drugbank_target|Q9Y6F1 Poly [ADP-ribose] polymerase 3 (DB07677; DB08058; DB08348; DB09074; DB12332)
 OpenBabel12092120463D

  0  0  0     0  0            999 V3000
M  V30 BEGIN CTAB
M  V30 COUNTS 8395 8493 0 0 0
M  V30 BEGIN ATOM
M  V30 1 H -0.908 1.98254 -0.117106 0
M  V30 2 N 0 1.576 0 0
M  V30 3 C 0.933 2.03868 1.02534 0
M  V30 4 C 1.911 0.928543 1.3348 0
M  V30 5 O 3.095 1.19667 1.45644 0
M  V30 6 C 0.222 2.43627 2.35294 0
M  V30 7 C -0.732 3.65373 2.2001 0
M  V30 8 S 0.101 5.13292 1.52614 0
M  V30 9 C 1.257 5.56322 2.86805 0
M  V30 10 H 1.49 2.90518 0.631377 0
M  V30 11 H -0.977 1.52953 0.210867 0
M  V30 12 H 0.981 2.67203 3.11629 0
M  V30 13 H -0.358 1.57376 2.7183 0
M  V30 14 H -1.165 3.90944 3.18086 0
M  V30 15 H -1.563 3.418 1.51819 0
M  V30 16 H 0.729 5.58782 3.83104 0
M  V30 17 H 1.672 6.56266 2.65933 0
M  V30 18 H 2.08 4.83886 2.90714 0
M  V30 19 N 1.4781 -0.272755 1.55222 0
M  V30 20 C 2.4411 -1.32041 1.87344 0
M  V30 21 C 3.4411 -1.42342 0.74803 0
M  V30 22 O 4.6311 -1.41488 1.0162 0
M  V30 23 C 1.7631 -2.70173 2.07893 0
M  V30 24 H 2.9561 -1.04789 2.80997 0
M  V30 25 H 0.5091 -0.51083 1.47717 0
M  V30 26 H 1.2441 -3.02605 1.16622 0
M  V30 27 H 1.0291 -2.64082 2.89833 0
M  V30 28 H 2.5191 -3.45869 2.34017 0
M  V30 29 N 2.9562 -1.48159 -0.537278 0
M  V30 30 C 4.3672 -1.49429 -1.11928 0
M  V30 31 C 4.7182 -0.26 -1.9447 0
M  V30 32 O 3.8432 0.633489 -2.0692 0
M  V30 33 C 4.4382 -2.70758 -2.03656 0
M  V30 34 C 2.9972 -2.74923 -2.57088 0
M  V30 35 C 2.1442 -2.42835 -1.3389 0
M  V30 36 H 5.0952 -1.55381 -0.322886 0
M  V30 37 H 5.1162 -2.48861 -2.87834 0
M  V30 38 H 4.6282 -3.60575 -1.43553 0
M  V30 39 H 2.7292 -1.89296 -3.20933 0
M  V30 40 H 2.8422 -3.76157 -2.9672 0
M  V30 41 H 1.2062 -1.93836 -1.65226 0
M  V30 42 H 1.9892 -3.34884 -0.755504 0
M  V30 43 N 4.4343 0.785586 -1.36625 0
M  V30 44 C 5.3813 1.89838 -1.31264 0
M  V30 45 C 6.3513 1.65115 -0.180633 0
M  V30 46 O 7.5363 1.87222 -0.36777 0
M  V30 47 C 4.6763 3.26706 -1.11163 0
M  V30 48 C 3.7893 3.63476 -2.33472 0
M  V30 49 C 2.9243 4.89481 -2.06353 0
M  V30 50 C 1.9633 5.18941 -3.24602 0
M  V30 51 N 1.1003 6.36131 -2.97123 0
M  V30 52 H 5.9403 1.93756 -2.26413 0
M  V30 53 H 3.4773 0.947454 -1.12524 0
M  V30 54 H 5.4353 4.05639 -0.975337 0
M  V30 55 H 4.0653 3.222 -0.196674 0
M  V30 56 H 3.1173 2.79636 -2.57891 0
M  V30 57 H 4.4293 3.81193 -3.21704 0
M  V30 58 H 3.5833 5.76288 -1.89675 0
M  V30 59 H 2.3223 4.73841 -1.15437 0
M  V30 60 H 1.3273 4.30615 -3.41834 0
M  V30 61 H 2.5523 5.36498 -4.16349 0
M  V30 62 H 0.4983 6.21875 -2.08823 0
M  V30 63 H 0.4153 6.54198 -3.78894 0
M  V30 64 H 1.6833 7.2591 -2.84033 0
M  V30 65 N 5.9124 1.20967 1.01018 0
M  V30 66 C 7.3234 1.02319 1.56165 0
M  V30 67 C 7.6744 -0.418546 1.91684 0
M  V30 68 O 6.7994 -1.30096 1.72928 0
M  V30 69 C 7.3944 1.85109 2.8376 0
M  V30 70 C 5.9534 1.70809 3.35412 0
M  V30 71 C 5.1004 1.82643 2.08655 0
M  V30 72 H 8.0514 1.35065 0.833255 0
M  V30 73 H 8.0724 1.35827 3.55431 0
M  V30 74 H 7.5844 2.90035 2.57878 0
M  V30 75 H 5.6854 0.685464 3.66241 0
M  V30 76 H 5.7984 2.52467 4.07182 0
M  V30 77 H 4.1624 1.25896 2.21409 0
M  V30 78 H 4.9454 2.89066 1.85191 0
M  V30 79 N 7.3905 -1.2043 1.01659 0
M  V30 80 C 8.3375 -2.23215 0.586822 0
M  V30 81 C 9.3075 -1.61382 -0.393085 0
M  V30 82 O 10.4925 -1.88544 -0.292525 0
M  V30 83 C 7.6325 -3.45032 -0.0687464 0
M  V30 84 C 6.7455 -4.21296 0.955724 0
M  V30 85 C 5.8805 -5.30507 0.271208 0
M  V30 86 C 4.9195 -5.98515 1.28244 0
M  V30 87 N 4.0565 -6.99316 0.62459 0
M  V30 88 H 8.8965 -2.59336 1.46796 0
M  V30 89 H 6.4335 -1.27431 0.734836 0
M  V30 90 H 8.3915 -4.1459 -0.465965 0
M  V30 91 H 7.0215 -3.09604 -0.913529 0
M  V30 92 H 6.0735 -3.50803 1.4711 0
M  V30 93 H 7.3855 -4.6803 1.72479 0
M  V30 94 H 6.5395 -6.06428 -0.18151 0
M  V30 95 H 5.2785 -4.8481 -0.530163 0
M  V30 96 H 4.2835 -5.21355 1.74554 0
M  V30 97 H 5.5085 -6.46298 2.08509 0
M  V30 98 H 3.4545 -6.55812 -0.156914 0
M  V30 99 H 3.3715 -7.44178 1.33172 0
M  V30 100 H 4.6395 -7.79255 0.195462 0
M  V30 101 N 8.8686 -0.792821 -1.36206 0
M  V30 102 C 10.2796 -0.429513 -1.81692 0
M  V30 103 C 10.6306 1.04695 -1.65932 0
M  V30 104 O 9.7556 1.81256 -1.18218 0
M  V30 105 C 10.3506 -0.772831 -3.29868 0
M  V30 106 C 8.9096 -0.462307 -3.7355 0
M  V30 107 C 8.0566 -1.00569 -2.5842 0
M  V30 108 H 11.0076 -0.985672 -1.24379 0
M  V30 109 H 11.0286 -0.0651928 -3.80444 0
M  V30 110 H 10.5406 -1.84747 -3.41307 0
M  V30 111 H 8.6416 0.604158 -3.67669 0
M  V30 112 H 8.7546 -0.985299 -4.68859 0
M  V30 113 H 7.1186 -0.428734 -2.51066 0
M  V30 114 H 7.9016 -2.08616 -2.72643 0
M  V30 115 N 10.3467 1.47872 -0.545128 0
M  V30 116 C 11.5927 2.03385 -0.0247951 0
M  V30 117 C 11.9477 1.41325 1.30556 0
M  V30 118 O 11.2407 0.5552 1.8338 0
M  V30 119 C 11.4347 3.57131 0.13867 0
M  V30 120 C 11.2637 4.34097 -1.17429 0
M  V30 121 C 10.0337 4.74458 -1.73831 0
M  V30 122 C 12.2317 4.6998 -2.08861 0
M  V30 123 N 10.2137 5.3602 -2.99258 0
M  V30 124 C 11.5847 5.31719 -3.18866 0
M  V30 125 C 13.6397 4.5191 -2.09003 0
M  V30 126 C 12.3427 5.77295 -4.29096 0
M  V30 127 C 14.3687 4.98477 -3.18237 0
M  V30 128 C 13.7307 5.60253 -4.26961 0
M  V30 129 H 9.8297 0.780339 -0.050943 0
M  V30 130 H 12.4137 1.80507 -0.729753 0
M  V30 131 H 10.5847 3.79802 0.812733 0
M  V30 132 H 12.3167 3.99282 0.659976 0
M  V30 133 H 9.0717 4.56037 -1.2778 0
M  V30 134 H 9.4957 5.71355 -3.63157 0
M  V30 135 H 14.1377 4.03516 -1.26234 0
M  V30 136 H 11.8557 6.24687 -5.12633 0
M  V30 137 H 15.4417 4.86274 -3.1942 0
M  V30 138 H 14.3217 5.95631 -5.10091 0
M  V30 139 N 11.8248 0.280983 1.55075 0
M  V30 140 C 13.0708 -0.33461 2.00021 0
M  V30 141 C 13.4038 -1.55063 1.16915 0
M  V30 142 O 12.6788 -1.93006 0.240646 0
M  V30 143 C 12.9618 -0.711007 3.53011 0
M  V30 144 C 12.8148 0.512766 4.46868 0
M  V30 145 C 14.1338 -1.54522 4.12081 0
M  V30 146 H 11.2528 -0.120147 0.727141 0
M  V30 147 H 13.8948 0.389097 1.85973 0
M  V30 148 H 12.0448 -1.32761 3.65112 0
M  V30 149 H 13.7168 1.15131 4.46702 0
M  V30 150 H 11.9598 1.14975 4.18286 0
M  V30 151 H 12.6308 0.205556 5.51617 0
M  V30 152 H 15.1068 -1.02442 4.03293 0
M  V30 153 H 13.9828 -1.77739 5.19327 0
M  V30 154 H 14.2438 -2.52813 3.62682 0
M  V30 155 N 13.3029 -1.57598 0.00835791 0
M  V30 156 C 14.2349 -2.05811 -1.00868 0
M  V30 157 C 15.2479 -0.977579 -1.30182 0
M  V30 158 O 16.4369 -1.25421 -1.27011 0
M  V30 159 C 13.5369 -2.45016 -2.34137 0
M  V30 160 C 12.7099 -3.75903 -2.23643 0
M  V30 161 C 11.7689 -4.01884 -3.3967 0
M  V30 162 O 10.7949 -4.72433 -3.17483 0
M  V30 163 N 11.9969 -3.50432 -4.62793 0
M  V30 164 H 14.7619 -2.93684 -0.597458 0
M  V30 165 H 12.3229 -1.60909 -0.178852 0
M  V30 166 H 14.3149 -2.59506 -3.10546 0
M  V30 167 H 12.8849 -1.62618 -2.66972 0
M  V30 168 H 12.1049 -3.7141 -1.32091 0
M  V30 169 H 13.3929 -4.61695 -2.13812 0
M  V30 170 H 12.7909 -2.93317 -4.83716 0
M  V30 171 H 11.3479 -3.70236 -5.3644 0
M  V30 172 N 14.781 0.264519 -1.55364 0
M  V30 173 C 16.009 1.013 -1.80405 0
M  V30 174 C 16.424 1.79618 -0.581622 0
M  V30 175 O 15.781 1.76879 0.449468 0
M  V30 176 C 15.832 1.96487 -3.03439 0
M  V30 177 O 15.553 1.21341 -4.20961 0
M  V30 178 C 17.054 2.83079 -3.41147 0
M  V30 179 H 14.274 0.298875 -0.600762 0
M  V30 180 H 16.818 0.292736 -2.02394 0
M  V30 181 H 14.973 2.63965 -2.83551 0
M  V30 182 H 15.387 1.85573 -4.90574 0
M  V30 183 H 16.861 3.4565 -4.30384 0
M  V30 184 H 17.338 3.53286 -2.60932 0
M  V30 185 H 17.944 2.2108 -3.63323 0
M  V30 186 N 16.2591 1.48442 0.529413 0
M  V30 187 C 17.1691 1.6569 1.66084 0
M  V30 188 C 18.1851 0.539432 1.65427 0
M  V30 189 O 19.3611 0.810572 1.84368 0
M  V30 190 C 16.4261 1.69315 3.02545 0
M  V30 191 C 15.4871 2.92694 3.14052 0
M  V30 192 C 14.7201 2.96137 4.44003 0
M  V30 193 O 14.9431 2.07973 5.31134 0
M  V30 194 O 13.8771 3.88312 4.59888 0
M  V30 195 H 17.7031 2.61483 1.54469 0
M  V30 196 H 15.2881 1.3185 0.702567 0
M  V30 197 H 17.1701 1.74217 3.83701 0
M  V30 198 H 15.8451 0.766966 3.14483 0
M  V30 199 H 14.7521 2.93324 2.32189 0
M  V30 200 H 16.0851 3.84699 3.0703 0
M  V30 201 N 17.7372 -0.778329 1.37039 0
M  V30 202 C 18.9852 -1.53361 1.31623 0
M  V30 203 C 19.3062 -1.94739 -0.100831 0
M  V30 204 O 18.5762 -1.65797 -1.04347 0
M  V30 205 H 17.1562 -0.568794 0.484234 0
M  V30 206 H 19.8182 -0.926742 1.71457 0
M  V30 207 H 18.9142 -2.43606 1.95096 0
M  V30 208 N 19.2153 -1.21501 -1.00376 0
M  V30 209 C 20.6263 -1.03146 -1.55621 0
M  V30 210 C 20.9773 0.408375 -1.91903 0
M  V30 211 O 20.1023 1.29177 -1.73616 0
M  V30 212 C 20.6973 -1.86612 -2.82775 0
M  V30 213 C 19.2563 -1.72586 -3.34501 0
M  V30 214 C 18.4033 -1.83747 -2.07683 0
M  V30 215 H 21.3543 -1.35505 -0.826081 0
M  V30 216 H 21.3753 -1.3771 -3.54706 0
M  V30 217 H 20.8873 -2.91399 -2.56336 0
M  V30 218 H 18.9883 -0.704877 -3.65872 0
M  V30 219 H 19.1013 -2.54623 -4.05837 0
M  V30 220 H 17.4653 -1.27069 -2.20739 0
M  V30 221 H 18.2483 -2.90044 -1.83655 0
M  V30 222 N 20.6934 1.19889 -1.02296 0
M  V30 223 C 21.6034 2.26571 -0.608508 0
M  V30 224 C 22.6194 1.70299 0.356964 0
M  V30 225 O 23.7954 2.00235 0.216326 0
M  V30 226 C 20.8604 3.46677 0.0402814 0
M  V30 227 C 19.9214 4.18153 -0.97194 0
M  V30 228 C 19.1544 5.32525 -0.354016 0
M  V30 229 O 19.3774 5.64112 0.844604 0
M  V30 230 O 18.3114 5.92242 -1.07391 0
M  V30 231 H 22.1374 2.64251 -1.49684 0
M  V30 232 H 19.7224 1.26629 -0.792809 0
M  V30 233 H 21.6044 4.19475 0.402324 0
M  V30 234 H 20.2794 3.10858 0.902707 0
M  V30 235 H 19.1864 3.47499 -1.38546 0
M  V30 236 H 20.5194 4.57927 -1.80454 0
M  V30 237 N 22.1715 0.800033 1.35784 0
M  V30 238 C 23.1185 0.203848 2.29898 0
M  V30 239 C 24.0885 -0.658375 1.52495 0
M  V30 240 O 25.2735 -0.604832 1.8096 0
M  V30 241 C 22.4135 -0.64688 3.38983 0
M  V30 242 C 21.5265 0.235054 4.3136 0
M  V30 243 C 20.6615 -0.623054 5.27533 0
M  V30 244 C 19.7005 0.259682 6.11549 0
M  V30 245 N 18.8375 -0.558019 6.99879 0
M  V30 246 H 23.6775 1.01186 2.80295 0
M  V30 247 H 21.2145 0.51053 1.37957 0
M  V30 248 H 23.1725 -1.15521 4.00887 0
M  V30 249 H 21.8025 -1.42021 2.89879 0
M  V30 250 H 20.8545 0.861438 3.70518 0
M  V30 251 H 22.1665 0.914768 4.9034 0
M  V30 252 H 21.3205 -1.19678 5.94779 0
M  V30 253 H 20.0595 -1.33636 4.69034 0
M  V30 254 H 19.0645 0.845726 5.43256 0
M  V30 255 H 20.2895 0.970748 6.72126 0
M  V30 256 H 18.2355 -1.25542 6.43875 0
M  V30 257 H 18.1525 0.0637872 7.55973 0
M  V30 258 H 19.4205 -1.11523 7.71481 0
M  V30 259 N 23.6496 -1.47581 0.552962 0
M  V30 260 C 24.5966 -2.29957 -0.197108 0
M  V30 261 C 25.5666 -1.38799 -0.912359 0
M  V30 262 O 26.7516 -1.67761 -0.908888 0
M  V30 263 C 23.8916 -3.22672 -1.22379 0
M  V30 264 C 23.0046 -4.28919 -0.515038 0
M  V30 265 C 22.1396 -5.0879 -1.52664 0
M  V30 266 C 21.1786 -6.06815 -0.802631 0
M  V30 267 N 20.3156 -6.7966 -1.76086 0
M  V30 268 H 25.1556 -2.93578 0.511486 0
M  V30 269 H 22.6926 -1.4471 0.264067 0
M  V30 270 H 24.6506 -3.74845 -1.83159 0
M  V30 271 H 23.2806 -2.60925 -1.90047 0
M  V30 272 H 22.3326 -3.79835 0.207192 0
M  V30 273 H 23.6446 -4.98773 0.0523425 0
M  V30 274 H 22.7986 -5.65091 -2.20809 0
M  V30 275 H 21.5376 -4.38828 -2.12794 0
M  V30 276 H 20.5426 -5.49695 -0.107238 0
M  V30 277 H 21.7676 -6.78784 -0.207135 0
M  V30 278 H 19.7136 -6.12432 -2.35081 0
M  V30 279 H 19.6306 -7.45669 -1.24552 0
M  V30 280 H 20.8986 -7.40538 -2.43359 0
M  V30 281 N 25.1277 -0.289203 -1.54924 0
M  V30 282 C 26.0747 0.592115 -2.23075 0
M  V30 283 C 27.0447 1.13881 -1.20915 0
M  V30 284 O 28.2297 1.18551 -1.495 0
M  V30 285 C 25.3697 1.76376 -2.96623 0
M  V30 286 C 24.4827 1.24959 -4.13533 0
M  V30 287 C 23.6177 2.38416 -4.74691 0
M  V30 288 C 22.6567 1.84072 -5.83767 0
M  V30 289 N 21.7937 2.91057 -6.38929 0
M  V30 290 H 26.6337 0.00432038 -2.98 0
M  V30 291 H 24.1707 -0.00963529 -1.47097 0
M  V30 292 H 26.1287 2.45268 -3.3749 0
M  V30 293 H 24.7587 2.32337 -2.24097 0
M  V30 294 H 23.8107 0.453307 -3.77689 0
M  V30 295 H 25.1227 0.811662 -4.92152 0
M  V30 296 H 24.2767 3.15276 -5.18349 0
M  V30 297 H 23.0157 2.8553 -3.95378 0
M  V30 298 H 22.0207 1.05697 -5.39545 0
M  V30 299 H 23.2457 1.37877 -6.64956 0
M  V30 300 H 21.1917 3.37526 -5.62505 0
M  V30 301 H 21.1087 2.51724 -7.12861 0
M  V30 302 H 22.3767 3.6785 -6.87246 0
M  V30 303 N 26.6058 1.57591 -0.0167156 0
M  V30 304 C 27.8538 1.90906 0.663285 0
M  V30 305 C 28.1748 0.892509 1.73376 0
M  V30 306 O 27.4448 -0.0677623 1.95783 0
M  V30 307 H 26.0248 0.704637 0.247983 0
M  V30 308 H 28.6868 1.94803 -0.0615909 0
M  V30 309 H 27.7828 2.9116 1.12393 0
M  V30 310 N 28.0839 -0.256276 1.55502 0
M  V30 311 C 29.4999 -0.604325 1.47716 0
M  V30 312 C 29.6999 -1.88763 0.705039 0
M  V30 313 O 28.7559 -2.51445 0.230613 0
M  V30 314 C 30.0689 -0.715756 2.92057 0
M  V30 315 C 31.6169 -0.808706 3.02372 0
M  V30 316 C 32.0919 -0.951777 4.48001 0
M  V30 317 N 33.5829 -1.01688 4.519 0
M  V30 318 C 34.3179 -1.14668 5.61817 0
M  V30 319 N 33.8139 -1.24261 6.81565 0
M  V30 320 N 35.6069 -1.1791 5.49594 0
M  V30 321 H 27.7579 0.586291 2.04148 0
M  V30 322 H 30.0209 0.201015 0.926443 0
M  V30 323 H 29.7269 0.157027 3.51349 0
M  V30 324 H 29.6009 -1.59071 3.42018 0
M  V30 325 H 31.9879 -1.67195 2.43166 0
M  V30 326 H 32.0689 0.0912063 2.55637 0
M  V30 327 H 31.7129 -0.0931291 5.07815 0
M  V30 328 H 31.6429 -1.86659 4.92408 0
M  V30 329 H 34.1339 -0.954468 3.65648 0
M  V30 330 H 34.4469 -1.34046 7.61086 0
M  V30 331 H 32.7919 -1.21236 6.84344 0
M  V30 332 H 35.9829 -1.10057 4.54978 0
M  V30 333 H 36.1559 -1.27681 6.35296 0
M  V30 334 N 29.562 -1.4872 -0.521534 0
M  V30 335 C 30.494 -1.59968 -1.64143 0
M  V30 336 C 31.507 -0.483463 -1.55456 0
M  V30 337 O 32.696 -0.75467 -1.61762 0
M  V30 338 C 29.796 -1.52127 -3.02838 0
M  V30 339 C 28.969 -2.78932 -3.36921 0
M  V30 340 C 28.028 -2.64428 -4.54933 0
M  V30 341 O 27.054 -3.38331 -4.57735 0
M  V30 342 N 28.256 -1.74606 -5.53618 0
M  V30 343 H 31.021 -2.56548 -1.54929 0
M  V30 344 H 28.582 -1.45551 -0.708988 0
M  V30 345 H 30.574 -1.40106 -3.79674 0
M  V30 346 H 29.144 -0.634868 -3.06085 0
M  V30 347 H 28.364 -3.05455 -2.4918 0
M  V30 348 H 29.652 -3.63041 -3.56481 0
M  V30 349 H 29.05 -1.13782 -5.54139 0
M  V30 350 H 27.607 -1.6852 -6.29638 0
M  V30 351 N 31.0401 0.771051 -1.3745 0
M  V30 352 C 32.0031 1.86598 -1.33093 0
M  V30 353 C 33.0031 1.59076 -0.234845 0
M  V30 354 O 34.1931 1.67145 -0.490732 0
M  V30 355 C 31.3251 3.23747 -1.06773 0
M  V30 356 H 32.5181 1.91873 -2.30488 0
M  V30 357 H 30.0711 0.970876 -1.2249 0
M  V30 358 H 30.8061 3.24148 -0.099129 0
M  V30 359 H 30.5911 3.45115 -1.86112 0
M  V30 360 H 32.0811 4.03824 -1.06377 0
M  V30 361 N 32.5182 1.22032 0.997298 0
M  V30 362 C 33.7662 1.04016 1.73278 0
M  V30 363 C 34.0872 -0.426255 1.90284 0
M  V30 364 O 33.3572 -1.30694 1.45931 0
M  V30 365 H 31.9372 0.381897 0.642 0
M  V30 366 H 34.5992 1.5347 1.20137 0
M  V30 367 H 33.6952 1.51441 2.72896 0
M  V30 368 N 33.9963 -1.19345 1.0293 0
M  V30 369 C 35.4123 -1.41069 0.746446 0
M  V30 370 C 35.6123 -1.90078 -0.668776 0
M  V30 371 O 34.6683 -2.0778 -1.4347 0
M  V30 372 C 35.9813 -2.42141 1.78292 0
M  V30 373 C 37.5293 -2.55887 1.80252 0
M  V30 374 C 38.0043 -3.60214 2.8286 0
M  V30 375 N 39.4953 -3.67711 2.81679 0
M  V30 376 C 40.2303 -4.48128 3.57727 0
M  V30 377 N 39.7263 -5.32248 4.43491 0
M  V30 378 N 41.5193 -4.42782 3.46267 0
M  V30 379 H 33.6703 -0.858536 1.94275 0
M  V30 380 H 35.9333 -0.439541 0.839945 0
M  V30 381 H 35.6393 -2.13155 2.79746 0
M  V30 382 H 35.5133 -3.41323 1.60557 0
M  V30 383 H 37.9003 -2.84196 0.794757 0
M  V30 384 H 37.9813 -1.56858 2.02062 0
M  V30 385 H 37.6253 -3.32647 3.83807 0
M  V30 386 H 37.5553 -4.58895 2.58307 0
M  V30 387 H 40.0463 -3.07634 2.19476 0
M  V30 388 H 40.3593 -5.90729 4.98256 0
M  V30 389 H 38.7043 -5.31707 4.47564 0
M  V30 390 H 41.8953 -3.76107 2.78677 0
M  V30 391 H 42.0683 -5.05215 4.05785 0
M  V30 392 N 35.4744 -0.807222 -1.35358 0
M  V30 393 C 36.3844 -0.219594 -2.3357 0
M  V30 394 C 37.4004 0.637734 -1.61892 0
M  V30 395 O 38.5764 0.549336 -1.93763 0
M  V30 396 C 35.6414 0.62158 -3.41083 0
M  V30 397 C 34.7024 -0.256315 -4.28534 0
M  V30 398 C 33.9354 0.544807 -5.30912 0
M  V30 399 O 34.1584 1.77944 -5.41934 0
M  V30 400 O 33.0924 -0.0646478 -6.01865 0
M  V30 401 H 36.9184 -1.03208 -2.85625 0
M  V30 402 H 34.5034 -0.569025 -1.38139 0
M  V30 403 H 36.3854 1.10067 -4.06772 0
M  V30 404 H 35.0604 1.41165 -2.91297 0
M  V30 405 H 33.9674 -0.782559 -3.65823 0
M  V30 406 H 35.3004 -1.01034 -4.81719 0
M  V30 407 N 36.9525 1.47285 -0.560781 0
M  V30 408 C 37.8625 2.33846 0.187954 0
M  V30 409 C 38.8785 1.48412 0.908293 0
M  V30 410 O 40.0545 1.81332 0.876388 0
M  V30 411 C 37.1195 3.25178 1.2025 0
M  V30 412 C 36.1805 4.26504 0.489208 0
M  V30 413 C 35.4135 5.13472 1.45542 0
M  V30 414 O 35.6365 5.02959 2.6905 0
M  V30 415 O 34.5705 5.93902 0.977963 0
M  V30 416 H 38.3965 2.99177 -0.522177 0
M  V30 417 H 35.9815 1.45903 -0.321364 0
M  V30 418 H 37.8635 3.81584 1.78805 0
M  V30 419 H 36.5385 2.6247 1.89449 0
M  V30 420 H 35.4455 3.73847 -0.137627 0
M  V30 421 H 36.7785 4.91935 -0.161399 0
M  V30 422 N 38.4306 0.297415 1.54768 0
M  V30 423 C 39.7076 -0.365847 1.92148 0
M  V30 424 C 40.0876 -1.71975 1.22424 0
M  V30 425 O 39.4356 -2.25666 0.358739 0
M  V30 426 C 39.6456 -0.484056 3.45627 0
M  V30 427 C 40.9936 -0.756594 4.17805 0
M  V30 428 O 42.0176 -0.568007 3.51642 0
M  V30 429 O 40.8766 -1.11863 5.34929 0
M  V30 430 H 37.9706 -0.203919 0.801465 0
M  V30 431 H 40.5166 0.34521 1.66152 0
M  V30 432 H 39.2886 0.467865 3.88493 0
M  V30 433 H 38.9116 -1.24372 3.77647 0
M  V30 434 N 39.9087 -1.5758 0.0250728 0
M  V30 435 C 41.3197 -1.79476 -0.514323 0
M  V30 436 C 41.6707 -0.934956 -1.72491 0
M  V30 437 O 40.7957 -0.144245 -2.15919 0
M  V30 438 C 41.3907 -3.25503 -0.939842 0
M  V30 439 C 39.9497 -3.48408 -1.42438 0
M  V30 440 C 39.0967 -2.74583 -0.387201 0
M  V30 441 H 42.0477 -1.567 0.25113 0
M  V30 442 H 42.0687 -3.34992 -1.80445 0
M  V30 443 H 41.5807 -3.88056 -0.0585628 0
M  V30 444 H 39.6817 -2.91103 -2.32572 0
M  V30 445 H 39.7947 -4.57119 -1.43455 0
M  V30 446 H 38.1587 -2.39942 -0.854409 0
M  V30 447 H 38.9417 -3.39849 0.485543 0
M  V30 448 N 41.3868 0.248026 -1.55636 0
M  V30 449 C 42.6338 0.976224 -1.77415 0
M  V30 450 C 42.9618 1.85361 -0.589193 0
M  V30 451 O 42.2168 1.90973 0.427529 0
M  V30 452 C 42.5158 1.86819 -3.04686 0
M  V30 453 C 42.1818 1.14625 -4.36087 0
M  V30 454 C 40.8438 0.946723 -4.71795 0
M  V30 455 C 43.1958 0.634463 -5.17324 0
M  V30 456 C 40.5238 0.223091 -5.86276 0
M  V30 457 C 42.8758 -0.0756959 -6.32555 0
M  V30 458 C 41.5398 -0.286711 -6.66884 0
M  V30 459 H 40.8098 0.357226 -0.649208 0
M  V30 460 H 43.4568 0.246415 -1.89908 0
M  V30 461 H 41.7618 2.66502 -2.872 0
M  V30 462 H 43.4588 2.43329 -3.18735 0
M  V30 463 H 40.0488 1.3117 -4.08035 0
M  V30 464 H 44.2328 0.77616 -4.90193 0
M  V30 465 H 39.4888 0.0491185 -6.1138 0
M  V30 466 H 43.6628 -0.479899 -6.94745 0
M  V30 467 H 41.2898 -0.849389 -7.5544 0
M  V30 468 N 42.8649 1.48995 0.513639 0
M  V30 469 C 44.2809 1.35478 0.843682 0
M  V30 470 C 44.4809 0.378213 1.97919 0
M  V30 471 O 43.5369 -0.194689 2.51748 0
M  V30 472 C 44.8499 2.75901 1.1958 0
M  V30 473 C 46.3979 2.84509 1.30474 0
M  V30 474 C 46.8729 4.25671 1.69021 0
M  V30 475 N 48.3639 4.28422 1.76094 0
M  V30 476 C 49.0989 5.34601 2.07338 0
M  V30 477 N 48.5949 6.5104 2.36894 0
M  V30 478 N 50.3879 5.22007 2.08483 0
M  V30 479 H 42.5389 2.11092 -0.235328 0
M  V30 480 H 44.8019 0.947039 -0.0426669 0
M  V30 481 H 44.5079 3.49001 0.434913 0
M  V30 482 H 44.3819 3.10467 2.1422 0
M  V30 483 H 46.7689 2.11655 2.05637 0
M  V30 484 H 46.8499 2.53542 0.339155 0
M  V30 485 H 46.4939 4.99048 0.944135 0
M  V30 486 H 46.4239 4.54094 2.66658 0
M  V30 487 H 48.9149 3.44441 1.55464 0
M  V30 488 H 49.2279 7.2779 2.59887 0
M  V30 489 H 47.5729 6.54287 2.34378 0
M  V30 490 H 50.7639 4.30051 1.84861 0
M  V30 491 H 50.9369 6.04854 2.325 0
M  V30 492 N 44.343 -0.763751 1.37857 0
M  V30 493 C 45.568 -1.55805 1.36893 0
M  V30 494 C 45.993 -1.88054 -0.0416135 0
M  V30 495 O 45.351 -1.49825 -1.02089 0
M  V30 496 C 45.399 -2.84012 2.22192 0
M  V30 497 O 44.503 -3.78732 1.63204 0
M  V30 498 H 43.844 -0.471638 0.46739 0
M  V30 499 H 46.374 -0.944657 1.81487 0
M  V30 500 H 46.384 -3.33037 2.35691 0
M  V30 501 H 45.059 -2.59869 3.24716 0
M  V30 502 H 43.636 -3.37402 1.58791 0
M  V30 503 N 45.8211 -1.22559 -0.990812 0
M  V30 504 C 47.0491 -1.07779 -1.76611 0
M  V30 505 C 47.4641 0.371513 -1.85109 0
M  V30 506 O 46.8211 1.25737 -1.32274 0
M  V30 507 C 46.8721 -1.68512 -3.19822 0
M  V30 508 O 46.5931 -3.07774 -3.1178 0
M  V30 509 C 48.0941 -1.59035 -4.13791 0
M  V30 510 H 45.3141 -0.377729 -0.554583 0
M  V30 511 H 47.8581 -1.62195 -1.24551 0
M  V30 512 H 46.0131 -1.18154 -3.68942 0
M  V30 513 H 46.4271 -3.37062 -4.01858 0
M  V30 514 H 47.9011 -2.0625 -5.1202 0
M  V30 515 H 48.3781 -0.547273 -4.35777 0
M  V30 516 H 48.9841 -2.08709 -3.70568 0
M  V30 517 N 47.2992 1.18797 -1.03562 0
M  V30 518 C 48.2622 2.20464 -0.626769 0
M  V30 519 C 49.2622 1.57721 0.313173 0
M  V30 520 O 50.4522 1.73917 0.0992615 0
M  V30 521 C 47.5842 3.40802 0.0818498 0
M  V30 522 H 48.7772 2.58149 -1.5264 0
M  V30 523 H 46.3302 1.32593 -0.827578 0
M  V30 524 H 47.0652 3.08642 0.995518 0
M  V30 525 H 46.8502 3.8758 -0.593652 0
M  V30 526 H 48.3402 4.16092 0.354584 0
M  V30 527 N 48.7773 0.814389 1.34928 0
M  V30 528 C 49.6873 0.231978 2.3345 0
M  V30 529 C 50.7033 -0.629139 1.62228 0
M  V30 530 O 51.8793 -0.539052 1.94052 0
M  V30 531 C 48.9443 -0.603482 3.41407 0
M  V30 532 C 48.0053 0.279037 4.28392 0
M  V30 533 C 47.2383 -0.516643 5.31193 0
M  V30 534 O 47.4613 -1.75068 5.4287 0
M  V30 535 O 46.3953 0.0965652 6.01823 0
M  V30 536 H 50.2213 1.04721 2.85074 0
M  V30 537 H 47.8063 0.576343 1.37836 0
M  V30 538 H 49.6883 -1.07908 4.0735 0
M  V30 539 H 48.3633 -1.39618 2.92042 0
M  V30 540 H 47.2703 0.801948 3.65403 0
M  V30 541 H 48.6033 1.03588 4.81176 0
M  V30 542 N 50.2554 -1.46986 0.568584 0
M  V30 543 C 51.2184 -2.28624 -0.162366 0
M  V30 544 C 52.2184 -1.37596 -0.832103 0
M  V30 545 O 53.4084 -1.60115 -0.68622 0
M  V30 546 C 50.5404 -3.17596 -1.23878 0
M  V30 547 H 51.7334 -2.94722 0.554899 0
M  V30 548 H 49.2864 -1.52863 0.325976 0
M  V30 549 H 50.0214 -2.56214 -1.98808 0
M  V30 550 H 49.8064 -3.846 -0.763219 0
M  V30 551 H 51.2964 -3.79078 -1.75185 0
M  V30 552 N 51.7335 -0.305618 -1.54608 0
M  V30 553 C 52.6635 0.561482 -2.26649 0
M  V30 554 C 53.6445 1.13415 -1.26772 0
M  V30 555 O 54.8295 1.16262 -1.55553 0
M  V30 556 C 51.9595 1.73122 -3.01075 0
M  V30 557 C 50.9135 1.2887 -4.08138 0
M  V30 558 C 50.2395 2.54396 -4.70305 0
M  V30 559 C 51.5395 0.416578 -5.20636 0
M  V30 560 H 53.2335 -0.0393902 -2.99374 0
M  V30 561 H 50.7795 -0.020385 -1.43986 0
M  V30 562 H 52.7325 2.34396 -3.50195 0
M  V30 563 H 51.4565 2.3584 -2.25936 0
M  V30 564 H 50.1155 0.698991 -3.59875 0
M  V30 565 H 49.7635 3.15439 -3.918 0
M  V30 566 H 49.4635 2.25486 -5.42614 0
M  V30 567 H 50.9875 3.16464 -5.2219 0
M  V30 568 H 52.4015 0.935116 -5.65622 0
M  V30 569 H 50.7985 0.221046 -5.99693 0
M  V30 570 H 51.8685 -0.557162 -4.81688 0
M  V30 571 N 53.2116 1.57565 -0.0334293 0
M  V30 572 C 54.1586 2.10478 0.946981 0
M  V30 573 C 55.1286 1.00787 1.32027 0
M  V30 574 O 56.3136 1.28232 1.41284 0
M  V30 575 C 53.4536 2.63994 2.22263 0
M  V30 576 C 52.5666 3.87709 1.90541 0
M  V30 577 C 51.7016 4.29604 3.12433 0
M  V30 578 C 50.7406 5.46065 2.76549 0
M  V30 579 N 49.8776 5.83096 3.9108 0
M  V30 580 H 54.7176 2.93963 0.488846 0
M  V30 581 H 52.2546 1.45296 0.22969 0
M  V30 582 H 54.2126 2.93114 2.96884 0
M  V30 583 H 52.8426 1.83333 2.65685 0
M  V30 584 H 51.8946 3.65291 1.06144 0
M  V30 585 H 53.2066 4.72403 1.60116 0
M  V30 586 H 52.3606 4.60182 3.9537 0
M  V30 587 H 51.0996 3.43685 3.46023 0
M  V30 588 H 50.1046 5.15176 1.92026 0
M  V30 589 H 51.3296 6.33685 2.44171 0
M  V30 590 H 49.2756 5.00132 4.24504 0
M  V30 591 H 49.1926 6.6244 3.64293 0
M  V30 592 H 50.4606 6.18282 4.74708 0
M  V30 593 N 54.6897 -0.239769 1.55765 0
M  V30 594 C 55.6527 -1.28038 1.90103 0
M  V30 595 C 56.6527 -1.40723 0.778055 0
M  V30 596 O 57.8427 -1.39301 1.04599 0
M  V30 597 C 54.9747 -2.65702 2.13577 0
M  V30 598 H 56.1677 -0.988048 2.83157 0
M  V30 599 H 53.7207 -0.479382 1.48767 0
M  V30 600 H 54.4557 -3.00063 1.23015 0
M  V30 601 H 54.2407 -2.57875 2.95369 0
M  V30 602 H 55.7307 -3.40828 2.41301 0
M  V30 603 N 56.1678 -1.49265 -0.50573 0
M  V30 604 C 57.4168 -1.57761 -1.25675 0
M  V30 605 C 57.7298 -0.267371 -1.93764 0
M  V30 606 O 58.9358 -0.230827 -2.70517 0
M  V30 607 C 57.3918 -2.78332 -2.28165 0
M  V30 608 C 56.9998 -4.16096 -1.66037 0
M  V30 609 C 58.7438 -2.96155 -3.04125 0
M  V30 610 C 56.6508 -5.27895 -2.6661 0
M  V30 611 H 55.5808 -0.587391 -0.472745 0
M  V30 612 H 58.2318 -1.75644 -0.53118 0
M  V30 613 H 56.6138 -2.53934 -3.03865 0
M  V30 614 H 57.7878 -4.50612 -0.963622 0
M  V30 615 H 56.1028 -4.03591 -1.02484 0
M  V30 616 H 58.6998 -3.76849 -3.79327 0
M  V30 617 H 59.0428 -2.06534 -3.61455 0
M  V30 618 H 59.5758 -3.2057 -2.35541 0
M  V30 619 H 56.3148 -6.1956 -2.14068 0
M  V30 620 H 55.8348 -4.97839 -3.34539 0
M  V30 621 H 57.5138 -5.57031 -3.29129 0
M  V30 622 N 57.6459 0.756429 -1.3826 0
M  V30 623 C 59.0569 1.33359 -1.30661 0
M  V30 624 C 59.4079 1.96161 0.0388875 0
M  V30 625 O 58.5329 1.94874 0.940918 0
M  V30 626 C 59.1279 2.42477 -2.36622 0
M  V30 627 C 57.6869 2.95922 -2.3261 0
M  V30 628 C 56.8339 1.69275 -2.19639 0
M  V30 629 H 59.7849 0.55552 -1.4866 0
M  V30 630 H 59.8059 3.22345 -2.02174 0
M  V30 631 H 59.3179 1.96739 -3.34538 0
M  V30 632 H 57.4189 3.45996 -1.38267 0
M  V30 633 H 57.5319 3.50494 -3.26636 0
M  V30 634 H 55.8959 1.92793 -1.66442 0
M  V30 635 H 56.6789 1.25619 -3.19491 0
M  V30 636 N 59.124 1.23083 0.984299 0
M  V30 637 C 60.087 1.00979 2.05757 0
M  V30 638 C 61.087 -0.0269573 1.60777 0
M  V30 639 O 62.277 0.212403 1.729 0
M  V30 640 C 59.409 0.527072 3.36801 0
M  V30 641 H 60.602 1.9622 2.26799 0
M  V30 642 H 58.155 1.05072 1.15714 0
M  V30 643 H 58.89 -0.429294 3.21446 0
M  V30 644 H 58.675 1.27515 3.70786 0
M  V30 645 H 60.165 0.392942 4.15747 0
M  V30 646 N 60.6021 -1.18246 1.0419 0
M  V30 647 C 61.5121 -2.25574 0.644476 0
M  V30 648 C 62.5281 -1.70845 -0.329826 0
M  V30 649 O 63.7041 -2.00554 -0.184443 0
M  V30 650 C 60.7691 -3.46697 0.014877 0
M  V30 651 C 59.8301 -4.16554 1.03834 0
M  V30 652 C 59.0631 -5.31894 0.438692 0
M  V30 653 O 59.2861 -5.65385 -0.754752 0
M  V30 654 O 58.2201 -5.90459 1.168 0
M  V30 655 H 62.0461 -2.61836 1.53869 0
M  V30 656 H 59.6311 -1.25352 0.812854 0
M  V30 657 H 61.5131 -4.20062 -0.335538 0
M  V30 658 H 60.1881 -3.12255 -0.853138 0
M  V30 659 H 59.0951 -3.45251 1.44057 0
M  V30 660 H 60.4281 -4.54998 1.87716 0
M  V30 661 N 62.0802 -0.821533 -1.34494 0
M  V30 662 C 63.0272 -0.240397 -2.29545 0
M  V30 663 C 63.9972 0.634031 -1.53523 0
M  V30 664 O 65.1822 0.575966 -1.81899 0
M  V30 665 C 62.3222 0.592869 -3.39969 0
M  V30 666 C 61.4352 -0.30365 -4.30932 0
M  V30 667 C 60.5702 0.539049 -5.28458 0
M  V30 668 C 59.6092 -0.356942 -6.11058 0
M  V30 669 N 58.7462 0.446603 -7.00678 0
M  V30 670 H 63.5862 -1.05632 -2.7865 0
M  V30 671 H 61.1232 -0.532413 -1.37127 0
M  V30 672 H 63.0812 1.09129 -4.02675 0
M  V30 673 H 61.7112 1.37392 -2.92102 0
M  V30 674 H 60.7632 -0.920276 -3.691 0
M  V30 675 H 62.0752 -0.992661 -4.88823 0
M  V30 676 H 61.2292 1.102 -5.96608 0
M  V30 677 H 59.9682 1.26157 -4.71101 0
M  V30 678 H 58.9732 -0.932047 -5.41842 0
M  V30 679 H 60.1982 -1.07755 -6.70497 0
M  V30 680 H 58.1442 1.15282 -6.45791 0
M  V30 681 H 58.0612 -0.184048 -7.55776 0
M  V30 682 H 59.3292 0.992352 -7.73158 0
M  V30 683 N 63.5583 1.46682 -0.576371 0
M  V30 684 C 64.9743 1.57822 -0.237562 0
M  V30 685 C 65.1743 1.57237 1.26011 0
M  V30 686 O 64.2303 1.48596 2.04146 0
M  V30 687 C 65.5433 2.87499 -0.881168 0
M  V30 688 C 67.0913 3.01119 -0.85417 0
M  V30 689 C 67.5663 4.33524 -1.4772 0
M  V30 690 N 69.0573 4.40207 -1.44125 0
M  V30 691 C 69.7923 5.4126 -1.89276 0
M  V30 692 N 69.2883 6.49021 -2.42371 0
M  V30 693 N 71.0813 5.32422 -1.80231 0
M  V30 694 H 63.2323 1.45306 -1.54919 0
M  V30 695 H 65.4953 0.692733 -0.647167 0
M  V30 696 H 65.2013 2.9372 -1.93447 0
M  V30 697 H 65.0753 3.75224 -0.385592 0
M  V30 698 H 67.4623 2.94485 0.190491 0
M  V30 699 H 67.5433 2.14887 -1.3877 0
M  V30 700 H 67.1873 4.40916 -2.52103 0
M  V30 701 H 67.1173 5.1852 -0.918947 0
M  V30 702 H 69.6083 3.62931 -1.05307 0
M  V30 703 H 69.9213 7.2233 -2.74698 0
M  V30 704 H 68.2663 6.49858 -2.46393 0
M  V30 705 H 71.4573 4.47137 -1.38514 0
M  V30 706 H 71.6303 6.11034 -2.15735 0
M  V30 707 N 65.0364 0.313813 1.54444 0
M  V30 708 C 66.2854 -0.292519 1.99568 0
M  V30 709 C 66.5984 -1.54011 1.20582 0
M  V30 710 O 67.8044 -2.22183 1.56035 0
M  V30 711 C 66.2604 -0.571752 3.55329 0
M  V30 712 C 65.8684 0.658229 4.43138 0
M  V30 713 C 67.6124 -1.13857 4.08946 0
M  V30 714 C 65.5194 0.351439 5.90355 0
M  V30 715 H 64.4494 -0.113079 0.745472 0
M  V30 716 H 67.1004 0.424518 1.78522 0
M  V30 717 H 65.4824 -1.34872 3.72325 0
M  V30 718 H 66.6564 1.43403 4.37918 0
M  V30 719 H 64.9714 1.14458 4.0036 0
M  V30 720 H 67.5684 -1.38257 5.16516 0
M  V30 721 H 67.9114 -2.08489 3.6033 0
M  V30 722 H 68.4444 -0.423015 3.95544 0
M  V30 723 H 65.1834 1.26667 6.43145 0
M  V30 724 H 64.7034 -0.386842 5.98551 0
M  V30 725 H 66.3824 -0.0423134 6.46986 0
M  V30 726 N 66.5145 -1.57545 0.0417849 0
M  V30 727 C 67.7635 -1.91494 -0.633492 0
M  V30 728 C 68.0765 -0.921084 -1.72556 0
M  V30 729 O 69.2825 -1.15228 -2.45835 0
M  V30 730 C 67.7385 -3.40072 -1.17808 0
M  V30 731 C 67.3465 -4.47843 -0.118633 0
M  V30 732 C 69.0905 -3.8307 -1.82915 0
M  V30 733 C 66.9975 -5.87529 -0.675578 0
M  V30 734 H 65.9275 -0.714653 -0.24039 0
M  V30 735 H 68.5785 -1.83175 0.109148 0
M  V30 736 H 66.9605 -3.43364 -1.97274 0
M  V30 737 H 68.1345 -4.56128 0.654494 0
M  V30 738 H 66.4495 -4.14128 0.434414 0
M  V30 739 H 69.0465 -4.84794 -2.25563 0
M  V30 740 H 69.3895 -3.1881 -2.67705 0
M  V30 741 H 69.9225 -3.82255 -1.10119 0
M  V30 742 H 66.6615 -6.55362 0.134475 0
M  V30 743 H 66.1815 -5.82824 -1.4169 0
M  V30 744 H 67.8605 -6.36491 -1.1614 0
M  V30 745 N 67.9926 0.231505 -1.5589 0
M  V30 746 C 69.4086 0.580748 -1.48659 0
M  V30 747 C 69.6086 1.87617 -0.73498 0
M  V30 748 O 68.6646 2.51046 -0.270586 0
M  V30 749 C 69.9776 0.669202 -2.93159 0
M  V30 750 C 71.5256 0.760499 -3.03621 0
M  V30 751 C 72.0006 0.880383 -4.49459 0
M  V30 752 N 73.4916 0.944861 -4.53461 0
M  V30 753 C 74.2266 1.05716 -5.63571 0
M  V30 754 N 73.7226 1.13403 -6.83456 0
M  V30 755 N 75.5156 1.09152 -5.514 0
M  V30 756 H 67.6666 -0.618695 -2.03189 0
M  V30 757 H 69.9296 -0.215728 -0.923128 0
M  V30 758 H 69.6356 -0.212904 -3.51055 0
M  V30 759 H 69.5096 1.5361 -3.44505 0
M  V30 760 H 71.8966 1.63305 -2.45796 0
M  V30 761 H 71.9776 -0.131864 -2.5546 0
M  V30 762 H 71.6216 0.0123284 -5.07899 0
M  V30 763 H 71.5516 1.78802 -4.95316 0
M  V30 764 H 74.0426 0.896176 -3.6712 0
M  V30 765 H 74.3556 1.21921 -7.63122 0
M  V30 766 H 72.7006 1.10333 -6.86186 0
M  V30 767 H 75.8916 1.02805 -4.56671 0
M  V30 768 H 76.0646 1.17558 -6.37247 0
M  V30 769 N 69.4707 1.49531 0.497807 0
M  V30 770 C 70.7167 1.59415 1.25358 0
M  V30 771 C 71.0497 0.281422 1.9215 0
M  V30 772 O 70.3247 -0.715249 1.80871 0
M  V30 773 C 70.6077 2.75566 2.3181 0
M  V30 774 C 70.4607 4.16642 1.69498 0
M  V30 775 C 71.7797 2.87347 3.33346 0
M  V30 776 H 68.8987 0.580244 0.454408 0
M  V30 777 H 71.5407 1.81827 0.551262 0
M  V30 778 H 69.6907 2.56587 2.91711 0
M  V30 779 H 71.3627 4.47145 1.13399 0
M  V30 780 H 69.6057 4.22141 0.998978 0
M  V30 781 H 70.2767 4.93792 2.46725 0
M  V30 782 H 72.7527 3.04634 2.83438 0
M  V30 783 H 71.6287 3.70289 4.05188 0
M  V30 784 H 71.8897 1.96834 3.95865 0
M  V30 785 N 70.9488 -0.749086 1.3866 0
M  V30 786 C 72.2258 -1.4992 1.25632 0
M  V30 787 C 72.6058 -2.10633 -0.140317 0
M  V30 788 O 71.9538 -1.97437 -1.15025 0
M  V30 789 C 72.1638 -2.56195 2.36992 0
M  V30 790 C 73.5118 -3.22972 2.75634 0
M  V30 791 O 74.5358 -2.66502 2.36337 0
M  V30 792 O 73.3948 -4.25122 3.43415 0
M  V30 793 H 70.4888 -0.665067 0.491544 0
M  V30 794 H 73.0348 -0.784113 1.50498 0
M  V30 795 H 71.8068 -2.09612 3.30422 0
M  V30 796 H 71.4298 -3.35279 2.13714 0
M  V30 797 N 72.4269 -1.23603 -0.977757 0
M  V30 798 C 73.8379 -1.06424 -1.53398 0
M  V30 799 C 74.1889 0.367578 -1.92726 0
M  V30 800 O 73.3139 1.25465 -1.76316 0
M  V30 801 C 73.9089 -1.92568 -2.78753 0
M  V30 802 C 72.4679 -1.79642 -3.30765 0
M  V30 803 C 71.6149 -1.88111 -2.03739 0
M  V30 804 H 74.5659 -1.37227 -0.797152 0
M  V30 805 H 74.5869 -1.45203 -3.51705 0
M  V30 806 H 74.0989 -2.96771 -2.50098 0
M  V30 807 H 72.1999 -0.782325 -3.64294 0
M  V30 808 H 72.3129 -2.63174 -4.00345 0
M  V30 809 H 70.6769 -1.31723 -2.17994 0
M  V30 810 H 71.4599 -2.93875 -1.77461 0
M  V30 811 N 73.905 1.17692 -1.04816 0
M  V30 812 C 75.133 1.91786 -0.776254 0
M  V30 813 C 75.548 1.76604 0.667577 0
M  V30 814 O 74.905 1.10067 1.45573 0
M  V30 815 C 74.956 3.42967 -1.14263 0
M  V30 816 O 74.677 3.57678 -2.52978 0
M  V30 817 C 76.178 4.34144 -0.896311 0
M  V30 818 H 73.398 0.608624 -0.282519 0
M  V30 819 H 75.942 1.49268 -1.39783 0
M  V30 820 H 74.097 3.83245 -0.565874 0
M  V30 821 H 74.511 4.51319 -2.67229 0
M  V30 822 H 75.985 5.38744 -1.20244 0
M  V30 823 H 76.462 4.38876 0.168636 0
M  V30 824 H 77.068 3.99574 -1.45672 0
M  V30 825 N 75.3831 0.828654 1.34056 0
M  V30 826 C 76.6231 0.425394 1.99924 0
M  V30 827 C 76.9871 -0.994294 1.64249 0
M  V30 828 O 78.1881 -1.50074 2.23005 0
M  V30 829 C 76.4591 0.628071 3.51838 0
M  V30 830 S 78.0181 0.318511 4.37642 0
M  V30 831 H 74.8361 0.160465 0.692656 0
M  V30 832 H 77.4381 1.07572 1.63244 0
M  V30 833 H 76.1421 1.66089 3.7529 0
M  V30 834 H 75.6731 -0.0367799 3.93383 0
M  V30 835 H 77.6881 -0.865632 4.88591 0
M  V30 836 N 76.8612 -1.46375 0.584142 0
M  V30 837 C 78.2722 -1.86031 0.157959 0
M  V30 838 C 78.6232 -1.48753 -1.27933 0
M  V30 839 O 77.7482 -0.903098 -1.96655 0
M  V30 840 C 78.3432 -3.37642 0.279892 0
M  V30 841 C 76.9022 -3.76289 -0.09143 0
M  V30 842 C 76.0492 -2.7039 0.615178 0
M  V30 843 H 79.0002 -1.37509 0.792274 0
M  V30 844 H 79.0212 -3.77275 -0.494364 0
M  V30 845 H 78.5332 -3.64742 1.32607 0
M  V30 846 H 76.6342 -3.54806 -1.13769 0
M  V30 847 H 76.7472 -4.78246 0.285886 0
M  V30 848 H 75.1112 -2.5464 0.0552833 0
M  V30 849 H 75.8942 -3.0033 1.66303 0
M  V30 850 N 78.3393 -0.321999 -1.54275 0
M  V30 851 C 79.2693 0.537411 -2.27231 0
M  V30 852 C 80.2503 1.12064 -1.27968 0
M  V30 853 O 81.4353 1.14606 -1.56777 0
M  V30 854 C 78.5653 1.69919 -3.02894 0
M  V30 855 C 77.5193 1.24534 -4.09482 0
M  V30 856 C 76.8453 2.49394 -4.72977 0
M  V30 857 C 78.1453 0.361335 -5.21049 0
M  V30 858 H 79.8393 -0.0711406 -2.99315 0
M  V30 859 H 77.3853 -0.0356555 -1.43956 0
M  V30 860 H 79.3383 2.30668 -3.52662 0
M  V30 861 H 78.0623 2.33431 -2.28424 0
M  V30 862 H 76.7213 0.660782 -3.60596 0
M  V30 863 H 76.3693 3.11265 -3.95124 0
M  V30 864 H 76.0693 2.19718 -5.44975 0
M  V30 865 H 77.5933 3.10908 -5.25517 0
M  V30 866 H 79.0073 0.875072 -5.66582 0
M  V30 867 H 77.4043 0.157428 -5.99893 0
M  V30 868 H 78.4743 -0.60822 -4.8107 0
M  V30 869 N 79.8174 1.5752 -0.0501392 0
M  V30 870 C 81.0424 1.97376 0.636997 0
M  V30 871 C 81.4674 0.927466 1.63645 0
M  V30 872 O 80.8254 -0.10941 1.8097 0
M  V30 873 C 80.8734 3.36304 1.30123 0
M  V30 874 O 79.9774 3.34156 2.41689 0
M  V30 875 H 79.3184 0.642998 0.165679 0
M  V30 876 H 81.8484 2.04258 -0.118233 0
M  V30 877 H 81.8584 3.73008 1.65315 0
M  V30 878 H 80.5334 4.11993 0.568746 0
M  V30 879 H 79.1104 3.09196 2.08451 0
M  V30 880 N 81.2955 -0.223234 1.56011 0
M  V30 881 C 82.5205 -0.968978 1.83373 0
M  V30 882 C 82.9455 -1.77227 0.630254 0
M  V30 883 O 82.3035 -1.76345 -0.420959 0
M  V30 884 C 82.3515 -1.86363 3.08709 0
M  V30 885 O 81.4555 -2.95873 2.87285 0
M  V30 886 H 80.7965 -0.274461 0.604622 0
M  V30 887 H 83.3265 -0.237056 2.03222 0
M  V30 888 H 83.3365 -2.27376 3.38768 0
M  V30 889 H 82.0115 -1.27319 3.95933 0
M  V30 890 H 80.5885 -2.58818 2.68454 0
M  V30 891 N 82.7736 -1.49793 -0.48987 0
M  V30 892 C 83.7216 -1.67783 -1.61095 0
M  V30 893 C 84.7156 -0.543683 -1.60438 0
M  V30 894 O 85.9216 -0.723647 -1.64813 0
M  V30 895 H 82.2966 -0.529255 -0.534222 0
M  V30 896 H 84.2676 -2.61861 -1.43078 0
M  V30 897 C 83.0166 -1.77191 -2.99164 0
M  V30 898 H 82.3396 -2.63841 -3.0038 0
M  V30 899 H 83.7796 -1.93809 -3.77113 0
M  V30 900 C 82.2386 -0.519203 -3.32875 0
M  V30 901 O 82.7686 0.350124 -4.00171 0
M  V30 902 N 80.9746 -0.378816 -2.8812 0
M  V30 903 H 80.5216 -1.08725 -2.33531 0
M  V30 904 H 80.4796 0.458239 -3.11043 0
M  V30 905 N 84.2517 0.741722 -1.39055 0
M  V30 906 C 85.6627 1.31966 -1.32068 0
M  V30 907 C 86.0137 1.96192 0.0180797 0
M  V30 908 O 85.1387 1.95861 0.920196 0
M  V30 909 C 85.7337 2.39954 -2.39181 0
M  V30 910 C 84.2927 2.93438 -2.35735 0
M  V30 911 C 83.4397 1.66936 -2.21422 0
M  V30 912 H 86.3907 0.539721 -1.4924 0
M  V30 913 H 86.4117 3.20182 -2.05581 0
M  V30 914 H 85.9237 1.9318 -3.36605 0
M  V30 915 H 84.0247 3.4451 -1.41929 0
M  V30 916 H 84.1377 3.4701 -3.30335 0
M  V30 917 H 82.5017 1.91016 -1.68478 0
M  V30 918 H 83.2847 1.22224 -3.20806 0
M  V30 919 N 85.7298 1.2412 0.971189 0
M  V30 920 C 86.9778 1.07668 1.71032 0
M  V30 921 C 87.2988 -0.385797 1.91146 0
M  V30 922 O 86.5688 -1.27569 1.4867 0
M  V30 923 H 85.1488 0.395429 0.633755 0
M  V30 924 H 87.8108 1.55984 1.16855 0
M  V30 925 H 86.9068 1.57195 2.69622 0
M  V30 926 N 87.2079 -1.17134 1.05439 0
M  V30 927 C 88.4359 -1.91372 0.786414 0
M  V30 928 C 88.8509 -1.76955 -0.658202 0
M  V30 929 O 88.2079 -1.10838 -1.44987 0
M  V30 930 C 88.2589 -3.42356 1.1608 0
M  V30 931 O 87.9799 -3.56332 2.54871 0
M  V30 932 C 89.4809 -4.33663 0.919322 0
M  V30 933 H 86.7009 -0.607118 0.285743 0
M  V30 934 H 89.2449 -1.48525 1.40572 0
M  V30 935 H 87.3999 -3.82939 0.586191 0
M  V30 936 H 87.8139 -4.49896 2.69618 0
M  V30 937 H 89.2879 -5.38099 1.231 0
M  V30 938 H 89.7649 -4.38959 -0.145359 0
M  V30 939 H 90.3709 -3.98796 1.47789 0
M  V30 940 N 88.686 -0.835752 -1.33615 0
M  V30 941 C 89.618 -0.224151 -2.28101 0
M  V30 942 C 90.631 0.593331 -1.51603 0
M  V30 943 O 91.82 0.420911 -1.73466 0
M  V30 944 C 88.92 0.703309 -3.31522 0
M  V30 945 C 88.093 -0.0741528 -4.37337 0
M  V30 946 C 87.152 0.776176 -5.20444 0
M  V30 947 O 86.178 0.216506 -5.68788 0
M  V30 948 N 87.38 2.09401 -5.41416 0
M  V30 949 H 90.145 -1.03598 -2.81225 0
M  V30 950 H 87.706 -0.69392 -1.46275 0
M  V30 951 H 89.698 1.27707 -3.84022 0
M  V30 952 H 88.268 1.41585 -2.78698 0
M  V30 953 H 87.488 -0.82928 -3.85378 0
M  V30 954 H 88.776 -0.608863 -5.05144 0
M  V30 955 H 88.174 2.57229 -5.03835 0
M  V30 956 H 86.731 2.61633 -5.96985 0
M  V30 957 N 90.1641 1.46063 -0.591896 0
M  V30 958 C 91.4101 2.02638 -0.0811191 0
M  V30 959 C 91.7431 1.4613 1.27905 0
M  V30 960 O 91.0181 0.629908 1.84017 0
M  V30 961 C 91.3011 3.60091 -0.0252436 0
M  V30 962 C 91.1541 4.26965 -1.41496 0
M  V30 963 C 92.4731 4.3496 0.670685 0
M  V30 964 H 89.5921 0.73635 -0.0309524 0
M  V30 965 H 92.2341 1.741 -0.760859 0
M  V30 966 H 90.3841 3.84535 0.553624 0
M  V30 967 H 92.0561 4.13756 -2.0397 0
M  V30 968 H 90.2991 3.85971 -1.98011 0
M  V30 969 H 90.9701 5.35781 -1.32825 0
M  V30 970 H 93.4461 4.15716 0.178825 0
M  V30 971 H 92.3221 5.44686 0.678837 0
M  V30 972 H 92.5831 4.06685 1.73379 0
M  V30 973 N 91.6422 0.330177 1.54103 0
M  V30 974 C 92.8722 -0.271784 2.04805 0
M  V30 975 C 93.2802 -1.45816 1.20559 0
M  V30 976 O 92.6232 -1.82247 0.2306 0
M  V30 977 C 92.6852 -0.763238 3.51305 0
M  V30 978 C 92.3492 0.301705 4.56003 0
M  V30 979 C 93.3462 1.13999 5.07248 0
M  V30 980 C 91.0312 0.451793 5.00264 0
M  V30 981 C 93.0252 2.11402 6.01322 0
M  V30 982 C 90.7122 1.42924 5.94151 0
M  V30 983 C 91.7102 2.25882 6.44567 0
M  V30 984 O 91.3982 3.21965 7.3661 0
M  V30 985 H 91.1302 -0.058693 0.673447 0
M  V30 986 H 93.6842 0.476395 1.99799 0
M  V30 987 H 91.9142 -1.56244 3.5373 0
M  V30 988 H 93.6032 -1.28427 3.85047 0
M  V30 989 H 94.3692 1.03505 4.73827 0
M  V30 990 H 90.2482 -0.184044 4.60632 0
M  V30 991 H 93.7922 2.76192 6.40596 0
M  V30 992 H 89.6892 1.53479 6.26988 0
M  V30 993 H 90.4572 3.17281 7.54503 0
M  V30 994 N 93.1203 -1.57491 0.0584922 0
M  V30 995 C 94.0303 -2.15448 -0.928414 0
M  V30 996 C 95.0463 -1.11416 -1.3365 0
M  V30 997 O 96.2223 -1.4362 -1.41193 0
M  V30 998 C 93.2873 -2.69393 -2.18239 0
M  V30 999 C 92.3483 -3.88249 -1.83196 0
M  V30 1000 C 91.5813 -4.39613 -3.02616 0
M  V30 1001 O 91.8043 -3.90023 -4.16219 0
M  V30 1002 O 90.7383 -5.31111 -2.83204 0
M  V30 1003 H 94.5643 -3.00112 -0.465483 0
M  V30 1004 H 92.1493 -1.48499 -0.163826 0
M  V30 1005 H 94.0313 -3.04026 -2.91798 0
M  V30 1006 H 92.7063 -1.87796 -2.63656 0
M  V30 1007 H 91.6133 -3.58492 -1.06931 0
M  V30 1008 H 92.9463 -4.71098 -1.42573 0
M  V30 1009 N 94.5984 0.214957 -1.56127 0
M  V30 1010 C 95.8754 0.963093 -1.70247 0
M  V30 1011 C 96.2554 2.02166 -0.60764 0
M  V30 1012 O 95.6034 2.25244 0.384385 0
M  V30 1013 C 95.8134 1.56756 -3.11815 0
M  V30 1014 C 97.1614 2.0573 -3.7143 0
M  V30 1015 O 98.1854 1.66637 -3.14818 0
M  V30 1016 O 97.0444 2.77603 -4.70743 0
M  V30 1017 H 94.1384 0.450321 -0.693643 0
M  V30 1018 H 96.6844 0.206219 -1.68442 0
M  V30 1019 H 95.4564 0.803533 -3.82961 0
M  V30 1020 H 95.0794 2.3898 -3.17765 0
M  V30 1021 N 96.0765 1.50051 0.48192 0
M  V30 1022 C 97.3065 1.63999 1.2565 0
M  V30 1023 C 97.7145 0.318288 1.86504 0
M  V30 1024 O 97.0575 -0.708534 1.69486 0
M  V30 1025 C 97.1195 2.66504 2.4128 0
M  V30 1026 C 96.7835 4.10352 2.01148 0
M  V30 1027 C 97.7805 4.96562 1.54021 0
M  V30 1028 C 95.4655 4.56203 2.10199 0
M  V30 1029 C 97.4595 6.26668 1.16473 0
M  V30 1030 C 95.1465 5.86318 1.72264 0
M  V30 1031 C 96.1445 6.71375 1.25477 0
M  V30 1032 O 95.8325 7.99062 0.880626 0
M  V30 1033 H 95.5645 0.55456 0.386574 0
M  V30 1034 H 98.1185 1.96954 0.582944 0
M  V30 1035 H 96.3485 2.28769 3.11772 0
M  V30 1036 H 98.0375 2.69783 3.03268 0
M  V30 1037 H 98.8035 4.62358 1.46458 0
M  V30 1038 H 94.6825 3.90152 2.45566 0
M  V30 1039 H 98.2265 6.93011 0.798841 0
M  V30 1040 H 94.1235 6.20046 1.79482 0
M  V30 1041 H 94.8915 8.12239 1.01043 0
M  V30 1042 N 97.5546 -0.734337 1.39446 0
M  V30 1043 C 98.5026 -1.86971 1.38364 0
M  V30 1044 C 99.4966 -1.67288 0.266687 0
M  V30 1045 O 100.703 -1.74621 0.436755 0
M  V30 1046 H 97.0776 -0.615474 0.432082 0
M  V30 1047 H 99.0486 -1.85 2.34132 0
M  V30 1048 C 97.7976 -3.2466 1.24465 0
M  V30 1049 H 97.1206 -3.40402 2.09682 0
M  V30 1050 H 98.5606 -4.04292 1.27764 0
M  V30 1051 C 97.0196 -3.36867 -0.0468674 0
M  V30 1052 O 97.5496 -3.88618 -1.01681 0
M  V30 1053 N 95.7556 -2.90391 -0.110145 0
M  V30 1054 H 95.3026 -2.48466 0.679868 0
M  V30 1055 H 95.2606 -2.98939 -0.973799 0
M  V30 1056 N 99.0327 -1.24633 -0.964593 0
M  V30 1057 C 100.273 -1.09981 -1.72289 0
M  V30 1058 C 100.637 0.354792 -1.88693 0
M  V30 1059 O 101.838 0.62289 -2.61483 0
M  V30 1060 C 100.109 -1.82262 -3.07434 0
M  V30 1061 S 101.668 -1.83379 -3.98645 0
M  V30 1062 H 98.4857 -0.393292 -0.59232 0
M  V30 1063 H 101.088 -1.58009 -1.15123 0
M  V30 1064 H 99.7917 -2.87206 -2.93157 0
M  V30 1065 H 99.3227 -1.3458 -3.69664 0
M  V30 1066 H 101.338 -0.903691 -4.87901 0
M  V30 1067 N 100.511 1.16574 -1.06058 0
M  V30 1068 C 101.739 1.90952 -0.796552 0
M  V30 1069 C 102.154 1.77302 0.648808 0
M  V30 1070 O 101.511 1.11605 1.44397 0
M  V30 1071 C 101.562 3.41736 -1.17894 0
M  V30 1072 O 101.283 3.54975 -2.56758 0
M  V30 1073 C 102.784 4.33169 -0.942308 0
M  V30 1074 H 100.004 0.605594 -0.288959 0
M  V30 1075 H 102.548 1.47777 -1.41358 0
M  V30 1076 H 100.703 3.82623 -0.606491 0
M  V30 1077 H 101.117 4.4846 -2.72 0
M  V30 1078 H 102.591 5.37439 -1.25952 0
M  V30 1079 H 103.068 4.3903 0.122078 0
M  V30 1080 H 103.674 3.98007 -1.49902 0
M  V30 1081 N 101.989 0.842826 1.3317 0
M  V30 1082 C 102.919 0.294028 2.31641 0
M  V30 1083 C 103.9 -0.600401 1.59151 0
M  V30 1084 O 105.085 -0.523124 1.87022 0
M  V30 1085 C 102.215 -0.528416 3.43257 0
M  V30 1086 C 101.169 0.27056 4.27144 0
M  V30 1087 C 100.495 -0.675881 5.30411 0
M  V30 1088 C 101.795 1.48981 5.00602 0
M  V30 1089 H 103.489 1.11681 2.77791 0
M  V30 1090 H 101.035 0.538478 1.33553 0
M  V30 1091 H 102.988 -0.922674 4.11175 0
M  V30 1092 H 101.712 -1.38445 2.95805 0
M  V30 1093 H 100.371 0.646427 3.60856 0
M  V30 1094 H 100.019 -1.52842 4.79216 0
M  V30 1095 H 99.7189 -0.145374 5.8742 0
M  V30 1096 H 101.243 -1.06757 6.01195 0
M  V30 1097 H 102.657 1.16849 5.61266 0
M  V30 1098 H 101.054 1.95739 5.6728 0
M  V30 1099 H 102.124 2.25746 4.29147 0
M  V30 1100 N 103.467 -1.45747 0.599634 0
M  V30 1101 C 104.415 -2.322 -0.136426 0
M  V30 1102 C 105.409 -1.45497 -0.867583 0
M  V30 1103 O 106.615 -1.62027 -0.78405 0
M  V30 1104 H 102.99 -0.749368 -0.0628588 0
M  V30 1105 H 104.961 -2.92072 0.611281 0
M  V30 1106 C 103.71 -3.28974 -1.12567 0
M  V30 1107 H 103.033 -3.9568 -0.572484 0
M  V30 1108 H 104.473 -3.92212 -1.61077 0
M  V30 1109 C 102.932 -2.55561 -2.19523 0
M  V30 1110 O 103.462 -2.33111 -3.27143 0
M  V30 1111 N 101.668 -2.15832 -1.94589 0
M  V30 1112 H 101.215 -2.3429 -1.07078 0
M  V30 1113 H 101.173 -1.67034 -2.66359 0
M  V30 1114 N 104.945 -0.338344 -1.53925 0
M  V30 1115 C 105.877 0.555117 -2.22376 0
M  V30 1116 C 106.89 1.06812 -1.22862 0
M  V30 1117 O 108.079 0.979163 -1.49247 0
M  V30 1118 C 105.179 1.77609 -2.88631 0
M  V30 1119 C 104.352 1.39927 -4.14414 0
M  V30 1120 C 103.411 2.47936 -4.64127 0
M  V30 1121 O 102.437 2.11461 -5.28463 0
M  V30 1122 N 103.639 3.79107 -4.39612 0
M  V30 1123 H 106.404 -0.0310778 -2.99684 0
M  V30 1124 H 103.965 -0.162226 -1.61085 0
M  V30 1125 H 105.957 2.49287 -3.18807 0
M  V30 1126 H 104.527 2.26978 -2.14941 0
M  V30 1127 H 103.747 0.513481 -3.90841 0
M  V30 1128 H 105.035 1.12341 -4.96243 0
M  V30 1129 H 104.433 4.11531 -3.88148 0
M  V30 1130 H 102.99 4.4697 -4.74406 0
M  V30 1131 N 106.423 1.57458 -0.0668435 0
M  V30 1132 C 107.651 1.97624 0.612565 0
M  V30 1133 C 108.066 0.94502 1.63447 0
M  V30 1134 O 107.423 -0.0689276 1.8237 0
M  V30 1135 C 107.474 3.37869 1.28555 0
M  V30 1136 O 107.195 4.3704 0.304557 0
M  V30 1137 C 108.696 3.92882 2.05325 0
M  V30 1138 H 105.916 0.650045 0.166381 0
M  V30 1139 H 108.46 2.04035 -0.137782 0
M  V30 1140 H 106.615 3.3256 1.98702 0
M  V30 1141 H 107.029 5.18565 0.786779 0
M  V30 1142 H 108.503 4.93247 2.47812 0
M  V30 1143 H 108.98 3.29156 2.9078 0
M  V30 1144 H 109.586 4.01577 1.40056 0
M  V30 1145 N 107.901 -0.206675 1.56239 0
M  V30 1146 C 108.849 -1.27571 1.94495 0
M  V30 1147 C 109.843 -1.47737 0.828862 0
M  V30 1148 O 111.049 -1.48735 1.0138 0
M  V30 1149 H 107.424 -0.428029 0.6183 0
M  V30 1150 H 109.395 -0.925961 2.8367 0
M  V30 1151 C 108.144 -2.61568 2.29079 0
M  V30 1152 H 107.467 -2.46863 3.14482 0
M  V30 1153 H 108.907 -3.35144 2.5972 0
M  V30 1154 C 107.366 -3.17695 1.12123 0
M  V30 1155 O 107.896 -3.99801 0.390153 0
M  V30 1156 N 106.102 -2.76276 0.901097 0
M  V30 1157 H 105.649 -2.09613 1.49733 0
M  V30 1158 H 105.607 -3.1417 0.120319 0
M  V30 1159 N 109.379 -1.50304 -0.473955 0
M  V30 1160 C 110.628 -1.60392 -1.22301 0
M  V30 1161 C 110.941 -0.308411 -1.93153 0
M  V30 1162 O 112.147 -0.288156 -2.69966 0
M  V30 1163 C 110.603 -2.83109 -2.2221 0
M  V30 1164 C 110.211 -4.19524 -1.57173 0
M  V30 1165 C 111.955 -3.0254 -2.97775 0
M  V30 1166 C 109.862 -5.33431 -2.55353 0
M  V30 1167 H 108.792 -0.597286 -0.460179 0
M  V30 1168 H 111.443 -1.76731 -0.493803 0
M  V30 1169 H 109.825 -2.60322 -2.9841 0
M  V30 1170 H 110.999 -4.52554 -0.867824 0
M  V30 1171 H 109.314 -4.05674 -0.939002 0
M  V30 1172 H 111.911 -3.84811 -3.71248 0
M  V30 1173 H 112.254 -2.14154 -3.56992 0
M  V30 1174 H 112.787 -3.25494 -2.28688 0
M  V30 1175 H 109.526 -6.23962 -2.00878 0
M  V30 1176 H 109.046 -5.04823 -3.23904 0
M  V30 1177 H 110.725 -5.63887 -3.17239 0
M  V30 1178 N 110.857 0.726932 -1.39834 0
M  V30 1179 C 111.767 1.87131 -1.41489 0
M  V30 1180 C 112.783 1.71239 -0.308757 0
M  V30 1181 O 113.959 1.93701 -0.551529 0
M  V30 1182 C 111.024 3.22811 -1.26468 0
M  V30 1183 C 110.085 3.51039 -2.47124 0
M  V30 1184 C 109.318 4.80245 -2.3281 0
M  V30 1185 O 109.541 5.54537 -1.33585 0
M  V30 1186 O 108.475 5.08554 -3.21957 0
M  V30 1187 H 112.301 1.8869 -2.3797 0
M  V30 1188 H 109.886 0.875837 -1.21035 0
M  V30 1189 H 111.768 4.03877 -1.20255 0
M  V30 1190 H 110.443 3.22005 -0.330862 0
M  V30 1191 H 109.35 2.70027 -2.58914 0
M  V30 1192 H 110.683 3.56632 -3.39227 0
M  V30 1193 N 112.336 1.25143 0.95797 0
M  V30 1194 C 113.284 1.05019 2.07542 0
M  V30 1195 C 114.278 -0.0178751 1.69391 0
M  V30 1196 O 115.484 0.137472 1.79474 0
M  V30 1197 H 111.859 0.32265 0.679265 0
M  V30 1198 H 113.83 1.99759 2.21673 0
M  V30 1199 C 112.579 0.682074 3.40944 0
M  V30 1200 H 111.902 1.49573 3.70767 0
M  V30 1201 H 113.342 0.580945 4.20001 0
M  V30 1202 C 111.801 -0.611608 3.31302 0
M  V30 1203 O 112.331 -1.65465 3.66038 0
M  V30 1204 N 110.537 -0.595982 2.84423 0
M  V30 1205 H 110.084 0.253192 2.56353 0
M  V30 1206 H 110.042 -1.46173 2.78354 0
M  V30 1207 N 113.814 -1.1601 1.06675 0
M  V30 1208 C 114.762 -2.22586 0.675157 0
M  V30 1209 C 115.756 -1.66525 -0.310766 0
M  V30 1210 O 116.962 -1.79145 -0.175215 0
M  V30 1211 H 113.337 -0.724855 0.200223 0
M  V30 1212 H 115.308 -2.52899 1.58381 0
M  V30 1213 C 114.057 -3.47604 0.0817162 0
M  V30 1214 H 113.38 -3.91058 0.831484 0
M  V30 1215 H 114.82 -4.23718 -0.154708 0
M  V30 1216 C 113.279 -3.15718 -1.17576 0
M  V30 1217 O 113.809 -3.31878 -2.26318 0
M  V30 1218 N 112.015 -2.69816 -1.07923 0
M  V30 1219 H 111.562 -2.56866 -0.194293 0
M  V30 1220 H 111.52 -2.48855 -1.92141 0
M  V30 1221 N 115.292 -0.849877 -1.32721 0
M  V30 1222 C 116.24 -0.279745 -2.30912 0
M  V30 1223 C 117.234 0.594278 -1.58634 0
M  V30 1224 O 118.44 0.482613 -1.73409 0
M  V30 1225 H 114.815 -0.0717521 -0.748569 0
M  V30 1226 H 116.786 -1.12222 -2.76494 0
M  V30 1227 C 115.535 0.521108 -3.43773 0
M  V30 1228 H 114.858 -0.142141 -3.99547 0
M  V30 1229 H 116.298 0.885693 -4.14646 0
M  V30 1230 C 114.757 1.70442 -2.90605 0
M  V30 1231 O 115.287 2.8034 -2.87702 0
M  V30 1232 N 113.493 1.52991 -2.47067 0
M  V30 1233 H 113.04 0.635914 -2.49628 0
M  V30 1234 H 112.998 2.32311 -2.11847 0
M  V30 1235 N 116.77 1.45427 -0.607355 0
M  V30 1236 C 117.718 2.32269 0.12411 0
M  V30 1237 C 118.712 1.45955 0.859854 0
M  V30 1238 O 119.918 1.6244 0.775447 0
M  V30 1239 H 116.293 0.749691 0.0588839 0
M  V30 1240 H 118.264 2.91743 -0.626762 0
M  V30 1241 C 117.013 3.29567 1.1082 0
M  V30 1242 H 116.336 3.95978 0.551492 0
M  V30 1243 H 117.776 3.93061 1.58995 0
M  V30 1244 C 116.235 2.56722 2.18164 0
M  V30 1245 O 116.765 2.34842 3.25902 0
M  V30 1246 N 114.971 2.16861 1.93442 0
M  V30 1247 H 114.518 2.34855 1.05834 0
M  V30 1248 H 114.476 1.68444 2.65469 0
M  V30 1249 N 118.248 0.346503 1.53744 0
M  V30 1250 C 119.195 -0.508914 2.25119 0
M  V30 1251 C 120.165 -1.09315 1.25058 0
M  V30 1252 O 121.35 -1.12921 1.53797 0
M  V30 1253 C 118.49 -1.65246 3.02965 0
M  V30 1254 C 117.603 -1.09525 4.17886 0
M  V30 1255 C 116.738 -2.20634 4.83212 0
M  V30 1256 C 115.777 -1.62279 5.90196 0
M  V30 1257 N 114.914 -2.67143 6.49291 0
M  V30 1258 H 119.754 0.106283 2.9781 0
M  V30 1259 H 117.291 0.0642227 1.4696 0
M  V30 1260 H 119.249 -2.32574 3.4636 0
M  V30 1261 H 117.879 -2.2386 2.32565 0
M  V30 1262 H 116.931 -0.312818 3.79112 0
M  V30 1263 H 118.243 -0.628444 4.94825 0
M  V30 1264 H 117.397 -2.95821 5.29693 0
M  V30 1265 H 116.136 -2.70659 4.05703 0
M  V30 1266 H 115.141 -0.855989 5.43096 0
M  V30 1267 H 116.366 -1.13102 6.69615 0
M  V30 1268 H 114.312 -3.16417 5.74645 0
M  V30 1269 H 114.229 -2.25093 7.21713 0
M  V30 1270 H 115.497 -3.4209 7.00425 0
M  V30 1271 N 119.726 -1.57421 0.075193 0
M  V30 1272 C 120.973 -1.93618 -0.593146 0
M  V30 1273 C 121.301 -0.955484 -1.69413 0
M  V30 1274 O 120.556 0.0283251 -1.9568 0
M  V30 1275 C 120.855 -3.36428 -1.20626 0
M  V30 1276 C 120.521 -4.50307 -0.231078 0
M  V30 1277 C 119.183 -4.81186 0.0371936 0
M  V30 1278 C 121.535 -5.19374 0.435888 0
M  V30 1279 C 118.863 -5.78466 0.979461 0
M  V30 1280 C 121.215 -6.17665 1.3665 0
M  V30 1281 C 119.879 -6.46958 1.6432 0
M  V30 1282 H 119.149 -0.708499 -0.217047 0
M  V30 1283 H 121.796 -1.90937 0.146793 0
M  V30 1284 H 120.101 -3.35592 -2.02201 0
M  V30 1285 H 121.798 -3.61727 -1.73073 0
M  V30 1286 H 118.388 -4.26227 -0.450357 0
M  V30 1287 H 122.572 -4.95711 0.241748 0
M  V30 1288 H 117.828 -5.99487 1.20106 0
M  V30 1289 H 122.002 -6.70284 1.88924 0
M  V30 1290 H 119.629 -7.2215 2.37494 0
M  V30 1291 N 121.204 0.198386 -1.56346 0
M  V30 1292 C 122.434 0.934215 -1.84271 0
M  V30 1293 C 122.842 1.77496 -0.655125 0
M  V30 1294 O 122.185 1.7961 0.385488 0
M  V30 1295 C 122.247 1.88278 -3.06254 0
M  V30 1296 C 121.911 1.22431 -4.40295 0
M  V30 1297 C 122.908 0.602839 -5.16393 0
M  V30 1298 C 120.593 1.22915 -4.87029 0
M  V30 1299 C 122.587 -0.0050083 -6.374 0
M  V30 1300 C 120.274 0.617465 -6.07973 0
M  V30 1301 C 121.272 0.00146341 -6.83 0
M  V30 1302 O 120.96 -0.600642 -8.01653 0
M  V30 1303 H 120.692 0.278245 -0.616081 0
M  V30 1304 H 123.246 0.211626 -2.04307 0
M  V30 1305 H 121.476 2.64498 -2.82095 0
M  V30 1306 H 123.165 2.48612 -3.20853 0
M  V30 1307 H 123.931 0.591265 -4.81382 0
M  V30 1308 H 119.81 1.69801 -4.28589 0
M  V30 1309 H 123.354 -0.48643 -6.95902 0
M  V30 1310 H 119.251 0.62653 -6.42452 0
M  V30 1311 H 120.019 -0.497225 -8.16988 0
M  V30 1312 N 122.682 1.50554 0.465978 0
M  V30 1313 C 123.931 1.61038 1.21448 0
M  V30 1314 C 124.244 0.31865 1.92987 0
M  V30 1315 O 125.45 0.302469 2.6981 0
M  V30 1316 C 123.906 2.84283 2.20706 0
M  V30 1317 C 123.514 4.20352 1.54946 0
M  V30 1318 C 125.258 3.04115 2.96166 0
M  V30 1319 C 123.165 5.34778 2.5252 0
M  V30 1320 H 122.095 0.599718 0.457005 0
M  V30 1321 H 124.746 1.7699 0.484424 0
M  V30 1322 H 123.128 2.61901 2.97025 0
M  V30 1323 H 124.302 4.53008 0.843811 0
M  V30 1324 H 122.617 4.06167 0.917475 0
M  V30 1325 H 125.214 3.86774 3.69202 0
M  V30 1326 H 125.557 2.16045 3.55852 0
M  V30 1327 H 126.09 3.26702 2.26959 0
M  V30 1328 H 122.829 6.25018 1.97566 0
M  V30 1329 H 122.349 5.06534 3.21222 0
M  V30 1330 H 124.028 5.65561 3.14245 0
M  V30 1331 N 124.16 -0.719506 1.40217 0
M  V30 1332 C 125.409 -1.47486 1.37589 0
M  V30 1333 C 125.722 -1.9559 -0.0201568 0
M  V30 1334 O 126.928 -2.70973 -0.169049 0
M  V30 1335 C 125.384 -2.66575 2.41796 0
M  V30 1336 C 124.992 -2.25358 3.87192 0
M  V30 1337 C 126.736 -3.4433 2.48269 0
M  V30 1338 C 124.643 -3.41262 4.83005 0
M  V30 1339 H 123.573 -0.553901 0.511576 0
M  V30 1340 H 126.224 -0.783427 1.65936 0
M  V30 1341 H 124.606 -3.3787 2.06543 0
M  V30 1342 H 125.78 -1.61509 4.31569 0
M  V30 1343 H 124.095 -1.60657 3.84159 0
M  V30 1344 H 126.692 -4.30569 3.17041 0
M  V30 1345 H 127.035 -3.87872 1.51198 0
M  V30 1346 H 127.568 -2.80076 2.82493 0
M  V30 1347 H 124.307 -3.02755 5.81394 0
M  V30 1348 H 123.827 -4.0404 4.43297 0
M  V30 1349 H 125.506 -4.07383 5.02641 0
M  V30 1350 N 125.638 -1.25649 -0.95132 0
M  V30 1351 C 126.57 -1.02112 -2.05197 0
M  V30 1352 C 127.583 0.0150571 -1.62793 0
M  V30 1353 O 128.772 -0.223874 -1.77091 0
M  V30 1354 C 125.872 -0.522361 -3.3485 0
M  V30 1355 C 125.045 -1.62546 -4.06076 0
M  V30 1356 C 124.104 -1.12649 -5.14001 0
M  V30 1357 O 123.13 -1.82156 -5.39266 0
M  V30 1358 N 124.332 0.03047 -5.80492 0
M  V30 1359 H 127.097 -1.96885 -2.25957 0
M  V30 1360 H 124.658 -1.16899 -1.1201 0
M  V30 1361 H 126.65 -0.172961 -4.0433 0
M  V30 1362 H 125.22 0.33151 -3.10837 0
M  V30 1363 H 124.44 -2.14628 -3.30649 0
M  V30 1364 H 125.728 -2.36644 -4.50419 0
M  V30 1365 H 125.126 0.611169 -5.62389 0
M  V30 1366 H 123.683 0.320875 -6.5101 0
M  V30 1367 N 127.117 1.15442 -1.07289 0
M  V30 1368 C 128.047 2.22312 -0.714107 0
M  V30 1369 C 129.028 1.67467 0.298155 0
M  V30 1370 O 130.213 1.93445 0.171048 0
M  V30 1371 C 127.343 3.47124 -0.110448 0
M  V30 1372 C 126.297 4.14926 -1.04979 0
M  V30 1373 C 125.623 5.33807 -0.308924 0
M  V30 1374 C 126.923 4.64762 -2.38314 0
M  V30 1375 H 128.617 2.5258 -1.6076 0
M  V30 1376 H 126.163 1.21404 -0.77441 0
M  V30 1377 H 128.116 4.21124 0.152482 0
M  V30 1378 H 126.84 3.16187 0.81812 0
M  V30 1379 H 125.499 3.42866 -1.29764 0
M  V30 1380 H 125.147 4.99126 0.623084 0
M  V30 1381 H 124.847 5.80113 -0.935036 0
M  V30 1382 H 126.371 6.10576 -0.0537771 0
M  V30 1383 H 127.785 5.30292 -2.1786 0
M  V30 1384 H 126.182 5.21728 -2.96514 0
M  V30 1385 H 127.252 3.80434 -3.00663 0
M  V30 1386 N 128.595 0.856903 1.32268 0
M  V30 1387 C 129.525 0.31858 2.31316 0
M  V30 1388 C 130.506 -0.583487 1.59779 0
M  V30 1389 O 131.691 -0.503259 1.87566 0
M  V30 1390 C 128.821 -0.491979 3.43798 0
M  V30 1391 C 127.775 0.315849 4.26833 0
M  V30 1392 C 127.101 -0.619586 5.31098 0
M  V30 1393 C 128.401 1.54282 4.98993 0
M  V30 1394 H 130.095 1.14621 2.76591 0
M  V30 1395 H 127.641 0.552613 1.32974 0
M  V30 1396 H 129.594 -0.879012 4.1213 0
M  V30 1397 H 128.318 -1.35299 2.97257 0
M  V30 1398 H 126.977 0.684664 3.6015 0
M  V30 1399 H 126.625 -1.47751 4.8081 0
M  V30 1400 H 126.325 -0.0830621 5.87541 0
M  V30 1401 H 127.849 -1.00375 6.02293 0
M  V30 1402 H 129.263 1.22796 5.59995 0
M  V30 1403 H 127.66 2.01745 5.65172 0
M  V30 1404 H 128.73 2.30285 4.26728 0
M  V30 1405 N 130.073 -1.45103 0.615059 0
M  V30 1406 C 131.005 -2.28786 -0.13762 0
M  V30 1407 C 132.018 -1.40376 -0.824525 0
M  V30 1408 O 133.207 -1.64681 -0.688662 0
M  V30 1409 C 130.307 -3.16322 -1.21628 0
M  V30 1410 C 129.48 -4.33054 -0.615039 0
M  V30 1411 C 128.539 -5.01743 -1.58556 0
M  V30 1412 O 127.565 -5.58293 -1.10895 0
M  V30 1413 N 128.767 -5.01714 -2.91998 0
M  V30 1414 H 131.532 -2.94025 0.580483 0
M  V30 1415 H 129.093 -1.55373 0.45507 0
M  V30 1416 H 131.085 -3.59139 -1.86552 0
M  V30 1417 H 129.655 -2.52943 -1.83681 0
M  V30 1418 H 128.875 -3.93627 0.21245 0
M  V30 1419 H 130.163 -5.08431 -0.193704 0
M  V30 1420 H 129.561 -4.57075 -3.33316 0
M  V30 1421 H 128.118 -5.48371 -3.52325 0
M  V30 1422 N 131.551 -0.354651 -1.53558 0
M  V30 1423 C 132.828 0.294281 -1.93374 0
M  V30 1424 C 133.208 1.67313 -1.28723 0
M  V30 1425 O 132.556 2.24179 -0.442247 0
M  V30 1426 C 132.766 0.355445 -3.47185 0
M  V30 1427 C 134.114 0.601007 -4.20325 0
M  V30 1428 O 135.138 0.437106 -3.53508 0
M  V30 1429 O 133.997 0.919322 -5.38712 0
M  V30 1430 H 131.091 0.174033 -0.808481 0
M  V30 1431 H 133.637 -0.406638 -1.64756 0
M  V30 1432 H 132.409 -0.611729 -3.86489 0
M  V30 1433 H 132.032 1.1027 -3.82003 0
M  V30 1434 N 133.029 1.57378 -0.0835403 0
M  V30 1435 C 134.254 1.98682 0.594987 0
M  V30 1436 C 134.679 0.961969 1.61641 0
M  V30 1437 O 134.037 -0.0709989 1.81161 0
M  V30 1438 C 134.085 3.38988 1.2296 0
M  V30 1439 O 133.189 3.39208 2.34546 0
M  V30 1440 H 132.53 0.646368 0.152002 0
M  V30 1441 H 135.06 2.03961 -0.161533 0
M  V30 1442 H 135.07 3.76431 1.57366 0
M  V30 1443 H 133.745 4.13107 0.481228 0
M  V30 1444 H 132.322 3.13548 2.01846 0
M  V30 1445 N 134.507 -0.190092 1.56449 0
M  V30 1446 C 135.455 -1.25501 1.95837 0
M  V30 1447 C 136.449 -1.4685 0.844485 0
M  V30 1448 O 137.655 -1.47651 1.02952 0
M  V30 1449 H 134.03 -0.421447 0.622805 0
M  V30 1450 H 136.001 -0.895821 2.84636 0
M  V30 1451 C 134.75 -2.59124 2.31841 0
M  V30 1452 H 134.073 -2.43514 3.17082 0
M  V30 1453 H 135.513 -3.32371 2.6326 0
M  V30 1454 C 133.972 -3.16488 1.15486 0
M  V30 1455 O 134.502 -3.99365 0.432535 0
M  V30 1456 N 132.708 -2.75305 0.930349 0
M  V30 1457 H 132.255 -2.08013 1.51948 0
M  V30 1458 H 132.213 -3.14024 0.153634 0
M  V30 1459 N 135.985 -1.50799 -0.457987 0
M  V30 1460 C 137.401 -1.38515 -0.792819 0
M  V30 1461 C 137.601 -0.451409 -1.96379 0
M  V30 1462 O 136.657 0.10112 -2.52297 0
M  V30 1463 C 137.97 -2.80149 -1.09258 0
M  V30 1464 C 139.518 -2.89156 -1.19825 0
M  V30 1465 C 139.993 -4.31651 -1.53106 0
M  V30 1466 N 141.484 -4.34662 -1.60072 0
M  V30 1467 C 142.219 -5.41928 -1.87354 0
M  V30 1468 N 141.715 -6.59384 -2.12568 0
M  V30 1469 N 143.508 -5.29385 -1.88965 0
M  V30 1470 H 135.659 -2.10073 0.313511 0
M  V30 1471 H 137.922 -0.944803 0.0777862 0
M  V30 1472 H 137.628 -3.50374 -0.305084 0
M  V30 1473 H 137.502 -3.18204 -2.02549 0
M  V30 1474 H 139.889 -2.19141 -1.97639 0
M  V30 1475 H 139.97 -2.54626 -0.244821 0
M  V30 1476 H 139.614 -5.02208 -0.758266 0
M  V30 1477 H 139.544 -4.63678 -2.49621 0
M  V30 1478 H 142.035 -3.49973 -1.42573 0
M  V30 1479 H 142.348 -7.36934 -2.32696 0
M  V30 1480 H 140.693 -6.62535 -2.09933 0
M  V30 1481 H 143.884 -4.36616 -1.68772 0
M  V30 1482 H 144.057 -6.13066 -2.09891 0
M  V30 1483 N 137.463 0.71206 -1.40597 0
M  V30 1484 C 138.71 1.47197 -1.39065 0
M  V30 1485 C 139.038 1.94499 0.00583891 0
M  V30 1486 O 138.293 1.68752 0.99102 0
M  V30 1487 C 138.592 2.71039 -2.32965 0
M  V30 1488 C 138.258 2.42484 -3.80148 0
M  V30 1489 C 136.92 2.34406 -4.20247 0
M  V30 1490 C 139.272 2.18598 -4.73143 0
M  V30 1491 C 136.6 2.00516 -5.51371 0
M  V30 1492 C 138.952 1.8622 -6.0457 0
M  V30 1493 C 137.616 1.76626 -6.43708 0
M  V30 1494 H 136.886 0.538634 -0.508876 0
M  V30 1495 H 139.533 0.815325 -1.73276 0
M  V30 1496 H 137.838 3.41558 -1.91951 0
M  V30 1497 H 139.535 3.29138 -2.29061 0
M  V30 1498 H 136.125 2.49659 -3.4838 0
M  V30 1499 H 140.309 2.23793 -4.42979 0
M  V30 1500 H 135.565 1.91628 -5.80593 0
M  V30 1501 H 139.739 1.66752 -6.76141 0
M  V30 1502 H 137.366 1.50133 -7.45228 0
M  V30 1503 N 138.941 1.26152 0.944643 0
M  V30 1504 C 140.188 1.11492 1.69044 0
M  V30 1505 C 140.516 -0.342366 1.91463 0
M  V30 1506 O 139.771 -1.26812 1.49054 0
M  V30 1507 C 140.07 1.82541 3.07268 0
M  V30 1508 C 139.736 3.32445 3.04616 0
M  V30 1509 C 138.398 3.73337 3.036 0
M  V30 1510 C 140.75 4.28171 2.97185 0
M  V30 1511 C 138.078 5.08348 2.92915 0
M  V30 1512 C 140.43 5.63218 2.88041 0
M  V30 1513 C 139.094 6.03426 2.85366 0
M  V30 1514 H 138.364 0.407977 0.618576 0
M  V30 1515 H 141.011 1.56551 1.10291 0
M  V30 1516 H 139.316 1.29941 3.69625 0
M  V30 1517 H 141.013 1.68642 3.63815 0
M  V30 1518 H 137.603 2.99915 3.06185 0
M  V30 1519 H 141.787 3.97563 2.97081 0
M  V30 1520 H 137.043 5.38667 2.89219 0
M  V30 1521 H 141.217 6.37078 2.81254 0
M  V30 1522 H 138.844 7.07999 2.76842 0
M  V30 1523 N 140.419 -1.14872 1.07899 0
M  V30 1524 C 141.647 -1.89661 0.82683 0
M  V30 1525 C 142.062 -1.78312 -0.620519 0
M  V30 1526 O 141.419 -1.13888 -1.42604 0
M  V30 1527 C 141.47 -3.39817 1.23316 0
M  V30 1528 O 141.191 -3.50845 2.62372 0
M  V30 1529 C 142.692 -4.31615 1.0111 0
M  V30 1530 H 139.912 -0.60092 0.298557 0
M  V30 1531 H 142.456 -1.4551 1.43691 0
M  V30 1532 H 140.611 -3.8161 0.667286 0
M  V30 1533 H 141.025 -4.44076 2.79101 0
M  V30 1534 H 142.499 -5.35367 1.34486 0
M  V30 1535 H 142.976 -4.39169 -0.0522168 0
M  V30 1536 H 143.582 -3.95572 1.56215 0
M  V30 1537 N 141.898 -0.863906 -1.31812 0
M  V30 1538 C 143.138 -0.47825 -1.98726 0
M  V30 1539 C 143.502 0.950397 -1.66828 0
M  V30 1540 O 144.703 1.44109 -2.26905 0
M  V30 1541 C 142.974 -0.721134 -3.50049 0
M  V30 1542 S 144.533 -0.434432 -4.36644 0
M  V30 1543 H 141.351 -0.178773 -0.688158 0
M  V30 1544 H 143.953 -1.11862 -1.60334 0
M  V30 1545 H 142.657 -1.75981 -3.70755 0
M  V30 1546 H 142.188 -0.0675315 -3.93342 0
M  V30 1547 H 144.203 0.735786 -4.90714 0
M  V30 1548 N 143.376 1.44774 -0.622745 0
M  V30 1549 C 144.622 2.02968 -0.13257 0
M  V30 1550 C 144.977 1.48047 1.22881 0
M  V30 1551 O 144.27 0.651625 1.80179 0
M  V30 1552 C 144.464 3.57364 -0.0508323 0
M  V30 1553 C 144.293 4.27262 -1.40275 0
M  V30 1554 C 143.063 4.64577 -1.98737 0
M  V30 1555 C 145.261 4.58248 -2.3348 0
M  V30 1556 N 143.243 5.19404 -3.27251 0
M  V30 1557 C 144.614 5.14069 -3.46603 0
M  V30 1558 C 146.669 4.40195 -2.32664 0
M  V30 1559 C 145.372 5.53738 -4.59093 0
M  V30 1560 C 147.398 4.80907 -3.44213 0
M  V30 1561 C 146.76 5.36834 -4.56058 0
M  V30 1562 H 142.859 0.776541 -0.0922354 0
M  V30 1563 H 145.443 1.76385 -0.82441 0
M  V30 1564 H 143.614 3.83576 0.610265 0
M  V30 1565 H 145.346 4.02219 0.447397 0
M  V30 1566 H 142.101 4.48622 -1.51774 0
M  V30 1567 H 142.525 5.51301 -3.92933 0
M  V30 1568 H 147.167 3.96257 -1.47446 0
M  V30 1569 H 144.885 5.96635 -5.45025 0
M  V30 1570 H 148.471 4.68659 -3.44747 0
M  V30 1571 H 147.351 5.67755 -5.40947 0
M  V30 1572 N 144.854 0.36279 1.53368 0
M  V30 1573 C 145.802 -0.500155 2.27159 0
M  V30 1574 C 146.796 -1.08575 1.3003 0
M  V30 1575 O 148.002 -1.02927 1.47668 0
M  V30 1576 H 144.377 -0.180009 0.730138 0
M  V30 1577 H 146.348 0.14401 2.98052 0
M  V30 1578 C 145.097 -1.62937 3.07159 0
M  V30 1579 H 144.42 -1.18806 3.8174 0
M  V30 1580 H 145.86 -2.20795 3.61975 0
M  V30 1581 C 144.319 -2.57007 2.17829 0
M  V30 1582 O 144.849 -3.59752 1.78721 0
M  V30 1583 N 143.055 -2.26131 1.82518 0
M  V30 1584 H 142.602 -1.42616 2.14519 0
M  V30 1585 H 142.56 -2.89327 1.23034 0
M  V30 1586 N 146.332 -1.57332 0.0918853 0
M  V30 1587 C 147.282 -2.10385 -0.87876 0
M  V30 1588 C 148.266 -1.01814 -1.24591 0
M  V30 1589 O 149.458 -1.28093 -1.22152 0
M  V30 1590 C 146.587 -2.68517 -2.13901 0
M  V30 1591 C 145.673 -3.84126 -1.79744 0
M  V30 1592 N 146.064 -4.92288 -1.1613 0
M  V30 1593 C 144.362 -3.93801 -2.09373 0
M  V30 1594 C 145.063 -5.7295 -1.00513 0
M  V30 1595 N 144.039 -5.21876 -1.5214 0
M  V30 1596 H 147.841 -2.91395 -0.38293 0
M  V30 1597 H 145.355 -1.62017 -0.111423 0
M  V30 1598 H 147.352 -3.04852 -2.84378 0
M  V30 1599 H 146.012 -1.88961 -2.64053 0
M  V30 1600 H 147.023 -5.1123 -0.828504 0
M  V30 1601 H 143.7 -3.25249 -2.61762 0
M  V30 1602 H 145.09 -6.69978 -0.507902 0
M  V30 1603 N 147.81 0.181792 -1.56548 0
M  V30 1604 C 149.056 0.896803 -1.82562 0
M  V30 1605 C 149.411 1.80324 -0.670908 0
M  V30 1606 O 148.704 1.8868 0.333235 0
M  V30 1607 C 148.898 1.73728 -3.12335 0
M  V30 1608 C 148.727 0.913714 -4.4032 0
M  V30 1609 C 147.497 0.592903 -5.01809 0
M  V30 1610 C 149.695 0.260164 -5.13642 0
M  V30 1611 N 147.677 -0.247901 -6.13399 0
M  V30 1612 C 149.048 -0.442256 -6.18421 0
M  V30 1613 C 151.103 0.177253 -4.97584 0
M  V30 1614 C 149.806 -1.21971 -7.08883 0
M  V30 1615 C 151.832 -0.586839 -5.88481 0
M  V30 1616 C 151.194 -1.27766 -6.92716 0
M  V30 1617 H 147.293 0.307122 -0.719166 0
M  V30 1618 H 149.877 0.164535 -1.94004 0
M  V30 1619 H 148.048 2.44105 -3.02105 0
M  V30 1620 H 149.78 2.39279 -3.26386 0
M  V30 1621 H 146.535 0.920502 -4.64568 0
M  V30 1622 H 146.959 -0.658304 -6.73792 0
M  V30 1623 H 151.601 0.696993 -4.17015 0
M  V30 1624 H 149.319 -1.75083 -7.88905 0
M  V30 1625 H 152.905 -0.652522 -5.78129 0
M  V30 1626 H 151.785 -1.85943 -7.61836 0
M  V30 1627 N 149.288 1.51039 0.449983 0
M  V30 1628 C 150.536 1.62759 1.19808 0
M  V30 1629 C 150.857 0.339981 1.92013 0
M  V30 1630 O 150.127 -0.643606 1.85026 0
M  V30 1631 H 148.707 0.599811 0.445237 0
M  V30 1632 H 151.369 1.87914 0.517138 0
M  V30 1633 H 150.465 2.44911 1.93455 0
M  V30 1634 N 150.766 -0.704594 1.40972 0
M  V30 1635 C 152.182 -1.01406 1.23244 0
M  V30 1636 C 152.382 -2.01169 0.115399 0
M  V30 1637 O 151.438 -2.47021 -0.523147 0
M  V30 1638 C 152.751 -1.54728 2.57836 0
M  V30 1639 C 154.299 -1.66658 2.64942 0
M  V30 1640 C 154.774 -2.23383 3.9983 0
M  V30 1641 N 156.265 -2.30756 4.01629 0
M  V30 1642 C 157 -2.75655 5.02794 0
M  V30 1643 N 156.496 -3.20225 6.14352 0
M  V30 1644 N 158.289 -2.75138 4.90159 0
M  V30 1645 H 150.44 -0.0435285 2.12355 0
M  V30 1646 H 152.703 -0.0818951 0.944456 0
M  V30 1647 H 152.409 -0.888832 3.40283 0
M  V30 1648 H 152.283 -2.53084 2.79693 0
M  V30 1649 H 154.67 -2.31617 1.8286 0
M  V30 1650 H 154.751 -0.668717 2.46904 0
M  V30 1651 H 154.395 -1.59043 4.82357 0
M  V30 1652 H 154.325 -3.23904 4.15203 0
M  V30 1653 H 156.816 -1.99291 3.21079 0
M  V30 1654 H 157.129 -3.53084 6.87424 0
M  V30 1655 H 155.474 -3.18156 6.17901 0
M  V30 1656 H 158.665 -2.39661 4.02095 0
M  V30 1657 H 158.838 -3.09812 5.6914 0
M  V30 1658 N 152.244 -1.26651 -0.937939 0
M  V30 1659 C 153.49 -1.12553 -1.687 0
M  V30 1660 C 153.823 0.329782 -1.91379 0
M  V30 1661 O 153.098 1.24202 -1.4968 0
M  V30 1662 C 153.381 -1.89862 -3.05981 0
M  V30 1663 C 153.234 -3.43318 -2.90607 0
M  V30 1664 C 154.553 -1.69499 -4.0615 0
M  V30 1665 H 151.672 -0.410257 -0.612257 0
M  V30 1666 H 154.314 -1.55685 -1.08913 0
M  V30 1667 H 152.464 -1.53204 -3.57017 0
M  V30 1668 H 154.136 -3.89747 -2.46769 0
M  V30 1669 H 152.379 -3.70179 -2.26164 0
M  V30 1670 H 153.05 -3.92642 -3.8799 0
M  V30 1671 H 155.526 -2.01442 -3.64088 0
M  V30 1672 H 154.402 -2.26002 -5.00214 0
M  V30 1673 H 154.663 -0.640365 -4.37438 0
M  V30 1674 N 153.722 1.14298 -1.08507 0
M  V30 1675 C 154.97 1.84993 -0.813763 0
M  V30 1676 C 155.291 1.83405 0.662393 0
M  V30 1677 O 154.561 1.28319 1.48024 0
M  V30 1678 H 153.141 0.684966 -0.298045 0
M  V30 1679 H 155.803 1.385 -1.37126 0
M  V30 1680 H 154.899 2.89788 -1.15884 0
M  V30 1681 N 155.201 0.870884 1.31352 0
M  V30 1682 C 156.111 0.330783 2.32256 0
M  V30 1683 C 157.127 -0.559767 1.6475 0
M  V30 1684 O 158.303 -0.456263 1.96164 0
M  V30 1685 C 155.368 -0.458137 3.4366 0
M  V30 1686 C 154.429 0.460482 4.26823 0
M  V30 1687 C 153.662 -0.290881 5.32907 0
M  V30 1688 O 153.885 -1.51885 5.49806 0
M  V30 1689 O 152.819 0.351732 6.00871 0
M  V30 1690 H 156.645 1.16718 2.80376 0
M  V30 1691 H 154.23 0.634285 1.35267 0
M  V30 1692 H 156.112 -0.905343 4.1156 0
M  V30 1693 H 154.787 -1.27106 2.97701 0
M  V30 1694 H 153.694 0.956207 3.61673 0
M  V30 1695 H 155.027 1.23903 4.7635 0
M  V30 1696 N 156.679 -1.44442 0.630414 0
M  V30 1697 C 157.925 -2.02351 0.134816 0
M  V30 1698 C 158.258 -1.4947 -1.23986 0
M  V30 1699 O 157.533 -0.678475 -1.82283 0
M  V30 1700 C 157.816 -3.59898 0.120707 0
M  V30 1701 C 157.669 -4.23063 1.52767 0
M  V30 1702 C 158.988 -4.36585 -0.555127 0
M  V30 1703 H 156.107 -0.73527 0.0504646 0
M  V30 1704 H 158.749 -1.72022 0.806751 0
M  V30 1705 H 156.899 -3.85868 -0.451477 0
M  V30 1706 H 158.571 -4.08202 2.14869 0
M  V30 1707 H 156.814 -3.80586 2.08175 0
M  V30 1708 H 157.485 -5.32071 1.46984 0
M  V30 1709 H 159.961 -4.16044 -0.0685429 0
M  V30 1710 H 158.837 -5.46294 -0.534185 0
M  V30 1711 H 159.098 -4.11138 -1.62535 0
M  V30 1712 N 158.157 -0.370918 -1.53173 0
M  V30 1713 C 159.405 0.216673 -2.00935 0
M  V30 1714 C 159.726 1.48845 -1.25977 0
M  V30 1715 O 158.996 1.92286 -0.374551 0
M  V30 1716 H 157.576 0.0830565 -0.742368 0
M  V30 1717 H 160.238 -0.49838 -1.8842 0
M  V30 1718 H 159.334 0.439893 -3.08984 0
M  V30 1719 N 159.635 1.57281 -0.100228 0
M  V30 1720 C 160.567 2.11342 0.886972 0
M  V30 1721 C 161.58 1.05182 1.24261 0
M  V30 1722 O 162.769 1.32613 1.19483 0
M  V30 1723 C 159.869 2.5825 2.19454 0
M  V30 1724 C 159.042 3.88302 2.01346 0
M  V30 1725 C 158.101 4.21004 3.15661 0
M  V30 1726 O 157.127 4.9014 2.89398 0
M  V30 1727 N 158.329 3.76818 4.41575 0
M  V30 1728 H 161.094 2.96668 0.425216 0
M  V30 1729 H 158.655 1.61678 0.0847334 0
M  V30 1730 H 160.647 2.7717 2.94888 0
M  V30 1731 H 159.217 1.77907 2.57037 0
M  V30 1732 H 158.437 3.7848 1.10212 0
M  V30 1733 H 159.725 4.73375 1.8653 0
M  V30 1734 H 159.123 3.2102 4.65792 0
M  V30 1735 H 157.68 4.00882 5.13942 0
M  V30 1736 N 161.113 -0.173488 1.56642 0
M  V30 1737 C 162.338 -0.910149 1.86363 0
M  V30 1738 C 162.763 -1.75132 0.686318 0
M  V30 1739 O 162.121 -1.77595 -0.364643 0
M  V30 1740 C 162.169 -1.76447 3.14482 0
M  V30 1741 O 161.273 -2.86584 2.96553 0
M  V30 1742 H 160.614 -0.255086 0.613047 0
M  V30 1743 H 163.144 -0.172283 2.03873 0
M  V30 1744 H 163.154 -2.16483 3.45831 0
M  V30 1745 H 161.829 -1.14658 3.99783 0
M  V30 1746 H 160.406 -2.50146 2.76553 0
M  V30 1747 N 162.591 -1.51276 -0.441967 0
M  V30 1748 C 163.538 -1.72256 -1.53612 0
M  V30 1749 C 164.508 -0.564164 -1.56225 0
M  V30 1750 O 165.693 -0.798074 -1.73307 0
M  V30 1751 C 162.833 -1.84932 -2.91366 0
M  V30 1752 C 161.946 -3.12459 -2.98317 0
M  V30 1753 C 161.081 -3.15758 -4.27166 0
M  V30 1754 C 160.12 -4.37619 -4.27967 0
M  V30 1755 N 159.257 -4.38493 -5.48333 0
M  V30 1756 H 164.097 -2.65654 -1.35026 0
M  V30 1757 H 161.634 -1.31662 -0.656009 0
M  V30 1758 H 163.592 -1.90263 -3.7129 0
M  V30 1759 H 162.222 -0.949461 -3.08521 0
M  V30 1760 H 161.274 -3.1646 -2.11086 0
M  V30 1761 H 162.586 -4.02382 -2.94771 0
M  V30 1762 H 161.74 -3.19979 -5.15459 0
M  V30 1763 H 160.479 -2.23715 -4.33362 0
M  V30 1764 H 159.484 -4.33579 -3.38067 0
M  V30 1765 H 160.709 -5.30921 -4.23438 0
M  V30 1766 H 158.655 -3.49318 -5.55259 0
M  V30 1767 H 158.572 -5.22219 -5.46647 0
M  V30 1768 H 159.84 -4.469 -6.38671 0
M  V30 1769 N 164.069 0.697108 -1.41344 0
M  V30 1770 C 165.318 1.45279 -1.39918 0
M  V30 1771 C 165.631 1.95597 -0.0109624 0
M  V30 1772 O 166.837 2.71208 0.125919 0
M  V30 1773 C 165.293 2.62695 -2.46007 0
M  V30 1774 C 164.901 2.19169 -3.90729 0
M  V30 1775 C 166.645 3.40336 -2.53715 0
M  V30 1776 C 164.552 3.33535 -4.88373 0
M  V30 1777 H 163.482 0.545692 -0.520323 0
M  V30 1778 H 166.133 0.756929 -1.67161 0
M  V30 1779 H 164.515 3.34541 -2.11892 0
M  V30 1780 H 165.689 1.54623 -4.34083 0
M  V30 1781 H 164.004 1.54525 -3.86666 0
M  V30 1782 H 166.601 4.2547 -3.2385 0
M  V30 1783 H 166.944 3.85418 -1.5735 0
M  V30 1784 H 167.477 2.75546 -2.86913 0
M  V30 1785 H 164.216 2.93468 -5.86137 0
M  V30 1786 H 163.736 3.96936 -4.49668 0
M  V30 1787 H 165.415 3.99335 -5.09059 0
M  V30 1788 N 165.547 1.27147 0.931209 0
M  V30 1789 C 166.495 1.09398 2.05268 0
M  V30 1790 C 167.489 0.0180591 1.6939 0
M  V30 1791 O 168.695 0.17551 1.79142 0
M  V30 1792 H 165.07 0.336986 0.672268 0
M  V30 1793 H 167.041 2.04416 2.17386 0
M  V30 1794 C 165.79 0.75424 3.39421 0
M  V30 1795 H 165.113 1.57404 3.67511 0
M  V30 1796 H 166.553 0.669903 4.18674 0
M  V30 1797 C 165.012 -0.541197 3.32525 0
M  V30 1798 O 165.542 -1.57664 3.69466 0
M  V30 1799 N 163.748 -0.535517 2.85623 0
M  V30 1800 H 163.295 0.307511 2.55758 0
M  V30 1801 H 163.253 -1.40236 2.81392 0
M  V30 1802 N 167.025 -1.13721 1.09112 0
M  V30 1803 C 167.975 -2.17082 0.697091 0
M  V30 1804 C 168.959 -1.58321 -0.286923 0
M  V30 1805 O 170.151 -1.7673 -0.0978008 0
M  V30 1806 C 167.28 -3.43105 0.115729 0
M  V30 1807 C 166.366 -4.0888 1.12596 0
M  V30 1808 N 166.757 -4.4987 2.31195 0
M  V30 1809 C 165.055 -4.35471 0.963366 0
M  V30 1810 C 165.756 -5.01094 2.95431 0
M  V30 1811 N 164.732 -4.95751 2.23006 0
M  V30 1812 H 168.534 -2.46524 1.6001 0
M  V30 1813 H 166.048 -1.30481 0.966869 0
M  V30 1814 H 168.045 -4.16491 -0.184555 0
M  V30 1815 H 166.705 -3.15138 -0.78217 0
M  V30 1816 H 167.716 -4.42678 2.68806 0
M  V30 1817 H 164.393 -4.17328 0.119878 0
M  V30 1818 H 165.783 -5.4263 3.96236 0
M  V30 1819 N 168.503 -0.877838 -1.30888 0
M  V30 1820 C 169.75 -0.492696 -1.96415 0
M  V30 1821 C 170.078 0.956671 -1.69346 0
M  V30 1822 O 169.333 1.68993 -0.986913 0
M  V30 1823 C 169.632 -0.705748 -3.50363 0
M  V30 1824 C 169.298 -2.1291 -3.97467 0
M  V30 1825 C 167.96 -2.51834 -4.1004 0
M  V30 1826 C 170.312 -3.05702 -4.22132 0
M  V30 1827 C 167.64 -3.82775 -4.44635 0
M  V30 1828 C 169.992 -4.36166 -4.58194 0
M  V30 1829 C 168.656 -4.74993 -4.68975 0
M  V30 1830 H 167.926 -0.18029 -0.718733 0
M  V30 1831 H 170.573 -1.11233 -1.55883 0
M  V30 1832 H 168.878 -0.00303058 -3.918 0
M  V30 1833 H 170.575 -0.387456 -3.99124 0
M  V30 1834 H 167.165 -1.81694 -3.88182 0
M  V30 1835 H 171.349 -2.76853 -4.11906 0
M  V30 1836 H 166.605 -4.12609 -4.51181 0
M  V30 1837 H 170.779 -5.08111 -4.76231 0
M  V30 1838 H 168.406 -5.76495 -4.95537 0
M  V30 1839 N 169.982 1.44106 -0.638065 0
M  V30 1840 C 171.21 2.06336 -0.152615 0
M  V30 1841 C 171.625 1.47731 1.17563 0
M  V30 1842 O 170.982 0.602806 1.72257 0
M  V30 1843 C 171.033 3.61479 -0.0391491 0
M  V30 1844 O 170.754 4.17903 -1.31487 0
M  V30 1845 C 172.255 4.40757 0.474176 0
M  V30 1846 H 169.475 0.665862 -0.0828776 0
M  V30 1847 H 172.019 1.84862 -0.87443 0
M  V30 1848 H 170.174 3.82191 0.633142 0
M  V30 1849 H 170.588 5.11416 -1.16421 0
M  V30 1850 H 172.062 5.49707 0.502562 0
M  V30 1851 H 172.539 4.12697 1.50258 0
M  V30 1852 H 173.145 4.24979 -0.165102 0
M  V30 1853 N 171.46 0.379036 1.52974 0
M  V30 1854 C 172.876 0.0285448 1.59574 0
M  V30 1855 C 173.076 -1.45542 1.39355 0
M  V30 1856 O 172.132 -2.2187 1.20541 0
M  V30 1857 C 173.445 0.496535 2.96572 0
M  V30 1858 C 174.993 0.451909 3.0972 0
M  V30 1859 C 175.468 0.895924 4.49152 0
M  V30 1860 N 176.959 0.851522 4.55306 0
M  V30 1861 C 177.694 1.16661 5.61407 0
M  V30 1862 N 177.19 1.55166 6.752 0
M  V30 1863 N 178.983 1.08853 5.51459 0
M  V30 1864 H 171.134 1.34525 1.64367 0
M  V30 1865 H 173.397 0.550733 0.771619 0
M  V30 1866 H 173.103 1.53258 3.16552 0
M  V30 1867 H 172.977 -0.109802 3.7704 0
M  V30 1868 H 175.364 -0.575029 2.89443 0
M  V30 1869 H 175.445 1.09392 2.3123 0
M  V30 1870 H 175.089 1.92104 4.70168 0
M  V30 1871 H 175.019 0.23103 5.26093 0
M  V30 1872 H 177.51 0.568038 3.73606 0
M  V30 1873 H 177.823 1.776 7.52116 0
M  V30 1874 H 176.168 1.59044 6.76557 0
M  V30 1875 H 179.359 0.786803 4.6144 0
M  V30 1876 H 179.532 1.33742 6.34048 0
M  V30 1877 N 172.938 -1.57226 0.108567 0
M  V30 1878 C 173.868 -2.17778 -0.84232 0
M  V30 1879 C 174.849 -1.11487 -1.2847 0
M  V30 1880 O 176.034 -1.39681 -1.34918 0
M  V30 1881 C 173.164 -2.76888 -2.09644 0
M  V30 1882 C 172.118 -3.88669 -1.79221 0
M  V30 1883 C 171.444 -4.34541 -3.11574 0
M  V30 1884 C 172.744 -5.11251 -1.06864 0
M  V30 1885 H 174.438 -2.97489 -0.337774 0
M  V30 1886 H 171.984 -1.43097 -0.161025 0
M  V30 1887 H 173.937 -3.17904 -2.76614 0
M  V30 1888 H 172.661 -1.94451 -2.62405 0
M  V30 1889 H 171.32 -3.48213 -1.14644 0
M  V30 1890 H 170.968 -3.48977 -3.62249 0
M  V30 1891 H 170.668 -5.09914 -2.91996 0
M  V30 1892 H 172.192 -4.782 -3.7968 0
M  V30 1893 H 173.606 -5.49352 -1.63968 0
M  V30 1894 H 172.003 -5.9214 -0.974178 0
M  V30 1895 H 173.073 -4.8487 -0.0536168 0
M  V30 1896 N 174.416 0.165178 -1.56732 0
M  V30 1897 C 175.326 1.22423 -2.00125 0
M  V30 1898 C 176.342 1.48084 -0.913619 0
M  V30 1899 O 177.518 1.60112 -1.22172 0
M  V30 1900 C 174.583 2.54197 -2.35764 0
M  V30 1901 C 173.644 2.36343 -3.58386 0
M  V30 1902 C 172.877 3.61834 -3.92316 0
M  V30 1903 O 173.1 4.67267 -3.27135 0
M  V30 1904 O 172.034 3.55579 -4.85641 0
M  V30 1905 H 175.86 0.885886 -2.90492 0
M  V30 1906 H 173.445 0.372518 -1.44681 0
M  V30 1907 H 175.327 3.3192 -2.59629 0
M  V30 1908 H 174.002 2.87598 -1.48557 0
M  V30 1909 H 172.909 1.56632 -3.39731 0
M  V30 1910 H 174.242 2.07865 -4.46154 0
M  V30 1911 N 175.894 1.51508 0.433938 0
M  V30 1912 C 177.171 1.54888 1.19453 0
M  V30 1913 C 177.551 0.315154 2.08734 0
M  V30 1914 O 176.899 -0.699558 2.17528 0
M  V30 1915 C 177.109 2.86467 1.99342 0
M  V30 1916 C 178.457 3.38545 2.56267 0
M  V30 1917 O 179.481 2.88041 2.0955 0
M  V30 1918 O 178.34 4.26675 3.41483 0
M  V30 1919 H 175.434 0.622863 0.544032 0
M  V30 1920 H 177.98 1.63823 0.442732 0
M  V30 1921 H 176.752 3.67718 1.33788 0
M  V30 1922 H 176.375 2.8071 2.8158 0
M  V30 1923 N 177.372 -0.689602 1.41712 0
M  V30 1924 C 178.335 -1.78521 1.43746 0
M  V30 1925 C 179.335 -1.57436 0.327191 0
M  V30 1926 O 180.525 -1.64 0.587348 0
M  V30 1927 C 177.657 -3.16971 1.25467 0
M  V30 1928 H 178.85 -1.78108 2.41283 0
M  V30 1929 H 176.403 -0.89781 1.27942 0
M  V30 1930 H 177.138 -3.23019 0.287948 0
M  V30 1931 H 176.923 -3.33678 2.05917 0
M  V30 1932 H 178.413 -3.96935 1.2974 0
M  V30 1933 N 178.85 -1.27639 -0.924453 0
M  V30 1934 C 179.797 -1.10644 -2.0255 0
M  V30 1935 C 180.767 -0.00658438 -1.66099 0
M  V30 1936 O 181.952 -0.16952 -1.90045 0
M  V30 1937 C 179.092 -0.76309 -3.36557 0
M  V30 1938 C 178.205 -1.94091 -3.85944 0
M  V30 1939 C 177.34 -1.53914 -5.08413 0
M  V30 1940 C 176.379 -2.68425 -5.50104 0
M  V30 1941 N 175.516 -2.28815 -6.63768 0
M  V30 1942 H 180.356 -2.04858 -2.16419 0
M  V30 1943 H 177.893 -1.01974 -1.06017 0
M  V30 1944 H 179.851 -0.544822 -4.13627 0
M  V30 1945 H 178.481 0.142102 -3.22487 0
M  V30 1946 H 177.533 -2.27162 -3.05125 0
M  V30 1947 H 178.845 -2.7998 -4.12811 0
M  V30 1948 H 177.999 -1.28231 -5.92994 0
M  V30 1949 H 176.738 -0.651391 -4.8333 0
M  V30 1950 H 175.743 -2.94819 -4.64071 0
M  V30 1951 H 176.968 -3.57826 -5.7718 0
M  V30 1952 H 174.914 -1.42495 -6.40337 0
M  V30 1953 H 174.831 -3.08242 -6.90306 0
M  V30 1954 H 176.099 -2.06387 -7.51681 0
M  V30 1955 N 180.328 1.1314 -1.09713 0
M  V30 1956 C 181.275 2.18642 -0.739196 0
M  V30 1957 C 182.245 1.63706 0.280978 0
M  V30 1958 O 183.43 1.90111 0.161946 0
M  V30 1959 C 180.57 3.44685 -0.169102 0
M  V30 1960 C 179.683 4.13711 -1.24367 0
M  V30 1961 C 178.818 5.27379 -0.636019 0
M  V30 1962 C 177.857 5.88259 -1.69169 0
M  V30 1963 N 176.994 6.93352 -1.10485 0
M  V30 1964 H 181.834 2.48607 -1.64312 0
M  V30 1965 H 179.371 1.22066 -0.820875 0
M  V30 1966 H 181.329 4.16815 0.179256 0
M  V30 1967 H 179.959 3.15161 0.698079 0
M  V30 1968 H 179.011 3.39835 -1.70927 0
M  V30 1969 H 180.323 4.55037 -2.04311 0
M  V30 1970 H 179.477 6.06238 -0.236677 0
M  V30 1971 H 178.216 4.8731 0.194928 0
M  V30 1972 H 177.221 5.08092 -2.10055 0
M  V30 1973 H 178.446 6.30399 -2.52536 0
M  V30 1974 H 176.392 6.55335 -0.295234 0
M  V30 1975 H 176.309 7.33236 -1.84121 0
M  V30 1976 H 177.577 7.76057 -0.73181 0
M  V30 1977 N 181.806 0.884767 1.30421 0
M  V30 1978 C 183.083 0.423185 1.90967 0
M  V30 1979 C 183.463 -1.09605 1.80416 0
M  V30 1980 O 182.811 -1.93126 1.22125 0
M  V30 1981 C 183.021 0.921056 3.36627 0
M  V30 1982 C 184.369 0.955903 4.137 0
M  V30 1983 O 185.393 0.867706 3.4547 0
M  V30 1984 O 184.252 1.08614 5.35598 0
M  V30 1985 H 181.346 0.129369 0.816819 0
M  V30 1986 H 183.892 0.973653 1.3899 0
M  V30 1987 H 182.664 1.96489 3.3839 0
M  V30 1988 H 182.287 0.349741 3.96059 0
M  V30 1989 N 183.284 -1.43765 0.645699 0
M  V30 1990 C 184.531 -2.01898 0.15604 0
M  V30 1991 C 184.859 -1.50887 -1.22733 0
M  V30 1992 O 184.114 -0.689271 -1.8316 0
M  V30 1993 C 184.413 -3.57238 0.107679 0
M  V30 1994 C 184.079 -4.27564 1.43178 0
M  V30 1995 C 182.741 -4.46492 1.7944 0
M  V30 1996 C 185.093 -4.67454 2.30513 0
M  V30 1997 C 182.421 -5.02573 3.02716 0
M  V30 1998 C 184.773 -5.24901 3.53074 0
M  V30 1999 C 183.437 -5.42046 3.89541 0
M  V30 2000 H 182.707 -0.738797 0.057099 0
M  V30 2001 H 185.354 -1.72341 0.834912 0
M  V30 2002 H 183.659 -3.86293 -0.654618 0
M  V30 2003 H 185.356 -3.99965 -0.287938 0
M  V30 2004 H 181.946 -4.13171 1.13963 0
M  V30 2005 H 186.13 -4.5253 2.0379 0
M  V30 2006 H 181.386 -5.14033 3.31028 0
M  V30 2007 H 185.56 -5.54758 4.20971 0
M  V30 2008 H 183.187 -5.85268 4.85145 0
M  V30 2009 N 184.763 -0.387143 -1.52771 0
M  V30 2010 C 185.673 0.456442 -2.30117 0
M  V30 2011 C 186.689 1.07342 -1.36944 0
M  V30 2012 O 187.865 1.07971 -1.70013 0
M  V30 2013 C 184.93 1.56957 -3.09136 0
M  V30 2014 C 183.991 0.977916 -4.18014 0
M  V30 2015 C 183.224 2.038 -4.93256 0
M  V30 2016 O 183.447 3.25271 -4.68567 0
M  V30 2017 O 182.381 1.6565 -5.78657 0
M  V30 2018 H 186.207 -0.17359 -3.03203 0
M  V30 2019 H 183.792 -0.150919 -1.48636 0
M  V30 2020 H 185.674 2.21628 -3.58412 0
M  V30 2021 H 184.349 2.18461 -2.38865 0
M  V30 2022 H 183.256 0.294525 -3.72939 0
M  V30 2023 H 184.589 0.407128 -4.90513 0
M  V30 2024 N 186.241 1.57166 -0.116904 0
M  V30 2025 C 187.188 2.15202 0.83408 0
M  V30 2026 C 188.158 1.07644 1.26499 0
M  V30 2027 O 189.343 1.35541 1.34288 0
M  V30 2028 C 186.483 2.75405 2.07957 0
M  V30 2029 C 185.596 3.97264 1.69721 0
M  V30 2030 C 184.731 4.45561 2.89221 0
M  V30 2031 C 183.77 5.59956 2.47215 0
M  V30 2032 N 182.907 6.03006 3.59622 0
M  V30 2033 H 187.747 2.96141 0.332335 0
M  V30 2034 H 185.284 1.46309 0.152349 0
M  V30 2035 H 187.242 3.08439 2.80929 0
M  V30 2036 H 185.872 1.97159 2.55594 0
M  V30 2037 H 184.924 3.70404 0.866316 0
M  V30 2038 H 186.236 4.80226 1.34849 0
M  V30 2039 H 185.39 4.80493 3.7042 0
M  V30 2040 H 184.129 3.61544 3.27318 0
M  V30 2041 H 183.134 5.2463 1.64448 0
M  V30 2042 H 184.359 6.45738 2.10238 0
M  V30 2043 H 182.305 5.21931 3.97396 0
M  V30 2044 H 182.222 6.80819 3.28667 0
M  V30 2045 H 183.49 6.42576 4.41267 0
M  V30 2046 N 187.719 -0.156864 1.56817 0
M  V30 2047 C 188.666 -1.19394 1.97519 0
M  V30 2048 C 189.636 -1.4322 0.841265 0
M  V30 2049 O 190.821 -1.55719 1.10255 0
M  V30 2050 C 187.961 -2.52483 2.35258 0
M  V30 2051 C 187.074 -2.35914 3.61896 0
M  V30 2052 C 186.209 -3.61969 3.88782 0
M  V30 2053 C 185.248 -3.40395 5.08722 0
M  V30 2054 N 184.385 -4.58556 5.31668 0
M  V30 2055 H 189.225 -0.839845 2.85921 0
M  V30 2056 H 186.762 -0.403264 1.41464 0
M  V30 2057 H 188.72 -3.30071 2.55165 0
M  V30 2058 H 187.35 -2.85859 1.49949 0
M  V30 2059 H 186.402 -1.49429 3.49821 0
M  V30 2060 H 187.714 -2.15926 4.49641 0
M  V30 2061 H 186.868 -4.47989 4.09135 0
M  V30 2062 H 185.607 -3.84951 2.9944 0
M  V30 2063 H 184.612 -2.52763 4.88253 0
M  V30 2064 H 185.837 -3.18822 5.99608 0
M  V30 2065 H 183.783 -4.81729 4.45279 0
M  V30 2066 H 183.7 -4.41535 6.13664 0
M  V30 2067 H 184.968 -5.45817 5.5651 0
M  V30 2068 N 189.197 -1.51736 -0.425897 0
M  V30 2069 C 190.444 -1.6497 -1.17436 0
M  V30 2070 C 190.772 -0.371445 -1.9092 0
M  V30 2071 O 190.027 0.644963 -1.84767 0
M  V30 2072 C 190.326 -2.81103 -2.20717 0
M  V30 2073 C 189.992 -4.19954 -1.64162 0
M  V30 2074 C 188.654 -4.57725 -1.48462 0
M  V30 2075 C 191.006 -5.06552 -1.22696 0
M  V30 2076 C 188.334 -5.79789 -0.897873 0
M  V30 2077 C 190.686 -6.29205 -0.654464 0
M  V30 2078 C 189.35 -6.6574 -0.484456 0
M  V30 2079 H 188.62 -0.603668 -0.429727 0
M  V30 2080 H 191.267 -1.85798 -0.463829 0
M  V30 2081 H 189.572 -2.54542 -2.97852 0
M  V30 2082 H 191.269 -2.8854 -2.78471 0
M  V30 2083 H 187.859 -3.90181 -1.77361 0
M  V30 2084 H 192.043 -4.77968 -1.33642 0
M  V30 2085 H 187.299 -6.06733 -0.75402 0
M  V30 2086 H 191.473 -6.95643 -0.324694 0
M  V30 2087 H 189.1 -7.60195 -0.0276833 0
M  V30 2088 N 190.675 0.682077 -1.42076 0
M  V30 2089 C 192.091 0.994324 -1.24841 0
M  V30 2090 C 192.291 2.0096 -0.147389 0
M  V30 2091 O 191.347 2.47822 0.483782 0
M  V30 2092 C 192.66 1.50607 -2.60265 0
M  V30 2093 C 194.208 1.62421 -2.6756 0
M  V30 2094 C 194.683 2.16994 -4.03333 0
M  V30 2095 N 196.174 2.24337 -4.0525 0
M  V30 2096 C 196.909 2.67621 -5.07116 0
M  V30 2097 N 196.405 3.1041 -6.19368 0
M  V30 2098 N 198.198 2.67305 -4.94474 0
M  V30 2099 H 190.349 0.00973908 -2.12398 0
M  V30 2100 H 192.612 0.0668593 -0.945639 0
M  V30 2101 H 192.318 0.834583 -3.41654 0
M  V30 2102 H 192.192 2.48602 -2.83684 0
M  V30 2103 H 194.579 2.28678 -1.86521 0
M  V30 2104 H 194.66 0.629352 -2.47937 0
M  V30 2105 H 194.304 1.51349 -4.84826 0
M  V30 2106 H 194.234 3.17258 -4.20304 0
M  V30 2107 H 196.725 1.94158 -3.24209 0
M  V30 2108 H 197.038 3.42103 -6.92954 0
M  V30 2109 H 195.383 3.08286 -6.22884 0
M  V30 2110 H 198.574 2.33233 -4.05857 0
M  V30 2111 H 198.747 3.00718 -5.73997 0
M  V30 2112 N 192.153 1.28127 0.917671 0
M  V30 2113 C 193.063 1.13556 2.05286 0
M  V30 2114 C 194.079 0.0630914 1.73886 0
M  V30 2115 O 195.255 0.271598 1.9956 0
M  V30 2116 C 192.32 0.794676 3.3747 0
M  V30 2117 C 191.381 1.94909 3.82504 0
M  V30 2118 C 190.614 1.62437 5.0838 0
M  V30 2119 O 190.837 0.536905 5.67867 0
M  V30 2120 O 189.771 2.46677 5.4903 0
M  V30 2121 H 193.597 2.08844 2.20495 0
M  V30 2122 H 191.182 1.07409 1.03845 0
M  V30 2123 H 193.064 0.618344 4.16839 0
M  V30 2124 H 191.739 -0.128581 3.23445 0
M  V30 2125 H 190.646 2.18055 3.03978 0
M  V30 2126 H 191.979 2.85291 4.01086 0
M  V30 2127 N 193.631 -1.12557 1.10312 0
M  V30 2128 C 194.578 -2.18247 0.750781 0
M  V30 2129 C 195.548 -1.63853 -0.272293 0
M  V30 2130 O 196.733 -1.90195 -0.151862 0
M  V30 2131 C 193.873 -3.44591 0.187379 0
M  V30 2132 C 192.986 -4.13046 1.2656 0
M  V30 2133 C 192.121 -5.27034 0.663978 0
M  V30 2134 C 191.16 -5.87353 1.72287 0
M  V30 2135 N 190.297 -6.92757 1.1416 0
M  V30 2136 H 195.137 -2.47732 1.65628 0
M  V30 2137 H 192.674 -1.21629 0.827337 0
M  V30 2138 H 194.632 -4.16904 -0.157148 0
M  V30 2139 H 193.262 -3.15527 -0.681355 0
M  V30 2140 H 192.314 -3.38924 1.72727 0
M  V30 2141 H 193.626 -4.53947 2.06721 0
M  V30 2142 H 192.78 -6.06104 0.268824 0
M  V30 2143 H 191.519 -4.87407 -0.169082 0
M  V30 2144 H 190.524 -5.06971 2.12746 0
M  V30 2145 H 191.749 -6.29051 2.55875 0
M  V30 2146 H 189.695 -6.5517 0.329984 0
M  V30 2147 H 189.612 -7.3225 1.88007 0
M  V30 2148 H 190.88 -7.75658 0.772956 0
M  V30 2149 N 195.109 -0.891671 -1.2995 0
M  V30 2150 C 196.337 -0.52866 -2.00032 0
M  V30 2151 C 196.752 0.884574 -1.66795 0
M  V30 2152 O 196.109 1.5827 -0.908669 0
M  V30 2153 C 196.16 -0.701814 -3.54622 0
M  V30 2154 O 195.881 -2.05942 -3.86678 0
M  V30 2155 C 197.382 -0.342683 -4.41973 0
M  V30 2156 H 194.602 -0.203659 -0.639347 0
M  V30 2157 H 197.146 -1.19881 -1.65677 0
M  V30 2158 H 195.301 -0.0789468 -3.8732 0
M  V30 2159 H 195.715 -2.08291 -4.81368 0
M  V30 2160 H 197.189 -0.514709 -5.49595 0
M  V30 2161 H 197.666 0.71975 -4.33262 0
M  V30 2162 H 198.272 -0.942154 -4.14733 0
M  V30 2163 N 196.587 1.43421 -0.653314 0
M  V30 2164 C 197.534 2.30768 0.0382271 0
M  V30 2165 C 198.504 1.44755 0.814576 0
M  V30 2166 O 199.689 1.73624 0.791162 0
M  V30 2167 C 196.829 3.30336 0.998599 0
M  V30 2168 C 195.942 4.31448 0.218342 0
M  V30 2169 C 195.077 5.18098 1.17252 0
M  V30 2170 C 194.116 6.10902 0.382702 0
M  V30 2171 N 193.253 6.90176 1.28848 0
M  V30 2172 H 198.093 2.89357 -0.712511 0
M  V30 2173 H 195.63 1.42548 -0.363128 0
M  V30 2174 H 197.588 3.86572 1.56901 0
M  V30 2175 H 196.218 2.73397 1.71621 0
M  V30 2176 H 195.27 3.77506 -0.46836 0
M  V30 2177 H 196.582 4.97227 -0.395812 0
M  V30 2178 H 195.736 5.7896 1.81356 0
M  V30 2179 H 194.475 4.52444 1.82058 0
M  V30 2180 H 193.48 5.49128 -0.27169 0
M  V30 2181 H 194.705 6.78598 -0.260957 0
M  V30 2182 H 192.651 6.27171 1.92334 0
M  V30 2183 H 192.568 7.52478 0.728887 0
M  V30 2184 H 193.836 7.55543 1.91766 0
M  V30 2185 N 198.065 0.39524 1.52563 0
M  V30 2186 C 199.013 -0.451859 2.28169 0
M  V30 2187 C 200.007 -1.05792 1.32304 0
M  V30 2188 O 201.213 -0.997718 1.49818 0
M  V30 2189 H 197.588 -0.164481 0.733792 0
M  V30 2190 H 199.559 0.207199 2.9768 0
M  V30 2191 C 198.308 -1.56385 3.10546 0
M  V30 2192 H 197.631 -1.10682 3.84174 0
M  V30 2193 H 199.071 -2.13067 3.66577 0
M  V30 2194 C 197.53 -2.52328 2.23231 0
M  V30 2195 O 198.06 -3.5588 1.86312 0
M  V30 2196 N 196.266 -2.22209 1.87274 0
M  V30 2197 H 195.813 -1.38033 2.17496 0
M  V30 2198 H 195.771 -2.86652 1.29143 0
M  V30 2199 N 199.544 -1.57102 0.125237 0
M  V30 2200 C 200.492 -2.16905 -0.839927 0
M  V30 2201 C 201.486 -1.11998 -1.27094 0
M  V30 2202 O 202.692 -1.3029 -1.24195 0
M  V30 2203 H 199.067 -0.694252 -0.288995 0
M  V30 2204 H 201.038 -2.96774 -0.311115 0
M  V30 2205 C 199.787 -2.78795 -2.07771 0
M  V30 2206 H 199.11 -3.59221 -1.755 0
M  V30 2207 H 200.55 -3.2417 -2.73295 0
M  V30 2208 C 199.009 -1.76193 -2.87155 0
M  V30 2209 O 199.539 -1.21909 -3.82755 0
M  V30 2210 N 197.745 -1.45991 -2.51267 0
M  V30 2211 H 197.292 -1.90325 -1.73592 0
M  V30 2212 H 197.25 -0.775844 -3.04677 0
M  V30 2213 N 201.022 0.148545 -1.56898 0
M  V30 2214 C 202.268 0.857877 -1.84424 0
M  V30 2215 C 202.623 1.7886 -0.709006 0
M  V30 2216 O 201.916 1.89344 0.293139 0
M  V30 2217 C 202.11 1.67064 -3.1595 0
M  V30 2218 C 201.939 0.82011 -4.42159 0
M  V30 2219 C 200.709 0.486328 -5.02954 0
M  V30 2220 C 202.907 0.151155 -5.14078 0
M  V30 2221 N 200.889 -0.377956 -6.12735 0
M  V30 2222 C 202.26 -0.573333 -6.17343 0
M  V30 2223 C 204.315 0.0716685 -4.97848 0
M  V30 2224 C 203.018 -1.3698 -7.06137 0
M  V30 2225 C 205.044 -0.711532 -5.87104 0
M  V30 2226 C 204.406 -1.42431 -6.8985 0
M  V30 2227 H 200.505 0.291798 -0.725519 0
M  V30 2228 H 203.089 0.123347 -1.94309 0
M  V30 2229 H 201.26 2.37642 -3.07215 0
M  V30 2230 H 202.992 2.32302 -3.31388 0
M  V30 2231 H 199.747 0.821753 -4.66416 0
M  V30 2232 H 200.171 -0.801077 -6.72244 0
M  V30 2233 H 204.813 0.608381 -4.184 0
M  V30 2234 H 202.531 -1.91778 -7.85014 0
M  V30 2235 H 206.117 -0.775005 -5.76615 0
M  V30 2236 H 204.997 -2.02061 -7.57721 0
M  V30 2237 N 202.5 1.5196 0.417844 0
M  V30 2238 C 203.463 1.74065 1.49111 0
M  V30 2239 C 204.463 0.610537 1.48758 0
M  V30 2240 O 205.653 0.87832 1.50437 0
M  V30 2241 C 202.785 1.81502 2.88565 0
M  V30 2242 H 203.978 2.69869 1.30807 0
M  V30 2243 H 201.531 1.42244 0.647785 0
M  V30 2244 H 202.266 0.875813 3.1225 0
M  V30 2245 H 202.051 2.63651 2.90225 0
M  V30 2246 H 203.541 2.00376 3.66387 0
M  V30 2247 N 203.978 -0.674533 1.42435 0
M  V30 2248 C 204.888 -1.81751 1.48337 0
M  V30 2249 C 205.904 -1.69975 0.372099 0
M  V30 2250 O 207.08 -1.91521 0.62304 0
M  V30 2251 C 204.145 -3.17895 1.38361 0
M  V30 2252 C 203.206 -3.41625 2.59982 0
M  V30 2253 C 202.439 -4.71274 2.50473 0
M  V30 2254 O 202.662 -5.49197 1.54075 0
M  V30 2255 O 201.596 -4.96254 3.4061 0
M  V30 2256 H 205.422 -1.79728 2.44809 0
M  V30 2257 H 203.007 -0.830312 1.24202 0
M  V30 2258 H 204.889 -3.99136 1.35161 0
M  V30 2259 H 203.564 -3.20555 0.450144 0
M  V30 2260 H 202.471 -2.60231 2.68757 0
M  V30 2261 H 203.804 -3.43796 3.52229 0
M  V30 2262 N 205.456 -1.28612 -0.910864 0
M  V30 2263 C 206.872 -1.06381 -1.18976 0
M  V30 2264 C 207.072 0.191998 -2.00583 0
M  V30 2265 O 206.128 0.892869 -2.36187 0
M  V30 2266 C 207.441 -2.31295 -1.92154 0
M  V30 2267 C 208.989 -2.36503 -2.05025 0
M  V30 2268 C 209.464 -3.61191 -2.81612 0
M  V30 2269 N 210.955 -3.61847 -2.89172 0
M  V30 2270 C 211.69 -4.55004 -3.4894 0
M  V30 2271 N 211.186 -5.58482 -4.09963 0
M  V30 2272 N 212.979 -4.42594 -3.46506 0
M  V30 2273 H 205.13 -2.09221 -0.366094 0
M  V30 2274 H 207.393 -0.921003 -0.224629 0
M  V30 2275 H 207.099 -3.228 -1.39618 0
M  V30 2276 H 206.973 -2.37934 -2.9269 0
M  V30 2277 H 209.36 -1.45494 -2.5674 0
M  V30 2278 H 209.441 -2.33857 -1.03657 0
M  V30 2279 H 209.085 -4.52545 -2.30576 0
M  V30 2280 H 209.015 -3.61092 -3.83302 0
M  V30 2281 H 211.506 -2.87022 -2.45819 0
M  V30 2282 H 211.819 -6.25704 -4.53557 0
M  V30 2283 H 210.164 -5.62305 -4.08459 0
M  V30 2284 H 213.355 -3.60953 -2.98045 0
M  V30 2285 H 213.528 -5.15381 -3.92793 0
M  V30 2286 N 206.934 1.1197 -1.10907 0
M  V30 2287 C 208.211 1.79959 -0.766432 0
M  V30 2288 C 208.591 1.97466 0.746363 0
M  V30 2289 O 207.939 1.55491 1.67436 0
M  V30 2290 C 208.149 3.14009 -1.52314 0
M  V30 2291 C 209.497 3.89134 -1.69883 0
M  V30 2292 O 210.521 3.2368 -1.48692 0
M  V30 2293 O 209.38 5.06572 -2.05054 0
M  V30 2294 H 206.474 0.779208 -0.277062 0
M  V30 2295 H 209.02 1.18762 -1.21217 0
M  V30 2296 H 207.792 2.96587 -2.55249 0
M  V30 2297 H 207.415 3.82915 -1.07059 0
M  V30 2298 N 208.412 0.89855 1.29475 0
M  V30 2299 C 209.362 0.346767 2.25348 0
M  V30 2300 C 210.346 -0.532509 1.51833 0
M  V30 2301 O 211.538 -0.374714 1.72988 0
M  V30 2302 C 208.667 -0.425681 3.40651 0
M  V30 2303 C 207.753 0.46845 4.21505 0
M  V30 2304 N 208.144 1.57514 4.80648 0
M  V30 2305 C 206.442 0.26603 4.45206 0
M  V30 2306 C 207.143 2.12889 5.41344 0
M  V30 2307 N 206.119 1.42208 5.24669 0
M  V30 2308 H 209.921 1.19219 2.68634 0
M  V30 2309 H 207.435 0.749473 1.44072 0
M  V30 2310 H 209.432 -0.837716 4.08397 0
M  V30 2311 H 208.092 -1.26838 2.98902 0
M  V30 2312 H 209.103 1.95789 4.79465 0
M  V30 2313 H 205.78 -0.538394 4.14014 0
M  V30 2314 H 207.17 3.05901 5.98226 0
M  V30 2315 N 209.89 -1.43072 0.660911 0
M  V30 2316 C 211.137 -2.01721 0.177445 0
M  V30 2317 C 211.465 -1.5218 -1.21126 0
M  V30 2318 O 210.72 -0.708659 -1.82419 0
M  V30 2319 C 211.019 -3.57103 0.145563 0
M  V30 2320 C 210.685 -4.26021 1.47705 0
M  V30 2321 C 209.347 -4.44563 1.84165 0
M  V30 2322 C 211.699 -4.64983 2.35458 0
M  V30 2323 C 209.027 -4.99334 3.0803 0
M  V30 2324 C 211.379 -5.21127 3.58622 0
M  V30 2325 C 210.043 -5.37884 3.95268 0
M  V30 2326 H 209.313 -0.73815 0.0649317 0
M  V30 2327 H 211.96 -1.71446 0.853144 0
M  V30 2328 H 210.265 -3.86965 -0.61361 0
M  V30 2329 H 211.962 -4.00248 -0.2455 0
M  V30 2330 H 208.552 -4.11939 1.18339 0
M  V30 2331 H 212.736 -4.50343 2.08579 0
M  V30 2332 H 207.992 -5.10493 3.36462 0
M  V30 2333 H 212.166 -5.50262 4.26831 0
M  V30 2334 H 209.793 -5.80089 4.91325 0
M  V30 2335 N 211.368 -0.403325 -1.52352 0
M  V30 2336 C 212.614 0.174605 -2.02047 0
M  V30 2337 C 212.947 1.45282 -1.28867 0
M  V30 2338 O 212.222 1.90483 -0.393257 0
M  V30 2339 C 212.505 0.428238 -3.57545 0
M  V30 2340 C 212.358 -0.866248 -4.4138 0
M  V30 2341 C 213.677 1.21287 -4.23057 0
M  V30 2342 H 210.796 0.0619851 -0.734389 0
M  V30 2343 H 213.438 -0.53565 -1.82293 0
M  V30 2344 H 211.588 1.03327 -3.74507 0
M  V30 2345 H 213.26 -1.50265 -4.3614 0
M  V30 2346 H 211.503 -1.47851 -4.07827 0
M  V30 2347 H 212.174 -0.643249 -5.48239 0
M  V30 2348 H 214.65 0.700703 -4.10158 0
M  V30 2349 H 213.526 1.35909 -5.31808 0
M  V30 2350 H 213.787 2.23193 -3.81625 0
M  V30 2351 N 212.846 1.57033 -0.133567 0
M  V30 2352 C 214.071 2.00475 0.531477 0
M  V30 2353 C 214.496 1.01291 1.58499 0
M  V30 2354 O 213.854 -0.0133279 1.81295 0
M  V30 2355 C 213.902 3.42729 1.12113 0
M  V30 2356 O 213.006 3.46498 2.23636 0
M  V30 2357 H 212.347 0.650876 0.131362 0
M  V30 2358 H 214.877 2.03344 -0.22634 0
M  V30 2359 H 214.887 3.81246 1.4531 0
M  V30 2360 H 213.562 4.14428 0.349557 0
M  V30 2361 H 212.139 3.19811 1.91769 0
M  V30 2362 N 214.325 -0.140222 1.56975 0
M  V30 2363 C 215.275 -1.17827 1.95194 0
M  V30 2364 C 216.259 -1.38195 0.824075 0
M  V30 2365 O 217.451 -1.39643 1.0876 0
M  V30 2366 C 214.58 -2.51024 2.34184 0
M  V30 2367 C 213.666 -2.3422 3.53556 0
M  V30 2368 N 214.057 -1.87185 4.69889 0
M  V30 2369 C 212.355 -2.64949 3.58773 0
M  V30 2370 C 213.056 -1.83586 5.5197 0
M  V30 2371 N 212.032 -2.2715 4.93866 0
M  V30 2372 H 215.834 -0.806817 2.82609 0
M  V30 2373 H 213.348 -0.348208 1.58623 0
M  V30 2374 H 215.345 -3.26074 2.59772 0
M  V30 2375 H 214.005 -2.88945 1.48124 0
M  V30 2376 H 215.016 -1.57048 4.93514 0
M  V30 2377 H 211.693 -3.067 2.8327 0
M  V30 2378 H 213.083 -1.48655 6.55249 0
M  V30 2379 N 215.803 -1.52179 -0.40978 0
M  V30 2380 C 217.214 -1.58377 -0.988615 0
M  V30 2381 C 217.565 -0.423879 -1.91566 0
M  V30 2382 O 216.69 0.455844 -2.11544 0
M  V30 2383 C 217.285 -2.87044 -1.79976 0
M  V30 2384 C 215.844 -2.95722 -2.32863 0
M  V30 2385 C 214.991 -2.53309 -1.12828 0
M  V30 2386 H 217.942 -1.57558 -0.190039 0
M  V30 2387 H 217.963 -2.7236 -2.65707 0
M  V30 2388 H 217.475 -3.71444 -1.12478 0
M  V30 2389 H 215.576 -2.15814 -3.03735 0
M  V30 2390 H 215.689 -3.99951 -2.63773 0
M  V30 2391 H 214.053 -2.07142 -1.48204 0
M  V30 2392 H 214.836 -3.40082 -0.46897 0
M  V30 2393 N 217.281 0.66697 -1.42791 0
M  V30 2394 C 218.529 1.42417 -1.43394 0
M  V30 2395 C 218.85 1.94925 -0.0542373 0
M  V30 2396 O 218.12 1.73564 0.908415 0
M  V30 2397 H 216.7 0.528515 -0.527902 0
M  V30 2398 H 219.362 0.787562 -1.78279 0
M  V30 2399 H 218.458 2.27333 -2.13837 0
M  V30 2400 N 218.759 1.29093 0.90403 0
M  V30 2401 C 219.706 1.13853 2.00764 0
M  V30 2402 C 220.676 0.0330084 1.66067 0
M  V30 2403 O 221.861 0.199733 1.89752 0
M  V30 2404 C 219.001 0.816537 3.35301 0
M  V30 2405 C 218.114 2.00206 3.82807 0
M  V30 2406 C 217.249 1.61983 5.059 0
M  V30 2407 C 216.288 2.77143 5.45764 0
M  V30 2408 N 215.425 2.39346 6.60044 0
M  V30 2409 H 220.265 2.08276 2.13132 0
M  V30 2410 H 217.802 1.03648 1.04381 0
M  V30 2411 H 219.76 0.610557 4.12708 0
M  V30 2412 H 218.39 -0.090779 3.22672 0
M  V30 2413 H 217.442 2.31988 3.01473 0
M  V30 2414 H 218.754 2.86512 4.08304 0
M  V30 2415 H 217.908 1.37649 5.90879 0
M  V30 2416 H 216.647 0.728202 4.82233 0
M  V30 2417 H 215.652 3.02165 4.59322 0
M  V30 2418 H 216.877 3.66964 5.71414 0
M  V30 2419 H 214.823 1.52665 6.37989 0
M  V30 2420 H 214.74 3.19185 6.85315 0
M  V30 2421 H 216.008 2.1832 7.48303 0
M  V30 2422 N 220.237 -1.11381 1.11499 0
M  V30 2423 C 221.467 -1.86663 0.885464 0
M  V30 2424 C 221.875 -1.80464 -0.568281 0
M  V30 2425 O 221.218 -1.18445 -1.40415 0
M  V30 2426 C 221.28 -3.36337 1.26956 0
M  V30 2427 C 220.944 -3.66304 2.73259 0
M  V30 2428 C 221.941 -3.63733 3.71476 0
M  V30 2429 C 219.626 -3.9529 3.09921 0
M  V30 2430 C 221.62 -3.89725 5.04374 0
M  V30 2431 C 219.307 -4.20941 4.43004 0
M  V30 2432 C 220.305 -4.18147 5.40039 0
M  V30 2433 O 219.993 -4.43153 6.70724 0
M  V30 2434 H 219.725 -0.597114 0.316908 0
M  V30 2435 H 222.279 -1.41782 1.48617 0
M  V30 2436 H 220.509 -3.81826 0.611999 0
M  V30 2437 H 222.198 -3.92986 1.01573 0
M  V30 2438 H 222.964 -3.41389 3.44498 0
M  V30 2439 H 218.843 -3.966 2.35009 0
M  V30 2440 H 222.387 -3.8746 5.80104 0
M  V30 2441 H 218.284 -4.42761 4.69716 0
M  V30 2442 H 219.052 -4.60717 6.76522 0
M  V30 2443 N 221.715 -0.905404 -1.28997 0
M  V30 2444 C 222.943 -0.549846 -1.9946 0
M  V30 2445 C 223.358 0.866834 -1.67724 0
M  V30 2446 O 222.715 1.57298 -0.925404 0
M  V30 2447 C 222.766 -0.739387 -3.53858 0
M  V30 2448 O 222.487 -2.10031 -3.84472 0
M  V30 2449 C 223.988 -0.389541 -4.41585 0
M  V30 2450 H 221.208 -0.210429 -0.637151 0
M  V30 2451 H 223.752 -1.21632 -1.64396 0
M  V30 2452 H 221.907 -0.120023 -3.87214 0
M  V30 2453 H 222.321 -2.13385 -4.79132 0
M  V30 2454 H 223.795 -0.572972 -5.49018 0
M  V30 2455 H 224.272 0.673756 -4.34001 0
M  V30 2456 H 224.878 -0.986089 -4.1371 0
M  V30 2457 N 223.193 1.4272 -0.668489 0
M  V30 2458 C 224.123 2.335 -0.000100175 0
M  V30 2459 C 225.104 1.50328 0.795964 0
M  V30 2460 O 226.289 1.78949 0.754385 0
M  V30 2461 C 223.419 3.33874 0.956302 0
M  V30 2462 C 222.373 4.27152 0.269278 0
M  V30 2463 C 221.699 5.17684 1.33818 0
M  V30 2464 C 222.999 5.15373 -0.847805 0
M  V30 2465 H 224.693 2.89639 -0.758244 0
M  V30 2466 H 222.239 1.39269 -0.366079 0
M  V30 2467 H 224.192 3.9629 1.43292 0
M  V30 2468 H 222.916 2.76025 1.74579 0
M  V30 2469 H 221.575 3.66123 -0.187042 0
M  V30 2470 H 221.223 4.56165 2.1195 0
M  V30 2471 H 220.923 5.80918 0.883659 0
M  V30 2472 H 222.447 5.82974 1.81586 0
M  V30 2473 H 223.861 5.7151 -0.452681 0
M  V30 2474 H 222.258 5.87407 -1.22773 0
M  V30 2475 H 223.328 4.5415 -1.69929 0
M  V30 2476 N 224.671 0.411399 1.52136 0
M  V30 2477 C 225.92 -0.165009 2.01024 0
M  V30 2478 C 226.233 -1.4603 1.30133 0
M  V30 2479 O 227.439 -2.1181 1.69849 0
M  V30 2480 C 225.895 -0.344618 3.58246 0
M  V30 2481 C 225.503 0.938716 4.38055 0
M  V30 2482 C 227.247 -0.876195 4.15359 0
M  V30 2483 C 225.154 0.726172 5.86925 0
M  V30 2484 H 224.084 -0.0654407 0.751155 0
M  V30 2485 H 226.735 0.537192 1.75461 0
M  V30 2486 H 225.117 -1.10921 3.80148 0
M  V30 2487 H 226.291 1.70963 4.27912 0
M  V30 2488 H 224.606 1.39688 3.92271 0
M  V30 2489 H 227.203 -1.05128 5.24263 0
M  V30 2490 H 227.546 -1.85152 3.7286 0
M  V30 2491 H 228.079 -0.170607 3.97434 0
M  V30 2492 H 224.818 1.67312 6.33788 0
M  V30 2493 H 224.338 -0.00540283 5.998 0
M  V30 2494 H 226.017 0.369231 6.45946 0
M  V30 2495 N 226.149 -1.5696 0.141893 0
M  V30 2496 C 227.059 -2.20066 -0.812905 0
M  V30 2497 C 228.075 -1.18344 -1.27557 0
M  V30 2498 O 229.251 -1.50902 -1.33381 0
M  V30 2499 C 226.316 -2.80583 -2.03652 0
M  V30 2500 C 225.377 -3.97414 -1.62359 0
M  V30 2501 C 224.61 -4.55036 -2.78887 0
M  V30 2502 O 224.833 -4.11538 -3.94959 0
M  V30 2503 O 223.767 -5.45376 -2.54653 0
M  V30 2504 H 227.593 -3.02157 -0.305746 0
M  V30 2505 H 225.178 -1.49159 -0.0848799 0
M  V30 2506 H 227.06 -3.19067 -2.75272 0
M  V30 2507 H 225.735 -2.01508 -2.5333 0
M  V30 2508 H 224.642 -3.63656 -0.877775 0
M  V30 2509 H 225.975 -4.77994 -1.17401 0
M  V30 2510 N 227.627 0.131896 -1.57047 0
M  V30 2511 C 228.873 0.843179 -1.84441 0
M  V30 2512 C 229.206 1.80129 -0.725749 0
M  V30 2513 O 228.481 1.92624 0.269469 0
M  V30 2514 C 228.764 1.60442 -3.22382 0
M  V30 2515 C 228.617 0.666782 -4.4483 0
M  V30 2516 C 229.936 2.56354 -3.5773 0
M  V30 2517 H 227.055 0.305081 -0.670891 0
M  V30 2518 H 229.697 0.107839 -1.89694 0
M  V30 2519 H 227.847 2.23128 -3.18035 0
M  V30 2520 H 229.519 0.0497646 -4.61273 0
M  V30 2521 H 227.762 -0.022609 -4.33794 0
M  V30 2522 H 228.433 1.23579 -5.37989 0
M  V30 2523 H 230.909 2.0378 -3.62785 0
M  V30 2524 H 229.785 3.06657 -4.5525 0
M  V30 2525 H 230.046 3.38419 -2.84473 0
M  V30 2526 N 229.106 1.52395 0.401703 0
M  V30 2527 C 230.038 1.72505 1.50912 0
M  V30 2528 C 231.051 0.605468 1.51122 0
M  V30 2529 O 232.24 0.880828 1.55254 0
M  V30 2530 C 229.34 1.75711 2.89791 0
M  V30 2531 C 228.513 3.04824 3.1369 0
M  V30 2532 C 227.572 2.99743 4.32482 0
M  V30 2533 O 226.598 3.73635 4.29402 0
M  V30 2534 N 227.8 2.18047 5.37992 0
M  V30 2535 H 230.565 2.68049 1.34052 0
M  V30 2536 H 228.126 1.50724 0.591084 0
M  V30 2537 H 230.118 1.69834 3.6734 0
M  V30 2538 H 228.688 0.876092 3.00072 0
M  V30 2539 H 227.908 3.2429 2.24119 0
M  V30 2540 H 229.196 3.90221 3.26504 0
M  V30 2541 H 228.594 1.57456 5.43345 0
M  V30 2542 H 227.151 2.18021 6.14256 0
M  V30 2543 N 230.584 -0.659388 1.43143 0
M  V30 2544 C 231.547 -1.75432 1.47501 0
M  V30 2545 C 232.547 -1.56707 0.360512 0
M  V30 2546 O 233.737 -1.62717 0.622002 0
M  V30 2547 C 230.869 -3.14239 1.32162 0
M  V30 2548 H 232.062 -1.7295 2.45006 0
M  V30 2549 H 229.615 -0.870469 1.29817 0
M  V30 2550 H 230.35 -3.22336 0.356401 0
M  V30 2551 H 230.135 -3.29235 2.12948 0
M  V30 2552 H 231.625 -3.94094 1.3813 0
M  V30 2553 N 232.062 -1.29571 -0.897171 0
M  V30 2554 C 232.972 -1.16808 -2.03453 0
M  V30 2555 C 233.988 -0.0907471 -1.73763 0
M  V30 2556 O 235.164 -0.303312 -1.99103 0
M  V30 2557 C 232.229 -0.848264 -3.36163 0
M  V30 2558 C 231.29 -2.0097 -3.79354 0
M  V30 2559 C 230.523 -1.70505 -5.05731 0
M  V30 2560 O 230.746 -0.62718 -5.66941 0
M  V30 2561 O 229.68 -2.5538 -5.45036 0
M  V30 2562 H 233.506 -2.12325 -2.17144 0
M  V30 2563 H 231.091 -1.09047 -1.02123 0
M  V30 2564 H 232.973 -0.684581 -4.15802 0
M  V30 2565 H 231.648 0.0771071 -3.23608 0
M  V30 2566 H 230.555 -2.22863 -3.00471 0
M  V30 2567 H 231.888 -2.91636 -3.96496 0
M  V30 2568 N 233.54 1.10788 -1.12088 0
M  V30 2569 C 234.817 1.79136 -0.785476 0
M  V30 2570 C 235.197 1.98246 0.725377 0
M  V30 2571 O 234.545 1.57258 1.65778 0
M  V30 2572 C 234.755 3.12375 -1.55636 0
M  V30 2573 C 236.103 3.8731 -1.74001 0
M  V30 2574 O 237.127 3.22085 -1.52117 0
M  V30 2575 O 235.986 5.04369 -2.10415 0
M  V30 2576 H 233.08 0.776226 -0.285311 0
M  V30 2577 H 235.626 1.1747 -1.2247 0
M  V30 2578 H 234.398 2.93863 -2.5838 0
M  V30 2579 H 234.021 3.81758 -1.11114 0
M  V30 2580 N 235.018 0.912232 1.28515 0
M  V30 2581 C 235.928 0.404506 2.31086 0
M  V30 2582 C 236.944 -0.50707 1.66448 0
M  V30 2583 O 238.12 -0.393624 1.97516 0
M  V30 2584 C 235.185 -0.348572 3.44943 0
M  V30 2585 C 234.246 0.59604 4.25142 0
M  V30 2586 C 233.479 -0.121194 5.33562 0
M  V30 2587 O 233.702 -1.34317 5.5436 0
M  V30 2588 O 232.636 0.542716 5.99448 0
M  V30 2589 H 236.462 1.25579 2.76521 0
M  V30 2590 H 234.047 0.676998 1.33181 0
M  V30 2591 H 235.929 -0.77395 4.14232 0
M  V30 2592 H 234.604 -1.17571 3.01594 0
M  V30 2593 H 233.511 1.07079 3.58448 0
M  V30 2594 H 234.844 1.38995 4.72167 0
M  V30 2595 N 236.496 -1.42363 0.676048 0
M  V30 2596 C 237.459 -2.29199 0.00766941 0
M  V30 2597 C 238.459 -1.43389 -0.727745 0
M  V30 2598 O 239.649 -1.64764 -0.56556 0
M  V30 2599 C 236.781 -3.2591 -0.999785 0
M  V30 2600 H 237.974 -2.89794 0.771988 0
M  V30 2601 H 235.527 -1.50024 0.438468 0
M  V30 2602 H 236.262 -2.70256 -1.79255 0
M  V30 2603 H 236.047 -3.89202 -0.475829 0
M  V30 2604 H 237.537 -3.91028 -1.46583 0
M  V30 2605 N 237.974 -0.419461 -1.51915 0
M  V30 2606 C 238.906 0.43646 -2.25006 0
M  V30 2607 C 239.919 1.00149 -1.28351 0
M  V30 2608 O 241.108 0.898674 -1.54227 0
M  V30 2609 C 238.208 1.6206 -2.9764 0
M  V30 2610 C 237.381 1.17763 -4.21249 0
M  V30 2611 C 236.44 2.22985 -4.76617 0
M  V30 2612 O 235.466 1.83151 -5.38929 0
M  V30 2613 N 236.668 3.55271 -4.59089 0
M  V30 2614 H 239.433 -0.18989 -2.99098 0
M  V30 2615 H 236.994 -0.247386 -1.59999 0
M  V30 2616 H 238.986 2.32038 -3.31573 0
M  V30 2617 H 237.556 2.15266 -2.2667 0
M  V30 2618 H 236.776 0.305582 -3.93014 0
M  V30 2619 H 238.064 0.858781 -5.015 0
M  V30 2620 H 237.462 3.90377 -4.09417 0
M  V30 2621 H 236.019 4.21195 -4.97432 0
M  V30 2622 N 239.452 1.56882 -0.150215 0
M  V30 2623 C 240.362 2.20494 0.801222 0
M  V30 2624 C 241.378 1.19019 1.26927 0
M  V30 2625 O 242.554 1.51607 1.32579 0
M  V30 2626 C 239.619 2.81659 2.02161 0
M  V30 2627 C 238.68 3.9827 1.60249 0
M  V30 2628 C 237.913 4.56508 2.7647 0
M  V30 2629 O 238.136 4.13627 3.92771 0
M  V30 2630 O 237.07 5.46719 2.51757 0
M  V30 2631 H 240.896 3.02315 0.289717 0
M  V30 2632 H 238.481 1.49202 0.0769684 0
M  V30 2633 H 240.363 3.20522 2.73576 0
M  V30 2634 H 239.038 2.02849 2.52258 0
M  V30 2635 H 237.945 3.64117 0.858477 0
M  V30 2636 H 239.278 4.78609 1.14864 0
M  V30 2637 N 240.93 -0.123565 1.57115 0
M  V30 2638 C 241.893 -1.13583 1.99076 0
M  V30 2639 C 242.893 -1.34564 0.880296 0
M  V30 2640 O 244.083 -1.31158 1.14644 0
M  V30 2641 C 241.215 -2.49128 2.32698 0
M  V30 2642 H 242.408 -0.775287 2.89706 0
M  V30 2643 H 239.961 -0.36771 1.51913 0
M  V30 2644 H 240.696 -2.90111 1.44934 0
M  V30 2645 H 240.481 -2.35255 3.13684 0
M  V30 2646 H 241.971 -3.2199 2.65918 0
M  V30 2647 N 242.408 -1.52605 -0.393616 0
M  V30 2648 C 243.654 -1.67672 -1.14079 0
M  V30 2649 C 243.987 -0.413121 -1.89755 0
M  V30 2650 O 243.262 0.588952 -1.85369 0
M  V30 2651 C 243.545 -2.9088 -2.12276 0
M  V30 2652 C 243.398 -4.27329 -1.40394 0
M  V30 2653 C 244.717 -3.09628 -3.12759 0
M  V30 2654 H 241.836 -0.610168 -0.413356 0
M  V30 2655 H 244.478 -1.85193 -0.424696 0
M  V30 2656 H 242.628 -2.76073 -2.73342 0
M  V30 2657 H 244.3 -4.53894 -0.82327 0
M  V30 2658 H 242.543 -4.2802 -0.705801 0
M  V30 2659 H 243.214 -5.09615 -2.12123 0
M  V30 2660 H 245.69 -3.23436 -2.61779 0
M  V30 2661 H 244.566 -3.97322 -3.78717 0
M  V30 2662 H 244.827 -2.23637 -3.81365 0
M  V30 2663 N 243.887 0.651787 -1.4349 0
M  V30 2664 C 245.133 1.41376 -1.45398 0
M  V30 2665 C 245.466 1.94041 -0.0784823 0
M  V30 2666 O 244.741 1.72379 0.900878 0
M  V30 2667 C 245.024 2.59414 -2.49752 0
M  V30 2668 C 244.877 2.12232 -3.96582 0
M  V30 2669 C 246.196 3.61626 -2.50827 0
M  V30 2670 H 243.315 0.512719 -0.529422 0
M  V30 2671 H 245.957 0.738796 -1.75048 0
M  V30 2672 H 244.107 3.16997 -2.246 0
M  V30 2673 H 245.779 1.59639 -4.32797 0
M  V30 2674 H 244.022 1.43592 -4.09346 0
M  V30 2675 H 244.693 2.9712 -4.65214 0
M  V30 2676 H 247.169 3.13805 -2.7325 0
M  V30 2677 H 246.045 4.41766 -3.25783 0
M  V30 2678 H 246.306 4.14314 -1.5426 0
M  V30 2679 N 245.365 1.30045 0.890287 0
M  V30 2680 C 246.312 1.15976 1.99545 0
M  V30 2681 C 247.282 0.0506202 1.66023 0
M  V30 2682 O 248.467 0.219847 1.89529 0
M  V30 2683 C 245.607 0.852054 3.34416 0
M  V30 2684 C 244.72 2.04255 3.80662 0
M  V30 2685 C 243.855 1.6734 5.04154 0
M  V30 2686 C 242.894 2.82916 5.42794 0
M  V30 2687 N 242.031 2.46333 6.57468 0
M  V30 2688 H 246.871 2.10524 2.10911 0
M  V30 2689 H 244.408 1.04749 1.03276 0
M  V30 2690 H 246.366 0.654296 4.12037 0
M  V30 2691 H 244.996 -0.0565502 3.2275 0
M  V30 2692 H 244.048 2.35172 2.98995 0
M  V30 2693 H 245.36 2.90826 4.05242 0
M  V30 2694 H 244.514 1.43908 5.89386 0
M  V30 2695 H 243.253 0.779308 4.81433 0
M  V30 2696 H 242.258 3.0702 4.56091 0
M  V30 2697 H 243.483 3.73004 5.6749 0
M  V30 2698 H 241.429 1.59423 6.36334 0
M  V30 2699 H 241.346 3.26436 6.81891 0
M  V30 2700 H 242.614 2.26244 7.45945 0
M  V30 2701 N 246.843 -1.10192 1.12674 0
M  V30 2702 C 248.089 -1.82475 0.884915 0
M  V30 2703 C 248.422 -1.85093 -0.58773 0
M  V30 2704 O 247.697 -1.3134 -1.43457 0
M  V30 2705 C 247.98 -3.29018 1.46353 0
M  V30 2706 C 247.833 -3.34718 3.00473 0
M  V30 2707 C 249.152 -4.25473 1.12519 0
M  V30 2708 H 246.271 -0.662492 0.322915 0
M  V30 2709 H 248.913 -1.2913 1.39375 0
M  V30 2710 H 247.063 -3.74576 1.03077 0
M  V30 2711 H 248.735 -2.97622 3.52447 0
M  V30 2712 H 246.978 -2.74541 3.35872 0
M  V30 2713 H 247.649 -4.37918 3.36053 0
M  V30 2714 H 250.125 -3.88161 1.499 0
M  V30 2715 H 249.001 -5.26365 1.55663 0
M  V30 2716 H 249.262 -4.42084 0.0377407 0
M  V30 2717 N 248.321 -0.919034 -1.28029 0
M  V30 2718 C 249.598 -0.473668 -1.89778 0
M  V30 2719 C 249.978 1.04783 -1.83259 0
M  V30 2720 O 249.326 1.8982 -1.27202 0
M  V30 2721 C 249.536 -1.00998 -3.34066 0
M  V30 2722 C 250.884 -1.06525 -4.1102 0
M  V30 2723 O 251.908 -0.958996 -3.43048 0
M  V30 2724 O 250.767 -1.22776 -5.3253 0
M  V30 2725 H 247.861 -0.15098 -0.813101 0
M  V30 2726 H 250.407 -1.01016 -1.36359 0
M  V30 2727 H 249.179 -2.05392 -3.33061 0
M  V30 2728 H 248.802 -0.454626 -3.94992 0
M  V30 2729 N 249.799 1.42003 -0.683588 0
M  V30 2730 C 251.215 1.55625 -0.353976 0
M  V30 2731 C 251.415 1.66151 1.14 0
M  V30 2732 O 250.471 1.63329 1.92561 0
M  V30 2733 C 251.784 2.80171 -1.092 0
M  V30 2734 C 253.332 2.93954 -1.07518 0
M  V30 2735 C 253.807 4.21372 -1.79471 0
M  V30 2736 N 255.298 4.28303 -1.76381 0
M  V30 2737 C 256.033 5.25729 -2.28904 0
M  V30 2738 N 255.529 6.29254 -2.89846 0
M  V30 2739 N 257.322 5.17586 -2.19228 0
M  V30 2740 H 249.473 1.33415 -1.6527 0
M  V30 2741 H 251.736 0.64282 -0.696769 0
M  V30 2742 H 251.442 2.78561 -2.14701 0
M  V30 2743 H 251.316 3.7133 -0.662862 0
M  V30 2744 H 253.703 2.95086 -0.028475 0
M  V30 2745 H 253.784 2.04002 -1.54328 0
M  V30 2746 H 253.428 4.21001 -2.84114 0
M  V30 2747 H 253.358 5.10275 -1.30104 0
M  V30 2748 H 255.849 3.54119 -1.31939 0
M  V30 2749 H 256.162 6.99964 -3.27522 0
M  V30 2750 H 254.507 6.29791 -2.93919 0
M  V30 2751 H 257.698 4.35631 -1.71299 0
M  V30 2752 H 257.871 5.93348 -2.60466 0
M  V30 2753 N 251.277 0.427512 1.51691 0
M  V30 2754 C 252.525 -0.141948 2.01601 0
M  V30 2755 C 252.846 -1.44067 1.31414 0
M  V30 2756 O 252.116 -1.90763 0.445658 0
M  V30 2757 H 250.696 -0.0554468 0.744939 0
M  V30 2758 H 253.358 0.567968 1.86441 0
M  V30 2759 H 252.454 -0.324913 3.10404 0
M  V30 2760 N 252.755 -1.56801 0.158532 0
M  V30 2761 C 254.166 -1.83189 -0.360366 0
M  V30 2762 C 254.517 -1.07778 -1.63946 0
M  V30 2763 O 253.642 -0.326718 -2.13919 0
M  V30 2764 C 254.237 -3.32297 -0.660595 0
M  V30 2765 C 252.796 -3.59227 -1.12398 0
M  V30 2766 C 251.943 -2.76877 -0.153097 0
M  V30 2767 H 254.894 -1.54008 0.383031 0
M  V30 2768 H 254.915 -3.4908 -1.51405 0
M  V30 2769 H 254.427 -3.87156 0.270527 0
M  V30 2770 H 252.528 -3.09766 -2.07064 0
M  V30 2771 H 252.641 -4.67632 -1.04197 0
M  V30 2772 H 251.005 -2.46319 -0.647983 0
M  V30 2773 H 251.788 -3.34511 0.77182 0
M  V30 2774 N 254.233 0.115231 -1.57178 0
M  V30 2775 C 255.479 0.82357 -1.85325 0
M  V30 2776 C 255.812 1.79349 -0.744814 0
M  V30 2777 O 255.087 1.92899 0.249024 0
M  V30 2778 C 255.37 1.57014 -3.24066 0
M  V30 2779 C 255.223 0.619565 -4.45513 0
M  V30 2780 C 256.542 2.52545 -3.60429 0
M  V30 2781 H 253.661 0.297948 -0.674089 0
M  V30 2782 H 256.303 0.0877138 -1.89797 0
M  V30 2783 H 254.453 2.19742 -3.20383 0
M  V30 2784 H 256.125 0.000837639 -4.613 0
M  V30 2785 H 254.368 -0.0686174 -4.33746 0
M  V30 2786 H 255.039 1.17866 -5.3927 0
M  V30 2787 H 257.515 1.9992 -3.64926 0
M  V30 2788 H 256.391 3.01811 -4.58477 0
M  V30 2789 H 256.652 3.35383 -2.88047 0
M  V30 2790 N 255.711 1.52812 0.385517 0
M  V30 2791 C 257.127 1.4214 0.725829 0
M  V30 2792 C 257.327 0.544589 1.94001 0
M  V30 2793 O 256.383 0.0193693 2.52493 0
M  V30 2794 C 257.696 2.85042 0.957668 0
M  V30 2795 C 259.244 2.94543 1.05892 0
M  V30 2796 C 259.719 4.38464 1.32337 0
M  V30 2797 N 261.21 4.41804 1.39151 0
M  V30 2798 C 261.945 5.5025 1.61285 0
M  V30 2799 N 261.441 6.68775 1.80866 0
M  V30 2800 N 263.234 5.37798 1.63492 0
M  V30 2801 H 255.385 2.08338 -0.413383 0
M  V30 2802 H 257.648 0.940016 -0.122775 0
M  V30 2803 H 257.354 3.51431 0.137568 0
M  V30 2804 H 257.228 3.27505 1.87137 0
M  V30 2805 H 259.615 2.28321 1.86959 0
M  V30 2806 H 259.696 2.55504 0.123057 0
M  V30 2807 H 259.34 5.05254 0.517793 0
M  V30 2808 H 259.27 4.75059 2.27214 0
M  V30 2809 H 261.761 3.56377 1.25713 0
M  V30 2810 H 262.074 7.47197 1.97271 0
M  V30 2811 H 260.419 6.71797 1.78083 0
M  V30 2812 H 263.61 4.44171 1.47749 0
M  V30 2813 H 263.783 6.22382 1.80402 0
M  V30 2814 N 257.189 -0.644168 1.43834 0
M  V30 2815 C 258.417 -1.43147 1.49387 0
M  V30 2816 C 258.832 -1.88452 0.114583 0
M  V30 2817 O 258.189 -1.60047 -0.876989 0
M  V30 2818 C 258.24 -2.66046 2.44748 0
M  V30 2819 O 257.961 -2.22633 3.77314 0
M  V30 2820 C 259.462 -3.59311 2.59635 0
M  V30 2821 H 256.682 -0.439447 0.507077 0
M  V30 2822 H 259.226 -0.78895 1.88669 0
M  V30 2823 H 257.381 -3.26418 2.08638 0
M  V30 2824 H 257.795 -3.02216 4.28679 0
M  V30 2825 H 259.269 -4.42187 3.30416 0
M  V30 2826 H 259.746 -4.07259 1.64427 0
M  V30 2827 H 260.352 -3.04816 2.96593 0
M  V30 2828 N 258.668 -1.30515 -0.883378 0
M  V30 2829 C 259.914 -1.19607 -1.63774 0
M  V30 2830 C 260.247 0.248314 -1.92606 0
M  V30 2831 O 259.522 1.17742 -1.54813 0
M  V30 2832 C 259.805 -2.02669 -2.97653 0
M  V30 2833 C 259.658 -3.55335 -2.75784 0
M  V30 2834 C 260.977 -1.86573 -3.98596 0
M  V30 2835 H 258.096 -0.435856 -0.594305 0
M  V30 2836 H 260.738 -1.60165 -1.02212 0
M  V30 2837 H 258.888 -1.68208 -3.50197 0
M  V30 2838 H 260.56 -3.99863 -2.30016 0
M  V30 2839 H 258.803 -3.79438 -2.1026 0
M  V30 2840 H 259.474 -4.08745 -3.70988 0
M  V30 2841 H 261.95 -2.16703 -3.55217 0
M  V30 2842 H 260.826 -2.47014 -4.90179 0
M  V30 2843 H 261.087 -0.825321 -4.34328 0
M  V30 2844 N 260.146 1.09593 -1.13257 0
M  V30 2845 C 261.374 1.855 -0.916378 0
M  V30 2846 C 261.789 1.81069 0.534738 0
M  V30 2847 O 261.146 1.20562 1.37007 0
M  V30 2848 C 261.197 3.33546 -1.39388 0
M  V30 2849 O 260.918 3.37927 -2.78813 0
M  V30 2850 C 262.419 4.26299 -1.21588 0
M  V30 2851 H 259.639 0.585991 -0.326887 0
M  V30 2852 H 262.183 1.38488 -1.5047 0
M  V30 2853 H 260.338 3.77992 -0.848597 0
M  V30 2854 H 260.752 4.30254 -2.9997 0
M  V30 2855 H 262.226 5.28341 -1.59876 0
M  V30 2856 H 262.703 4.38918 -0.157376 0
M  V30 2857 H 263.309 3.87668 -1.7491 0
M  V30 2858 N 261.624 0.925811 1.2754 0
M  V30 2859 C 262.571 0.422045 2.26908 0
M  V30 2860 C 263.541 -0.510029 1.58076 0
M  V30 2861 O 264.726 -0.429599 1.85901 0
M  V30 2862 C 261.866 -0.320837 3.43605 0
M  V30 2863 C 260.979 0.64513 4.27156 0
M  V30 2864 C 260.114 -0.117405 5.3107 0
M  V30 2865 C 259.153 0.841391 6.0629 0
M  V30 2866 N 258.29 0.111604 7.02011 0
M  V30 2867 H 263.13 1.27441 2.69375 0
M  V30 2868 H 260.667 0.639697 1.32462 0
M  V30 2869 H 262.625 -0.76785 4.10073 0
M  V30 2870 H 261.255 -1.13745 3.02096 0
M  V30 2871 H 260.307 1.21067 3.6062 0
M  V30 2872 H 261.619 1.37797 4.79389 0
M  V30 2873 H 260.773 -0.624422 6.03478 0
M  V30 2874 H 259.512 -0.883219 4.79636 0
M  V30 2875 H 258.517 1.35967 5.32722 0
M  V30 2876 H 259.742 1.60696 6.59813 0
M  V30 2877 H 257.688 -0.635999 6.5291 0
M  V30 2878 H 257.605 0.784044 7.51923 0
M  V30 2879 H 258.873 -0.374823 7.78598 0
M  V30 2880 N 263.102 -1.41638 0.69111 0
M  V30 2881 C 264.518 -1.55435 0.362224 0
M  V30 2882 C 264.718 -1.66754 -1.13117 0
M  V30 2883 O 263.774 -1.64348 -1.91692 0
M  V30 2884 C 265.087 -2.79588 1.10684 0
M  V30 2885 C 266.635 -2.9338 1.09075 0
M  V30 2886 C 267.11 -4.20414 1.81703 0
M  V30 2887 N 268.601 -4.27362 1.7865 0
M  V30 2888 C 269.336 -5.24507 2.31689 0
M  V30 2889 N 268.832 -6.27708 2.93179 0
M  V30 2890 N 270.625 -5.16416 2.2197 0
M  V30 2891 H 262.776 -1.32536 1.65976 0
M  V30 2892 H 265.039 -0.639115 0.700168 0
M  V30 2893 H 264.745 -2.77419 2.16175 0
M  V30 2894 H 264.619 -3.70973 0.682545 0
M  V30 2895 H 267.006 -2.95067 0.0441238 0
M  V30 2896 H 267.087 -2.0318 1.55407 0
M  V30 2897 H 266.731 -4.19488 2.86343 0
M  V30 2898 H 266.661 -5.09578 1.32808 0
M  V30 2899 H 269.152 -3.53415 1.33815 0
M  V30 2900 H 269.465 -6.98217 3.31229 0
M  V30 2901 H 267.81 -6.28223 2.97255 0
M  V30 2902 H 271.001 -4.34716 1.73607 0
M  V30 2903 H 271.174 -5.91958 2.63609 0
M  V30 2904 N 264.58 -0.43555 -1.51462 0
M  V30 2905 C 265.826 0.131709 -2.02372 0
M  V30 2906 C 266.159 1.42516 -1.3192 0
M  V30 2907 O 265.434 1.89606 -0.433573 0
M  V30 2908 C 265.717 0.352301 -3.58373 0
M  V30 2909 C 265.57 -0.959676 -4.39443 0
M  V30 2910 C 266.889 1.12286 -4.25535 0
M  V30 2911 H 264.008 0.0463936 -0.735538 0
M  V30 2912 H 266.65 -0.574197 -1.81116 0
M  V30 2913 H 264.8 0.9536 -3.76615 0
M  V30 2914 H 266.472 -1.59482 -4.32855 0
M  V30 2915 H 264.715 -1.56468 -4.04599 0
M  V30 2916 H 265.386 -0.759394 -5.46752 0
M  V30 2917 H 267.862 0.613545 -4.11552 0
M  V30 2918 H 266.738 1.24598 -5.34571 0
M  V30 2919 H 266.999 2.15048 -3.86273 0
M  V30 2920 N 266.058 1.56714 -0.166846 0
M  V30 2921 C 266.99 2.14914 0.796537 0
M  V30 2922 C 268.003 1.10357 1.19688 0
M  V30 2923 O 269.192 1.37561 1.13751 0
M  V30 2924 C 266.292 2.67326 2.08303 0
M  V30 2925 C 265.465 3.96493 1.84696 0
M  V30 2926 C 264.524 4.34014 2.97521 0
M  V30 2927 O 263.55 5.01973 2.6835 0
M  V30 2928 N 264.752 3.95208 4.25196 0
M  V30 2929 H 267.517 2.98205 0.299006 0
M  V30 2930 H 265.078 1.61892 0.0160839 0
M  V30 2931 H 267.07 2.89428 2.82867 0
M  V30 2932 H 265.64 1.88649 2.4926 0
M  V30 2933 H 264.86 3.82814 0.940602 0
M  V30 2934 H 266.148 4.8086 1.66285 0
M  V30 2935 H 265.546 3.40487 4.51758 0
M  V30 2936 H 264.103 4.2232 4.96477 0
M  V30 2937 N 267.536 -0.106894 1.57237 0
M  V30 2938 C 268.947 -0.662723 1.74542 0
M  V30 2939 C 269.298 -1.7971 0.787319 0
M  V30 2940 O 268.423 -2.16368 -0.0369636 0
M  V30 2941 C 269.018 -1.20896 3.16496 0
M  V30 2942 C 267.577 -1.71096 3.35266 0
M  V30 2943 C 266.724 -0.615642 2.7038 0
M  V30 2944 H 269.675 0.119106 1.58252 0
M  V30 2945 H 269.696 -2.07847 3.18716 0
M  V30 2946 H 269.208 -0.383122 3.86204 0
M  V30 2947 H 267.309 -2.56119 2.70618 0
M  V30 2948 H 267.422 -1.81208 4.43509 0
M  V30 2949 H 265.786 -1.05222 2.31949 0
M  V30 2950 H 266.569 0.199419 3.4272 0
M  V30 2951 N 269.014 -1.53014 -0.377408 0
M  V30 2952 C 270.254 -1.70318 -1.1301 0
M  V30 2953 C 270.618 -0.439538 -1.86901 0
M  V30 2954 O 271.819 -0.489095 -2.64313 0
M  V30 2955 C 270.09 -2.91125 -2.07319 0
M  V30 2956 S 271.649 -3.29075 -2.90268 0
M  V30 2957 H 268.467 -0.599426 -0.382374 0
M  V30 2958 H 271.069 -1.91089 -0.412933 0
M  V30 2959 H 269.773 -3.81303 -1.51777 0
M  V30 2960 H 269.304 -2.7272 -2.83526 0
M  V30 2961 H 271.319 -2.80165 -4.09539 0
M  V30 2962 N 270.492 0.636531 -1.44174 0
M  V30 2963 C 271.717 1.42847 -1.50364 0
M  V30 2964 C 272.142 1.87665 -0.127867 0
M  V30 2965 O 271.5 1.58408 0.88185 0
M  V30 2966 C 271.548 2.62854 -2.4686 0
M  V30 2967 O 270.652 3.62501 -1.9664 0
M  V30 2968 H 269.993 0.427642 -0.507955 0
M  V30 2969 H 272.523 0.777422 -1.89255 0
M  V30 2970 H 272.533 3.10465 -2.64718 0
M  V30 2971 H 271.208 2.29578 -3.46795 0
M  V30 2972 H 269.785 3.21735 -1.88523 0
M  V30 2973 N 271.97 1.30982 0.876444 0
M  V30 2974 C 272.9 1.20668 1.99903 0
M  V30 2975 C 273.881 0.095354 1.69833 0
M  V30 2976 O 275.066 0.27885 1.92188 0
M  V30 2977 C 272.196 0.90655 3.3526 0
M  V30 2978 C 271.15 1.97675 3.79617 0
M  V30 2979 C 270.476 1.52943 5.1236 0
M  V30 2980 C 271.776 3.389 3.97422 0
M  V30 2981 H 273.47 2.14586 2.0879 0
M  V30 2982 H 271.016 1.03308 1.00317 0
M  V30 2983 H 272.969 0.821025 4.13324 0
M  V30 2984 H 271.693 -0.0682969 3.26529 0
M  V30 2985 H 270.352 2.05205 3.03787 0
M  V30 2986 H 270 0.54262 5.00065 0
M  V30 2987 H 269.7 2.24532 5.43009 0
M  V30 2988 H 271.224 1.45786 5.92941 0
M  V30 2989 H 272.638 3.34081 4.659 0
M  V30 2990 H 271.035 4.0865 4.3946 0
M  V30 2991 H 272.105 3.80163 3.01006 0
M  V30 2992 N 273.449 -1.08991 1.13837 0
M  V30 2993 C 274.726 -1.77863 0.813876 0
M  V30 2994 C 275.106 -1.99375 -0.693746 0
M  V30 2995 O 274.454 -1.59875 -1.63255 0
M  V30 2996 C 274.664 -3.0986 1.60586 0
M  V30 2997 C 276.012 -3.84493 1.8014 0
M  V30 2998 O 277.036 -3.19624 1.57222 0
M  V30 2999 O 275.895 -5.00957 2.18413 0
M  V30 3000 H 272.989 -0.771589 0.297624 0
M  V30 3001 H 275.535 -1.15507 1.24323 0
M  V30 3002 H 274.307 -2.89715 2.63022 0
M  V30 3003 H 273.93 -3.79942 1.17173 0
M  V30 3004 N 274.927 -0.932562 -1.27047 0
M  V30 3005 C 276.338 -0.619451 -1.76124 0
M  V30 3006 C 276.689 0.865397 -1.76083 0
M  V30 3007 O 275.814 1.67722 -1.36742 0
M  V30 3008 C 276.409 -1.11771 -3.19832 0
M  V30 3009 C 274.968 -0.855174 -3.66557 0
M  V30 3010 C 274.115 -1.27362 -2.46321 0
M  V30 3011 H 277.066 -1.11181 -1.13245 0
M  V30 3012 H 277.087 -0.46759 -3.77616 0
M  V30 3013 H 276.599 -2.19842 -3.1983 0
M  V30 3014 H 274.7 0.211524 -3.71999 0
M  V30 3015 H 274.813 -1.47613 -4.55793 0
M  V30 3016 H 273.177 -0.692119 -2.45116 0
M  V30 3017 H 273.96 -2.36307 -2.49025 0
M  V30 3018 N 276.405 1.4127 -0.698611 0
M  V30 3019 C 277.368 2.29158 -0.044132 0
M  V30 3020 C 278.368 1.44529 0.704841 0
M  V30 3021 O 279.558 1.65643 0.539276 0
M  V30 3022 C 276.69 3.27459 0.947809 0
M  V30 3023 H 277.883 2.88529 -0.817994 0
M  V30 3024 H 275.436 1.49307 -0.46228 0
M  V30 3025 H 276.171 2.73073 1.74933 0
M  V30 3026 H 275.956 3.8991 0.41385 0
M  V30 3027 H 277.446 3.93311 1.40344 0
M  V30 3028 N 277.883 0.443576 1.51229 0
M  V30 3029 C 279.111 -0.11929 2.06556 0
M  V30 3030 C 279.526 -1.35921 1.31038 0
M  V30 3031 O 278.883 -1.78675 0.371704 0
M  V30 3032 C 278.934 -0.435228 3.5887 0
M  V30 3033 O 278.655 0.755486 4.31537 0
M  V30 3034 C 280.156 -1.04808 4.30732 0
M  V30 3035 H 277.376 -0.0051584 0.67098 0
M  V30 3036 H 279.92 0.624453 1.94733 0
M  V30 3037 H 278.075 -1.12887 3.70588 0
M  V30 3038 H 278.489 0.483491 5.22267 0
M  V30 3039 H 279.963 -1.2191 5.3837 0
M  V30 3040 H 280.44 -2.03081 3.89429 0
M  V30 3041 H 281.046 -0.393637 4.23474 0
M  V30 3042 N 279.361 -1.56624 0.175154 0
M  V30 3043 C 280.293 -2.15333 -0.785128 0
M  V30 3044 C 281.306 -1.1099 -1.19101 0
M  V30 3045 O 282.495 -1.38162 -1.13019 0
M  V30 3046 C 279.595 -2.68427 -2.06882 0
M  V30 3047 C 278.768 -3.97466 -1.8259 0
M  V30 3048 C 277.827 -4.35585 -2.95215 0
M  V30 3049 O 276.853 -5.03389 -2.65684 0
M  V30 3050 N 278.055 -3.97457 -4.23094 0
M  V30 3051 H 280.82 -2.98359 -0.283187 0
M  V30 3052 H 278.381 -1.61898 -0.00749817 0
M  V30 3053 H 280.373 -2.90924 -2.81328 0
M  V30 3054 H 278.943 -1.89968 -2.48256 0
M  V30 3055 H 278.163 -3.83307 -0.920287 0
M  V30 3056 H 279.451 -4.81736 -1.63733 0
M  V30 3057 H 278.849 -3.42878 -4.49945 0
M  V30 3058 H 277.406 -4.24947 -4.9423 0
M  V30 3059 N 280.839 0.0985539 -1.57292 0
M  V30 3060 C 281.786 1.11981 -2.01814 0
M  V30 3061 C 282.756 1.39999 -0.89384 0
M  V30 3062 O 283.941 1.5152 -1.15958 0
M  V30 3063 C 281.081 2.43577 -2.44467 0
M  V30 3064 C 280.194 2.2232 -3.70402 0
M  V30 3065 C 279.329 3.4729 -4.01949 0
M  V30 3066 C 278.368 3.2128 -5.21005 0
M  V30 3067 N 277.505 4.38507 -5.48321 0
M  V30 3068 H 282.345 0.733149 -2.88841 0
M  V30 3069 H 279.882 0.350482 -1.42864 0
M  V30 3070 H 281.84 3.20373 -2.6724 0
M  V30 3071 H 280.47 2.80097 -1.60455 0
M  V30 3072 H 279.522 1.36343 -3.55126 0
M  V30 3073 H 280.834 1.99089 -4.57345 0
M  V30 3074 H 279.988 4.32495 -4.25479 0
M  V30 3075 H 278.727 3.73572 -3.13521 0
M  V30 3076 H 277.732 2.34468 -4.97298 0
M  V30 3077 H 278.957 2.96348 -6.11028 0
M  V30 3078 H 276.903 4.64871 -4.62851 0
M  V30 3079 H 276.82 4.18455 -6.29628 0
M  V30 3080 H 278.088 5.24787 -5.76385 0
M  V30 3081 N 282.317 1.53212 0.369288 0
M  V30 3082 C 283.247 1.82365 1.45826 0
M  V30 3083 C 284.228 0.676907 1.56051 0
M  V30 3084 O 285.413 0.926401 1.70679 0
M  V30 3085 C 282.543 2.01023 2.83208 0
M  V30 3086 C 281.497 3.1678 2.8781 0
M  V30 3087 C 280.823 3.20724 4.27832 0
M  V30 3088 C 282.123 4.55447 2.55667 0
M  V30 3089 H 283.817 2.73559 1.21678 0
M  V30 3090 H 281.363 1.3163 0.583911 0
M  V30 3091 H 283.316 2.20001 3.59413 0
M  V30 3092 H 282.04 1.06536 3.08736 0
M  V30 3093 H 280.699 2.97616 2.14056 0
M  V30 3094 H 280.347 2.23882 4.50429 0
M  V30 3095 H 280.047 3.98496 4.31827 0
M  V30 3096 H 281.571 3.41881 5.05915 0
M  V30 3097 H 282.985 4.74611 3.21586 0
M  V30 3098 H 281.382 5.35432 2.70984 0
M  V30 3099 H 282.452 4.60812 1.5093 0
M  V30 3100 N 283.795 -0.628877 1.44509 0
M  V30 3101 C 285.044 -1.38437 1.4669 0
M  V30 3102 C 285.357 -1.95322 0.104272 0
M  V30 3103 O 286.563 -2.715 0.00362163 0
M  V30 3104 C 285.019 -2.50659 2.5826 0
M  V30 3105 C 284.627 -2.00277 4.0074 0
M  V30 3106 C 286.371 -3.27844 2.69664 0
M  V30 3107 C 284.278 -3.09854 5.0373 0
M  V30 3108 H 283.208 -0.520245 0.545766 0
M  V30 3109 H 285.859 -0.676313 1.70582 0
M  V30 3110 H 284.241 -3.2405 2.27612 0
M  V30 3111 H 285.415 -1.33736 4.40966 0
M  V30 3112 H 283.73 -1.35901 3.93599 0
M  V30 3113 H 286.327 -4.09534 3.43781 0
M  V30 3114 H 286.67 -3.77471 1.75559 0
M  V30 3115 H 287.203 -2.61543 2.99733 0
M  V30 3116 H 283.942 -2.65168 5.99472 0
M  V30 3117 H 283.462 -3.7503 4.68095 0
M  V30 3118 H 285.141 -3.74592 5.27532 0
M  V30 3119 N 285.273 -1.31445 -0.869486 0
M  V30 3120 C 286.501 -1.24122 -1.65534 0
M  V30 3121 C 286.916 0.193387 -1.87807 0
M  V30 3122 O 286.273 1.12557 -1.43656 0
M  V30 3123 C 286.324 -1.98229 -3.02304 0
M  V30 3124 O 286.045 -3.3609 -2.81026 0
M  V30 3125 C 287.546 -1.97751 -3.96749 0
M  V30 3126 H 284.766 -0.428868 -0.516055 0
M  V30 3127 H 287.31 -1.73328 -1.08525 0
M  V30 3128 H 285.465 -1.52782 -3.56001 0
M  V30 3129 H 285.879 -3.7383 -3.67902 0
M  V30 3130 H 287.353 -2.54114 -4.90031 0
M  V30 3131 H 287.83 -0.960137 -4.28577 0
M  V30 3132 H 288.436 -2.43079 -3.48988 0
M  V30 3133 N 286.751 1.08385 -1.14413 0
M  V30 3134 C 287.699 2.17406 -0.826888 0
M  V30 3135 C 288.693 1.6827 0.195312 0
M  V30 3136 O 289.899 1.79927 0.0513892 0
M  V30 3137 H 286.274 0.70934 -0.249681 0
M  V30 3138 H 288.245 2.41388 -1.75426 0
M  V30 3139 C 286.994 3.46215 -0.320979 0
M  V30 3140 H 286.317 3.84401 -1.0989 0
M  V30 3141 H 287.757 4.23777 -0.137549 0
M  V30 3142 C 286.216 3.23067 0.955472 0
M  V30 3143 O 286.746 3.4668 2.02918 0
M  V30 3144 N 284.952 2.7661 0.890798 0
M  V30 3145 H 284.499 2.57594 0.0168815 0
M  V30 3146 H 284.457 2.61501 1.74542 0
M  V30 3147 N 288.23 0.939286 1.26551 0
M  V30 3148 C 289.479 0.581601 1.93133 0
M  V30 3149 C 289.792 -0.883224 1.74524 0
M  V30 3150 O 290.998 -1.3502 2.35546 0
M  V30 3151 C 289.454 0.989425 3.46032 0
M  V30 3152 C 289.062 2.47573 3.73379 0
M  V30 3153 C 290.806 0.703544 4.18629 0
M  V30 3154 C 288.713 2.82235 5.19709 0
M  V30 3155 H 287.643 0.213803 0.723052 0
M  V30 3156 H 290.294 1.14167 1.4366 0
M  V30 3157 H 288.676 0.357902 3.94379 0
M  V30 3158 H 289.85 3.15614 3.35744 0
M  V30 3159 H 288.165 2.73471 3.1401 0
M  V30 3160 H 290.762 0.938869 5.26393 0
M  V30 3161 H 291.105 -0.359639 4.14744 0
M  V30 3162 H 291.638 1.2947 3.76141 0
M  V30 3163 H 288.377 3.87509 5.28694 0
M  V30 3164 H 287.897 2.18854 5.58447 0
M  V30 3165 H 289.576 2.70599 5.87695 0
M  V30 3166 N 289.708 -1.40897 0.706093 0
M  V30 3167 C 290.955 -2.01054 0.241531 0
M  V30 3168 C 291.283 -1.55956 -1.16223 0
M  V30 3169 O 290.538 -0.766336 -1.80072 0
M  V30 3170 C 290.837 -3.5646 0.259099 0
M  V30 3171 C 290.503 -4.21106 1.61184 0
M  V30 3172 C 289.165 -4.38479 1.98216 0
M  V30 3173 C 291.517 -4.57256 2.50132 0
M  V30 3174 C 288.845 -4.89282 3.2376 0
M  V30 3175 C 291.197 -5.09454 3.7502 0
M  V30 3176 C 289.861 -5.25037 4.12181 0
M  V30 3177 H 289.131 -0.73571 0.0883825 0
M  V30 3178 H 291.778 -1.68645 0.907257 0
M  V30 3179 H 290.083 -3.88721 -0.490189 0
M  V30 3180 H 291.78 -4.00826 -0.11804 0
M  V30 3181 H 288.37 -4.07966 1.31384 0
M  V30 3182 H 292.554 -4.43479 2.228 0
M  V30 3183 H 287.81 -4.99531 3.52532 0
M  V30 3184 H 291.984 -5.36404 4.44121 0
M  V30 3185 H 289.611 -5.64164 5.09532 0
M  V30 3186 N 291.186 -0.45159 -1.50991 0
M  V30 3187 C 292.411 0.110667 -2.07105 0
M  V30 3188 C 292.836 1.3446 -1.31538 0
M  V30 3189 O 292.194 1.77743 -0.357365 0
M  V30 3190 C 292.242 0.397238 -3.58405 0
M  V30 3191 O 291.346 1.48124 -3.84881 0
M  V30 3192 H 290.687 -0.00439271 -0.663985 0
M  V30 3193 H 293.217 -0.637026 -1.9443 0
M  V30 3194 H 293.227 0.64351 -4.02893 0
M  V30 3195 H 291.902 -0.504553 -4.12828 0
M  V30 3196 H 290.479 1.22381 -3.52246 0
M  V30 3197 N 292.664 1.56529 -0.183458 0
M  V30 3198 C 293.611 2.18546 0.742055 0
M  V30 3199 C 294.581 1.12912 1.2182 0
M  V30 3200 O 295.766 1.41115 1.28418 0
M  V30 3201 C 292.906 2.83977 1.96089 0
M  V30 3202 C 292.019 4.04105 1.52719 0
M  V30 3203 C 291.154 4.57427 2.70063 0
M  V30 3204 C 290.193 5.69938 2.23243 0
M  V30 3205 N 289.33 6.17717 3.33722 0
M  V30 3206 H 294.17 2.97284 0.206432 0
M  V30 3207 H 291.707 1.46823 0.0901571 0
M  V30 3208 H 293.665 3.20077 2.67594 0
M  V30 3209 H 292.295 2.07822 2.47002 0
M  V30 3210 H 291.347 3.73745 0.708436 0
M  V30 3211 H 292.659 4.85513 1.1436 0
M  V30 3212 H 291.813 4.95772 3.49708 0
M  V30 3213 H 290.552 3.75101 3.11689 0
M  V30 3214 H 289.557 5.31133 1.42048 0
M  V30 3215 H 290.782 6.54073 1.82661 0
M  V30 3216 H 288.728 5.38317 3.74902 0
M  V30 3217 H 288.645 6.94146 2.99495 0
M  V30 3218 H 289.913 6.60713 4.13616 0
M  V30 3219 N 294.142 -0.090211 1.57342 0
M  V30 3220 C 295.052 -1.12735 2.05738 0
M  V30 3221 C 296.068 -1.43557 0.983231 0
M  V30 3222 O 297.244 -1.54101 1.29672 0
M  V30 3223 C 294.309 -2.42659 2.47624 0
M  V30 3224 C 293.37 -2.18975 3.69254 0
M  V30 3225 C 292.603 -3.42704 4.09133 0
M  V30 3226 O 292.826 -4.51127 3.49057 0
M  V30 3227 O 291.76 -3.32003 5.02053 0
M  V30 3228 H 295.586 -0.746279 2.94388 0
M  V30 3229 H 293.171 -0.303064 1.46294 0
M  V30 3230 H 295.053 -3.19155 2.7517 0
M  V30 3231 H 293.728 -2.80182 1.62109 0
M  V30 3232 H 292.635 -1.40244 3.46818 0
M  V30 3233 H 293.968 -1.86342 4.55563 0
M  V30 3234 N 295.62 -1.53406 -0.361157 0
M  V30 3235 C 296.553 -1.74946 -1.46524 0
M  V30 3236 C 297.531 -0.59795 -1.51206 0
M  V30 3237 O 298.715 -0.831062 -1.69191 0
M  V30 3238 C 295.842 -1.83224 -2.84863 0
M  V30 3239 C 294.888 -3.05233 -2.97885 0
M  V30 3240 S 295.721 -4.6466 -2.66179 0
M  V30 3241 C 296.877 -4.75793 -4.06659 0
M  V30 3242 H 297.11 -2.68319 -1.28033 0
M  V30 3243 H 294.643 -1.44051 -0.555764 0
M  V30 3244 H 296.601 -1.88679 -3.64569 0
M  V30 3245 H 295.262 -0.908948 -3.00661 0
M  V30 3246 H 294.455 -3.07648 -3.9921 0
M  V30 3247 H 294.057 -2.97913 -2.26106 0
M  V30 3248 H 296.349 -4.5612 -5.0096 0
M  V30 3249 H 297.292 -5.7786 -4.09247 0
M  V30 3250 H 297.7 -4.04389 -3.93865 0
M  V30 3251 N 297.098 0.621204 -1.44841 0
M  V30 3252 C 298.345 1.38055 -1.48145 0
M  V30 3253 C 298.673 1.94143 -0.117867 0
M  V30 3254 O 297.928 1.74713 0.881694 0
M  V30 3255 C 298.227 2.55675 -2.4973 0
M  V30 3256 C 297.893 2.17817 -3.94799 0
M  V30 3257 C 296.555 2.07205 -4.34303 0
M  V30 3258 C 298.907 1.88065 -4.86087 0
M  V30 3259 C 296.235 1.65045 -5.63007 0
M  V30 3260 C 298.587 1.47394 -6.15189 0
M  V30 3261 C 297.251 1.35331 -6.53637 0
M  V30 3262 H 296.521 0.505181 -0.542101 0
M  V30 3263 H 299.168 0.703477 -1.78111 0
M  V30 3264 H 297.473 3.2866 -2.13284 0
M  V30 3265 H 299.17 3.13904 -2.4953 0
M  V30 3266 H 295.76 2.26998 -3.63552 0
M  V30 3267 H 299.944 1.95168 -4.56315 0
M  V30 3268 H 295.2 1.54317 -5.91605 0
M  V30 3269 H 299.374 1.23415 -6.85377 0
M  V30 3270 H 297.001 1.02435 -7.53267 0
M  V30 3271 N 298.576 1.31904 0.862503 0
M  V30 3272 C 299.523 1.20182 1.9704 0
M  V30 3273 C 300.493 0.0858247 1.65878 0
M  V30 3274 O 301.678 0.26 1.8902 0
M  V30 3275 C 298.818 0.922797 3.32533 0
M  V30 3276 C 297.931 2.12284 3.76244 0
M  V30 3277 C 297.066 1.77996 5.00491 0
M  V30 3278 C 296.105 2.94366 5.36671 0
M  V30 3279 N 295.242 2.60223 6.52095 0
M  V30 3280 H 300.082 2.14951 2.06398 0
M  V30 3281 H 297.619 1.06917 1.01031 0
M  V30 3282 H 299.577 0.741548 4.10557 0
M  V30 3283 H 298.207 0.0119227 3.22798 0
M  V30 3284 H 297.259 2.41461 2.9394 0
M  V30 3285 H 298.571 2.99357 3.98982 0
M  V30 3286 H 297.725 1.56377 5.862 0
M  V30 3287 H 296.464 0.881252 4.79672 0
M  V30 3288 H 295.469 3.16625 4.49476 0
M  V30 3289 H 296.694 3.84957 5.59451 0
M  V30 3290 H 294.64 1.72884 6.32809 0
M  V30 3291 H 294.557 3.40827 6.74814 0
M  V30 3292 H 295.825 2.42016 7.40978 0
M  V30 3293 N 300.054 -1.07777 1.14986 0
M  V30 3294 C 301.002 -2.16964 0.838406 0
M  V30 3295 C 301.996 -1.68372 -0.186386 0
M  V30 3296 O 303.202 -1.79951 -0.0418465 0
M  V30 3297 H 299.577 -0.708006 0.253439 0
M  V30 3298 H 301.548 -2.40454 1.76704 0
M  V30 3299 C 300.297 -3.4604 0.339335 0
M  V30 3300 H 299.62 -3.83813 1.11927 0
M  V30 3301 H 301.06 -4.23698 0.160021 0
M  V30 3302 C 299.519 -3.23569 -0.938325 0
M  V30 3303 O 300.049 -3.47752 -2.01077 0
M  V30 3304 N 298.255 -2.77079 -0.876117 0
M  V30 3305 H 297.802 -2.576 -0.00322037 0
M  V30 3306 H 297.76 -2.62422 -1.73153 0
M  V30 3307 N 301.532 -0.945985 -1.26051 0
M  V30 3308 C 302.76 -0.613025 -1.9761 0
M  V30 3309 C 303.175 0.813035 -1.70397 0
M  V30 3310 O 302.532 1.54274 -0.974979 0
M  V30 3311 C 302.583 -0.85159 -3.51326 0
M  V30 3312 O 302.304 -2.22157 -3.77595 0
M  V30 3313 C 303.805 -0.529831 -4.40122 0
M  V30 3314 H 301.025 -0.230593 -0.630133 0
M  V30 3315 H 303.569 -1.268 -1.60443 0
M  V30 3316 H 301.724 -0.243151 -3.86636 0
M  V30 3317 H 302.138 -2.2852 -4.721 0
M  V30 3318 H 303.612 -0.747348 -5.46917 0
M  V30 3319 H 304.089 0.535341 -4.35925 0
M  V30 3320 H 304.695 -1.11721 -4.10364 0
M  V30 3321 N 303.011 1.40521 -0.713556 0
M  V30 3322 C 303.944 2.28198 -0.00881422 0
M  V30 3323 C 304.922 1.43227 0.769735 0
M  V30 3324 O 306.106 1.72641 0.756799 0
M  V30 3325 C 303.233 3.23758 0.994899 0
M  V30 3326 C 302.279 4.25391 0.3074 0
M  V30 3327 S 303.112 5.26765 -0.963247 0
M  V30 3328 C 304.268 6.25888 0.0384143 0
M  V30 3329 H 304.501 2.87622 -0.752407 0
M  V30 3330 H 302.034 1.45925 -0.504502 0
M  V30 3331 H 303.992 3.79341 1.56879 0
M  V30 3332 H 302.653 2.63396 1.71118 0
M  V30 3333 H 301.846 4.92596 1.0661 0
M  V30 3334 H 301.448 3.73497 -0.193879 0
M  V30 3335 H 303.74 6.71683 0.885912 0
M  V30 3336 H 304.683 7.05552 -0.60019 0
M  V30 3337 H 305.091 5.63072 0.401233 0
M  V30 3338 N 304.489 0.459591 1.5075 0
M  V30 3339 C 305.452 -0.329093 2.26825 0
M  V30 3340 C 306.452 -0.930481 1.31144 0
M  V30 3341 O 307.642 -0.801453 1.54669 0
M  V30 3342 C 304.774 -1.46768 3.07688 0
M  V30 3343 H 305.967 0.337924 2.9799 0
M  V30 3344 H 303.52 0.213336 1.54837 0
M  V30 3345 H 304.255 -2.17009 2.40993 0
M  V30 3346 H 304.04 -1.04238 3.77991 0
M  V30 3347 H 305.53 -2.02433 3.65254 0
M  V30 3348 N 305.967 -1.56429 0.191757 0
M  V30 3349 C 306.897 -2.21937 -0.725696 0
M  V30 3350 C 307.878 -1.1814 -1.2238 0
M  V30 3351 O 309.063 -1.46636 -1.27325 0
M  V30 3352 C 306.193 -2.87611 -1.94672 0
M  V30 3353 C 305.147 -3.97623 -1.58366 0
M  V30 3354 C 304.473 -4.50446 -2.88102 0
M  V30 3355 C 305.773 -5.16197 -0.796133 0
M  V30 3356 H 307.467 -2.98861 -0.179606 0
M  V30 3357 H 305.013 -1.43749 -0.0849464 0
M  V30 3358 H 306.966 -3.3212 -2.59373 0
M  V30 3359 H 305.69 -2.08087 -2.51728 0
M  V30 3360 H 304.349 -3.53801 -0.960247 0
M  V30 3361 H 303.997 -3.67688 -3.43241 0
M  V30 3362 H 303.697 -5.24675 -2.64556 0
M  V30 3363 H 305.221 -4.97654 -3.53798 0
M  V30 3364 H 306.635 -5.57271 -1.34618 0
M  V30 3365 H 305.032 -5.96471 -0.658928 0
M  V30 3366 H 306.102 -4.84473 0.203478 0
M  V30 3367 N 307.445 0.0818655 -1.57387 0
M  V30 3368 C 308.378 1.12986 -1.98266 0
M  V30 3369 C 309.356 1.38123 -0.857954 0
M  V30 3370 O 310.54 1.51663 -1.1194 0
M  V30 3371 C 307.667 2.47632 -2.31076 0
M  V30 3372 C 306.713 2.38693 -3.53452 0
M  V30 3373 S 307.546 1.79071 -5.04672 0
M  V30 3374 C 308.702 3.15316 -5.40673 0
M  V30 3375 H 308.935 0.781435 -2.86846 0
M  V30 3376 H 306.468 0.290034 -1.51651 0
M  V30 3377 H 308.426 3.25089 -2.50654 0
M  V30 3378 H 307.087 2.79638 -1.43043 0
M  V30 3379 H 306.28 3.37964 -3.73893 0
M  V30 3380 H 305.882 1.69369 -3.33452 0
M  V30 3381 H 308.174 4.11613 -5.38127 0
M  V30 3382 H 309.117 2.99664 -6.41566 0
M  V30 3383 H 309.525 3.15457 -4.68132 0
M  V30 3384 N 308.923 1.53595 0.353017 0
M  V30 3385 C 310.2 1.61002 1.11075 0
M  V30 3386 C 310.58 0.425356 2.0677 0
M  V30 3387 O 309.928 -0.583267 2.2093 0
M  V30 3388 C 310.138 2.96631 1.83877 0
M  V30 3389 C 311.486 3.51653 2.37961 0
M  V30 3390 O 312.51 2.98743 1.93987 0
M  V30 3391 O 311.369 4.44177 3.18386 0
M  V30 3392 H 308.463 0.650825 0.510251 0
M  V30 3393 H 311.009 1.6594 0.35527 0
M  V30 3394 H 309.781 3.74293 1.14108 0
M  V30 3395 H 309.404 2.95242 2.66304 0
M  V30 3396 N 310.401 -0.613514 1.45168 0
M  V30 3397 C 311.331 -1.7354 1.56225 0
M  V30 3398 C 312.312 -1.64981 0.41414 0
M  V30 3399 O 313.497 -1.83472 0.636526 0
M  V30 3400 C 310.627 -3.12128 1.52295 0
M  V30 3401 C 309.581 -3.35491 2.65762 0
M  V30 3402 C 308.907 -4.74291 2.46885 0
M  V30 3403 C 310.207 -3.26325 4.0781 0
M  V30 3404 H 311.901 -1.64543 2.50132 0
M  V30 3405 H 309.447 -0.790185 1.20383 0
M  V30 3406 H 311.4 -3.90404 1.58628 0
M  V30 3407 H 310.124 -3.2195 0.549139 0
M  V30 3408 H 308.783 -2.59603 2.58847 0
M  V30 3409 H 308.431 -4.80839 1.47657 0
M  V30 3410 H 308.131 -4.9088 3.22972 0
M  V30 3411 H 309.655 -5.54775 2.55063 0
M  V30 3412 H 311.069 -3.94483 4.16 0
M  V30 3413 H 309.466 -3.54445 4.8424 0
M  V30 3414 H 310.536 -2.23855 4.30136 0
M  V30 3415 N 311.879 -1.3236 -0.855495 0
M  V30 3416 C 313.156 -1.13491 -1.59309 0
M  V30 3417 C 313.536 0.30503 -2.08885 0
M  V30 3418 O 312.884 1.30151 -1.87811 0
M  V30 3419 C 313.094 -2.16176 -2.73987 0
M  V30 3420 C 314.442 -2.49463 -3.43589 0
M  V30 3421 O 315.466 -2.14715 -2.84211 0
M  V30 3422 O 314.325 -3.09027 -4.50738 0
M  V30 3423 H 311.419 -0.437887 -0.701559 0
M  V30 3424 H 313.965 -1.43887 -0.899696 0
M  V30 3425 H 312.737 -3.1297 -2.34873 0
M  V30 3426 H 312.36 -1.86769 -3.51003 0
M  V30 3427 N 313.357 1.07166 -1.15556 0
M  V30 3428 C 314.603 1.80065 -0.932984 0
M  V30 3429 C 314.936 1.86586 0.53845 0
M  V30 3430 O 314.211 1.35098 1.39924 0
M  V30 3431 C 314.494 3.25022 -1.55025 0
M  V30 3432 C 314.347 3.26634 -3.09242 0
M  V30 3433 C 315.666 4.22341 -1.2376 0
M  V30 3434 H 312.785 0.653697 -0.340366 0
M  V30 3435 H 315.427 1.25389 -1.4275 0
M  V30 3436 H 313.577 3.71712 -1.12972 0
M  V30 3437 H 315.249 2.88173 -3.60214 0
M  V30 3438 H 313.492 2.65539 -3.43033 0
M  V30 3439 H 314.163 4.28854 -3.47546 0
M  V30 3440 H 316.639 3.8405 -1.60139 0
M  V30 3441 H 315.515 5.22053 -1.69564 0
M  V30 3442 H 315.776 4.41828 -0.154938 0
M  V30 3443 N 314.835 0.952656 1.25548 0
M  V30 3444 C 315.782 0.47008 2.25962 0
M  V30 3445 C 316.752 -0.476384 1.59122 0
M  V30 3446 O 317.937 -0.39007 1.8677 0
M  V30 3447 C 315.077 -0.247881 3.44209 0
M  V30 3448 C 314.19 0.735591 4.25691 0
M  V30 3449 C 313.325 -0.0047306 5.312 0
M  V30 3450 C 312.364 0.969805 6.04368 0
M  V30 3451 N 311.501 0.260486 7.01617 0
M  V30 3452 H 316.341 1.33126 2.66611 0
M  V30 3453 H 313.878 0.66765 1.31076 0
M  V30 3454 H 315.836 -0.680695 4.1161 0
M  V30 3455 H 314.466 -1.07312 3.0444 0
M  V30 3456 H 313.518 1.28689 3.57971 0
M  V30 3457 H 314.83 1.47934 4.76358 0
M  V30 3458 H 313.984 -0.496275 6.04667 0
M  V30 3459 H 312.723 -0.781282 4.81401 0
M  V30 3460 H 311.728 1.47237 5.29718 0
M  V30 3461 H 312.953 1.74655 6.56256 0
M  V30 3462 H 310.899 -0.497364 6.54112 0
M  V30 3463 H 310.816 0.943362 7.50091 0
M  V30 3464 H 312.084 -0.209587 7.79218 0
M  V30 3465 N 316.313 -1.40141 0.720998 0
M  V30 3466 C 317.26 -2.30688 0.071919 0
M  V30 3467 C 318.23 -1.48476 -0.744584 0
M  V30 3468 O 319.415 -1.77201 -0.707423 0
M  V30 3469 C 316.555 -3.34724 -0.839855 0
M  V30 3470 C 315.668 -4.31998 -0.0122438 0
M  V30 3471 C 314.803 -5.23102 -0.923995 0
M  V30 3472 C 313.842 -6.12033 -0.0907969 0
M  V30 3473 N 312.979 -6.95537 -0.957718 0
M  V30 3474 H 317.819 -2.85628 0.849755 0
M  V30 3475 H 315.356 -1.40653 0.430726 0
M  V30 3476 H 317.314 -3.93618 -1.38279 0
M  V30 3477 H 315.944 -2.81274 -1.58381 0
M  V30 3478 H 314.996 -3.74841 0.64794 0
M  V30 3479 H 316.308 -4.94772 0.632595 0
M  V30 3480 H 315.462 -5.86953 -1.53527 0
M  V30 3481 H 314.201 -4.60615 -1.60264 0
M  V30 3482 H 313.206 -5.47207 0.533377 0
M  V30 3483 H 314.431 -6.76581 0.584428 0
M  V30 3484 H 312.377 -6.35633 -1.62192 0
M  V30 3485 H 312.294 -7.55099 -0.36904 0
M  V30 3486 H 313.562 -7.63832 -1.555 0
M  V30 3487 N 317.792 -0.46758 -1.50504 0
M  V30 3488 C 318.725 0.374324 -2.25109 0
M  V30 3489 C 319.703 0.99921 -1.28275 0
M  V30 3490 O 320.887 1.03583 -1.57489 0
M  V30 3491 C 318.014 1.52419 -3.02467 0
M  V30 3492 C 317.06 1.01702 -4.14197 0
M  V30 3493 S 317.893 -0.0654477 -5.3546 0
M  V30 3494 C 319.049 1.08837 -6.16365 0
M  V30 3495 H 319.282 -0.258983 -2.9617 0
M  V30 3496 H 316.815 -0.252421 -1.52323 0
M  V30 3497 H 318.773 2.18322 -3.47628 0
M  V30 3498 H 317.434 2.129 -2.30938 0
M  V30 3499 H 316.627 1.87776 -4.67714 0
M  V30 3500 H 316.229 0.435757 -3.71453 0
M  V30 3501 H 318.521 2.00071 -6.47285 0
M  V30 3502 H 319.464 0.592538 -7.05616 0
M  V30 3503 H 319.872 1.34061 -5.4835 0
M  V30 3504 N 319.27 1.56325 -0.20005 0
M  V30 3505 C 320.681 1.8408 0.31167 0
M  V30 3506 C 321.032 1.12087 1.61031 0
M  V30 3507 O 320.157 0.38332 2.12978 0
M  V30 3508 C 320.752 3.33932 0.57226 0
M  V30 3509 C 319.311 3.6208 1.02834 0
M  V30 3510 C 318.458 2.77186 0.079634 0
M  V30 3511 H 321.409 1.52939 -0.423729 0
M  V30 3512 H 321.43 3.52971 1.42096 0
M  V30 3513 H 320.942 3.86303 -0.37308 0
M  V30 3514 H 319.043 3.15147 1.98778 0
M  V30 3515 H 319.156 4.7023 0.917624 0
M  V30 3516 H 317.52 2.47951 0.582448 0
M  V30 3517 H 318.303 3.32347 -0.860238 0
M  V30 3518 N 320.748 -0.0735177 1.57428 0
M  V30 3519 C 321.678 -1.0879 2.06608 0
M  V30 3520 C 322.659 -1.40473 0.959237 0
M  V30 3521 O 323.844 -1.5013 1.23185 0
M  V30 3522 C 320.974 -2.40183 2.50857 0
M  V30 3523 C 319.928 -2.22858 3.65402 0
M  V30 3524 C 319.254 -3.59619 3.957 0
M  V30 3525 C 320.554 -1.65123 4.95511 0
M  V30 3526 H 322.248 -0.678673 2.91607 0
M  V30 3527 H 319.794 -0.325013 1.40284 0
M  V30 3528 H 321.747 -3.11437 2.83874 0
M  V30 3529 H 320.471 -2.83083 1.62885 0
M  V30 3530 H 319.13 -1.54045 3.32664 0
M  V30 3531 H 318.778 -4.00086 3.04861 0
M  V30 3532 H 318.478 -3.48866 4.72828 0
M  V30 3533 H 320.002 -4.32306 4.31212 0
M  V30 3534 H 321.416 -2.26241 5.26771 0
M  V30 3535 H 319.813 -1.65071 5.7695 0
M  V30 3536 H 320.883 -0.612559 4.81015 0
M  V30 3537 N 322.226 -1.5378 -0.344866 0
M  V30 3538 C 323.474 -1.70625 -1.08311 0
M  V30 3539 C 323.795 -0.471447 -1.89215 0
M  V30 3540 O 323.065 0.514616 -1.8902 0
M  V30 3541 H 321.645 -0.629058 -0.402859 0
M  V30 3542 H 324.307 -1.9103 -0.386459 0
M  V30 3543 H 323.403 -2.57656 -1.76124 0
M  V30 3544 N 323.704 0.605807 -1.45491 0
M  V30 3545 C 324.651 1.7164 -1.54299 0
M  V30 3546 C 325.621 1.61486 -0.388761 0
M  V30 3547 O 326.806 1.81039 -0.602445 0
M  V30 3548 C 323.946 3.09953 -1.51734 0
M  V30 3549 C 323.059 3.309 -2.77721 0
M  V30 3550 C 322.194 4.59329 -2.66816 0
M  V30 3551 C 321.233 4.7354 -3.87848 0
M  V30 3552 N 320.37 5.9327 -3.75467 0
M  V30 3553 H 325.21 1.63449 -2.49176 0
M  V30 3554 H 322.747 0.796957 -1.23641 0
M  V30 3555 H 324.705 3.89977 -1.48235 0
M  V30 3556 H 323.335 3.17098 -0.604068 0
M  V30 3557 H 322.387 2.44639 -2.913 0
M  V30 3558 H 323.699 3.37274 -3.67488 0
M  V30 3559 H 322.853 5.4755 -2.61292 0
M  V30 3560 H 321.592 4.55355 -1.74651 0
M  V30 3561 H 320.597 3.83741 -3.93729 0
M  V30 3562 H 321.822 4.79309 -4.81082 0
M  V30 3563 H 319.768 5.90338 -2.86072 0
M  V30 3564 H 319.685 6.00811 -4.5887 0
M  V30 3565 H 320.953 6.83984 -3.73879 0
M  V30 3566 N 325.182 1.32811 0.848464 0
M  V30 3567 C 326.112 1.24882 1.97299 0
M  V30 3568 C 327.093 0.131357 1.69592 0
M  V30 3569 O 328.278 0.319553 1.91553 0
M  V30 3570 C 325.408 0.97746 3.33261 0
M  V30 3571 C 324.362 2.05682 3.75338 0
M  V30 3572 C 323.688 1.63777 5.09 0
M  V30 3573 C 324.988 3.47254 3.90144 0
M  V30 3574 H 326.682 2.18966 2.04191 0
M  V30 3575 H 324.228 1.05413 0.981029 0
M  V30 3576 H 326.181 0.908513 4.1149 0
M  V30 3577 H 324.905 0.000980011 3.266 0
M  V30 3578 H 323.564 2.11603 2.99366 0
M  V30 3579 H 323.212 0.648569 4.98801 0
M  V30 3580 H 322.912 2.36 5.38124 0
M  V30 3581 H 324.436 1.5833 5.89715 0
M  V30 3582 H 325.85 3.43888 4.58709 0
M  V30 3583 H 324.247 4.1788 4.30693 0
M  V30 3584 H 325.317 3.86462 2.92874 0
M  V30 3585 N 326.66 -1.06551 1.16123 0
M  V30 3586 C 327.885 -1.83544 0.965735 0
M  V30 3587 C 328.31 -1.81843 -0.481102 0
M  V30 3588 O 327.668 -1.21732 -1.34354 0
M  V30 3589 C 327.716 -3.28169 1.49457 0
M  V30 3590 O 326.82 -4.0643 0.699157 0
M  V30 3591 H 326.161 -0.568026 0.343864 0
M  V30 3592 H 328.691 -1.34362 1.54299 0
M  V30 3593 H 328.701 -3.78992 1.51092 0
M  V30 3594 H 327.376 -3.28722 2.54784 0
M  V30 3595 H 325.953 -3.65216 0.7531 0
M  V30 3596 N 328.138 -0.959301 -1.25041 0
M  V30 3597 C 329.085 -0.482057 -2.2571 0
M  V30 3598 C 330.055 0.467939 -1.59372 0
M  V30 3599 O 331.24 0.380159 -1.86974 0
M  V30 3600 C 328.38 0.229623 -3.44335 0
M  V30 3601 C 327.493 -0.758156 -4.25295 0
M  V30 3602 C 326.628 -0.0234403 -5.31195 0
M  V30 3603 C 325.667 -1.00184 -6.03846 0
M  V30 3604 N 324.804 -0.29769 -7.01469 0
M  V30 3605 H 329.644 -1.34538 -2.65901 0
M  V30 3606 H 327.181 -0.674592 -1.3072 0
M  V30 3607 H 329.139 0.658856 -4.11965 0
M  V30 3608 H 327.769 1.05696 -3.05005 0
M  V30 3609 H 326.821 -1.30586 -3.57284 0
M  V30 3610 H 328.133 -1.50458 -4.75567 0
M  V30 3611 H 327.287 0.464201 -6.04922 0
M  V30 3612 H 326.026 0.755741 -4.81809 0
M  V30 3613 H 325.031 -1.50044 -5.2893 0
M  V30 3614 H 326.256 -1.78133 -6.55321 0
M  V30 3615 H 324.202 0.462668 -6.54366 0
M  V30 3616 H 324.119 -0.983128 -7.4958 0
M  V30 3617 H 325.387 0.16826 -7.79318 0
M  V30 3618 N 329.616 1.39756 -0.72842 0
M  V30 3619 C 330.548 2.29157 -0.0446202 0
M  V30 3620 C 331.561 1.46484 0.710367 0
M  V30 3621 O 332.75 1.69632 0.55562 0
M  V30 3622 C 329.85 3.24987 0.961071 0
M  V30 3623 C 329.023 4.36572 0.268967 0
M  V30 3624 C 328.082 5.12756 1.18184 0
M  V30 3625 O 327.108 5.6534 0.661794 0
M  V30 3626 N 328.31 5.23331 2.51206 0
M  V30 3627 H 331.075 2.88482 -0.812295 0
M  V30 3628 H 328.636 1.51265 -0.577098 0
M  V30 3629 H 330.628 3.72827 1.57423 0
M  V30 3630 H 329.198 2.66739 1.63 0
M  V30 3631 H 328.418 3.90694 -0.524574 0
M  V30 3632 H 329.706 5.08363 -0.210934 0
M  V30 3633 H 329.104 4.82116 2.9594 0
M  V30 3634 H 327.661 5.74634 3.07634 0
M  V30 3635 N 331.094 0.475555 1.50254 0
M  V30 3636 C 332.026 -0.352649 2.26471 0
M  V30 3637 C 333.039 -0.953165 1.3198 0
M  V30 3638 O 334.228 -0.840815 1.57457 0
M  V30 3639 C 331.328 -1.50902 3.0345 0
M  V30 3640 C 330.501 -1.02047 4.25329 0
M  V30 3641 C 329.56 -2.05142 4.84565 0
M  V30 3642 O 328.586 -1.63023 5.45355 0
M  V30 3643 N 329.788 -3.37987 4.71959 0
M  V30 3644 H 332.553 0.300767 2.98187 0
M  V30 3645 H 330.114 0.306598 1.5897 0
M  V30 3646 H 332.106 -2.19572 3.39956 0
M  V30 3647 H 330.676 -2.06705 2.34504 0
M  V30 3648 H 329.896 -0.159507 3.93877 0
M  V30 3649 H 331.184 -0.672061 5.04342 0
M  V30 3650 H 330.582 -3.74913 4.23623 0
M  V30 3651 H 329.139 -4.02443 5.12721 0
M  V30 3652 N 332.573 -1.56217 0.208337 0
M  V30 3653 C 333.822 -1.97124 -0.427204 0
M  V30 3654 C 334.135 -1.09859 -1.61835 0
M  V30 3655 O 335.341 -1.40606 -2.32255 0
M  V30 3656 C 333.797 -3.50633 -0.811442 0
M  V30 3657 C 333.405 -4.46582 0.35615 0
M  V30 3658 C 335.149 -4.00282 -1.41332 0
M  V30 3659 C 333.056 -5.91379 -0.0497852 0
M  V30 3660 H 331.986 -0.736086 -0.163381 0
M  V30 3661 H 334.637 -1.8099 0.302456 0
M  V30 3662 H 333.019 -3.62319 -1.59815 0
M  V30 3663 H 334.193 -4.46636 1.1337 0
M  V30 3664 H 332.508 -4.07202 0.870396 0
M  V30 3665 H 335.105 -5.0595 -1.72972 0
M  V30 3666 H 335.448 -3.45359 -2.32449 0
M  V30 3667 H 335.981 -3.91764 -0.690323 0
M  V30 3668 H 332.72 -6.50255 0.827529 0
M  V30 3669 H 332.24 -5.94549 -0.791926 0
M  V30 3670 H 333.919 -6.45209 -0.481042 0
M  V30 3671 N 334.051 0.0651679 -1.57465 0
M  V30 3672 C 335.014 1.06117 -2.03155 0
M  V30 3673 C 336.014 1.31204 -0.929632 0
M  V30 3674 O 337.204 1.26813 -1.19432 0
M  V30 3675 C 334.336 2.4032 -2.41783 0
M  V30 3676 H 335.529 0.667231 -2.92383 0
M  V30 3677 H 333.082 0.311075 -1.53173 0
M  V30 3678 H 333.817 2.84532 -1.55601 0
M  V30 3679 H 333.602 2.23451 -3.22199 0
M  V30 3680 H 335.092 3.11898 -2.77685 0
M  V30 3681 N 335.529 1.53961 0.336706 0
M  V30 3682 C 336.945 1.44378 0.680241 0
M  V30 3683 C 337.145 0.606034 1.9217 0
M  V30 3684 O 336.201 0.099688 2.52303 0
M  V30 3685 C 337.514 2.87945 0.8665 0
M  V30 3686 C 339.062 2.97763 0.964682 0
M  V30 3687 C 339.537 4.42453 1.18321 0
M  V30 3688 N 341.028 4.46008 1.25025 0
M  V30 3689 C 341.763 5.55102 1.43697 0
M  V30 3690 N 341.259 6.7419 1.59498 0
M  V30 3691 N 343.052 5.42727 1.463 0
M  V30 3692 H 335.203 2.06918 -0.479455 0
M  V30 3693 H 337.466 0.935634 -0.152619 0
M  V30 3694 H 337.172 3.51691 0.0256937 0
M  V30 3695 H 337.046 3.33293 1.76623 0
M  V30 3696 H 339.433 2.34153 1.796 0
M  V30 3697 H 339.514 2.55766 0.041708 0
M  V30 3698 H 339.158 5.06645 0.356788 0
M  V30 3699 H 339.088 4.82048 2.11985 0
M  V30 3700 H 341.579 3.60196 1.14312 0
M  V30 3701 H 341.892 7.53095 1.734 0
M  V30 3702 H 340.237 6.77123 1.56621 0
M  V30 3703 H 343.428 4.48647 1.33543 0
M  V30 3704 H 343.601 6.27806 1.6051 0
M  V30 3705 N 337.007 -0.598083 1.45811 0
M  V30 3706 C 338.255 -1.35413 1.50026 0
M  V30 3707 C 338.576 -1.94444 0.147177 0
M  V30 3708 O 337.846 -1.77701 -0.824571 0
M  V30 3709 H 336.426 -0.502727 0.552517 0
M  V30 3710 H 339.088 -0.701606 1.81834 0
M  V30 3711 H 338.184 -2.16871 2.2444 0
M  V30 3712 N 338.485 -1.33259 -0.841409 0
M  V30 3713 C 339.732 -1.24572 -1.5965 0
M  V30 3714 C 340.06 0.189137 -1.93578 0
M  V30 3715 O 339.315 1.14566 -1.5866 0
M  V30 3716 C 339.614 -2.06381 -2.9179 0
M  V30 3717 C 339.28 -3.556 -2.77235 0
M  V30 3718 C 337.942 -3.96282 -2.72973 0
M  V30 3719 C 340.294 -4.50433 -2.62221 0
M  V30 3720 C 337.622 -5.30017 -2.51592 0
M  V30 3721 C 339.974 -5.84327 -2.42374 0
M  V30 3722 C 338.638 -6.24194 -2.36512 0
M  V30 3723 H 337.908 -0.455842 -0.5842 0
M  V30 3724 H 340.555 -1.6482 -0.975016 0
M  V30 3725 H 338.86 -1.58903 -3.5813 0
M  V30 3726 H 340.557 -1.97019 -3.49263 0
M  V30 3727 H 337.147 -3.23298 -2.81384 0
M  V30 3728 H 341.331 -4.19914 -2.64549 0
M  V30 3729 H 336.587 -5.59947 -2.45499 0
M  V30 3730 H 340.761 -6.57414 -2.29739 0
M  V30 3731 H 338.388 -7.27759 -2.19706 0
M  V30 3732 N 339.963 1.05934 -1.16686 0
M  V30 3733 C 340.873 2.17014 -0.891183 0
M  V30 3734 C 341.889 1.73453 0.137907 0
M  V30 3735 O 343.065 2.01361 -0.039592 0
M  V30 3736 C 340.13 3.44384 -0.400099 0
M  V30 3737 C 339.191 4.02433 -1.49486 0
M  V30 3738 C 338.424 5.23723 -1.02711 0
M  V30 3739 O 338.647 5.7027 0.121716 0
M  V30 3740 O 337.581 5.7382 -1.81699 0
M  V30 3741 H 341.407 2.43113 -1.82015 0
M  V30 3742 H 338.992 1.15541 -0.947132 0
M  V30 3743 H 340.874 4.21189 -0.133392 0
M  V30 3744 H 339.549 3.19802 0.500817 0
M  V30 3745 H 338.456 3.27102 -1.81535 0
M  V30 3746 H 339.789 4.31317 -2.37121 0
M  V30 3747 N 341.441 0.965919 1.2453 0
M  V30 3748 C 342.404 0.499547 2.2369 0
M  V30 3749 C 343.404 -0.40294 1.5567 0
M  V30 3750 O 344.594 -0.19865 1.73064 0
M  V30 3751 C 341.726 -0.276792 3.39774 0
M  V30 3752 H 342.919 1.37613 2.66463 0
M  V30 3753 H 340.472 0.750324 1.37112 0
M  V30 3754 H 341.207 -1.17055 3.02438 0
M  V30 3755 H 340.992 0.370826 3.90343 0
M  V30 3756 H 342.482 -0.592175 4.1338 0
M  V30 3757 N 342.919 -1.39368 0.735821 0
M  V30 3758 C 343.849 -2.33234 0.111506 0
M  V30 3759 C 344.83 -1.53954 -0.723334 0
M  V30 3760 O 346.015 -1.82344 -0.668147 0
M  V30 3761 C 343.145 -3.38057 -0.795917 0
M  V30 3762 C 342.099 -4.2795 -0.065172 0
M  V30 3763 C 341.425 -5.23479 -1.08967 0
M  V30 3764 C 342.725 -5.10741 1.09273 0
M  V30 3765 H 344.419 -2.85692 0.895571 0
M  V30 3766 H 341.965 -1.37364 0.432109 0
M  V30 3767 H 343.918 -4.02675 -1.24221 0
M  V30 3768 H 342.642 -2.8404 -1.61211 0
M  V30 3769 H 341.301 -3.64813 0.361511 0
M  V30 3770 H 340.949 -4.65758 -1.89944 0
M  V30 3771 H 340.649 -5.84472 -0.605489 0
M  V30 3772 H 342.173 -5.90974 -1.53565 0
M  V30 3773 H 343.587 -5.68699 0.724841 0
M  V30 3774 H 341.984 -5.8088 1.50659 0
M  V30 3775 H 343.054 -4.45525 1.91404 0
M  V30 3776 N 344.397 -0.483516 -1.5 0
M  V30 3777 C 345.307 0.309172 -2.32554 0
M  V30 3778 C 346.323 0.984159 -1.43493 0
M  V30 3779 O 347.499 0.969399 -1.76535 0
M  V30 3780 C 344.564 1.36979 -3.18493 0
M  V30 3781 C 343.625 0.710095 -4.23387 0
M  V30 3782 C 342.858 1.72018 -5.05218 0
M  V30 3783 O 343.081 2.94813 -4.88305 0
M  V30 3784 O 342.015 1.28515 -5.8802 0
M  V30 3785 H 345.841 -0.366064 -3.01486 0
M  V30 3786 H 343.426 -0.24514 -1.47375 0
M  V30 3787 H 345.308 1.98385 -3.71781 0
M  V30 3788 H 343.983 2.02828 -2.52275 0
M  V30 3789 H 342.89 0.0567539 -3.74057 0
M  V30 3790 H 344.223 0.0943557 -4.9211 0
M  V30 3791 N 345.875 1.56104 -0.216619 0
M  V30 3792 C 346.838 2.18819 0.681962 0
M  V30 3793 C 347.838 1.14866 1.12528 0
M  V30 3794 O 349.028 1.40128 1.03488 0
M  V30 3795 C 346.16 2.80756 1.93362 0
M  V30 3796 H 347.353 2.99595 0.135254 0
M  V30 3797 H 344.906 1.56265 0.0330003 0
M  V30 3798 H 345.641 2.03837 2.52232 0
M  V30 3799 H 345.426 3.56876 1.62426 0
M  V30 3800 H 346.916 3.28844 2.57393 0
M  V30 3801 N 347.353 -0.0568162 1.57498 0
M  V30 3802 C 348.283 -1.06593 2.0775 0
M  V30 3803 C 349.264 -1.39448 0.974082 0
M  V30 3804 O 350.449 -1.48815 1.24771 0
M  V30 3805 C 347.579 -2.37509 2.5339 0
M  V30 3806 C 346.533 -2.1897 3.67745 0
M  V30 3807 C 345.859 -3.55402 3.99492 0
M  V30 3808 C 347.159 -1.59859 4.97235 0
M  V30 3809 H 348.853 -0.647706 2.9231 0
M  V30 3810 H 346.399 -0.310116 1.40621 0
M  V30 3811 H 348.352 -3.08409 2.87162 0
M  V30 3812 H 347.076 -2.8134 1.65878 0
M  V30 3813 H 345.735 -1.50508 3.3428 0
M  V30 3814 H 345.383 -3.9683 3.09088 0
M  V30 3815 H 345.083 -3.43831 4.76502 0
M  V30 3816 H 346.607 -4.27708 4.35773 0
M  V30 3817 H 348.021 -2.20642 5.29141 0
M  V30 3818 H 346.418 -1.58942 5.78669 0
M  V30 3819 H 347.488 -0.561506 4.81638 0
M  V30 3820 N 348.832 -1.54138 -0.328536 0
M  V30 3821 C 349.742 -1.86192 -1.42723 0
M  V30 3822 C 350.758 -0.753382 -1.56844 0
M  V30 3823 O 351.934 -1.04718 -1.72035 0
M  V30 3824 C 348.999 -2.07824 -2.77507 0
M  V30 3825 C 348.06 -3.31641 -2.72603 0
M  V30 3826 C 347.293 -3.52232 -4.00959 0
M  V30 3827 O 347.516 -2.7636 -4.9898 0
M  V30 3828 O 346.45 -4.45699 -4.0452 0
M  V30 3829 H 350.276 -2.79608 -1.18547 0
M  V30 3830 H 347.861 -1.3998 -0.522104 0
M  V30 3831 H 349.743 -2.23411 -3.57303 0
M  V30 3832 H 348.418 -1.17596 -3.01584 0
M  V30 3833 H 347.325 -3.21444 -1.91376 0
M  V30 3834 H 348.658 -4.2191 -2.53481 0
M  V30 3835 N 350.31 0.590341 -1.46126 0
M  V30 3836 C 351.22 1.72793 -1.58681 0
M  V30 3837 C 352.236 1.67516 -0.470566 0
M  V30 3838 O 353.412 1.87562 -0.733642 0
M  V30 3839 C 350.477 3.09287 -1.5666 0
M  V30 3840 C 349.538 3.25886 -2.79458 0
M  V30 3841 C 348.771 4.55869 -2.77524 0
M  V30 3842 O 348.994 5.3928 -1.85832 0
M  V30 3843 O 347.928 4.75552 -3.68964 0
M  V30 3844 H 351.754 1.65149 -2.54872 0
M  V30 3845 H 349.339 0.756486 -1.28832 0
M  V30 3846 H 351.221 3.90577 -1.58202 0
M  V30 3847 H 349.896 3.17385 -0.636271 0
M  V30 3848 H 348.803 2.44119 -2.83472 0
M  V30 3849 H 350.136 3.22675 -3.71674 0
M  V30 3850 N 351.788 1.33704 0.83433 0
M  V30 3851 C 352.751 1.24244 1.92603 0
M  V30 3852 C 353.751 0.160383 1.59998 0
M  V30 3853 O 354.941 0.412228 1.69252 0
M  V30 3854 C 352.073 0.91555 3.28376 0
M  V30 3855 H 353.266 2.21287 2.02416 0
M  V30 3856 H 350.819 1.17827 1.02696 0
M  V30 3857 H 351.554 -0.0521886 3.24258 0
M  V30 3858 H 351.339 1.69811 3.53422 0
M  V30 3859 H 352.829 0.874231 4.08347 0
M  V30 3860 N 353.266 -1.05314 1.17247 0
M  V30 3861 C 354.196 -2.1498 0.911362 0
M  V30 3862 C 355.177 -1.69471 -0.146169 0
M  V30 3863 O 356.362 -1.942 0.003812 0
M  V30 3864 C 353.492 -3.4472 0.422528 0
M  V30 3865 C 352.446 -4.03789 1.4191 0
M  V30 3866 C 351.772 -5.28858 0.788274 0
M  V30 3867 C 353.072 -4.41418 2.7919 0
M  V30 3868 H 354.766 -2.3708 1.82848 0
M  V30 3869 H 352.312 -1.13938 0.880569 0
M  V30 3870 H 354.265 -4.20787 0.227289 0
M  V30 3871 H 352.989 -3.22269 -0.530123 0
M  V30 3872 H 351.648 -3.2979 1.60106 0
M  V30 3873 H 351.296 -5.02709 -0.171173 0
M  V30 3874 H 350.996 -5.69338 1.45353 0
M  V30 3875 H 352.52 -6.07612 0.603282 0
M  V30 3876 H 353.934 -5.08524 2.64719 0
M  V30 3877 H 352.331 -4.92913 3.42282 0
M  V30 3878 H 353.401 -3.51819 3.33693 0
M  V30 3879 N 354.744 -0.972509 -1.24016 0
M  V30 3880 C 355.691 -0.505969 -2.25186 0
M  V30 3881 C 356.661 0.451009 -1.5986 0
M  V30 3882 O 357.846 0.360307 -1.87367 0
M  V30 3883 C 354.986 0.193089 -3.44559 0
M  V30 3884 C 354.099 -0.803222 -4.24467 0
M  V30 3885 C 353.234 -0.0797793 -5.3114 0
M  V30 3886 C 352.273 -1.06583 -6.02749 0
M  V30 3887 N 351.41 -0.372074 -7.01113 0
M  V30 3888 H 356.25 -1.37351 -2.64459 0
M  V30 3889 H 353.787 -0.688419 -1.29997 0
M  V30 3890 H 355.745 0.615125 -4.1264 0
M  V30 3891 H 354.375 1.02455 -3.06109 0
M  V30 3892 H 353.427 -1.34368 -3.55878 0
M  V30 3893 H 354.739 -1.55494 -4.73944 0
M  V30 3894 H 353.893 0.400015 -6.0538 0
M  V30 3895 H 352.632 0.704597 -4.82583 0
M  V30 3896 H 351.637 -1.55645 -5.27309 0
M  V30 3897 H 352.862 -1.85074 -6.53395 0
M  V30 3898 H 350.808 0.393238 -6.5482 0
M  V30 3899 H 350.725 -1.06258 -7.48495 0
M  V30 3900 H 351.993 0.0855932 -7.79453 0
M  V30 3901 N 356.222 1.38976 -0.743202 0
M  V30 3902 C 357.47 1.99948 -0.29417 0
M  V30 3903 C 357.791 1.59279 1.12495 0
M  V30 3904 O 357.061 0.844808 1.76748 0
M  V30 3905 H 355.641 0.739473 -0.105774 0
M  V30 3906 H 358.303 1.699 -0.954986 0
M  V30 3907 H 357.399 3.10142 -0.349056 0
M  V30 3908 N 357.7 0.491464 1.49741 0
M  V30 3909 C 359.111 0.0413169 1.86654 0
M  V30 3910 C 359.462 -1.36985 1.40462 0
M  V30 3911 O 358.587 -2.01917 0.778354 0
M  V30 3912 C 359.182 0.0682023 3.38731 0
M  V30 3913 C 357.741 -0.32656 3.74981 0
M  V30 3914 C 356.888 0.444888 2.73708 0
M  V30 3915 H 359.839 0.704733 1.42194 0
M  V30 3916 H 359.86 -0.729322 3.73445 0
M  V30 3917 H 359.372 1.09539 3.72321 0
M  V30 3918 H 357.473 -1.35734 3.46997 0
M  V30 3919 H 357.586 -0.013741 4.79098 0
M  V30 3920 H 355.95 -0.104062 2.54487 0
M  V30 3921 H 356.733 1.47197 3.10142 0
M  V30 3922 N 359.178 -1.55987 0.224894 0
M  V30 3923 C 360.406 -2.02784 -0.410665 0
M  V30 3924 C 360.821 -1.10464 -1.53112 0
M  V30 3925 O 360.178 -0.114871 -1.82138 0
M  V30 3926 C 360.229 -3.49087 -0.939165 0
M  V30 3927 O 359.95 -4.37887 0.136614 0
M  V30 3928 C 361.451 -4.11543 -1.64763 0
M  V30 3929 H 358.671 -0.663484 -0.100148 0
M  V30 3930 H 361.215 -2.01614 0.342326 0
M  V30 3931 H 359.37 -3.50861 -1.64242 0
M  V30 3932 H 359.784 -5.23849 -0.261155 0
M  V30 3933 H 361.258 -5.15673 -1.96939 0
M  V30 3934 H 361.735 -3.56736 -2.56195 0
M  V30 3935 H 362.341 -4.13629 -0.989503 0
M  V30 3936 N 360.656 0.0484629 -1.57525 0
M  V30 3937 C 361.933 0.777447 -1.79486 0
M  V30 3938 C 362.313 1.94597 -0.818251 0
M  V30 3939 O 361.661 2.28047 0.143767 0
M  V30 3940 C 361.871 1.22864 -3.26658 0
M  V30 3941 C 363.219 1.65251 -3.91123 0
M  V30 3942 O 364.243 1.32372 -3.3069 0
M  V30 3943 O 363.102 2.26207 -4.97486 0
M  V30 3944 H 360.196 0.374357 -0.737419 0
M  V30 3945 H 362.742 0.0267359 -1.69679 0
M  V30 3946 H 361.514 0.393589 -3.89316 0
M  V30 3947 H 361.137 2.03996 -3.41279 0
M  V30 3948 N 362.134 1.5431 0.320358 0
M  V30 3949 C 363.382 1.72327 1.05583 0
M  V30 3950 C 363.703 0.50149 1.88441 0
M  V30 3951 O 362.973 -0.48448 1.89815 0
M  V30 3952 H 361.553 0.635387 0.3928 0
M  V30 3953 H 364.215 1.91621 0.356019 0
M  V30 3954 H 363.311 2.60426 1.72003 0
M  V30 3955 N 363.613 -0.582584 1.46437 0
M  V30 3956 C 364.861 -1.33814 1.51453 0
M  V30 3957 C 365.182 -1.94277 0.167792 0
M  V30 3958 O 364.452 -1.78566 -0.805677 0
M  V30 3959 H 363.032 -0.496838 0.557818 0
M  V30 3960 H 365.694 -0.682281 1.82568 0
M  V30 3961 H 364.79 -2.14479 2.26728 0
M  V30 3962 N 365.091 -1.34144 -0.827227 0
M  V30 3963 C 366.023 -1.21206 -1.9453 0
M  V30 3964 C 367.036 -0.140176 -1.62195 0
M  V30 3965 O 368.225 -0.391647 -1.7415 0
M  V30 3966 C 365.325 -0.839141 -3.28347 0
M  V30 3967 C 364.498 -2.0051 -3.88734 0
M  V30 3968 C 363.557 -1.61128 -5.00923 0
M  V30 3969 O 362.583 -2.32726 -5.19449 0
M  V30 3970 N 363.785 -0.522958 -5.7814 0
M  V30 3971 H 366.55 -2.17525 -2.06162 0
M  V30 3972 H 364.111 -1.27043 -1.00358 0
M  V30 3973 H 366.103 -0.557556 -4.00841 0
M  V30 3974 H 364.673 0.0337293 -3.12582 0
M  V30 3975 H 363.893 -2.45166 -3.08686 0
M  V30 3976 H 365.181 -2.78498 -4.25812 0
M  V30 3977 H 364.579 0.0723518 -5.65654 0
M  V30 3978 H 363.136 -0.301089 -6.51104 0
M  V30 3979 N 366.569 1.04691 -1.17803 0
M  V30 3980 C 367.794 1.81984 -0.994813 0
M  V30 3981 C 368.219 1.82586 0.452112 0
M  V30 3982 O 367.577 1.23854 1.324 0
M  V30 3983 C 367.625 3.2575 -1.54659 0
M  V30 3984 O 366.729 4.05267 -0.763728 0
M  V30 3985 H 366.07 0.562483 -0.352857 0
M  V30 3986 H 368.6 1.3189 -1.56417 0
M  V30 3987 H 368.61 3.76541 -1.57102 0
M  V30 3988 H 367.285 3.24627 -2.59981 0
M  V30 3989 H 365.862 3.63972 -0.811108 0
M  V30 3990 N 368.047 0.979072 1.23499 0
M  V30 3991 C 368.977 0.537606 2.27227 0
M  V30 3992 C 369.958 -0.428539 1.64613 0
M  V30 3993 O 371.143 -0.322191 1.91509 0
M  V30 3994 C 368.273 -0.162052 3.46922 0
M  V30 3995 C 367.227 0.721242 4.21879 0
M  V30 3996 C 366.553 -0.110555 5.34586 0
M  V30 3997 C 367.853 2.01141 4.82016 0
M  V30 3998 H 369.547 1.40462 2.64406 0
M  V30 3999 H 367.093 0.67684 1.27102 0
M  V30 4000 H 369.046 -0.482192 4.18632 0
M  V30 4001 H 367.77 -1.06351 3.08799 0
M  V30 4002 H 366.429 1.02482 3.51984 0
M  V30 4003 H 366.077 -1.0125 4.92704 0
M  V30 4004 H 365.777 0.477325 5.85658 0
M  V30 4005 H 367.301 -0.425107 6.09118 0
M  V30 4006 H 368.715 1.75612 5.45741 0
M  V30 4007 H 367.112 2.54695 5.43369 0
M  V30 4008 H 368.182 2.69909 4.02836 0
M  V30 4009 N 369.525 -1.3858 0.750561 0
M  V30 4010 C 370.435 -2.34278 0.122825 0
M  V30 4011 C 371.451 -1.59116 -0.704131 0
M  V30 4012 O 372.627 -1.91326 -0.628987 0
M  V30 4013 C 369.692 -3.38221 -0.762086 0
M  V30 4014 C 368.753 -4.29227 0.078896 0
M  V30 4015 C 367.986 -5.28205 -0.763874 0
M  V30 4016 O 368.209 -5.34112 -2.00201 0
M  V30 4017 O 367.143 -6.01618 -0.18428 0
M  V30 4018 H 370.969 -2.89649 0.913088 0
M  V30 4019 H 368.554 -1.40374 0.511417 0
M  V30 4020 H 370.436 -4.01872 -1.26793 0
M  V30 4021 H 369.111 -2.85211 -1.5309 0
M  V30 4022 H 368.018 -3.68747 0.630621 0
M  V30 4023 H 369.351 -4.85484 0.810289 0
M  V30 4024 N 371.003 -0.499398 -1.49478 0
M  V30 4025 C 371.913 0.284489 -2.32869 0
M  V30 4026 C 372.929 0.968885 -1.44529 0
M  V30 4027 O 374.105 0.95062 -1.77553 0
M  V30 4028 C 371.17 1.33594 -3.19928 0
M  V30 4029 C 370.231 0.665149 -4.24116 0
M  V30 4030 C 369.464 1.6665 -5.07014 0
M  V30 4031 O 369.687 2.89618 -4.91404 0
M  V30 4032 O 368.621 1.22271 -5.8935 0
M  V30 4033 H 372.447 -0.39802 -3.01081 0
M  V30 4034 H 370.032 -0.260758 -1.47107 0
M  V30 4035 H 371.914 1.94431 -3.73864 0
M  V30 4036 H 370.589 2.0014 -2.54412 0
M  V30 4037 H 369.496 0.0170769 -3.74096 0
M  V30 4038 H 370.829 0.0421555 -4.92182 0
M  V30 4039 N 372.481 1.55866 -0.233164 0
M  V30 4040 C 373.411 2.23783 0.666599 0
M  V30 4041 C 374.392 1.21343 1.19205 0
M  V30 4042 O 375.577 1.4996 1.23392 0
M  V30 4043 C 372.707 2.92671 1.86978 0
M  V30 4044 C 371.661 4.01682 1.47768 0
M  V30 4045 C 370.987 4.57926 2.76058 0
M  V30 4046 C 372.287 5.18126 0.658993 0
M  V30 4047 H 373.981 2.99232 0.100306 0
M  V30 4048 H 371.527 1.43924 0.046804 0
M  V30 4049 H 373.48 3.3888 2.50476 0
M  V30 4050 H 372.204 2.14688 2.46123 0
M  V30 4051 H 370.863 3.56222 0.866106 0
M  V30 4052 H 370.511 3.76659 3.33372 0
M  V30 4053 H 370.211 5.31505 2.50552 0
M  V30 4054 H 371.735 5.06859 3.40479 0
M  V30 4055 H 373.149 5.60644 1.19795 0
M  V30 4056 H 371.546 5.98009 0.500552 0
M  V30 4057 H 372.616 4.83763 -0.331856 0
M  V30 4058 N 373.959 -0.0401083 1.57549 0
M  V30 4059 C 375.184 -0.748931 1.93406 0
M  V30 4060 C 375.609 -1.68686 0.832274 0
M  V30 4061 O 374.967 -1.80047 -0.212818 0
M  V30 4062 C 375.015 -1.4916 3.28304 0
M  V30 4063 O 374.119 -2.6042 3.19774 0
M  V30 4064 H 373.46 -0.202212 0.63246 0
M  V30 4065 H 375.99 0.00112086 2.046 0
M  V30 4066 H 376 -1.86395 3.62934 0
M  V30 4067 H 374.675 -0.80364 4.08062 0
M  V30 4068 H 373.252 -2.25808 2.96758 0
M  V30 4069 N 375.437 -1.54477 -0.31217 0
M  V30 4070 C 376.662 -1.77526 -1.07235 0
M  V30 4071 C 377.087 -0.527775 -1.80544 0
M  V30 4072 O 376.445 0.52121 -1.73646 0
M  V30 4073 C 376.493 -2.97535 -2.03728 0
M  V30 4074 O 375.597 -2.69878 -3.11833 0
M  V30 4075 H 374.938 -0.58792 -0.30862 0
M  V30 4076 H 377.468 -2.01532 -0.352993 0
M  V30 4077 H 377.478 -3.25198 -2.46395 0
M  V30 4078 H 376.153 -3.87996 -1.49774 0
M  V30 4079 H 374.73 -2.53199 -2.7376 0
M  V30 4080 N 376.915 0.57481 -1.46744 0
M  V30 4081 C 377.865 1.67838 -1.54319 0
M  V30 4082 C 378.849 1.55759 -0.40346 0
M  V30 4083 O 380.041 1.6454 -0.652347 0
M  V30 4084 C 377.17 3.06624 -1.5439 0
M  V30 4085 C 376.256 3.23971 -2.73685 0
M  V30 4086 N 376.647 3.11447 -3.9854 0
M  V30 4087 C 374.945 3.5493 -2.70075 0
M  V30 4088 C 375.646 3.31011 -4.78337 0
M  V30 4089 N 374.622 3.56533 -4.10348 0
M  V30 4090 H 378.424 1.56698 -2.48642 0
M  V30 4091 H 375.938 0.779071 -1.42493 0
M  V30 4092 H 377.935 3.85839 -1.57905 0
M  V30 4093 H 376.595 3.1889 -0.611493 0
M  V30 4094 H 377.606 2.89145 -4.29669 0
M  V30 4095 H 374.283 3.73832 -1.85893 0
M  V30 4096 H 375.673 3.26445 -5.87268 0
M  V30 4097 N 378.394 1.34581 0.820102 0
M  V30 4098 C 379.641 1.27096 1.57648 0
M  V30 4099 C 379.969 -0.158317 1.93855 0
M  V30 4100 O 379.224 -1.12028 1.60463 0
M  V30 4101 C 379.523 2.10997 2.8847 0
M  V30 4102 C 379.189 3.59966 2.71543 0
M  V30 4103 C 377.851 4.00575 2.66634 0
M  V30 4104 C 380.203 4.54548 2.55021 0
M  V30 4105 C 377.531 5.33953 2.43128 0
M  V30 4106 C 379.883 5.88109 2.33047 0
M  V30 4107 C 378.547 6.27878 2.26552 0
M  V30 4108 H 377.817 0.465078 0.576874 0
M  V30 4109 H 380.464 1.6635 0.948671 0
M  V30 4110 H 378.769 1.6458 3.55557 0
M  V30 4111 H 380.466 2.0255 3.46084 0
M  V30 4112 H 377.056 3.27733 2.76205 0
M  V30 4113 H 381.24 4.24069 2.57835 0
M  V30 4114 H 376.496 5.63781 2.3656 0
M  V30 4115 H 380.67 6.60985 2.19251 0
M  V30 4116 H 378.297 7.31162 2.081 0
M  V30 4117 N 379.872 -1.04064 1.18357 0
M  V30 4118 C 381.102 -1.80654 1.00238 0
M  V30 4119 C 381.51 -1.83713 -0.452362 0
M  V30 4120 O 380.853 -1.27135 -1.32599 0
M  V30 4121 C 380.915 -3.27582 1.48088 0
M  V30 4122 C 380.579 -3.48184 2.96002 0
M  V30 4123 C 381.576 -3.39372 3.93856 0
M  V30 4124 C 379.261 -3.7478 3.34433 0
M  V30 4125 C 381.255 -3.5686 5.28138 0
M  V30 4126 C 378.942 -3.91915 4.68877 0
M  V30 4127 C 379.94 -3.82956 5.65539 0
M  V30 4128 O 379.628 -3.996 6.97549 0
M  V30 4129 H 379.36 -0.575751 0.354241 0
M  V30 4130 H 381.914 -1.32044 1.57333 0
M  V30 4131 H 380.144 -3.77161 0.853588 0
M  V30 4132 H 381.833 -3.8573 1.2636 0
M  V30 4133 H 382.599 -3.18789 3.65511 0
M  V30 4134 H 378.478 -3.80852 2.59756 0
M  V30 4135 H 382.022 -3.49783 6.03571 0
M  V30 4136 H 377.919 -4.11992 4.96923 0
M  V30 4137 H 378.687 -4.1676 7.04452 0
M  V30 4138 N 381.35 -0.985608 -1.22978 0
M  V30 4139 C 382.578 -0.675582 -1.95559 0
M  V30 4140 C 382.993 0.758413 -1.72897 0
M  V30 4141 O 382.35 1.51094 -1.02357 0
M  V30 4142 C 382.401 -0.96293 -3.48439 0
M  V30 4143 O 382.122 -2.34057 -3.70336 0
M  V30 4144 C 383.623 -0.669585 -4.38214 0
M  V30 4145 H 380.843 -0.250523 -0.622478 0
M  V30 4146 H 383.387 -1.3184 -1.56328 0
M  V30 4147 H 381.542 -0.366033 -3.85667 0
M  V30 4148 H 381.956 -2.43424 -4.64591 0
M  V30 4149 H 383.43 -0.920967 -5.44263 0
M  V30 4150 H 383.907 0.396383 -4.37408 0
M  V30 4151 H 384.513 -1.2472 -4.06602 0
M  V30 4152 N 382.828 1.3818 -0.7579 0
M  V30 4153 C 384.074 2.00316 -0.316453 0
M  V30 4154 C 384.407 1.60026 1.10025 0
M  V30 4155 O 383.682 0.839835 1.75434 0
M  V30 4156 C 383.965 3.57349 -0.444245 0
M  V30 4157 C 383.818 4.07591 -1.90236 0
M  V30 4158 C 385.137 4.3981 0.1598 0
M  V30 4159 H 382.256 0.727741 -0.116459 0
M  V30 4160 H 384.898 1.6406 -0.958352 0
M  V30 4161 H 383.048 3.88365 0.102233 0
M  V30 4162 H 384.72 3.87199 -2.50748 0
M  V30 4163 H 382.963 3.60297 -2.41595 0
M  V30 4164 H 383.634 5.16677 -1.94291 0
M  V30 4165 H 386.11 4.14971 -0.306314 0
M  V30 4166 H 384.986 5.48885 0.0401675 0
M  V30 4167 H 385.247 4.24102 1.24859 0
M  V30 4168 N 384.306 0.507319 1.49211 0
M  V30 4169 C 385.555 -0.0368315 2.01666 0
M  V30 4170 C 385.868 -1.37459 1.39156 0
M  V30 4171 O 387.074 -2.00579 1.82976 0
M  V30 4172 C 385.53 -0.116089 3.59713 0
M  V30 4173 C 385.138 1.2154 4.31198 0
M  V30 4174 C 386.882 -0.610268 4.2009 0
M  V30 4175 C 384.789 1.09796 5.81119 0
M  V30 4176 H 383.719 -0.0175376 0.753796 0
M  V30 4177 H 386.37 0.647691 1.71689 0
M  V30 4178 H 384.752 -0.8652 3.86433 0
M  V30 4179 H 385.926 1.9783 4.16173 0
M  V30 4180 H 384.241 1.64352 3.82593 0
M  V30 4181 H 386.838 -0.715742 5.29888 0
M  V30 4182 H 387.181 -1.61064 3.8388 0
M  V30 4183 H 387.714 0.0824916 3.97714 0
M  V30 4184 H 384.453 2.0728 6.21864 0
M  V30 4185 H 383.973 0.376058 5.9862 0
M  V30 4186 H 385.652 0.779281 6.4229 0
M  V30 4187 N 385.784 -1.5574 0.241426 0
M  V30 4188 C 387.195 -1.84842 -0.262755 0
M  V30 4189 C 387.546 -1.16317 -1.58003 0
M  V30 4190 O 386.671 -0.439653 -2.11887 0
M  V30 4191 C 387.266 -3.35332 -0.483523 0
M  V30 4192 C 385.825 -3.6468 -0.931977 0
M  V30 4193 C 384.972 -2.77299 -0.0061151 0
M  V30 4194 H 387.923 -1.51761 0.464129 0
M  V30 4195 H 387.944 -3.56615 -1.32688 0
M  V30 4196 H 387.456 -3.85178 0.47537 0
M  V30 4197 H 385.557 -3.20307 -1.90353 0
M  V30 4198 H 385.67 -4.72498 -0.792628 0
M  V30 4199 H 384.034 -2.49408 -0.516503 0
M  V30 4200 H 384.817 -3.2995 0.948052 0
M  V30 4201 N 387.262 0.0317525 -1.57568 0
M  V30 4202 C 388.212 1.04101 -2.02847 0
M  V30 4203 C 389.196 1.3219 -0.917317 0
M  V30 4204 O 390.388 1.31819 -1.18121 0
M  V30 4205 C 387.517 2.34295 -2.5092 0
M  V30 4206 C 386.603 2.09308 -3.68851 0
M  V30 4207 N 386.994 1.5437 -4.81667 0
M  V30 4208 C 385.292 2.39604 -3.76172 0
M  V30 4209 C 385.993 1.45126 -5.63306 0
M  V30 4210 N 384.969 1.92589 -5.08341 0
M  V30 4211 H 388.771 0.610217 -2.87495 0
M  V30 4212 H 386.285 0.238108 -1.60645 0
M  V30 4213 H 388.282 3.07404 -2.81617 0
M  V30 4214 H 386.942 2.78055 -1.67677 0
M  V30 4215 H 387.953 1.22678 -5.03161 0
M  V30 4216 H 384.63 2.86457 -3.03724 0
M  V30 4217 H 386.02 1.03163 -6.63933 0
M  V30 4218 N 388.74 1.54641 0.303973 0
M  V30 4219 C 389.688 1.86137 1.39484 0
M  V30 4220 C 390.682 0.734854 1.52631 0
M  V30 4221 O 391.888 0.918803 1.54784 0
M  V30 4222 H 388.263 0.590324 0.465856 0
M  V30 4223 H 390.234 2.77324 1.10154 0
M  V30 4224 C 388.983 2.12274 2.75382 0
M  V30 4225 H 388.306 2.98429 2.66046 0
M  V30 4226 H 389.746 2.38254 3.5073 0
M  V30 4227 C 388.205 0.920365 3.24085 0
M  V30 4228 O 388.735 0.139377 4.01458 0
M  V30 4229 N 386.941 0.726566 2.81371 0
M  V30 4230 H 386.488 1.36332 2.18567 0
M  V30 4231 H 386.446 -0.0763799 3.14307 0
M  V30 4232 N 390.218 -0.567019 1.47046 0
M  V30 4233 C 391.465 -1.32462 1.53167 0
M  V30 4234 C 391.793 -1.93571 0.189841 0
M  V30 4235 O 391.048 -1.77865 -0.816243 0
M  V30 4236 C 391.347 -2.4623 2.59047 0
M  V30 4237 C 391.013 -2.03014 4.02612 0
M  V30 4238 C 389.675 -1.90944 4.41694 0
M  V30 4239 C 392.027 -1.69895 4.92732 0
M  V30 4240 C 389.355 -1.44035 5.68745 0
M  V30 4241 C 391.707 -1.2446 6.20236 0
M  V30 4242 C 390.371 -1.10979 6.5821 0
M  V30 4243 H 389.641 -0.484713 0.560477 0
M  V30 4244 H 392.288 -0.636888 1.80599 0
M  V30 4245 H 390.593 -3.20517 2.25335 0
M  V30 4246 H 392.29 -3.04427 2.61008 0
M  V30 4247 H 388.88 -2.13348 3.71726 0
M  V30 4248 H 393.064 -1.78098 4.63244 0
M  V30 4249 H 388.32 -1.32254 5.96925 0
M  V30 4250 H 392.494 -0.978924 6.89485 0
M  V30 4251 H 390.121 -0.744078 7.5655 0
M  V30 4252 N 391.696 -1.35014 -0.812953 0
M  V30 4253 C 392.944 -1.27678 -1.56661 0
M  V30 4254 C 393.265 0.150359 -1.94419 0
M  V30 4255 O 392.535 1.08532 -1.63088 0
M  V30 4256 H 391.115 -0.469602 -0.580933 0
M  V30 4257 H 393.777 -1.69043 -0.970076 0
M  V30 4258 H 392.873 -1.88833 -2.48492 0
M  V30 4259 N 393.175 1.03435 -1.18907 0
M  V30 4260 C 394.125 2.09924 -0.889706 0
M  V30 4261 C 395.109 1.60261 0.143216 0
M  V30 4262 O 396.301 1.76892 -0.0617122 0
M  V30 4263 C 393.43 3.40669 -0.424168 0
M  V30 4264 C 392.516 3.97082 -1.48952 0
M  V30 4265 N 392.907 4.27227 -2.70759 0
M  V30 4266 C 391.205 4.25029 -1.35152 0
M  V30 4267 C 391.906 4.7246 -3.39347 0
M  V30 4268 N 390.882 4.7366 -2.66735 0
M  V30 4269 H 394.684 2.31116 -1.81555 0
M  V30 4270 H 392.198 1.21246 -1.08042 0
M  V30 4271 H 394.195 4.16461 -0.191176 0
M  V30 4272 H 392.855 3.20901 0.495263 0
M  V30 4273 H 393.866 4.16678 -3.0757 0
M  V30 4274 H 390.543 4.14554 -0.495126 0
M  V30 4275 H 391.933 5.04751 -4.43481 0
M  V30 4276 N 394.653 0.992116 1.22453 0
M  V30 4277 C 395.878 0.685644 1.95739 0
M  V30 4278 C 396.303 -0.743 1.72804 0
M  V30 4279 O 395.661 -1.50778 1.00676 0
M  V30 4280 C 395.709 0.996293 3.46564 0
M  V30 4281 O 394.813 0.0945512 4.12292 0
M  V30 4282 H 394.154 0.256694 0.612376 0
M  V30 4283 H 396.684 1.32888 1.5557 0
M  V30 4284 H 396.694 0.93781 3.97076 0
M  V30 4285 H 395.369 2.03733 3.62582 0
M  V30 4286 H 393.946 0.208451 3.72317 0
M  V30 4287 N 396.131 -1.37776 0.765217 0
M  V30 4288 C 397.063 -2.28958 0.105361 0
M  V30 4289 C 398.076 -1.48316 -0.67128 0
M  V30 4290 O 399.265 -1.71046 -0.51045 0
M  V30 4291 C 396.365 -3.27421 -0.874569 0
M  V30 4292 C 395.538 -4.37132 -0.153123 0
M  V30 4293 C 394.597 -5.1571 -1.04547 0
M  V30 4294 O 393.623 -5.66896 -0.511672 0
M  V30 4295 N 394.825 -5.29808 -2.37243 0
M  V30 4296 H 397.59 -2.86227 0.888495 0
M  V30 4297 H 395.151 -1.49682 0.617 0
M  V30 4298 H 397.143 -3.7687 -1.47483 0
M  V30 4299 H 395.713 -2.70967 -1.55871 0
M  V30 4300 H 394.933 -3.89166 0.627975 0
M  V30 4301 H 396.221 -5.07625 0.345643 0
M  V30 4302 H 395.619 -4.89793 -2.83054 0
M  V30 4303 H 394.176 -5.82589 -2.9229 0
M  V30 4304 N 397.609 -0.515225 -1.4894 0
M  V30 4305 C 399.02 -0.0710067 -1.86565 0
M  V30 4306 C 399.371 1.34733 -1.42623 0
M  V30 4307 O 398.496 2.00653 -0.810379 0
M  V30 4308 C 399.091 -0.122083 -3.3858 0
M  V30 4309 C 397.65 0.266863 -3.75453 0
M  V30 4310 C 396.797 -0.488376 -2.72966 0
M  V30 4311 H 399.748 -0.727266 -1.41055 0
M  V30 4312 H 399.769 0.669818 -3.74558 0
M  V30 4313 H 399.281 -1.15448 -3.70531 0
M  V30 4314 H 397.382 1.30196 -3.49113 0
M  V30 4315 H 397.495 -0.0624811 -4.79059 0
M  V30 4316 H 395.859 0.0635622 -2.54621 0
M  V30 4317 H 396.642 -1.52113 -3.07761 0
M  V30 4318 N 399.087 1.5561 -0.249682 0
M  V30 4319 C 400.498 1.84979 0.252949 0
M  V30 4320 C 400.849 1.17153 1.57384 0
M  V30 4321 O 399.974 0.450884 2.11651 0
M  V30 4322 C 400.569 3.35584 0.465732 0
M  V30 4323 C 399.128 3.65169 0.912624 0
M  V30 4324 C 398.275 2.77299 -0.00859085 0
M  V30 4325 H 401.226 1.51513 -0.47217 0
M  V30 4326 H 401.247 3.57313 1.30795 0
M  V30 4327 H 400.759 3.8492 -0.49579 0
M  V30 4328 H 398.86 3.21312 1.88652 0
M  V30 4329 H 398.973 4.72912 0.767559 0
M  V30 4330 H 397.337 2.49678 0.50327 0
M  V30 4331 H 398.12 3.29442 -0.965537 0
M  V30 4332 N 400.565 -0.0233959 1.57583 0
M  V30 4333 C 401.976 -0.56927 1.77809 0
M  V30 4334 C 402.327 -1.75284 0.881472 0
M  V30 4335 O 401.452 -2.1626 0.0777805 0
M  V30 4336 C 402.047 -1.03949 3.22459 0
M  V30 4337 C 400.606 -1.53084 3.43864 0
M  V30 4338 C 399.753 -0.471454 2.73263 0
M  V30 4339 H 402.704 0.202825 1.57399 0
M  V30 4340 H 402.725 -1.90661 3.29285 0
M  V30 4341 H 402.237 -0.177865 3.87692 0
M  V30 4342 H 400.338 -2.41414 2.83814 0
M  V30 4343 H 400.451 -1.57443 4.52491 0
M  V30 4344 H 398.815 -0.927788 2.37201 0
M  V30 4345 H 399.598 0.380808 3.41181 0
M  V30 4346 N 402.043 -1.548 -0.295768 0
M  V30 4347 C 403.292 -1.73538 -1.02798 0
M  V30 4348 C 403.605 -0.531159 -1.8825 0
M  V30 4349 O 404.811 -0.600458 -2.64777 0
M  V30 4350 C 403.267 -3.07051 -1.87744 0
M  V30 4351 C 402.875 -4.34968 -1.07269 0
M  V30 4352 C 404.619 -3.35146 -2.60533 0
M  V30 4353 C 402.526 -5.5953 -1.91521 0
M  V30 4354 H 401.456 -0.646794 -0.387522 0
M  V30 4355 H 404.107 -1.81278 -0.284718 0
M  V30 4356 H 402.489 -2.93289 -2.66078 0
M  V30 4357 H 403.663 -4.5958 -0.335117 0
M  V30 4358 H 401.978 -4.13847 -0.460384 0
M  V30 4359 H 404.575 -4.2541 -3.23929 0
M  V30 4360 H 404.918 -2.54255 -3.29636 0
M  V30 4361 H 405.451 -3.49902 -1.89244 0
M  V30 4362 H 402.19 -6.43103 -1.26878 0
M  V30 4363 H 401.71 -5.39096 -2.62937 0
M  V30 4364 H 403.389 -5.96982 -2.49442 0
M  V30 4365 N 403.521 0.559213 -1.47345 0
M  V30 4366 C 404.469 1.68747 -1.60085 0
M  V30 4367 C 405.463 1.628 -0.46825 0
M  V30 4368 O 406.669 1.68009 -0.645977 0
M  V30 4369 H 403.044 0.558329 -0.503759 0
M  V30 4370 H 405.015 1.55138 -2.54902 0
M  V30 4371 C 403.764 3.07103 -1.63042 0
M  V30 4372 H 403.087 3.12361 -2.49541 0
M  V30 4373 H 404.527 3.85743 -1.76006 0
M  V30 4374 C 402.986 3.34935 -0.363357 0
M  V30 4375 O 403.516 3.98102 0.536416 0
M  V30 4376 N 401.722 2.89574 -0.244 0
M  V30 4377 H 401.269 2.38348 -0.977133 0
M  V30 4378 H 401.227 3.08566 0.602836 0
M  V30 4379 N 404.999 1.35443 0.805782 0
M  V30 4380 C 406.224 1.32037 1.59941 0
M  V30 4381 C 406.649 -0.0994215 1.87837 0
M  V30 4382 O 406.007 -1.06648 1.46615 0
M  V30 4383 C 406.055 2.13354 2.90711 0
M  V30 4384 O 405.159 1.5148 3.83572 0
M  V30 4385 H 404.5 0.452666 0.485787 0
M  V30 4386 H 407.03 1.78496 1.00002 0
M  V30 4387 H 407.04 2.25338 3.40128 0
M  V30 4388 H 405.715 3.16572 2.69732 0
M  V30 4389 H 404.292 1.4834 3.42125 0
M  V30 4390 N 406.477 -1.02803 1.19454 0
M  V30 4391 C 407.888 -1.57667 0.999899 0
M  V30 4392 C 408.239 -1.91041 -0.446956 0
M  V30 4393 O 407.364 -1.70978 -1.32648 0
M  V30 4394 C 407.959 -2.86477 1.80877 0
M  V30 4395 C 406.518 -3.37911 1.65811 0
M  V30 4396 C 405.665 -2.11343 1.79526 0
M  V30 4397 H 408.616 -0.853214 1.33813 0
M  V30 4398 H 408.637 -3.57408 1.30536 0
M  V30 4399 H 408.149 -2.62155 2.86175 0
M  V30 4400 H 406.25 -3.67218 0.63102 0
M  V30 4401 H 406.363 -4.10885 2.46395 0
M  V30 4402 H 404.727 -2.23254 1.22596 0
M  V30 4403 H 405.51 -1.89461 2.86285 0
M  V30 4404 N 407.956 -0.998596 -1.21925 0
M  V30 4405 C 408.866 -0.562736 -2.27751 0
M  V30 4406 C 409.882 0.391203 -1.69545 0
M  V30 4407 O 411.058 0.256625 -1.99758 0
M  V30 4408 C 408.123 0.11012 -3.46525 0
M  V30 4409 C 407.184 -0.887495 -4.20026 0
M  V30 4410 C 406.417 -0.246654 -5.3313 0
M  V30 4411 O 406.64 0.958088 -5.62296 0
M  V30 4412 O 405.574 -0.954374 -5.94286 0
M  V30 4413 H 409.4 -1.44329 -2.67213 0
M  V30 4414 H 406.985 -0.767135 -1.28201 0
M  V30 4415 H 408.867 0.486756 -4.18579 0
M  V30 4416 H 407.542 0.965154 -3.08976 0
M  V30 4417 H 406.449 -1.31517 -3.5022 0
M  V30 4418 H 407.782 -1.71191 -4.6147 0
M  V30 4419 N 409.434 1.37368 -0.772513 0
M  V30 4420 C 410.364 2.32856 -0.173304 0
M  V30 4421 C 411.345 1.55818 0.682262 0
M  V30 4422 O 412.53 1.84052 0.619566 0
M  V30 4423 C 409.66 3.40048 0.706007 0
M  V30 4424 C 408.614 4.27973 -0.0483144 0
M  V30 4425 C 407.94 5.26184 0.950491 0
M  V30 4426 C 409.24 5.07665 -1.22776 0
M  V30 4427 H 410.934 2.83217 -0.971002 0
M  V30 4428 H 408.48 1.3617 -0.468377 0
M  V30 4429 H 410.433 4.05827 1.13501 0
M  V30 4430 H 409.157 2.88214 1.53623 0
M  V30 4431 H 407.816 3.63726 -0.458107 0
M  V30 4432 H 407.464 4.7063 1.77529 0
M  V30 4433 H 407.164 5.85872 0.450314 0
M  V30 4434 H 408.688 5.94838 1.37842 0
M  V30 4435 H 410.102 5.66578 -0.875366 0
M  V30 4436 H 408.499 5.76681 -1.66007 0
M  V30 4437 H 409.569 4.40294 -2.03149 0
M  V30 4438 N 410.912 0.523116 1.48665 0
M  V30 4439 C 411.842 -0.23231 2.32342 0
M  V30 4440 C 412.823 -0.941637 1.41659 0
M  V30 4441 O 414.008 -0.928751 1.70552 0
M  V30 4442 C 411.138 -1.28387 3.22698 0
M  V30 4443 C 410.092 -0.693098 4.22351 0
M  V30 4444 C 409.418 -1.8468 5.01794 0
M  V30 4445 C 410.718 0.33063 5.21252 0
M  V30 4446 H 412.412 0.466192 2.95748 0
M  V30 4447 H 409.958 0.225643 1.42221 0
M  V30 4448 H 411.911 -1.82024 3.80059 0
M  V30 4449 H 410.635 -2.01186 2.57278 0
M  V30 4450 H 409.294 -0.178299 3.66166 0
M  V30 4451 H 408.942 -2.56301 4.32804 0
M  V30 4452 H 408.642 -1.45747 5.69238 0
M  V30 4453 H 410.166 -2.38709 5.62006 0
M  V30 4454 H 411.58 -0.118407 5.73178 0
M  V30 4455 H 409.977 0.636974 5.9671 0
M  V30 4456 H 411.047 1.23883 4.68808 0
M  V30 4457 N 412.39 -1.55475 0.257931 0
M  V30 4458 C 413.322 -2.19192 -0.669881 0
M  V30 4459 C 414.335 -1.17148 -1.1305 0
M  V30 4460 O 415.524 -1.43959 -1.05537 0
M  V30 4461 C 412.624 -2.79016 -1.92363 0
M  V30 4462 C 411.797 -4.06586 -1.61265 0
M  V30 4463 C 410.856 -4.50622 -2.7171 0
M  V30 4464 O 409.882 -5.16765 -2.38627 0
M  V30 4465 N 411.084 -4.19325 -4.01431 0
M  V30 4466 H 413.849 -2.99441 -0.124635 0
M  V30 4467 H 411.41 -1.6171 0.0783311 0
M  V30 4468 H 413.402 -3.05427 -2.65511 0
M  V30 4469 H 411.972 -2.0286 -2.37837 0
M  V30 4470 H 411.192 -3.87646 -0.715811 0
M  V30 4471 H 412.48 -4.89737 -1.37967 0
M  V30 4472 H 411.878 -3.66247 -4.31138 0
M  V30 4473 H 410.435 -4.50547 -4.7101 0
M  V30 4474 N 413.868 0.0150385 -1.57593 0
M  V30 4475 C 414.831 0.995996 -2.06428 0
M  V30 4476 C 415.831 1.2818 -0.970903 0
M  V30 4477 O 417.021 1.22949 -1.23406 0
M  V30 4478 C 414.153 2.32506 -2.49307 0
M  V30 4479 H 415.346 0.573873 -2.94358 0
M  V30 4480 H 412.899 0.262186 -1.54085 0
M  V30 4481 H 413.634 2.79438 -1.64575 0
M  V30 4482 H 413.419 2.13087 -3.29145 0
M  V30 4483 H 414.909 3.02906 -2.87468 0
M  V30 4484 N 415.346 1.54954 0.287554 0
M  V30 4485 C 416.293 1.86834 1.35505 0
M  V30 4486 C 417.263 0.718452 1.49758 0
M  V30 4487 O 418.448 0.968358 1.644 0
M  V30 4488 C 415.588 2.13303 2.71286 0
M  V30 4489 C 414.701 3.40883 2.65373 0
M  V30 4490 C 413.836 3.57125 3.93236 0
M  V30 4491 C 412.875 4.78449 3.81776 0
M  V30 4492 N 412.012 4.91426 5.01443 0
M  V30 4493 H 416.852 2.77889 1.07619 0
M  V30 4494 H 414.389 1.37593 0.520241 0
M  V30 4495 H 416.347 2.26646 3.50267 0
M  V30 4496 H 414.977 1.25499 2.97405 0
M  V30 4497 H 414.029 3.36088 1.78182 0
M  V30 4498 H 415.341 4.29993 2.52799 0
M  V30 4499 H 414.495 3.70207 4.80658 0
M  V30 4500 H 413.234 2.66173 4.0866 0
M  V30 4501 H 412.239 4.65386 2.92738 0
M  V30 4502 H 413.464 5.70822 3.67884 0
M  V30 4503 H 411.41 4.03401 5.17304 0
M  V30 4504 H 411.327 5.74559 4.91343 0
M  V30 4505 H 412.595 5.08879 5.90477 0
M  V30 4506 N 416.824 -0.551391 1.4764 0
M  V30 4507 C 417.771 -1.65796 1.60563 0
M  V30 4508 C 418.741 -1.59932 0.448428 0
M  V30 4509 O 419.926 -1.78679 0.669222 0
M  V30 4510 C 417.066 -3.04108 1.63133 0
M  V30 4511 C 416.179 -3.20365 2.89811 0
M  V30 4512 C 415.314 -4.49109 2.8368 0
M  V30 4513 C 414.353 -4.58819 4.05156 0
M  V30 4514 N 413.49 -5.78926 3.97227 0
M  V30 4515 H 418.33 -1.54088 2.5507 0
M  V30 4516 H 415.867 -0.75052 1.26513 0
M  V30 4517 H 417.825 -3.84207 1.62606 0
M  V30 4518 H 416.455 -3.14637 0.721341 0
M  V30 4519 H 415.507 -2.33659 3.00179 0
M  V30 4520 H 416.819 -3.23402 3.79753 0
M  V30 4521 H 415.973 -5.37475 2.81434 0
M  V30 4522 H 414.712 -4.4856 1.91431 0
M  V30 4523 H 413.717 -3.68864 4.077 0
M  V30 4524 H 414.942 -4.61124 4.98539 0
M  V30 4525 H 412.888 -5.79314 3.07785 0
M  V30 4526 H 412.805 -5.83367 4.80853 0
M  V30 4527 H 414.073 -6.69637 3.99007 0
M  V30 4528 N 418.302 -1.35869 -0.798587 0
M  V30 4529 C 419.579 -1.20145 -1.54352 0
M  V30 4530 C 419.959 0.216161 -2.0999 0
M  V30 4531 O 419.307 1.22068 -1.93162 0
M  V30 4532 C 419.517 -2.27602 -2.64572 0
M  V30 4533 C 420.865 -2.63811 -3.32699 0
M  V30 4534 O 421.889 -2.26576 -2.74849 0
M  V30 4535 O 420.748 -3.27866 -4.37226 0
M  V30 4536 H 417.842 -0.467248 -0.682355 0
M  V30 4537 H 420.388 -1.47574 -0.837859 0
M  V30 4538 H 419.16 -3.2265 -2.21388 0
M  V30 4539 H 418.783 -2.01488 -3.42766 0
M  V30 4540 N 419.78 1.02168 -1.19998 0
M  V30 4541 C 420.713 2.10232 -0.887558 0
M  V30 4542 C 421.691 1.61827 0.158317 0
M  V30 4543 O 422.875 1.88471 0.0330249 0
M  V30 4544 C 420.002 3.37092 -0.32964 0
M  V30 4545 C 419.048 4.0438 -1.3557 0
M  V30 4546 S 419.881 4.48956 -2.91888 0
M  V30 4547 C 421.037 5.79024 -2.37658 0
M  V30 4548 H 421.27 2.36409 -1.80272 0
M  V30 4549 H 418.803 1.15211 -1.0279 0
M  V30 4550 H 420.761 4.10498 -0.0142824 0
M  V30 4551 H 419.422 3.08996 0.563941 0
M  V30 4552 H 418.615 4.95632 -0.9146 0
M  V30 4553 H 418.217 3.37176 -1.61828 0
M  V30 4554 H 420.509 6.53942 -1.77103 0
M  V30 4555 H 421.452 6.27924 -3.27287 0
M  V30 4556 H 421.86 5.35043 -1.79971 0
M  V30 4557 N 421.258 1.00505 1.21394 0
M  V30 4558 C 422.188 0.585684 2.26035 0
M  V30 4559 C 423.169 -0.393525 1.65485 0
M  V30 4560 O 424.354 -0.281497 1.92149 0
M  V30 4561 C 421.484 -0.0884283 3.47187 0
M  V30 4562 C 420.438 0.810567 4.20254 0
M  V30 4563 C 419.764 0.00286382 5.347 0
M  V30 4564 C 421.064 2.1132 4.77641 0
M  V30 4565 H 422.758 1.46039 2.61368 0
M  V30 4566 H 420.304 0.703648 1.25638 0
M  V30 4567 H 422.257 -0.393286 4.19561 0
M  V30 4568 H 420.981 -0.997766 3.10986 0
M  V30 4569 H 419.64 1.09925 3.49731 0
M  V30 4570 H 419.288 -0.907765 4.94741 0
M  V30 4571 H 418.988 0.601444 5.84514 0
M  V30 4572 H 420.512 -0.295808 6.09883 0
M  V30 4573 H 421.926 1.87148 5.41893 0
M  V30 4574 H 420.323 2.66164 5.37845 0
M  V30 4575 H 421.393 2.78393 3.9702 0
M  V30 4576 N 422.737 -1.36956 0.779787 0
M  V30 4577 C 423.667 -2.32761 0.185651 0
M  V30 4578 C 424.648 -1.56177 -0.673989 0
M  V30 4579 O 425.833 -1.84378 -0.609797 0
M  V30 4580 C 422.963 -3.40418 -0.687964 0
M  V30 4581 C 421.917 -4.27941 0.0710102 0
M  V30 4582 C 421.243 -5.26681 -0.922573 0
M  V30 4583 C 422.543 -5.07006 1.25467 0
M  V30 4584 H 424.237 -2.82698 0.986008 0
M  V30 4585 H 421.783 -1.3592 0.475592 0
M  V30 4586 H 423.736 -4.06423 -1.11348 0
M  V30 4587 H 422.46 -2.89025 -1.52093 0
M  V30 4588 H 421.119 -3.63478 0.47739 0
M  V30 4589 H 420.767 -4.71565 -1.7503 0
M  V30 4590 H 420.467 -5.86103 -0.419237 0
M  V30 4591 H 421.991 -5.9556 -1.34686 0
M  V30 4592 H 423.405 -5.66105 0.905401 0
M  V30 4593 H 421.802 -5.75793 1.69063 0
M  V30 4594 H 422.872 -4.3921 2.05481 0
M  V30 4595 N 424.215 -0.530993 -1.48385 0
M  V30 4596 C 425.461 0.00274135 -2.028 0
M  V30 4597 C 425.794 1.33838 -1.40716 0
M  V30 4598 O 425.069 1.86465 -0.553277 0
M  V30 4599 C 425.352 0.123676 -3.59888 0
M  V30 4600 C 425.205 -1.2372 -4.3245 0
M  V30 4601 C 426.524 0.849967 -4.31814 0
M  V30 4602 H 423.643 -0.000477758 -0.737 0
M  V30 4603 H 426.285 -0.688217 -1.77098 0
M  V30 4604 H 424.435 0.712157 -3.81917 0
M  V30 4605 H 426.107 -1.86687 -4.21836 0
M  V30 4606 H 424.35 -1.81882 -3.93829 0
M  V30 4607 H 425.021 -1.10557 -5.40815 0
M  V30 4608 H 427.497 0.350572 -4.14621 0
M  V30 4609 H 426.373 0.903486 -5.41413 0
M  V30 4610 H 426.634 1.90047 -3.99167 0
M  V30 4611 N 425.693 1.55336 -0.266172 0
M  V30 4612 C 426.623 2.25146 0.618981 0
M  V30 4613 C 427.604 1.23845 1.16604 0
M  V30 4614 O 428.789 1.52544 1.20183 0
M  V30 4615 C 425.919 2.96572 1.80728 0
M  V30 4616 C 424.873 4.04726 1.39215 0
M  V30 4617 C 424.199 4.63678 2.66283 0
M  V30 4618 C 425.499 5.19407 0.548942 0
M  V30 4619 H 427.193 2.99377 0.0368116 0
M  V30 4620 H 424.739 1.43991 0.0162651 0
M  V30 4621 H 426.692 3.44116 2.43232 0
M  V30 4622 H 425.416 2.19861 2.41514 0
M  V30 4623 H 424.075 3.57979 0.790351 0
M  V30 4624 H 423.723 3.83646 3.25308 0
M  V30 4625 H 423.423 5.367 2.39222 0
M  V30 4626 H 424.947 5.13967 3.29651 0
M  V30 4627 H 426.361 5.63059 1.07876 0
M  V30 4628 H 424.758 5.98936 0.373593 0
M  V30 4629 H 425.828 4.8295 -0.434394 0
M  V30 4630 N 427.171 -0.0066808 1.57599 0
M  V30 4631 C 428.134 -0.985035 2.06953 0
M  V30 4632 C 429.134 -1.27663 0.977687 0
M  V30 4633 O 430.324 -1.22293 1.24057 0
M  V30 4634 C 427.456 -2.3118 2.50536 0
M  V30 4635 H 428.649 -0.558255 2.94658 0
M  V30 4636 H 426.202 -0.254011 1.54222 0
M  V30 4637 H 426.937 -2.78561 1.66054 0
M  V30 4638 H 426.722 -2.11338 3.3027 0
M  V30 4639 H 428.212 -3.01377 2.8907 0
M  V30 4640 N 428.649 -1.55105 -0.279332 0
M  V30 4641 C 429.926 -1.66119 -1.03267 0
M  V30 4642 C 430.306 -0.523525 -2.04505 0
M  V30 4643 O 429.654 0.477194 -2.23462 0
M  V30 4644 C 429.864 -3.05067 -1.69515 0
M  V30 4645 C 431.212 -3.62606 -2.20912 0
M  V30 4646 O 432.236 -3.07659 -1.79512 0
M  V30 4647 O 431.095 -4.58861 -2.96831 0
M  V30 4648 H 428.189 -0.674429 -0.478618 0
M  V30 4649 H 430.735 -1.67446 -0.275694 0
M  V30 4650 H 429.507 -3.79311 -0.9612 0
M  V30 4651 H 429.13 -3.07611 -2.51915 0
M  V30 4652 N 430.127 0.543554 -1.4793 0
M  V30 4653 C 431.376 1.29649 -1.54512 0
M  V30 4654 C 431.689 1.94382 -0.217973 0
M  V30 4655 O 432.895 2.71017 -0.161908 0
M  V30 4656 C 431.351 2.35175 -2.72435 0
M  V30 4657 C 430.959 1.76572 -4.11736 0
M  V30 4658 C 432.703 3.11564 -2.8832 0
M  V30 4659 C 430.61 2.79958 -5.20939 0
M  V30 4660 H 429.54 0.487541 -0.57517 0
M  V30 4661 H 432.191 0.575708 -1.74235 0
M  V30 4662 H 430.573 3.10229 -2.46118 0
M  V30 4663 H 431.747 1.07799 -4.48013 0
M  V30 4664 H 430.062 1.12722 -4.00852 0
M  V30 4665 H 432.659 3.88794 -3.67074 0
M  V30 4666 H 433.002 3.66594 -1.97268 0
M  V30 4667 H 433.535 2.43623 -3.14472 0
M  V30 4668 H 430.274 2.29766 -6.13912 0
M  V30 4669 H 429.794 3.47101 -4.89164 0
M  V30 4670 H 431.473 3.43198 -5.48474 0
M  V30 4671 N 431.605 1.3629 0.791371 0
M  V30 4672 C 432.515 1.32606 1.93527 0
M  V30 4673 C 433.531 0.228541 1.72493 0
M  V30 4674 O 434.707 0.460571 1.96063 0
M  V30 4675 C 431.772 1.11271 3.28359 0
M  V30 4676 C 430.833 2.3048 3.62185 0
M  V30 4677 C 430.066 2.10154 4.90583 0
M  V30 4678 O 430.289 1.07572 5.60165 0
M  V30 4679 O 429.223 2.97884 5.23019 0
M  V30 4680 H 433.049 2.28909 1.99585 0
M  V30 4681 H 430.634 1.16818 0.931344 0
M  V30 4682 H 432.516 1.01283 4.09047 0
M  V30 4683 H 431.191 0.180292 3.23198 0
M  V30 4684 H 430.098 2.46036 2.81811 0
M  V30 4685 H 431.431 3.22221 3.72068 0
M  V30 4686 N 433.083 -1.0153 1.20538 0
M  V30 4687 C 434.013 -2.11972 0.979295 0
M  V30 4688 C 434.994 -1.6985 -0.0921787 0
M  V30 4689 O 436.179 -1.94089 0.0655932 0
M  V30 4690 C 433.309 -3.43201 0.531984 0
M  V30 4691 C 432.263 -3.9907 1.54685 0
M  V30 4692 C 431.589 -5.26082 0.956127 0
M  V30 4693 C 432.889 -4.32313 2.93092 0
M  V30 4694 H 434.583 -2.31143 1.90298 0
M  V30 4695 H 432.129 -1.11079 0.916372 0
M  V30 4696 H 434.082 -4.1985 0.361044 0
M  V30 4697 H 432.806 -3.23792 -0.427327 0
M  V30 4698 H 431.465 -3.2453 1.70517 0
M  V30 4699 H 431.113 -5.02999 -0.0111538 0
M  V30 4700 H 430.813 -5.64426 1.63393 0
M  V30 4701 H 432.337 -6.05386 0.796284 0
M  V30 4702 H 433.751 -4.99845 2.80763 0
M  V30 4703 H 432.148 -4.81774 3.57791 0
M  V30 4704 H 433.218 -3.41025 3.44717 0
M  V30 4705 N 434.561 -1.01147 -1.20859 0
M  V30 4706 C 435.524 -0.582224 -2.21682 0
M  V30 4707 C 436.524 0.344887 -1.57058 0
M  V30 4708 O 437.714 0.134281 -1.73682 0
M  V30 4709 C 434.846 0.150496 -3.40568 0
M  V30 4710 H 436.039 -1.47408 -2.61172 0
M  V30 4711 H 433.592 -0.800695 -1.34233 0
M  V30 4712 H 434.327 1.0575 -3.06574 0
M  V30 4713 H 434.112 -0.515444 -3.88697 0
M  V30 4714 H 435.602 0.438344 -4.15293 0
M  V30 4715 N 436.039 1.36541 -0.78704 0
M  V30 4716 C 436.971 2.28761 -0.141773 0
M  V30 4717 C 437.984 1.49365 0.647599 0
M  V30 4718 O 439.173 1.71836 0.483173 0
M  V30 4719 C 436.273 3.28771 0.822368 0
M  V30 4720 C 435.446 4.3732 0.0835594 0
M  V30 4721 C 434.505 5.17307 0.963296 0
M  V30 4722 O 433.531 5.67638 0.421419 0
M  V30 4723 N 434.733 5.33515 2.28784 0
M  V30 4724 H 437.498 2.84777 -0.933919 0
M  V30 4725 H 435.059 1.48682 -0.640735 0
M  V30 4726 H 437.051 3.79169 1.41468 0
M  V30 4727 H 435.621 2.73412 1.5154 0
M  V30 4728 H 434.841 3.88118 -0.689809 0
M  V30 4729 H 436.129 5.0701 -0.426358 0
M  V30 4730 H 435.527 4.94234 2.75226 0
M  V30 4731 H 434.084 5.87165 2.82985 0
M  V30 4732 N 437.518 0.538854 1.48102 0
M  V30 4733 C 438.481 -0.208395 2.28251 0
M  V30 4734 C 439.481 -0.859656 1.35892 0
M  V30 4735 O 440.671 -0.71834 1.58699 0
M  V30 4736 C 437.803 -1.30252 3.15035 0
M  V30 4737 H 438.996 0.495407 2.9578 0
M  V30 4738 H 436.549 0.295112 1.53489 0
M  V30 4739 H 437.284 -2.0393 2.52157 0
M  V30 4740 H 437.069 -0.840551 3.82985 0
M  V30 4741 H 438.559 -1.82787 3.75471 0
M  V30 4742 N 438.996 -1.55193 0.274407 0
M  V30 4743 C 439.926 -2.25471 -0.607032 0
M  V30 4744 C 440.907 -1.24461 -1.15946 0
M  V30 4745 O 442.092 -1.53179 -1.19373 0
M  V30 4746 C 439.222 -2.97526 -1.79153 0
M  V30 4747 C 438.176 -4.05459 -1.37067 0
M  V30 4748 C 437.502 -4.65084 -2.6382 0
M  V30 4749 C 438.802 -5.19691 -0.521389 0
M  V30 4750 H 440.496 -2.99393 -0.0209343 0
M  V30 4751 H 438.042 -1.43997 -0.00862866 0
M  V30 4752 H 439.995 -3.45402 -2.41404 0
M  V30 4753 H 438.719 -2.21138 -2.40344 0
M  V30 4754 H 437.378 -3.58393 -0.771355 0
M  V30 4755 H 437.026 -3.85365 -3.23268 0
M  V30 4756 H 436.726 -5.37961 -2.36372 0
M  V30 4757 H 438.25 -5.15708 -3.26921 0
M  V30 4758 H 439.664 -5.63623 -1.04889 0
M  V30 4759 H 438.061 -5.99126 -0.341825 0
M  V30 4760 H 439.131 -4.82713 0.46 0
M  V30 4761 N 440.474 -0.00167713 -1.576 0
M  V30 4762 C 441.406 1.0174 -2.05382 0
M  V30 4763 C 442.419 1.30595 -0.972052 0
M  V30 4764 O 443.608 1.27542 -1.24882 0
M  V30 4765 C 440.708 2.35174 -2.44022 0
M  V30 4766 C 439.881 2.25234 -3.74951 0
M  V30 4767 C 438.94 3.4137 -4.00441 0
M  V30 4768 O 437.966 3.19483 -4.71083 0
M  V30 4769 N 439.168 4.64275 -3.48467 0
M  V30 4770 H 441.933 0.609902 -2.93428 0
M  V30 4771 H 439.494 0.185672 -1.60832 0
M  V30 4772 H 441.486 3.11643 -2.58187 0
M  V30 4773 H 440.056 2.67659 -1.61485 0
M  V30 4774 H 439.276 1.33664 -3.70847 0
M  V30 4775 H 440.564 2.15767 -4.60784 0
M  V30 4776 H 439.962 4.84955 -2.91264 0
M  V30 4777 H 438.519 5.38005 -3.67959 0
M  V30 4778 N 441.952 1.55251 0.271103 0
M  V30 4779 C 442.915 1.87484 1.31842 0
M  V30 4780 C 443.915 0.749545 1.42262 0
M  V30 4781 O 445.105 1.01771 1.4138 0
M  V30 4782 C 442.237 2.0818 2.69951 0
M  V30 4783 H 443.43 2.81108 1.0449 0
M  V30 4784 H 440.983 1.47771 0.509258 0
M  V30 4785 H 441.718 1.16944 3.02481 0
M  V30 4786 H 441.503 2.90114 2.63774 0
M  V30 4787 H 442.993 2.34385 3.4562 0
M  V30 4788 N 443.43 -0.535701 1.48216 0
M  V30 4789 C 444.676 -1.29375 1.56173 0
M  V30 4790 C 445.009 -1.92804 0.232429 0
M  V30 4791 O 444.284 -1.78992 -0.761048 0
M  V30 4792 C 444.567 -2.38747 2.69577 0
M  V30 4793 C 444.42 -1.80046 4.12193 0
M  V30 4794 C 445.739 -3.40551 2.78771 0
M  V30 4795 H 442.858 -0.469027 0.568491 0
M  V30 4796 H 445.5 -0.597358 1.80365 0
M  V30 4797 H 443.65 -2.98147 2.4908 0
M  V30 4798 H 445.322 -1.24742 4.44114 0
M  V30 4799 H 443.565 -1.10609 4.19462 0
M  V30 4800 H 444.236 -2.59212 4.87353 0
M  V30 4801 H 446.712 -2.91099 2.97322 0
M  V30 4802 H 445.588 -4.1448 3.59857 0
M  V30 4803 H 445.849 -4.00746 1.86696 0
M  V30 4804 N 444.908 -1.36708 -0.784132 0
M  V30 4805 C 446.133 -1.34565 -1.5782 0
M  V30 4806 C 446.558 0.0695257 -1.87971 0
M  V30 4807 O 445.916 1.04302 -1.48293 0
M  V30 4808 C 445.964 -2.17952 -2.87279 0
M  V30 4809 O 445.068 -1.57563 -3.81114 0
M  V30 4810 H 444.409 -0.460337 -0.478524 0
M  V30 4811 H 446.939 -1.80064 -0.971495 0
M  V30 4812 H 446.949 -2.30721 -3.365 0
M  V30 4813 H 445.624 -3.20823 -2.64661 0
M  V30 4814 H 444.201 -1.53764 -3.39722 0
M  V30 4815 N 446.386 1.0089 -1.21074 0
M  V30 4816 C 447.296 2.13039 -0.982425 0
M  V30 4817 C 448.312 1.73881 0.0642161 0
M  V30 4818 O 449.488 2.01012 -0.12496 0
M  V30 4819 C 446.553 3.42377 -0.545803 0
M  V30 4820 C 445.614 3.95731 -1.6642 0
M  V30 4821 C 444.847 5.18896 -1.24832 0
M  V30 4822 O 445.07 5.70273 -0.120265 0
M  V30 4823 O 444.004 5.65597 -2.05873 0
M  V30 4824 H 447.83 2.35175 -1.92163 0
M  V30 4825 H 445.415 1.1142 -0.995285 0
M  V30 4826 H 447.297 4.20244 -0.311912 0
M  V30 4827 H 445.972 3.21639 0.364727 0
M  V30 4828 H 444.879 3.19108 -1.95246 0
M  V30 4829 H 446.212 4.20872 -2.55201 0
M  V30 4830 N 447.864 1.01787 1.20321 0
M  V30 4831 C 448.796 0.547357 2.22568 0
M  V30 4832 C 449.809 -0.370922 1.58518 0
M  V30 4833 O 450.998 -0.169067 1.77698 0
M  V30 4834 C 448.098 -0.223031 3.38165 0
M  V30 4835 C 447.271 0.697472 4.31803 0
M  V30 4836 C 446.33 -0.025562 5.26194 0
M  V30 4837 O 445.356 0.597367 5.66057 0
M  V30 4838 N 446.558 -1.29999 5.65757 0
M  V30 4839 H 449.323 1.42668 2.63564 0
M  V30 4840 H 446.884 0.895552 1.34876 0
M  V30 4841 H 448.876 -0.716002 3.98316 0
M  V30 4842 H 447.446 -1.00366 2.9605 0
M  V30 4843 H 446.666 1.37073 3.69601 0
M  V30 4844 H 447.954 1.32347 4.91286 0
M  V30 4845 H 447.352 -1.827 5.35385 0
M  V30 4846 H 445.909 -1.73766 6.28211 0
M  V30 4847 N 449.342 -1.36122 0.79427 0
M  V30 4848 C 450.252 -2.33769 0.197296 0
M  V30 4849 C 451.268 -1.61276 -0.653153 0
M  V30 4850 O 452.444 -1.9323 -0.5678 0
M  V30 4851 C 449.509 -3.40474 -0.654098 0
M  V30 4852 C 448.57 -4.28759 0.215411 0
M  V30 4853 C 447.803 -5.30368 -0.595443 0
M  V30 4854 O 448.026 -5.40211 -1.83107 0
M  V30 4855 O 446.96 -6.019 0.00721351 0
M  V30 4856 H 450.786 -2.86597 1.00478 0
M  V30 4857 H 448.371 -1.38676 0.555818 0
M  V30 4858 H 450.253 -4.05703 -1.13944 0
M  V30 4859 H 448.928 -2.89937 -1.43938 0
M  V30 4860 H 447.835 -3.66554 0.747615 0
M  V30 4861 H 449.168 -4.82661 0.964332 0
M  V30 4862 N 450.82 -0.546701 -1.47814 0
M  V30 4863 C 451.767 0.206854 -2.29871 0
M  V30 4864 C 452.737 0.918235 -1.38411 0
M  V30 4865 O 453.922 0.915991 -1.67375 0
M  V30 4866 C 451.062 1.23746 -3.22151 0
M  V30 4867 C 450.175 0.533216 -4.28697 0
M  V30 4868 C 449.31 1.5482 -5.08138 0
M  V30 4869 C 448.349 0.828347 -6.06469 0
M  V30 4870 N 447.486 1.78966 -6.78908 0
M  V30 4871 H 452.326 -0.499037 -2.93792 0
M  V30 4872 H 449.863 -0.25793 -1.44821 0
M  V30 4873 H 451.821 1.84746 -3.74065 0
M  V30 4874 H 450.451 1.91151 -2.60117 0
M  V30 4875 H 449.503 -0.191089 -3.7992 0
M  V30 4876 H 450.815 -0.0311987 -4.9879 0
M  V30 4877 H 449.969 2.23202 -5.6415 0
M  V30 4878 H 448.708 2.14652 -4.37922 0
M  V30 4879 H 447.713 0.130539 -5.49645 0
M  V30 4880 H 448.938 0.235907 -6.7869 0
M  V30 4881 H 446.884 2.37675 -6.1143 0
M  V30 4882 H 446.801 1.27712 -7.45135 0
M  V30 4883 H 448.069 2.46496 -7.395 0
M  V30 4884 N 452.299 1.55045 -0.282633 0
M  V30 4885 C 453.527 2.04168 0.33512 0
M  V30 4886 C 453.942 1.16071 1.48906 0
M  V30 4887 O 453.299 0.182391 1.81586 0
M  V30 4888 C 453.35 3.52332 0.808957 0
M  V30 4889 O 453.071 4.37078 -0.299038 0
M  V30 4890 C 454.572 4.17375 1.49375 0
M  V30 4891 H 451.792 0.666744 0.0754543 0
M  V30 4892 H 454.336 2.00205 -0.416918 0
M  V30 4893 H 452.491 3.56715 1.51106 0
M  V30 4894 H 452.905 5.24458 0.0665514 0
M  V30 4895 H 454.379 5.22627 1.77664 0
M  V30 4896 H 454.856 3.65999 2.42778 0
M  V30 4897 H 455.462 4.17016 0.835305 0
M  V30 4898 N 453.777 0.010035 1.57597 0
M  V30 4899 C 455.023 -0.673697 1.91283 0
M  V30 4900 C 455.356 -1.72863 0.884979 0
M  V30 4901 O 454.631 -1.94268 -0.0949487 0
M  V30 4902 C 454.914 -1.30766 3.35518 0
M  V30 4903 C 454.767 -0.263578 4.49027 0
M  V30 4904 C 456.086 -2.23105 3.79358 0
M  V30 4905 H 453.205 -0.243439 0.695634 0
M  V30 4906 H 455.847 0.0633864 1.89894 0
M  V30 4907 H 453.997 -1.93588 3.36832 0
M  V30 4908 H 455.669 0.365738 4.59848 0
M  V30 4909 H 453.912 0.413077 4.31829 0
M  V30 4910 H 454.583 -0.746398 5.4693 0
M  V30 4911 H 457.059 -1.70289 3.79659 0
M  V30 4912 H 455.935 -2.64424 4.81011 0
M  V30 4913 H 456.196 -3.11433 3.13787 0
M  V30 4914 N 455.255 -1.55392 -0.262866 0
M  V30 4915 C 456.165 -1.92077 -1.34698 0
M  V30 4916 C 457.181 -0.819227 -1.53508 0
M  V30 4917 O 458.357 -1.11921 -1.67439 0
M  V30 4918 C 455.422 -2.19407 -2.68443 0
M  V30 4919 C 454.483 -3.42905 -2.58292 0
M  V30 4920 C 453.716 -3.68921 -3.85659 0
M  V30 4921 O 453.939 -2.97275 -4.8681 0
M  V30 4922 O 452.873 -4.62455 -3.85252 0
M  V30 4923 H 456.699 -2.84384 -1.06581 0
M  V30 4924 H 454.284 -1.42069 -0.462264 0
M  V30 4925 H 456.166 -2.38365 -3.47506 0
M  V30 4926 H 454.841 -1.30282 -2.96325 0
M  V30 4927 H 453.748 -3.29272 -1.7757 0
M  V30 4928 H 455.081 -4.32282 -2.35358 0
M  V30 4929 N 456.733 0.527833 -1.48498 0
M  V30 4930 C 457.643 1.65907 -1.65867 0
M  V30 4931 C 458.659 1.6537 -0.541192 0
M  V30 4932 O 459.835 1.84282 -0.812534 0
M  V30 4933 C 456.9 3.02364 -1.69637 0
M  V30 4934 C 455.961 3.1374 -2.93028 0
M  V30 4935 C 455.194 4.43688 -2.96609 0
M  V30 4936 O 455.417 5.30913 -2.08538 0
M  V30 4937 O 454.351 4.59475 -3.88802 0
M  V30 4938 H 458.177 1.5419 -2.61647 0
M  V30 4939 H 455.762 0.701163 -1.31924 0
M  V30 4940 H 457.644 3.83515 -1.74625 0
M  V30 4941 H 456.319 3.14401 -0.770312 0
M  V30 4942 H 455.226 2.31877 -2.93571 0
M  V30 4943 H 456.559 3.06621 -3.85026 0
M  V30 4944 N 458.211 1.37122 0.776871 0
M  V30 4945 C 459.457 1.32243 1.53752 0
M  V30 4946 C 459.79 -0.0944745 1.9397 0
M  V30 4947 O 459.065 -1.05068 1.6368 0
M  V30 4948 C 459.348 2.25681 2.80607 0
M  V30 4949 C 459.201 3.76127 2.46676 0
M  V30 4950 C 460.52 2.17657 3.82509 0
M  V30 4951 H 457.639 0.481704 0.557791 0
M  V30 4952 H 460.281 1.6778 0.891612 0
M  V30 4953 H 458.431 1.95505 3.35723 0
M  V30 4954 H 460.103 4.16877 1.97513 0
M  V30 4955 H 458.346 3.94946 1.79443 0
M  V30 4956 H 459.017 4.36933 3.37333 0
M  V30 4957 H 461.493 2.44245 3.36873 0
M  V30 4958 H 460.369 2.85185 4.69 0
M  V30 4959 H 460.63 1.16785 4.26396 0
M  V30 4960 N 459.689 -1.00246 1.21608 0
M  V30 4961 C 461.1 -1.55511 1.03312 0
M  V30 4962 C 461.451 -1.91946 -0.406332 0
M  V30 4963 O 460.576 -1.73753 -1.28992 0
M  V30 4964 C 461.171 -2.82576 1.86913 0
M  V30 4965 C 459.73 -3.34318 1.72941 0
M  V30 4966 C 458.877 -2.07487 1.83968 0
M  V30 4967 H 461.828 -0.824638 1.35593 0
M  V30 4968 H 461.849 -3.54559 1.38087 0
M  V30 4969 H 461.361 -2.56026 2.91672 0
M  V30 4970 H 459.462 -3.65797 0.70877 0
M  V30 4971 H 459.575 -4.05566 2.55055 0
M  V30 4972 H 457.939 -2.20603 1.27304 0
M  V30 4973 H 458.722 -1.83346 2.9024 0
M  V30 4974 N 461.167 -1.02423 -1.1978 0
M  V30 4975 C 462.117 -0.571689 -2.20716 0
M  V30 4976 C 463.101 0.377077 -1.56419 0
M  V30 4977 O 464.293 0.198801 -1.7588 0
M  V30 4978 C 461.422 0.0808555 -3.43205 0
M  V30 4979 C 460.508 -0.890073 -4.14655 0
M  V30 4980 N 460.899 -2.05065 -4.62366 0
M  V30 4981 C 459.197 -0.71252 -4.40272 0
M  V30 4982 C 459.898 -2.66264 -5.17183 0
M  V30 4983 N 458.874 -1.94264 -5.07703 0
M  V30 4984 H 462.676 -1.45636 -2.55279 0
M  V30 4985 H 460.19 -0.890596 -1.35802 0
M  V30 4986 H 462.187 0.422654 -4.14752 0
M  V30 4987 H 460.847 0.961274 -3.10144 0
M  V30 4988 H 461.858 -2.43026 -4.57339 0
M  V30 4989 H 458.535 0.119199 -4.1733 0
M  V30 4990 H 459.925 -3.64526 -5.64421 0
M  V30 4991 N 462.645 1.35699 -0.801477 0
M  V30 4992 C 464.056 1.81415 -0.441073 0
M  V30 4993 C 464.407 1.66595 1.03636 0
M  V30 4994 O 463.532 1.19369 1.80499 0
M  V30 4995 C 464.127 3.29369 -0.793819 0
M  V30 4996 C 462.686 3.73248 -0.486083 0
M  V30 4997 C 461.833 2.57775 -1.02213 0
M  V30 4998 H 464.784 1.23749 -0.993572 0
M  V30 4999 H 464.805 3.80395 -0.0894158 0
M  V30 5000 H 464.317 3.40123 -1.86917 0
M  V30 5001 H 462.418 3.68046 0.580735 0
M  V30 5002 H 462.531 4.68222 -1.01513 0
M  V30 5003 H 460.895 2.50788 -0.444712 0
M  V30 5004 H 461.678 2.71309 -2.10348 0
M  V30 5005 N 464.123 0.554532 1.47522 0
M  V30 5006 C 465.053 -0.182974 2.32782 0
M  V30 5007 C 466.034 -0.911377 1.43624 0
M  V30 5008 O 467.219 -0.892366 1.72483 0
M  V30 5009 C 464.349 -1.21513 3.25349 0
M  V30 5010 C 463.303 -0.603355 4.23726 0
M  V30 5011 C 462.629 -1.73995 5.05598 0
M  V30 5012 C 463.929 0.441121 5.20434 0
M  V30 5013 H 465.623 0.52882 2.94693 0
M  V30 5014 H 463.169 0.255759 1.41711 0
M  V30 5015 H 465.122 -1.73922 3.83835 0
M  V30 5016 H 463.846 -1.95683 2.61487 0
M  V30 5017 H 462.505 -0.10059 3.66462 0
M  V30 5018 H 462.153 -2.47063 4.38143 0
M  V30 5019 H 461.853 -1.3364 5.72201 0
M  V30 5020 H 463.377 -2.26735 5.66942 0
M  V30 5021 H 464.791 0.00319931 5.733 0
M  V30 5022 H 463.188 0.763402 5.95224 0
M  V30 5023 H 464.258 1.33799 4.66075 0
M  V30 5024 N 465.601 -1.54893 0.290851 0
M  V30 5025 C 466.878 -1.91991 -0.373989 0
M  V30 5026 C 467.258 -1.21694 -1.72493 0
M  V30 5027 O 466.606 -0.34917 -2.25816 0
M  V30 5028 C 466.816 -3.45419 -0.498703 0
M  V30 5029 C 468.164 -4.1748 -0.774298 0
M  V30 5030 O 469.188 -3.51398 -0.582908 0
M  V30 5031 O 468.047 -5.3445 -1.14129 0
M  V30 5032 H 465.141 -0.800593 -0.207315 0
M  V30 5033 H 467.687 -1.66297 0.338164 0
M  V30 5034 H 466.459 -3.88688 0.451392 0
M  V30 5035 H 466.082 -3.77117 -1.25972 0
M  V30 5036 N 467.08 -0.0183926 -1.57589 0
M  V30 5037 C 468.496 0.337897 -1.55982 0
M  V30 5038 C 468.696 1.73604 -1.02294 0
M  V30 5039 O 467.752 2.43589 -0.664895 0
M  V30 5040 C 469.065 0.196305 -3.00059 0
M  V30 5041 C 470.613 0.269875 -3.11834 0
M  V30 5042 C 471.088 0.157197 -4.5773 0
M  V30 5043 N 472.579 0.214521 -4.62703 0
M  V30 5044 C 473.314 0.150955 -5.73201 0
M  V30 5045 N 472.81 0.0369212 -6.9279 0
M  V30 5046 N 474.603 0.204162 -5.61729 0
M  V30 5047 H 466.754 -0.93279 -1.90821 0
M  V30 5048 H 469.017 -0.359253 -0.877292 0
M  V30 5049 H 468.723 -0.766383 -3.43248 0
M  V30 5050 H 468.597 0.970908 -3.6449 0
M  V30 5051 H 470.984 1.22302 -2.68563 0
M  V30 5052 H 471.065 -0.534918 -2.50144 0
M  V30 5053 H 470.709 -0.792479 -5.01679 0
M  V30 5054 H 470.639 0.980717 -5.17387 0
M  V30 5055 H 473.13 0.303238 -3.76681 0
M  V30 5056 H 473.443 -0.00518321 -7.728 0
M  V30 5057 H 471.788 0.0022886 -6.95 0
M  V30 5058 H 474.979 0.291575 -4.67191 0
M  V30 5059 H 475.152 0.15116 -6.47824 0
M  V30 5060 N 468.558 1.5553 0.254621 0
M  V30 5061 C 469.835 1.6774 1.00611 0
M  V30 5062 C 470.215 0.555993 2.03647 0
M  V30 5063 O 469.563 -0.441583 2.24193 0
M  V30 5064 C 469.773 3.07725 1.6464 0
M  V30 5065 C 471.121 3.66074 2.15116 0
M  V30 5066 O 472.145 3.10476 1.74595 0
M  V30 5067 O 471.004 4.63526 2.89493 0
M  V30 5068 H 468.098 0.681958 0.467828 0
M  V30 5069 H 470.644 1.67863 0.24902 0
M  V30 5070 H 469.416 3.80792 0.900734 0
M  V30 5071 H 469.039 3.1158 2.46989 0
M  V30 5072 N 470.036 -0.519951 1.48776 0
M  V30 5073 C 471.266 -1.29783 1.60748 0
M  V30 5074 C 471.674 -1.87253 0.27072 0
M  V30 5075 O 471.017 -1.67628 -0.751438 0
M  V30 5076 C 471.079 -2.47984 2.60277 0
M  V30 5077 C 470.743 -2.11526 4.051 0
M  V30 5078 C 471.74 -1.66608 4.92481 0
M  V30 5079 C 469.425 -2.21742 4.50706 0
M  V30 5080 C 471.419 -1.32384 6.23501 0
M  V30 5081 C 469.106 -1.87129 5.81744 0
M  V30 5082 C 470.104 -1.42523 6.67964 0
M  V30 5083 O 469.792 -1.0837 7.96562 0
M  V30 5084 H 469.524 -0.400562 0.544542 0
M  V30 5085 H 472.078 -0.632879 1.95407 0
M  V30 5086 H 470.308 -3.17493 2.2076 0
M  V30 5087 H 471.997 -3.10036 2.61978 0
M  V30 5088 H 472.763 -1.58178 4.58481 0
M  V30 5089 H 468.642 -2.55415 3.83776 0
M  V30 5090 H 472.186 -0.974949 6.90754 0
M  V30 5091 H 468.083 -1.95204 6.15277 0
M  V30 5092 H 468.851 -1.21681 8.09405 0
M  V30 5093 N 471.514 -1.37532 -0.769588 0
M  V30 5094 C 472.446 -1.29347 -1.89214 0
M  V30 5095 C 473.459 -0.208842 -1.61455 0
M  V30 5096 O 474.648 -0.465158 -1.72333 0
M  V30 5097 C 471.748 -0.977649 -3.24492 0
M  V30 5098 C 470.921 -2.16817 -3.7988 0
M  V30 5099 C 469.98 -1.82229 -4.93639 0
M  V30 5100 O 469.006 -2.54548 -5.09111 0
M  V30 5101 N 470.208 -0.767696 -5.75401 0
M  V30 5102 H 472.973 -2.26073 -1.96751 0
M  V30 5103 H 470.534 -1.31185 -0.948795 0
M  V30 5104 H 472.526 -0.727065 -3.98115 0
M  V30 5105 H 471.096 -0.0988777 -3.12444 0
M  V30 5106 H 470.316 -2.58038 -2.9801 0
M  V30 5107 H 471.604 -2.96308 -4.13617 0
M  V30 5108 H 471.002 -0.167626 -5.65452 0
M  V30 5109 H 469.559 -0.576973 -6.49241 0
M  V30 5110 N 472.992 0.995999 -1.22138 0
M  V30 5111 C 473.922 2.10387 -1.01289 0
M  V30 5112 C 474.903 1.69975 0.0651454 0
M  V30 5113 O 476.088 1.9396 -0.0964628 0
M  V30 5114 C 473.218 3.42312 -0.586517 0
M  V30 5115 C 472.172 3.96558 -1.61014 0
M  V30 5116 C 471.498 5.24494 -1.0397 0
M  V30 5117 C 472.798 4.27595 -2.99933 0
M  V30 5118 H 474.492 2.28086 -1.93951 0
M  V30 5119 H 472.038 1.09607 -0.933928 0
M  V30 5120 H 473.991 4.19223 -0.427793 0
M  V30 5121 H 472.715 3.24431 0.375761 0
M  V30 5122 H 471.374 3.21776 -1.75658 0
M  V30 5123 H 471.022 5.02953 -0.0688703 0
M  V30 5124 H 470.722 5.61755 -1.72352 0
M  V30 5125 H 472.246 6.04042 -0.892494 0
M  V30 5126 H 473.66 4.95315 -2.8868 0
M  V30 5127 H 472.057 4.76021 -3.6541 0
M  V30 5128 H 473.127 3.35498 -3.50099 0
M  V30 5129 N 474.47 1.03057 1.19235 0
M  V30 5130 C 475.4 0.633497 2.24742 0
M  V30 5131 C 476.381 -0.358335 1.66283 0
M  V30 5132 O 477.566 -0.240676 1.92703 0
M  V30 5133 C 474.696 -0.0147648 3.47297 0
M  V30 5134 C 473.65 0.899527 4.18441 0
M  V30 5135 C 472.976 0.116281 5.34574 0
M  V30 5136 C 474.276 2.21404 4.73051 0
M  V30 5137 H 475.97 1.5155 2.58211 0
M  V30 5138 H 473.516 0.73014 1.24117 0
M  V30 5139 H 475.469 -0.304202 4.20301 0
M  V30 5140 H 474.193 -0.931577 3.13032 0
M  V30 5141 H 472.852 1.17319 3.47321 0
M  V30 5142 H 472.5 -0.802619 4.96555 0
M  V30 5143 H 472.2 0.725293 5.83107 0
M  V30 5144 H 473.724 -0.166376 6.10373 0
M  V30 5145 H 475.138 1.98601 5.37802 0
M  V30 5146 H 473.535 2.77512 5.32078 0
M  V30 5147 H 474.605 2.86752 3.91026 0
M  V30 5148 N 475.948 -1.35272 0.808662 0
M  V30 5149 C 476.895 -2.29764 0.218482 0
M  V30 5150 C 477.865 -1.52911 -0.648652 0
M  V30 5151 O 479.05 -1.81341 -0.593297 0
M  V30 5152 C 476.19 -3.39388 -0.625282 0
M  V30 5153 C 475.303 -4.31202 0.262516 0
M  V30 5154 C 474.438 -5.27919 -0.589451 0
M  V30 5155 C 473.477 -6.11371 0.298617 0
M  V30 5156 N 472.614 -7.0022 -0.513443 0
M  V30 5157 H 477.454 -2.79645 1.02968 0
M  V30 5158 H 474.991 -1.37629 0.519303 0
M  V30 5159 H 476.949 -4.01615 -1.12966 0
M  V30 5160 H 475.579 -2.90777 -1.40173 0
M  V30 5161 H 474.631 -3.69962 0.885013 0
M  V30 5162 H 475.943 -4.89748 0.945971 0
M  V30 5163 H 475.097 -5.95529 -1.15888 0
M  V30 5164 H 473.836 -4.69875 -1.30647 0
M  V30 5165 H 472.841 -5.42707 0.880301 0
M  V30 5166 H 474.066 -6.71494 1.01352 0
M  V30 5167 H 472.012 -6.44662 -1.21439 0
M  V30 5168 H 471.929 -7.55917 0.111922 0
M  V30 5169 H 473.197 -7.72175 -1.06608 0
M  V30 5170 N 477.426 -0.562348 -1.47226 0
M  V30 5171 C 478.666 -0.0426374 -2.04356 0
M  V30 5172 C 479.03 1.28487 -1.42671 0
M  V30 5173 O 480.231 1.89259 -1.90878 0
M  V30 5174 C 478.502 0.0433826 -3.57374 0
M  V30 5175 S 480.061 0.508472 -4.35844 0
M  V30 5176 H 476.879 -0.0276234 -0.710463 0
M  V30 5177 H 479.481 -0.750245 -1.80531 0
M  V30 5178 H 478.185 -0.927072 -3.99792 0
M  V30 5179 H 477.716 0.774387 -3.85703 0
M  V30 5180 H 479.731 1.76719 -4.63665 0
M  V30 5181 N 478.904 1.54736 -0.299062 0
M  V30 5182 C 479.836 2.20891 0.61153 0
M  V30 5183 C 480.849 1.20104 1.09904 0
M  V30 5184 O 482.038 1.46707 1.01683 0
M  V30 5185 C 479.138 2.84018 1.84897 0
M  V30 5186 C 478.311 4.10719 1.50428 0
M  V30 5187 C 477.37 4.57667 2.59667 0
M  V30 5188 O 476.396 5.2291 2.24842 0
M  V30 5189 N 477.598 4.29821 3.90172 0
M  V30 5190 H 480.363 2.99666 0.0452001 0
M  V30 5191 H 477.924 1.61446 -0.121178 0
M  V30 5192 H 479.916 3.1236 2.5732 0
M  V30 5193 H 478.486 2.09095 2.32375 0
M  V30 5194 H 477.706 3.89408 0.612781 0
M  V30 5195 H 478.994 4.93223 1.24934 0
M  V30 5196 H 478.392 3.77549 4.21276 0
M  V30 5197 H 476.949 4.62877 4.58899 0
M  V30 5198 N 480.382 0.0267497 1.57577 0
M  V30 5199 C 481.312 -0.954308 2.13108 0
M  V30 5200 C 482.293 -1.34088 1.04663 0
M  V30 5201 O 483.478 -1.41992 1.32484 0
M  V30 5202 C 480.608 -2.23744 2.65624 0
M  V30 5203 C 479.562 -1.99168 3.78835 0
M  V30 5204 C 478.888 -3.33726 4.17769 0
M  V30 5205 C 480.188 -1.33277 5.0501 0
M  V30 5206 H 481.882 -0.491848 2.95332 0
M  V30 5207 H 479.428 -0.23514 1.42067 0
M  V30 5208 H 481.381 -2.92754 3.03106 0
M  V30 5209 H 480.105 -2.72151 1.80558 0
M  V30 5210 H 478.764 -1.32577 3.41788 0
M  V30 5211 H 478.412 -3.79888 3.29688 0
M  V30 5212 H 478.112 -3.18089 4.94058 0
M  V30 5213 H 479.636 -4.04008 4.57832 0
M  V30 5214 H 481.05 -1.92283 5.40093 0
M  V30 5215 H 479.447 -1.28045 5.8628 0
M  V30 5216 H 480.517 -0.305411 4.83937 0
M  V30 5217 N 481.861 -1.55662 -0.24637 0
M  V30 5218 C 482.793 -1.86811 -1.32794 0
M  V30 5219 C 483.806 -0.754413 -1.44265 0
M  V30 5220 O 484.995 -1.03253 -1.45606 0
M  V30 5221 C 482.095 -2.0397 -2.70646 0
M  V30 5222 C 481.268 -3.34832 -2.81436 0
M  V30 5223 C 480.327 -3.41727 -4.00136 0
M  V30 5224 O 479.353 -4.14934 -3.89639 0
M  V30 5225 N 480.555 -2.71058 -5.1333 0
M  V30 5226 H 483.32 -2.80174 -1.06409 0
M  V30 5227 H 480.881 -1.55906 -0.43647 0
M  V30 5228 H 482.873 -2.05924 -3.48393 0
M  V30 5229 H 481.443 -1.1735 -2.89738 0
M  V30 5230 H 480.663 -3.4519 -1.90361 0
M  V30 5231 H 481.951 -4.21085 -2.85595 0
M  V30 5232 H 481.349 -2.11314 -5.2475 0
M  V30 5233 H 479.906 -2.78704 -5.89209 0
M  V30 5234 N 483.339 0.512053 -1.4905 0
M  V30 5235 C 484.269 1.62365 -1.67809 0
M  V30 5236 C 485.25 1.61737 -0.526809 0
M  V30 5237 O 486.435 1.78651 -0.761404 0
M  V30 5238 C 483.565 3.00895 -1.73435 0
M  V30 5239 C 482.519 3.16387 -2.88242 0
M  V30 5240 C 481.845 4.56157 -2.78971 0
M  V30 5241 C 483.145 2.97457 -4.29321 0
M  V30 5242 H 484.839 1.46921 -2.60873 0
M  V30 5243 H 482.385 0.705379 -1.2554 0
M  V30 5244 H 484.338 3.78549 -1.85145 0
M  V30 5245 H 483.062 3.17403 -0.769619 0
M  V30 5246 H 481.721 2.41155 -2.76116 0
M  V30 5247 H 481.369 4.69525 -1.8043 0
M  V30 5248 H 481.069 4.67465 -3.5602 0
M  V30 5249 H 482.593 5.35886 -2.92675 0
M  V30 5250 H 484.007 3.64888 -4.42187 0
M  V30 5251 H 482.404 3.20245 -5.07507 0
M  V30 5252 H 483.474 1.93692 -4.44535 0
M  V30 5253 N 484.817 1.37938 0.762283 0
M  V30 5254 C 485.747 1.37176 1.88958 0
M  V30 5255 C 486.728 0.238945 1.68413 0
M  V30 5256 O 487.913 0.440726 1.89133 0
M  V30 5257 C 485.043 1.18742 3.2637 0
M  V30 5258 C 483.997 2.29136 3.61498 0
M  V30 5259 C 483.323 1.95816 4.97554 0
M  V30 5260 C 484.623 3.71363 3.6727 0
M  V30 5261 H 486.317 2.31509 1.89853 0
M  V30 5262 H 483.863 1.11438 0.912005 0
M  V30 5263 H 485.816 1.16837 4.04879 0
M  V30 5264 H 484.54 0.208683 3.25933 0
M  V30 5265 H 483.199 2.30213 2.85303 0
M  V30 5266 H 482.847 0.964475 4.93667 0
M  V30 5267 H 482.547 2.69745 5.22026 0
M  V30 5268 H 484.071 1.95513 5.78452 0
M  V30 5269 H 485.485 3.72364 4.35911 0
M  V30 5270 H 483.882 4.44425 4.03245 0
M  V30 5271 H 484.952 4.04305 2.67704 0
M  V30 5272 N 486.295 -0.989507 1.22664 0
M  V30 5273 C 487.572 -1.70326 0.961688 0
M  V30 5274 C 487.952 -2.04537 -0.522279 0
M  V30 5275 O 487.3 -1.73136 -1.49118 0
M  V30 5276 C 487.51 -2.95135 1.86269 0
M  V30 5277 C 488.858 -3.67842 2.12078 0
M  V30 5278 O 489.882 -3.0515 1.83745 0
M  V30 5279 O 488.741 -4.80644 2.60083 0
M  V30 5280 H 485.835 -0.743589 0.361946 0
M  V30 5281 H 488.381 -1.04555 1.33665 0
M  V30 5282 H 487.153 -2.66382 2.8663 0
M  V30 5283 H 486.776 -3.68645 1.48952 0
M  V30 5284 N 487.773 -1.03688 -1.18687 0
M  V30 5285 C 488.998 -0.757819 -1.93059 0
M  V30 5286 C 489.423 0.678353 -1.75442 0
M  V30 5287 O 488.781 1.46938 -1.06203 0
M  V30 5288 C 488.829 -1.12423 -3.42627 0
M  V30 5289 O 487.933 -0.247505 -4.11657 0
M  V30 5290 H 487.274 -0.279245 -0.602427 0
M  V30 5291 H 489.804 -1.3857 -1.5053 0
M  V30 5292 H 489.814 -1.08454 -3.93322 0
M  V30 5293 H 488.489 -2.17049 -3.54771 0
M  V30 5294 H 487.066 -0.34649 -3.71287 0
M  V30 5295 N 489.251 1.34841 -0.815825 0
M  V30 5296 C 490.499 1.98107 -0.399744 0
M  V30 5297 C 490.82 1.65019 1.03894 0
M  V30 5298 O 490.09 0.937311 1.72021 0
M  V30 5299 H 488.67 0.732827 -0.144823 0
M  V30 5300 H 491.332 1.64599 -1.0437 0
M  V30 5301 H 490.428 3.07856 -0.512965 0
M  V30 5302 N 490.729 0.570148 1.46925 0
M  V30 5303 C 491.692 -0.159933 2.28641 0
M  V30 5304 C 492.692 -0.830638 1.37685 0
M  V30 5305 O 493.882 -0.684516 1.60187 0
M  V30 5306 C 491.014 -1.2354 3.17727 0
M  V30 5307 H 492.207 0.558035 2.94662 0
M  V30 5308 H 489.76 0.327603 1.52828 0
M  V30 5309 H 490.495 -1.98535 2.56426 0
M  V30 5310 H 490.28 -0.759125 3.84681 0
M  V30 5311 H 491.77 -1.74782 3.79264 0
M  V30 5312 N 492.207 -1.54576 0.307264 0
M  V30 5313 C 493.618 -1.8579 -0.184121 0
M  V30 5314 C 493.969 -1.22914 -1.52927 0
M  V30 5315 O 493.094 -0.529126 -2.09831 0
M  V30 5316 C 493.689 -3.37081 -0.340862 0
M  V30 5317 C 492.248 -3.68304 -0.776465 0
M  V30 5318 C 491.395 -2.77076 0.111503 0
M  V30 5319 H 494.346 -1.49656 0.528078 0
M  V30 5320 H 494.367 -3.61922 -1.17443 0
M  V30 5321 H 493.879 -3.82815 0.638309 0
M  V30 5322 H 491.98 -3.28092 -1.76596 0
M  V30 5323 H 492.093 -4.75434 -0.591512 0
M  V30 5324 H 490.457 -2.51374 -0.410256 0
M  V30 5325 H 491.24 -3.25632 1.08714 0
M  V30 5326 N 493.685 -0.035106 -1.57561 0
M  V30 5327 C 494.595 0.960295 -2.14046 0
M  V30 5328 C 495.611 1.3529 -1.0942 0
M  V30 5329 O 496.787 1.43309 -1.41508 0
M  V30 5330 C 493.852 2.22214 -2.66124 0
M  V30 5331 C 492.913 1.8894 -3.85487 0
M  V30 5332 C 492.146 3.09109 -4.35072 0
M  V30 5333 O 492.369 4.21963 -3.83802 0
M  V30 5334 O 491.303 2.91058 -5.26848 0
M  V30 5335 H 495.129 0.509983 -2.99387 0
M  V30 5336 H 492.714 0.185853 -1.48239 0
M  V30 5337 H 494.596 2.96279 -2.99661 0
M  V30 5338 H 493.271 2.66414 -1.83862 0
M  V30 5339 H 492.178 1.12241 -3.56865 0
M  V30 5340 H 493.511 1.49551 -4.6893 0
M  V30 5341 N 495.163 1.55791 0.238111 0
M  V30 5342 C 496.393 1.81834 0.980809 0
M  V30 5343 C 496.801 0.609741 1.79106 0
M  V30 5344 O 496.144 -0.431073 1.78571 0
M  V30 5345 C 496.206 3.01363 1.96011 0
M  V30 5346 C 495.87 4.37037 1.33597 0
M  V30 5347 C 496.867 5.14692 0.734063 0
M  V30 5348 C 494.552 4.83743 1.3527 0
M  V30 5349 C 496.546 6.37206 0.157208 0
M  V30 5350 C 494.233 6.06204 0.77199 0
M  V30 5351 C 495.231 6.82775 0.175282 0
M  V30 5352 O 494.919 8.02922 -0.396432 0
M  V30 5353 H 494.651 0.6088 0.293834 0
M  V30 5354 H 497.205 2.03702 0.263552 0
M  V30 5355 H 495.435 2.75273 2.71591 0
M  V30 5356 H 497.124 3.14422 2.56697 0
M  V30 5357 H 497.89 4.79722 0.713582 0
M  V30 5358 H 493.769 4.24129 1.80653 0
M  V30 5359 H 497.313 6.96915 -0.30917 0
M  V30 5360 H 493.21 6.4065 0.789828 0
M  V30 5361 H 493.978 8.17989 -0.289145 0
M  V30 5362 N 496.642 -0.504142 1.49319 0
M  V30 5363 C 497.589 -1.60603 1.65756 0
M  V30 5364 C 498.559 -1.58425 0.499082 0
M  V30 5365 O 499.744 -1.76459 0.725728 0
M  V30 5366 C 496.884 -2.98764 1.72726 0
M  V30 5367 C 495.997 -3.10982 2.99857 0
M  V30 5368 C 495.132 -4.39857 2.97824 0
M  V30 5369 C 494.171 -4.45697 4.19548 0
M  V30 5370 N 493.308 -5.65995 4.15444 0
M  V30 5371 H 498.148 -1.45895 2.59843 0
M  V30 5372 H 495.685 -0.709891 1.28837 0
M  V30 5373 H 497.643 -3.78839 1.74747 0
M  V30 5374 H 496.273 -3.12183 0.821075 0
M  V30 5375 H 495.325 -2.23991 3.07461 0
M  V30 5376 H 496.637 -3.11157 3.89849 0
M  V30 5377 H 495.791 -5.2825 2.98391 0
M  V30 5378 H 494.53 -4.42242 2.05604 0
M  V30 5379 H 493.535 -3.55707 4.19229 0
M  V30 5380 H 494.76 -4.4503 5.12957 0
M  V30 5381 H 492.706 -5.69229 3.26059 0
M  V30 5382 H 492.623 -5.67773 4.99169 0
M  V30 5383 H 493.891 -6.56604 4.20109 0
M  V30 5384 N 498.12 -1.38341 -0.754957 0
M  V30 5385 C 499.366 -1.34672 -1.51628 0
M  V30 5386 C 499.699 0.0636036 -1.94096 0
M  V30 5387 O 498.974 1.0245 -1.6533 0
M  V30 5388 C 499.257 -2.30116 -2.76981 0
M  V30 5389 C 499.11 -3.80003 -2.4066 0
M  V30 5390 C 500.429 -2.23715 -3.78998 0
M  V30 5391 H 497.548 -0.490517 -0.550056 0
M  V30 5392 H 500.19 -1.69178 -0.864807 0
M  V30 5393 H 498.34 -2.00821 -3.3257 0
M  V30 5394 H 500.012 -4.19966 -1.90856 0
M  V30 5395 H 498.255 -3.97751 -1.73137 0
M  V30 5396 H 498.926 -4.42244 -3.30339 0
M  V30 5397 H 501.402 -2.49574 -3.32945 0
M  V30 5398 H 500.278 -2.9261 -4.64403 0
M  V30 5399 H 500.539 -1.23554 -4.24484 0
M  V30 5400 N 499.598 0.982988 -1.23187 0
M  V30 5401 C 500.847 1.71817 -1.05649 0
M  V30 5402 C 501.16 1.91315 0.407176 0
M  V30 5403 O 502.366 2.62256 0.702436 0
M  V30 5404 C 500.822 3.09188 -1.84203 0
M  V30 5405 C 500.43 2.97586 -3.34882 0
M  V30 5406 C 502.174 3.86684 -1.75146 0
M  V30 5407 C 500.081 4.30173 -4.05839 0
M  V30 5408 H 499.011 0.644258 -0.391724 0
M  V30 5409 H 501.662 1.09659 -1.4713 0
M  V30 5410 H 500.044 3.72087 -1.35527 0
M  V30 5411 H 501.218 2.43793 -3.91026 0
M  V30 5412 H 499.533 2.33567 -3.44725 0
M  V30 5413 H 502.13 4.84836 -2.25473 0
M  V30 5414 H 502.473 4.10136 -0.713737 0
M  V30 5415 H 503.006 3.30482 -2.21419 0
M  V30 5416 H 499.745 4.11918 -5.09906 0
M  V30 5417 H 499.265 4.83841 -3.54482 0
M  V30 5418 H 500.944 4.98873 -4.11989 0
M  V30 5419 N 501.076 1.04316 1.18135 0
M  V30 5420 C 502.008 0.594444 2.21357 0
M  V30 5421 C 503.021 -0.337215 1.59269 0
M  V30 5422 O 504.21 -0.131337 1.78016 0
M  V30 5423 C 501.31 -0.151251 3.38562 0
M  V30 5424 C 500.483 0.788907 4.30227 0
M  V30 5425 C 499.542 0.0860572 5.2613 0
M  V30 5426 O 498.568 0.717302 5.64662 0
M  V30 5427 N 499.77 -1.17969 5.68387 0
M  V30 5428 H 502.535 1.48227 2.60478 0
M  V30 5429 H 500.096 0.92396 1.32946 0
M  V30 5430 H 502.088 -0.631352 3.99745 0
M  V30 5431 H 500.658 -0.940639 2.98112 0
M  V30 5432 H 499.878 1.44882 3.6661 0
M  V30 5433 H 501.166 1.42738 4.88368 0
M  V30 5434 H 500.564 -1.71302 5.3914 0
M  V30 5435 H 499.121 -1.60402 6.31755 0
M  V30 5436 N 502.554 -1.34406 0.822964 0
M  V30 5437 C 503.782 -2.02508 0.424039 0
M  V30 5438 C 504.197 -1.61975 -0.970022 0
M  V30 5439 O 503.554 -0.825228 -1.62777 0
M  V30 5440 C 503.605 -3.57789 0.516657 0
M  V30 5441 O 503.326 -3.96853 1.85577 0
M  V30 5442 C 504.827 -4.43157 0.112637 0
M  V30 5443 H 502.047 -0.649063 0.170173 0
M  V30 5444 H 504.591 -1.7168 1.11113 0
M  V30 5445 H 502.746 -3.87207 -0.122353 0
M  V30 5446 H 503.16 -4.91538 1.83005 0
M  V30 5447 H 504.634 -5.51527 0.228526 0
M  V30 5448 H 505.111 -4.28939 -0.943837 0
M  V30 5449 H 505.717 -4.19067 0.725449 0
M  V30 5450 N 504.032 -0.577932 -1.46621 0
M  V30 5451 C 505.262 -0.0670668 -2.06491 0
M  V30 5452 C 505.67 1.24119 -1.42798 0
M  V30 5453 O 505.013 1.76016 -0.525759 0
M  V30 5454 C 505.075 0.177995 -3.59059 0
M  V30 5455 C 504.739 -1.04394 -4.44917 0
M  V30 5456 C 505.736 -1.95479 -4.81751 0
M  V30 5457 C 503.421 -1.26444 -4.86125 0
M  V30 5458 C 505.415 -3.06965 -5.58615 0
M  V30 5459 C 503.102 -2.38237 -5.62749 0
M  V30 5460 C 504.1 -3.28327 -5.98908 0
M  V30 5461 O 503.788 -4.38179 -6.73984 0
M  V30 5462 H 503.52 -0.0523159 -0.673973 0
M  V30 5463 H 506.074 -0.796966 -1.89308 0
M  V30 5464 H 504.304 0.962451 -3.74531 0
M  V30 5465 H 505.993 0.636782 -4.00874 0
M  V30 5466 H 506.759 -1.79657 -4.50498 0
M  V30 5467 H 502.638 -0.572316 -4.57434 0
M  V30 5468 H 506.182 -3.77309 -5.86757 0
M  V30 5469 H 502.079 -2.54023 -5.93416 0
M  V30 5470 H 502.847 -4.36486 -6.92403 0
M  V30 5471 N 505.51 1.54411 -0.315457 0
M  V30 5472 C 506.44 2.27002 0.547039 0
M  V30 5473 C 507.421 1.27492 1.12605 0
M  V30 5474 O 508.606 1.5629 1.15269 0
M  V30 5475 C 505.736 3.02171 1.71201 0
M  V30 5476 C 504.69 4.0895 1.26268 0
M  V30 5477 C 504.016 4.71915 2.51396 0
M  V30 5478 C 505.316 5.20891 0.383419 0
M  V30 5479 H 507.01 2.99343 -0.0584517 0
M  V30 5480 H 504.556 1.4397 -0.0295527 0
M  V30 5481 H 506.509 3.51681 2.32161 0
M  V30 5482 H 505.233 2.27433 2.34397 0
M  V30 5483 H 503.892 3.60312 0.676062 0
M  V30 5484 H 503.54 3.93801 3.12937 0
M  V30 5485 H 503.24 5.44039 2.22026 0
M  V30 5486 H 504.764 5.24195 3.13133 0
M  V30 5487 H 506.178 5.66206 0.899082 0
M  V30 5488 H 504.575 5.99821 0.182857 0
M  V30 5489 H 505.645 4.81324 -0.587821 0
M  V30 5490 N 506.988 0.0434614 1.5754 0
M  V30 5491 C 507.898 -0.94893 2.14552 0
M  V30 5492 C 508.914 -1.34707 1.10136 0
M  V30 5493 O 510.09 -1.42557 1.42266 0
M  V30 5494 C 507.155 -2.208 2.67298 0
M  V30 5495 C 506.216 -1.86893 3.86484 0
M  V30 5496 C 505.449 -3.06797 4.36705 0
M  V30 5497 O 505.672 -4.19921 3.86034 0
M  V30 5498 O 504.606 -2.8826 5.28384 0
M  V30 5499 H 508.432 -0.494099 2.99654 0
M  V30 5500 H 506.017 -0.177989 1.48336 0
M  V30 5501 H 507.899 -2.94686 3.01228 0
M  V30 5502 H 506.574 -2.65436 1.85272 0
M  V30 5503 H 505.481 -1.10347 3.57455 0
M  V30 5504 H 506.814 -1.47062 4.69716 0
M  V30 5505 N 508.466 -1.55915 -0.229846 0
M  V30 5506 C 509.398 -1.88209 -1.30805 0
M  V30 5507 C 510.411 -0.769672 -1.43457 0
M  V30 5508 O 511.6 -1.04792 -1.44502 0
M  V30 5509 C 508.7 -2.06829 -2.68468 0
M  V30 5510 C 507.873 -3.37798 -2.77869 0
M  V30 5511 C 506.932 -3.45952 -3.96489 0
M  V30 5512 O 505.958 -4.19043 -3.85216 0
M  V30 5513 N 507.16 -2.76488 -5.10426 0
M  V30 5514 H 509.925 -2.81286 -1.03431 0
M  V30 5515 H 507.486 -1.5636 -0.41991 0
M  V30 5516 H 509.478 -2.09608 -3.46189 0
M  V30 5517 H 508.048 -1.20416 -2.88477 0
M  V30 5518 H 507.268 -3.4719 -1.86689 0
M  V30 5519 H 508.556 -4.24091 -2.81113 0
M  V30 5520 H 507.954 -2.16868 -5.2248 0
M  V30 5521 H 506.511 -2.84938 -5.8622 0
M  V30 5522 N 509.944 0.496216 -1.49584 0
M  V30 5523 C 511.172 1.27394 -1.63029 0
M  V30 5524 C 511.587 1.86344 -0.303569 0
M  V30 5525 O 510.944 1.68057 0.711547 0
M  V30 5526 C 510.995 2.40077 -2.70269 0
M  V30 5527 O 510.716 1.83549 -3.97796 0
M  V30 5528 C 512.217 3.31372 -2.94462 0
M  V30 5529 H 509.437 0.386211 -0.54871 0
M  V30 5530 H 511.981 0.595163 -1.95648 0
M  V30 5531 H 510.136 3.03775 -2.40415 0
M  V30 5532 H 510.55 2.57561 -4.56905 0
M  V30 5533 H 512.024 4.06707 -3.73221 0
M  V30 5534 H 512.501 3.88654 -2.0456 0
M  V30 5535 H 513.107 2.73435 -3.25751 0
M  V30 5536 N 511.423 1.38739 0.74761 0
M  V30 5537 C 512.671 1.35007 1.50391 0
M  V30 5538 C 512.992 -0.0574274 1.94915 0
M  V30 5539 O 512.262 -1.00628 1.6808 0
M  V30 5540 H 510.842 0.496784 0.557866 0
M  V30 5541 H 513.504 1.73479 0.888319 0
M  V30 5542 H 512.6 2.00474 2.392 0
M  V30 5543 N 512.901 -0.976442 1.23707 0
M  V30 5544 C 514.126 -1.75875 1.09922 0
M  V30 5545 C 514.551 -1.84911 -0.34489 0
M  V30 5546 O 513.909 -1.31363 -1.24954 0
M  V30 5547 C 513.957 -3.16179 1.73388 0
M  V30 5548 O 513.061 -4.00124 0.99871 0
M  V30 5549 H 512.402 -0.540954 0.385052 0
M  V30 5550 H 514.932 -1.22546 1.6384 0
M  V30 5551 H 514.942 -3.66741 1.78788 0
M  V30 5552 H 513.617 -3.08917 2.78466 0
M  V30 5553 H 512.194 -3.58624 1.02193 0
M  V30 5554 N 514.379 -1.04941 -1.1758 0
M  V30 5555 C 515.327 -0.64204 -2.23563 0
M  V30 5556 C 516.321 0.335453 -1.66045 0
M  V30 5557 O 517.527 0.20179 -1.78865 0
M  V30 5558 H 513.902 -0.18944 -0.727748 0
M  V30 5559 H 515.873 -1.54609 -2.55223 0
M  V30 5560 C 514.622 -0.0301051 -3.47687 0
M  V30 5561 H 513.945 -0.773339 -3.92249 0
M  V30 5562 H 515.385 0.217592 -4.23441 0
M  V30 5563 C 513.844 1.2225 -3.13937 0
M  V30 5564 O 514.374 2.3122 -3.28482 0
M  V30 5565 N 512.58 1.11917 -2.68185 0
M  V30 5566 H 512.127 0.232403 -2.5655 0
M  V30 5567 H 512.085 1.95814 -2.45976 0
M  V30 5568 N 515.857 1.33968 -0.830081 0
M  V30 5569 C 516.807 2.26845 -0.229242 0
M  V30 5570 C 517.791 1.48862 0.610659 0
M  V30 5571 O 518.983 1.70808 0.464067 0
M  V30 5572 C 516.112 3.3798 0.602057 0
M  V30 5573 C 515.198 4.23369 -0.248866 0
M  V30 5574 N 515.589 4.88182 -1.32334 0
M  V30 5575 C 513.887 4.45987 -0.0344077 0
M  V30 5576 C 514.588 5.51671 -1.84482 0
M  V30 5577 N 513.564 5.31348 -1.14762 0
M  V30 5578 H 517.366 2.74464 -1.05104 0
M  V30 5579 H 514.88 1.4777 -0.673623 0
M  V30 5580 H 516.877 4.03494 1.04873 0
M  V30 5581 H 515.537 2.9191 1.42193 0
M  V30 5582 H 516.548 4.88988 -1.70619 0
M  V30 5583 H 513.225 4.10658 0.752727 0
M  V30 5584 H 514.615 6.13308 -2.74413 0
M  V30 5585 N 517.335 0.585699 1.46312 0
M  V30 5586 C 518.751 0.247607 1.57668 0
M  V30 5587 C 518.951 -1.25007 1.58037 0
M  V30 5588 O 518.007 -2.03196 1.49893 0
M  V30 5589 C 519.32 0.899456 2.86933 0
M  V30 5590 C 520.868 0.873326 3.00569 0
M  V30 5591 C 521.343 1.50477 4.32574 0
M  V30 5592 N 522.834 1.46925 4.3928 0
M  V30 5593 C 523.569 1.92719 5.40044 0
M  V30 5594 N 523.065 2.46499 6.47464 0
M  V30 5595 N 524.858 1.83617 5.31264 0
M  V30 5596 H 517.009 1.55841 1.44317 0
M  V30 5597 H 519.272 0.651564 0.688599 0
M  V30 5598 H 518.978 1.95313 2.92482 0
M  V30 5599 H 518.852 0.409476 3.74971 0
M  V30 5600 H 521.239 -0.171736 2.946 0
M  V30 5601 H 521.32 1.40136 2.13999 0
M  V30 5602 H 520.964 2.54905 4.39302 0
M  V30 5603 H 520.894 0.951944 5.17924 0
M  V30 5604 H 523.385 1.07616 3.62253 0
M  V30 5605 H 523.698 2.79291 7.20567 0
M  V30 5606 H 522.043 2.50526 6.48276 0
M  V30 5607 H 525.234 1.41358 4.46246 0
M  V30 5608 H 525.407 2.19622 6.09648 0
M  V30 5609 N 518.813 -1.54241 0.323641 0
M  V30 5610 C 520.053 -2.0248 -0.279502 0
M  V30 5611 C 520.417 -1.20672 -1.49339 0
M  V30 5612 O 521.618 -1.58715 -2.1694 0
M  V30 5613 C 519.889 -3.52238 -0.605266 0
M  V30 5614 S 521.448 -4.22411 -1.18805 0
M  V30 5615 H 518.266 -0.705957 -0.0845313 0
M  V30 5616 H 520.868 -1.90089 0.456781 0
M  V30 5617 H 519.572 -4.094 0.286339 0
M  V30 5618 H 519.103 -3.6871 -1.37174 0
M  V30 5619 H 521.118 -4.30075 -2.47487 0
M  V30 5620 N 520.291 -0.0518155 -1.57515 0
M  V30 5621 C 521.702 0.483787 -1.80323 0
M  V30 5622 C 522.053 1.70879 -0.964099 0
M  V30 5623 O 521.178 2.15643 -0.180872 0
M  V30 5624 C 521.773 0.884459 -3.27052 0
M  V30 5625 C 520.332 1.36504 -3.50776 0
M  V30 5626 C 519.479 0.340539 -2.75201 0
M  V30 5627 H 522.43 -0.277691 -1.56252 0
M  V30 5628 H 522.451 1.74733 -3.38007 0
M  V30 5629 H 521.963 -0.00731093 -3.88099 0
M  V30 5630 H 520.064 2.27598 -2.95009 0
M  V30 5631 H 520.177 1.35675 -4.59488 0
M  V30 5632 H 518.541 0.81356 -2.41357 0
M  V30 5633 H 519.324 -0.543156 -3.38976 0
M  V30 5634 N 521.769 1.56035 0.221574 0
M  V30 5635 C 522.997 1.8313 0.962864 0
M  V30 5636 C 523.412 0.630934 1.77946 0
M  V30 5637 O 522.769 -0.400519 1.78051 0
M  V30 5638 C 522.82 3.08742 1.88045 0
M  V30 5639 O 522.541 4.24147 1.09686 0
M  V30 5640 C 524.042 3.48824 2.73563 0
M  V30 5641 H 521.262 0.608775 0.282194 0
M  V30 5642 H 523.806 2.03124 0.23681 0
M  V30 5643 H 521.961 2.90723 2.56045 0
M  V30 5644 H 522.375 4.95505 1.71974 0
M  V30 5645 H 523.849 4.39752 3.3365 0
M  V30 5646 H 524.326 2.70575 3.45956 0
M  V30 5647 H 524.932 3.69282 2.10976 0
M  V30 5648 N 523.247 -0.488276 1.49845 0
M  V30 5649 C 524.177 -1.59675 1.70371 0
M  V30 5650 C 525.158 -1.60878 0.552473 0
M  V30 5651 O 526.343 -1.77417 0.78973 0
M  V30 5652 C 523.473 -2.98098 1.782 0
M  V30 5653 C 522.427 -3.11761 2.93239 0
M  V30 5654 C 521.753 -4.51661 2.86193 0
M  V30 5655 C 523.053 -2.90589 4.33999 0
M  V30 5656 H 524.747 -1.42752 2.63177 0
M  V30 5657 H 522.293 -0.685317 1.26647 0
M  V30 5658 H 524.246 -3.75555 1.91144 0
M  V30 5659 H 522.97 -3.16138 0.820018 0
M  V30 5660 H 521.629 -2.36732 2.79917 0
M  V30 5661 H 521.277 -4.66595 1.87877 0
M  V30 5662 H 520.977 -4.61742 3.63412 0
M  V30 5663 H 522.501 -5.31162 3.01163 0
M  V30 5664 H 523.915 -3.57807 4.47936 0
M  V30 5665 H 522.312 -3.1213 5.12538 0
M  V30 5666 H 523.382 -1.86595 4.4756 0
M  V30 5667 N 524.725 -1.39134 -0.740242 0
M  V30 5668 C 525.657 -1.33332 -1.86428 0
M  V30 5669 C 526.67 -0.243042 -1.60976 0
M  V30 5670 O 527.859 -0.501608 -1.71307 0
M  V30 5671 C 524.959 -1.04626 -3.22346 0
M  V30 5672 C 524.132 -2.24826 -3.75196 0
M  V30 5673 C 523.191 -1.92659 -4.89662 0
M  V30 5674 O 522.217 -2.6529 -5.03597 0
M  V30 5675 N 523.419 -0.889575 -5.73643 0
M  V30 5676 H 526.184 -2.30196 -1.91911 0
M  V30 5677 H 523.745 -1.33168 -0.920756 0
M  V30 5678 H 525.737 -0.811347 -3.96484 0
M  V30 5679 H 524.307 -0.165129 -3.12164 0
M  V30 5680 H 523.527 -2.64301 -2.9247 0
M  V30 5681 H 524.815 -3.05015 -4.07239 0
M  V30 5682 H 524.213 -0.287529 -5.64969 0
M  V30 5683 H 522.77 -0.714557 -6.47871 0
M  V30 5684 N 526.204 0.969867 -1.24223 0
M  V30 5685 C 527.154 2.04913 -0.999732 0
M  V30 5686 C 528.138 1.60795 0.0580636 0
M  V30 5687 O 529.33 1.76317 -0.155392 0
M  V30 5688 C 526.459 3.37942 -0.604154 0
M  V30 5689 C 525.545 3.88628 -1.69791 0
M  V30 5690 N 525.936 4.12274 -2.93025 0
M  V30 5691 C 524.234 4.17268 -1.57492 0
M  V30 5692 C 524.935 4.53808 -3.63914 0
M  V30 5693 N 523.911 4.58855 -2.91468 0
M  V30 5694 H 527.713 2.21168 -1.93551 0
M  V30 5695 H 525.227 1.15349 -1.14317 0
M  V30 5696 H 527.224 4.14863 -0.411665 0
M  V30 5697 H 525.884 3.23075 0.324465 0
M  V30 5698 H 526.895 3.99789 -3.29225 0
M  V30 5699 H 523.572 4.11346 -0.714175 0
M  V30 5700 H 524.962 4.80534 -4.69614 0
M  V30 5701 N 527.682 1.05563 1.17022 0
M  V30 5702 C 528.931 0.763036 1.8671 0
M  V30 5703 C 529.244 -0.712857 1.82147 0
M  V30 5704 O 530.45 -1.11955 2.47343 0
M  V30 5705 C 528.906 1.31474 3.35026 0
M  V30 5706 C 528.514 2.82034 3.48081 0
M  V30 5707 C 530.258 1.09935 4.10018 0
M  V30 5708 C 528.165 3.30486 4.90442 0
M  V30 5709 H 527.095 0.281747 0.699382 0
M  V30 5710 H 529.746 1.2734 1.32124 0
M  V30 5711 H 528.128 0.732171 3.89173 0
M  V30 5712 H 529.302 3.46178 3.04133 0
M  V30 5713 H 527.617 3.02156 2.86515 0
M  V30 5714 H 530.214 1.43632 5.15048 0
M  V30 5715 H 530.557 0.0373072 4.16283 0
M  V30 5716 H 531.09 1.64732 3.62089 0
M  V30 5717 H 527.829 4.36137 4.89352 0
M  V30 5718 H 527.349 2.71086 5.35044 0
M  V30 5719 H 529.028 3.25382 5.59227 0
M  V30 5720 N 529.16 -1.33526 0.837174 0
M  V30 5721 C 530.406 -1.98541 0.44193 0
M  V30 5722 C 530.761 -1.65124 -0.987517 0
M  V30 5723 O 530.054 -0.919948 -1.6807 0
M  V30 5724 C 530.248 -3.52367 0.597675 0
M  V30 5725 C 530.077 -4.00731 2.04071 0
M  V30 5726 C 528.847 -4.28649 2.67559 0
M  V30 5727 C 531.045 -4.17073 3.00923 0
M  V30 5728 N 529.027 -4.63142 4.02955 0
M  V30 5729 C 530.398 -4.54905 4.21261 0
M  V30 5730 C 532.453 -3.99358 2.97351 0
M  V30 5731 C 531.156 -4.76874 5.38501 0
M  V30 5732 C 533.182 -4.22501 4.1382 0
M  V30 5733 C 532.544 -4.60634 5.32912 0
M  V30 5734 H 528.643 -0.753246 0.210105 0
M  V30 5735 H 531.227 -1.61674 1.08488 0
M  V30 5736 H 529.398 -3.88397 -0.0154658 0
M  V30 5737 H 531.13 -4.04326 0.17404 0
M  V30 5738 H 527.885 -4.20077 2.18706 0
M  V30 5739 H 528.309 -4.84601 4.72748 0
M  V30 5740 H 532.951 -3.68993 2.06408 0
M  V30 5741 H 530.669 -5.06101 6.2999 0
M  V30 5742 H 534.255 -4.10316 4.12471 0
M  V30 5743 H 533.135 -4.78187 6.21536 0
M  V30 5744 N 530.638 -0.59345 -1.46 0
M  V30 5745 C 531.585 0.133618 -2.30413 0
M  V30 5746 C 532.555 0.873736 -1.41262 0
M  V30 5747 O 533.74 0.862279 -1.70204 0
M  V30 5748 C 530.88 1.13434 -3.25924 0
M  V30 5749 C 529.993 0.39656 -4.30176 0
M  V30 5750 C 529.128 1.38575 -5.12806 0
M  V30 5751 C 528.167 0.634984 -6.08797 0
M  V30 5752 N 527.304 1.57276 -6.84258 0
M  V30 5753 H 532.144 -0.592252 -2.92055 0
M  V30 5754 H 529.681 -0.303874 -1.43927 0
M  V30 5755 H 531.639 1.72752 -3.79753 0
M  V30 5756 H 530.269 1.82779 -2.66067 0
M  V30 5757 H 529.321 -0.311861 -3.79119 0
M  V30 5758 H 530.633 -0.189869 -4.98438 0
M  V30 5759 H 529.787 2.05141 -5.70966 0
M  V30 5760 H 528.526 2.00611 -4.44529 0
M  V30 5761 H 527.531 -0.0443925 -5.49782 0
M  V30 5762 H 528.756 0.0198678 -6.79097 0
M  V30 5763 H 526.702 2.18103 -6.18682 0
M  V30 5764 H 526.619 1.03941 -7.48821 0
M  V30 5765 H 527.887 2.22844 -7.46968 0
M  V30 5766 N 532.116 1.54067 -0.331816 0
M  V30 5767 C 533.362 2.01012 0.268667 0
M  V30 5768 C 533.695 1.2195 1.51136 0
M  V30 5769 O 532.97 0.303972 1.9211 0
M  V30 5770 C 533.253 3.55158 0.59456 0
M  V30 5771 C 533.106 4.4494 -0.659409 0
M  V30 5772 C 534.425 4.16939 1.4089 0
M  V30 5773 H 531.544 0.730698 0.0961756 0
M  V30 5774 H 534.186 1.84593 -0.450031 0
M  V30 5775 H 532.336 3.6928 1.20685 0
M  V30 5776 H 534.008 4.42675 -1.29756 0
M  V30 5777 H 532.251 4.1428 -1.28665 0
M  V30 5778 H 532.922 5.50643 -0.386804 0
M  V30 5779 H 535.398 4.06443 0.891272 0
M  V30 5780 H 534.274 5.24889 1.60569 0
M  V30 5781 H 534.535 3.70798 2.40752 0
M  V30 5782 N 533.594 0.0601682 1.57485 0
M  V30 5783 C 534.542 -0.928899 2.13247 0
M  V30 5784 C 535.536 -1.31616 1.06647 0
M  V30 5785 O 536.742 -1.29476 1.25043 0
M  V30 5786 H 533.117 -0.317455 0.681708 0
M  V30 5787 H 535.088 -0.433566 2.95233 0
M  V30 5788 C 533.837 -2.19121 2.69965 0
M  V30 5789 H 533.16 -1.90204 3.51657 0
M  V30 5790 H 534.6 -2.86465 3.12592 0
M  V30 5791 C 533.059 -2.94195 1.64168 0
M  V30 5792 O 533.589 -3.87468 1.05978 0
M  V30 5793 N 531.795 -2.57089 1.35476 0
M  V30 5794 H 531.342 -1.81314 1.82984 0
M  V30 5795 H 531.3 -3.07624 0.649196 0
M  V30 5796 N 535.072 -1.5615 -0.213296 0
M  V30 5797 C 536.004 -1.89586 -1.28802 0
M  V30 5798 C 537.017 -0.784844 -1.42633 0
M  V30 5799 O 538.206 -1.06319 -1.43383 0
M  V30 5800 C 535.306 -2.09665 -2.66259 0
M  V30 5801 C 534.479 -3.40726 -2.7427 0
M  V30 5802 C 533.538 -3.50137 -3.92798 0
M  V30 5803 O 532.564 -4.23105 -3.8075 0
M  V30 5804 N 533.766 -2.81886 -5.07465 0
M  V30 5805 H 536.531 -2.82368 -1.00442 0
M  V30 5806 H 534.092 -1.56796 -0.403302 0
M  V30 5807 H 536.084 -2.13268 -3.43946 0
M  V30 5808 H 534.654 -1.23469 -2.87183 0
M  V30 5809 H 533.874 -3.4915 -1.82997 0
M  V30 5810 H 535.162 -4.27048 -2.76599 0
M  V30 5811 H 534.56 -2.22397 -5.2015 0
M  V30 5812 H 533.117 -2.91139 -5.83165 0
M  V30 5813 N 536.55 0.480323 -1.50102 0
M  V30 5814 C 537.46 1.60547 -1.71061 0
M  V30 5815 C 538.476 1.63564 -0.593529 0
M  V30 5816 O 539.652 1.81604 -0.870751 0
M  V30 5817 C 536.717 2.96814 -1.79171 0
M  V30 5818 C 535.778 3.04259 -3.02861 0
M  V30 5819 C 535.011 4.34027 -3.10574 0
M  V30 5820 O 535.234 5.24009 -2.25323 0
M  V30 5821 O 534.168 4.46873 -4.03223 0
M  V30 5822 H 537.994 1.45788 -2.6642 0
M  V30 5823 H 535.579 0.658838 -1.34088 0
M  V30 5824 H 537.461 3.77765 -1.86738 0
M  V30 5825 H 536.136 3.11791 -0.869947 0
M  V30 5826 H 535.043 2.22419 -3.008 0
M  V30 5827 H 536.376 2.94216 -3.94586 0
M  V30 5828 N 538.028 1.39524 0.732853 0
M  V30 5829 C 539.276 1.36594 1.48951 0
M  V30 5830 C 539.597 -0.0367507 1.94965 0
M  V30 5831 O 538.867 -0.988391 1.69138 0
M  V30 5832 H 537.447 0.502673 0.552566 0
M  V30 5833 H 540.109 1.74411 0.869869 0
M  V30 5834 H 539.205 2.03 2.3706 0
M  V30 5835 N 539.506 -0.963266 1.24736 0
M  V30 5836 C 540.416 -2.09246 1.06082 0
M  V30 5837 C 541.432 -1.74 0.000363101 0
M  V30 5838 O 542.608 -2.0041 0.199479 0
M  V30 5839 C 539.673 -3.40115 0.672498 0
M  V30 5840 C 538.734 -3.89282 1.80993 0
M  V30 5841 C 537.967 -5.13905 1.44004 0
M  V30 5842 O 538.19 -5.69434 0.331835 0
M  V30 5843 O 537.124 -5.57566 2.26723 0
M  V30 5844 H 540.95 -2.27881 2.00759 0
M  V30 5845 H 538.535 -1.07649 1.03595 0
M  V30 5846 H 540.417 -4.18797 0.467668 0
M  V30 5847 H 539.092 -3.22771 -0.245102 0
M  V30 5848 H 537.999 -3.11642 2.06955 0
M  V30 5849 H 539.332 -4.1111 2.70646 0
M  V30 5850 N 540.985 -1.06182 -1.16461 0
M  V30 5851 C 541.895 -0.682671 -2.24448 0
M  V30 5852 C 542.911 0.30078 -1.71381 0
M  V30 5853 O 544.087 0.150376 -2.00838 0
M  V30 5854 C 541.152 -0.0737202 -3.46622 0
M  V30 5855 C 540.213 -1.10889 -4.14731 0
M  V30 5856 C 539.446 -0.528908 -5.31073 0
M  V30 5857 O 539.669 0.65868 -5.66584 0
M  V30 5858 O 538.603 -1.26805 -5.88391 0
M  V30 5859 H 542.429 -1.58291 -2.59187 0
M  V30 5860 H 540.014 -0.834013 -1.23954 0
M  V30 5861 H 541.896 0.264192 -4.20571 0
M  V30 5862 H 540.571 0.800015 -3.13658 0
M  V30 5863 H 539.478 -1.49896 -3.42756 0
M  V30 5864 H 540.811 -1.95412 -4.51747 0
M  V30 5865 N 542.463 1.3308 -0.844243 0
M  V30 5866 C 543.74 1.92178 -0.364261 0
M  V30 5867 C 544.12 1.76961 1.15101 0
M  V30 5868 O 543.468 1.16128 1.9679 0
M  V30 5869 C 543.678 3.393 -0.817106 0
M  V30 5870 C 545.026 4.16444 -0.828236 0
M  V30 5871 O 546.05 3.47975 -0.761062 0
M  V30 5872 O 544.909 5.38685 -0.920926 0
M  V30 5873 H 542.003 0.820411 -0.10419 0
M  V30 5874 H 544.549 1.41918 -0.930453 0
M  V30 5875 H 543.321 3.44272 -1.85991 0
M  V30 5876 H 542.944 3.96947 -0.227785 0
M  V30 5877 N 543.941 0.601185 1.45683 0
M  V30 5878 C 545.357 0.264315 1.57396 0
M  V30 5879 C 545.557 -1.23324 1.59353 0
M  V30 5880 O 544.613 -2.01594 1.52039 0
M  V30 5881 C 545.926 0.929839 2.85962 0
M  V30 5882 C 547.474 0.905156 2.99626 0
M  V30 5883 C 547.949 1.55057 4.30954 0
M  V30 5884 N 549.44 1.51576 4.37697 0
M  V30 5885 C 550.175 1.98436 5.37969 0
M  V30 5886 N 549.671 2.53352 6.44813 0
M  V30 5887 N 551.464 1.89242 5.29286 0
M  V30 5888 H 543.615 1.57363 1.42656 0
M  V30 5889 H 545.878 0.658831 0.681649 0
M  V30 5890 H 545.584 1.98404 2.90394 0
M  V30 5891 H 545.458 0.449224 3.74515 0
M  V30 5892 H 547.845 -0.14048 2.94765 0
M  V30 5893 H 547.926 1.42397 2.12501 0
M  V30 5894 H 547.57 2.5955 4.36573 0
M  V30 5895 H 547.5 1.00682 5.16886 0
M  V30 5896 H 549.991 1.11452 3.61091 0
M  V30 5897 H 550.304 2.86918 7.17564 0
M  V30 5898 H 548.649 2.57388 6.45582 0
M  V30 5899 H 551.84 1.46083 4.44722 0
M  V30 5900 H 552.013 2.26075 6.07284 0
M  V30 5901 N 545.419 -1.53889 0.339982 0
M  V30 5902 C 546.666 -2.00855 -0.257621 0
M  V30 5903 C 546.994 -1.22788 -1.50842 0
M  V30 5904 O 546.249 -0.302567 -1.93347 0
M  V30 5905 C 546.548 -3.51968 -0.620735 0
M  V30 5906 C 546.214 -4.47741 0.532771 0
M  V30 5907 C 544.876 -4.73645 0.849339 0
M  V30 5908 C 547.228 -5.04551 1.3068 0
M  V30 5909 C 544.556 -5.53614 1.94237 0
M  V30 5910 C 546.908 -5.85713 2.39005 0
M  V30 5911 C 545.572 -6.09912 2.71225 0
M  V30 5912 H 544.842 -0.734979 -0.0942703 0
M  V30 5913 H 547.489 -1.85714 0.467159 0
M  V30 5914 H 545.794 -3.64921 -1.42618 0
M  V30 5915 H 547.491 -3.85762 -1.09495 0
M  V30 5916 H 544.081 -4.27711 0.275973 0
M  V30 5917 H 548.265 -4.84507 1.07549 0
M  V30 5918 H 543.521 -5.7059 2.19628 0
M  V30 5919 H 547.695 -6.28748 2.99415 0
M  V30 5920 H 545.322 -6.71665 3.56047 0
M  V30 5921 N 546.897 -0.0685191 -1.57451 0
M  V30 5922 C 547.829 0.929372 -2.09512 0
M  V30 5923 C 548.842 1.26354 -1.02657 0
M  V30 5924 O 550.031 1.2213 -1.30179 0
M  V30 5925 C 547.131 2.24612 -2.53777 0
M  V30 5926 C 546.304 2.09128 -3.84167 0
M  V30 5927 C 545.363 3.24079 -4.14559 0
M  V30 5928 O 544.389 2.99215 -4.8421 0
M  V30 5929 N 545.591 4.49077 -3.67845 0
M  V30 5930 H 548.356 0.484901 -2.95751 0
M  V30 5931 H 545.917 0.11729 -1.61475 0
M  V30 5932 H 547.909 3.00412 -2.71172 0
M  V30 5933 H 546.479 2.60569 -1.72692 0
M  V30 5934 H 545.699 1.17815 -3.76182 0
M  V30 5935 H 546.987 1.9603 -4.69521 0
M  V30 5936 H 546.385 4.72165 -3.11571 0
M  V30 5937 H 544.942 5.21915 -3.90446 0
M  V30 5938 N 548.375 1.56261 0.205012 0
M  V30 5939 C 549.338 1.92908 1.23771 0
M  V30 5940 C 550.338 0.809208 1.38955 0
M  V30 5941 O 551.528 1.07676 1.36936 0
M  V30 5942 C 548.66 2.19442 2.60879 0
M  V30 5943 H 549.853 2.85287 0.924728 0
M  V30 5944 H 547.406 1.49798 0.446125 0
M  V30 5945 H 548.141 1.29668 2.97248 0
M  V30 5946 H 547.926 3.0104 2.51232 0
M  V30 5947 H 549.416 2.48833 3.35368 0
M  V30 5948 N 549.853 -0.472356 1.50355 0
M  V30 5949 C 550.803 -1.56809 1.65514 0
M  V30 5950 C 551.787 -1.5261 0.509801 0
M  V30 5951 O 552.979 -1.59655 0.764145 0
M  V30 5952 C 550.108 -2.9526 1.75146 0
M  V30 5953 C 549.194 -3.04348 2.95353 0
M  V30 5954 N 549.585 -2.83253 4.19048 0
M  V30 5955 C 547.883 -3.35482 2.93884 0
M  V30 5956 C 548.584 -2.97273 5.00003 0
M  V30 5957 N 547.56 -3.27418 4.33934 0
M  V30 5958 H 551.362 -1.39197 2.58846 0
M  V30 5959 H 548.876 -0.67906 1.47521 0
M  V30 5960 H 550.873 -3.74044 1.8411 0
M  V30 5961 H 549.533 -3.1392 0.829717 0
M  V30 5962 H 550.544 -2.5886 4.48567 0
M  V30 5963 H 547.221 -3.60138 2.11204 0
M  V30 5964 H 548.611 -2.85214 6.08361 0
M  V30 5965 N 551.331 -1.39911 -0.725443 0
M  V30 5966 C 552.556 -1.41137 -1.5197 0
M  V30 5967 C 552.981 -0.010262 -1.88097 0
M  V30 5968 O 552.339 0.979184 -1.52583 0
M  V30 5969 C 552.387 -2.2994 -2.77777 0
M  V30 5970 O 551.491 -1.73586 -3.74088 0
M  V30 5971 H 550.832 -0.480219 -0.458569 0
M  V30 5972 H 553.362 -1.84023 -0.894249 0
M  V30 5973 H 553.372 -2.44785 -3.26411 0
M  V30 5974 H 552.047 -3.31759 -2.50816 0
M  V30 5975 H 550.624 -1.68035 -3.32894 0
M  V30 5976 N 552.809 0.956637 -1.25245 0
M  V30 5977 C 553.756 2.053 -1.05454 0
M  V30 5978 C 554.726 1.66062 0.0356889 0
M  V30 5979 O 555.911 1.90415 -0.121099 0
M  V30 5980 C 553.051 3.38391 -0.677191 0
M  V30 5981 C 552.164 3.90758 -1.84206 0
M  V30 5982 C 551.299 5.12165 -1.40926 0
M  V30 5983 C 550.338 5.56757 -2.54338 0
M  V30 5984 N 549.475 6.69376 -2.11848 0
M  V30 5985 H 554.315 2.21562 -1.99284 0
M  V30 5986 H 551.852 1.08578 -0.992434 0
M  V30 5987 H 553.81 4.1488 -0.43938 0
M  V30 5988 H 552.44 3.22021 0.224127 0
M  V30 5989 H 551.492 3.10808 -2.19323 0
M  V30 5990 H 552.804 4.19802 -2.69383 0
M  V30 5991 H 551.958 5.96065 -1.13098 0
M  V30 5992 H 550.697 4.84832 -0.528175 0
M  V30 5993 H 549.702 4.71423 -2.82913 0
M  V30 5994 H 550.927 5.861 -3.43022 0
M  V30 5995 H 548.873 6.43756 -1.26153 0
M  V30 5996 H 548.79 6.97927 -2.90574 0
M  V30 5997 H 550.058 7.5669 -1.87191 0
M  V30 5998 N 554.287 1.06798 1.15896 0
M  V30 5999 C 555.217 0.704677 2.22613 0
M  V30 6000 C 556.198 -0.305252 1.67339 0
M  V30 6001 O 557.383 -0.179247 1.93371 0
M  V30 6002 C 554.513 0.0957325 3.47168 0
M  V30 6003 C 553.467 1.0322 4.15367 0
M  V30 6004 C 552.793 0.286293 5.33933 0
M  V30 6005 C 554.093 2.36341 4.65768 0
M  V30 6006 H 555.787 1.59688 2.53259 0
M  V30 6007 H 553.333 0.769257 1.21731 0
M  V30 6008 H 555.286 -0.170333 4.21056 0
M  V30 6009 H 554.01 -0.831516 3.15838 0
M  V30 6010 H 552.669 1.28309 3.43413 0
M  V30 6011 H 552.317 -0.644237 4.98857 0
M  V30 6012 H 552.017 0.910436 5.80504 0
M  V30 6013 H 553.541 0.0278938 6.10594 0
M  V30 6014 H 554.955 2.1561 5.31211 0
M  V30 6015 H 553.352 2.94299 5.2298 0
M  V30 6016 H 554.422 2.99047 3.81705 0
M  V30 6017 N 555.766 -1.3263 0.851289 0
M  V30 6018 C 557.014 -1.96978 0.452128 0
M  V30 6019 C 557.335 -1.67715 -0.99482 0
M  V30 6020 O 556.605 -0.98259 -1.69476 0
M  V30 6021 H 555.185 -0.72873 0.164202 0
M  V30 6022 H 557.847 -1.61774 1.08698 0
M  V30 6023 H 556.943 -3.06387 0.594407 0
M  V30 6024 N 557.244 -0.608902 -1.45362 0
M  V30 6025 C 558.192 0.121639 -2.32282 0
M  V30 6026 C 559.186 0.858301 -1.46046 0
M  V30 6027 O 560.392 0.773718 -1.62523 0
M  V30 6028 H 556.767 0.058086 -0.749753 0
M  V30 6029 H 558.738 -0.629866 -2.91677 0
M  V30 6030 C 557.487 1.1047 -3.29684 0
M  V30 6031 H 556.81 0.547278 -3.96036 0
M  V30 6032 H 558.25 1.58576 -3.9323 0
M  V30 6033 C 556.709 2.17891 -2.56954 0
M  V30 6034 O 557.239 3.25652 -2.35189 0
M  V30 6035 N 555.445 1.93211 -2.17066 0
M  V30 6036 H 554.992 1.05584 -2.34967 0
M  V30 6037 H 554.95 2.6529 -1.68727 0
M  V30 6038 N 558.722 1.53707 -0.348139 0
M  V30 6039 C 560.138 1.596 0.00361134 0
M  V30 6040 C 560.338 1.36394 1.4832 0
M  V30 6041 O 559.394 1.16046 2.24253 0
M  V30 6042 C 560.707 2.97512 -0.436682 0
M  V30 6043 C 562.255 3.10568 -0.389416 0
M  V30 6044 C 562.73 4.50866 -0.805249 0
M  V30 6045 N 564.221 4.56929 -0.759616 0
M  V30 6046 C 564.956 5.63643 -1.05327 0
M  V30 6047 N 564.452 6.78189 -1.41531 0
M  V30 6048 N 566.245 5.5354 -0.977207 0
M  V30 6049 H 558.396 1.67044 -1.31187 0
M  V30 6050 H 560.659 0.782559 -0.535075 0
M  V30 6051 H 560.365 3.19575 -1.46849 0
M  V30 6052 H 560.239 3.76742 0.185744 0
M  V30 6053 H 562.626 2.88226 0.633228 0
M  V30 6054 H 562.707 2.33387 -1.04711 0
M  V30 6055 H 562.351 4.73943 -1.82593 0
M  V30 6056 H 562.281 5.26452 -0.124989 0
M  V30 6057 H 564.772 3.74675 -0.49265 0
M  V30 6058 H 565.085 7.55541 -1.62411 0
M  V30 6059 H 563.43 6.79624 -1.45381 0
M  V30 6060 H 566.621 4.62932 -0.693675 0
M  V30 6061 H 566.794 6.36614 -1.2094 0
M  V30 6062 N 560.2 0.0768682 1.57412 0
M  V30 6063 C 561.147 -0.888577 2.13009 0
M  V30 6064 C 562.117 -1.29198 1.0439 0
M  V30 6065 O 563.302 -1.37694 1.3208 0
M  V30 6066 C 560.442 -2.14899 2.70023 0
M  V30 6067 C 559.555 -1.79777 3.92816 0
M  V30 6068 C 558.69 -3.00467 4.38056 0
M  V30 6069 C 557.729 -2.61385 5.53484 0
M  V30 6070 N 556.866 -3.74851 5.93659 0
M  V30 6071 H 561.706 -0.407593 2.95199 0
M  V30 6072 H 559.243 -0.189534 1.45874 0
M  V30 6073 H 561.201 -2.88688 3.0119 0
M  V30 6074 H 559.831 -2.60529 1.9059 0
M  V30 6075 H 558.883 -0.960301 3.68079 0
M  V30 6076 H 560.195 -1.47027 4.76639 0
M  V30 6077 H 559.349 -3.82529 4.7091 0
M  V30 6078 H 558.088 -3.36413 3.53097 0
M  V30 6079 H 557.093 -1.77746 5.20275 0
M  V30 6080 H 558.318 -2.26603 6.40178 0
M  V30 6081 H 556.264 -4.1055 5.11649 0
M  V30 6082 H 556.181 -3.45887 6.72234 0
M  V30 6083 H 557.449 -4.57477 6.31138 0
M  V30 6084 N 561.678 -1.56367 -0.196722 0
M  V30 6085 C 562.608 -1.97442 -1.24655 0
M  V30 6086 C 563.589 -0.846147 -1.47561 0
M  V30 6087 O 564.774 -1.11035 -1.59326 0
M  V30 6088 C 561.904 -2.31253 -2.59112 0
M  V30 6089 C 560.858 -3.46804 -2.50821 0
M  V30 6090 C 560.184 -3.66286 -3.89536 0
M  V30 6091 C 561.484 -4.8104 -2.03465 0
M  V30 6092 H 563.178 -2.85388 -0.905216 0
M  V30 6093 H 560.724 -1.37304 -0.434002 0
M  V30 6094 H 562.677 -2.58583 -3.32736 0
M  V30 6095 H 561.401 -1.40188 -2.94983 0
M  V30 6096 H 560.06 -3.19563 -1.79653 0
M  V30 6097 H 559.708 -2.72555 -4.22756 0
M  V30 6098 H 559.408 -4.4402 -3.84864 0
M  V30 6099 H 560.932 -3.9599 -4.64784 0
M  V30 6100 H 562.346 -5.07411 -2.66846 0
M  V30 6101 H 560.743 -5.62232 -2.09798 0
M  V30 6102 H 561.813 -4.74732 -0.98781 0
M  V30 6103 N 563.156 0.464375 -1.50603 0
M  V30 6104 C 564.086 1.56944 -1.72889 0
M  V30 6105 C 565.067 1.59979 -0.577997 0
M  V30 6106 O 566.252 1.76138 -0.817855 0
M  V30 6107 C 563.382 2.95225 -1.8292 0
M  V30 6108 C 562.336 3.07056 -2.98162 0
M  V30 6109 C 561.662 4.47051 -2.93343 0
M  V30 6110 C 562.962 2.83648 -4.38567 0
M  V30 6111 H 564.656 1.38547 -2.65415 0
M  V30 6112 H 562.202 0.665082 -1.27721 0
M  V30 6113 H 564.155 3.72467 -1.97095 0
M  V30 6114 H 562.879 3.14793 -0.870209 0
M  V30 6115 H 561.538 2.32248 -2.83648 0
M  V30 6116 H 561.186 4.63547 -1.95276 0
M  V30 6117 H 560.886 4.55902 -3.70712 0
M  V30 6118 H 562.41 5.26304 -3.09575 0
M  V30 6119 H 563.824 3.50636 -4.53572 0
M  V30 6120 H 562.221 3.03937 -5.17438 0
M  V30 6121 H 563.291 1.79451 -4.50472 0
M  V30 6122 N 564.634 1.40294 0.718013 0
M  V30 6123 C 565.88 1.39648 1.47885 0
M  V30 6124 C 566.235 -0.0023879 1.924 0
M  V30 6125 O 565.528 -0.972304 1.65096 0
M  V30 6126 C 565.722 2.31814 2.72024 0
M  V30 6127 C 565.551 3.80523 2.3965 0
M  V30 6128 C 564.321 4.49351 2.3111 0
M  V30 6129 C 566.519 4.72077 2.04079 0
M  V30 6130 N 564.501 5.83305 1.91385 0
M  V30 6131 C 565.872 5.94809 1.74935 0
M  V30 6132 C 567.927 4.59935 1.90694 0
M  V30 6133 C 566.63 7.06755 1.33753 0
M  V30 6134 C 568.656 5.7182 1.50915 0
M  V30 6135 C 568.018 6.93637 1.22668 0
M  V30 6136 H 564.117 0.566263 0.539324 0
M  V30 6137 H 566.701 1.75986 0.832891 0
M  V30 6138 H 564.872 1.97607 3.34374 0
M  V30 6139 H 566.604 2.22042 3.38348 0
M  V30 6140 H 563.359 4.03002 2.4877 0
M  V30 6141 H 563.783 6.54239 1.74068 0
M  V30 6142 H 568.425 3.66274 2.11194 0
M  V30 6143 H 566.143 8.00302 1.11995 0
M  V30 6144 H 569.729 5.64421 1.4114 0
M  V30 6145 H 568.609 7.78743 0.923502 0
M  V30 6146 N 566.112 -0.949982 1.2575 0
M  V30 6147 C 567.062 -2.03297 1.03221 0
M  V30 6148 C 568.046 -1.60867 -0.0324751 0
M  V30 6149 O 569.238 -1.76047 0.183423 0
M  V30 6150 C 566.367 -3.36938 0.657841 0
M  V30 6151 C 565.453 -3.85878 1.75952 0
M  V30 6152 N 565.844 -4.0756 2.99547 0
M  V30 6153 C 564.142 -4.14709 1.64111 0
M  V30 6154 C 564.843 -4.47961 3.71087 0
M  V30 6155 N 563.819 -4.5416 2.98731 0
M  V30 6156 H 567.621 -2.1806 1.97045 0
M  V30 6157 H 565.135 -1.13516 1.16138 0
M  V30 6158 H 567.132 -4.14155 0.477614 0
M  V30 6159 H 565.792 -3.2355 -0.273025 0
M  V30 6160 H 566.803 -3.94501 3.35544 0
M  V30 6161 H 563.48 -4.10158 0.779527 0
M  V30 6162 H 564.87 -4.73002 4.77199 0
M  V30 6163 N 567.59 -1.07411 -1.15328 0
M  V30 6164 C 568.838 -0.796073 -1.85761 0
M  V30 6165 C 569.159 0.679864 -1.82764 0
M  V30 6166 O 568.429 1.49242 -1.269 0
M  V30 6167 H 567.009 -0.291495 -0.687779 0
M  V30 6168 H 569.671 -1.35799 -1.39802 0
M  V30 6169 H 568.767 -1.13114 -2.90881 0
M  V30 6170 N 569.068 1.32177 -0.85831 0
M  V30 6171 C 570.296 2.01313 -0.477582 0
M  V30 6172 C 570.711 1.6449 0.926736 0
M  V30 6173 O 570.068 0.868096 1.60531 0
M  V30 6174 C 570.119 3.56293 -0.611337 0
M  V30 6175 O 569.84 3.91794 -1.96034 0
M  V30 6176 C 571.341 4.42702 -0.230093 0
M  V30 6177 H 568.561 0.644323 -0.187322 0
M  V30 6178 H 571.105 1.68674 -1.15626 0
M  V30 6179 H 569.26 3.87395 0.0196494 0
M  V30 6180 H 569.674 4.86513 -1.95973 0
M  V30 6181 H 571.148 5.50727 -0.374674 0
M  V30 6182 H 571.625 4.3129 0.829779 0
M  V30 6183 H 572.231 4.16997 -0.836302 0
M  V30 6184 N 570.547 0.616602 1.45037 0
M  V30 6185 C 571.495 -0.109318 2.32343 0
M  V30 6186 C 572.489 -0.850543 1.465 0
M  V30 6187 O 573.695 -0.765088 1.62931 0
M  V30 6188 H 570.07 -0.0541091 0.750051 0
M  V30 6189 H 572.041 0.645326 2.91338 0
M  V30 6190 C 570.79 -1.0872 3.30266 0
M  V30 6191 H 570.113 -0.526267 3.96321 0
M  V30 6192 H 571.553 -1.56489 3.94065 0
M  V30 6193 C 570.012 -2.16525 2.58105 0
M  V30 6194 O 570.542 -3.244 2.36913 0
M  V30 6195 N 568.748 -1.92057 2.18088 0
M  V30 6196 H 568.295 -1.04337 2.35524 0
M  V30 6197 H 568.253 -2.64391 1.70131 0
M  V30 6198 N 572.025 -1.5352 0.356285 0
M  V30 6199 C 572.958 -2.2177 -0.537913 0
M  V30 6200 C 573.936 -1.20626 -1.09033 0
M  V30 6201 O 575.12 -1.49494 -1.1482 0
M  V30 6202 C 572.247 -2.90513 -1.74126 0
M  V30 6203 C 571.293 -4.05652 -1.31715 0
M  V30 6204 S 572.126 -5.34505 -0.326236 0
M  V30 6205 C 573.282 -6.06757 -1.53612 0
M  V30 6206 H 573.515 -2.97271 0.0417411 0
M  V30 6207 H 571.048 -1.53761 0.140372 0
M  V30 6208 H 573.006 -3.30735 -2.43155 0
M  V30 6209 H 571.667 -2.14754 -2.29215 0
M  V30 6210 H 570.86 -4.52733 -2.21471 0
M  V30 6211 H 570.462 -3.67272 -0.706183 0
M  V30 6212 H 572.754 -6.30924 -2.46863 0
M  V30 6213 H 573.697 -6.99395 -1.10687 0
M  V30 6214 H 574.105 -5.3708 -1.73796 0
M  V30 6215 N 573.503 -0.0852151 -1.57369 0
M  V30 6216 C 574.466 0.8627 -2.12344 0
M  V30 6217 C 575.466 1.21746 -1.05046 0
M  V30 6218 O 576.656 1.14852 -1.30976 0
M  V30 6219 C 573.788 2.1618 -2.63589 0
M  V30 6220 H 574.981 0.385511 -2.97412 0
M  V30 6221 H 572.534 0.163663 -1.55441 0
M  V30 6222 H 573.269 2.68406 -1.82013 0
M  V30 6223 H 573.054 1.91723 -3.4203 0
M  V30 6224 H 574.544 2.84011 -3.06149 0
M  V30 6225 N 574.981 1.5647 0.188427 0
M  V30 6226 C 576.227 1.81281 0.909124 0
M  V30 6227 C 576.56 0.66034 1.82628 0
M  V30 6228 O 575.835 -0.338737 1.91528 0
M  V30 6229 C 576.118 3.16388 1.7196 0
M  V30 6230 C 575.971 4.42137 0.826714 0
M  V30 6231 C 577.29 3.48256 2.69083 0
M  V30 6232 H 574.409 0.659457 0.329068 0
M  V30 6233 H 577.051 1.89182 0.176156 0
M  V30 6234 H 575.201 3.09784 2.34448 0
M  V30 6235 H 576.873 4.60794 0.216025 0
M  V30 6236 H 575.116 4.33594 0.133792 0
M  V30 6237 H 575.787 5.33184 1.42893 0
M  V30 6238 H 578.263 3.55203 2.16726 0
M  V30 6239 H 577.139 4.43899 3.2287 0
M  V30 6240 H 577.4 2.72088 3.48455 0
M  V30 6241 N 576.459 -0.456382 1.50847 0
M  V30 6242 C 577.705 -1.20914 1.62811 0
M  V30 6243 C 578.038 -1.91301 0.334304 0
M  V30 6244 O 577.313 -1.82775 -0.665098 0
M  V30 6245 C 577.596 -2.24122 2.81853 0
M  V30 6246 C 577.449 -1.57944 4.21158 0
M  V30 6247 C 578.768 -3.25295 2.96431 0
M  V30 6248 H 575.887 -0.438233 0.592554 0
M  V30 6249 H 578.529 -0.50091 1.83278 0
M  V30 6250 H 576.679 -2.84524 2.64534 0
M  V30 6251 H 578.351 -1.01025 4.50102 0
M  V30 6252 H 576.594 -0.882185 4.24735 0
M  V30 6253 H 577.265 -2.33014 5.00408 0
M  V30 6254 H 579.741 -2.7493 3.12335 0
M  V30 6255 H 578.617 -3.94822 3.81322 0
M  V30 6256 H 578.878 -3.90286 2.07676 0
M  V30 6257 N 577.937 -1.40673 -0.710563 0
M  V30 6258 C 578.9 -1.4108 -1.80635 0
M  V30 6259 C 579.9 -0.303783 -1.57904 0
M  V30 6260 O 581.09 -0.562937 -1.64853 0
M  V30 6261 C 578.222 -1.20748 -3.18799 0
M  V30 6262 H 579.415 -2.38612 -1.81671 0
M  V30 6263 H 576.968 -1.26595 -0.916704 0
M  V30 6264 H 577.703 -0.239964 -3.23411 0
M  V30 6265 H 577.488 -2.00941 -3.36698 0
M  V30 6266 H 578.978 -1.23833 -3.98817 0
M  V30 6267 N 579.415 0.9433 -1.26252 0
M  V30 6268 C 580.378 2.02326 -1.07689 0
M  V30 6269 C 581.378 1.60779 -0.0259174 0
M  V30 6270 O 582.568 1.72108 -0.269134 0
M  V30 6271 C 579.7 3.34886 -0.63752 0
M  V30 6272 H 580.893 2.20225 -2.0357 0
M  V30 6273 H 578.446 1.12197 -1.08819 0
M  V30 6274 H 579.181 3.22684 0.323377 0
M  V30 6275 H 578.966 3.66393 -1.39637 0
M  V30 6276 H 580.456 4.14231 -0.529418 0
M  V30 6277 N 580.893 1.08022 1.14757 0
M  V30 6278 C 582.142 0.802468 1.8505 0
M  V30 6279 C 582.455 -0.674061 1.83619 0
M  V30 6280 O 583.661 -1.06683 2.49662 0
M  V30 6281 C 582.117 1.38551 3.32162 0
M  V30 6282 C 581.725 2.89354 3.42021 0
M  V30 6283 C 583.469 1.18608 4.07594 0
M  V30 6284 C 581.376 3.40815 4.83321 0
M  V30 6285 H 580.306 0.296518 0.693248 0
M  V30 6286 H 582.957 1.30114 1.29393 0
M  V30 6287 H 581.339 0.814556 3.87532 0
M  V30 6288 H 582.513 3.52552 2.96722 0
M  V30 6289 H 580.828 3.08165 2.80041 0
M  V30 6290 H 583.425 1.54525 5.11885 0
M  V30 6291 H 583.768 0.125599 4.1611 0
M  V30 6292 H 584.301 1.72375 3.58513 0
M  V30 6293 H 581.04 4.46418 4.79991 0
M  V30 6294 H 580.56 2.82374 5.29174 0
M  V30 6295 H 582.239 3.37171 5.522 0
M  V30 6296 N 582.371 -1.3172 0.865308 0
M  V30 6297 C 583.301 -2.31109 0.333302 0
M  V30 6298 C 584.282 -1.60148 -0.573301 0
M  V30 6299 O 585.467 -1.87882 -0.491305 0
M  V30 6300 C 582.597 -3.44104 -0.470078 0
M  V30 6301 C 581.551 -4.26623 0.343021 0
M  V30 6302 C 580.877 -5.31482 -0.585756 0
M  V30 6303 C 582.177 -4.98001 1.57456 0
M  V30 6304 H 583.871 -2.75855 1.1638 0
M  V30 6305 H 581.417 -1.3262 0.561069 0
M  V30 6306 H 583.37 -4.12682 -0.852752 0
M  V30 6307 H 582.094 -2.98112 -1.33404 0
M  V30 6308 H 580.753 -3.59707 0.707583 0
M  V30 6309 H 580.401 -4.81741 -1.44686 0
M  V30 6310 H 580.101 -5.87582 -0.0456494 0
M  V30 6311 H 581.625 -6.0292 -0.965375 0
M  V30 6312 H 583.039 -5.59201 1.26359 0
M  V30 6313 H 581.436 -5.63876 2.05339 0
M  V30 6314 H 582.506 -4.25253 2.32997 0
M  V30 6315 N 583.85 -0.624285 -1.44708 0
M  V30 6316 C 585.077 -0.132919 -2.06473 0
M  V30 6317 C 585.493 1.18967 -1.46602 0
M  V30 6318 O 584.85 1.72824 -0.586341 0
M  V30 6319 C 584.901 -0.00465418 -3.615 0
M  V30 6320 O 584.622 -1.27494 -4.19138 0
M  V30 6321 C 586.123 0.516213 -4.40284 0
M  V30 6322 H 583.343 -0.0765201 -0.666623 0
M  V30 6323 H 585.887 -0.856751 -1.85688 0
M  V30 6324 H 584.042 0.669583 -3.8157 0
M  V30 6325 H 584.456 -1.11536 -5.12504 0
M  V30 6326 H 585.93 0.554994 -5.49203 0
M  V30 6327 H 586.407 1.5419 -4.11245 0
M  V30 6328 H 587.013 -0.124542 -4.25118 0
M  V30 6329 N 585.328 1.53329 -0.364422 0
M  V30 6330 C 586.553 2.06132 0.229033 0
M  V30 6331 C 586.978 1.23625 1.41769 0
M  V30 6332 O 586.336 0.255038 1.79497 0
M  V30 6333 C 586.384 3.55544 0.60174 0
M  V30 6334 O 585.488 3.75771 1.69912 0
M  V30 6335 H 584.829 0.663148 0.0336213 0
M  V30 6336 H 587.359 1.97758 -0.524689 0
M  V30 6337 H 587.369 3.98549 0.873073 0
M  V30 6338 H 586.044 4.15039 -0.267421 0
M  V30 6339 H 584.621 3.44663 1.42343 0
M  V30 6340 N 586.806 0.0935595 1.57322 0
M  V30 6341 C 588.054 -0.569383 1.93913 0
M  V30 6342 C 588.375 -1.68817 0.976009 0
M  V30 6343 O 587.645 -1.9588 0.0278099 0
M  V30 6344 H 586.225 -0.21332 0.715894 0
M  V30 6345 H 588.887 0.156531 1.9427 0
M  V30 6346 H 587.983 -0.980577 2.96296 0
M  V30 6347 N 588.284 -1.56567 -0.180126 0
M  V30 6348 C 589.214 -1.98753 -1.22553 0
M  V30 6349 C 590.195 -0.86175 -1.46656 0
M  V30 6350 O 591.38 -1.12719 -1.58139 0
M  V30 6351 C 588.51 -2.33988 -2.56645 0
M  V30 6352 C 587.464 -3.49445 -2.47128 0
M  V30 6353 C 586.79 -3.70397 -3.8563 0
M  V30 6354 C 588.09 -4.83171 -1.98352 0
M  V30 6355 H 589.784 -2.86332 -0.874896 0
M  V30 6356 H 587.33 -1.37757 -0.419414 0
M  V30 6357 H 589.283 -2.62097 -3.29974 0
M  V30 6358 H 588.007 -1.43309 -2.93479 0
M  V30 6359 H 586.666 -3.2145 -1.76254 0
M  V30 6360 H 586.314 -2.77023 -4.19842 0
M  V30 6361 H 586.014 -4.48077 -3.80132 0
M  V30 6362 H 587.538 -4.00897 -4.60558 0
M  V30 6363 H 588.952 -5.10213 -2.61449 0
M  V30 6364 H 587.349 -5.64425 -2.03823 0
M  V30 6365 H 588.419 -4.75753 -0.937402 0
M  V30 6366 N 589.762 0.448376 -1.51087 0
M  V30 6367 C 591.178 0.783984 -1.39017 0
M  V30 6368 C 591.378 1.96087 -0.463904 0
M  V30 6369 O 590.434 2.52357 0.0850534 0
M  V30 6370 C 591.747 1.07471 -2.80839 0
M  V30 6371 C 593.295 1.17981 -2.89913 0
M  V30 6372 C 593.77 1.50354 -4.32617 0
M  V30 6373 N 595.261 1.57301 -4.35673 0
M  V30 6374 C 595.996 1.839 -5.4311 0
M  V30 6375 N 595.492 2.08365 -6.60724 0
M  V30 6376 N 597.285 1.8559 -5.30578 0
M  V30 6377 H 589.436 -0.326881 -2.0987 0
M  V30 6378 H 591.699 -0.0838006 -0.944289 0
M  V30 6379 H 591.405 0.282768 -3.50561 0
M  V30 6380 H 591.279 2.00519 -3.19487 0
M  V30 6381 H 593.666 1.9624 -2.20395 0
M  V30 6382 H 593.747 0.228603 -2.54776 0
M  V30 6383 H 593.391 0.726273 -5.0268 0
M  V30 6384 H 593.321 2.46663 -4.65258 0
M  V30 6385 H 595.812 1.40342 -3.50874 0
M  V30 6386 H 596.125 2.27999 -7.38401 0
M  V30 6387 H 594.47 2.0571 -6.63859 0
M  V30 6388 H 597.661 1.65989 -4.37682 0
M  V30 6389 H 597.834 2.05983 -6.1439 0
M  V30 6390 N 591.24 1.41047 0.703093 0
M  V30 6391 C 592.489 1.39301 1.4587 0
M  V30 6392 C 592.802 0.00267077 1.956 0
M  V30 6393 O 594.008 -0.137414 2.71152 0
M  V30 6394 C 592.464 2.44891 2.63735 0
M  V30 6395 C 592.072 3.89796 2.20824 0
M  V30 6396 C 593.816 2.5227 3.41409 0
M  V30 6397 C 591.723 4.86955 3.35602 0
M  V30 6398 H 590.653 0.518005 0.547893 0
M  V30 6399 H 593.304 1.66839 0.764009 0
M  V30 6400 H 591.686 2.10472 3.35436 0
M  V30 6401 H 592.86 4.33424 1.56461 0
M  V30 6402 H 591.175 3.86008 1.56163 0
M  V30 6403 H 593.772 3.22044 4.26839 0
M  V30 6404 H 594.115 1.55714 3.86081 0
M  V30 6405 H 594.648 2.85742 2.7676 0
M  V30 6406 H 591.387 5.84888 2.9595 0
M  V30 6407 H 590.907 4.47982 3.98839 0
M  V30 6408 H 592.586 5.07361 4.01489 0
M  V30 6409 N 592.718 -0.936591 1.26751 0
M  V30 6410 C 593.651 -2.03619 1.03027 0
M  V30 6411 C 594.629 -1.62534 -0.0464619 0
M  V30 6412 O 595.813 -1.88251 0.0968873 0
M  V30 6413 C 592.94 -3.3402 0.561072 0
M  V30 6414 C 591.986 -3.9408 1.63105 0
M  V30 6415 S 592.819 -4.27782 3.22122 0
M  V30 6416 C 593.975 -5.61277 2.76982 0
M  V30 6417 H 594.208 -2.23429 1.96129 0
M  V30 6418 H 591.741 -1.07857 1.10482 0
M  V30 6419 H 593.699 -4.09424 0.297031 0
M  V30 6420 H 592.36 -3.12147 -0.349741 0
M  V30 6421 H 591.553 -4.88154 1.25386 0
M  V30 6422 H 591.155 -3.25227 1.84671 0
M  V30 6423 H 593.447 -6.40189 2.21731 0
M  V30 6424 H 594.39 -6.03887 3.69766 0
M  V30 6425 H 594.798 -5.21374 2.16402 0
M  V30 6426 N 594.196 -1.08629 -1.14182 0
M  V30 6427 C 595.607 -0.838003 -1.66836 0
M  V30 6428 C 595.958 0.634885 -1.85644 0
M  V30 6429 O 595.083 1.49008 -1.56926 0
M  V30 6430 C 595.678 -1.51465 -3.03058 0
M  V30 6431 C 594.237 -1.31355 -3.52736 0
M  V30 6432 C 593.384 -1.57599 -2.28162 0
M  V30 6433 H 596.335 -1.24656 -0.982165 0
M  V30 6434 H 596.356 -0.943134 -3.68626 0
M  V30 6435 H 595.868 -2.58661 -2.89337 0
M  V30 6436 H 593.969 -0.262384 -3.71675 0
M  V30 6437 H 594.082 -2.04275 -4.33369 0
M  V30 6438 H 592.446 -0.997659 -2.34348 0
M  V30 6439 H 593.229 -2.66006 -2.17015 0
M  V30 6440 N 595.674 1.31259 -0.872281 0
M  V30 6441 C 596.624 2.26 -0.301295 0
M  V30 6442 C 597.608 1.50729 0.562991 0
M  V30 6443 O 598.8 1.72198 0.40949 0
M  V30 6444 C 595.929 3.39724 0.494227 0
M  V30 6445 C 595.015 4.22363 -0.383432 0
M  V30 6446 N 595.406 4.83724 -1.47799 0
M  V30 6447 C 593.704 4.45652 -0.176278 0
M  V30 6448 C 594.405 5.45523 -2.01939 0
M  V30 6449 N 593.381 5.27428 -1.31608 0
M  V30 6450 H 597.183 2.70981 -1.13782 0
M  V30 6451 H 594.697 1.45552 -0.720294 0
M  V30 6452 H 596.694 4.06626 0.919828 0
M  V30 6453 H 595.354 2.96286 1.32834 0
M  V30 6454 H 596.365 4.83313 -1.8609 0
M  V30 6455 H 593.042 4.12845 0.621698 0
M  V30 6456 H 594.432 6.04268 -2.93786 0
M  V30 6457 N 597.152 0.631951 1.44375 0
M  V30 6458 C 598.377 0.142146 2.06912 0
M  V30 6459 C 598.802 -1.17456 1.4692 0
M  V30 6460 O 598.16 -1.72074 0.570975 0
M  V30 6461 C 598.208 0.0417952 3.60576 0
M  V30 6462 O 597.312 -1.00194 4.00044 0
M  V30 6463 H 596.653 0.0851491 0.658518 0
M  V30 6464 H 599.183 0.868863 1.85235 0
M  V30 6465 H 599.193 -0.148517 4.0773 0
M  V30 6466 H 597.868 1.0031 4.03622 0
M  V30 6467 H 596.445 -0.786131 3.64519 0
M  V30 6468 N 598.631 -1.53133 0.372548 0
M  V30 6469 C 599.879 -2.00958 -0.214534 0
M  V30 6470 C 600.2 -1.26135 -1.48711 0
M  V30 6471 O 599.47 -0.376597 -1.92246 0
M  V30 6472 H 598.05 -0.742456 -0.0822664 0
M  V30 6473 H 600.712 -1.88367 0.500385 0
M  V30 6474 H 599.808 -3.09031 -0.436605 0
M  V30 6475 N 600.109 -0.101901 -1.5727 0
M  V30 6476 C 601.357 0.559091 -1.94213 0
M  V30 6477 C 601.678 1.68297 -0.984948 0
M  V30 6478 O 600.948 1.95863 -0.0381975 0
M  V30 6479 H 599.528 0.20952 -0.717015 0
M  V30 6480 H 602.19 -0.166831 -1.94185 0
M  V30 6481 H 601.286 0.96485 -2.96811 0
M  V30 6482 N 601.587 1.56661 0.17182 0
M  V30 6483 C 603.003 1.50768 0.52357 0
M  V30 6484 C 603.203 0.806072 1.84675 0
M  V30 6485 O 602.259 0.366233 2.4983 0
M  V30 6486 C 603.572 2.955 0.556793 0
M  V30 6487 C 605.12 3.06303 0.644029 0
M  V30 6488 C 605.595 4.52492 0.708148 0
M  V30 6489 N 607.086 4.56737 0.771051 0
M  V30 6490 C 607.821 5.67196 0.841229 0
M  V30 6491 N 607.317 6.87287 0.872272 0
M  V30 6492 N 609.11 5.55165 0.88021 0
M  V30 6493 H 601.261 2.00679 -0.695817 0
M  V30 6494 H 603.524 0.914219 -0.250814 0
M  V30 6495 H 603.23 3.49986 -0.346774 0
M  V30 6496 H 603.104 3.50119 1.40346 0
M  V30 6497 H 605.491 2.51851 1.53802 0
M  V30 6498 H 605.572 2.5477 -0.229297 0
M  V30 6499 H 605.216 5.07575 -0.181585 0
M  V30 6500 H 605.146 5.01781 1.59761 0
M  V30 6501 H 607.637 3.70274 0.755364 0
M  V30 6502 H 607.95 7.6722 0.92698 0
M  V30 6503 H 606.295 6.89898 0.840557 0
M  V30 6504 H 609.486 4.60263 0.852956 0
M  V30 6505 H 609.659 6.41271 0.931439 0
M  V30 6506 N 603.065 -0.440357 1.51323 0
M  V30 6507 C 604.311 -1.19181 1.64085 0
M  V30 6508 C 604.644 -1.90936 0.354575 0
M  V30 6509 O 603.919 -1.8347 -0.645675 0
M  V30 6510 C 604.202 -2.2112 2.84215 0
M  V30 6511 C 604.055 -1.53468 4.22809 0
M  V30 6512 C 605.374 -3.22133 2.99864 0
M  V30 6513 H 602.493 -0.431924 0.597169 0
M  V30 6514 H 605.135 -0.481443 1.83799 0
M  V30 6515 H 603.285 -2.81703 2.67537 0
M  V30 6516 H 604.957 -0.962455 4.51148 0
M  V30 6517 H 603.2 -0.837086 4.25647 0
M  V30 6518 H 603.871 -2.27694 5.02852 0
M  V30 6519 H 606.347 -2.71601 3.15233 0
M  V30 6520 H 605.223 -3.90756 3.85488 0
M  V30 6521 H 605.484 -3.88061 2.11804 0
M  V30 6522 N 604.543 -1.41418 -0.695603 0
M  V30 6523 C 605.791 -1.40496 -1.45277 0
M  V30 6524 C 606.112 -0.0149538 -1.94994 0
M  V30 6525 O 605.382 0.9432 -1.71699 0
M  V30 6526 H 603.962 -0.517147 -0.539044 0
M  V30 6527 H 606.624 -1.76656 -0.823321 0
M  V30 6528 H 605.72 -2.09214 -2.31595 0
M  V30 6529 N 606.021 0.929856 -1.27246 0
M  V30 6530 C 606.968 2.03017 -1.09785 0
M  V30 6531 C 607.938 1.661 0.000456744 0
M  V30 6532 O 609.123 1.90116 -0.161462 0
M  V30 6533 C 606.263 3.36878 -0.748816 0
M  V30 6534 C 605.376 3.86763 -1.92453 0
M  V30 6535 C 604.511 5.09061 -1.51758 0
M  V30 6536 C 603.55 5.51237 -2.66091 0
M  V30 6537 N 602.687 6.64732 -2.25999 0
M  V30 6538 H 607.527 2.17285 -2.03939 0
M  V30 6539 H 605.064 1.06448 -1.01524 0
M  V30 6540 H 607.022 4.13855 -0.527283 0
M  V30 6541 H 605.652 3.22424 0.155771 0
M  V30 6542 H 604.704 3.06086 -2.25867 0
M  V30 6543 H 606.016 4.13994 -2.78227 0
M  V30 6544 H 605.17 5.93532 -1.25716 0
M  V30 6545 H 603.909 4.83602 -0.630896 0
M  V30 6546 H 602.914 4.65316 -2.92849 0
M  V30 6547 H 604.139 5.78692 -3.55377 0
M  V30 6548 H 602.085 6.40935 -1.3978 0
M  V30 6549 H 602.002 6.91607 -3.05313 0
M  V30 6550 H 603.27 7.52549 -2.03199 0
M  V30 6551 N 607.499 1.09233 1.13605 0
M  V30 6552 C 608.747 0.825525 1.84471 0
M  V30 6553 C 609.068 -0.650702 1.83823 0
M  V30 6554 O 608.338 -1.47204 1.29259 0
M  V30 6555 H 606.918 0.3024 0.683054 0
M  V30 6556 H 609.58 1.38006 1.37624 0
M  V30 6557 H 608.676 1.17727 2.89045 0
M  V30 6558 N 608.977 -1.30795 0.87923 0
M  V30 6559 C 610.226 -1.95636 0.490875 0
M  V30 6560 C 610.539 -1.70214 -0.963674 0
M  V30 6561 O 611.745 -2.28991 -1.45861 0
M  V30 6562 C 610.201 -3.50271 0.826929 0
M  V30 6563 C 609.809 -3.84521 2.29886 0
M  V30 6564 C 611.553 -4.21456 0.507494 0
M  V30 6565 C 609.46 -5.32309 2.57685 0
M  V30 6566 H 608.39 -0.732238 0.179841 0
M  V30 6567 H 611.041 -1.48829 1.07341 0
M  V30 6568 H 609.423 -3.9562 0.173542 0
M  V30 6569 H 610.597 -3.50102 2.99609 0
M  V30 6570 H 608.912 -3.26425 2.58526 0
M  V30 6571 H 611.509 -5.30199 0.692293 0
M  V30 6572 H 611.852 -4.12614 -0.552718 0
M  V30 6573 H 612.385 -3.81772 1.11782 0
M  V30 6574 H 609.124 -5.46195 3.62424 0
M  V30 6575 H 608.644 -5.68048 1.92566 0
M  V30 6576 H 610.323 -5.99678 2.42889 0
M  V30 6577 N 610.455 -0.639598 -1.44038 0
M  V30 6578 C 611.685 -0.154586 -2.06021 0
M  V30 6579 C 612.093 1.17951 -1.47933 0
M  V30 6580 O 611.436 1.73627 -0.59994 0
M  V30 6581 C 611.498 0.0255459 -3.59491 0
M  V30 6582 C 611.162 -1.2317 -4.40089 0
M  V30 6583 C 612.159 -2.15735 -4.73027 0
M  V30 6584 C 609.844 -1.46949 -4.80324 0
M  V30 6585 C 611.838 -3.30382 -5.45093 0
M  V30 6586 C 609.525 -2.61891 -5.52138 0
M  V30 6587 C 610.523 -3.53433 -5.84443 0
M  V30 6588 O 610.211 -4.6637 -6.54793 0
M  V30 6589 H 609.943 -0.0808543 -0.671147 0
M  V30 6590 H 612.497 -0.876541 -1.85758 0
M  V30 6591 H 610.727 0.802733 -3.78276 0
M  V30 6592 H 612.416 0.466184 -4.03214 0
M  V30 6593 H 613.182 -1.98602 -4.42473 0
M  V30 6594 H 609.061 -0.765815 -4.54595 0
M  V30 6595 H 612.605 -4.01856 -5.70226 0
M  V30 6596 H 608.502 -2.78964 -5.82108 0
M  V30 6597 H 609.27 -4.6546 -6.73267 0
M  V30 6598 N 611.933 1.52934 -0.380664 0
M  V30 6599 C 613.18 2.01467 0.204278 0
M  V30 6600 C 613.508 1.26744 1.47533 0
M  V30 6601 O 612.763 0.353723 1.92477 0
M  V30 6602 C 613.062 3.5349 0.527199 0
M  V30 6603 C 612.728 4.46171 -0.651295 0
M  V30 6604 C 611.39 4.71227 -0.974619 0
M  V30 6605 C 613.742 5.00909 -1.44012 0
M  V30 6606 C 611.07 5.4827 -2.08847 0
M  V30 6607 C 613.422 5.7917 -2.5445 0
M  V30 6608 C 612.086 6.02507 -2.87301 0
M  V30 6609 H 611.356 0.73722 0.0747504 0
M  V30 6610 H 614.003 1.84411 -0.516234 0
M  V30 6611 H 612.308 3.68574 1.32892 0
M  V30 6612 H 614.005 3.88529 0.992283 0
M  V30 6613 H 610.595 4.26829 -0.389276 0
M  V30 6614 H 614.779 4.81485 -1.20357 0
M  V30 6615 H 610.035 5.64567 -2.34679 0
M  V30 6616 H 614.209 6.20588 -3.1598 0
M  V30 6617 H 611.836 6.61989 -3.7373 0
M  V30 6618 N 613.412 0.11024 1.57214 0
M  V30 6619 C 614.375 -0.828808 2.1369 0
M  V30 6620 C 615.375 -1.20059 1.06969 0
M  V30 6621 O 616.565 -1.12754 1.32786 0
M  V30 6622 C 613.697 -2.11959 2.66994 0
M  V30 6623 H 614.89 -0.338146 2.97988 0
M  V30 6624 H 612.443 -0.138913 1.55681 0
M  V30 6625 H 613.178 -2.65476 1.8626 0
M  V30 6626 H 612.963 -1.86258 3.45037 0
M  V30 6627 H 614.453 -2.79105 3.10629 0
M  V30 6628 N 614.89 -1.56749 -0.16351 0
M  V30 6629 C 616.115 -1.86938 -0.898264 0
M  V30 6630 C 616.54 -0.697456 -1.74692 0
M  V30 6631 O 615.898 0.353327 -1.77824 0
M  V30 6632 C 615.946 -3.15599 -1.74441 0
M  V30 6633 O 615.05 -2.98371 -2.8469 0
M  V30 6634 H 614.391 -0.614659 -0.251178 0
M  V30 6635 H 616.921 -2.03979 -0.159298 0
M  V30 6636 H 616.931 -3.47202 -2.14277 0
M  V30 6637 H 615.606 -4.00505 -1.1211 0
M  V30 6638 H 614.183 -2.7814 -2.4838 0
M  V30 6639 N 616.368 0.432326 -1.51554 0
M  V30 6640 C 617.278 1.55023 -1.76082 0
M  V30 6641 C 618.294 1.61593 -0.645265 0
M  V30 6642 O 619.47 1.78742 -0.928086 0
M  V30 6643 C 616.535 2.90964 -1.88523 0
M  V30 6644 C 615.596 2.9447 -3.12388 0
M  V30 6645 C 614.829 4.23926 -3.24225 0
M  V30 6646 O 615.052 5.16576 -2.4188 0
M  V30 6647 O 613.986 4.33818 -4.17235 0
M  V30 6648 H 617.812 1.37238 -2.70923 0
M  V30 6649 H 615.397 0.615845 -1.36117 0
M  V30 6650 H 617.279 3.71633 -1.98662 0
M  V30 6651 H 615.954 3.08865 -0.9687 0
M  V30 6652 H 614.861 2.12737 -3.07723 0
M  V30 6653 H 616.194 2.81514 -4.03746 0
M  V30 6654 N 617.846 1.41785 0.688094 0
M  V30 6655 C 618.794 1.44436 1.82321 0
M  V30 6656 C 619.788 0.321544 1.6632 0
M  V30 6657 O 620.994 0.493931 1.73091 0
M  V30 6658 H 617.369 0.452084 0.600936 0
M  V30 6659 H 619.34 2.40087 1.77202 0
M  V30 6660 C 618.089 1.35071 3.20392 0
M  V30 6661 H 617.412 2.2076 3.33324 0
M  V30 6662 H 618.852 1.40988 3.99873 0
M  V30 6663 C 617.311 0.0639127 3.36839 0
M  V30 6664 O 617.841 -0.888495 3.91751 0
M  V30 6665 N 616.047 -0.0146114 2.90596 0
M  V30 6666 H 615.594 0.761191 2.46097 0
M  V30 6667 H 615.552 -0.874988 3.01979 0
M  V30 6668 N 619.324 -0.923095 1.27737 0
M  V30 6669 C 620.549 -1.71054 1.17283 0
M  V30 6670 C 620.974 -1.86208 -0.266153 0
M  V30 6671 O 620.332 -1.36545 -1.1927 0
M  V30 6672 C 620.38 -3.0854 1.86642 0
M  V30 6673 O 619.484 -3.95528 1.16752 0
M  V30 6674 H 618.825 -0.524136 0.407649 0
M  V30 6675 H 621.355 -1.15487 1.6889 0
M  V30 6676 H 621.365 -3.58828 1.94182 0
M  V30 6677 H 620.04 -2.96828 2.91317 0
M  V30 6678 H 618.617 -3.53967 1.17312 0
M  V30 6679 N 620.802 -1.09834 -1.13024 0
M  V30 6680 C 621.749 -0.741522 -2.18564 0
M  V30 6681 C 622.719 0.279236 -1.63736 0
M  V30 6682 O 623.904 0.159923 -1.90129 0
M  V30 6683 C 621.044 -0.17277 -3.44667 0
M  V30 6684 C 620.157 -1.24808 -4.13578 0
M  V30 6685 C 619.292 -0.641631 -5.27311 0
M  V30 6686 C 618.331 -1.69795 -5.88078 0
M  V30 6687 N 617.468 -1.11223 -6.93234 0
M  V30 6688 H 622.308 -1.64576 -2.48432 0
M  V30 6689 H 619.845 -0.822174 -1.21978 0
M  V30 6690 H 621.803 0.17482 -4.16834 0
M  V30 6691 H 620.433 0.694725 -3.15235 0
M  V30 6692 H 619.485 -1.71288 -3.39653 0
M  V30 6693 H 620.797 -2.04795 -4.54819 0
M  V30 6694 H 619.951 -0.243128 -6.06213 0
M  V30 6695 H 618.69 0.189742 -4.87331 0
M  V30 6696 H 617.695 -2.10595 -5.07868 0
M  V30 6697 H 618.92 -2.53206 -6.3013 0
M  V30 6698 H 616.866 -0.302208 -6.55304 0
M  V30 6699 H 616.783 -1.84901 -7.3304 0
M  V30 6700 H 618.051 -0.740068 -7.75979 0
M  V30 6701 N 622.28 1.30327 -0.886154 0
M  V30 6702 C 623.505 2.0079 -0.519425 0
M  V30 6703 C 623.93 1.65979 0.885013 0
M  V30 6704 O 623.288 0.877043 1.58675 0
M  V30 6705 C 623.336 3.53686 -0.702758 0
M  V30 6706 O 622.44 4.11637 0.250828 0
M  V30 6707 H 621.781 0.63171 -0.204544 0
M  V30 6708 H 624.311 1.66145 -1.19402 0
M  V30 6709 H 624.321 4.03531 -0.602207 0
M  V30 6710 H 622.996 3.78361 -1.72673 0
M  V30 6711 H 621.573 3.72755 0.103873 0
M  V30 6712 N 623.758 0.647228 1.43697 0
M  V30 6713 C 624.721 -0.0385101 2.29168 0
M  V30 6714 C 625.721 -0.756487 1.41894 0
M  V30 6715 O 626.911 -0.598641 1.63591 0
M  V30 6716 C 624.043 -1.06524 3.23829 0
M  V30 6717 H 625.236 0.713445 2.9129 0
M  V30 6718 H 622.789 0.408153 1.50877 0
M  V30 6719 H 623.524 -1.84664 2.66589 0
M  V30 6720 H 623.309 -0.554147 3.88164 0
M  V30 6721 H 624.799 -1.54432 3.87996 0
M  V30 6722 N 625.236 -1.5273 0.388769 0
M  V30 6723 C 626.484 -2.01174 -0.193208 0
M  V30 6724 C 626.805 -1.27705 -1.47365 0
M  V30 6725 O 626.075 -0.396966 -1.91836 0
M  V30 6726 H 624.655 -0.743287 -0.0743871 0
M  V30 6727 H 627.317 -1.87826 0.520336 0
M  V30 6728 H 626.413 -3.09477 -0.403803 0
M  V30 6729 N 626.714 -0.118576 -1.57153 0
M  V30 6730 C 627.944 0.546466 -1.99242 0
M  V30 6731 C 628.352 1.60791 -0.997148 0
M  V30 6732 O 627.695 1.83691 0.0181745 0
M  V30 6733 C 627.757 1.23167 -3.37743 0
M  V30 6734 C 627.421 0.318226 -4.55891 0
M  V30 6735 C 628.418 -0.442988 -5.18009 0
M  V30 6736 C 626.103 0.229421 -5.01776 0
M  V30 6737 C 628.097 -1.28074 -6.244 0
M  V30 6738 C 625.784 -0.611966 -6.08028 0
M  V30 6739 C 626.782 -1.36568 -6.69207 0
M  V30 6740 O 626.47 -2.1931 -7.73407 0
M  V30 6741 H 626.202 0.149297 -0.659307 0
M  V30 6742 H 628.756 -0.201603 -2.04408 0
M  V30 6743 H 626.986 2.0268 -3.29329 0
M  V30 6744 H 628.675 1.79358 -3.64123 0
M  V30 6745 H 629.441 -0.38425 -4.83475 0
M  V30 6746 H 625.32 0.805771 -4.53903 0
M  V30 6747 H 628.864 -1.86952 -6.72082 0
M  V30 6748 H 624.761 -0.6721 -6.41991 0
M  V30 6749 H 625.529 -2.12247 -7.90502 0
M  V30 6750 N 628.193 1.56834 0.155195 0
M  V30 6751 C 629.439 1.83169 0.870467 0
M  V30 6752 C 629.772 0.698929 1.81187 0
M  V30 6753 O 629.047 -0.298035 1.92203 0
M  V30 6754 C 629.33 3.19965 1.65211 0
M  V30 6755 C 629.183 4.43792 0.732744 0
M  V30 6756 C 630.502 3.53885 2.61636 0
M  V30 6757 H 627.621 0.666288 0.315006 0
M  V30 6758 H 630.263 1.89513 0.135988 0
M  V30 6759 H 628.413 3.14687 2.27825 0
M  V30 6760 H 630.085 4.61148 0.118236 0
M  V30 6761 H 628.328 4.3378 0.0417906 0
M  V30 6762 H 628.999 5.36095 1.31552 0
M  V30 6763 H 631.475 3.5972 2.09143 0
M  V30 6764 H 630.351 4.50648 3.13381 0
M  V30 6765 H 630.612 2.79418 3.42605 0
M  V30 6766 N 629.671 -0.424282 1.51781 0
M  V30 6767 C 630.92 -1.16961 1.64326 0
M  V30 6768 C 631.233 -1.92035 0.371749 0
M  V30 6769 O 632.439 -2.68873 0.37676 0
M  V30 6770 C 630.895 -2.12782 2.90262 0
M  V30 6771 C 630.503 -1.43295 4.24465 0
M  V30 6772 C 632.247 -2.87667 3.12166 0
M  V30 6773 C 630.154 -2.37676 5.41538 0
M  V30 6774 H 629.084 -0.440293 0.612093 0
M  V30 6775 H 631.735 -0.435431 1.78259 0
M  V30 6776 H 630.117 -2.8969 2.69992 0
M  V30 6777 H 631.291 -0.718564 4.55163 0
M  V30 6778 H 629.606 -0.805118 4.08542 0
M  V30 6779 H 632.203 -3.58395 3.96808 0
M  V30 6780 H 632.546 -3.49758 2.25776 0
M  V30 6781 H 633.079 -2.17863 3.32837 0
M  V30 6782 H 629.818 -1.80255 6.30229 0
M  V30 6783 H 629.338 -3.07132 5.15199 0
M  V30 6784 H 631.017 -2.98529 5.74012 0
M  V30 6785 N 631.149 -1.42148 -0.680565 0
M  V30 6786 C 632.397 -1.42029 -1.43779 0
M  V30 6787 C 632.718 -0.0356347 -1.94967 0
M  V30 6788 O 631.988 0.924936 -1.7269 0
M  V30 6789 H 630.568 -0.522835 -0.533529 0
M  V30 6790 H 633.23 -1.7752 -0.804538 0
M  V30 6791 H 632.326 -2.11658 -2.29363 0
M  V30 6792 N 632.627 0.916307 -1.28225 0
M  V30 6793 C 633.56 2.01954 -1.06254 0
M  V30 6794 C 634.538 1.62587 0.0205983 0
M  V30 6795 O 635.722 1.88073 -0.126824 0
M  V30 6796 C 632.849 3.33086 -0.614141 0
M  V30 6797 C 631.895 3.91435 -1.69354 0
M  V30 6798 S 632.728 4.22603 -3.28887 0
M  V30 6799 C 633.884 5.568 -2.85876 0
M  V30 6800 H 634.117 2.20281 -1.99659 0
M  V30 6801 H 631.65 1.06085 -1.12184 0
M  V30 6802 H 633.608 4.089 -0.36213 0
M  V30 6803 H 632.269 3.12664 0.300036 0
M  V30 6804 H 631.462 4.86098 -1.33136 0
M  V30 6805 H 631.064 3.22248 -1.89821 0
M  V30 6806 H 633.356 6.3658 -2.31888 0
M  V30 6807 H 634.299 5.97927 -3.79326 0
M  V30 6808 H 634.707 5.17865 -2.24669 0
M  V30 6809 N 634.105 1.10431 1.1244 0
M  V30 6810 C 635.052 0.753103 2.18167 0
M  V30 6811 C 636.022 -0.270549 1.63882 0
M  V30 6812 O 637.207 -0.149837 1.90211 0
M  V30 6813 C 634.347 0.191046 3.44571 0
M  V30 6814 C 633.46 1.26999 4.12911 0
M  V30 6815 C 632.595 0.669586 5.26963 0
M  V30 6816 C 631.634 1.72912 5.87169 0
M  V30 6817 N 630.771 1.14898 6.92635 0
M  V30 6818 H 635.611 1.65892 2.47556 0
M  V30 6819 H 633.148 0.828631 1.21541 0
M  V30 6820 H 635.106 -0.152712 4.1692 0
M  V30 6821 H 633.736 -0.677997 3.15599 0
M  V30 6822 H 632.788 1.73087 3.3874 0
M  V30 6823 H 634.1 2.07204 4.53727 0
M  V30 6824 H 633.254 0.275274 6.06075 0
M  V30 6825 H 631.993 -0.163895 4.87425 0
M  V30 6826 H 630.998 2.13286 5.06744 0
M  V30 6827 H 632.223 2.56544 6.28778 0
M  V30 6828 H 630.169 0.336956 6.55134 0
M  V30 6829 H 630.086 1.88786 7.32049 0
M  V30 6830 H 631.354 0.78121 7.75576 0
M  V30 6831 N 635.583 -1.29855 0.893053 0
M  V30 6832 C 636.823 -1.97612 0.522399 0
M  V30 6833 C 637.187 -1.68903 -0.913 0
M  V30 6834 O 638.388 -2.30059 -1.39019 0
M  V30 6835 C 636.659 -3.48356 0.79893 0
M  V30 6836 S 638.218 -4.35568 0.531588 0
M  V30 6837 H 635.036 -0.684005 0.194058 0
M  V30 6838 H 637.638 -1.57803 1.15406 0
M  V30 6839 H 636.342 -3.66743 1.84196 0
M  V30 6840 H 635.873 -3.93094 0.155133 0
M  V30 6841 H 637.888 -4.92232 -0.626295 0
M  V30 6842 N 637.061 -0.65484 -1.43351 0
M  V30 6843 C 638.309 -0.168559 -2.01396 0
M  V30 6844 C 638.63 1.22235 -1.51933 0
M  V30 6845 O 637.9 1.81685 -0.732627 0
M  V30 6846 H 636.48 -0.0593244 -0.744641 0
M  V30 6847 H 639.142 -0.846871 -1.75539 0
M  V30 6848 H 638.238 -0.154428 -3.11718 0
M  V30 6849 N 638.539 1.52521 -0.396863 0
M  V30 6850 C 639.502 2.2527 0.422604 0
M  V30 6851 C 640.502 1.27184 0.983913 0
M  V30 6852 O 641.692 1.51222 0.864723 0
M  V30 6853 C 638.824 3.01356 1.59365 0
M  V30 6854 H 640.017 2.99133 -0.214416 0
M  V30 6855 H 637.57 1.55587 -0.149128 0
M  V30 6856 H 638.305 2.31813 2.26789 0
M  V30 6857 H 638.09 3.73357 1.19779 0
M  V30 6858 H 639.58 3.56571 2.17363 0
M  V30 6859 N 640.017 0.126909 1.57088 0
M  V30 6860 C 640.967 -0.831678 2.1229 0
M  V30 6861 C 641.951 -1.22292 1.04564 0
M  V30 6862 O 643.143 -1.19269 1.30782 0
M  V30 6863 C 640.272 -2.07866 2.73215 0
M  V30 6864 C 639.358 -1.71143 3.88035 0
M  V30 6865 N 639.749 -1.05136 4.94753 0
M  V30 6866 C 638.047 -2.00549 3.98367 0
M  V30 6867 C 638.748 -0.877257 5.75047 0
M  V30 6868 N 637.724 -1.40477 5.25135 0
M  V30 6869 H 641.526 -0.317926 2.92175 0
M  V30 6870 H 639.04 -0.0753052 1.62225 0
M  V30 6871 H 641.037 -2.77516 3.11111 0
M  V30 6872 H 639.697 -2.59778 1.94796 0
M  V30 6873 H 640.708 -0.71442 5.12949 0
M  V30 6874 H 637.385 -2.54452 3.30999 0
M  V30 6875 H 638.775 -0.358536 6.70943 0
M  V30 6876 N 641.495 -1.56914 -0.146875 0
M  V30 6877 C 642.445 -1.94693 -1.18653 0
M  V30 6878 C 643.429 -0.81821 -1.38543 0
M  V30 6879 O 644.621 -1.08167 -1.40103 0
M  V30 6880 C 641.75 -2.33117 -2.52014 0
M  V30 6881 C 640.836 -3.5256 -2.35717 0
M  V30 6882 N 641.227 -4.69091 -1.89175 0
M  V30 6883 C 639.525 -3.57647 -2.66467 0
M  V30 6884 C 640.226 -5.51187 -1.85924 0
M  V30 6885 N 639.202 -4.92899 -2.29242 0
M  V30 6886 H 643.004 -2.82264 -0.81879 0
M  V30 6887 H 640.518 -1.58474 -0.354929 0
M  V30 6888 H 642.515 -2.58387 -3.27172 0
M  V30 6889 H 641.175 -1.46898 -2.89571 0
M  V30 6890 H 642.186 -4.92844 -1.59139 0
M  V30 6891 H 638.863 -2.81967 -3.07898 0
M  V30 6892 H 640.253 -6.54613 -1.51431 0
M  V30 6893 N 642.974 0.416227 -1.52004 0
M  V30 6894 C 644.22 1.16555 -1.6596 0
M  V30 6895 C 644.553 1.90347 -0.384906 0
M  V30 6896 O 643.828 1.84474 0.616405 0
M  V30 6897 C 644.111 2.1657 -2.87696 0
M  V30 6898 C 643.964 1.46722 -4.25197 0
M  V30 6899 C 645.283 3.17321 -3.04951 0
M  V30 6900 H 642.402 0.422369 -0.603965 0
M  V30 6901 H 645.044 0.452141 -1.84542 0
M  V30 6902 H 643.194 2.77411 -2.71985 0
M  V30 6903 H 644.866 0.89056 -4.52622 0
M  V30 6904 H 643.109 0.769263 -4.26925 0
M  V30 6905 H 643.78 2.19665 -5.0641 0
M  V30 6906 H 646.256 2.66552 -3.19514 0
M  V30 6907 H 645.132 3.84573 -3.91656 0
M  V30 6908 H 645.393 3.84643 -2.17951 0
M  V30 6909 N 644.452 1.42507 0.673017 0
M  V30 6910 C 645.7 1.42789 1.43023 0
M  V30 6911 C 646.021 0.0459738 1.94946 0
M  V30 6912 O 645.291 -0.915765 1.73178 0
M  V30 6913 H 643.871 0.525657 0.530748 0
M  V30 6914 H 646.533 1.77944 0.795113 0
M  V30 6915 H 645.629 2.12872 2.28237 0
M  V30 6916 N 645.93 -0.909495 1.28709 0
M  V30 6917 C 647.16 -1.69027 1.188 0
M  V30 6918 C 647.568 -1.87469 -0.255329 0
M  V30 6919 O 646.911 -1.40458 -1.18394 0
M  V30 6920 C 646.973 -3.10064 1.81936 0
M  V30 6921 C 646.637 -3.14891 3.31199 0
M  V30 6922 C 647.634 -2.95768 4.27571 0
M  V30 6923 C 645.319 -3.37269 3.7223 0
M  V30 6924 C 647.313 -2.98942 5.6295 0
M  V30 6925 C 645 -3.40074 5.07733 0
M  V30 6926 C 645.998 -3.20932 6.02903 0
M  V30 6927 O 645.686 -3.23507 7.35934 0
M  V30 6928 H 645.418 -0.535014 0.413203 0
M  V30 6929 H 647.972 -1.14645 1.70428 0
M  V30 6930 H 646.202 -3.66005 1.24808 0
M  V30 6931 H 647.891 -3.70185 1.66486 0
M  V30 6932 H 648.657 -2.78302 3.97206 0
M  V30 6933 H 644.536 -3.51212 2.98615 0
M  V30 6934 H 648.08 -2.83919 6.37209 0
M  V30 6935 H 643.977 -3.5707 5.37747 0
M  V30 6936 H 644.745 -3.3984 7.44615 0
M  V30 6937 N 647.408 -1.11026 -1.11852 0
M  V30 6938 C 648.341 -0.708501 -2.16923 0
M  V30 6939 C 649.319 0.293196 -1.59935 0
M  V30 6940 O 650.503 0.190641 -1.87533 0
M  V30 6941 C 647.63 -0.0463705 -3.38668 0
M  V30 6942 C 646.676 -1.01252 -4.14307 0
M  V30 6943 S 647.509 -2.53291 -4.71809 0
M  V30 6944 C 648.665 -1.88366 -5.96883 0
M  V30 6945 H 648.898 -1.59854 -2.50667 0
M  V30 6946 H 646.431 -0.927869 -1.2341 0
M  V30 6947 H 648.389 0.329314 -4.09177 0
M  V30 6948 H 647.05 0.820562 -3.03192 0
M  V30 6949 H 646.243 -0.496596 -5.01548 0
M  V30 6950 H 645.845 -1.33042 -3.49537 0
M  V30 6951 H 648.137 -1.21753 -6.6647 0
M  V30 6952 H 649.08 -2.73588 -6.53112 0
M  V30 6953 H 649.488 -1.34562 -5.48227 0
M  V30 6954 N 648.886 1.2938 -0.899927 0
M  V30 6955 C 650.133 1.9555 -0.525963 0
M  V30 6956 C 650.461 1.70945 0.927789 0
M  V30 6957 O 649.716 1.01545 1.67293 0
M  V30 6958 C 650.015 3.49114 -0.765113 0
M  V30 6959 C 649.681 3.93796 -2.19626 0
M  V30 6960 C 648.343 4.05707 -2.58758 0
M  V30 6961 C 650.695 4.16883 -3.12823 0
M  V30 6962 C 648.023 4.38074 -3.90267 0
M  V30 6963 C 650.375 4.50725 -4.4388 0
M  V30 6964 C 649.039 4.60845 -4.82885 0
M  V30 6965 H 648.309 0.715569 -0.192463 0
M  V30 6966 H 650.956 1.53972 -1.13863 0
M  V30 6967 H 649.261 3.91738 -0.069531 0
M  V30 6968 H 650.958 3.98409 -0.455144 0
M  V30 6969 H 647.548 3.85042 -1.88256 0
M  V30 6970 H 651.732 4.07147 -2.83804 0
M  V30 6971 H 646.988 4.44112 -4.20207 0
M  V30 6972 H 651.162 4.67538 -5.16121 0
M  V30 6973 H 648.789 4.85681 -5.84823 0
M  V30 6974 N 650.364 0.662433 1.43002 0
M  V30 6975 C 651.294 -0.00979809 2.33498 0
M  V30 6976 C 652.275 -0.802329 1.49989 0
M  V30 6977 O 653.46 -0.761964 1.78627 0
M  V30 6978 C 650.59 -0.970446 3.33466 0
M  V30 6979 C 649.544 -0.287383 4.27034 0
M  V30 6980 C 648.87 -1.36012 5.17112 0
M  V30 6981 C 650.17 0.82595 5.15728 0
M  V30 6982 H 651.864 0.745959 2.89958 0
M  V30 6983 H 649.41 0.360172 1.39423 0
M  V30 6984 H 651.363 -1.44971 3.95679 0
M  V30 6985 H 650.087 -1.75748 2.75282 0
M  V30 6986 H 648.746 0.17152 3.66199 0
M  V30 6987 H 648.394 -2.13882 4.55262 0
M  V30 6988 H 648.094 -0.908276 5.80538 0
M  V30 6989 H 649.618 -1.84056 5.82199 0
M  V30 6990 H 651.032 0.42845 5.71697 0
M  V30 6991 H 649.429 1.20282 5.87922 0
M  V30 6992 H 650.499 1.68003 4.54866 0
M  V30 6993 N 651.842 -1.52309 0.404946 0
M  V30 6994 C 653.09 -2.01368 -0.17186 0
M  V30 6995 C 653.411 -1.29261 -1.46002 0
M  V30 6996 O 652.681 -0.41729 -1.91404 0
M  V30 6997 H 651.261 -0.744034 -0.0664993 0
M  V30 6998 H 653.923 -1.87263 0.540228 0
M  V30 6999 H 653.019 -3.09888 -0.370957 0
M  V30 7000 N 653.32 -0.135238 -1.57019 0
M  V30 7001 C 654.23 0.822226 -2.19719 0
M  V30 7002 C 655.246 1.28057 -1.17802 0
M  V30 7003 O 656.422 1.3402 -1.50335 0
M  V30 7004 C 653.487 2.0484 -2.79717 0
M  V30 7005 C 652.548 1.64042 -3.96723 0
M  V30 7006 C 651.781 2.80814 -4.53849 0
M  V30 7007 O 652.004 3.967 -4.0986 0
M  V30 7008 O 650.938 2.56963 -5.44292 0
M  V30 7009 H 654.764 0.318552 -3.02025 0
M  V30 7010 H 652.349 0.0912021 -1.49121 0
M  V30 7011 H 654.231 2.76622 -3.17897 0
M  V30 7012 H 652.906 2.54182 -2.00432 0
M  V30 7013 H 651.813 0.893182 -3.63281 0
M  V30 7014 H 653.146 1.19426 -4.77492 0
M  V30 7015 N 654.798 1.5699 0.138552 0
M  V30 7016 C 656.044 1.84081 0.85099 0
M  V30 7017 C 656.377 0.718107 1.80435 0
M  V30 7018 O 655.652 -0.277633 1.92508 0
M  V30 7019 C 655.935 3.21699 1.61808 0
M  V30 7020 C 655.788 4.44544 0.685633 0
M  V30 7021 C 657.107 3.5664 2.57868 0
M  V30 7022 H 654.226 0.669592 0.307922 0
M  V30 7023 H 656.868 1.89646 0.11588 0
M  V30 7024 H 655.018 3.17086 2.24474 0
M  V30 7025 H 656.69 4.61248 0.0693179 0
M  V30 7026 H 654.933 4.338 -0.00421993 0
M  V30 7027 H 655.604 5.3746 1.25858 0
M  V30 7028 H 658.08 3.61918 2.05316 0
M  V30 7029 H 656.956 4.53946 3.08584 0
M  V30 7030 H 657.217 2.83036 3.39622 0
M  V30 7031 N 656.276 -0.40816 1.52223 0
M  V30 7032 C 657.239 -1.48 1.7501 0
M  V30 7033 C 658.239 -1.48367 0.619996 0
M  V30 7034 O 659.429 -1.49874 0.887881 0
M  V30 7035 C 656.561 -2.87403 1.83336 0
M  V30 7036 H 657.754 -1.29086 2.70697 0
M  V30 7037 H 655.307 -0.638715 1.42654 0
M  V30 7038 H 656.042 -3.11686 0.895677 0
M  V30 7039 H 655.827 -2.8854 2.65494 0
M  V30 7040 H 657.317 -3.65103 2.02705 0
M  V30 7041 N 657.755 -1.42862 -0.66545 0
M  V30 7042 C 658.685 -1.49867 -1.79059 0
M  V30 7043 C 659.666 -0.354394 -1.66367 0
M  V30 7044 O 660.851 -0.569969 -1.85647 0
M  V30 7045 C 657.981 -1.40943 -3.17415 0
M  V30 7046 C 656.935 -2.53495 -3.44854 0
M  V30 7047 C 656.261 -2.29626 -4.82883 0
M  V30 7048 C 657.561 -3.95781 -3.40815 0
M  V30 7049 H 659.255 -2.44037 -1.73453 0
M  V30 7050 H 656.801 -1.17456 -0.833071 0
M  V30 7051 H 658.754 -1.4445 -3.95869 0
M  V30 7052 H 657.478 -0.432716 -3.23721 0
M  V30 7053 H 656.137 -2.4932 -2.68766 0
M  V30 7054 H 655.785 -1.30226 -4.8585 0
M  V30 7055 H 655.485 -3.05065 -5.02204 0
M  V30 7056 H 657.009 -2.34897 -5.63609 0
M  V30 7057 H 658.423 -4.01508 -4.09224 0
M  V30 7058 H 656.82 -4.71148 -3.71672 0
M  V30 7059 H 657.89 -4.21786 -2.39216 0
M  V30 7060 N 659.233 0.902656 -1.29189 0
M  V30 7061 C 660.481 1.6496 -1.16758 0
M  V30 7062 C 660.802 1.92952 0.28188 0
M  V30 7063 O 660.072 1.55351 1.19344 0
M  V30 7064 H 658.652 0.611447 -0.429118 0
M  V30 7065 H 661.314 1.0825 -1.62074 0
M  V30 7066 H 660.41 2.60728 -1.71544 0
M  V30 7067 N 660.711 1.11618 1.11262 0
M  V30 7068 C 662.127 0.850468 1.35053 0
M  V30 7069 C 662.327 -0.523868 1.94571 0
M  V30 7070 O 661.383 -1.2743 2.17986 0
M  V30 7071 C 662.696 1.96005 2.28041 0
M  V30 7072 C 664.244 1.98993 2.416 0
M  V30 7073 C 664.719 3.0916 3.37911 0
M  V30 7074 N 666.21 3.08547 3.45475 0
M  V30 7075 C 666.945 3.9043 4.19943 0
M  V30 7076 N 666.441 4.8228 4.97371 0
M  V30 7077 N 668.234 3.786 4.15474 0
M  V30 7078 H 660.385 2.00184 0.709932 0
M  V30 7079 H 662.648 0.870635 0.375099 0
M  V30 7080 H 662.354 2.9499 1.91503 0
M  V30 7081 H 662.228 1.85782 3.28275 0
M  V30 7082 H 664.615 1.00633 2.77411 0
M  V30 7083 H 664.696 2.13292 1.4121 0
M  V30 7084 H 664.34 4.07748 3.02827 0
M  V30 7085 H 664.27 2.92102 4.3816 0
M  V30 7086 H 666.761 2.42 2.90249 0
M  V30 7087 H 667.074 5.41289 5.51567 0
M  V30 7088 H 665.419 4.863 4.96525 0
M  V30 7089 H 668.61 3.06185 3.54074 0
M  V30 7090 H 668.783 4.42647 4.73253 0
M  V30 7091 N 662.189 -1.289 0.906776 0
M  V30 7092 C 663.099 -2.31256 0.394707 0
M  V30 7093 C 664.115 -1.66231 -0.514121 0
M  V30 7094 O 665.291 -1.97347 -0.401994 0
M  V30 7095 C 662.356 -3.44792 -0.363191 0
M  V30 7096 C 661.417 -4.25391 0.578012 0
M  V30 7097 C 660.65 -5.33506 -0.143811 0
M  V30 7098 O 660.873 -5.53786 -1.36665 0
M  V30 7099 O 659.807 -5.99673 0.5173 0
M  V30 7100 H 663.633 -2.77051 1.24405 0
M  V30 7101 H 661.218 -1.33466 0.671346 0
M  V30 7102 H 663.1 -4.139 -0.791503 0
M  V30 7103 H 661.775 -3.01093 -1.18848 0
M  V30 7104 H 660.682 -3.58899 1.05558 0
M  V30 7105 H 662.015 -4.72752 1.36992 0
M  V30 7106 N 663.667 -0.670007 -1.42649 0
M  V30 7107 C 664.617 0.0339546 -2.27975 0
M  V30 7108 C 665.601 0.778295 -1.40824 0
M  V30 7109 O 666.793 0.657997 -1.64315 0
M  V30 7110 C 663.922 0.987899 -3.28779 0
M  V30 7111 C 663.008 0.241153 -4.23414 0
M  V30 7112 N 663.399 -0.751392 -5.00188 0
M  V30 7113 C 661.697 0.480269 -4.43407 0
M  V30 7114 C 662.398 -1.19615 -5.69269 0
M  V30 7115 N 661.374 -0.527045 -5.41039 0
M  V30 7116 H 665.176 -0.727425 -2.84756 0
M  V30 7117 H 662.69 -0.498673 -1.54554 0
M  V30 7118 H 664.687 1.50716 -3.88703 0
M  V30 7119 H 663.347 1.74916 -2.73559 0
M  V30 7120 H 664.358 -1.13075 -5.05405 0
M  V30 7121 H 661.035 1.2214 -3.99234 0
M  V30 7122 H 662.425 -2.01836 -6.40868 0
M  V30 7123 N 665.145 1.52092 -0.413018 0
M  V30 7124 C 666.095 2.23947 0.427993 0
M  V30 7125 C 667.079 1.25229 1.01027 0
M  V30 7126 O 668.271 1.50448 0.932444 0
M  V30 7127 C 665.4 3.0672 1.542 0
M  V30 7128 C 664.486 4.12851 0.970307 0
M  V30 7129 N 664.877 5.05644 0.125611 0
M  V30 7130 C 663.175 4.28404 1.24042 0
M  V30 7131 C 663.876 5.8138 -0.192876 0
M  V30 7132 N 662.852 5.41996 0.417273 0
M  V30 7133 H 666.654 2.93048 -0.223628 0
M  V30 7134 H 664.168 1.60852 -0.223664 0
M  V30 7135 H 666.165 3.56754 2.15714 0
M  V30 7136 H 664.825 2.39159 2.19621 0
M  V30 7137 H 665.836 5.17348 -0.238995 0
M  V30 7138 H 662.513 3.72071 1.89391 0
M  V30 7139 H 663.903 6.66129 -0.878762 0
M  V30 7140 N 666.623 0.143563 1.56945 0
M  V30 7141 C 667.872 -0.50835 1.95189 0
M  V30 7142 C 668.185 -1.66239 1.03073 0
M  V30 7143 O 669.391 -2.3787 1.30882 0
M  V30 7144 C 667.847 -0.955735 3.46978 0
M  V30 7145 C 667.455 0.171183 4.47673 0
M  V30 7146 C 669.199 -1.57763 3.94095 0
M  V30 7147 C 667.106 -0.294279 5.90667 0
M  V30 7148 H 666.036 -0.193679 0.728701 0
M  V30 7149 H 668.687 0.227357 1.82086 0
M  V30 7150 H 667.069 -1.7466 3.55401 0
M  V30 7151 H 668.243 0.948049 4.50942 0
M  V30 7152 H 666.558 0.701273 4.10452 0
M  V30 7153 H 669.155 -1.93745 4.98364 0
M  V30 7154 H 669.498 -2.46531 3.35452 0
M  V30 7155 H 670.031 -0.851728 3.88575 0
M  V30 7156 H 666.77 0.557939 6.53121 0
M  V30 7157 H 666.29 -1.0371 5.90766 0
M  V30 7158 H 667.969 -0.747426 6.42668 0
M  V30 7159 N 668.101 -1.57061 -0.130224 0
M  V30 7160 C 669.049 -2.00486 -1.17933 0
M  V30 7161 C 670.043 -0.899933 -1.43519 0
M  V30 7162 O 671.249 -1.08514 -1.43613 0
M  V30 7163 H 667.624 -0.638441 -0.397363 0
M  V30 7164 H 669.595 -2.87848 -0.786501 0
M  V30 7165 C 668.344 -2.41565 -2.50084 0
M  V30 7166 H 667.667 -3.26148 -2.31231 0
M  V30 7167 H 669.107 -2.75757 -3.22078 0
M  V30 7168 C 667.566 -1.27485 -3.11848 0
M  V30 7169 O 668.096 -0.584688 -3.97422 0
M  V30 7170 N 666.302 -1.03478 -2.71552 0
M  V30 7171 H 665.849 -1.59779 -2.02061 0
M  V30 7172 H 665.807 -0.27341 -3.13209 0
M  V30 7173 N 669.579 0.400081 -1.52437 0
M  V30 7174 C 670.807 1.16768 -1.70801 0
M  V30 7175 C 671.222 1.84036 -0.421462 0
M  V30 7176 O 670.579 1.72242 0.603228 0
M  V30 7177 C 670.63 2.22403 -2.8499 0
M  V30 7178 O 670.351 1.57879 -4.08663 0
M  V30 7179 C 671.852 3.11974 -3.1494 0
M  V30 7180 H 669.072 0.350533 -0.57216 0
M  V30 7181 H 671.616 0.469534 -1.99037 0
M  V30 7182 H 669.771 2.87871 -2.59247 0
M  V30 7183 H 670.185 2.27982 -4.7236 0
M  V30 7184 H 671.659 3.82148 -3.9833 0
M  V30 7185 H 672.136 3.74858 -2.28863 0
M  V30 7186 H 672.742 2.52165 -3.42481 0
M  V30 7187 N 671.057 1.43213 0.657864 0
M  V30 7188 C 672.334 1.35063 1.41483 0
M  V30 7189 C 672.714 -0.0038314 2.111 0
M  V30 7190 O 672.062 -1.02018 2.04462 0
M  V30 7191 C 672.272 2.53061 2.40335 0
M  V30 7192 C 673.62 2.9594 3.04474 0
M  V30 7193 O 674.644 2.53074 2.50663 0
M  V30 7194 O 673.503 3.70184 4.02027 0
M  V30 7195 H 670.597 0.533517 0.631893 0
M  V30 7196 H 673.143 1.55253 0.685162 0
M  V30 7197 H 671.915 3.43283 1.87809 0
M  V30 7198 H 671.538 2.34945 3.20759 0
M  V30 7199 N 672.536 -0.895792 1.29666 0
M  V30 7200 C 673.484 -2.02173 1.15017 0
M  V30 7201 C 674.478 -1.69276 0.0647651 0
M  V30 7202 O 675.684 -1.7859 0.224846 0
M  V30 7203 H 672.059 -0.662719 0.355397 0
M  V30 7204 H 674.03 -2.11666 2.10334 0
M  V30 7205 C 672.779 -3.37212 0.847555 0
M  V30 7206 H 672.102 -3.6303 1.67479 0
M  V30 7207 H 673.542 -4.16668 0.785106 0
M  V30 7208 C 672.001 -3.33891 -0.44929 0
M  V30 7209 O 672.531 -3.73673 -1.47415 0
M  V30 7210 N 670.737 -2.86991 -0.456547 0
M  V30 7211 H 670.284 -2.54813 0.377925 0
M  V30 7212 H 670.242 -2.85152 -1.32423 0
M  V30 7213 N 674.014 -1.12206 -1.10668 0
M  V30 7214 C 675.425 -0.890657 -1.64086 0
M  V30 7215 C 675.776 0.575502 -1.8757 0
M  V30 7216 O 674.901 1.4394 -1.61587 0
M  V30 7217 C 675.496 -1.61029 -2.98085 0
M  V30 7218 C 674.055 -1.4251 -3.48379 0
M  V30 7219 C 673.202 -1.64778 -2.23033 0
M  V30 7220 H 676.153 -1.27718 -0.94201 0
M  V30 7221 H 676.174 -1.05993 -3.65439 0
M  V30 7222 H 675.686 -2.67735 -2.80962 0
M  V30 7223 H 673.787 -0.380497 -3.70652 0
M  V30 7224 H 673.9 -2.17959 -4.26651 0
M  V30 7225 H 672.264 -1.07171 -2.31055 0
M  V30 7226 H 673.047 -2.72776 -2.08443 0
M  V30 7227 N 675.492 1.28418 -0.913599 0
M  V30 7228 C 676.717 1.99643 -0.561899 0
M  V30 7229 C 677.142 1.67819 0.849608 0
M  V30 7230 O 676.5 0.910503 1.56779 0
M  V30 7231 C 676.548 3.52116 -0.777622 0
M  V30 7232 O 675.652 4.12076 0.163457 0
M  V30 7233 H 674.993 0.627229 -0.217898 0
M  V30 7234 H 677.523 1.63575 -1.229 0
M  V30 7235 H 677.533 4.02163 -0.687666 0
M  V30 7236 H 676.208 3.74613 -1.8066 0
M  V30 7237 H 674.785 3.72892 0.0247827 0
M  V30 7238 N 676.97 0.677563 1.42291 0
M  V30 7239 C 677.9 0.014968 2.33495 0
M  V30 7240 C 678.881 -0.786376 1.50831 0
M  V30 7241 O 680.066 -0.742975 1.79426 0
M  V30 7242 C 677.196 -0.935023 3.34477 0
M  V30 7243 C 676.15 -0.242074 4.27315 0
M  V30 7244 C 675.476 -1.30519 5.18526 0
M  V30 7245 C 676.776 0.880604 5.14823 0
M  V30 7246 H 678.47 0.776671 2.89151 0
M  V30 7247 H 676.016 0.37494 1.39033 0
M  V30 7248 H 677.969 -1.40766 3.97194 0
M  V30 7249 H 676.693 -1.72818 2.77131 0
M  V30 7250 H 675.352 0.210351 3.65996 0
M  V30 7251 H 675 -2.09041 4.57505 0
M  V30 7252 H 674.7 -0.846652 5.81468 0
M  V30 7253 H 676.224 -1.7787 5.84119 0
M  V30 7254 H 677.638 0.489062 5.7121 0
M  V30 7255 H 676.035 1.26511 5.86613 0
M  V30 7256 H 677.105 1.72818 4.53059 0
M  V30 7257 N 678.448 -1.51871 0.421078 0
M  V30 7258 C 679.395 -2.27334 -0.398508 0
M  V30 7259 C 680.365 -1.30241 -1.03085 0
M  V30 7260 O 681.55 -1.59121 -1.05285 0
M  V30 7261 C 678.69 -3.10664 -1.50272 0
M  V30 7262 C 677.803 -4.2273 -0.890122 0
M  V30 7263 C 676.938 -4.93399 -1.96803 0
M  V30 7264 C 675.977 -5.97409 -1.333 0
M  V30 7265 N 675.114 -6.61548 -2.35156 0
M  V30 7266 H 679.954 -2.96938 0.251411 0
M  V30 7267 H 677.491 -1.46472 0.135825 0
M  V30 7268 H 679.449 -3.57292 -2.15403 0
M  V30 7269 H 678.079 -2.43207 -2.1225 0
M  V30 7270 H 677.131 -3.80186 -0.127537 0
M  V30 7271 H 678.443 -4.97302 -0.386349 0
M  V30 7272 H 677.597 -5.43491 -2.69633 0
M  V30 7273 H 676.336 -4.18421 -2.50549 0
M  V30 7274 H 675.341 -5.46624 -0.59008 0
M  V30 7275 H 676.566 -6.74335 -0.803076 0
M  V30 7276 H 674.512 -5.89394 -2.88012 0
M  V30 7277 H 674.429 -7.31832 -1.89624 0
M  V30 7278 H 675.697 -7.16276 -3.0752 0
M  V30 7279 N 679.926 -0.151884 -1.56866 0
M  V30 7280 C 681.151 0.508044 -2.01081 0
M  V30 7281 C 681.576 1.57306 -1.03134 0
M  V30 7282 O 680.934 1.81298 -0.0078309 0
M  V30 7283 C 680.982 1.08106 -3.44014 0
M  V30 7284 O 680.086 2.19577 -3.49084 0
M  V30 7285 H 679.427 0.123757 -0.652365 0
M  V30 7286 H 681.957 -0.250055 -2.03066 0
M  V30 7287 H 681.967 1.40851 -3.82916 0
M  V30 7288 H 680.642 0.301168 -4.14808 0
M  V30 7289 H 679.219 1.88023 -3.22027 0
M  V30 7290 N 681.404 1.57128 0.121893 0
M  V30 7291 C 682.815 1.73902 0.679348 0
M  V30 7292 C 683.166 0.770135 1.80453 0
M  V30 7293 O 682.291 -0.0576083 2.16323 0
M  V30 7294 C 682.886 3.15328 1.2391 0
M  V30 7295 C 681.445 3.33618 1.74288 0
M  V30 7296 C 680.592 2.6978 0.641414 0
M  V30 7297 H 683.543 1.58359 -0.104 0
M  V30 7298 H 683.564 3.16718 2.10879 0
M  V30 7299 H 683.076 3.85821 0.419957 0
M  V30 7300 H 681.177 2.68162 2.58689 0
M  V30 7301 H 681.29 4.4176 1.85432 0
M  V30 7302 H 679.654 2.30935 1.0743 0
M  V30 7303 H 680.437 3.42895 -0.166707 0
M  V30 7304 N 682.882 -0.391992 1.52647 0
M  V30 7305 C 684.293 -0.970064 1.5952 0
M  V30 7306 C 684.644 -1.91059 0.446207 0
M  V30 7307 O 683.769 -2.12062 -0.431125 0
M  V30 7308 C 684.364 -1.76614 2.89125 0
M  V30 7309 C 682.923 -2.29396 2.9842 0
M  V30 7310 C 682.07 -1.09864 2.54608 0
M  V30 7311 H 685.021 -0.171638 1.57769 0
M  V30 7312 H 685.042 -2.62511 2.75442 0
M  V30 7313 H 684.554 -1.08135 3.72731 0
M  V30 7314 H 682.655 -3.01196 2.19344 0
M  V30 7315 H 682.768 -2.59088 4.03002 0
M  V30 7316 H 681.132 -1.45777 2.08857 0
M  V30 7317 H 681.915 -0.429249 3.40606 0
M  V30 7318 N 684.36 -1.4356 -0.65026 0
M  V30 7319 C 685.771 -1.40324 -1.2315 0
M  V30 7320 C 686.122 -0.108812 -1.95898 0
M  V30 7321 O 685.247 0.79163 -2.01401 0
M  V30 7322 C 685.842 -2.54195 -2.23987 0
M  V30 7323 C 684.401 -2.54215 -2.77582 0
M  V30 7324 C 683.548 -2.31752 -1.5227 0
M  V30 7325 H 686.499 -1.52418 -0.442095 0
M  V30 7326 H 686.52 -2.25854 -3.0622 0
M  V30 7327 H 686.032 -3.48392 -1.71011 0
M  V30 7328 H 684.133 -1.63907 -3.34612 0
M  V30 7329 H 684.246 -3.52081 -3.24925 0
M  V30 7330 H 682.61 -1.80476 -1.79723 0
M  V30 7331 H 683.393 -3.28037 -1.01225 0
M  V30 7332 N 685.838 0.888903 -1.30139 0
M  V30 7333 C 687.086 1.63713 -1.18501 0
M  V30 7334 C 687.407 1.9324 0.261399 0
M  V30 7335 O 686.677 1.56608 1.17689 0
M  V30 7336 H 685.257 0.606861 -0.435579 0
M  V30 7337 H 687.919 1.06525 -1.63213 0
M  V30 7338 H 687.015 2.58894 -1.743 0
M  V30 7339 N 687.317 1.12792 1.10072 0
M  V30 7340 C 688.564 0.885545 1.82111 0
M  V30 7341 C 688.892 -0.588519 1.85383 0
M  V30 7342 O 688.147 -1.45124 1.31292 0
M  V30 7343 C 688.446 1.4102 3.28403 0
M  V30 7344 C 688.112 2.89995 3.45273 0
M  V30 7345 C 686.774 3.30671 3.49585 0
M  V30 7346 C 689.126 3.85874 3.50358 0
M  V30 7347 C 686.454 4.65925 3.56553 0
M  V30 7348 C 688.806 5.20963 3.58859 0
M  V30 7349 C 687.47 5.61177 3.61437 0
M  V30 7350 H 686.74 0.324044 0.666391 0
M  V30 7351 H 689.387 1.40874 1.29718 0
M  V30 7352 H 687.692 0.807551 3.83387 0
M  V30 7353 H 689.389 1.19882 3.82661 0
M  V30 7354 H 685.979 2.57537 3.42597 0
M  V30 7355 H 690.163 3.5554 3.46273 0
M  V30 7356 H 685.419 4.96468 3.56833 0
M  V30 7357 H 689.593 5.95079 3.61738 0
M  V30 7358 H 687.22 6.6597 3.66589 0
M  V30 7359 N 688.795 -1.27931 0.920396 0
M  V30 7360 C 690.072 -1.89728 0.475687 0
M  V30 7361 C 690.452 -1.8337 -1.04588 0
M  V30 7362 O 689.8 -1.27404 -1.89685 0
M  V30 7363 C 690.01 -3.33959 1.01354 0
M  V30 7364 C 691.358 -4.10907 1.06963 0
M  V30 7365 O 692.382 -3.42945 0.962646 0
M  V30 7366 O 691.241 -5.32399 1.23343 0
M  V30 7367 H 688.335 -0.81294 0.151845 0
M  V30 7368 H 690.881 -1.36252 1.01161 0
M  V30 7369 H 689.653 -3.32843 2.05746 0
M  V30 7370 H 689.276 -3.94944 0.458829 0
M  V30 7371 N 690.273 -0.685099 -1.4193 0
M  V30 7372 C 691.498 -0.218842 -2.06242 0
M  V30 7373 C 691.923 1.11923 -1.51178 0
M  V30 7374 O 691.281 1.69837 -0.634446 0
M  V30 7375 C 691.329 -0.175592 -3.60172 0
M  V30 7376 O 690.433 0.852776 -4.03487 0
M  V30 7377 H 689.774 -0.109531 -0.654904 0
M  V30 7378 H 692.304 -0.937013 -1.81882 0
M  V30 7379 H 692.314 -0.00291151 -4.08 0
M  V30 7380 H 690.989 -1.15222 -3.99621 0
M  V30 7381 H 689.566 0.650301 -3.67186 0
M  V30 7382 N 691.751 1.51645 -0.429126 0
M  V30 7383 C 692.997 2.02314 0.140286 0
M  V30 7384 C 693.33 1.31314 1.43074 0
M  V30 7385 O 692.605 0.425531 1.89788 0
M  V30 7386 C 692.888 3.5822 0.36749 0
M  V30 7387 C 692.741 4.39846 -0.941039 0
M  V30 7388 C 694.06 4.25055 1.14089 0
M  V30 7389 H 691.179 0.735335 0.0495112 0
M  V30 7390 H 693.821 1.81358 -0.566514 0
M  V30 7391 H 691.971 3.76207 0.969556 0
M  V30 7392 H 693.643 4.33527 -1.57646 0
M  V30 7393 H 691.886 4.05259 -1.54751 0
M  V30 7394 H 692.557 5.47069 -0.73621 0
M  V30 7395 H 695.033 4.11288 0.630986 0
M  V30 7396 H 693.909 5.34038 1.26863 0
M  V30 7397 H 694.17 3.85358 2.16683 0
M  V30 7398 N 693.229 0.160201 1.56784 0
M  V30 7399 C 694.478 -0.487619 1.95717 0
M  V30 7400 C 694.791 -1.65136 1.0483 0
M  V30 7401 O 695.997 -2.36468 1.33398 0
M  V30 7402 C 694.453 -0.91888 3.47972 0
M  V30 7403 C 694.061 0.218655 4.47466 0
M  V30 7404 C 695.805 -1.53575 3.95746 0
M  V30 7405 C 693.712 -0.231614 5.90946 0
M  V30 7406 H 692.642 -0.185939 0.730714 0
M  V30 7407 H 695.293 0.246657 1.81835 0
M  V30 7408 H 693.675 -1.70881 3.57234 0
M  V30 7409 H 694.849 0.995825 4.49911 0
M  V30 7410 H 693.164 0.744767 4.09685 0
M  V30 7411 H 695.761 -1.88448 5.00391 0
M  V30 7412 H 696.104 -2.42959 3.38048 0
M  V30 7413 H 696.637 -0.810467 3.89456 0
M  V30 7414 H 693.376 0.62718 6.52493 0
M  V30 7415 H 692.896 -0.974379 5.91833 0
M  V30 7416 H 694.575 -0.67922 6.43425 0
M  V30 7417 N 694.707 -1.5719 -0.113559 0
M  V30 7418 C 695.67 -1.99796 -1.12314 0
M  V30 7419 C 696.67 -0.888847 -1.34001 0
M  V30 7420 O 697.86 -1.15476 -1.30426 0
M  V30 7421 C 694.992 -2.34279 -2.47641 0
M  V30 7422 H 696.185 -2.90193 -0.756825 0
M  V30 7423 H 693.738 -1.52144 -0.358029 0
M  V30 7424 H 694.473 -1.46778 -2.89183 0
M  V30 7425 H 694.258 -3.15175 -2.33253 0
M  V30 7426 H 695.748 -2.67963 -3.2029 0
M  V30 7427 N 696.185 0.383891 -1.52853 0
M  V30 7428 C 697.601 0.724316 -1.42218 0
M  V30 7429 C 697.801 1.93943 -0.546654 0
M  V30 7430 O 696.857 2.5249 -0.0220562 0
M  V30 7431 C 698.17 0.954635 -2.85144 0
M  V30 7432 C 699.718 1.05579 -2.94656 0
M  V30 7433 C 700.193 1.3187 -4.38605 0
M  V30 7434 N 701.684 1.38681 -4.41952 0
M  V30 7435 C 702.419 1.60699 -5.50421 0
M  V30 7436 N 701.915 1.80154 -6.68967 0
M  V30 7437 N 703.708 1.6292 -5.37972 0
M  V30 7438 H 695.859 -0.4156 -2.08294 0
M  V30 7439 H 698.122 -0.123776 -0.939885 0
M  V30 7440 H 697.828 0.133829 -3.51445 0
M  V30 7441 H 697.702 1.86788 -3.27704 0
M  V30 7442 H 700.089 1.86716 -2.2852 0
M  V30 7443 H 700.17 0.120338 -2.55517 0
M  V30 7444 H 699.814 0.512416 -5.05309 0
M  V30 7445 H 699.744 2.26708 -4.75301 0
M  V30 7446 H 702.235 1.25334 -3.56511 0
M  V30 7447 H 702.548 1.96476 -7.47407 0
M  V30 7448 H 700.893 1.77368 -6.71986 0
M  V30 7449 H 704.084 1.47276 -4.44328 0
M  V30 7450 H 704.257 1.79739 -6.22574 0
M  V30 7451 N 697.663 1.43903 0.642637 0
M  V30 7452 C 698.911 1.45791 1.39962 0
M  V30 7453 C 699.232 0.0873144 1.94804 0
M  V30 7454 O 698.502 -0.878825 1.75081 0
M  V30 7455 H 697.082 0.536797 0.519479 0
M  V30 7456 H 699.744 1.7959 0.757189 0
M  V30 7457 H 698.84 2.17665 2.2367 0
M  V30 7458 N 699.141 -0.881989 1.30609 0
M  V30 7459 C 700.091 -1.97539 1.13852 0
M  V30 7460 C 701.075 -1.60813 0.0528428 0
M  V30 7461 O 702.267 -1.74827 0.276484 0
M  V30 7462 C 699.396 -3.32977 0.835519 0
M  V30 7463 C 698.482 -3.76008 1.96159 0
M  V30 7464 N 698.873 -3.91109 3.20729 0
M  V30 7465 C 697.171 -4.05427 1.85863 0
M  V30 7466 C 697.872 -4.27661 3.94311 0
M  V30 7467 N 696.848 -4.37686 3.22385 0
M  V30 7468 H 700.65 -2.07309 2.08327 0
M  V30 7469 H 698.164 -1.072 1.21992 0
M  V30 7470 H 700.161 -4.11041 0.696477 0
M  V30 7471 H 698.821 -3.24542 -0.101135 0
M  V30 7472 H 699.832 -3.7616 3.55984 0
M  V30 7473 H 696.509 -4.05449 0.995847 0
M  V30 7474 H 697.899 -4.47042 5.01601 0
M  V30 7475 N 700.619 -1.13374 -1.09472 0
M  V30 7476 C 701.847 -0.918351 -1.85402 0
M  V30 7477 C 702.262 0.53281 -1.81126 0
M  V30 7478 O 701.619 1.36879 -1.20708 0
M  V30 7479 C 701.67 -1.39743 -3.33398 0
M  V30 7480 O 701.391 -2.79172 -3.37631 0
M  V30 7481 C 702.892 -1.22042 -4.2617 0
M  V30 7482 H 700.112 -0.327511 -0.585643 0
M  V30 7483 H 702.656 -1.50617 -1.38328 0
M  V30 7484 H 700.811 -0.852619 -3.77901 0
M  V30 7485 H 701.225 -3.00428 -4.29934 0
M  V30 7486 H 702.699 -1.60438 -5.2817 0
M  V30 7487 H 703.176 -0.162047 -4.38901 0
M  V30 7488 H 703.782 -1.75323 -3.87482 0
M  V30 7489 N 702.098 1.27442 -0.927168 0
M  V30 7490 C 703.008 2.30599 -0.431448 0
M  V30 7491 C 704.024 1.67028 0.48761 0
M  V30 7492 O 705.2 1.97962 0.370546 0
M  V30 7493 C 702.265 3.45327 0.308292 0
M  V30 7494 C 701.326 4.24418 -0.645615 0
M  V30 7495 C 700.559 5.33667 0.0589164 0
M  V30 7496 O 700.782 5.5589 1.27838 0
M  V30 7497 O 699.716 5.98774 -0.612638 0
M  V30 7498 H 703.542 2.75036 -1.28797 0
M  V30 7499 H 701.127 1.32382 -0.692495 0
M  V30 7500 H 703.009 4.15107 0.725555 0
M  V30 7501 H 701.684 3.02945 1.14043 0
M  V30 7502 H 700.591 3.57174 -1.11255 0
M  V30 7503 H 701.924 4.70512 -1.44496 0
M  V30 7504 N 703.576 0.692616 1.41565 0
M  V30 7505 C 704.987 0.297478 1.84315 0
M  V30 7506 C 705.338 -1.16379 1.57957 0
M  V30 7507 O 704.463 -1.89303 1.0485 0
M  V30 7508 C 705.058 0.533136 3.34579 0
M  V30 7509 C 703.617 0.191944 3.7591 0
M  V30 7510 C 702.764 0.816873 2.64995 0
M  V30 7511 H 705.715 0.893488 1.31158 0
M  V30 7512 H 705.736 -0.209105 3.79925 0
M  V30 7513 H 705.248 1.59674 3.53731 0
M  V30 7514 H 703.349 -0.867512 3.6236 0
M  V30 7515 H 703.462 0.644902 4.7474 0
M  V30 7516 H 701.826 0.246715 2.53502 0
M  V30 7517 H 702.609 1.88429 2.86966 0
M  V30 7518 N 705.054 -1.51416 0.437162 0
M  V30 7519 C 706.331 -1.94682 -0.189292 0
M  V30 7520 C 706.711 -1.37581 -1.60108 0
M  V30 7521 O 706.059 -0.562815 -2.2146 0
M  V30 7522 C 706.269 -3.48599 -0.167201 0
M  V30 7523 C 707.617 -4.2296 -0.372856 0
M  V30 7524 O 708.641 -3.55354 -0.245323 0
M  V30 7525 O 707.5 -5.42895 -0.626693 0
M  V30 7526 H 704.594 -0.816708 -0.130063 0
M  V30 7527 H 707.14 -1.62316 0.495128 0
M  V30 7528 H 705.912 -3.82616 0.81981 0
M  V30 7529 H 705.535 -3.87406 -0.894537 0
M  V30 7530 N 706.532 -0.168513 -1.56696 0
M  V30 7531 C 707.943 0.348694 -1.83415 0
M  V30 7532 C 708.294 1.63257 -1.0882 0
M  V30 7533 O 707.419 2.13707 -0.340333 0
M  V30 7534 C 708.014 0.639423 -3.32711 0
M  V30 7535 C 706.573 1.10108 -3.59935 0
M  V30 7536 C 705.72 0.135464 -2.76969 0
M  V30 7537 H 708.671 -0.392829 -1.53761 0
M  V30 7538 H 708.692 1.49179 -3.50037 0
M  V30 7539 H 708.204 -0.295173 -3.86976 0
M  V30 7540 H 706.305 2.05088 -3.11079 0
M  V30 7541 H 706.418 1.01218 -4.68286 0
M  V30 7542 H 704.782 0.632286 -2.46727 0
M  V30 7543 H 705.565 -0.793104 -3.34013 0
M  V30 7544 N 708.01 1.57248 0.105221 0
M  V30 7545 C 709.238 1.89768 0.82437 0
M  V30 7546 C 709.653 0.761192 1.72775 0
M  V30 7547 O 709.01 -0.267342 1.80531 0
M  V30 7548 C 709.061 3.2184 1.64625 0
M  V30 7549 O 708.782 4.31115 0.779217 0
M  V30 7550 C 710.283 3.68155 2.46935 0
M  V30 7551 H 707.503 0.628031 0.236259 0
M  V30 7552 H 710.047 2.04321 0.085485 0
M  V30 7553 H 708.202 3.08915 2.33775 0
M  V30 7554 H 708.616 5.06897 1.34745 0
M  V30 7555 H 710.09 4.6329 3.00111 0
M  V30 7556 H 710.567 2.95492 3.24932 0
M  V30 7557 H 711.173 3.83914 1.83002 0
M  V30 7558 N 709.488 -0.375779 1.53054 0
M  V30 7559 C 710.42 -1.47963 1.75042 0
M  V30 7560 C 711.433 -1.50073 0.631031 0
M  V30 7561 O 712.622 -1.53736 0.907052 0
M  V30 7562 C 709.722 -2.86767 1.80604 0
M  V30 7563 C 708.895 -3.08471 3.10104 0
M  V30 7564 C 707.954 -4.27332 3.07041 0
M  V30 7565 O 706.98 -4.22998 3.80869 0
M  V30 7566 N 708.182 -5.34214 2.27147 0
M  V30 7567 H 710.947 -1.29484 2.70285 0
M  V30 7568 H 708.508 -0.565416 1.51706 0
M  V30 7569 H 710.5 -3.64404 1.76045 0
M  V30 7570 H 709.07 -2.98542 0.926897 0
M  V30 7571 H 708.29 -2.18583 3.28048 0
M  V30 7572 H 709.578 -3.19834 3.95706 0
M  V30 7573 H 708.976 -5.40594 1.66656 0
M  V30 7574 H 707.533 -6.10467 2.28415 0
M  V30 7575 N 710.966 -1.44241 -0.634997 0
M  V30 7576 C 712.243 -1.37296 -1.39317 0
M  V30 7577 C 712.623 -0.0297532 -2.11079 0
M  V30 7578 O 711.971 0.987524 -2.06059 0
M  V30 7579 C 712.181 -2.56853 -2.36279 0
M  V30 7580 C 713.529 -3.00747 -2.99728 0
M  V30 7581 O 714.553 -2.5703 -2.46605 0
M  V30 7582 O 713.412 -3.76533 -3.96087 0
M  V30 7583 H 710.506 -0.543503 -0.623325 0
M  V30 7584 H 713.052 -1.56324 -0.660376 0
M  V30 7585 H 711.824 -3.46228 -1.82324 0
M  V30 7586 H 711.447 -2.40019 -3.16981 0
M  V30 7587 N 712.444 0.87505 -1.31075 0
M  V30 7588 C 713.672 1.66058 -1.23419 0
M  V30 7589 C 714.087 1.87723 0.201347 0
M  V30 7590 O 713.444 1.43178 1.13165 0
M  V30 7591 C 713.495 3.03142 -1.96945 0
M  V30 7592 O 713.216 2.82448 -3.34895 0
M  V30 7593 C 714.717 3.97583 -1.96067 0
M  V30 7594 H 711.937 0.517868 -0.426677 0
M  V30 7595 H 714.481 1.09258 -1.72867 0
M  V30 7596 H 712.636 3.56645 -1.51271 0
M  V30 7597 H 713.05 3.69483 -3.72267 0
M  V30 7598 H 714.524 4.91104 -2.52034 0
M  V30 7599 H 715.001 4.2898 -0.941961 0
M  V30 7600 H 715.607 3.50015 -2.41597 0
M  V30 7601 N 713.922 1.13953 1.08869 0
M  V30 7602 C 714.832 0.835666 2.19212 0
M  V30 7603 C 715.848 -0.182005 1.73045 0
M  V30 7604 O 717.024 -0.0116661 2.01397 0
M  V30 7605 C 714.089 0.312325 3.4529 0
M  V30 7606 C 713.15 1.39196 4.06107 0
M  V30 7607 C 712.383 0.893496 5.26168 0
M  V30 7608 O 712.606 -0.266807 5.69776 0
M  V30 7609 O 711.54 1.67037 5.78258 0
M  V30 7610 H 715.366 1.75769 2.47667 0
M  V30 7611 H 712.951 0.917421 1.17914 0
M  V30 7612 H 714.833 0.0261582 4.21392 0
M  V30 7613 H 713.508 -0.582042 3.18424 0
M  V30 7614 H 712.415 1.73152 3.31616 0
M  V30 7615 H 713.748 2.26068 4.37212 0
M  V30 7616 N 715.4 -1.26948 0.933913 0
M  V30 7617 C 716.33 -2.29017 0.45534 0
M  V30 7618 C 717.311 -1.62961 -0.487605 0
M  V30 7619 O 718.496 -1.90223 -0.391022 0
M  V30 7620 C 715.626 -3.46112 -0.287015 0
M  V30 7621 C 714.58 -4.24205 0.568682 0
M  V30 7622 C 713.906 -5.3384 -0.303206 0
M  V30 7623 C 715.206 -4.88954 1.83633 0
M  V30 7624 H 716.9 -2.69298 1.30839 0
M  V30 7625 H 714.446 -1.29459 0.630579 0
M  V30 7626 H 716.399 -4.16622 -0.6328 0
M  V30 7627 H 715.123 -3.04765 -1.17414 0
M  V30 7628 H 713.782 -3.5545 0.897261 0
M  V30 7629 H 713.43 -4.88734 -1.18947 0
M  V30 7630 H 713.13 -5.86998 0.265879 0
M  V30 7631 H 714.654 -6.0719 -0.644423 0
M  V30 7632 H 716.068 -5.51717 1.55823 0
M  V30 7633 H 714.465 -5.52198 2.34941 0
M  V30 7634 H 715.535 -4.12305 2.55211 0
M  V30 7635 N 716.879 -0.700114 -1.41195 0
M  V30 7636 C 717.789 -0.0382854 -2.34569 0
M  V30 7637 C 718.805 0.761036 -1.56474 0
M  V30 7638 O 719.981 0.697553 -1.88934 0
M  V30 7639 C 717.046 0.883522 -3.35253 0
M  V30 7640 C 716.107 0.0758957 -4.29233 0
M  V30 7641 C 715.34 0.9538 -5.25108 0
M  V30 7642 O 715.563 2.19326 -5.26547 0
M  V30 7643 O 714.497 0.401049 -6.00562 0
M  V30 7644 H 718.323 -0.808073 -2.92752 0
M  V30 7645 H 715.908 -0.460479 -1.42127 0
M  V30 7646 H 717.79 1.41199 -3.9704 0
M  V30 7647 H 716.465 1.63272 -2.79506 0
M  V30 7648 H 715.372 -0.497274 -3.7078 0
M  V30 7649 H 716.705 -0.634741 -4.8809 0
M  V30 7650 N 718.357 1.51182 -0.445186 0
M  V30 7651 C 719.287 2.30821 0.352686 0
M  V30 7652 C 720.268 1.36576 1.01395 0
M  V30 7653 O 721.453 1.65497 1.01609 0
M  V30 7654 C 718.583 3.15593 1.44976 0
M  V30 7655 C 717.537 4.1818 0.911553 0
M  V30 7656 C 716.863 4.91523 2.10497 0
M  V30 7657 C 718.163 5.22266 -0.059418 0
M  V30 7658 H 719.857 2.97771 -0.311936 0
M  V30 7659 H 717.403 1.43201 -0.151461 0
M  V30 7660 H 719.356 3.70091 2.01521 0
M  V30 7661 H 718.08 2.4648 2.14278 0
M  V30 7662 H 716.739 3.64746 0.368264 0
M  V30 7663 H 716.387 4.18906 2.78437 0
M  V30 7664 H 716.087 5.60898 1.7512 0
M  V30 7665 H 717.611 5.48847 2.6758 0
M  V30 7666 H 719.025 5.71789 0.415985 0
M  V30 7667 H 717.422 5.99213 -0.326152 0
M  V30 7668 H 718.492 4.7461 -0.993631 0
M  V30 7669 N 719.835 0.176821 1.56605 0
M  V30 7670 C 721.112 -0.513365 1.88743 0
M  V30 7671 C 721.492 -1.80929 1.08757 0
M  V30 7672 O 720.84 -2.27765 0.183127 0
M  V30 7673 C 721.05 -0.749925 3.40848 0
M  V30 7674 C 722.398 -1.07747 4.10701 0
M  V30 7675 O 723.422 -0.838277 3.46196 0
M  V30 7676 O 722.281 -1.52901 5.24675 0
M  V30 7677 H 719.375 -0.265296 0.783292 0
M  V30 7678 H 721.921 0.215669 1.68324 0
M  V30 7679 H 720.693 0.16599 3.90948 0
M  V30 7680 H 720.316 -1.53208 3.66897 0
M  V30 7681 N 721.313 -1.57302 -0.09688 0
M  V30 7682 C 722.561 -1.8563 -0.799117 0
M  V30 7683 C 722.882 -0.765263 -1.79356 0
M  V30 7684 O 722.152 0.208657 -1.94786 0
M  V30 7685 H 720.732 -0.684937 -0.298111 0
M  V30 7686 H 723.394 -1.9474 -0.0789341 0
M  V30 7687 H 722.49 -2.82305 -1.3308 0
M  V30 7688 N 722.791 0.367657 -1.53252 0
M  V30 7689 C 723.723 1.47032 -1.75824 0
M  V30 7690 C 724.736 1.49736 -0.63898 0
M  V30 7691 O 725.925 1.53253 -0.915193 0
M  V30 7692 C 723.025 2.85805 -1.82122 0
M  V30 7693 C 722.198 3.06822 -3.11736 0
M  V30 7694 C 721.257 4.25698 -3.09302 0
M  V30 7695 O 720.283 4.20972 -3.83107 0
M  V30 7696 N 721.485 5.33002 -2.29977 0
M  V30 7697 H 724.25 1.28048 -2.70968 0
M  V30 7698 H 721.811 0.557363 -1.52004 0
M  V30 7699 H 723.803 3.63465 -1.77975 0
M  V30 7700 H 722.373 2.98046 -0.942716 0
M  V30 7701 H 721.593 2.1684 -3.29202 0
M  V30 7702 H 722.881 3.17731 -3.97397 0
M  V30 7703 H 722.279 5.39703 -1.69521 0
M  V30 7704 H 720.836 6.09247 -2.3165 0
M  V30 7705 N 724.269 1.44576 0.627338 0
M  V30 7706 C 725.201 1.47724 1.75243 0
M  V30 7707 C 726.214 0.370193 1.58535 0
M  V30 7708 O 727.403 0.636151 1.66779 0
M  V30 7709 C 724.503 1.2991 3.13012 0
M  V30 7710 C 723.676 2.5393 3.56143 0
M  V30 7711 C 722.735 2.30961 4.72804 0
M  V30 7712 O 721.761 3.04469 4.80923 0
M  V30 7713 N 722.963 1.34261 5.6476 0
M  V30 7714 H 725.728 2.44718 1.73012 0
M  V30 7715 H 723.289 1.40064 0.812022 0
M  V30 7716 H 725.281 1.12385 3.88782 0
M  V30 7717 H 723.851 0.412668 3.09864 0
M  V30 7718 H 723.071 2.86707 2.70542 0
M  V30 7719 H 724.359 3.36411 3.81713 0
M  V30 7720 H 723.757 0.735573 5.60897 0
M  V30 7721 H 722.314 1.22713 6.40144 0
M  V30 7722 N 725.747 -0.868086 1.31537 0
M  V30 7723 C 726.993 -1.62367 1.2151 0
M  V30 7724 C 727.326 -1.92883 -0.225819 0
M  V30 7725 O 726.601 -1.56176 -1.15927 0
M  V30 7726 C 726.884 -2.95268 2.06129 0
M  V30 7727 C 726.737 -2.71619 3.58529 0
M  V30 7728 C 728.056 -3.96391 1.91212 0
M  V30 7729 H 725.175 -0.589178 0.442762 0
M  V30 7730 H 727.817 -1.00336 1.61347 0
M  V30 7731 H 725.967 -3.4821 1.72284 0
M  V30 7732 H 727.639 -2.25334 4.0252 0
M  V30 7733 H 725.882 -2.05817 3.81866 0
M  V30 7734 H 726.553 -3.66192 4.13047 0
M  V30 7735 H 729.029 -3.52663 2.20834 0
M  V30 7736 H 727.905 -4.87263 2.52718 0
M  V30 7737 H 728.166 -4.33335 0.875953 0
M  V30 7738 N 727.225 -1.14528 -1.08264 0
M  V30 7739 C 728.471 -0.91576 -1.80947 0
M  V30 7740 C 728.804 0.55623 -1.86064 0
M  V30 7741 O 728.079 1.41207 -1.33756 0
M  V30 7742 C 728.362 -1.51917 -3.26486 0
M  V30 7743 C 728.215 -3.06111 -3.2957 0
M  V30 7744 C 729.534 -1.19724 -4.23502 0
M  V30 7745 H 726.653 -0.334113 -0.656915 0
M  V30 7746 H 729.295 -1.41547 -1.26746 0
M  V30 7747 H 727.445 -1.0942 -3.72773 0
M  V30 7748 H 729.117 -3.57448 -2.91597 0
M  V30 7749 H 727.36 -3.40483 -2.688 0
M  V30 7750 H 728.031 -3.43438 -4.32151 0
M  V30 7751 H 730.507 -1.56467 -3.85561 0
M  V30 7752 H 729.383 -1.64575 -5.23647 0
M  V30 7753 H 729.644 -0.112771 -4.41956 0
M  V30 7754 N 728.703 1.26451 -0.940633 0
M  V30 7755 C 729.949 1.94065 -0.58878 0
M  V30 7756 C 730.282 1.7363 0.869853 0
M  V30 7757 O 729.557 1.073 1.62225 0
M  V30 7758 C 729.84 3.47852 -0.931199 0
M  V30 7759 C 729.693 3.77575 -2.44453 0
M  V30 7760 C 731.012 4.37832 -0.446229 0
M  V30 7761 H 728.131 0.704827 -0.21538 0
M  V30 7762 H 730.773 1.4933 -1.17475 0
M  V30 7763 H 728.923 3.86085 -0.432539 0
M  V30 7764 H 730.595 3.49059 -3.01588 0
M  V30 7765 H 728.838 3.23671 -2.88825 0
M  V30 7766 H 729.509 4.85068 -2.63464 0
M  V30 7767 H 731.985 4.06822 -0.873778 0
M  V30 7768 H 730.861 5.44228 -0.714648 0
M  V30 7769 H 731.122 4.37239 0.653815 0
M  V30 7770 N 730.181 0.707592 1.40822 0
M  V30 7771 C 731.592 0.317011 1.83989 0
M  V30 7772 C 731.943 -1.14697 1.59182 0
M  V30 7773 O 731.068 -1.8818 1.06852 0
M  V30 7774 C 731.663 0.568593 3.33995 0
M  V30 7775 C 730.222 0.231804 3.75686 0
M  V30 7776 C 729.369 0.844933 2.64114 0
M  V30 7777 H 732.32 0.907349 1.30203 0
M  V30 7778 H 732.341 -0.168798 3.80125 0
M  V30 7779 H 731.853 1.63417 3.52018 0
M  V30 7780 H 729.954 -0.82903 3.6326 0
M  V30 7781 H 730.067 0.695219 4.74029 0
M  V30 7782 H 728.431 0.273588 2.53226 0
M  V30 7783 H 729.214 1.91462 2.84951 0
M  V30 7784 N 731.66 -1.50943 0.453197 0
M  V30 7785 C 732.592 -2.25922 -0.38623 0
M  V30 7786 C 733.605 -1.3055 -0.972652 0
M  V30 7787 O 734.794 -1.56191 -0.864097 0
M  V30 7788 C 731.894 -3.01176 -1.5539 0
M  V30 7789 C 731.067 -4.23768 -1.0835 0
M  V30 7790 C 730.126 -4.81466 -2.12313 0
M  V30 7791 O 729.152 -5.42875 -1.71101 0
M  V30 7792 N 730.354 -4.66889 -3.44956 0
M  V30 7793 H 733.119 -2.98601 0.256468 0
M  V30 7794 H 730.68 -1.59408 0.282965 0
M  V30 7795 H 732.672 -3.36659 -2.24594 0
M  V30 7796 H 731.242 -2.31409 -2.10163 0
M  V30 7797 H 730.462 -3.93597 -0.217961 0
M  V30 7798 H 731.75 -5.03289 -0.746857 0
M  V30 7799 H 731.148 -4.18011 -3.81161 0
M  V30 7800 H 729.705 -5.06691 -4.1001 0
M  V30 7801 N 733.138 -0.185124 -1.56509 0
M  V30 7802 C 734.386 0.455357 -1.96903 0
M  V30 7803 C 734.707 1.62839 -1.07277 0
M  V30 7804 O 733.977 1.95385 -0.141966 0
M  V30 7805 H 732.557 0.171218 -0.727113 0
M  V30 7806 H 735.219 -0.26953 -1.93027 0
M  V30 7807 H 734.315 0.80616 -3.01509 0
M  V30 7808 N 734.616 1.57351 0.0885366 0
M  V30 7809 C 735.548 1.99221 1.13329 0
M  V30 7810 C 736.561 0.895705 1.35945 0
M  V30 7811 O 737.75 1.17376 1.34481 0
M  V30 7812 C 734.85 2.3016 2.48756 0
M  V30 7813 C 734.023 3.61444 2.46327 0
M  V30 7814 C 733.082 3.80244 3.63732 0
M  V30 7815 O 732.108 4.52024 3.45924 0
M  V30 7816 N 733.31 3.2132 4.8346 0
M  V30 7817 H 736.075 2.89456 0.776862 0
M  V30 7818 H 733.636 1.59505 0.277428 0
M  V30 7819 H 735.628 2.39925 3.25911 0
M  V30 7820 H 734.198 1.459 2.76464 0
M  V30 7821 H 733.418 3.62588 1.54673 0
M  V30 7822 H 734.706 4.47678 2.41789 0
M  V30 7823 H 734.104 2.63028 5.00832 0
M  V30 7824 H 732.661 3.3656 5.58185 0
M  V30 7825 N 736.094 -0.359525 1.53444 0
M  V30 7826 C 737.505 -0.936009 1.61542 0
M  V30 7827 C 737.856 -1.90069 0.486633 0
M  V30 7828 O 736.981 -2.12929 -0.386047 0
M  V30 7829 C 737.576 -1.70441 2.92806 0
M  V30 7830 C 736.135 -2.23015 3.03218 0
M  V30 7831 C 735.282 -1.04438 2.56881 0
M  V30 7832 H 738.233 -0.138134 1.58098 0
M  V30 7833 H 738.254 -2.56609 2.80948 0
M  V30 7834 H 737.766 -1.00205 3.74941 0
M  V30 7835 H 735.867 -2.96475 2.25684 0
M  V30 7836 H 735.98 -2.50481 4.08407 0
M  V30 7837 H 734.344 -1.41314 2.11902 0
M  V30 7838 H 735.127 -0.356905 3.4144 0
M  V30 7839 N 737.572 -1.44907 -0.619662 0
M  V30 7840 C 738.818 -1.48512 -1.38102 0
M  V30 7841 C 739.151 -0.121686 -1.93818 0
M  V30 7842 O 738.426 0.862256 -1.74343 0
M  V30 7843 C 738.709 -2.55469 -2.53787 0
M  V30 7844 C 738.562 -4.01212 -2.03345 0
M  V30 7845 C 739.881 -2.58821 -3.55949 0
M  V30 7846 H 737 -0.540712 -0.500799 0
M  V30 7847 H 739.642 -1.7665 -0.69962 0
M  V30 7848 H 737.792 -2.31606 -3.11915 0
M  V30 7849 H 739.464 -4.36245 -1.49959 0
M  V30 7850 H 737.707 -4.12443 -1.34438 0
M  V30 7851 H 738.378 -4.71717 -2.86683 0
M  V30 7852 H 740.854 -2.80172 -3.07641 0
M  V30 7853 H 739.73 -3.35542 -4.34399 0
M  V30 7854 H 739.991 -1.63451 -4.10775 0
M  V30 7855 N 739.05 0.861098 -1.31996 0
M  V30 7856 C 740.461 1.43065 -1.19955 0
M  V30 7857 C 740.812 1.95273 0.190489 0
M  V30 7858 O 739.937 1.87012 1.08882 0
M  V30 7859 C 740.532 2.60052 -2.1716 0
M  V30 7860 C 739.091 3.13026 -2.09026 0
M  V30 7861 C 738.238 1.85756 -2.05888 0
M  V30 7862 H 741.189 0.668834 -1.43918 0
M  V30 7863 H 741.21 3.37016 -1.76637 0
M  V30 7864 H 740.722 2.22024 -3.18319 0
M  V30 7865 H 738.823 3.55653 -1.11092 0
M  V30 7866 H 738.936 3.74707 -2.98549 0
M  V30 7867 H 737.3 2.05088 -1.51033 0
M  V30 7868 H 738.083 1.49954 -3.08818 0
M  V30 7869 N 740.528 1.15101 1.07655 0
M  V30 7870 C 741.768 0.934462 1.81789 0
M  V30 7871 C 742.132 -0.529101 1.84566 0
M  V30 7872 O 743.333 -0.863868 2.5454 0
M  V30 7873 C 741.604 1.52817 3.23082 0
M  V30 7874 S 743.163 1.45429 4.14 0
M  V30 7875 H 739.981 0.336379 0.626395 0
M  V30 7876 H 742.583 1.46593 1.29347 0
M  V30 7877 H 741.287 2.58635 3.18647 0
M  V30 7878 H 740.818 0.995432 3.80598 0
M  V30 7879 H 742.833 0.445058 4.942 0
M  V30 7880 N 742.006 -1.2595 0.947325 0
M  V30 7881 C 743.417 -1.75389 0.639963 0
M  V30 7882 C 743.768 -1.77081 -0.844788 0
M  V30 7883 O 742.893 -1.3869 -1.66114 0
M  V30 7884 C 743.488 -3.18506 1.15496 0
M  V30 7885 C 742.047 -3.65534 0.897894 0
M  V30 7886 C 741.194 -2.44818 1.30228 0
M  V30 7887 H 744.145 -1.1194 1.12495 0
M  V30 7888 H 744.166 -3.77045 0.511627 0
M  V30 7889 H 743.678 -3.17243 2.23559 0
M  V30 7890 H 741.779 -3.72221 -0.168096 0
M  V30 7891 H 741.892 -4.54039 1.52922 0
M  V30 7892 H 740.256 -2.44291 0.720678 0
M  V30 7893 H 741.039 -2.46251 2.39198 0
M  V30 7894 N 743.484 -0.715051 -1.40445 0
M  V30 7895 C 744.394 -0.0631624 -2.34515 0
M  V30 7896 C 745.41 0.744397 -1.57273 0
M  V30 7897 O 746.586 0.677475 -1.89663 0
M  V30 7898 C 743.651 0.847915 -3.36172 0
M  V30 7899 C 742.712 0.0303655 -4.29289 0
M  V30 7900 C 741.945 0.898051 -5.2609 0
M  V30 7901 O 742.168 2.13729 -5.28844 0
M  V30 7902 O 741.102 0.337328 -6.00954 0
M  V30 7903 H 744.928 -0.839078 -2.91879 0
M  V30 7904 H 742.513 -0.475527 -1.4163 0
M  V30 7905 H 744.395 1.3698 -3.98515 0
M  V30 7906 H 743.07 1.60299 -2.81222 0
M  V30 7907 H 741.977 -0.536573 -3.70232 0
M  V30 7908 H 743.31 -0.686474 -4.87389 0
M  V30 7909 N 744.962 1.50701 -0.461195 0
M  V30 7910 C 746.209 2.02267 0.0971971 0
M  V30 7911 C 746.537 1.34387 1.40608 0
M  V30 7912 O 745.792 0.455254 1.90331 0
M  V30 7913 C 746.091 3.55788 0.33908 0
M  V30 7914 C 745.757 4.42092 -0.886885 0
M  V30 7915 C 744.419 4.65398 -1.22304 0
M  V30 7916 C 746.771 4.92571 -1.70361 0
M  V30 7917 C 744.099 5.36429 -2.37616 0
M  V30 7918 C 746.451 5.64868 -2.84793 0
M  V30 7919 C 745.115 5.86431 -3.18834 0
M  V30 7920 H 744.385 0.740146 0.0355669 0
M  V30 7921 H 747.032 1.81415 -0.61326 0
M  V30 7922 H 745.337 3.751 1.13168 0
M  V30 7923 H 747.034 3.93243 0.784937 0
M  V30 7924 H 743.624 4.24165 -0.614981 0
M  V30 7925 H 747.808 4.74428 -1.4571 0
M  V30 7926 H 743.064 5.51333 -2.64276 0
M  V30 7927 H 747.238 6.02966 -3.48432 0
M  V30 7928 H 744.865 6.41248 -4.08296 0
M  V30 7929 N 746.441 0.193421 1.56409 0
M  V30 7930 C 747.666 -0.454552 2.02358 0
M  V30 7931 C 748.091 -1.54516 1.07268 0
M  V30 7932 O 747.449 -1.81214 0.0558962 0
M  V30 7933 C 747.497 -0.989469 3.46759 0
M  V30 7934 O 746.601 -2.10244 3.54783 0
M  V30 7935 H 745.942 -0.106417 0.655417 0
M  V30 7936 H 748.472 0.303807 2.02332 0
M  V30 7937 H 748.482 -1.30649 3.86516 0
M  V30 7938 H 747.157 -0.191083 4.15461 0
M  V30 7939 H 745.734 -1.79419 3.26899 0
M  V30 7940 N 747.919 -1.57396 -0.0801906 0
M  V30 7941 C 749.144 -1.91437 -0.797909 0
M  V30 7942 C 749.569 -0.789075 -1.70749 0
M  V30 7943 O 748.927 0.25857 -1.79447 0
M  V30 7944 C 748.975 -3.24402 -1.57467 0
M  V30 7945 O 748.079 -3.13043 -2.68473 0
M  V30 7946 H 747.42 -0.627109 -0.218243 0
M  V30 7947 H 749.95 -2.04537 -0.050949 0
M  V30 7948 H 749.96 -3.58072 -1.95571 0
M  V30 7949 H 748.635 -4.05884 -0.907229 0
M  V30 7950 H 747.212 -2.90915 -2.33287 0
M  V30 7951 N 749.397 0.351382 -1.53633 0
M  V30 7952 C 750.622 1.11718 -1.74739 0
M  V30 7953 C 751.047 1.81829 -0.481657 0
M  V30 7954 O 750.405 1.72264 0.565233 0
M  V30 7955 C 750.453 2.11234 -2.92254 0
M  V30 7956 O 749.557 3.186 -2.61855 0
M  V30 7957 H 748.898 0.323482 -0.579875 0
M  V30 7958 H 751.428 0.404167 -2.00568 0
M  V30 7959 H 751.438 2.54591 -3.18822 0
M  V30 7960 H 750.113 1.59599 -3.84058 0
M  V30 7961 H 748.69 2.80115 -2.4615 0
M  V30 7962 N 750.875 1.45233 0.611969 0
M  V30 7963 C 752.103 1.52539 1.39784 0
M  V30 7964 C 752.518 0.156533 1.8815 0
M  V30 7965 O 751.875 -0.84112 1.61961 0
M  V30 7966 C 751.926 2.50614 2.60528 0
M  V30 7967 O 751.647 3.8218 2.14173 0
M  V30 7968 C 753.148 2.67574 3.53439 0
M  V30 7969 H 750.368 0.51674 0.428043 0
M  V30 7970 H 752.912 1.90379 0.746727 0
M  V30 7971 H 751.067 2.15858 3.2169 0
M  V30 7972 H 751.481 4.35305 2.92592 0
M  V30 7973 H 752.955 3.40184 4.34717 0
M  V30 7974 H 753.432 1.73458 4.03496 0
M  V30 7975 H 754.038 3.0331 2.98133 0
M  V30 7976 N 752.353 -0.854086 1.3245 0
M  V30 7977 C 753.6 -1.60831 1.23043 0
M  V30 7978 C 753.928 -1.93389 -0.2076 0
M  V30 7979 O 753.183 -1.5756 -1.16075 0
M  V30 7980 C 753.482 -2.93746 2.03587 0
M  V30 7981 C 753.148 -2.80615 3.52939 0
M  V30 7982 C 751.81 -2.76742 3.93659 0
M  V30 7983 C 754.162 -2.66507 4.4791 0
M  V30 7984 C 751.49 -2.56638 5.27592 0
M  V30 7985 C 753.842 -2.47939 5.81987 0
M  V30 7986 C 752.506 -2.42458 6.21909 0
M  V30 7987 H 751.776 -0.588523 0.450247 0
M  V30 7988 H 754.423 -0.990699 1.63882 0
M  V30 7989 H 752.728 -3.5963 1.55478 0
M  V30 7990 H 754.425 -3.51127 1.93677 0
M  V30 7991 H 751.015 -2.84456 3.20598 0
M  V30 7992 H 755.199 -2.68544 4.1737 0
M  V30 7993 H 750.455 -2.50831 5.57579 0
M  V30 7994 H 754.629 -2.36002 6.55192 0
M  V30 7995 H 752.256 -2.2664 7.2563 0
M  V30 7996 N 753.831 -1.1567 -1.07043 0
M  V30 7997 C 755.056 -0.957946 -1.83952 0
M  V30 7998 C 755.481 0.488807 -1.81638 0
M  V30 7999 O 754.839 1.34869 -1.21162 0
M  V30 8000 C 754.887 -1.48064 -3.288 0
M  V30 8001 O 753.991 -0.681921 -4.06723 0
M  V30 8002 H 753.332 -0.341453 -0.569479 0
M  V30 8003 H 755.862 -1.53728 -1.35015 0
M  V30 8004 H 755.872 -1.49484 -3.7963 0
M  V30 8005 H 754.547 -2.53388 -3.29799 0
M  V30 8006 H 753.124 -0.737612 -3.65532 0
M  V30 8007 N 755.309 1.25446 -0.953992 0
M  V30 8008 C 756.241 2.25111 -0.431004 0
M  V30 8009 C 757.254 1.56377 0.452764 0
M  V30 8010 O 758.443 1.76579 0.261144 0
M  V30 8011 C 755.543 3.3655 0.39839 0
M  V30 8012 C 754.716 4.34843 -0.472229 0
M  V30 8013 C 753.775 5.25351 0.29886 0
M  V30 8014 O 752.801 5.68396 -0.302522 0
M  V30 8015 N 754.003 5.5824 1.59211 0
M  V30 8016 H 756.768 2.70619 -1.28785 0
M  V30 8017 H 754.329 1.39346 -0.824281 0
M  V30 8018 H 756.321 3.94059 0.921941 0
M  V30 8019 H 754.891 2.90436 1.15609 0
M  V30 8020 H 754.111 3.76222 -1.17689 0
M  V30 8021 H 755.399 4.97497 -1.06648 0
M  V30 8022 H 754.797 5.25172 2.10264 0
M  V30 8023 H 753.354 6.18336 2.06164 0
M  V30 8024 N 756.787 0.722489 1.40064 0
M  V30 8025 C 758.012 0.273446 2.05589 0
M  V30 8026 C 758.437 -1.07875 1.54093 0
M  V30 8027 O 757.795 -1.68095 0.679252 0
M  V30 8028 C 757.843 0.271023 3.5958 0
M  V30 8029 O 756.947 -0.745499 4.05606 0
M  V30 8030 H 756.288 0.126856 0.65177 0
M  V30 8031 H 758.818 0.984906 1.79334 0
M  V30 8032 H 758.828 0.111084 4.07849 0
M  V30 8033 H 757.503 1.25776 3.96425 0
M  V30 8034 H 756.08 -0.552719 3.68781 0
M  V30 8035 N 758.265 -1.50454 0.469181 0
M  V30 8036 C 759.175 -2.32248 -0.331349 0
M  V30 8037 C 760.191 -1.42548 -0.997807 0
M  V30 8038 O 761.367 -1.75602 -0.9862 0
M  V30 8039 C 758.432 -3.17171 -1.40012 0
M  V30 8040 C 757.493 -4.2269 -0.750463 0
M  V30 8041 C 756.726 -5.03554 -1.76831 0
M  V30 8042 O 756.949 -4.85469 -2.99459 0
M  V30 8043 O 755.883 -5.86767 -1.3412 0
M  V30 8044 H 759.709 -3.01821 0.337279 0
M  V30 8045 H 757.294 -1.47602 0.231066 0
M  V30 8046 H 759.176 -3.69871 -2.01924 0
M  V30 8047 H 757.851 -2.50328 -2.05226 0
M  V30 8048 H 756.758 -3.73986 -0.0924446 0
M  V30 8049 H 758.091 -4.91997 -0.14131 0
M  V30 8050 N 759.743 -0.201713 -1.56304 0
M  V30 8051 C 760.973 0.440084 -2.01858 0
M  V30 8052 C 761.381 1.55279 -1.08098 0
M  V30 8053 O 760.724 1.83529 -0.0792216 0
M  V30 8054 C 760.786 1.05091 -3.43797 0
M  V30 8055 C 760.45 0.0761208 -4.56937 0
M  V30 8056 C 761.447 -0.716951 -5.14933 0
M  V30 8057 C 759.132 -0.0368815 -5.02286 0
M  V30 8058 C 761.126 -1.60993 -6.16733 0
M  V30 8059 C 758.813 -0.933409 -6.03929 0
M  V30 8060 C 759.811 -1.71849 -6.61027 0
M  V30 8061 O 759.499 -2.59998 -7.60695 0
M  V30 8062 H 759.231 0.114139 -0.666294 0
M  V30 8063 H 761.785 -0.309672 -2.03052 0
M  V30 8064 H 760.015 1.84938 -3.3961 0
M  V30 8065 H 761.704 1.59804 -3.73118 0
M  V30 8066 H 762.47 -0.63999 -4.80759 0
M  V30 8067 H 758.349 0.564034 -4.57537 0
M  V30 8068 H 761.893 -2.22315 -6.61227 0
M  V30 8069 H 757.79 -1.01146 -6.37526 0
M  V30 8070 H 758.558 -2.53851 -7.7814 0
M  V30 8071 N 761.222 1.57436 0.0718424 0
M  V30 8072 C 762.152 2.06724 1.08571 0
M  V30 8073 C 763.133 0.960731 1.40371 0
M  V30 8074 O 764.318 1.23345 1.49999 0
M  V30 8075 C 761.448 2.51112 2.39916 0
M  V30 8076 C 760.402 3.65639 2.22469 0
M  V30 8077 C 759.728 3.96082 3.59198 0
M  V30 8078 C 761.028 4.95687 1.64596 0
M  V30 8079 H 762.722 2.91679 0.675569 0
M  V30 8080 H 760.268 1.40319 0.32352 0
M  V30 8081 H 762.221 2.84206 3.11135 0
M  V30 8082 H 760.945 1.63186 2.8291 0
M  V30 8083 H 759.604 3.32828 1.53691 0
M  V30 8084 H 759.252 3.05287 3.99761 0
M  V30 8085 H 758.952 4.73199 3.48362 0
M  V30 8086 H 760.476 4.31672 4.31847 0
M  V30 8087 H 761.89 5.27011 2.25681 0
M  V30 8088 H 760.287 5.77126 1.64457 0
M  V30 8089 H 761.357 4.8108 0.60744 0
M  V30 8090 N 762.7 -0.34323 1.53817 0
M  V30 8091 C 763.949 -1.08086 1.70295 0
M  V30 8092 C 764.262 -1.89794 0.47302 0
M  V30 8093 O 765.468 -2.66498 0.518754 0
M  V30 8094 C 763.924 -1.97097 3.01133 0
M  V30 8095 C 763.532 -1.20594 4.31464 0
M  V30 8096 C 765.276 -2.70715 3.26976 0
M  V30 8097 C 763.183 -2.08636 5.53376 0
M  V30 8098 H 762.113 -0.407228 0.634572 0
M  V30 8099 H 764.764 -0.340328 1.80316 0
M  V30 8100 H 763.146 -2.74971 2.84969 0
M  V30 8101 H 764.32 -0.476282 4.58332 0
M  V30 8102 H 762.635 -0.587426 4.12236 0
M  V30 8103 H 765.232 -3.36857 4.15248 0
M  V30 8104 H 765.575 -3.37299 2.43998 0
M  V30 8105 H 766.108 -1.99914 3.43917 0
M  V30 8106 H 762.847 -1.46594 6.38898 0
M  V30 8107 H 762.367 -2.7939 5.30755 0
M  V30 8108 H 764.046 -2.67682 5.89029 0
M  V30 8109 N 764.178 -1.45556 -0.604258 0
M  V30 8110 C 765.408 -1.53056 -1.38771 0
M  V30 8111 C 765.816 -0.163092 -1.88496 0
M  V30 8112 O 765.159 0.846157 -1.63052 0
M  V30 8113 C 765.221 -2.45656 -2.62476 0
M  V30 8114 C 764.885 -3.92328 -2.34367 0
M  V30 8115 C 765.882 -4.82137 -1.94525 0
M  V30 8116 C 763.567 -4.37275 -2.47177 0
M  V30 8117 C 765.561 -6.14901 -1.67856 0
M  V30 8118 C 763.248 -5.70079 -2.20122 0
M  V30 8119 C 764.246 -6.58711 -1.80524 0
M  V30 8120 O 763.934 -7.89053 -1.53788 0
M  V30 8121 H 763.666 -0.520721 -0.431075 0
M  V30 8122 H 766.22 -1.91464 -0.743693 0
M  V30 8123 H 764.45 -2.02225 -3.29609 0
M  V30 8124 H 766.139 -2.43802 -3.24523 0
M  V30 8125 H 766.905 -4.48675 -1.84162 0
M  V30 8126 H 762.784 -3.68527 -2.76964 0
M  V30 8127 H 766.328 -6.8404 -1.36874 0
M  V30 8128 H 762.225 -6.03095 -2.30102 0
M  V30 8129 H 762.993 -8.01113 -1.67812 0
M  V30 8130 N 765.656 0.84705 -1.32902 0
M  V30 8131 C 766.588 1.96308 -1.18304 0
M  V30 8132 C 767.601 1.62386 -0.116082 0
M  V30 8133 O 768.79 1.74713 -0.365751 0
M  V30 8134 C 765.89 3.29556 -0.790305 0
M  V30 8135 C 765.063 3.91668 -1.94717 0
M  V30 8136 C 764.122 5.0326 -1.53674 0
M  V30 8137 O 763.148 5.22847 -2.24989 0
M  V30 8138 N 764.35 5.78852 -0.437075 0
M  V30 8139 H 767.115 2.09369 -2.14441 0
M  V30 8140 H 764.676 1.02233 -1.25539 0
M  V30 8141 H 766.668 4.01624 -0.49799 0
M  V30 8142 H 765.238 3.12497 0.0801286 0
M  V30 8143 H 764.458 3.12292 -2.40557 0
M  V30 8144 H 765.746 4.299 -2.72146 0
M  V30 8145 H 765.144 5.65484 0.156316 0
M  V30 8146 H 763.701 6.51479 -0.204399 0
M  V30 8147 N 767.134 1.16236 1.06428 0
M  V30 8148 C 768.044 0.881976 2.1739 0
M  V30 8149 C 769.06 -0.145259 1.73393 0
M  V30 8150 O 770.236 0.0310558 2.01376 0
M  V30 8151 C 767.301 0.385496 3.4455 0
M  V30 8152 C 766.362 1.47779 4.03063 0
M  V30 8153 C 765.595 1.0049 5.24154 0
M  V30 8154 O 765.818 -0.145889 5.70213 0
M  V30 8155 O 764.752 1.79265 5.74585 0
M  V30 8156 H 768.578 1.80983 2.43883 0
M  V30 8157 H 766.163 0.942226 1.15942 0
M  V30 8158 H 768.045 0.115536 4.21242 0
M  V30 8159 H 766.72 -0.514369 3.19587 0
M  V30 8160 H 765.627 1.80147 3.27869 0
M  V30 8161 H 766.96 2.35291 4.32318 0
M  V30 8162 N 768.612 -1.24939 0.960631 0
M  V30 8163 C 769.837 -1.9742 0.635608 0
M  V30 8164 C 770.262 -1.70857 -0.786737 0
M  V30 8165 O 769.62 -0.968063 -1.53291 0
M  V30 8166 C 769.668 -3.48987 0.907771 0
M  V30 8167 O 768.772 -4.12399 -0.0104053 0
M  V30 8168 H 768.113 -0.61871 0.241027 0
M  V30 8169 H 770.643 -1.58901 1.28886 0
M  V30 8170 H 770.653 -3.99334 0.836453 0
M  V30 8171 H 769.328 -3.6765 1.94439 0
M  V30 8172 H 767.905 -3.72727 0.113631 0
M  V30 8173 N 770.09 -0.729906 -1.39679 0
M  V30 8174 C 771.022 -0.0470588 -2.29152 0
M  V30 8175 C 772.035 0.708808 -1.4656 0
M  V30 8176 O 773.224 0.553815 -1.69691 0
M  V30 8177 C 770.324 0.957612 -3.25089 0
M  V30 8178 C 769.497 0.264321 -4.36601 0
M  V30 8179 C 768.556 1.17638 -5.12882 0
M  V30 8180 O 767.582 0.655777 -5.6541 0
M  V30 8181 N 768.784 2.50649 -5.23598 0
M  V30 8182 H 771.549 -0.815364 -2.88395 0
M  V30 8183 H 769.11 -0.578707 -1.51204 0
M  V30 8184 H 771.102 1.57026 -3.72995 0
M  V30 8185 H 769.672 1.62716 -2.66912 0
M  V30 8186 H 768.892 -0.528732 -3.90638 0
M  V30 8187 H 770.18 -0.216344 -5.0834 0
M  V30 8188 H 769.578 2.95427 -4.82431 0
M  V30 8189 H 768.135 3.07022 -5.74961 0
M  V30 8190 N 771.568 1.50203 -0.477153 0
M  V30 8191 C 772.808 2.04265 0.0744065 0
M  V30 8192 C 773.172 1.35082 1.36443 0
M  V30 8193 O 774.373 1.79732 1.99875 0
M  V30 8194 C 772.644 3.56539 0.247874 0
M  V30 8195 S 774.203 4.32219 0.757117 0
M  V30 8196 H 771.021 0.71088 0.0130891 0
M  V30 8197 H 773.623 1.8453 -0.645678 0
M  V30 8198 H 772.327 4.04443 -0.696709 0
M  V30 8199 H 771.858 3.80638 0.993896 0
M  V30 8200 H 773.873 4.52789 2.0297 0
M  V30 8201 N 773.046 0.209999 1.56195 0
M  V30 8202 C 774.462 -0.145598 1.58934 0
M  V30 8203 C 774.662 -1.59868 1.22656 0
M  V30 8204 O 773.718 -2.33689 0.956336 0
M  V30 8205 C 775.031 0.170243 3.00218 0
M  V30 8206 C 776.579 0.111548 3.12801 0
M  V30 8207 C 777.054 0.400904 4.56242 0
M  V30 8208 N 778.545 0.350058 4.61875 0
M  V30 8209 C 779.28 0.547598 5.70779 0
M  V30 8210 N 778.776 0.806291 6.88092 0
M  V30 8211 N 780.569 0.480827 5.6004 0
M  V30 8212 H 772.72 1.15804 1.78054 0
M  V30 8213 H 774.983 0.463326 0.827063 0
M  V30 8214 H 774.689 1.17833 3.31373 0
M  V30 8215 H 774.563 -0.520208 3.73596 0
M  V30 8216 H 776.95 -0.887162 2.81449 0
M  V30 8217 H 777.031 0.835302 2.41777 0
M  V30 8218 H 776.675 1.397 4.8831 0
M  V30 8219 H 776.605 -0.34391 5.25476 0
M  V30 8220 H 779.096 0.157334 3.77572 0
M  V30 8221 H 779.409 0.945433 7.66995 0
M  V30 8222 H 777.754 0.843355 6.89864 0
M  V30 8223 H 780.945 0.279037 4.67268 0
M  V30 8224 H 781.118 0.638189 6.4485 0
M  V30 8225 N 774.524 -1.57472 -0.0634922 0
M  V30 8226 C 775.454 -2.07297 -1.07473 0
M  V30 8227 C 776.435 -0.968162 -1.39859 0
M  V30 8228 O 777.62 -1.24139 -1.49343 0
M  V30 8229 C 774.75 -2.52381 -2.38581 0
M  V30 8230 C 773.704 -3.66813 -2.20526 0
M  V30 8231 C 773.03 -3.97982 -3.57092 0
M  V30 8232 C 774.33 -4.96553 -1.61965 0
M  V30 8233 H 776.024 -2.92033 -0.660092 0
M  V30 8234 H 773.57 -1.40488 -0.316074 0
M  V30 8235 H 775.523 -2.85852 -3.09624 0
M  V30 8236 H 774.247 -1.64684 -2.8204 0
M  V30 8237 H 772.906 -3.33639 -1.51924 0
M  V30 8238 H 772.554 -3.07403 -3.98136 0
M  V30 8239 H 772.254 -4.7504 -3.45848 0
M  V30 8240 H 773.778 -4.33956 -4.29552 0
M  V30 8241 H 775.192 -5.28201 -2.22883 0
M  V30 8242 H 773.589 -5.7799 -1.61394 0
M  V30 8243 H 774.659 -4.81396 -0.581918 0
M  V30 8244 N 776.003 0.335068 -1.53997 0
M  V30 8245 C 777.419 0.678704 -1.4445 0
M  V30 8246 C 777.619 1.92106 -0.608078 0
M  V30 8247 O 776.675 2.52292 -0.102373 0
M  V30 8248 C 777.988 0.863435 -2.88037 0
M  V30 8249 C 779.536 0.961513 -2.97866 0
M  V30 8250 C 780.011 1.1785 -4.42578 0
M  V30 8251 N 781.502 1.2455 -4.46141 0
M  V30 8252 C 782.237 1.43106 -5.55255 0
M  V30 8253 N 781.733 1.5878 -6.74359 0
M  V30 8254 N 783.526 1.45722 -5.42883 0
M  V30 8255 H 775.677 -0.481656 -2.06867 0
M  V30 8256 H 777.94 -0.153615 -0.935471 0
M  V30 8257 H 777.646 0.0219511 -3.51693 0
M  V30 8258 H 777.52 1.76268 -3.33481 0
M  V30 8259 H 779.907 1.79351 -2.34344 0
M  V30 8260 H 779.988 0.0389862 -2.5577 0
M  V30 8261 H 779.632 0.351397 -5.06683 0
M  V30 8262 H 779.562 2.11472 -4.82273 0
M  V30 8263 H 782.053 1.13928 -3.60318 0
M  V30 8264 H 782.366 1.72599 -7.53279 0
M  V30 8265 H 780.711 1.559 -6.77289 0
M  V30 8266 H 783.902 1.33065 -4.48789 0
M  V30 8267 H 784.075 1.59841 -6.27977 0
M  V30 8268 N 777.481 1.45874 0.596531 0
M  V30 8269 C 778.711 1.5379 1.37958 0
M  V30 8270 C 779.119 0.173086 1.88407 0
M  V30 8271 O 778.462 -0.837498 1.63498 0
M  V30 8272 C 778.524 2.47044 2.61169 0
M  V30 8273 C 778.188 3.93565 2.32283 0
M  V30 8274 C 779.185 4.83162 1.91965 0
M  V30 8275 C 776.87 4.38579 2.44854 0
M  V30 8276 C 778.864 6.15782 1.64593 0
M  V30 8277 C 776.551 5.71238 2.17095 0
M  V30 8278 C 777.549 6.59659 1.77028 0
M  V30 8279 O 777.237 7.89857 1.49601 0
M  V30 8280 H 776.969 0.523 0.428307 0
M  V30 8281 H 779.523 1.91855 0.733529 0
M  V30 8282 H 777.753 2.0397 3.28532 0
M  V30 8283 H 779.442 2.4552 3.23226 0
M  V30 8284 H 780.208 4.49646 1.8178 0
M  V30 8285 H 776.087 3.6999 2.75006 0
M  V30 8286 H 779.631 6.84757 1.33245 0
M  V30 8287 H 775.528 6.04306 2.26901 0
M  V30 8288 H 776.296 8.01991 1.63561 0
M  V30 8289 N 778.959 -0.83999 1.33349 0
M  V30 8290 C 779.889 -1.965 1.26135 0
M  V30 8291 C 780.87 -1.69505 0.142152 0
M  V30 8292 O 782.055 -1.91346 0.331743 0
M  V30 8293 C 779.185 -3.32632 0.99866 0
M  V30 8294 C 778.139 -3.74021 2.08068 0
M  V30 8295 C 777.465 -5.07947 1.67014 0
M  V30 8296 C 778.765 -3.87925 3.49731 0
M  V30 8297 H 780.459 -2.02793 2.20262 0
M  V30 8298 H 778.005 -0.974297 1.06035 0
M  V30 8299 H 779.958 -4.10903 0.934696 0
M  V30 8300 H 778.682 -3.26593 0.0217759 0
M  V30 8301 H 777.341 -2.98012 2.13505 0
M  V30 8302 H 776.989 -4.98378 0.680316 0
M  V30 8303 H 776.689 -5.36611 2.39422 0
M  V30 8304 H 778.213 -5.88695 1.62082 0
M  V30 8305 H 779.627 -4.5651 3.46802 0
M  V30 8306 H 778.024 -4.28023 4.20614 0
M  V30 8307 H 779.094 -2.90407 3.88319 0
M  V30 8308 N 780.437 -1.16799 -1.0581 0
M  V30 8309 C 781.367 -0.902241 -2.15364 0
M  V30 8310 C 782.348 0.153351 -1.69407 0
M  V30 8311 O 783.533 0.00442032 -1.94199 0
M  V30 8312 C 780.663 -0.407911 -3.44896 0
M  V30 8313 C 779.617 -1.40197 -4.04387 0
M  V30 8314 C 778.943 -0.765848 -5.29187 0
M  V30 8315 C 780.243 -2.77316 -4.42598 0
M  V30 8316 H 781.937 -1.81841 -2.37853 0
M  V30 8317 H 779.483 -0.875731 -1.14311 0
M  V30 8318 H 781.436 -0.20945 -4.20879 0
M  V30 8319 H 780.16 0.54378 -3.22041 0
M  V30 8320 H 778.819 -1.58707 -3.30466 0
M  V30 8321 H 778.467 0.192482 -5.02632 0
M  V30 8322 H 778.167 -1.42939 -5.69949 0
M  V30 8323 H 779.691 -0.577519 -6.07863 0
M  V30 8324 H 781.105 -2.62561 -5.09642 0
M  V30 8325 H 779.502 -3.4019 -4.94359 0
M  V30 8326 H 780.572 -3.32199 -3.53231 0
M  V30 8327 N 781.915 1.24427 -0.967243 0
M  V30 8328 C 782.825 2.29109 -0.504592 0
M  V30 8329 C 783.841 1.68495 0.434224 0
M  V30 8330 O 785.017 1.99041 0.307379 0
M  V30 8331 C 782.082 3.46133 0.198273 0
M  V30 8332 C 781.143 4.22149 -0.780313 0
M  V30 8333 C 780.376 5.33585 -0.110896 0
M  V30 8334 O 780.599 5.59676 1.10088 0
M  V30 8335 O 779.533 5.96522 -0.802823 0
M  V30 8336 H 783.359 2.708 -1.37482 0
M  V30 8337 H 780.944 1.30111 -0.73426 0
M  V30 8338 H 782.826 4.17205 0.593124 0
M  V30 8339 H 781.501 3.0642 1.04347 0
M  V30 8340 H 780.408 3.53454 -1.22561 0
M  V30 8341 H 781.741 4.65677 -1.59392 0
M  V30 8342 N 783.393 0.737304 1.3929 0
M  V30 8343 C 784.639 0.286681 2.00763 0
M  V30 8344 C 784.972 -1.12388 1.58375 0
M  V30 8345 O 784.247 -1.76661 0.813699 0
M  V30 8346 C 784.53 0.391147 3.57969 0
M  V30 8347 C 784.383 1.84165 4.1037 0
M  V30 8348 C 785.702 -0.225072 4.39524 0
M  V30 8349 H 782.821 0.105642 0.729389 0
M  V30 8350 H 785.463 0.933892 1.65464 0
M  V30 8351 H 783.613 -0.159875 3.88171 0
M  V30 8352 H 785.285 2.44972 3.90879 0
M  V30 8353 H 783.528 2.3622 3.63844 0
M  V30 8354 H 784.199 1.866 5.19504 0
M  V30 8355 H 786.675 0.244677 4.1538 0
M  V30 8356 H 785.551 -0.121646 5.48765 0
M  V30 8357 H 785.812 -1.31141 4.22202 0
M  V30 8358 N 784.871 -1.49948 0.485112 0
M  V30 8359 C 785.821 -2.25734 -0.320658 0
M  V30 8360 C 786.805 -1.29907 -0.949373 0
M  V30 8361 O 787.997 -1.54725 -0.859601 0
M  V30 8362 C 785.126 -3.13728 -1.39391 0
M  V30 8363 C 784.212 -4.1701 -0.772225 0
M  V30 8364 N 784.603 -5.05667 0.115782 0
M  V30 8365 C 782.901 -4.33834 -1.03461 0
M  V30 8366 C 783.602 -5.79798 0.47004 0
M  V30 8367 N 782.578 -5.4337 -0.158204 0
M  V30 8368 H 786.38 -2.91647 0.36319 0
M  V30 8369 H 783.894 -1.59602 0.300154 0
M  V30 8370 H 785.891 -3.66639 -1.98447 0
M  V30 8371 H 784.551 -2.49365 -2.0796 0
M  V30 8372 H 785.562 -5.15619 0.485557 0
M  V30 8373 H 782.239 -3.80684 -1.71424 0
M  V30 8374 H 783.629 -6.61177 1.19558 0
M  V30 8375 N 786.349 -0.21828 -1.56081 0
M  V30 8376 C 787.279 0.687922 -2.23136 0
M  V30 8377 C 788.26 1.20357 -1.202 0
M  V30 8378 O 789.445 1.24817 -1.48776 0
M  V30 8379 C 786.575 1.89762 -2.90874 0
M  V30 8380 C 785.529 1.51595 -4.00254 0
M  V30 8381 C 784.855 2.80415 -4.55271 0
M  V30 8382 C 786.155 0.708404 -5.17474 0
M  V30 8383 H 787.849 0.128854 -2.99123 0
M  V30 8384 H 785.395 0.0605354 -1.43873 0
M  V30 8385 H 787.348 2.53699 -3.36474 0
M  V30 8386 H 786.072 2.4816 -2.1233 0
M  V30 8387 H 784.731 0.900058 -3.55379 0
M  V30 8388 H 784.379 3.36951 -3.73461 0
M  V30 8389 H 784.079 2.55613 -5.2909 0
M  V30 8390 H 785.603 3.453 -5.03587 0
M  V30 8391 H 787.017 1.2514 -5.59476 0
M  V30 8392 H 785.414 0.557593 -5.97504 0
M  V30 8393 H 786.484 -0.285679 -4.84058 0
M  V30 8394 O 787.866 1.61292 -0.0819188 0
M  V30 8395 H 788.557 1.86513 0.522732 0
M  V30 END ATOM
M  V30 BEGIN BOND
M  V30 END BOND
M  V30 END CTAB
M  END
$$$$
