drugbank_target|P14920 D-amino-acid oxidase (DB02838; DB02988; DB03147; DB03225; DB03531; DB03793; DB04166; DB07979)
 OpenBabel12092120473D

  0  0  0     0  0            999 V3000
M  V30 BEGIN CTAB
M  V30 COUNTS 5530 5610 0 0 0
M  V30 BEGIN ATOM
M  V30 1 H -0.908 1.98254 -0.117106 0
M  V30 2 N 0 1.576 0 0
M  V30 3 C 0.933 2.03868 1.02534 0
M  V30 4 C 1.911 0.928543 1.3348 0
M  V30 5 O 3.095 1.19667 1.45644 0
M  V30 6 C 0.222 2.43627 2.35294 0
M  V30 7 C -0.732 3.65373 2.2001 0
M  V30 8 S 0.101 5.13292 1.52614 0
M  V30 9 C 1.257 5.56322 2.86805 0
M  V30 10 H 1.49 2.90518 0.631377 0
M  V30 11 H -0.977 1.52953 0.210867 0
M  V30 12 H 0.981 2.67203 3.11629 0
M  V30 13 H -0.358 1.57376 2.7183 0
M  V30 14 H -1.165 3.90944 3.18086 0
M  V30 15 H -1.563 3.418 1.51819 0
M  V30 16 H 0.729 5.58782 3.83104 0
M  V30 17 H 1.672 6.56266 2.65933 0
M  V30 18 H 2.08 4.83886 2.90714 0
M  V30 19 N 1.4781 -0.272755 1.55222 0
M  V30 20 C 2.8941 -0.619959 1.47067 0
M  V30 21 C 3.0941 -1.895 0.684978 0
M  V30 22 O 2.1501 -2.51675 0.203931 0
M  V30 23 C 3.4631 -0.746693 2.91282 0
M  V30 24 C 5.0111 -0.840731 3.01497 0
M  V30 25 C 5.4861 -0.99924 4.46967 0
M  V30 26 N 6.9771 -1.06476 4.50796 0
M  V30 27 C 7.7121 -1.20621 5.6057 0
M  V30 28 N 7.2081 -1.31483 6.80209 0
M  V30 29 N 9.0011 -1.23733 5.48312 0
M  V30 30 H 1.1521 0.564606 2.04758 0
M  V30 31 H 3.4151 0.191177 0.928523 0
M  V30 32 H 3.1211 0.119753 3.51496 0
M  V30 33 H 2.9951 -1.6269 3.40311 0
M  V30 34 H 5.3821 -1.69764 2.41379 0
M  V30 35 H 5.4631 0.0640874 2.5572 0
M  V30 36 H 5.1071 -0.146984 5.07687 0
M  V30 37 H 5.0371 -1.91871 4.90401 0
M  V30 38 H 7.5281 -0.993196 3.64615 0
M  V30 39 H 7.8411 -1.42111 7.59621 0
M  V30 40 H 6.1861 -1.28487 6.8302 0
M  V30 41 H 9.3771 -1.14877 4.53785 0
M  V30 42 H 9.5501 -1.34412 6.33906 0
M  V30 43 N 2.9562 -1.48159 -0.537278 0
M  V30 44 C 4.2022 -1.56035 -1.29541 0
M  V30 45 C 4.5352 -0.230377 -1.92829 0
M  V30 46 O 3.8102 0.762952 -1.78911 0
M  V30 47 C 4.0932 -2.69323 -2.39034 0
M  V30 48 C 3.9462 -4.12002 -1.80485 0
M  V30 49 C 5.2652 -2.78408 -3.40847 0
M  V30 50 H 2.3842 -0.567992 -0.469632 0
M  V30 51 H 5.0262 -1.80302 -0.599277 0
M  V30 52 H 3.1762 -2.48763 -2.98412 0
M  V30 53 H 4.8482 -4.43981 -1.25215 0
M  V30 54 H 3.0912 -4.19344 -1.11055 0
M  V30 55 H 3.7622 -4.87077 -2.59731 0
M  V30 56 H 6.2382 -2.97012 -2.91416 0
M  V30 57 H 5.1142 -3.59416 -4.14863 0
M  V30 58 H 5.3752 -1.86269 -4.00944 0
M  V30 59 N 4.4343 0.785586 -1.36625 0
M  V30 60 C 5.6803 1.54591 -1.31261 0
M  V30 61 C 6.0133 1.93906 0.106823 0
M  V30 62 O 5.2883 1.63007 1.06108 0
M  V30 63 C 5.5713 2.82038 -2.23889 0
M  V30 64 C 5.4243 2.49066 -3.74548 0
M  V30 65 C 6.7433 3.83887 -2.15217 0
M  V30 66 H 3.8623 0.560846 -0.478143 0
M  V30 67 H 6.5043 0.902278 -1.67209 0
M  V30 68 H 4.6543 3.36961 -1.93363 0
M  V30 69 H 6.3263 2.00164 -4.15611 0
M  V30 70 H 4.5693 1.81954 -3.93796 0
M  V30 71 H 5.2403 3.40109 -4.34776 0
M  V30 72 H 7.7163 3.38421 -2.42096 0
M  V30 73 H 6.5923 4.70806 -2.82193 0
M  V30 74 H 6.8533 4.27131 -1.14068 0
M  V30 75 N 5.9124 1.20967 1.01018 0
M  V30 76 C 7.1584 1.02526 1.74975 0
M  V30 77 C 7.4914 -0.4408 1.89131 0
M  V30 78 O 6.7664 -1.32718 1.42184 0
M  V30 79 C 7.0494 1.71699 3.1653 0
M  V30 80 C 6.9024 3.25791 3.10129 0
M  V30 81 C 8.2214 1.45531 4.15342 0
M  V30 82 H 5.3404 0.373863 0.635134 0
M  V30 83 H 7.9824 1.49071 1.17805 0
M  V30 84 H 6.1324 1.32128 3.65341 0
M  V30 85 H 7.8044 3.74697 2.69072 0
M  V30 86 H 6.0474 3.56363 2.47362 0
M  V30 87 H 6.7184 3.69353 4.10222 0
M  V30 88 H 9.1944 1.79872 3.75213 0
M  V30 89 H 8.0704 1.96453 5.1254 0
M  V30 90 H 8.3314 0.384237 4.40427 0
M  V30 91 N 7.3905 -1.2043 1.01659 0
M  V30 92 C 8.6395 -1.89118 0.701237 0
M  V30 93 C 8.9525 -1.79705 -0.772358 0
M  V30 94 O 10.1585 -2.43528 -1.20026 0
M  V30 95 C 8.6145 -3.39168 1.20388 0
M  V30 96 C 8.2225 -3.57166 2.70438 0
M  V30 97 C 9.9665 -4.1341 0.963953 0
M  V30 98 C 7.8735 -5.01042 3.14183 0
M  V30 99 H 6.8035 -0.708267 0.2586 0
M  V30 100 H 9.4545 -1.36239 1.22927 0
M  V30 101 H 7.8365 -3.91369 0.603824 0
M  V30 102 H 9.0105 -3.15351 3.35992 0
M  V30 103 H 7.3255 -2.96294 2.92572 0
M  V30 104 H 9.9225 -5.19491 1.26621 0
M  V30 105 H 10.2655 -4.16181 -0.099578 0
M  V30 106 H 10.7985 -3.67309 1.52738 0
M  V30 107 H 7.5375 -5.03426 4.19812 0
M  V30 108 H 7.0575 -5.43668 2.53348 0
M  V30 109 H 8.7365 -5.69623 3.0682 0
M  V30 110 N 8.8686 -0.792821 -1.36206 0
M  V30 111 C 10.1166 -0.366062 -1.98757 0
M  V30 112 C 10.4376 1.0668 -1.63231 0
M  V30 113 O 9.7076 1.73587 -0.907978 0
M  V30 114 H 8.2876 -0.132364 -0.735179 0
M  V30 115 H 10.9496 -1.01562 -1.66347 0
M  V30 116 H 10.0456 -0.460638 -3.08682 0
M  V30 117 N 10.3467 1.47872 -0.545128 0
M  V30 118 C 11.3097 2.28337 0.198717 0
M  V30 119 C 12.3097 1.36255 0.853888 0
M  V30 120 O 13.4997 1.59003 0.711606 0
M  V30 121 C 10.6317 3.15585 1.28915 0
M  V30 122 H 11.8247 2.95567 -0.507941 0
M  V30 123 H 9.3777 1.53362 -0.301616 0
M  V30 124 H 10.1127 2.53019 2.02859 0
M  V30 125 H 9.8977 3.83337 0.824309 0
M  V30 126 H 11.3877 3.76243 1.81194 0
M  V30 127 N 11.8248 0.280983 1.55075 0
M  V30 128 C 13.0728 -0.333455 1.9933 0
M  V30 129 C 13.3938 -1.55937 1.17085 0
M  V30 130 O 12.6638 -1.94143 0.261805 0
M  V30 131 H 11.2438 -0.126197 0.736263 0
M  V30 132 H 13.9058 0.387678 1.91005 0
M  V30 133 H 13.0018 -0.619292 3.05894 0
M  V30 134 N 13.3029 -1.57598 0.00835791 0
M  V30 135 C 14.5489 -1.91211 -0.675732 0
M  V30 136 C 14.8819 -0.883139 -1.72958 0
M  V30 137 O 14.1569 0.097016 -1.94258 0
M  V30 138 C 14.4399 -3.35379 -1.31123 0
M  V30 139 C 14.2929 -4.48999 -0.268356 0
M  V30 140 C 15.6119 -3.7912 -2.23508 0
M  V30 141 H 12.7309 -0.695374 -0.244179 0
M  V30 142 H 15.3729 -1.89901 0.0613655 0
M  V30 143 H 13.5229 -3.36626 -1.93946 0
M  V30 144 H 15.1949 -4.59887 0.360844 0
M  V30 145 H 13.4379 -4.31873 0.408482 0
M  V30 146 H 14.1089 -5.46851 -0.752218 0
M  V30 147 H 16.5849 -3.79477 -1.70693 0
M  V30 148 H 15.4609 -4.80729 -2.64936 0
M  V30 149 H 15.7219 -3.13455 -3.11766 0
M  V30 150 N 14.781 0.264519 -1.55364 0
M  V30 151 C 16.03 0.992812 -1.75574 0
M  V30 152 C 16.343 1.87142 -0.568979 0
M  V30 153 O 17.549 2.63513 -0.653682 0
M  V30 154 C 16.005 1.81519 -3.10771 0
M  V30 155 C 15.613 0.984839 -4.37041 0
M  V30 156 C 17.357 2.53727 -3.40327 0
M  V30 157 C 15.264 1.80209 -5.63275 0
M  V30 158 H 14.194 0.374412 -0.65447 0
M  V30 159 H 16.845 0.248138 -1.81815 0
M  V30 160 H 15.227 2.60115 -2.98591 0
M  V30 161 H 16.401 0.242455 -4.60162 0
M  V30 162 H 14.716 0.37691 -4.14691 0
M  V30 163 H 17.313 3.15292 -4.3185 0
M  V30 164 H 17.656 3.24447 -2.60845 0
M  V30 165 H 18.189 1.82156 -3.53644 0
M  V30 166 H 14.928 1.13896 -6.45529 0
M  V30 167 H 14.448 2.52022 -5.44284 0
M  V30 168 H 16.127 2.37364 -6.01887 0
M  V30 169 N 16.2591 1.48442 0.529413 0
M  V30 170 C 17.5071 1.56179 1.28267 0
M  V30 171 C 17.8281 0.237721 1.93546 0
M  V30 172 O 17.0981 -0.740779 1.81354 0
M  V30 173 H 15.6781 0.575367 0.476405 0
M  V30 174 H 18.3401 1.84909 0.61602 0
M  V30 175 H 17.4361 2.34312 2.06165 0
M  V30 176 N 17.7372 -0.778329 1.37039 0
M  V30 177 C 18.6672 -1.90546 1.34962 0
M  V30 178 C 19.6482 -1.68681 0.219274 0
M  V30 179 O 20.8332 -1.89634 0.418624 0
M  V30 180 C 17.9632 -3.27734 1.14925 0
M  V30 181 C 16.9172 -3.64147 2.24902 0
M  V30 182 C 16.2432 -4.99806 1.89996 0
M  V30 183 C 17.5432 -3.71579 3.67051 0
M  V30 184 H 19.2372 -1.92541 2.29277 0
M  V30 185 H 16.7832 -0.924948 1.10366 0
M  V30 186 H 18.7362 -4.06215 1.12104 0
M  V30 187 H 17.4602 -3.26154 0.170631 0
M  V30 188 H 16.1192 -2.8797 2.26868 0
M  V30 189 H 15.7672 -4.94759 0.906796 0
M  V30 190 H 15.4672 -5.25139 2.63634 0
M  V30 191 H 16.9912 -5.80694 1.88749 0
M  V30 192 H 18.4052 -4.40227 3.67251 0
M  V30 193 H 16.8022 -4.08405 4.39688 0
M  V30 194 H 17.8722 -2.72404 4.01154 0
M  V30 195 N 19.2153 -1.21501 -1.00376 0
M  V30 196 C 20.4403 -1.05977 -1.78279 0
M  V30 197 C 20.8653 0.385994 -1.84097 0
M  V30 198 O 20.2233 1.27849 -1.28547 0
M  V30 199 C 20.2713 -1.66302 -3.19963 0
M  V30 200 O 19.3753 -0.909333 -4.0225 0
M  V30 201 H 18.7163 -0.372906 -0.549397 0
M  V30 202 H 21.2463 -1.6107 -1.26165 0
M  V30 203 H 21.2563 -1.70574 -3.70632 0
M  V30 204 H 19.9313 -2.71515 -3.15043 0
M  V30 205 H 18.5083 -0.941795 -3.60811 0
M  V30 206 N 20.6934 1.19889 -1.02296 0
M  V30 207 C 21.9214 1.9339 -0.735399 0
M  V30 208 C 22.3364 1.75148 0.704887 0
M  V30 209 O 21.6934 1.06954 1.47875 0
M  V30 210 C 21.7444 3.45313 -1.06962 0
M  V30 211 O 21.4654 3.62964 -2.45334 0
M  V30 212 C 22.9664 4.35948 -0.804021 0
M  V30 213 H 20.1864 0.61448 -0.269546 0
M  V30 214 H 22.7304 1.522 -1.36585 0
M  V30 215 H 20.8854 3.84359 -0.484455 0
M  V30 216 H 21.2994 4.56886 -2.57595 0
M  V30 217 H 22.7734 5.41174 -1.0879 0
M  V30 218 H 23.2504 4.3842 0.261691 0
M  V30 219 H 23.8564 4.02574 -1.37164 0
M  V30 220 N 22.1715 0.800033 1.35784 0
M  V30 221 C 23.1345 0.211565 2.28221 0
M  V30 222 C 24.1345 -0.59728 1.49296 0
M  V30 223 O 25.3245 -0.416721 1.69142 0
M  V30 224 C 22.4565 -0.705846 3.33513 0
M  V30 225 H 23.6495 1.02677 2.81776 0
M  V30 226 H 21.2025 0.570211 1.45528 0
M  V30 227 H 21.9375 -1.54498 2.85133 0
M  V30 228 H 21.7225 -0.127655 3.91892 0
M  V30 229 H 23.2125 -1.11211 4.02519 0
M  V30 230 N 23.6496 -1.47581 0.552962 0
M  V30 231 C 24.5796 -2.32762 -0.185451 0
M  V30 232 C 25.5606 -1.43527 -0.912905 0
M  V30 233 O 26.7456 -1.72388 -0.894201 0
M  V30 234 C 23.8756 -3.25219 -1.21859 0
M  V30 235 C 22.8296 -4.23661 -0.607864 0
M  V30 236 C 22.1556 -5.05413 -1.74533 0
M  V30 237 C 23.4556 -5.20481 0.435582 0
M  V30 238 H 25.1496 -2.94749 0.525684 0
M  V30 239 H 22.6956 -1.41738 0.254251 0
M  V30 240 H 24.6486 -3.8365 -1.7433 0
M  V30 241 H 23.3726 -2.61279 -1.95961 0
M  V30 242 H 22.0316 -3.66451 -0.104489 0
M  V30 243 H 21.6796 -4.3788 -2.47529 0
M  V30 244 H 21.3796 -5.72059 -1.34249 0
M  V30 245 H 22.9036 -5.66701 -2.27338 0
M  V30 246 H 24.3176 -5.733 -0.00290157 0
M  V30 247 H 22.7146 -5.95305 0.757067 0
M  V30 248 H 23.7846 -4.66217 1.33303 0
M  V30 249 N 25.1277 -0.289203 -1.54924 0
M  V30 250 C 26.3677 0.324536 -2.01807 0
M  V30 251 C 26.7317 1.5199 -1.17316 0
M  V30 252 O 27.9327 2.20422 -1.53843 0
M  V30 253 C 26.2037 0.683578 -3.50802 0
M  V30 254 S 27.7627 1.28185 -4.19659 0
M  V30 255 H 24.5807 0.100236 -0.703899 0
M  V30 256 H 27.1827 -0.414325 -1.91059 0
M  V30 257 H 25.8867 -0.195073 -4.09936 0
M  V30 258 H 25.4177 1.45354 -3.65562 0
M  V30 259 H 27.4327 2.57006 -4.24456 0
M  V30 260 N 26.6058 1.57591 -0.0167156 0
M  V30 261 C 27.8548 1.90461 0.663877 0
M  V30 262 C 28.1678 0.893515 1.73999 0
M  V30 263 O 29.3738 1.11302 2.47637 0
M  V30 264 C 27.8298 3.38155 1.23204 0
M  V30 265 C 27.4378 4.47597 0.189866 0
M  V30 266 C 29.1818 3.80111 1.88986 0
M  V30 267 C 27.0888 5.86379 0.768964 0
M  V30 268 H 26.0188 0.710738 0.251729 0
M  V30 269 H 28.6698 1.83326 -0.0799926 0
M  V30 270 H 27.0518 3.40182 2.02712 0
M  V30 271 H 28.2258 4.57112 -0.581846 0
M  V30 272 H 26.5408 4.14766 -0.368475 0
M  V30 273 H 29.1378 4.81145 2.33247 0
M  V30 274 H 29.4808 3.14511 2.72743 0
M  V30 275 H 30.0138 3.80454 1.16187 0
M  V30 276 H 26.7528 6.55493 -0.0301957 0
M  V30 277 H 26.2728 5.80496 1.50945 0
M  V30 278 H 27.9518 6.34563 1.26251 0
M  V30 279 N 28.0839 -0.256276 1.55502 0
M  V30 280 C 29.0339 -1.31981 1.85916 0
M  V30 281 C 30.0179 -1.43927 0.719296 0
M  V30 282 O 31.2099 -1.47326 0.981019 0
M  V30 283 C 28.3389 -2.67703 2.14918 0
M  V30 284 C 27.4249 -2.59801 3.35208 0
M  V30 285 N 27.8159 -2.21524 4.54709 0
M  V30 286 C 26.1139 -2.90832 3.38131 0
M  V30 287 C 26.8149 -2.24024 5.36832 0
M  V30 288 N 25.7909 -2.63158 4.75656 0
M  V30 289 H 29.5929 -1.01423 2.75845 0
M  V30 290 H 27.1069 -0.464911 1.55603 0
M  V30 291 H 29.1039 -3.44445 2.34869 0
M  V30 292 H 27.7639 -2.99137 1.26282 0
M  V30 293 H 28.7749 -1.93223 4.80505 0
M  V30 294 H 25.4519 -3.26867 2.59739 0
M  V30 295 H 26.8419 -1.9685 6.42417 0
M  V30 296 N 29.562 -1.4872 -0.521534 0
M  V30 297 C 30.472 -1.66569 -1.65203 0
M  V30 298 C 31.488 -0.548197 -1.65139 0
M  V30 299 O 32.664 -0.820339 -1.83936 0
M  V30 300 C 29.729 -1.70917 -3.01642 0
M  V30 301 C 28.79 -2.94356 -3.12495 0
M  V30 302 C 28.023 -2.98487 -4.42426 0
M  V30 303 O 28.246 -2.10786 -5.30024 0
M  V30 304 O 27.18 -3.90746 -4.57822 0
M  V30 305 H 31.006 -2.62298 -1.5308 0
M  V30 306 H 28.591 -1.3222 -0.695565 0
M  V30 307 H 30.473 -1.7625 -3.82771 0
M  V30 308 H 29.148 -0.783633 -3.14071 0
M  V30 309 H 28.055 -2.94552 -2.3063 0
M  V30 310 H 29.388 -3.86322 -3.04986 0
M  V30 311 N 31.0401 0.771051 -1.3745 0
M  V30 312 C 32.4561 1.07171 -1.18265 0
M  V30 313 C 32.6561 2.01491 -0.019287 0
M  V30 314 O 31.7121 2.44244 0.640408 0
M  V30 315 C 33.0251 1.66854 -2.50161 0
M  V30 316 C 34.5731 1.79109 -2.56689 0
M  V30 317 C 35.0481 2.42205 -3.88717 0
M  V30 318 N 36.5391 2.49655 -3.90162 0
M  V30 319 C 37.2741 2.9933 -4.8907 0
M  V30 320 N 36.7701 3.49172 -5.98374 0
M  V30 321 N 38.5631 2.9821 -4.76474 0
M  V30 322 H 30.7141 0.144796 -2.11906 0
M  V30 323 H 32.9771 0.126863 -0.939473 0
M  V30 324 H 32.6831 1.05017 -3.35655 0
M  V30 325 H 32.5571 2.6614 -2.673 0
M  V30 326 H 34.9441 2.40077 -1.71601 0
M  V30 327 H 35.0251 0.785757 -2.43433 0
M  V30 328 H 34.6691 1.81875 -4.74219 0
M  V30 329 H 34.5991 3.43345 -3.99276 0
M  V30 330 H 37.0901 2.14383 -3.11205 0
M  V30 331 H 37.4031 3.8548 -6.69795 0
M  V30 332 H 35.7481 3.47275 -6.02018 0
M  V30 333 H 38.9391 2.58572 -3.90203 0
M  V30 334 H 39.1121 3.36613 -5.53711 0
M  V30 335 N 32.5182 1.22032 0.997298 0
M  V30 336 C 33.7482 1.06686 1.76923 0
M  V30 337 C 34.1562 -0.385838 1.85224 0
M  V30 338 O 33.4992 -1.27929 1.31833 0
M  V30 339 C 33.5612 1.59802 3.22031 0
M  V30 340 C 33.2252 3.08362 3.37286 0
M  V30 341 C 34.2222 4.05835 3.24952 0
M  V30 342 C 31.9072 3.47727 3.6248 0
M  V30 343 C 33.9012 5.4066 3.37588 0
M  V30 344 C 31.5882 4.82701 3.74757 0
M  V30 345 C 32.5862 5.78977 3.62319 0
M  V30 346 O 32.2742 7.11502 3.74193 0
M  V30 347 H 32.0062 0.374767 0.562606 0
M  V30 348 H 34.5602 1.61991 1.26286 0
M  V30 349 H 32.7902 0.989003 3.73839 0
M  V30 350 H 34.4792 1.40184 3.80924 0
M  V30 351 H 35.2452 3.76766 3.05405 0
M  V30 352 H 31.1242 2.73317 3.7124 0
M  V30 353 H 34.6682 6.15788 3.27796 0
M  V30 354 H 30.5652 5.11453 3.9381 0
M  V30 355 H 31.3332 7.19019 3.91093 0
M  V30 356 N 33.9963 -1.19345 1.0293 0
M  V30 357 C 34.9463 -2.20472 0.58104 0
M  V30 358 C 35.9303 -1.56578 -0.370442 0
M  V30 359 O 37.1223 -1.75963 -0.191344 0
M  V30 360 C 34.2513 -3.43236 -0.066306 0
M  V30 361 C 33.3373 -4.14274 0.907642 0
M  V30 362 N 33.7283 -4.61492 2.07023 0
M  V30 363 C 32.0263 -4.39966 0.731177 0
M  V30 364 C 32.7273 -5.1605 2.68454 0
M  V30 365 N 31.7033 -5.06875 1.96414 0
M  V30 366 H 35.5053 -2.54659 1.46717 0
M  V30 367 H 33.0193 -1.35423 0.896345 0
M  V30 368 H 35.0163 -4.14927 -0.405068 0
M  V30 369 H 33.6763 -3.10549 -0.948118 0
M  V30 370 H 34.6873 -4.56304 2.44963 0
M  V30 371 H 31.3643 -4.17377 -0.101507 0
M  V30 372 H 32.7543 -5.6287 3.66915 0
M  V30 373 N 35.4744 -0.807222 -1.35358 0
M  V30 374 C 36.6994 -0.399309 -2.0352 0
M  V30 375 C 37.1244 0.981986 -1.60433 0
M  V30 376 O 36.4824 1.63601 -0.781299 0
M  V30 377 C 36.5304 -0.491552 -3.57234 0
M  V30 378 O 35.6344 0.494754 -4.09421 0
M  V30 379 H 34.9754 -0.166682 -0.642739 0
M  V30 380 H 37.5054 -1.09328 -1.72941 0
M  V30 381 H 37.5154 -0.361588 -4.06395 0
M  V30 382 H 36.1904 -1.49907 -3.87944 0
M  V30 383 H 34.7674 0.324977 -3.71481 0
M  V30 384 N 36.9525 1.47285 -0.560781 0
M  V30 385 C 38.1985 2.02764 -0.0381184 0
M  V30 386 C 38.5315 1.43384 1.30976 0
M  V30 387 O 37.8065 0.590733 1.85312 0
M  V30 388 C 38.0895 3.60064 0.0511427 0
M  V30 389 C 37.9425 4.2987 -1.32408 0
M  V30 390 C 39.2615 4.33439 0.762795 0
M  V30 391 H 36.3805 0.736841 -0.0153264 0
M  V30 392 H 39.0225 1.75675 -0.723759 0
M  V30 393 H 37.1725 3.83274 0.635065 0
M  V30 394 H 38.8445 4.17989 -1.95148 0
M  V30 395 H 37.0875 3.90085 -1.8978 0
M  V30 396 H 37.7585 5.38478 -1.21431 0
M  V30 397 H 40.2345 4.15243 0.266965 0
M  V30 398 H 39.1105 5.43124 0.794221 0
M  V30 399 H 39.3715 4.02915 1.81966 0
M  V30 400 N 38.4306 0.297415 1.54768 0
M  V30 401 C 39.3606 -0.573494 2.26348 0
M  V30 402 C 40.3416 -1.14085 1.26169 0
M  V30 403 O 41.5266 -1.17086 1.54934 0
M  V30 404 C 38.6566 -1.74716 3.00153 0
M  V30 405 C 37.6106 -1.31032 4.07449 0
M  V30 406 C 36.9366 -2.56887 4.68949 0
M  V30 407 C 38.2366 -0.444183 5.20408 0
M  V30 408 H 39.9306 0.0235131 2.99391 0
M  V30 409 H 37.4766 0.0127488 1.43994 0
M  V30 410 H 39.4296 -2.3625 3.48947 0
M  V30 411 H 38.1536 -2.37035 2.24682 0
M  V30 412 H 36.8126 -0.718066 3.59499 0
M  V30 413 H 36.4606 -3.17512 3.90122 0
M  V30 414 H 36.1606 -2.2836 5.41411 0
M  V30 415 H 37.6846 -3.19229 5.20505 0
M  V30 416 H 39.0986 -0.9651 5.65118 0
M  V30 417 H 37.4956 -0.252846 5.99567 0
M  V30 418 H 38.5656 0.531609 4.81977 0
M  V30 419 N 39.9087 -1.5758 0.0250728 0
M  V30 420 C 40.8407 -2.06869 -0.986796 0
M  V30 421 C 41.8537 -0.991332 -1.29137 0
M  V30 422 O 43.0427 -1.26761 -1.25674 0
M  V30 423 C 40.1427 -2.47486 -2.31525 0
M  V30 424 C 39.3157 -3.78253 -2.19643 0
M  V30 425 C 38.3747 -4.05464 -3.35388 0
M  V30 426 O 37.4007 -4.75774 -3.12454 0
M  V30 427 N 38.6027 -3.55321 -4.59051 0
M  V30 428 H 41.3677 -2.94302 -0.566276 0
M  V30 429 H 38.9287 -1.6109 -0.161776 0
M  V30 430 H 40.9207 -2.62785 -3.07776 0
M  V30 431 H 39.4907 -1.65441 -2.65232 0
M  V30 432 H 38.7107 -3.7279 -1.28144 0
M  V30 433 H 39.9987 -4.63936 -2.08903 0
M  V30 434 H 39.3967 -2.98431 -4.80578 0
M  V30 435 H 37.9537 -3.75905 -5.32483 0
M  V30 436 N 41.3868 0.248026 -1.55636 0
M  V30 437 C 42.7978 0.817177 -1.67866 0
M  V30 438 C 43.1488 1.86069 -0.622322 0
M  V30 439 O 42.2738 2.15157 0.231618 0
M  V30 440 C 42.8688 1.489 -3.04326 0
M  V30 441 C 41.4278 2.00587 -3.185 0
M  V30 442 C 40.5748 0.856573 -2.63739 0
M  V30 443 H 43.5258 0.0238579 -1.58682 0
M  V30 444 H 43.5468 2.35698 -2.98708 0
M  V30 445 H 43.0588 0.729279 -3.81186 0
M  V30 446 H 41.1598 2.79443 -2.4646 0
M  V30 447 H 41.2728 2.20402 -4.25393 0
M  V30 448 H 39.6368 1.25678 -2.21534 0
M  V30 449 H 40.4198 0.109953 -3.43124 0
M  V30 450 N 42.8649 1.48995 0.513639 0
M  V30 451 C 43.7949 1.67636 1.62544 0
M  V30 452 C 44.7759 0.525087 1.61793 0
M  V30 453 O 45.9609 0.759502 1.78732 0
M  V30 454 C 43.0909 1.73114 3.01079 0
M  V30 455 C 42.0449 2.87905 3.16693 0
M  V30 456 C 41.3709 2.78486 4.56453 0
M  V30 457 C 42.6709 4.29005 2.97913 0
M  V30 458 H 44.3649 2.60716 1.47198 0
M  V30 459 H 41.9109 1.25465 0.706714 0
M  V30 460 H 43.8639 1.84742 3.78746 0
M  V30 461 H 42.5879 0.766241 3.17484 0
M  V30 462 H 41.2469 2.75859 2.41448 0
M  V30 463 H 40.8949 1.7993 4.69717 0
M  V30 464 H 40.5949 3.55523 4.67843 0
M  V30 465 H 42.1189 2.92104 5.36197 0
M  V30 466 H 43.5329 4.41798 3.65359 0
M  V30 467 H 41.9299 5.07166 3.20785 0
M  V30 468 H 42.9999 4.44329 1.94165 0
M  V30 469 N 44.343 -0.763751 1.37857 0
M  V30 470 C 45.62 -1.51244 1.24035 0
M  V30 471 C 46 -2.10472 -0.162649 0
M  V30 472 O 45.348 -1.96206 -1.17112 0
M  V30 473 C 45.558 -2.58694 2.34261 0
M  V30 474 C 46.906 -3.25878 2.72193 0
M  V30 475 O 47.93 -2.68993 2.33497 0
M  V30 476 O 46.789 -4.2874 3.38887 0
M  V30 477 H 43.883 -0.670243 0.484462 0
M  V30 478 H 46.429 -0.800031 1.49658 0
M  V30 479 H 45.201 -2.13105 3.2818 0
M  V30 480 H 44.824 -3.37527 2.10146 0
M  V30 481 N 45.8211 -1.22559 -0.990812 0
M  V30 482 C 47.0701 -1.04553 -1.72486 0
M  V30 483 C 47.3831 0.419349 -1.91052 0
M  V30 484 O 48.5891 0.719121 -2.61803 0
M  V30 485 C 47.0451 -1.82231 -3.10355 0
M  V30 486 C 46.6531 -3.32981 -2.99713 0
M  V30 487 C 48.3971 -1.7268 -3.87791 0
M  V30 488 C 46.3041 -4.03091 -4.32748 0
M  V30 489 H 45.2341 -0.387614 -0.646739 0
M  V30 490 H 47.8851 -1.46429 -1.10593 0
M  V30 491 H 46.2671 -1.33155 -3.72942 0
M  V30 492 H 47.4411 -3.89466 -2.46278 0
M  V30 493 H 45.7561 -3.43231 -2.35758 0
M  V30 494 H 48.3531 -2.22381 -4.86262 0
M  V30 495 H 48.6961 -0.687607 -4.10582 0
M  V30 496 H 49.2291 -2.1931 -3.31885 0
M  V30 497 H 45.9681 -5.07273 -4.15156 0
M  V30 498 H 45.4881 -3.51394 -4.86089 0
M  V30 499 H 47.1671 -4.08804 -5.01486 0
M  V30 500 N 47.2992 1.18797 -1.03562 0
M  V30 501 C 48.2462 2.22253 -0.622259 0
M  V30 502 C 49.2162 1.61987 0.36736 0
M  V30 503 O 50.4012 1.88986 0.262492 0
M  V30 504 C 47.5412 3.45097 0.0138462 0
M  V30 505 C 46.6542 4.19722 -1.02263 0
M  V30 506 C 45.7892 5.30009 -0.355573 0
M  V30 507 C 44.8282 5.96399 -1.37749 0
M  V30 508 N 43.9652 6.98234 -0.735766 0
M  V30 509 H 48.8052 2.56968 -1.50903 0
M  V30 510 H 46.3422 1.26245 -0.755017 0
M  V30 511 H 48.3002 4.15279 0.399948 0
M  V30 512 H 46.9302 3.11018 0.864158 0
M  V30 513 H 45.9822 3.48418 -1.52673 0
M  V30 514 H 47.2942 4.65227 -1.79903 0
M  V30 515 H 46.4482 6.0664 0.0850095 0
M  V30 516 H 45.1872 4.85592 0.452967 0
M  V30 517 H 44.1922 5.18512 -1.82826 0
M  V30 518 H 45.4172 6.42899 -2.18764 0
M  V30 519 H 43.3632 6.55979 0.0525597 0
M  V30 520 H 43.2802 7.41965 -1.44995 0
M  V30 521 H 44.5482 7.78845 -0.31941 0
M  V30 522 N 48.7773 0.814389 1.34928 0
M  V30 523 C 50.0233 0.399013 1.98836 0
M  V30 524 C 50.3563 -1.03314 1.64438 0
M  V30 525 O 49.6313 -1.71811 0.911659 0
M  V30 526 C 49.9143 0.591629 3.55207 0
M  V30 527 C 49.7673 2.06928 3.99376 0
M  V30 528 C 51.0863 0.022199 4.40094 0
M  V30 529 H 48.2053 0.146451 0.722303 0
M  V30 530 H 50.8473 1.02537 1.59957 0
M  V30 531 H 48.9973 0.0584441 3.88456 0
M  V30 532 H 50.6693 2.66544 3.76499 0
M  V30 533 H 48.9123 2.56287 3.49999 0
M  V30 534 H 49.5833 2.1549 5.08201 0
M  V30 535 H 52.0593 0.477643 4.13349 0
M  V30 536 H 50.9353 0.186832 5.48582 0
M  V30 537 H 51.1963 -1.07215 4.28902 0
M  V30 538 N 50.2554 -1.46986 0.568584 0
M  V30 539 C 51.4854 -2.0653 0.0539173 0
M  V30 540 C 51.8934 -1.42004 -1.25026 0
M  V30 541 O 51.2364 -0.514541 -1.76347 0
M  V30 542 C 51.2984 -3.58938 -0.200854 0
M  V30 543 C 50.9624 -4.45572 1.01559 0
M  V30 544 C 51.9594 -4.82986 1.92407 0
M  V30 545 C 49.6444 -4.8692 1.23346 0
M  V30 546 C 51.6384 -5.60559 3.03402 0
M  V30 547 C 49.3254 -5.64255 2.34649 0
M  V30 548 C 50.3234 -6.00986 3.24507 0
M  V30 549 O 50.0114 -6.76761 4.33878 0
M  V30 550 H 49.7434 -0.674292 0.0480234 0
M  V30 551 H 52.2974 -1.89812 0.784896 0
M  V30 552 H 50.5274 -3.73911 -0.986279 0
M  V30 553 H 52.2164 -4.0046 -0.662294 0
M  V30 554 H 52.9824 -4.51633 1.76785 0
M  V30 555 H 48.8614 -4.57789 0.543178 0
M  V30 556 H 52.4054 -5.89147 3.73565 0
M  V30 557 H 48.3024 -5.95021 2.5024 0
M  V30 558 H 49.0704 -6.95168 4.32068 0
M  V30 559 N 51.7335 -0.305618 -1.54608 0
M  V30 560 C 52.6965 0.555591 -2.22364 0
M  V30 561 C 53.6965 1.05768 -1.21119 0
M  V30 562 O 54.8865 0.952972 -1.45822 0
M  V30 563 C 52.0185 1.76974 -2.91364 0
M  V30 564 H 53.2115 -0.0364572 -2.99878 0
M  V30 565 H 50.7645 -0.0565007 -1.56198 0
M  V30 566 H 51.4995 2.40151 -2.17941 0
M  V30 567 H 51.2845 1.41732 -3.65588 0
M  V30 568 H 52.7745 2.38148 -3.43038 0
M  V30 569 N 53.2116 1.57565 -0.0334293 0
M  V30 570 C 54.4886 1.83282 0.683163 0
M  V30 571 C 54.8686 0.91823 1.90084 0
M  V30 572 O 54.2166 -0.025113 2.28486 0
M  V30 573 C 54.4266 3.32599 1.0573 0
M  V30 574 C 55.7746 3.99179 1.44711 0
M  V30 575 O 56.7986 3.3712 1.15015 0
M  V30 576 O 55.6576 5.08565 2.0006 0
M  V30 577 H 52.7516 0.755869 0.335546 0
M  V30 578 H 55.2976 1.69589 -0.0614402 0
M  V30 579 H 54.0696 3.90834 0.190828 0
M  V30 580 H 53.6926 3.51415 1.85993 0
M  V30 581 N 54.6897 -0.239769 1.55765 0
M  V30 582 C 56.1057 -0.588624 1.48349 0
M  V30 583 C 56.3057 -1.88005 0.72502 0
M  V30 584 O 55.3617 -2.51186 0.257269 0
M  V30 585 C 56.6747 -0.68474 2.928 0
M  V30 586 C 58.2227 -0.77659 3.03213 0
M  V30 587 C 58.6977 -0.904207 4.48986 0
M  V30 588 N 60.1887 -0.968896 4.52953 0
M  V30 589 C 60.9237 -1.08703 5.63002 0
M  V30 590 N 60.4197 -1.17026 6.82845 0
M  V30 591 N 62.2127 -1.12074 5.50814 0
M  V30 592 H 54.3637 0.607911 2.03515 0
M  V30 593 H 56.6267 0.21083 0.924259 0
M  V30 594 H 56.3327 0.194284 3.51163 0
M  V30 595 H 56.2067 -1.55435 3.43686 0
M  V30 596 H 58.5937 -1.64606 2.44926 0
M  V30 597 H 58.6747 0.118315 2.55526 0
M  V30 598 H 58.3187 -0.0392633 5.07885 0
M  V30 599 H 58.2487 -1.81426 4.9436 0
M  V30 600 H 60.7397 -0.915633 3.6664 0
M  V30 601 H 61.0527 -1.25966 7.62465 0
M  V30 602 H 59.3977 -1.13971 6.85591 0
M  V30 603 H 62.5887 -1.05226 4.5612 0
M  V30 604 H 62.7617 -1.20936 6.36615 0
M  V30 605 N 56.1678 -1.49265 -0.50573 0
M  V30 606 C 57.4148 -1.58513 -1.26015 0
M  V30 607 C 57.7428 -0.26972 -1.92621 0
M  V30 608 O 56.9978 0.741997 -1.81088 0
M  V30 609 C 57.2968 -2.69008 -2.35308 0
M  V30 610 C 56.9628 -4.10662 -1.86192 0
M  V30 611 C 55.6248 -4.49212 -1.72516 0
M  V30 612 C 57.9768 -4.99336 -1.49375 0
M  V30 613 C 55.3048 -5.74214 -1.20394 0
M  V30 614 C 57.6568 -6.24852 -0.987072 0
M  V30 615 C 56.3208 -6.62236 -0.836669 0
M  V30 616 H 55.5908 -0.580041 -0.461122 0
M  V30 617 H 58.2378 -1.83078 -0.561665 0
M  V30 618 H 56.5428 -2.38396 -3.10926 0
M  V30 619 H 58.2398 -2.73373 -2.93374 0
M  V30 620 H 54.8298 -3.8023 -1.97795 0
M  V30 621 H 59.0138 -4.70212 -1.5879 0
M  V30 622 H 54.2698 -6.01883 -1.07458 0
M  V30 623 H 58.4438 -6.92944 -0.692983 0
M  V30 624 H 56.0708 -7.58979 -0.430607 0
M  V30 625 N 57.6459 0.756429 -1.3826 0
M  V30 626 C 58.8739 1.54565 -1.3754 0
M  V30 627 C 59.2889 1.88767 0.0355331 0
M  V30 628 O 58.6459 1.52572 1.0014 0
M  V30 629 C 58.6969 2.84654 -2.22833 0
M  V30 630 O 58.4179 2.51912 -3.5843 0
M  V30 631 C 59.9189 3.78807 -2.30261 0
M  V30 632 H 57.1389 0.478353 -0.470553 0
M  V30 633 H 59.6829 0.936381 -1.81803 0
M  V30 634 H 57.8379 3.41965 -1.8204 0
M  V30 635 H 58.2519 3.35325 -4.03308 0
M  V30 636 H 59.7259 4.67045 -2.94233 0
M  V30 637 H 60.2029 4.19038 -1.31545 0
M  V30 638 H 60.8089 3.2742 -2.71433 0
M  V30 639 N 59.124 1.23083 0.984299 0
M  V30 640 C 60.535 1.05609 1.5396 0
M  V30 641 C 60.886 -0.377793 1.92528 0
M  V30 642 O 60.011 -1.26398 1.75649 0
M  V30 643 C 60.606 1.91087 2.7977 0
M  V30 644 C 59.165 1.77885 3.31713 0
M  V30 645 C 58.312 1.87028 2.04733 0
M  V30 646 H 61.263 1.36802 0.804419 0
M  V30 647 H 61.284 1.43336 3.5247 0
M  V30 648 H 60.796 2.9544 2.51668 0
M  V30 649 H 58.897 0.762995 3.64704 0
M  V30 650 H 59.01 2.61047 4.01735 0
M  V30 651 H 57.374 1.30565 2.18689 0
M  V30 652 H 58.157 2.92929 1.79017 0
M  V30 653 N 60.6021 -1.18246 1.0419 0
M  V30 654 C 61.5321 -2.24127 0.654914 0
M  V30 655 C 62.5131 -1.66617 -0.342451 0
M  V30 656 O 63.6981 -1.92924 -0.222277 0
M  V30 657 C 60.8281 -3.47295 0.0183757 0
M  V30 658 C 59.7821 -4.17563 0.939414 0
M  V30 659 C 59.1081 -5.34438 0.167286 0
M  V30 660 C 60.4081 -4.70917 2.25908 0
M  V30 661 H 62.1021 -2.56753 1.54007 0
M  V30 662 H 59.6481 -1.23414 0.74195 0
M  V30 663 H 61.6011 -4.20572 -0.264082 0
M  V30 664 H 60.3251 -3.13907 -0.901664 0
M  V30 665 H 58.9841 -3.46186 1.20628 0
M  V30 666 H 58.6321 -4.97298 -0.7552 0
M  V30 667 H 58.3321 -5.82388 0.780901 0
M  V30 668 H 59.8561 -6.10504 -0.108125 0
M  V30 669 H 61.2701 -5.35882 2.03724 0
M  V30 670 H 59.6671 -5.29406 2.82577 0
M  V30 671 H 60.7371 -3.88272 2.9047 0
M  V30 672 N 62.0802 -0.821533 -1.34494 0
M  V30 673 C 63.3082 -0.421884 -2.02553 0
M  V30 674 C 63.7232 0.971745 -1.61872 0
M  V30 675 O 63.0802 1.62864 -0.823496 0
M  V30 676 C 63.1312 -0.51285 -3.57844 0
M  V30 677 O 62.8522 -1.85155 -3.97051 0
M  V30 678 C 64.3532 -0.107921 -4.43169 0
M  V30 679 H 61.5732 -0.169482 -0.649243 0
M  V30 680 H 64.1172 -1.1093 -1.71798 0
M  V30 681 H 62.2722 0.126474 -3.87193 0
M  V30 682 H 62.6862 -1.82482 -4.91732 0
M  V30 683 H 64.1602 -0.222657 -5.51551 0
M  V30 684 H 64.6372 0.948401 -4.28838 0
M  V30 685 H 65.2432 -0.720989 -4.19144 0
M  V30 686 N 63.5583 1.46682 -0.576371 0
M  V30 687 C 64.7863 2.06798 -0.0649635 0
M  V30 688 C 65.2013 1.42612 1.23723 0
M  V30 689 O 64.5583 0.529203 1.74659 0
M  V30 690 C 64.6093 3.6132 0.114202 0
M  V30 691 O 64.3303 4.23104 -1.13644 0
M  V30 692 C 65.8313 4.38349 0.66069 0
M  V30 693 H 63.0513 0.668778 -0.0545616 0
M  V30 694 H 65.5953 1.88404 -0.795237 0
M  V30 695 H 63.7503 3.79162 0.794673 0
M  V30 696 H 64.1643 5.15894 -0.946253 0
M  V30 697 H 65.6383 5.47081 0.73526 0
M  V30 698 H 66.1153 4.05953 1.67627 0
M  V30 699 H 66.7213 4.25297 0.0152951 0
M  V30 700 N 65.0364 0.313813 1.54444 0
M  V30 701 C 66.2644 -0.293918 2.04802 0
M  V30 702 C 66.6794 -1.46537 1.19047 0
M  V30 703 O 66.0364 -1.81182 0.218939 0
M  V30 704 C 66.0874 -0.737806 3.53891 0
M  V30 705 O 65.8084 0.387038 4.36387 0
M  V30 706 C 67.3094 -1.40936 4.203 0
M  V30 707 H 64.5294 -0.0620057 0.668129 0
M  V30 708 H 67.0734 0.457169 1.99324 0
M  V30 709 H 65.2284 -1.43889 3.59687 0
M  V30 710 H 65.6424 0.0391274 5.24485 0
M  V30 711 H 67.1164 -1.67099 5.26101 0
M  V30 712 H 67.5934 -2.35355 3.70816 0
M  V30 713 H 68.1994 -0.751117 4.18615 0
M  V30 714 N 66.5145 -1.57545 0.0417849 0
M  V30 715 C 67.7915 -1.83642 -0.673433 0
M  V30 716 C 68.1715 -0.928298 -1.89594 0
M  V30 717 O 67.5195 0.0129955 -2.28496 0
M  V30 718 C 67.7295 -3.33155 -1.03964 0
M  V30 719 C 69.0775 -3.99941 -1.42592 0
M  V30 720 O 70.1015 -3.37725 -1.13226 0
M  V30 721 O 68.9605 -5.09619 -1.9736 0
M  V30 722 H 66.0545 -0.757638 -0.331533 0
M  V30 723 H 68.6005 -1.69554 0.070433 0
M  V30 724 H 67.3725 -3.9093 -0.170098 0
M  V30 725 H 66.9955 -3.52396 -1.84126 0
M  V30 726 N 67.9926 0.231505 -1.5589 0
M  V30 727 C 69.2386 0.95877 -1.78705 0
M  V30 728 C 69.5716 1.8438 -0.609725 0
M  V30 729 O 68.8466 1.90521 0.391426 0
M  V30 730 C 69.1296 1.8062 -3.11526 0
M  V30 731 C 68.9826 0.948328 -4.39689 0
M  V30 732 C 70.3016 2.78585 -3.40703 0
M  V30 733 H 67.4206 0.347129 -0.650131 0
M  V30 734 H 70.0626 0.228259 -1.88624 0
M  V30 735 H 68.2126 2.42902 -3.03201 0
M  V30 736 H 69.8846 0.343016 -4.60023 0
M  V30 737 H 68.1276 0.253314 -4.3306 0
M  V30 738 H 68.7986 1.57543 -5.29041 0
M  V30 739 H 71.2746 2.26439 -3.49091 0
M  V30 740 H 70.1506 3.34988 -4.34826 0
M  V30 741 H 70.4116 3.55825 -2.62375 0
M  V30 742 N 69.4707 1.49531 0.497807 0
M  V30 743 C 70.4337 1.65916 1.58128 0
M  V30 744 C 71.4337 0.530825 1.51786 0
M  V30 745 O 72.6237 0.797342 1.54881 0
M  V30 746 C 69.7557 1.65951 2.9778 0
M  V30 747 H 70.9487 2.62556 1.44929 0
M  V30 748 H 68.5017 1.38611 0.722275 0
M  V30 749 H 69.2367 0.709065 3.16453 0
M  V30 750 H 69.0217 2.47897 3.03792 0
M  V30 751 H 70.5117 1.80673 3.76493 0
M  V30 752 N 70.9488 -0.749086 1.3866 0
M  V30 753 C 71.9118 -1.84457 1.36045 0
M  V30 754 C 72.9118 -1.58682 0.260122 0
M  V30 755 O 74.1018 -1.66343 0.517261 0
M  V30 756 C 71.2338 -3.22008 1.11911 0
M  V30 757 H 72.4268 -1.88182 2.33512 0
M  V30 758 H 69.9798 -0.951266 1.24019 0
M  V30 759 H 70.7148 -3.2395 0.150686 0
M  V30 760 H 70.4998 -3.42111 1.91579 0
M  V30 761 H 71.9898 -4.0208 1.12788 0
M  V30 762 N 72.4269 -1.23603 -0.977757 0
M  V30 763 C 73.6749 -1.06759 -1.71601 0
M  V30 764 C 73.9959 0.395929 -1.90938 0
M  V30 765 O 73.2659 1.28356 -1.47992 0
M  V30 766 H 71.8459 -0.392062 -0.635843 0
M  V30 767 H 74.5079 -1.55362 -1.1768 0
M  V30 768 H 73.6039 -1.55763 -2.70452 0
M  V30 769 N 73.905 1.17692 -1.04816 0
M  V30 770 C 74.835 2.23777 -0.666791 0
M  V30 771 C 75.816 1.66796 0.33361 0
M  V30 772 O 77.001 1.93039 0.212042 0
M  V30 773 C 74.131 3.47281 -0.0367933 0
M  V30 774 C 73.085 4.17059 -0.961546 0
M  V30 775 C 72.411 5.34342 -0.195626 0
M  V30 776 C 73.711 4.69713 -2.28402 0
M  V30 777 H 75.405 2.55933 -1.55367 0
M  V30 778 H 72.951 1.23019 -0.748484 0
M  V30 779 H 74.904 4.20706 0.241775 0
M  V30 780 H 73.628 3.14381 0.885004 0
M  V30 781 H 72.287 3.45541 -1.22462 0
M  V30 782 H 71.935 4.97692 0.728816 0
M  V30 783 H 71.635 5.81966 -0.811775 0
M  V30 784 H 73.159 6.10553 0.0757473 0
M  V30 785 H 74.573 5.34794 -2.06563 0
M  V30 786 H 72.97 5.279 -2.8538 0
M  V30 787 H 74.04 3.86726 -2.92525 0
M  V30 788 N 75.3831 0.828654 1.34056 0
M  V30 789 C 76.6291 0.429279 1.98818 0
M  V30 790 C 76.9841 -0.998011 1.64492 0
M  V30 791 O 76.2771 -1.68652 0.909228 0
M  V30 792 C 76.4711 0.575226 3.52741 0
M  V30 793 C 76.3001 2.01515 4.02022 0
M  V30 794 C 75.0701 2.64825 4.30344 0
M  V30 795 C 77.2681 2.98261 4.18981 0
M  V30 796 N 75.2501 3.99998 4.65698 0
M  V30 797 C 76.6211 4.18356 4.57578 0
M  V30 798 C 78.6761 2.94802 4.01243 0
M  V30 799 C 77.3791 5.35454 4.80293 0
M  V30 800 C 79.4051 4.11121 4.25128 0
M  V30 801 C 78.7671 5.29969 4.64018 0
M  V30 802 H 74.8661 0.205304 0.754569 0
M  V30 803 H 77.4501 1.07457 1.62361 0
M  V30 804 H 75.6211 -0.0401962 3.88379 0
M  V30 805 H 77.3531 0.148292 4.04428 0
M  V30 806 H 74.1081 2.16027 4.21461 0
M  V30 807 H 74.5321 4.69653 4.87601 0
M  V30 808 H 79.1741 2.04054 3.70299 0
M  V30 809 H 76.8921 6.26755 5.10102 0
M  V30 810 H 80.4781 4.0985 4.12934 0
M  V30 811 H 79.3581 6.18479 4.82134 0
M  V30 812 N 76.8612 -1.46375 0.584142 0
M  V30 813 C 77.7932 -2.28443 -0.186119 0
M  V30 814 C 78.8062 -1.38596 -0.854115 0
M  V30 815 O 79.9952 -1.63183 -0.723438 0
M  V30 816 C 77.0952 -3.13671 -1.28311 0
M  V30 817 C 76.2682 -4.31652 -0.706758 0
M  V30 818 C 75.3272 -4.98267 -1.69163 0
M  V30 819 O 74.3532 -5.55815 -1.22712 0
M  V30 820 N 75.5552 -4.95408 -3.02575 0
M  V30 821 H 78.3202 -2.9519 0.517986 0
M  V30 822 H 75.8812 -1.56303 0.42201 0
M  V30 823 H 77.8732 -3.55101 -1.94128 0
M  V30 824 H 76.4432 -2.48989 -1.89005 0
M  V30 825 H 75.6632 -3.93989 0.128908 0
M  V30 826 H 76.9512 -5.07906 -0.301506 0
M  V30 827 H 76.3492 -4.49902 -3.42936 0
M  V30 828 H 74.9062 -5.40774 -3.63877 0
M  V30 829 N 78.3393 -0.321999 -1.54275 0
M  V30 830 C 79.7503 0.166384 -1.85957 0
M  V30 831 C 80.1013 1.51747 -1.24367 0
M  V30 832 O 79.2263 2.09317 -0.549124 0
M  V30 833 C 79.8213 0.308681 -3.37391 0
M  V30 834 C 78.3803 0.741286 -3.69028 0
M  V30 835 C 77.5273 -0.137937 -2.76957 0
M  V30 836 H 80.4783 -0.542335 -1.49146 0
M  V30 837 H 80.4993 1.13984 -3.63026 0
M  V30 838 H 80.0113 -0.674809 -3.82188 0
M  V30 839 H 78.1123 1.73458 -3.29762 0
M  V30 840 H 78.2253 0.546118 -4.75977 0
M  V30 841 H 76.5893 0.386251 -2.51754 0
M  V30 842 H 77.3723 -1.11816 -3.2458 0
M  V30 843 N 79.8174 1.5752 -0.0501392 0
M  V30 844 C 81.0474 1.96678 0.632573 0
M  V30 845 C 81.4554 0.926298 1.64974 0
M  V30 846 O 80.7984 -0.09802 1.83438 0
M  V30 847 C 80.8604 3.32068 1.37735 0
M  V30 848 C 80.5244 4.54076 0.516131 0
M  V30 849 C 81.5214 5.19445 -0.217357 0
M  V30 850 C 79.2064 5.00304 0.44736 0
M  V30 851 C 81.2004 6.29378 -1.00807 0
M  V30 852 C 78.8874 6.10114 -0.347038 0
M  V30 853 C 79.8854 6.74512 -1.07344 0
M  V30 854 O 79.5734 7.82211 -1.85477 0
M  V30 855 H 79.3054 0.652193 0.177821 0
M  V30 856 H 81.8594 2.05091 -0.112543 0
M  V30 857 H 80.0894 3.20206 2.16807 0
M  V30 858 H 81.7784 3.55981 1.95019 0
M  V30 859 H 82.5444 4.84689 -0.173688 0
M  V30 860 H 78.4234 4.49971 1.00235 0
M  V30 861 H 81.9674 6.79575 -1.57556 0
M  V30 862 H 77.8644 6.44307 -0.392349 0
M  V30 863 H 78.6324 7.98982 -1.77678 0
M  V30 864 N 81.2955 -0.223234 1.56011 0
M  V30 865 C 82.2255 -1.27988 1.95298 0
M  V30 866 C 83.2065 -1.48976 0.820979 0
M  V30 867 O 84.3915 -1.61188 1.08315 0
M  V30 868 C 81.5215 -2.63 2.26822 0
M  V30 869 C 80.4755 -2.56671 3.42497 0
M  V30 870 C 79.8015 -3.95697 3.59622 0
M  V30 871 C 81.1015 -2.11601 4.77517 0
M  V30 872 H 82.7955 -0.953525 2.8381 0
M  V30 873 H 80.3415 -0.457244 1.36548 0
M  V30 874 H 82.2945 -3.37077 2.52898 0
M  V30 875 H 81.0185 -2.9732 1.35161 0
M  V30 876 H 79.6775 -1.85051 3.16467 0
M  V30 877 H 79.3255 -4.27322 2.6534 0
M  V30 878 H 79.0255 -3.92345 4.37424 0
M  V30 879 H 80.5495 -4.71438 3.88044 0
M  V30 880 H 81.9635 -2.7542 5.02809 0
M  V30 881 H 80.3605 -2.19311 5.5859 0
M  V30 882 H 81.4305 -1.06824 4.72987 0
M  V30 883 N 82.7736 -1.49793 -0.48987 0
M  V30 884 C 83.9986 -1.63836 -1.27172 0
M  V30 885 C 84.4236 -0.31402 -1.8546 0
M  V30 886 O 83.7816 0.719803 -1.66399 0
M  V30 887 C 83.8296 -2.71797 -2.36978 0
M  V30 888 O 82.9336 -2.31744 -3.41128 0
M  V30 889 H 82.2746 -0.547997 -0.37496 0
M  V30 890 H 84.8046 -1.96053 -0.585191 0
M  V30 891 H 84.8146 -2.94305 -2.82575 0
M  V30 892 H 83.4896 -3.67923 -1.93921 0
M  V30 893 H 82.0666 -2.1961 -3.01373 0
M  V30 894 N 84.2517 0.741722 -1.39055 0
M  V30 895 C 85.5287 1.49252 -1.26425 0
M  V30 896 C 85.9087 2.10705 0.129144 0
M  V30 897 O 85.2567 1.98045 1.13976 0
M  V30 898 C 85.4667 2.54934 -2.38347 0
M  V30 899 C 86.8147 3.21506 -2.77343 0
M  V30 900 O 87.8387 2.65245 -2.37747 0
M  V30 901 O 86.6977 4.23294 -3.45665 0
M  V30 902 H 83.7917 0.662451 -0.495064 0
M  V30 903 H 86.3377 0.776121 -1.50912 0
M  V30 904 H 85.1097 2.07857 -3.31529 0
M  V30 905 H 84.7327 3.34141 -2.15489 0
M  V30 906 N 85.7298 1.2412 0.971189 0
M  V30 907 C 87.1408 1.07236 1.52831 0
M  V30 908 C 87.4918 -0.357352 1.92918 0
M  V30 909 O 86.6168 -1.24528 1.76979 0
M  V30 910 C 87.2118 1.94043 2.77728 0
M  V30 911 C 85.7708 1.81394 3.29808 0
M  V30 912 C 84.9178 1.89189 2.02738 0
M  V30 913 H 87.8688 1.37648 0.789864 0
M  V30 914 H 87.8898 1.47066 3.5093 0
M  V30 915 H 87.4018 2.98093 2.4852 0
M  V30 916 H 85.5028 0.801634 3.63874 0
M  V30 917 H 85.6158 2.65294 3.98944 0
M  V30 918 H 83.9798 1.32877 2.17292 0
M  V30 919 H 84.7628 2.94812 1.759 0
M  V30 920 N 87.2079 -1.17134 1.05439 0
M  V30 921 C 88.1559 -2.23289 0.651511 0
M  V30 922 C 89.1499 -1.66186 -0.328411 0
M  V30 923 O 90.3559 -1.78949 -0.194206 0
M  V30 924 H 86.7309 -0.726938 0.192523 0
M  V30 925 H 88.7019 -2.54565 1.55689 0
M  V30 926 C 87.4509 -3.47671 0.0448436 0
M  V30 927 H 86.7739 -3.91918 0.78996 0
M  V30 928 H 88.2139 -4.2353 -0.19964 0
M  V30 929 C 86.6729 -3.14453 -1.20918 0
M  V30 930 O 87.2029 -3.29459 -2.29825 0
M  V30 931 N 85.4089 -2.68657 -1.10779 0
M  V30 932 H 84.9559 -2.56646 -0.221526 0
M  V30 933 H 84.9139 -2.46804 -1.9477 0
M  V30 934 N 88.686 -0.835752 -1.33615 0
M  V30 935 C 89.634 -0.255238 -2.31195 0
M  V30 936 C 90.628 0.61107 -1.57995 0
M  V30 937 O 91.834 0.500979 -1.72888 0
M  V30 938 H 88.209 -0.0638085 -0.749288 0
M  V30 939 H 90.18 -1.09283 -2.77669 0
M  V30 940 C 88.929 0.55754 -3.43201 0
M  V30 941 H 88.252 -0.0997553 -3.99676 0
M  V30 942 H 89.692 0.929622 -4.13683 0
M  V30 943 C 88.151 1.73515 -2.88781 0
M  V30 944 O 88.681 2.83376 -2.84712 0
M  V30 945 N 86.887 1.55603 -2.4543 0
M  V30 946 H 86.434 0.662354 -2.48939 0
M  V30 947 H 86.392 2.34545 -2.09371 0
M  V30 948 N 90.1641 1.46063 -0.591896 0
M  V30 949 C 91.5751 1.85944 -0.167822 0
M  V30 950 C 91.9261 1.49429 1.27143 0
M  V30 951 O 91.0511 0.913515 1.96173 0
M  V30 952 C 91.6461 3.37489 -0.297794 0
M  V30 953 C 90.2051 3.76332 0.0714732 0
M  V30 954 C 89.3521 2.7006 -0.629509 0
M  V30 955 H 92.3031 1.37087 -0.799555 0
M  V30 956 H 92.3241 3.77532 0.474349 0
M  V30 957 H 91.8361 3.64034 -1.3454 0
M  V30 958 H 89.9371 3.55405 1.11886 0
M  V30 959 H 90.0501 4.78088 -0.311245 0
M  V30 960 H 88.4141 2.54607 -0.0687867 0
M  V30 961 H 89.1971 2.99444 -1.67894 0
M  V30 962 N 91.6422 0.330177 1.54103 0
M  V30 963 C 92.5742 -0.566902 2.22079 0
M  V30 964 C 93.5872 -1.07462 1.22294 0
M  V30 965 O 94.7762 -0.987065 1.48726 0
M  V30 966 C 91.8762 -1.79138 2.87685 0
M  V30 967 C 91.0492 -1.42123 4.13666 0
M  V30 968 C 90.1082 -2.50394 4.62806 0
M  V30 969 O 89.1342 -2.14261 5.27334 0
M  V30 970 N 90.3362 -3.81433 4.37595 0
M  V30 971 H 93.1012 0.0151844 2.99696 0
M  V30 972 H 90.6622 0.153681 1.61169 0
M  V30 973 H 92.6542 -2.50975 3.1748 0
M  V30 974 H 91.2242 -2.28115 2.13734 0
M  V30 975 H 90.4442 -0.534201 3.90564 0
M  V30 976 H 91.7322 -1.14971 4.9564 0
M  V30 977 H 91.1302 -4.13584 3.8596 0
M  V30 978 H 89.6872 -4.4948 4.72029 0
M  V30 979 N 93.1203 -1.57491 0.0584922 0
M  V30 980 C 94.0303 -2.15448 -0.928414 0
M  V30 981 C 95.0463 -1.11416 -1.3365 0
M  V30 982 O 96.2223 -1.4362 -1.41193 0
M  V30 983 C 93.2873 -2.69393 -2.18239 0
M  V30 984 C 92.3483 -3.88249 -1.83196 0
M  V30 985 C 91.5813 -4.39613 -3.02616 0
M  V30 986 O 91.8043 -3.90023 -4.16219 0
M  V30 987 O 90.7383 -5.31111 -2.83204 0
M  V30 988 H 94.5643 -3.00112 -0.465483 0
M  V30 989 H 92.1493 -1.48499 -0.163826 0
M  V30 990 H 94.0313 -3.04026 -2.91798 0
M  V30 991 H 92.7063 -1.87796 -2.63656 0
M  V30 992 H 91.6133 -3.58492 -1.06931 0
M  V30 993 H 92.9463 -4.71098 -1.42573 0
M  V30 994 N 94.5984 0.214957 -1.56127 0
M  V30 995 C 95.5614 1.24997 -1.92116 0
M  V30 996 C 96.5614 1.39467 -0.800344 0
M  V30 997 O 97.7514 1.37619 -1.06802 0
M  V30 998 C 94.8834 2.62271 -2.17777 0
M  V30 999 H 96.0764 0.942875 -2.84693 0
M  V30 1000 H 93.6294 0.455654 -1.49511 0
M  V30 1001 H 94.3644 2.98068 -1.27773 0
M  V30 1002 H 94.1494 2.53143 -2.99434 0
M  V30 1003 H 95.6394 3.36946 -2.46693 0
M  V30 1004 N 96.0765 1.50051 0.48192 0
M  V30 1005 C 97.3535 1.51009 1.2432 0
M  V30 1006 C 97.7335 0.248587 2.09631 0
M  V30 1007 O 97.0815 -0.768409 2.15192 0
M  V30 1008 C 97.2915 2.79981 2.08355 0
M  V30 1009 C 98.6395 3.3022 2.66908 0
M  V30 1010 O 99.6635 2.81228 2.18607 0
M  V30 1011 O 98.5225 4.15595 3.54884 0
M  V30 1012 H 95.6165 0.605239 0.563573 0
M  V30 1013 H 98.1625 1.62332 0.494627 0
M  V30 1014 H 96.9345 3.63275 1.45419 0
M  V30 1015 H 96.5575 2.7161 2.90368 0
M  V30 1016 N 97.5546 -0.734337 1.39446 0
M  V30 1017 C 98.8006 -1.49505 1.37913 0
M  V30 1018 C 99.1556 -1.92384 -0.0248416 0
M  V30 1019 O 98.4486 -1.6395 -0.991506 0
M  V30 1020 C 98.6426 -2.74711 2.28623 0
M  V30 1021 C 98.4716 -2.44075 3.777 0
M  V30 1022 C 97.2416 -2.36338 4.46623 0
M  V30 1023 C 99.4396 -2.09574 4.69663 0
M  V30 1024 N 97.4216 -1.9818 5.81032 0
M  V30 1025 C 98.7926 -1.81865 5.92727 0
M  V30 1026 C 100.848 -1.96048 4.57678 0
M  V30 1027 C 99.5506 -1.41992 7.05146 0
M  V30 1028 C 101.577 -1.57579 5.7002 0
M  V30 1029 C 100.939 -1.30754 6.92158 0
M  V30 1030 H 97.0376 -0.545896 0.55993 0
M  V30 1031 H 99.6216 -0.853373 1.75002 0
M  V30 1032 H 97.7926 -3.36657 1.93692 0
M  V30 1033 H 99.5246 -3.40916 2.18078 0
M  V30 1034 H 96.2796 -2.53456 4.00071 0
M  V30 1035 H 96.7036 -1.81691 6.52163 0
M  V30 1036 H 101.346 -2.15455 3.63784 0
M  V30 1037 H 99.0636 -1.21327 7.9894 0
M  V30 1038 H 102.65 -1.47718 5.62735 0
M  V30 1039 H 101.53 -1.01432 7.77612 0
M  V30 1040 N 99.0327 -1.24633 -0.964593 0
M  V30 1041 C 100.258 -1.11596 -1.74818 0
M  V30 1042 C 100.683 0.32723 -1.85232 0
M  V30 1043 O 100.041 1.23695 -1.32549 0
M  V30 1044 C 100.089 -1.76397 -3.1451 0
M  V30 1045 O 99.1927 -1.03685 -3.99153 0
M  V30 1046 H 98.5337 -0.390196 -0.537255 0
M  V30 1047 H 101.064 -1.65002 -1.20977 0
M  V30 1048 H 101.074 -1.8228 -3.65018 0
M  V30 1049 H 99.7487 -2.81401 -3.06246 0
M  V30 1050 H 98.3257 -1.05611 -3.57632 0
M  V30 1051 N 100.511 1.16574 -1.06058 0
M  V30 1052 C 101.443 2.2045 -0.627239 0
M  V30 1053 C 102.456 1.59752 0.313534 0
M  V30 1054 O 103.645 1.78192 0.104896 0
M  V30 1055 C 100.745 3.3875 0.100974 0
M  V30 1056 C 99.9178 4.29008 -0.852687 0
M  V30 1057 C 98.9768 5.25944 -0.164152 0
M  V30 1058 O 98.0028 5.63535 -0.801047 0
M  V30 1059 N 99.2048 5.70075 1.09518 0
M  V30 1060 H 101.97 2.58249 -1.52077 0
M  V30 1061 H 99.5308 1.3156 -0.943594 0
M  V30 1062 H 101.523 4.00638 0.57194 0
M  V30 1063 H 100.093 2.99476 0.89628 0
M  V30 1064 H 99.3128 3.64419 -1.50308 0
M  V30 1065 H 100.601 4.86195 -1.49972 0
M  V30 1066 H 99.9988 5.41624 1.6328 0
M  V30 1067 H 98.5558 6.34067 1.51006 0
M  V30 1068 N 101.989 0.842826 1.3317 0
M  V30 1069 C 102.921 0.236245 2.27979 0
M  V30 1070 C 103.934 -0.585282 1.51915 0
M  V30 1071 O 105.123 -0.411705 1.73687 0
M  V30 1072 C 102.223 -0.685717 3.3189 0
M  V30 1073 C 101.396 0.0973448 4.37292 0
M  V30 1074 C 100.455 -0.748565 5.20848 0
M  V30 1075 O 99.4809 -0.186339 5.68895 0
M  V30 1076 N 100.683 -2.06527 5.42519 0
M  V30 1077 H 103.448 1.05088 2.80672 0
M  V30 1078 H 101.009 0.701667 1.45905 0
M  V30 1079 H 103.001 -1.25669 3.84694 0
M  V30 1080 H 101.571 -1.40105 2.79445 0
M  V30 1081 H 100.791 0.849706 3.84933 0
M  V30 1082 H 102.079 0.635643 5.04814 0
M  V30 1083 H 101.477 -2.54554 5.05192 0
M  V30 1084 H 100.034 -2.58464 5.98364 0
M  V30 1085 N 103.467 -1.45747 0.599634 0
M  V30 1086 C 104.695 -2.06668 0.0978551 0
M  V30 1087 C 105.11 -1.44562 -1.21439 0
M  V30 1088 O 104.467 -0.556923 -1.73795 0
M  V30 1089 C 104.518 -3.61456 -0.0567044 0
M  V30 1090 O 104.239 -4.21242 1.20361 0
M  V30 1091 C 105.74 -4.39345 -0.590869 0
M  V30 1092 H 102.96 -0.667825 0.0651943 0
M  V30 1093 H 105.504 -1.87115 0.82511 0
M  V30 1094 H 103.659 -3.80378 -0.734251 0
M  V30 1095 H 104.073 -5.14323 1.02821 0
M  V30 1096 H 105.547 -5.48182 -0.648131 0
M  V30 1097 H 106.024 -4.08568 -1.61147 0
M  V30 1098 H 106.63 -4.25268 0.0523679 0
M  V30 1099 N 104.945 -0.338344 -1.53925 0
M  V30 1100 C 106.192 0.259758 -2.00827 0
M  V30 1101 C 106.52 1.50973 -1.22628 0
M  V30 1102 O 105.775 1.93379 -0.300509 0
M  V30 1103 C 106.074 0.62448 -3.51902 0
M  V30 1104 C 105.74 -0.528006 -4.47798 0
M  V30 1105 C 104.402 -0.844298 -4.73735 0
M  V30 1106 C 106.754 -1.30143 -5.0469 0
M  V30 1107 C 104.082 -1.93648 -5.53821 0
M  V30 1108 C 106.434 -2.38382 -5.85967 0
M  V30 1109 C 105.098 -2.70576 -6.10201 0
M  V30 1110 H 104.368 0.0950523 -0.734878 0
M  V30 1111 H 107.015 -0.465182 -1.85764 0
M  V30 1112 H 105.32 1.43006 -3.64769 0
M  V30 1113 H 107.017 1.09905 -3.85645 0
M  V30 1114 H 103.607 -0.271421 -4.2774 0
M  V30 1115 H 107.791 -1.07033 -4.84621 0
M  V30 1116 H 103.047 -2.19021 -5.70824 0
M  V30 1117 H 107.221 -2.98746 -6.29066 0
M  V30 1118 H 104.848 -3.55333 -6.72044 0
M  V30 1119 N 106.423 1.57458 -0.0668435 0
M  V30 1120 C 107.7 1.8469 0.644132 0
M  V30 1121 C 108.08 0.958343 1.88093 0
M  V30 1122 O 107.428 0.0233579 2.28488 0
M  V30 1123 C 107.638 3.34767 0.986509 0
M  V30 1124 C 108.986 4.02159 1.36212 0
M  V30 1125 O 110.01 3.39484 1.07839 0
M  V30 1126 O 108.869 5.12694 1.89227 0
M  V30 1127 H 105.963 0.762816 0.319437 0
M  V30 1128 H 108.509 1.6942 -0.0973986 0
M  V30 1129 H 107.281 3.91151 0.107883 0
M  V30 1130 H 106.904 3.55281 1.78497 0
M  V30 1131 N 107.901 -0.206675 1.56239 0
M  V30 1132 C 109.131 -0.943975 1.83773 0
M  V30 1133 C 109.539 -1.77841 0.645703 0
M  V30 1134 O 108.882 -1.79403 -0.395008 0
M  V30 1135 C 108.944 -1.899 3.05251 0
M  V30 1136 C 108.608 -1.24764 4.39639 0
M  V30 1137 C 109.605 -0.630216 5.16066 0
M  V30 1138 C 107.29 -1.25496 4.8637 0
M  V30 1139 C 109.284 -0.0287946 6.37393 0
M  V30 1140 C 106.971 -0.649698 6.07637 0
M  V30 1141 C 107.969 -0.0376845 6.8299 0
M  V30 1142 O 107.657 0.55812 8.0196 0
M  V30 1143 H 107.389 -0.281508 0.614597 0
M  V30 1144 H 109.943 -0.222458 2.04192 0
M  V30 1145 H 108.173 -2.6599 2.80689 0
M  V30 1146 H 109.862 -2.5031 3.1953 0
M  V30 1147 H 110.628 -0.616785 4.81062 0
M  V30 1148 H 106.507 -1.72072 4.27683 0
M  V30 1149 H 110.051 0.449518 6.9615 0
M  V30 1150 H 105.948 -0.660592 6.42111 0
M  V30 1151 H 106.716 0.453891 8.17241 0
M  V30 1152 N 109.379 -1.50304 -0.473955 0
M  V30 1153 C 110.309 -1.71886 -1.58042 0
M  V30 1154 C 111.29 -0.567799 -1.60344 0
M  V30 1155 O 112.475 -0.806623 -1.76656 0
M  V30 1156 C 109.605 -1.81036 -2.96384 0
M  V30 1157 C 108.559 -2.962 -3.08949 0
M  V30 1158 C 107.885 -2.9049 -4.48909 0
M  V30 1159 C 109.185 -4.36752 -2.86434 0
M  V30 1160 H 110.879 -2.64527 -1.40234 0
M  V30 1161 H 108.425 -1.27295 -0.673201 0
M  V30 1162 H 110.378 -1.94719 -3.73714 0
M  V30 1163 H 109.102 -0.850147 -3.15341 0
M  V30 1164 H 107.761 -2.82164 -2.3405 0
M  V30 1165 H 107.409 -1.92321 -4.64781 0
M  V30 1166 H 107.109 -3.67802 -4.58253 0
M  V30 1167 H 108.633 -3.06218 -5.28264 0
M  V30 1168 H 110.047 -4.5133 -3.53517 0
M  V30 1169 H 108.444 -5.15493 -3.07225 0
M  V30 1170 H 109.514 -4.49321 -1.82316 0
M  V30 1171 N 110.857 0.726932 -1.39834 0
M  V30 1172 C 111.787 1.85405 -1.41941 0
M  V30 1173 C 112.768 1.67751 -0.281728 0
M  V30 1174 O 113.953 1.8795 -0.488717 0
M  V30 1175 C 111.083 3.23243 -1.2701 0
M  V30 1176 C 110.037 3.55549 -2.38262 0
M  V30 1177 C 109.363 4.9241 -2.08415 0
M  V30 1178 C 110.663 3.577 -3.80589 0
M  V30 1179 H 112.357 1.83899 -2.36266 0
M  V30 1180 H 109.903 0.883349 -1.13723 0
M  V30 1181 H 111.856 4.01775 -1.27103 0
M  V30 1182 H 110.58 3.25296 -0.291564 0
M  V30 1183 H 109.239 2.79351 -2.37399 0
M  V30 1184 H 108.887 4.91052 -1.0898 0
M  V30 1185 H 108.587 5.14992 -2.82943 0
M  V30 1186 H 110.111 5.73289 -2.10171 0
M  V30 1187 H 111.525 4.26293 -3.83337 0
M  V30 1188 H 109.922 3.91804 -4.54543 0
M  V30 1189 H 110.992 2.57328 -4.10987 0
M  V30 1190 N 112.336 1.25143 0.95797 0
M  V30 1191 C 113.561 1.12521 1.74223 0
M  V30 1192 C 113.986 -0.317402 1.85403 0
M  V30 1193 O 113.344 -1.2299 1.33204 0
M  V30 1194 C 113.392 1.78062 3.1357 0
M  V30 1195 O 112.496 1.058 3.98598 0
M  V30 1196 H 111.837 0.39304 0.535178 0
M  V30 1197 H 114.367 1.65641 1.201 0
M  V30 1198 H 114.377 1.84213 3.64046 0
M  V30 1199 H 113.052 2.83021 3.04749 0
M  V30 1200 H 111.629 1.07506 3.57067 0
M  V30 1201 N 113.814 -1.1601 1.06675 0
M  V30 1202 C 114.764 -2.18512 0.650888 0
M  V30 1203 C 115.748 -1.57677 -0.320441 0
M  V30 1204 O 116.94 -1.76482 -0.135266 0
M  V30 1205 C 114.069 -3.43273 0.0429255 0
M  V30 1206 C 113.155 -4.11176 1.03898 0
M  V30 1207 N 113.546 -4.54672 2.216 0
M  V30 1208 C 111.844 -4.37417 0.870779 0
M  V30 1209 C 112.545 -5.07248 2.84736 0
M  V30 1210 N 111.521 -5.0037 2.12441 0
M  V30 1211 H 115.323 -2.49863 1.54745 0
M  V30 1212 H 112.837 -1.32503 0.938975 0
M  V30 1213 H 114.834 -4.16006 -0.272857 0
M  V30 1214 H 113.494 -3.13408 -0.84884 0
M  V30 1215 H 114.505 -4.4828 2.59356 0
M  V30 1216 H 111.182 -4.17488 0.0313293 0
M  V30 1217 H 112.572 -5.50912 3.84636 0
M  V30 1218 N 115.292 -0.849877 -1.32721 0
M  V30 1219 C 116.538 -0.451591 -1.97708 0
M  V30 1220 C 116.871 0.989175 -1.6712 0
M  V30 1221 O 116.146 1.69334 -0.956891 0
M  V30 1222 C 116.429 -0.685598 -3.53513 0
M  V30 1223 C 116.282 -2.17444 -3.93749 0
M  V30 1224 C 117.601 -0.138874 -4.39881 0
M  V30 1225 H 114.72 -0.16555 -0.718166 0
M  V30 1226 H 117.362 -1.06742 -1.57182 0
M  V30 1227 H 115.512 -0.161416 -3.88165 0
M  V30 1228 H 117.184 -2.76433 -3.693 0
M  V30 1229 H 115.427 -2.65476 -3.43081 0
M  V30 1230 H 116.098 -2.28888 -5.02309 0
M  V30 1231 H 118.574 -0.587068 -4.11938 0
M  V30 1232 H 117.45 -0.332213 -5.47894 0
M  V30 1233 H 117.711 0.95806 -4.31594 0
M  V30 1234 N 116.77 1.45427 -0.607355 0
M  V30 1235 C 117.72 2.27612 0.133038 0
M  V30 1236 C 118.704 1.37307 0.838785 0
M  V30 1237 O 119.896 1.61299 0.728813 0
M  V30 1238 C 117.025 3.24173 1.12991 0
M  V30 1239 C 116.111 4.21965 0.425011 0
M  V30 1240 N 116.502 5.02982 -0.533217 0
M  V30 1241 C 114.8 4.40899 0.672593 0
M  V30 1242 C 115.501 5.73931 -0.947518 0
M  V30 1243 N 114.477 5.42819 -0.291321 0
M  V30 1244 H 118.279 2.87649 -0.602935 0
M  V30 1245 H 115.793 1.56576 -0.431006 0
M  V30 1246 H 117.79 3.81783 1.67473 0
M  V30 1247 H 116.45 2.65696 1.86644 0
M  V30 1248 H 117.461 5.09843 -0.90995 0
M  V30 1249 H 114.138 3.93547 1.39382 0
M  V30 1250 H 115.528 6.49037 -1.73782 0
M  V30 1251 N 118.248 0.346503 1.53744 0
M  V30 1252 C 119.473 -0.253074 2.0585 0
M  V30 1253 C 119.898 -1.43202 1.21962 0
M  V30 1254 O 119.256 -1.79783 0.234073 0
M  V30 1255 C 119.304 -0.643193 3.54817 0
M  V30 1256 O 118.408 -1.74286 3.73762 0
M  V30 1257 H 117.749 -0.0413583 0.662711 0
M  V30 1258 H 120.279 0.501574 1.98357 0
M  V30 1259 H 120.289 -0.919526 3.97503 0
M  V30 1260 H 118.964 0.218966 4.15323 0
M  V30 1261 H 117.541 -1.46356 3.42979 0
M  V30 1262 N 119.726 -1.57421 0.075193 0
M  V30 1263 C 121.137 -1.81021 -0.456964 0
M  V30 1264 C 121.488 -0.98936 -1.69429 0
M  V30 1265 O 120.613 -0.212865 -2.15351 0
M  V30 1266 C 121.208 -3.28329 -0.83581 0
M  V30 1267 C 119.767 -3.52764 -1.31281 0
M  V30 1268 C 118.914 -2.75676 -0.299648 0
M  V30 1269 H 121.865 -1.55822 0.300856 0
M  V30 1270 H 121.886 -3.40564 -1.69696 0
M  V30 1271 H 121.398 -3.88046 0.0649238 0
M  V30 1272 H 119.499 -2.98355 -2.23193 0
M  V30 1273 H 119.612 -4.61451 -1.28839 0
M  V30 1274 H 117.976 -2.42538 -0.777641 0
M  V30 1275 H 118.759 -3.38132 0.593417 0
M  V30 1276 N 121.204 0.198386 -1.56346 0
M  V30 1277 C 122.152 1.26538 -1.95169 0
M  V30 1278 C 123.146 1.47295 -0.836685 0
M  V30 1279 O 124.352 1.48195 -1.02167 0
M  V30 1280 H 120.727 0.424744 -0.620561 0
M  V30 1281 H 122.698 0.910904 -2.84157 0
M  V30 1282 C 121.447 2.6035 -2.30463 0
M  V30 1283 H 120.77 2.45192 -3.15786 0
M  V30 1284 H 122.21 3.33762 -2.61494 0
M  V30 1285 C 120.669 3.17096 -1.13806 0
M  V30 1286 O 121.199 3.99588 -0.41135 0
M  V30 1287 N 119.405 2.75795 -0.915736 0
M  V30 1288 H 118.952 2.08816 -1.50843 0
M  V30 1289 H 118.91 3.14101 -0.136979 0
M  V30 1290 N 122.682 1.50554 0.465978 0
M  V30 1291 C 123.645 1.69233 1.54574 0
M  V30 1292 C 124.645 0.562901 1.50626 0
M  V30 1293 O 125.835 0.830016 1.53155 0
M  V30 1294 C 122.967 1.7223 2.94193 0
M  V30 1295 H 124.16 2.65571 1.39327 0
M  V30 1296 H 121.713 1.40111 0.692711 0
M  V30 1297 H 122.448 0.77603 3.14878 0
M  V30 1298 H 122.233 2.54285 2.98466 0
M  V30 1299 H 123.723 1.88618 3.72576 0
M  V30 1300 N 124.16 -0.719506 1.40217 0
M  V30 1301 C 125.07 -1.86378 1.42479 0
M  V30 1302 C 126.086 -1.71073 0.317834 0
M  V30 1303 O 127.262 -1.93406 0.561794 0
M  V30 1304 C 124.327 -3.22136 1.28178 0
M  V30 1305 C 123.388 -3.49723 2.48982 0
M  V30 1306 C 122.621 -4.79004 2.35353 0
M  V30 1307 O 122.844 -5.53821 1.36524 0
M  V30 1308 O 121.778 -5.06839 3.2465 0
M  V30 1309 H 125.604 -1.87425 2.38968 0
M  V30 1310 H 123.189 -0.869405 1.21498 0
M  V30 1311 H 125.071 -4.03234 1.22395 0
M  V30 1312 H 123.746 -3.21825 0.347934 0
M  V30 1313 H 122.653 -2.6865 2.60342 0
M  V30 1314 H 123.986 -3.54828 3.41113 0
M  V30 1315 N 125.638 -1.25649 -0.95132 0
M  V30 1316 C 126.586 -1.06118 -2.06982 0
M  V30 1317 C 127.58 0.00889169 -1.69398 0
M  V30 1318 O 128.786 -0.146988 -1.79399 0
M  V30 1319 H 125.161 -0.326248 -0.677544 0
M  V30 1320 H 127.132 -2.00932 -2.2061 0
M  V30 1321 C 125.881 -0.700145 -3.40578 0
M  V30 1322 H 125.204 -1.51537 -3.69968 0
M  V30 1323 H 126.644 -0.603211 -4.19687 0
M  V30 1324 C 125.103 0.59403 -3.31622 0
M  V30 1325 O 125.633 1.63522 -3.66911 0
M  V30 1326 N 123.839 0.58089 -2.84735 0
M  V30 1327 H 123.386 -0.266783 -2.56215 0
M  V30 1328 H 123.344 1.44695 -2.79125 0
M  V30 1329 N 127.117 1.15442 -1.07289 0
M  V30 1330 C 128.047 2.22312 -0.714107 0
M  V30 1331 C 129.028 1.67467 0.298155 0
M  V30 1332 O 130.213 1.93445 0.171048 0
M  V30 1333 C 127.343 3.47124 -0.110448 0
M  V30 1334 C 126.297 4.14926 -1.04979 0
M  V30 1335 C 125.623 5.33807 -0.308924 0
M  V30 1336 C 126.923 4.64762 -2.38314 0
M  V30 1337 H 128.617 2.5258 -1.6076 0
M  V30 1338 H 126.163 1.21404 -0.77441 0
M  V30 1339 H 128.116 4.21124 0.152482 0
M  V30 1340 H 126.84 3.16187 0.81812 0
M  V30 1341 H 125.499 3.42866 -1.29764 0
M  V30 1342 H 125.147 4.99126 0.623084 0
M  V30 1343 H 124.847 5.80113 -0.935036 0
M  V30 1344 H 126.371 6.10576 -0.0537771 0
M  V30 1345 H 127.785 5.30292 -2.1786 0
M  V30 1346 H 126.182 5.21728 -2.96514 0
M  V30 1347 H 127.252 3.80434 -3.00663 0
M  V30 1348 N 128.595 0.856903 1.32268 0
M  V30 1349 C 129.843 0.460474 1.96784 0
M  V30 1350 C 130.164 -0.987701 1.68135 0
M  V30 1351 O 129.434 -1.69058 0.989765 0
M  V30 1352 H 128.014 0.167289 0.728027 0
M  V30 1353 H 130.676 1.09383 1.61312 0
M  V30 1354 H 129.772 0.60739 3.06133 0
M  V30 1355 N 130.073 -1.45103 0.615059 0
M  V30 1356 C 131.003 -2.33339 -0.0865619 0
M  V30 1357 C 131.984 -1.4727 -0.851209 0
M  V30 1358 O 133.169 -1.76026 -0.820281 0
M  V30 1359 C 130.299 -3.30095 -1.07956 0
M  V30 1360 C 129.253 -4.25858 -0.427628 0
M  V30 1361 C 128.579 -5.12361 -1.5294 0
M  V30 1362 C 129.879 -5.18165 0.655944 0
M  V30 1363 H 131.573 -2.92254 0.650224 0
M  V30 1364 H 129.119 -1.40532 0.314138 0
M  V30 1365 H 131.072 -3.90698 -1.57901 0
M  V30 1366 H 129.796 -2.69355 -1.84703 0
M  V30 1367 H 128.455 -3.66564 0.0510292 0
M  V30 1368 H 128.103 -4.47984 -2.28734 0
M  V30 1369 H 127.803 -5.77238 -1.09865 0
M  V30 1370 H 129.327 -5.75833 -2.03098 0
M  V30 1371 H 130.741 -5.72796 0.240257 0
M  V30 1372 H 129.138 -5.91559 1.00888 0
M  V30 1373 H 130.208 -4.60144 1.52957 0
M  V30 1374 N 131.551 -0.354651 -1.53558 0
M  V30 1375 C 132.798 0.238443 -2.01091 0
M  V30 1376 C 133.126 1.49663 -1.24222 0
M  V30 1377 O 132.381 1.93049 -0.321003 0
M  V30 1378 C 132.68 0.587121 -3.52545 0
M  V30 1379 C 132.346 -0.575472 -4.47213 0
M  V30 1380 C 131.008 -0.894497 -4.72813 0
M  V30 1381 C 133.36 -1.35489 -5.03281 0
M  V30 1382 C 130.688 -1.99511 -5.51736 0
M  V30 1383 C 133.04 -2.44583 -5.83405 0
M  V30 1384 C 131.704 -2.77033 -6.07296 0
M  V30 1385 H 130.974 0.0872526 -0.735845 0
M  V30 1386 H 133.621 -0.484859 -1.8526 0
M  V30 1387 H 131.926 1.39129 -3.66265 0
M  V30 1388 H 133.623 1.05809 -3.86789 0
M  V30 1389 H 130.213 -0.316774 -4.27428 0
M  V30 1390 H 134.397 -1.12167 -4.83459 0
M  V30 1391 H 129.653 -2.25063 -5.68469 0
M  V30 1392 H 133.827 -3.05401 -6.25862 0
M  V30 1393 H 131.454 -3.6244 -6.68237 0
M  V30 1394 N 133.029 1.57378 -0.0835403 0
M  V30 1395 C 133.959 2.1641 0.87686 0
M  V30 1396 C 134.94 1.09429 1.30228 0
M  V30 1397 O 136.125 1.37516 1.37124 0
M  V30 1398 C 133.255 2.73517 2.14022 0
M  V30 1399 C 132.209 3.85769 1.85381 0
M  V30 1400 C 131.535 4.29529 3.18448 0
M  V30 1401 C 132.835 5.09486 1.14984 0
M  V30 1402 H 134.529 2.96914 0.385059 0
M  V30 1403 H 132.075 1.42823 0.18377 0
M  V30 1404 H 134.028 3.13463 2.81636 0
M  V30 1405 H 132.752 1.90252 2.65465 0
M  V30 1406 H 131.411 3.46345 1.20169 0
M  V30 1407 H 131.059 3.43169 3.67755 0
M  V30 1408 H 130.759 5.05204 3.00071 0
M  V30 1409 H 132.283 4.72099 3.8724 0
M  V30 1410 H 133.697 5.46674 1.72687 0
M  V30 1411 H 132.094 5.90515 1.06826 0
M  V30 1412 H 133.164 4.84724 0.130749 0
M  V30 1413 N 134.507 -0.190092 1.56449 0
M  V30 1414 C 135.756 -0.907912 1.80111 0
M  V30 1415 C 136.069 -1.84214 0.657619 0
M  V30 1416 O 137.275 -2.60094 0.778663 0
M  V30 1417 C 135.731 -1.66485 3.19078 0
M  V30 1418 C 135.339 -0.7752 4.41242 0
M  V30 1419 C 137.083 -2.37201 3.52045 0
M  V30 1420 C 134.99 -1.53129 5.71231 0
M  V30 1421 H 133.92 -0.34276 0.671589 0
M  V30 1422 H 136.571 -0.161109 1.82791 0
M  V30 1423 H 134.953 -2.45572 3.10661 0
M  V30 1424 H 136.127 -0.0226298 4.60794 0
M  V30 1425 H 134.442 -0.178627 4.16017 0
M  V30 1426 H 137.039 -2.94329 4.46402 0
M  V30 1427 H 137.382 -3.11632 2.76028 0
M  V30 1428 H 137.915 -1.65075 3.61932 0
M  V30 1429 H 134.654 -0.82967 6.50228 0
M  V30 1430 H 134.174 -2.25767 5.55688 0
M  V30 1431 H 135.853 -2.08377 6.12526 0
M  V30 1432 N 135.985 -1.50799 -0.457987 0
M  V30 1433 C 137.21 -1.66496 -1.23668 0
M  V30 1434 C 137.635 -0.353288 -1.84752 0
M  V30 1435 O 136.993 0.684346 -1.67888 0
M  V30 1436 C 137.041 -2.76763 -2.3116 0
M  V30 1437 O 136.145 -2.38928 -3.36136 0
M  V30 1438 H 135.486 -0.555828 -0.363252 0
M  V30 1439 H 138.016 -1.9725 -0.543474 0
M  V30 1440 H 138.026 -3.00232 -2.76269 0
M  V30 1441 H 136.701 -3.71954 -1.86073 0
M  V30 1442 H 135.278 -2.25953 -2.96647 0
M  V30 1443 N 137.463 0.71206 -1.40597 0
M  V30 1444 C 138.711 1.46907 -1.38791 0
M  V30 1445 C 139.032 1.94998 0.00780391 0
M  V30 1446 O 138.302 1.70587 0.963174 0
M  V30 1447 H 136.882 0.545043 -0.51082 0
M  V30 1448 H 139.544 0.843882 -1.75683 0
M  V30 1449 H 138.64 2.34021 -2.06496 0
M  V30 1450 N 138.941 1.26152 0.944643 0
M  V30 1451 C 140.171 1.14094 1.72239 0
M  V30 1452 C 140.579 -0.306931 1.86694 0
M  V30 1453 O 139.922 -1.22222 1.3714 0
M  V30 1454 C 139.984 1.73316 3.14963 0
M  V30 1455 C 139.648 3.2239 3.23904 0
M  V30 1456 C 140.645 4.19252 3.07447 0
M  V30 1457 C 138.33 3.62788 3.47405 0
M  V30 1458 C 140.324 5.54491 3.14353 0
M  V30 1459 C 138.011 4.98162 3.53947 0
M  V30 1460 C 139.009 5.93823 3.37436 0
M  V30 1461 O 138.697 7.26732 3.43679 0
M  V30 1462 H 138.429 0.398292 0.546205 0
M  V30 1463 H 140.983 1.67201 1.19301 0
M  V30 1464 H 139.213 1.14667 3.69308 0
M  V30 1465 H 140.902 1.56214 3.74636 0
M  V30 1466 H 141.668 3.8938 2.8915 0
M  V30 1467 H 137.547 2.88816 3.59313 0
M  V30 1468 H 141.091 6.29137 3.01384 0
M  V30 1469 H 136.988 5.27695 3.71763 0
M  V30 1470 H 137.756 7.3496 3.60245 0
M  V30 1471 N 140.419 -1.14872 1.07899 0
M  V30 1472 C 141.367 -2.21857 0.698727 0
M  V30 1473 C 142.361 -1.66845 -0.293086 0
M  V30 1474 O 143.567 -1.79321 -0.156204 0
M  V30 1475 H 139.942 -0.722691 0.207899 0
M  V30 1476 H 141.913 -2.51205 1.61054 0
M  V30 1477 C 140.662 -3.47498 0.11858 0
M  V30 1478 H 139.985 -3.90154 0.872914 0
M  V30 1479 H 141.425 -4.23858 -0.109759 0
M  V30 1480 C 139.884 -3.16947 -1.1422 0
M  V30 1481 O 140.414 -3.3426 -2.22785 0
M  V30 1482 N 138.62 -2.70946 -1.05055 0
M  V30 1483 H 138.167 -2.57058 -0.167038 0
M  V30 1484 H 138.125 -2.50879 -1.89491 0
M  V30 1485 N 141.898 -0.863906 -1.31812 0
M  V30 1486 C 142.828 -0.330843 -2.31144 0
M  V30 1487 C 143.809 0.575005 -1.60087 0
M  V30 1488 O 144.994 0.493304 -1.8783 0
M  V30 1489 C 142.124 0.47374 -3.44054 0
M  V30 1490 C 141.078 -0.338481 -4.26659 0
M  V30 1491 C 140.404 0.591412 -5.31419 0
M  V30 1492 C 141.704 -1.56926 -4.98168 0
M  V30 1493 H 143.398 -1.16086 -2.75979 0
M  V30 1494 H 140.944 -0.559657 -1.32679 0
M  V30 1495 H 142.897 0.857143 -4.12591 0
M  V30 1496 H 141.621 1.33721 -2.9797 0
M  V30 1497 H 140.28 -0.703754 -3.59782 0
M  V30 1498 H 139.928 1.45199 -4.81587 0
M  V30 1499 H 139.628 0.0519022 -5.87577 0
M  V30 1500 H 141.152 0.97179 -6.02817 0
M  V30 1501 H 142.566 -1.25764 -5.59336 0
M  V30 1502 H 140.963 -2.04739 -5.64094 0
M  V30 1503 H 142.033 -2.32544 -4.25501 0
M  V30 1504 N 143.376 1.44774 -0.622745 0
M  V30 1505 C 144.623 2.02121 -0.1239 0
M  V30 1506 C 144.951 1.48915 1.25118 0
M  V30 1507 O 144.206 0.660045 1.84233 0
M  V30 1508 C 144.505 3.57364 -0.0508323 0
M  V30 1509 C 144.171 4.29787 -1.36358 0
M  V30 1510 C 142.833 4.4929 -1.72314 0
M  V30 1511 C 145.185 4.71062 -2.23048 0
M  V30 1512 C 142.513 5.07325 -2.94682 0
M  V30 1513 C 144.865 5.30452 -3.44679 0
M  V30 1514 C 143.529 5.48175 -3.80868 0
M  V30 1515 H 142.799 0.739612 -0.0453381 0
M  V30 1516 H 145.446 1.73648 -0.807389 0
M  V30 1517 H 143.751 3.85202 0.715991 0
M  V30 1518 H 145.448 3.99456 0.351533 0
M  V30 1519 H 142.038 4.14932 -1.07375 0
M  V30 1520 H 146.222 4.55715 -1.96565 0
M  V30 1521 H 141.478 5.19235 -3.22809 0
M  V30 1522 H 145.652 5.61385 -4.12092 0
M  V30 1523 H 143.279 5.92912 -4.75773 0
M  V30 1524 N 144.854 0.36279 1.53368 0
M  V30 1525 C 145.804 -0.501391 2.22419 0
M  V30 1526 C 146.788 -1.0509 1.2184 0
M  V30 1527 O 147.98 -0.981404 1.47301 0
M  V30 1528 C 145.109 -1.64201 3.01484 0
M  V30 1529 C 144.195 -1.10552 4.09438 0
M  V30 1530 N 144.586 -0.291788 5.04958 0
M  V30 1531 C 142.884 -1.3806 4.24094 0
M  V30 1532 C 143.585 0.00162655 5.817 0
M  V30 1533 N 142.561 -0.595244 5.40331 0
M  V30 1534 H 146.363 0.127159 2.93625 0
M  V30 1535 H 143.877 0.170658 1.61501 0
M  V30 1536 H 145.874 -2.27326 3.49469 0
M  V30 1537 H 144.534 -2.27365 2.31809 0
M  V30 1538 H 145.545 0.0687731 5.17854 0
M  V30 1539 H 142.222 -2.01522 3.65644 0
M  V30 1540 H 143.612 0.659278 6.68658 0
M  V30 1541 N 146.332 -1.57332 0.0918853 0
M  V30 1542 C 147.242 -2.17368 -0.882505 0
M  V30 1543 C 148.258 -1.14226 -1.31257 0
M  V30 1544 O 149.434 -1.46582 -1.38115 0
M  V30 1545 C 146.499 -2.73962 -2.12476 0
M  V30 1546 C 145.56 -3.92048 -1.7492 0
M  V30 1547 C 144.793 -4.45933 -2.93223 0
M  V30 1548 O 145.016 -3.98764 -4.07852 0
M  V30 1549 O 143.95 -5.36999 -2.71875 0
M  V30 1550 H 147.776 -3.01031 -0.40172 0
M  V30 1551 H 145.361 -1.48813 -0.132291 0
M  V30 1552 H 147.243 -3.10147 -2.85283 0
M  V30 1553 H 145.918 -1.93347 -2.59613 0
M  V30 1554 H 144.825 -3.6068 -0.993025 0
M  V30 1555 H 146.158 -4.74017 -1.32548 0
M  V30 1556 N 147.81 0.181792 -1.56548 0
M  V30 1557 C 148.773 1.20894 -1.94724 0
M  V30 1558 C 149.773 1.37738 -0.829747 0
M  V30 1559 O 150.963 1.35323 -1.09697 0
M  V30 1560 C 148.095 2.57593 -2.23291 0
M  V30 1561 H 149.288 0.882275 -2.86629 0
M  V30 1562 H 146.841 0.423838 -1.50444 0
M  V30 1563 H 147.576 2.95291 -1.34067 0
M  V30 1564 H 147.361 2.46735 -3.04736 0
M  V30 1565 H 148.851 3.31637 -2.53785 0
M  V30 1566 N 149.288 1.51039 0.449983 0
M  V30 1567 C 150.537 1.62317 1.19733 0
M  V30 1568 C 150.85 0.339101 1.92638 0
M  V30 1569 O 152.056 0.331069 2.69474 0
M  V30 1570 C 150.512 2.86608 2.17678 0
M  V30 1571 C 150.12 4.21972 1.50479 0
M  V30 1572 C 151.864 3.07239 2.92924 0
M  V30 1573 C 149.771 5.37426 2.46834 0
M  V30 1574 H 148.701 0.604532 0.450619 0
M  V30 1575 H 151.352 1.77494 0.465625 0
M  V30 1576 H 149.734 2.65037 2.94231 0
M  V30 1577 H 150.908 4.53878 0.795716 0
M  V30 1578 H 149.223 4.07117 0.874344 0
M  V30 1579 H 151.82 3.90668 3.65079 0
M  V30 1580 H 152.163 2.19807 3.5354 0
M  V30 1581 H 152.696 3.29091 2.23481 0
M  V30 1582 H 149.435 6.27079 1.90926 0
M  V30 1583 H 148.955 5.09912 3.15832 0
M  V30 1584 H 150.634 5.68862 3.08228 0
M  V30 1585 N 150.766 -0.704594 1.40972 0
M  V30 1586 C 152.177 -1.28418 1.3552 0
M  V30 1587 C 152.528 -1.96171 0.0339434 0
M  V30 1588 O 151.653 -1.98231 -0.867944 0
M  V30 1589 C 152.248 -2.33528 2.45459 0
M  V30 1590 C 150.807 -2.87085 2.43433 0
M  V30 1591 C 149.954 -1.61007 2.2577 0
M  V30 1592 H 152.905 -0.499963 1.50619 0
M  V30 1593 H 152.926 -3.14619 2.13998 0
M  V30 1594 H 152.438 -1.84187 3.41609 0
M  V30 1595 H 150.539 -3.40626 1.51013 0
M  V30 1596 H 150.652 -3.3813 3.39419 0
M  V30 1597 H 149.016 -1.86482 1.73483 0
M  V30 1598 H 149.799 -1.13675 3.23933 0
M  V30 1599 N 152.244 -1.26651 -0.937939 0
M  V30 1600 C 153.521 -1.0313 -1.66204 0
M  V30 1601 C 153.901 0.437256 -2.06522 0
M  V30 1602 O 153.249 1.41831 -1.79154 0
M  V30 1603 C 153.459 -1.98314 -2.87181 0
M  V30 1604 C 154.807 -2.27107 -3.58758 0
M  V30 1605 O 155.831 -1.96205 -2.97291 0
M  V30 1606 O 154.69 -2.79736 -4.69479 0
M  V30 1607 H 151.784 -0.392384 -0.727986 0
M  V30 1608 H 154.33 -1.37874 -0.989382 0
M  V30 1609 H 153.102 -2.97399 -2.54302 0
M  V30 1610 H 152.725 -1.64068 -3.6217 0
M  V30 1611 N 153.722 1.14298 -1.08507 0
M  V30 1612 C 155.133 1.66926 -0.836227 0
M  V30 1613 C 155.484 1.85576 0.63686 0
M  V30 1614 O 154.609 1.56767 1.49175 0
M  V30 1615 C 155.204 3.03219 -1.51142 0
M  V30 1616 C 153.763 3.52876 -1.30979 0
M  V30 1617 C 152.91 2.2833 -1.57356 0
M  V30 1618 H 155.861 0.983491 -1.24552 0
M  V30 1619 H 155.882 3.68726 -0.939211 0
M  V30 1620 H 155.394 2.89612 -2.58353 0
M  V30 1621 H 153.495 3.71703 -0.258429 0
M  V30 1622 H 153.608 4.33586 -2.03814 0
M  V30 1623 H 151.972 2.34454 -0.995164 0
M  V30 1624 H 152.755 2.17298 -2.65775 0
M  V30 1625 N 155.201 0.870884 1.31352 0
M  V30 1626 C 156.426 0.495957 2.01383 0
M  V30 1627 C 156.851 -0.904324 1.64935 0
M  V30 1628 O 156.209 -1.59687 0.858466 0
M  V30 1629 C 156.257 0.661433 3.54482 0
M  V30 1630 O 155.361 -0.298851 4.11316 0
M  V30 1631 H 154.702 0.197158 0.634054 0
M  V30 1632 H 157.232 1.17455 1.67527 0
M  V30 1633 H 157.242 0.555072 4.04207 0
M  V30 1634 H 155.917 1.68246 3.8035 0
M  V30 1635 H 154.494 -0.147368 3.72609 0
M  V30 1636 N 156.679 -1.44442 0.630414 0
M  V30 1637 C 157.925 -2.02894 0.143332 0
M  V30 1638 C 158.28 -1.48697 -1.22094 0
M  V30 1639 O 157.573 -0.661171 -1.79831 0
M  V30 1640 C 157.767 -3.57332 0.0697835 0
M  V30 1641 C 157.596 -4.26512 1.42539 0
M  V30 1642 C 156.366 -4.63516 2.01198 0
M  V30 1643 C 158.564 -4.57004 2.35907 0
M  V30 1644 N 156.546 -5.17661 3.30001 0
M  V30 1645 C 157.917 -5.12223 3.49324 0
M  V30 1646 C 159.972 -4.38955 2.34995 0
M  V30 1647 C 158.675 -5.51295 4.62024 0
M  V30 1648 C 160.701 -4.79075 3.46758 0
M  V30 1649 C 160.063 -5.34407 4.58899 0
M  V30 1650 H 156.162 -0.776041 0.0963523 0
M  V30 1651 H 158.746 -1.75945 0.833752 0
M  V30 1652 H 156.917 -3.83894 -0.589915 0
M  V30 1653 H 158.649 -4.02451 -0.42606 0
M  V30 1654 H 155.404 -4.47811 1.54151 0
M  V30 1655 H 155.828 -5.4921 3.95851 0
M  V30 1656 H 160.47 -3.95469 1.49545 0
M  V30 1657 H 158.188 -5.93736 5.48182 0
M  V30 1658 H 161.774 -4.66824 3.47227 0
M  V30 1659 H 160.654 -5.64878 5.4395 0
M  V30 1660 N 158.157 -0.370918 -1.53173 0
M  V30 1661 C 159.104 0.473035 -2.259 0
M  V30 1662 C 160.074 1.07311 -1.26781 0
M  V30 1663 O 161.259 1.1046 -1.55574 0
M  V30 1664 C 158.399 1.60405 -3.05556 0
M  V30 1665 C 157.512 1.02863 -4.19575 0
M  V30 1666 C 156.647 2.12918 -4.86661 0
M  V30 1667 C 155.686 1.52869 -5.92704 0
M  V30 1668 N 154.823 2.56779 -6.53459 0
M  V30 1669 H 159.663 -0.153649 -2.97604 0
M  V30 1670 H 157.2 -0.0875946 -1.46839 0
M  V30 1671 H 159.158 2.27034 -3.50016 0
M  V30 1672 H 157.788 2.20131 -2.36097 0
M  V30 1673 H 156.84 0.252465 -3.79561 0
M  V30 1674 H 158.152 0.549642 -4.95762 0
M  V30 1675 H 157.306 2.87356 -5.34333 0
M  V30 1676 H 156.045 2.6417 -4.09958 0
M  V30 1677 H 155.05 0.769479 -5.44389 0
M  V30 1678 H 156.275 1.02435 -6.7133 0
M  V30 1679 H 154.221 3.07235 -5.79606 0
M  V30 1680 H 154.138 2.13583 -7.25202 0
M  V30 1681 H 155.406 3.30903 -7.05779 0
M  V30 1682 N 159.635 1.57281 -0.100228 0
M  V30 1683 C 160.912 1.86014 0.604812 0
M  V30 1684 C 161.292 0.998025 1.86018 0
M  V30 1685 O 160.64 0.0718184 2.28387 0
M  V30 1686 C 160.85 3.36784 0.915278 0
M  V30 1687 C 162.198 4.04957 1.27651 0
M  V30 1688 O 163.222 3.41695 1.00613 0
M  V30 1689 O 162.081 5.16593 1.7831 0
M  V30 1690 H 159.175 0.76942 0.303185 0
M  V30 1691 H 161.721 1.69176 -0.133313 0
M  V30 1692 H 160.493 3.91292 0.0248896 0
M  V30 1693 H 160.116 3.58987 1.70921 0
M  V30 1694 N 161.113 -0.173488 1.56642 0
M  V30 1695 C 162.341 -0.906095 1.86004 0
M  V30 1696 C 162.756 -1.75921 0.685355 0
M  V30 1697 O 162.113 -1.79198 -0.345578 0
M  V30 1698 C 162.164 -1.78462 3.14378 0
M  V30 1699 O 161.885 -0.965914 4.27319 0
M  V30 1700 C 163.386 -2.62707 3.57071 0
M  V30 1701 H 160.606 -0.263341 0.617165 0
M  V30 1702 H 163.15 -0.174236 2.03756 0
M  V30 1703 H 161.305 -2.46984 2.98459 0
M  V30 1704 H 161.719 -1.56655 5.00559 0
M  V30 1705 H 163.193 -3.19969 4.49804 0
M  V30 1706 H 163.67 -3.37472 2.81086 0
M  V30 1707 H 164.276 -1.99521 3.75595 0
M  V30 1708 N 162.591 -1.51276 -0.441967 0
M  V30 1709 C 163.837 -1.63958 -1.19355 0
M  V30 1710 C 164.17 -0.352543 -1.90973 0
M  V30 1711 O 163.445 0.647627 -1.83401 0
M  V30 1712 C 163.728 -2.83979 -2.21422 0
M  V30 1713 C 163.581 -4.22646 -1.53918 0
M  V30 1714 C 164.9 -2.99521 -3.22451 0
M  V30 1715 H 162.019 -0.596709 -0.432559 0
M  V30 1716 H 164.661 -1.83748 -0.483398 0
M  V30 1717 H 162.811 -2.67237 -2.81987 0
M  V30 1718 H 164.483 -4.51045 -0.967256 0
M  V30 1719 H 162.726 -4.25558 -0.841615 0
M  V30 1720 H 163.397 -5.02609 -2.28229 0
M  V30 1721 H 165.873 -3.14944 -2.71937 0
M  V30 1722 H 164.749 -3.85072 -3.91166 0
M  V30 1723 H 165.01 -2.11391 -3.88287 0
M  V30 1724 N 164.069 0.697108 -1.41344 0
M  V30 1725 C 164.999 1.82353 -1.45841 0
M  V30 1726 C 165.98 1.67115 -0.317247 0
M  V30 1727 O 167.165 1.86871 -0.528474 0
M  V30 1728 C 164.295 3.20476 -1.33838 0
M  V30 1729 C 163.249 3.50415 -2.4575 0
M  V30 1730 C 162.575 4.87878 -2.18813 0
M  V30 1731 C 163.875 3.49546 -3.88091 0
M  V30 1732 H 165.569 1.78846 -2.40113 0
M  V30 1733 H 163.115 0.859028 -1.15571 0
M  V30 1734 H 165.068 3.98988 -1.35596 0
M  V30 1735 H 163.792 3.24604 -0.360498 0
M  V30 1736 H 162.451 2.74253 -2.43271 0
M  V30 1737 H 162.099 4.8863 -1.19371 0
M  V30 1738 H 161.799 5.08875 -2.93803 0
M  V30 1739 H 163.323 5.68702 -2.22284 0
M  V30 1740 H 164.737 4.18066 -3.92293 0
M  V30 1741 H 163.134 3.82075 -4.62751 0
M  V30 1742 H 164.204 2.48552 -4.16353 0
M  V30 1743 N 165.547 1.27147 0.931209 0
M  V30 1744 C 166.795 1.13055 1.6752 0
M  V30 1745 C 167.116 -0.324791 1.92276 0
M  V30 1746 O 166.386 -1.22775 1.52654 0
M  V30 1747 H 164.966 0.415391 0.620854 0
M  V30 1748 H 167.628 1.59623 1.11833 0
M  V30 1749 H 166.724 1.65694 2.64485 0
M  V30 1750 N 167.025 -1.13721 1.09112 0
M  V30 1751 C 168.272 -1.84924 0.825192 0
M  V30 1752 C 168.6 -1.83347 -0.649151 0
M  V30 1753 O 167.855 -1.26449 -1.49362 0
M  V30 1754 C 168.154 -3.32861 1.30146 0
M  V30 1755 C 167.82 -3.54621 2.78486 0
M  V30 1756 C 166.482 -3.60268 3.18999 0
M  V30 1757 C 168.834 -3.62855 3.74146 0
M  V30 1758 C 166.162 -3.71679 4.53951 0
M  V30 1759 C 168.514 -3.75793 5.08883 0
M  V30 1760 C 167.178 -3.79692 5.4899 0
M  V30 1761 H 166.448 -0.676684 0.301959 0
M  V30 1762 H 169.095 -1.3428 1.36533 0
M  V30 1763 H 167.4 -3.85835 0.681064 0
M  V30 1764 H 169.097 -3.86395 1.07236 0
M  V30 1765 H 165.687 -3.50879 2.46134 0
M  V30 1766 H 169.871 -3.57775 3.43963 0
M  V30 1767 H 165.127 -3.72963 4.84467 0
M  V30 1768 H 169.301 -3.81107 5.82864 0
M  V30 1769 H 166.928 -3.88287 6.53558 0
M  V30 1770 N 168.503 -0.877838 -1.30888 0
M  V30 1771 C 169.919 -0.570844 -1.49042 0
M  V30 1772 C 170.119 0.893159 -1.80624 0
M  V30 1773 O 169.175 1.67485 -1.88958 0
M  V30 1774 C 170.488 -1.47784 -2.61878 0
M  V30 1775 C 172.036 -1.48071 -2.75761 0
M  V30 1776 C 172.511 -2.37347 -3.91702 0
M  V30 1777 N 174.002 -2.35271 -3.99001 0
M  V30 1778 C 174.737 -3.01063 -4.88004 0
M  V30 1779 N 174.233 -3.76055 -5.81854 0
M  V30 1780 N 176.026 -2.90332 -4.81315 0
M  V30 1781 H 168.177 -1.82502 -1.0866 0
M  V30 1782 H 170.44 -0.780797 -0.537644 0
M  V30 1783 H 170.146 -2.51993 -2.45341 0
M  V30 1784 H 170.02 -1.18215 -3.58197 0
M  V30 1785 H 172.407 -0.446166 -2.91708 0
M  V30 1786 H 172.488 -1.81668 -1.80085 0
M  V30 1787 H 172.132 -3.40883 -3.76512 0
M  V30 1788 H 172.062 -2.01071 -4.86701 0
M  V30 1789 H 174.553 -1.80768 -3.3186 0
M  V30 1790 H 174.866 -4.23366 -6.46514 0
M  V30 1791 H 173.211 -3.80163 -5.81808 0
M  V30 1792 H 176.402 -2.31278 -4.06974 0
M  V30 1793 H 176.575 -3.41885 -5.50471 0
M  V30 1794 N 169.982 1.44106 -0.638065 0
M  V30 1795 C 170.929 2.30715 0.062701 0
M  V30 1796 C 171.899 1.43882 0.829883 0
M  V30 1797 O 173.084 1.72775 0.809532 0
M  V30 1798 C 170.224 3.29258 1.03358 0
M  V30 1799 C 169.337 4.31192 0.26409 0
M  V30 1800 C 168.472 5.16825 1.22741 0
M  V30 1801 C 167.511 6.10462 0.447475 0
M  V30 1802 N 166.648 6.8877 1.36161 0
M  V30 1803 H 171.488 2.90096 -0.681781 0
M  V30 1804 H 169.025 1.42925 -0.347988 0
M  V30 1805 H 170.983 3.84886 1.60992 0
M  V30 1806 H 169.613 2.71562 1.74511 0
M  V30 1807 H 168.665 3.77981 -0.428295 0
M  V30 1808 H 169.977 4.97619 -0.343052 0
M  V30 1809 H 169.131 5.77004 1.87487 0
M  V30 1810 H 167.87 4.50488 1.86847 0
M  V30 1811 H 166.875 5.49386 -0.213433 0
M  V30 1812 H 168.1 6.78837 -0.188968 0
M  V30 1813 H 166.046 6.25096 1.98975 0
M  V30 1814 H 165.963 7.51663 0.808656 0
M  V30 1815 H 167.231 7.53467 1.99769 0
M  V30 1816 N 171.46 0.379036 1.52974 0
M  V30 1817 C 172.39 -0.452706 2.29069 0
M  V30 1818 C 173.371 -1.07237 1.32039 0
M  V30 1819 O 174.556 -1.08708 1.60923 0
M  V30 1820 C 171.686 -1.5856 3.08992 0
M  V30 1821 C 170.64 -1.0925 4.13822 0
M  V30 1822 C 169.966 -2.31668 4.81907 0
M  V30 1823 C 171.266 -0.167702 5.22031 0
M  V30 1824 H 172.96 0.182181 2.98845 0
M  V30 1825 H 170.506 0.0890592 1.43724 0
M  V30 1826 H 172.459 -2.1742 3.6098 0
M  V30 1827 H 171.183 -2.24792 2.36931 0
M  V30 1828 H 169.842 -0.526494 3.628 0
M  V30 1829 H 169.49 -2.96386 4.06404 0
M  V30 1830 H 169.19 -1.9934 5.52754 0
M  V30 1831 H 170.714 -2.91189 5.36695 0
M  V30 1832 H 172.128 -0.664186 5.6944 0
M  V30 1833 H 170.525 0.0653265 6.00064 0
M  V30 1834 H 171.595 0.786347 4.78482 0
M  V30 1835 N 172.938 -1.57226 0.108567 0
M  V30 1836 C 174.166 -1.99179 -0.559954 0
M  V30 1837 C 174.581 -0.988022 -1.60884 0
M  V30 1838 O 173.938 0.0205512 -1.82488 0
M  V30 1839 C 173.989 -3.41159 -1.19552 0
M  V30 1840 O 173.71 -4.37694 -0.188577 0
M  V30 1841 C 175.211 -3.98188 -1.94837 0
M  V30 1842 H 172.431 -0.654228 -0.149088 0
M  V30 1843 H 174.975 -2.03598 0.19183 0
M  V30 1844 H 173.13 -3.37711 -1.89815 0
M  V30 1845 H 173.544 -5.20469 -0.649014 0
M  V30 1846 H 175.018 -4.99644 -2.34648 0
M  V30 1847 H 175.495 -3.3675 -2.81951 0
M  V30 1848 H 176.101 -4.0515 -1.2936 0
M  V30 1849 N 174.416 0.165178 -1.56732 0
M  V30 1850 C 175.827 0.727046 -1.71962 0
M  V30 1851 C 176.178 1.82508 -0.720078 0
M  V30 1852 O 175.303 2.16082 0.117242 0
M  V30 1853 C 175.898 1.32559 -3.11791 0
M  V30 1854 C 174.457 1.83422 -3.28684 0
M  V30 1855 C 173.604 0.715567 -2.67908 0
M  V30 1856 H 176.555 -0.0602896 -1.58585 0
M  V30 1857 H 176.576 2.19533 -3.10782 0
M  V30 1858 H 176.088 0.526195 -3.84516 0
M  V30 1859 H 174.189 2.65986 -2.60926 0
M  V30 1860 H 174.302 1.97543 -4.36478 0
M  V30 1861 H 172.666 1.13758 -2.27884 0
M  V30 1862 H 173.449 -0.0720836 -3.43224 0
M  V30 1863 N 175.894 1.51508 0.433938 0
M  V30 1864 C 177.31 1.39759 0.770682 0
M  V30 1865 C 177.51 0.482594 1.95636 0
M  V30 1866 O 176.566 -0.0609691 2.52426 0
M  V30 1867 C 177.879 2.81851 1.04787 0
M  V30 1868 C 179.427 2.91025 1.1521 0
M  V30 1869 C 179.902 4.34032 1.46219 0
M  V30 1870 N 181.393 4.37154 1.53136 0
M  V30 1871 C 182.128 5.4484 1.78709 0
M  V30 1872 N 181.624 6.62682 2.02051 0
M  V30 1873 N 183.417 5.32324 1.80519 0
M  V30 1874 H 175.568 2.09548 -0.346892 0
M  V30 1875 H 177.831 0.943446 -0.0928074 0
M  V30 1876 H 177.537 3.50815 0.249304 0
M  V30 1877 H 177.411 3.21386 1.97461 0
M  V30 1878 H 179.798 2.22257 1.94128 0
M  V30 1879 H 179.879 2.54983 0.204281 0
M  V30 1880 H 179.523 5.03351 0.678274 0
M  V30 1881 H 179.453 4.6759 2.42212 0
M  V30 1882 H 181.944 3.52197 1.36987 0
M  V30 1883 H 182.257 7.40543 2.20943 0
M  V30 1884 H 180.602 6.65791 1.99366 0
M  V30 1885 H 183.793 4.39246 1.61805 0
M  V30 1886 H 183.966 6.16328 2.00111 0
M  V30 1887 N 177.372 -0.689602 1.41712 0
M  V30 1888 C 178.282 -1.83314 1.46401 0
M  V30 1889 C 179.298 -1.7036 0.35405 0
M  V30 1890 O 180.474 -1.92171 0.602692 0
M  V30 1891 C 177.539 -3.19344 1.34982 0
M  V30 1892 C 176.6 -3.44363 2.56344 0
M  V30 1893 C 175.833 -4.73904 2.45461 0
M  V30 1894 O 176.056 -5.508 1.48241 0
M  V30 1895 O 174.99 -4.99839 3.35328 0
M  V30 1896 H 178.816 -1.82314 2.42889 0
M  V30 1897 H 176.401 -0.843438 1.23315 0
M  V30 1898 H 178.283 -4.00547 1.3092 0
M  V30 1899 H 176.958 -3.21014 0.41612 0
M  V30 1900 H 175.865 -2.63067 2.65982 0
M  V30 1901 H 177.198 -3.47512 3.48563 0
M  V30 1902 N 178.85 -1.27639 -0.924453 0
M  V30 1903 C 179.78 -1.13166 -2.04244 0
M  V30 1904 C 180.761 -0.032256 -1.70069 0
M  V30 1905 O 181.946 -0.207328 -1.9309 0
M  V30 1906 C 179.076 -0.781496 -3.38393 0
M  V30 1907 C 178.03 -1.83449 -3.86692 0
M  V30 1908 C 177.356 -1.33822 -5.17683 0
M  V30 1909 C 178.656 -3.23917 -4.09726 0
M  V30 1910 H 180.35 -2.06689 -2.1661 0
M  V30 1911 H 177.896 -0.995136 -1.04082 0
M  V30 1912 H 179.849 -0.667057 -4.16087 0
M  V30 1913 H 178.573 0.189439 -3.2605 0
M  V30 1914 H 177.232 -1.93789 -3.11193 0
M  V30 1915 H 176.88 -0.35665 -5.01734 0
M  V30 1916 H 176.58 -2.04224 -5.50968 0
M  V30 1917 H 178.104 -1.23679 -5.97943 0
M  V30 1918 H 179.518 -3.16559 -4.77978 0
M  V30 1919 H 177.915 -3.92059 -4.54324 0
M  V30 1920 H 178.985 -3.68729 -3.14908 0
M  V30 1921 N 180.328 1.1314 -1.09713 0
M  V30 1922 C 181.605 1.80762 -0.747302 0
M  V30 1923 C 181.985 1.96663 0.767265 0
M  V30 1924 O 181.333 1.53706 1.69076 0
M  V30 1925 C 181.543 3.15606 -1.48975 0
M  V30 1926 C 182.891 3.90914 -1.65746 0
M  V30 1927 O 183.915 3.25239 -1.45251 0
M  V30 1928 O 182.774 5.08718 -1.9967 0
M  V30 1929 H 179.868 0.782103 -0.268782 0
M  V30 1930 H 182.414 1.20041 -1.19951 0
M  V30 1931 H 181.186 2.99278 -2.52088 0
M  V30 1932 H 180.809 3.84029 -1.02991 0
M  V30 1933 N 181.806 0.884767 1.30421 0
M  V30 1934 C 182.739 0.295999 2.26272 0
M  V30 1935 C 183.717 -0.58332 1.51777 0
M  V30 1936 O 184.901 -0.53346 1.80794 0
M  V30 1937 C 182.028 -0.57944 3.33707 0
M  V30 1938 C 181.074 0.230525 4.25877 0
M  V30 1939 S 181.907 1.61867 5.1045 0
M  V30 1940 C 183.063 0.749756 6.21393 0
M  V30 1941 H 183.296 1.10848 2.75862 0
M  V30 1942 H 180.829 0.684178 1.38414 0
M  V30 1943 H 182.787 -1.07879 3.96071 0
M  V30 1944 H 181.448 -1.36601 2.82841 0
M  V30 1945 H 180.641 -0.437542 5.02097 0
M  V30 1946 H 180.243 0.662493 3.68086 0
M  V30 1947 H 182.535 -0.0333547 6.77492 0
M  V30 1948 H 183.478 1.48356 6.92384 0
M  V30 1949 H 183.886 0.310751 5.63644 0
M  V30 1950 N 183.284 -1.43765 0.645699 0
M  V30 1951 C 184.531 -2.01898 0.15604 0
M  V30 1952 C 184.859 -1.50887 -1.22733 0
M  V30 1953 O 184.114 -0.689271 -1.8316 0
M  V30 1954 C 184.413 -3.57238 0.107679 0
M  V30 1955 C 184.079 -4.27564 1.43178 0
M  V30 1956 C 182.741 -4.46492 1.7944 0
M  V30 1957 C 185.093 -4.67454 2.30513 0
M  V30 1958 C 182.421 -5.02573 3.02716 0
M  V30 1959 C 184.773 -5.24901 3.53074 0
M  V30 1960 C 183.437 -5.42046 3.89541 0
M  V30 1961 H 182.707 -0.738797 0.057099 0
M  V30 1962 H 185.354 -1.72341 0.834912 0
M  V30 1963 H 183.659 -3.86293 -0.654618 0
M  V30 1964 H 185.356 -3.99965 -0.287938 0
M  V30 1965 H 181.946 -4.13171 1.13963 0
M  V30 1966 H 186.13 -4.5253 2.0379 0
M  V30 1967 H 181.386 -5.14033 3.31028 0
M  V30 1968 H 185.56 -5.54758 4.20971 0
M  V30 1969 H 183.187 -5.85268 4.85145 0
M  V30 1970 N 184.763 -0.387143 -1.52771 0
M  V30 1971 C 186.174 0.0873634 -1.86495 0
M  V30 1972 C 186.525 1.46336 -1.30691 0
M  V30 1973 O 185.65 2.068 -0.637409 0
M  V30 1974 C 186.245 0.165305 -3.38396 0
M  V30 1975 C 184.804 0.584101 -3.7184 0
M  V30 1976 C 183.951 -0.255279 -2.76122 0
M  V30 1977 H 186.902 -0.605104 -1.46711 0
M  V30 1978 H 186.923 0.984848 -3.67534 0
M  V30 1979 H 186.435 -0.836301 -3.78982 0
M  V30 1980 H 184.536 1.59315 -3.36823 0
M  V30 1981 H 184.649 0.343749 -4.77865 0
M  V30 1982 H 183.013 0.279126 -2.53166 0
M  V30 1983 H 183.796 -1.25482 -3.19545 0
M  V30 1984 N 186.241 1.57166 -0.116904 0
M  V30 1985 C 187.518 1.86645 0.585049 0
M  V30 1986 C 187.898 1.0177 1.84949 0
M  V30 1987 O 187.246 0.0960379 2.28298 0
M  V30 1988 C 187.456 3.37736 0.879507 0
M  V30 1989 C 188.804 4.06289 1.23348 0
M  V30 1990 O 189.828 3.42743 0.969836 0
M  V30 1991 O 188.687 5.18455 1.7282 0
M  V30 1992 H 185.781 0.772593 0.295007 0
M  V30 1993 H 188.327 1.69025 -0.151249 0
M  V30 1994 H 187.099 3.91296 -0.0166136 0
M  V30 1995 H 186.722 3.6078 1.67103 0
M  V30 1996 N 187.719 -0.156864 1.56817 0
M  V30 1997 C 188.949 -0.885031 1.86684 0
M  V30 1998 C 189.357 -1.75696 0.701954 0
M  V30 1999 O 188.7 -1.80569 -0.337732 0
M  V30 2000 C 188.762 -1.80092 3.11138 0
M  V30 2001 C 188.426 -1.10714 4.43386 0
M  V30 2002 C 189.423 -0.465714 5.1781 0
M  V30 2003 C 187.108 -1.09959 4.90117 0
M  V30 2004 C 189.102 0.174002 6.37162 0
M  V30 2005 C 186.789 -0.456055 6.09396 0
M  V30 2006 C 187.787 0.179622 6.82764 0
M  V30 2007 O 187.475 0.812975 7.99779 0
M  V30 2008 H 187.207 -0.261813 0.623242 0
M  V30 2009 H 189.761 -0.157383 2.04796 0
M  V30 2010 H 187.991 -2.56926 2.89009 0
M  V30 2011 H 189.68 -2.40018 3.27332 0
M  V30 2012 H 190.446 -0.463427 4.82781 0
M  V30 2013 H 186.325 -1.58378 4.3294 0
M  V30 2014 H 189.869 0.670765 6.94368 0
M  V30 2015 H 185.766 -0.455975 6.43888 0
M  V30 2016 H 186.534 0.71366 8.15383 0
M  V30 2017 N 189.197 -1.51736 -0.425897 0
M  V30 2018 C 190.445 -1.64644 -1.17204 0
M  V30 2019 C 190.766 -0.370486 -1.91448 0
M  V30 2020 O 190.036 0.614088 -1.86026 0
M  V30 2021 H 188.616 -0.606819 -0.435638 0
M  V30 2022 H 191.278 -1.88713 -0.487177 0
M  V30 2023 H 190.374 -2.47958 -1.89534 0
M  V30 2024 N 190.675 0.682077 -1.42076 0
M  V30 2025 C 191.905 1.46844 -1.45329 0
M  V30 2026 C 192.313 1.89102 -0.0609328 0
M  V30 2027 O 191.656 1.58238 0.933082 0
M  V30 2028 C 191.718 2.75375 -2.31104 0
M  V30 2029 C 191.382 2.55238 -3.79081 0
M  V30 2030 C 192.379 2.20309 -4.70914 0
M  V30 2031 C 190.064 2.70459 -4.2327 0
M  V30 2032 C 192.058 2.00859 -6.04925 0
M  V30 2033 C 189.745 2.50624 -5.57343 0
M  V30 2034 C 190.743 2.15876 -6.47986 0
M  V30 2035 O 190.431 1.96227 -7.79583 0
M  V30 2036 H 190.163 0.4586 -0.496651 0
M  V30 2037 H 192.717 0.846131 -1.87162 0
M  V30 2038 H 190.947 3.40061 -1.84107 0
M  V30 2039 H 192.636 3.37231 -2.25898 0
M  V30 2040 H 193.402 2.08153 -4.38061 0
M  V30 2041 H 189.281 2.96485 -3.53012 0
M  V30 2042 H 192.825 1.7366 -6.75639 0
M  V30 2043 H 188.722 2.62375 -5.89771 0
M  V30 2044 H 189.49 2.10883 -7.90867 0
M  V30 2045 N 192.153 1.28127 0.917671 0
M  V30 2046 C 193.401 1.14825 1.66312 0
M  V30 2047 C 193.722 -0.304379 1.9261 0
M  V30 2048 O 192.992 -1.21149 1.53947 0
M  V30 2049 H 191.572 0.421953 0.616413 0
M  V30 2050 H 194.234 1.608 1.10134 0
M  V30 2051 H 193.33 1.68489 2.62712 0
M  V30 2052 N 193.631 -1.12557 1.10312 0
M  V30 2053 C 194.877 -1.84515 0.855901 0
M  V30 2054 C 195.232 -1.82409 -0.611936 0
M  V30 2055 O 194.525 -1.25778 -1.44535 0
M  V30 2056 C 194.719 -3.31462 1.33669 0
M  V30 2057 C 194.548 -3.47879 2.84974 0
M  V30 2058 C 193.318 -3.61589 3.52961 0
M  V30 2059 C 195.516 -3.43152 3.83081 0
M  V30 2060 N 193.498 -3.66359 4.926 0
M  V30 2061 C 194.869 -3.54401 5.08724 0
M  V30 2062 C 196.924 -3.2661 3.75807 0
M  V30 2063 C 195.627 -3.50815 6.2795 0
M  V30 2064 C 197.653 -3.24335 4.94531 0
M  V30 2065 C 197.015 -3.36144 6.19021 0
M  V30 2066 H 193.114 -0.690967 0.366182 0
M  V30 2067 H 195.698 -1.34763 1.40524 0
M  V30 2068 H 193.869 -3.7976 0.814686 0
M  V30 2069 H 195.601 -3.91272 1.03385 0
M  V30 2070 H 192.356 -3.63652 3.03404 0
M  V30 2071 H 192.78 -3.72411 5.65366 0
M  V30 2072 H 197.422 -3.16375 2.80476 0
M  V30 2073 H 195.14 -3.5982 7.23571 0
M  V30 2074 H 198.726 -3.12719 4.9061 0
M  V30 2075 H 197.606 -3.34357 7.09348 0
M  V30 2076 N 195.109 -0.891671 -1.2995 0
M  V30 2077 C 196.356 -0.513501 -1.95881 0
M  V30 2078 C 196.684 0.938655 -1.70351 0
M  V30 2079 O 195.939 1.67936 -1.00478 0
M  V30 2080 C 196.238 -0.742868 -3.49594 0
M  V30 2081 C 195.904 -2.17114 -3.95186 0
M  V30 2082 C 194.566 -2.56169 -4.07346 0
M  V30 2083 C 196.918 -3.10162 -4.18866 0
M  V30 2084 C 194.246 -3.87469 -4.4055 0
M  V30 2085 C 196.598 -4.41001 -4.53542 0
M  V30 2086 C 195.262 -4.79941 -4.63911 0
M  V30 2087 H 194.532 -0.187903 -0.71678 0
M  V30 2088 H 197.179 -1.1288 -1.54694 0
M  V30 2089 H 195.484 -0.044586 -3.91775 0
M  V30 2090 H 197.181 -0.429767 -3.9869 0
M  V30 2091 H 193.771 -1.85801 -3.86233 0
M  V30 2092 H 197.955 -2.81206 -4.08946 0
M  V30 2093 H 193.211 -4.17371 -4.46779 0
M  V30 2094 H 197.385 -5.13133 -4.70815 0
M  V30 2095 H 195.012 -5.81719 -4.89395 0
M  V30 2096 N 196.587 1.43421 -0.653314 0
M  V30 2097 C 197.537 2.2792 0.060558 0
M  V30 2098 C 198.521 1.39906 0.794677 0
M  V30 2099 O 199.713 1.63536 0.677128 0
M  V30 2100 C 196.842 3.27603 1.0262 0
M  V30 2101 C 195.928 4.23104 0.290551 0
M  V30 2102 N 196.319 5.01031 -0.692967 0
M  V30 2103 C 194.617 4.42816 0.531984 0
M  V30 2104 C 195.318 5.70626 -1.12963 0
M  V30 2105 N 194.294 5.41617 -0.463867 0
M  V30 2106 H 198.096 2.85585 -0.694143 0
M  V30 2107 H 195.61 1.55126 -0.480602 0
M  V30 2108 H 197.607 3.86918 1.55242 0
M  V30 2109 H 196.267 2.71499 1.78096 0
M  V30 2110 H 197.278 5.0669 -1.07169 0
M  V30 2111 H 193.955 3.97782 1.26791 0
M  V30 2112 H 195.345 6.4318 -1.94343 0
M  V30 2113 N 198.065 0.39524 1.52563 0
M  V30 2114 C 199.293 -0.184943 2.06072 0
M  V30 2115 C 199.708 -1.40021 1.26647 0
M  V30 2116 O 199.065 -1.79767 0.314672 0
M  V30 2117 C 199.116 -0.549179 3.57304 0
M  V30 2118 O 198.837 0.617813 4.33722 0
M  V30 2119 C 200.338 -1.18459 4.2718 0
M  V30 2120 H 197.558 -0.0265025 0.670476 0
M  V30 2121 H 200.102 0.562184 1.96621 0
M  V30 2122 H 198.257 -1.2462 3.66809 0
M  V30 2123 H 198.671 0.317091 5.23541 0
M  V30 2124 H 200.145 -1.38976 5.34219 0
M  V30 2125 H 200.622 -2.15368 3.82771 0
M  V30 2126 H 201.228 -0.528163 4.22008 0
M  V30 2127 N 199.544 -1.57102 0.125237 0
M  V30 2128 C 200.769 -2.0019 -0.542101 0
M  V30 2129 C 201.194 -1.00449 -1.59034 0
M  V30 2130 O 200.552 0.0229423 -1.81285 0
M  V30 2131 C 200.6 -3.42129 -1.13929 0
M  V30 2132 O 199.704 -3.45307 -2.2547 0
M  V30 2133 H 199.045 -0.650171 -0.134812 0
M  V30 2134 H 201.575 -2.03461 0.215553 0
M  V30 2135 H 201.585 -3.80471 -1.4733 0
M  V30 2136 H 200.26 -4.14237 -0.371531 0
M  V30 2137 H 198.837 -3.1879 -1.93462 0
M  V30 2138 N 201.022 0.148545 -1.56898 0
M  V30 2139 C 201.952 1.18524 -2.01182 0
M  V30 2140 C 202.933 1.4489 -0.891123 0
M  V30 2141 O 204.118 1.55836 -1.15882 0
M  V30 2142 C 201.248 2.51879 -2.39112 0
M  V30 2143 C 200.202 2.40038 -3.54353 0
M  V30 2144 C 199.528 3.78089 -3.78091 0
M  V30 2145 C 200.828 1.88577 -4.87069 0
M  V30 2146 H 202.522 0.817029 -2.88036 0
M  V30 2147 H 200.068 0.391575 -1.38574 0
M  V30 2148 H 202.021 3.24627 -2.68692 0
M  V30 2149 H 200.745 2.90532 -1.49193 0
M  V30 2150 H 199.404 1.69742 -3.24936 0
M  V30 2151 H 199.052 4.14175 -2.85426 0
M  V30 2152 H 198.752 3.71028 -4.55645 0
M  V30 2153 H 200.276 4.52387 -4.10095 0
M  V30 2154 H 201.69 2.51117 -5.15377 0
M  V30 2155 H 200.087 1.9241 -5.68417 0
M  V30 2156 H 201.157 0.84136 -4.77545 0
M  V30 2157 N 202.5 1.5196 0.417844 0
M  V30 2158 C 203.749 1.6482 1.16264 0
M  V30 2159 C 204.062 0.379886 1.91876 0
M  V30 2160 O 205.268 0.388154 2.68711 0
M  V30 2161 C 203.724 2.91161 2.1155 0
M  V30 2162 C 203.332 4.25068 1.41495 0
M  V30 2163 C 205.076 3.13383 2.86341 0
M  V30 2164 C 202.983 5.42541 2.35379 0
M  V30 2165 H 201.913 0.613954 0.437694 0
M  V30 2166 H 204.564 1.78442 0.427871 0
M  V30 2167 H 202.946 2.71218 2.88543 0
M  V30 2168 H 204.12 4.55463 0.699263 0
M  V30 2169 H 202.435 4.0888 0.787792 0
M  V30 2170 H 205.032 3.98324 3.5671 0
M  V30 2171 H 205.375 2.27256 3.48798 0
M  V30 2172 H 205.908 3.33757 2.1645 0
M  V30 2173 H 202.647 6.30987 1.77582 0
M  V30 2174 H 202.167 5.16497 3.04945 0
M  V30 2175 H 203.846 5.75272 2.96093 0
M  V30 2176 N 203.978 -0.674533 1.42435 0
M  V30 2177 C 204.908 -1.80009 1.48724 0
M  V30 2178 C 205.889 -1.6659 0.343793 0
M  V30 2179 O 207.074 -1.86007 0.558137 0
M  V30 2180 C 204.204 -3.18306 1.38919 0
M  V30 2181 C 203.158 -3.46461 2.51294 0
M  V30 2182 C 202.484 -4.84335 2.26547 0
M  V30 2183 C 203.784 -3.43328 3.93603 0
M  V30 2184 H 205.478 -1.75004 2.42928 0
M  V30 2185 H 203.024 -0.840533 1.16923 0
M  V30 2186 H 204.977 -3.9678 1.41927 0
M  V30 2187 H 203.701 -3.2399 0.412094 0
M  V30 2188 H 202.36 -2.70348 2.47604 0
M  V30 2189 H 202.008 -4.86669 1.2713 0
M  V30 2190 H 201.708 -5.04136 3.01861 0
M  V30 2191 H 203.232 -5.65094 2.31304 0
M  V30 2192 H 204.646 -4.11772 3.98894 0
M  V30 2193 H 203.043 -3.74664 4.68771 0
M  V30 2194 H 204.113 -2.41897 4.20255 0
M  V30 2195 N 205.456 -1.28612 -0.910864 0
M  V30 2196 C 206.366 -1.14643 -2.0468 0
M  V30 2197 C 207.382 -0.0723121 -1.7385 0
M  V30 2198 O 208.558 -0.282178 -1.99413 0
M  V30 2199 C 205.623 -0.812561 -3.37044 0
M  V30 2200 C 204.684 -1.96935 -3.81465 0
M  V30 2201 C 203.917 -1.65131 -5.07511 0
M  V30 2202 O 204.14 -0.567013 -5.67575 0
M  V30 2203 O 203.074 -2.49585 -5.47714 0
M  V30 2204 H 206.9 -2.1001 -2.19384 0
M  V30 2205 H 204.485 -1.07958 -1.03274 0
M  V30 2206 H 206.367 -0.640441 -4.16505 0
M  V30 2207 H 205.042 0.111426 -3.23508 0
M  V30 2208 H 203.949 -2.19664 -3.02818 0
M  V30 2209 H 205.282 -2.87414 -3.99567 0
M  V30 2210 N 206.934 1.1197 -1.10907 0
M  V30 2211 C 208.182 1.83225 -0.852819 0
M  V30 2212 C 208.503 1.84769 0.623341 0
M  V30 2213 O 207.773 1.3143 1.45269 0
M  V30 2214 H 206.353 0.67849 -0.312507 0
M  V30 2215 H 209.015 1.3556 -1.40033 0
M  V30 2216 H 208.111 2.87265 -1.22005 0
M  V30 2217 N 208.412 0.89855 1.29475 0
M  V30 2218 C 209.359 0.373819 2.27753 0
M  V30 2219 C 210.329 -0.543444 1.56958 0
M  V30 2220 O 211.514 -0.468934 1.84948 0
M  V30 2221 C 208.654 -0.393648 3.42848 0
M  V30 2222 C 207.767 0.554379 4.28428 0
M  V30 2223 C 206.902 -0.230026 5.30702 0
M  V30 2224 C 205.941 0.712599 6.07938 0
M  V30 2225 N 205.078 -0.0373283 7.0209 0
M  V30 2226 H 209.918 1.21699 2.72017 0
M  V30 2227 H 207.455 0.611456 1.33789 0
M  V30 2228 H 209.413 -0.85466 4.08352 0
M  V30 2229 H 208.043 -1.20128 2.99615 0
M  V30 2230 H 207.095 1.13391 3.63107 0
M  V30 2231 H 208.407 1.27597 4.82204 0
M  V30 2232 H 207.561 -0.752288 6.02018 0
M  V30 2233 H 206.3 -0.984758 4.77654 0
M  V30 2234 H 205.305 1.24637 5.35486 0
M  V30 2235 H 206.53 1.46664 6.63074 0
M  V30 2236 H 204.476 -0.774348 6.51414 0
M  V30 2237 H 204.393 0.624374 7.53417 0
M  V30 2238 H 205.661 -0.539891 7.77628 0
M  V30 2239 N 209.89 -1.43072 0.660911 0
M  V30 2240 C 210.838 -2.32569 -0.0378199 0
M  V30 2241 C 211.832 -1.49046 -0.805092 0
M  V30 2242 O 213.038 -1.65206 -0.714624 0
M  V30 2243 H 209.413 -0.75136 -0.031019 0
M  V30 2244 H 211.384 -2.89216 0.734609 0
M  V30 2245 C 210.133 -3.33453 -0.985124 0
M  V30 2246 H 209.456 -3.97752 -0.404147 0
M  V30 2247 H 210.896 -3.98691 -1.44297 0
M  V30 2248 C 209.355 -2.64642 -2.08486 0
M  V30 2249 O 209.885 -2.46776 -3.16961 0
M  V30 2250 N 208.091 -2.23891 -1.8526 0
M  V30 2251 H 207.638 -2.38621 -0.970449 0
M  V30 2252 H 207.596 -1.78181 -2.59034 0
M  V30 2253 N 211.368 -0.403325 -1.52352 0
M  V30 2254 C 212.598 0.17376 -2.05868 0
M  V30 2255 C 213.006 1.39898 -1.27378 0
M  V30 2256 O 212.349 1.80939 -0.31729 0
M  V30 2257 C 212.411 0.594756 -3.54546 0
M  V30 2258 C 212.075 -0.518926 -4.54044 0
M  V30 2259 C 213.072 -1.3807 -5.01231 0
M  V30 2260 C 210.757 -0.689961 -4.97539 0
M  V30 2261 C 212.751 -2.39852 -5.90551 0
M  V30 2262 C 210.438 -1.71109 -5.86656 0
M  V30 2263 C 211.436 -2.56378 -6.33056 0
M  V30 2264 O 211.124 -3.56743 -7.20409 0
M  V30 2265 H 210.856 0.0264951 -0.675481 0
M  V30 2266 H 213.41 -0.571179 -1.97299 0
M  V30 2267 H 211.64 1.39189 -3.60782 0
M  V30 2268 H 213.329 1.0991 -3.90736 0
M  V30 2269 H 214.095 -1.25994 -4.68349 0
M  V30 2270 H 209.974 -0.035939 -4.60986 0
M  V30 2271 H 213.518 -3.06441 -6.26689 0
M  V30 2272 H 209.415 -1.83218 -6.18952 0
M  V30 2273 H 210.183 -3.52918 -7.38506 0
M  V30 2274 N 212.846 1.57033 -0.133567 0
M  V30 2275 C 213.776 2.1909 0.807567 0
M  V30 2276 C 214.757 1.13517 1.26681 0
M  V30 2277 O 215.942 1.41809 1.32679 0
M  V30 2278 C 213.072 2.80188 2.05212 0
M  V30 2279 C 212.026 3.91471 1.73015 0
M  V30 2280 C 211.352 4.39443 3.04622 0
M  V30 2281 C 212.652 5.12886 0.987168 0
M  V30 2282 H 214.346 2.97988 0.290403 0
M  V30 2283 H 211.892 1.43335 0.138239 0
M  V30 2284 H 213.845 3.22264 2.71521 0
M  V30 2285 H 212.569 1.98601 2.59278 0
M  V30 2286 H 211.228 3.49993 1.0909 0
M  V30 2287 H 210.876 3.54695 3.56651 0
M  V30 2288 H 210.576 5.14495 2.83847 0
M  V30 2289 H 212.1 4.8418 3.72024 0
M  V30 2290 H 213.514 5.51891 1.55208 0
M  V30 2291 H 211.911 5.93615 0.87985 0
M  V30 2292 H 212.981 4.84894 -0.0235286 0
M  V30 2293 N 214.325 -0.140222 1.56975 0
M  V30 2294 C 215.257 -1.19818 1.95388 0
M  V30 2295 C 216.27 -1.38816 0.850525 0
M  V30 2296 O 217.459 -1.38267 1.12891 0
M  V30 2297 C 214.559 -2.56189 2.21857 0
M  V30 2298 C 213.732 -2.58077 3.5315 0
M  V30 2299 C 212.791 -3.76037 3.6808 0
M  V30 2300 O 211.817 -3.60598 4.40406 0
M  V30 2301 N 213.019 -4.93763 3.05251 0
M  V30 2302 H 215.784 -0.871609 2.86746 0
M  V30 2303 H 213.345 -0.32972 1.58507 0
M  V30 2304 H 215.337 -3.33623 2.2908 0
M  V30 2305 H 213.907 -2.81111 1.36731 0
M  V30 2306 H 213.127 -1.6651 3.57307 0
M  V30 2307 H 214.415 -2.56377 4.39486 0
M  V30 2308 H 213.813 -5.09209 2.46419 0
M  V30 2309 H 212.37 -5.68949 3.18026 0
M  V30 2310 N 215.803 -1.52179 -0.40978 0
M  V30 2311 C 217.049 -1.67408 -1.15525 0
M  V30 2312 C 217.404 -0.398746 -1.88223 0
M  V30 2313 O 216.697 0.60678 -1.81738 0
M  V30 2314 C 216.891 -2.83428 -2.17723 0
M  V30 2315 C 216.72 -4.22121 -1.55061 0
M  V30 2316 C 215.49 -4.87657 -1.3236 0
M  V30 2317 C 217.688 -5.04248 -1.01185 0
M  V30 2318 N 215.67 -6.10387 -0.655834 0
M  V30 2319 C 217.041 -6.18209 -0.470963 0
M  V30 2320 C 219.096 -4.89583 -0.906252 0
M  V30 2321 C 217.799 -7.1911 0.165172 0
M  V30 2322 C 219.825 -5.90718 -0.28397 0
M  V30 2323 C 219.187 -7.03969 0.246243 0
M  V30 2324 H 215.286 -0.666251 -0.409431 0
M  V30 2325 H 217.87 -1.89482 -0.447729 0
M  V30 2326 H 216.041 -2.6297 -2.85834 0
M  V30 2327 H 217.773 -2.87697 -2.84627 0
M  V30 2328 H 214.528 -4.46007 -1.59294 0
M  V30 2329 H 214.952 -6.76153 -0.338596 0
M  V30 2330 H 219.594 -4.02253 -1.302 0
M  V30 2331 H 217.312 -8.06066 0.572986 0
M  V30 2332 H 220.898 -5.81443 -0.203792 0
M  V30 2333 H 219.778 -7.80886 0.720173 0
M  V30 2334 N 217.281 0.66697 -1.42791 0
M  V30 2335 C 218.211 1.79218 -1.49677 0
M  V30 2336 C 219.192 1.66405 -0.352623 0
M  V30 2337 O 220.377 1.85708 -0.567993 0
M  V30 2338 C 217.507 3.17565 -1.40605 0
M  V30 2339 C 216.461 3.45124 -2.53127 0
M  V30 2340 C 215.787 4.83127 -2.29112 0
M  V30 2341 C 217.087 3.41236 -3.95418 0
M  V30 2342 H 218.781 1.73713 -2.43853 0
M  V30 2343 H 216.327 0.83432 -1.17367 0
M  V30 2344 H 218.28 3.96022 -1.44029 0
M  V30 2345 H 217.004 3.23767 -0.429271 0
M  V30 2346 H 215.663 2.69031 -2.49034 0
M  V30 2347 H 215.311 4.85988 -1.29709 0
M  V30 2348 H 215.011 5.02528 -3.04531 0
M  V30 2349 H 216.535 5.63859 -2.34297 0
M  V30 2350 H 217.949 4.09651 -4.01073 0
M  V30 2351 H 216.346 3.72173 -4.70752 0
M  V30 2352 H 217.416 2.39665 -4.21532 0
M  V30 2353 N 218.759 1.29093 0.90403 0
M  V30 2354 C 219.987 1.19689 1.68766 0
M  V30 2355 C 220.402 -0.243113 1.87228 0
M  V30 2356 O 219.759 -1.16326 1.40621 0
M  V30 2357 C 219.81 1.90144 3.07453 0
M  V30 2358 O 219.531 3.2852 2.89838 0
M  V30 2359 C 221.032 1.87162 4.01852 0
M  V30 2360 H 218.252 0.415035 0.527244 0
M  V30 2361 H 220.796 1.7039 1.13082 0
M  V30 2362 H 218.951 1.43289 3.59926 0
M  V30 2363 H 219.365 3.63944 3.77684 0
M  V30 2364 H 220.839 2.41032 4.96596 0
M  V30 2365 H 221.316 0.84617 4.30972 0
M  V30 2366 H 221.922 2.33741 3.5531 0
M  V30 2367 N 220.237 -1.11381 1.11499 0
M  V30 2368 C 221.147 -2.21019 0.786628 0
M  V30 2369 C 222.163 -1.72597 -0.220507 0
M  V30 2370 O 223.339 -2.01321 -0.0565251 0
M  V30 2371 C 220.404 -3.459 0.235333 0
M  V30 2372 C 219.465 -4.09107 1.30115 0
M  V30 2373 C 218.698 -5.28027 0.776068 0
M  V30 2374 O 218.921 -5.6904 -0.393661 0
M  V30 2375 O 217.855 -5.81835 1.54114 0
M  V30 2376 H 221.681 -2.51521 1.70209 0
M  V30 2377 H 219.266 -1.19928 0.890928 0
M  V30 2378 H 221.148 -4.21346 -0.067715 0
M  V30 2379 H 219.823 -3.17049 -0.652828 0
M  V30 2380 H 218.73 -3.35391 1.65722 0
M  V30 2381 H 220.063 -4.42139 2.16273 0
M  V30 2382 N 221.715 -0.905404 -1.28997 0
M  V30 2383 C 223.131 -0.60233 -1.47798 0
M  V30 2384 C 223.331 0.854645 -1.82478 0
M  V30 2385 O 222.387 1.63439 -1.92468 0
M  V30 2386 C 223.7 -1.53306 -2.58685 0
M  V30 2387 C 225.248 -1.53887 -2.72558 0
M  V30 2388 C 225.723 -2.45602 -3.86579 0
M  V30 2389 N 227.214 -2.43681 -3.93921 0
M  V30 2390 C 227.949 -3.11347 -4.81509 0
M  V30 2391 N 227.445 -3.88313 -5.73746 0
M  V30 2392 N 229.238 -3.00476 -4.75048 0
M  V30 2393 H 221.389 -1.84765 -1.04764 0
M  V30 2394 H 223.652 -0.792025 -0.520961 0
M  V30 2395 H 223.358 -2.57141 -2.39941 0
M  V30 2396 H 223.232 -1.25787 -3.55609 0
M  V30 2397 H 225.619 -0.507941 -2.90696 0
M  V30 2398 H 225.7 -1.85447 -1.76191 0
M  V30 2399 H 225.344 -3.48792 -3.69197 0
M  V30 2400 H 225.274 -2.11349 -4.82327 0
M  V30 2401 H 227.765 -1.87767 -3.27951 0
M  V30 2402 H 228.078 -4.36985 -6.37389 0
M  V30 2403 H 226.423 -3.92419 -5.73614 0
M  V30 2404 H 229.614 -2.39858 -4.01977 0
M  V30 2405 H 229.787 -3.53485 -5.43095 0
M  V30 2406 N 223.193 1.4272 -0.668489 0
M  V30 2407 C 224.123 2.335 -0.000100175 0
M  V30 2408 C 225.104 1.50328 0.795964 0
M  V30 2409 O 226.289 1.78949 0.754385 0
M  V30 2410 C 223.419 3.33874 0.956302 0
M  V30 2411 C 222.373 4.27152 0.269278 0
M  V30 2412 C 221.699 5.17684 1.33818 0
M  V30 2413 C 222.999 5.15373 -0.847805 0
M  V30 2414 H 224.693 2.89639 -0.758244 0
M  V30 2415 H 222.239 1.39269 -0.366079 0
M  V30 2416 H 224.192 3.9629 1.43292 0
M  V30 2417 H 222.916 2.76025 1.74579 0
M  V30 2418 H 221.575 3.66123 -0.187042 0
M  V30 2419 H 221.223 4.56165 2.1195 0
M  V30 2420 H 220.923 5.80918 0.883659 0
M  V30 2421 H 222.447 5.82974 1.81586 0
M  V30 2422 H 223.861 5.7151 -0.452681 0
M  V30 2423 H 222.258 5.87407 -1.22773 0
M  V30 2424 H 223.328 4.5415 -1.69929 0
M  V30 2425 N 224.671 0.411399 1.52136 0
M  V30 2426 C 225.899 -0.163076 2.06256 0
M  V30 2427 C 226.314 -1.3867 1.28125 0
M  V30 2428 O 225.671 -1.79423 0.333721 0
M  V30 2429 C 225.722 -0.511252 3.57867 0
M  V30 2430 O 225.443 0.66378 4.33042 0
M  V30 2431 C 226.944 -1.13921 4.28412 0
M  V30 2432 H 224.164 -0.0193897 0.67072 0
M  V30 2433 H 226.708 0.583007 1.96013 0
M  V30 2434 H 224.863 -1.20723 3.6811 0
M  V30 2435 H 225.277 0.372601 5.23175 0
M  V30 2436 H 226.751 -1.33302 5.35663 0
M  V30 2437 H 227.228 -2.11296 3.85033 0
M  V30 2438 H 227.834 -0.483373 4.22544 0
M  V30 2439 N 226.149 -1.5696 0.141893 0
M  V30 2440 C 227.059 -2.20066 -0.812905 0
M  V30 2441 C 228.075 -1.18344 -1.27557 0
M  V30 2442 O 229.251 -1.50902 -1.33381 0
M  V30 2443 C 226.316 -2.80583 -2.03652 0
M  V30 2444 C 225.377 -3.97414 -1.62359 0
M  V30 2445 C 224.61 -4.55036 -2.78887 0
M  V30 2446 O 224.833 -4.11538 -3.94959 0
M  V30 2447 O 223.767 -5.45376 -2.54653 0
M  V30 2448 H 227.593 -3.02157 -0.305746 0
M  V30 2449 H 225.178 -1.49159 -0.0848799 0
M  V30 2450 H 227.06 -3.19067 -2.75272 0
M  V30 2451 H 225.735 -2.01508 -2.5333 0
M  V30 2452 H 224.642 -3.63656 -0.877775 0
M  V30 2453 H 225.975 -4.77994 -1.17401 0
M  V30 2454 N 227.627 0.131896 -1.57047 0
M  V30 2455 C 229.043 0.485031 -1.52051 0
M  V30 2456 C 229.243 1.82563 -0.85281 0
M  V30 2457 O 228.299 2.48817 -0.429694 0
M  V30 2458 C 229.612 0.481409 -2.96821 0
M  V30 2459 C 231.16 0.565868 -3.07842 0
M  V30 2460 C 231.635 0.592762 -4.54148 0
M  V30 2461 N 233.126 0.654564 -4.58552 0
M  V30 2462 C 233.861 0.696608 -5.69153 0
M  V30 2463 N 233.357 0.697078 -6.89284 0
M  V30 2464 N 235.15 0.738639 -5.57226 0
M  V30 2465 H 227.301 -0.746664 -1.98843 0
M  V30 2466 H 229.564 -0.273999 -0.90754 0
M  V30 2467 H 229.27 -0.435731 -3.4899 0
M  V30 2468 H 229.144 1.3139 -3.53577 0
M  V30 2469 H 231.531 1.47343 -2.55684 0
M  V30 2470 H 231.612 -0.29406 -2.54104 0
M  V30 2471 H 231.256 -0.310701 -5.06949 0
M  V30 2472 H 231.186 1.46939 -5.05684 0
M  V30 2473 H 233.677 0.660887 -3.72076 0
M  V30 2474 H 233.99 0.731426 -7.69331 0
M  V30 2475 H 232.335 0.66471 -6.91814 0
M  V30 2476 H 235.526 0.735545 -4.62285 0
M  V30 2477 H 235.699 0.767938 -6.43434 0
M  V30 2478 N 229.106 1.52395 0.401703 0
M  V30 2479 C 230.354 1.66488 1.14569 0
M  V30 2480 C 230.675 0.400897 1.90835 0
M  V30 2481 O 229.945 -0.584415 1.8698 0
M  V30 2482 H 228.525 0.613672 0.425929 0
M  V30 2483 H 231.187 1.89464 0.457093 0
M  V30 2484 H 230.283 2.50942 1.85566 0
M  V30 2485 N 230.584 -0.659388 1.43143 0
M  V30 2486 C 231.83 -1.42145 1.44647 0
M  V30 2487 C 232.163 -1.9408 0.0681907 0
M  V30 2488 O 231.438 -1.71899 -0.910007 0
M  V30 2489 C 231.721 -2.60735 2.48373 0
M  V30 2490 C 231.574 -2.14332 3.95451 0
M  V30 2491 C 232.893 -3.62951 2.48906 0
M  V30 2492 H 230.012 -0.51552 0.526696 0
M  V30 2493 H 232.654 -0.748069 1.74654 0
M  V30 2494 H 230.804 -3.18184 2.22916 0
M  V30 2495 H 232.476 -1.61932 4.31944 0
M  V30 2496 H 230.719 -1.4576 4.08578 0
M  V30 2497 H 231.39 -2.99583 4.63631 0
M  V30 2498 H 233.866 -3.1525 2.71582 0
M  V30 2499 H 232.742 -4.43487 3.23435 0
M  V30 2500 H 233.003 -4.15126 1.52061 0
M  V30 2501 N 232.062 -1.29571 -0.897171 0
M  V30 2502 C 233.009 -1.14916 -2.00158 0
M  V30 2503 C 233.979 -0.0418149 -1.66047 0
M  V30 2504 O 235.164 -0.209793 -1.89643 0
M  V30 2505 C 232.304 -0.834307 -3.34863 0
M  V30 2506 C 231.417 -2.02234 -3.8174 0
M  V30 2507 C 230.552 -1.64664 -5.05034 0
M  V30 2508 C 229.591 -2.80033 -5.44286 0
M  V30 2509 N 228.728 -2.42843 -6.58765 0
M  V30 2510 H 233.568 -2.09403 -2.12025 0
M  V30 2511 H 231.105 -1.042 -1.0383 0
M  V30 2512 H 233.063 -0.632436 -4.12379 0
M  V30 2513 H 231.693 0.0736656 -3.22716 0
M  V30 2514 H 230.745 -2.33583 -3.00238 0
M  V30 2515 H 232.057 -2.88673 -4.06779 0
M  V30 2516 H 231.211 -1.4078 -5.9014 0
M  V30 2517 H 229.95 -0.753766 -4.8184 0
M  V30 2518 H 228.955 -3.04596 -4.57713 0
M  V30 2519 H 230.18 -3.69989 -5.6946 0
M  V30 2520 H 228.126 -1.56046 -6.3717 0
M  V30 2521 H 228.043 -3.22815 -6.83613 0
M  V30 2522 H 229.311 -2.22285 -7.47134 0
M  V30 2523 N 233.54 1.10788 -1.12088 0
M  V30 2524 C 234.787 1.82671 -0.873931 0
M  V30 2525 C 235.115 1.85004 0.600311 0
M  V30 2526 O 234.37 1.30365 1.45957 0
M  V30 2527 C 234.669 3.29294 -1.38926 0
M  V30 2528 C 234.335 3.47113 -2.87791 0
M  V30 2529 C 232.997 3.51684 -3.28439 0
M  V30 2530 C 235.349 3.52808 -3.83635 0
M  V30 2531 C 232.677 3.59513 -4.63646 0
M  V30 2532 C 235.029 3.62169 -5.18668 0
M  V30 2533 C 233.693 3.65003 -5.58864 0
M  V30 2534 H 232.963 0.668441 -0.319794 0
M  V30 2535 H 235.61 1.30613 -1.40045 0
M  V30 2536 H 233.915 3.83894 -0.783122 0
M  V30 2537 H 235.612 3.83416 -1.17443 0
M  V30 2538 H 232.202 3.4423 -2.5535 0
M  V30 2539 H 236.386 3.4853 -3.53328 0
M  V30 2540 H 231.642 3.59987 -4.94185 0
M  V30 2541 H 235.816 3.6552 -5.92763 0
M  V30 2542 H 233.443 3.70822 -6.63623 0
M  V30 2543 N 235.018 0.912232 1.28515 0
M  V30 2544 C 236.265 0.544599 1.95039 0
M  V30 2545 C 236.593 -0.911435 1.71823 0
M  V30 2546 O 235.848 -1.66317 1.03137 0
M  V30 2547 C 236.147 0.798392 3.48368 0
M  V30 2548 C 235.813 2.23374 3.91682 0
M  V30 2549 C 234.475 2.62617 4.03219 0
M  V30 2550 C 236.827 3.16786 4.13879 0
M  V30 2551 C 234.155 3.94429 4.3433 0
M  V30 2552 C 236.507 4.48161 4.46469 0
M  V30 2553 C 235.171 4.8726 4.56217 0
M  V30 2554 H 234.441 0.199283 0.7137 0
M  V30 2555 H 237.088 1.15327 1.52879 0
M  V30 2556 H 235.393 0.106908 3.91654 0
M  V30 2557 H 237.09 0.493141 3.97956 0
M  V30 2558 H 233.68 1.91922 3.83228 0
M  V30 2559 H 237.864 2.87677 4.0442 0
M  V30 2560 H 233.12 4.24426 4.40082 0
M  V30 2561 H 237.294 5.20559 4.62592 0
M  V30 2562 H 234.921 5.89431 4.80078 0
M  V30 2563 N 236.496 -1.42363 0.676048 0
M  V30 2564 C 237.428 -2.29164 -0.0404605 0
M  V30 2565 C 238.441 -1.43747 -0.764245 0
M  V30 2566 O 239.63 -1.67453 -0.618195 0
M  V30 2567 C 236.73 -3.21196 -1.08103 0
M  V30 2568 C 235.903 -4.35273 -0.430812 0
M  V30 2569 C 234.962 -5.08017 -1.37133 0
M  V30 2570 O 233.988 -5.62494 -0.87116 0
M  V30 2571 N 235.19 -5.13647 -2.70456 0
M  V30 2572 H 237.955 -2.91298 0.704667 0
M  V30 2573 H 235.516 -1.53303 0.520559 0
M  V30 2574 H 237.508 -3.66728 -1.71152 0
M  V30 2575 H 236.078 -2.60505 -1.72788 0
M  V30 2576 H 235.298 -3.92372 0.379209 0
M  V30 2577 H 236.586 -5.08795 0.0221132 0
M  V30 2578 H 235.984 -4.708 -3.1363 0
M  V30 2579 H 234.541 -5.62821 -3.28749 0
M  V30 2580 N 237.974 -0.419461 -1.51915 0
M  V30 2581 C 239.39 -0.0708431 -1.59443 0
M  V30 2582 C 239.59 1.41796 -1.43164 0
M  V30 2583 O 238.646 2.18596 -1.26381 0
M  V30 2584 C 239.959 -0.574991 -2.95151 0
M  V30 2585 C 241.507 -0.533867 -3.08413 0
M  V30 2586 C 241.982 -1.01469 -4.46618 0
M  V30 2587 N 243.473 -0.971939 -4.52888 0
M  V30 2588 C 244.208 -1.31505 -5.58116 0
M  V30 2589 N 243.704 -1.73014 -6.70849 0
M  V30 2590 N 245.497 -1.23436 -5.48379 0
M  V30 2591 H 237.648 -1.38836 -1.60743 0
M  V30 2592 H 239.911 -0.570998 -0.756747 0
M  V30 2593 H 239.617 -1.61597 -3.12377 0
M  V30 2594 H 239.491 0.00979777 -3.77199 0
M  V30 2595 H 241.878 0.498086 -2.90866 0
M  V30 2596 H 241.959 -1.15484 -2.28248 0
M  V30 2597 H 241.603 -2.04502 -4.6491 0
M  V30 2598 H 241.533 -0.370433 -5.25295 0
M  V30 2599 H 244.024 -0.666893 -3.71969 0
M  V30 2600 H 244.337 -1.97479 -7.47143 0
M  V30 2601 H 242.682 -1.76926 -6.72103 0
M  V30 2602 H 245.873 -0.908869 -4.59192 0
M  V30 2603 H 246.046 -1.50506 -6.30279 0
M  V30 2604 N 239.452 1.56882 -0.150215 0
M  V30 2605 C 240.399 2.16922 0.788244 0
M  V30 2606 C 241.369 1.10303 1.24187 0
M  V30 2607 O 242.554 1.38359 1.31383 0
M  V30 2608 C 239.694 2.79754 2.02068 0
M  V30 2609 C 238.807 4.00775 1.61257 0
M  V30 2610 C 237.942 4.51595 2.79705 0
M  V30 2611 C 236.981 5.65074 2.35282 0
M  V30 2612 N 236.118 6.10499 3.4675 0
M  V30 2613 H 240.958 2.96779 0.269444 0
M  V30 2614 H 238.495 1.46599 0.12128 0
M  V30 2615 H 240.453 3.14329 2.74323 0
M  V30 2616 H 239.083 2.02536 2.51354 0
M  V30 2617 H 238.135 3.72158 0.787553 0
M  V30 2618 H 239.447 4.82978 1.24633 0
M  V30 2619 H 238.601 4.88242 3.60145 0
M  V30 2620 H 237.34 3.68406 3.19576 0
M  V30 2621 H 236.345 5.28 1.53283 0
M  V30 2622 H 237.57 6.50052 1.96493 0
M  V30 2623 H 235.516 5.30243 3.86236 0
M  V30 2624 H 235.433 6.87637 3.14152 0
M  V30 2625 H 236.701 6.51791 4.27537 0
M  V30 2626 N 240.93 -0.123565 1.57115 0
M  V30 2627 C 242.176 -0.833386 1.84885 0
M  V30 2628 C 242.509 -1.79742 0.735292 0
M  V30 2629 O 241.784 -1.92764 -0.25925 0
M  V30 2630 C 242.067 -1.5873 3.23228 0
M  V30 2631 C 241.92 -0.643183 4.45178 0
M  V30 2632 C 243.239 -2.54453 3.59085 0
M  V30 2633 H 240.358 -0.301518 0.6725 0
M  V30 2634 H 243 -0.097778 1.89748 0
M  V30 2635 H 241.15 -2.21438 3.19214 0
M  V30 2636 H 242.822 -0.0253015 4.61293 0
M  V30 2637 H 241.065 0.0456139 4.33776 0
M  V30 2638 H 241.736 -1.20724 5.38637 0
M  V30 2639 H 244.212 -2.01853 3.63861 0
M  V30 2640 H 243.088 -3.04238 4.5687 0
M  V30 2641 H 243.349 -3.36906 2.86264 0
M  V30 2642 N 242.408 -1.52605 -0.393616 0
M  V30 2643 C 243.318 -1.79971 -1.50492 0
M  V30 2644 C 244.334 -0.686181 -1.59899 0
M  V30 2645 O 245.51 -0.973274 -1.76322 0
M  V30 2646 C 242.575 -1.95867 -2.86072 0
M  V30 2647 C 241.636 -3.19781 -2.86424 0
M  V30 2648 C 240.869 -3.34909 -4.15538 0
M  V30 2649 O 241.092 -2.54948 -5.10253 0
M  V30 2650 O 240.026 -4.28141 -4.23059 0
M  V30 2651 H 243.852 -2.74328 -1.30299 0
M  V30 2652 H 241.437 -1.3764 -0.581005 0
M  V30 2653 H 243.319 -2.08056 -3.66457 0
M  V30 2654 H 241.994 -1.04699 -3.063 0
M  V30 2655 H 240.901 -3.13038 -2.04837 0
M  V30 2656 H 242.234 -4.1078 -2.71147 0
M  V30 2657 N 243.887 0.651787 -1.4349 0
M  V30 2658 C 245.112 1.44434 -1.48841 0
M  V30 2659 C 245.537 1.8779 -0.107955 0
M  V30 2660 O 244.895 1.57464 0.898602 0
M  V30 2661 C 244.943 2.65458 -2.44059 0
M  V30 2662 O 244.047 3.64566 -1.92784 0
M  V30 2663 H 243.388 0.433005 -0.503391 0
M  V30 2664 H 245.918 0.797451 -1.88419 0
M  V30 2665 H 245.928 3.13255 -2.6141 0
M  V30 2666 H 244.603 2.33244 -3.4434 0
M  V30 2667 H 243.18 3.23716 -1.851 0
M  V30 2668 N 245.365 1.30045 0.890287 0
M  V30 2669 C 246.612 1.18561 1.64163 0
M  V30 2670 C 246.94 -0.260852 1.92743 0
M  V30 2671 O 246.195 -1.20376 1.54299 0
M  V30 2672 C 246.494 1.95409 2.99249 0
M  V30 2673 C 246.16 3.45066 2.90242 0
M  V30 2674 C 244.822 3.85878 2.87492 0
M  V30 2675 C 247.174 4.4039 2.78758 0
M  V30 2676 C 244.502 5.20314 2.7109 0
M  V30 2677 C 246.854 5.74928 2.63894 0
M  V30 2678 C 245.518 6.14986 2.59516 0
M  V30 2679 H 244.788 0.433846 0.600715 0
M  V30 2680 H 247.435 1.61088 1.03552 0
M  V30 2681 H 245.74 1.45501 3.63781 0
M  V30 2682 H 247.437 1.8392 3.56334 0
M  V30 2683 H 244.027 3.12631 2.93189 0
M  V30 2684 H 248.211 4.09806 2.79952 0
M  V30 2685 H 243.467 5.50449 2.66112 0
M  V30 2686 H 247.641 6.48434 2.53981 0
M  V30 2687 H 245.268 7.19104 2.46565 0
M  V30 2688 N 246.843 -1.10192 1.12674 0
M  V30 2689 C 247.753 -2.20172 0.810026 0
M  V30 2690 C 248.769 -1.72821 -0.202188 0
M  V30 2691 O 249.945 -2.01369 -0.0351691 0
M  V30 2692 C 247.01 -3.45631 0.272007 0
M  V30 2693 C 246.071 -4.07704 1.34447 0
M  V30 2694 C 245.304 -5.27175 0.832029 0
M  V30 2695 O 245.527 -5.69425 -0.333284 0
M  V30 2696 O 244.461 -5.80168 1.60277 0
M  V30 2697 H 248.287 -2.49701 1.72867 0
M  V30 2698 H 245.872 -1.18977 0.903597 0
M  V30 2699 H 247.754 -4.21394 -0.0230219 0
M  V30 2700 H 246.429 -3.17723 -0.619164 0
M  V30 2701 H 245.336 -3.33614 1.6927 0
M  V30 2702 H 246.669 -4.3982 2.2095 0
M  V30 2703 N 248.321 -0.919034 -1.28029 0
M  V30 2704 C 249.231 -0.416756 -2.30869 0
M  V30 2705 C 250.247 0.498235 -1.66714 0
M  V30 2706 O 251.423 0.383144 -1.97722 0
M  V30 2707 C 248.488 0.330274 -3.45123 0
M  V30 2708 C 247.549 -0.618578 -4.2482 0
M  V30 2709 C 246.782 0.0928959 -5.33619 0
M  V30 2710 O 247.005 1.31375 -5.55065 0
M  V30 2711 O 245.939 -0.574499 -5.99152 0
M  V30 2712 H 249.765 -1.27043 -2.75851 0
M  V30 2713 H 247.35 -0.684052 -1.3282 0
M  V30 2714 H 249.232 0.751972 -4.14636 0
M  V30 2715 H 247.907 1.1597 -3.02213 0
M  V30 2716 H 246.814 -1.08978 -3.57875 0
M  V30 2717 H 248.147 -1.41497 -4.71423 0
M  V30 2718 N 249.799 1.42003 -0.683588 0
M  V30 2719 C 251.045 2.01712 -0.209825 0
M  V30 2720 C 251.378 1.53968 1.18353 0
M  V30 2721 O 250.653 0.745661 1.79639 0
M  V30 2722 C 250.936 3.59202 -0.254197 0
M  V30 2723 C 250.789 4.17102 -1.68363 0
M  V30 2724 C 252.108 4.38344 0.392709 0
M  V30 2725 H 249.227 0.732891 -0.0777189 0
M  V30 2726 H 251.869 1.68909 -0.87004 0
M  V30 2727 H 250.019 3.87278 0.307954 0
M  V30 2728 H 251.691 3.99946 -2.29871 0
M  V30 2729 H 249.934 3.72597 -2.22157 0
M  V30 2730 H 250.605 5.26249 -1.6663 0
M  V30 2731 H 253.081 4.16011 -0.0859162 0
M  V30 2732 H 251.957 5.47901 0.331063 0
M  V30 2733 H 252.218 4.16887 1.47164 0
M  V30 2734 N 251.277 0.427512 1.51691 0
M  V30 2735 C 252.24 -0.377132 2.26076 0
M  V30 2736 C 253.24 -0.958089 1.29141 0
M  V30 2737 O 254.43 -0.83408 1.52934 0
M  V30 2738 C 251.562 -1.53262 3.04506 0
M  V30 2739 H 252.755 0.27464 2.9864 0
M  V30 2740 H 250.308 0.180445 1.55255 0
M  V30 2741 H 251.043 -2.22072 2.36335 0
M  V30 2742 H 250.828 -1.12232 3.75694 0
M  V30 2743 H 252.318 -2.10135 3.60878 0
M  V30 2744 N 252.755 -1.56801 0.158532 0
M  V30 2745 C 254.171 -1.5837 -0.197774 0
M  V30 2746 C 254.371 -1.17334 -1.63814 0
M  V30 2747 O 253.427 -0.878988 -2.36707 0
M  V30 2748 C 254.74 -3.00615 0.0714459 0
M  V30 2749 C 256.288 -3.12999 0.00864533 0
M  V30 2750 C 256.763 -4.57313 0.250685 0
M  V30 2751 N 258.254 -4.62777 0.198014 0
M  V30 2752 C 258.989 -5.72271 0.359642 0
M  V30 2753 N 258.485 -6.90371 0.579625 0
M  V30 2754 N 260.278 -5.61318 0.296438 0
M  V30 2755 H 252.429 -1.81765 1.09887 0
M  V30 2756 H 254.692 -0.841849 0.435884 0
M  V30 2757 H 254.398 -3.35068 1.06874 0
M  V30 2758 H 254.272 -3.71683 -0.642757 0
M  V30 2759 H 256.659 -2.7838 -0.979217 0
M  V30 2760 H 256.74 -2.44393 0.755359 0
M  V30 2761 H 256.384 -4.92639 1.2357 0
M  V30 2762 H 256.314 -5.24061 -0.516489 0
M  V30 2763 H 258.805 -3.77885 0.0331115 0
M  V30 2764 H 259.118 -7.69689 0.69275 0
M  V30 2765 H 257.463 -6.92264 0.616087 0
M  V30 2766 H 260.654 -4.67932 0.125258 0
M  V30 2767 H 260.827 -6.46599 0.425831 0
M  V30 2768 N 254.233 0.115231 -1.57178 0
M  V30 2769 C 255.143 1.15994 -2.03918 0
M  V30 2770 C 256.159 1.45103 -0.960268 0
M  V30 2771 O 257.335 1.56144 -1.27204 0
M  V30 2772 C 254.4 2.46568 -2.43732 0
M  V30 2773 C 253.461 2.24822 -3.65723 0
M  V30 2774 C 252.694 3.4917 -4.03629 0
M  V30 2775 O 252.917 4.56623 -3.41835 0
M  V30 2776 O 251.851 3.39949 -4.96708 0
M  V30 2777 H 255.677 0.793019 -2.93164 0
M  V30 2778 H 253.262 0.3263 -1.45793 0
M  V30 2779 H 255.144 3.23492 -2.70057 0
M  V30 2780 H 253.819 2.82726 -1.57631 0
M  V30 2781 H 252.726 1.45744 -3.44542 0
M  V30 2782 H 254.059 1.93566 -4.52541 0
M  V30 2783 N 255.711 1.52812 0.385517 0
M  V30 2784 C 256.959 1.67694 1.12797 0
M  V30 2785 C 257.28 0.421115 1.90399 0
M  V30 2786 O 256.55 -0.564551 1.87589 0
M  V30 2787 H 255.13 0.618155 0.419396 0
M  V30 2788 H 257.792 1.89938 0.436972 0
M  V30 2789 H 256.888 2.52896 1.82894 0
M  V30 2790 N 257.189 -0.644168 1.43834 0
M  V30 2791 C 258.152 -1.73857 1.49353 0
M  V30 2792 C 259.152 -1.56315 0.377112 0
M  V30 2793 O 260.342 -1.62048 0.639226 0
M  V30 2794 C 257.474 -3.12819 1.35488 0
M  V30 2795 H 258.667 -1.70342 2.46827 0
M  V30 2796 H 256.22 -0.856652 1.30733 0
M  V30 2797 H 256.955 -3.2194 0.390569 0
M  V30 2798 H 256.74 -3.26958 2.16428 0
M  V30 2799 H 258.23 -3.92606 1.42302 0
M  V30 2800 N 258.668 -1.30515 -0.883378 0
M  V30 2801 C 259.945 -1.10086 -1.6168 0
M  V30 2802 C 260.325 0.349269 -2.08191 0
M  V30 2803 O 259.673 1.34105 -1.85008 0
M  V30 2804 C 259.883 -2.10315 -2.78511 0
M  V30 2805 C 261.231 -2.42119 -3.48803 0
M  V30 2806 O 262.255 -2.08638 -2.88702 0
M  V30 2807 O 261.114 -2.99396 -4.57192 0
M  V30 2808 H 258.208 -0.422907 -0.710689 0
M  V30 2809 H 260.754 -1.41947 -0.930015 0
M  V30 2810 H 259.526 -3.07917 -2.41459 0
M  V30 2811 H 259.149 -1.79282 -3.54886 0
M  V30 2812 N 260.146 1.09593 -1.13257 0
M  V30 2813 C 261.392 1.82003 -0.89458 0
M  V30 2814 C 261.725 1.85402 0.577906 0
M  V30 2815 O 261 1.32099 1.42759 0
M  V30 2816 C 261.283 3.28237 -1.48096 0
M  V30 2817 C 261.136 3.3312 -3.02244 0
M  V30 2818 C 262.455 4.24871 -1.14774 0
M  V30 2819 H 259.574 0.66077 -0.326424 0
M  V30 2820 H 262.216 1.28389 -1.40058 0
M  V30 2821 H 260.366 3.74024 -1.05062 0
M  V30 2822 H 262.038 2.95748 -3.54021 0
M  V30 2823 H 260.281 2.72756 -3.37323 0
M  V30 2824 H 260.952 4.3613 -3.38371 0
M  V30 2825 H 263.428 3.87361 -1.51957 0
M  V30 2826 H 262.304 5.25532 -1.58452 0
M  V30 2827 H 262.565 4.42058 -0.0611849 0
M  V30 2828 N 261.624 0.925811 1.2754 0
M  V30 2829 C 262.873 0.561084 1.93739 0
M  V30 2830 C 263.186 -0.901685 1.73577 0
M  V30 2831 O 264.392 -1.37511 2.34101 0
M  V30 2832 C 262.848 0.952668 3.47062 0
M  V30 2833 C 262.456 2.43599 3.75983 0
M  V30 2834 C 264.2 0.659103 4.19352 0
M  V30 2835 C 262.107 2.76707 5.22673 0
M  V30 2836 H 261.037 0.206122 0.725279 0
M  V30 2837 H 263.688 1.12637 1.44863 0
M  V30 2838 H 262.07 0.316053 3.94737 0
M  V30 2839 H 263.244 3.12035 3.39073 0
M  V30 2840 H 261.559 2.70125 3.16893 0
M  V30 2841 H 264.156 0.882985 5.27359 0
M  V30 2842 H 264.499 -0.403607 4.14339 0
M  V30 2843 H 265.032 1.25473 3.77494 0
M  V30 2844 H 261.771 3.8188 5.32774 0
M  V30 2845 H 261.291 2.12919 5.60737 0
M  V30 2846 H 262.97 2.6435 5.90532 0
M  V30 2847 N 263.102 -1.41638 0.69111 0
M  V30 2848 C 264.348 -2.01598 0.220519 0
M  V30 2849 C 264.681 -1.54594 -1.17535 0
M  V30 2850 O 263.956 -0.755177 -1.79241 0
M  V30 2851 C 264.239 -3.59062 0.273243 0
M  V30 2852 C 264.092 -4.16203 1.70573 0
M  V30 2853 C 265.411 -4.38546 -0.369457 0
M  V30 2854 H 262.53 -0.732468 0.0816045 0
M  V30 2855 H 265.172 -1.68445 0.878986 0
M  V30 2856 H 263.322 -3.87435 -0.287411 0
M  V30 2857 H 264.994 -3.98722 2.31989 0
M  V30 2858 H 263.237 -3.71414 2.2413 0
M  V30 2859 H 263.908 -5.25358 1.69419 0
M  V30 2860 H 266.384 -4.1596 0.107977 0
M  V30 2861 H 265.26 -5.48069 -0.302002 0
M  V30 2862 H 265.521 -4.17662 -1.44951 0
M  V30 2863 N 264.58 -0.43555 -1.51462 0
M  V30 2864 C 265.528 0.391205 -2.29287 0
M  V30 2865 C 266.522 1.02247 -1.35062 0
M  V30 2866 O 267.728 0.957646 -1.52411 0
M  V30 2867 H 264.103 0.144968 -0.737895 0
M  V30 2868 H 266.074 -0.286051 -2.97026 0
M  V30 2869 C 264.823 1.48096 -3.14583 0
M  V30 2870 H 264.146 1.00457 -3.86973 0
M  V30 2871 H 265.586 2.03273 -3.72097 0
M  V30 2872 C 264.045 2.46321 -2.29843 0
M  V30 2873 O 264.575 3.50815 -1.95682 0
M  V30 2874 N 262.781 2.17166 -1.931 0
M  V30 2875 H 262.328 1.32218 -2.21079 0
M  V30 2876 H 262.286 2.83127 -1.36698 0
M  V30 2877 N 266.058 1.56714 -0.166846 0
M  V30 2878 C 267.298 1.98641 0.481763 0
M  V30 2879 C 267.662 1.05038 1.6072 0
M  V30 2880 O 268.863 1.36087 2.31805 0
M  V30 2881 C 267.134 3.44362 0.956517 0
M  V30 2882 S 268.693 4.08317 1.60694 0
M  V30 2883 H 265.511 0.693873 0.155116 0
M  V30 2884 H 268.113 1.93719 -0.263251 0
M  V30 2885 H 266.817 4.10204 0.126936 0
M  V30 2886 H 266.348 3.53041 1.73568 0
M  V30 2887 H 268.363 4.02999 2.89494 0
M  V30 2888 N 267.536 -0.106894 1.57237 0
M  V30 2889 C 268.764 -0.826389 1.8968 0
M  V30 2890 C 269.179 -1.72856 0.759353 0
M  V30 2891 O 268.536 -1.80503 -0.269263 0
M  V30 2892 C 268.587 -1.64967 3.21665 0
M  V30 2893 O 268.308 -0.783804 4.31031 0
M  V30 2894 C 269.809 -2.47326 3.67892 0
M  V30 2895 H 267.029 -0.236927 0.627779 0
M  V30 2896 H 269.573 -0.0876593 2.04312 0
M  V30 2897 H 267.728 -2.34103 3.08666 0
M  V30 2898 H 268.142 -1.35284 5.06753 0
M  V30 2899 H 269.616 -3.00604 4.6297 0
M  V30 2900 H 270.093 -3.25247 2.95146 0
M  V30 2901 H 270.699 -1.83411 3.83719 0
M  V30 2902 N 269.014 -1.53014 -0.377408 0
M  V30 2903 C 270.262 -1.6829 -1.11906 0
M  V30 2904 C 270.583 -0.431206 -1.90173 0
M  V30 2905 O 269.853 0.554595 -1.87886 0
M  V30 2906 H 268.433 -0.620371 -0.416112 0
M  V30 2907 H 271.095 -1.90167 -0.426893 0
M  V30 2908 H 270.191 -2.53862 -1.8155 0
M  V30 2909 N 270.492 0.636531 -1.44174 0
M  V30 2910 C 271.738 1.39826 -1.4689 0
M  V30 2911 C 272.071 1.93947 -0.0990585 0
M  V30 2912 O 271.346 1.73325 0.882544 0
M  V30 2913 C 271.629 2.56751 -2.5249 0
M  V30 2914 C 271.482 2.08014 -3.98811 0
M  V30 2915 C 272.801 3.58946 -2.54649 0
M  V30 2916 H 269.92 0.507075 -0.53483 0
M  V30 2917 H 272.562 0.720188 -1.75822 0
M  V30 2918 H 270.712 3.14597 -2.2795 0
M  V30 2919 H 272.384 1.5504 -4.34466 0
M  V30 2920 H 270.627 1.39242 -4.10846 0
M  V30 2921 H 271.298 2.92169 -4.68339 0
M  V30 2922 H 273.774 3.1089 -2.76563 0
M  V30 2923 H 272.65 4.38286 -3.3045 0
M  V30 2924 H 272.911 4.12655 -1.58646 0
M  V30 2925 N 271.97 1.30982 0.876444 0
M  V30 2926 C 273.216 1.21484 1.63136 0
M  V30 2927 C 273.571 -0.226339 1.91064 0
M  V30 2928 O 272.864 -1.15788 1.52656 0
M  V30 2929 C 273.058 1.98572 2.9716 0
M  V30 2930 C 272.887 3.50039 2.82317 0
M  V30 2931 C 271.657 4.19393 2.81847 0
M  V30 2932 C 273.855 4.45111 2.57644 0
M  V30 2933 N 271.837 5.57061 2.57985 0
M  V30 2934 C 273.208 5.70402 2.42986 0
M  V30 2935 C 275.263 4.3461 2.42937 0
M  V30 2936 C 273.966 6.8638 2.15115 0
M  V30 2937 C 275.992 5.50365 2.16454 0
M  V30 2938 C 275.354 6.74642 2.02578 0
M  V30 2939 H 271.453 0.499632 0.601575 0
M  V30 2940 H 274.037 1.65094 1.03209 0
M  V30 2941 H 272.208 1.5734 3.55104 0
M  V30 2942 H 273.94 1.81146 3.61895 0
M  V30 2943 H 270.695 3.71303 2.93991 0
M  V30 2944 H 271.119 6.29529 2.49043 0
M  V30 2945 H 275.761 3.39199 2.52396 0
M  V30 2946 H 273.479 7.81824 2.04394 0
M  V30 2947 H 277.065 5.44154 2.05884 0
M  V30 2948 H 275.945 7.62699 1.82374 0
M  V30 2949 N 273.449 -1.08991 1.13837 0
M  V30 2950 C 274.412 -2.13925 0.822715 0
M  V30 2951 C 275.412 -1.599 -0.1699 0
M  V30 2952 O 276.602 -1.74104 0.0577251 0
M  V30 2953 C 273.734 -3.40155 0.225318 0
M  V30 2954 H 274.927 -2.43358 1.75262 0
M  V30 2955 H 272.48 -1.24603 0.943594 0
M  V30 2956 H 273.215 -3.16352 -0.713594 0
M  V30 2957 H 273 -3.80661 0.940193 0
M  V30 2958 H 274.49 -4.17594 0.0214784 0
M  V30 2959 N 274.927 -0.932562 -1.27047 0
M  V30 2960 C 276.175 -0.574422 -1.93765 0
M  V30 2961 C 276.496 0.887993 -1.73608 0
M  V30 2962 O 275.766 1.62999 -1.08665 0
M  V30 2963 H 274.346 -0.209451 -0.717035 0
M  V30 2964 H 277.008 -1.18601 -1.5466 0
M  V30 2965 H 276.104 -0.784841 -3.02071 0
M  V30 2966 N 276.405 1.4127 -0.698611 0
M  V30 2967 C 277.368 2.29158 -0.044132 0
M  V30 2968 C 278.368 1.44529 0.704841 0
M  V30 2969 O 279.558 1.65643 0.539276 0
M  V30 2970 C 276.69 3.27459 0.947809 0
M  V30 2971 H 277.883 2.88529 -0.817994 0
M  V30 2972 H 275.436 1.49307 -0.46228 0
M  V30 2973 H 276.171 2.73073 1.74933 0
M  V30 2974 H 275.956 3.8991 0.41385 0
M  V30 2975 H 277.446 3.93311 1.40344 0
M  V30 2976 N 277.883 0.443576 1.51229 0
M  V30 2977 C 278.813 -0.355142 2.30783 0
M  V30 2978 C 279.794 -1.0154 1.36468 0
M  V30 2979 O 280.979 -1.01785 1.65389 0
M  V30 2980 C 278.109 -1.45312 3.15439 0
M  V30 2981 C 277.063 -0.916002 4.18083 0
M  V30 2982 C 276.389 -2.1102 4.91299 0
M  V30 2983 C 277.689 0.0538602 5.22272 0
M  V30 2984 H 279.383 0.308767 2.97804 0
M  V30 2985 H 276.929 0.149937 1.43217 0
M  V30 2986 H 278.882 -2.01914 3.69876 0
M  V30 2987 H 277.606 -2.14541 2.46252 0
M  V30 2988 H 276.265 -0.372145 3.64706 0
M  V30 2989 H 275.913 -2.78882 4.18609 0
M  V30 2990 H 275.613 -1.75717 5.60712 0
M  V30 2991 H 277.137 -2.68164 5.48562 0
M  V30 2992 H 278.551 -0.422069 5.71744 0
M  V30 2993 H 276.948 0.319776 5.99247 0
M  V30 2994 H 278.018 0.98858 4.74716 0
M  V30 2995 N 279.361 -1.56624 0.175154 0
M  V30 2996 C 280.293 -2.15333 -0.785128 0
M  V30 2997 C 281.306 -1.1099 -1.19101 0
M  V30 2998 O 282.495 -1.38162 -1.13019 0
M  V30 2999 C 279.595 -2.68427 -2.06882 0
M  V30 3000 C 278.768 -3.97466 -1.8259 0
M  V30 3001 C 277.827 -4.35585 -2.95215 0
M  V30 3002 O 276.853 -5.03389 -2.65684 0
M  V30 3003 N 278.055 -3.97457 -4.23094 0
M  V30 3004 H 280.82 -2.98359 -0.283187 0
M  V30 3005 H 278.381 -1.61898 -0.00749817 0
M  V30 3006 H 280.373 -2.90924 -2.81328 0
M  V30 3007 H 278.943 -1.89968 -2.48256 0
M  V30 3008 H 278.163 -3.83307 -0.920287 0
M  V30 3009 H 279.451 -4.81736 -1.63733 0
M  V30 3010 H 278.849 -3.42878 -4.49945 0
M  V30 3011 H 277.406 -4.24947 -4.9423 0
M  V30 3012 N 280.839 0.0985539 -1.57292 0
M  V30 3013 C 282.255 0.45267 -1.53046 0
M  V30 3014 C 282.455 1.80713 -0.891342 0
M  V30 3015 O 281.511 2.4785 -0.482375 0
M  V30 3016 C 282.824 0.418341 -2.97776 0
M  V30 3017 C 284.372 0.500443 -3.08973 0
M  V30 3018 C 284.847 0.496297 -4.55303 0
M  V30 3019 N 286.338 0.557151 -4.59837 0
M  V30 3020 C 287.073 0.575726 -5.70502 0
M  V30 3021 N 286.569 0.550714 -6.90608 0
M  V30 3022 N 288.362 0.620277 -5.58667 0
M  V30 3023 H 280.513 -0.788673 -1.97215 0
M  V30 3024 H 282.776 -0.293188 -0.901524 0
M  V30 3025 H 282.482 -0.509659 -3.47988 0
M  V30 3026 H 282.356 1.2386 -3.56284 0
M  V30 3027 H 284.743 1.41886 -2.58751 0
M  V30 3028 H 284.824 -0.347894 -2.53423 0
M  V30 3029 H 284.468 -0.418162 -5.06176 0
M  V30 3030 H 284.398 1.3618 -5.08687 0
M  V30 3031 H 286.889 0.581816 -3.73394 0
M  V30 3032 H 287.202 0.568075 -7.70709 0
M  V30 3033 H 285.547 0.517816 -6.93068 0
M  V30 3034 H 288.738 0.637322 -4.63741 0
M  V30 3035 H 288.911 0.631283 -6.44918 0
M  V30 3036 N 282.317 1.53212 0.369288 0
M  V30 3037 C 283.594 1.59815 1.12776 0
M  V30 3038 C 283.974 0.403402 2.0721 0
M  V30 3039 O 283.322 -0.606667 2.20299 0
M  V30 3040 C 283.532 2.94664 1.87013 0
M  V30 3041 C 284.88 3.49109 2.41677 0
M  V30 3042 O 285.904 2.96669 1.97144 0
M  V30 3043 O 284.763 4.40775 3.23079 0
M  V30 3044 H 281.857 0.645376 0.517125 0
M  V30 3045 H 284.403 1.65553 0.37285 0
M  V30 3046 H 283.175 3.73061 1.18071 0
M  V30 3047 H 282.798 2.92401 2.69421 0
M  V30 3048 N 283.795 -0.628877 1.44509 0
M  V30 3049 C 285.206 -1.21054 1.42137 0
M  V30 3050 C 285.557 -1.95715 0.137881 0
M  V30 3051 O 284.682 -2.02554 -0.761645 0
M  V30 3052 C 285.277 -2.20189 2.57493 0
M  V30 3053 C 283.836 -2.73777 2.58308 0
M  V30 3054 C 282.983 -1.48813 2.33987 0
M  V30 3055 H 285.934 -0.41942 1.53057 0
M  V30 3056 H 285.955 -3.02833 2.30375 0
M  V30 3057 H 285.467 -1.6582 3.50892 0
M  V30 3058 H 283.568 -3.32142 1.68856 0
M  V30 3059 H 283.681 -3.19662 3.56865 0
M  V30 3060 H 282.045 -1.77024 1.83124 0
M  V30 3061 H 282.828 -0.963442 3.29504 0
M  V30 3062 N 285.273 -1.31445 -0.869486 0
M  V30 3063 C 286.203 -1.21727 -1.99261 0
M  V30 3064 C 287.184 -0.104359 -1.6978 0
M  V30 3065 O 288.369 -0.289038 -1.92037 0
M  V30 3066 C 285.499 -0.924317 -3.34774 0
M  V30 3067 C 284.453 -1.99685 -3.78563 0
M  V30 3068 C 283.779 -1.55658 -5.11541 0
M  V30 3069 C 285.079 -3.41003 -3.95619 0
M  V30 3070 H 286.773 -2.1569 -2.07649 0
M  V30 3071 H 284.319 -1.03839 -0.997675 0
M  V30 3072 H 286.272 -0.842934 -4.12883 0
M  V30 3073 H 284.996 0.0509793 -3.2656 0
M  V30 3074 H 283.655 -2.06813 -3.02694 0
M  V30 3075 H 283.303 -0.569132 -4.9977 0
M  V30 3076 H 283.003 -2.27409 -5.41811 0
M  V30 3077 H 284.527 -1.48928 -5.92159 0
M  V30 3078 H 285.941 -3.36547 -4.64122 0
M  V30 3079 H 284.338 -4.10975 -4.37286 0
M  V30 3080 H 285.408 -3.81754 -2.98985 0
M  V30 3081 N 286.751 1.08385 -1.14413 0
M  V30 3082 C 287.681 2.17321 -0.854044 0
M  V30 3083 C 288.662 1.69024 0.191049 0
M  V30 3084 O 289.847 1.94141 0.0476779 0
M  V30 3085 C 286.977 3.45719 -0.330983 0
M  V30 3086 C 285.931 4.07409 -1.31155 0
M  V30 3087 C 285.257 5.30762 -0.64778 0
M  V30 3088 C 286.557 4.48665 -2.67388 0
M  V30 3089 H 288.251 2.41845 -1.76498 0
M  V30 3090 H 285.797 1.16233 -0.850051 0
M  V30 3091 H 287.75 4.21241 -0.115645 0
M  V30 3092 H 286.474 3.2075 0.615381 0
M  V30 3093 H 285.133 3.33919 -1.51306 0
M  V30 3094 H 284.781 5.02078 0.304398 0
M  V30 3095 H 284.481 5.72992 -1.30207 0
M  V30 3096 H 286.005 6.08998 -0.441972 0
M  V30 3097 H 287.419 5.15364 -2.51143 0
M  V30 3098 H 285.816 5.01814 -3.29093 0
M  V30 3099 H 286.886 3.60543 -3.24248 0
M  V30 3100 N 288.23 0.939286 1.26551 0
M  V30 3101 C 289.162 0.404704 2.25599 0
M  V30 3102 C 290.175 -0.470983 1.55838 0
M  V30 3103 O 291.364 -0.281734 1.76263 0
M  V30 3104 C 288.464 -0.43764 3.36062 0
M  V30 3105 C 287.637 0.421449 4.35365 0
M  V30 3106 C 286.696 -0.36015 5.24966 0
M  V30 3107 O 285.722 0.236167 5.6871 0
M  V30 3108 N 286.924 -1.65715 5.56344 0
M  V30 3109 H 289.689 1.25618 2.72103 0
M  V30 3110 H 287.25 0.807963 1.40298 0
M  V30 3111 H 289.242 -0.967866 3.92956 0
M  V30 3112 H 287.812 -1.18991 2.89067 0
M  V30 3113 H 287.032 1.1329 3.7757 0
M  V30 3114 H 288.32 1.00835 4.98708 0
M  V30 3115 H 287.718 -2.16378 5.22682 0
M  V30 3116 H 286.275 -2.13366 6.15888 0
M  V30 3117 N 289.708 -1.40897 0.706093 0
M  V30 3118 C 291.119 -1.84023 0.315052 0
M  V30 3119 C 291.47 -1.5906 -1.14866 0
M  V30 3120 O 290.595 -1.06651 -1.88293 0
M  V30 3121 C 291.19 -3.34055 0.565038 0
M  V30 3122 C 289.749 -3.7571 0.227806 0
M  V30 3123 C 288.896 -2.64204 0.842122 0
M  V30 3124 H 291.847 -1.303 0.905963 0
M  V30 3125 H 291.868 -3.80107 -0.172843 0
M  V30 3126 H 291.38 -3.52192 1.63042 0
M  V30 3127 H 289.481 -3.63172 -0.832895 0
M  V30 3128 H 289.594 -4.74103 0.690174 0
M  V30 3129 H 287.958 -2.53255 0.270893 0
M  V30 3130 H 288.741 -2.85155 1.91158 0
M  V30 3131 N 291.186 -0.45159 -1.50991 0
M  V30 3132 C 292.434 0.109857 -2.01801 0
M  V30 3133 C 292.755 1.41958 -1.3369 0
M  V30 3134 O 292.025 1.9003 -0.475951 0
M  V30 3135 H 290.605 0.0435884 -0.745727 0
M  V30 3136 H 293.267 -0.597557 -1.85514 0
M  V30 3137 H 292.363 0.275489 -3.10882 0
M  V30 3138 N 292.664 1.56529 -0.183458 0
M  V30 3139 C 294.08 1.58664 0.172554 0
M  V30 3140 C 294.28 1.19925 1.61926 0
M  V30 3141 O 293.336 0.916534 2.35278 0
M  V30 3142 C 294.649 3.00463 -0.119262 0
M  V30 3143 C 296.197 3.12945 -0.0584396 0
M  V30 3144 C 296.672 4.56857 -0.323408 0
M  V30 3145 N 298.163 4.62403 -0.271612 0
M  V30 3146 C 298.898 5.71626 -0.450639 0
M  V30 3147 N 298.394 6.89362 -0.689384 0
M  V30 3148 N 300.187 5.60775 -0.385701 0
M  V30 3149 H 292.338 1.79994 -1.12765 0
M  V30 3150 H 294.601 0.834808 -0.449222 0
M  V30 3151 H 294.307 3.33326 -1.12192 0
M  V30 3152 H 294.181 3.72659 0.583544 0
M  V30 3153 H 296.568 2.79902 0.934805 0
M  V30 3154 H 296.649 2.4316 -0.794144 0
M  V30 3155 H 296.293 4.9061 -1.31392 0
M  V30 3156 H 296.223 5.24816 0.43305 0
M  V30 3157 H 298.714 3.77785 -0.0932256 0
M  V30 3158 H 299.027 7.68489 -0.815113 0
M  V30 3159 H 297.372 6.91196 -0.726142 0
M  V30 3160 H 300.563 4.67674 -0.199687 0
M  V30 3161 H 300.736 6.4584 -0.528646 0
M  V30 3162 N 294.142 -0.090211 1.57342 0
M  V30 3163 C 295.39 -0.791241 1.85967 0
M  V30 3164 C 295.711 -1.7903 0.772859 0
M  V30 3165 O 294.981 -1.94872 -0.200398 0
M  V30 3166 H 293.561 -0.295205 0.686195 0
M  V30 3167 H 296.223 -0.0706782 1.94772 0
M  V30 3168 H 295.319 -1.31882 2.82867 0
M  V30 3169 N 295.62 -1.53406 -0.361157 0
M  V30 3170 C 296.552 -1.76446 -1.46286 0
M  V30 3171 C 297.565 -0.645322 -1.49464 0
M  V30 3172 O 298.754 -0.921681 -1.52864 0
M  V30 3173 C 295.854 -1.83332 -2.85031 0
M  V30 3174 C 295.027 -3.13033 -3.05498 0
M  V30 3175 C 294.086 -3.11104 -4.24383 0
M  V30 3176 O 293.112 -3.84888 -4.19344 0
M  V30 3177 N 294.314 -2.32234 -5.32022 0
M  V30 3178 H 297.079 -2.71508 -1.26899 0
M  V30 3179 H 294.64 -1.52238 -0.550915 0
M  V30 3180 H 296.632 -1.79514 -3.62708 0
M  V30 3181 H 295.202 -0.955342 -2.97644 0
M  V30 3182 H 294.422 -3.30119 -2.15442 0
M  V30 3183 H 295.71 -3.9874 -3.16044 0
M  V30 3184 H 295.108 -1.71807 -5.38979 0
M  V30 3185 H 293.665 -2.3423 -6.08259 0
M  V30 3186 N 297.098 0.621204 -1.44841 0
M  V30 3187 C 298.347 1.37658 -1.47422 0
M  V30 3188 C 298.66 1.95264 -0.114629 0
M  V30 3189 O 299.866 2.71494 -0.0180199 0
M  V30 3190 C 298.322 2.49285 -2.59586 0
M  V30 3191 C 297.93 1.98149 -4.01797 0
M  V30 3192 C 299.674 3.26409 -2.71399 0
M  V30 3193 C 297.581 3.07178 -5.05367 0
M  V30 3194 H 296.511 0.517344 -0.548517 0
M  V30 3195 H 299.162 0.667257 -1.70938 0
M  V30 3196 H 297.544 3.22839 -2.29328 0
M  V30 3197 H 298.718 1.31395 -4.41669 0
M  V30 3198 H 297.033 1.33812 -3.94314 0
M  V30 3199 H 299.63 4.07706 -3.45948 0
M  V30 3200 H 299.973 3.76535 -1.77559 0
M  V30 3201 H 300.506 2.5995 -3.01116 0
M  V30 3202 H 297.245 2.61985 -6.00869 0
M  V30 3203 H 296.765 3.72542 -4.70077 0
M  V30 3204 H 298.444 3.71789 -5.29511 0
M  V30 3205 N 298.576 1.31904 0.862503 0
M  V30 3206 C 299.509 1.14514 1.97388 0
M  V30 3207 C 300.487 0.0466493 1.62533 0
M  V30 3208 O 301.671 0.204484 1.87388 0
M  V30 3209 C 298.798 0.751347 3.30261 0
M  V30 3210 C 297.844 1.85395 3.84098 0
M  V30 3211 S 298.677 3.46081 4.08642 0
M  V30 3212 C 299.833 3.08655 5.44502 0
M  V30 3213 H 300.066 2.08597 2.11836 0
M  V30 3214 H 297.599 1.16475 1.01356 0
M  V30 3215 H 299.557 0.530901 4.07052 0
M  V30 3216 H 298.218 -0.170493 3.13637 0
M  V30 3217 H 297.411 1.53122 4.80177 0
M  V30 3218 H 297.013 2.02984 3.14123 0
M  V30 3219 H 299.305 2.58012 6.26447 0
M  V30 3220 H 300.248 4.03726 5.81731 0
M  V30 3221 H 300.656 2.45891 5.08132 0
M  V30 3222 N 300.054 -1.07777 1.14986 0
M  V30 3223 C 301.001 -2.14867 0.842672 0
M  V30 3224 C 301.971 -1.6486 -0.202552 0
M  V30 3225 O 303.156 -1.90668 -0.0710568 0
M  V30 3226 C 300.296 -3.43486 0.333363 0
M  V30 3227 C 299.409 -4.07306 1.43965 0
M  V30 3228 C 298.544 -5.23744 0.886914 0
M  V30 3229 C 297.583 -5.79517 1.97043 0
M  V30 3230 N 296.72 -6.87291 1.4344 0
M  V30 3231 H 301.56 -2.40485 1.75986 0
M  V30 3232 H 299.097 -1.1801 0.878179 0
M  V30 3233 H 301.055 -4.17195 0.0198163 0
M  V30 3234 H 299.685 -3.18133 -0.546916 0
M  V30 3235 H 298.737 -3.31293 1.86946 0
M  V30 3236 H 300.049 -4.44771 2.25788 0
M  V30 3237 H 299.203 -6.04419 0.525651 0
M  V30 3238 H 297.942 -4.87685 0.0377957 0
M  V30 3239 H 296.947 -4.97491 2.34057 0
M  V30 3240 H 298.172 -6.17632 2.82325 0
M  V30 3241 H 296.118 -6.5318 0.607567 0
M  V30 3242 H 296.035 -7.23617 2.18895 0
M  V30 3243 H 297.303 -7.71682 1.10124 0
M  V30 3244 N 301.532 -0.945985 -1.26051 0
M  V30 3245 C 302.778 -0.597002 -1.93814 0
M  V30 3246 C 303.111 0.862484 -1.73997 0
M  V30 3247 O 302.386 1.61769 -1.07986 0
M  V30 3248 C 302.669 -0.945937 -3.47454 0
M  V30 3249 C 302.522 -2.46052 -3.76535 0
M  V30 3250 C 303.841 -0.464785 -4.37639 0
M  V30 3251 H 300.96 -0.218366 -0.703907 0
M  V30 3252 H 303.602 -1.18107 -1.48831 0
M  V30 3253 H 301.752 -0.448902 -3.85898 0
M  V30 3254 H 303.424 -3.03065 -3.47778 0
M  V30 3255 H 301.667 -2.90194 -3.22444 0
M  V30 3256 H 302.338 -2.65517 -4.83947 0
M  V30 3257 H 304.814 -0.891016 -4.06448 0
M  V30 3258 H 303.69 -0.737712 -5.4392 0
M  V30 3259 H 303.951 0.635274 -4.37512 0
M  V30 3260 N 303.011 1.40521 -0.713556 0
M  V30 3261 C 304.288 1.94775 -0.17943 0
M  V30 3262 C 304.668 1.65184 1.31444 0
M  V30 3263 O 304.016 0.968429 2.06963 0
M  V30 3264 C 304.226 3.45543 -0.489986 0
M  V30 3265 C 305.574 4.22442 -0.427536 0
M  V30 3266 O 306.598 3.53644 -0.425929 0
M  V30 3267 O 305.457 5.4501 -0.403292 0
M  V30 3268 H 302.551 0.826606 -0.0255192 0
M  V30 3269 H 305.097 1.5014 -0.790949 0
M  V30 3270 H 303.869 3.60432 -1.5233 0
M  V30 3271 H 303.492 3.97311 0.151598 0
M  V30 3272 N 304.489 0.459591 1.5075 0
M  V30 3273 C 305.452 -0.329093 2.26825 0
M  V30 3274 C 306.452 -0.930481 1.31144 0
M  V30 3275 O 307.642 -0.801453 1.54669 0
M  V30 3276 C 304.774 -1.46768 3.07688 0
M  V30 3277 H 305.967 0.337924 2.9799 0
M  V30 3278 H 303.52 0.213336 1.54837 0
M  V30 3279 H 304.255 -2.17009 2.40993 0
M  V30 3280 H 304.04 -1.04238 3.77991 0
M  V30 3281 H 305.53 -2.02433 3.65254 0
M  V30 3282 N 305.967 -1.56429 0.191757 0
M  V30 3283 C 307.378 -1.83912 -0.321428 0
M  V30 3284 C 307.729 -1.11231 -1.61623 0
M  V30 3285 O 306.854 -0.37202 -2.13178 0
M  V30 3286 C 307.449 -3.33624 -0.589961 0
M  V30 3287 C 306.008 -3.6153 -1.04753 0
M  V30 3288 C 305.155 -2.7714 -0.0943327 0
M  V30 3289 H 308.106 -1.53161 0.415612 0
M  V30 3290 H 308.127 -3.52213 -1.43966 0
M  V30 3291 H 307.639 -3.86495 0.352588 0
M  V30 3292 H 305.74 -3.14089 -2.00447 0
M  V30 3293 H 305.853 -4.69737 -0.942549 0
M  V30 3294 H 304.217 -2.47638 -0.595589 0
M  V30 3295 H 305 -3.32799 0.842601 0
M  V30 3296 N 307.445 0.0818655 -1.57387 0
M  V30 3297 C 308.691 0.778884 -1.87896 0
M  V30 3298 C 309.046 1.75692 -0.784229 0
M  V30 3299 O 308.339 1.90417 0.212567 0
M  V30 3300 C 308.533 1.53513 -3.22752 0
M  V30 3301 C 308.362 0.631838 -4.45239 0
M  V30 3302 C 307.132 0.272571 -5.04564 0
M  V30 3303 C 309.33 -0.0670191 -5.14256 0
M  V30 3304 N 307.312 -0.637498 -6.10581 0
M  V30 3305 C 308.683 -0.834653 -6.14356 0
M  V30 3306 C 310.738 -0.139551 -4.97704 0
M  V30 3307 C 309.441 -1.66806 -6.99691 0
M  V30 3308 C 311.467 -0.959903 -5.83558 0
M  V30 3309 C 310.829 -1.71561 -6.83188 0
M  V30 3310 H 306.928 0.260764 -0.737242 0
M  V30 3311 H 309.512 0.0408227 -1.94657 0
M  V30 3312 H 307.683 2.24398 -3.17018 0
M  V30 3313 H 309.415 2.18038 -3.40942 0
M  V30 3314 H 306.17 0.62319 -4.69482 0
M  V30 3315 H 306.594 -1.08548 -6.68241 0
M  V30 3316 H 311.236 0.430376 -4.20604 0
M  V30 3317 H 308.954 -2.249 -7.76174 0
M  V30 3318 H 312.54 -1.01887 -5.72809 0
M  V30 3319 H 311.42 -2.34017 -7.48469 0
M  V30 3320 N 308.923 1.53595 0.353017 0
M  V30 3321 C 309.856 1.7572 1.45594 0
M  V30 3322 C 310.834 0.605961 1.50887 0
M  V30 3323 O 312.018 0.840023 1.68748 0
M  V30 3324 C 309.145 1.84732 2.83887 0
M  V30 3325 C 308.191 3.06808 2.96262 0
M  V30 3326 S 309.024 4.66065 2.63711 0
M  V30 3327 C 310.18 4.77943 4.04131 0
M  V30 3328 H 310.413 2.68994 1.26608 0
M  V30 3329 H 307.946 1.44343 0.548117 0
M  V30 3330 H 309.904 1.9061 3.63563 0
M  V30 3331 H 308.565 0.92488 3.00175 0
M  V30 3332 H 307.758 3.09761 3.97573 0
M  V30 3333 H 307.36 2.99108 2.24523 0
M  V30 3334 H 309.652 4.5877 4.98534 0
M  V30 3335 H 310.595 5.80022 4.06177 0
M  V30 3336 H 311.003 4.06472 3.91715 0
M  V30 3337 N 310.401 -0.613514 1.45168 0
M  V30 3338 C 311.348 -1.72456 1.53387 0
M  V30 3339 C 312.318 -1.6169 0.380191 0
M  V30 3340 O 313.503 -1.81356 0.592836 0
M  V30 3341 C 310.643 -3.10753 1.50088 0
M  V30 3342 C 309.756 -3.32368 2.75963 0
M  V30 3343 C 308.891 -4.60737 2.64376 0
M  V30 3344 C 307.93 -4.7559 3.85332 0
M  V30 3345 N 307.067 -5.95253 3.72315 0
M  V30 3346 H 311.907 -1.64768 2.48305 0
M  V30 3347 H 309.444 -0.803503 1.23216 0
M  V30 3348 H 311.402 -3.90758 1.46164 0
M  V30 3349 H 310.032 -3.17413 0.587243 0
M  V30 3350 H 309.084 -2.4618 2.89999 0
M  V30 3351 H 310.396 -3.39218 3.65695 0
M  V30 3352 H 309.55 -5.48928 2.58385 0
M  V30 3353 H 308.289 -4.56275 1.72233 0
M  V30 3354 H 307.294 -3.85824 3.91688 0
M  V30 3355 H 308.519 -4.81854 4.78533 0
M  V30 3356 H 306.465 -5.91847 2.82937 0
M  V30 3357 H 306.382 -6.03236 4.55677 0
M  V30 3358 H 307.65 -6.85958 3.70246 0
M  V30 3359 N 311.879 -1.3236 -0.855495 0
M  V30 3360 C 312.829 -1.17809 -1.95205 0
M  V30 3361 C 313.813 -0.0852319 -1.60674 0
M  V30 3362 O 315.005 -0.311651 -1.74235 0
M  V30 3363 C 312.134 -0.902437 -3.31226 0
M  V30 3364 C 311.22 -2.03695 -3.7198 0
M  V30 3365 N 311.611 -3.28544 -3.84568 0
M  V30 3366 C 309.909 -1.93993 -4.016 0
M  V30 3367 C 310.61 -4.02847 -4.19629 0
M  V30 3368 N 309.586 -3.31138 -4.31102 0
M  V30 3369 H 313.388 -2.12462 -2.0307 0
M  V30 3370 H 310.902 -1.24127 -1.0472 0
M  V30 3371 H 312.899 -0.77915 -4.09554 0
M  V30 3372 H 311.559 0.0357267 -3.2468 0
M  V30 3373 H 312.57 -3.6349 -3.68911 0
M  V30 3374 H 309.247 -1.07733 -4.03361 0
M  V30 3375 H 310.637 -5.10506 -4.36845 0
M  V30 3376 N 313.357 1.07166 -1.15556 0
M  V30 3377 C 314.604 1.79798 -0.931604 0
M  V30 3378 C 314.932 1.8682 0.54115 0
M  V30 3379 O 314.187 1.34942 1.41736 0
M  V30 3380 C 314.486 3.24707 -1.49332 0
M  V30 3381 C 314.152 3.37781 -2.98688 0
M  V30 3382 C 312.814 3.41057 -3.39461 0
M  V30 3383 C 315.166 3.40424 -3.94665 0
M  V30 3384 C 312.494 3.4458 -4.74849 0
M  V30 3385 C 314.846 3.45485 -5.29927 0
M  V30 3386 C 313.51 3.47039 -5.70193 0
M  V30 3387 H 312.78 0.657928 -0.340898 0
M  V30 3388 H 315.427 1.26091 -1.44129 0
M  V30 3389 H 313.732 3.81208 -0.904859 0
M  V30 3390 H 315.429 3.79486 -1.29582 0
M  V30 3391 H 312.019 3.35932 -2.66172 0
M  V30 3392 H 316.203 3.37113 -3.64237 0
M  V30 3393 H 311.459 3.44083 -5.05388 0
M  V30 3394 H 315.633 3.46476 -6.04092 0
M  V30 3395 H 313.26 3.49522 -6.75084 0
M  V30 3396 N 314.835 0.952656 1.25548 0
M  V30 3397 C 316.084 0.602053 1.92505 0
M  V30 3398 C 316.397 -0.864663 1.75451 0
M  V30 3399 O 317.603 -1.32514 2.36965 0
M  V30 3400 C 316.059 1.02607 3.44963 0
M  V30 3401 C 315.667 2.51519 3.70732 0
M  V30 3402 C 317.411 0.747905 4.1786 0
M  V30 3403 C 315.318 2.87732 5.16686 0
M  V30 3404 H 314.248 0.22146 0.720744 0
M  V30 3405 H 316.899 1.15684 1.42441 0
M  V30 3406 H 315.281 0.399712 3.93978 0
M  V30 3407 H 316.455 3.19157 3.32378 0
M  V30 3408 H 314.77 2.76786 3.11092 0
M  V30 3409 H 317.367 0.994647 5.25367 0
M  V30 3410 H 317.71 -0.315629 4.15102 0
M  V30 3411 H 318.243 1.33452 3.74747 0
M  V30 3412 H 314.982 3.93095 5.24554 0
M  V30 3413 H 314.502 2.24765 5.56094 0
M  V30 3414 H 316.181 2.76817 5.84792 0
M  V30 3415 N 316.313 -1.40141 0.720998 0
M  V30 3416 C 317.243 -2.33339 0.0867621 0
M  V30 3417 C 318.224 -1.53178 -0.739622 0
M  V30 3418 O 319.409 -1.81625 -0.687449 0
M  V30 3419 C 316.539 -3.37194 -0.831728 0
M  V30 3420 C 315.493 -4.27857 -0.110558 0
M  V30 3421 C 314.819 -5.22294 -1.14513 0
M  V30 3422 C 316.119 -5.11872 1.0385 0
M  V30 3423 H 317.813 -2.86626 0.865219 0
M  V30 3424 H 315.359 -1.37814 0.417516 0
M  V30 3425 H 317.312 -4.01335 -1.28485 0
M  V30 3426 H 316.036 -2.82314 -1.64214 0
M  V30 3427 H 314.695 -3.65176 0.322797 0
M  V30 3428 H 314.343 -4.63717 -1.94874 0
M  V30 3429 H 314.043 -5.83797 -0.667446 0
M  V30 3430 H 315.567 -5.89312 -1.59824 0
M  V30 3431 H 316.981 -5.69436 0.664482 0
M  V30 3432 H 315.378 -5.82445 1.4449 0
M  V30 3433 H 316.448 -4.4753 1.86668 0
M  V30 3434 N 317.792 -0.46758 -1.50504 0
M  V30 3435 C 319.02 0.0864133 -2.06719 0
M  V30 3436 C 319.435 1.33819 -1.33184 0
M  V30 3437 O 318.792 1.78061 -0.400083 0
M  V30 3438 C 318.843 0.378079 -3.59517 0
M  V30 3439 O 318.564 -0.824044 -4.3028 0
M  V30 3440 C 320.065 0.979426 -4.32345 0
M  V30 3441 H 317.285 -0.00551697 -0.670977 0
M  V30 3442 H 319.829 -0.655354 -1.93715 0
M  V30 3443 H 317.984 1.06977 -3.72337 0
M  V30 3444 H 318.398 -0.566518 -5.21432 0
M  V30 3445 H 319.872 1.1333 -5.40241 0
M  V30 3446 H 320.349 1.9686 -3.9261 0
M  V30 3447 H 320.955 0.326216 -4.24047 0
M  V30 3448 N 319.27 1.56325 -0.20005 0
M  V30 3449 C 320.22 2.15939 0.731743 0
M  V30 3450 C 321.204 1.10154 1.17281 0
M  V30 3451 O 322.396 1.36203 1.13038 0
M  V30 3452 C 319.525 2.82614 1.94895 0
M  V30 3453 C 318.611 3.95596 1.52855 0
M  V30 3454 N 319.002 4.99118 0.819418 0
M  V30 3455 C 317.3 4.07288 1.81748 0
M  V30 3456 C 318.001 5.78513 0.608053 0
M  V30 3457 N 316.977 5.31117 1.15828 0
M  V30 3458 H 320.779 2.9334 0.181285 0
M  V30 3459 H 318.293 1.624 -0.000452172 0
M  V30 3460 H 320.29 3.23718 2.62702 0
M  V30 3461 H 318.95 2.06702 2.50408 0
M  V30 3462 H 319.961 5.15723 0.47436 0
M  V30 3463 H 316.638 3.42509 2.38734 0
M  V30 3464 H 318.028 6.71885 0.0451619 0
M  V30 3465 N 320.748 -0.0735177 1.57428 0
M  V30 3466 C 322.025 -0.805903 1.78226 0
M  V30 3467 C 322.405 -1.95874 0.787189 0
M  V30 3468 O 321.753 -2.2779 -0.180029 0
M  V30 3469 C 321.963 -1.28045 3.24662 0
M  V30 3470 C 323.311 -1.71453 3.88444 0
M  V30 3471 O 324.335 -1.37616 3.28543 0
M  V30 3472 O 323.194 -2.34093 4.93825 0
M  V30 3473 H 320.288 -0.386041 0.73137 0
M  V30 3474 H 322.834 -0.0537269 1.69615 0
M  V30 3475 H 321.606 -0.455476 3.8864 0
M  V30 3476 H 321.229 -2.094 3.37991 0
M  V30 3477 N 322.226 -1.5378 -0.344866 0
M  V30 3478 C 323.637 -1.62428 -0.920552 0
M  V30 3479 C 323.988 -0.504747 -1.89596 0
M  V30 3480 O 323.113 0.365711 -2.13287 0
M  V30 3481 C 323.708 -2.94419 -1.67639 0
M  V30 3482 C 322.267 -3.05333 -2.20111 0
M  V30 3483 C 321.414 -2.57866 -1.01982 0
M  V30 3484 H 324.365 -1.58222 -0.123042 0
M  V30 3485 H 324.386 -2.83384 -2.53917 0
M  V30 3486 H 323.898 -3.7588 -0.966224 0
M  V30 3487 H 321.999 -2.28502 -2.94308 0
M  V30 3488 H 322.112 -4.10778 -2.46573 0
M  V30 3489 H 320.476 -2.13241 -1.39285 0
M  V30 3490 H 321.259 -3.41765 -0.324308 0
M  V30 3491 N 323.704 0.605807 -1.45491 0
M  V30 3492 C 324.614 1.74466 -1.56839 0
M  V30 3493 C 325.63 1.68006 -0.452772 0
M  V30 3494 O 326.806 1.8833 -0.713708 0
M  V30 3495 C 323.871 3.10931 -1.53371 0
M  V30 3496 C 322.932 3.28832 -2.75986 0
M  V30 3497 C 322.165 4.58787 -2.72673 0
M  V30 3498 O 322.388 5.4122 -1.80102 0
M  V30 3499 O 321.322 4.79438 -3.63899 0
M  V30 3500 H 325.148 1.67843 -2.53106 0
M  V30 3501 H 322.733 0.770108 -1.28022 0
M  V30 3502 H 324.615 3.92233 -1.54051 0
M  V30 3503 H 323.29 3.18042 -0.602572 0
M  V30 3504 H 322.197 2.47112 -2.80867 0
M  V30 3505 H 323.53 3.26599 -3.68231 0
M  V30 3506 N 325.182 1.32811 0.848464 0
M  V30 3507 C 326.598 1.11937 1.13764 0
M  V30 3508 C 326.798 -0.0960789 2.01271 0
M  V30 3509 O 325.854 -0.779165 2.40178 0
M  V30 3510 C 327.167 2.402 1.809 0
M  V30 3511 C 328.715 2.46016 1.93508 0
M  V30 3512 C 329.19 3.74215 2.64059 0
M  V30 3513 N 330.681 3.75232 2.71579 0
M  V30 3514 C 331.416 4.71134 3.26833 0
M  V30 3515 N 330.912 5.77406 3.8285 0
M  V30 3516 N 332.705 4.58623 3.24995 0
M  V30 3517 H 324.856 2.1073 0.265855 0
M  V30 3518 H 327.119 0.930671 0.180431 0
M  V30 3519 H 326.825 3.29093 1.24058 0
M  V30 3520 H 326.699 2.51628 2.81004 0
M  V30 3521 H 329.086 1.57577 2.49506 0
M  V30 3522 H 329.167 2.38536 0.923811 0
M  V30 3523 H 328.811 4.63031 2.08722 0
M  V30 3524 H 328.741 3.78968 3.65637 0
M  V30 3525 H 331.232 2.98423 2.31845 0
M  V30 3526 H 331.545 6.46632 4.23187 0
M  V30 3527 H 329.89 5.81152 3.81165 0
M  V30 3528 H 333.081 3.74762 2.80484 0
M  V30 3529 H 333.254 5.33535 3.67756 0
M  V30 3530 N 326.66 -1.06551 1.16123 0
M  V30 3531 C 327.908 -1.78947 0.939267 0
M  V30 3532 C 328.229 -1.87532 -0.534476 0
M  V30 3533 O 327.499 -1.38211 -1.38833 0
M  V30 3534 H 326.079 -0.662807 0.344523 0
M  V30 3535 H 328.741 -1.28725 1.46342 0
M  V30 3536 H 327.837 -2.81117 1.35572 0
M  V30 3537 N 328.138 -0.959301 -1.25041 0
M  V30 3538 C 329.387 -0.612254 -1.92183 0
M  V30 3539 C 329.7 0.855347 -1.75907 0
M  V30 3540 O 330.906 1.31256 -2.37664 0
M  V30 3541 C 329.362 -1.04435 -3.44414 0
M  V30 3542 C 328.97 -2.53482 -3.69393 0
M  V30 3543 C 330.714 -0.770055 -4.17457 0
M  V30 3544 C 328.621 -2.90468 -5.15153 0
M  V30 3545 H 327.551 -0.225279 -0.719559 0
M  V30 3546 H 330.202 -1.16438 -1.41825 0
M  V30 3547 H 328.584 -0.4206 -3.9376 0
M  V30 3548 H 329.758 -3.20916 -3.30681 0
M  V30 3549 H 328.073 -2.78432 -3.0962 0
M  V30 3550 H 330.67 -1.02249 -5.24832 0
M  V30 3551 H 331.013 0.293611 -4.15263 0
M  V30 3552 H 331.546 -1.35437 -3.74034 0
M  V30 3553 H 328.285 -3.95871 -5.22462 0
M  V30 3554 H 327.805 -2.27711 -5.54894 0
M  V30 3555 H 329.484 -2.79914 -5.83315 0
M  V30 3556 N 329.616 1.39756 -0.72842 0
M  V30 3557 C 330.846 2.04651 -0.283117 0
M  V30 3558 C 331.254 1.5502 1.08469 0
M  V30 3559 O 330.597 0.707343 1.69536 0
M  V30 3560 C 330.659 3.58947 -0.199309 0
M  V30 3561 C 330.323 4.31525 -1.5045 0
M  V30 3562 C 331.32 4.5861 -2.44894 0
M  V30 3563 C 329.005 4.70195 -1.76698 0
M  V30 3564 C 330.999 5.23366 -3.63822 0
M  V30 3565 C 328.686 5.3468 -2.95906 0
M  V30 3566 C 329.684 5.61198 -3.89289 0
M  V30 3567 O 329.372 6.24347 -5.06404 0
M  V30 3568 H 329.104 0.664777 -0.122666 0
M  V30 3569 H 331.658 1.79913 -0.990987 0
M  V30 3570 H 329.888 3.82556 0.56461 0
M  V30 3571 H 331.577 4.0534 0.213125 0
M  V30 3572 H 332.343 4.29187 -2.25883 0
M  V30 3573 H 328.222 4.48916 -1.04859 0
M  V30 3574 H 331.766 5.4398 -4.36728 0
M  V30 3575 H 327.663 5.63524 -3.14819 0
M  V30 3576 H 328.431 6.42842 -5.06652 0
M  V30 3577 N 331.094 0.475555 1.50254 0
M  V30 3578 C 332.042 -0.330276 2.30243 0
M  V30 3579 C 333.036 -0.986306 1.37726 0
M  V30 3580 O 334.242 -0.9169 1.54897 0
M  V30 3581 H 330.617 -0.125353 0.741479 0
M  V30 3582 H 332.588 0.364702 2.96163 0
M  V30 3583 C 331.337 -1.39704 3.18399 0
M  V30 3584 H 330.66 -0.901621 3.89501 0
M  V30 3585 H 332.1 -1.93336 3.77355 0
M  V30 3586 C 330.559 -2.4014 2.36293 0
M  V30 3587 O 331.089 -3.45504 2.04914 0
M  V30 3588 N 329.295 -2.1197 1.98789 0
M  V30 3589 H 328.842 -1.2631 2.24507 0
M  V30 3590 H 328.8 -2.79403 1.44157 0
M  V30 3591 N 332.573 -1.56217 0.208337 0
M  V30 3592 C 333.798 -2.02782 -0.435222 0
M  V30 3593 C 334.223 -1.08738 -1.53485 0
M  V30 3594 O 333.581 -0.0731855 -1.81152 0
M  V30 3595 C 333.629 -3.47687 -0.956335 0
M  V30 3596 O 332.733 -3.56773 -2.06849 0
M  V30 3597 H 332.074 -0.656403 -0.100158 0
M  V30 3598 H 334.604 -2.02033 0.3231 0
M  V30 3599 H 334.614 -3.87745 -1.26955 0
M  V30 3600 H 333.289 -4.15624 -0.15143 0
M  V30 3601 H 331.866 -3.28597 -1.76292 0
M  V30 3602 N 334.051 0.0651679 -1.57465 0
M  V30 3603 C 335.462 0.616213 -1.76238 0
M  V30 3604 C 335.813 1.7756 -0.834689 0
M  V30 3605 O 334.938 2.1639 -0.0204156 0
M  V30 3606 C 335.533 1.12462 -3.1959 0
M  V30 3607 C 334.092 1.62147 -3.39684 0
M  V30 3608 C 333.239 0.543739 -2.71917 0
M  V30 3609 H 336.19 -0.161022 -1.57881 0
M  V30 3610 H 336.211 1.99324 -3.24114 0
M  V30 3611 H 335.723 0.280592 -3.87084 0
M  V30 3612 H 333.824 2.48854 -2.77313 0
M  V30 3613 H 333.937 1.69385 -4.48158 0
M  V30 3614 H 332.301 0.990352 -2.34657 0
M  V30 3615 H 333.084 -0.290216 -3.42071 0
M  V30 3616 N 335.529 1.53961 0.336706 0
M  V30 3617 C 336.759 1.75229 1.09446 0
M  V30 3618 C 337.167 0.494602 1.82621 0
M  V30 3619 O 336.51 -0.543764 1.75468 0
M  V30 3620 C 336.572 2.88288 2.1478 0
M  V30 3621 C 336.236 4.27656 1.6112 0
M  V30 3622 C 337.233 5.08981 1.0599 0
M  V30 3623 C 334.918 4.74161 1.6576 0
M  V30 3624 C 336.912 6.34916 0.562129 0
M  V30 3625 C 334.599 6.00067 1.15595 0
M  V30 3626 C 335.597 6.80278 0.609147 0
M  V30 3627 O 335.285 8.03818 0.114999 0
M  V30 3628 H 335.017 0.588881 0.331956 0
M  V30 3629 H 337.571 2.01614 0.392566 0
M  V30 3630 H 335.801 2.57443 2.88548 0
M  V30 3631 H 337.49 2.97461 2.76174 0
M  V30 3632 H 338.256 4.74213 1.01722 0
M  V30 3633 H 334.135 4.11781 2.07261 0
M  V30 3634 H 337.679 6.9747 0.134668 0
M  V30 3635 H 333.576 6.3433 1.19566 0
M  V30 3636 H 334.344 8.18172 0.231651 0
M  V30 3637 N 337.007 -0.598083 1.45811 0
M  V30 3638 C 338.256 -1.35295 1.49594 0
M  V30 3639 C 338.569 -1.95057 0.145679 0
M  V30 3640 O 339.775 -2.71431 0.0612099 0
M  V30 3641 C 338.231 -2.45124 2.63519 0
M  V30 3642 C 337.839 -1.91732 4.04899 0
M  V30 3643 C 339.583 -3.2205 2.76558 0
M  V30 3644 C 337.49 -2.991 5.1019 0
M  V30 3645 H 336.42 -0.508552 0.556679 0
M  V30 3646 H 339.071 -0.639977 1.71978 0
M  V30 3647 H 337.453 -3.19149 2.34435 0
M  V30 3648 H 338.627 -1.24352 4.43704 0
M  V30 3649 H 336.942 -1.27522 3.96393 0
M  V30 3650 H 339.539 -4.0215 3.52391 0
M  V30 3651 H 339.882 -3.73663 1.83526 0
M  V30 3652 H 340.415 -2.55127 3.05213 0
M  V30 3653 H 337.154 -2.52393 6.04961 0
M  V30 3654 H 336.674 -3.65017 4.75944 0
M  V30 3655 H 338.353 -3.63318 5.35359 0
M  V30 3656 N 338.485 -1.33259 -0.841409 0
M  V30 3657 C 339.734 -1.23921 -1.59143 0
M  V30 3658 C 340.047 0.1941 -1.94635 0
M  V30 3659 O 341.253 0.409474 -2.68394 0
M  V30 3660 C 339.709 -2.17119 -2.87032 0
M  V30 3661 C 339.317 -3.65606 -2.58914 0
M  V30 3662 C 341.061 -2.16648 -3.65053 0
M  V30 3663 C 338.968 -4.50726 -3.82884 0
M  V30 3664 H 337.898 -0.460264 -0.597221 0
M  V30 3665 H 340.549 -1.58307 -0.927959 0
M  V30 3666 H 338.931 -1.75663 -3.54906 0
M  V30 3667 H 340.105 -4.15487 -1.99267 0
M  V30 3668 H 338.42 -3.68341 -1.942 0
M  V30 3669 H 341.017 -2.77474 -4.57069 0
M  V30 3670 H 341.36 -1.16088 -3.99787 0
M  V30 3671 H 341.893 -2.56453 -3.041 0
M  V30 3672 H 338.632 -5.52151 -3.53283 0
M  V30 3673 H 338.152 -4.0559 -4.41879 0
M  V30 3674 H 339.831 -4.64401 -4.50489 0
M  V30 3675 N 339.963 1.05934 -1.16686 0
M  V30 3676 C 341.374 1.60263 -0.957745 0
M  V30 3677 C 341.725 1.89789 0.49745 0
M  V30 3678 O 340.85 1.67401 1.37135 0
M  V30 3679 C 341.445 2.91172 -1.73218 0
M  V30 3680 C 340.004 3.42188 -1.56794 0
M  V30 3681 C 339.151 2.16028 -1.73859 0
M  V30 3682 H 342.102 0.888392 -1.31504 0
M  V30 3683 H 342.123 3.60744 -1.21014 0
M  V30 3684 H 341.635 2.6965 -2.79124 0
M  V30 3685 H 339.736 3.68762 -0.533437 0
M  V30 3686 H 339.849 4.17273 -2.35414 0
M  V30 3687 H 338.213 2.26426 -1.16633 0
M  V30 3688 H 338.996 1.96985 -2.81161 0
M  V30 3689 N 341.441 0.965919 1.2453 0
M  V30 3690 C 342.689 0.625593 1.92174 0
M  V30 3691 C 343.01 -0.841652 1.75901 0
M  V30 3692 O 342.28 -1.60061 1.12948 0
M  V30 3693 H 340.86 0.228388 0.71123 0
M  V30 3694 H 343.522 1.2266 1.51461 0
M  V30 3695 H 342.618 0.864653 2.99884 0
M  V30 3696 N 342.919 -1.39368 0.735821 0
M  V30 3697 C 344.147 -2.04795 0.294393 0
M  V30 3698 C 344.562 -1.55478 -1.07107 0
M  V30 3699 O 343.919 -0.720038 -1.67695 0
M  V30 3700 C 343.97 -3.6035 0.288071 0
M  V30 3701 O 343.691 -4.07852 1.59963 0
M  V30 3702 C 345.192 -4.42976 -0.169422 0
M  V30 3703 H 342.412 -0.658571 0.128551 0
M  V30 3704 H 344.956 -1.78399 0.999701 0
M  V30 3705 H 343.111 -3.85645 -0.368355 0
M  V30 3706 H 343.525 -5.02181 1.51375 0
M  V30 3707 H 344.999 -5.51864 -0.122687 0
M  V30 3708 H 345.476 -4.22068 -1.21472 0
M  V30 3709 H 346.082 -4.22832 0.457469 0
M  V30 3710 N 344.397 -0.483516 -1.5 0
M  V30 3711 C 345.329 0.340634 -2.26655 0
M  V30 3712 C 346.342 0.946152 -1.32483 0
M  V30 3713 O 347.531 0.832453 -1.579 0
M  V30 3714 C 344.631 1.4929 -3.04246 0
M  V30 3715 C 343.804 0.997903 -4.25865 0
M  V30 3716 C 342.863 2.02569 -4.85646 0
M  V30 3717 O 341.889 1.60128 -5.46212 0
M  V30 3718 N 343.091 3.3548 -4.73744 0
M  V30 3719 H 345.856 -0.316577 -2.98023 0
M  V30 3720 H 343.417 -0.315024 -1.58806 0
M  V30 3721 H 345.409 2.17766 -3.41116 0
M  V30 3722 H 343.979 2.05458 -2.35597 0
M  V30 3723 H 343.199 0.138617 -3.93956 0
M  V30 3724 H 344.487 0.645305 -5.04691 0
M  V30 3725 H 343.885 3.72661 -4.25605 0
M  V30 3726 H 342.442 3.99718 -5.14848 0
M  V30 3727 N 345.875 1.56104 -0.216619 0
M  V30 3728 C 347.103 2.02563 0.421413 0
M  V30 3729 C 347.518 1.0965 1.53695 0
M  V30 3730 O 346.875 0.10521 1.82196 0
M  V30 3731 C 346.926 3.48584 0.957665 0
M  V30 3732 O 346.647 4.37953 -0.113389 0
M  V30 3733 C 348.148 4.10664 1.66943 0
M  V30 3734 H 345.368 0.662944 0.103665 0
M  V30 3735 H 347.912 2.01793 -0.331629 0
M  V30 3736 H 346.067 3.49985 1.661 0
M  V30 3737 H 346.481 5.23704 0.288932 0
M  V30 3738 H 347.955 5.14622 1.99671 0
M  V30 3739 H 348.432 3.55373 2.58083 0
M  V30 3740 H 349.038 4.13098 1.01142 0
M  V30 3741 N 347.353 -0.0568162 1.57498 0
M  V30 3742 C 348.599 -0.75422 1.88253 0
M  V30 3743 C 348.932 -1.76461 0.810865 0
M  V30 3744 O 348.207 -1.93691 -0.177259 0
M  V30 3745 C 348.49 -1.44878 3.2967 0
M  V30 3746 C 348.343 -0.453789 4.47505 0
M  V30 3747 C 349.662 -2.38994 3.69554 0
M  V30 3748 H 346.781 -0.272724 0.684683 0
M  V30 3749 H 349.423 -0.0172113 1.89992 0
M  V30 3750 H 347.573 -2.077 3.28318 0
M  V30 3751 H 349.245 0.170371 4.60985 0
M  V30 3752 H 347.488 0.229552 4.33192 0
M  V30 3753 H 348.159 -0.977699 5.43273 0
M  V30 3754 H 350.635 -1.86239 3.72095 0
M  V30 3755 H 349.511 -2.84587 4.69363 0
M  V30 3756 H 349.772 -3.24461 3.00296 0
M  V30 3757 N 348.832 -1.54138 -0.328536 0
M  V30 3758 C 350.06 -1.76062 -1.08673 0
M  V30 3759 C 350.475 -0.506852 -1.81869 0
M  V30 3760 O 349.832 0.522223 -1.74869 0
M  V30 3761 C 349.883 -2.95054 -2.08866 0
M  V30 3762 O 349.604 -4.15583 -1.38644 0
M  V30 3763 C 351.105 -3.2915 -2.96943 0
M  V30 3764 H 348.325 -0.587889 -0.323461 0
M  V30 3765 H 350.869 -2.0101 -0.376175 0
M  V30 3766 H 349.024 -2.72394 -2.75464 0
M  V30 3767 H 349.438 -4.82481 -2.05699 0
M  V30 3768 H 350.912 -4.15723 -3.63151 0
M  V30 3769 H 351.389 -2.461 -3.63774 0
M  V30 3770 H 351.995 -3.53871 -2.35914 0
M  V30 3771 N 350.31 0.590341 -1.46126 0
M  V30 3772 C 351.24 1.71032 -1.58966 0
M  V30 3773 C 352.221 1.64302 -0.440335 0
M  V30 3774 O 353.406 1.82436 -0.665634 0
M  V30 3775 C 350.536 3.09665 -1.57241 0
M  V30 3776 C 349.49 3.31221 -2.71066 0
M  V30 3777 C 348.816 4.70303 -2.54399 0
M  V30 3778 C 350.116 3.19796 -4.1295 0
M  V30 3779 H 351.81 1.60543 -2.52718 0
M  V30 3780 H 349.356 0.770933 -1.21625 0
M  V30 3781 H 351.309 3.87831 -1.64819 0
M  V30 3782 H 350.033 3.21036 -0.600289 0
M  V30 3783 H 348.692 2.55452 -2.62944 0
M  V30 3784 H 348.34 4.78429 -1.55288 0
M  V30 3785 H 348.04 4.85679 -3.30741 0
M  V30 3786 H 349.564 5.50647 -2.63857 0
M  V30 3787 H 350.978 3.87815 -4.22223 0
M  V30 3788 H 349.375 3.46696 -4.89818 0
M  V30 3789 H 350.445 2.16983 -4.33643 0
M  V30 3790 N 351.788 1.33704 0.83433 0
M  V30 3791 C 353.036 1.25169 1.58673 0
M  V30 3792 C 353.357 -0.18127 1.94156 0
M  V30 3793 O 352.627 -1.11113 1.6134 0
M  V30 3794 H 351.207 0.4603 0.58833 0
M  V30 3795 H 353.869 1.67478 0.996847 0
M  V30 3796 H 352.965 1.84856 2.51465 0
M  V30 3797 N 353.266 -1.05314 1.17247 0
M  V30 3798 C 354.514 -1.77941 0.958194 0
M  V30 3799 C 354.835 -1.88089 -0.514556 0
M  V30 3800 O 354.105 -1.39676 -1.37359 0
M  V30 3801 H 352.685 -0.659116 0.351533 0
M  V30 3802 H 355.347 -1.27166 1.47699 0
M  V30 3803 H 354.443 -2.79663 1.38546 0
M  V30 3804 N 354.744 -0.972509 -1.24016 0
M  V30 3805 C 355.993 -0.632603 -1.91523 0
M  V30 3806 C 356.306 0.836641 -1.76804 0
M  V30 3807 O 357.512 1.28728 -2.39043 0
M  V30 3808 C 355.968 -1.08082 -3.43287 0
M  V30 3809 C 355.576 -2.57386 -3.66683 0
M  V30 3810 C 357.32 -0.814288 -4.16617 0
M  V30 3811 C 355.227 -2.95915 -5.12043 0
M  V30 3812 H 354.157 -0.232898 -0.717129 0
M  V30 3813 H 356.808 -1.17936 -1.40582 0
M  V30 3814 H 355.19 -0.462339 -3.93292 0
M  V30 3815 H 356.364 -3.24405 -3.27258 0
M  V30 3816 H 354.679 -2.81701 -3.06649 0
M  V30 3817 H 357.276 -1.0781 -5.23718 0
M  V30 3818 H 357.619 0.24955 -4.15551 0
M  V30 3819 H 358.152 -1.39397 -3.72577 0
M  V30 3820 H 354.891 -4.0139 -5.18234 0
M  V30 3821 H 354.411 -2.33584 -5.52448 0
M  V30 3822 H 356.09 -2.86086 -5.80314 0
M  V30 3823 N 356.222 1.38976 -0.743202 0
M  V30 3824 C 357.469 2.00343 -0.294752 0
M  V30 3825 C 357.797 1.58983 1.12047 0
M  V30 3826 O 357.052 0.813809 1.77977 0
M  V30 3827 C 357.351 3.55647 -0.353517 0
M  V30 3828 C 357.017 4.16685 -1.72292 0
M  V30 3829 C 355.679 4.3307 -2.09771 0
M  V30 3830 C 358.031 4.50464 -2.62168 0
M  V30 3831 C 355.359 4.80526 -3.36618 0
M  V30 3832 C 357.711 4.99332 -3.88395 0
M  V30 3833 C 356.375 5.13924 -4.25956 0
M  V30 3834 H 355.645 0.733108 -0.107857 0
M  V30 3835 H 358.292 1.6618 -0.951651 0
M  V30 3836 H 356.597 3.89884 0.386954 0
M  V30 3837 H 358.294 4.00998 0.0117269 0
M  V30 3838 H 354.884 4.04339 -1.42155 0
M  V30 3839 H 359.068 4.37416 -2.3448 0
M  V30 3840 H 354.324 4.90008 -3.65653 0
M  V30 3841 H 358.498 5.2444 -4.58187 0
M  V30 3842 H 356.125 5.50457 -5.2431 0
M  V30 3843 N 357.7 0.491464 1.49741 0
M  V30 3844 C 358.632 -0.328609 2.26832 0
M  V30 3845 C 359.645 -0.939113 1.32983 0
M  V30 3846 O 360.834 -0.824067 1.58339 0
M  V30 3847 C 357.934 -1.47675 3.05033 0
M  V30 3848 C 357.107 -0.975305 4.26388 0
M  V30 3849 C 356.166 -1.99991 4.86714 0
M  V30 3850 O 355.192 -1.57229 5.47054 0
M  V30 3851 N 356.394 -3.32962 4.75517 0
M  V30 3852 H 359.159 0.332377 2.97851 0
M  V30 3853 H 356.72 0.323441 1.58636 0
M  V30 3854 H 358.712 -2.15954 3.42266 0
M  V30 3855 H 357.282 -2.04206 2.36683 0
M  V30 3856 H 356.502 -0.117723 3.94024 0
M  V30 3857 H 357.79 -0.618531 5.05026 0
M  V30 3858 H 357.188 -3.70399 4.27576 0
M  V30 3859 H 355.745 -3.96982 5.16961 0
M  V30 3860 N 359.178 -1.55987 0.224894 0
M  V30 3861 C 360.108 -2.23426 -0.678457 0
M  V30 3862 C 361.089 -1.20709 -1.19847 0
M  V30 3863 O 362.274 -1.49304 -1.24186 0
M  V30 3864 C 359.404 -2.91676 -1.88527 0
M  V30 3865 C 358.358 -4.00893 -1.49896 0
M  V30 3866 C 357.684 -4.56455 -2.78483 0
M  V30 3867 C 358.984 -5.17769 -0.686461 0
M  V30 3868 H 360.678 -2.99175 -0.116173 0
M  V30 3869 H 358.224 -1.43897 -0.054436 0
M  V30 3870 H 360.177 -3.37547 -2.5227 0
M  V30 3871 H 358.901 -2.1338 -2.47258 0
M  V30 3872 H 357.56 -3.55758 -0.884985 0
M  V30 3873 H 357.208 -3.74886 -3.35365 0
M  V30 3874 H 356.908 -5.30169 -2.53368 0
M  V30 3875 H 358.432 -5.05047 -3.43162 0
M  V30 3876 H 359.846 -5.60001 -1.22767 0
M  V30 3877 H 358.243 -5.97735 -0.532259 0
M  V30 3878 H 359.313 -4.83932 0.306196 0
M  V30 3879 N 360.656 0.0484629 -1.57525 0
M  V30 3880 C 361.904 0.741657 -1.88 0
M  V30 3881 C 362.225 1.76918 -0.820054 0
M  V30 3882 O 361.495 1.95335 0.148661 0
M  V30 3883 H 360.075 0.276908 -0.69378 0
M  V30 3884 H 362.737 0.019013 -1.94891 0
M  V30 3885 H 361.833 1.24336 -2.86264 0
M  V30 3886 N 362.134 1.5431 0.320358 0
M  V30 3887 C 363.082 1.84647 1.4145 0
M  V30 3888 C 364.076 0.718624 1.53402 0
M  V30 3889 O 365.282 0.902335 1.5575 0
M  V30 3890 H 361.657 0.585349 0.472091 0
M  V30 3891 H 363.628 2.7614 1.13089 0
M  V30 3892 C 362.377 2.09341 2.77617 0
M  V30 3893 H 361.7 2.9559 2.69196 0
M  V30 3894 H 363.14 2.3452 3.53237 0
M  V30 3895 C 361.599 0.885939 3.25043 0
M  V30 3896 O 362.129 0.0967891 4.01583 0
M  V30 3897 N 360.335 0.696682 2.82125 0
M  V30 3898 H 359.882 1.34006 2.2 0
M  V30 3899 H 359.84 -0.109712 3.14209 0
M  V30 3900 N 363.613 -0.582584 1.46437 0
M  V30 3901 C 364.859 -1.34064 1.52965 0
M  V30 3902 C 365.214 -1.91566 0.178968 0
M  V30 3903 O 364.507 -1.73526 -0.812365 0
M  V30 3904 C 364.701 -2.48964 2.56421 0
M  V30 3905 C 364.53 -2.02717 4.01417 0
M  V30 3906 C 363.3 -1.87728 4.69134 0
M  V30 3907 C 365.498 -1.58675 4.8921 0
M  V30 3908 N 363.48 -1.35554 5.98747 0
M  V30 3909 C 364.851 -1.18093 6.08649 0
M  V30 3910 C 366.906 -1.46494 4.75861 0
M  V30 3911 C 365.609 -0.665427 7.16215 0
M  V30 3912 C 367.635 -0.96347 5.83499 0
M  V30 3913 C 366.997 -0.567432 7.02111 0
M  V30 3914 H 363.096 -0.483551 0.614575 0
M  V30 3915 H 365.68 -0.663309 1.83053 0
M  V30 3916 H 363.851 -3.1426 2.28244 0
M  V30 3917 H 365.583 -3.15913 2.52944 0
M  V30 3918 H 362.338 -2.09678 4.24655 0
M  V30 3919 H 362.762 -1.11628 6.67734 0
M  V30 3920 H 367.404 -1.75731 3.8455 0
M  V30 3921 H 365.122 -0.360639 8.07295 0
M  V30 3922 H 368.708 -0.873129 5.75211 0
M  V30 3923 H 367.588 -0.185389 7.83981 0
M  V30 3924 N 365.091 -1.34144 -0.827227 0
M  V30 3925 C 366.316 -1.29476 -1.62021 0
M  V30 3926 C 366.741 0.129292 -1.87655 0
M  V30 3927 O 366.099 1.08967 -1.449 0
M  V30 3928 C 366.147 -2.08702 -2.94068 0
M  V30 3929 O 365.251 -1.45359 -3.85933 0
M  V30 3930 H 364.592 -0.444881 -0.492927 0
M  V30 3931 H 367.122 -1.76882 -1.02829 0
M  V30 3932 H 367.132 -2.19898 -3.43669 0
M  V30 3933 H 365.807 -3.12241 -2.74734 0
M  V30 3934 H 364.384 -1.42879 -3.44442 0
M  V30 3935 N 366.569 1.04691 -1.17803 0
M  V30 3936 C 367.479 2.16057 -0.914151 0
M  V30 3937 C 368.495 1.73589 0.119503 0
M  V30 3938 O 369.671 2.01308 -0.0609468 0
M  V30 3939 C 366.736 3.4394 -0.436603 0
M  V30 3940 C 365.797 4.00825 -1.53746 0
M  V30 3941 C 365.03 5.22604 -1.0826 0
M  V30 3942 O 365.253 5.70367 0.0612244 0
M  V30 3943 O 364.187 5.7186 -1.87775 0
M  V30 3944 H 368.013 2.41169 -1.84584 0
M  V30 3945 H 365.598 1.1453 -0.959334 0
M  V30 3946 H 367.48 4.21024 -0.178057 0
M  V30 3947 H 366.155 3.20316 0.466869 0
M  V30 3948 H 365.062 3.25158 -1.84995 0
M  V30 3949 H 366.395 4.28778 -2.41683 0
M  V30 3950 N 368.047 0.979072 1.23499 0
M  V30 3951 C 368.977 0.537606 2.27227 0
M  V30 3952 C 369.958 -0.428539 1.64613 0
M  V30 3953 O 371.143 -0.322191 1.91509 0
M  V30 3954 C 368.273 -0.162052 3.46922 0
M  V30 3955 C 367.227 0.721242 4.21879 0
M  V30 3956 C 366.553 -0.110555 5.34586 0
M  V30 3957 C 367.853 2.01141 4.82016 0
M  V30 3958 H 369.547 1.40462 2.64406 0
M  V30 3959 H 367.093 0.67684 1.27102 0
M  V30 3960 H 369.046 -0.482192 4.18632 0
M  V30 3961 H 367.77 -1.06351 3.08799 0
M  V30 3962 H 366.429 1.02482 3.51984 0
M  V30 3963 H 366.077 -1.0125 4.92704 0
M  V30 3964 H 365.777 0.477325 5.85658 0
M  V30 3965 H 367.301 -0.425107 6.09118 0
M  V30 3966 H 368.715 1.75612 5.45741 0
M  V30 3967 H 367.112 2.54695 5.43369 0
M  V30 3968 H 368.182 2.69909 4.02836 0
M  V30 3969 N 369.525 -1.3858 0.750561 0
M  V30 3970 C 370.473 -2.32339 0.110162 0
M  V30 3971 C 371.467 -1.53864 -0.708674 0
M  V30 3972 O 372.673 -1.69417 -0.608112 0
M  V30 3973 H 369.048 -0.751812 0.0168275 0
M  V30 3974 H 371.019 -2.83959 0.917053 0
M  V30 3975 C 369.768 -3.39043 -0.771067 0
M  V30 3976 H 369.091 -3.99517 -0.150374 0
M  V30 3977 H 370.531 -4.07061 -1.1865 0
M  V30 3978 C 368.99 -2.77365 -1.91234 0
M  V30 3979 O 369.52 -2.66434 -3.00626 0
M  V30 3980 N 367.726 -2.35219 -1.70646 0
M  V30 3981 H 367.273 -2.4431 -0.81673 0
M  V30 3982 H 367.231 -1.94294 -2.47178 0
M  V30 3983 N 371.003 -0.499398 -1.49478 0
M  V30 3984 C 371.951 0.293604 -2.3074 0
M  V30 3985 C 372.945 0.96427 -1.39277 0
M  V30 3986 O 374.151 0.892141 -1.56336 0
M  V30 3987 H 370.526 0.113541 -0.743379 0
M  V30 3988 H 372.497 -0.411772 -2.95545 0
M  V30 3989 C 371.246 1.3462 -3.20582 0
M  V30 3990 H 370.569 0.83954 -3.90886 0
M  V30 3991 H 372.009 1.87308 -3.80384 0
M  V30 3992 C 370.468 2.36351 -2.40083 0
M  V30 3993 O 370.998 3.422 -2.10385 0
M  V30 3994 N 369.204 2.0878 -2.02137 0
M  V30 3995 H 368.751 1.22723 -2.26488 0
M  V30 3996 H 368.709 2.77075 -1.48583 0
M  V30 3997 N 372.481 1.55866 -0.233164 0
M  V30 3998 C 373.73 1.97779 0.39579 0
M  V30 3999 C 374.043 1.12419 1.60066 0
M  V30 4000 O 375.249 1.44283 2.29988 0
M  V30 4001 C 373.705 3.5188 0.755556 0
M  V30 4002 C 373.313 4.45959 -0.427152 0
M  V30 4003 C 375.057 4.02479 1.34946 0
M  V30 4004 C 372.964 5.91383 -0.0443043 0
M  V30 4005 H 371.894 0.738592 0.15165 0
M  V30 4006 H 374.545 1.80486 -0.331212 0
M  V30 4007 H 372.927 3.64816 1.5403 0
M  V30 4008 H 374.101 4.44776 -1.20462 0
M  V30 4009 H 372.416 4.05765 -0.935068 0
M  V30 4010 H 375.013 5.08637 1.649 0
M  V30 4011 H 375.356 3.49014 2.26925 0
M  V30 4012 H 375.889 3.92813 0.62791 0
M  V30 4013 H 372.628 6.48857 -0.930874 0
M  V30 4014 H 372.148 5.95734 0.697238 0
M  V30 4015 H 373.827 6.45893 0.378334 0
M  V30 4016 N 373.959 -0.0401083 1.57549 0
M  V30 4017 C 374.891 -1.07149 2.02612 0
M  V30 4018 C 375.904 -1.33126 0.937085 0
M  V30 4019 O 377.093 -1.30808 1.21456 0
M  V30 4020 C 374.193 -2.41561 2.37701 0
M  V30 4021 C 373.366 -2.35096 3.68848 0
M  V30 4022 C 372.425 -3.51867 3.91249 0
M  V30 4023 O 371.451 -3.3186 4.62447 0
M  V30 4024 N 372.653 -4.73351 3.36035 0
M  V30 4025 H 375.418 -0.687485 2.91708 0
M  V30 4026 H 372.979 -0.228248 1.60283 0
M  V30 4027 H 374.971 -3.18379 2.49833 0
M  V30 4028 H 373.541 -2.71846 1.54332 0
M  V30 4029 H 372.761 -1.4345 3.67173 0
M  V30 4030 H 374.049 -2.27908 4.54901 0
M  V30 4031 H 373.447 -4.92507 2.78304 0
M  V30 4032 H 372.004 -5.47572 3.53565 0
M  V30 4033 N 375.437 -1.54477 -0.31217 0
M  V30 4034 C 376.714 -1.63891 -1.06767 0
M  V30 4035 C 377.094 -0.480028 -2.0557 0
M  V30 4036 O 376.442 0.524487 -2.22399 0
M  V30 4037 C 376.652 -3.01402 -1.75948 0
M  V30 4038 C 378 -3.57838 -2.28554 0
M  V30 4039 O 379.024 -3.03782 -1.85998 0
M  V30 4040 O 377.883 -4.52462 -3.06497 0
M  V30 4041 H 374.977 -0.664125 -0.492816 0
M  V30 4042 H 377.523 -1.66823 -0.311149 0
M  V30 4043 H 376.295 -3.77187 -1.04144 0
M  V30 4044 H 375.918 -3.02199 -2.58383 0
M  V30 4045 N 376.915 0.57481 -1.46744 0
M  V30 4046 C 377.865 1.67838 -1.54319 0
M  V30 4047 C 378.849 1.55759 -0.40346 0
M  V30 4048 O 380.041 1.6454 -0.652347 0
M  V30 4049 C 377.17 3.06624 -1.5439 0
M  V30 4050 C 376.256 3.23971 -2.73685 0
M  V30 4051 N 376.647 3.11447 -3.9854 0
M  V30 4052 C 374.945 3.5493 -2.70075 0
M  V30 4053 C 375.646 3.31011 -4.78337 0
M  V30 4054 N 374.622 3.56533 -4.10348 0
M  V30 4055 H 378.424 1.56698 -2.48642 0
M  V30 4056 H 375.938 0.779071 -1.42493 0
M  V30 4057 H 377.935 3.85839 -1.57905 0
M  V30 4058 H 376.595 3.1889 -0.611493 0
M  V30 4059 H 377.606 2.89145 -4.29669 0
M  V30 4060 H 374.283 3.73832 -1.85893 0
M  V30 4061 H 375.673 3.26445 -5.87268 0
M  V30 4062 N 378.394 1.34581 0.820102 0
M  V30 4063 C 379.342 1.26401 1.95258 0
M  V30 4064 C 380.336 0.161553 1.68628 0
M  V30 4065 O 381.542 0.326703 1.7701 0
M  V30 4066 H 377.917 0.392749 0.64129 0
M  V30 4067 H 379.888 2.22105 1.99279 0
M  V30 4068 C 378.637 1.03919 3.31807 0
M  V30 4069 H 377.96 1.87984 3.52848 0
M  V30 4070 H 379.4 1.02232 4.11491 0
M  V30 4071 C 377.859 -0.257433 3.35915 0
M  V30 4072 O 378.389 -1.25784 3.81499 0
M  V30 4073 N 376.595 -0.291524 2.89134 0
M  V30 4074 H 376.142 0.523161 2.52232 0
M  V30 4075 H 376.1 -1.15883 2.92264 0
M  V30 4076 N 379.872 -1.04064 1.18357 0
M  V30 4077 C 381.1 -1.80916 1.00384 0
M  V30 4078 C 381.515 -1.83414 -0.447738 0
M  V30 4079 O 380.872 -1.26962 -1.31099 0
M  V30 4080 C 380.923 -3.26516 1.55144 0
M  V30 4081 O 380.644 -3.2424 2.94618 0
M  V30 4082 C 382.145 -4.20013 1.41789 0
M  V30 4083 H 379.365 -0.569728 0.354474 0
M  V30 4084 H 381.909 -1.31151 1.56906 0
M  V30 4085 H 380.064 -3.73512 1.02798 0
M  V30 4086 H 380.478 -4.15452 3.20156 0
M  V30 4087 H 381.952 -5.20111 1.84901 0
M  V30 4088 H 382.429 -4.37667 0.36661 0
M  V30 4089 H 383.035 -3.78881 1.93207 0
M  V30 4090 N 381.35 -0.985608 -1.22978 0
M  V30 4091 C 382.599 -0.652881 -1.90841 0
M  V30 4092 C 382.912 0.817842 -1.77681 0
M  V30 4093 O 384.118 1.26185 -2.40395 0
M  V30 4094 C 382.574 -1.11717 -3.42122 0
M  V30 4095 C 382.182 -2.6126 -3.63933 0
M  V30 4096 C 383.926 -0.85843 -4.1573 0
M  V30 4097 C 381.833 -3.0133 -5.08876 0
M  V30 4098 H 380.763 -0.240491 -0.714619 0
M  V30 4099 H 383.414 -1.1942 -1.39324 0
M  V30 4100 H 381.796 -0.504027 -3.92779 0
M  V30 4101 H 382.97 -3.27858 -3.23799 0
M  V30 4102 H 381.285 -2.84937 -3.03644 0
M  V30 4103 H 383.882 -1.13359 -5.22546 0
M  V30 4104 H 384.225 0.205461 -4.15793 0
M  V30 4105 H 384.758 -1.43341 -3.71077 0
M  V30 4106 H 381.497 -4.06864 -5.13947 0
M  V30 4107 H 381.017 -2.3943 -5.49939 0
M  V30 4108 H 382.696 -2.92224 -5.77247 0
M  V30 4109 N 382.828 1.3818 -0.7579 0
M  V30 4110 C 384.074 2.0078 -0.325423 0
M  V30 4111 C 384.429 1.59085 1.08211 0
M  V30 4112 O 383.722 0.820394 1.73148 0
M  V30 4113 C 383.916 3.55252 -0.391218 0
M  V30 4114 C 383.745 4.11947 -1.8036 0
M  V30 4115 C 382.515 4.43519 -2.42113 0
M  V30 4116 C 384.713 4.33908 -2.76095 0
M  V30 4117 N 382.695 4.85847 -3.75267 0
M  V30 4118 C 384.066 4.78692 -3.94023 0
M  V30 4119 C 386.121 4.16015 -2.73561 0
M  V30 4120 C 384.824 5.07459 -5.09782 0
M  V30 4121 C 386.85 4.45909 -3.88483 0
M  V30 4122 C 386.212 4.90921 -5.0515 0
M  V30 4123 H 382.311 0.764215 -0.165831 0
M  V30 4124 H 384.895 1.67724 -0.988776 0
M  V30 4125 H 383.066 3.87646 0.241886 0
M  V30 4126 H 384.798 4.04653 0.061989 0
M  V30 4127 H 381.553 4.32113 -1.93842 0
M  V30 4128 H 381.977 5.11339 -4.4369 0
M  V30 4129 H 386.619 3.80399 -1.84544 0
M  V30 4130 H 384.337 5.4197 -5.99412 0
M  V30 4131 H 387.923 4.33666 -3.87847 0
M  V30 4132 H 386.803 5.1361 -5.92599 0
M  V30 4133 N 384.306 0.507319 1.49211 0
M  V30 4134 C 385.216 -0.272136 2.33016 0
M  V30 4135 C 386.232 -0.961206 1.45041 0
M  V30 4136 O 387.408 -0.941191 1.78055 0
M  V30 4137 C 384.473 -1.31895 3.20631 0
M  V30 4138 C 383.534 -0.642648 4.24463 0
M  V30 4139 C 382.767 -1.63959 5.07891 0
M  V30 4140 O 382.99 -2.87007 4.92933 0
M  V30 4141 O 381.924 -1.19143 5.8999 0
M  V30 4142 H 385.75 0.413982 3.00865 0
M  V30 4143 H 383.335 0.268556 1.46966 0
M  V30 4144 H 385.217 -1.92446 3.7489 0
M  V30 4145 H 383.892 -1.98788 2.5547 0
M  V30 4146 H 382.799 0.00276252 3.741 0
M  V30 4147 H 384.132 -0.0160534 4.92197 0
M  V30 4148 N 385.784 -1.5574 0.241426 0
M  V30 4149 C 387.032 -1.98417 -0.384075 0
M  V30 4150 C 387.353 -1.13078 -1.58866 0
M  V30 4151 O 386.623 -0.212312 -1.94746 0
M  V30 4152 H 385.203 -0.732813 -0.144894 0
M  V30 4153 H 387.865 -1.9193 0.338943 0
M  V30 4154 H 386.961 -3.04219 -0.696939 0
M  V30 4155 N 387.262 0.0317525 -1.57568 0
M  V30 4156 C 388.502 0.727979 -1.90997 0
M  V30 4157 C 388.866 1.72664 -0.839708 0
M  V30 4158 O 390.067 2.47092 -1.05825 0
M  V30 4159 C 388.338 1.38239 -3.29583 0
M  V30 4160 S 389.897 2.10814 -3.84841 0
M  V30 4161 H 386.715 0.241226 -0.668828 0
M  V30 4162 H 389.317 -0.0173037 -1.95492 0
M  V30 4163 H 388.021 0.642288 -4.05343 0
M  V30 4164 H 387.552 2.16628 -3.28384 0
M  V30 4165 H 389.567 3.3792 -3.63352 0
M  V30 4166 N 388.74 1.54641 0.303973 0
M  V30 4167 C 389.98 1.75516 1.04755 0
M  V30 4168 C 390.344 0.528211 1.84591 0
M  V30 4169 O 391.545 0.614645 2.61678 0
M  V30 4170 C 389.816 3.00685 1.93193 0
M  V30 4171 S 391.375 3.42549 2.74237 0
M  V30 4172 H 388.193 0.616987 0.353339 0
M  V30 4173 H 390.795 1.92842 0.321292 0
M  V30 4174 H 389.499 3.8811 1.33411 0
M  V30 4175 H 389.03 2.85937 2.70191 0
M  V30 4176 H 391.045 2.99386 3.95705 0
M  V30 4177 N 390.218 -0.567019 1.47046 0
M  V30 4178 C 391.634 -0.891975 1.32348 0
M  V30 4179 C 391.834 -1.99154 0.306616 0
M  V30 4180 O 390.89 -2.50883 -0.28532 0
M  V30 4181 C 392.203 -1.29449 2.7141 0
M  V30 4182 C 393.751 -1.40646 2.79621 0
M  V30 4183 C 394.226 -1.84257 4.19301 0
M  V30 4184 N 395.717 -1.91424 4.21795 0
M  V30 4185 C 396.452 -2.26476 5.26779 0
M  V30 4186 N 395.948 -2.60211 6.42077 0
M  V30 4187 N 397.741 -2.27166 5.14152 0
M  V30 4188 H 389.892 0.159074 2.11803 0
M  V30 4189 H 392.155 0.00849752 0.947962 0
M  V30 4190 H 391.861 -0.560448 3.47206 0
M  V30 4191 H 391.735 -2.25273 3.02542 0
M  V30 4192 H 394.122 -2.13133 2.04104 0
M  V30 4193 H 394.203 -0.430339 2.52154 0
M  V30 4194 H 393.847 -1.12343 4.95319 0
M  V30 4195 H 393.777 -2.82855 4.44185 0
M  V30 4196 H 396.268 -1.6778 3.38612 0
M  V30 4197 H 396.581 -2.85956 7.17948 0
M  V30 4198 H 394.926 -2.57813 6.45413 0
M  V30 4199 H 398.117 -2.00244 4.23107 0
M  V30 4200 H 398.29 -2.54154 5.96079 0
M  V30 4201 N 391.696 -1.35014 -0.812953 0
M  V30 4202 C 392.626 -1.30069 -1.93919 0
M  V30 4203 C 393.607 -0.176275 -1.69184 0
M  V30 4204 O 394.792 -0.370227 -1.90638 0
M  V30 4205 C 391.922 -1.06547 -3.30552 0
M  V30 4206 C 390.876 -2.15561 -3.69753 0
M  V30 4207 C 390.202 -1.77214 -5.04479 0
M  V30 4208 C 391.502 -3.57476 -3.808 0
M  V30 4209 H 393.196 -2.24303 -1.98314 0
M  V30 4210 H 390.742 -1.07977 -0.952736 0
M  V30 4211 H 392.695 -1.01729 -4.08937 0
M  V30 4212 H 391.419 -0.0875719 -3.26483 0
M  V30 4213 H 390.078 -2.19466 -2.9365 0
M  V30 4214 H 389.726 -0.780589 -4.96906 0
M  V30 4215 H 389.426 -2.50184 -5.31678 0
M  V30 4216 H 390.95 -1.7391 -5.8531 0
M  V30 4217 H 392.364 -3.55929 -4.4943 0
M  V30 4218 H 390.761 -4.29152 -4.19462 0
M  V30 4219 H 391.831 -3.94091 -2.82525 0
M  V30 4220 N 393.175 1.03435 -1.18907 0
M  V30 4221 C 394.085 2.15075 -0.937015 0
M  V30 4222 C 395.101 1.73706 0.101085 0
M  V30 4223 O 396.277 2.01232 -0.0822948 0
M  V30 4224 C 393.342 3.43458 -0.473057 0
M  V30 4225 C 392.403 3.99172 -1.57989 0
M  V30 4226 C 391.636 5.21427 -1.13797 0
M  V30 4227 O 391.859 5.704 0.000725941 0
M  V30 4228 O 390.793 5.69837 -1.9383 0
M  V30 4229 H 394.619 2.39198 -1.87131 0
M  V30 4230 H 392.204 1.13506 -0.971427 0
M  V30 4231 H 394.086 4.20811 -0.222702 0
M  V30 4232 H 392.761 3.20793 0.432869 0
M  V30 4233 H 391.668 3.23178 -1.88433 0
M  V30 4234 H 393.001 4.2619 -2.46217 0
M  V30 4235 N 394.653 0.992116 1.22453 0
M  V30 4236 C 396.064 0.702776 1.72968 0
M  V30 4237 C 396.415 -0.780399 1.80012 0
M  V30 4238 O 395.54 -1.61007 1.44589 0
M  V30 4239 C 396.135 1.26903 3.14135 0
M  V30 4240 C 394.694 1.02909 3.62059 0
M  V30 4241 C 393.841 1.38969 2.39964 0
M  V30 4242 H 396.792 1.16457 1.07812 0
M  V30 4243 H 396.813 0.647223 3.74955 0
M  V30 4244 H 396.325 2.34851 3.08977 0
M  V30 4245 H 394.426 -0.0337979 3.72585 0
M  V30 4246 H 394.539 1.69191 4.48231 0
M  V30 4247 H 392.903 0.808279 2.41535 0
M  V30 4248 H 393.686 2.4792 2.37467 0
M  V30 4249 N 396.131 -1.37776 0.765217 0
M  V30 4250 C 397.359 -2.04124 0.337767 0
M  V30 4251 C 397.774 -1.57715 -1.03785 0
M  V30 4252 O 397.131 -0.755447 -1.6613 0
M  V30 4253 C 397.182 -3.59658 0.364442 0
M  V30 4254 O 396.903 -4.04367 1.68579 0
M  V30 4255 C 398.404 -4.43236 -0.0754221 0
M  V30 4256 H 395.624 -0.655696 0.142491 0
M  V30 4257 H 398.168 -1.76238 1.03732 0
M  V30 4258 H 396.323 -3.86339 -0.286471 0
M  V30 4259 H 396.737 -4.98857 1.61993 0
M  V30 4260 H 398.211 -5.52 -0.00560067 0
M  V30 4261 H 398.688 -4.2455 -1.12491 0
M  V30 4262 H 399.294 -4.21767 0.547055 0
M  V30 4263 N 397.609 -0.515225 -1.4894 0
M  V30 4264 C 398.539 0.244628 -2.32215 0
M  V30 4265 C 399.52 0.949136 -1.41157 0
M  V30 4266 O 400.705 0.937783 -1.70057 0
M  V30 4267 C 397.835 1.30096 -3.22013 0
M  V30 4268 C 396.789 0.715486 -4.21977 0
M  V30 4269 C 396.115 1.87339 -5.00808 0
M  V30 4270 C 397.415 -0.302982 -5.2142 0
M  V30 4271 H 399.109 -0.450501 -2.95991 0
M  V30 4272 H 396.655 -0.218098 -1.42339 0
M  V30 4273 H 398.608 1.84037 -3.79089 0
M  V30 4274 H 397.332 2.02547 -2.56207 0
M  V30 4275 H 395.991 0.197715 -3.66066 0
M  V30 4276 H 395.639 2.58592 -4.31438 0
M  V30 4277 H 395.339 1.48764 -5.68457 0
M  V30 4278 H 396.863 2.41686 -5.60732 0
M  V30 4279 H 398.277 0.148802 -5.73107 0
M  V30 4280 H 396.674 -0.60532 -5.97039 0
M  V30 4281 H 397.744 -1.21395 -4.69459 0
M  V30 4282 N 399.087 1.5561 -0.249682 0
M  V30 4283 C 400.034 2.21496 0.648694 0
M  V30 4284 C 401.004 1.17977 1.16921 0
M  V30 4285 O 402.189 1.46434 1.22318 0
M  V30 4286 C 399.329 2.92039 1.83868 0
M  V30 4287 C 398.442 4.10219 1.35442 0
M  V30 4288 C 397.577 4.6847 2.50419 0
M  V30 4289 C 396.616 5.78893 1.98869 0
M  V30 4290 N 395.753 6.31315 3.07223 0
M  V30 4291 H 400.593 2.97892 0.0801582 0
M  V30 4292 H 398.13 1.47074 0.0278031 0
M  V30 4293 H 400.088 3.31138 2.53778 0
M  V30 4294 H 398.718 2.18111 2.37965 0
M  V30 4295 H 397.77 3.76413 0.54928 0
M  V30 4296 H 399.082 4.89927 0.936649 0
M  V30 4297 H 398.236 5.10158 3.28366 0
M  V30 4298 H 396.975 3.87984 2.95499 0
M  V30 4299 H 395.98 5.3668 1.19393 0
M  V30 4300 H 397.205 6.61232 1.54755 0
M  V30 4301 H 395.151 5.53733 3.51732 0
M  V30 4302 H 395.068 7.06224 2.69784 0
M  V30 4303 H 396.336 6.77662 3.8522 0
M  V30 4304 N 400.565 -0.0233959 1.57583 0
M  V30 4305 C 401.513 -1.04063 2.08023 0
M  V30 4306 C 402.507 -1.37084 0.995204 0
M  V30 4307 O 403.713 -1.35923 1.18004 0
M  V30 4308 H 400.088 -0.353144 0.663922 0
M  V30 4309 H 402.059 -0.589453 2.9252 0
M  V30 4310 C 400.808 -2.33123 2.57971 0
M  V30 4311 H 400.131 -2.08577 3.4108 0
M  V30 4312 H 401.571 -3.02632 2.96967 0
M  V30 4313 C 400.03 -3.02483 1.48342 0
M  V30 4314 O 400.56 -3.92541 0.852898 0
M  V30 4315 N 398.766 -2.63909 1.21658 0
M  V30 4316 H 398.313 -1.90758 1.73116 0
M  V30 4317 H 398.271 -3.10633 0.485218 0
M  V30 4318 N 402.043 -1.548 -0.295768 0
M  V30 4319 C 403.006 -1.85363 -1.34808 0
M  V30 4320 C 404.006 -0.726817 -1.43436 0
M  V30 4321 O 405.196 -0.995088 -1.42981 0
M  V30 4322 C 402.328 -2.03859 -2.73229 0
M  V30 4323 H 403.521 -2.7941 -1.08949 0
M  V30 4324 H 401.074 -1.46942 -0.532702 0
M  V30 4325 H 401.809 -1.12117 -3.04303 0
M  V30 4326 H 401.594 -2.8588 -2.68356 0
M  V30 4327 H 403.084 -2.28857 -3.49305 0
M  V30 4328 N 403.521 0.559213 -1.47345 0
M  V30 4329 C 404.937 0.884943 -1.32819 0
M  V30 4330 C 405.137 1.98988 -0.317173 0
M  V30 4331 O 404.193 2.51031 0.272011 0
M  V30 4332 C 405.506 1.28007 -2.72093 0
M  V30 4333 C 407.054 1.39161 -2.80363 0
M  V30 4334 C 407.529 1.82031 -4.20272 0
M  V30 4335 N 409.02 1.89185 -4.22804 0
M  V30 4336 C 409.755 2.2368 -5.27973 0
M  V30 4337 N 409.251 2.56802 -6.43447 0
M  V30 4338 N 411.044 2.24436 -5.15349 0
M  V30 4339 H 403.195 -0.170304 -2.11716 0
M  V30 4340 H 405.458 -0.0135247 -0.947904 0
M  V30 4341 H 405.164 0.542027 -3.47498 0
M  V30 4342 H 405.038 2.23665 -3.03733 0
M  V30 4343 H 407.425 2.12048 -2.05231 0
M  V30 4344 H 407.506 0.41696 -2.52379 0
M  V30 4345 H 407.15 1.09715 -4.95908 0
M  V30 4346 H 407.08 2.80495 -4.45679 0
M  V30 4347 H 409.571 1.65982 -3.39497 0
M  V30 4348 H 409.884 2.82144 -7.19454 0
M  V30 4349 H 408.229 2.54387 -6.46771 0
M  V30 4350 H 411.42 1.97998 -4.24163 0
M  V30 4351 H 411.593 2.50989 -5.97418 0
M  V30 4352 N 404.999 1.35443 0.805782 0
M  V30 4353 C 406.248 1.28097 1.55801 0
M  V30 4354 C 406.561 -0.142428 1.95081 0
M  V30 4355 O 407.767 -0.33817 2.69386 0
M  V30 4356 C 406.223 2.24653 2.81174 0
M  V30 4357 C 405.831 3.72342 2.49129 0
M  V30 4358 C 407.575 2.2625 3.59181 0
M  V30 4359 C 405.482 4.60719 3.70799 0
M  V30 4360 H 404.412 0.475937 0.584808 0
M  V30 4361 H 407.063 1.60712 0.885661 0
M  V30 4362 H 405.445 1.85011 3.50124 0
M  V30 4363 H 406.619 4.20624 1.88181 0
M  V30 4364 H 404.934 3.73361 1.84366 0
M  V30 4365 H 407.531 2.89495 4.49552 0
M  V30 4366 H 407.874 1.26647 3.96568 0
M  V30 4367 H 408.407 2.64426 2.97193 0
M  V30 4368 H 405.146 5.61324 3.3852 0
M  V30 4369 H 404.666 4.17163 4.3097 0
M  V30 4370 H 406.345 4.76182 4.38018 0
M  V30 4371 N 406.477 -1.02803 1.19454 0
M  V30 4372 C 407.726 -1.7562 0.991996 0
M  V30 4373 C 408.039 -1.89672 -0.477901 0
M  V30 4374 O 409.245 -2.59468 -0.799287 0
M  V30 4375 C 407.701 -3.15812 1.72601 0
M  V30 4376 C 407.309 -3.0981 3.23607 0
M  V30 4377 C 409.053 -3.92918 1.60674 0
M  V30 4378 C 406.96 -4.44939 3.89594 0
M  V30 4379 H 405.89 -0.658352 0.367543 0
M  V30 4380 H 408.541 -1.15044 1.42959 0
M  V30 4381 H 406.923 -3.7686 1.21624 0
M  V30 4382 H 408.097 -2.58138 3.81709 0
M  V30 4383 H 406.412 -2.46201 3.35819 0
M  V30 4384 H 409.009 -4.9287 2.07323 0
M  V30 4385 H 409.352 -4.12502 0.561025 0
M  V30 4386 H 409.885 -3.38472 2.09001 0
M  V30 4387 H 406.624 -4.30559 4.94267 0
M  V30 4388 H 406.144 -4.96664 3.36281 0
M  V30 4389 H 407.823 -5.1382 3.93189 0
M  V30 4390 N 407.956 -0.998596 -1.21925 0
M  V30 4391 C 409.204 -0.676325 -1.90448 0
M  V30 4392 C 409.525 0.794719 -1.78071 0
M  V30 4393 O 408.795 1.5701 -1.17152 0
M  V30 4394 H 407.375 -0.247165 -0.704925 0
M  V30 4395 H 410.037 -1.26633 -1.48156 0
M  V30 4396 H 409.133 -0.943858 -2.97486 0
M  V30 4397 N 409.434 1.37368 -0.772513 0
M  V30 4398 C 410.344 2.34053 -0.160081 0
M  V30 4399 C 411.36 1.60216 0.678728 0
M  V30 4400 O 412.536 1.92303 0.59847 0
M  V30 4401 C 409.601 3.3939 0.708182 0
M  V30 4402 C 408.662 4.29048 -0.147172 0
M  V30 4403 C 407.895 5.29354 0.679744 0
M  V30 4404 O 408.118 5.3723 1.91678 0
M  V30 4405 O 407.052 6.01835 0.0885444 0
M  V30 4406 H 410.878 2.88159 -0.959053 0
M  V30 4407 H 408.463 1.39543 -0.533685 0
M  V30 4408 H 410.345 4.03839 1.20384 0
M  V30 4409 H 409.02 2.8761 1.48533 0
M  V30 4410 H 407.927 3.67697 -0.689205 0
M  V30 4411 H 409.26 4.84134 -0.887423 0
M  V30 4412 N 410.912 0.523116 1.48665 0
M  V30 4413 C 412.328 0.180511 1.58576 0
M  V30 4414 C 412.528 -1.31597 1.52592 0
M  V30 4415 O 411.584 -2.0937 1.4114 0
M  V30 4416 C 412.897 0.776949 2.90489 0
M  V30 4417 C 414.445 0.745058 3.04003 0
M  V30 4418 C 414.92 1.31995 4.38567 0
M  V30 4419 N 416.411 1.28162 4.45117 0
M  V30 4420 C 417.146 1.6964 5.47731 0
M  V30 4421 N 416.642 2.18816 6.57337 0
M  V30 4422 N 418.435 1.6092 5.38573 0
M  V30 4423 H 410.586 1.4958 1.50797 0
M  V30 4424 H 412.849 0.621772 0.715614 0
M  V30 4425 H 412.555 1.82732 3.00503 0
M  V30 4426 H 412.429 0.25007 3.7637 0
M  V30 4427 H 414.816 -0.296532 2.93606 0
M  V30 4428 H 414.897 1.30933 2.1975 0
M  V30 4429 H 414.541 2.36043 4.49718 0
M  V30 4430 H 414.471 0.731418 5.21496 0
M  V30 4431 H 416.962 0.92155 3.66491 0
M  V30 4432 H 417.275 2.48478 7.31764 0
M  V30 4433 H 415.62 2.22805 6.58318 0
M  V30 4434 H 418.811 1.22304 4.5184 0
M  V30 4435 H 418.984 1.93567 6.18414 0
M  V30 4436 N 412.39 -1.55475 0.257931 0
M  V30 4437 C 413.618 -2.03609 -0.367559 0
M  V30 4438 C 414.033 -1.13687 -1.50734 0
M  V30 4439 O 413.39 -0.153479 -1.81853 0
M  V30 4440 C 413.441 -3.51001 -0.864908 0
M  V30 4441 O 413.162 -4.37499 0.229465 0
M  V30 4442 C 414.663 -4.14946 -1.55997 0
M  V30 4443 H 411.883 -0.665459 -0.0860521 0
M  V30 4444 H 414.427 -2.00843 0.385014 0
M  V30 4445 H 412.582 -3.54266 -1.56762 0
M  V30 4446 H 412.996 -5.24286 -0.14998 0
M  V30 4447 H 414.47 -5.19735 -1.85956 0
M  V30 4448 H 414.947 -3.6209 -2.4857 0
M  V30 4449 H 415.553 -4.15635 -0.901543 0
M  V30 4450 N 413.868 0.0150385 -1.57593 0
M  V30 4451 C 415.116 0.701613 -1.8953 0
M  V30 4452 C 415.437 1.75139 -0.857396 0
M  V30 4453 O 414.707 1.95607 0.107194 0
M  V30 4454 H 413.287 0.26213 -0.699498 0
M  V30 4455 H 415.949 -0.0223304 -1.94887 0
M  V30 4456 H 415.045 1.18236 -2.88837 0
M  V30 4457 N 415.346 1.54954 0.287554 0
M  V30 4458 C 416.593 1.74873 1.02106 0
M  V30 4459 C 416.921 0.541829 1.86801 0
M  V30 4460 O 416.176 -0.475992 1.89823 0
M  V30 4461 C 416.475 2.99833 1.94512 0
M  V30 4462 C 416.141 4.33029 1.25686 0
M  V30 4463 C 414.803 4.69233 1.06649 0
M  V30 4464 C 417.155 5.15542 0.765913 0
M  V30 4465 C 414.483 5.85518 0.372222 0
M  V30 4466 C 416.835 6.32542 0.0853101 0
M  V30 4467 C 415.499 6.67398 -0.1169 0
M  V30 4468 H 414.769 0.639906 0.373632 0
M  V30 4469 H 417.416 1.89219 0.294665 0
M  V30 4470 H 415.721 2.80325 2.73725 0
M  V30 4471 H 417.418 3.1244 2.51361 0
M  V30 4472 H 414.008 4.04564 1.41512 0
M  V30 4473 H 418.192 4.88059 0.90066 0
M  V30 4474 H 413.448 6.11057 0.204695 0
M  V30 4475 H 417.622 6.95741 -0.302936 0
M  V30 4476 H 415.249 7.57357 -0.656859 0
M  V30 4477 N 416.824 -0.551391 1.4764 0
M  V30 4478 C 418.24 -0.877887 1.33287 0
M  V30 4479 C 418.44 -1.98817 0.327721 0
M  V30 4480 O 417.496 -2.51171 -0.258695 0
M  V30 4481 C 418.809 -1.26563 2.72768 0
M  V30 4482 C 420.357 -1.37673 2.81097 0
M  V30 4483 C 420.832 -1.79799 4.21232 0
M  V30 4484 N 422.323 -1.8694 4.23802 0
M  V30 4485 C 423.058 -2.20876 5.29151 0
M  V30 4486 N 422.554 -2.53386 6.448 0
M  V30 4487 N 424.347 -2.217 5.16532 0
M  V30 4488 H 416.498 0.18153 2.11623 0
M  V30 4489 H 418.761 0.0185514 0.947818 0
M  V30 4490 H 418.467 -0.523591 3.47781 0
M  V30 4491 H 418.341 -2.22052 3.04915 0
M  V30 4492 H 420.728 -2.10956 2.06353 0
M  V30 4493 H 420.809 -0.40357 2.52596 0
M  V30 4494 H 420.453 -1.07083 4.96483 0
M  V30 4495 H 420.383 -2.78128 4.4716 0
M  V30 4496 H 422.874 -1.64179 3.40373 0
M  V30 4497 H 423.187 -2.78325 7.20941 0
M  V30 4498 H 421.532 -2.50953 6.48111 0
M  V30 4499 H 424.723 -1.95745 4.25207 0
M  V30 4500 H 424.896 -2.47818 5.98741 0
M  V30 4501 N 418.302 -1.35869 -0.798587 0
M  V30 4502 C 419.713 -1.26498 -1.37314 0
M  V30 4503 C 420.064 0.0991899 -1.95949 0
M  V30 4504 O 419.189 1.0004 -1.91888 0
M  V30 4505 C 419.784 -2.29054 -2.49639 0
M  V30 4506 C 418.343 -2.234 -3.02935 0
M  V30 4507 C 417.49 -2.14329 -1.75949 0
M  V30 4508 H 420.441 -1.46881 -0.600971 0
M  V30 4509 H 420.462 -1.92166 -3.28409 0
M  V30 4510 H 419.974 -3.2833 -2.06933 0
M  V30 4511 H 418.075 -1.27562 -3.50084 0
M  V30 4512 H 418.188 -3.15703 -3.60372 0
M  V30 4513 H 416.552 -1.60435 -1.9782 0
M  V30 4514 H 417.335 -3.15477 -1.35384 0
M  V30 4515 N 419.78 1.02168 -1.19998 0
M  V30 4516 C 421.026 1.75945 -1.00852 0
M  V30 4517 C 421.359 1.88702 0.458828 0
M  V30 4518 O 420.634 1.40911 1.34069 0
M  V30 4519 C 420.917 3.18154 -1.68671 0
M  V30 4520 C 420.77 3.13224 -3.22817 0
M  V30 4521 C 422.089 4.16711 -1.41561 0
M  V30 4522 H 419.208 0.638673 -0.367785 0
M  V30 4523 H 421.85 1.19222 -1.4794 0
M  V30 4524 H 420 3.66586 -1.28636 0
M  V30 4525 H 421.672 2.72635 -3.72112 0
M  V30 4526 H 419.915 2.50751 -3.53986 0
M  V30 4527 H 420.586 4.13728 -3.65422 0
M  V30 4528 H 423.062 3.76913 -1.76284 0
M  V30 4529 H 421.938 5.14391 -1.91553 0
M  V30 4530 H 422.199 4.40774 -0.342193 0
M  V30 4531 N 421.258 1.00505 1.21394 0
M  V30 4532 C 422.674 0.717873 1.42544 0
M  V30 4533 C 422.874 -0.706936 1.88692 0
M  V30 4534 O 421.93 -1.47627 2.04847 0
M  V30 4535 C 423.243 1.73377 2.45684 0
M  V30 4536 C 424.791 1.75059 2.59467 0
M  V30 4537 C 425.266 2.75545 3.6584 0
M  V30 4538 N 426.757 2.74213 3.73311 0
M  V30 4539 C 427.492 3.48626 4.55245 0
M  V30 4540 N 426.988 4.32678 5.41075 0
M  V30 4541 N 428.781 3.37276 4.49668 0
M  V30 4542 H 420.932 1.92506 0.897503 0
M  V30 4543 H 423.195 0.830919 0.456375 0
M  V30 4544 H 422.901 2.75395 2.18748 0
M  V30 4545 H 422.775 1.53647 3.44489 0
M  V30 4546 H 425.162 0.737337 2.8574 0
M  V30 4547 H 425.243 1.98861 1.60897 0
M  V30 4548 H 424.887 3.77028 3.40313 0
M  V30 4549 H 424.817 2.49009 4.64007 0
M  V30 4550 H 427.308 2.13234 3.11993 0
M  V30 4551 H 427.621 4.86253 6.00648 0
M  V30 4552 H 425.966 4.3676 5.40616 0
M  V30 4553 H 429.157 2.71043 3.81646 0
M  V30 4554 H 429.33 3.95524 5.13288 0
M  V30 4555 N 422.737 -1.36956 0.779787 0
M  V30 4556 C 424.148 -1.82094 0.412156 0
M  V30 4557 C 424.499 -1.64926 -1.06273 0
M  V30 4558 O 423.624 -1.16483 -1.82375 0
M  V30 4559 C 424.219 -3.3059 0.741319 0
M  V30 4560 C 422.778 -3.73974 0.426641 0
M  V30 4561 C 421.925 -2.59368 0.980987 0
M  V30 4562 H 424.876 -1.25314 0.973758 0
M  V30 4563 H 424.897 -3.80489 0.028887 0
M  V30 4564 H 424.409 -3.43054 1.81482 0
M  V30 4565 H 422.51 -3.67076 -0.639215 0
M  V30 4566 H 422.623 -4.69778 0.940515 0
M  V30 4567 H 420.987 -2.51463 0.404757 0
M  V30 4568 H 421.77 -2.74621 2.06005 0
M  V30 4569 N 424.215 -0.530993 -1.48385 0
M  V30 4570 C 425.147 0.268353 -2.27624 0
M  V30 4571 C 426.16 0.903525 -1.35426 0
M  V30 4572 O 427.349 0.781796 -1.60469 0
M  V30 4573 C 424.449 1.39535 -3.08842 0
M  V30 4574 C 423.622 0.861913 -4.28824 0
M  V30 4575 C 422.681 1.87016 -4.91845 0
M  V30 4576 O 421.707 1.4267 -5.5103 0
M  V30 4577 N 422.909 3.20238 -4.84178 0
M  V30 4578 H 425.674 -0.41123 -2.96865 0
M  V30 4579 H 423.235 -0.365387 -1.57723 0
M  V30 4580 H 425.227 2.06803 -3.47871 0
M  V30 4581 H 423.797 1.97859 -2.42014 0
M  V30 4582 H 423.017 0.0132126 -3.94198 0
M  V30 4583 H 424.305 0.484415 -5.06489 0
M  V30 4584 H 423.703 3.58932 -4.37246 0
M  V30 4585 H 422.26 3.83136 -5.27305 0
M  V30 4586 N 425.693 1.55336 -0.266172 0
M  V30 4587 C 426.942 1.98574 0.353749 0
M  V30 4588 C 427.255 1.15789 1.57646 0
M  V30 4589 O 428.461 1.49129 2.26876 0
M  V30 4590 C 426.917 3.53403 0.680747 0
M  V30 4591 C 426.525 4.44953 -0.52165 0
M  V30 4592 C 428.269 4.05251 1.26379 0
M  V30 4593 C 426.176 5.91156 -0.169736 0
M  V30 4594 H 425.106 0.741643 0.135949 0
M  V30 4595 H 427.757 1.79743 -0.369421 0
M  V30 4596 H 426.139 3.68001 1.46257 0
M  V30 4597 H 427.313 4.42121 -1.29869 0
M  V30 4598 H 425.628 4.03691 -1.02093 0
M  V30 4599 H 428.225 5.12021 1.54074 0
M  V30 4600 H 428.568 3.53749 2.19471 0
M  V30 4601 H 429.101 3.94057 0.544447 0
M  V30 4602 H 425.84 6.46736 -1.0683 0
M  V30 4603 H 425.36 5.97079 0.570717 0
M  V30 4604 H 427.039 6.4655 0.241245 0
M  V30 4605 N 427.171 -0.0066808 1.57599 0
M  V30 4606 C 428.587 -0.36267 1.55425 0
M  V30 4607 C 428.787 -1.75209 0.995187 0
M  V30 4608 O 427.843 -2.44616 0.626058 0
M  V30 4609 C 429.156 -0.244017 2.99708 0
M  V30 4610 C 430.704 -0.319451 3.11366 0
M  V30 4611 C 431.179 -0.229998 4.57422 0
M  V30 4612 N 432.67 -0.288105 4.62303 0
M  V30 4613 C 433.405 -0.242127 5.72889 0
M  V30 4614 N 432.901 -0.147133 6.92644 0
M  V30 4615 N 434.694 -0.293502 5.61333 0
M  V30 4616 H 426.845 0.902314 1.92281 0
M  V30 4617 H 429.108 0.34525 0.882896 0
M  V30 4618 H 428.814 0.711678 3.44424 0
M  V30 4619 H 428.688 -1.02877 3.629 0
M  V30 4620 H 431.075 -1.26559 2.66584 0
M  V30 4621 H 431.156 0.495055 2.50964 0
M  V30 4622 H 430.8 0.712566 5.02877 0
M  V30 4623 H 430.73 -1.0629 5.15761 0
M  V30 4624 H 433.221 -0.363126 3.76151 0
M  V30 4625 H 433.534 -0.117763 7.7271 0
M  V30 4626 H 431.879 -0.112857 6.94908 0
M  V30 4627 H 435.07 -0.365864 4.66668 0
M  V30 4628 H 435.243 -0.254204 6.47501 0
M  V30 4629 N 428.649 -1.55105 -0.279332 0
M  V30 4630 C 429.579 -1.90557 -1.34945 0
M  V30 4631 C 430.56 -0.766738 -1.51839 0
M  V30 4632 O 431.745 -1.02434 -1.64988 0
M  V30 4633 C 428.875 -2.17193 -2.71006 0
M  V30 4634 C 427.829 -3.33021 -2.68851 0
M  V30 4635 C 427.155 -3.45123 -4.08405 0
M  V30 4636 C 428.455 -4.69578 -2.28678 0
M  V30 4637 H 430.149 -2.80188 -1.05522 0
M  V30 4638 H 427.695 -1.34811 -0.506173 0
M  V30 4639 H 429.648 -2.40581 -3.45975 0
M  V30 4640 H 428.372 -1.24355 -3.01999 0
M  V30 4641 H 427.031 -3.0959 -1.9634 0
M  V30 4642 H 426.679 -2.49762 -4.3661 0
M  V30 4643 H 426.379 -4.22995 -4.07859 0
M  V30 4644 H 427.903 -3.70796 -4.85121 0
M  V30 4645 H 429.317 -4.92553 -2.93368 0
M  V30 4646 H 427.714 -5.5032 -2.39306 0
M  V30 4647 H 428.784 -4.68828 -1.23807 0
M  V30 4648 N 430.127 0.543554 -1.4793 0
M  V30 4649 C 431.037 1.67657 -1.64098 0
M  V30 4650 C 432.053 1.65934 -0.523622 0
M  V30 4651 O 433.229 1.85133 -0.792943 0
M  V30 4652 C 430.294 3.04146 -1.66421 0
M  V30 4653 C 429.355 3.16831 -2.89684 0
M  V30 4654 C 428.588 4.46809 -2.91886 0
M  V30 4655 O 428.811 5.33095 -2.02895 0
M  V30 4656 O 427.745 4.63573 -3.83906 0
M  V30 4657 H 431.571 1.56957 -2.59997 0
M  V30 4658 H 429.156 0.715116 -1.31173 0
M  V30 4659 H 431.038 3.85346 -1.70548 0
M  V30 4660 H 429.713 3.152 -0.736923 0
M  V30 4661 H 428.62 2.34977 -2.91095 0
M  V30 4662 H 429.953 3.10687 -3.81752 0
M  V30 4663 N 431.605 1.3629 0.791371 0
M  V30 4664 C 433.021 1.16661 1.08914 0
M  V30 4665 C 433.221 -0.0106266 2.01497 0
M  V30 4666 O 432.277 -0.676596 2.43266 0
M  V30 4667 C 433.59 2.47656 1.70549 0
M  V30 4668 C 435.138 2.54002 1.82899 0
M  V30 4669 C 435.613 3.85078 2.47949 0
M  V30 4670 N 437.104 3.86413 2.5542 0
M  V30 4671 C 437.839 4.84572 3.06557 0
M  V30 4672 N 437.335 5.93124 3.58016 0
M  V30 4673 N 439.128 4.71994 3.05251 0
M  V30 4674 H 431.279 2.11668 0.176238 0
M  V30 4675 H 433.542 0.937486 0.140796 0
M  V30 4676 H 433.248 3.34059 1.09989 0
M  V30 4677 H 433.122 2.63319 2.70079 0
M  V30 4678 H 435.509 1.68018 2.42598 0
M  V30 4679 H 435.59 2.42239 0.821808 0
M  V30 4680 H 435.234 4.71467 1.88895 0
M  V30 4681 H 435.164 3.94135 3.49235 0
M  V30 4682 H 437.655 3.07988 2.18979 0
M  V30 4683 H 437.968 6.63999 3.95381 0
M  V30 4684 H 436.313 5.96796 3.56173 0
M  V30 4685 H 439.504 3.86321 2.64336 0
M  V30 4686 H 439.677 5.48653 3.44796 0
M  V30 4687 N 433.083 -1.0153 1.20538 0
M  V30 4688 C 433.993 -2.13557 0.971113 0
M  V30 4689 C 435.009 -1.73845 -0.0734366 0
M  V30 4690 O 436.185 -2.01075 0.114299 0
M  V30 4691 C 433.25 -3.42661 0.527639 0
M  V30 4692 C 432.311 -3.96608 1.64319 0
M  V30 4693 C 431.544 -5.1955 1.22078 0
M  V30 4694 O 431.767 -5.70329 0.0900198 0
M  V30 4695 O 430.701 -5.66681 2.02871 0
M  V30 4696 H 434.527 -2.3619 1.90913 0
M  V30 4697 H 432.112 -1.11946 0.989362 0
M  V30 4698 H 433.994 -4.20404 0.289621 0
M  V30 4699 H 432.669 -3.21441 -0.381779 0
M  V30 4700 H 431.576 -3.20139 1.93551 0
M  V30 4701 H 432.909 -4.22219 2.52966 0
M  V30 4702 N 434.561 -1.01147 -1.20859 0
M  V30 4703 C 435.493 -0.535546 -2.22855 0
M  V30 4704 C 436.506 0.379323 -1.58319 0
M  V30 4705 O 437.695 0.178489 -1.77605 0
M  V30 4706 C 434.795 0.240962 -3.38042 0
M  V30 4707 C 433.968 -0.674562 -4.32167 0
M  V30 4708 C 433.027 0.053467 -5.26173 0
M  V30 4709 O 432.053 -0.567339 -5.66366 0
M  V30 4710 N 433.255 1.32997 -5.65059 0
M  V30 4711 H 436.02 -1.41268 -2.64317 0
M  V30 4712 H 433.581 -0.888386 -1.35349 0
M  V30 4713 H 435.573 0.737115 -3.97931 0
M  V30 4714 H 434.143 1.01935 -2.95513 0
M  V30 4715 H 433.363 -1.35111 -3.70322 0
M  V30 4716 H 434.651 -1.2974 -4.91981 0
M  V30 4717 H 434.049 1.85536 -5.34409 0
M  V30 4718 H 432.606 1.77095 -6.2728 0
M  V30 4719 N 436.039 1.36541 -0.78704 0
M  V30 4720 C 436.969 2.32659 -0.197992 0
M  V30 4721 C 437.95 1.56533 0.665697 0
M  V30 4722 O 439.135 1.84698 0.60001 0
M  V30 4723 C 436.265 3.40778 0.669901 0
M  V30 4724 C 435.219 4.27897 -0.0937039 0
M  V30 4725 C 434.545 5.27163 0.894629 0
M  V30 4726 C 435.845 5.06334 -1.28154 0
M  V30 4727 H 437.539 2.82171 -1.00099 0
M  V30 4728 H 435.085 1.35665 -0.482793 0
M  V30 4729 H 437.038 4.07008 1.09191 0
M  V30 4730 H 435.762 2.89827 1.50558 0
M  V30 4731 H 434.421 3.6322 -0.49666 0
M  V30 4732 H 434.069 4.72486 1.72527 0
M  V30 4733 H 433.769 5.86317 0.388149 0
M  V30 4734 H 435.293 5.96266 1.31525 0
M  V30 4735 H 436.707 5.65617 -0.93541 0
M  V30 4736 H 435.104 5.74888 -1.72115 0
M  V30 4737 H 436.174 4.38114 -2.07807 0
M  V30 4738 N 437.518 0.538854 1.48102 0
M  V30 4739 C 438.934 0.19732 1.58376 0
M  V30 4740 C 439.134 -1.29971 1.5398 0
M  V30 4741 O 438.19 -2.07861 1.43352 0
M  V30 4742 C 439.503 0.807716 2.89649 0
M  V30 4743 C 441.051 0.77726 3.03196 0
M  V30 4744 C 441.526 1.36639 4.37143 0
M  V30 4745 N 443.017 1.32875 4.43732 0
M  V30 4746 C 443.752 1.7544 5.45901 0
M  V30 4747 N 443.248 2.25776 6.54979 0
M  V30 4748 N 445.041 1.66623 5.36836 0
M  V30 4749 H 437.192 1.5117 1.49202 0
M  V30 4750 H 439.455 0.629327 0.708979 0
M  V30 4751 H 439.161 1.85909 2.98548 0
M  V30 4752 H 439.035 0.289975 3.76084 0
M  V30 4753 H 441.422 -0.265374 2.93904 0
M  V30 4754 H 441.503 1.33256 2.18349 0
M  V30 4755 H 441.147 2.408 4.47189 0
M  V30 4756 H 441.077 0.786689 5.20691 0
M  V30 4757 H 443.568 0.96037 3.65493 0
M  V30 4758 H 443.881 2.56226 7.29087 0
M  V30 4759 H 442.226 2.29775 6.55918 0
M  V30 4760 H 445.417 1.27089 4.50517 0
M  V30 4761 H 445.59 2.00115 6.16326 0
M  V30 4762 N 438.996 -1.55193 0.274407 0
M  V30 4763 C 440.224 -2.03987 -0.345943 0
M  V30 4764 C 440.639 -1.15279 -1.4952 0
M  V30 4765 O 439.996 -0.172759 -1.8168 0
M  V30 4766 C 440.047 -3.51898 -0.827631 0
M  V30 4767 O 439.768 -4.37231 0.275855 0
M  V30 4768 C 441.269 -4.16577 -1.51587 0
M  V30 4769 H 438.489 -0.666335 -0.0789892 0
M  V30 4770 H 441.033 -2.00423 0.406294 0
M  V30 4771 H 439.188 -3.55909 -1.52996 0
M  V30 4772 H 439.602 -5.24415 -0.0943638 0
M  V30 4773 H 441.076 -5.21678 -1.80433 0
M  V30 4774 H 441.553 -3.64707 -2.44716 0
M  V30 4775 H 442.159 -4.16568 -0.857409 0
M  V30 4776 N 440.474 -0.00167713 -1.576 0
M  V30 4777 C 441.722 0.681471 -1.90264 0
M  V30 4778 C 442.043 1.7422 -0.875924 0
M  V30 4779 O 441.313 1.95709 0.0864412 0
M  V30 4780 H 439.893 0.254696 -0.702239 0
M  V30 4781 H 442.555 -0.0429996 -1.94853 0
M  V30 4782 H 441.651 1.15166 -2.90075 0
M  V30 4783 N 441.952 1.55251 0.271103 0
M  V30 4784 C 443.363 1.66635 0.842007 0
M  V30 4785 C 443.714 0.594631 1.86972 0
M  V30 4786 O 442.839 -0.263532 2.14789 0
M  V30 4787 C 443.434 3.02082 1.53401 0
M  V30 4788 C 441.993 3.15487 2.05293 0
M  V30 4789 C 441.14 2.62438 0.895631 0
M  V30 4790 H 444.091 1.58629 0.0474117 0
M  V30 4791 H 444.112 2.95176 2.40107 0
M  V30 4792 H 443.624 3.80062 0.785786 0
M  V30 4793 H 441.725 2.42284 2.83071 0
M  V30 4794 H 441.838 4.22075 2.26693 0
M  V30 4795 H 440.202 2.19644 1.28953 0
M  V30 4796 H 440.985 3.42923 0.160878 0
M  V30 4797 N 443.43 -0.535701 1.48216 0
M  V30 4798 C 444.655 -1.32149 1.59848 0
M  V30 4799 C 445.08 -1.86338 0.256842 0
M  V30 4800 O 444.438 -1.64107 -0.770632 0
M  V30 4801 C 444.486 -2.45224 2.64381 0
M  V30 4802 O 443.59 -3.48093 2.21144 0
M  V30 4803 H 442.931 -0.391634 0.536208 0
M  V30 4804 H 445.461 -0.645202 1.94161 0
M  V30 4805 H 445.471 -2.91491 2.85476 0
M  V30 4806 H 444.146 -2.05143 3.61786 0
M  V30 4807 H 442.723 -3.07984 2.10239 0
M  V30 4808 N 444.908 -1.36708 -0.784132 0
M  V30 4809 C 445.856 -1.31533 -1.91838 0
M  V30 4810 C 446.85 -0.206205 -1.6814 0
M  V30 4811 O 448.056 -0.373519 -1.76082 0
M  V30 4812 H 444.431 -0.409613 -0.630651 0
M  V30 4813 H 446.402 -2.2731 -1.9332 0
M  V30 4814 C 445.151 -1.12679 -3.28936 0
M  V30 4815 H 444.474 -1.97274 -3.4774 0
M  V30 4816 H 445.914 -1.13106 -4.08636 0
M  V30 4817 C 444.373 0.168281 -3.36479 0
M  V30 4818 O 444.903 1.15625 -3.84699 0
M  V30 4819 N 443.109 0.214762 -2.89805 0
M  V30 4820 H 442.656 -0.589852 -2.50756 0
M  V30 4821 H 442.614 1.08094 -2.95234 0
M  V30 4822 N 446.386 1.0089 -1.21074 0
M  V30 4823 C 447.614 1.78191 -1.05145 0
M  V30 4824 C 448.029 1.84537 0.398952 0
M  V30 4825 O 447.386 1.30393 1.27687 0
M  V30 4826 C 447.437 3.22288 -1.63746 0
M  V30 4827 O 447.158 3.16315 -3.03111 0
M  V30 4828 C 448.659 4.16106 -1.52875 0
M  V30 4829 H 445.879 0.560129 -0.369454 0
M  V30 4830 H 448.423 1.26945 -1.60328 0
M  V30 4831 H 446.578 3.70655 -1.12664 0
M  V30 4832 H 446.992 4.06817 -3.31059 0
M  V30 4833 H 448.466 5.15026 -1.98626 0
M  V30 4834 H 448.943 4.36541 -0.482521 0
M  V30 4835 H 449.549 3.73625 -2.03185 0
M  V30 4836 N 447.864 1.01787 1.20321 0
M  V30 4837 C 448.774 0.598898 2.26827 0
M  V30 4838 C 449.79 -0.36418 1.70146 0
M  V30 4839 O 450.966 -0.224812 2.00141 0
M  V30 4840 C 448.031 -0.0549769 3.46656 0
M  V30 4841 C 447.092 0.954205 4.18561 0
M  V30 4842 C 446.325 0.331439 5.3267 0
M  V30 4843 O 446.548 -0.86851 5.63749 0
M  V30 4844 O 445.482 1.0488 5.92692 0
M  V30 4845 H 449.308 1.48562 2.64883 0
M  V30 4846 H 446.893 0.787434 1.26964 0
M  V30 4847 H 448.775 -0.420102 4.19301 0
M  V30 4848 H 447.45 -0.915876 3.10473 0
M  V30 4849 H 446.357 1.37072 3.48083 0
M  V30 4850 H 447.69 1.78511 4.58688 0
M  V30 4851 N 449.342 -1.36122 0.79427 0
M  V30 4852 C 450.588 -1.99406 0.369452 0
M  V30 4853 C 450.921 -1.62886 -1.05743 0
M  V30 4854 O 450.196 -0.886053 -1.73145 0
M  V30 4855 C 450.479 -3.56046 0.538833 0
M  V30 4856 C 450.332 -4.02404 2.00976 0
M  V30 4857 C 451.651 -4.40079 -0.0431359 0
M  V30 4858 H 448.77 -0.724397 0.135712 0
M  V30 4859 H 451.412 -1.61461 1.00151 0
M  V30 4860 H 449.562 -3.885 0.000771004 0
M  V30 4861 H 451.234 -3.80415 2.60926 0
M  V30 4862 H 449.477 -3.53765 2.51063 0
M  V30 4863 H 450.148 -5.11344 2.07922 0
M  V30 4864 H 452.624 -4.14013 0.416228 0
M  V30 4865 H 451.5 -5.48799 0.105374 0
M  V30 4866 H 451.761 -4.27264 -1.13571 0
M  V30 4867 N 450.82 -0.546701 -1.47814 0
M  V30 4868 C 452.069 -0.0166497 -2.01693 0
M  V30 4869 C 452.382 1.33721 -1.42752 0
M  V30 4870 O 453.588 1.95658 -1.8823 0
M  V30 4871 C 452.044 0.0206769 -3.59894 0
M  V30 4872 C 451.652 -1.3293 -4.27824 0
M  V30 4873 C 453.396 0.498674 -4.21561 0
M  V30 4874 C 451.303 -1.25165 -5.78003 0
M  V30 4875 H 450.233 -0.0024541 -0.753996 0
M  V30 4876 H 452.884 -0.692984 -1.69912 0
M  V30 4877 H 451.266 0.76244 -3.88591 0
M  V30 4878 H 452.44 -2.08795 -4.10781 0
M  V30 4879 H 450.755 -1.74438 -3.78101 0
M  V30 4880 H 453.352 0.575 -5.31599 0
M  V30 4881 H 453.695 1.5083 -3.88016 0
M  V30 4882 H 454.228 -0.18791 -3.97356 0
M  V30 4883 H 450.967 -2.23695 -6.1615 0
M  V30 4884 H 450.487 -0.53464 -5.97412 0
M  V30 4885 H 452.166 -0.949299 -6.39998 0
M  V30 4886 N 452.299 1.55045 -0.282633 0
M  V30 4887 C 453.249 2.19514 0.616249 0
M  V30 4888 C 454.233 1.16216 1.11277 0
M  V30 4889 O 455.425 1.42004 1.05659 0
M  V30 4890 C 452.554 2.92548 1.7964 0
M  V30 4891 C 451.64 4.03142 1.31671 0
M  V30 4892 N 452.031 5.0276 0.553695 0
M  V30 4893 C 450.329 4.1635 1.59903 0
M  V30 4894 C 451.03 5.80923 0.30054 0
M  V30 4895 N 450.006 5.3651 0.875116 0
M  V30 4896 H 453.808 2.93889 0.0255363 0
M  V30 4897 H 451.322 1.62169 -0.0865362 0
M  V30 4898 H 453.319 3.37188 2.45173 0
M  V30 4899 H 451.979 2.19685 2.39099 0
M  V30 4900 H 452.99 5.17512 0.20032 0
M  V30 4901 H 449.667 3.54682 2.20243 0
M  V30 4902 H 451.057 6.7118 -0.311053 0
M  V30 4903 N 453.777 0.010035 1.57597 0
M  V30 4904 C 454.725 -0.996272 2.10184 0
M  V30 4905 C 455.719 -1.34942 1.02406 0
M  V30 4906 O 456.925 -1.33389 1.20861 0
M  V30 4907 H 453.3 -0.338982 0.671264 0
M  V30 4908 H 455.271 -0.527272 2.93705 0
M  V30 4909 C 454.02 -2.27599 2.62857 0
M  V30 4910 H 453.343 -2.01295 3.45428 0
M  V30 4911 H 454.783 -2.96265 3.0332 0
M  V30 4912 C 453.242 -2.99269 1.54725 0
M  V30 4913 O 453.772 -3.90644 0.93597 0
M  V30 4914 N 451.978 -2.61269 1.27228 0
M  V30 4915 H 451.525 -1.87043 1.77123 0
M  V30 4916 H 451.483 -3.09534 0.550999 0
M  V30 4917 N 455.255 -1.55392 -0.262866 0
M  V30 4918 C 456.485 -1.80251 -1.00961 0
M  V30 4919 C 456.893 -0.58117 -1.80053 0
M  V30 4920 O 456.236 0.459427 -1.77862 0
M  V30 4921 C 456.298 -2.98207 -2.00781 0
M  V30 4922 C 455.962 -4.34856 -1.40533 0
M  V30 4923 C 456.959 -5.13459 -0.815853 0
M  V30 4924 C 454.644 -4.8153 -1.42948 0
M  V30 4925 C 456.638 -6.36875 -0.258562 0
M  V30 4926 C 454.325 -6.04899 -0.868334 0
M  V30 4927 C 455.323 -6.8241 -0.283884 0
M  V30 4928 O 455.011 -8.03451 0.268644 0
M  V30 4929 H 454.743 -0.604049 -0.303482 0
M  V30 4930 H 457.297 -2.03257 -0.295926 0
M  V30 4931 H 455.527 -2.70917 -2.75936 0
M  V30 4932 H 457.216 -3.10299 -2.61667 0
M  V30 4933 H 457.982 -4.78526 -0.789812 0
M  V30 4934 H 453.861 -4.21201 -1.87378 0
M  V30 4935 H 457.405 -6.97318 0.198257 0
M  V30 4936 H 453.302 -6.39312 -0.891649 0
M  V30 4937 H 454.07 -8.18346 0.158974 0
M  V30 4938 N 456.733 0.527833 -1.48498 0
M  V30 4939 C 457.981 1.28101 -1.56316 0
M  V30 4940 C 458.302 1.9352 -0.239781 0
M  V30 4941 O 457.572 1.81433 0.738849 0
M  V30 4942 H 456.152 0.475793 -0.575873 0
M  V30 4943 H 458.814 0.614052 -1.84974 0
M  V30 4944 H 457.91 2.05916 -2.34532 0
M  V30 4945 N 458.211 1.37122 0.776871 0
M  V30 4946 C 459.161 1.28989 1.88005 0
M  V30 4947 C 460.145 0.178765 1.59904 0
M  V30 4948 O 461.337 0.412705 1.72121 0
M  V30 4949 C 458.466 1.09402 3.25402 0
M  V30 4950 C 457.552 2.25036 3.59471 0
M  V30 4951 N 457.943 3.50407 3.64759 0
M  V30 4952 C 456.241 2.17078 3.89607 0
M  V30 4953 C 456.942 4.26628 3.95428 0
M  V30 4954 N 455.918 3.55709 4.11062 0
M  V30 4955 H 459.72 2.2394 1.90337 0
M  V30 4956 H 457.234 1.30021 0.973052 0
M  V30 4957 H 459.231 1.01661 4.04315 0
M  V30 4958 H 457.891 0.153632 3.24336 0
M  V30 4959 H 458.902 3.8438 3.47091 0
M  V30 4960 H 455.579 1.31067 3.96393 0
M  V30 4961 H 456.969 5.35107 4.06338 0
M  V30 4962 N 459.689 -1.00246 1.21608 0
M  V30 4963 C 460.937 -1.73717 1.0328 0
M  V30 4964 C 461.258 -1.90102 -0.434318 0
M  V30 4965 O 460.528 -1.45376 -1.31311 0
M  V30 4966 H 459.108 -0.643613 0.379172 0
M  V30 4967 H 461.77 -1.20787 1.52959 0
M  V30 4968 H 460.866 -2.73535 1.50283 0
M  V30 4969 N 461.167 -1.02423 -1.1978 0
M  V30 4970 C 462.415 -0.716569 -1.8897 0
M  V30 4971 C 462.736 0.756769 -1.79716 0
M  V30 4972 O 462.006 1.5449 -1.20456 0
M  V30 4973 H 460.586 -0.262062 -0.699523 0
M  V30 4974 H 463.248 -1.29747 -1.45436 0
M  V30 4975 H 462.344 -1.00675 -2.95417 0
M  V30 4976 N 462.645 1.35699 -0.801477 0
M  V30 4977 C 463.875 2.02862 -0.3912 0
M  V30 4978 C 464.283 1.60552 1.00099 0
M  V30 4979 O 463.626 0.796215 1.65548 0
M  V30 4980 C 463.688 3.57386 -0.389299 0
M  V30 4981 C 463.352 4.22943 -1.73113 0
M  V30 4982 C 464.349 4.44984 -2.68859 0
M  V30 4983 C 462.034 4.60167 -2.01373 0
M  V30 4984 C 464.028 5.03345 -3.91053 0
M  V30 4985 C 461.715 5.18243 -3.23832 0
M  V30 4986 C 462.713 5.39773 -4.1849 0
M  V30 4987 O 462.401 5.96626 -5.38788 0
M  V30 4988 H 462.133 0.657341 -0.157732 0
M  V30 4989 H 464.687 1.74407 -1.08496 0
M  V30 4990 H 462.917 3.85011 0.361031 0
M  V30 4991 H 464.606 4.059 -0.0020365 0
M  V30 4992 H 465.372 4.1661 -2.48316 0
M  V30 4993 H 461.251 4.42726 -1.28508 0
M  V30 4994 H 464.795 5.20065 -4.64949 0
M  V30 4995 H 460.692 5.46044 -3.44248 0
M  V30 4996 H 461.46 6.15082 -5.40015 0
M  V30 4997 N 464.123 0.554532 1.47522 0
M  V30 4998 C 465.371 0.0294208 2.02079 0
M  V30 4999 C 465.692 -1.32411 1.43151 0
M  V30 5000 O 464.962 -1.863 0.605728 0
M  V30 5001 H 463.542 0.00788672 0.746958 0
M  V30 5002 H 466.204 0.723934 1.80956 0
M  V30 5003 H 465.3 -0.0606745 3.12041 0
M  V30 5004 N 465.601 -1.54893 0.290851 0
M  V30 5005 C 466.531 -2.26103 -0.583084 0
M  V30 5006 C 467.512 -1.25684 -1.14619 0
M  V30 5007 O 468.697 -1.54436 -1.17741 0
M  V30 5008 C 465.827 -2.99409 -1.75987 0
M  V30 5009 C 464.781 -4.0689 -1.32758 0
M  V30 5010 C 464.107 -4.67856 -2.58872 0
M  V30 5011 C 465.407 -5.20215 -0.46624 0
M  V30 5012 H 467.101 -2.99398 0.0108214 0
M  V30 5013 H 464.647 -1.43998 0.00664468 0
M  V30 5014 H 466.6 -3.47943 -2.37727 0
M  V30 5015 H 465.324 -2.23675 -2.37985 0
M  V30 5016 H 463.983 -3.59191 -0.733299 0
M  V30 5017 H 463.631 -3.88772 -3.19163 0
M  V30 5018 H 463.331 -5.40438 -2.30653 0
M  V30 5019 H 464.855 -5.19147 -3.21433 0
M  V30 5020 H 466.269 -5.64704 -0.989047 0
M  V30 5021 H 464.666 -5.99455 -0.27826 0
M  V30 5022 H 465.736 -4.82198 0.511173 0
M  V30 5023 N 467.08 -0.0183926 -1.57589 0
M  V30 5024 C 468.308 0.673046 -1.95647 0
M  V30 5025 C 468.723 1.66275 -0.894312 0
M  V30 5026 O 468.08 1.82072 0.124975 0
M  V30 5027 C 468.131 1.38884 -3.33756 0
M  V30 5028 O 467.852 0.438806 -4.35897 0
M  V30 5029 C 469.353 2.1731 -3.86383 0
M  V30 5030 H 466.573 0.186292 -0.644621 0
M  V30 5031 H 469.117 -0.0749748 -2.04363 0
M  V30 5032 H 467.272 2.08835 -3.26293 0
M  V30 5033 H 467.686 0.945869 -5.15901 0
M  V30 5034 H 469.16 2.62863 -4.85394 0
M  V30 5035 H 469.637 3.00764 -3.20059 0
M  V30 5036 H 470.243 1.52339 -3.97081 0
M  V30 5037 N 468.558 1.5553 0.254621 0
M  V30 5038 C 469.807 1.76202 0.981612 0
M  V30 5039 C 470.12 0.580883 1.86776 0
M  V30 5040 O 471.326 0.670448 2.63092 0
M  V30 5041 C 469.782 3.11921 1.79537 0
M  V30 5042 C 469.39 4.37659 0.956991 0
M  V30 5043 C 471.134 3.41936 2.51555 0
M  V30 5044 C 469.041 5.64411 1.76619 0
M  V30 5045 H 467.971 0.656841 0.370237 0
M  V30 5046 H 470.622 1.81969 0.236556 0
M  V30 5047 H 469.004 3.00241 2.58208 0
M  V30 5048 H 470.178 4.60307 0.21315 0
M  V30 5049 H 468.493 4.14922 0.350497 0
M  V30 5050 H 471.09 4.33849 3.12536 0
M  V30 5051 H 471.433 2.62905 3.22779 0
M  V30 5052 H 471.966 3.54797 1.799 0
M  V30 5053 H 468.705 6.46241 1.09783 0
M  V30 5054 H 468.225 5.45877 2.48551 0
M  V30 5055 H 469.904 6.03386 2.33527 0
M  V30 5056 N 470.036 -0.519951 1.48776 0
M  V30 5057 C 470.986 -1.61995 1.60442 0
M  V30 5058 C 471.97 -1.54155 0.460991 0
M  V30 5059 O 473.162 -1.62006 0.712965 0
M  V30 5060 C 470.291 -3.00683 1.65664 0
M  V30 5061 C 469.377 -3.1359 2.8552 0
M  V30 5062 N 469.768 -2.96441 4.09825 0
M  V30 5063 C 468.066 -3.44662 2.83062 0
M  V30 5064 C 468.767 -3.1303 4.90293 0
M  V30 5065 N 467.743 -3.41058 4.23297 0
M  V30 5066 H 471.545 -1.47362 2.54287 0
M  V30 5067 H 469.059 -0.725649 1.45286 0
M  V30 5068 H 471.056 -3.79712 1.72117 0
M  V30 5069 H 469.716 -3.16401 0.729425 0
M  V30 5070 H 470.727 -2.72999 4.40104 0
M  V30 5071 H 467.404 -3.66675 1.9964 0
M  V30 5072 H 468.794 -3.04424 5.98979 0
M  V30 5073 N 471.514 -1.37532 -0.769588 0
M  V30 5074 C 472.76 -1.34063 -1.52966 0
M  V30 5075 C 473.115 0.0737942 -1.92258 0
M  V30 5076 O 472.408 1.03291 -1.61374 0
M  V30 5077 C 472.602 -2.21558 -2.8044 0
M  V30 5078 C 472.431 -3.71367 -2.53608 0
M  V30 5079 C 471.201 -4.40464 -2.47628 0
M  V30 5080 C 473.399 -4.64177 -2.21459 0
M  V30 5081 N 471.381 -5.758 -2.12902 0
M  V30 5082 C 472.752 -5.87907 -1.9689 0
M  V30 5083 C 474.807 -4.52541 -2.07633 0
M  V30 5084 C 473.51 -7.01304 -1.59892 0
M  V30 5085 C 475.536 -5.65825 -1.72034 0
M  V30 5086 C 474.898 -6.88606 -1.48327 0
M  V30 5087 H 470.997 -0.545856 -0.559969 0
M  V30 5088 H 473.581 -1.72773 -0.897634 0
M  V30 5089 H 471.752 -1.85061 -3.41478 0
M  V30 5090 H 473.484 -2.09332 -3.46356 0
M  V30 5091 H 470.239 -3.93491 -2.63556 0
M  V30 5092 H 470.663 -6.47328 -1.9823 0
M  V30 5093 H 475.305 -3.58183 -2.24643 0
M  V30 5094 H 473.023 -7.95594 -1.4162 0
M  V30 5095 H 476.609 -5.58793 -1.61991 0
M  V30 5096 H 475.489 -7.74779 -1.21189 0
M  V30 5097 N 472.992 0.995999 -1.22138 0
M  V30 5098 C 474.24 1.73167 -1.042 0
M  V30 5099 C 474.561 1.90329 0.42423 0
M  V30 5100 O 473.831 1.4607 1.30539 0
M  V30 5101 H 472.411 0.641593 -0.38258 0
M  V30 5102 H 475.073 1.19974 -1.53598 0
M  V30 5103 H 474.169 2.72734 -1.51731 0
M  V30 5104 N 474.47 1.03057 1.19235 0
M  V30 5105 C 475.71 0.736757 1.9066 0
M  V30 5106 C 476.074 -0.721521 1.77927 0
M  V30 5107 O 477.275 -1.12849 2.43964 0
M  V30 5108 C 475.546 1.17755 3.37444 0
M  V30 5109 S 477.105 1.00783 4.27069 0
M  V30 5110 H 473.923 0.268174 0.658486 0
M  V30 5111 H 476.525 1.32076 1.4414 0
M  V30 5112 H 475.229 2.23448 3.44237 0
M  V30 5113 H 474.76 0.586912 3.88997 0
M  V30 5114 H 476.775 -0.0806356 4.96134 0
M  V30 5115 N 475.948 -1.35272 0.808662 0
M  V30 5116 C 476.911 -2.28082 0.226093 0
M  V30 5117 C 477.911 -1.49673 -0.587762 0
M  V30 5118 O 479.101 -1.69404 -0.405943 0
M  V30 5119 C 476.233 -3.33955 -0.684596 0
M  V30 5120 H 477.426 -2.81116 1.04469 0
M  V30 5121 H 474.979 -1.45162 0.579466 0
M  V30 5122 H 475.714 -2.86111 -1.5268 0
M  V30 5123 H 475.499 -3.91965 -0.102699 0
M  V30 5124 H 476.989 -4.03219 -1.08646 0
M  V30 5125 N 477.426 -0.562348 -1.47226 0
M  V30 5126 C 478.356 0.170627 -2.32876 0
M  V30 5127 C 479.337 0.903748 -1.44106 0
M  V30 5128 O 480.522 0.883206 -1.72954 0
M  V30 5129 C 477.652 1.19786 -3.25989 0
M  V30 5130 C 476.606 0.580875 -4.2404 0
M  V30 5131 C 475.932 1.71311 -5.06514 0
M  V30 5132 C 477.232 -0.468714 -5.20193 0
M  V30 5133 H 478.926 -0.544441 -2.94408 0
M  V30 5134 H 476.472 -0.263271 -1.41573 0
M  V30 5135 H 478.425 1.71884 -3.84752 0
M  V30 5136 H 477.149 1.94294 -2.62521 0
M  V30 5137 H 475.808 0.0811538 -3.6651 0
M  V30 5138 H 475.456 2.44736 -4.39447 0
M  V30 5139 H 475.156 1.30604 -5.72902 0
M  V30 5140 H 476.68 2.23725 -5.68137 0
M  V30 5141 H 478.094 -0.0336028 -5.7329 0
M  V30 5142 H 476.491 -0.794957 -5.94811 0
M  V30 5143 H 477.561 -1.36269 -4.65359 0
M  V30 5144 N 478.904 1.54736 -0.299062 0
M  V30 5145 C 479.814 2.27127 0.587413 0
M  V30 5146 C 480.83 1.30575 1.15005 0
M  V30 5147 O 482.006 1.63554 1.17525 0
M  V30 5148 C 479.071 2.99645 1.74395 0
M  V30 5149 C 478.132 4.11731 1.21559 0
M  V30 5150 C 477.365 4.80781 2.317 0
M  V30 5151 O 477.588 4.4918 3.51558 0
M  V30 5152 O 476.522 5.68226 1.98501 0
M  V30 5153 H 480.348 3.037 0.000250109 0
M  V30 5154 H 477.933 1.49256 -0.0655919 0
M  V30 5155 H 479.815 3.45138 2.4178 0
M  V30 5156 H 478.49 2.25969 2.31775 0
M  V30 5157 H 477.397 3.70641 0.507514 0
M  V30 5158 H 478.73 4.87379 0.687233 0
M  V30 5159 N 480.382 0.0267497 1.57577 0
M  V30 5160 C 481.345 -0.940916 2.08996 0
M  V30 5161 C 482.345 -1.25561 1.00455 0
M  V30 5162 O 483.535 -1.19634 1.26623 0
M  V30 5163 C 480.667 -2.25814 2.55384 0
M  V30 5164 H 481.86 -0.495628 2.95776 0
M  V30 5165 H 479.413 -0.221241 1.54726 0
M  V30 5166 H 480.148 -2.74976 1.71926 0
M  V30 5167 H 479.933 -2.04285 3.34679 0
M  V30 5168 H 481.423 -2.95178 2.95398 0
M  V30 5169 N 481.861 -1.55662 -0.24637 0
M  V30 5170 C 482.824 -1.89558 -1.28842 0
M  V30 5171 C 483.824 -0.772082 -1.41052 0
M  V30 5172 O 485.014 -1.04007 -1.39743 0
M  V30 5173 C 482.146 -2.12449 -2.66605 0
M  V30 5174 H 483.339 -2.82735 -1.00004 0
M  V30 5175 H 480.892 -1.48562 -0.485684 0
M  V30 5176 H 481.627 -1.21742 -3.00582 0
M  V30 5177 H 481.412 -2.94273 -2.59125 0
M  V30 5178 H 482.902 -2.39854 -3.41847 0
M  V30 5179 N 483.339 0.512053 -1.4905 0
M  V30 5180 C 484.286 1.6148 -1.64902 0
M  V30 5181 C 485.256 1.58687 -0.490673 0
M  V30 5182 O 486.441 1.76842 -0.71636 0
M  V30 5183 C 483.581 2.99676 -1.71139 0
M  V30 5184 C 482.694 3.12568 -2.98203 0
M  V30 5185 C 481.829 4.4143 -2.95487 0
M  V30 5186 C 480.868 4.47916 -4.17179 0
M  V30 5187 N 480.005 5.68191 -4.12437 0
M  V30 5188 H 484.845 1.47271 -2.59066 0
M  V30 5189 H 482.382 0.716713 -1.28459 0
M  V30 5190 H 484.34 3.79761 -1.72736 0
M  V30 5191 H 482.97 3.12614 -0.804508 0
M  V30 5192 H 482.022 2.25618 -3.06269 0
M  V30 5193 H 483.334 3.1322 -3.88194 0
M  V30 5194 H 482.488 5.29825 -2.95585 0
M  V30 5195 H 481.227 4.43326 -2.03256 0
M  V30 5196 H 480.232 3.57925 -4.17337 0
M  V30 5197 H 481.457 4.47744 -5.1059 0
M  V30 5198 H 479.403 5.7095 -3.23036 0
M  V30 5199 H 479.32 5.70413 -4.96151 0
M  V30 5200 H 480.588 6.58823 -4.16621 0
M  V30 5201 N 484.817 1.37938 0.762283 0
M  V30 5202 C 485.747 1.37176 1.88958 0
M  V30 5203 C 486.728 0.238945 1.68413 0
M  V30 5204 O 487.913 0.440726 1.89133 0
M  V30 5205 C 485.043 1.18742 3.2637 0
M  V30 5206 C 483.997 2.29136 3.61498 0
M  V30 5207 C 483.323 1.95816 4.97554 0
M  V30 5208 C 484.623 3.71363 3.6727 0
M  V30 5209 H 486.317 2.31509 1.89853 0
M  V30 5210 H 483.863 1.11438 0.912005 0
M  V30 5211 H 485.816 1.16837 4.04879 0
M  V30 5212 H 484.54 0.208683 3.25933 0
M  V30 5213 H 483.199 2.30213 2.85303 0
M  V30 5214 H 482.847 0.964475 4.93667 0
M  V30 5215 H 482.547 2.69745 5.22026 0
M  V30 5216 H 484.071 1.95513 5.78452 0
M  V30 5217 H 485.485 3.72364 4.35911 0
M  V30 5218 H 483.882 4.44425 4.03245 0
M  V30 5219 H 484.952 4.04305 2.67704 0
M  V30 5220 N 486.295 -0.989507 1.22664 0
M  V30 5221 C 487.542 -1.72953 1.05325 0
M  V30 5222 C 487.87 -1.90104 -0.411168 0
M  V30 5223 O 487.125 -1.44386 -1.32103 0
M  V30 5224 C 487.424 -3.13649 1.71345 0
M  V30 5225 C 487.09 -3.16403 3.21248 0
M  V30 5226 C 485.752 -3.16862 3.62149 0
M  V30 5227 C 488.104 -3.12428 4.17179 0
M  V30 5228 C 485.432 -3.11051 4.97458 0
M  V30 5229 C 487.784 -3.08159 5.52468 0
M  V30 5230 C 486.448 -3.06935 5.92746 0
M  V30 5231 H 485.718 -0.632881 0.385412 0
M  V30 5232 H 488.365 -1.15863 1.52473 0
M  V30 5233 H 486.67 -3.74069 1.16532 0
M  V30 5234 H 488.367 -3.69658 1.55416 0
M  V30 5235 H 484.957 -3.16798 2.88682 0
M  V30 5236 H 489.141 -3.11221 3.86595 0
M  V30 5237 H 484.397 -3.0845 5.27891 0
M  V30 5238 H 488.571 -3.04039 6.26525 0
M  V30 5239 H 486.198 -3.02186 6.97558 0
M  V30 5240 N 487.773 -1.03688 -1.18687 0
M  V30 5241 C 489.021 -0.736572 -1.88199 0
M  V30 5242 C 489.342 0.737665 -1.80509 0
M  V30 5243 O 488.612 1.53204 -1.22088 0
M  V30 5244 H 487.192 -0.269466 -0.696704 0
M  V30 5245 H 489.854 -1.31282 -1.44052 0
M  V30 5246 H 488.95 -1.03802 -2.94332 0
M  V30 5247 N 489.251 1.34841 -0.815825 0
M  V30 5248 C 490.667 1.51543 -0.500697 0
M  V30 5249 C 490.867 1.76261 0.976444 0
M  V30 5250 O 489.923 1.8094 1.76117 0
M  V30 5251 C 491.236 2.68487 -1.35407 0
M  V30 5252 C 492.784 2.82368 -1.35046 0
M  V30 5253 C 493.259 4.02347 -2.18816 0
M  V30 5254 N 494.75 4.09542 -2.16402 0
M  V30 5255 C 495.485 5.01517 -2.77971 0
M  V30 5256 N 494.981 5.98763 -3.48503 0
M  V30 5257 N 496.774 4.94334 -2.67563 0
M  V30 5258 H 488.925 1.17055 -1.77234 0
M  V30 5259 H 491.188 0.573481 -0.754866 0
M  V30 5260 H 490.894 2.56829 -2.40274 0
M  V30 5261 H 490.768 3.63321 -1.01377 0
M  V30 5262 H 493.155 2.93471 -0.309604 0
M  V30 5263 H 493.236 1.88363 -1.73069 0
M  V30 5264 H 492.88 3.92004 -3.22948 0
M  V30 5265 H 492.81 4.95551 -1.78148 0
M  V30 5266 H 495.301 3.39932 -1.65091 0
M  V30 5267 H 495.614 6.6556 -3.92747 0
M  V30 5268 H 493.959 5.98909 -3.52609 0
M  V30 5269 H 497.15 4.1732 -2.12041 0
M  V30 5270 H 497.323 5.6582 -3.15834 0
M  V30 5271 N 490.729 0.570148 1.46925 0
M  V30 5272 C 491.978 0.0487352 2.01641 0
M  V30 5273 C 492.291 -1.31433 1.44861 0
M  V30 5274 O 493.497 -1.92638 1.91318 0
M  V30 5275 C 491.953 0.0365817 3.59881 0
M  V30 5276 C 491.561 1.39719 4.25655 0
M  V30 5277 C 493.305 -0.431545 4.22301 0
M  V30 5278 C 491.212 1.34345 5.75939 0
M  V30 5279 H 490.142 0.0144492 0.753862 0
M  V30 5280 H 492.793 0.719928 1.68788 0
M  V30 5281 H 491.175 -0.700522 3.89755 0
M  V30 5282 H 492.349 2.15303 4.07408 0
M  V30 5283 H 490.664 1.80431 3.75278 0
M  V30 5284 H 493.261 -0.490354 5.32447 0
M  V30 5285 H 493.604 -1.44638 3.90366 0
M  V30 5286 H 494.137 0.251102 3.97007 0
M  V30 5287 H 490.876 2.33469 6.12513 0
M  V30 5288 H 490.396 0.629615 5.96486 0
M  V30 5289 H 492.075 1.051 6.38407 0
M  V30 5290 N 492.207 -1.54576 0.307264 0
M  V30 5291 C 493.137 -2.26708 -0.55907 0
M  V30 5292 C 494.118 -1.26893 -1.1328 0
M  V30 5293 O 495.303 -1.55677 -1.16097 0
M  V30 5294 C 492.433 -3.01259 -1.72801 0
M  V30 5295 C 491.387 -4.08275 -1.28435 0
M  V30 5296 C 490.713 -4.70575 -2.53895 0
M  V30 5297 C 492.013 -5.2068 -0.411038 0
M  V30 5298 H 493.707 -2.9937 0.042576 0
M  V30 5299 H 491.253 -1.43983 0.0219173 0
M  V30 5300 H 493.206 -3.50444 -2.34023 0
M  V30 5301 H 491.93 -2.26187 -2.356 0
M  V30 5302 H 490.589 -3.59949 -0.695161 0
M  V30 5303 H 490.237 -3.92136 -3.15021 0
M  V30 5304 H 489.937 -5.42854 -2.24908 0
M  V30 5305 H 491.461 -5.22527 -3.15908 0
M  V30 5306 H 492.875 -5.65721 -0.929097 0
M  V30 5307 H 491.272 -5.99716 -0.214664 0
M  V30 5308 H 492.342 -4.81629 0.562287 0
M  V30 5309 N 493.685 -0.035106 -1.57561 0
M  V30 5310 C 494.595 0.960295 -2.14046 0
M  V30 5311 C 495.611 1.3529 -1.0942 0
M  V30 5312 O 496.787 1.43309 -1.41508 0
M  V30 5313 C 493.852 2.22214 -2.66124 0
M  V30 5314 C 492.913 1.8894 -3.85487 0
M  V30 5315 C 492.146 3.09109 -4.35072 0
M  V30 5316 O 492.369 4.21963 -3.83802 0
M  V30 5317 O 491.303 2.91058 -5.26848 0
M  V30 5318 H 495.129 0.509983 -2.99387 0
M  V30 5319 H 492.714 0.185853 -1.48239 0
M  V30 5320 H 494.596 2.96279 -2.99661 0
M  V30 5321 H 493.271 2.66414 -1.83862 0
M  V30 5322 H 492.178 1.12241 -3.56865 0
M  V30 5323 H 493.511 1.49551 -4.6893 0
M  V30 5324 N 495.163 1.55791 0.238111 0
M  V30 5325 C 496.073 1.94196 1.31625 0
M  V30 5326 C 497.089 0.843545 1.52185 0
M  V30 5327 O 498.265 1.1457 1.65637 0
M  V30 5328 C 495.33 2.2365 2.64918 0
M  V30 5329 C 494.391 3.46971 2.52804 0
M  V30 5330 C 493.624 3.7501 3.79741 0
M  V30 5331 O 493.847 3.04982 4.82019 0
M  V30 5332 O 492.781 4.68525 3.77846 0
M  V30 5333 H 496.607 2.86044 1.02043 0
M  V30 5334 H 494.192 1.42786 0.439603 0
M  V30 5335 H 496.074 2.43863 3.4367 0
M  V30 5336 H 494.749 1.34979 2.94215 0
M  V30 5337 H 493.656 3.32055 1.72309 0
M  V30 5338 H 494.989 4.35971 2.28451 0
M  V30 5339 N 496.642 -0.504142 1.49319 0
M  V30 5340 C 497.589 -1.60603 1.65756 0
M  V30 5341 C 498.559 -1.58425 0.499082 0
M  V30 5342 O 499.744 -1.76459 0.725728 0
M  V30 5343 C 496.884 -2.98764 1.72726 0
M  V30 5344 C 495.997 -3.10982 2.99857 0
M  V30 5345 C 495.132 -4.39857 2.97824 0
M  V30 5346 C 494.171 -4.45697 4.19548 0
M  V30 5347 N 493.308 -5.65995 4.15444 0
M  V30 5348 H 498.148 -1.45895 2.59843 0
M  V30 5349 H 495.685 -0.709891 1.28837 0
M  V30 5350 H 497.643 -3.78839 1.74747 0
M  V30 5351 H 496.273 -3.12183 0.821075 0
M  V30 5352 H 495.325 -2.23991 3.07461 0
M  V30 5353 H 496.637 -3.11157 3.89849 0
M  V30 5354 H 495.791 -5.2825 2.98391 0
M  V30 5355 H 494.53 -4.42242 2.05604 0
M  V30 5356 H 493.535 -3.55707 4.19229 0
M  V30 5357 H 494.76 -4.4503 5.12957 0
M  V30 5358 H 492.706 -5.69229 3.26059 0
M  V30 5359 H 492.623 -5.67773 4.99169 0
M  V30 5360 H 493.891 -6.56604 4.20109 0
M  V30 5361 N 498.12 -1.38341 -0.754957 0
M  V30 5362 C 499.067 -1.3546 -1.86867 0
M  V30 5363 C 500.037 -0.217369 -1.64672 0
M  V30 5364 O 501.222 -0.409383 -1.86356 0
M  V30 5365 C 498.362 -1.18413 -3.24149 0
M  V30 5366 C 497.475 -2.41511 -3.58185 0
M  V30 5367 C 496.61 -2.17205 -4.84763 0
M  V30 5368 C 495.649 -3.36081 -5.11582 0
M  V30 5369 N 494.786 -3.11219 -6.29354 0
M  V30 5370 H 499.626 -2.30672 -1.88664 0
M  V30 5371 H 497.163 -1.14607 -0.922154 0
M  V30 5372 H 499.121 -1.06545 -4.03366 0
M  V30 5373 H 497.751 -0.268397 -3.21682 0
M  V30 5374 H 496.803 -2.64056 -2.73822 0
M  V30 5375 H 498.115 -3.30115 -3.73932 0
M  V30 5376 H 497.269 -2.02465 -5.7192 0
M  V30 5377 H 496.008 -1.25964 -4.71152 0
M  V30 5378 H 495.013 -3.51341 -4.22894 0
M  V30 5379 H 496.238 -4.28196 -5.27091 0
M  V30 5380 H 494.184 -2.22624 -6.17069 0
M  V30 5381 H 494.101 -3.93373 -6.45596 0
M  V30 5382 H 495.369 -3.00132 -7.19403 0
M  V30 5383 N 499.598 0.982988 -1.23187 0
M  V30 5384 C 500.528 2.09301 -1.03515 0
M  V30 5385 C 501.509 1.70035 0.0471136 0
M  V30 5386 O 502.694 1.93847 -0.117029 0
M  V30 5387 C 499.824 3.4167 -0.622791 0
M  V30 5388 C 498.778 3.94828 -1.65211 0
M  V30 5389 C 498.104 5.23362 -1.09527 0
M  V30 5390 C 499.404 4.2439 -3.04451 0
M  V30 5391 H 501.098 2.26016 -1.96359 0
M  V30 5392 H 498.644 1.08611 -0.945501 0
M  V30 5393 H 500.597 4.18746 -0.472233 0
M  V30 5394 H 499.321 3.24811 0.341329 0
M  V30 5395 H 497.98 3.19895 -1.79061 0
M  V30 5396 H 497.628 5.02852 -0.122211 0
M  V30 5397 H 497.328 5.59895 -1.783 0
M  V30 5398 H 498.852 6.03062 -0.956511 0
M  V30 5399 H 500.266 4.92225 -2.93917 0
M  V30 5400 H 498.663 4.72118 -3.70438 0
M  V30 5401 H 499.733 3.31765 -3.53638 0
M  V30 5402 N 501.076 1.04316 1.18135 0
M  V30 5403 C 502.301 0.768047 1.92655 0
M  V30 5404 C 502.726 -0.66904 1.758 0
M  V30 5405 O 502.084 -1.46372 1.06981 0
M  V30 5406 C 502.132 1.14239 3.42026 0
M  V30 5407 O 501.236 0.269333 4.1152 0
M  V30 5408 H 500.577 0.282436 0.600937 0
M  V30 5409 H 503.107 1.39367 1.49793 0
M  V30 5410 H 503.117 1.10538 3.92741 0
M  V30 5411 H 501.792 2.18928 3.53615 0
M  V30 5412 H 500.369 0.366175 3.71098 0
M  V30 5413 N 502.554 -1.34406 0.822964 0
M  V30 5414 C 503.97 -1.51275 0.508727 0
M  V30 5415 C 504.17 -1.76776 -0.967083 0
M  V30 5416 O 503.226 -1.81871 -1.75155 0
M  V30 5417 C 504.539 -2.67765 1.36829 0
M  V30 5418 C 506.087 -2.81647 1.36542 0
M  V30 5419 C 506.562 -4.01181 2.20947 0
M  V30 5420 N 508.053 -4.08388 2.18571 0
M  V30 5421 C 508.788 -5.00036 2.80627 0
M  V30 5422 N 508.284 -5.96906 3.51674 0
M  V30 5423 N 510.077 -4.92908 2.70181 0
M  V30 5424 H 502.228 -1.16113 1.77852 0
M  V30 5425 H 504.491 -0.56947 0.757897 0
M  V30 5426 H 504.197 -2.55551 2.41633 0
M  V30 5427 H 504.071 -3.62779 1.03303 0
M  V30 5428 H 506.458 -2.93303 0.325163 0
M  V30 5429 H 506.539 -1.87443 1.74066 0
M  V30 5430 H 506.183 -3.90286 3.25022 0
M  V30 5431 H 506.113 -4.94599 1.80774 0
M  V30 5432 H 508.604 -3.39051 1.66891 0
M  V30 5433 H 508.917 -6.63468 3.96271 0
M  V30 5434 H 507.262 -5.9703 3.5578 0
M  V30 5435 H 510.453 -4.1619 2.14251 0
M  V30 5436 H 510.626 -5.64137 3.18831 0
M  V30 5437 N 504.032 -0.577932 -1.46621 0
M  V30 5438 C 504.965 0.206312 -2.27265 0
M  V30 5439 C 505.943 0.901306 -1.35334 0
M  V30 5440 O 507.127 0.916151 -1.64739 0
M  V30 5441 C 504.254 1.29563 -3.1294 0
M  V30 5442 C 503.3 0.706981 -4.206 0
M  V30 5443 S 504.133 -0.462459 -5.33499 0
M  V30 5444 C 505.289 0.628171 -6.2274 0
M  V30 5445 H 505.522 -0.477961 -2.93433 0
M  V30 5446 H 503.055 -0.364715 -1.50031 0
M  V30 5447 H 505.013 1.91935 -3.62865 0
M  V30 5448 H 503.674 1.95183 -2.46095 0
M  V30 5449 H 502.867 1.52565 -4.80354 0
M  V30 5450 H 502.469 0.159022 -3.73662 0
M  V30 5451 H 504.761 1.51506 -6.60342 0
M  V30 5452 H 505.704 0.0674961 -7.08068 0
M  V30 5453 H 506.112 0.930167 -5.56784 0
M  V30 5454 N 505.51 1.54411 -0.315457 0
M  V30 5455 C 506.921 1.85885 0.174265 0
M  V30 5456 C 507.272 1.23723 1.52273 0
M  V30 5457 O 506.397 0.540246 2.09548 0
M  V30 5458 C 506.992 3.37257 0.322981 0
M  V30 5459 C 505.551 3.68711 0.756922 0
M  V30 5460 C 504.698 2.77013 -0.126195 0
M  V30 5461 H 507.649 1.49374 -0.536007 0
M  V30 5462 H 507.67 3.62539 1.15522 0
M  V30 5463 H 507.182 3.82471 -0.658602 0
M  V30 5464 H 505.283 3.29024 1.74854 0
M  V30 5465 H 505.396 4.75741 0.566291 0
M  V30 5466 H 503.76 2.51588 0.39692 0
M  V30 5467 H 504.543 3.25051 -1.1044 0
M  V30 5468 N 506.988 0.0434614 1.5754 0
M  V30 5469 C 508.399 -0.493343 1.80064 0
M  V30 5470 C 508.75 -1.71388 0.955023 0
M  V30 5471 O 507.875 -2.15736 0.169434 0
M  V30 5472 C 508.47 -0.90179 3.26578 0
M  V30 5473 C 507.029 -1.38362 3.50047 0
M  V30 5474 C 506.176 -0.355129 2.75017 0
M  V30 5475 H 509.127 0.2694 1.56397 0
M  V30 5476 H 509.148 -1.76523 3.37075 0
M  V30 5477 H 508.66 -0.013271 3.88098 0
M  V30 5478 H 506.761 -2.29159 2.93798 0
M  V30 5479 H 506.874 -1.3811 4.58762 0
M  V30 5480 H 505.238 -0.826348 2.40922 0
M  V30 5481 H 506.021 0.525172 3.39259 0
M  V30 5482 N 508.466 -1.55915 -0.229846 0
M  V30 5483 C 509.691 -1.8296 -0.976743 0
M  V30 5484 C 510.116 -0.622735 -1.77493 0
M  V30 5485 O 509.474 0.428431 -1.76165 0
M  V30 5486 C 509.522 -3.07916 -1.8767 0
M  V30 5487 O 508.626 -2.86028 -2.97088 0
M  V30 5488 H 507.967 -0.603453 -0.277021 0
M  V30 5489 H 510.497 -2.0312 -0.245669 0
M  V30 5490 H 510.507 -3.37802 -2.2881 0
M  V30 5491 H 509.182 -3.95389 -1.28996 0
M  V30 5492 H 507.759 -2.67355 -2.59954 0
M  V30 5493 N 509.944 0.496216 -1.49584 0
M  V30 5494 C 510.894 1.59422 -1.62999 0
M  V30 5495 C 511.878 1.53402 -0.485457 0
M  V30 5496 O 513.07 1.60851 -0.738649 0
M  V30 5497 C 510.199 2.98009 -1.70427 0
M  V30 5498 C 509.285 3.09008 -2.90473 0
M  V30 5499 N 509.676 2.89884 -4.14489 0
M  V30 5500 C 507.974 3.40115 -2.8851 0
M  V30 5501 C 508.675 3.0519 -4.95211 0
M  V30 5502 N 507.651 3.3428 -4.2867 0
M  V30 5503 H 511.453 1.43297 -2.56599 0
M  V30 5504 H 508.967 0.702443 -1.46422 0
M  V30 5505 H 510.964 3.76926 -1.78136 0
M  V30 5506 H 509.624 3.152 -0.77967 0
M  V30 5507 H 510.635 2.65963 -4.44392 0
M  V30 5508 H 507.312 3.63452 -2.05448 0
M  V30 5509 H 508.702 2.94856 -6.03746 0
M  V30 5510 N 511.423 1.38739 0.74761 0
M  V30 5511 C 512.353 1.39173 1.87492 0
M  V30 5512 C 513.334 0.256794 1.6815 0
M  V30 5513 O 514.519 0.460762 1.88655 0
M  V30 5514 C 511.649 1.22197 3.25093 0
M  V30 5515 C 510.603 2.32957 3.59047 0
M  V30 5516 C 509.929 2.01082 4.95449 0
M  V30 5517 C 511.229 3.75237 3.6331 0
M  V30 5518 H 512.923 2.3351 1.87386 0
M  V30 5519 H 510.469 1.12399 0.900134 0
M  V30 5520 H 512.422 1.21124 4.03617 0
M  V30 5521 H 511.146 0.243241 3.25693 0
M  V30 5522 H 509.805 2.33226 2.82845 0
M  V30 5523 H 509.453 1.01678 4.92616 0
M  V30 5524 H 509.153 2.75267 5.19136 0
M  V30 5525 H 510.677 2.01638 5.76346 0
M  V30 5526 H 512.091 3.76966 4.31937 0
M  V30 5527 H 510.488 4.48677 3.98509 0
M  V30 5528 H 511.558 4.07122 2.634 0
M  V30 5529 O 512.94 -0.888371 1.34871 0
M  V30 5530 H 513.631 -1.52504 1.19424 0
M  V30 END ATOM
M  V30 BEGIN BOND
M  V30 END BOND
M  V30 END CTAB
M  END
$$$$
