drugbank_target|P12915 Genome polyprotein (DB08231)
 OpenBabel12092120483D

  0  0  0     0  0            999 V3000
M  V30 BEGIN CTAB
M  V30 COUNTS 33867 34273 0 0 0
M  V30 BEGIN ATOM
M  V30 1 H -0.908 1.98254 -0.117106 0
M  V30 2 N 0 1.576 0 0
M  V30 3 C 0.933 2.03868 1.02534 0
M  V30 4 C 1.911 0.928543 1.3348 0
M  V30 5 O 3.095 1.19667 1.45644 0
M  V30 6 C 0.222 2.43627 2.35294 0
M  V30 7 C -0.732 3.65373 2.2001 0
M  V30 8 S 0.101 5.13292 1.52614 0
M  V30 9 C 1.257 5.56322 2.86805 0
M  V30 10 H 1.49 2.90518 0.631377 0
M  V30 11 H -0.977 1.52953 0.210867 0
M  V30 12 H 0.981 2.67203 3.11629 0
M  V30 13 H -0.358 1.57376 2.7183 0
M  V30 14 H -1.165 3.90944 3.18086 0
M  V30 15 H -1.563 3.418 1.51819 0
M  V30 16 H 0.729 5.58782 3.83104 0
M  V30 17 H 1.672 6.56266 2.65933 0
M  V30 18 H 2.08 4.83886 2.90714 0
M  V30 19 N 1.4781 -0.272755 1.55222 0
M  V30 20 C 2.7261 -1.00234 1.75492 0
M  V30 21 C 3.0471 -1.8681 0.5592 0
M  V30 22 O 2.3171 -1.91215 -0.425882 0
M  V30 23 H 0.8971 -0.373076 0.647166 0
M  V30 24 H 3.5591 -0.296926 1.92625 0
M  V30 25 H 2.6551 -1.63913 2.65592 0
M  V30 26 N 2.9562 -1.48159 -0.537278 0
M  V30 27 C 3.9192 -1.61665 -1.62472 0
M  V30 28 C 4.9192 -0.490395 -1.5314 0
M  V30 29 O 6.1092 -0.755998 -1.5694 0
M  V30 30 C 3.2412 -1.57997 -3.02076 0
M  V30 31 H 4.4342 -2.58621 -1.51839 0
M  V30 32 H 1.9872 -1.36647 -0.758771 0
M  V30 33 H 2.7222 -0.624913 -3.18222 0
M  V30 34 H 2.5072 -2.39755 -3.10258 0
M  V30 35 H 3.9972 -1.70627 -3.81151 0
M  V30 36 N 4.4343 0.785586 -1.36625 0
M  V30 37 C 5.3663 1.90711 -1.2713 0
M  V30 38 C 6.3793 1.61688 -0.189986 0
M  V30 39 O 7.5683 1.72864 -0.445014 0
M  V30 40 C 4.6683 3.25611 -0.939713 0
M  V30 41 C 3.8413 3.82385 -2.12369 0
M  V30 42 C 2.9003 4.95732 -1.76456 0
M  V30 43 O 1.9263 5.12047 -2.48589 0
M  V30 44 N 3.1283 5.76258 -0.700492 0
M  V30 45 H 5.8933 1.99376 -2.23762 0
M  V30 46 H 3.4543 0.964041 -1.30069 0
M  V30 47 H 5.4463 3.98937 -0.680554 0
M  V30 48 H 4.0163 3.12538 -0.0624074 0
M  V30 49 H 3.2363 3.01001 -2.54543 0
M  V30 50 H 4.5243 4.17047 -2.9146 0
M  V30 51 H 3.9223 5.65609 -0.101624 0
M  V30 52 H 2.4793 6.4987 -0.501165 0
M  V30 53 N 5.9124 1.20967 1.01018 0
M  V30 54 C 6.8424 0.988272 2.11555 0
M  V30 55 C 7.8234 -0.0849778 1.69888 0
M  V30 56 O 9.0084 0.0738202 1.9406 0
M  V30 57 C 6.1384 0.546528 3.42973 0
M  V30 58 C 5.0924 1.56375 3.9841 0
M  V30 59 C 4.4184 0.97842 5.25672 0
M  V30 60 C 5.7184 2.94922 4.31066 0
M  V30 61 H 7.4124 1.91276 2.30334 0
M  V30 62 H 4.9584 0.921073 1.1069 0
M  V30 63 H 6.9114 0.378839 4.19694 0
M  V30 64 H 5.6354 -0.413598 3.23971 0
M  V30 65 H 4.2944 1.71891 3.23804 0
M  V30 66 H 3.9424 0.0101688 5.02999 0
M  V30 67 H 3.6424 1.65784 5.63728 0
M  V30 68 H 5.1664 0.821939 6.05043 0
M  V30 69 H 6.5804 2.8288 4.9865 0
M  V30 70 H 4.9774 3.5983 4.80253 0
M  V30 71 H 6.0474 3.4616 3.39561 0
M  V30 72 N 7.3905 -1.2043 1.01659 0
M  V30 73 C 8.6155 -1.94318 0.724942 0
M  V30 74 C 9.0405 -1.74266 -0.708034 0
M  V30 75 O 8.3985 -1.03694 -1.48719 0
M  V30 76 C 8.4465 -3.44486 1.06591 0
M  V30 77 O 7.5505 -4.12017 0.177599 0
M  V30 78 H 6.8915 -0.60708 0.26898 0
M  V30 79 H 9.4215 -1.52861 1.35995 0
M  V30 80 H 9.4315 -3.95106 1.01762 0
M  V30 81 H 8.1065 -3.58404 2.10997 0
M  V30 82 H 6.6835 -3.71821 0.283421 0
M  V30 83 N 8.8686 -0.792821 -1.36206 0
M  V30 84 C 10.2846 -0.474903 -1.52371 0
M  V30 85 C 10.4846 1.00622 -1.74578 0
M  V30 86 O 9.5406 1.79162 -1.77924 0
M  V30 87 C 10.8536 -1.3083 -2.70747 0
M  V30 88 C 12.4016 -1.30234 -2.84619 0
M  V30 89 C 12.8766 -2.11956 -4.06004 0
M  V30 90 N 14.3676 -2.09419 -4.13156 0
M  V30 91 C 15.1026 -2.69419 -5.06163 0
M  V30 92 N 14.5986 -3.3829 -6.04592 0
M  V30 93 N 16.3916 -2.59134 -4.98804 0
M  V30 94 H 8.5426 -1.75222 -1.20046 0
M  V30 95 H 10.8056 -0.745024 -0.586211 0
M  V30 96 H 10.5116 -2.35881 -2.6087 0
M  V30 97 H 10.3856 -0.95196 -3.6499 0
M  V30 98 H 12.7726 -0.259748 -2.93955 0
M  V30 99 H 12.8536 -1.69847 -1.91274 0
M  V30 100 H 12.4976 -3.16248 -3.97429 0
M  V30 101 H 12.4276 -1.69711 -4.98503 0
M  V30 102 H 14.9186 -1.59297 -3.42685 0
M  V30 103 H 15.2316 -3.81394 -6.7213 0
M  V30 104 H 13.5766 -3.42393 -6.04807 0
M  V30 105 H 16.7676 -2.04927 -4.20859 0
M  V30 106 H 16.9406 -3.06185 -5.711 0
M  V30 107 N 10.3467 1.47872 -0.545128 0
M  V30 108 C 11.2947 2.31533 0.222512 0
M  V30 109 C 12.2887 1.42177 0.920985 0
M  V30 110 O 13.4947 1.59005 0.843645 0
M  V30 111 H 9.8697 0.746519 0.0906278 0
M  V30 112 H 11.8407 2.94139 -0.50246 0
M  V30 113 C 10.5897 3.2457 1.24699 0
M  V30 114 H 9.9127 3.93283 0.718944 0
M  V30 115 H 11.3527 3.85963 1.75523 0
M  V30 116 C 9.8117 2.47237 2.28856 0
M  V30 117 O 10.3417 2.20808 3.35569 0
M  V30 118 N 8.5477 2.08461 2.02466 0
M  V30 119 H 8.0947 2.30155 1.157 0
M  V30 120 H 8.0527 1.57033 2.72375 0
M  V30 121 N 11.8248 0.280983 1.55075 0
M  V30 122 C 13.0528 -0.337293 2.04132 0
M  V30 123 C 13.4678 -1.4903 1.15912 0
M  V30 124 O 12.8248 -1.81606 0.180459 0
M  V30 125 C 12.8758 -0.812706 3.52246 0
M  V30 126 O 12.5968 0.294387 4.3711 0
M  V30 127 C 14.0978 -1.4982 4.17216 0
M  V30 128 H 11.3178 -0.0761638 0.666663 0
M  V30 129 H 13.8618 0.414787 2.00249 0
M  V30 130 H 12.0168 -1.51486 3.56554 0
M  V30 131 H 12.4308 -0.0721325 5.2445 0
M  V30 132 H 13.9048 -1.7822 5.22438 0
M  V30 133 H 14.3818 -2.43168 3.65741 0
M  V30 134 H 14.9878 -0.839742 4.16927 0
M  V30 135 N 13.3029 -1.57598 0.00835791 0
M  V30 136 C 14.2659 -2.07884 -0.965242 0
M  V30 137 C 15.2659 -0.989825 -1.26725 0
M  V30 138 O 16.4559 -1.25218 -1.21104 0
M  V30 139 C 13.5879 -2.52731 -2.28779 0
M  V30 140 H 14.7809 -2.95178 -0.530112 0
M  V30 141 H 12.3339 -1.54458 -0.239283 0
M  V30 142 H 13.0689 -1.68705 -2.76964 0
M  V30 143 H 12.8539 -3.32272 -2.08177 0
M  V30 144 H 14.3439 -2.91933 -2.98605 0
M  V30 145 N 14.781 0.264519 -1.55364 0
M  V30 146 C 16.029 0.993021 -1.76021 0
M  V30 147 C 16.35 1.86511 -0.569099 0
M  V30 148 O 15.62 1.91438 0.415735 0
M  V30 149 H 14.2 0.369639 -0.649135 0
M  V30 150 H 16.862 0.286707 -1.9278 0
M  V30 151 H 15.958 1.62502 -2.66457 0
M  V30 152 N 16.2591 1.48442 0.529413 0
M  V30 153 C 17.4841 1.60406 1.31471 0
M  V30 154 C 17.9091 0.264738 1.86228 0
M  V30 155 O 17.2671 -0.763668 1.64432 0
M  V30 156 C 17.3151 2.65419 2.44101 0
M  V30 157 O 16.4191 2.22618 3.47153 0
M  V30 158 H 15.7601 0.537863 0.389357 0
M  V30 159 H 18.2901 1.94432 0.636965 0
M  V30 160 H 18.3001 2.86709 2.90279 0
M  V30 161 H 16.9751 3.62652 2.03608 0
M  V30 162 H 15.5521 2.11543 3.0709 0
M  V30 163 N 17.7372 -0.778329 1.37039 0
M  V30 164 C 18.6872 -1.88142 1.28789 0
M  V30 165 C 19.6712 -1.59923 0.177063 0
M  V30 166 O 20.8632 -1.72165 0.410873 0
M  V30 167 C 17.9922 -3.25518 1.09055 0
M  V30 168 C 17.0782 -3.5971 2.24654 0
M  V30 169 N 17.4692 -3.65131 3.50018 0
M  V30 170 C 15.7672 -3.89837 2.16663 0
M  V30 171 C 16.4682 -3.95882 4.26207 0
M  V30 172 N 15.4442 -4.11441 3.55271 0
M  V30 173 H 19.2462 -1.90575 2.23737 0
M  V30 174 H 16.7602 -0.974435 1.29917 0
M  V30 175 H 18.7572 -4.04423 1.0123 0
M  V30 176 H 17.4172 -3.24353 0.15018 0
M  V30 177 H 18.4282 -3.475 3.84011 0
M  V30 178 H 15.1052 -3.96533 1.30645 0
M  V30 179 H 16.4952 -4.06907 5.34674 0
M  V30 180 N 19.2153 -1.21501 -1.00376 0
M  V30 181 C 20.4433 -1.059 -1.77744 0
M  V30 182 C 20.8583 0.391125 -1.84704 0
M  V30 183 O 20.2153 1.27133 -1.30933 0
M  V30 184 C 20.2663 -1.65111 -3.21591 0
M  V30 185 O 19.9873 -3.0445 -3.15027 0
M  V30 186 C 21.4883 -1.54637 -4.15454 0
M  V30 187 H 18.7083 -0.371825 -0.558558 0
M  V30 188 H 21.2523 -1.60865 -1.26264 0
M  V30 189 H 19.4073 -1.14235 -3.70175 0
M  V30 190 H 19.8213 -3.3278 -4.0541 0
M  V30 191 H 21.2953 -2.00808 -5.14179 0
M  V30 192 H 21.7723 -0.501022 -4.36333 0
M  V30 193 H 22.3783 -2.04767 -3.72761 0
M  V30 194 N 20.6934 1.19889 -1.02296 0
M  V30 195 C 21.9214 1.9339 -0.735399 0
M  V30 196 C 22.3364 1.75148 0.704887 0
M  V30 197 O 21.6934 1.06954 1.47875 0
M  V30 198 C 21.7444 3.45313 -1.06962 0
M  V30 199 O 21.4654 3.62964 -2.45334 0
M  V30 200 C 22.9664 4.35948 -0.804021 0
M  V30 201 H 20.1864 0.61448 -0.269546 0
M  V30 202 H 22.7304 1.522 -1.36585 0
M  V30 203 H 20.8854 3.84359 -0.484455 0
M  V30 204 H 21.2994 4.56886 -2.57595 0
M  V30 205 H 22.7734 5.41174 -1.0879 0
M  V30 206 H 23.2504 4.3842 0.261691 0
M  V30 207 H 23.8564 4.02574 -1.37164 0
M  V30 208 N 22.1715 0.800033 1.35784 0
M  V30 209 C 23.4195 0.376597 1.9856 0
M  V30 210 C 23.7405 -1.05812 1.63795 0
M  V30 211 O 23.0105 -1.73103 0.917171 0
M  V30 212 H 21.5905 0.136261 0.734467 0
M  V30 213 H 24.2525 1.02442 1.65806 0
M  V30 214 H 23.3485 0.477002 3.08433 0
M  V30 215 N 23.6496 -1.47581 0.552962 0
M  V30 216 C 24.8776 -2.06875 0.0320556 0
M  V30 217 C 25.2926 -1.40625 -1.25976 0
M  V30 218 O 24.6496 -0.501349 -1.75479 0
M  V30 219 C 24.7006 -3.61092 -0.17167 0
M  V30 220 O 24.4216 -4.24858 1.06899 0
M  V30 221 C 25.9226 -4.37242 -0.730344 0
M  V30 222 H 23.1426 -0.669561 0.043915 0
M  V30 223 H 25.6866 -1.89646 0.765163 0
M  V30 224 H 23.8416 -3.7785 -0.854894 0
M  V30 225 H 24.2556 -5.17334 0.864059 0
M  V30 226 H 25.7296 -5.45842 -0.822203 0
M  V30 227 H 26.2066 -4.03235 -1.74064 0
M  V30 228 H 26.8126 -4.25219 -0.0829543 0
M  V30 229 N 25.1277 -0.289203 -1.54924 0
M  V30 230 C 26.3577 0.325989 -2.04012 0
M  V30 231 C 26.7657 1.48961 -1.1665 0
M  V30 232 O 26.1087 1.82794 -0.1822 0
M  V30 233 C 26.1707 0.856112 -3.49158 0
M  V30 234 C 25.8347 -0.180697 -4.56643 0
M  V30 235 C 26.8317 -1.0051 -5.10092 0
M  V30 236 C 24.5167 -0.318998 -5.01286 0
M  V30 237 C 26.5107 -1.95385 -6.06715 0
M  V30 238 C 24.1977 -1.27121 -5.97732 0
M  V30 239 C 25.1957 -2.08713 -6.50329 0
M  V30 240 O 24.8837 -3.02322 -7.44887 0
M  V30 241 H 24.6157 0.0765276 -0.671654 0
M  V30 242 H 27.1697 -0.423254 -2.00992 0
M  V30 243 H 25.3997 1.65567 -3.49463 0
M  V30 244 H 27.0887 1.38591 -3.81507 0
M  V30 245 H 27.8547 -0.90906 -4.76404 0
M  V30 246 H 23.7337 0.306108 -4.59983 0
M  V30 247 H 27.2777 -2.59111 -6.47694 0
M  V30 248 H 23.1747 -1.36801 -6.30837 0
M  V30 249 H 23.9427 -2.97165 -7.6265 0
M  V30 250 N 26.6058 1.57591 -0.0167156 0
M  V30 251 C 27.5688 2.08393 0.954204 0
M  V30 252 C 28.5688 0.996531 1.26198 0
M  V30 253 O 29.7588 1.25858 1.20438 0
M  V30 254 C 26.8908 2.5394 2.27436 0
M  V30 255 H 28.0838 2.95455 0.514451 0
M  V30 256 H 25.6368 1.54582 0.231089 0
M  V30 257 H 26.3718 1.70171 2.76066 0
M  V30 258 H 26.1568 3.33371 2.06412 0
M  V30 259 H 27.6468 2.93512 2.97053 0
M  V30 260 N 28.0839 -0.256276 1.55502 0
M  V30 261 C 29.3119 -1.00342 1.8094 0
M  V30 262 C 29.7269 -1.79307 0.59114 0
M  V30 263 O 29.0839 -1.77114 -0.440081 0
M  V30 264 C 29.1349 -1.94875 3.04476 0
M  V30 265 O 28.8559 -1.19107 4.21598 0
M  V30 266 C 30.3569 -2.81266 3.42644 0
M  V30 267 H 27.5769 -0.295685 0.602338 0
M  V30 268 H 30.1209 -0.281998 2.02546 0
M  V30 269 H 28.2759 -2.62457 2.84947 0
M  V30 270 H 28.6899 -1.82969 4.91551 0
M  V30 271 H 30.1639 -3.43362 4.32211 0
M  V30 272 H 30.6409 -3.51897 2.62802 0
M  V30 273 H 31.2469 -2.1915 3.64491 0
M  V30 274 N 29.562 -1.4872 -0.521534 0
M  V30 275 C 30.81 -1.56857 -1.27437 0
M  V30 276 C 31.131 -0.247982 -1.93417 0
M  V30 277 O 30.401 0.731151 -1.81744 0
M  V30 278 H 28.981 -0.577885 -0.473347 0
M  V30 279 H 31.643 -1.85233 -0.606205 0
M  V30 280 H 30.739 -2.35402 -2.0492 0
M  V30 281 N 31.0401 0.771051 -1.3745 0
M  V30 282 C 32.2881 1.52661 -1.32435 0
M  V30 283 C 32.6091 1.9479 0.0905024 0
M  V30 284 O 31.8791 1.66348 1.03466 0
M  V30 285 H 30.4591 0.566218 -0.487244 0
M  V30 286 H 33.1211 0.917636 -1.71946 0
M  V30 287 H 32.2171 2.42568 -1.96385 0
M  V30 288 N 32.5182 1.22032 0.997298 0
M  V30 289 C 33.7432 1.06921 1.77715 0
M  V30 290 C 34.1682 -0.376226 1.84299 0
M  V30 291 O 33.5262 -1.27165 1.29223 0
M  V30 292 C 33.5742 1.67996 3.19076 0
M  V30 293 O 32.6782 0.930653 4.01762 0
M  V30 294 H 32.0192 0.375814 0.547412 0
M  V30 295 H 34.5492 1.61737 1.25309 0
M  V30 296 H 34.5592 1.72538 3.69723 0
M  V30 297 H 33.2342 2.73182 3.13599 0
M  V30 298 H 31.8112 0.960917 3.60307 0
M  V30 299 N 33.9963 -1.19345 1.0293 0
M  V30 300 C 35.2243 -1.92997 0.745644 0
M  V30 301 C 35.6393 -1.75519 -0.695589 0
M  V30 302 O 34.9963 -1.07737 -1.47306 0
M  V30 303 C 35.0473 -3.44741 1.08792 0
M  V30 304 O 34.7683 -3.61658 2.47256 0
M  V30 305 C 36.2693 -4.35515 0.827129 0
M  V30 306 H 33.4893 -0.613042 0.272801 0
M  V30 307 H 36.0333 -1.51473 1.3739 0
M  V30 308 H 34.1883 -3.84097 0.504832 0
M  V30 309 H 34.6023 -4.55514 2.60015 0
M  V30 310 H 36.0763 -5.40589 1.11658 0
M  V30 311 H 36.5533 -4.38552 -0.238436 0
M  V30 312 H 37.1593 -4.01841 1.39297 0
M  V30 313 N 35.4744 -0.807222 -1.35358 0
M  V30 314 C 36.7234 -0.384376 -1.98004 0
M  V30 315 C 37.0364 1.0543 -1.64754 0
M  V30 316 O 38.2424 1.58029 -2.20769 0
M  V30 317 C 36.6984 -0.636326 -3.5423 0
M  V30 318 C 36.3064 -2.08759 -3.96388 0
M  V30 319 C 38.0504 -0.278869 -4.23583 0
M  V30 320 C 35.9574 -2.28525 -5.45463 0
M  V30 321 H 34.8874 -0.139986 -0.740891 0
M  V30 322 H 37.5384 -0.991369 -1.54415 0
M  V30 323 H 35.9204 0.0406256 -3.95979 0
M  V30 324 H 37.0944 -2.8024 -3.6579 0
M  V30 325 H 35.4094 -2.40497 -3.39926 0
M  V30 326 H 38.0064 -0.404599 -5.33167 0
M  V30 327 H 38.3494 0.775012 -4.09022 0
M  V30 328 H 38.8824 -0.909764 -3.87257 0
M  V30 329 H 35.6214 -3.32361 -5.64992 0
M  V30 330 H 35.1414 -1.61569 -5.77629 0
M  V30 331 H 36.8204 -2.10109 -6.11934 0
M  V30 332 N 36.9525 1.47285 -0.560781 0
M  V30 333 C 37.9005 2.31756 0.197942 0
M  V30 334 C 38.8945 1.43146 0.905854 0
M  V30 335 O 40.1005 1.59891 0.826733 0
M  V30 336 H 36.4755 0.747438 0.0827049 0
M  V30 337 H 38.4465 2.9359 -0.533629 0
M  V30 338 C 37.1955 3.25874 1.21249 0
M  V30 339 H 36.5185 3.94023 0.67719 0
M  V30 340 H 37.9585 3.87803 1.71419 0
M  V30 341 C 36.4175 2.49651 2.26221 0
M  V30 342 O 36.9475 2.24355 3.33208 0
M  V30 343 N 35.1535 2.10597 2.00243 0
M  V30 344 H 34.7005 2.31369 1.13252 0
M  V30 345 H 34.6585 1.59913 2.70694 0
M  V30 346 N 38.4306 0.297415 1.54768 0
M  V30 347 C 39.6606 -0.315165 2.04182 0
M  V30 348 C 40.0686 -1.4834 1.17439 0
M  V30 349 O 39.4116 -1.82695 0.191891 0
M  V30 350 C 39.4736 -0.837583 3.49607 0
M  V30 351 C 39.1376 0.204912 4.5654 0
M  V30 352 C 40.1346 1.03214 5.09552 0
M  V30 353 C 37.8196 0.345578 5.0111 0
M  V30 354 C 39.8136 1.986 6.05671 0
M  V30 355 C 37.5006 1.30289 5.97049 0
M  V30 356 C 38.4986 2.12159 6.49213 0
M  V30 357 O 38.1866 3.06268 7.43273 0
M  V30 358 H 37.9186 -0.0729646 0.672051 0
M  V30 359 H 40.4726 0.433907 2.00765 0
M  V30 360 H 38.7026 -1.63712 3.50336 0
M  V30 361 H 40.3916 -1.36566 3.82236 0
M  V30 362 H 41.1576 0.934312 4.75916 0
M  V30 363 H 37.0366 -0.28171 4.60138 0
M  V30 364 H 40.5806 2.62542 6.46311 0
M  V30 365 H 36.4776 1.40145 6.30103 0
M  V30 366 H 37.2456 3.01205 7.61064 0
M  V30 367 N 39.9087 -1.5758 0.0250728 0
M  V30 368 C 40.8567 -2.11125 -0.97617 0
M  V30 369 C 41.8507 -1.03689 -1.33959 0
M  V30 370 O 43.0567 -1.22128 -1.3223 0
M  V30 371 H 39.4317 -0.674468 -0.332561 0
M  V30 372 H 41.4027 -2.94194 -0.499223 0
M  V30 373 C 40.1517 -2.65017 -2.2508 0
M  V30 374 H 39.4747 -3.47333 -1.9799 0
M  V30 375 H 40.9147 -3.06133 -2.93357 0
M  V30 376 C 39.3737 -1.57574 -2.97779 0
M  V30 377 O 39.9037 -0.973203 -3.89733 0
M  V30 378 N 38.1097 -1.29716 -2.60043 0
M  V30 379 H 37.6567 -1.789 -1.85345 0
M  V30 380 H 37.6147 -0.58051 -3.08994 0
M  V30 381 N 41.3868 0.248026 -1.55636 0
M  V30 382 C 42.3348 1.32683 -1.91045 0
M  V30 383 C 43.3288 1.49883 -0.789401 0
M  V30 384 O 44.5348 1.51371 -0.974007 0
M  V30 385 H 40.9098 0.444272 -0.606734 0
M  V30 386 H 42.8808 1.00085 -2.81115 0
M  V30 387 C 41.6298 2.6755 -2.22064 0
M  V30 388 H 40.9528 2.55114 -3.07826 0
M  V30 389 H 42.3928 3.41912 -2.50743 0
M  V30 390 C 40.8518 3.20556 -1.0366 0
M  V30 391 O 41.3818 4.00695 -0.284016 0
M  V30 392 N 39.5878 2.78568 -0.82753 0
M  V30 393 H 39.1348 2.1351 -1.44123 0
M  V30 394 H 39.0928 3.14378 -0.0369803 0
M  V30 395 N 42.8649 1.48995 0.513639 0
M  V30 396 C 44.1139 1.57093 1.2651 0
M  V30 397 C 44.4269 0.257091 1.93903 0
M  V30 398 O 45.6329 0.216478 2.70636 0
M  V30 399 C 44.0889 2.77118 2.29638 0
M  V30 400 C 43.6969 4.15209 1.68241 0
M  V30 401 C 45.4409 2.94538 3.05692 0
M  V30 402 C 43.3479 5.26474 2.69406 0
M  V30 403 H 42.2779 0.584876 0.475854 0
M  V30 404 H 44.9289 1.7536 0.540487 0
M  V30 405 H 43.3109 2.52319 3.05207 0
M  V30 406 H 44.4849 4.50094 0.987505 0
M  V30 407 H 42.7999 4.03042 1.04623 0
M  V30 408 H 45.3969 3.74832 3.8132 0
M  V30 409 H 45.7399 2.04614 3.62545 0
M  V30 410 H 46.2729 3.19316 2.37238 0
M  V30 411 H 43.0119 6.18417 2.17351 0
M  V30 412 H 42.5319 4.96058 3.37175 0
M  V30 413 H 44.2109 5.55277 3.32078 0
M  V30 414 N 44.343 -0.763751 1.37857 0
M  V30 415 C 45.291 -1.89864 1.34367 0
M  V30 416 C 46.285 -1.67816 0.231143 0
M  V30 417 O 47.491 -1.75508 0.399617 0
M  V30 418 H 43.866 -0.624501 0.41893 0
M  V30 419 H 45.837 -1.89925 2.30155 0
M  V30 420 C 44.586 -3.27227 1.1755 0
M  V30 421 H 43.909 -3.44773 2.02414 0
M  V30 422 H 45.349 -4.06911 1.1916 0
M  V30 423 C 43.808 -3.36692 -0.118311 0
M  V30 424 O 44.338 -3.86374 -1.09902 0
M  V30 425 N 42.544 -2.90092 -0.171717 0
M  V30 426 H 42.091 -2.49853 0.627012 0
M  V30 427 H 42.049 -2.96806 -1.03699 0
M  V30 428 N 45.8211 -1.22559 -0.990812 0
M  V30 429 C 47.0511 -1.07623 -1.76355 0
M  V30 430 C 47.4591 0.37601 -1.85426 0
M  V30 431 O 46.8021 1.27228 -1.32509 0
M  V30 432 C 46.8641 -1.61507 -3.21179 0
M  V30 433 C 46.5281 -3.10146 -3.35646 0
M  V30 434 C 47.5251 -4.07553 -3.22796 0
M  V30 435 C 45.2101 -3.49644 -3.60631 0
M  V30 436 C 47.2041 -5.42442 -3.34716 0
M  V30 437 C 44.8911 -4.84682 -3.72192 0
M  V30 438 C 45.8891 -5.8089 -3.59243 0
M  V30 439 O 45.5771 -7.13476 -3.70415 0
M  V30 440 H 45.3091 -0.377745 -0.560611 0
M  V30 441 H 47.8631 -1.62658 -1.25425 0
M  V30 442 H 46.0931 -1.00881 -3.73309 0
M  V30 443 H 47.7821 -1.42202 -3.80175 0
M  V30 444 H 48.5481 -3.78381 -3.03403 0
M  V30 445 H 44.4271 -2.75282 -3.69785 0
M  V30 446 H 47.9711 -6.17518 -3.24526 0
M  V30 447 H 43.8681 -5.13534 -3.91092 0
M  V30 448 H 44.6361 -7.21083 -3.87275 0
M  V30 449 N 47.2992 1.18797 -1.03562 0
M  V30 450 C 48.5292 1.92319 -0.754773 0
M  V30 451 C 48.9372 1.7612 0.691248 0
M  V30 452 O 48.2802 1.08491 1.48241 0
M  V30 453 C 48.3422 3.44284 -1.03484 0
M  V30 454 C 48.0062 3.84258 -2.47376 0
M  V30 455 C 49.0032 3.88459 -3.45537 0
M  V30 456 C 46.6882 4.15701 -2.81954 0
M  V30 457 C 48.6822 4.23545 -4.76328 0
M  V30 458 C 46.3692 4.50458 -4.12954 0
M  V30 459 C 47.3672 4.54356 -5.09951 0
M  V30 460 O 47.0552 4.88305 -6.38603 0
M  V30 461 H 46.7872 0.617527 -0.275021 0
M  V30 462 H 49.3412 1.51683 -1.38497 0
M  V30 463 H 47.5712 3.85135 -0.347513 0
M  V30 464 H 49.2602 3.99049 -0.7426 0
M  V30 465 H 50.0262 3.6431 -3.20162 0
M  V30 466 H 45.9052 4.11847 -2.0713 0
M  V30 467 H 49.4492 4.26502 -5.52035 0
M  V30 468 H 45.3462 4.74067 -4.38099 0
M  V30 469 H 46.1142 5.06227 -6.43177 0
M  V30 470 N 48.7773 0.814389 1.34928 0
M  V30 471 C 50.0023 0.410097 2.03305 0
M  V30 472 C 50.4273 -0.973464 1.60951 0
M  V30 473 O 49.7853 -1.63185 0.789964 0
M  V30 474 C 49.8333 0.51049 3.56968 0
M  V30 475 O 48.9373 -0.473035 4.09678 0
M  V30 476 H 48.2783 0.170088 0.641846 0
M  V30 477 H 50.8083 1.10244 1.72358 0
M  V30 478 H 50.8183 0.383135 4.06197 0
M  V30 479 H 49.4933 1.51963 3.87144 0
M  V30 480 H 48.0703 -0.305272 3.71648 0
M  V30 481 N 50.2554 -1.46986 0.568584 0
M  V30 482 C 51.2054 -2.27179 -0.193339 0
M  V30 483 C 52.1894 -1.35035 -0.874895 0
M  V30 484 O 53.3814 -1.5931 -0.771322 0
M  V30 485 C 50.5104 -3.21063 -1.21546 0
M  V30 486 C 49.5964 -4.2069 -0.536738 0
M  V30 487 N 49.9874 -5.04218 0.399673 0
M  V30 488 C 48.2854 -4.38961 -0.789254 0
M  V30 489 C 48.9864 -5.76242 0.795017 0
M  V30 490 N 47.9624 -5.434 0.1473 0
M  V30 491 H 51.7644 -2.89146 0.526458 0
M  V30 492 H 49.2784 -1.57664 0.389342 0
M  V30 493 H 51.2754 -3.77209 -1.77536 0
M  V30 494 H 49.9354 -2.60654 -1.93623 0
M  V30 495 H 50.9464 -5.12077 0.774454 0
M  V30 496 H 47.6234 -3.89713 -1.49767 0
M  V30 497 H 49.0134 -6.53417 1.56513 0
M  V30 498 N 51.7335 -0.305618 -1.54608 0
M  V30 499 C 52.6965 0.555591 -2.22364 0
M  V30 500 C 53.6965 1.05768 -1.21119 0
M  V30 501 O 54.8865 0.952972 -1.45822 0
M  V30 502 C 52.0185 1.76974 -2.91364 0
M  V30 503 H 53.2115 -0.0364572 -2.99878 0
M  V30 504 H 50.7645 -0.0565007 -1.56198 0
M  V30 505 H 51.4995 2.40151 -2.17941 0
M  V30 506 H 51.2845 1.41732 -3.65588 0
M  V30 507 H 52.7745 2.38148 -3.43038 0
M  V30 508 N 53.2116 1.57565 -0.0334293 0
M  V30 509 C 54.1746 2.09393 0.932048 0
M  V30 510 C 55.1746 1.00986 1.25134 0
M  V30 511 O 56.3646 1.27129 1.19096 0
M  V30 512 C 53.4966 2.56338 2.2473 0
M  V30 513 H 54.6896 2.95984 0.483085 0
M  V30 514 H 52.2426 1.54819 0.21468 0
M  V30 515 H 52.9776 1.7309 2.74245 0
M  V30 516 H 52.7626 3.35542 2.02865 0
M  V30 517 H 54.2526 2.96646 2.93923 0
M  V30 518 N 54.6897 -0.239769 1.55765 0
M  V30 519 C 55.9147 -0.988373 1.82335 0
M  V30 520 C 56.3397 -1.77886 0.611421 0
M  V30 521 O 55.6977 -1.75889 -0.439639 0
M  V30 522 C 55.7457 -1.89627 3.06715 0
M  V30 523 O 54.8497 -2.98904 2.84131 0
M  V30 524 H 54.1907 -0.280858 0.601677 0
M  V30 525 H 56.7207 -0.258597 2.02959 0
M  V30 526 H 56.7307 -2.30957 3.36338 0
M  V30 527 H 55.4057 -1.31511 3.9456 0
M  V30 528 H 53.9827 -2.61651 2.65694 0
M  V30 529 N 56.1678 -1.49265 -0.50573 0
M  V30 530 C 57.1308 -1.65075 -1.59006 0
M  V30 531 C 58.1308 -0.522768 -1.52065 0
M  V30 532 O 59.3208 -0.789117 -1.55302 0
M  V30 533 C 56.4528 -1.64369 -2.98656 0
M  V30 534 H 57.6458 -2.61784 -1.46319 0
M  V30 535 H 55.1988 -1.38226 -0.729616 0
M  V30 536 H 55.9338 -0.692272 -3.16825 0
M  V30 537 H 55.7188 -2.46282 -3.05103 0
M  V30 538 H 57.2088 -1.78674 -3.77446 0
M  V30 539 N 57.6459 0.756429 -1.3826 0
M  V30 540 C 58.6089 1.85176 -1.35065 0
M  V30 541 C 59.6089 1.58818 -0.251703 0
M  V30 542 O 60.7989 1.66615 -0.508433 0
M  V30 543 C 57.9309 3.22596 -1.10201 0
M  V30 544 H 59.1239 1.89417 -2.3251 0
M  V30 545 H 56.6769 0.95783 -1.23512 0
M  V30 546 H 57.4119 3.24025 -0.133504 0
M  V30 547 H 57.1969 3.43122 -1.89762 0
M  V30 548 H 58.6869 4.02673 -1.10654 0
M  V30 549 N 59.124 1.23083 0.984299 0
M  V30 550 C 60.056 0.96636 2.07832 0
M  V30 551 C 61.069 -0.0582135 1.62696 0
M  V30 552 O 62.258 0.176843 1.77622 0
M  V30 553 C 59.358 0.433397 3.36117 0
M  V30 554 C 58.531 1.51722 4.10243 0
M  V30 555 C 57.59 0.989821 5.16807 0
M  V30 556 O 56.616 1.67794 5.43906 0
M  V30 557 N 57.818 -0.184367 5.80207 0
M  V30 558 H 60.583 1.90824 2.31098 0
M  V30 559 H 58.144 1.13888 1.1507 0
M  V30 560 H 60.136 0.065699 4.04647 0
M  V30 561 H 58.706 -0.413806 3.09849 0
M  V30 562 H 57.926 2.05786 3.36223 0
M  V30 563 H 59.214 2.24619 4.56534 0
M  V30 564 H 58.612 -0.760062 5.60571 0
M  V30 565 H 57.169 -0.493366 6.4993 0
M  V30 566 N 60.6021 -1.18246 1.0419 0
M  V30 567 C 61.5501 -2.23968 0.627792 0
M  V30 568 C 62.5441 -1.65828 -0.346019 0
M  V30 569 O 63.7501 -1.78733 -0.213175 0
M  V30 570 H 60.1251 -0.728939 0.184802 0
M  V30 571 H 62.0961 -2.56202 1.52981 0
M  V30 572 C 60.8451 -3.47699 0.00796591 0
M  V30 573 H 60.1681 -3.92734 0.748347 0
M  V30 574 H 61.6081 -4.23294 -0.24455 0
M  V30 575 C 60.0671 -3.13153 -1.24246 0
M  V30 576 O 60.5971 -3.27003 -2.33307 0
M  V30 577 N 58.8031 -2.67467 -1.13622 0
M  V30 578 H 58.3501 -2.56396 -0.248734 0
M  V30 579 H 58.3081 -2.44724 -1.97377 0
M  V30 580 N 62.0802 -0.821533 -1.34494 0
M  V30 581 C 63.0272 -0.240397 -2.29545 0
M  V30 582 C 63.9972 0.634031 -1.53523 0
M  V30 583 O 65.1822 0.575966 -1.81899 0
M  V30 584 C 62.3222 0.592869 -3.39969 0
M  V30 585 C 61.4352 -0.30365 -4.30932 0
M  V30 586 C 60.5702 0.539049 -5.28458 0
M  V30 587 C 59.6092 -0.356942 -6.11058 0
M  V30 588 N 58.7462 0.446603 -7.00678 0
M  V30 589 H 63.5862 -1.05632 -2.7865 0
M  V30 590 H 61.1232 -0.532413 -1.37127 0
M  V30 591 H 63.0812 1.09129 -4.02675 0
M  V30 592 H 61.7112 1.37392 -2.92102 0
M  V30 593 H 60.7632 -0.920276 -3.691 0
M  V30 594 H 62.0752 -0.992661 -4.88823 0
M  V30 595 H 61.2292 1.102 -5.96608 0
M  V30 596 H 59.9682 1.26157 -4.71101 0
M  V30 597 H 58.9732 -0.932047 -5.41842 0
M  V30 598 H 60.1982 -1.07755 -6.70497 0
M  V30 599 H 58.1442 1.15282 -6.45791 0
M  V30 600 H 58.0612 -0.184048 -7.55776 0
M  V30 601 H 59.3292 0.992352 -7.73158 0
M  V30 602 N 63.5583 1.46682 -0.576371 0
M  V30 603 C 64.4903 2.28341 0.198231 0
M  V30 604 C 65.5033 1.38141 0.861453 0
M  V30 605 O 66.6923 1.62797 0.732082 0
M  V30 606 C 63.7923 3.12986 1.29972 0
M  V30 607 C 62.9653 4.31271 0.729639 0
M  V30 608 C 62.0243 4.97363 1.71803 0
M  V30 609 O 61.0503 5.55156 1.25658 0
M  V30 610 N 62.2523 4.93796 3.05198 0
M  V30 611 H 65.0173 2.9546 -0.502324 0
M  V30 612 H 62.5783 1.56525 -0.413715 0
M  V30 613 H 64.5703 3.54066 1.96008 0
M  V30 614 H 63.1403 2.47984 1.90323 0
M  V30 615 H 62.3603 3.94052 -0.108012 0
M  V30 616 H 63.6483 5.07739 0.328438 0
M  V30 617 H 63.0463 4.48077 3.45317 0
M  V30 618 H 61.6033 5.38837 3.6674 0
M  V30 619 N 65.0364 0.313813 1.54444 0
M  V30 620 C 66.3134 -0.345447 1.92525 0
M  V30 621 C 66.6934 -1.70667 1.24242 0
M  V30 622 O 66.0414 -2.25273 0.382654 0
M  V30 623 C 66.2514 -0.44737 3.46121 0
M  V30 624 C 67.5994 -0.712238 4.18584 0
M  V30 625 O 68.6234 -0.530678 3.52225 0
M  V30 626 O 67.4824 -1.06183 5.36085 0
M  V30 627 H 64.5764 -0.195407 0.803583 0
M  V30 628 H 67.1224 0.362813 1.65776 0
M  V30 629 H 65.8944 0.509043 3.87975 0
M  V30 630 H 65.5174 -1.20359 3.78945 0
M  V30 631 N 66.5145 -1.57545 0.0417849 0
M  V30 632 C 67.7615 -1.92317 -0.634082 0
M  V30 633 C 68.0895 -0.919334 -1.71402 0
M  V30 634 O 67.3445 0.0698253 -1.95575 0
M  V30 635 C 67.6435 -3.33794 -1.27735 0
M  V30 636 C 67.3095 -4.49716 -0.326543 0
M  V30 637 C 65.9715 -4.81156 -0.0648814 0
M  V30 638 C 68.3235 -5.20182 0.325623 0
M  V30 639 C 65.6515 -5.80414 0.856539 0
M  V30 640 C 68.0035 -6.20424 1.23518 0
M  V30 641 C 66.6675 -6.50298 1.5056 0
M  V30 642 H 65.9375 -0.703736 -0.232027 0
M  V30 643 H 68.5845 -1.91205 0.106259 0
M  V30 644 H 66.8895 -3.31228 -2.09274 0
M  V30 645 H 68.5865 -3.57975 -1.80707 0
M  V30 646 H 65.1765 -4.25176 -0.540665 0
M  V30 647 H 69.3605 -4.96112 0.136546 0
M  V30 648 H 64.6165 -6.019 1.07363 0
M  V30 649 H 68.7905 -6.74141 1.74664 0
M  V30 650 H 66.4175 -7.27025 2.22123 0
M  V30 651 N 67.9926 0.231505 -1.5589 0
M  V30 652 C 69.2206 0.974505 -1.82513 0
M  V30 653 C 69.6356 1.78344 -0.619591 0
M  V30 654 O 68.9926 1.77792 0.411848 0
M  V30 655 C 69.0436 1.90007 -3.07538 0
M  V30 656 O 68.7646 1.12385 -4.2344 0
M  V30 657 C 70.2656 2.75779 -3.47075 0
M  V30 658 H 67.4856 0.286065 -0.606966 0
M  V30 659 H 70.0296 0.249739 -2.02969 0
M  V30 660 H 68.1846 2.57891 -2.89086 0
M  V30 661 H 68.5986 1.75125 -4.944 0
M  V30 662 H 70.0726 3.36443 -4.37619 0
M  V30 663 H 70.5496 3.47672 -2.68367 0
M  V30 664 H 71.1556 2.13323 -3.67931 0
M  V30 665 N 69.4707 1.49531 0.497807 0
M  V30 666 C 70.4027 1.62559 1.61578 0
M  V30 667 C 71.4157 0.508134 1.54667 0
M  V30 668 O 72.6047 0.780309 1.60541 0
M  V30 669 C 69.7047 1.56925 3.00379 0
M  V30 670 C 68.8777 2.84257 3.3244 0
M  V30 671 C 67.9367 2.71632 4.50669 0
M  V30 672 O 66.9627 3.4557 4.52294 0
M  V30 673 N 68.1647 1.83391 5.5077 0
M  V30 674 H 70.9297 2.58981 1.50828 0
M  V30 675 H 68.4907 1.4666 0.685743 0
M  V30 676 H 70.4827 1.46129 3.77397 0
M  V30 677 H 69.0527 0.683483 3.05037 0
M  V30 678 H 68.2727 3.09381 2.44289 0
M  V30 679 H 69.5607 3.68666 3.5066 0
M  V30 680 H 68.9587 1.22583 5.52259 0
M  V30 681 H 67.5157 1.78515 6.26878 0
M  V30 682 N 70.9488 -0.749086 1.3866 0
M  V30 683 C 72.2258 -1.4992 1.25632 0
M  V30 684 C 72.6058 -2.10633 -0.140317 0
M  V30 685 O 71.9538 -1.97437 -1.15025 0
M  V30 686 C 72.1638 -2.56195 2.36992 0
M  V30 687 C 73.5118 -3.22972 2.75634 0
M  V30 688 O 74.5358 -2.66502 2.36337 0
M  V30 689 O 73.3948 -4.25122 3.43415 0
M  V30 690 H 70.4888 -0.665067 0.491544 0
M  V30 691 H 73.0348 -0.784113 1.50498 0
M  V30 692 H 71.8068 -2.09612 3.30422 0
M  V30 693 H 71.4298 -3.35279 2.13714 0
M  V30 694 N 72.4269 -1.23603 -0.977757 0
M  V30 695 C 73.8379 -1.06424 -1.53398 0
M  V30 696 C 74.1889 0.367578 -1.92726 0
M  V30 697 O 73.3139 1.25465 -1.76316 0
M  V30 698 C 73.9089 -1.92568 -2.78753 0
M  V30 699 C 72.4679 -1.79642 -3.30765 0
M  V30 700 C 71.6149 -1.88111 -2.03739 0
M  V30 701 H 74.5659 -1.37227 -0.797152 0
M  V30 702 H 74.5869 -1.45203 -3.51705 0
M  V30 703 H 74.0989 -2.96771 -2.50098 0
M  V30 704 H 72.1999 -0.782325 -3.64294 0
M  V30 705 H 72.3129 -2.63174 -4.00345 0
M  V30 706 H 70.6769 -1.31723 -2.17994 0
M  V30 707 H 71.4599 -2.93875 -1.77461 0
M  V30 708 N 73.905 1.17692 -1.04816 0
M  V30 709 C 75.13 1.92327 -0.776207 0
M  V30 710 C 75.555 1.76082 0.661581 0
M  V30 711 O 74.913 1.076 1.45917 0
M  V30 712 C 74.961 3.41539 -1.15687 0
M  V30 713 O 74.065 4.11402 -0.286775 0
M  V30 714 H 73.406 0.599735 -0.284981 0
M  V30 715 H 75.936 1.49201 -1.4 0
M  V30 716 H 75.946 3.92269 -1.12202 0
M  V30 717 H 74.621 3.52684 -2.20425 0
M  V30 718 H 73.198 3.70939 -0.381903 0
M  V30 719 N 75.3831 0.828654 1.34056 0
M  V30 720 C 76.3301 0.252567 2.29414 0
M  V30 721 C 77.3001 -0.62588 1.53857 0
M  V30 722 O 78.4851 -0.566312 1.82202 0
M  V30 723 C 75.6251 -0.574831 3.40279 0
M  V30 724 C 74.7381 0.326499 4.30764 0
M  V30 725 C 73.8731 -0.511016 5.28736 0
M  V30 726 C 72.9121 0.389342 6.1086 0
M  V30 727 N 72.0491 -0.409439 7.00905 0
M  V30 728 H 76.8891 1.07108 2.78086 0
M  V30 729 H 74.4261 0.539677 1.36843 0
M  V30 730 H 76.3841 -1.06992 4.03248 0
M  V30 731 H 75.0141 -1.35841 2.92826 0
M  V30 732 H 74.0661 0.939837 3.68607 0
M  V30 733 H 75.3781 1.01857 4.88289 0
M  V30 734 H 74.5321 -1.07035 5.97184 0
M  V30 735 H 73.2711 -1.23657 4.71763 0
M  V30 736 H 72.2761 0.960769 5.4134 0
M  V30 737 H 73.5011 1.1131 6.69916 0
M  V30 738 H 71.4471 -1.11856 6.46393 0
M  V30 739 H 71.3641 0.224126 7.55668 0
M  V30 740 H 72.6321 -0.951336 7.73673 0
M  V30 741 N 76.8612 -1.46375 0.584142 0
M  V30 742 C 78.1082 -2.02378 0.0702675 0
M  V30 743 C 78.4362 -1.45545 -1.29023 0
M  V30 744 O 77.6912 -0.610967 -1.85918 0
M  V30 745 C 77.9902 -3.57373 -0.0439342 0
M  V30 746 C 77.6562 -4.33252 1.24915 0
M  V30 747 C 76.3182 -4.53701 1.60341 0
M  V30 748 C 78.6702 -4.7681 2.1048 0
M  V30 749 C 75.9982 -5.1496 2.81128 0
M  V30 750 C 78.3502 -5.39404 3.30494 0
M  V30 751 C 77.0142 -5.5808 3.66201 0
M  V30 752 H 76.2842 -0.740554 0.0257127 0
M  V30 753 H 78.9312 -1.75727 0.761065 0
M  V30 754 H 77.2362 -3.83169 -0.817869 0
M  V30 755 H 78.9332 -3.98384 -0.457318 0
M  V30 756 H 75.5232 -4.17633 0.963364 0
M  V30 757 H 79.7072 -4.60766 1.84414 0
M  V30 758 H 74.9632 -5.27611 3.08928 0
M  V30 759 H 79.1372 -5.72114 3.97063 0
M  V30 760 H 76.7642 -6.05318 4.59885 0
M  V30 761 N 78.3393 -0.321999 -1.54275 0
M  V30 762 C 79.5673 0.283052 -2.04955 0
M  V30 763 C 79.9823 1.45904 -1.19823 0
M  V30 764 O 79.3393 1.81063 -0.228545 0
M  V30 765 C 79.3903 0.719028 -3.54277 0
M  V30 766 O 79.1113 -0.410175 -4.36176 0
M  V30 767 C 80.6123 1.38705 -4.21041 0
M  V30 768 H 77.8323 0.0584616 -0.668448 0
M  V30 769 H 80.3763 -0.467734 -1.99079 0
M  V30 770 H 78.5313 1.41979 -3.60445 0
M  V30 771 H 78.9453 -0.0669416 -5.24457 0
M  V30 772 H 80.4193 1.64306 -5.2698 0
M  V30 773 H 80.8963 2.33385 -3.72059 0
M  V30 774 H 81.5023 0.728906 -4.19007 0
M  V30 775 N 79.8174 1.5752 -0.0501392 0
M  V30 776 C 80.7494 2.08413 0.95376 0
M  V30 777 C 81.7624 1.01175 1.27544 0
M  V30 778 O 82.9514 1.28744 1.23641 0
M  V30 779 C 80.0514 2.51138 2.27559 0
M  V30 780 C 79.2244 3.817 2.13598 0
M  V30 781 C 78.2834 4.10749 3.28895 0
M  V30 782 O 77.3094 4.80685 3.04845 0
M  V30 783 N 78.5114 3.62579 4.5334 0
M  V30 784 H 81.2764 2.95165 0.519383 0
M  V30 785 H 78.8374 1.61327 0.136127 0
M  V30 786 H 80.8294 2.67648 3.03557 0
M  V30 787 H 79.3994 1.6964 2.62567 0
M  V30 788 H 78.6194 3.74782 1.22197 0
M  V30 789 H 79.9074 4.67201 2.01496 0
M  V30 790 H 79.3054 3.06039 4.75769 0
M  V30 791 H 77.8624 3.84329 5.26436 0
M  V30 792 N 81.2955 -0.223234 1.56011 0
M  V30 793 C 82.7065 -0.790368 1.69145 0
M  V30 794 C 83.0575 -1.85055 0.651845 0
M  V30 795 O 82.1825 -2.15498 -0.197359 0
M  V30 796 C 82.7775 -1.4404 3.06656 0
M  V30 797 C 81.3365 -1.95494 3.2165 0
M  V30 798 C 80.4835 -0.814506 2.65068 0
M  V30 799 H 83.4345 0.00139011 1.587 0
M  V30 800 H 83.4555 -2.30916 3.0242 0
M  V30 801 H 82.9675 -0.668543 3.82298 0
M  V30 802 H 81.0685 -2.75487 2.50874 0
M  V30 803 H 81.1815 -2.13607 4.28846 0
M  V30 804 H 79.5455 -1.22137 2.23505 0
M  V30 805 H 80.3285 -0.0553515 3.43255 0
M  V30 806 N 82.7736 -1.49793 -0.48987 0
M  V30 807 C 84.0226 -1.59085 -1.23995 0
M  V30 808 C 84.3356 -0.287907 -1.9347 0
M  V30 809 O 85.5416 -0.259506 -2.70257 0
M  V30 810 C 83.9976 -2.80736 -2.252 0
M  V30 811 C 83.6056 -4.17833 -1.61614 0
M  V30 812 C 85.3496 -2.99364 -3.00967 0
M  V30 813 C 83.2566 -5.30693 -2.60996 0
M  V30 814 H 82.1866 -0.592372 -0.466488 0
M  V30 815 H 84.8376 -1.76197 -0.51252 0
M  V30 816 H 83.2196 -2.57142 -3.01154 0
M  V30 817 H 84.3936 -4.51608 -0.915774 0
M  V30 818 H 82.7086 -4.04656 -0.981977 0
M  V30 819 H 85.3056 -3.80851 -3.75308 0
M  V30 820 H 85.6486 -2.10356 -3.59244 0
M  V30 821 H 86.1816 -3.2305 -2.32128 0
M  V30 822 H 82.9206 -6.21796 -2.07485 0
M  V30 823 H 82.4406 -5.01359 -3.2924 0
M  V30 824 H 84.1196 -5.6049 -3.23202 0
M  V30 825 N 84.2517 0.741722 -1.39055 0
M  V30 826 C 85.2147 1.83733 -1.37021 0
M  V30 827 C 86.2147 1.58542 -0.268534 0
M  V30 828 O 87.4047 1.66067 -0.526076 0
M  V30 829 C 84.5367 3.2141 -1.13617 0
M  V30 830 H 85.7297 1.86941 -2.34506 0
M  V30 831 H 83.2827 0.944676 -1.24521 0
M  V30 832 H 84.0177 3.23865 -0.167863 0
M  V30 833 H 83.8027 3.4109 -1.93391 0
M  V30 834 H 85.2927 4.01477 -1.14918 0
M  V30 835 N 85.7298 1.2412 0.971189 0
M  V30 836 C 87.0068 0.986867 1.6888 0
M  V30 837 C 87.3868 -0.491857 2.0529 0
M  V30 838 O 86.7348 -1.46531 1.75331 0
M  V30 839 C 86.9448 1.9063 2.92338 0
M  V30 840 C 88.2928 2.17515 3.64654 0
M  V30 841 O 89.3168 1.88254 3.02388 0
M  V30 842 O 88.1758 2.6719 4.7673 0
M  V30 843 H 85.2698 0.372944 0.738134 0
M  V30 844 H 87.8158 1.35203 1.02559 0
M  V30 845 H 86.5878 2.90552 2.62097 0
M  V30 846 H 86.2108 1.54408 3.66393 0
M  V30 847 N 87.2079 -1.17134 1.05439 0
M  V30 848 C 88.4539 -1.87733 0.767077 0
M  V30 849 C 88.7869 -1.8098 -0.704253 0
M  V30 850 O 88.0619 -1.21951 -1.5152 0
M  V30 851 C 88.3449 -3.37659 1.25133 0
M  V30 852 C 88.1979 -3.53149 2.78578 0
M  V30 853 C 89.5169 -4.31768 0.852324 0
M  V30 854 H 86.6359 -0.681687 0.280129 0
M  V30 855 H 89.2779 -1.37732 1.30881 0
M  V30 856 H 87.4279 -3.80373 0.790469 0
M  V30 857 H 89.0999 -3.19434 3.32806 0
M  V30 858 H 87.3429 -2.95345 3.17732 0
M  V30 859 H 88.0139 -4.58403 3.07523 0
M  V30 860 H 90.4899 -3.96909 1.24911 0
M  V30 861 H 89.3659 -5.35199 1.21873 0
M  V30 862 H 89.6269 -4.41429 -0.243485 0
M  V30 863 N 88.686 -0.835752 -1.33615 0
M  V30 864 C 89.935 -0.426289 -1.97144 0
M  V30 865 C 90.248 1.01912 -1.66953 0
M  V30 866 O 91.454 1.53311 -2.24072 0
M  V30 867 C 89.91 -0.711321 -3.52801 0
M  V30 868 C 89.518 -2.1712 -3.91871 0
M  V30 869 C 91.262 -0.368654 -4.22896 0
M  V30 870 C 89.169 -2.40044 -5.40493 0
M  V30 871 H 88.099 -0.15567 -0.737755 0
M  V30 872 H 90.75 -1.0239 -1.52278 0
M  V30 873 H 89.132 -0.0433766 -3.95976 0
M  V30 874 H 90.306 -2.87936 -3.59763 0
M  V30 875 H 88.621 -2.47654 -3.34749 0
M  V30 876 H 91.218 -0.517601 -5.32189 0
M  V30 877 H 91.561 0.688078 -4.10574 0
M  V30 878 H 92.094 -0.991702 -3.8524 0
M  V30 879 H 88.833 -3.44271 -5.57815 0
M  V30 880 H 88.353 -1.73785 -5.74072 0
M  V30 881 H 90.032 -2.23042 -6.0734 0
M  V30 882 N 90.1641 1.46063 -0.591896 0
M  V30 883 C 91.1111 2.30399 0.136069 0
M  V30 884 C 92.0811 1.41169 0.875238 0
M  V30 885 O 93.2661 1.70112 0.86409 0
M  V30 886 C 90.4061 3.25804 1.13781 0
M  V30 887 C 89.5191 4.30134 0.401137 0
M  V30 888 C 88.6541 5.12659 1.39121 0
M  V30 889 C 87.6931 6.0873 0.641462 0
M  V30 890 N 86.8301 6.8409 1.58004 0
M  V30 891 H 91.6701 2.92118 -0.589144 0
M  V30 892 H 89.2071 1.43959 -0.302342 0
M  V30 893 H 91.1651 3.79569 1.73156 0
M  V30 894 H 89.7951 2.65872 1.83062 0
M  V30 895 H 88.8471 3.79152 -0.307826 0
M  V30 896 H 90.1591 4.98458 -0.184565 0
M  V30 897 H 89.3131 5.70747 2.05749 0
M  V30 898 H 88.0521 4.44316 2.01084 0
M  V30 899 H 87.0571 5.49786 -0.0385419 0
M  V30 900 H 88.2821 6.79095 0.0270945 0
M  V30 901 H 86.2281 6.18449 2.18761 0
M  V30 902 H 86.1451 7.48709 1.04738 0
M  V30 903 H 87.4131 7.4673 2.23639 0
M  V30 904 N 91.6422 0.330177 1.54103 0
M  V30 905 C 92.5522 -0.541534 2.28264 0
M  V30 906 C 93.5682 -1.12351 1.32866 0
M  V30 907 O 94.7442 -1.14206 1.65888 0
M  V30 908 C 91.8092 -1.68322 3.03098 0
M  V30 909 C 90.8702 -1.13238 4.14096 0
M  V30 910 C 90.1032 -2.21966 4.85352 0
M  V30 911 O 90.3262 -3.42437 4.56172 0
M  V30 912 O 89.2602 -1.87013 5.7211 0
M  V30 913 H 93.0862 0.060938 3.03639 0
M  V30 914 H 90.6712 0.09565 1.49093 0
M  V30 915 H 92.5532 -2.34777 3.49939 0
M  V30 916 H 91.2282 -2.27176 2.30593 0
M  V30 917 H 90.1352 -0.432736 3.71589 0
M  V30 918 H 91.4682 -0.588898 4.88664 0
M  V30 919 N 93.1203 -1.57491 0.0584922 0
M  V30 920 C 94.3483 -1.97296 -0.623037 0
M  V30 921 C 94.7633 -0.936338 -1.63946 0
M  V30 922 O 94.1203 0.0785981 -1.82331 0
M  V30 923 C 94.1713 -3.37183 -1.30345 0
M  V30 924 O 93.8923 -4.36872 -0.32773 0
M  V30 925 C 95.3933 -3.91788 -2.07406 0
M  V30 926 H 92.6133 -0.649153 -0.169826 0
M  V30 927 H 95.1573 -2.04106 0.12696 0
M  V30 928 H 93.3123 -3.31502 -2.00463 0
M  V30 929 H 93.7263 -5.18141 -0.814269 0
M  V30 930 H 95.2003 -4.91926 -2.50425 0
M  V30 931 H 95.6773 -3.27609 -2.92521 0
M  V30 932 H 96.2833 -4.00829 -1.42184 0
M  V30 933 N 94.5984 0.214957 -1.56127 0
M  V30 934 C 95.5614 1.24997 -1.92116 0
M  V30 935 C 96.5614 1.39467 -0.800344 0
M  V30 936 O 97.7514 1.37619 -1.06802 0
M  V30 937 C 94.8834 2.62271 -2.17777 0
M  V30 938 H 96.0764 0.942875 -2.84693 0
M  V30 939 H 93.6294 0.455654 -1.49511 0
M  V30 940 H 94.3644 2.98068 -1.27773 0
M  V30 941 H 94.1494 2.53143 -2.99434 0
M  V30 942 H 95.6394 3.36946 -2.46693 0
M  V30 943 N 96.0765 1.50051 0.48192 0
M  V30 944 C 97.3225 1.60736 1.2366 0
M  V30 945 C 97.6555 0.301786 1.91841 0
M  V30 946 O 96.9305 -0.696025 1.8162 0
M  V30 947 C 97.2135 2.78009 2.28874 0
M  V30 948 C 97.0665 4.18416 1.65069 0
M  V30 949 C 98.3855 2.90867 3.30279 0
M  V30 950 H 95.5045 0.585031 0.448228 0
M  V30 951 H 98.1465 1.82402 0.531946 0
M  V30 952 H 96.2965 2.59667 2.88973 0
M  V30 953 H 97.9685 4.48322 1.0865 0
M  V30 954 H 96.2115 4.23177 0.954148 0
M  V30 955 H 96.8825 4.96381 2.41474 0
M  V30 956 H 99.3585 3.07623 2.80191 0
M  V30 957 H 98.2345 3.74566 4.01238 0
M  V30 958 H 98.4955 2.01021 3.93755 0
M  V30 959 N 97.5546 -0.734337 1.39446 0
M  V30 960 C 98.9656 -1.31264 1.32766 0
M  V30 961 C 99.3166 -1.96198 -0.00767497 0
M  V30 962 O 98.4416 -1.96346 -0.909796 0
M  V30 963 C 99.0366 -2.38682 2.4045 0
M  V30 964 C 97.5956 -2.92184 2.37288 0
M  V30 965 C 96.7426 -1.6576 2.22304 0
M  V30 966 H 99.6936 -0.531799 1.49525 0
M  V30 967 H 99.7146 -3.19087 2.07276 0
M  V30 968 H 99.2266 -1.91392 3.37625 0
M  V30 969 H 97.3276 -3.43752 1.43754 0
M  V30 970 H 97.4406 -3.45253 3.3217 0
M  V30 971 H 95.8046 -1.9012 1.69489 0
M  V30 972 H 96.5876 -1.20521 3.21449 0
M  V30 973 N 99.0327 -1.24633 -0.964593 0
M  V30 974 C 99.9627 -1.06611 -2.07741 0
M  V30 975 C 100.944 0.0218666 -1.70086 0
M  V30 976 O 102.129 -0.145793 -1.93652 0
M  V30 977 C 99.2587 -0.673444 -3.40708 0
M  V30 978 C 98.2127 -1.71054 -3.92332 0
M  V30 979 C 97.5387 -1.17285 -5.21678 0
M  V30 980 C 98.8387 -3.10718 -4.19824 0
M  V30 981 H 100.533 -1.99693 -2.23076 0
M  V30 982 H 98.0787 -0.96152 -1.07195 0
M  V30 983 H 100.032 -0.534345 -4.17998 0
M  V30 984 H 98.7557 0.293073 -3.25282 0
M  V30 985 H 97.4147 -1.83791 -3.17201 0
M  V30 986 H 97.0627 -0.196847 -5.02615 0
M  V30 987 H 96.7627 -1.86592 -5.57187 0
M  V30 988 H 98.2867 -1.04593 -6.01575 0
M  V30 989 H 99.7007 -3.01192 -4.87808 0
M  V30 990 H 98.0977 -3.77406 -4.66567 0
M  V30 991 H 99.1677 -3.58524 -3.26479 0
M  V30 992 N 100.511 1.16574 -1.06058 0
M  V30 993 C 101.458 2.20883 -0.669263 0
M  V30 994 C 102.428 1.62729 0.332918 0
M  V30 995 O 103.613 1.895 0.222346 0
M  V30 996 C 100.753 3.45049 -0.0593572 0
M  V30 997 C 99.8658 4.17458 -1.11143 0
M  V30 998 C 99.0008 5.29135 -0.467916 0
M  V30 999 C 98.0398 5.93343 -1.50369 0
M  V30 1000 N 97.1768 6.96516 -0.883706 0
M  V30 1001 H 102.017 2.53709 -1.5632 0
M  V30 1002 H 99.5538 1.24616 -0.781625 0
M  V30 1003 H 101.512 4.16033 0.311771 0
M  V30 1004 H 100.142 3.12781 0.797992 0
M  V30 1005 H 99.1938 3.45101 -1.60029 0
M  V30 1006 H 100.506 4.61307 -1.89731 0
M  V30 1007 H 99.6598 6.06684 -0.0436871 0
M  V30 1008 H 98.3988 4.86443 0.349864 0
M  V30 1009 H 97.4038 5.14517 -1.93784 0
M  V30 1010 H 98.6288 6.38114 -2.32352 0
M  V30 1011 H 96.5748 6.55943 -0.086595 0
M  V30 1012 H 96.4918 7.38723 -1.607 0
M  V30 1013 H 97.7598 7.77993 -0.484543 0
M  V30 1014 N 101.989 0.842826 1.3317 0
M  V30 1015 C 103.214 0.453129 2.02389 0
M  V30 1016 C 103.639 -0.939105 1.6298 0
M  V30 1017 O 102.997 -1.61472 0.8244 0
M  V30 1018 C 103.045 0.586094 3.55805 0
M  V30 1019 O 102.149 -0.386029 4.10589 0
M  V30 1020 H 101.49 0.183664 0.638094 0
M  V30 1021 H 104.02 1.13875 1.69981 0
M  V30 1022 H 104.03 0.469209 4.05293 0
M  V30 1023 H 102.705 1.6014 3.83833 0
M  V30 1024 H 101.282 -0.226371 3.72212 0
M  V30 1025 N 103.467 -1.45747 0.599634 0
M  V30 1026 C 104.878 -1.85853 0.177681 0
M  V30 1027 C 105.229 -1.50102 -1.26348 0
M  V30 1028 O 104.354 -0.923905 -1.95686 0
M  V30 1029 C 104.949 -3.37326 0.315688 0
M  V30 1030 C 103.508 -3.76365 -0.0515144 0
M  V30 1031 C 102.655 -2.69722 0.643822 0
M  V30 1032 H 105.606 -1.36661 0.806814 0
M  V30 1033 H 105.627 -3.77778 -0.454321 0
M  V30 1034 H 105.139 -3.63315 1.36468 0
M  V30 1035 H 103.24 -3.55993 -1.09999 0
M  V30 1036 H 103.353 -4.77916 0.336594 0
M  V30 1037 H 101.717 -2.54567 0.0822881 0
M  V30 1038 H 102.5 -2.98549 1.6948 0
M  V30 1039 N 104.945 -0.338344 -1.53925 0
M  V30 1040 C 106.17 0.263987 -2.05713 0
M  V30 1041 C 106.595 1.43847 -1.21201 0
M  V30 1042 O 105.953 1.79904 -0.224535 0
M  V30 1043 C 106.001 0.662 -3.54471 0
M  V30 1044 O 105.105 1.76265 -3.72833 0
M  V30 1045 H 104.446 0.0448722 -0.662482 0
M  V30 1046 H 106.976 -0.491048 -1.9862 0
M  V30 1047 H 106.986 0.940594 -3.9701 0
M  V30 1048 H 105.661 -0.196937 -4.15433 0
M  V30 1049 H 104.238 1.48173 -3.42198 0
M  V30 1050 N 106.423 1.57458 -0.0668435 0
M  V30 1051 C 107.386 2.11323 0.887422 0
M  V30 1052 C 108.386 1.03618 1.22964 0
M  V30 1053 O 109.576 1.29626 1.16373 0
M  V30 1054 C 106.708 2.61048 2.19242 0
M  V30 1055 H 107.901 2.96942 0.420194 0
M  V30 1056 H 105.454 1.55239 0.181793 0
M  V30 1057 H 106.189 1.78868 2.70512 0
M  V30 1058 H 105.974 3.39769 1.95702 0
M  V30 1059 H 107.464 3.02814 2.87565 0
M  V30 1060 N 107.901 -0.206675 1.56239 0
M  V30 1061 C 108.811 -1.27686 1.96808 0
M  V30 1062 C 109.827 -1.50455 0.874035 0
M  V30 1063 O 111.003 -1.63295 1.17884 0
M  V30 1064 C 108.068 -2.60358 2.28942 0
M  V30 1065 C 107.129 -2.45762 3.51994 0
M  V30 1066 C 106.362 -3.72108 3.82585 0
M  V30 1067 O 106.585 -4.75776 3.14631 0
M  V30 1068 O 105.519 -3.6833 4.76043 0
M  V30 1069 H 109.345 -0.962593 2.88041 0
M  V30 1070 H 106.93 -0.410746 1.43643 0
M  V30 1071 H 108.812 -3.38687 2.50737 0
M  V30 1072 H 107.487 -2.91435 1.4088 0
M  V30 1073 H 106.394 -1.65584 3.35459 0
M  V30 1074 H 107.727 -2.19621 4.40486 0
M  V30 1075 N 109.379 -1.50304 -0.473955 0
M  V30 1076 C 110.342 -1.6841 -1.55469 0
M  V30 1077 C 111.342 -0.554905 -1.50922 0
M  V30 1078 O 112.532 -0.821882 -1.53593 0
M  V30 1079 C 109.664 -1.70667 -2.95102 0
M  V30 1080 H 110.857 -2.64828 -1.40733 0
M  V30 1081 H 108.41 -1.39742 -0.700132 0
M  V30 1082 H 109.145 -0.75932 -3.15285 0
M  V30 1083 H 108.93 -2.52698 -2.9981 0
M  V30 1084 H 110.42 -1.8664 -3.73571 0
M  V30 1085 N 110.857 0.726932 -1.39834 0
M  V30 1086 C 112.097 1.4992 -1.38936 0
M  V30 1087 C 112.461 1.91996 0.0126883 0
M  V30 1088 O 113.662 2.68399 0.146715 0
M  V30 1089 C 111.933 2.70013 -2.34153 0
M  V30 1090 S 113.492 3.59563 -2.51515 0
M  V30 1091 H 110.31 0.51271 -0.492595 0
M  V30 1092 H 112.912 0.85107 -1.76003 0
M  V30 1093 H 111.616 2.37254 -3.34871 0
M  V30 1094 H 111.147 3.39748 -1.98331 0
M  V30 1095 H 113.162 4.63973 -1.75909 0
M  V30 1096 N 112.336 1.25143 0.95797 0
M  V30 1097 C 113.584 1.09476 1.69881 0
M  V30 1098 C 113.905 -0.365502 1.91544 0
M  V30 1099 O 113.175 -1.25985 1.50015 0
M  V30 1100 H 111.755 0.402128 0.629525 0
M  V30 1101 H 114.417 1.57214 1.15194 0
M  V30 1102 H 113.513 1.60046 2.6794 0
M  V30 1103 N 113.814 -1.1601 1.06675 0
M  V30 1104 C 115.044 -1.90251 0.805497 0
M  V30 1105 C 115.452 -1.77891 -0.64431 0
M  V30 1106 O 114.795 -1.12383 -1.45313 0
M  V30 1107 C 114.857 -3.41419 1.12576 0
M  V30 1108 C 114.521 -3.77564 2.57477 0
M  V30 1109 C 115.518 -3.79161 3.55715 0
M  V30 1110 C 113.203 -4.08079 2.92877 0
M  V30 1111 C 115.197 -4.10767 4.8739 0
M  V30 1112 C 112.884 -4.39351 4.24751 0
M  V30 1113 C 113.882 -4.40675 5.21818 0
M  V30 1114 O 113.57 -4.71202 6.51325 0
M  V30 1115 H 113.302 -0.610018 0.291297 0
M  V30 1116 H 115.856 -1.47958 1.4247 0
M  V30 1117 H 114.086 -3.84079 0.449503 0
M  V30 1118 H 115.775 -3.9694 0.84814 0
M  V30 1119 H 116.541 -3.55693 3.29708 0
M  V30 1120 H 112.42 -4.06211 2.17976 0
M  V30 1121 H 115.964 -4.11715 5.63148 0
M  V30 1122 H 111.861 -4.62285 4.50514 0
M  V30 1123 H 112.629 -4.88996 6.56373 0
M  V30 1124 N 115.292 -0.849877 -1.32721 0
M  V30 1125 C 116.517 -0.463856 -2.02146 0
M  V30 1126 C 116.942 0.930449 -1.63476 0
M  V30 1127 O 116.3 1.61033 -0.832952 0
M  V30 1128 C 116.348 -0.604955 -3.55489 0
M  V30 1129 O 115.452 0.36425 -4.10788 0
M  V30 1130 H 114.793 -0.187046 -0.637111 0
M  V30 1131 H 117.323 -1.14775 -1.69375 0
M  V30 1132 H 117.333 -0.490696 -4.05038 0
M  V30 1133 H 116.008 -1.62174 -3.82978 0
M  V30 1134 H 114.585 0.206628 -3.72327 0
M  V30 1135 N 116.77 1.45427 -0.607355 0
M  V30 1136 C 118.047 1.9557 -0.0344566 0
M  V30 1137 C 118.427 1.54979 1.43334 0
M  V30 1138 O 117.775 0.812241 2.13576 0
M  V30 1139 C 117.985 3.48226 -0.232321 0
M  V30 1140 C 119.333 4.2445 -0.113001 0
M  V30 1141 O 120.357 3.55829 -0.162431 0
M  V30 1142 O 119.216 5.465 0.00209442 0
M  V30 1143 H 116.31 0.826222 0.0358667 0
M  V30 1144 H 118.856 1.55594 -0.6774 0
M  V30 1145 H 117.628 3.70739 -1.25174 0
M  V30 1146 H 117.251 3.95092 0.445896 0
M  V30 1147 N 118.248 0.346503 1.53744 0
M  V30 1148 C 119.664 -0.00530975 1.59599 0
M  V30 1149 C 119.864 -1.48465 1.36236 0
M  V30 1150 O 118.92 -2.24376 1.15808 0
M  V30 1151 C 120.233 0.433516 2.97559 0
M  V30 1152 C 121.781 0.386111 3.10609 0
M  V30 1153 C 122.256 0.800451 4.50951 0
M  V30 1154 N 123.747 0.754753 4.5701 0
M  V30 1155 C 124.482 1.04727 5.63755 0
M  V30 1156 N 123.978 1.4081 6.7834 0
M  V30 1157 N 125.771 0.971316 5.53644 0
M  V30 1158 H 117.922 1.31009 1.67184 0
M  V30 1159 H 120.185 0.534242 0.783128 0
M  V30 1160 H 119.891 1.46509 3.19731 0
M  V30 1161 H 119.765 -0.189753 3.76722 0
M  V30 1162 H 122.152 -0.636295 2.88158 0
M  V30 1163 H 122.233 1.04462 2.33498 0
M  V30 1164 H 121.877 1.82088 4.74137 0
M  V30 1165 H 121.807 0.119386 5.26465 0
M  V30 1166 H 124.298 0.488662 3.74727 0
M  V30 1167 H 124.611 1.61607 7.55714 0
M  V30 1168 H 122.956 1.44657 6.79779 0
M  V30 1169 H 126.147 0.688748 4.63005 0
M  V30 1170 H 126.32 1.20263 6.36742 0
M  V30 1171 N 119.726 -1.57421 0.075193 0
M  V30 1172 C 120.972 -1.93905 -0.594025 0
M  V30 1173 C 121.305 -0.955701 -1.69056 0
M  V30 1174 O 120.58 0.0145373 -1.94495 0
M  V30 1175 C 120.863 -3.40638 -1.1678 0
M  V30 1176 C 120.716 -4.49733 -0.0776792 0
M  V30 1177 C 122.035 -3.88259 -2.07228 0
M  V30 1178 H 119.154 -0.705105 -0.214466 0
M  V30 1179 H 121.796 -1.8947 0.141854 0
M  V30 1180 H 119.946 -3.44549 -1.79494 0
M  V30 1181 H 121.618 -4.57942 0.555573 0
M  V30 1182 H 119.861 -4.29751 0.591286 0
M  V30 1183 H 120.532 -5.49549 -0.519603 0
M  V30 1184 H 123.008 -3.86376 -1.54445 0
M  V30 1185 H 121.884 -4.91533 -2.44308 0
M  V30 1186 H 122.145 -3.26396 -2.98191 0
M  V30 1187 N 121.204 0.198386 -1.56346 0
M  V30 1188 C 122.167 1.22952 -1.93431 0
M  V30 1189 C 123.167 1.38611 -0.815092 0
M  V30 1190 O 124.357 1.36479 -1.08255 0
M  V30 1191 C 121.489 2.59946 -2.20546 0
M  V30 1192 H 122.682 0.912626 -2.85677 0
M  V30 1193 H 120.235 0.43977 -1.49986 0
M  V30 1194 H 120.97 2.96696 -1.30927 0
M  V30 1195 H 120.755 2.49953 -3.02102 0
M  V30 1196 H 122.245 3.3431 -2.50253 0
M  V30 1197 N 122.682 1.50554 0.465978 0
M  V30 1198 C 123.614 1.65949 1.58093 0
M  V30 1199 C 124.627 0.540827 1.53554 0
M  V30 1200 O 125.816 0.814187 1.5885 0
M  V30 1201 C 122.916 1.63261 2.96983 0
M  V30 1202 C 122.089 2.91245 3.26336 0
M  V30 1203 C 121.148 2.8113 4.44806 0
M  V30 1204 O 120.174 3.55086 4.44862 0
M  V30 1205 N 121.376 1.95032 5.46756 0
M  V30 1206 H 124.141 2.62122 1.45301 0
M  V30 1207 H 121.702 1.48082 0.65448 0
M  V30 1208 H 123.694 1.54101 3.74212 0
M  V30 1209 H 122.264 0.748032 3.03518 0
M  V30 1210 H 121.484 3.14493 2.37672 0
M  V30 1211 H 122.772 3.76022 3.42761 0
M  V30 1212 H 122.17 1.3427 5.49534 0
M  V30 1213 H 120.727 1.91772 6.2295 0
M  V30 1214 N 124.16 -0.719506 1.40217 0
M  V30 1215 C 125.09 -1.8465 1.42922 0
M  V30 1216 C 126.071 -1.67599 0.29062 0
M  V30 1217 O 127.256 -1.87688 0.498677 0
M  V30 1218 C 124.386 -3.22565 1.28722 0
M  V30 1219 C 123.34 -3.54281 2.40144 0
M  V30 1220 C 122.666 -4.91298 2.11023 0
M  V30 1221 C 123.966 -3.55676 3.82481 0
M  V30 1222 H 125.66 -1.82644 2.37237 0
M  V30 1223 H 123.206 -0.877305 1.1419 0
M  V30 1224 H 125.159 -4.01095 1.29232 0
M  V30 1225 H 123.883 -3.25137 0.308811 0
M  V30 1226 H 122.542 -2.78088 2.38877 0
M  V30 1227 H 122.19 -4.90468 1.11582 0
M  V30 1228 H 121.89 -5.13485 2.8567 0
M  V30 1229 H 123.414 -5.72166 2.13209 0
M  V30 1230 H 124.828 -4.24254 3.85592 0
M  V30 1231 H 123.225 -3.89388 4.56614 0
M  V30 1232 H 124.295 -2.55144 4.12346 0
M  V30 1233 N 125.638 -1.25649 -0.95132 0
M  V30 1234 C 126.866 -1.13343 -1.73092 0
M  V30 1235 C 127.281 0.312434 -1.86197 0
M  V30 1236 O 126.638 1.21465 -1.36207 0
M  V30 1237 C 126.689 -1.78602 -3.14299 0
M  V30 1238 O 126.41 -3.17537 -3.01831 0
M  V30 1239 C 127.911 -1.72119 -4.08522 0
M  V30 1240 H 125.131 -0.395181 -0.542285 0
M  V30 1241 H 127.675 -1.66076 -1.19328 0
M  V30 1242 H 125.83 -1.29832 -3.64996 0
M  V30 1243 H 126.244 -3.49676 -3.90931 0
M  V30 1244 H 127.718 -2.22435 -5.052 0
M  V30 1245 H 128.195 -0.685635 -4.33815 0
M  V30 1246 H 128.801 -2.20393 -3.63741 0
M  V30 1247 N 127.117 1.15442 -1.07289 0
M  V30 1248 C 128.047 2.22312 -0.714107 0
M  V30 1249 C 129.028 1.67467 0.298155 0
M  V30 1250 O 130.213 1.93445 0.171048 0
M  V30 1251 C 127.343 3.47124 -0.110448 0
M  V30 1252 C 126.297 4.14926 -1.04979 0
M  V30 1253 C 125.623 5.33807 -0.308924 0
M  V30 1254 C 126.923 4.64762 -2.38314 0
M  V30 1255 H 128.617 2.5258 -1.6076 0
M  V30 1256 H 126.163 1.21404 -0.77441 0
M  V30 1257 H 128.116 4.21124 0.152482 0
M  V30 1258 H 126.84 3.16187 0.81812 0
M  V30 1259 H 125.499 3.42866 -1.29764 0
M  V30 1260 H 125.147 4.99126 0.623084 0
M  V30 1261 H 124.847 5.80113 -0.935036 0
M  V30 1262 H 126.371 6.10576 -0.0537771 0
M  V30 1263 H 127.785 5.30292 -2.1786 0
M  V30 1264 H 126.182 5.21728 -2.96514 0
M  V30 1265 H 127.252 3.80434 -3.00663 0
M  V30 1266 N 128.595 0.856903 1.32268 0
M  V30 1267 C 129.843 0.460474 1.96784 0
M  V30 1268 C 130.164 -0.987701 1.68135 0
M  V30 1269 O 129.434 -1.69058 0.989765 0
M  V30 1270 H 128.014 0.167289 0.728027 0
M  V30 1271 H 130.676 1.09383 1.61312 0
M  V30 1272 H 129.772 0.60739 3.06133 0
M  V30 1273 N 130.073 -1.45103 0.615059 0
M  V30 1274 C 131.021 -2.32331 -0.111791 0
M  V30 1275 C 132.015 -1.46409 -0.852102 0
M  V30 1276 O 133.221 -1.62849 -0.766821 0
M  V30 1277 H 129.596 -0.749993 -0.0549072 0
M  V30 1278 H 131.567 -2.91407 0.642225 0
M  V30 1279 C 130.316 -3.3015 -1.09071 0
M  V30 1280 H 129.639 -3.96265 -0.530485 0
M  V30 1281 H 131.079 -3.93898 -1.56908 0
M  V30 1282 C 129.538 -2.57875 -2.168 0
M  V30 1283 O 130.068 -2.36567 -3.24652 0
M  V30 1284 N 128.274 -2.17884 -1.92289 0
M  V30 1285 H 127.821 -2.35413 -1.04587 0
M  V30 1286 H 127.779 -1.6985 -2.64572 0
M  V30 1287 N 131.551 -0.354651 -1.53558 0
M  V30 1288 C 132.776 0.242153 -2.05981 0
M  V30 1289 C 133.201 1.42553 -1.2272 0
M  V30 1290 O 132.559 1.79656 -0.243604 0
M  V30 1291 C 132.607 0.624367 -3.55154 0
M  V30 1292 O 131.711 1.72301 -3.74681 0
M  V30 1293 H 131.052 0.0378432 -0.662921 0
M  V30 1294 H 133.582 -0.512087 -1.98088 0
M  V30 1295 H 133.592 0.898433 -3.97985 0
M  V30 1296 H 132.267 -0.240989 -4.15201 0
M  V30 1297 H 130.844 1.44535 -3.4375 0
M  V30 1298 N 133.029 1.57378 -0.0835403 0
M  V30 1299 C 134.257 1.98263 0.59157 0
M  V30 1300 C 134.672 0.962302 1.62435 0
M  V30 1301 O 134.029 -0.049581 1.82433 0
M  V30 1302 C 134.08 3.39214 1.24965 0
M  V30 1303 O 133.801 4.37339 0.258186 0
M  V30 1304 C 135.302 3.95038 2.01147 0
M  V30 1305 H 132.522 0.651773 0.159477 0
M  V30 1306 H 135.066 2.03878 -0.159415 0
M  V30 1307 H 133.221 3.34649 1.95164 0
M  V30 1308 H 133.635 5.19371 0.731734 0
M  V30 1309 H 135.109 4.95848 2.42567 0
M  V30 1310 H 135.586 3.32222 2.87272 0
M  V30 1311 H 136.192 4.0304 1.35789 0
M  V30 1312 N 134.507 -0.190092 1.56449 0
M  V30 1313 C 135.756 -0.907912 1.80111 0
M  V30 1314 C 136.069 -1.84214 0.657619 0
M  V30 1315 O 137.275 -2.60094 0.778663 0
M  V30 1316 C 135.731 -1.66485 3.19078 0
M  V30 1317 C 135.339 -0.7752 4.41242 0
M  V30 1318 C 137.083 -2.37201 3.52045 0
M  V30 1319 C 134.99 -1.53129 5.71231 0
M  V30 1320 H 133.92 -0.34276 0.671589 0
M  V30 1321 H 136.571 -0.161109 1.82791 0
M  V30 1322 H 134.953 -2.45572 3.10661 0
M  V30 1323 H 136.127 -0.0226298 4.60794 0
M  V30 1324 H 134.442 -0.178627 4.16017 0
M  V30 1325 H 137.039 -2.94329 4.46402 0
M  V30 1326 H 137.382 -3.11632 2.76028 0
M  V30 1327 H 137.915 -1.65075 3.61932 0
M  V30 1328 H 134.654 -0.82967 6.50228 0
M  V30 1329 H 134.174 -2.25767 5.55688 0
M  V30 1330 H 135.853 -2.08377 6.12526 0
M  V30 1331 N 135.985 -1.50799 -0.457987 0
M  V30 1332 C 137.213 -1.66218 -1.23203 0
M  V30 1333 C 137.628 -0.350894 -1.85511 0
M  V30 1334 O 136.985 0.668546 -1.69814 0
M  V30 1335 C 137.036 -2.76291 -2.33121 0
M  V30 1336 O 136.757 -4.02338 -1.73366 0
M  V30 1337 C 138.258 -3.028 -3.2377 0
M  V30 1338 H 135.478 -0.558361 -0.372121 0
M  V30 1339 H 138.022 -1.97099 -0.545179 0
M  V30 1340 H 136.177 -2.48068 -2.97558 0
M  V30 1341 H 136.591 -4.63312 -2.4585 0
M  V30 1342 H 138.065 -3.8345 -3.97077 0
M  V30 1343 H 138.542 -2.14385 -3.83322 0
M  V30 1344 H 139.148 -3.32604 -2.65056 0
M  V30 1345 N 137.463 0.71206 -1.40597 0
M  V30 1346 C 138.691 1.50111 -1.42388 0
M  V30 1347 C 139.106 1.88784 -0.0245395 0
M  V30 1348 O 138.463 1.55681 0.952351 0
M  V30 1349 C 138.514 2.7742 -2.31776 0
M  V30 1350 O 138.235 2.40382 -3.66262 0
M  V30 1351 C 139.736 3.7129 -2.42196 0
M  V30 1352 H 136.956 0.46314 -0.485533 0
M  V30 1353 H 139.5 0.878068 -1.8469 0
M  V30 1354 H 137.655 3.36001 -1.92827 0
M  V30 1355 H 138.069 3.22324 -4.13772 0
M  V30 1356 H 139.543 4.57448 -3.08943 0
M  V30 1357 H 140.02 4.14641 -1.44809 0
M  V30 1358 H 140.626 3.18619 -2.81712 0
M  V30 1359 N 138.941 1.26152 0.944643 0
M  V30 1360 C 139.873 1.03199 2.04652 0
M  V30 1361 C 140.886 -0.00642356 1.62799 0
M  V30 1362 O 142.075 0.233263 1.76969 0
M  V30 1363 C 139.175 0.540111 3.34568 0
M  V30 1364 C 138.348 1.64697 4.05208 0
M  V30 1365 C 137.407 1.15374 5.13396 0
M  V30 1366 O 136.433 1.85013 5.38293 0
M  V30 1367 N 137.635 0.00031529 5.805 0
M  V30 1368 H 140.4 1.9808 2.2491 0
M  V30 1369 H 137.961 1.17491 1.11389 0
M  V30 1370 H 139.953 0.194401 4.04233 0
M  V30 1371 H 138.523 -0.315021 3.11009 0
M  V30 1372 H 137.743 2.16379 3.29506 0
M  V30 1373 H 139.031 2.3903 4.49157 0
M  V30 1374 H 138.429 -0.581336 5.62705 0
M  V30 1375 H 136.986 -0.286346 6.51171 0
M  V30 1376 N 140.419 -1.14872 1.07899 0
M  V30 1377 C 141.329 -2.2341 0.715915 0
M  V30 1378 C 142.345 -1.71808 -0.275306 0
M  V30 1379 O 143.521 -2.01039 -0.120545 0
M  V30 1380 C 140.586 -3.46474 0.125168 0
M  V30 1381 C 139.647 -4.13039 1.17034 0
M  V30 1382 C 138.88 -5.30229 0.607688 0
M  V30 1383 O 139.103 -5.675 -0.574497 0
M  V30 1384 O 138.037 -5.86444 1.35526 0
M  V30 1385 H 141.863 -2.56808 1.62121 0
M  V30 1386 H 139.448 -1.22702 0.852322 0
M  V30 1387 H 141.33 -4.20917 -0.201729 0
M  V30 1388 H 140.005 -3.14811 -0.753364 0
M  V30 1389 H 138.912 -3.40493 1.54968 0
M  V30 1390 H 140.245 -4.48796 2.02097 0
M  V30 1391 N 141.898 -0.863906 -1.31812 0
M  V30 1392 C 142.861 -0.320212 -2.26952 0
M  V30 1393 C 143.861 0.525369 -1.51975 0
M  V30 1394 O 145.051 0.335547 -1.70938 0
M  V30 1395 C 142.183 0.545919 -3.365 0
M  V30 1396 H 143.376 -1.16004 -2.76556 0
M  V30 1397 H 140.929 -0.638995 -1.42641 0
M  V30 1398 H 141.664 1.40718 -2.92179 0
M  V30 1399 H 141.449 -0.0594674 -3.92055 0
M  V30 1400 H 142.939 0.918796 -4.07367 0
M  V30 1401 N 143.376 1.44774 -0.622745 0
M  V30 1402 C 144.339 2.29069 0.0774015 0
M  V30 1403 C 145.339 1.4059 0.780461 0
M  V30 1404 O 146.529 1.62551 0.626322 0
M  V30 1405 C 143.661 3.21974 1.12006 0
M  V30 1406 H 144.854 2.92459 -0.663901 0
M  V30 1407 H 142.407 1.51548 -0.382486 0
M  V30 1408 H 143.142 2.63417 1.89162 0
M  V30 1409 H 142.927 3.87168 0.619951 0
M  V30 1410 H 144.417 3.85318 1.60995 0
M  V30 1411 N 144.854 0.36279 1.53368 0
M  V30 1412 C 145.802 -0.500155 2.27159 0
M  V30 1413 C 146.796 -1.08575 1.3003 0
M  V30 1414 O 148.002 -1.02927 1.47668 0
M  V30 1415 H 144.377 -0.180009 0.730138 0
M  V30 1416 H 146.348 0.14401 2.98052 0
M  V30 1417 C 145.097 -1.62937 3.07159 0
M  V30 1418 H 144.42 -1.18806 3.8174 0
M  V30 1419 H 145.86 -2.20795 3.61975 0
M  V30 1420 C 144.319 -2.57007 2.17829 0
M  V30 1421 O 144.849 -3.59752 1.78721 0
M  V30 1422 N 143.055 -2.26131 1.82518 0
M  V30 1423 H 142.602 -1.42616 2.14519 0
M  V30 1424 H 142.56 -2.89327 1.23034 0
M  V30 1425 N 146.332 -1.57332 0.0918853 0
M  V30 1426 C 147.581 -1.93412 -0.572249 0
M  V30 1427 C 147.894 -0.975515 -1.69538 0
M  V30 1428 O 149.1 -1.22991 -2.42045 0
M  V30 1429 C 147.556 -3.43648 -1.0693 0
M  V30 1430 C 147.164 -4.47994 0.0239049 0
M  V30 1431 C 148.908 -3.88695 -1.70635 0
M  V30 1432 C 146.815 -5.89381 -0.488319 0
M  V30 1433 H 145.745 -0.721939 -0.217532 0
M  V30 1434 H 148.396 -1.82735 0.167369 0
M  V30 1435 H 146.778 -3.49466 -1.8625 0
M  V30 1436 H 147.952 -4.53815 0.799277 0
M  V30 1437 H 146.267 -4.12536 0.565946 0
M  V30 1438 H 148.864 -4.91725 -2.10025 0
M  V30 1439 H 149.207 -3.27166 -2.57426 0
M  V30 1440 H 149.74 -3.85564 -0.979023 0
M  V30 1441 H 146.479 -6.54602 0.342906 0
M  V30 1442 H 145.999 -5.87037 -1.23077 0
M  V30 1443 H 147.678 -6.39863 -0.958317 0
M  V30 1444 N 147.81 0.181792 -1.56548 0
M  V30 1445 C 149.05 0.906711 -1.83189 0
M  V30 1446 C 149.414 1.79882 -0.671312 0
M  V30 1447 O 150.615 2.56054 -0.81792 0
M  V30 1448 C 148.886 1.69023 -3.14906 0
M  V30 1449 S 150.445 2.46535 -3.62996 0
M  V30 1450 H 147.263 0.303877 -0.642791 0
M  V30 1451 H 149.865 0.169107 -1.94767 0
M  V30 1452 H 148.569 1.02571 -3.97376 0
M  V30 1453 H 148.1 2.46941 -3.06241 0
M  V30 1454 H 150.115 3.71014 -3.29489 0
M  V30 1455 N 149.288 1.51039 0.449983 0
M  V30 1456 C 150.534 1.63322 1.20223 0
M  V30 1457 C 150.867 0.34241 1.91158 0
M  V30 1458 O 150.142 -0.657344 1.83055 0
M  V30 1459 C 150.425 2.82801 2.22925 0
M  V30 1460 C 150.278 4.21823 1.56157 0
M  V30 1461 C 151.597 2.97807 3.24035 0
M  V30 1462 H 148.716 0.594407 0.435718 0
M  V30 1463 H 151.358 1.83489 0.493136 0
M  V30 1464 H 149.508 2.65738 2.834 0
M  V30 1465 H 151.18 4.50526 0.991162 0
M  V30 1466 H 149.423 4.25105 0.864172 0
M  V30 1467 H 150.094 5.01391 2.30891 0
M  V30 1468 H 152.57 3.13497 2.73603 0
M  V30 1469 H 151.446 3.82992 3.93202 0
M  V30 1470 H 151.707 2.09328 3.89402 0
M  V30 1471 N 150.766 -0.704594 1.40972 0
M  V30 1472 C 151.729 -1.80035 1.41845 0
M  V30 1473 C 152.729 -1.57774 0.310474 0
M  V30 1474 O 153.919 -1.64613 0.56992 0
M  V30 1475 C 151.051 -3.18284 1.22098 0
M  V30 1476 H 152.244 -1.80658 2.3938 0
M  V30 1477 H 149.797 -0.911329 1.26982 0
M  V30 1478 H 150.532 -3.23306 0.253672 0
M  V30 1479 H 150.317 -3.35843 2.02366 0
M  V30 1480 H 151.807 -3.98289 1.25522 0
M  V30 1481 N 152.244 -1.26651 -0.937939 0
M  V30 1482 C 153.474 -1.15006 -1.71631 0
M  V30 1483 C 153.882 0.297026 -1.86854 0
M  V30 1484 O 153.225 1.21493 -1.37786 0
M  V30 1485 C 153.287 -1.74984 -3.14039 0
M  V30 1486 C 152.951 -3.24103 -3.2219 0
M  V30 1487 C 153.948 -4.20877 -3.05219 0
M  V30 1488 C 151.633 -3.64625 -3.45476 0
M  V30 1489 C 153.627 -5.56151 -3.11408 0
M  V30 1490 C 151.314 -5.00032 -3.513 0
M  V30 1491 C 152.312 -5.95604 -3.34282 0
M  V30 1492 O 152 -7.28545 -3.3982 0
M  V30 1493 H 151.732 -0.401183 -0.544085 0
M  V30 1494 H 154.286 -1.67832 -1.18413 0
M  V30 1495 H 152.516 -1.16624 -3.68695 0
M  V30 1496 H 154.205 -1.58199 -3.73802 0
M  V30 1497 H 154.971 -3.90908 -2.87081 0
M  V30 1498 H 150.85 -2.90718 -3.57777 0
M  V30 1499 H 154.394 -6.30727 -2.98043 0
M  V30 1500 H 150.291 -5.29659 -3.68959 0
M  V30 1501 H 151.059 -7.3686 -3.56343 0
M  V30 1502 N 153.722 1.14298 -1.08507 0
M  V30 1503 C 154.97 1.84993 -0.813763 0
M  V30 1504 C 155.291 1.83405 0.662393 0
M  V30 1505 O 154.561 1.28319 1.48024 0
M  V30 1506 H 153.141 0.684966 -0.298045 0
M  V30 1507 H 155.803 1.385 -1.37126 0
M  V30 1508 H 154.899 2.89788 -1.15884 0
M  V30 1509 N 155.201 0.870884 1.31352 0
M  V30 1510 C 156.441 0.488783 1.9847 0
M  V30 1511 C 156.805 -0.941536 1.67329 0
M  V30 1512 O 158.006 -1.42903 2.27667 0
M  V30 1513 C 156.277 0.739688 3.49662 0
M  V30 1514 S 157.836 0.457582 4.36408 0
M  V30 1515 H 154.654 0.18242 0.6872 0
M  V30 1516 H 157.256 1.12711 1.59739 0
M  V30 1517 H 155.96 1.77944 3.69816 0
M  V30 1518 H 155.491 0.0883905 3.93301 0
M  V30 1519 H 157.506 -0.709752 4.91098 0
M  V30 1520 N 156.679 -1.44442 0.630414 0
M  V30 1521 C 157.925 -2.02894 0.143332 0
M  V30 1522 C 158.28 -1.48697 -1.22094 0
M  V30 1523 O 157.573 -0.661171 -1.79831 0
M  V30 1524 C 157.767 -3.57332 0.0697835 0
M  V30 1525 C 157.596 -4.26512 1.42539 0
M  V30 1526 C 156.366 -4.63516 2.01198 0
M  V30 1527 C 158.564 -4.57004 2.35907 0
M  V30 1528 N 156.546 -5.17661 3.30001 0
M  V30 1529 C 157.917 -5.12223 3.49324 0
M  V30 1530 C 159.972 -4.38955 2.34995 0
M  V30 1531 C 158.675 -5.51295 4.62024 0
M  V30 1532 C 160.701 -4.79075 3.46758 0
M  V30 1533 C 160.063 -5.34407 4.58899 0
M  V30 1534 H 156.162 -0.776041 0.0963523 0
M  V30 1535 H 158.746 -1.75945 0.833752 0
M  V30 1536 H 156.917 -3.83894 -0.589915 0
M  V30 1537 H 158.649 -4.02451 -0.42606 0
M  V30 1538 H 155.404 -4.47811 1.54151 0
M  V30 1539 H 155.828 -5.4921 3.95851 0
M  V30 1540 H 160.47 -3.95469 1.49545 0
M  V30 1541 H 158.188 -5.93736 5.48182 0
M  V30 1542 H 161.774 -4.66824 3.47227 0
M  V30 1543 H 160.654 -5.64878 5.4395 0
M  V30 1544 N 158.157 -0.370918 -1.53173 0
M  V30 1545 C 159.568 0.107139 -1.86392 0
M  V30 1546 C 159.919 1.47714 -1.29132 0
M  V30 1547 O 159.044 2.07464 -0.615439 0
M  V30 1548 C 159.639 0.201187 -3.38202 0
M  V30 1549 C 158.198 0.623507 -3.712 0
M  V30 1550 C 157.345 -0.225978 -2.76378 0
M  V30 1551 H 160.296 -0.58951 -1.47345 0
M  V30 1552 H 160.317 1.02377 -3.66468 0
M  V30 1553 H 159.829 -0.796058 -3.79848 0
M  V30 1554 H 157.93 1.62879 -3.35114 0
M  V30 1555 H 158.043 0.394414 -4.77474 0
M  V30 1556 H 156.407 0.305962 -2.52856 0
M  V30 1557 H 157.19 -1.22086 -3.20858 0
M  V30 1558 N 159.635 1.57281 -0.100228 0
M  V30 1559 C 160.598 2.13158 0.842398 0
M  V30 1560 C 161.598 1.06202 1.20738 0
M  V30 1561 O 162.788 1.32066 1.13597 0
M  V30 1562 C 159.92 2.65639 2.13655 0
M  V30 1563 H 161.113 2.97766 0.357114 0
M  V30 1564 H 158.666 1.5559 0.148823 0
M  V30 1565 H 159.401 1.84566 2.66657 0
M  V30 1566 H 159.186 3.43844 1.88451 0
M  V30 1567 H 160.676 3.08846 2.81077 0
M  V30 1568 N 161.113 -0.173488 1.56642 0
M  V30 1569 C 162.06 -1.21482 1.96242 0
M  V30 1570 C 163.03 -1.44104 0.826027 0
M  V30 1571 O 164.215 -1.5688 1.08597 0
M  V30 1572 C 161.355 -2.54964 2.32567 0
M  V30 1573 C 160.468 -2.39739 3.59373 0
M  V30 1574 C 159.603 -3.66072 3.84921 0
M  V30 1575 C 158.642 -3.45771 5.05083 0
M  V30 1576 N 157.779 -4.64169 5.26775 0
M  V30 1577 H 162.619 -0.870123 2.85014 0
M  V30 1578 H 160.156 -0.418245 1.41029 0
M  V30 1579 H 162.114 -3.32758 2.5165 0
M  V30 1580 H 160.744 -2.87433 1.46908 0
M  V30 1581 H 159.796 -1.53131 3.48217 0
M  V30 1582 H 161.108 -2.20683 4.47326 0
M  V30 1583 H 160.262 -4.52303 4.0436 0
M  V30 1584 H 159.001 -3.88105 2.9534 0
M  V30 1585 H 158.006 -2.57927 4.85545 0
M  V30 1586 H 159.231 -3.25163 5.96193 0
M  V30 1587 H 157.177 -4.86425 4.40144 0
M  V30 1588 H 157.094 -4.48019 6.08946 0
M  V30 1589 H 158.362 -5.51689 5.5069 0
M  V30 1590 N 162.591 -1.51276 -0.441967 0
M  V30 1591 C 163.521 -1.752 -1.54361 0
M  V30 1592 C 164.502 -0.601682 -1.59103 0
M  V30 1593 O 165.687 -0.843913 -1.74905 0
M  V30 1594 C 162.817 -1.87282 -2.92477 0
M  V30 1595 C 161.771 -3.02687 -3.02596 0
M  V30 1596 C 161.097 -2.99947 -4.42647 0
M  V30 1597 C 162.397 -4.4273 -2.77106 0
M  V30 1598 H 164.091 -2.67442 -1.34592 0
M  V30 1599 H 161.637 -1.28694 -0.646048 0
M  V30 1600 H 163.59 -2.02602 -3.695 0
M  V30 1601 H 162.314 -0.916844 -3.13467 0
M  V30 1602 H 160.973 -2.87065 -2.28012 0
M  V30 1603 H 160.621 -2.02136 -4.60597 0
M  V30 1604 H 160.321 -3.77439 -4.50348 0
M  V30 1605 H 161.845 -3.17354 -5.2165 0
M  V30 1606 H 163.259 -4.58727 -3.43864 0
M  V30 1607 H 161.656 -5.21893 -2.96222 0
M  V30 1608 H 162.726 -4.53087 -1.72744 0
M  V30 1609 N 164.069 0.697108 -1.41344 0
M  V30 1610 C 165.294 1.49096 -1.44171 0
M  V30 1611 C 165.719 1.88038 -0.0481568 0
M  V30 1612 O 165.077 1.54525 0.948243 0
M  V30 1613 C 165.125 2.73088 -2.3549 0
M  V30 1614 O 164.229 3.70514 -1.81088 0
M  V30 1615 H 163.57 0.448801 -0.489361 0
M  V30 1616 H 166.1 0.856992 -1.85787 0
M  V30 1617 H 166.11 3.21413 -2.51312 0
M  V30 1618 H 164.785 2.44081 -3.36745 0
M  V30 1619 H 163.362 3.29441 -1.74708 0
M  V30 1620 N 165.547 1.27147 0.931209 0
M  V30 1621 C 166.824 1.0401 1.65654 0
M  V30 1622 C 167.204 -0.426297 2.06751 0
M  V30 1623 O 166.552 -1.40879 1.79904 0
M  V30 1624 C 166.762 1.99834 2.86125 0
M  V30 1625 C 168.11 2.29007 3.57549 0
M  V30 1626 O 169.134 1.97779 2.96246 0
M  V30 1627 O 167.993 2.82222 4.67989 0
M  V30 1628 H 165.087 0.396239 0.725895 0
M  V30 1629 H 167.633 1.38397 0.982056 0
M  V30 1630 H 166.405 2.98744 2.52721 0
M  V30 1631 H 166.028 1.65987 3.61295 0
M  V30 1632 N 167.025 -1.13721 1.09112 0
M  V30 1633 C 168.253 -1.88773 0.846899 0
M  V30 1634 C 168.668 -1.7896 -0.601572 0
M  V30 1635 O 168.025 -1.15394 -1.41388 0
M  V30 1636 C 168.076 -3.3849 1.26913 0
M  V30 1637 O 167.797 -3.48043 2.66079 0
M  V30 1638 C 169.298 -4.30518 1.05682 0
M  V30 1639 H 166.518 -0.59772 0.304914 0
M  V30 1640 H 169.062 -1.43977 1.45227 0
M  V30 1641 H 167.217 -3.80881 0.707723 0
M  V30 1642 H 167.631 -4.4109 2.83795 0
M  V30 1643 H 169.105 -5.3391 1.40156 0
M  V30 1644 H 169.582 -4.392 -0.00563416 0
M  V30 1645 H 170.188 -3.93893 1.60402 0
M  V30 1646 N 168.503 -0.877838 -1.30888 0
M  V30 1647 C 169.78 -0.413052 -1.91189 0
M  V30 1648 C 170.16 1.1056 -1.79832 0
M  V30 1649 O 169.508 1.93771 -1.21099 0
M  V30 1650 C 169.718 -0.903191 -3.3711 0
M  V30 1651 C 171.066 -0.93395 -4.14201 0
M  V30 1652 O 172.09 -0.849373 -3.45925 0
M  V30 1653 O 170.949 -1.05772 -5.36167 0
M  V30 1654 H 168.043 -0.125035 -0.817493 0
M  V30 1655 H 170.589 -0.966269 -1.39504 0
M  V30 1656 H 169.361 -1.94692 -3.39427 0
M  V30 1657 H 168.984 -0.328732 -3.96239 0
M  V30 1658 N 169.982 1.44106 -0.638065 0
M  V30 1659 C 170.945 2.29138 0.0531013 0
M  V30 1660 C 171.945 1.41409 0.765506 0
M  V30 1661 O 173.135 1.63206 0.609046 0
M  V30 1662 C 170.267 3.23144 1.08584 0
M  V30 1663 H 171.46 2.91739 -0.694883 0
M  V30 1664 H 169.013 1.51134 -0.398538 0
M  V30 1665 H 169.748 2.65408 1.86357 0
M  V30 1666 H 169.533 3.87804 0.578852 0
M  V30 1667 H 171.023 3.87004 1.56899 0
M  V30 1668 N 171.46 0.379036 1.52974 0
M  V30 1669 C 172.688 -0.20679 2.05864 0
M  V30 1670 C 173.103 -1.41356 1.25155 0
M  V30 1671 O 172.46 -1.8009 0.295588 0
M  V30 1672 C 172.511 -0.587045 3.56702 0
M  V30 1673 O 172.232 0.571776 4.34353 0
M  V30 1674 C 173.733 -1.22983 4.25899 0
M  V30 1675 H 170.953 -0.0336123 0.670158 0
M  V30 1676 H 173.497 0.541298 1.97206 0
M  V30 1677 H 171.652 -1.28504 3.65466 0
M  V30 1678 H 172.066 0.261544 5.23847 0
M  V30 1679 H 173.54 -1.44635 5.32715 0
M  V30 1680 H 174.017 -2.19416 3.80465 0
M  V30 1681 H 174.623 -0.572892 4.21424 0
M  V30 1682 N 172.938 -1.57226 0.108567 0
M  V30 1683 C 174.163 -1.99604 -0.563303 0
M  V30 1684 C 174.588 -0.987563 -1.6009 0
M  V30 1685 O 173.946 0.0421687 -1.81251 0
M  V30 1686 C 173.994 -3.40902 -1.17552 0
M  V30 1687 O 173.098 -3.42896 -2.2912 0
M  V30 1688 H 172.439 -0.648704 -0.1417 0
M  V30 1689 H 174.969 -2.03679 0.193961 0
M  V30 1690 H 174.979 -3.78886 -1.51357 0
M  V30 1691 H 173.654 -4.1382 -0.415445 0
M  V30 1692 H 172.231 -3.1672 -1.96832 0
M  V30 1693 N 174.416 0.165178 -1.56732 0
M  V30 1694 C 175.662 0.882112 -1.82611 0
M  V30 1695 C 175.995 1.81628 -0.687378 0
M  V30 1696 O 175.27 1.92009 0.310267 0
M  V30 1697 C 175.553 1.67245 -3.18906 0
M  V30 1698 C 175.406 0.760987 -4.43316 0
M  V30 1699 C 176.725 2.63884 -3.52212 0
M  V30 1700 H 173.844 0.319242 -0.664269 0
M  V30 1701 H 176.486 0.148052 -1.89422 0
M  V30 1702 H 174.636 2.29824 -3.1323 0
M  V30 1703 H 176.308 0.147596 -4.61064 0
M  V30 1704 H 174.551 0.0694102 -4.33744 0
M  V30 1705 H 175.222 1.34962 -5.35247 0
M  V30 1706 H 177.698 2.11429 -3.58381 0
M  V30 1707 H 176.574 3.16245 -4.48643 0
M  V30 1708 H 176.835 3.44377 -2.77231 0
M  V30 1709 N 175.894 1.51508 0.433938 0
M  V30 1710 C 177.171 1.54888 1.19453 0
M  V30 1711 C 177.551 0.315154 2.08734 0
M  V30 1712 O 176.899 -0.699558 2.17528 0
M  V30 1713 C 177.109 2.86467 1.99342 0
M  V30 1714 C 178.457 3.38545 2.56267 0
M  V30 1715 O 179.481 2.88041 2.0955 0
M  V30 1716 O 178.34 4.26675 3.41483 0
M  V30 1717 H 175.434 0.622863 0.544032 0
M  V30 1718 H 177.98 1.63823 0.442732 0
M  V30 1719 H 176.752 3.67718 1.33788 0
M  V30 1720 H 176.375 2.8071 2.8158 0
M  V30 1721 N 177.372 -0.689602 1.41712 0
M  V30 1722 C 178.319 -1.80345 1.44029 0
M  V30 1723 C 179.289 -1.63478 0.293948 0
M  V30 1724 O 180.474 -1.84244 0.495869 0
M  V30 1725 C 177.614 -3.18272 1.33405 0
M  V30 1726 C 176.727 -3.46529 2.57956 0
M  V30 1727 C 175.862 -4.74103 2.39582 0
M  V30 1728 C 174.901 -4.95347 3.5958 0
M  V30 1729 N 174.038 -6.14151 3.40239 0
M  V30 1730 H 178.878 -1.77698 2.39222 0
M  V30 1731 H 176.415 -0.867688 1.18784 0
M  V30 1732 H 178.373 -3.97956 1.25246 0
M  V30 1733 H 177.003 -3.2008 0.418164 0
M  V30 1734 H 176.055 -2.61207 2.76542 0
M  V30 1735 H 177.367 -3.58126 3.47199 0
M  V30 1736 H 176.521 -5.61853 2.28924 0
M  V30 1737 H 175.26 -4.64763 1.47805 0
M  V30 1738 H 174.265 -4.06044 3.70686 0
M  V30 1739 H 175.49 -5.06542 4.52318 0
M  V30 1740 H 173.436 -6.06013 2.51167 0
M  V30 1741 H 173.353 -6.26543 4.23061 0
M  V30 1742 H 174.621 -7.04619 3.33365 0
M  V30 1743 N 178.85 -1.27639 -0.924453 0
M  V30 1744 C 180.261 -1.12834 -1.48746 0
M  V30 1745 C 180.612 0.285505 -1.94112 0
M  V30 1746 O 179.737 1.17874 -1.81479 0
M  V30 1747 C 180.332 -2.04217 -2.70334 0
M  V30 1748 C 178.891 -1.93509 -3.22848 0
M  V30 1749 C 178.038 -1.96583 -1.95577 0
M  V30 1750 H 180.989 -1.40484 -0.738233 0
M  V30 1751 H 181.01 -1.59989 -3.4523 0
M  V30 1752 H 180.522 -3.07111 -2.37285 0
M  V30 1753 H 178.623 -0.936131 -3.60649 0
M  V30 1754 H 178.736 -2.79917 -3.88823 0
M  V30 1755 H 177.1 -1.4085 -2.12211 0
M  V30 1756 H 177.883 -3.01137 -1.64837 0
M  V30 1757 N 180.328 1.1314 -1.09713 0
M  V30 1758 C 181.556 1.88321 -0.856898 0
M  V30 1759 C 181.971 1.79276 0.592073 0
M  V30 1760 O 181.328 1.16142 1.40774 0
M  V30 1761 C 181.379 3.37812 -1.28706 0
M  V30 1762 O 181.1 3.46627 -2.67921 0
M  V30 1763 C 182.601 4.29952 -1.07964 0
M  V30 1764 H 179.821 0.596094 -0.308079 0
M  V30 1765 H 182.365 1.43205 -1.45988 0
M  V30 1766 H 180.52 3.805 -0.727912 0
M  V30 1767 H 180.934 4.39579 -2.8613 0
M  V30 1768 H 182.408 5.33159 -1.42986 0
M  V30 1769 H 182.885 4.39196 -0.0176577 0
M  V30 1770 H 183.491 3.93036 -1.62489 0
M  V30 1771 N 181.806 0.884767 1.30421 0
M  V30 1772 C 182.716 0.355398 2.31892 0
M  V30 1773 C 183.732 -0.542261 1.65335 0
M  V30 1774 O 184.908 -0.435432 1.96637 0
M  V30 1775 C 181.973 -0.421661 3.44126 0
M  V30 1776 C 181.034 0.505727 4.26311 0
M  V30 1777 C 180.267 -0.234343 5.33185 0
M  V30 1778 O 180.49 -1.46045 5.51386 0
M  V30 1779 O 179.424 0.415443 6.00465 0
M  V30 1780 H 183.25 1.19685 2.79122 0
M  V30 1781 H 180.835 0.648596 1.34587 0
M  V30 1782 H 182.717 -0.861641 4.12497 0
M  V30 1783 H 181.392 -1.23942 2.99032 0
M  V30 1784 H 180.299 0.994513 3.60639 0
M  V30 1785 H 181.632 1.28948 4.75009 0
M  V30 1786 N 183.284 -1.43765 0.645699 0
M  V30 1787 C 184.695 -1.85193 0.236719 0
M  V30 1788 C 185.046 -1.54045 -1.21509 0
M  V30 1789 O 184.171 -0.985694 -1.92647 0
M  V30 1790 C 184.766 -3.36151 0.422845 0
M  V30 1791 C 183.325 -3.76338 0.0682492 0
M  V30 1792 C 182.472 -2.67538 0.729306 0
M  V30 1793 H 185.423 -1.34025 0.849883 0
M  V30 1794 H 185.444 -3.79032 -0.333904 0
M  V30 1795 H 184.956 -3.5879 1.47958 0
M  V30 1796 H 183.057 -3.59312 -0.986179 0
M  V30 1797 H 183.17 -4.76603 0.488469 0
M  V30 1798 H 181.534 -2.54176 0.163235 0
M  V30 1799 H 182.317 -2.93006 1.78892 0
M  V30 1800 N 184.763 -0.387143 -1.52771 0
M  V30 1801 C 186.011 0.195349 -2.01154 0
M  V30 1802 C 186.332 1.475 -1.27549 0
M  V30 1803 O 185.602 1.91878 -0.394924 0
M  V30 1804 H 184.182 0.075178 -0.743207 0
M  V30 1805 H 186.844 -0.518337 -1.87881 0
M  V30 1806 H 185.94 0.407096 -3.09434 0
M  V30 1807 N 186.241 1.57166 -0.116904 0
M  V30 1808 C 187.487 1.95412 0.542405 0
M  V30 1809 C 187.82 1.00019 1.66463 0
M  V30 1810 O 187.095 0.0370346 1.94465 0
M  V30 1811 C 187.378 3.43615 1.07708 0
M  V30 1812 C 187.231 4.49781 -0.0415868 0
M  V30 1813 C 188.55 3.93616 1.96861 0
M  V30 1814 H 185.669 0.710543 0.195696 0
M  V30 1815 H 188.311 1.89027 -0.192038 0
M  V30 1816 H 186.461 3.49187 1.70296 0
M  V30 1817 H 188.133 4.56308 -0.676793 0
M  V30 1818 H 186.376 4.28033 -0.705019 0
M  V30 1819 H 187.047 5.50733 0.373717 0
M  V30 1820 H 189.523 3.90335 1.44146 0
M  V30 1821 H 188.399 4.97838 2.3119 0
M  V30 1822 H 188.66 3.34188 2.89432 0
M  V30 1823 N 187.719 -0.156864 1.56817 0
M  V30 1824 C 188.944 -0.890331 1.87318 0
M  V30 1825 C 189.369 -1.74394 0.704855 0
M  V30 1826 O 188.727 -1.77972 -0.345786 0
M  V30 1827 C 188.775 -1.73102 3.16336 0
M  V30 1828 O 187.879 -2.83422 2.99576 0
M  V30 1829 H 187.22 -0.24857 0.615718 0
M  V30 1830 H 189.75 -0.150649 2.04045 0
M  V30 1831 H 189.76 -2.12803 3.48107 0
M  V30 1832 H 188.435 -1.10412 4.00976 0
M  V30 1833 H 187.012 -2.47199 2.7919 0
M  V30 1834 N 189.197 -1.51736 -0.425897 0
M  V30 1835 C 190.16 -1.73271 -1.50032 0
M  V30 1836 C 191.16 -0.602639 -1.4908 0
M  V30 1837 O 192.35 -0.87033 -1.509 0
M  V30 1838 C 189.482 -1.79969 -2.89523 0
M  V30 1839 H 190.675 -2.69172 -1.32237 0
M  V30 1840 H 188.228 -1.41899 -0.65532 0
M  V30 1841 H 188.963 -0.859241 -3.1271 0
M  V30 1842 H 188.748 -2.62109 -2.91619 0
M  V30 1843 H 190.238 -1.9843 -3.67444 0
M  V30 1844 N 190.675 0.682077 -1.42076 0
M  V30 1845 C 191.952 1.43755 -1.32642 0
M  V30 1846 C 192.332 2.11063 0.0396611 0
M  V30 1847 O 191.68 2.02701 1.05474 0
M  V30 1848 C 191.89 2.44596 -2.48946 0
M  V30 1849 C 193.238 3.09454 -2.9073 0
M  V30 1850 O 194.262 2.54922 -2.48783 0
M  V30 1851 O 193.121 4.08253 -3.63307 0
M  V30 1852 H 190.215 0.640857 -0.522715 0
M  V30 1853 H 192.761 0.711415 -1.54068 0
M  V30 1854 H 191.533 1.93609 -3.40046 0
M  V30 1855 H 191.156 3.24701 -2.29467 0
M  V30 1856 N 192.153 1.28127 0.917671 0
M  V30 1857 C 193.116 1.11744 2.00115 0
M  V30 1858 C 194.116 0.0583052 1.60694 0
M  V30 1859 O 195.306 0.303755 1.71531 0
M  V30 1860 C 192.438 0.704862 3.33533 0
M  V30 1861 H 193.631 2.07966 2.16079 0
M  V30 1862 H 191.184 1.11058 1.09981 0
M  V30 1863 H 191.919 -0.258299 3.2327 0
M  V30 1864 H 191.704 1.4699 3.63505 0
M  V30 1865 H 193.194 0.612768 4.1308 0
M  V30 1866 N 193.631 -1.12557 1.10312 0
M  V30 1867 C 194.878 -1.84038 0.844759 0
M  V30 1868 C 195.206 -1.84026 -0.629668 0
M  V30 1869 O 194.461 -1.28026 -1.48013 0
M  V30 1870 C 194.76 -3.31462 1.33669 0
M  V30 1871 C 194.426 -3.51647 2.82232 0
M  V30 1872 C 193.088 -3.56864 3.22802 0
M  V30 1873 C 195.44 -3.58867 3.77974 0
M  V30 1874 C 192.768 -3.66844 4.57867 0
M  V30 1875 C 195.12 -3.70375 5.1284 0
M  V30 1876 C 193.784 -3.73848 5.52986 0
M  V30 1877 H 193.054 -0.673444 0.309119 0
M  V30 1878 H 195.701 -1.32824 1.37949 0
M  V30 1879 H 194.006 -3.85091 0.721949 0
M  V30 1880 H 195.703 -3.85236 1.11329 0
M  V30 1881 H 192.293 -3.48249 2.49842 0
M  V30 1882 H 196.477 -3.54107 3.47738 0
M  V30 1883 H 191.733 -3.67804 4.88396 0
M  V30 1884 H 195.907 -3.74904 5.86873 0
M  V30 1885 H 193.534 -3.81333 6.57639 0
M  V30 1886 N 195.109 -0.891671 -1.2995 0
M  V30 1887 C 196.339 -0.527893 -1.99742 0
M  V30 1888 C 196.747 0.88979 -1.66971 0
M  V30 1889 O 196.09 1.59766 -0.906667 0
M  V30 1890 C 196.152 -0.630804 -3.53922 0
M  V30 1891 C 195.816 -2.01401 -4.10228 0
M  V30 1892 C 196.813 -2.98422 -4.25724 0
M  V30 1893 C 194.498 -2.32121 -4.45449 0
M  V30 1894 C 196.492 -4.24293 -4.75662 0
M  V30 1895 C 194.179 -3.58237 -4.95086 0
M  V30 1896 C 195.177 -4.54137 -5.10146 0
M  V30 1897 O 194.865 -5.78014 -5.58708 0
M  V30 1898 H 194.597 -0.201953 -0.645129 0
M  V30 1899 H 197.151 -1.20076 -1.66646 0
M  V30 1900 H 195.381 0.0990616 -3.86573 0
M  V30 1901 H 197.07 -0.277338 -4.04951 0
M  V30 1902 H 197.836 -2.76001 -3.98809 0
M  V30 1903 H 193.715 -1.5824 -4.32991 0
M  V30 1904 H 197.259 -4.99153 -4.87332 0
M  V30 1905 H 193.156 -3.80491 -5.21437 0
M  V30 1906 H 193.924 -5.8049 -5.77039 0
M  V30 1907 N 196.587 1.43421 -0.653314 0
M  V30 1908 C 197.815 2.06163 -0.174491 0
M  V30 1909 C 198.23 1.48969 1.1599 0
M  V30 1910 O 197.587 0.621042 1.71608 0
M  V30 1911 C 197.638 3.61417 -0.0774865 0
M  V30 1912 O 197.359 4.16485 -1.35912 0
M  V30 1913 C 198.86 4.41235 0.427402 0
M  V30 1914 H 196.08 0.664946 -0.0899353 0
M  V30 1915 H 198.624 1.83924 -0.893988 0
M  V30 1916 H 196.779 3.82841 0.59257 0
M  V30 1917 H 197.193 5.10153 -1.21839 0
M  V30 1918 H 198.667 5.5021 0.44423 0
M  V30 1919 H 199.144 4.14268 1.45873 0
M  V30 1920 H 199.75 4.2478 -0.210167 0
M  V30 1921 N 198.065 0.39524 1.52563 0
M  V30 1922 C 198.995 -0.428384 2.29537 0
M  V30 1923 C 199.976 -1.05831 1.33169 0
M  V30 1924 O 201.161 -1.06995 1.62067 0
M  V30 1925 C 198.291 -1.55274 3.10656 0
M  V30 1926 C 197.245 -1.04855 4.14957 0
M  V30 1927 C 196.571 -2.26543 4.84337 0
M  V30 1928 C 197.871 -0.112324 5.22179 0
M  V30 1929 H 199.565 0.213867 2.98635 0
M  V30 1930 H 197.111 0.104298 1.43622 0
M  V30 1931 H 199.064 -2.1358 3.63265 0
M  V30 1932 H 197.788 -2.22266 2.39302 0
M  V30 1933 H 196.447 -0.487985 3.63338 0
M  V30 1934 H 196.095 -2.92059 4.09525 0
M  V30 1935 H 195.795 -1.93466 5.54837 0
M  V30 1936 H 197.319 -2.85481 5.39753 0
M  V30 1937 H 198.733 -0.603752 5.70112 0
M  V30 1938 H 197.13 0.128968 5.99961 0
M  V30 1939 H 198.2 0.837052 4.77621 0
M  V30 1940 N 199.544 -1.57102 0.125237 0
M  V30 1941 C 200.96 -1.57915 -0.231322 0
M  V30 1942 C 201.16 -1.13833 -1.66266 0
M  V30 1943 O 200.216 -0.828581 -2.38518 0
M  V30 1944 C 201.529 -3.00699 0.00766489 0
M  V30 1945 C 203.077 -3.12947 -0.0577483 0
M  V30 1946 C 203.552 -4.57742 0.153626 0
M  V30 1947 N 205.043 -4.63092 0.0998073 0
M  V30 1948 C 205.778 -5.72905 0.238174 0
M  V30 1949 N 205.274 -6.91445 0.433057 0
M  V30 1950 N 207.067 -5.6182 0.177308 0
M  V30 1951 H 199.218 -1.84055 1.06007 0
M  V30 1952 H 201.481 -0.850905 0.417929 0
M  V30 1953 H 201.187 -3.3726 0.997431 0
M  V30 1954 H 201.061 -3.70236 -0.721452 0
M  V30 1955 H 203.448 -2.7624 -1.03804 0
M  V30 1956 H 203.529 -2.4594 0.70335 0
M  V30 1957 H 203.173 -4.95149 1.13092 0
M  V30 1958 H 203.103 -5.22848 -0.627534 0
M  V30 1959 H 205.594 -3.77871 -0.047051 0
M  V30 1960 H 205.907 -7.70985 0.529332 0
M  V30 1961 H 204.252 -6.93415 0.469109 0
M  V30 1962 H 207.443 -4.68093 0.0259748 0
M  V30 1963 H 207.616 -6.47357 0.288582 0
M  V30 1964 N 201.022 0.148545 -1.56898 0
M  V30 1965 C 202.247 0.880385 -1.87787 0
M  V30 1966 C 202.672 1.74018 -0.714093 0
M  V30 1967 O 202.03 1.78153 0.336343 0
M  V30 1968 C 202.078 1.71422 -3.17249 0
M  V30 1969 O 201.182 2.8183 -3.01074 0
M  V30 1970 H 200.523 0.245301 -0.617028 0
M  V30 1971 H 203.053 0.139826 -2.04122 0
M  V30 1972 H 203.063 2.10954 -3.49231 0
M  V30 1973 H 201.738 1.08284 -4.01556 0
M  V30 1974 H 200.315 2.45715 -2.80497 0
M  V30 1975 N 202.5 1.5196 0.417844 0
M  V30 1976 C 203.447 1.74678 1.50852 0
M  V30 1977 C 204.417 0.588947 1.55308 0
M  V30 1978 O 205.602 0.825544 1.72016 0
M  V30 1979 C 202.742 1.89544 2.88387 0
M  V30 1980 C 201.855 3.17166 2.93309 0
M  V30 1981 C 200.99 3.22513 4.22088 0
M  V30 1982 C 200.029 4.44372 4.20951 0
M  V30 1983 N 199.166 4.47161 5.41287 0
M  V30 1984 H 204.006 2.67768 1.30783 0
M  V30 1985 H 201.543 1.32689 0.63498 0
M  V30 1986 H 203.501 1.96146 3.68216 0
M  V30 1987 H 202.131 0.998424 3.06971 0
M  V30 1988 H 201.183 3.19778 2.06024 0
M  V30 1989 H 202.495 4.07021 2.88332 0
M  V30 1990 H 201.649 3.28139 5.10303 0
M  V30 1991 H 200.388 2.30581 4.29748 0
M  V30 1992 H 199.393 4.38902 3.31127 0
M  V30 1993 H 200.618 5.3759 4.14938 0
M  V30 1994 H 198.564 3.58108 5.49632 0
M  V30 1995 H 198.481 5.3085 5.3827 0
M  V30 1996 H 199.749 4.57005 6.3148 0
M  V30 1997 N 203.978 -0.674533 1.42435 0
M  V30 1998 C 205.389 -1.25514 1.38214 0
M  V30 1999 C 205.74 -1.96055 0.0755464 0
M  V30 2000 O 204.865 -2.00028 -0.8257 0
M  V30 2001 C 205.46 -2.28269 2.50357 0
M  V30 2002 C 204.019 -2.81856 2.49467 0
M  V30 2003 C 203.166 -1.56182 2.29134 0
M  V30 2004 H 206.117 -0.467902 1.51646 0
M  V30 2005 H 206.138 -3.10009 2.20624 0
M  V30 2006 H 205.65 -1.769 3.45439 0
M  V30 2007 H 203.751 -3.37346 1.58204 0
M  V30 2008 H 203.864 -3.30854 3.46515 0
M  V30 2009 H 202.228 -1.82761 1.774 0
M  V30 2010 H 203.011 -1.06778 3.26272 0
M  V30 2011 N 205.456 -1.28612 -0.910864 0
M  V30 2012 C 206.702 -1.17116 -1.66299 0
M  V30 2013 C 207.057 0.276917 -1.90397 0
M  V30 2014 O 206.35 1.19795 -1.49532 0
M  V30 2015 C 206.544 -1.90624 -3.0232 0
M  V30 2016 C 206.373 -3.42431 -2.91498 0
M  V30 2017 C 205.143 -4.11773 -2.92867 0
M  V30 2018 C 207.341 -4.38124 -2.69355 0
M  V30 2019 N 205.323 -5.50025 -2.72664 0
M  V30 2020 C 206.694 -5.63759 -2.58023 0
M  V30 2021 C 208.749 -4.28016 -2.54375 0
M  V30 2022 C 207.452 -6.80436 -2.33238 0
M  V30 2023 C 209.478 -5.44433 -2.30969 0
M  V30 2024 C 208.84 -6.69034 -2.20394 0
M  V30 2025 H 204.939 -0.483506 -0.61461 0
M  V30 2026 H 207.523 -1.62299 -1.0755 0
M  V30 2027 H 205.694 -1.4787 -3.5915 0
M  V30 2028 H 207.426 -1.71488 -3.66571 0
M  V30 2029 H 204.181 -3.63378 -3.03732 0
M  V30 2030 H 204.605 -6.22705 -2.65646 0
M  V30 2031 H 209.247 -3.32388 -2.613 0
M  V30 2032 H 206.965 -7.7613 -2.25051 0
M  V30 2033 H 210.551 -5.38504 -2.20238 0
M  V30 2034 H 209.431 -7.57595 -2.02531 0
M  V30 2035 N 206.934 1.1197 -1.10907 0
M  V30 2036 C 207.866 2.17592 -0.720175 0
M  V30 2037 C 208.879 1.60938 0.245495 0
M  V30 2038 O 210.068 1.78476 0.0292245 0
M  V30 2039 C 207.168 3.38873 -0.0427917 0
M  V30 2040 C 206.341 4.25006 -1.03388 0
M  V30 2041 C 205.4 5.24774 -0.387075 0
M  V30 2042 O 204.426 5.59631 -1.03934 0
M  V30 2043 N 205.628 5.74208 0.852407 0
M  V30 2044 H 208.393 2.51567 -1.62893 0
M  V30 2045 H 205.954 1.27439 -0.998543 0
M  V30 2046 H 207.946 4.02703 0.401501 0
M  V30 2047 H 206.516 3.03007 0.768456 0
M  V30 2048 H 205.736 3.57716 -1.65629 0
M  V30 2049 H 207.024 4.79397 -1.70458 0
M  V30 2050 H 206.422 5.48062 1.40161 0
M  V30 2051 H 204.979 6.39901 1.23977 0
M  V30 2052 N 208.412 0.89855 1.29475 0
M  V30 2053 C 209.375 0.380272 2.26023 0
M  V30 2054 C 210.375 -0.484891 1.53315 0
M  V30 2055 O 211.565 -0.290108 1.71767 0
M  V30 2056 C 208.697 -0.45651 3.3783 0
M  V30 2057 H 209.89 1.23295 2.73383 0
M  V30 2058 H 207.443 0.676589 1.40897 0
M  V30 2059 H 208.178 -1.32922 2.95808 0
M  V30 2060 H 207.963 0.163393 3.91759 0
M  V30 2061 H 209.453 -0.810466 4.0966 0
M  V30 2062 N 209.89 -1.43072 0.660911 0
M  V30 2063 C 211.167 -1.95307 0.107017 0
M  V30 2064 C 211.547 -1.60192 -1.37484 0
M  V30 2065 O 210.895 -0.890949 -2.10415 0
M  V30 2066 C 211.105 -3.47124 0.361402 0
M  V30 2067 C 212.453 -4.23738 0.270455 0
M  V30 2068 O 213.477 -3.54981 0.294382 0
M  V30 2069 O 212.336 -5.46131 0.200737 0
M  V30 2070 H 209.43 -0.826984 -0.00517729 0
M  V30 2071 H 211.976 -1.52972 0.734681 0
M  V30 2072 H 210.748 -3.65837 1.38848 0
M  V30 2073 H 210.371 -3.96475 -0.298953 0
M  V30 2074 N 211.368 -0.403325 -1.52352 0
M  V30 2075 C 212.593 0.176499 -2.06648 0
M  V30 2076 C 213.018 1.38577 -1.27193 0
M  V30 2077 O 212.376 1.7879 -0.300637 0
M  V30 2078 C 212.424 0.511061 -3.5696 0
M  V30 2079 O 211.528 1.60294 -3.79973 0
M  V30 2080 H 210.869 0.0167337 -0.663789 0
M  V30 2081 H 213.399 -0.574848 -1.96359 0
M  V30 2082 H 213.409 0.771362 -4.00642 0
M  V30 2083 H 212.084 -0.37296 -4.14224 0
M  V30 2084 H 210.661 1.33526 -3.48174 0
M  V30 2085 N 212.846 1.57033 -0.133567 0
M  V30 2086 C 213.793 2.16074 0.811208 0
M  V30 2087 C 214.763 1.08979 1.2535 0
M  V30 2088 O 215.948 1.36958 1.32843 0
M  V30 2089 C 213.088 2.77595 2.05024 0
M  V30 2090 C 212.201 3.99042 1.65498 0
M  V30 2091 C 211.336 4.48603 2.84479 0
M  V30 2092 C 210.375 5.62547 2.41262 0
M  V30 2093 N 209.512 6.06787 3.53206 0
M  V30 2094 H 214.352 2.96477 0.300906 0
M  V30 2095 H 211.889 1.46462 0.136822 0
M  V30 2096 H 213.847 3.11402 2.77642 0
M  V30 2097 H 212.477 1.99859 2.53488 0
M  V30 2098 H 211.529 3.71302 0.826981 0
M  V30 2099 H 212.841 4.81629 1.29748 0
M  V30 2100 H 211.995 4.84395 3.65303 0
M  V30 2101 H 210.734 3.64995 3.23465 0
M  V30 2102 H 209.739 5.26345 1.58874 0
M  V30 2103 H 210.964 6.47931 2.03377 0
M  V30 2104 H 208.91 5.26117 3.91838 0
M  V30 2105 H 208.827 6.84266 3.21427 0
M  V30 2106 H 210.095 6.4722 4.34427 0
M  V30 2107 N 214.325 -0.140222 1.56975 0
M  V30 2108 C 215.573 -0.850005 1.83356 0
M  V30 2109 C 215.894 -1.81399 0.71551 0
M  V30 2110 O 215.164 -1.94136 -0.262294 0
M  V30 2111 H 213.744 -0.316886 0.676456 0
M  V30 2112 H 216.406 -0.132608 1.94448 0
M  V30 2113 H 215.502 -1.40814 2.78528 0
M  V30 2114 N 215.803 -1.52179 -0.40978 0
M  V30 2115 C 217.049 -1.67408 -1.15525 0
M  V30 2116 C 217.404 -0.398746 -1.88223 0
M  V30 2117 O 216.697 0.60678 -1.81738 0
M  V30 2118 C 216.891 -2.83428 -2.17723 0
M  V30 2119 C 216.72 -4.22121 -1.55061 0
M  V30 2120 C 215.49 -4.87657 -1.3236 0
M  V30 2121 C 217.688 -5.04248 -1.01185 0
M  V30 2122 N 215.67 -6.10387 -0.655834 0
M  V30 2123 C 217.041 -6.18209 -0.470963 0
M  V30 2124 C 219.096 -4.89583 -0.906252 0
M  V30 2125 C 217.799 -7.1911 0.165172 0
M  V30 2126 C 219.825 -5.90718 -0.28397 0
M  V30 2127 C 219.187 -7.03969 0.246243 0
M  V30 2128 H 215.286 -0.666251 -0.409431 0
M  V30 2129 H 217.87 -1.89482 -0.447729 0
M  V30 2130 H 216.041 -2.6297 -2.85834 0
M  V30 2131 H 217.773 -2.87697 -2.84627 0
M  V30 2132 H 214.528 -4.46007 -1.59294 0
M  V30 2133 H 214.952 -6.76153 -0.338596 0
M  V30 2134 H 219.594 -4.02253 -1.302 0
M  V30 2135 H 217.312 -8.06066 0.572986 0
M  V30 2136 H 220.898 -5.81443 -0.203792 0
M  V30 2137 H 219.778 -7.80886 0.720173 0
M  V30 2138 N 217.281 0.66697 -1.42791 0
M  V30 2139 C 218.511 1.45294 -1.46878 0
M  V30 2140 C 218.919 1.89027 -0.0809861 0
M  V30 2141 O 218.262 1.59219 0.916246 0
M  V30 2142 C 218.324 2.72908 -2.34012 0
M  V30 2143 C 217.988 2.51203 -3.81767 0
M  V30 2144 C 218.985 2.15302 -4.73224 0
M  V30 2145 C 216.67 2.65954 -4.26115 0
M  V30 2146 C 218.664 1.94431 -6.07022 0
M  V30 2147 C 216.351 2.44699 -5.59969 0
M  V30 2148 C 217.349 2.08992 -6.5024 0
M  V30 2149 O 217.037 1.87948 -7.81621 0
M  V30 2150 H 216.769 0.453306 -0.501487 0
M  V30 2151 H 219.323 0.826232 -1.88049 0
M  V30 2152 H 217.553 3.38089 -1.87703 0
M  V30 2153 H 219.242 3.34816 -2.29462 0
M  V30 2154 H 220.008 2.03495 -4.40244 0
M  V30 2155 H 215.887 2.92724 -3.56137 0
M  V30 2156 H 219.431 1.66484 -6.77443 0
M  V30 2157 H 215.328 2.56105 -5.9252 0
M  V30 2158 H 216.096 2.02483 -7.93059 0
M  V30 2159 N 218.759 1.29093 0.90403 0
M  V30 2160 C 220.005 1.17996 1.65676 0
M  V30 2161 C 220.36 -0.266816 1.90541 0
M  V30 2162 O 219.653 -1.19 1.50165 0
M  V30 2163 C 219.847 1.92224 3.01305 0
M  V30 2164 C 219.676 3.43972 2.89678 0
M  V30 2165 C 218.446 4.1332 2.90679 0
M  V30 2166 C 220.644 4.39546 2.67028 0
M  V30 2167 N 218.626 5.51463 2.69743 0
M  V30 2168 C 219.997 5.65119 2.5503 0
M  V30 2169 C 222.052 4.29359 2.52101 0
M  V30 2170 C 220.755 6.81663 2.29626 0
M  V30 2171 C 222.781 5.4565 2.28079 0
M  V30 2172 C 222.143 6.70193 2.16843 0
M  V30 2173 H 218.242 0.486759 0.612037 0
M  V30 2174 H 220.826 1.62868 1.06688 0
M  V30 2175 H 218.997 1.49773 3.58361 0
M  V30 2176 H 220.729 1.73429 3.65656 0
M  V30 2177 H 217.484 3.64984 3.01801 0
M  V30 2178 H 217.908 6.24105 2.6234 0
M  V30 2179 H 222.55 3.33769 2.59534 0
M  V30 2180 H 220.268 7.77313 2.20932 0
M  V30 2181 H 223.854 5.39664 2.1738 0
M  V30 2182 H 222.734 7.58659 1.98511 0
M  V30 2183 N 220.237 -1.11381 1.11499 0
M  V30 2184 C 221.184 -2.17439 0.773887 0
M  V30 2185 C 222.154 -1.64132 -0.254899 0
M  V30 2186 O 223.339 -1.90345 -0.13168 0
M  V30 2187 C 220.479 -3.44373 0.223917 0
M  V30 2188 C 219.592 -4.1168 1.30934 0
M  V30 2189 C 218.727 -5.263 0.71984 0
M  V30 2190 C 217.766 -5.85493 1.78507 0
M  V30 2191 N 216.903 -6.91507 1.21502 0
M  V30 2192 H 221.743 -2.45962 1.68246 0
M  V30 2193 H 219.28 -1.20744 0.840191 0
M  V30 2194 H 221.238 -4.17047 -0.112921 0
M  V30 2195 H 219.868 -3.16232 -0.647851 0
M  V30 2196 H 218.92 -3.37073 1.76312 0
M  V30 2197 H 220.232 -4.51729 2.11524 0
M  V30 2198 H 219.386 -6.05785 0.333094 0
M  V30 2199 H 218.125 -4.87559 -0.117377 0
M  V30 2200 H 217.13 -5.04686 2.18111 0
M  V30 2201 H 218.355 -6.26301 2.62533 0
M  V30 2202 H 216.301 -6.54783 0.399455 0
M  V30 2203 H 216.218 -7.30214 1.95763 0
M  V30 2204 H 217.486 -7.74795 0.855181 0
M  V30 2205 N 221.715 -0.905404 -1.28997 0
M  V30 2206 C 222.645 -0.404212 -2.29975 0
M  V30 2207 C 223.626 0.523784 -1.61835 0
M  V30 2208 O 224.811 0.433298 -1.89304 0
M  V30 2209 C 221.941 0.364042 -3.45387 0
M  V30 2210 C 220.895 -0.474048 -4.25367 0
M  V30 2211 C 220.221 0.422045 -5.33032 0
M  V30 2212 C 221.521 -1.72696 -4.92923 0
M  V30 2213 H 223.215 -1.24807 -2.72146 0
M  V30 2214 H 220.761 -0.601585 -1.30832 0
M  V30 2215 H 222.714 0.725447 -4.15109 0
M  V30 2216 H 221.438 1.24174 -3.02074 0
M  V30 2217 H 220.097 -0.81786 -3.57361 0
M  V30 2218 H 219.745 1.29804 -4.85963 0
M  V30 2219 H 219.445 -0.135057 -5.87445 0
M  V30 2220 H 220.969 0.779517 -6.05604 0
M  V30 2221 H 222.383 -1.43495 -5.55051 0
M  V30 2222 H 220.78 -2.22582 -5.57295 0
M  V30 2223 H 221.85 -2.45964 -4.17887 0
M  V30 2224 N 223.193 1.4272 -0.668489 0
M  V30 2225 C 224.604 1.84793 -0.266151 0
M  V30 2226 C 224.955 1.55959 1.19043 0
M  V30 2227 O 224.08 1.01622 1.91055 0
M  V30 2228 C 224.675 3.35436 -0.476271 0
M  V30 2229 C 223.234 3.76182 -0.128113 0
M  V30 2230 C 222.381 2.66344 -0.771777 0
M  V30 2231 H 225.332 1.32656 -0.871098 0
M  V30 2232 H 225.353 3.79515 0.273561 0
M  V30 2233 H 224.865 3.5639 -1.53647 0
M  V30 2234 H 222.966 3.60836 0.928891 0
M  V30 2235 H 223.079 4.75766 -0.564231 0
M  V30 2236 H 221.443 2.53885 -0.203652 0
M  V30 2237 H 222.226 2.90123 -1.83531 0
M  V30 2238 N 224.671 0.411399 1.52136 0
M  V30 2239 C 225.948 -0.222308 1.94333 0
M  V30 2240 C 226.328 -1.6242 1.34844 0
M  V30 2241 O 225.676 -2.22384 0.525145 0
M  V30 2242 C 225.886 -0.226345 3.48265 0
M  V30 2243 C 227.234 -0.444592 4.22266 0
M  V30 2244 O 228.258 -0.305602 3.54887 0
M  V30 2245 O 227.117 -0.718749 5.41753 0
M  V30 2246 H 224.211 -0.143907 0.814383 0
M  V30 2247 H 226.757 0.467506 1.63133 0
M  V30 2248 H 225.529 0.75475 3.83952 0
M  V30 2249 H 225.152 -0.960163 3.85832 0
M  V30 2250 N 226.149 -1.5696 0.141893 0
M  V30 2251 C 227.112 -2.15316 -0.785587 0
M  V30 2252 C 228.112 -1.09366 -1.1788 0
M  V30 2253 O 229.302 -1.35031 -1.10056 0
M  V30 2254 C 226.434 -2.71211 -2.06537 0
M  V30 2255 H 227.627 -2.98608 -0.278041 0
M  V30 2256 H 225.18 -1.5593 -0.107519 0
M  V30 2257 H 225.915 -1.91571 -2.6167 0
M  V30 2258 H 225.7 -3.4872 -1.79268 0
M  V30 2259 H 227.19 -3.16189 -2.72789 0
M  V30 2260 N 227.627 0.131896 -1.57047 0
M  V30 2261 C 228.557 1.16384 -2.02428 0
M  V30 2262 C 229.538 1.43936 -0.90644 0
M  V30 2263 O 230.723 1.54599 -1.17528 0
M  V30 2264 C 227.853 2.49328 -2.4177 0
M  V30 2265 C 226.807 2.36266 -3.56879 0
M  V30 2266 C 226.133 3.74057 -3.8208 0
M  V30 2267 C 227.433 1.834 -4.89042 0
M  V30 2268 H 229.127 0.786433 -2.88887 0
M  V30 2269 H 226.673 0.376855 -1.38981 0
M  V30 2270 H 228.626 3.21759 -2.7212 0
M  V30 2271 H 227.35 2.88934 -1.52266 0
M  V30 2272 H 226.009 1.66286 -3.26718 0
M  V30 2273 H 225.657 4.11125 -2.89803 0
M  V30 2274 H 225.357 3.66174 -4.59554 0
M  V30 2275 H 226.881 4.48012 -4.1487 0
M  V30 2276 H 228.295 2.45636 -5.18011 0
M  V30 2277 H 226.692 1.8637 -5.70426 0
M  V30 2278 H 227.762 0.790662 -4.7841 0
M  V30 2279 N 229.106 1.52395 0.401703 0
M  V30 2280 C 230.054 1.7689 1.51039 0
M  V30 2281 C 231.048 0.636298 1.56996 0
M  V30 2282 O 232.254 0.818507 1.60314 0
M  V30 2283 H 228.629 0.559502 0.502456 0
M  V30 2284 H 230.6 2.69757 1.27568 0
M  V30 2285 C 229.349 1.94331 2.88324 0
M  V30 2286 H 228.672 2.80905 2.84486 0
M  V30 2287 H 230.112 2.15466 3.65172 0
M  V30 2288 C 228.571 0.712396 3.29282 0
M  V30 2289 O 229.101 -0.116218 4.01532 0
M  V30 2290 N 227.307 0.546154 2.85422 0
M  V30 2291 H 226.854 1.22156 2.26794 0
M  V30 2292 H 226.812 -0.276113 3.13185 0
M  V30 2293 N 230.584 -0.659388 1.43143 0
M  V30 2294 C 231.532 -1.79374 1.4808 0
M  V30 2295 C 232.526 -1.65639 0.354988 0
M  V30 2296 O 233.732 -1.7206 0.528704 0
M  V30 2297 H 230.107 -0.591705 0.4641 0
M  V30 2298 H 232.078 -1.72329 2.43609 0
M  V30 2299 C 230.827 -3.17606 1.41499 0
M  V30 2300 H 230.15 -3.28809 2.27431 0
M  V30 2301 H 231.59 -3.96951 1.49015 0
M  V30 2302 C 230.049 -3.36642 0.131765 0
M  V30 2303 O 230.579 -3.93461 -0.809386 0
M  V30 2304 N 228.785 -2.90567 0.0439396 0
M  V30 2305 H 228.332 -2.44513 0.810619 0
M  V30 2306 H 228.29 -3.03681 -0.813969 0
M  V30 2307 N 232.062 -1.29571 -0.897171 0
M  V30 2308 C 233.29 -1.20583 -1.68129 0
M  V30 2309 C 233.705 0.233181 -1.87354 0
M  V30 2310 O 233.062 1.15579 -1.41236 0
M  V30 2311 C 233.113 -1.91772 -3.06441 0
M  V30 2312 O 232.834 -3.30053 -2.88091 0
M  V30 2313 C 234.335 -1.89291 -4.00854 0
M  V30 2314 H 231.555 -0.417826 -0.525036 0
M  V30 2315 H 234.099 -1.70987 -1.12177 0
M  V30 2316 H 232.254 -1.45196 -3.59161 0
M  V30 2317 H 232.668 -3.65942 -3.75748 0
M  V30 2318 H 234.142 -2.43662 -4.95311 0
M  V30 2319 H 234.619 -0.869014 -4.30517 0
M  V30 2320 H 235.225 -2.35622 -3.54066 0
M  V30 2321 N 233.54 1.10788 -1.12088 0
M  V30 2322 C 234.788 1.8231 -0.872205 0
M  V30 2323 C 235.109 1.85419 0.603709 0
M  V30 2324 O 234.379 1.32963 1.43867 0
M  V30 2325 H 232.959 0.675137 -0.319686 0
M  V30 2326 H 235.621 1.34068 -1.41463 0
M  V30 2327 H 234.717 2.85955 -1.25045 0
M  V30 2328 N 235.018 0.912232 1.28515 0
M  V30 2329 C 235.951 0.343928 2.25593 0
M  V30 2330 C 236.929 -0.550994 1.5298 0
M  V30 2331 O 238.113 -0.494991 1.81885 0
M  V30 2332 C 235.24 -0.508525 3.34861 0
M  V30 2333 C 234.286 0.320808 4.25292 0
M  V30 2334 S 235.119 1.72658 5.06902 0
M  V30 2335 C 236.275 0.881394 6.19663 0
M  V30 2336 H 236.508 1.16674 2.73449 0
M  V30 2337 H 234.041 0.713384 1.36931 0
M  V30 2338 H 235.999 -0.994539 3.9827 0
M  V30 2339 H 234.66 -1.30571 2.85675 0
M  V30 2340 H 233.853 -0.330941 5.02912 0
M  V30 2341 H 233.455 0.74042 3.66598 0
M  V30 2342 H 235.747 0.110359 6.7741 0
M  V30 2343 H 236.69 1.63009 6.89082 0
M  V30 2344 H 237.098 0.430239 5.62858 0
M  V30 2345 N 236.496 -1.42363 0.676048 0
M  V30 2346 C 237.743 -2.01522 0.19883 0
M  V30 2347 C 238.071 -1.53456 -1.19505 0
M  V30 2348 O 237.326 -0.727967 -1.81657 0
M  V30 2349 C 237.625 -3.56929 0.183431 0
M  V30 2350 C 237.291 -4.24431 1.52215 0
M  V30 2351 C 235.953 -4.42585 1.8887 0
M  V30 2352 C 238.305 -4.62459 2.40377 0
M  V30 2353 C 235.633 -4.96039 3.13309 0
M  V30 2354 C 237.985 -5.17294 3.64129 0
M  V30 2355 C 236.649 -5.33661 4.00951 0
M  V30 2356 H 235.919 -0.737419 0.0727571 0
M  V30 2357 H 238.566 -1.70531 0.871281 0
M  V30 2358 H 236.871 -3.87594 -0.572532 0
M  V30 2359 H 238.568 -4.00486 -0.203035 0
M  V30 2360 H 235.158 -4.10661 1.22701 0
M  V30 2361 H 239.342 -4.48105 2.13343 0
M  V30 2362 H 234.598 -5.06896 3.41857 0
M  V30 2363 H 238.772 -5.45704 4.32644 0
M  V30 2364 H 236.399 -5.74845 4.9745 0
M  V30 2365 N 237.974 -0.419461 -1.51915 0
M  V30 2366 C 239.222 0.152637 -2.01523 0
M  V30 2367 C 239.543 1.44762 -1.30649 0
M  V30 2368 O 238.813 1.90997 -0.435535 0
M  V30 2369 H 237.393 0.0593966 -0.744635 0
M  V30 2370 H 240.055 -0.558073 -1.86739 0
M  V30 2371 H 239.151 0.341369 -3.10227 0
M  V30 2372 N 239.452 1.56882 -0.150215 0
M  V30 2373 C 240.384 2.14057 0.819286 0
M  V30 2374 C 241.397 1.09082 1.20851 0
M  V30 2375 O 242.586 1.36347 1.15203 0
M  V30 2376 C 239.686 2.65102 2.11127 0
M  V30 2377 C 238.859 3.94511 1.88891 0
M  V30 2378 C 237.918 4.30834 3.02107 0
M  V30 2379 O 236.944 4.99099 2.73659 0
M  V30 2380 N 238.146 3.90676 4.29363 0
M  V30 2381 H 240.911 2.97871 0.330618 0
M  V30 2382 H 238.472 1.61866 0.0332538 0
M  V30 2383 H 240.464 2.86411 2.85921 0
M  V30 2384 H 239.034 1.85994 2.51247 0
M  V30 2385 H 238.254 3.81795 0.981152 0
M  V30 2386 H 239.542 4.7907 1.71376 0
M  V30 2387 H 238.94 3.35677 4.55343 0
M  V30 2388 H 237.497 4.1703 5.00928 0
M  V30 2389 N 240.93 -0.123565 1.57115 0
M  V30 2390 C 241.878 -1.17082 2.00984 0
M  V30 2391 C 242.872 -1.43136 0.906009 0
M  V30 2392 O 244.078 -1.43152 1.09121 0
M  V30 2393 H 240.453 -0.394653 0.64012 0
M  V30 2394 H 242.424 -0.774292 2.88179 0
M  V30 2395 C 241.173 -2.49057 2.42623 0
M  V30 2396 H 240.496 -2.29846 3.27125 0
M  V30 2397 H 241.936 -3.20906 2.7712 0
M  V30 2398 C 240.395 -3.11305 1.28805 0
M  V30 2399 O 240.925 -3.97171 0.60153 0
M  V30 2400 N 239.131 -2.71111 1.04628 0
M  V30 2401 H 238.678 -2.01382 1.60634 0
M  V30 2402 H 238.636 -3.1309 0.286685 0
M  V30 2403 N 242.408 -1.52605 -0.393616 0
M  V30 2404 C 243.371 -1.76415 -1.46323 0
M  V30 2405 C 244.371 -0.634126 -1.47768 0
M  V30 2406 O 245.561 -0.902142 -1.4902 0
M  V30 2407 C 242.693 -1.8607 -2.85641 0
M  V30 2408 H 243.886 -2.71916 -1.26498 0
M  V30 2409 H 241.439 -1.43257 -0.625073 0
M  V30 2410 H 242.174 -0.925378 -3.10817 0
M  V30 2411 H 241.959 -2.68235 -2.85993 0
M  V30 2412 H 243.449 -2.06179 -3.63153 0
M  V30 2413 N 243.887 0.651787 -1.4349 0
M  V30 2414 C 244.819 1.77725 -1.44729 0
M  V30 2415 C 245.832 1.59141 -0.343231 0
M  V30 2416 O 247.021 1.67835 -0.607751 0
M  V30 2417 C 244.121 3.15172 -1.24579 0
M  V30 2418 C 243.294 3.60402 -2.47849 0
M  V30 2419 C 242.353 4.76656 -2.22902 0
M  V30 2420 O 241.379 4.86022 -2.96263 0
M  V30 2421 N 242.581 5.66958 -1.24656 0
M  V30 2422 H 245.346 1.77141 -2.41746 0
M  V30 2423 H 242.907 0.835678 -1.38665 0
M  V30 2424 H 244.899 3.90634 -1.0577 0
M  V30 2425 H 243.469 3.1052 -0.360015 0
M  V30 2426 H 242.689 2.75369 -2.82073 0
M  V30 2427 H 243.977 3.87368 -3.29884 0
M  V30 2428 H 243.375 5.62065 -0.640265 0
M  V30 2429 H 241.932 6.42135 -1.1183 0
M  V30 2430 N 245.365 1.30045 0.890287 0
M  V30 2431 C 246.612 1.18561 1.64163 0
M  V30 2432 C 246.94 -0.260852 1.92743 0
M  V30 2433 O 246.195 -1.20376 1.54299 0
M  V30 2434 C 246.494 1.95409 2.99249 0
M  V30 2435 C 246.16 3.45066 2.90242 0
M  V30 2436 C 244.822 3.85878 2.87492 0
M  V30 2437 C 247.174 4.4039 2.78758 0
M  V30 2438 C 244.502 5.20314 2.7109 0
M  V30 2439 C 246.854 5.74928 2.63894 0
M  V30 2440 C 245.518 6.14986 2.59516 0
M  V30 2441 H 244.788 0.433846 0.600715 0
M  V30 2442 H 247.435 1.61088 1.03552 0
M  V30 2443 H 245.74 1.45501 3.63781 0
M  V30 2444 H 247.437 1.8392 3.56334 0
M  V30 2445 H 244.027 3.12631 2.93189 0
M  V30 2446 H 248.211 4.09806 2.79952 0
M  V30 2447 H 243.467 5.50449 2.66112 0
M  V30 2448 H 247.641 6.48434 2.53981 0
M  V30 2449 H 245.268 7.19104 2.46565 0
M  V30 2450 N 246.843 -1.10192 1.12674 0
M  V30 2451 C 247.793 -2.14754 0.765801 0
M  V30 2452 C 248.777 -1.59154 -0.236409 0
M  V30 2453 O 249.969 -1.76951 -0.0415261 0
M  V30 2454 C 247.098 -3.42563 0.224827 0
M  V30 2455 C 246.184 -4.05091 1.25548 0
M  V30 2456 N 246.575 -4.42287 2.4539 0
M  V30 2457 C 244.873 -4.32186 1.10142 0
M  V30 2458 C 245.574 -4.91441 3.11224 0
M  V30 2459 N 244.55 -4.88405 2.38666 0
M  V30 2460 H 248.352 -2.41309 1.67772 0
M  V30 2461 H 245.866 -1.27339 1.00789 0
M  V30 2462 H 247.863 -4.16868 -0.0519578 0
M  V30 2463 H 246.523 -3.17467 -0.681515 0
M  V30 2464 H 247.534 -4.33902 2.82754 0
M  V30 2465 H 244.211 -4.16735 0.252587 0
M  V30 2466 H 245.601 -5.29749 4.13298 0
M  V30 2467 N 248.321 -0.919034 -1.28029 0
M  V30 2468 C 249.551 -0.570143 -1.98577 0
M  V30 2469 C 249.959 0.854172 -1.68821 0
M  V30 2470 O 249.302 1.57807 -0.940351 0
M  V30 2471 C 249.364 -0.705734 -3.52505 0
M  V30 2472 C 249.028 -2.10057 -4.05863 0
M  V30 2473 C 250.025 -3.07385 -4.19298 0
M  V30 2474 C 247.71 -2.41517 -4.40426 0
M  V30 2475 C 249.704 -4.34287 -4.66555 0
M  V30 2476 C 247.391 -3.68657 -4.87376 0
M  V30 2477 C 248.389 -4.64856 -5.00398 0
M  V30 2478 O 248.077 -5.89735 -5.46322 0
M  V30 2479 H 247.809 -0.215592 -0.6407 0
M  V30 2480 H 250.363 -1.23583 -1.64062 0
M  V30 2481 H 248.593 0.0170414 -3.86696 0
M  V30 2482 H 250.282 -0.363172 -4.04272 0
M  V30 2483 H 251.048 -2.84398 -3.92865 0
M  V30 2484 H 246.927 -1.67389 -4.29537 0
M  V30 2485 H 250.471 -5.09377 -4.76635 0
M  V30 2486 H 246.368 -3.91466 -5.13249 0
M  V30 2487 H 247.136 -5.92599 -5.64596 0
M  V30 2488 N 249.799 1.42003 -0.683588 0
M  V30 2489 C 251.048 2.00638 -0.206681 0
M  V30 2490 C 251.361 1.5472 1.19671 0
M  V30 2491 O 252.567 2.05833 1.77045 0
M  V30 2492 C 251.023 3.58487 -0.318632 0
M  V30 2493 C 250.631 4.1339 -1.72663 0
M  V30 2494 C 252.375 4.24384 0.0991141 0
M  V30 2495 C 250.282 5.63633 -1.79087 0
M  V30 2496 H 249.212 0.750408 -0.0735107 0
M  V30 2497 H 251.863 1.62624 -0.850048 0
M  V30 2498 H 250.245 3.94047 0.392781 0
M  V30 2499 H 251.419 3.89273 -2.46583 0
M  V30 2500 H 249.734 3.59976 -2.09299 0
M  V30 2501 H 252.331 5.34652 0.0713833 0
M  V30 2502 H 252.674 4.00505 1.13586 0
M  V30 2503 H 253.207 3.93816 -0.561599 0
M  V30 2504 H 249.946 5.92323 -2.80774 0
M  V30 2505 H 249.466 5.89714 -1.09535 0
M  V30 2506 H 251.145 6.28201 -1.5483 0
M  V30 2507 N 251.277 0.427512 1.51691 0
M  V30 2508 C 252.507 -0.140986 2.06118 0
M  V30 2509 C 252.915 -1.37854 1.29588 0
M  V30 2510 O 252.258 -1.80411 0.346036 0
M  V30 2511 C 252.32 -0.538276 3.55447 0
M  V30 2512 C 251.984 0.591095 4.53161 0
M  V30 2513 C 252.981 1.46027 4.98971 0
M  V30 2514 C 250.666 0.769028 4.96378 0
M  V30 2515 C 252.66 2.49216 5.8666 0
M  V30 2516 C 250.347 1.80421 5.83859 0
M  V30 2517 C 251.345 2.66417 6.28897 0
M  V30 2518 O 251.033 3.68159 7.14643 0
M  V30 2519 H 250.765 -0.0157455 0.675817 0
M  V30 2520 H 253.319 0.602495 1.96365 0
M  V30 2521 H 251.549 -1.33432 3.6295 0
M  V30 2522 H 253.238 -1.0368 3.92435 0
M  V30 2523 H 254.004 1.33429 4.66285 0
M  V30 2524 H 249.883 0.109273 4.6087 0
M  V30 2525 H 253.427 3.16372 6.21735 0
M  V30 2526 H 249.324 1.93042 6.15959 0
M  V30 2527 H 250.092 3.64622 7.32798 0
M  V30 2528 N 252.755 -1.56801 0.158532 0
M  V30 2529 C 254.171 -1.5837 -0.197774 0
M  V30 2530 C 254.371 -1.17334 -1.63814 0
M  V30 2531 O 253.427 -0.878988 -2.36707 0
M  V30 2532 C 254.74 -3.00615 0.0714459 0
M  V30 2533 C 256.288 -3.12999 0.00864533 0
M  V30 2534 C 256.763 -4.57313 0.250685 0
M  V30 2535 N 258.254 -4.62777 0.198014 0
M  V30 2536 C 258.989 -5.72271 0.359642 0
M  V30 2537 N 258.485 -6.90371 0.579625 0
M  V30 2538 N 260.278 -5.61318 0.296438 0
M  V30 2539 H 252.429 -1.81765 1.09887 0
M  V30 2540 H 254.692 -0.841849 0.435884 0
M  V30 2541 H 254.398 -3.35068 1.06874 0
M  V30 2542 H 254.272 -3.71683 -0.642757 0
M  V30 2543 H 256.659 -2.7838 -0.979217 0
M  V30 2544 H 256.74 -2.44393 0.755359 0
M  V30 2545 H 256.384 -4.92639 1.2357 0
M  V30 2546 H 256.314 -5.24061 -0.516489 0
M  V30 2547 H 258.805 -3.77885 0.0331115 0
M  V30 2548 H 259.118 -7.69689 0.69275 0
M  V30 2549 H 257.463 -6.92264 0.616087 0
M  V30 2550 H 260.654 -4.67932 0.125258 0
M  V30 2551 H 260.827 -6.46599 0.425831 0
M  V30 2552 N 254.233 0.115231 -1.57178 0
M  V30 2553 C 255.481 0.820727 -1.84685 0
M  V30 2554 C 255.802 1.80237 -0.744279 0
M  V30 2555 O 255.072 1.94529 0.231375 0
M  V30 2556 H 253.652 0.306084 -0.681411 0
M  V30 2557 H 256.314 0.101656 -1.94635 0
M  V30 2558 H 255.41 1.36366 -2.80733 0
M  V30 2559 N 255.711 1.52812 0.385517 0
M  V30 2560 C 256.959 1.67694 1.12797 0
M  V30 2561 C 257.28 0.421115 1.90399 0
M  V30 2562 O 256.55 -0.564551 1.87589 0
M  V30 2563 H 255.13 0.618155 0.419396 0
M  V30 2564 H 257.792 1.89938 0.436972 0
M  V30 2565 H 256.888 2.52896 1.82894 0
M  V30 2566 N 257.189 -0.644168 1.43834 0
M  V30 2567 C 258.435 -1.40431 1.47141 0
M  V30 2568 C 258.79 -1.92153 0.0975577 0
M  V30 2569 O 258.083 -1.69924 -0.885232 0
M  V30 2570 C 258.277 -2.59615 2.45631 0
M  V30 2571 C 258.106 -2.1956 3.92458 0
M  V30 2572 C 256.876 -2.07456 4.60749 0
M  V30 2573 C 259.074 -1.79281 4.8204 0
M  V30 2574 N 257.056 -1.60827 5.92459 0
M  V30 2575 C 258.427 -1.43801 6.03093 0
M  V30 2576 C 260.482 -1.66545 4.6922 0
M  V30 2577 C 259.185 -0.968599 7.12749 0
M  V30 2578 C 261.211 -1.21008 5.78888 0
M  V30 2579 C 260.573 -0.864711 6.99072 0
M  V30 2580 H 256.672 -0.509182 0.593513 0
M  V30 2581 H 259.256 -0.740351 1.80075 0
M  V30 2582 H 257.427 -3.23658 2.1471 0
M  V30 2583 H 259.159 -3.26357 2.39318 0
M  V30 2584 H 255.914 -2.275 4.1538 0
M  V30 2585 H 256.338 -1.39848 6.62398 0
M  V30 2586 H 260.98 -1.91883 3.7675 0
M  V30 2587 H 258.698 -0.702715 8.05039 0
M  V30 2588 H 262.284 -1.11631 5.7099 0
M  V30 2589 H 261.164 -0.517736 7.82489 0
M  V30 2590 N 258.668 -1.30515 -0.883378 0
M  V30 2591 C 259.631 -1.1701 -1.97082 0
M  V30 2592 C 260.631 -0.10089 -1.60483 0
M  V30 2593 O 261.821 -0.349127 -1.70666 0
M  V30 2594 C 258.953 -0.793045 -3.31547 0
M  V30 2595 H 260.146 -2.13622 -2.10489 0
M  V30 2596 H 257.699 -1.13935 -1.06998 0
M  V30 2597 H 258.434 0.172499 -3.23841 0
M  V30 2598 H 258.219 -1.56576 -3.5948 0
M  V30 2599 H 259.709 -0.722073 -4.1131 0
M  V30 2600 N 260.146 1.09593 -1.13257 0
M  V30 2601 C 261.392 1.82003 -0.89458 0
M  V30 2602 C 261.725 1.85402 0.577906 0
M  V30 2603 O 261 1.32099 1.42759 0
M  V30 2604 C 261.283 3.28237 -1.48096 0
M  V30 2605 C 261.136 3.3312 -3.02244 0
M  V30 2606 C 262.455 4.24871 -1.14774 0
M  V30 2607 H 259.574 0.66077 -0.326424 0
M  V30 2608 H 262.216 1.28389 -1.40058 0
M  V30 2609 H 260.366 3.74024 -1.05062 0
M  V30 2610 H 262.038 2.95748 -3.54021 0
M  V30 2611 H 260.281 2.72756 -3.37323 0
M  V30 2612 H 260.952 4.3613 -3.38371 0
M  V30 2613 H 263.428 3.87361 -1.51957 0
M  V30 2614 H 262.304 5.25532 -1.58452 0
M  V30 2615 H 262.565 4.42058 -0.0611849 0
M  V30 2616 N 261.624 0.925811 1.2754 0
M  V30 2617 C 262.574 0.394488 2.24561 0
M  V30 2618 C 263.558 -0.500183 1.52928 0
M  V30 2619 O 264.75 -0.337936 1.73744 0
M  V30 2620 C 261.879 -0.353328 3.41477 0
M  V30 2621 C 260.965 0.557752 4.20416 0
M  V30 2622 N 261.356 1.67674 4.77199 0
M  V30 2623 C 259.654 0.360404 4.44541 0
M  V30 2624 C 260.355 2.24324 5.36706 0
M  V30 2625 N 259.331 1.53305 5.21535 0
M  V30 2626 H 263.133 1.2489 2.66045 0
M  V30 2627 H 260.647 0.779864 1.4245 0
M  V30 2628 H 262.644 -0.7509 4.10082 0
M  V30 2629 H 261.304 -1.20469 3.01525 0
M  V30 2630 H 262.315 2.05915 4.75204 0
M  V30 2631 H 258.992 -0.450454 4.15063 0
M  V30 2632 H 260.382 3.18521 5.91603 0
M  V30 2633 N 263.102 -1.41638 0.69111 0
M  V30 2634 C 264.348 -2.01598 0.220519 0
M  V30 2635 C 264.681 -1.54594 -1.17535 0
M  V30 2636 O 263.956 -0.755177 -1.79241 0
M  V30 2637 C 264.239 -3.59062 0.273243 0
M  V30 2638 C 264.092 -4.16203 1.70573 0
M  V30 2639 C 265.411 -4.38546 -0.369457 0
M  V30 2640 H 262.53 -0.732468 0.0816045 0
M  V30 2641 H 265.172 -1.68445 0.878986 0
M  V30 2642 H 263.322 -3.87435 -0.287411 0
M  V30 2643 H 264.994 -3.98722 2.31989 0
M  V30 2644 H 263.237 -3.71414 2.2413 0
M  V30 2645 H 263.908 -5.25358 1.69419 0
M  V30 2646 H 266.384 -4.1596 0.107977 0
M  V30 2647 H 265.26 -5.48069 -0.302002 0
M  V30 2648 H 265.521 -4.17662 -1.44951 0
M  V30 2649 N 264.58 -0.43555 -1.51462 0
M  V30 2650 C 265.512 0.41257 -2.25456 0
M  V30 2651 C 266.525 0.987822 -1.29406 0
M  V30 2652 O 267.714 0.882266 -1.55172 0
M  V30 2653 C 264.814 1.58894 -2.99342 0
M  V30 2654 C 263.987 1.13288 -4.22474 0
M  V30 2655 C 263.046 2.17917 -4.78956 0
M  V30 2656 O 262.072 1.77425 -5.40841 0
M  V30 2657 N 263.274 3.50382 -4.62832 0
M  V30 2658 H 266.039 -0.221603 -2.9888 0
M  V30 2659 H 263.6 -0.264342 -1.59727 0
M  V30 2660 H 265.592 2.28508 -3.34015 0
M  V30 2661 H 264.162 2.12849 -2.28941 0
M  V30 2662 H 263.382 0.263881 -3.93316 0
M  V30 2663 H 264.67 0.805542 -5.02383 0
M  V30 2664 H 264.068 3.86013 -4.13534 0
M  V30 2665 H 262.625 4.15895 -5.01871 0
M  V30 2666 N 266.058 1.56714 -0.166846 0
M  V30 2667 C 267.298 1.98641 0.481763 0
M  V30 2668 C 267.662 1.05038 1.6072 0
M  V30 2669 O 268.863 1.36087 2.31805 0
M  V30 2670 C 267.134 3.44362 0.956517 0
M  V30 2671 S 268.693 4.08317 1.60694 0
M  V30 2672 H 265.511 0.693873 0.155116 0
M  V30 2673 H 268.113 1.93719 -0.263251 0
M  V30 2674 H 266.817 4.10204 0.126936 0
M  V30 2675 H 266.348 3.53041 1.73568 0
M  V30 2676 H 268.363 4.02999 2.89494 0
M  V30 2677 N 267.536 -0.106894 1.57237 0
M  V30 2678 C 268.484 -1.14944 2.02215 0
M  V30 2679 C 269.478 -1.42167 0.92114 0
M  V30 2680 O 270.684 -1.41987 1.10634 0
M  V30 2681 H 267.059 -0.387841 0.64427 0
M  V30 2682 H 269.03 -0.743683 2.88984 0
M  V30 2683 C 267.779 -2.4647 2.4525 0
M  V30 2684 H 267.102 -2.26363 3.29545 0
M  V30 2685 H 268.542 -3.17948 2.80508 0
M  V30 2686 C 267.001 -3.09921 1.321 0
M  V30 2687 O 267.531 -3.9651 0.643622 0
M  V30 2688 N 265.737 -2.69986 1.07497 0
M  V30 2689 H 265.284 -1.99667 1.62761 0
M  V30 2690 H 265.242 -3.12769 0.319876 0
M  V30 2691 N 269.014 -1.53014 -0.377408 0
M  V30 2692 C 269.977 -1.77957 -1.44444 0
M  V30 2693 C 270.977 -0.649763 -1.47087 0
M  V30 2694 O 272.167 -0.917897 -1.48055 0
M  V30 2695 C 269.299 -1.89089 -2.83651 0
M  V30 2696 H 270.492 -2.73243 -1.23606 0
M  V30 2697 H 268.045 -1.43912 -0.609844 0
M  V30 2698 H 268.78 -0.958293 -3.09818 0
M  V30 2699 H 268.565 -2.71254 -2.83132 0
M  V30 2700 H 270.055 -2.1002 -3.60945 0
M  V30 2701 N 270.492 0.636531 -1.44174 0
M  V30 2702 C 271.72 1.42353 -1.50144 0
M  V30 2703 C 272.135 1.88389 -0.124575 0
M  V30 2704 O 271.492 1.6051 0.868489 0
M  V30 2705 C 271.543 2.64744 -2.46156 0
M  V30 2706 O 271.264 2.20629 -3.7849 0
M  V30 2707 C 272.765 3.57929 -2.61537 0
M  V30 2708 H 269.985 0.436752 -0.5094 0
M  V30 2709 H 272.529 0.778933 -1.89084 0
M  V30 2710 H 270.684 3.25307 -2.10366 0
M  V30 2711 H 271.098 2.99938 -4.30276 0
M  V30 2712 H 272.572 4.40428 -3.32757 0
M  V30 2713 H 273.049 4.06382 -1.66585 0
M  V30 2714 H 273.655 3.03238 -2.98206 0
M  V30 2715 N 271.97 1.30982 0.876444 0
M  V30 2716 C 272.917 1.18085 1.98304 0
M  V30 2717 C 273.887 0.0682263 1.6596 0
M  V30 2718 O 275.072 0.239937 1.89285 0
M  V30 2719 C 272.212 0.887475 3.33493 0
M  V30 2720 C 271.325 2.08281 3.78475 0
M  V30 2721 C 270.46 1.72678 5.0235 0
M  V30 2722 C 269.499 2.88657 5.39762 0
M  V30 2723 N 268.636 2.53292 6.54819 0
M  V30 2724 H 273.476 2.1275 2.08666 0
M  V30 2725 H 271.013 1.05839 1.02159 0
M  V30 2726 H 272.971 0.697961 4.1132 0
M  V30 2727 H 271.601 -0.022315 3.22792 0
M  V30 2728 H 270.653 2.3833 2.96484 0
M  V30 2729 H 271.965 2.95108 4.02135 0
M  V30 2730 H 271.119 1.50151 5.87826 0
M  V30 2731 H 269.858 0.830327 4.8058 0
M  V30 2732 H 268.863 3.1184 4.52809 0
M  V30 2733 H 270.088 3.79002 5.63502 0
M  V30 2734 H 268.034 1.66163 6.34607 0
M  V30 2735 H 267.951 3.3365 6.7839 0
M  V30 2736 H 269.219 2.34143 7.43503 0
M  V30 2737 N 273.449 -1.08991 1.13837 0
M  V30 2738 C 274.696 -1.81258 0.902882 0
M  V30 2739 C 275.024 -1.85936 -0.570803 0
M  V30 2740 O 274.279 -1.3267 -1.43865 0
M  V30 2741 C 274.578 -3.27042 1.44147 0
M  V30 2742 C 274.244 -3.4249 2.93276 0
M  V30 2743 C 272.906 -3.46414 3.33992 0
M  V30 2744 C 275.258 -3.4666 3.892 0
M  V30 2745 C 272.586 -3.52091 4.69307 0
M  V30 2746 C 274.938 -3.53872 5.24364 0
M  V30 2747 C 273.602 -3.56066 5.646 0
M  V30 2748 H 272.872 -0.663268 0.330388 0
M  V30 2749 H 275.519 -1.28368 1.42105 0
M  V30 2750 H 273.824 -3.82599 0.844097 0
M  V30 2751 H 275.521 -3.81499 1.23528 0
M  V30 2752 H 272.111 -3.40124 2.60794 0
M  V30 2753 H 276.295 -3.42865 3.58828 0
M  V30 2754 H 271.551 -3.52079 4.9985 0
M  V30 2755 H 275.725 -3.56043 5.98503 0
M  V30 2756 H 273.352 -3.60218 6.69438 0
M  V30 2757 N 274.927 -0.932562 -1.27047 0
M  V30 2758 C 275.877 -0.406392 -2.24349 0
M  V30 2759 C 276.861 0.492066 -1.53191 0
M  V30 2760 O 278.053 0.328717 -1.73921 0
M  V30 2761 C 275.182 0.335214 -3.41659 0
M  V30 2762 C 274.268 -0.58004 -4.20115 0
M  V30 2763 N 274.659 -1.70203 -4.76303 0
M  V30 2764 C 272.957 -0.383974 -4.44344 0
M  V30 2765 C 273.658 -2.27167 -5.35509 0
M  V30 2766 N 272.634 -1.56068 -5.20715 0
M  V30 2767 H 276.436 -1.26299 -2.65378 0
M  V30 2768 H 273.95 -0.787408 -1.42034 0
M  V30 2769 H 275.947 0.729142 -4.10474 0
M  V30 2770 H 274.607 1.18868 -3.0216 0
M  V30 2771 H 275.618 -2.08433 -4.74106 0
M  V30 2772 H 272.295 0.428436 -4.15296 0
M  V30 2773 H 273.685 -3.21654 -5.89905 0
M  V30 2774 N 276.405 1.4127 -0.698611 0
M  V30 2775 C 277.337 2.292 0.00399731 0
M  V30 2776 C 278.35 1.44944 0.741279 0
M  V30 2777 O 279.539 1.68416 0.591477 0
M  V30 2778 C 276.639 3.22875 1.02979 0
M  V30 2779 C 275.812 4.35904 0.36151 0
M  V30 2780 C 274.871 5.10134 1.29033 0
M  V30 2781 O 273.897 5.63809 0.781562 0
M  V30 2782 N 275.099 5.17885 2.6225 0
M  V30 2783 H 277.864 2.9014 -0.750921 0
M  V30 2784 H 275.425 1.52455 -0.544882 0
M  V30 2785 H 277.417 3.69404 1.65296 0
M  V30 2786 H 275.987 2.63221 1.68622 0
M  V30 2787 H 275.207 3.91719 -0.441584 0
M  V30 2788 H 276.495 5.08696 -0.103055 0
M  V30 2789 H 275.893 4.7573 3.061 0
M  V30 2790 H 274.45 5.6798 3.19754 0
M  V30 2791 N 277.883 0.443576 1.51229 0
M  V30 2792 C 279.131 -0.120557 2.0174 0
M  V30 2793 C 279.452 -1.42665 1.32935 0
M  V30 2794 O 278.722 -1.9028 0.465866 0
M  V30 2795 H 277.302 -0.0475426 0.745486 0
M  V30 2796 H 279.964 0.587711 1.85828 0
M  V30 2797 H 279.06 -0.291972 3.10731 0
M  V30 2798 N 279.361 -1.56624 0.175154 0
M  V30 2799 C 280.589 -2.01374 -0.474971 0
M  V30 2800 C 281.004 -1.05537 -1.56548 0
M  V30 2801 O 280.361 -0.0568668 -1.82411 0
M  V30 2802 C 280.412 -3.45923 -1.04975 0
M  V30 2803 O 280.133 -4.381 -0.00276605 0
M  V30 2804 C 281.634 -4.06093 -1.77773 0
M  V30 2805 H 278.854 -0.659962 -0.121206 0
M  V30 2806 H 281.398 -2.02601 0.27801 0
M  V30 2807 H 279.553 -3.45458 -1.75321 0
M  V30 2808 H 279.967 -5.22753 -0.427681 0
M  V30 2809 H 281.441 -5.09147 -2.13245 0
M  V30 2810 H 281.918 -3.48405 -2.67414 0
M  V30 2811 H 282.524 -4.10272 -1.12059 0
M  V30 2812 N 280.839 0.0985539 -1.57292 0
M  V30 2813 C 281.769 1.12064 -2.04851 0
M  V30 2814 C 282.75 1.41981 -0.936767 0
M  V30 2815 O 283.935 1.52071 -1.20781 0
M  V30 2816 C 281.065 2.44144 -2.47004 0
M  V30 2817 C 280.019 2.28643 -3.6181 0
M  V30 2818 C 279.345 3.65869 -3.89929 0
M  V30 2819 C 280.645 1.72986 -4.92822 0
M  V30 2820 H 282.339 0.724979 -2.9049 0
M  V30 2821 H 279.885 0.34729 -1.39749 0
M  V30 2822 H 281.838 3.15914 -2.78884 0
M  V30 2823 H 280.562 2.85639 -1.5836 0
M  V30 2824 H 279.221 1.59318 -3.30172 0
M  V30 2825 H 278.869 4.04885 -2.98458 0
M  V30 2826 H 278.569 3.56344 -4.67218 0
M  V30 2827 H 280.093 4.39112 -4.2428 0
M  V30 2828 H 281.507 2.34593 -5.23105 0
M  V30 2829 H 279.904 1.74229 -5.74251 0
M  V30 2830 H 280.974 0.689007 -4.7998 0
M  V30 2831 N 282.317 1.53212 0.369288 0
M  V30 2832 C 283.247 1.82365 1.45826 0
M  V30 2833 C 284.228 0.676907 1.56051 0
M  V30 2834 O 285.413 0.926401 1.70679 0
M  V30 2835 C 282.543 2.01023 2.83208 0
M  V30 2836 C 281.497 3.1678 2.8781 0
M  V30 2837 C 280.823 3.20724 4.27832 0
M  V30 2838 C 282.123 4.55447 2.55667 0
M  V30 2839 H 283.817 2.73559 1.21678 0
M  V30 2840 H 281.363 1.3163 0.583911 0
M  V30 2841 H 283.316 2.20001 3.59413 0
M  V30 2842 H 282.04 1.06536 3.08736 0
M  V30 2843 H 280.699 2.97616 2.14056 0
M  V30 2844 H 280.347 2.23882 4.50429 0
M  V30 2845 H 280.047 3.98496 4.31827 0
M  V30 2846 H 281.571 3.41881 5.05915 0
M  V30 2847 H 282.985 4.74611 3.21586 0
M  V30 2848 H 281.382 5.35432 2.70984 0
M  V30 2849 H 282.452 4.60812 1.5093 0
M  V30 2850 N 283.795 -0.628877 1.44509 0
M  V30 2851 C 285.041 -1.39045 1.47629 0
M  V30 2852 C 285.374 -1.93892 0.109343 0
M  V30 2853 O 284.649 -1.7379 -0.87334 0
M  V30 2854 C 284.932 -2.55408 2.53848 0
M  V30 2855 C 284.785 -2.05896 3.99909 0
M  V30 2856 C 286.104 -3.5759 2.56549 0
M  V30 2857 H 283.223 -0.504232 0.537512 0
M  V30 2858 H 285.865 -0.710854 1.76201 0
M  V30 2859 H 284.015 -3.13384 2.29615 0
M  V30 2860 H 285.687 -1.52734 4.35282 0
M  V30 2861 H 283.93 -1.37061 4.11578 0
M  V30 2862 H 284.601 -2.89681 4.69882 0
M  V30 2863 H 287.077 -3.09419 2.78207 0
M  V30 2864 H 285.953 -4.36527 3.32769 0
M  V30 2865 H 286.214 -4.11808 1.60832 0
M  V30 2866 N 285.273 -1.31445 -0.869486 0
M  V30 2867 C 286.203 -1.21727 -1.99261 0
M  V30 2868 C 287.184 -0.104359 -1.6978 0
M  V30 2869 O 288.369 -0.289038 -1.92037 0
M  V30 2870 C 285.499 -0.924317 -3.34774 0
M  V30 2871 C 284.453 -1.99685 -3.78563 0
M  V30 2872 C 283.779 -1.55658 -5.11541 0
M  V30 2873 C 285.079 -3.41003 -3.95619 0
M  V30 2874 H 286.773 -2.1569 -2.07649 0
M  V30 2875 H 284.319 -1.03839 -0.997675 0
M  V30 2876 H 286.272 -0.842934 -4.12883 0
M  V30 2877 H 284.996 0.0509793 -3.2656 0
M  V30 2878 H 283.655 -2.06813 -3.02694 0
M  V30 2879 H 283.303 -0.569132 -4.9977 0
M  V30 2880 H 283.003 -2.27409 -5.41811 0
M  V30 2881 H 284.527 -1.48928 -5.92159 0
M  V30 2882 H 285.941 -3.36547 -4.64122 0
M  V30 2883 H 284.338 -4.10975 -4.37286 0
M  V30 2884 H 285.408 -3.81754 -2.98985 0
M  V30 2885 N 286.751 1.08385 -1.14413 0
M  V30 2886 C 287.714 2.13486 -0.834048 0
M  V30 2887 C 288.714 1.59988 0.161418 0
M  V30 2888 O 289.904 1.74071 -0.0669575 0
M  V30 2889 C 287.036 3.4003 -0.243354 0
M  V30 2890 H 288.229 2.42425 -1.7655 0
M  V30 2891 H 285.782 1.24101 -0.950189 0
M  V30 2892 H 286.517 3.16726 0.696807 0
M  V30 2893 H 286.302 3.80157 -0.960367 0
M  V30 2894 H 287.792 4.17577 -0.0436242 0
M  V30 2895 N 288.23 0.939286 1.26551 0
M  V30 2896 C 289.479 0.581601 1.93133 0
M  V30 2897 C 289.792 -0.883224 1.74524 0
M  V30 2898 O 290.998 -1.3502 2.35546 0
M  V30 2899 C 289.454 0.989425 3.46032 0
M  V30 2900 C 289.062 2.47573 3.73379 0
M  V30 2901 C 290.806 0.703544 4.18629 0
M  V30 2902 C 288.713 2.82235 5.19709 0
M  V30 2903 H 287.643 0.213803 0.723052 0
M  V30 2904 H 290.294 1.14167 1.4366 0
M  V30 2905 H 288.676 0.357902 3.94379 0
M  V30 2906 H 289.85 3.15614 3.35744 0
M  V30 2907 H 288.165 2.73471 3.1401 0
M  V30 2908 H 290.762 0.938869 5.26393 0
M  V30 2909 H 291.105 -0.359639 4.14744 0
M  V30 2910 H 291.638 1.2947 3.76141 0
M  V30 2911 H 288.377 3.87509 5.28694 0
M  V30 2912 H 287.897 2.18854 5.58447 0
M  V30 2913 H 289.576 2.70599 5.87695 0
M  V30 2914 N 289.708 -1.40897 0.706093 0
M  V30 2915 C 291.119 -1.84023 0.315052 0
M  V30 2916 C 291.47 -1.5906 -1.14866 0
M  V30 2917 O 290.595 -1.06651 -1.88293 0
M  V30 2918 C 291.19 -3.34055 0.565038 0
M  V30 2919 C 289.749 -3.7571 0.227806 0
M  V30 2920 C 288.896 -2.64204 0.842122 0
M  V30 2921 H 291.847 -1.303 0.905963 0
M  V30 2922 H 291.868 -3.80107 -0.172843 0
M  V30 2923 H 291.38 -3.52192 1.63042 0
M  V30 2924 H 289.481 -3.63172 -0.832895 0
M  V30 2925 H 289.594 -4.74103 0.690174 0
M  V30 2926 H 287.958 -2.53255 0.270893 0
M  V30 2927 H 288.741 -2.85155 1.91158 0
M  V30 2928 N 291.186 -0.45159 -1.50991 0
M  V30 2929 C 292.096 0.358431 -2.31846 0
M  V30 2930 C 293.112 1.01438 -1.41373 0
M  V30 2931 O 294.288 1.00663 -1.74439 0
M  V30 2932 C 291.353 1.43704 -3.15515 0
M  V30 2933 C 290.414 0.799742 -4.21785 0
M  V30 2934 C 289.647 1.82696 -5.01456 0
M  V30 2935 O 289.87 3.05105 -4.81941 0
M  V30 2936 O 288.804 1.40958 -5.85162 0
M  V30 2937 H 292.63 -0.302032 -3.02194 0
M  V30 2938 H 290.215 -0.213825 -1.47862 0
M  V30 2939 H 292.097 2.06227 -3.67489 0
M  V30 2940 H 290.772 2.08133 -2.47916 0
M  V30 2941 H 289.679 0.136084 -3.73852 0
M  V30 2942 H 291.012 0.198718 -4.91799 0
M  V30 2943 N 292.664 1.56529 -0.183458 0
M  V30 2944 C 293.614 2.1515 0.754605 0
M  V30 2945 C 294.598 1.08904 1.18443 0
M  V30 2946 O 295.79 1.34997 1.14476 0
M  V30 2947 C 292.919 2.80531 1.97881 0
M  V30 2948 C 292.005 3.93952 1.57043 0
M  V30 2949 N 292.396 4.98221 0.87231 0
M  V30 2950 C 290.694 4.05338 1.86057 0
M  V30 2951 C 291.395 5.77836 0.669377 0
M  V30 2952 N 290.371 5.29858 1.21454 0
M  V30 2953 H 294.173 2.93132 0.212387 0
M  V30 2954 H 291.687 1.62391 0.0167725 0
M  V30 2955 H 293.684 3.20914 2.6612 0
M  V30 2956 H 292.344 2.04035 2.52586 0
M  V30 2957 H 293.355 5.15191 0.529033 0
M  V30 2958 H 290.032 3.39957 2.42354 0
M  V30 2959 H 291.422 6.71799 0.116422 0
M  V30 2960 N 294.142 -0.090211 1.57342 0
M  V30 2961 C 295.074 -1.13541 1.99101 0
M  V30 2962 C 296.087 -1.3604 0.894258 0
M  V30 2963 O 297.276 -1.34606 1.17233 0
M  V30 2964 C 294.376 -2.49001 2.29895 0
M  V30 2965 C 293.549 -2.46712 3.61182 0
M  V30 2966 C 292.608 -3.64136 3.79857 0
M  V30 2967 O 291.634 -3.46405 4.51655 0
M  V30 2968 N 292.836 -4.83802 3.20806 0
M  V30 2969 H 295.601 -0.779942 2.89373 0
M  V30 2970 H 293.162 -0.279125 1.59476 0
M  V30 2971 H 295.154 -3.26166 2.39578 0
M  V30 2972 H 293.724 -2.76619 1.45605 0
M  V30 2973 H 292.944 -1.55058 3.62423 0
M  V30 2974 H 294.232 -2.42265 4.4742 0
M  V30 2975 H 293.63 -5.01112 2.62494 0
M  V30 2976 H 292.187 -5.58543 3.35966 0
M  V30 2977 N 295.62 -1.53406 -0.361157 0
M  V30 2978 C 296.869 -1.69022 -1.10066 0
M  V30 2979 C 297.182 -0.450838 -1.90333 0
M  V30 2980 O 298.388 -0.487617 -2.67085 0
M  V30 2981 C 296.844 -2.98812 -2.00598 0
M  V30 2982 C 296.452 -4.30027 -1.25621 0
M  V30 2983 C 298.196 -3.23795 -2.74513 0
M  V30 2984 C 296.103 -5.50903 -2.1508 0
M  V30 2985 H 295.033 -0.629776 -0.414606 0
M  V30 2986 H 297.684 -1.79907 -0.361348 0
M  V30 2987 H 296.066 -2.8174 -2.78278 0
M  V30 2988 H 297.24 -4.57745 -0.529739 0
M  V30 2989 H 295.555 -4.11522 -0.635496 0
M  V30 2990 H 298.152 -4.11289 -3.41681 0
M  V30 2991 H 298.495 -2.40045 -3.40123 0
M  V30 2992 H 299.028 -3.41561 -2.03914 0
M  V30 2993 H 295.767 -6.37143 -1.54041 0
M  V30 2994 H 295.287 -5.27459 -2.85565 0
M  V30 2995 H 296.966 -5.85865 -2.74538 0
M  V30 2996 N 297.098 0.621204 -1.44841 0
M  V30 2997 C 298.061 1.71459 -1.521 0
M  V30 2998 C 299.061 1.55696 -0.401933 0
M  V30 2999 O 300.251 1.61011 -0.664925 0
M  V30 3000 C 297.383 3.10624 -1.40447 0
M  V30 3001 H 298.576 1.66394 -2.49506 0
M  V30 3002 H 296.129 0.835745 -1.3208 0
M  V30 3003 H 296.864 3.21277 -0.441737 0
M  V30 3004 H 296.649 3.23473 -2.21602 0
M  V30 3005 H 298.139 3.90293 -1.4853 0
M  V30 3006 N 298.576 1.31904 0.862503 0
M  V30 3007 C 299.804 1.24998 1.64873 0
M  V30 3008 C 300.219 -0.183425 1.87907 0
M  V30 3009 O 299.576 -1.11794 1.44251 0
M  V30 3010 C 299.627 1.99829 3.01248 0
M  V30 3011 O 299.348 3.37575 2.79239 0
M  V30 3012 C 300.849 1.99852 3.95694 0
M  V30 3013 H 298.069 0.431599 0.513773 0
M  V30 3014 H 300.613 1.73901 1.07604 0
M  V30 3015 H 298.768 1.54668 3.55185 0
M  V30 3016 H 299.182 3.75776 3.65914 0
M  V30 3017 H 300.656 2.56709 4.88676 0
M  V30 3018 H 301.133 0.982852 4.28062 0
M  V30 3019 H 301.739 2.44926 3.47694 0
M  V30 3020 N 300.054 -1.07777 1.14986 0
M  V30 3021 C 300.986 -2.14769 0.800436 0
M  V30 3022 C 301.999 -1.61739 -0.185595 0
M  V30 3023 O 303.188 -1.78462 0.0370358 0
M  V30 3024 C 300.288 -3.38481 0.168533 0
M  V30 3025 C 299.461 -4.20876 1.1909 0
M  V30 3026 C 298.52 -5.22976 0.581575 0
M  V30 3027 O 297.546 -5.55388 1.24633 0
M  V30 3028 N 298.748 -5.76976 -0.638706 0
M  V30 3029 H 301.513 -2.45348 1.72118 0
M  V30 3030 H 299.074 -1.23645 1.04515 0
M  V30 3031 H 301.066 -4.03916 -0.251764 0
M  V30 3032 H 299.636 -3.05651 -0.655467 0
M  V30 3033 H 298.856 -3.51322 1.78791 0
M  V30 3034 H 300.144 -4.7274 1.88133 0
M  V30 3035 H 299.542 -5.52886 -1.19723 0
M  V30 3036 H 298.099 -6.44061 -1.00142 0
M  V30 3037 N 301.532 -0.945985 -1.26051 0
M  V30 3038 C 302.442 -0.465633 -2.29933 0
M  V30 3039 C 303.458 0.462761 -1.67733 0
M  V30 3040 O 304.634 0.341118 -1.9849 0
M  V30 3041 C 301.699 0.256994 -3.45746 0
M  V30 3042 C 300.76 -0.708549 -4.23412 0
M  V30 3043 C 299.993 -0.0203135 -5.33696 0
M  V30 3044 O 300.216 1.19571 -5.57726 0
M  V30 3045 O 299.15 -0.701459 -5.97799 0
M  V30 3046 H 302.976 -1.32866 -2.73094 0
M  V30 3047 H 300.561 -0.712071 -1.31339 0
M  V30 3048 H 302.443 0.663852 -4.16138 0
M  V30 3049 H 301.118 1.09533 -3.04605 0
M  V30 3050 H 300.025 -1.16545 -3.55483 0
M  V30 3051 H 301.358 -1.51465 -4.68315 0
M  V30 3052 N 303.011 1.40521 -0.713556 0
M  V30 3053 C 303.943 2.29191 -0.0203126 0
M  V30 3054 C 304.956 1.45723 0.725864 0
M  V30 3055 O 306.145 1.69033 0.573581 0
M  V30 3056 C 303.245 3.2395 0.995486 0
M  V30 3057 C 302.418 4.36262 0.315256 0
M  V30 3058 C 301.477 5.11474 1.23616 0
M  V30 3059 O 300.503 5.64606 0.721719 0
M  V30 3060 N 301.705 5.20638 2.56743 0
M  V30 3061 H 304.47 2.89327 -0.781652 0
M  V30 3062 H 302.031 1.51869 -0.561022 0
M  V30 3063 H 304.023 3.71137 1.61368 0
M  V30 3064 H 302.593 2.64995 1.6582 0
M  V30 3065 H 301.813 3.91228 -0.483106 0
M  V30 3066 H 303.101 5.08558 -0.157004 0
M  V30 3067 H 302.499 4.7895 3.01037 0
M  V30 3068 H 301.056 5.71339 3.13712 0
M  V30 3069 N 304.489 0.459591 1.5075 0
M  V30 3070 C 305.9 0.00171547 1.867 0
M  V30 3071 C 306.251 -1.39934 1.37525 0
M  V30 3072 O 305.376 -2.03523 0.735349 0
M  V30 3073 C 305.971 -0.00366298 3.388 0
M  V30 3074 C 304.53 -0.406026 3.74204 0
M  V30 3075 C 303.677 0.38673 2.7459 0
M  V30 3076 H 306.628 0.674413 1.43657 0
M  V30 3077 H 306.649 -0.808371 3.71814 0
M  V30 3078 H 306.161 1.01617 3.74561 0
M  V30 3079 H 304.262 -1.43063 3.4404 0
M  V30 3080 H 304.375 -0.115362 4.78961 0
M  V30 3081 H 302.739 -0.158019 2.54209 0
M  V30 3082 H 303.522 1.40585 3.13194 0
M  V30 3083 N 305.967 -1.56429 0.191757 0
M  V30 3084 C 306.93 -2.17707 -0.716688 0
M  V30 3085 C 307.93 -1.13061 -1.14341 0
M  V30 3086 O 309.12 -1.38464 -1.05704 0
M  V30 3087 C 306.252 -2.77644 -1.97804 0
M  V30 3088 H 307.445 -2.99342 -0.1829 0
M  V30 3089 H 304.998 -1.56193 -0.0578566 0
M  V30 3090 H 305.733 -1.99799 -2.55443 0
M  V30 3091 H 305.518 -3.54246 -1.68083 0
M  V30 3092 H 307.008 -3.24708 -2.62592 0
M  V30 3093 N 307.445 0.0818655 -1.57387 0
M  V30 3094 C 308.692 0.782914 -1.86753 0
M  V30 3095 C 309.02 1.78082 -0.782118 0
M  V30 3096 O 308.275 1.94426 0.22295 0
M  V30 3097 C 308.574 1.53513 -3.22752 0
M  V30 3098 C 308.24 0.678134 -4.45771 0
M  V30 3099 C 306.902 0.441929 -4.79166 0
M  V30 3100 C 309.254 0.0832243 -5.21134 0
M  V30 3101 C 306.582 -0.398833 -5.85343 0
M  V30 3102 C 308.934 -0.744935 -6.28199 0
M  V30 3103 C 307.598 -0.991107 -6.60101 0
M  V30 3104 H 306.868 0.286489 -0.683378 0
M  V30 3105 H 309.515 0.0439808 -1.91449 0
M  V30 3106 H 307.82 2.34599 -3.138 0
M  V30 3107 H 309.517 2.08218 -3.42705 0
M  V30 3108 H 306.107 0.872357 -4.19628 0
M  V30 3109 H 310.291 0.252847 -4.95655 0
M  V30 3110 H 305.547 -0.598405 -6.08465 0
M  V30 3111 H 309.721 -1.21271 -6.8576 0
M  V30 3112 H 307.348 -1.64437 -7.42202 0
M  V30 3113 N 308.923 1.53595 0.353017 0
M  V30 3114 C 310.2 1.61002 1.11075 0
M  V30 3115 C 310.58 0.425356 2.0677 0
M  V30 3116 O 309.928 -0.583267 2.2093 0
M  V30 3117 C 310.138 2.96631 1.83877 0
M  V30 3118 C 311.486 3.51653 2.37961 0
M  V30 3119 O 312.51 2.98743 1.93987 0
M  V30 3120 O 311.369 4.44177 3.18386 0
M  V30 3121 H 308.463 0.650825 0.510251 0
M  V30 3122 H 311.009 1.6594 0.35527 0
M  V30 3123 H 309.781 3.74293 1.14108 0
M  V30 3124 H 309.404 2.95242 2.66304 0
M  V30 3125 N 310.401 -0.613514 1.45168 0
M  V30 3126 C 311.817 -0.933629 1.29443 0
M  V30 3127 C 312.017 -2.00028 0.243101 0
M  V30 3128 O 311.073 -2.49848 -0.364992 0
M  V30 3129 C 312.386 -1.38018 2.67155 0
M  V30 3130 C 313.934 -1.49471 2.75004 0
M  V30 3131 C 314.409 -1.97503 4.13227 0
M  V30 3132 N 315.9 -2.04746 4.15491 0
M  V30 3133 C 316.635 -2.43121 5.19307 0
M  V30 3134 N 316.131 -2.80506 6.33473 0
M  V30 3135 N 317.924 -2.43408 5.06664 0
M  V30 3136 H 310.075 0.0916097 2.12202 0
M  V30 3137 H 312.338 -0.0216655 0.947752 0
M  V30 3138 H 312.044 -0.670625 3.45247 0
M  V30 3139 H 311.918 -2.34784 2.95222 0
M  V30 3140 H 314.305 -2.19519 1.9722 0
M  V30 3141 H 314.386 -0.510342 2.50657 0
M  V30 3142 H 314.03 -1.28045 4.91495 0
M  V30 3143 H 313.96 -2.96843 4.34962 0
M  V30 3144 H 316.451 -1.78468 3.33103 0
M  V30 3145 H 316.764 -3.08652 7.08487 0
M  V30 3146 H 315.109 -2.78216 6.36884 0
M  V30 3147 H 318.3 -2.13604 4.16523 0
M  V30 3148 H 318.473 -2.72989 5.87691 0
M  V30 3149 N 311.879 -1.3236 -0.855495 0
M  V30 3150 C 313.107 -1.2587 -1.64208 0
M  V30 3151 C 313.522 0.173457 -1.88002 0
M  V30 3152 O 312.879 1.11027 -1.44842 0
M  V30 3153 C 312.93 -2.01424 -3.00184 0
M  V30 3154 O 312.651 -3.39051 -2.77445 0
M  V30 3155 C 314.152 -2.01948 -3.94629 0
M  V30 3156 H 311.372 -0.434318 -0.511477 0
M  V30 3157 H 313.916 -1.74469 -1.0668 0
M  V30 3158 H 312.071 -1.56549 -3.5436 0
M  V30 3159 H 312.485 -3.77711 -3.63916 0
M  V30 3160 H 313.959 -2.59297 -4.87308 0
M  V30 3161 H 314.436 -1.00554 -4.27534 0
M  V30 3162 H 315.042 -2.46767 -3.4639 0
M  V30 3163 N 313.357 1.07166 -1.15556 0
M  V30 3164 C 314.29 2.13808 -0.797593 0
M  V30 3165 C 315.268 1.6101 0.226812 0
M  V30 3166 O 316.452 1.88161 0.112932 0
M  V30 3167 C 313.579 3.38187 -0.186371 0
M  V30 3168 C 312.625 4.09766 -1.18297 0
M  V30 3169 S 313.458 4.60932 -2.72584 0
M  V30 3170 C 314.614 5.88583 -2.12886 0
M  V30 3171 H 314.847 2.43843 -1.70083 0
M  V30 3172 H 312.38 1.19467 -0.978106 0
M  V30 3173 H 314.338 4.10189 0.159837 0
M  V30 3174 H 312.999 3.06326 0.694489 0
M  V30 3175 H 312.192 4.99065 -0.703562 0
M  V30 3176 H 311.794 3.43736 -1.47381 0
M  V30 3177 H 314.086 6.60866 -1.49208 0
M  V30 3178 H 315.029 6.41241 -3.0036 0
M  V30 3179 H 315.437 5.42194 -1.57116 0
M  V30 3180 N 314.835 0.952656 1.25548 0
M  V30 3181 C 316.246 0.647392 1.75116 0
M  V30 3182 C 316.597 -0.837274 1.77438 0
M  V30 3183 O 315.722 -1.65525 1.39393 0
M  V30 3184 C 316.317 1.16845 3.18014 0
M  V30 3185 C 314.876 0.913382 3.6515 0
M  V30 3186 C 314.023 1.31265 2.44264 0
M  V30 3187 H 316.974 1.12968 1.11462 0
M  V30 3188 H 316.995 0.527606 3.76824 0
M  V30 3189 H 316.507 2.24902 3.16292 0
M  V30 3190 H 314.608 -0.152316 3.72289 0
M  V30 3191 H 314.721 1.54845 4.53387 0
M  V30 3192 H 313.085 0.731028 2.43984 0
M  V30 3193 H 313.868 2.40239 2.45234 0
M  V30 3194 N 316.313 -1.40141 0.720998 0
M  V30 3195 C 317.561 -2.0039 0.262323 0
M  V30 3196 C 317.882 -1.57469 -1.15015 0
M  V30 3197 O 317.152 -0.816582 -1.78069 0
M  V30 3198 H 315.732 -0.741063 0.093996 0
M  V30 3199 H 318.394 -1.71398 0.927835 0
M  V30 3200 H 317.49 -3.10658 0.299671 0
M  V30 3201 N 317.792 -0.46758 -1.50504 0
M  V30 3202 C 319.017 0.0886943 -2.0721 0
M  V30 3203 C 319.442 1.33057 -1.32956 0
M  V30 3204 O 318.8 1.77354 -0.376197 0
M  V30 3205 C 318.848 0.359202 -3.58806 0
M  V30 3206 O 317.952 1.44034 -3.8643 0
M  V30 3207 H 317.293 -0.0114349 -0.663902 0
M  V30 3208 H 319.823 -0.657613 -1.93744 0
M  V30 3209 H 319.833 0.600742 -4.03553 0
M  V30 3210 H 318.508 -0.548311 -4.1227 0
M  V30 3211 H 317.085 1.18638 -3.53524 0
M  V30 3212 N 319.27 1.56325 -0.20005 0
M  V30 3213 C 320.18 2.22931 0.730668 0
M  V30 3214 C 321.196 1.22997 1.23076 0
M  V30 3215 O 322.372 1.55748 1.27689 0
M  V30 3216 C 319.437 2.87948 1.93098 0
M  V30 3217 C 318.498 4.03166 1.47497 0
M  V30 3218 C 317.731 4.65073 2.61807 0
M  V30 3219 O 317.954 4.25913 3.79413 0
M  V30 3220 O 316.888 5.54452 2.34237 0
M  V30 3221 H 320.714 3.03084 0.193391 0
M  V30 3222 H 318.299 1.49371 0.0294621 0
M  V30 3223 H 320.181 3.29063 2.6324 0
M  V30 3224 H 318.856 2.10771 2.45677 0
M  V30 3225 H 317.763 3.66664 0.742201 0
M  V30 3226 H 319.096 4.82022 0.995796 0
M  V30 3227 N 320.748 -0.0735177 1.57428 0
M  V30 3228 C 321.996 -0.771472 1.86796 0
M  V30 3229 C 322.317 -1.78201 0.791804 0
M  V30 3230 O 321.587 -1.95074 -0.179718 0
M  V30 3231 H 320.167 -0.28791 0.689287 0
M  V30 3232 H 322.829 -0.0500161 1.94836 0
M  V30 3233 H 321.925 -1.28874 2.8425 0
M  V30 3234 N 322.226 -1.5378 -0.344866 0
M  V30 3235 C 323.474 -1.70625 -1.08311 0
M  V30 3236 C 323.795 -0.471447 -1.89215 0
M  V30 3237 O 323.065 0.514616 -1.8902 0
M  V30 3238 H 321.645 -0.629058 -0.402859 0
M  V30 3239 H 324.307 -1.9103 -0.386459 0
M  V30 3240 H 323.403 -2.57656 -1.76124 0
M  V30 3241 N 323.704 0.605807 -1.45491 0
M  V30 3242 C 324.932 1.39136 -1.5313 0
M  V30 3243 C 325.347 1.88082 -0.164507 0
M  V30 3244 O 324.704 1.62316 0.834247 0
M  V30 3245 C 324.755 2.59463 -2.51716 0
M  V30 3246 O 324.476 2.12551 -3.83084 0
M  V30 3247 C 325.977 3.52301 -2.6907 0
M  V30 3248 H 323.197 0.425849 -0.51855 0
M  V30 3249 H 325.741 0.73865 -1.90694 0
M  V30 3250 H 323.896 3.20772 -2.17219 0
M  V30 3251 H 324.31 2.90744 -4.36541 0
M  V30 3252 H 325.784 4.33271 -3.42024 0
M  V30 3253 H 326.261 4.02757 -1.75167 0
M  V30 3254 H 326.867 2.96845 -3.04571 0
M  V30 3255 N 325.182 1.32811 0.848464 0
M  V30 3256 C 326.429 1.23724 1.60308 0
M  V30 3257 C 326.757 -0.1994 1.93475 0
M  V30 3258 O 326.012 -1.15406 1.5805 0
M  V30 3259 C 326.311 2.04831 2.92881 0
M  V30 3260 C 325.977 3.54125 2.79117 0
M  V30 3261 C 324.639 3.94829 2.7507 0
M  V30 3262 C 326.991 4.49036 2.64606 0
M  V30 3263 C 324.319 5.28675 2.544 0
M  V30 3264 C 326.671 5.83033 2.4547 0
M  V30 3265 C 325.335 6.22931 2.39819 0
M  V30 3266 H 324.605 0.452737 0.586609 0
M  V30 3267 H 327.252 1.64301 0.983743 0
M  V30 3268 H 325.557 1.57001 3.58968 0
M  V30 3269 H 327.254 1.95164 3.50303 0
M  V30 3270 H 323.844 3.21801 2.83094 0
M  V30 3271 H 328.028 4.18505 2.66772 0
M  V30 3272 H 323.284 5.58637 2.48465 0
M  V30 3273 H 327.458 6.56186 2.33222 0
M  V30 3274 H 325.085 7.26584 2.23562 0
M  V30 3275 N 326.66 -1.06551 1.16123 0
M  V30 3276 C 327.592 -2.13908 0.823171 0
M  V30 3277 C 328.605 -1.61926 -0.16843 0
M  V30 3278 O 329.794 -1.78412 0.055962 0
M  V30 3279 C 326.894 -3.38283 0.204424 0
M  V30 3280 C 326.067 -4.19589 1.23548 0
M  V30 3281 C 325.126 -5.2233 0.637011 0
M  V30 3282 O 324.152 -5.54034 1.30516 0
M  V30 3283 N 325.354 -5.77621 -0.577474 0
M  V30 3284 H 328.119 -2.43508 1.74711 0
M  V30 3285 H 325.68 -1.2253 1.05821 0
M  V30 3286 H 327.672 -4.0416 -0.208909 0
M  V30 3287 H 326.242 -3.06329 -0.623012 0
M  V30 3288 H 325.462 -3.49406 1.82507 0
M  V30 3289 H 326.75 -4.70718 1.93137 0
M  V30 3290 H 326.148 -5.54125 -1.13853 0
M  V30 3291 H 324.705 -6.45087 -0.933053 0
M  V30 3292 N 328.138 -0.959301 -1.25041 0
M  V30 3293 C 329.048 -0.489994 -2.29426 0
M  V30 3294 C 330.064 0.444944 -1.68215 0
M  V30 3295 O 331.24 0.320046 -1.98841 0
M  V30 3296 C 328.305 0.220309 -3.45999 0
M  V30 3297 C 327.366 -0.753418 -4.22637 0
M  V30 3298 C 326.599 -0.076918 -5.33645 0
M  V30 3299 O 326.822 1.13649 -5.58963 0
M  V30 3300 O 325.756 -0.764824 -5.97021 0
M  V30 3301 H 329.582 -1.35755 -2.71669 0
M  V30 3302 H 327.167 -0.725961 -1.30576 0
M  V30 3303 H 329.049 0.619677 -4.16819 0
M  V30 3304 H 327.724 1.06296 -3.0575 0
M  V30 3305 H 326.631 -1.20308 -3.54227 0
M  V30 3306 H 327.964 -1.56423 -4.66683 0
M  V30 3307 N 329.616 1.39756 -0.72842 0
M  V30 3308 C 331.027 1.83498 -0.344289 0
M  V30 3309 C 331.378 1.60868 1.12321 0
M  V30 3310 O 330.503 1.09634 1.86573 0
M  V30 3311 C 331.098 3.33114 -0.618112 0
M  V30 3312 C 329.657 3.753 -0.287549 0
M  V30 3313 C 328.804 2.62831 -0.884048 0
M  V30 3314 H 331.755 1.28842 -0.926578 0
M  V30 3315 H 331.776 3.80334 0.112349 0
M  V30 3316 H 331.288 3.49553 -1.68625 0
M  V30 3317 H 329.389 3.64451 0.775012 0
M  V30 3318 H 329.502 4.72945 -0.765512 0
M  V30 3319 H 327.866 2.52792 -0.311149 0
M  V30 3320 H 328.649 2.82078 -1.95671 0
M  V30 3321 N 331.094 0.475555 1.50254 0
M  V30 3322 C 332.341 -0.0778919 2.0235 0
M  V30 3323 C 332.669 -1.39319 1.35722 0
M  V30 3324 O 331.924 -1.89888 0.473395 0
M  V30 3325 C 332.223 -0.305114 3.56095 0
M  V30 3326 C 331.889 0.92903 4.41225 0
M  V30 3327 C 330.551 1.26739 4.6421 0
M  V30 3328 C 332.903 1.75054 4.90923 0
M  V30 3329 C 330.231 2.42724 5.34137 0
M  V30 3330 C 332.583 2.9017 5.62125 0
M  V30 3331 C 331.247 3.24416 5.83362 0
M  V30 3332 H 330.517 -0.0285027 0.740452 0
M  V30 3333 H 333.164 0.630543 1.80821 0
M  V30 3334 H 331.469 -1.09584 3.76163 0
M  V30 3335 H 333.166 -0.747377 3.93974 0
M  V30 3336 H 329.756 0.655428 4.23559 0
M  V30 3337 H 333.94 1.50231 4.73016 0
M  V30 3338 H 329.196 2.69525 5.48786 0
M  V30 3339 H 333.37 3.54169 5.99614 0
M  V30 3340 H 330.997 4.14396 6.37323 0
M  V30 3341 N 332.573 -1.56217 0.208337 0
M  V30 3342 C 333.819 -1.98998 -0.42086 0
M  V30 3343 C 334.174 -1.09331 -1.58317 0
M  V30 3344 O 333.467 -0.140466 -1.91084 0
M  V30 3345 C 333.661 -3.45441 -0.916797 0
M  V30 3346 C 333.49 -4.49273 0.195925 0
M  V30 3347 C 332.26 -5.00998 0.657956 0
M  V30 3348 C 334.458 -5.04294 1.00956 0
M  V30 3349 N 332.44 -5.88514 1.74712 0
M  V30 3350 C 333.811 -5.88607 1.94785 0
M  V30 3351 C 335.866 -4.86692 1.05049 0
M  V30 3352 C 334.569 -6.572 2.9237 0
M  V30 3353 C 336.595 -5.56034 2.01446 0
M  V30 3354 C 335.957 -6.40105 2.94016 0
M  V30 3355 H 332.056 -0.772574 -0.121048 0
M  V30 3356 H 334.64 -1.92101 0.317075 0
M  V30 3357 H 332.811 -3.52812 -1.62413 0
M  V30 3358 H 334.543 -3.75164 -1.51771 0
M  V30 3359 H 331.298 -4.72945 0.248912 0
M  V30 3360 H 331.722 -6.36975 2.2933 0
M  V30 3361 H 336.364 -4.21359 0.348759 0
M  V30 3362 H 334.082 -7.21723 3.63512 0
M  V30 3363 H 337.668 -5.44385 2.0527 0
M  V30 3364 H 336.548 -6.92816 3.6739 0
M  V30 3365 N 334.051 0.0651679 -1.57465 0
M  V30 3366 C 334.981 1.07693 -2.07182 0
M  V30 3367 C 335.962 1.39962 -0.966673 0
M  V30 3368 O 337.147 1.49475 -1.2398 0
M  V30 3369 C 334.277 2.3885 -2.52127 0
M  V30 3370 C 333.231 2.20917 -3.66579 0
M  V30 3371 C 332.557 3.57515 -3.97601 0
M  V30 3372 C 333.857 1.62493 -4.9638 0
M  V30 3373 H 335.551 0.663199 -2.91962 0
M  V30 3374 H 333.097 0.317569 -1.40455 0
M  V30 3375 H 335.05 3.09928 -2.85522 0
M  V30 3376 H 333.774 2.82215 -1.64384 0
M  V30 3377 H 332.433 1.52279 -3.33477 0
M  V30 3378 H 332.081 3.98463 -3.06979 0
M  V30 3379 H 331.781 3.46353 -4.74672 0
M  V30 3380 H 333.305 4.30013 -4.33499 0
M  V30 3381 H 334.719 2.23445 -5.27963 0
M  V30 3382 H 333.116 1.62009 -5.77818 0
M  V30 3383 H 334.186 0.587041 -4.81333 0
M  V30 3384 N 335.529 1.53961 0.336706 0
M  V30 3385 C 336.439 1.85432 1.43708 0
M  V30 3386 C 337.455 0.745053 1.57242 0
M  V30 3387 O 338.631 1.03804 1.72588 0
M  V30 3388 C 335.696 2.06349 2.78605 0
M  V30 3389 C 334.757 3.30191 2.74358 0
M  V30 3390 C 333.99 3.50101 4.02822 0
M  V30 3391 O 334.213 2.7371 5.00439 0
M  V30 3392 O 333.147 4.43547 4.06878 0
M  V30 3393 H 336.973 2.78975 1.20028 0
M  V30 3394 H 334.558 1.39701 0.52952 0
M  V30 3395 H 336.44 2.21513 3.58483 0
M  V30 3396 H 335.115 1.15995 3.02203 0
M  V30 3397 H 334.022 3.20425 1.93078 0
M  V30 3398 H 335.355 4.2056 2.55715 0
M  V30 3399 N 337.007 -0.598083 1.45811 0
M  V30 3400 C 338.284 -1.35777 1.40797 0
M  V30 3401 C 338.664 -2.10935 0.083462 0
M  V30 3402 O 338.012 -2.08505 -0.934763 0
M  V30 3403 C 338.222 -2.29666 2.62783 0
M  V30 3404 C 339.57 -2.91977 3.08277 0
M  V30 3405 O 340.594 -2.39984 2.63223 0
M  V30 3406 O 339.453 -3.86376 3.86491 0
M  V30 3407 H 336.547 -0.609291 0.55919 0
M  V30 3408 H 339.093 -0.620379 1.57954 0
M  V30 3409 H 337.865 -1.73454 3.50756 0
M  V30 3410 H 337.488 -3.1077 2.48008 0
M  V30 3411 N 338.485 -1.33259 -0.841409 0
M  V30 3412 C 339.733 -1.24326 -1.59334 0
M  V30 3413 C 340.054 0.191564 -1.94057 0
M  V30 3414 O 339.324 1.11967 -1.60749 0
M  V30 3415 H 337.904 -0.457174 -0.590763 0
M  V30 3416 H 340.566 -1.66947 -1.00571 0
M  V30 3417 H 339.662 -1.8352 -2.52442 0
M  V30 3418 N 339.963 1.05934 -1.16686 0
M  V30 3419 C 341.191 1.8249 -0.974929 0
M  V30 3420 C 341.606 1.82679 0.476861 0
M  V30 3421 O 340.963 1.2486 1.33103 0
M  V30 3422 C 341.014 3.28943 -1.49929 0
M  V30 3423 O 340.735 3.28886 -2.89423 0
M  V30 3424 C 342.236 4.22215 -1.35089 0
M  V30 3425 H 339.456 0.575295 -0.345365 0
M  V30 3426 H 342 1.33631 -1.548 0
M  V30 3427 H 340.155 3.751 -0.968423 0
M  V30 3428 H 340.569 4.20493 -3.13506 0
M  V30 3429 H 342.043 5.22987 -1.76603 0
M  V30 3430 H 342.52 4.38195 -0.296935 0
M  V30 3431 H 343.126 3.81907 -1.87155 0
M  V30 3432 N 341.441 0.965919 1.2453 0
M  V30 3433 C 342.666 0.643971 1.97149 0
M  V30 3434 C 343.091 -0.779487 1.71189 0
M  V30 3435 O 342.449 -1.5288 0.974553 0
M  V30 3436 C 342.497 0.922557 3.48599 0
M  V30 3437 O 341.601 0.00707672 4.12399 0
M  V30 3438 H 340.942 0.243647 0.617683 0
M  V30 3439 H 343.472 1.29558 1.58353 0
M  V30 3440 H 343.482 0.853373 3.98976 0
M  V30 3441 H 342.157 1.95996 3.66822 0
M  V30 3442 H 340.734 0.12943 3.72675 0
M  V30 3443 N 342.919 -1.39368 0.735821 0
M  V30 3444 C 343.849 -2.33234 0.111506 0
M  V30 3445 C 344.83 -1.53954 -0.723334 0
M  V30 3446 O 346.015 -1.82344 -0.668147 0
M  V30 3447 C 343.145 -3.38057 -0.795917 0
M  V30 3448 C 342.099 -4.2795 -0.065172 0
M  V30 3449 C 341.425 -5.23479 -1.08967 0
M  V30 3450 C 342.725 -5.10741 1.09273 0
M  V30 3451 H 344.419 -2.85692 0.895571 0
M  V30 3452 H 341.965 -1.37364 0.432109 0
M  V30 3453 H 343.918 -4.02675 -1.24221 0
M  V30 3454 H 342.642 -2.8404 -1.61211 0
M  V30 3455 H 341.301 -3.64813 0.361511 0
M  V30 3456 H 340.949 -4.65758 -1.89944 0
M  V30 3457 H 340.649 -5.84472 -0.605489 0
M  V30 3458 H 342.173 -5.90974 -1.53565 0
M  V30 3459 H 343.587 -5.68699 0.724841 0
M  V30 3460 H 341.984 -5.8088 1.50659 0
M  V30 3461 H 343.054 -4.45525 1.91404 0
M  V30 3462 N 344.397 -0.483516 -1.5 0
M  V30 3463 C 345.645 0.067027 -2.01989 0
M  V30 3464 C 345.966 1.3909 -1.36671 0
M  V30 3465 O 345.236 1.88978 -0.516152 0
M  V30 3466 H 343.816 0.0277606 -0.746484 0
M  V30 3467 H 346.478 -0.636773 -1.84204 0
M  V30 3468 H 345.574 0.209484 -3.11396 0
M  V30 3469 N 345.875 1.56104 -0.216619 0
M  V30 3470 C 346.823 2.21434 0.712036 0
M  V30 3471 C 347.817 1.19218 1.20348 0
M  V30 3472 O 349.023 1.3731 1.16387 0
M  V30 3473 H 345.398 0.70992 0.248026 0
M  V30 3474 H 347.369 2.98083 0.137558 0
M  V30 3475 C 346.118 2.90434 1.91163 0
M  V30 3476 H 345.441 3.68842 1.54258 0
M  V30 3477 H 346.881 3.39552 2.5393 0
M  V30 3478 C 345.34 1.92635 2.76394 0
M  V30 3479 O 345.87 1.44017 3.74996 0
M  V30 3480 N 344.076 1.60392 2.42328 0
M  V30 3481 H 343.623 2.00122 1.622 0
M  V30 3482 H 343.581 0.952159 2.99635 0
M  V30 3483 N 347.353 -0.0568162 1.57498 0
M  V30 3484 C 348.578 -0.769402 1.92601 0
M  V30 3485 C 349.003 -1.69559 0.814336 0
M  V30 3486 O 348.361 -1.79811 -0.231903 0
M  V30 3487 C 348.409 -1.52634 3.26704 0
M  V30 3488 O 347.513 -2.63797 3.16994 0
M  V30 3489 H 346.854 -0.208909 0.63028 0
M  V30 3490 H 349.384 -0.0205798 2.0459 0
M  V30 3491 H 349.394 -1.90234 3.60936 0
M  V30 3492 H 348.069 -0.846875 4.07186 0
M  V30 3493 H 346.646 -2.28943 2.94346 0
M  V30 3494 N 348.832 -1.54138 -0.328536 0
M  V30 3495 C 349.762 -1.86167 -1.40939 0
M  V30 3496 C 350.743 -0.718044 -1.54202 0
M  V30 3497 O 351.928 -0.971328 -1.68163 0
M  V30 3498 C 349.058 -2.08461 -2.77779 0
M  V30 3499 C 348.012 -3.24299 -2.7931 0
M  V30 3500 C 347.338 -3.31955 -4.19178 0
M  V30 3501 C 348.638 -4.62065 -2.43502 0
M  V30 3502 H 350.332 -2.76689 -1.14383 0
M  V30 3503 H 347.878 -1.33132 -0.548806 0
M  V30 3504 H 349.831 -2.29453 -3.53454 0
M  V30 3505 H 348.555 -1.14684 -3.05802 0
M  V30 3506 H 347.214 -3.03187 -2.0609 0
M  V30 3507 H 346.862 -2.35745 -4.44335 0
M  V30 3508 H 346.562 -4.09805 -4.2111 0
M  V30 3509 H 348.086 -3.55175 -4.96672 0
M  V30 3510 H 349.5 -4.8297 -3.08889 0
M  V30 3511 H 347.897 -5.42429 -2.56693 0
M  V30 3512 H 348.967 -4.64652 -1.38659 0
M  V30 3513 N 350.31 0.590341 -1.46126 0
M  V30 3514 C 351.559 1.34499 -1.50309 0
M  V30 3515 C 351.872 1.94977 -0.156021 0
M  V30 3516 O 353.078 2.71395 -0.0756037 0
M  V30 3517 C 351.534 2.43723 -2.64815 0
M  V30 3518 C 351.142 1.89582 -4.0591 0
M  V30 3519 C 352.886 3.20579 -2.78262 0
M  V30 3520 C 350.793 2.9639 -5.11769 0
M  V30 3521 H 349.723 0.505593 -0.559368 0
M  V30 3522 H 352.374 0.630848 -1.72315 0
M  V30 3523 H 350.756 3.17902 -2.36124 0
M  V30 3524 H 351.93 1.21997 -4.44357 0
M  V30 3525 H 350.245 1.25418 -3.97063 0
M  V30 3526 H 352.842 4.00276 -3.54519 0
M  V30 3527 H 353.185 3.72684 -1.85505 0
M  V30 3528 H 353.718 2.53505 -3.06562 0
M  V30 3529 H 350.457 2.49181 -6.06291 0
M  V30 3530 H 349.977 3.62487 -4.77873 0
M  V30 3531 H 351.656 3.60474 -5.37278 0
M  V30 3532 N 351.788 1.33704 0.83433 0
M  V30 3533 C 353.018 1.28281 1.6195 0
M  V30 3534 C 353.426 -0.147603 1.88623 0
M  V30 3535 O 352.769 -1.1016 1.47005 0
M  V30 3536 C 352.831 1.99386 2.99141 0
M  V30 3537 C 352.495 3.48681 2.95416 0
M  V30 3538 C 353.492 4.438 2.70809 0
M  V30 3539 C 351.177 3.90925 3.15409 0
M  V30 3540 C 353.171 5.79138 2.66229 0
M  V30 3541 C 350.858 5.26366 3.10454 0
M  V30 3542 C 351.856 6.20284 2.85895 0
M  V30 3543 O 351.544 7.53245 2.80852 0
M  V30 3544 H 351.276 0.44315 0.510484 0
M  V30 3545 H 353.83 1.76711 1.04702 0
M  V30 3546 H 352.06 1.45554 3.58261 0
M  V30 3547 H 353.749 1.87403 3.60049 0
M  V30 3548 H 354.515 4.12485 2.5511 0
M  V30 3549 H 350.394 3.18229 3.33543 0
M  V30 3550 H 353.938 6.52416 2.4698 0
M  V30 3551 H 349.835 5.57304 3.25703 0
M  V30 3552 H 350.603 7.62846 2.96661 0
M  V30 3553 N 353.266 -1.05314 1.17247 0
M  V30 3554 C 354.677 -1.59753 0.96623 0
M  V30 3555 C 355.028 -1.9005 -0.487378 0
M  V30 3556 O 354.153 -1.68126 -1.36245 0
M  V30 3557 C 354.748 -2.90249 1.74759 0
M  V30 3558 C 353.307 -3.41352 1.58606 0
M  V30 3559 C 352.454 -2.15103 1.75002 0
M  V30 3560 H 355.405 -0.881406 1.31973 0
M  V30 3561 H 355.426 -3.60097 1.22925 0
M  V30 3562 H 354.938 -2.68166 2.8055 0
M  V30 3563 H 353.039 -3.68474 0.552985 0
M  V30 3564 H 353.152 -4.16019 2.37624 0
M  V30 3565 H 351.516 -2.25804 1.17833 0
M  V30 3566 H 352.299 -1.95491 2.82202 0
M  V30 3567 N 354.744 -0.972509 -1.24016 0
M  V30 3568 C 355.694 -0.477561 -2.22942 0
M  V30 3569 C 356.678 0.44308 -1.54679 0
M  V30 3570 O 357.87 0.273219 -1.74879 0
M  V30 3571 C 354.999 0.226348 -3.42553 0
M  V30 3572 C 354.085 -0.713403 -4.18057 0
M  V30 3573 N 354.476 -1.8527 -4.70647 0
M  V30 3574 C 352.774 -0.525145 -4.42898 0
M  V30 3575 C 353.475 -2.44089 -5.28011 0
M  V30 3576 N 352.451 -1.72556 -5.15486 0
M  V30 3577 H 356.253 -1.34678 -2.61226 0
M  V30 3578 H 353.767 -0.832196 -1.39457 0
M  V30 3579 H 355.764 0.598184 -4.12586 0
M  V30 3580 H 354.424 1.09195 -3.05788 0
M  V30 3581 H 355.435 -2.2341 -4.67235 0
M  V30 3582 H 352.112 0.296096 -4.16449 0
M  V30 3583 H 353.502 -3.40259 -5.79374 0
M  V30 3584 N 356.222 1.38976 -0.743202 0
M  V30 3585 C 357.154 2.29096 -0.0689228 0
M  V30 3586 C 358.167 1.47229 0.694791 0
M  V30 3587 O 359.356 1.70212 0.537597 0
M  V30 3588 C 356.456 3.25988 0.926548 0
M  V30 3589 C 355.629 4.36833 0.222647 0
M  V30 3590 C 354.688 5.13981 1.12739 0
M  V30 3591 O 353.714 5.6601 0.601795 0
M  V30 3592 N 354.916 5.25966 2.45641 0
M  V30 3593 H 357.681 2.87604 -0.842846 0
M  V30 3594 H 355.242 1.50645 -0.593109 0
M  V30 3595 H 357.234 3.74476 1.5346 0
M  V30 3596 H 355.804 2.68453 1.60162 0
M  V30 3597 H 355.024 3.90116 -0.565983 0
M  V30 3598 H 356.312 5.0811 -0.264841 0
M  V30 3599 H 355.71 4.85228 2.9081 0
M  V30 3600 H 354.267 5.77865 3.01522 0
M  V30 3601 N 357.7 0.491464 1.49741 0
M  V30 3602 C 358.946 -0.0485431 2.03342 0
M  V30 3603 C 359.301 -1.35566 1.36527 0
M  V30 3604 O 358.594 -1.85262 0.488729 0
M  V30 3605 C 358.788 -0.267329 3.56399 0
M  V30 3606 C 358.617 1.01703 4.38049 0
M  V30 3607 C 357.387 1.56614 4.80417 0
M  V30 3608 C 359.585 1.91782 4.77204 0
M  V30 3609 N 357.567 2.7974 5.4646 0
M  V30 3610 C 358.938 2.99489 5.42868 0
M  V30 3611 C 360.993 1.92575 4.5915 0
M  V30 3612 C 359.696 4.08005 5.92389 0
M  V30 3613 C 361.722 3.0006 5.09626 0
M  V30 3614 C 361.084 4.06485 5.75282 0
M  V30 3615 H 357.183 0.0227779 0.781668 0
M  V30 3616 H 359.767 0.664204 1.8302 0
M  V30 3617 H 357.938 -0.949126 3.76625 0
M  V30 3618 H 359.67 -0.803492 3.96644 0
M  V30 3619 H 356.425 1.11256 4.60347 0
M  V30 3620 H 356.849 3.42323 5.84075 0
M  V30 3621 H 361.491 1.11605 4.07804 0
M  V30 3622 H 359.209 4.89779 6.42761 0
M  V30 3623 H 362.795 3.01681 4.97473 0
M  V30 3624 H 361.675 4.88287 6.13633 0
M  V30 3625 N 359.178 -1.55987 0.224894 0
M  V30 3626 C 360.427 -1.97566 -0.406273 0
M  V30 3627 C 360.74 -1.11569 -1.6066 0
M  V30 3628 O 361.946 -1.43062 -2.3075 0
M  V30 3629 C 360.402 -3.51474 -0.774207 0
M  V30 3630 C 360.01 -4.46179 0.403496 0
M  V30 3631 C 361.754 -4.01758 -1.37079 0
M  V30 3632 C 359.661 -5.91399 0.0129412 0
M  V30 3633 H 358.591 -0.737777 -0.155565 0
M  V30 3634 H 361.242 -1.80659 0.321635 0
M  V30 3635 H 359.624 -3.63994 -1.55963 0
M  V30 3636 H 360.798 -4.45409 1.18101 0
M  V30 3637 H 359.113 -4.06255 0.913536 0
M  V30 3638 H 361.71 -5.07756 -1.67596 0
M  V30 3639 H 362.053 -3.47805 -2.28773 0
M  V30 3640 H 362.586 -3.92475 -0.648733 0
M  V30 3641 H 359.325 -6.49341 0.896451 0
M  V30 3642 H 358.845 -5.95356 -0.728821 0
M  V30 3643 H 360.524 -6.45683 -0.412582 0
M  V30 3644 N 360.656 0.0484629 -1.57525 0
M  V30 3645 C 361.604 1.07359 -2.06341 0
M  V30 3646 C 362.598 1.3865 -0.973269 0
M  V30 3647 O 363.804 1.37783 -1.15827 0
M  V30 3648 H 360.179 0.363662 -0.65822 0
M  V30 3649 H 362.15 0.635916 -2.91545 0
M  V30 3650 C 360.899 2.37198 -2.54229 0
M  V30 3651 H 360.222 2.13977 -3.37719 0
M  V30 3652 H 361.662 3.07319 -2.92115 0
M  V30 3653 C 360.121 3.04805 -1.43511 0
M  V30 3654 O 360.651 3.93848 -0.79034 0
M  V30 3655 N 358.857 2.65811 -1.17444 0
M  V30 3656 H 358.404 1.93488 -1.70059 0
M  V30 3657 H 358.362 3.11366 -0.435737 0
M  V30 3658 N 362.134 1.5431 0.320358 0
M  V30 3659 C 363.064 1.86912 1.3995 0
M  V30 3660 C 364.045 0.726211 1.53819 0
M  V30 3661 O 365.23 0.980233 1.67646 0
M  V30 3662 C 362.36 2.09932 2.7667 0
M  V30 3663 C 361.314 3.25776 2.77586 0
M  V30 3664 C 360.64 3.34173 4.17412 0
M  V30 3665 C 361.94 4.6335 2.41048 0
M  V30 3666 H 363.634 2.77292 1.12914 0
M  V30 3667 H 361.18 1.33421 0.541738 0
M  V30 3668 H 363.133 2.31324 3.52232 0
M  V30 3669 H 361.857 1.16304 3.0519 0
M  V30 3670 H 360.516 3.04276 2.04479 0
M  V30 3671 H 360.164 2.38098 4.43078 0
M  V30 3672 H 359.864 4.12033 4.18931 0
M  V30 3673 H 361.388 3.57803 4.94782 0
M  V30 3674 H 362.802 4.84602 3.06324 0
M  V30 3675 H 361.199 5.43782 2.53813 0
M  V30 3676 H 362.269 4.65381 1.36193 0
M  V30 3677 N 363.613 -0.582584 1.46437 0
M  V30 3678 C 365.029 -0.905962 1.31394 0
M  V30 3679 C 365.229 -1.99468 0.285476 0
M  V30 3680 O 364.285 -2.50566 -0.311914 0
M  V30 3681 C 365.598 -1.3232 2.70022 0
M  V30 3682 C 367.146 -1.43604 2.78113 0
M  V30 3683 C 367.621 -1.88694 4.17323 0
M  V30 3684 N 369.112 -1.95887 4.19741 0
M  V30 3685 C 369.847 -2.32051 5.24347 0
M  V30 3686 N 369.343 -2.67006 6.39281 0
M  V30 3687 N 371.136 -2.32606 5.11713 0
M  V30 3688 H 363.287 0.1366 2.1196 0
M  V30 3689 H 365.55 -0.00155736 0.947999 0
M  V30 3690 H 365.256 -0.597242 3.46592 0
M  V30 3691 H 365.13 -2.28469 3.00136 0
M  V30 3692 H 367.517 -2.15286 2.01832 0
M  V30 3693 H 367.598 -0.457059 2.51684 0
M  V30 3694 H 367.242 -1.1759 4.941 0
M  V30 3695 H 367.172 -2.8755 4.4116 0
M  V30 3696 H 369.663 -1.71362 3.36814 0
M  V30 3697 H 369.976 -2.93554 7.14875 0
M  V30 3698 H 368.321 -2.64644 6.42642 0
M  V30 3699 H 371.512 -2.04721 4.2096 0
M  V30 3700 H 371.685 -2.60462 5.93349 0
M  V30 3701 N 365.091 -1.34144 -0.827227 0
M  V30 3702 C 366.319 -1.29325 -1.61501 0
M  V30 3703 C 366.734 0.13354 -1.88327 0
M  V30 3704 O 366.091 1.0793 -1.47164 0
M  V30 3705 C 366.142 -2.07746 -2.95844 0
M  V30 3706 O 365.863 -3.4486 -2.70191 0
M  V30 3707 C 367.364 -2.10273 -3.90256 0
M  V30 3708 H 364.584 -0.445069 -0.50215 0
M  V30 3709 H 367.128 -1.76693 -1.02955 0
M  V30 3710 H 365.283 -1.6403 -3.5096 0
M  V30 3711 H 365.697 -3.85345 -3.55822 0
M  V30 3712 H 367.171 -2.69575 -4.81698 0
M  V30 3713 H 367.648 -1.096 -4.25305 0
M  V30 3714 H 368.254 -2.54059 -3.41078 0
M  V30 3715 N 366.569 1.04691 -1.17803 0
M  V30 3716 C 367.517 2.14665 -0.895635 0
M  V30 3717 C 368.511 1.68806 0.141679 0
M  V30 3718 O 369.717 1.79999 -0.00587914 0
M  V30 3719 H 366.092 0.701038 -0.272121 0
M  V30 3720 H 368.063 2.35685 -1.83017 0
M  V30 3721 C 366.812 3.45019 -0.430962 0
M  V30 3722 H 366.135 3.8071 -1.22064 0
M  V30 3723 H 367.575 4.23125 -0.272301 0
M  V30 3724 C 366.034 3.25943 0.852207 0
M  V30 3725 O 366.564 3.5296 1.91786 0
M  V30 3726 N 364.77 2.79304 0.802346 0
M  V30 3727 H 364.317 2.57518 -0.0650788 0
M  V30 3728 H 364.275 2.66921 1.66134 0
M  V30 3729 N 368.047 0.979072 1.23499 0
M  V30 3730 C 368.995 0.510604 2.26926 0
M  V30 3731 C 369.989 -0.431691 1.63807 0
M  V30 3732 O 371.195 -0.30573 1.77385 0
M  V30 3733 H 367.57 0.146688 0.737554 0
M  V30 3734 H 369.541 1.39466 2.63803 0
M  V30 3735 C 368.29 -0.172658 3.47271 0
M  V30 3736 H 367.613 0.543331 3.96091 0
M  V30 3737 H 369.053 -0.464101 4.21452 0
M  V30 3738 C 367.512 -1.40345 3.06276 0
M  V30 3739 O 368.042 -2.49978 3.14442 0
M  V30 3740 N 366.248 -1.27362 2.61203 0
M  V30 3741 H 365.795 -0.381584 2.54758 0
M  V30 3742 H 365.753 -2.09822 2.34141 0
M  V30 3743 N 369.525 -1.3858 0.750561 0
M  V30 3744 C 370.75 -2.04997 0.314812 0
M  V30 3745 C 371.175 -1.56235 -1.04749 0
M  V30 3746 O 370.533 -0.712981 -1.66692 0
M  V30 3747 C 370.581 -3.58961 0.343415 0
M  V30 3748 O 369.685 -4.07025 -0.663628 0
M  V30 3749 H 369.026 -0.649081 0.139962 0
M  V30 3750 H 371.556 -1.77313 1.02084 0
M  V30 3751 H 371.566 -4.07542 0.193233 0
M  V30 3752 H 370.241 -3.93811 1.33738 0
M  V30 3753 H 368.818 -3.6982 -0.478307 0
M  V30 3754 N 371.003 -0.499398 -1.49478 0
M  V30 3755 C 371.966 0.268838 -2.27618 0
M  V30 3756 C 372.966 0.895383 -1.33565 0
M  V30 3757 O 374.156 0.760164 -1.56739 0
M  V30 3758 C 371.288 1.38559 -3.11471 0
M  V30 3759 H 372.481 -0.416812 -2.96989 0
M  V30 3760 H 370.034 -0.254313 -1.54217 0
M  V30 3761 H 370.769 2.10544 -2.46661 0
M  V30 3762 H 370.554 0.941797 -3.80621 0
M  V30 3763 H 372.044 1.92678 -3.70493 0
M  V30 3764 N 372.481 1.55866 -0.233164 0
M  V30 3765 C 373.709 2.02998 0.399905 0
M  V30 3766 C 374.124 1.11274 1.52524 0
M  V30 3767 O 373.481 0.124528 1.82075 0
M  V30 3768 C 373.532 3.4958 0.920639 0
M  V30 3769 O 373.253 4.37808 -0.159834 0
M  V30 3770 C 374.754 4.12411 1.62578 0
M  V30 3771 H 371.974 0.664006 0.0966281 0
M  V30 3772 H 374.518 2.0143 -0.353013 0
M  V30 3773 H 372.673 3.51727 1.62379 0
M  V30 3774 H 373.087 5.23981 0.23337 0
M  V30 3775 H 374.561 5.16711 1.94201 0
M  V30 3776 H 375.038 3.5809 2.54299 0
M  V30 3777 H 375.644 4.14148 0.967553 0
M  V30 3778 N 373.959 -0.0401083 1.57549 0
M  V30 3779 C 374.889 -1.04384 2.08869 0
M  V30 3780 C 375.87 -1.38407 0.988817 0
M  V30 3781 O 377.055 -1.47483 1.26342 0
M  V30 3782 C 374.185 -2.34808 2.55895 0
M  V30 3783 C 373.139 -2.15057 3.70047 0
M  V30 3784 C 372.465 -3.51145 4.03239 0
M  V30 3785 C 373.765 -1.54576 4.98902 0
M  V30 3786 H 375.459 -0.616666 2.92981 0
M  V30 3787 H 373.005 -0.295184 1.40942 0
M  V30 3788 H 374.958 -3.05346 2.90417 0
M  V30 3789 H 373.682 -2.79565 1.68853 0
M  V30 3790 H 372.341 -1.46954 3.35857 0
M  V30 3791 H 371.989 -3.93529 3.13279 0
M  V30 3792 H 371.689 -3.38758 4.80122 0
M  V30 3793 H 373.213 -4.23062 4.40285 0
M  V30 3794 H 374.627 -2.15017 5.31451 0
M  V30 3795 H 373.024 -1.52796 5.80322 0
M  V30 3796 H 374.094 -0.51039 4.82206 0
M  V30 3797 N 375.437 -1.54477 -0.31217 0
M  V30 3798 C 376.686 -1.72438 -1.04633 0
M  V30 3799 C 376.999 -0.511163 -1.88803 0
M  V30 3800 O 378.205 -0.572341 -2.65399 0
M  V30 3801 C 376.661 -3.05043 -1.9099 0
M  V30 3802 C 376.269 -4.33806 -1.11877 0
M  V30 3803 C 378.013 -3.32364 -2.64073 0
M  V30 3804 C 375.92 -5.57467 -1.97445 0
M  V30 3805 H 374.85 -0.642647 -0.394361 0
M  V30 3806 H 377.501 -1.80966 -0.303929 0
M  V30 3807 H 375.883 -2.90451 -2.69173 0
M  V30 3808 H 377.057 -4.59199 -0.383843 0
M  V30 3809 H 375.372 -4.13336 -0.504252 0
M  V30 3810 H 377.969 -4.21951 -3.28423 0
M  V30 3811 H 378.312 -2.50745 -3.32314 0
M  V30 3812 H 378.845 -3.47875 -1.92944 0
M  V30 3813 H 375.584 -6.41722 -1.33692 0
M  V30 3814 H 375.104 -5.36277 -2.6864 0
M  V30 3815 H 376.783 -5.94303 -2.5576 0
M  V30 3816 N 376.915 0.57481 -1.46744 0
M  V30 3817 C 377.845 1.69337 -1.60771 0
M  V30 3818 C 378.826 1.63825 -0.457736 0
M  V30 3819 O 380.011 1.8172 -0.684947 0
M  V30 3820 C 377.141 3.0798 -1.60517 0
M  V30 3821 C 376.095 3.28327 -2.74564 0
M  V30 3822 C 375.421 4.67578 -2.59373 0
M  V30 3823 C 376.721 3.15398 -4.16319 0
M  V30 3824 H 378.415 1.57853 -2.54407 0
M  V30 3825 H 375.961 0.75799 -1.22436 0
M  V30 3826 H 377.914 3.86061 -1.68923 0
M  V30 3827 H 376.638 3.20381 -0.634305 0
M  V30 3828 H 375.297 2.52649 -2.65639 0
M  V30 3829 H 374.945 4.76755 -1.60353 0
M  V30 3830 H 374.645 4.82144 -3.35873 0
M  V30 3831 H 376.169 5.47817 -2.69682 0
M  V30 3832 H 377.583 3.83315 -4.26313 0
M  V30 3833 H 375.98 3.41482 -4.93468 0
M  V30 3834 H 377.05 2.12372 -4.3592 0
M  V30 3835 N 378.394 1.34581 0.820102 0
M  V30 3836 C 379.805 1.24298 1.39309 0
M  V30 3837 C 380.156 -0.130351 1.95767 0
M  V30 3838 O 379.281 -1.0308 1.90272 0
M  V30 3839 C 379.876 2.25054 2.53251 0
M  V30 3840 C 378.435 2.18552 3.0645 0
M  V30 3841 C 377.582 2.11503 1.79337 0
M  V30 3842 H 380.533 1.45906 0.624262 0
M  V30 3843 H 380.554 1.86917 3.31425 0
M  V30 3844 H 380.066 3.24996 2.1213 0
M  V30 3845 H 378.167 1.21976 3.52069 0
M  V30 3846 H 378.28 3.0993 3.65349 0
M  V30 3847 H 376.644 1.57268 2.00347 0
M  V30 3848 H 377.427 3.13284 1.40386 0
M  V30 3849 N 379.872 -1.04064 1.18357 0
M  V30 3850 C 381.102 -1.80654 1.00238 0
M  V30 3851 C 381.51 -1.83713 -0.452362 0
M  V30 3852 O 380.853 -1.27135 -1.32599 0
M  V30 3853 C 380.915 -3.27582 1.48088 0
M  V30 3854 C 380.579 -3.48184 2.96002 0
M  V30 3855 C 381.576 -3.39372 3.93856 0
M  V30 3856 C 379.261 -3.7478 3.34433 0
M  V30 3857 C 381.255 -3.5686 5.28138 0
M  V30 3858 C 378.942 -3.91915 4.68877 0
M  V30 3859 C 379.94 -3.82956 5.65539 0
M  V30 3860 O 379.628 -3.996 6.97549 0
M  V30 3861 H 379.36 -0.575751 0.354241 0
M  V30 3862 H 381.914 -1.32044 1.57333 0
M  V30 3863 H 380.144 -3.77161 0.853588 0
M  V30 3864 H 381.833 -3.8573 1.2636 0
M  V30 3865 H 382.599 -3.18789 3.65511 0
M  V30 3866 H 378.478 -3.80852 2.59756 0
M  V30 3867 H 382.022 -3.49783 6.03571 0
M  V30 3868 H 377.919 -4.11992 4.96923 0
M  V30 3869 H 378.687 -4.1676 7.04452 0
M  V30 3870 N 381.35 -0.985608 -1.22978 0
M  V30 3871 C 382.596 -0.65836 -1.91816 0
M  V30 3872 C 382.929 0.806692 -1.76653 0
M  V30 3873 O 382.204 1.58252 -1.13078 0
M  V30 3874 C 382.487 -1.056 -3.44268 0
M  V30 3875 C 382.34 -2.57906 -3.68516 0
M  V30 3876 C 383.659 -0.603781 -4.35939 0
M  V30 3877 H 380.778 -0.24065 -0.696604 0
M  V30 3878 H 383.42 -1.22783 -1.44998 0
M  V30 3879 H 381.57 -0.571445 -3.84274 0
M  V30 3880 H 383.242 -3.13976 -3.3796 0
M  V30 3881 H 381.485 -3.00305 -3.13048 0
M  V30 3882 H 382.156 -2.80779 -4.75255 0
M  V30 3883 H 384.632 -1.01987 -4.03408 0
M  V30 3884 H 383.508 -0.910383 -5.41298 0
M  V30 3885 H 383.769 0.495761 -4.39312 0
M  V30 3886 N 382.828 1.3818 -0.7579 0
M  V30 3887 C 383.776 2.32277 -0.122482 0
M  V30 3888 C 384.77 1.54238 0.700505 0
M  V30 3889 O 385.976 1.69737 0.599119 0
M  V30 3890 H 382.351 0.751712 -0.0208143 0
M  V30 3891 H 384.322 2.83469 -0.932099 0
M  V30 3892 C 383.071 3.39447 0.753076 0
M  V30 3893 H 382.394 3.99591 0.129184 0
M  V30 3894 H 383.834 4.07684 1.16489 0
M  V30 3895 C 382.293 2.78375 1.8976 0
M  V30 3896 O 382.823 2.68025 2.99208 0
M  V30 3897 N 381.029 2.36121 1.69397 0
M  V30 3898 H 380.576 2.4474 0.803762 0
M  V30 3899 H 380.534 1.95602 2.46145 0
M  V30 3900 N 384.306 0.507319 1.49211 0
M  V30 3901 C 385.269 -0.256763 2.27757 0
M  V30 3902 C 386.269 -0.888287 1.34038 0
M  V30 3903 O 387.459 -0.751841 1.5714 0
M  V30 3904 C 384.591 -1.36905 3.12202 0
M  V30 3905 H 385.784 0.432557 2.96764 0
M  V30 3906 H 383.337 0.262488 1.5408 0
M  V30 3907 H 384.072 -2.09233 2.47775 0
M  V30 3908 H 383.857 -0.921599 3.81115 0
M  V30 3909 H 385.347 -1.9071 3.7151 0
M  V30 3910 N 385.784 -1.5574 0.241426 0
M  V30 3911 C 387.033 -1.97986 -0.385295 0
M  V30 3912 C 387.346 -1.13267 -1.59468 0
M  V30 3913 O 388.552 -1.45501 -2.2922 0
M  V30 3914 C 387.008 -3.52275 -0.736884 0
M  V30 3915 C 386.616 -4.45726 0.450796 0
M  V30 3916 C 388.36 -4.03189 -1.3281 0
M  V30 3917 C 386.267 -5.91352 0.0756662 0
M  V30 3918 H 385.197 -0.739386 -0.147731 0
M  V30 3919 H 387.848 -1.80308 0.340779 0
M  V30 3920 H 386.23 -3.65628 -1.52094 0
M  V30 3921 H 387.404 -4.44131 1.22819 0
M  V30 3922 H 385.719 -4.05264 0.956573 0
M  V30 3923 H 388.316 -5.09505 -1.62201 0
M  V30 3924 H 388.659 -3.50212 -2.25071 0
M  V30 3925 H 389.192 -3.93141 -0.607069 0
M  V30 3926 H 385.931 -6.48354 0.965272 0
M  V30 3927 H 385.451 -5.96095 -0.665635 0
M  V30 3928 H 387.13 -6.46084 -0.344075 0
M  V30 3929 N 387.262 0.0317525 -1.57568 0
M  V30 3930 C 388.673 0.578692 -1.77505 0
M  V30 3931 C 389.024 1.75749 -0.872164 0
M  V30 3932 O 388.149 2.16298 -0.0663106 0
M  V30 3933 C 388.744 1.05658 -3.21904 0
M  V30 3934 C 387.303 1.54906 -3.43047 0
M  V30 3935 C 386.45 0.485939 -2.73009 0
M  V30 3936 H 389.401 -0.194475 -1.57504 0
M  V30 3937 H 389.422 1.92404 -3.28269 0
M  V30 3938 H 388.934 0.198422 -3.87592 0
M  V30 3939 H 387.035 2.42915 -2.82529 0
M  V30 3940 H 387.148 1.59841 -4.5165 0
M  V30 3941 H 385.512 0.940354 -2.36705 0
M  V30 3942 H 386.295 -0.362709 -3.41379 0
M  V30 3943 N 388.74 1.54641 0.303973 0
M  V30 3944 C 389.673 1.80263 1.3993 0
M  V30 3945 C 390.651 0.653657 1.48883 0
M  V30 3946 O 391.835 0.893284 1.6599 0
M  V30 3947 C 388.962 1.9367 2.77866 0
M  V30 3948 C 388.008 3.16078 2.86351 0
M  V30 3949 S 388.841 4.74219 2.4875 0
M  V30 3950 C 389.997 4.90558 3.88721 0
M  V30 3951 H 390.23 2.72886 1.17986 0
M  V30 3952 H 387.763 1.46014 0.501918 0
M  V30 3953 H 389.721 2.0208 3.57315 0
M  V30 3954 H 388.382 1.01991 2.9708 0
M  V30 3955 H 387.575 3.22252 3.87517 0
M  V30 3956 H 387.177 3.06099 2.14893 0
M  V30 3957 H 389.469 4.74398 4.83687 0
M  V30 3958 H 390.412 5.92651 3.87518 0
M  V30 3959 H 390.82 4.18728 3.78585 0
M  V30 3960 N 390.218 -0.567019 1.47046 0
M  V30 3961 C 391.495 -1.3276 1.43646 0
M  V30 3962 C 391.875 -2.1071 0.128186 0
M  V30 3963 O 391.223 -2.10441 -0.890326 0
M  V30 3964 C 391.433 -2.2404 2.67595 0
M  V30 3965 C 392.781 -2.85372 3.14401 0
M  V30 3966 O 393.805 -2.34346 2.68254 0
M  V30 3967 O 392.664 -3.78091 3.946 0
M  V30 3968 H 389.758 -0.597293 0.571988 0
M  V30 3969 H 392.304 -0.586735 1.59234 0
M  V30 3970 H 391.076 -1.65975 3.54356 0
M  V30 3971 H 390.699 -3.05439 2.54544 0
M  V30 3972 N 391.696 -1.35014 -0.812953 0
M  V30 3973 C 392.921 -1.31187 -1.60639 0
M  V30 3974 C 393.346 0.109382 -1.87782 0
M  V30 3975 O 392.704 1.07424 -1.46047 0
M  V30 3976 C 392.752 -2.11809 -2.91838 0
M  V30 3977 O 391.856 -1.49444 -3.8437 0
M  V30 3978 H 391.197 -0.450084 -0.488181 0
M  V30 3979 H 393.727 -1.77963 -1.00947 0
M  V30 3980 H 393.737 -2.23531 -3.41318 0
M  V30 3981 H 392.412 -3.15137 -2.71407 0
M  V30 3982 H 390.989 -1.46524 -3.42907 0
M  V30 3983 N 393.175 1.03435 -1.18907 0
M  V30 3984 C 394.138 2.09756 -0.923844 0
M  V30 3985 C 395.138 1.60528 0.093416 0
M  V30 3986 O 396.328 1.73631 -0.140727 0
M  V30 3987 C 393.46 3.38692 -0.387354 0
M  V30 3988 H 394.653 2.34719 -1.86674 0
M  V30 3989 H 392.206 1.19959 -1.00197 0
M  V30 3990 H 392.941 3.19396 0.561845 0
M  V30 3991 H 392.726 3.75742 -1.12074 0
M  V30 3992 H 394.216 4.17016 -0.220694 0
M  V30 3993 N 394.653 0.992116 1.22453 0
M  V30 3994 C 395.902 0.662992 1.90492 0
M  V30 3995 C 396.215 -0.808407 1.78113 0
M  V30 3996 O 397.421 -1.24908 2.41061 0
M  V30 3997 C 395.877 1.1353 3.41524 0
M  V30 3998 C 395.485 2.63187 3.62542 0
M  V30 3999 C 397.229 0.880465 4.15269 0
M  V30 4000 C 395.136 3.04024 5.0727 0
M  V30 4001 H 394.066 0.244278 0.713333 0
M  V30 4002 H 396.717 1.20157 1.38688 0
M  V30 4003 H 395.099 0.52485 3.92506 0
M  V30 4004 H 396.273 3.2957 3.22056 0
M  V30 4005 H 394.588 2.86543 3.02129 0
M  V30 4006 H 397.185 1.16128 5.21937 0
M  V30 4007 H 397.528 -0.183408 4.15896 0
M  V30 4008 H 398.061 1.45307 3.70312 0
M  V30 4009 H 394.8 4.09584 5.11782 0
M  V30 4010 H 394.32 2.42343 5.48662 0
M  V30 4011 H 395.999 2.95282 5.75689 0
M  V30 4012 N 396.131 -1.37776 0.765217 0
M  V30 4013 C 397.547 -1.53297 0.444108 0
M  V30 4014 C 397.747 -1.72515 -1.04119 0
M  V30 4015 O 396.803 -1.74278 -1.82711 0
M  V30 4016 C 398.116 -2.73328 1.25349 0
M  V30 4017 C 399.664 -2.87185 1.24473 0
M  V30 4018 C 400.139 -4.10191 2.03733 0
M  V30 4019 N 401.63 -4.17291 2.01053 0
M  V30 4020 C 402.365 -5.11488 2.59166 0
M  V30 4021 N 401.861 -6.11285 3.26041 0
M  V30 4022 N 403.654 -5.03924 2.49032 0
M  V30 4023 H 395.805 -1.23552 1.72768 0
M  V30 4024 H 398.068 -0.601103 0.733062 0
M  V30 4025 H 397.774 -2.6557 2.30577 0
M  V30 4026 H 397.648 -3.66834 0.87823 0
M  V30 4027 H 400.035 -2.94418 0.20047 0
M  V30 4028 H 400.116 -1.94657 1.65959 0
M  V30 4029 H 399.76 -4.0372 3.08176 0
M  V30 4030 H 399.69 -5.01821 1.59633 0
M  V30 4031 H 402.181 -3.45825 1.5236 0
M  V30 4032 H 402.494 -6.79678 3.67774 0
M  V30 4033 H 400.839 -6.11583 3.30138 0
M  V30 4034 H 404.03 -4.24902 1.96407 0
M  V30 4035 H 404.203 -5.77152 2.94617 0
M  V30 4036 N 397.609 -0.515225 -1.4894 0
M  V30 4037 C 398.559 0.275113 -2.26334 0
M  V30 4038 C 399.543 0.923007 -1.31793 0
M  V30 4039 O 400.735 0.828254 -1.56426 0
M  V30 4040 C 397.864 1.33041 -3.16473 0
M  V30 4041 C 396.95 0.688051 -4.18481 0
M  V30 4042 N 397.341 -0.217638 -5.05332 0
M  V30 4043 C 395.639 0.94699 -4.3583 0
M  V30 4044 C 396.34 -0.58676 -5.78733 0
M  V30 4045 N 395.316 0.0486966 -5.43578 0
M  V30 4046 H 399.118 -0.421876 -2.90856 0
M  V30 4047 H 396.632 -0.332249 -1.58965 0
M  V30 4048 H 398.629 1.9102 -3.70563 0
M  V30 4049 H 397.289 2.02894 -2.53504 0
M  V30 4050 H 398.3 -0.589343 -5.14536 0
M  V30 4051 H 394.977 1.63719 -3.8406 0
M  V30 4052 H 396.367 -1.32855 -6.58634 0
M  V30 4053 N 399.087 1.5561 -0.249682 0
M  V30 4054 C 400.312 2.03865 0.381305 0
M  V30 4055 C 400.737 1.12769 1.50548 0
M  V30 4056 O 400.095 0.121189 1.80895 0
M  V30 4057 C 400.143 3.50101 0.863816 0
M  V30 4058 O 399.247 3.62132 1.97318 0
M  V30 4059 H 398.588 0.658827 0.0827194 0
M  V30 4060 H 401.118 2.01105 -0.376552 0
M  V30 4061 H 401.128 3.90975 1.1663 0
M  V30 4062 H 399.803 4.1588 0.0411816 0
M  V30 4063 H 398.38 3.33155 1.67517 0
M  V30 4064 N 400.565 -0.0233959 1.57583 0
M  V30 4065 C 401.513 -1.04063 2.08023 0
M  V30 4066 C 402.507 -1.37084 0.995204 0
M  V30 4067 O 403.713 -1.35923 1.18004 0
M  V30 4068 H 400.088 -0.353144 0.663922 0
M  V30 4069 H 402.059 -0.589453 2.9252 0
M  V30 4070 C 400.808 -2.33123 2.57971 0
M  V30 4071 H 400.131 -2.08577 3.4108 0
M  V30 4072 H 401.571 -3.02632 2.96967 0
M  V30 4073 C 400.03 -3.02483 1.48342 0
M  V30 4074 O 400.56 -3.92541 0.852898 0
M  V30 4075 N 398.766 -2.63909 1.21658 0
M  V30 4076 H 398.313 -1.90758 1.73116 0
M  V30 4077 H 398.271 -3.10633 0.485218 0
M  V30 4078 N 402.043 -1.548 -0.295768 0
M  V30 4079 C 403.289 -1.75517 -1.02789 0
M  V30 4080 C 403.644 -0.537266 -1.84746 0
M  V30 4081 O 402.937 0.470299 -1.85738 0
M  V30 4082 C 403.131 -2.98797 -1.961 0
M  V30 4083 C 402.96 -4.3246 -1.23321 0
M  V30 4084 C 401.73 -4.96131 -0.95822 0
M  V30 4085 C 403.928 -5.10365 -0.635024 0
M  V30 4086 N 401.91 -6.1357 -0.201257 0
M  V30 4087 C 403.281 -6.19999 -0.0110937 0
M  V30 4088 C 405.336 -4.94957 -0.540594 0
M  V30 4089 C 404.039 -7.15904 0.698136 0
M  V30 4090 C 406.065 -5.91197 0.154992 0
M  V30 4091 C 405.427 -7.00203 0.767752 0
M  V30 4092 H 401.526 -0.694786 -0.358882 0
M  V30 4093 H 404.11 -1.92281 -0.305943 0
M  V30 4094 H 402.281 -2.83448 -2.6554 0
M  V30 4095 H 404.013 -3.08017 -2.62502 0
M  V30 4096 H 400.768 -4.56595 -1.25771 0
M  V30 4097 H 401.192 -6.76802 0.16389 0
M  V30 4098 H 405.834 -4.10803 -1.00003 0
M  V30 4099 H 403.552 -7.99595 1.16933 0
M  V30 4100 H 407.138 -5.81353 0.228069 0
M  V30 4101 H 406.018 -7.73393 1.29743 0
M  V30 4102 N 403.521 0.559213 -1.47345 0
M  V30 4103 C 404.749 1.34194 -1.57479 0
M  V30 4104 C 405.164 1.87463 -0.224261 0
M  V30 4105 O 404.521 1.64888 0.782185 0
M  V30 4106 C 404.572 2.51324 -2.59843 0
M  V30 4107 O 404.293 2.00256 -3.89653 0
M  V30 4108 C 405.794 3.43563 -2.80142 0
M  V30 4109 H 403.014 0.409136 -0.531835 0
M  V30 4110 H 405.558 0.677609 -1.92947 0
M  V30 4111 H 403.713 3.13699 -2.27314 0
M  V30 4112 H 404.127 2.76708 -4.4557 0
M  V30 4113 H 405.601 4.2217 -3.55635 0
M  V30 4114 H 406.078 3.9698 -1.87892 0
M  V30 4115 H 406.684 2.87005 -3.1386 0
M  V30 4116 N 404.999 1.35443 0.805782 0
M  V30 4117 C 405.929 1.31095 1.93226 0
M  V30 4118 C 406.91 0.185244 1.69088 0
M  V30 4119 O 408.095 0.380332 1.90439 0
M  V30 4120 C 405.225 1.08299 3.29983 0
M  V30 4121 C 404.179 2.17519 3.68605 0
M  V30 4122 C 403.505 1.79887 5.03532 0
M  V30 4123 C 404.805 3.5949 3.78898 0
M  V30 4124 H 406.499 2.25352 1.97122 0
M  V30 4125 H 404.045 1.0848 0.946996 0
M  V30 4126 H 405.998 1.03897 4.08391 0
M  V30 4127 H 404.722 0.104885 3.26432 0
M  V30 4128 H 403.381 2.2102 2.92482 0
M  V30 4129 H 403.029 0.80693 4.96485 0
M  V30 4130 H 402.729 2.53001 5.30344 0
M  V30 4131 H 404.253 1.77011 5.84379 0
M  V30 4132 H 405.667 3.58307 4.47536 0
M  V30 4133 H 404.064 4.31371 4.1718 0
M  V30 4134 H 405.134 3.95584 2.80431 0
M  V30 4135 N 406.477 -1.02803 1.19454 0
M  V30 4136 C 407.44 -2.09264 0.934955 0
M  V30 4137 C 408.44 -1.60576 -0.0849015 0
M  V30 4138 O 409.63 -1.73554 0.149933 0
M  V30 4139 C 406.762 -3.38482 0.40531 0
M  V30 4140 H 407.955 -2.33726 1.87916 0
M  V30 4141 H 405.508 -1.19426 1.00832 0
M  V30 4142 H 406.243 -3.19689 -0.544899 0
M  V30 4143 H 406.028 -3.75142 1.14065 0
M  V30 4144 H 407.518 -4.16894 0.242806 0
M  V30 4145 N 407.956 -0.998596 -1.21925 0
M  V30 4146 C 409.205 -0.673085 -1.90138 0
M  V30 4147 C 409.518 0.79895 -1.78539 0
M  V30 4148 O 410.724 1.23628 -2.4172 0
M  V30 4149 C 409.18 -1.15339 -3.40918 0
M  V30 4150 C 408.788 -2.65106 -3.61141 0
M  V30 4151 C 410.532 -0.902476 -4.14796 0
M  V30 4152 C 408.439 -3.0671 -5.05651 0
M  V30 4153 H 407.369 -0.248057 -0.712028 0
M  V30 4154 H 410.02 -1.20891 -1.38049 0
M  V30 4155 H 408.402 -0.545658 -3.92223 0
M  V30 4156 H 409.576 -3.31274 -3.20304 0
M  V30 4157 H 407.891 -2.88142 -3.00605 0
M  V30 4158 H 410.488 -1.18895 -5.21314 0
M  V30 4159 H 410.831 0.161349 -4.15987 0
M  V30 4160 H 411.364 -1.47269 -3.69536 0
M  V30 4161 H 408.103 -4.12292 -5.09603 0
M  V30 4162 H 407.623 -2.45249 -5.47369 0
M  V30 4163 H 409.302 -2.9833 -5.74115 0
M  V30 4164 N 409.434 1.37368 -0.772513 0
M  V30 4165 C 410.683 1.98918 -0.333861 0
M  V30 4166 C 410.996 1.62017 1.09589 0
M  V30 4167 O 412.202 2.16676 1.63596 0
M  V30 4168 C 410.658 3.55735 -0.545971 0
M  V30 4169 C 410.266 4.01573 -1.98603 0
M  V30 4170 C 412.01 4.24156 -0.170979 0
M  V30 4171 C 409.917 5.51102 -2.1457 0
M  V30 4172 H 408.847 0.744214 -0.121085 0
M  V30 4173 H 411.498 1.56888 -0.95175 0
M  V30 4174 H 409.88 3.95748 0.141387 0
M  V30 4175 H 411.054 3.72803 -2.7084 0
M  V30 4176 H 409.369 3.45937 -2.31769 0
M  V30 4177 H 411.966 5.34024 -0.26878 0
M  V30 4178 H 412.309 4.06917 0.878855 0
M  V30 4179 H 412.842 3.89447 -0.810914 0
M  V30 4180 H 409.581 5.73268 -3.17875 0
M  V30 4181 H 409.101 5.81554 -1.46817 0
M  V30 4182 H 410.78 6.17083 -1.94468 0
M  V30 4183 N 410.912 0.523116 1.48665 0
M  V30 4184 C 412.323 0.0808997 1.86525 0
M  V30 4185 C 412.674 -1.33975 1.43336 0
M  V30 4186 O 411.799 -2.00221 0.821009 0
M  V30 4187 C 412.394 0.140037 3.3851 0
M  V30 4188 C 410.953 -0.246948 3.75589 0
M  V30 4189 C 410.1 0.502845 2.72703 0
M  V30 4190 H 413.051 0.734736 1.40667 0
M  V30 4191 H 413.072 -0.649945 3.74908 0
M  V30 4192 H 412.584 1.17412 3.69914 0
M  V30 4193 H 410.685 -1.28343 3.49798 0
M  V30 4194 H 410.798 0.0878859 4.79019 0
M  V30 4195 H 409.162 -0.0500581 2.54651 0
M  V30 4196 H 409.945 1.53743 3.0695 0
M  V30 4197 N 412.39 -1.55475 0.257931 0
M  V30 4198 C 413.636 -1.99502 -0.364266 0
M  V30 4199 C 413.969 -1.146 -1.56782 0
M  V30 4200 O 413.244 -0.211968 -1.93342 0
M  V30 4201 C 413.527 -3.51917 -0.763333 0
M  V30 4202 C 413.38 -4.4758 0.446371 0
M  V30 4203 C 414.699 -4.09742 -1.60623 0
M  V30 4204 H 411.818 -0.725277 -0.130929 0
M  V30 4205 H 414.46 -1.8653 0.361446 0
M  V30 4206 H 412.61 -3.63101 -1.38166 0
M  V30 4207 H 414.282 -4.48362 1.08487 0
M  V30 4208 H 412.525 -4.19947 1.08753 0
M  V30 4209 H 413.196 -5.51862 0.123645 0
M  V30 4210 H 415.672 -4.01727 -1.08418 0
M  V30 4211 H 414.548 -5.16631 -1.85429 0
M  V30 4212 H 414.809 -3.58889 -2.58169 0
M  V30 4213 N 413.868 0.0150385 -1.57593 0
M  V30 4214 C 414.831 0.995996 -2.06428 0
M  V30 4215 C 415.831 1.2818 -0.970903 0
M  V30 4216 O 417.021 1.22949 -1.23406 0
M  V30 4217 C 414.153 2.32506 -2.49307 0
M  V30 4218 H 415.346 0.573873 -2.94358 0
M  V30 4219 H 412.899 0.262186 -1.54085 0
M  V30 4220 H 413.634 2.79438 -1.64575 0
M  V30 4221 H 413.419 2.13087 -3.29145 0
M  V30 4222 H 414.909 3.02906 -2.87468 0
M  V30 4223 N 415.346 1.54954 0.287554 0
M  V30 4224 C 416.757 1.65732 0.859634 0
M  V30 4225 C 417.108 0.574767 1.87592 0
M  V30 4226 O 416.233 -0.286299 2.14498 0
M  V30 4227 C 416.828 3.00438 1.56597 0
M  V30 4228 C 415.387 3.13292 2.08627 0
M  V30 4229 C 414.534 2.61473 0.923416 0
M  V30 4230 H 417.485 1.5857 0.0642338 0
M  V30 4231 H 417.506 2.92613 2.43224 0
M  V30 4232 H 417.018 3.79207 0.826053 0
M  V30 4233 H 415.119 2.39268 2.85625 0
M  V30 4234 H 415.232 4.19647 2.31157 0
M  V30 4235 H 413.596 2.18264 1.31275 0
M  V30 4236 H 414.379 3.42733 0.197241 0
M  V30 4237 N 416.824 -0.551391 1.4764 0
M  V30 4238 C 417.754 -1.66757 1.63445 0
M  V30 4239 C 418.735 -1.63077 0.483742 0
M  V30 4240 O 419.92 -1.80607 0.71377 0
M  V30 4241 C 417.05 -3.05387 1.65396 0
M  V30 4242 C 416.004 -3.23918 2.79752 0
M  V30 4243 C 415.33 -4.63393 2.66779 0
M  V30 4244 C 416.63 -3.08735 4.21284 0
M  V30 4245 H 418.324 -1.53786 2.56886 0
M  V30 4246 H 415.87 -0.738415 1.23626 0
M  V30 4247 H 417.823 -3.83325 1.75043 0
M  V30 4248 H 416.547 -3.19332 0.685195 0
M  V30 4249 H 415.206 -2.48391 2.69625 0
M  V30 4250 H 414.854 -4.74144 1.67918 0
M  V30 4251 H 414.554 -4.7674 3.43501 0
M  V30 4252 H 416.078 -5.43458 2.78364 0
M  V30 4253 H 417.492 -3.76484 4.32357 0
M  V30 4254 H 415.889 -3.33588 4.98838 0
M  V30 4255 H 416.959 -2.0541 4.39243 0
M  V30 4256 N 418.302 -1.35869 -0.798587 0
M  V30 4257 C 419.249 -1.29446 -1.91082 0
M  V30 4258 C 420.219 -0.16487 -1.6528 0
M  V30 4259 O 421.404 -0.349888 -1.87564 0
M  V30 4260 C 418.544 -1.0804 -3.27752 0
M  V30 4261 C 417.657 -2.29993 -3.65687 0
M  V30 4262 C 416.792 -2.01673 -4.91428 0
M  V30 4263 C 415.831 -3.19636 -5.22015 0
M  V30 4264 N 414.968 -2.91039 -6.38937 0
M  V30 4265 H 419.808 -2.24553 -1.95907 0
M  V30 4266 H 417.345 -1.11615 -0.958148 0
M  V30 4267 H 419.303 -0.936586 -4.06551 0
M  V30 4268 H 417.933 -0.16592 -3.22373 0
M  V30 4269 H 416.985 -2.55211 -2.82085 0
M  V30 4270 H 418.297 -3.18052 -3.84245 0
M  V30 4271 H 417.451 -1.84168 -5.78072 0
M  V30 4272 H 416.19 -1.10911 -4.74921 0
M  V30 4273 H 415.195 -3.37709 -4.33858 0
M  V30 4274 H 416.42 -4.11211 -5.40447 0
M  V30 4275 H 414.366 -2.0288 -6.2384 0
M  V30 4276 H 414.283 -3.72635 -6.57784 0
M  V30 4277 H 415.551 -2.77093 -7.28587 0
M  V30 4278 N 419.78 1.02168 -1.19998 0
M  V30 4279 C 421.01 1.79036 -1.031 0
M  V30 4280 C 421.418 1.84409 0.423078 0
M  V30 4281 O 420.761 1.29228 1.30559 0
M  V30 4282 C 420.823 3.25185 -1.53281 0
M  V30 4283 C 420.487 3.43431 -3.01503 0
M  V30 4284 C 421.484 3.33063 -3.99206 0
M  V30 4285 C 419.169 3.69412 -3.40353 0
M  V30 4286 C 421.163 3.48413 -5.33748 0
M  V30 4287 C 418.85 3.84406 -4.75053 0
M  V30 4288 C 419.848 3.7391 -5.71559 0
M  V30 4289 O 419.536 3.88452 -7.03818 0
M  V30 4290 H 419.268 0.570043 -0.363355 0
M  V30 4291 H 421.822 1.29524 -1.59414 0
M  V30 4292 H 420.052 3.75756 -0.913483 0
M  V30 4293 H 421.741 3.83671 -1.32481 0
M  V30 4294 H 422.507 3.12934 -3.70537 0
M  V30 4295 H 418.386 3.76671 -2.65782 0
M  V30 4296 H 421.93 3.40137 -6.09059 0
M  V30 4297 H 417.827 4.04035 -5.03415 0
M  V30 4298 H 418.595 4.055 -7.10993 0
M  V30 4299 N 421.258 1.00505 1.21394 0
M  V30 4300 C 422.221 0.570459 2.21987 0
M  V30 4301 C 423.221 -0.353211 1.56873 0
M  V30 4302 O 424.411 -0.14349 1.73608 0
M  V30 4303 C 421.543 -0.168555 3.40483 0
M  V30 4304 H 422.736 1.46021 2.6195 0
M  V30 4305 H 420.289 0.793565 1.34656 0
M  V30 4306 H 421.024 -1.07374 3.06009 0
M  V30 4307 H 420.809 0.494823 3.88965 0
M  V30 4308 H 422.299 -0.460362 4.15055 0
M  V30 4309 N 422.737 -1.36956 0.779787 0
M  V30 4310 C 423.7 -2.2851 0.177662 0
M  V30 4311 C 424.7 -1.48393 -0.619377 0
M  V30 4312 O 425.89 -1.68505 -0.441785 0
M  V30 4313 C 423.022 -3.32428 -0.755279 0
M  V30 4314 H 424.215 -2.83269 0.984823 0
M  V30 4315 H 421.768 -1.46358 0.548544 0
M  V30 4316 H 422.503 -2.82808 -1.58714 0
M  V30 4317 H 422.288 -3.91659 -0.185817 0
M  V30 4318 H 423.778 -4.00824 -1.17174 0
M  V30 4319 N 424.215 -0.530993 -1.48385 0
M  V30 4320 C 425.125 0.23503 -2.3342 0
M  V30 4321 C 426.141 0.93801 -1.46552 0
M  V30 4322 O 427.317 0.912745 -1.7953 0
M  V30 4323 C 424.382 1.26778 -3.22689 0
M  V30 4324 C 423.443 0.575038 -4.25431 0
M  V30 4325 C 422.676 1.55858 -5.10435 0
M  V30 4326 O 422.899 2.79129 -4.97437 0
M  V30 4327 O 421.833 1.09742 -5.91811 0
M  V30 4328 H 425.659 -0.461794 -3.00169 0
M  V30 4329 H 423.244 -0.291903 -1.46521 0
M  V30 4330 H 425.126 1.86457 -3.77904 0
M  V30 4331 H 423.801 1.94699 -2.586 0
M  V30 4332 H 422.708 -0.0622782 -3.74048 0
M  V30 4333 H 424.041 -0.062253 -4.92161 0
M  V30 4334 N 425.693 1.55336 -0.266172 0
M  V30 4335 C 426.921 2.03801 0.356756 0
M  V30 4336 C 427.336 1.14485 1.50129 0
M  V30 4337 O 426.693 0.163121 1.8177 0
M  V30 4338 C 426.744 3.51455 0.846281 0
M  V30 4339 O 426.465 4.37371 -0.252663 0
M  V30 4340 C 427.966 4.15767 1.53794 0
M  V30 4341 H 425.186 0.665906 0.0825218 0
M  V30 4342 H 427.73 2.00636 -0.39566 0
M  V30 4343 H 425.885 3.55092 1.54881 0
M  V30 4344 H 426.299 5.24358 0.122173 0
M  V30 4345 H 427.773 5.20714 1.83198 0
M  V30 4346 H 428.25 3.63404 2.46646 0
M  V30 4347 H 428.856 4.16107 0.879488 0
M  V30 4348 N 427.171 -0.0066808 1.57599 0
M  V30 4349 C 428.399 -0.704087 1.94551 0
M  V30 4350 C 428.814 -1.67677 0.867746 0
M  V30 4351 O 428.171 -1.8185 -0.153925 0
M  V30 4352 C 428.222 -1.44177 3.31505 0
M  V30 4353 O 427.943 -0.508097 4.35144 0
M  V30 4354 C 429.444 -2.23429 3.82876 0
M  V30 4355 H 426.664 -0.196523 0.641576 0
M  V30 4356 H 429.208 0.042453 2.04456 0
M  V30 4357 H 427.363 -2.13999 3.22929 0
M  V30 4358 H 427.777 -1.02782 5.14331 0
M  V30 4359 H 429.251 -2.70552 4.8115 0
M  V30 4360 H 429.728 -3.05818 3.15233 0
M  V30 4361 H 430.334 -1.58636 3.94607 0
M  V30 4362 N 428.649 -1.55105 -0.279332 0
M  V30 4363 C 430.06 -1.66186 -0.850832 0
M  V30 4364 C 430.411 -0.584707 -1.87285 0
M  V30 4365 O 429.536 0.274919 -2.14647 0
M  V30 4366 C 430.131 -3.01264 -1.55001 0
M  V30 4367 C 428.69 -3.14394 -2.06963 0
M  V30 4368 C 427.837 -2.61959 -0.909536 0
M  V30 4369 H 430.788 -1.58602 -0.0558235 0
M  V30 4370 H 430.809 -2.93899 -2.41669 0
M  V30 4371 H 430.321 -3.7964 -0.805931 0
M  V30 4372 H 428.422 -2.4078 -2.84352 0
M  V30 4373 H 428.535 -4.20867 -2.28928 0
M  V30 4374 H 426.899 -2.18957 -1.30116 0
M  V30 4375 H 427.682 -3.42833 -0.179062 0
M  V30 4376 N 430.127 0.543554 -1.4793 0
M  V30 4377 C 431.057 1.65888 -1.64327 0
M  V30 4378 C 432.038 1.62818 -0.492383 0
M  V30 4379 O 433.223 1.80226 -0.723338 0
M  V30 4380 C 430.353 3.04506 -1.67013 0
M  V30 4381 C 429.307 3.2243 -2.81466 0
M  V30 4382 C 428.633 4.61972 -2.69233 0
M  V30 4383 C 429.933 3.06496 -4.22915 0
M  V30 4384 H 431.627 1.52421 -2.57698 0
M  V30 4385 H 429.173 0.731849 -1.24016 0
M  V30 4386 H 431.126 3.82391 -1.77074 0
M  V30 4387 H 429.85 3.18964 -0.70212 0
M  V30 4388 H 428.509 2.46957 -2.70938 0
M  V30 4389 H 428.157 4.73247 -1.7043 0
M  V30 4390 H 427.857 4.74911 -3.46025 0
M  V30 4391 H 429.381 5.41974 -2.81242 0
M  V30 4392 H 430.795 3.74186 -4.34348 0
M  V30 4393 H 429.192 3.30938 -5.006 0
M  V30 4394 H 430.262 2.03077 -4.40327 0
M  V30 4395 N 431.605 1.3629 0.791371 0
M  V30 4396 C 432.851 1.30605 1.55146 0
M  V30 4397 C 433.184 -0.115042 1.93859 0
M  V30 4398 O 432.459 -1.06798 1.62556 0
M  V30 4399 C 432.742 2.22692 2.82985 0
M  V30 4400 C 432.595 3.73489 2.50651 0
M  V30 4401 C 433.914 2.13588 3.84796 0
M  V30 4402 H 431.033 0.475761 0.562868 0
M  V30 4403 H 433.675 1.66825 0.909358 0
M  V30 4404 H 431.825 1.91933 3.37778 0
M  V30 4405 H 433.497 4.14758 2.01924 0
M  V30 4406 H 431.74 3.93021 1.83622 0
M  V30 4407 H 432.411 4.3333 3.41949 0
M  V30 4408 H 434.887 2.40659 3.39445 0
M  V30 4409 H 433.763 2.80195 4.71998 0
M  V30 4410 H 434.024 1.12256 4.27611 0
M  V30 4411 N 433.083 -1.0153 1.20538 0
M  V30 4412 C 434.494 -1.56598 1.01657 0
M  V30 4413 C 434.845 -1.91505 -0.426668 0
M  V30 4414 O 433.97 -1.72375 -1.30827 0
M  V30 4415 C 434.565 -2.84542 1.83905 0
M  V30 4416 C 433.124 -3.36133 1.69386 0
M  V30 4417 C 432.271 -2.09427 1.81757 0
M  V30 4418 H 435.222 -0.838974 1.34711 0
M  V30 4419 H 435.243 -3.56004 1.34319 0
M  V30 4420 H 434.755 -2.59105 2.8894 0
M  V30 4421 H 432.856 -3.66528 0.669933 0
M  V30 4422 H 432.969 -4.08248 2.50739 0
M  V30 4423 H 431.333 -2.21941 1.24957 0
M  V30 4424 H 432.116 -1.86414 2.88279 0
M  V30 4425 N 434.561 -1.01147 -1.20859 0
M  V30 4426 C 435.81 -0.693214 -1.89413 0
M  V30 4427 C 436.123 0.779969 -1.79376 0
M  V30 4428 O 437.329 1.21057 -2.43017 0
M  V30 4429 C 435.785 -1.18949 -3.39675 0
M  V30 4430 C 435.393 -2.68921 -3.58309 0
M  V30 4431 C 437.137 -0.94642 -4.13815 0
M  V30 4432 C 435.044 -3.12056 -5.0237 0
M  V30 4433 H 433.974 -0.255595 -0.709357 0
M  V30 4434 H 436.625 -1.22349 -1.36759 0
M  V30 4435 H 435.007 -0.587228 -3.91622 0
M  V30 4436 H 436.181 -3.34652 -3.16772 0
M  V30 4437 H 434.496 -2.91314 -2.97532 0
M  V30 4438 H 437.093 -1.24417 -5.20023 0
M  V30 4439 H 437.436 0.117219 -4.16135 0
M  V30 4440 H 437.969 -1.5118 -3.67953 0
M  V30 4441 H 434.708 -4.17674 -5.05202 0
M  V30 4442 H 434.228 -2.51041 -5.44737 0
M  V30 4443 H 435.907 -3.04403 -5.70918 0
M  V30 4444 N 436.039 1.36541 -0.78704 0
M  V30 4445 C 437.267 2.03561 -0.370199 0
M  V30 4446 C 437.682 1.59347 1.01263 0
M  V30 4447 O 437.039 0.781781 1.64907 0
M  V30 4448 C 437.09 3.59033 -0.421614 0
M  V30 4449 O 436.811 4.01634 -1.7499 0
M  V30 4450 C 438.312 4.433 0.00489763 0
M  V30 4451 H 435.532 0.653346 -0.152904 0
M  V30 4452 H 438.076 1.74566 -1.06522 0
M  V30 4453 H 436.231 3.86746 0.224971 0
M  V30 4454 H 436.645 4.96217 -1.69909 0
M  V30 4455 H 438.119 5.51939 -0.0822184 0
M  V30 4456 H 438.596 4.26285 1.05723 0
M  V30 4457 H 439.202 4.20843 -0.614085 0
M  V30 4458 N 437.518 0.538854 1.48102 0
M  V30 4459 C 438.764 0.00801365 2.02798 0
M  V30 4460 C 439.097 -1.3309 1.41424 0
M  V30 4461 O 438.372 -1.86169 0.563158 0
M  V30 4462 C 438.655 -0.104589 3.59948 0
M  V30 4463 C 438.508 1.26012 4.31788 0
M  V30 4464 C 439.827 -0.827055 4.32259 0
M  V30 4465 H 436.946 0.00438624 0.736987 0
M  V30 4466 H 439.588 0.6976 1.7673 0
M  V30 4467 H 437.738 -0.691893 3.82289 0
M  V30 4468 H 439.41 1.88922 4.2084 0
M  V30 4469 H 437.653 1.83968 3.92859 0
M  V30 4470 H 438.324 1.13424 5.40221 0
M  V30 4471 H 440.8 -0.328578 4.14801 0
M  V30 4472 H 439.676 -0.87476 5.41885 0
M  V30 4473 H 439.937 -1.87927 4.0017 0
M  V30 4474 N 438.996 -1.55193 0.274407 0
M  V30 4475 C 440.224 -2.03987 -0.345943 0
M  V30 4476 C 440.639 -1.15279 -1.4952 0
M  V30 4477 O 439.996 -0.172759 -1.8168 0
M  V30 4478 C 440.047 -3.51898 -0.827631 0
M  V30 4479 O 439.768 -4.37231 0.275855 0
M  V30 4480 C 441.269 -4.16577 -1.51587 0
M  V30 4481 H 438.489 -0.666335 -0.0789892 0
M  V30 4482 H 441.033 -2.00423 0.406294 0
M  V30 4483 H 439.188 -3.55909 -1.52996 0
M  V30 4484 H 439.602 -5.24415 -0.0943638 0
M  V30 4485 H 441.076 -5.21678 -1.80433 0
M  V30 4486 H 441.553 -3.64707 -2.44716 0
M  V30 4487 H 442.159 -4.16568 -0.857409 0
M  V30 4488 N 440.474 -0.00167713 -1.576 0
M  V30 4489 C 441.723 0.682021 -1.89819 0
M  V30 4490 C 442.036 1.74844 -0.876871 0
M  V30 4491 O 443.242 2.48688 -1.08934 0
M  V30 4492 C 441.698 1.26425 -3.36964 0
M  V30 4493 C 441.306 0.232568 -4.47396 0
M  V30 4494 C 443.05 1.92604 -3.78291 0
M  V30 4495 C 440.957 0.824882 -5.85619 0
M  V30 4496 H 439.887 0.258499 -0.708304 0
M  V30 4497 H 442.538 -0.0624957 -1.83394 0
M  V30 4498 H 440.92 2.05949 -3.38232 0
M  V30 4499 H 442.094 -0.5382 -4.57646 0
M  V30 4500 H 440.409 -0.32888 -4.15099 0
M  V30 4501 H 443.006 2.37827 -4.78897 0
M  V30 4502 H 443.349 2.75732 -3.11894 0
M  V30 4503 H 443.882 1.19812 -3.79328 0
M  V30 4504 H 440.621 0.0323542 -6.55492 0
M  V30 4505 H 440.141 1.56477 -5.79029 0
M  V30 4506 H 441.82 1.32301 -6.33329 0
M  V30 4507 N 441.952 1.55251 0.271103 0
M  V30 4508 C 442.915 1.87484 1.31842 0
M  V30 4509 C 443.915 0.749545 1.42262 0
M  V30 4510 O 445.105 1.01771 1.4138 0
M  V30 4511 C 442.237 2.0818 2.69951 0
M  V30 4512 H 443.43 2.81108 1.0449 0
M  V30 4513 H 440.983 1.47771 0.509258 0
M  V30 4514 H 441.718 1.16944 3.02481 0
M  V30 4515 H 441.503 2.90114 2.63774 0
M  V30 4516 H 442.993 2.34385 3.4562 0
M  V30 4517 N 443.43 -0.535701 1.48216 0
M  V30 4518 C 444.841 -1.11769 1.49548 0
M  V30 4519 C 445.192 -1.94442 0.26207 0
M  V30 4520 O 444.317 -2.06987 -0.631287 0
M  V30 4521 C 444.912 -2.03367 2.70975 0
M  V30 4522 C 443.471 -2.56795 2.75196 0
M  V30 4523 C 442.618 -1.33631 2.42977 0
M  V30 4524 H 445.569 -0.321232 1.55415 0
M  V30 4525 H 445.59 -2.87569 2.49167 0
M  V30 4526 H 445.102 -1.43169 3.60727 0
M  V30 4527 H 443.203 -3.20731 1.89638 0
M  V30 4528 H 443.316 -2.9632 3.76472 0
M  V30 4529 H 441.68 -1.6502 1.94012 0
M  V30 4530 H 442.463 -0.75194 3.34964 0
M  V30 4531 N 444.908 -1.36708 -0.784132 0
M  V30 4532 C 445.841 -1.25827 -1.90375 0
M  V30 4533 C 446.819 -0.141331 -1.61985 0
M  V30 4534 O 448.003 -0.313389 -1.85877 0
M  V30 4535 C 445.13 -0.942621 -3.25319 0
M  V30 4536 C 444.176 -2.07474 -3.72635 0
M  V30 4537 S 445.009 -3.69317 -3.8777 0
M  V30 4538 C 446.165 -3.39876 -5.25581 0
M  V30 4539 H 446.398 -2.20593 -1.99314 0
M  V30 4540 H 443.931 -1.22186 -0.943926 0
M  V30 4541 H 445.889 -0.767321 -4.03265 0
M  V30 4542 H 444.55 -0.0126566 -3.14097 0
M  V30 4543 H 443.743 -1.80858 -4.70432 0
M  V30 4544 H 443.345 -2.20953 -3.01754 0
M  V30 4545 H 445.637 -2.94097 -6.10339 0
M  V30 4546 H 446.58 -4.36956 -5.57203 0
M  V30 4547 H 446.988 -2.75098 -4.92931 0
M  V30 4548 N 446.386 1.0089 -1.21074 0
M  V30 4549 C 447.296 2.13039 -0.982425 0
M  V30 4550 C 448.312 1.73881 0.0642161 0
M  V30 4551 O 449.488 2.01012 -0.12496 0
M  V30 4552 C 446.553 3.42377 -0.545803 0
M  V30 4553 C 445.614 3.95731 -1.6642 0
M  V30 4554 C 444.847 5.18896 -1.24832 0
M  V30 4555 O 445.07 5.70273 -0.120265 0
M  V30 4556 O 444.004 5.65597 -2.05873 0
M  V30 4557 H 447.83 2.35175 -1.92163 0
M  V30 4558 H 445.415 1.1142 -0.995285 0
M  V30 4559 H 447.297 4.20244 -0.311912 0
M  V30 4560 H 445.972 3.21639 0.364727 0
M  V30 4561 H 444.879 3.19108 -1.95246 0
M  V30 4562 H 446.212 4.20872 -2.55201 0
M  V30 4563 N 447.864 1.01787 1.20321 0
M  V30 4564 C 449.092 0.727194 1.937 0
M  V30 4565 C 449.507 -0.712305 1.74848 0
M  V30 4566 O 448.864 -1.48327 1.06327 0
M  V30 4567 C 448.915 1.05497 3.45764 0
M  V30 4568 O 448.636 2.43794 3.64 0
M  V30 4569 C 450.137 0.785534 4.36285 0
M  V30 4570 H 447.357 0.266939 0.615617 0
M  V30 4571 H 449.901 1.35939 1.52777 0
M  V30 4572 H 448.056 0.468158 3.84561 0
M  V30 4573 H 448.47 2.55656 4.57974 0
M  V30 4574 H 449.944 1.06495 5.4163 0
M  V30 4575 H 450.421 -0.280273 4.38305 0
M  V30 4576 H 451.027 1.35456 4.03152 0
M  V30 4577 N 449.342 -1.36122 0.79427 0
M  V30 4578 C 450.252 -2.33769 0.197296 0
M  V30 4579 C 451.268 -1.61276 -0.653153 0
M  V30 4580 O 452.444 -1.9323 -0.5678 0
M  V30 4581 C 449.509 -3.40474 -0.654098 0
M  V30 4582 C 448.57 -4.28759 0.215411 0
M  V30 4583 C 447.803 -5.30368 -0.595443 0
M  V30 4584 O 448.026 -5.40211 -1.83107 0
M  V30 4585 O 446.96 -6.019 0.00721351 0
M  V30 4586 H 450.786 -2.86597 1.00478 0
M  V30 4587 H 448.371 -1.38676 0.555818 0
M  V30 4588 H 450.253 -4.05703 -1.13944 0
M  V30 4589 H 448.928 -2.89937 -1.43938 0
M  V30 4590 H 447.835 -3.66554 0.747615 0
M  V30 4591 H 449.168 -4.82661 0.964332 0
M  V30 4592 N 450.82 -0.546701 -1.47814 0
M  V30 4593 C 452.05 -0.0232519 -2.06587 0
M  V30 4594 C 452.458 1.2712 -1.40133 0
M  V30 4595 O 451.801 1.77091 -0.488305 0
M  V30 4596 C 451.863 0.254117 -3.58601 0
M  V30 4597 C 451.527 -0.949331 -4.47031 0
M  V30 4598 C 452.524 -1.85216 -4.85789 0
M  V30 4599 C 450.209 -1.16104 -4.88697 0
M  V30 4600 C 452.203 -2.95047 -5.65001 0
M  V30 4601 C 449.89 -2.26247 -5.67676 0
M  V30 4602 C 450.888 -3.1555 -6.05737 0
M  V30 4603 O 450.576 -4.23784 -6.83127 0
M  V30 4604 H 450.308 -0.0380082 -0.674931 0
M  V30 4605 H 452.862 -0.756631 -1.90956 0
M  V30 4606 H 451.092 1.04168 -3.72406 0
M  V30 4607 H 452.781 0.72167 -3.99433 0
M  V30 4608 H 453.547 -1.70061 -4.54207 0
M  V30 4609 H 449.426 -0.475159 -4.58545 0
M  V30 4610 H 452.97 -3.64778 -5.94628 0
M  V30 4611 H 448.867 -2.41379 -5.98671 0
M  V30 4612 H 449.635 -4.21701 -7.01506 0
M  V30 4613 N 452.299 1.55045 -0.282633 0
M  V30 4614 C 453.247 2.24254 0.617478 0
M  V30 4615 C 454.241 1.24215 1.15183 0
M  V30 4616 O 455.447 1.42123 1.10459 0
M  V30 4617 H 451.822 0.719801 0.217693 0
M  V30 4618 H 453.793 2.98398 0.0110076 0
M  V30 4619 C 452.542 2.98281 1.78672 0
M  V30 4620 H 451.865 3.75053 1.38475 0
M  V30 4621 H 453.305 3.50017 2.393 0
M  V30 4622 C 451.764 2.04184 2.67975 0
M  V30 4623 O 452.294 1.59792 3.6855 0
M  V30 4624 N 450.5 1.70526 2.35307 0
M  V30 4625 H 450.047 2.06821 1.53567 0
M  V30 4626 H 450.005 1.07839 2.95327 0
M  V30 4627 N 453.777 0.010035 1.57597 0
M  V30 4628 C 455.025 -0.671371 1.90623 0
M  V30 4629 C 455.346 -1.73753 0.885151 0
M  V30 4630 O 454.616 -1.95752 -0.0760611 0
M  V30 4631 H 453.196 -0.250968 0.703579 0
M  V30 4632 H 455.858 0.0533325 1.94827 0
M  V30 4633 H 454.954 -1.13626 2.90681 0
M  V30 4634 N 455.255 -1.55392 -0.262866 0
M  V30 4635 C 456.185 -1.91978 -1.32917 0
M  V30 4636 C 457.166 -0.7828 -1.51017 0
M  V30 4637 O 458.351 -1.04178 -1.63892 0
M  V30 4638 C 455.481 -2.20055 -2.68687 0
M  V30 4639 C 454.435 -3.35854 -2.65304 0
M  V30 4640 C 453.761 -3.49435 -4.04721 0
M  V30 4641 C 455.061 -4.71977 -2.23685 0
M  V30 4642 H 456.755 -2.81292 -1.02544 0
M  V30 4643 H 454.301 -1.3534 -0.491846 0
M  V30 4644 H 456.254 -2.44237 -3.43404 0
M  V30 4645 H 454.978 -1.27551 -3.00663 0
M  V30 4646 H 453.637 -3.11655 -1.93045 0
M  V30 4647 H 453.285 -2.54379 -4.33936 0
M  V30 4648 H 452.985 -4.27297 -4.0335 0
M  V30 4649 H 454.509 -3.7592 -4.81161 0
M  V30 4650 H 455.923 -4.95637 -2.88127 0
M  V30 4651 H 454.32 -5.52828 -2.33456 0
M  V30 4652 H 455.39 -4.70115 -1.18827 0
M  V30 4653 N 456.733 0.527833 -1.48498 0
M  V30 4654 C 458.149 0.856571 -1.34666 0
M  V30 4655 C 458.349 1.98271 -0.35931 0
M  V30 4656 O 457.405 2.51551 0.218703 0
M  V30 4657 C 458.718 1.22207 -2.74747 0
M  V30 4658 C 460.266 1.33183 -2.83251 0
M  V30 4659 C 460.741 1.73075 -4.24039 0
M  V30 4660 N 462.232 1.80174 -4.26722 0
M  V30 4661 C 462.967 2.1243 -5.32598 0
M  V30 4662 N 462.463 2.43096 -6.4875 0
M  V30 4663 N 464.256 2.13454 -5.19994 0
M  V30 4664 H 456.407 -0.215174 -2.11307 0
M  V30 4665 H 458.67 -0.0336281 -0.947403 0
M  V30 4666 H 458.376 0.468195 -3.4857 0
M  V30 4667 H 458.25 2.17173 -3.08409 0
M  V30 4668 H 460.637 2.07647 -2.09683 0
M  V30 4669 H 460.718 0.363333 -2.53206 0
M  V30 4670 H 460.362 0.991712 -4.98124 0
M  V30 4671 H 460.292 2.70979 -4.51529 0
M  V30 4672 H 462.783 1.58744 -3.42942 0
M  V30 4673 H 463.096 2.6682 -7.25277 0
M  V30 4674 H 461.441 2.40611 -6.52021 0
M  V30 4675 H 464.632 1.88956 -4.28268 0
M  V30 4676 H 464.805 2.38261 -6.02608 0
M  V30 4677 N 458.211 1.37122 0.776871 0
M  V30 4678 C 459.627 1.1781 1.07671 0
M  V30 4679 C 459.827 0.0107454 2.01497 0
M  V30 4680 O 458.883 -0.650756 2.4397 0
M  V30 4681 C 460.196 2.49451 1.67913 0
M  V30 4682 C 461.744 2.55927 1.80195 0
M  V30 4683 C 462.219 3.87686 2.43851 0
M  V30 4684 N 463.71 3.891 2.51307 0
M  V30 4685 C 464.445 4.87797 3.014 0
M  V30 4686 N 463.941 5.96888 3.51705 0
M  V30 4687 N 465.734 4.75205 3.00227 0
M  V30 4688 H 457.885 2.11843 0.153778 0
M  V30 4689 H 460.148 0.938927 0.130844 0
M  V30 4690 H 459.854 3.35207 1.06439 0
M  V30 4691 H 459.728 2.66169 2.67271 0
M  V30 4692 H 462.115 1.70582 2.40803 0
M  V30 4693 H 462.196 2.43097 0.796069 0
M  V30 4694 H 461.84 4.73444 1.83884 0
M  V30 4695 H 461.77 3.97817 3.45035 0
M  V30 4696 H 464.261 3.10293 2.157 0
M  V30 4697 H 464.574 6.68155 3.88316 0
M  V30 4698 H 462.919 6.0054 3.49824 0
M  V30 4699 H 466.11 3.89103 2.60224 0
M  V30 4700 H 466.283 5.52279 3.38957 0
M  V30 4701 N 459.689 -1.00246 1.21608 0
M  V30 4702 C 460.652 -2.07233 0.979133 0
M  V30 4703 C 461.652 -1.6072 -0.0508219 0
M  V30 4704 O 462.842 -1.73196 0.186712 0
M  V30 4705 C 459.974 -3.37546 0.477016 0
M  V30 4706 H 461.167 -2.29687 1.92831 0
M  V30 4707 H 458.72 -1.17261 1.03342 0
M  V30 4708 H 459.455 -3.20773 -0.476966 0
M  V30 4709 H 459.24 -3.72638 1.21997 0
M  V30 4710 H 460.73 -4.16285 0.331181 0
M  V30 4711 N 461.167 -1.02423 -1.1978 0
M  V30 4712 C 462.416 -0.713265 -1.88667 0
M  V30 4713 C 462.729 0.7609 -1.80193 0
M  V30 4714 O 463.935 1.18473 -2.44288 0
M  V30 4715 C 462.391 -1.22545 -3.38394 0
M  V30 4716 C 461.999 -2.72706 -3.55437 0
M  V30 4717 C 463.743 -0.990257 -4.12788 0
M  V30 4718 C 461.65 -3.17367 -4.99031 0
M  V30 4719 H 460.58 -0.263105 -0.706606 0
M  V30 4720 H 463.231 -1.23792 -1.35454 0
M  V30 4721 H 461.613 -0.628732 -3.90977 0
M  V30 4722 H 462.787 -3.37993 -3.13205 0
M  V30 4723 H 461.102 -2.94453 -2.94425 0
M  V30 4724 H 463.699 -1.29926 -5.18675 0
M  V30 4725 H 464.042 0.0730761 -4.16236 0
M  V30 4726 H 464.575 -1.55074 -3.66329 0
M  V30 4727 H 461.314 -4.23009 -5.00743 0
M  V30 4728 H 460.834 -2.56805 -5.42044 0
M  V30 4729 H 462.513 -3.10441 -5.67658 0
M  V30 4730 N 462.645 1.35699 -0.801477 0
M  V30 4731 C 463.608 2.28199 -0.213994 0
M  V30 4732 C 464.608 1.49359 0.595691 0
M  V30 4733 O 465.798 1.69186 0.414921 0
M  V30 4734 C 462.93 3.33587 0.702297 0
M  V30 4735 H 464.123 2.81666 -1.02976 0
M  V30 4736 H 461.676 1.45467 -0.571759 0
M  V30 4737 H 462.411 2.85297 1.54195 0
M  V30 4738 H 462.196 3.91906 0.123484 0
M  V30 4739 H 463.686 4.02638 1.10783 0
M  V30 4740 N 464.123 0.554532 1.47522 0
M  V30 4741 C 465.348 0.0322661 2.07375 0
M  V30 4742 C 465.773 -1.25079 1.40488 0
M  V30 4743 O 465.131 -1.74859 0.47896 0
M  V30 4744 C 465.179 -0.149397 3.6029 0
M  V30 4745 O 464.283 -1.21259 3.9417 0
M  V30 4746 H 463.624 0.0501228 0.662106 0
M  V30 4747 H 466.154 0.769452 1.8958 0
M  V30 4748 H 466.164 -0.364437 4.06369 0
M  V30 4749 H 464.839 0.787743 4.08372 0
M  V30 4750 H 463.416 -0.97825 3.5984 0
M  V30 4751 N 465.601 -1.54893 0.290851 0
M  V30 4752 C 466.549 -2.24579 -0.605576 0
M  V30 4753 C 467.543 -1.24824 -1.14522 0
M  V30 4754 O 468.749 -1.42706 -1.09704 0
M  V30 4755 H 465.124 -0.720946 -0.213872 0
M  V30 4756 H 467.095 -2.984 0.0048173 0
M  V30 4757 C 465.844 -2.99224 -1.77088 0
M  V30 4758 H 465.167 -3.75782 -1.36484 0
M  V30 4759 H 466.607 -3.51281 -2.3744 0
M  V30 4760 C 465.066 -2.05602 -2.66888 0
M  V30 4761 O 465.596 -1.61745 -3.67698 0
M  V30 4762 N 463.802 -1.71771 -2.34399 0
M  V30 4763 H 463.349 -2.07633 -1.52468 0
M  V30 4764 H 463.307 -1.09403 -2.94751 0
M  V30 4765 N 467.08 -0.0183926 -1.57589 0
M  V30 4766 C 468.012 0.995557 -2.06449 0
M  V30 4767 C 469.025 1.29556 -0.985849 0
M  V30 4768 O 470.214 1.2621 -1.26227 0
M  V30 4769 C 467.314 2.32572 -2.46502 0
M  V30 4770 C 466.487 2.21245 -3.77319 0
M  V30 4771 C 465.546 3.37104 -4.04039 0
M  V30 4772 O 464.572 3.14468 -4.74445 0
M  V30 4773 N 465.774 4.60553 -3.53372 0
M  V30 4774 H 468.539 0.578746 -2.94059 0
M  V30 4775 H 466.1 0.168603 -1.6102 0
M  V30 4776 H 468.092 3.08887 -2.61478 0
M  V30 4777 H 466.662 2.65931 -1.64315 0
M  V30 4778 H 465.882 1.29723 -3.72244 0
M  V30 4779 H 467.17 2.10868 -4.63047 0
M  V30 4780 H 466.568 4.81839 -2.96391 0
M  V30 4781 H 465.125 5.34072 -3.73644 0
M  V30 4782 N 468.558 1.5553 0.254621 0
M  V30 4783 C 469.806 1.7665 0.981793 0
M  V30 4784 C 470.127 0.580963 1.86145 0
M  V30 4785 O 469.397 -0.403537 1.91699 0
M  V30 4786 H 467.977 0.651475 0.365498 0
M  V30 4787 H 470.639 1.92958 0.274426 0
M  V30 4788 H 469.735 2.67486 1.60802 0
M  V30 4789 N 470.036 -0.519951 1.48776 0
M  V30 4790 C 470.966 -1.63253 1.66945 0
M  V30 4791 C 471.947 -1.62014 0.518224 0
M  V30 4792 O 473.132 -1.79053 0.751919 0
M  V30 4793 C 470.262 -3.0181 1.71836 0
M  V30 4794 C 469.216 -3.17911 2.8656 0
M  V30 4795 C 468.542 -4.5763 2.76548 0
M  V30 4796 C 469.842 -2.99729 4.27738 0
M  V30 4797 H 471.536 -1.48302 2.6009 0
M  V30 4798 H 469.082 -0.712026 1.25165 0
M  V30 4799 H 471.035 -3.79525 1.83135 0
M  V30 4800 H 469.759 -3.17806 0.752775 0
M  V30 4801 H 468.418 -2.42616 2.74833 0
M  V30 4802 H 468.066 -4.70476 1.77937 0
M  V30 4803 H 467.766 -4.69346 3.53536 0
M  V30 4804 H 469.29 -5.37431 2.89828 0
M  V30 4805 H 470.704 -3.67228 4.40246 0
M  V30 4806 H 469.101 -3.22932 5.05801 0
M  V30 4807 H 470.171 -1.96047 4.43502 0
M  V30 4808 N 471.514 -1.37532 -0.769588 0
M  V30 4809 C 472.925 -1.29382 -1.346 0
M  V30 4810 C 473.276 0.0576039 -1.96115 0
M  V30 4811 O 472.401 0.95947 -1.93967 0
M  V30 4812 C 472.996 -2.34298 -2.44724 0
M  V30 4813 C 471.555 -2.29776 -2.98128 0
M  V30 4814 C 470.702 -2.18013 -1.71364 0
M  V30 4815 H 473.653 -1.48123 -0.56968 0
M  V30 4816 H 473.674 -1.99089 -3.24259 0
M  V30 4817 H 473.186 -3.32645 -1.99922 0
M  V30 4818 H 471.287 -1.34959 -3.47299 0
M  V30 4819 H 471.4 -3.23276 -3.53595 0
M  V30 4820 H 469.764 -1.64595 -1.94372 0
M  V30 4821 H 470.547 -3.18278 -1.28662 0
M  V30 4822 N 472.992 0.995999 -1.22138 0
M  V30 4823 C 474.22 1.77066 -1.07029 0
M  V30 4824 C 474.635 1.8495 0.379357 0
M  V30 4825 O 473.992 1.3174 1.26297 0
M  V30 4826 C 474.043 3.20533 -1.67155 0
M  V30 4827 O 473.764 3.13082 -3.06449 0
M  V30 4828 C 475.265 4.14461 -1.5728 0
M  V30 4829 H 472.485 0.556179 -0.375374 0
M  V30 4830 H 475.029 1.25238 -1.61666 0
M  V30 4831 H 473.184 3.6944 -1.16589 0
M  V30 4832 H 473.598 4.03283 -3.35355 0
M  V30 4833 H 475.072 5.1289 -2.04078 0
M  V30 4834 H 475.549 4.36005 -0.528795 0
M  V30 4835 H 476.155 3.71449 -2.07136 0
M  V30 4836 N 474.47 1.03057 1.19235 0
M  V30 4837 C 475.417 0.612832 2.22515 0
M  V30 4838 C 476.387 -0.374224 1.61829 0
M  V30 4839 O 477.572 -0.270501 1.88873 0
M  V30 4840 C 474.712 -0.028475 3.45088 0
M  V30 4841 C 473.825 1.00483 4.20151 0
M  V30 4842 C 472.96 0.333102 5.30155 0
M  V30 4843 C 471.999 1.3522 5.96977 0
M  V30 4844 N 471.136 0.70616 6.9854 0
M  V30 4845 H 475.976 1.49812 2.57605 0
M  V30 4846 H 473.513 0.749658 1.26564 0
M  V30 4847 H 475.471 -0.417548 4.15105 0
M  V30 4848 H 474.101 -0.877334 3.10649 0
M  V30 4849 H 473.153 1.51194 3.49062 0
M  V30 4850 H 474.465 1.77929 4.65986 0
M  V30 4851 H 473.619 -0.110725 6.06599 0
M  V30 4852 H 472.358 -0.473547 4.85396 0
M  V30 4853 H 471.363 1.80627 5.19282 0
M  V30 4854 H 472.588 2.16037 6.4382 0
M  V30 4855 H 470.534 -0.0803667 6.55951 0
M  V30 4856 H 470.451 1.41848 7.42573 0
M  V30 4857 H 471.719 0.286391 7.78974 0
M  V30 4858 N 475.948 -1.35272 0.808662 0
M  V30 4859 C 477.359 -1.81179 0.450688 0
M  V30 4860 C 477.71 -1.67143 -1.02751 0
M  V30 4861 O 476.835 -1.20325 -1.79864 0
M  V30 4862 C 477.43 -3.28943 0.811275 0
M  V30 4863 C 475.989 -3.72985 0.505871 0
M  V30 4864 C 475.136 -2.57229 1.03578 0
M  V30 4865 H 478.087 -1.2322 1.00012 0
M  V30 4866 H 478.108 -3.80342 0.109588 0
M  V30 4867 H 477.62 -3.39127 1.88718 0
M  V30 4868 H 475.721 -3.68349 -0.561209 0
M  V30 4869 H 475.834 -4.67677 1.03995 0
M  V30 4870 H 474.198 -2.50548 0.458005 0
M  V30 4871 H 474.981 -2.7019 2.11784 0
M  V30 4872 N 477.426 -0.562348 -1.47226 0
M  V30 4873 C 478.674 -0.0401371 -2.0206 0
M  V30 4874 C 478.995 1.3165 -1.43852 0
M  V30 4875 O 478.265 1.85976 -0.615599 0
M  V30 4876 H 476.845 -0.0118479 -0.746906 0
M  V30 4877 H 479.507 -0.73352 -1.8057 0
M  V30 4878 H 478.603 0.0441254 -3.12069 0
M  V30 4879 N 478.904 1.54736 -0.299062 0
M  V30 4880 C 480.315 1.8569 0.193971 0
M  V30 4881 C 480.666 1.22101 1.53577 0
M  V30 4882 O 479.791 0.51799 2.10109 0
M  V30 4883 C 480.386 3.36895 0.358733 0
M  V30 4884 C 478.945 3.67887 0.795986 0
M  V30 4885 C 478.092 2.77131 -0.096807 0
M  V30 4886 H 481.043 1.49934 -0.520134 0
M  V30 4887 H 481.064 3.61294 1.19361 0
M  V30 4888 H 480.576 3.83148 -0.617998 0
M  V30 4889 H 478.677 3.27151 1.78334 0
M  V30 4890 H 478.79 4.75114 0.616718 0
M  V30 4891 H 477.154 2.51153 0.423581 0
M  V30 4892 H 477.937 3.26204 -1.06986 0
M  V30 4893 N 480.382 0.0267497 1.57577 0
M  V30 4894 C 481.63 -0.651116 1.91324 0
M  V30 4895 C 481.951 -1.72804 0.90353 0
M  V30 4896 O 481.221 -1.95822 -0.0552946 0
M  V30 4897 H 479.801 -0.243491 0.706202 0
M  V30 4898 H 482.463 0.0739935 1.94759 0
M  V30 4899 H 481.559 -1.10536 2.9187 0
M  V30 4900 N 481.861 -1.55662 -0.24637 0
M  V30 4901 C 483.086 -1.81914 -0.996093 0
M  V30 4902 C 483.511 -0.603875 -1.78143 0
M  V30 4903 O 482.869 0.447091 -1.75701 0
M  V30 4904 C 482.917 -3.05908 -1.90925 0
M  V30 4905 O 482.021 -2.82861 -3.00105 0
M  V30 4906 H 481.362 -0.600481 -0.283406 0
M  V30 4907 H 483.892 -2.02848 -0.267199 0
M  V30 4908 H 483.902 -3.35356 -2.3238 0
M  V30 4909 H 482.577 -3.93999 -1.33183 0
M  V30 4910 H 481.154 -2.64583 -2.62775 0
M  V30 4911 N 483.339 0.512053 -1.4905 0
M  V30 4912 C 484.569 1.28928 -1.61434 0
M  V30 4913 C 484.977 1.87107 -0.280647 0
M  V30 4914 O 484.32 1.68024 0.742537 0
M  V30 4915 C 484.382 2.466 -2.61588 0
M  V30 4916 C 484.046 2.09375 -4.06216 0
M  V30 4917 C 485.043 1.63994 -4.93358 0
M  V30 4918 C 482.728 2.19348 -4.51876 0
M  V30 4919 C 484.722 1.29076 -6.24194 0
M  V30 4920 C 482.409 1.84041 -5.82728 0
M  V30 4921 C 483.407 1.38978 -6.68711 0
M  V30 4922 O 483.095 1.04144 -7.97126 0
M  V30 4923 H 482.827 0.397668 -0.546659 0
M  V30 4924 H 485.381 0.622507 -1.9574 0
M  V30 4925 H 483.611 3.16318 -2.22441 0
M  V30 4926 H 485.3 3.08642 -2.63619 0
M  V30 4927 H 486.066 1.55744 -4.59313 0
M  V30 4928 H 481.945 2.53376 -3.85125 0
M  V30 4929 H 485.489 0.938303 -6.91261 0
M  V30 4930 H 481.386 1.91938 -6.16304 0
M  V30 4931 H 482.154 1.17387 -8.10039 0
M  V30 4932 N 484.817 1.37938 0.762283 0
M  V30 4933 C 485.749 1.30349 1.88525 0
M  V30 4934 C 486.762 0.217402 1.61342 0
M  V30 4935 O 487.951 0.474291 1.72084 0
M  V30 4936 C 485.051 0.994844 3.23969 0
M  V30 4937 C 484.224 2.18829 3.78725 0
M  V30 4938 C 483.283 1.84844 4.92665 0
M  V30 4939 O 482.309 2.57244 5.07754 0
M  V30 4940 N 483.511 0.798201 5.74986 0
M  V30 4941 H 486.276 2.27114 1.95549 0
M  V30 4942 H 483.837 1.31686 0.941825 0
M  V30 4943 H 485.829 0.748168 3.97724 0
M  V30 4944 H 484.399 0.115446 3.12387 0
M  V30 4945 H 483.619 2.59615 2.96637 0
M  V30 4946 H 484.907 2.98497 4.1204 0
M  V30 4947 H 484.305 0.197611 5.65355 0
M  V30 4948 H 482.862 0.611396 6.48926 0
M  V30 4949 N 486.295 -0.989507 1.22664 0
M  V30 4950 C 487.542 -1.72953 1.05325 0
M  V30 4951 C 487.87 -1.90104 -0.411168 0
M  V30 4952 O 487.125 -1.44386 -1.32103 0
M  V30 4953 C 487.424 -3.13649 1.71345 0
M  V30 4954 C 487.09 -3.16403 3.21248 0
M  V30 4955 C 485.752 -3.16862 3.62149 0
M  V30 4956 C 488.104 -3.12428 4.17179 0
M  V30 4957 C 485.432 -3.11051 4.97458 0
M  V30 4958 C 487.784 -3.08159 5.52468 0
M  V30 4959 C 486.448 -3.06935 5.92746 0
M  V30 4960 H 485.718 -0.632881 0.385412 0
M  V30 4961 H 488.365 -1.15863 1.52473 0
M  V30 4962 H 486.67 -3.74069 1.16532 0
M  V30 4963 H 488.367 -3.69658 1.55416 0
M  V30 4964 H 484.957 -3.16798 2.88682 0
M  V30 4965 H 489.141 -3.11221 3.86595 0
M  V30 4966 H 484.397 -3.0845 5.27891 0
M  V30 4967 H 488.571 -3.04039 6.26525 0
M  V30 4968 H 486.198 -3.02186 6.97558 0
M  V30 4969 N 487.773 -1.03688 -1.18687 0
M  V30 4970 C 488.706 -0.569112 -2.2099 0
M  V30 4971 C 489.684 0.394315 -1.57746 0
M  V30 4972 O 490.868 0.309519 -1.85941 0
M  V30 4973 C 487.995 0.169104 -3.38278 0
M  V30 4974 C 487.041 -0.746989 -4.19908 0
M  V30 4975 S 487.874 -2.22773 -4.86963 0
M  V30 4976 C 489.03 -1.50025 -6.07654 0
M  V30 4977 H 489.263 -1.43589 -2.60326 0
M  V30 4978 H 486.796 -0.847507 -1.29061 0
M  V30 4979 H 488.754 0.588868 -4.06254 0
M  V30 4980 H 487.415 1.01172 -2.9736 0
M  V30 4981 H 486.608 -0.176626 -5.0369 0
M  V30 4982 H 486.21 -1.10543 -3.5729 0
M  V30 4983 H 488.502 -0.791217 -6.72864 0
M  V30 4984 H 489.445 -2.31498 -6.69189 0
M  V30 4985 H 489.853 -0.994245 -5.55675 0
M  V30 4986 N 489.251 1.34841 -0.815825 0
M  V30 4987 C 490.479 2.0273 -0.413294 0
M  V30 4988 C 490.894 1.61459 0.978599 0
M  V30 4989 O 490.251 0.816584 1.63212 0
M  V30 4990 C 490.302 3.58058 -0.497676 0
M  V30 4991 O 490.023 3.97832 -1.8347 0
M  V30 4992 C 491.524 4.4321 -0.0891339 0
M  V30 4993 H 488.744 0.649956 -0.166728 0
M  V30 4994 H 491.288 1.72267 -1.10201 0
M  V30 4995 H 489.443 3.87136 0.142886 0
M  V30 4996 H 489.857 4.92501 -1.80396 0
M  V30 4997 H 491.331 5.5164 -0.199274 0
M  V30 4998 H 491.808 4.28432 0.966571 0
M  V30 4999 H 492.414 4.19446 -0.703214 0
M  V30 5000 N 490.729 0.570148 1.46925 0
M  V30 5001 C 491.957 0.0561966 2.06824 0
M  V30 5002 C 492.372 -1.24326 1.42086 0
M  V30 5003 O 491.729 -1.74882 0.521794 0
M  V30 5004 C 491.78 -0.129517 3.61268 0
M  V30 5005 O 491.501 1.1185 4.23581 0
M  V30 5006 C 493.002 -0.679266 4.38065 0
M  V30 5007 H 490.222 0.0517261 0.669003 0
M  V30 5008 H 492.766 0.787243 1.8874 0
M  V30 5009 H 490.921 -0.810739 3.78822 0
M  V30 5010 H 491.335 0.924375 5.1629 0
M  V30 5011 H 492.809 -0.758445 5.46765 0
M  V30 5012 H 493.286 -1.69346 4.05239 0
M  V30 5013 H 493.892 -0.0333237 4.25287 0
M  V30 5014 N 492.207 -1.54576 0.307264 0
M  V30 5015 C 493.484 -1.92377 -0.353605 0
M  V30 5016 C 493.864 -1.23517 -1.71192 0
M  V30 5017 O 493.212 -0.373101 -2.25433 0
M  V30 5018 C 493.422 -3.45928 -0.462039 0
M  V30 5019 C 494.77 -4.18278 -0.729975 0
M  V30 5020 O 495.794 -3.51997 -0.545605 0
M  V30 5021 O 494.653 -5.3563 -1.08454 0
M  V30 5022 H 491.747 -0.802747 -0.198812 0
M  V30 5023 H 494.293 -1.65929 0.355783 0
M  V30 5024 H 493.065 -3.88187 0.492592 0
M  V30 5025 H 492.688 -3.78431 -1.21965 0
M  V30 5026 N 493.685 -0.035106 -1.57561 0
M  V30 5027 C 494.595 0.960295 -2.14046 0
M  V30 5028 C 495.611 1.3529 -1.0942 0
M  V30 5029 O 496.787 1.43309 -1.41508 0
M  V30 5030 C 493.852 2.22214 -2.66124 0
M  V30 5031 C 492.913 1.8894 -3.85487 0
M  V30 5032 C 492.146 3.09109 -4.35072 0
M  V30 5033 O 492.369 4.21963 -3.83802 0
M  V30 5034 O 491.303 2.91058 -5.26848 0
M  V30 5035 H 495.129 0.509983 -2.99387 0
M  V30 5036 H 492.714 0.185853 -1.48239 0
M  V30 5037 H 494.596 2.96279 -2.99661 0
M  V30 5038 H 493.271 2.66414 -1.83862 0
M  V30 5039 H 492.178 1.12241 -3.56865 0
M  V30 5040 H 493.511 1.49551 -4.6893 0
M  V30 5041 N 495.163 1.55791 0.238111 0
M  V30 5042 C 496.44 1.68798 0.98826 0
M  V30 5043 C 496.82 0.577562 2.03045 0
M  V30 5044 O 496.168 -0.41778 2.24648 0
M  V30 5045 C 496.378 3.09454 1.61367 0
M  V30 5046 C 497.726 3.68335 2.11221 0
M  V30 5047 O 498.75 3.1231 1.71292 0
M  V30 5048 O 497.609 4.6657 2.84561 0
M  V30 5049 H 494.703 0.686881 0.460568 0
M  V30 5050 H 497.249 1.68118 0.231202 0
M  V30 5051 H 496.021 3.81726 0.860295 0
M  V30 5052 H 495.644 3.14182 2.4367 0
M  V30 5053 N 496.642 -0.504142 1.49319 0
M  V30 5054 C 497.882 -1.26867 1.60263 0
M  V30 5055 C 498.246 -1.89924 0.281578 0
M  V30 5056 O 499.447 -2.67479 0.266176 0
M  V30 5057 C 497.718 -2.30956 2.72753 0
M  V30 5058 S 499.277 -3.1679 3.03628 0
M  V30 5059 H 496.095 -0.431198 0.565322 0
M  V30 5060 H 498.697 -0.571407 1.86963 0
M  V30 5061 H 497.401 -1.83156 3.67263 0
M  V30 5062 H 496.932 -3.05356 2.48035 0
M  V30 5063 H 498.947 -4.31549 2.44908 0
M  V30 5064 N 498.12 -1.38341 -0.754957 0
M  V30 5065 C 499.345 -1.37882 -1.5493 0
M  V30 5066 C 499.77 0.0296385 -1.88077 0
M  V30 5067 O 499.128 1.01133 -1.50472 0
M  V30 5068 C 499.176 -2.23996 -2.82592 0
M  V30 5069 O 498.28 -1.65612 -3.77686 0
M  V30 5070 H 497.621 -0.470384 -0.468652 0
M  V30 5071 H 500.151 -1.82084 -0.933082 0
M  V30 5072 H 500.161 -2.37806 -3.3153 0
M  V30 5073 H 498.836 -3.26365 -2.57796 0
M  V30 5074 H 497.413 -1.60936 -3.36384 0
M  V30 5075 N 499.598 0.982988 -1.23187 0
M  V30 5076 C 501.009 1.53847 -1.05773 0
M  V30 5077 C 501.36 1.92568 0.375744 0
M  V30 5078 O 500.485 1.75783 1.26211 0
M  V30 5079 C 501.08 2.79567 -1.91384 0
M  V30 5080 C 499.639 3.31524 -1.78238 0
M  V30 5081 C 498.786 2.04534 -1.87246 0
M  V30 5082 H 501.737 0.802962 -1.36888 0
M  V30 5083 H 501.758 3.52317 -1.43711 0
M  V30 5084 H 501.27 2.51353 -2.95708 0
M  V30 5085 H 499.371 3.64623 -0.766875 0
M  V30 5086 H 499.484 4.01457 -2.61475 0
M  V30 5087 H 497.848 2.1855 -1.30797 0
M  V30 5088 H 498.631 1.78706 -2.9312 0
M  V30 5089 N 501.076 1.04316 1.18135 0
M  V30 5090 C 502.316 0.756937 1.89868 0
M  V30 5091 C 502.68 -0.702609 1.78682 0
M  V30 5092 O 503.881 -1.10255 2.45148 0
M  V30 5093 C 502.152 1.21327 3.36176 0
M  V30 5094 S 503.711 1.05307 4.25976 0
M  V30 5095 H 500.529 0.275143 0.655604 0
M  V30 5096 H 503.131 1.33597 1.42731 0
M  V30 5097 H 501.835 2.27086 3.41848 0
M  V30 5098 H 501.366 0.628137 3.88353 0
M  V30 5099 H 503.381 -0.0280093 4.96192 0
M  V30 5100 N 502.554 -1.34406 0.822964 0
M  V30 5101 C 503.803 -1.97542 0.407458 0
M  V30 5102 C 504.116 -1.65973 -1.035 0
M  V30 5103 O 505.322 -2.22598 -1.55442 0
M  V30 5104 C 503.778 -3.53463 0.677623 0
M  V30 5105 C 503.386 -3.93925 2.1337 0
M  V30 5106 C 505.13 -4.23229 0.328284 0
M  V30 5107 C 503.037 -5.42759 2.34876 0
M  V30 5108 H 501.967 -0.739207 0.148623 0
M  V30 5109 H 504.618 -1.53248 1.00932 0
M  V30 5110 H 503 -3.96 0.00558965 0
M  V30 5111 H 504.174 -3.62494 2.8449 0
M  V30 5112 H 502.489 -3.37097 2.44448 0
M  V30 5113 H 505.086 -5.32659 0.466794 0
M  V30 5114 H 505.429 -4.09899 -0.727224 0
M  V30 5115 H 505.962 -3.86169 0.954896 0
M  V30 5116 H 502.701 -5.61075 3.38932 0
M  V30 5117 H 502.221 -5.75704 1.68299 0
M  V30 5118 H 503.9 -6.0944 2.17236 0
M  V30 5119 N 504.032 -0.577932 -1.46621 0
M  V30 5120 C 504.962 0.145917 -2.33044 0
M  V30 5121 C 505.943 0.888412 -1.45056 0
M  V30 5122 O 507.128 0.864812 -1.73881 0
M  V30 5123 C 504.258 1.16322 -3.27241 0
M  V30 5124 C 503.212 0.535868 -4.24632 0
M  V30 5125 C 502.538 1.65929 -5.08303 0
M  V30 5126 C 503.838 -0.523861 -5.19666 0
M  V30 5127 H 505.532 -0.575636 -2.93814 0
M  V30 5128 H 503.078 -0.278272 -1.41286 0
M  V30 5129 H 505.031 1.67793 -3.86553 0
M  V30 5130 H 503.755 1.91498 -2.64567 0
M  V30 5131 H 502.414 0.0422759 -3.66576 0
M  V30 5132 H 502.062 2.40061 -4.42018 0
M  V30 5133 H 501.762 1.2452 -5.74255 0
M  V30 5134 H 503.286 2.17686 -5.70478 0
M  V30 5135 H 504.7 -0.0944059 -5.73222 0
M  V30 5136 H 503.097 -0.858 -5.93935 0
M  V30 5137 H 504.167 -1.41197 -4.63887 0
M  V30 5138 N 505.51 1.54411 -0.315457 0
M  V30 5139 C 506.921 1.85885 0.174265 0
M  V30 5140 C 507.272 1.23723 1.52273 0
M  V30 5141 O 506.397 0.540246 2.09548 0
M  V30 5142 C 506.992 3.37257 0.322981 0
M  V30 5143 C 505.551 3.68711 0.756922 0
M  V30 5144 C 504.698 2.77013 -0.126195 0
M  V30 5145 H 507.649 1.49374 -0.536007 0
M  V30 5146 H 507.67 3.62539 1.15522 0
M  V30 5147 H 507.182 3.82471 -0.658602 0
M  V30 5148 H 505.283 3.29024 1.74854 0
M  V30 5149 H 505.396 4.75741 0.566291 0
M  V30 5150 H 503.76 2.51588 0.39692 0
M  V30 5151 H 504.543 3.25051 -1.1044 0
M  V30 5152 N 506.988 0.0434614 1.5754 0
M  V30 5153 C 508.265 -0.671479 1.83713 0
M  V30 5154 C 508.645 -1.89495 0.930315 0
M  V30 5155 O 507.993 -2.28498 -0.0105639 0
M  V30 5156 C 508.203 -1.0361 3.33266 0
M  V30 5157 C 509.551 -1.42167 4.00092 0
M  V30 5158 O 510.575 -1.12866 3.37846 0
M  V30 5159 O 509.434 -1.96817 5.09829 0
M  V30 5160 H 506.528 -0.330726 0.75799 0
M  V30 5161 H 509.074 0.0722373 1.69546 0
M  V30 5162 H 507.846 -0.165938 3.90948 0
M  V30 5163 H 507.469 -1.83751 3.52592 0
M  V30 5164 N 508.466 -1.55915 -0.229846 0
M  V30 5165 C 509.713 -1.78542 -0.955452 0
M  V30 5166 C 510.041 -0.610785 -1.84661 0
M  V30 5167 O 509.296 0.405213 -1.91459 0
M  V30 5168 C 509.595 -3.06845 -1.8325 0
M  V30 5169 C 509.261 -4.37395 -1.09528 0
M  V30 5170 C 507.923 -4.72868 -0.891598 0
M  V30 5171 C 510.275 -5.18029 -0.574046 0
M  V30 5172 C 507.603 -5.86496 -0.154655 0
M  V30 5173 C 509.955 -6.32423 0.149513 0
M  V30 5174 C 508.619 -6.66504 0.364519 0
M  V30 5175 H 507.889 -0.653333 -0.349625 0
M  V30 5176 H 510.536 -1.90183 -0.224235 0
M  V30 5177 H 508.841 -2.90291 -2.63132 0
M  V30 5178 H 510.538 -3.21553 -2.39592 0
M  V30 5179 H 507.128 -4.09538 -1.26399 0
M  V30 5180 H 511.312 -4.91066 -0.718899 0
M  V30 5181 H 506.568 -6.11396 0.0222356 0
M  V30 5182 H 510.742 -6.94137 0.560947 0
M  V30 5183 H 508.369 -7.54397 0.937495 0
M  V30 5184 N 509.944 0.496216 -1.49584 0
M  V30 5185 C 510.876 1.61404 -1.62731 0
M  V30 5186 C 511.889 1.54613 -0.50978 0
M  V30 5187 O 513.078 1.60458 -0.782017 0
M  V30 5188 C 510.178 3.00212 -1.57245 0
M  V30 5189 C 509.351 3.32138 -2.84611 0
M  V30 5190 C 508.41 4.5038 -2.72112 0
M  V30 5191 O 507.436 4.51926 -3.46051 0
M  V30 5192 N 508.638 5.50575 -1.83977 0
M  V30 5193 H 511.403 1.50552 -2.59141 0
M  V30 5194 H 508.964 0.684182 -1.46733 0
M  V30 5195 H 510.956 3.77241 -1.4653 0
M  V30 5196 H 509.526 3.04964 -0.686729 0
M  V30 5197 H 508.746 2.4396 -3.09641 0
M  V30 5198 H 510.034 3.50268 -3.69039 0
M  V30 5199 H 509.432 5.52128 -1.23171 0
M  V30 5200 H 507.989 6.26687 -1.79182 0
M  V30 5201 N 511.423 1.38739 0.74761 0
M  V30 5202 C 512.834 1.31507 1.32524 0
M  V30 5203 C 513.185 -0.0263963 1.96182 0
M  V30 5204 O 512.31 -0.92849 1.95469 0
M  V30 5205 C 512.905 2.38162 2.40966 0
M  V30 5206 C 511.464 2.34489 2.94434 0
M  V30 5207 C 510.611 2.20712 1.67873 0
M  V30 5208 H 513.562 1.4901 0.546043 0
M  V30 5209 H 513.583 2.04222 3.21051 0
M  V30 5210 H 513.095 3.35783 1.94605 0
M  V30 5211 H 511.196 1.40467 3.45108 0
M  V30 5212 H 511.309 3.28861 3.48407 0
M  V30 5213 H 509.673 1.67667 1.91729 0
M  V30 5214 H 510.456 3.20285 1.23582 0
M  V30 5215 N 512.901 -0.976442 1.23707 0
M  V30 5216 C 514.129 -1.75341 1.09833 0
M  V30 5217 C 514.544 -1.8553 -0.349885 0
M  V30 5218 O 513.901 -1.33732 -1.24185 0
M  V30 5219 C 513.952 -3.17833 1.72233 0
M  V30 5220 O 513.673 -3.08167 3.11391 0
M  V30 5221 C 515.174 -4.11906 1.63853 0
M  V30 5222 H 512.394 -0.550137 0.384175 0
M  V30 5223 H 514.938 -1.2265 1.63638 0
M  V30 5224 H 513.093 -3.67538 1.22452 0
M  V30 5225 H 513.507 -3.97897 3.41729 0
M  V30 5226 H 514.981 -5.09579 2.12211 0
M  V30 5227 H 515.458 -4.35109 0.598092 0
M  V30 5228 H 516.064 -3.68107 2.13019 0
M  V30 5229 N 514.379 -1.04941 -1.1758 0
M  V30 5230 C 515.309 -0.669172 -2.23706 0
M  V30 5231 C 516.29 0.331835 -1.66832 0
M  V30 5232 O 517.475 0.209988 -1.93061 0
M  V30 5233 C 514.605 -0.0404889 -3.47276 0
M  V30 5234 C 513.559 -0.965983 -4.16957 0
M  V30 5235 C 512.885 -0.201312 -5.34321 0
M  V30 5236 C 514.185 -2.28902 -4.69469 0
M  V30 5237 H 515.879 -1.55639 -2.55767 0
M  V30 5238 H 513.425 -0.749793 -1.22939 0
M  V30 5239 H 515.378 0.237298 -4.20731 0
M  V30 5240 H 514.102 0.881658 -3.14475 0
M  V30 5241 H 512.761 -1.22829 -3.45411 0
M  V30 5242 H 512.409 0.723519 -4.97769 0
M  V30 5243 H 512.109 -0.817968 -5.81879 0
M  V30 5244 H 513.633 0.0692499 -6.10561 0
M  V30 5245 H 515.047 -2.07132 -5.34574 0
M  V30 5246 H 513.444 -2.85942 -5.27596 0
M  V30 5247 H 514.514 -2.92937 -3.86414 0
M  V30 5248 N 515.857 1.33968 -0.830081 0
M  V30 5249 C 516.767 2.33164 -0.259207 0
M  V30 5250 C 517.783 1.62951 0.610164 0
M  V30 5251 O 518.959 1.94668 0.516369 0
M  V30 5252 C 516.024 3.42088 0.563598 0
M  V30 5253 C 515.085 4.28037 -0.329014 0
M  V30 5254 C 514.318 5.3176 0.454616 0
M  V30 5255 O 514.541 5.44876 1.6872 0
M  V30 5256 O 513.475 6.01669 -0.166794 0
M  V30 5257 H 517.301 2.83832 -1.08041 0
M  V30 5258 H 514.886 1.37154 -0.59239 0
M  V30 5259 H 516.768 4.08581 1.03147 0
M  V30 5260 H 515.443 2.93651 1.36201 0
M  V30 5261 H 514.35 3.64443 -0.844538 0
M  V30 5262 H 515.683 4.79934 -1.09196 0
M  V30 5263 N 517.335 0.585699 1.46312 0
M  V30 5264 C 518.584 0.0701192 2.01578 0
M  V30 5265 C 518.897 -1.29889 1.46247 0
M  V30 5266 O 520.103 -1.90598 1.93351 0
M  V30 5267 C 518.559 0.0747499 3.59822 0
M  V30 5268 C 518.167 1.44226 4.24149 0
M  V30 5269 C 519.911 -0.38673 4.22735 0
M  V30 5270 C 517.818 1.40446 5.74481 0
M  V30 5271 H 516.748 0.0224441 0.753666 0
M  V30 5272 H 519.399 0.737789 1.68015 0
M  V30 5273 H 517.781 -0.659144 3.90476 0
M  V30 5274 H 518.955 2.19612 4.05101 0
M  V30 5275 H 517.27 1.84401 3.73343 0
M  V30 5276 H 519.867 -0.433853 5.32937 0
M  V30 5277 H 520.21 -1.40489 3.91878 0
M  V30 5278 H 520.743 0.293195 3.96718 0
M  V30 5279 H 517.482 2.39952 6.10003 0
M  V30 5280 H 517.002 0.692845 5.95785 0
M  V30 5281 H 518.681 1.11865 6.37256 0
M  V30 5282 N 518.813 -1.54241 0.323641 0
M  V30 5283 C 520.06 -2.0057 -0.27891 0
M  V30 5284 C 520.388 -1.21181 -1.52136 0
M  V30 5285 O 519.643 -0.282043 -1.93657 0
M  V30 5286 C 519.942 -3.5129 -0.658031 0
M  V30 5287 C 519.608 -4.48281 0.485252 0
M  V30 5288 C 518.27 -4.74519 0.799055 0
M  V30 5289 C 520.622 -5.05909 1.25322 0
M  V30 5290 C 517.95 -5.55643 1.88354 0
M  V30 5291 C 520.302 -5.88215 2.32779 0
M  V30 5292 C 518.966 -6.12755 2.64741 0
M  V30 5293 H 518.236 -0.733938 -0.10206 0
M  V30 5294 H 520.883 -1.862 0.447435 0
M  V30 5295 H 519.188 -3.63388 -1.4648 0
M  V30 5296 H 520.885 -3.84578 -1.1358 0
M  V30 5297 H 517.475 -4.27979 0.230593 0
M  V30 5298 H 521.659 -4.8562 1.02404 0
M  V30 5299 H 516.915 -5.72888 2.13564 0
M  V30 5300 H 521.089 -6.31888 2.92729 0
M  V30 5301 H 518.716 -6.75404 3.48904 0
M  V30 5302 N 520.291 -0.0518155 -1.57515 0
M  V30 5303 C 521.54 0.621286 -1.91893 0
M  V30 5304 C 521.853 1.71966 -0.932052 0
M  V30 5305 O 523.059 2.45096 -1.16791 0
M  V30 5306 C 521.515 1.15641 -3.40816 0
M  V30 5307 C 521.123 0.0901146 -4.47909 0
M  V30 5308 C 522.867 1.80472 -3.84227 0
M  V30 5309 C 520.774 0.638154 -5.87947 0
M  V30 5310 H 519.704 0.235835 -0.716169 0
M  V30 5311 H 522.355 -0.120809 -1.83102 0
M  V30 5312 H 520.737 1.95084 -3.44613 0
M  V30 5313 H 521.911 -0.683525 -4.55702 0
M  V30 5314 H 520.226 -0.460774 -4.13843 0
M  V30 5315 H 522.823 2.22471 -4.86221 0
M  V30 5316 H 523.166 2.65669 -3.20508 0
M  V30 5317 H 523.699 1.07683 -3.82948 0
M  V30 5318 H 520.438 -0.176202 -6.55263 0
M  V30 5319 H 519.958 1.37976 -5.83714 0
M  V30 5320 H 521.637 1.12085 -6.37217 0
M  V30 5321 N 521.769 1.56035 0.221574 0
M  V30 5322 C 523.18 1.69229 0.788567 0
M  V30 5323 C 523.531 0.653814 1.84986 0
M  V30 5324 O 522.656 -0.195065 2.15519 0
M  V30 5325 C 523.251 3.06809 1.43713 0
M  V30 5326 C 521.81 3.21858 1.95152 0
M  V30 5327 C 520.957 2.65155 0.811685 0
M  V30 5328 H 523.908 1.587 -0.00307894 0
M  V30 5329 H 523.929 3.02666 2.30594 0
M  V30 5330 H 523.441 3.82369 0.664475 0
M  V30 5331 H 521.542 2.51167 2.7522 0
M  V30 5332 H 521.655 4.29073 2.1315 0
M  V30 5333 H 520.019 2.23635 1.21899 0
M  V30 5334 H 520.802 3.43261 0.0516987 0
M  V30 5335 N 523.247 -0.488276 1.49845 0
M  V30 5336 C 524.495 -1.23911 1.59657 0
M  V30 5337 C 524.816 -1.92816 0.291005 0
M  V30 5338 O 524.086 -1.83328 -0.690485 0
M  V30 5339 H 522.666 -0.460357 0.588286 0
M  V30 5340 H 525.328 -0.564794 1.86537 0
M  V30 5341 H 524.424 -1.99625 2.39909 0
M  V30 5342 N 524.725 -1.39134 -0.740242 0
M  V30 5343 C 525.672 -1.37434 -1.8542 0
M  V30 5344 C 526.642 -0.234822 -1.64432 0
M  V30 5345 O 527.827 -0.429125 -1.85912 0
M  V30 5346 C 524.967 -1.21844 -3.22875 0
M  V30 5347 C 524.08 -2.45296 -3.55603 0
M  V30 5348 C 523.215 -2.22334 -4.82432 0
M  V30 5349 C 522.254 -3.41488 -5.07988 0
M  V30 5350 N 521.391 -3.17877 -6.26018 0
M  V30 5351 H 526.231 -2.3266 -1.86207 0
M  V30 5352 H 523.768 -1.15578 -0.909946 0
M  V30 5353 H 525.726 -1.10818 -4.02213 0
M  V30 5354 H 524.356 -0.3025 -3.21379 0
M  V30 5355 H 523.408 -2.66945 -2.71006 0
M  V30 5356 H 524.72 -3.34063 -3.7041 0
M  V30 5357 H 523.874 -2.0852 -5.69741 0
M  V30 5358 H 522.613 -1.30954 -4.6979 0
M  V30 5359 H 521.618 -3.55807 -4.19144 0
M  V30 5360 H 522.843 -4.33763 -5.22519 0
M  V30 5361 H 520.789 -2.29156 -6.14673 0
M  V30 5362 H 520.706 -4.00198 -6.41387 0
M  V30 5363 H 521.974 -3.07746 -7.16179 0
M  V30 5364 N 526.204 0.969867 -1.24223 0
M  V30 5365 C 527.45 1.7151 -1.08223 0
M  V30 5366 C 527.783 1.90478 0.37838 0
M  V30 5367 O 527.058 1.4647 1.27971 0
M  V30 5368 C 527.341 3.10714 -1.82013 0
M  V30 5369 C 527.194 2.9925 -3.35811 0
M  V30 5370 C 528.513 4.10332 -1.59108 0
M  V30 5371 H 525.632 0.622499 -0.394543 0
M  V30 5372 H 528.274 1.1284 -1.52863 0
M  V30 5373 H 526.424 3.608 -1.44068 0
M  V30 5374 H 528.096 2.56608 -3.83341 0
M  V30 5375 H 526.339 2.35512 -3.64303 0
M  V30 5376 H 527.01 3.97857 -3.82641 0
M  V30 5377 H 529.486 3.69097 -1.92111 0
M  V30 5378 H 528.362 5.05804 -2.13198 0
M  V30 5379 H 528.623 4.38926 -0.528832 0
M  V30 5380 N 527.682 1.05563 1.17022 0
M  V30 5381 C 528.63 0.653887 2.2322 0
M  V30 5382 C 529.624 -0.326642 1.66221 0
M  V30 5383 O 530.83 -0.192301 1.7897 0
M  V30 5384 H 527.205 0.193297 0.726733 0
M  V30 5385 H 529.176 1.5596 2.54399 0
M  V30 5386 C 527.925 0.0485434 3.47666 0
M  V30 5387 H 527.248 0.79413 3.91834 0
M  V30 5388 H 528.688 -0.195133 4.23551 0
M  V30 5389 C 527.147 -1.20583 3.14581 0
M  V30 5390 O 527.677 -2.29475 3.29703 0
M  V30 5391 N 525.883 -1.10493 2.68774 0
M  V30 5392 H 525.43 -0.218795 2.56669 0
M  V30 5393 H 525.388 -1.94507 2.47011 0
M  V30 5394 N 529.16 -1.33526 0.837174 0
M  V30 5395 C 530.108 -2.31168 0.257698 0
M  V30 5396 C 531.102 -1.5806 -0.609388 0
M  V30 5397 O 532.308 -1.72941 -0.499139 0
M  V30 5398 H 528.683 -0.74922 0.0646058 0
M  V30 5399 H 530.654 -2.77552 1.09578 0
M  V30 5400 C 529.403 -3.4326 -0.553887 0
M  V30 5401 H 528.726 -3.99665 0.104008 0
M  V30 5402 H 530.166 -4.13782 -0.925219 0
M  V30 5403 C 528.625 -2.88965 -1.73207 0
M  V30 5404 O 529.155 -2.85013 -2.83073 0
M  V30 5405 N 527.361 -2.45596 -1.55342 0
M  V30 5406 H 526.908 -2.49009 -0.659705 0
M  V30 5407 H 526.866 -2.0962 -2.34322 0
M  V30 5408 N 530.638 -0.59345 -1.46 0
M  V30 5409 C 531.568 0.121192 -2.33185 0
M  V30 5410 C 532.549 0.872977 -1.4599 0
M  V30 5411 O 533.734 0.846321 -1.74789 0
M  V30 5412 C 530.864 1.12844 -3.28456 0
M  V30 5413 C 529.818 0.4908 -4.25177 0
M  V30 5414 C 529.144 1.60529 -5.10034 0
M  V30 5415 C 530.444 -0.578949 -5.19081 0
M  V30 5416 H 532.138 -0.606767 -2.93187 0
M  V30 5417 H 529.684 -0.293242 -1.40983 0
M  V30 5418 H 531.637 1.63684 -3.88311 0
M  V30 5419 H 530.361 1.88681 -2.66584 0
M  V30 5420 H 529.02 0.00339328 -3.666 0
M  V30 5421 H 528.668 2.35359 -4.44539 0
M  V30 5422 H 528.368 1.18422 -5.75543 0
M  V30 5423 H 529.892 2.11623 -5.72755 0
M  V30 5424 H 531.306 -0.155199 -5.7309 0
M  V30 5425 H 529.703 -0.920947 -5.92991 0
M  V30 5426 H 530.773 -1.46109 -4.62364 0
M  V30 5427 N 532.116 1.54067 -0.331816 0
M  V30 5428 C 533.046 2.27569 0.522932 0
M  V30 5429 C 534.027 1.28679 1.11247 0
M  V30 5430 O 535.212 1.57504 1.13605 0
M  V30 5431 C 532.342 3.0397 1.67987 0
M  V30 5432 C 531.296 4.10267 1.21924 0
M  V30 5433 C 530.622 4.74555 2.46377 0
M  V30 5434 C 531.922 5.21268 0.32815 0
M  V30 5435 H 533.616 2.99264 -0.0901977 0
M  V30 5436 H 531.162 1.4393 -0.044821 0
M  V30 5437 H 533.115 3.54123 2.28418 0
M  V30 5438 H 531.839 2.29906 2.31971 0
M  V30 5439 H 530.498 3.61009 0.637809 0
M  V30 5440 H 530.146 3.97098 3.08743 0
M  V30 5441 H 529.846 5.46363 2.16243 0
M  V30 5442 H 531.37 5.27487 3.07555 0
M  V30 5443 H 532.784 5.67128 0.838978 0
M  V30 5444 H 531.181 5.99982 0.119228 0
M  V30 5445 H 532.251 4.80673 -0.638839 0
M  V30 5446 N 533.594 0.0601682 1.57485 0
M  V30 5447 C 534.504 -0.926121 2.15546 0
M  V30 5448 C 535.52 -1.33532 1.11558 0
M  V30 5449 O 536.696 -1.4104 1.4377 0
M  V30 5450 C 533.761 -2.17952 2.69625 0
M  V30 5451 C 532.822 -1.82783 3.88444 0
M  V30 5452 C 532.055 -3.02148 4.39935 0
M  V30 5453 O 532.278 -4.15803 3.90466 0
M  V30 5454 O 531.212 -2.82639 5.31412 0
M  V30 5455 H 535.038 -0.462289 3.00161 0
M  V30 5456 H 532.623 -0.162246 1.48516 0
M  V30 5457 H 534.505 -2.91474 3.04337 0
M  V30 5458 H 533.18 -2.63456 1.88077 0
M  V30 5459 H 532.087 -1.06549 3.58606 0
M  V30 5460 H 533.42 -1.42072 4.7125 0
M  V30 5461 N 535.072 -1.5615 -0.213296 0
M  V30 5462 C 536.321 -1.78743 -0.93455 0
M  V30 5463 C 536.634 -0.630199 -1.8517 0
M  V30 5464 O 537.84 -0.739966 -2.61222 0
M  V30 5465 C 536.296 -3.16571 -1.71203 0
M  V30 5466 C 535.904 -4.40043 -0.840617 0
M  V30 5467 C 537.648 -3.48485 -2.42401 0
M  V30 5468 C 535.555 -5.68895 -1.61592 0
M  V30 5469 H 534.485 -0.666426 -0.352692 0
M  V30 5470 H 537.136 -1.82532 -0.188227 0
M  V30 5471 H 535.518 -3.06981 -2.50157 0
M  V30 5472 H 536.692 -4.6071 -0.0910326 0
M  V30 5473 H 535.007 -4.15706 -0.240365 0
M  V30 5474 H 537.604 -4.41983 -3.00924 0
M  V30 5475 H 537.947 -2.71371 -3.15695 0
M  V30 5476 H 538.48 -3.59442 -1.7043 0
M  V30 5477 H 535.219 -6.48925 -0.926106 0
M  V30 5478 H 534.739 -5.52275 -2.33991 0
M  V30 5479 H 536.418 -6.09365 -2.17447 0
M  V30 5480 N 536.55 0.480323 -1.50102 0
M  V30 5481 C 537.513 1.56181 -1.6775 0
M  V30 5482 C 538.513 1.51156 -0.548503 0
M  V30 5483 O 539.703 1.5394 -0.815363 0
M  V30 5484 C 536.835 2.95823 -1.69415 0
M  V30 5485 H 538.028 1.41855 -2.6423 0
M  V30 5486 H 535.581 0.70605 -1.39444 0
M  V30 5487 H 536.316 3.15604 -0.745948 0
M  V30 5488 H 536.101 3.00878 -2.51425 0
M  V30 5489 H 537.591 3.74359 -1.85054 0
M  V30 5490 N 538.028 1.39524 0.732853 0
M  V30 5491 C 538.96 1.34318 1.85718 0
M  V30 5492 C 539.973 0.251576 1.60844 0
M  V30 5493 O 541.162 0.510685 1.71039 0
M  V30 5494 C 538.262 1.06334 3.21786 0
M  V30 5495 C 537.435 2.26813 3.73998 0
M  V30 5496 C 536.494 1.95253 4.88634 0
M  V30 5497 O 535.52 2.67957 5.02183 0
M  V30 5498 N 536.722 0.919984 5.73164 0
M  V30 5499 H 539.487 2.3121 1.90688 0
M  V30 5500 H 537.048 1.33654 0.91368 0
M  V30 5501 H 539.04 0.832363 3.96048 0
M  V30 5502 H 537.61 0.181682 3.12072 0
M  V30 5503 H 536.83 2.65849 2.91064 0
M  V30 5504 H 538.118 3.0717 4.05616 0
M  V30 5505 H 537.516 0.317487 5.64808 0
M  V30 5506 H 536.073 0.748905 6.47483 0
M  V30 5507 N 539.506 -0.963266 1.24736 0
M  V30 5508 C 540.752 -1.70933 1.09131 0
M  V30 5509 C 541.085 -1.90676 -0.368273 0
M  V30 5510 O 540.36 -1.47147 -1.27193 0
M  V30 5511 C 540.643 -3.09744 1.83658 0
M  V30 5512 C 540.496 -2.97465 3.37394 0
M  V30 5513 C 541.815 -4.09483 1.61282 0
M  V30 5514 H 538.934 -0.620398 0.397838 0
M  V30 5515 H 541.576 -1.12028 1.53459 0
M  V30 5516 H 539.726 -3.60031 1.4598 0
M  V30 5517 H 541.398 -2.54571 3.84696 0
M  V30 5518 H 539.641 -2.33576 3.65547 0
M  V30 5519 H 540.312 -3.95822 3.84745 0
M  V30 5520 H 542.788 -3.68073 1.94066 0
M  V30 5521 H 541.664 -5.04666 2.15878 0
M  V30 5522 H 541.925 -4.38639 0.552102 0
M  V30 5523 N 540.985 -1.06182 -1.16461 0
M  V30 5524 C 541.895 -0.682671 -2.24448 0
M  V30 5525 C 542.911 0.30078 -1.71381 0
M  V30 5526 O 544.087 0.150376 -2.00838 0
M  V30 5527 C 541.152 -0.0737202 -3.46622 0
M  V30 5528 C 540.213 -1.10889 -4.14731 0
M  V30 5529 C 539.446 -0.528908 -5.31073 0
M  V30 5530 O 539.669 0.65868 -5.66584 0
M  V30 5531 O 538.603 -1.26805 -5.88391 0
M  V30 5532 H 542.429 -1.58291 -2.59187 0
M  V30 5533 H 540.014 -0.834013 -1.23954 0
M  V30 5534 H 541.896 0.264192 -4.20571 0
M  V30 5535 H 540.571 0.800015 -3.13658 0
M  V30 5536 H 539.478 -1.49896 -3.42756 0
M  V30 5537 H 540.811 -1.95412 -4.51747 0
M  V30 5538 N 542.463 1.3308 -0.844243 0
M  V30 5539 C 543.688 2.02341 -0.455282 0
M  V30 5540 C 544.113 1.6308 0.93737 0
M  V30 5541 O 543.471 0.826118 1.61385 0
M  V30 5542 C 543.519 3.55743 -0.58988 0
M  V30 5543 O 542.623 4.1063 0.38166 0
M  V30 5544 H 541.964 0.637898 -0.184343 0
M  V30 5545 H 544.494 1.6986 -1.14056 0
M  V30 5546 H 544.504 4.05243 -0.473522 0
M  V30 5547 H 543.179 3.83662 -1.60549 0
M  V30 5548 H 541.756 3.72236 0.22241 0
M  V30 5549 N 543.941 0.601185 1.45683 0
M  V30 5550 C 545.19 0.0914953 2.01492 0
M  V30 5551 C 545.503 -1.28331 1.47616 0
M  V30 5552 O 546.709 -1.88537 1.95362 0
M  V30 5553 C 545.165 0.11291 3.59723 0
M  V30 5554 C 544.773 1.48717 4.22596 0
M  V30 5555 C 546.517 -0.341871 4.23121 0
M  V30 5556 C 544.424 1.46531 5.7296 0
M  V30 5557 H 543.354 0.0304365 0.753385 0
M  V30 5558 H 546.005 0.755568 1.67223 0
M  V30 5559 H 544.387 -0.617692 3.91153 0
M  V30 5560 H 545.561 2.23897 4.02749 0
M  V30 5561 H 543.876 1.88351 3.71366 0
M  V30 5562 H 546.473 -0.377304 5.33367 0
M  V30 5563 H 546.816 -1.36325 3.93346 0
M  V30 5564 H 547.349 0.335256 3.96385 0
M  V30 5565 H 544.088 2.46408 6.07423 0
M  V30 5566 H 543.608 0.755997 5.95017 0
M  V30 5567 H 545.287 1.18618 6.36034 0
M  V30 5568 N 545.419 -1.53889 0.339982 0
M  V30 5569 C 546.349 -2.27843 -0.510856 0
M  V30 5570 C 547.33 -1.29267 -1.10563 0
M  V30 5571 O 548.515 -1.58104 -1.12768 0
M  V30 5572 C 545.645 -3.04857 -1.66372 0
M  V30 5573 C 544.599 -4.10907 -1.19746 0
M  V30 5574 C 543.925 -4.75855 -2.43857 0
M  V30 5575 C 545.225 -5.21435 -0.300501 0
M  V30 5576 H 546.919 -2.99212 0.106067 0
M  V30 5577 H 544.465 -1.43904 0.0524533 0
M  V30 5578 H 546.418 -3.5533 -2.26537 0
M  V30 5579 H 545.142 -2.31133 -2.30749 0
M  V30 5580 H 543.801 -3.61342 -0.618654 0
M  V30 5581 H 543.449 -3.9873 -3.06633 0
M  V30 5582 H 543.149 -5.47502 -2.13343 0
M  V30 5583 H 544.673 -5.2911 -3.04754 0
M  V30 5584 H 546.087 -5.67565 -0.80889 0
M  V30 5585 H 544.484 -6.00036 -0.0874076 0
M  V30 5586 H 545.554 -4.80328 0.664321 0
M  V30 5587 N 546.897 -0.0685191 -1.57451 0
M  V30 5588 C 547.807 0.914677 -2.16034 0
M  V30 5589 C 548.823 1.32938 -1.12265 0
M  V30 5590 O 549.999 1.40275 -1.44516 0
M  V30 5591 C 547.064 2.16519 -2.70777 0
M  V30 5592 C 546.125 1.80721 -3.89408 0
M  V30 5593 C 545.358 2.9981 -4.41531 0
M  V30 5594 O 545.581 4.13727 -3.92666 0
M  V30 5595 O 544.515 2.79817 -5.32903 0
M  V30 5596 H 548.341 0.446364 -3.00402 0
M  V30 5597 H 545.926 0.154367 -1.486 0
M  V30 5598 H 547.808 2.89856 -3.05878 0
M  V30 5599 H 546.483 2.62454 -1.89471 0
M  V30 5600 H 545.39 1.04646 -3.59166 0
M  V30 5601 H 546.723 1.39571 -4.71997 0
M  V30 5602 N 548.375 1.56261 0.205012 0
M  V30 5603 C 549.338 1.92908 1.23771 0
M  V30 5604 C 550.338 0.809208 1.38955 0
M  V30 5605 O 551.528 1.07676 1.36936 0
M  V30 5606 C 548.66 2.19442 2.60879 0
M  V30 5607 H 549.853 2.85287 0.924728 0
M  V30 5608 H 547.406 1.49798 0.446125 0
M  V30 5609 H 548.141 1.29668 2.97248 0
M  V30 5610 H 547.926 3.0104 2.51232 0
M  V30 5611 H 549.416 2.48833 3.35368 0
M  V30 5612 N 549.853 -0.472356 1.50355 0
M  V30 5613 C 550.801 -1.59126 1.69651 0
M  V30 5614 C 551.795 -1.59793 0.56237 0
M  V30 5615 O 553.001 -1.63957 0.742832 0
M  V30 5616 H 549.376 -0.528008 0.535454 0
M  V30 5617 H 551.347 -1.40013 2.63513 0
M  V30 5618 C 550.096 -2.97075 1.8067 0
M  V30 5619 H 549.419 -2.9728 2.67329 0
M  V30 5620 H 550.859 -3.74825 1.98197 0
M  V30 5621 C 549.318 -3.32247 0.558016 0
M  V30 5622 O 549.848 -4.00553 -0.303399 0
M  V30 5623 N 548.054 -2.87659 0.412415 0
M  V30 5624 H 547.601 -2.32246 1.11443 0
M  V30 5625 H 547.559 -3.11556 -0.421908 0
M  V30 5626 N 551.331 -1.39911 -0.725443 0
M  V30 5627 C 552.279 -1.39552 -1.86086 0
M  V30 5628 C 553.273 -0.277334 -1.67114 0
M  V30 5629 O 554.479 -0.447865 -1.74339 0
M  V30 5630 H 550.854 -0.435993 -0.612711 0
M  V30 5631 H 552.825 -2.35305 -1.83505 0
M  V30 5632 C 551.574 -1.26529 -3.2386 0
M  V30 5633 H 550.897 -2.11845 -3.3906 0
M  V30 5634 H 552.337 -1.30336 -4.03471 0
M  V30 5635 C 550.796 0.0254168 -3.3689 0
M  V30 5636 O 551.326 0.992048 -3.89257 0
M  V30 5637 N 549.532 0.0916528 -2.90455 0
M  V30 5638 H 549.079 -0.695675 -2.48028 0
M  V30 5639 H 549.037 0.954745 -2.99553 0
M  V30 5640 N 552.809 0.956637 -1.25245 0
M  V30 5641 C 554.225 1.22733 -1.02023 0
M  V30 5642 C 554.425 1.99761 0.264186 0
M  V30 5643 O 553.481 2.32814 0.977436 0
M  V30 5644 C 554.794 2.00367 -2.24217 0
M  V30 5645 C 556.342 2.13418 -2.28958 0
M  V30 5646 C 556.817 2.9445 -3.50803 0
M  V30 5647 N 558.308 3.02029 -3.51187 0
M  V30 5648 C 559.043 3.65116 -4.42129 0
M  V30 5649 N 558.539 4.2983 -5.43339 0
M  V30 5650 N 560.332 3.62237 -4.29815 0
M  V30 5651 H 552.483 0.441282 -2.07765 0
M  V30 5652 H 554.746 0.257686 -0.912306 0
M  V30 5653 H 554.452 1.51165 -3.17556 0
M  V30 5654 H 554.326 3.01077 -2.27228 0
M  V30 5655 H 556.713 2.61819 -1.36143 0
M  V30 5656 H 556.794 1.1202 -2.29968 0
M  V30 5657 H 556.438 2.46741 -4.43939 0
M  V30 5658 H 556.368 3.9607 -3.47039 0
M  V30 5659 H 558.859 2.56007 -2.77973 0
M  V30 5660 H 559.172 4.75819 -6.08947 0
M  V30 5661 H 557.517 4.28465 -5.47214 0
M  V30 5662 H 560.708 3.10863 -3.49974 0
M  V30 5663 H 560.881 4.11117 -5.00886 0
M  V30 5664 N 554.287 1.06798 1.15896 0
M  V30 5665 C 555.197 0.694564 2.24083 0
M  V30 5666 C 556.213 -0.291687 1.71538 0
M  V30 5667 O 557.389 -0.139723 2.00915 0
M  V30 5668 C 554.454 0.0921014 3.46578 0
M  V30 5669 C 553.515 1.13087 4.14137 0
M  V30 5670 C 552.748 0.557064 5.30785 0
M  V30 5671 O 552.971 -0.628623 5.66925 0
M  V30 5672 O 551.905 1.29924 5.8771 0
M  V30 5673 H 555.731 1.59663 2.58344 0
M  V30 5674 H 553.316 0.840575 1.2351 0
M  V30 5675 H 555.198 -0.241884 4.20705 0
M  V30 5676 H 553.873 -0.78337 3.14078 0
M  V30 5677 H 552.78 1.51712 3.41957 0
M  V30 5678 H 554.113 1.97805 4.50704 0
M  V30 5679 N 555.766 -1.3263 0.851289 0
M  V30 5680 C 557.014 -1.96978 0.452128 0
M  V30 5681 C 557.335 -1.67715 -0.99482 0
M  V30 5682 O 556.605 -0.98259 -1.69476 0
M  V30 5683 H 555.185 -0.72873 0.164202 0
M  V30 5684 H 557.847 -1.61774 1.08698 0
M  V30 5685 H 556.943 -3.06387 0.594407 0
M  V30 5686 N 557.244 -0.608902 -1.45362 0
M  V30 5687 C 558.49 -0.104762 -2.02529 0
M  V30 5688 C 558.823 1.26191 -1.47613 0
M  V30 5689 O 558.098 1.8327 -0.65134 0
M  V30 5690 C 558.381 -0.0672661 -3.60037 0
M  V30 5691 C 558.234 -1.4647 -4.25284 0
M  V30 5692 C 559.553 0.619877 -4.35713 0
M  V30 5693 H 556.672 -0.0395438 -0.735938 0
M  V30 5694 H 559.314 -0.781126 -1.73201 0
M  V30 5695 H 557.464 0.50871 -3.85155 0
M  V30 5696 H 559.136 -2.08785 -4.11347 0
M  V30 5697 H 557.379 -2.02502 -3.83634 0
M  V30 5698 H 558.05 -1.39069 -5.34195 0
M  V30 5699 H 560.526 0.130297 -4.15896 0
M  V30 5700 H 559.402 0.615224 -5.45441 0
M  V30 5701 H 559.663 1.68621 -4.0868 0
M  V30 5702 N 558.722 1.53707 -0.348139 0
M  V30 5703 C 559.632 2.28881 0.514857 0
M  V30 5704 C 560.648 1.34168 1.10793 0
M  V30 5705 O 561.824 1.6721 1.12262 0
M  V30 5706 C 558.889 3.05042 1.64774 0
M  V30 5707 C 557.95 4.15389 1.08398 0
M  V30 5708 C 557.183 4.87909 2.16287 0
M  V30 5709 O 557.406 4.60137 3.3709 0
M  V30 5710 O 556.34 5.74254 1.80323 0
M  V30 5711 H 560.166 3.03547 -0.0963699 0
M  V30 5712 H 557.751 1.48972 -0.113043 0
M  V30 5713 H 559.633 3.52656 2.30677 0
M  V30 5714 H 558.308 2.33228 2.24469 0
M  V30 5715 H 557.215 3.72068 0.389341 0
M  V30 5716 H 558.548 4.89318 0.531829 0
M  V30 5717 N 560.2 0.0768682 1.57412 0
M  V30 5718 C 561.448 -0.589918 1.93299 0
M  V30 5719 C 561.769 -1.69842 0.958049 0
M  V30 5720 O 561.039 -1.95899 0.00703261 0
M  V30 5721 H 559.619 -0.220901 0.713591 0
M  V30 5722 H 562.281 0.135917 1.94425 0
M  V30 5723 H 561.377 -1.01195 2.95239 0
M  V30 5724 N 561.678 -1.56367 -0.196722 0
M  V30 5725 C 562.924 -1.80796 -0.918725 0
M  V30 5726 C 563.257 -0.650645 -1.82976 0
M  V30 5727 O 562.532 0.348889 -1.91345 0
M  V30 5728 C 562.815 -3.15472 -1.73636 0
M  V30 5729 C 562.668 -4.41693 -0.85015 0
M  V30 5730 C 563.987 -3.46824 -2.70927 0
M  V30 5731 H 561.106 -0.657702 -0.332561 0
M  V30 5732 H 563.748 -1.89086 -0.186186 0
M  V30 5733 H 561.898 -3.08536 -2.36088 0
M  V30 5734 H 563.57 -4.60673 -0.240459 0
M  V30 5735 H 561.813 -4.33517 -0.156785 0
M  V30 5736 H 562.484 -5.32419 -1.45719 0
M  V30 5737 H 564.96 -3.54049 -2.18607 0
M  V30 5738 H 563.836 -4.4218 -3.25219 0
M  V30 5739 H 564.097 -2.70236 -3.49893 0
M  V30 5740 N 563.156 0.464375 -1.50603 0
M  V30 5741 C 564.066 1.58723 -1.72754 0
M  V30 5742 C 565.082 1.62925 -0.610844 0
M  V30 5743 O 566.258 1.8067 -0.889963 0
M  V30 5744 C 563.323 2.94897 -1.82309 0
M  V30 5745 C 562.384 3.0103 -3.06071 0
M  V30 5746 C 561.617 4.30708 -3.1516 0
M  V30 5747 O 561.84 5.2159 -2.30868 0
M  V30 5748 O 560.774 4.42571 -4.0794 0
M  V30 5749 H 564.6 1.42954 -2.67951 0
M  V30 5750 H 562.185 0.644579 -1.3478 0
M  V30 5751 H 564.067 3.75764 -1.90735 0
M  V30 5752 H 562.742 3.10851 -0.902967 0
M  V30 5753 H 561.649 2.19217 -3.03142 0
M  V30 5754 H 562.982 2.90014 -3.97684 0
M  V30 5755 N 564.634 1.40294 0.718013 0
M  V30 5756 C 566.05 1.2227 1.02577 0
M  V30 5757 C 566.25 0.0961976 2.0127 0
M  V30 5758 O 565.306 -0.546695 2.46511 0
M  V30 5759 C 566.619 2.56348 1.57182 0
M  V30 5760 C 568.167 2.6334 1.69178 0
M  V30 5761 C 568.642 3.9768 2.27188 0
M  V30 5762 N 570.133 3.99409 2.34578 0
M  V30 5763 C 570.868 5.00141 2.8044 0
M  V30 5764 N 570.364 6.11268 3.26073 0
M  V30 5765 N 572.157 4.87511 2.79802 0
M  V30 5766 H 564.308 2.12304 0.0637899 0
M  V30 5767 H 566.571 0.943632 0.0909036 0
M  V30 5768 H 566.277 3.3942 0.921262 0
M  V30 5769 H 566.151 2.77266 2.55741 0
M  V30 5770 H 568.538 1.80641 2.33351 0
M  V30 5771 H 568.619 2.46255 0.692247 0
M  V30 5772 H 568.263 4.80817 1.63638 0
M  V30 5773 H 568.193 4.12093 3.27852 0
M  V30 5774 H 570.684 3.19162 2.02346 0
M  V30 5775 H 570.997 6.84023 3.59628 0
M  V30 5776 H 569.342 6.14837 3.24038 0
M  V30 5777 H 572.533 3.9979 2.43487 0
M  V30 5778 H 572.706 5.66158 3.15228 0
M  V30 5779 N 566.112 -0.949982 1.2575 0
M  V30 5780 C 567.342 -1.72721 1.13363 0
M  V30 5781 C 567.75 -1.86562 -0.314842 0
M  V30 5782 O 567.093 -1.36621 -1.22803 0
M  V30 5783 C 567.155 -3.15695 1.7198 0
M  V30 5784 C 566.819 -3.25268 3.21014 0
M  V30 5785 C 567.816 -3.09222 4.17945 0
M  V30 5786 C 565.501 -3.4894 3.61312 0
M  V30 5787 C 567.495 -3.16701 5.53154 0
M  V30 5788 C 565.182 -3.56055 4.96657 0
M  V30 5789 C 566.18 -3.3995 5.92387 0
M  V30 5790 O 565.868 -3.46757 7.25269 0
M  V30 5791 H 565.6 -0.547888 0.395973 0
M  V30 5792 H 568.154 -1.20009 1.66694 0
M  V30 5793 H 566.384 -3.69791 1.13101 0
M  V30 5794 H 568.073 -3.75295 1.54624 0
M  V30 5795 H 568.839 -2.90798 3.88151 0
M  V30 5796 H 564.718 -3.60534 2.87291 0
M  V30 5797 H 568.262 -3.04048 6.27854 0
M  V30 5798 H 564.159 -3.73997 5.26115 0
M  V30 5799 H 564.927 -3.63358 7.33426 0
M  V30 5800 N 567.59 -1.07411 -1.15328 0
M  V30 5801 C 568.836 -0.798831 -1.86404 0
M  V30 5802 C 569.169 0.673433 -1.8215 0
M  V30 5803 O 568.444 1.49428 -1.24505 0
M  V30 5804 C 568.727 -1.30846 -3.35487 0
M  V30 5805 C 568.58 -2.84532 -3.4837 0
M  V30 5806 C 569.899 -0.925486 -4.30259 0
M  V30 5807 H 567.018 -0.291659 -0.676834 0
M  V30 5808 H 569.66 -1.332 -1.35491 0
M  V30 5809 H 567.81 -0.854916 -3.78977 0
M  V30 5810 H 569.482 -3.3818 -3.13739 0
M  V30 5811 H 567.725 -3.22699 -2.8991 0
M  V30 5812 H 568.396 -3.15259 -4.53118 0
M  V30 5813 H 570.872 -1.3163 -3.94731 0
M  V30 5814 H 569.748 -1.3094 -5.33053 0
M  V30 5815 H 570.009 0.168525 -4.41779 0
M  V30 5816 N 569.068 1.32177 -0.85831 0
M  V30 5817 C 570.317 1.96392 -0.459689 0
M  V30 5818 C 570.63 1.68659 0.990632 0
M  V30 5819 O 571.836 2.26641 1.49485 0
M  V30 5820 C 570.292 3.51542 -0.7711 0
M  V30 5821 C 569.9 3.8813 -2.2374 0
M  V30 5822 C 571.644 4.2221 -0.44038 0
M  V30 5823 C 569.551 5.36341 -2.49183 0
M  V30 5824 H 568.481 0.735007 -0.168169 0
M  V30 5825 H 571.132 1.50518 -1.0496 0
M  V30 5826 H 569.514 3.95846 -0.11058 0
M  V30 5827 H 570.688 3.54824 -2.94001 0
M  V30 5828 H 569.003 3.30497 -2.533 0
M  V30 5829 H 571.6 5.31234 -0.607855 0
M  V30 5830 H 571.943 4.11683 0.618291 0
M  V30 5831 H 572.476 3.83502 -1.05695 0
M  V30 5832 H 569.215 5.51892 -3.53689 0
M  V30 5833 H 568.735 5.7104 -1.83504 0
M  V30 5834 H 570.414 6.03466 -2.33318 0
M  V30 5835 N 570.547 0.616602 1.45037 0
M  V30 5836 C 571.958 0.199359 1.85633 0
M  V30 5837 C 572.309 -1.24588 1.51566 0
M  V30 5838 O 571.434 -1.94594 0.94668 0
M  V30 5839 C 572.029 0.355033 3.36935 0
M  V30 5840 C 570.588 -0.00758748 3.76399 0
M  V30 5841 C 569.735 0.675256 2.68953 0
M  V30 5842 H 572.686 0.822708 1.3571 0
M  V30 5843 H 572.707 -0.410201 3.78282 0
M  V30 5844 H 572.219 1.40699 3.61698 0
M  V30 5845 H 570.32 -1.05837 3.57252 0
M  V30 5846 H 570.433 0.392346 4.77491 0
M  V30 5847 H 568.797 0.111992 2.54454 0
M  V30 5848 H 569.58 1.72952 2.96551 0
M  V30 5849 N 572.025 -1.5352 0.356285 0
M  V30 5850 C 573.271 -2.01414 -0.236653 0
M  V30 5851 C 573.604 -1.24339 -1.49176 0
M  V30 5852 O 572.879 -0.334496 -1.91602 0
M  V30 5853 C 573.162 -3.56059 -0.537982 0
M  V30 5854 C 573.015 -4.43835 0.730112 0
M  V30 5855 C 574.334 -4.19127 -1.34239 0
M  V30 5856 H 571.453 -0.732135 -0.0845386 0
M  V30 5857 H 574.095 -1.83854 0.479341 0
M  V30 5858 H 572.245 -3.71153 -1.14795 0
M  V30 5859 H 573.917 -4.40555 1.36782 0
M  V30 5860 H 572.16 -4.1218 1.3524 0
M  V30 5861 H 572.831 -5.49958 0.474358 0
M  V30 5862 H 575.307 -4.07809 -0.826498 0
M  V30 5863 H 574.183 -5.27378 -1.52198 0
M  V30 5864 H 574.444 -3.74581 -2.34822 0
M  V30 5865 N 573.503 -0.0852151 -1.57369 0
M  V30 5866 C 574.728 0.592872 -1.98746 0
M  V30 5867 C 575.153 1.61538 -0.963689 0
M  V30 5868 O 574.511 1.81168 0.069071 0
M  V30 5869 C 574.559 1.22599 -3.39119 0
M  V30 5870 O 573.663 2.34185 -3.39457 0
M  V30 5871 H 573.004 0.151314 -0.646529 0
M  V30 5872 H 575.534 -0.163703 -2.03944 0
M  V30 5873 H 575.544 1.56965 -3.76598 0
M  V30 5874 H 574.219 0.476831 -4.13158 0
M  V30 5875 H 572.796 2.01512 -3.13763 0
M  V30 5876 N 574.981 1.5647 0.188427 0
M  V30 5877 C 576.227 1.81281 0.909124 0
M  V30 5878 C 576.56 0.66034 1.82628 0
M  V30 5879 O 575.835 -0.338737 1.91528 0
M  V30 5880 C 576.118 3.16388 1.7196 0
M  V30 5881 C 575.971 4.42137 0.826714 0
M  V30 5882 C 577.29 3.48256 2.69083 0
M  V30 5883 H 574.409 0.659457 0.329068 0
M  V30 5884 H 577.051 1.89182 0.176156 0
M  V30 5885 H 575.201 3.09784 2.34448 0
M  V30 5886 H 576.873 4.60794 0.216025 0
M  V30 5887 H 575.116 4.33594 0.133792 0
M  V30 5888 H 575.787 5.33184 1.42893 0
M  V30 5889 H 578.263 3.55203 2.16726 0
M  V30 5890 H 577.139 4.43899 3.2287 0
M  V30 5891 H 577.4 2.72088 3.48455 0
M  V30 5892 N 576.459 -0.456382 1.50847 0
M  V30 5893 C 577.391 -1.57033 1.66953 0
M  V30 5894 C 578.404 -1.53207 0.550593 0
M  V30 5895 O 579.593 -1.58328 0.824285 0
M  V30 5896 C 576.693 -2.95937 1.65149 0
M  V30 5897 C 575.866 -3.24475 2.93317 0
M  V30 5898 C 574.925 -4.43007 2.83957 0
M  V30 5899 O 573.951 -4.42592 3.57912 0
M  V30 5900 N 575.153 -5.45503 1.9851 0
M  V30 5901 H 577.918 -1.43629 2.63042 0
M  V30 5902 H 575.479 -0.645037 1.48495 0
M  V30 5903 H 577.471 -3.73224 1.56481 0
M  V30 5904 H 576.041 -3.03036 0.767343 0
M  V30 5905 H 575.261 -2.35664 3.16 0
M  V30 5906 H 576.549 -3.4036 3.78196 0
M  V30 5907 H 575.947 -5.48668 1.37766 0
M  V30 5908 H 574.504 -6.21716 1.95735 0
M  V30 5909 N 577.937 -1.40673 -0.710563 0
M  V30 5910 C 579.214 -1.29718 -1.46398 0
M  V30 5911 C 579.594 0.082177 -2.1094 0
M  V30 5912 O 578.942 1.09536 -2.00534 0
M  V30 5913 C 579.152 -2.43967 -2.49562 0
M  V30 5914 C 580.5 -2.84436 -3.15248 0
M  V30 5915 O 581.524 -2.43597 -2.59883 0
M  V30 5916 O 580.383 -3.55008 -4.1549 0
M  V30 5917 H 577.477 -0.509697 -0.651258 0
M  V30 5918 H 580.023 -1.52603 -0.742312 0
M  V30 5919 H 578.795 -3.36076 -2.0042 0
M  V30 5920 H 578.418 -2.22879 -3.29258 0
M  V30 5921 N 579.415 0.9433 -1.26252 0
M  V30 5922 C 580.378 2.02326 -1.07689 0
M  V30 5923 C 581.378 1.60779 -0.0259174 0
M  V30 5924 O 582.568 1.72108 -0.269134 0
M  V30 5925 C 579.7 3.34886 -0.63752 0
M  V30 5926 H 580.893 2.20225 -2.0357 0
M  V30 5927 H 578.446 1.12197 -1.08819 0
M  V30 5928 H 579.181 3.22684 0.323377 0
M  V30 5929 H 578.966 3.66393 -1.39637 0
M  V30 5930 H 580.456 4.14231 -0.529418 0
M  V30 5931 N 580.893 1.08022 1.14757 0
M  V30 5932 C 581.823 0.728248 2.21853 0
M  V30 5933 C 582.804 -0.287486 1.67653 0
M  V30 5934 O 583.989 -0.158727 1.9355 0
M  V30 5935 C 581.119 0.132549 3.47047 0
M  V30 5936 C 580.073 1.07619 4.14249 0
M  V30 5937 C 579.399 0.342907 5.33599 0
M  V30 5938 C 580.699 2.41268 4.63235 0
M  V30 5939 H 582.393 1.62365 2.51551 0
M  V30 5940 H 579.939 0.782125 1.20908 0
M  V30 5941 H 581.892 -0.125665 4.21213 0
M  V30 5942 H 580.616 -0.797971 3.16702 0
M  V30 5943 H 579.275 1.31944 3.42033 0
M  V30 5944 H 578.923 -0.59129 4.99513 0
M  V30 5945 H 578.623 0.971955 5.79506 0
M  V30 5946 H 580.147 0.0926538 6.1053 0
M  V30 5947 H 581.561 2.21232 5.28894 0
M  V30 5948 H 579.958 2.9983 5.19829 0
M  V30 5949 H 581.028 3.03079 3.78512 0
M  V30 5950 N 582.371 -1.3172 0.865308 0
M  V30 5951 C 583.648 -1.91574 0.394789 0
M  V30 5952 C 584.028 -1.78769 -1.12271 0
M  V30 5953 O 583.376 -1.19245 -1.94918 0
M  V30 5954 C 583.586 -3.37957 0.870982 0
M  V30 5955 C 584.934 -4.15073 0.894384 0
M  V30 5956 O 585.958 -3.4672 0.816325 0
M  V30 5957 O 584.817 -5.37151 1.00651 0
M  V30 5958 H 581.911 -0.818649 0.117229 0
M  V30 5959 H 584.457 -1.4042 0.952913 0
M  V30 5960 H 583.229 -3.41269 1.91444 0
M  V30 5961 H 582.852 -3.96534 0.290907 0
M  V30 5962 N 583.85 -0.624285 -1.44708 0
M  V30 5963 C 584.812 0.0749638 -2.29077 0
M  V30 5964 C 585.812 0.778965 -1.40673 0
M  V30 5965 O 587.003 0.624591 -1.62618 0
M  V30 5966 C 584.135 1.11663 -3.22094 0
M  V30 5967 H 585.327 -0.667013 -2.92388 0
M  V30 5968 H 582.88 -0.384098 -1.51507 0
M  V30 5969 H 583.615 1.88881 -2.63618 0
M  V30 5970 H 583.401 0.61583 -3.87234 0
M  V30 5971 H 584.891 1.60585 -3.8549 0
M  V30 5972 N 585.328 1.53329 -0.364422 0
M  V30 5973 C 586.26 2.23286 0.517293 0
M  V30 5974 C 587.273 1.24657 1.04711 0
M  V30 5975 O 588.462 1.50887 0.95369 0
M  V30 5976 C 585.562 2.91604 1.72685 0
M  V30 5977 C 584.735 4.1673 1.32873 0
M  V30 5978 C 583.794 4.68269 2.40022 0
M  V30 5979 O 582.82 5.31976 2.02461 0
M  V30 5980 N 584.022 4.45983 3.7159 0
M  V30 5981 H 586.787 2.99588 -0.0819391 0
M  V30 5982 H 584.348 1.60787 -0.189544 0
M  V30 5983 H 586.34 3.22992 2.4384 0
M  V30 5984 H 584.91 2.18763 2.23297 0
M  V30 5985 H 584.13 3.91657 0.447069 0
M  V30 5986 H 585.418 4.98078 1.03902 0
M  V30 5987 H 584.816 3.95077 4.04883 0
M  V30 5988 H 583.373 4.81924 4.38854 0
M  V30 5989 N 586.806 0.0935595 1.57322 0
M  V30 5990 C 588.055 -0.570191 1.93473 0
M  V30 5991 C 588.368 -1.69434 0.977318 0
M  V30 5992 O 589.574 -2.41914 1.23248 0
M  V30 5993 C 588.03 -1.06564 3.43762 0
M  V30 5994 C 587.638 0.0286723 4.47991 0
M  V30 5995 C 589.382 -1.70221 3.88877 0
M  V30 5996 C 587.289 -0.482046 5.89432 0
M  V30 5997 H 586.219 -0.216764 0.72217 0
M  V30 5998 H 588.87 0.169313 1.82717 0
M  V30 5999 H 587.252 -1.85878 3.49664 0
M  V30 6000 H 588.426 0.804106 4.5373 0
M  V30 6001 H 586.741 0.570336 4.12476 0
M  V30 6002 H 589.338 -2.09502 4.91948 0
M  V30 6003 H 589.681 -2.57078 3.27439 0
M  V30 6004 H 590.214 -0.974919 3.85668 0
M  V30 6005 H 586.953 0.349871 6.54566 0
M  V30 6006 H 586.473 -1.22452 5.87167 0
M  V30 6007 H 588.152 -0.951508 6.39965 0
M  V30 6008 N 588.284 -1.56567 -0.180126 0
M  V30 6009 C 589.514 -1.85349 -0.912647 0
M  V30 6010 C 589.922 -0.675795 -1.76719 0
M  V30 6011 O 589.265 0.3645 -1.80047 0
M  V30 6012 C 589.327 -3.08431 -1.84691 0
M  V30 6013 C 588.991 -4.41694 -1.17284 0
M  V30 6014 C 589.988 -5.17062 -0.542532 0
M  V30 6015 C 587.673 -4.8843 -1.17223 0
M  V30 6016 C 589.667 -6.37351 0.0793953 0
M  V30 6017 C 587.354 -6.08652 -0.54647 0
M  V30 6018 C 588.352 -6.82955 0.0782458 0
M  V30 6019 O 588.04 -8.00897 0.694158 0
M  V30 6020 H 587.772 -0.619286 -0.271036 0
M  V30 6021 H 590.326 -2.0454 -0.187768 0
M  V30 6022 H 588.556 -2.85163 -2.61188 0
M  V30 6023 H 590.245 -3.23733 -2.44851 0
M  V30 6024 H 591.011 -4.8204 -0.535045 0
M  V30 6025 H 586.89 -4.30542 -1.64788 0
M  V30 6026 H 590.434 -6.95287 0.567612 0
M  V30 6027 H 586.331 -6.4314 -0.55151 0
M  V30 6028 H 587.099 -8.16352 0.592537 0
M  V30 6029 N 589.762 0.448376 -1.51087 0
M  V30 6030 C 590.725 1.52588 -1.71025 0
M  V30 6031 C 591.725 1.49958 -0.580442 0
M  V30 6032 O 592.915 1.52176 -0.847833 0
M  V30 6033 C 590.047 2.92163 -1.75652 0
M  V30 6034 H 591.24 1.36218 -2.67179 0
M  V30 6035 H 588.793 0.676313 -1.4091 0
M  V30 6036 H 589.528 3.13951 -0.812724 0
M  V30 6037 H 589.313 2.95478 -2.57751 0
M  V30 6038 H 590.803 3.70349 -1.92953 0
M  V30 6039 N 591.24 1.41047 0.703093 0
M  V30 6040 C 592.17 1.45067 1.82969 0
M  V30 6041 C 593.151 0.31016 1.67248 0
M  V30 6042 O 594.336 0.520548 1.87093 0
M  V30 6043 C 591.466 1.32478 3.2104 0
M  V30 6044 C 590.42 2.44262 3.51454 0
M  V30 6045 C 589.746 2.16742 4.88801 0
M  V30 6046 C 591.046 3.86606 3.51189 0
M  V30 6047 H 592.74 2.39353 1.79863 0
M  V30 6048 H 590.286 1.15206 0.863919 0
M  V30 6049 H 592.239 1.33904 3.99559 0
M  V30 6050 H 590.963 0.346735 3.24754 0
M  V30 6051 H 589.622 2.42107 2.75282 0
M  V30 6052 H 589.27 1.17299 4.89132 0
M  V30 6053 H 588.97 2.91643 5.10116 0
M  V30 6054 H 590.494 2.19872 5.69639 0
M  V30 6055 H 591.908 3.90517 4.19725 0
M  V30 6056 H 590.305 4.61128 3.84033 0
M  V30 6057 H 591.375 4.15296 2.50315 0
M  V30 6058 N 592.718 -0.936591 1.26751 0
M  V30 6059 C 594.134 -1.21095 1.03963 0
M  V30 6060 C 594.334 -2.00156 -0.232372 0
M  V30 6061 O 593.39 -2.3434 -0.940274 0
M  V30 6062 C 594.703 -1.96775 2.27377 0
M  V30 6063 C 596.251 -2.09749 2.32324 0
M  V30 6064 C 596.726 -2.88832 3.55443 0
M  V30 6065 N 598.217 -2.96404 3.55948 0
M  V30 6066 C 598.952 -3.58036 4.47881 0
M  V30 6067 N 598.448 -4.21132 5.50109 0
M  V30 6068 N 600.241 -3.55353 4.35523 0
M  V30 6069 H 592.392 -0.408173 2.08441 0
M  V30 6070 H 594.655 -0.243139 0.91629 0
M  V30 6071 H 594.361 -1.46094 3.19921 0
M  V30 6072 H 594.235 -2.97424 2.31989 0
M  V30 6073 H 596.622 -2.5962 1.40291 0
M  V30 6074 H 596.703 -1.08347 2.31721 0
M  V30 6075 H 596.347 -2.39647 4.47808 0
M  V30 6076 H 596.277 -3.90499 3.53296 0
M  V30 6077 H 598.768 -2.51552 2.82011 0
M  V30 6078 H 599.081 -4.66071 6.16439 0
M  V30 6079 H 597.426 -4.19705 5.53961 0
M  V30 6080 H 600.617 -3.05256 3.54875 0
M  V30 6081 H 600.79 -4.03097 5.07363 0
M  V30 6082 N 594.196 -1.08629 -1.14182 0
M  V30 6083 C 595.126 -0.740003 -2.21464 0
M  V30 6084 C 596.107 0.278591 -1.67803 0
M  V30 6085 O 597.292 0.148461 -1.93632 0
M  V30 6086 C 594.422 -0.150952 -3.46972 0
M  V30 6087 C 593.376 -1.09815 -4.13672 0
M  V30 6088 C 592.702 -0.3712 -5.3341 0
M  V30 6089 C 594.002 -2.43722 -4.61949 0
M  V30 6090 H 595.696 -1.63697 -2.50686 0
M  V30 6091 H 593.242 -0.788526 -1.20492 0
M  V30 6092 H 595.195 0.103325 -4.21273 0
M  V30 6093 H 593.919 0.781164 -3.1712 0
M  V30 6094 H 592.578 -1.33756 -3.41328 0
M  V30 6095 H 592.226 0.564792 -4.99819 0
M  V30 6096 H 591.926 -1.00267 -5.78982 0
M  V30 6097 H 593.45 -0.12503 -6.10472 0
M  V30 6098 H 594.864 -2.24034 -5.27714 0
M  V30 6099 H 593.261 -3.02582 -5.18232 0
M  V30 6100 H 594.331 -3.05082 -3.76899 0
M  V30 6101 N 595.674 1.31259 -0.872281 0
M  V30 6102 C 596.584 2.32221 -0.333255 0
M  V30 6103 C 597.6 1.6481 0.558013 0
M  V30 6104 O 598.776 1.96212 0.454175 0
M  V30 6105 C 595.841 3.43708 0.454479 0
M  V30 6106 C 594.902 4.26774 -0.465024 0
M  V30 6107 C 594.135 5.32937 0.28521 0
M  V30 6108 O 594.358 5.49968 1.513 0
M  V30 6109 O 593.292 6.00834 -0.358126 0
M  V30 6110 H 597.118 2.80252 -1.17016 0
M  V30 6111 H 594.703 1.352 -0.635724 0
M  V30 6112 H 596.585 4.11656 0.900963 0
M  V30 6113 H 595.26 2.97836 1.26789 0
M  V30 6114 H 594.167 3.61571 -0.960055 0
M  V30 6115 H 595.5 4.76217 -1.2441 0
M  V30 6116 N 597.152 0.631951 1.44375 0
M  V30 6117 C 598.082 -0.0593243 2.33425 0
M  V30 6118 C 599.063 -0.833964 1.48253 0
M  V30 6119 O 600.248 -0.799682 1.76971 0
M  V30 6120 C 597.378 -1.04096 3.31333 0
M  V30 6121 C 596.332 -0.377899 4.26328 0
M  V30 6122 C 595.658 -1.4695 5.14111 0
M  V30 6123 C 596.958 0.716371 5.17364 0
M  V30 6124 H 598.652 0.684287 2.91475 0
M  V30 6125 H 596.198 0.330518 1.40156 0
M  V30 6126 H 598.151 -1.53331 3.92514 0
M  V30 6127 H 596.875 -1.81547 2.71493 0
M  V30 6128 H 595.534 0.0938054 3.6648 0
M  V30 6129 H 595.182 -2.2349 4.50623 0
M  V30 6130 H 594.882 -1.03121 5.78481 0
M  V30 6131 H 596.406 -1.96363 5.78164 0
M  V30 6132 H 597.82 0.307089 5.72477 0
M  V30 6133 H 596.217 1.07784 5.90341 0
M  V30 6134 H 597.287 1.58316 4.58327 0
M  V30 6135 N 598.631 -1.53133 0.372548 0
M  V30 6136 C 599.879 -2.00958 -0.214534 0
M  V30 6137 C 600.2 -1.26135 -1.48711 0
M  V30 6138 O 599.47 -0.376597 -1.92246 0
M  V30 6139 H 598.05 -0.742456 -0.0822664 0
M  V30 6140 H 600.712 -1.88367 0.500385 0
M  V30 6141 H 599.808 -3.09031 -0.436605 0
M  V30 6142 N 600.109 -0.101901 -1.5727 0
M  V30 6143 C 601.357 0.559091 -1.94213 0
M  V30 6144 C 601.678 1.68297 -0.984948 0
M  V30 6145 O 600.948 1.95863 -0.0381975 0
M  V30 6146 H 599.528 0.20952 -0.717015 0
M  V30 6147 H 602.19 -0.166831 -1.94185 0
M  V30 6148 H 601.286 0.96485 -2.96811 0
M  V30 6149 N 601.587 1.56661 0.17182 0
M  V30 6150 C 602.812 1.86459 0.908165 0
M  V30 6151 C 603.237 0.688181 1.75059 0
M  V30 6152 O 602.595 -0.362753 1.77634 0
M  V30 6153 C 602.643 3.14669 1.76112 0
M  V30 6154 O 601.747 2.96858 2.86268 0
M  V30 6155 H 601.088 0.613318 0.254434 0
M  V30 6156 H 603.618 2.03892 0.170113 0
M  V30 6157 H 603.628 3.46061 2.16115 0
M  V30 6158 H 602.303 3.99905 1.14233 0
M  V30 6159 H 600.88 2.76819 2.49852 0
M  V30 6160 N 603.065 -0.440357 1.51323 0
M  V30 6161 C 604.313 -1.18769 1.63518 0
M  V30 6162 C 604.634 -1.91793 0.352201 0
M  V30 6163 O 603.904 -1.85432 -0.631811 0
M  V30 6164 H 602.484 -0.441408 0.602634 0
M  V30 6165 H 605.146 -0.505162 1.8824 0
M  V30 6166 H 604.242 -1.91892 2.46138 0
M  V30 6167 N 604.543 -1.41418 -0.695603 0
M  V30 6168 C 605.954 -1.36335 -1.27552 0
M  V30 6169 C 606.305 -0.0464336 -1.96145 0
M  V30 6170 O 605.43 0.855304 -1.9878 0
M  V30 6171 C 606.025 -2.46941 -2.3196 0
M  V30 6172 C 604.584 -2.45256 -2.85529 0
M  V30 6173 C 603.731 -2.2679 -1.59566 0
M  V30 6174 H 606.682 -1.50934 -0.490362 0
M  V30 6175 H 606.703 -2.15997 -3.1325 0
M  V30 6176 H 606.215 -3.42775 -1.82008 0
M  V30 6177 H 604.316 -1.53179 -3.39657 0
M  V30 6178 H 604.429 -3.41565 -3.35961 0
M  V30 6179 H 602.793 -1.74667 -1.85374 0
M  V30 6180 H 603.576 -3.24651 -1.1161 0
M  V30 6181 N 606.021 0.929856 -1.27246 0
M  V30 6182 C 606.951 2.04722 -1.12299 0
M  V30 6183 C 607.932 1.70082 -0.0250464 0
M  V30 6184 O 609.117 1.93176 -0.199141 0
M  V30 6185 C 606.247 3.38721 -0.767145 0
M  V30 6186 C 605.201 3.87466 -1.81808 0
M  V30 6187 C 604.527 5.18246 -1.31626 0
M  V30 6188 C 605.827 4.11095 -3.22177 0
M  V30 6189 H 607.521 2.17485 -2.05769 0
M  V30 6190 H 605.067 1.04503 -0.990715 0
M  V30 6191 H 607.02 4.16366 -0.649413 0
M  V30 6192 H 605.744 3.25967 0.203259 0
M  V30 6193 H 604.403 3.12012 -1.92468 0
M  V30 6194 H 604.051 5.01881 -0.335378 0
M  V30 6195 H 603.751 5.51829 -2.01887 0
M  V30 6196 H 605.275 5.98462 -1.21143 0
M  V30 6197 H 606.689 4.79316 -3.1453 0
M  V30 6198 H 605.086 4.55982 -3.90129 0
M  V30 6199 H 606.156 3.16468 -3.67391 0
M  V30 6200 N 607.499 1.09233 1.13605 0
M  V30 6201 C 608.724 0.849067 1.89224 0
M  V30 6202 C 609.149 -0.593875 1.78479 0
M  V30 6203 O 608.507 -1.41703 1.13092 0
M  V30 6204 C 608.555 1.28642 3.36873 0
M  V30 6205 O 607.659 0.44363 4.10007 0
M  V30 6206 H 607 0.30767 0.588417 0
M  V30 6207 H 609.53 1.45595 1.43748 0
M  V30 6208 H 609.54 1.27096 3.87699 0
M  V30 6209 H 608.215 2.33729 3.44011 0
M  V30 6210 H 606.792 0.523241 3.69211 0
M  V30 6211 N 608.977 -1.30795 0.87923 0
M  V30 6212 C 610.202 -2.01063 0.508769 0
M  V30 6213 C 610.627 -1.65508 -0.893803 0
M  V30 6214 O 609.985 -0.868616 -1.59138 0
M  V30 6215 C 610.033 -3.54054 0.683991 0
M  V30 6216 O 609.137 -4.11498 -0.272654 0
M  V30 6217 H 608.478 -0.632786 0.201191 0
M  V30 6218 H 611.008 -1.66776 1.18519 0
M  V30 6219 H 611.018 -4.03845 0.580798 0
M  V30 6220 H 609.693 -3.79271 1.70665 0
M  V30 6221 H 608.27 -3.72695 -0.12364 0
M  V30 6222 N 610.455 -0.639598 -1.44038 0
M  V30 6223 C 611.68 -0.153117 -2.06834 0
M  V30 6224 C 612.105 1.16676 -1.47541 0
M  V30 6225 O 611.463 1.71769 -0.580093 0
M  V30 6226 C 611.511 -0.0609169 -3.60549 0
M  V30 6227 O 610.615 0.98071 -4.00569 0
M  V30 6228 H 609.956 -0.0886402 -0.658057 0
M  V30 6229 H 612.486 -0.878674 -1.84771 0
M  V30 6230 H 612.496 0.126892 -4.07803 0
M  V30 6231 H 611.171 -1.0245 -4.03084 0
M  V30 6232 H 609.748 0.766789 -3.64931 0
M  V30 6233 N 611.933 1.52934 -0.380664 0
M  V30 6234 C 612.863 2.29118 0.450268 0
M  V30 6235 C 613.844 1.32153 1.07096 0
M  V30 6236 O 615.029 1.61038 1.08537 0
M  V30 6237 C 612.159 3.09161 1.58231 0
M  V30 6238 C 611.113 4.13938 1.0881 0
M  V30 6239 C 610.439 4.82153 2.31155 0
M  V30 6240 C 611.739 5.22048 0.162146 0
M  V30 6241 H 613.433 2.98826 -0.185361 0
M  V30 6242 H 610.979 1.43715 -0.0905886 0
M  V30 6243 H 612.932 3.61211 2.17036 0
M  V30 6244 H 611.656 2.3717 2.2454 0
M  V30 6245 H 610.315 3.62855 0.522633 0
M  V30 6246 H 609.963 4.06719 2.95953 0
M  V30 6247 H 609.663 5.52966 1.98752 0
M  V30 6248 H 611.187 5.37004 2.90618 0
M  V30 6249 H 612.601 5.6951 0.658126 0
M  V30 6250 H 610.998 6.00057 -0.0717122 0
M  V30 6251 H 612.068 4.78398 -0.791438 0
M  V30 6252 N 613.412 0.11024 1.57214 0
M  V30 6253 C 614.342 -0.840002 2.17867 0
M  V30 6254 C 615.323 -1.28352 1.11624 0
M  V30 6255 O 616.508 -1.3477 1.39824 0
M  V30 6256 C 613.638 -2.09349 2.77111 0
M  V30 6257 C 612.592 -1.78807 3.8886 0
M  V30 6258 C 611.918 -3.11112 4.34872 0
M  V30 6259 C 613.218 -1.0632 5.11364 0
M  V30 6260 H 614.912 -0.334608 2.97524 0
M  V30 6261 H 612.458 -0.159502 1.43114 0
M  V30 6262 H 614.411 -2.76275 3.18198 0
M  V30 6263 H 613.135 -2.62198 1.9473 0
M  V30 6264 H 611.794 -1.14273 3.48335 0
M  V30 6265 H 611.442 -3.61877 3.49362 0
M  V30 6266 H 611.142 -2.91453 5.10224 0
M  V30 6267 H 612.666 -3.79171 4.78604 0
M  V30 6268 H 614.08 -1.63383 5.49526 0
M  V30 6269 H 612.477 -0.967876 5.92243 0
M  V30 6270 H 613.547 -0.0484569 4.84876 0
M  V30 6271 N 614.89 -1.56749 -0.16351 0
M  V30 6272 C 616.138 -1.82074 -0.87713 0
M  V30 6273 C 616.459 -0.688503 -1.82441 0
M  V30 6274 O 615.729 0.291085 -1.93725 0
M  V30 6275 H 614.309 -0.671677 -0.326893 0
M  V30 6276 H 616.971 -1.9423 -0.161459 0
M  V30 6277 H 616.067 -2.76407 -1.44934 0
M  V30 6278 N 616.368 0.432326 -1.51554 0
M  V30 6279 C 617.596 1.20364 -1.68286 0
M  V30 6280 C 618.011 1.84888 -0.38233 0
M  V30 6281 O 617.368 1.70924 0.639627 0
M  V30 6282 C 617.419 2.28398 -2.80208 0
M  V30 6283 O 617.14 1.66512 -4.05223 0
M  V30 6284 C 618.641 3.18584 -3.08251 0
M  V30 6285 H 615.861 0.36259 -0.564596 0
M  V30 6286 H 618.405 0.511647 -1.97996 0
M  V30 6287 H 616.56 2.93305 -2.53083 0
M  V30 6288 H 616.974 2.37951 -4.67418 0
M  V30 6289 H 618.448 3.90511 -3.90135 0
M  V30 6290 H 618.925 3.79628 -2.2086 0
M  V30 6291 H 619.531 2.59372 -3.37055 0
M  V30 6292 N 617.846 1.41785 0.688094 0
M  V30 6293 C 618.776 1.47 1.8142 0
M  V30 6294 C 619.757 0.327881 1.6691 0
M  V30 6295 O 620.942 0.540362 1.86531 0
M  V30 6296 C 618.072 1.35876 3.19617 0
M  V30 6297 C 617.026 2.47976 3.48844 0
M  V30 6298 C 616.352 2.21915 4.86475 0
M  V30 6299 C 617.652 3.90309 3.47068 0
M  V30 6300 H 619.346 2.41247 1.77314 0
M  V30 6301 H 616.892 1.16116 0.851651 0
M  V30 6302 H 618.845 1.38134 3.98117 0
M  V30 6303 H 617.569 0.38116 3.24368 0
M  V30 6304 H 616.228 2.45013 2.72698 0
M  V30 6305 H 615.876 1.2248 4.8786 0
M  V30 6306 H 615.576 2.97037 5.06994 0
M  V30 6307 H 617.1 2.25901 5.67275 0
M  V30 6308 H 618.514 3.94947 4.1556 0
M  V30 6309 H 616.911 4.65175 3.7912 0
M  V30 6310 H 617.981 4.17927 2.45896 0
M  V30 6311 N 619.324 -0.923095 1.27737 0
M  V30 6312 C 620.287 -2.00587 1.10894 0
M  V30 6313 C 621.287 -1.60718 0.0514927 0
M  V30 6314 O 622.477 -1.71658 0.296481 0
M  V30 6315 C 619.609 -3.33829 0.690717 0
M  V30 6316 H 620.802 -2.16959 2.07048 0
M  V30 6317 H 618.355 -1.10451 1.1059 0
M  V30 6318 H 619.09 -3.23157 -0.272 0
M  V30 6319 H 618.875 -3.64125 1.45448 0
M  V30 6320 H 620.365 -4.13336 0.595252 0
M  V30 6321 N 620.802 -1.09834 -1.13024 0
M  V30 6322 C 621.749 -0.741522 -2.18564 0
M  V30 6323 C 622.719 0.279236 -1.63736 0
M  V30 6324 O 623.904 0.159923 -1.90129 0
M  V30 6325 C 621.044 -0.17277 -3.44667 0
M  V30 6326 C 620.157 -1.24808 -4.13578 0
M  V30 6327 C 619.292 -0.641631 -5.27311 0
M  V30 6328 C 618.331 -1.69795 -5.88078 0
M  V30 6329 N 617.468 -1.11223 -6.93234 0
M  V30 6330 H 622.308 -1.64576 -2.48432 0
M  V30 6331 H 619.845 -0.822174 -1.21978 0
M  V30 6332 H 621.803 0.17482 -4.16834 0
M  V30 6333 H 620.433 0.694725 -3.15235 0
M  V30 6334 H 619.485 -1.71288 -3.39653 0
M  V30 6335 H 620.797 -2.04795 -4.54819 0
M  V30 6336 H 619.951 -0.243128 -6.06213 0
M  V30 6337 H 618.69 0.189742 -4.87331 0
M  V30 6338 H 617.695 -2.10595 -5.07868 0
M  V30 6339 H 618.92 -2.53206 -6.3013 0
M  V30 6340 H 616.866 -0.302208 -6.55304 0
M  V30 6341 H 616.783 -1.84901 -7.3304 0
M  V30 6342 H 618.051 -0.740068 -7.75979 0
M  V30 6343 N 622.28 1.30327 -0.886154 0
M  V30 6344 C 623.23 2.25668 -0.325248 0
M  V30 6345 C 624.214 1.51318 0.546972 0
M  V30 6346 O 625.406 1.72623 0.391203 0
M  V30 6347 C 622.535 3.40229 0.458167 0
M  V30 6348 C 621.621 4.21933 -0.428208 0
M  V30 6349 N 622.012 4.82129 -1.52921 0
M  V30 6350 C 620.31 4.45439 -0.223535 0
M  V30 6351 C 621.011 5.43351 -2.07714 0
M  V30 6352 N 619.987 5.26002 -1.37195 0
M  V30 6353 H 623.789 2.69759 -1.1665 0
M  V30 6354 H 621.303 1.4478 -0.735691 0
M  V30 6355 H 623.3 4.07579 0.876648 0
M  V30 6356 H 621.96 2.97678 1.29684 0
M  V30 6357 H 622.971 4.81312 -1.91205 0
M  V30 6358 H 619.648 4.13481 0.577875 0
M  V30 6359 H 621.038 6.01118 -3.00178 0
M  V30 6360 N 623.758 0.647228 1.43697 0
M  V30 6361 C 624.988 0.16551 2.05936 0
M  V30 6362 C 625.396 -1.17164 1.48557 0
M  V30 6363 O 624.739 -1.73307 0.60914 0
M  V30 6364 C 624.801 -0.00648082 3.59499 0
M  V30 6365 C 624.465 1.25503 4.39429 0
M  V30 6366 C 625.462 2.18241 4.71876 0
M  V30 6367 C 623.147 1.49494 4.79538 0
M  V30 6368 C 625.141 3.33268 5.43333 0
M  V30 6369 C 622.828 2.64815 5.50742 0
M  V30 6370 C 623.826 3.56528 5.82561 0
M  V30 6371 O 623.514 4.69836 6.52311 0
M  V30 6372 H 623.246 0.0844124 0.670709 0
M  V30 6373 H 625.8 0.88638 1.8529 0
M  V30 6374 H 624.03 -0.782661 3.78697 0
M  V30 6375 H 625.719 -0.444794 4.03456 0
M  V30 6376 H 626.485 2.00946 4.41413 0
M  V30 6377 H 622.364 0.789912 4.54182 0
M  V30 6378 H 625.908 4.04874 5.68087 0
M  V30 6379 H 621.805 2.82047 5.8062 0
M  V30 6380 H 622.573 4.69024 6.70789 0
M  V30 6381 N 625.236 -1.5273 0.388769 0
M  V30 6382 C 626.464 -2.05992 -0.193677 0
M  V30 6383 C 626.879 -1.26053 -1.40557 0
M  V30 6384 O 626.236 -0.307049 -1.79898 0
M  V30 6385 C 626.287 -3.57068 -0.564321 0
M  V30 6386 O 626.008 -4.3398 0.599422 0
M  V30 6387 C 627.509 -4.26674 -1.20269 0
M  V30 6388 H 624.729 -0.670358 -0.0293445 0
M  V30 6389 H 627.273 -1.96857 0.553844 0
M  V30 6390 H 625.428 -3.66277 -1.26174 0
M  V30 6391 H 625.842 -5.2367 0.294895 0
M  V30 6392 H 627.316 -5.33625 -1.4124 0
M  V30 6393 H 627.793 -3.81854 -2.16989 0
M  V30 6394 H 628.399 -4.2178 -0.546047 0
M  V30 6395 N 626.714 -0.118576 -1.57153 0
M  V30 6396 C 627.646 0.862247 -2.12363 0
M  V30 6397 C 628.659 1.23025 -1.06625 0
M  V30 6398 O 629.848 1.17927 -1.33998 0
M  V30 6399 C 626.948 2.16425 -2.60794 0
M  V30 6400 C 626.121 1.96801 -3.90626 0
M  V30 6401 C 625.18 3.10726 -4.2466 0
M  V30 6402 O 624.206 2.83659 -4.93484 0
M  V30 6403 N 625.408 4.37147 -3.81946 0
M  V30 6404 H 628.173 0.390564 -2.97144 0
M  V30 6405 H 625.734 0.0658591 -1.61766 0
M  V30 6406 H 627.726 2.91633 -2.80593 0
M  V30 6407 H 626.296 2.54943 -1.80895 0
M  V30 6408 H 625.516 1.05787 -3.7974 0
M  V30 6409 H 626.804 1.80993 -4.7552 0
M  V30 6410 H 626.202 4.62014 -3.26435 0
M  V30 6411 H 624.759 5.09229 -4.06853 0
M  V30 6412 N 628.193 1.56834 0.155195 0
M  V30 6413 C 629.439 1.84058 0.865687 0
M  V30 6414 C 629.794 0.701418 1.79159 0
M  V30 6415 O 629.087 -0.301162 1.89218 0
M  V30 6416 C 629.281 3.15239 1.68402 0
M  V30 6417 C 629.11 4.41807 0.838847 0
M  V30 6418 C 627.88 5.02744 0.507645 0
M  V30 6419 C 630.078 5.14009 0.172946 0
M  V30 6420 N 628.06 6.1289 -0.351978 0
M  V30 6421 C 629.431 6.17581 -0.547158 0
M  V30 6422 C 631.486 4.97814 0.0927721 0
M  V30 6423 C 630.189 7.06711 -1.33985 0
M  V30 6424 C 632.215 5.874 -0.686638 0
M  V30 6425 C 631.577 6.90447 -1.39505 0
M  V30 6426 H 627.676 0.724276 0.294871 0
M  V30 6427 H 630.26 1.94255 0.131583 0
M  V30 6428 H 628.431 3.06205 2.38942 0
M  V30 6429 H 630.163 3.304 2.33705 0
M  V30 6430 H 626.918 4.66064 0.841517 0
M  V30 6431 H 627.342 6.72577 -0.772573 0
M  V30 6432 H 631.984 4.18138 0.626112 0
M  V30 6433 H 629.702 7.8582 -1.88448 0
M  V30 6434 H 633.288 5.76938 -0.750555 0
M  V30 6435 H 632.168 7.58571 -1.98847 0
M  V30 6436 N 629.671 -0.424282 1.51781 0
M  V30 6437 C 630.896 -1.19928 1.6921 0
M  V30 6438 C 631.321 -1.8392 0.394355 0
M  V30 6439 O 630.679 -1.69371 -0.646778 0
M  V30 6440 C 630.727 -2.24937 2.81843 0
M  V30 6441 O 629.831 -3.3073 2.46356 0
M  V30 6442 H 629.172 -0.35078 0.563781 0
M  V30 6443 H 631.702 -0.499401 1.98412 0
M  V30 6444 H 631.712 -2.69512 3.06312 0
M  V30 6445 H 630.387 -1.77742 3.76006 0
M  V30 6446 H 628.964 -2.9154 2.32505 0
M  V30 6447 N 631.149 -1.42148 -0.680565 0
M  V30 6448 C 632.397 -1.42029 -1.43779 0
M  V30 6449 C 632.718 -0.0356347 -1.94967 0
M  V30 6450 O 631.988 0.924936 -1.7269 0
M  V30 6451 H 630.568 -0.522835 -0.533529 0
M  V30 6452 H 633.23 -1.7752 -0.804538 0
M  V30 6453 H 632.326 -2.11658 -2.29363 0
M  V30 6454 N 632.627 0.916307 -1.28225 0
M  V30 6455 C 633.852 1.7043 -1.18188 0
M  V30 6456 C 634.277 1.86346 0.256274 0
M  V30 6457 O 633.635 1.37175 1.18544 0
M  V30 6458 C 633.683 3.07546 -1.88275 0
M  V30 6459 O 632.787 3.94904 -1.18848 0
M  V30 6460 H 632.128 0.521967 -0.410423 0
M  V30 6461 H 634.658 1.14589 -1.69501 0
M  V30 6462 H 634.668 3.57793 -1.96082 0
M  V30 6463 H 633.343 2.95279 -2.92887 0
M  V30 6464 H 631.92 3.53339 -1.19187 0
M  V30 6465 N 634.105 1.10431 1.1244 0
M  V30 6466 C 635.351 0.847972 1.84221 0
M  V30 6467 C 635.684 -0.624903 1.83871 0
M  V30 6468 O 634.959 -1.46074 1.28423 0
M  V30 6469 C 635.242 1.39695 3.319 0
M  V30 6470 C 635.095 2.93668 3.40704 0
M  V30 6471 C 636.414 1.03924 4.27654 0
M  V30 6472 H 633.533 0.309502 0.668863 0
M  V30 6473 H 636.175 1.36745 1.31912 0
M  V30 6474 H 634.325 0.955095 3.76577 0
M  V30 6475 H 635.997 3.46379 3.04662 0
M  V30 6476 H 634.24 3.30272 2.81252 0
M  V30 6477 H 634.911 3.27162 4.446 0
M  V30 6478 H 637.387 1.42049 3.91102 0
M  V30 6479 H 636.263 1.45027 5.29394 0
M  V30 6480 H 636.524 -0.051336 4.4207 0
M  V30 6481 N 635.583 -1.29855 0.893053 0
M  V30 6482 C 636.493 -2.31661 0.370157 0
M  V30 6483 C 637.509 -1.65677 -0.531723 0
M  V30 6484 O 638.685 -1.9691 -0.422902 0
M  V30 6485 C 635.75 -3.44388 -0.399741 0
M  V30 6486 C 634.811 -4.2598 0.532861 0
M  V30 6487 C 634.044 -5.33324 -0.200388 0
M  V30 6488 O 634.267 -5.52305 -1.42531 0
M  V30 6489 O 633.201 -6.00188 0.453668 0
M  V30 6490 H 637.027 -2.78354 1.2146 0
M  V30 6491 H 634.612 -1.34171 0.657153 0
M  V30 6492 H 636.494 -4.13037 -0.835358 0
M  V30 6493 H 635.169 -2.99815 -1.22035 0
M  V30 6494 H 634.076 -3.59998 1.01746 0
M  V30 6495 H 635.409 -4.74178 1.3197 0
M  V30 6496 N 637.061 -0.65484 -1.43351 0
M  V30 6497 C 638.31 -0.166215 -2.01014 0
M  V30 6498 C 638.623 1.22764 -1.52278 0
M  V30 6499 O 639.829 1.81156 -2.02224 0
M  V30 6500 C 638.285 -0.246341 -3.59056 0
M  V30 6501 C 637.893 -1.64299 -4.16785 0
M  V30 6502 C 639.637 0.184597 -4.24098 0
M  V30 6503 C 637.544 -1.67695 -5.67126 0
M  V30 6504 H 636.474 -0.0583769 -0.751737 0
M  V30 6505 H 639.125 -0.817111 -1.64303 0
M  V30 6506 H 637.507 0.472092 -3.93176 0
M  V30 6507 H 638.681 -2.3869 -3.94162 0
M  V30 6508 H 636.996 -2.02004 -3.6412 0
M  V30 6509 H 639.593 0.179088 -5.344 0
M  V30 6510 H 639.936 1.21632 -3.98135 0
M  V30 6511 H 640.469 -0.482141 -3.94867 0
M  V30 6512 H 637.208 -2.68783 -5.9786 0
M  V30 6513 H 636.728 -0.976313 -5.91801 0
M  V30 6514 H 638.407 -1.42142 -6.31193 0
M  V30 6515 N 638.539 1.52521 -0.396863 0
M  V30 6516 C 639.767 2.06091 0.18275 0
M  V30 6517 C 640.182 1.26796 1.39886 0
M  V30 6518 O 639.539 0.316585 1.79733 0
M  V30 6519 C 639.59 3.57362 0.545377 0
M  V30 6520 O 639.311 4.33656 -0.622428 0
M  V30 6521 C 640.812 4.27305 1.18004 0
M  V30 6522 H 638.032 0.670504 0.025789 0
M  V30 6523 H 640.576 1.96561 -0.564276 0
M  V30 6524 H 638.731 3.66941 1.2423 0
M  V30 6525 H 639.145 5.23507 -0.322662 0
M  V30 6526 H 640.619 5.34366 1.38408 0
M  V30 6527 H 641.096 3.83 2.1496 0
M  V30 6528 H 641.702 4.22064 0.523671 0
M  V30 6529 N 640.017 0.126909 1.57088 0
M  V30 6530 C 641.257 -0.53216 1.97351 0
M  V30 6531 C 641.621 -1.63342 1.00913 0
M  V30 6532 O 642.822 -2.35194 1.30144 0
M  V30 6533 C 641.093 -1.04385 3.41817 0
M  V30 6534 S 642.652 -1.71033 4.04095 0
M  V30 6535 H 639.47 -0.172724 0.689701 0
M  V30 6536 H 642.072 0.213865 1.94327 0
M  V30 6537 H 640.776 -0.231289 4.09748 0
M  V30 6538 H 640.307 -1.82496 3.48509 0
M  V30 6539 H 642.322 -2.99656 3.95501 0
M  V30 6540 N 641.495 -1.56914 -0.146875 0
M  V30 6541 C 642.428 -1.93425 -1.21087 0
M  V30 6542 C 643.406 -0.800106 -1.41552 0
M  V30 6543 O 644.59 -1.05572 -1.56162 0
M  V30 6544 C 641.717 -2.20639 -2.56975 0
M  V30 6545 C 640.763 -3.43279 -2.53104 0
M  V30 6546 S 641.596 -4.96836 -1.99786 0
M  V30 6547 C 642.752 -5.27172 -3.37403 0
M  V30 6548 H 642.985 -2.8337 -0.899378 0
M  V30 6549 H 640.518 -1.50322 -0.352494 0
M  V30 6550 H 642.476 -2.36998 -3.35175 0
M  V30 6551 H 641.137 -1.31357 -2.85314 0
M  V30 6552 H 640.33 -3.59599 -3.53136 0
M  V30 6553 H 639.932 -3.26163 -1.83012 0
M  V30 6554 H 642.224 -5.20647 -4.33513 0
M  V30 6555 H 643.167 -6.28626 -3.25937 0
M  V30 6556 H 643.575 -4.54687 -3.34544 0
M  V30 6557 N 642.974 0.416227 -1.52004 0
M  V30 6558 C 644.221 1.16383 -1.65714 0
M  V30 6559 C 644.549 1.9068 -0.383594 0
M  V30 6560 O 643.804 1.85174 0.633185 0
M  V30 6561 C 644.103 2.18923 -2.82502 0
M  V30 6562 C 643.769 1.61485 -4.20991 0
M  V30 6563 C 642.431 1.45545 -4.58661 0
M  V30 6564 C 644.783 1.19468 -5.07323 0
M  V30 6565 C 642.111 0.860937 -5.80349 0
M  V30 6566 C 644.463 0.614386 -6.29609 0
M  V30 6567 C 643.127 0.442056 -6.66035 0
M  V30 6568 H 642.397 0.425875 -0.606392 0
M  V30 6569 H 645.044 0.45199 -1.8609 0
M  V30 6570 H 643.349 2.96225 -2.56433 0
M  V30 6571 H 645.046 2.76628 -2.90307 0
M  V30 6572 H 641.636 1.74873 -3.91302 0
M  V30 6573 H 645.82 1.30596 -4.78809 0
M  V30 6574 H 641.076 0.715372 -6.072 0
M  V30 6575 H 645.25 0.280393 -6.95835 0
M  V30 6576 H 642.877 -0.0207218 -7.60197 0
M  V30 6577 N 644.452 1.42507 0.673017 0
M  V30 6578 C 645.68 1.46473 1.46128 0
M  V30 6579 C 646.095 0.0765912 1.88645 0
M  V30 6580 O 645.452 -0.909057 1.58248 0
M  V30 6581 C 645.503 2.39339 2.70923 0
M  V30 6582 O 645.224 3.72752 2.3019 0
M  V30 6583 C 646.725 2.52343 3.64469 0
M  V30 6584 H 643.945 0.49812 0.449575 0
M  V30 6585 H 646.489 1.87041 0.826802 0
M  V30 6586 H 644.644 2.02019 3.30556 0
M  V30 6587 H 645.058 4.22503 3.10791 0
M  V30 6588 H 646.532 3.2144 4.48754 0
M  V30 6589 H 647.009 1.56189 4.1049 0
M  V30 6590 H 647.615 2.90392 3.10729 0
M  V30 6591 N 645.93 -0.909495 1.28709 0
M  V30 6592 C 647.178 -1.65577 1.15882 0
M  V30 6593 C 647.499 -1.928 -0.292108 0
M  V30 6594 O 646.769 -1.54716 -1.20166 0
M  V30 6595 H 645.349 -0.613714 0.425869 0
M  V30 6596 H 648.011 -1.09108 1.61498 0
M  V30 6597 H 647.107 -2.61634 1.70159 0
M  V30 6598 N 647.408 -1.11026 -1.11852 0
M  V30 6599 C 648.636 -0.878818 -1.87308 0
M  V30 6600 C 649.051 0.57111 -1.79955 0
M  V30 6601 O 648.408 1.39409 -1.17777 0
M  V30 6602 C 648.459 -1.3264 -3.36287 0
M  V30 6603 O 648.18 -2.71948 -3.43476 0
M  V30 6604 C 649.681 -1.12974 -4.28663 0
M  V30 6605 H 646.901 -0.315015 -0.592458 0
M  V30 6606 H 649.445 -1.47649 -1.41492 0
M  V30 6607 H 647.6 -0.772269 -3.79625 0
M  V30 6608 H 648.014 -2.91241 -4.3621 0
M  V30 6609 H 649.488 -1.49198 -5.31454 0
M  V30 6610 H 649.965 -0.0689127 -4.39146 0
M  V30 6611 H 650.571 -1.67064 -3.91113 0
M  V30 6612 N 648.886 1.2938 -0.899927 0
M  V30 6613 C 650.133 1.9555 -0.525963 0
M  V30 6614 C 650.461 1.70945 0.927789 0
M  V30 6615 O 649.716 1.01545 1.67293 0
M  V30 6616 C 650.015 3.49114 -0.765113 0
M  V30 6617 C 649.681 3.93796 -2.19626 0
M  V30 6618 C 648.343 4.05707 -2.58758 0
M  V30 6619 C 650.695 4.16883 -3.12823 0
M  V30 6620 C 648.023 4.38074 -3.90267 0
M  V30 6621 C 650.375 4.50725 -4.4388 0
M  V30 6622 C 649.039 4.60845 -4.82885 0
M  V30 6623 H 648.309 0.715569 -0.192463 0
M  V30 6624 H 650.956 1.53972 -1.13863 0
M  V30 6625 H 649.261 3.91738 -0.069531 0
M  V30 6626 H 650.958 3.98409 -0.455144 0
M  V30 6627 H 647.548 3.85042 -1.88256 0
M  V30 6628 H 651.732 4.07147 -2.83804 0
M  V30 6629 H 646.988 4.44112 -4.20207 0
M  V30 6630 H 651.162 4.67538 -5.16121 0
M  V30 6631 H 648.789 4.85681 -5.84823 0
M  V30 6632 N 650.364 0.662433 1.43002 0
M  V30 6633 C 651.297 -0.073459 2.28082 0
M  V30 6634 C 652.275 -0.820869 1.40358 0
M  V30 6635 O 653.459 -0.818545 1.698 0
M  V30 6636 C 650.586 -1.11097 3.19961 0
M  V30 6637 C 649.632 -0.460557 4.24006 0
M  V30 6638 S 650.465 0.772717 5.29896 0
M  V30 6639 C 651.621 -0.264028 6.25343 0
M  V30 6640 H 651.854 0.648227 2.90147 0
M  V30 6641 H 649.387 0.451566 1.47649 0
M  V30 6642 H 651.345 -1.70452 3.73439 0
M  V30 6643 H 650.006 -1.80503 2.57056 0
M  V30 6644 H 649.199 -1.24299 4.88432 0
M  V30 6645 H 648.801 0.0591038 3.73953 0
M  V30 6646 H 651.093 -1.12748 6.68052 0
M  V30 6647 H 652.036 0.345443 7.07257 0
M  V30 6648 H 652.444 -0.603964 5.6126 0
M  V30 6649 N 651.842 -1.52309 0.404946 0
M  V30 6650 C 653.07 -2.06185 -0.171818 0
M  V30 6651 C 653.485 -1.27536 -1.39212 0
M  V30 6652 O 652.842 -0.326112 -1.79563 0
M  V30 6653 C 652.893 -3.57647 -0.526417 0
M  V30 6654 O 652.614 -4.3332 0.645417 0
M  V30 6655 C 654.115 -4.27925 -1.15736 0
M  V30 6656 H 651.335 -0.670632 -0.0222328 0
M  V30 6657 H 653.879 -1.96259 0.574692 0
M  V30 6658 H 652.034 -3.67595 -1.22282 0
M  V30 6659 H 652.448 -5.23328 0.35042 0
M  V30 6660 H 653.922 -5.35093 -1.35572 0
M  V30 6661 H 654.399 -3.84134 -2.12926 0
M  V30 6662 H 655.005 -4.22335 -0.501281 0
M  V30 6663 N 653.32 -0.135238 -1.57019 0
M  V30 6664 C 654.548 0.526066 -2.001 0
M  V30 6665 C 654.963 1.59184 -1.01519 0
M  V30 6666 O 654.32 1.82497 -0.0104258 0
M  V30 6667 C 654.371 1.13744 -3.43139 0
M  V30 6668 O 654.092 0.114259 -4.37951 0
M  V30 6669 C 655.593 1.8805 -4.01438 0
M  V30 6670 H 652.813 0.137962 -0.656664 0
M  V30 6671 H 655.357 -0.226359 -2.03243 0
M  V30 6672 H 653.512 1.84056 -3.40885 0
M  V30 6673 H 653.926 0.56058 -5.21496 0
M  V30 6674 H 655.4 2.26133 -5.03555 0
M  V30 6675 H 655.877 2.76194 -3.41487 0
M  V30 6676 H 656.483 1.22464 -4.07287 0
M  V30 6677 N 654.798 1.5699 0.138552 0
M  V30 6678 C 656.046 1.83446 0.848053 0
M  V30 6679 C 656.367 0.71744 1.81322 0
M  V30 6680 O 655.637 -0.260228 1.94164 0
M  V30 6681 H 654.217 0.676792 0.316166 0
M  V30 6682 H 656.879 1.94462 0.130538 0
M  V30 6683 H 655.975 2.78677 1.40518 0
M  V30 6684 N 656.276 -0.40816 1.52223 0
M  V30 6685 C 657.223 -1.49737 1.75635 0
M  V30 6686 C 658.193 -1.5493 0.598824 0
M  V30 6687 O 659.378 -1.71487 0.83648 0
M  V30 6688 C 656.518 -2.87174 1.91376 0
M  V30 6689 C 655.631 -2.91283 3.19027 0
M  V30 6690 C 654.766 -4.20026 3.25195 0
M  V30 6691 C 653.805 -4.18113 4.47044 0
M  V30 6692 N 652.942 -5.38429 4.50598 0
M  V30 6693 H 657.782 -1.29075 2.68596 0
M  V30 6694 H 655.319 -0.626518 1.33091 0
M  V30 6695 H 657.277 -3.66959 1.98486 0
M  V30 6696 H 655.907 -3.06329 1.01795 0
M  V30 6697 H 654.959 -2.03984 3.21084 0
M  V30 6698 H 656.271 -2.85734 4.08849 0
M  V30 6699 H 655.425 -5.08204 3.31382 0
M  V30 6700 H 654.164 -4.28271 2.33313 0
M  V30 6701 H 653.169 -3.28325 4.41002 0
M  V30 6702 H 654.394 -4.11507 5.40221 0
M  V30 6703 H 652.34 -5.4734 3.616 0
M  V30 6704 H 652.257 -5.34879 5.34266 0
M  V30 6705 H 653.525 -6.28557 4.61016 0
M  V30 6706 N 657.755 -1.42862 -0.66545 0
M  V30 6707 C 659.001 -1.44043 -1.42757 0
M  V30 6708 C 659.334 -0.0599629 -1.94107 0
M  V30 6709 O 658.609 0.917286 -1.71511 0
M  V30 6710 C 658.892 -2.47266 -2.61786 0
M  V30 6711 C 658.745 -3.94539 -2.16007 0
M  V30 6712 C 660.064 -2.47365 -3.64003 0
M  V30 6713 H 657.183 -0.524506 -0.517748 0
M  V30 6714 H 659.825 -1.74335 -0.755466 0
M  V30 6715 H 657.975 -2.21565 -3.19126 0
M  V30 6716 H 659.647 -4.31254 -1.63762 0
M  V30 6717 H 657.89 -4.07957 -1.47491 0
M  V30 6718 H 658.561 -4.62357 -3.01546 0
M  V30 6719 H 661.037 -2.70243 -3.16399 0
M  V30 6720 H 659.913 -3.21552 -4.44854 0
M  V30 6721 H 660.174 -1.50299 -4.15767 0
M  V30 6722 N 659.233 0.902656 -1.29189 0
M  V30 6723 C 660.163 2.02294 -1.16616 0
M  V30 6724 C 661.144 1.6999 -0.0611175 0
M  V30 6725 O 662.329 1.9271 -0.240072 0
M  V30 6726 C 659.459 3.37018 -0.83882 0
M  V30 6727 C 658.413 3.83522 -1.89986 0
M  V30 6728 C 657.739 5.15337 -1.42589 0
M  V30 6729 C 659.039 4.04169 -3.30824 0
M  V30 6730 H 660.733 2.13071 -2.10336 0
M  V30 6731 H 658.279 1.02378 -1.01266 0
M  V30 6732 H 660.232 4.14895 -0.737584 0
M  V30 6733 H 658.956 3.26325 0.134071 0
M  V30 6734 H 657.615 3.07859 -1.99043 0
M  V30 6735 H 657.263 5.01056 -0.441759 0
M  V30 6736 H 656.963 5.47423 -2.13547 0
M  V30 6737 H 658.487 5.95758 -1.3381 0
M  V30 6738 H 659.901 4.72537 -3.24626 0
M  V30 6739 H 658.298 4.47604 -3.99713 0
M  V30 6740 H 659.368 3.08604 -3.74021 0
M  V30 6741 N 660.711 1.11618 1.11262 0
M  V30 6742 C 661.641 0.79846 2.19424 0
M  V30 6743 C 662.622 -0.234003 1.68483 0
M  V30 6744 O 663.807 -0.0970704 1.93957 0
M  V30 6745 C 660.937 0.242892 3.4645 0
M  V30 6746 C 659.891 1.20744 4.10615 0
M  V30 6747 C 659.217 0.512494 5.32238 0
M  V30 6748 C 660.517 2.55884 4.55325 0
M  V30 6749 H 662.211 1.70286 2.46258 0
M  V30 6750 H 659.757 0.820195 1.18359 0
M  V30 6751 H 661.71 0.00840447 4.21399 0
M  V30 6752 H 660.434 -0.696811 3.1908 0
M  V30 6753 H 659.093 1.42759 3.37662 0
M  V30 6754 H 658.741 -0.432075 5.01141 0
M  V30 6755 H 658.441 1.15583 5.7612 0
M  V30 6756 H 659.965 0.286842 6.09926 0
M  V30 6757 H 661.379 2.37946 5.21588 0
M  V30 6758 H 659.776 3.16216 5.10027 0
M  V30 6759 H 660.846 3.14968 3.68678 0
M  V30 6760 N 662.189 -1.289 0.906776 0
M  V30 6761 C 663.152 -2.25777 0.394656 0
M  V30 6762 C 664.152 -1.53621 -0.475119 0
M  V30 6763 O 665.342 -1.71949 -0.279165 0
M  V30 6764 C 662.474 -3.38113 -0.43499 0
M  V30 6765 H 663.667 -2.72592 1.25033 0
M  V30 6766 H 661.22 -1.40463 0.685547 0
M  V30 6767 H 661.955 -2.96648 -1.31036 0
M  V30 6768 H 661.74 -3.91647 0.188334 0
M  V30 6769 H 663.23 -4.10168 -0.784365 0
M  V30 6770 N 663.667 -0.670007 -1.42649 0
M  V30 6771 C 664.897 -0.198252 -2.05647 0
M  V30 6772 C 665.305 1.14786 -1.50402 0
M  V30 6773 O 664.648 1.72316 -0.636634 0
M  V30 6774 C 664.71 -0.0507132 -3.59464 0
M  V30 6775 C 664.374 -1.32478 -4.37377 0
M  V30 6776 C 665.371 -2.2572 -4.68344 0
M  V30 6777 C 663.056 -1.57104 -4.77099 0
M  V30 6778 C 665.05 -3.4187 -5.37963 0
M  V30 6779 C 662.737 -2.73543 -5.46459 0
M  V30 6780 C 663.735 -3.65751 -5.76815 0
M  V30 6781 O 663.423 -4.80154 -6.44753 0
M  V30 6782 H 663.155 -0.0950721 -0.669281 0
M  V30 6783 H 665.709 -0.915745 -1.83857 0
M  V30 6784 H 663.939 0.722314 -3.79894 0
M  V30 6785 H 665.628 0.380552 -4.04112 0
M  V30 6786 H 666.394 -2.07943 -4.38161 0
M  V30 6787 H 662.273 -0.862069 -4.52868 0
M  V30 6788 H 665.817 -4.13861 -5.61574 0
M  V30 6789 H 661.714 -2.91248 -5.7606 0
M  V30 6790 H 662.482 -4.79637 -6.63243 0
M  V30 6791 N 665.145 1.52092 -0.413018 0
M  V30 6792 C 666.373 2.06274 0.160881 0
M  V30 6793 C 666.788 1.28273 1.38533 0
M  V30 6794 O 666.145 0.33563 1.79387 0
M  V30 6795 C 666.196 3.57921 0.507443 0
M  V30 6796 O 665.917 4.32971 -0.668388 0
M  V30 6797 C 667.418 4.28533 1.13465 0
M  V30 6798 H 664.638 0.67074 0.0186759 0
M  V30 6799 H 667.182 1.95951 -0.585092 0
M  V30 6800 H 665.337 3.68238 1.20331 0
M  V30 6801 H 665.751 5.23135 -0.378169 0
M  V30 6802 H 667.225 5.35804 1.32732 0
M  V30 6803 H 667.702 3.85258 2.10886 0
M  V30 6804 H 668.308 4.22595 0.478876 0
M  V30 6805 N 666.623 0.143563 1.56945 0
M  V30 6806 C 668.034 -0.37783 1.82837 0
M  V30 6807 C 668.385 -1.64967 1.06209 0
M  V30 6808 O 667.51 -2.14221 0.306291 0
M  V30 6809 C 668.105 -0.692274 3.31652 0
M  V30 6810 C 666.664 -1.1582 3.58138 0
M  V30 6811 C 665.811 -0.17951 2.76718 0
M  V30 6812 H 668.762 0.368317 1.54367 0
M  V30 6813 H 668.783 -1.54729 3.47619 0
M  V30 6814 H 668.295 0.233572 3.87397 0
M  V30 6815 H 666.396 -2.10011 3.07776 0
M  V30 6816 H 666.509 -1.08655 4.66616 0
M  V30 6817 H 664.873 -0.671458 2.4569 0
M  V30 6818 H 665.656 0.739865 3.35233 0
M  V30 6819 N 668.101 -1.57061 -0.130224 0
M  V30 6820 C 669.512 -1.73539 -0.68856 0
M  V30 6821 C 669.863 -0.760554 -1.80859 0
M  V30 6822 O 668.988 0.0690796 -2.1629 0
M  V30 6823 C 669.583 -3.14666 -1.25581 0
M  V30 6824 C 668.142 -3.32689 -1.76055 0
M  V30 6825 C 667.289 -2.69436 -0.655712 0
M  V30 6826 H 670.24 -1.58412 0.0956002 0
M  V30 6827 H 670.261 -3.15595 -2.12556 0
M  V30 6828 H 669.773 -3.85593 -0.440412 0
M  V30 6829 H 667.874 -2.66786 -2.60108 0
M  V30 6830 H 667.987 -4.4077 -1.87772 0
M  V30 6831 H 666.351 -2.30362 -1.08654 0
M  V30 6832 H 667.134 -3.42979 0.14852 0
M  V30 6833 N 669.579 0.400081 -1.52437 0
M  V30 6834 C 670.827 1.14392 -1.6661 0
M  V30 6835 C 671.148 1.90792 -0.402927 0
M  V30 6836 O 670.418 1.87042 0.582425 0
M  V30 6837 H 668.998 0.425275 -0.614125 0
M  V30 6838 H 671.66 0.455076 -1.89513 0
M  V30 6839 H 670.756 1.85298 -2.51139 0
M  V30 6840 N 671.057 1.43213 0.657864 0
M  V30 6841 C 672.305 1.44298 1.41501 0
M  V30 6842 C 672.626 0.0666478 1.94886 0
M  V30 6843 O 671.896 -0.897345 1.74139 0
M  V30 6844 H 670.476 0.531257 0.525143 0
M  V30 6845 H 673.138 1.78777 0.776195 0
M  V30 6846 H 672.234 2.1528 2.25966 0
M  V30 6847 N 672.536 -0.895792 1.29666 0
M  V30 6848 C 673.813 -1.62723 1.08538 0
M  V30 6849 C 674.193 -2.07848 -0.369119 0
M  V30 6850 O 673.541 -1.8372 -1.35864 0
M  V30 6851 C 673.751 -2.80505 2.07648 0
M  V30 6852 C 675.099 -3.51098 2.3878 0
M  V30 6853 O 676.123 -2.90679 2.05874 0
M  V30 6854 O 674.982 -4.60028 2.9502 0
M  V30 6855 H 672.076 -0.714692 0.416106 0
M  V30 6856 H 674.622 -0.943517 1.41053 0
M  V30 6857 H 673.394 -2.44386 3.05599 0
M  V30 6858 H 673.017 -3.5658 1.75887 0
M  V30 6859 N 674.014 -1.12206 -1.10668 0
M  V30 6860 C 674.947 -0.731468 -2.16159 0
M  V30 6861 C 675.925 0.276216 -1.60237 0
M  V30 6862 O 677.109 0.17074 -1.87725 0
M  V30 6863 C 674.236 -0.0822882 -3.386 0
M  V30 6864 C 673.282 -1.05641 -4.1321 0
M  V30 6865 S 674.115 -2.58281 -4.69096 0
M  V30 6866 C 675.271 -1.94686 -5.94851 0
M  V30 6867 H 675.504 -1.62504 -2.48957 0
M  V30 6868 H 673.037 -0.940906 -1.22419 0
M  V30 6869 H 674.995 0.285896 -4.09503 0
M  V30 6870 H 673.656 0.788358 -3.04046 0
M  V30 6871 H 672.849 -0.549764 -5.00993 0
M  V30 6872 H 672.451 -1.36741 -3.48106 0
M  V30 6873 H 674.743 -1.28815 -6.65141 0
M  V30 6874 H 675.686 -2.80499 -6.50174 0
M  V30 6875 H 676.094 -1.40369 -5.46769 0
M  V30 6876 N 675.492 1.28418 -0.913599 0
M  V30 6877 C 676.903 1.77024 -0.593237 0
M  V30 6878 C 677.254 1.74779 0.891441 0
M  V30 6879 O 676.379 1.34237 1.69733 0
M  V30 6880 C 676.974 3.21456 -1.07011 0
M  V30 6881 C 675.533 3.67786 -0.800664 0
M  V30 6882 C 674.68 2.48185 -1.23691 0
M  V30 6883 H 677.631 1.14883 -1.09487 0
M  V30 6884 H 677.652 3.78269 -0.411481 0
M  V30 6885 H 677.164 3.23058 -2.1507 0
M  V30 6886 H 675.265 3.71644 0.266725 0
M  V30 6887 H 675.378 4.57934 -1.4083 0
M  V30 6888 H 673.742 2.46116 -0.655655 0
M  V30 6889 H 674.525 2.52506 -2.32585 0
M  V30 6890 N 676.97 0.677563 1.42291 0
M  V30 6891 C 678.386 0.347376 1.55774 0
M  V30 6892 C 678.586 -1.14703 1.65667 0
M  V30 6893 O 677.642 -1.93252 1.62512 0
M  V30 6894 C 678.955 1.08011 2.80631 0
M  V30 6895 C 680.503 1.06271 2.94407 0
M  V30 6896 C 680.978 1.77683 4.22129 0
M  V30 6897 N 682.469 1.74564 4.29047 0
M  V30 6898 C 683.204 2.26673 5.26694 0
M  V30 6899 N 682.7 2.87176 6.30477 0
M  V30 6900 N 684.493 2.17032 5.18511 0
M  V30 6901 H 676.644 1.64703 1.34114 0
M  V30 6902 H 678.907 0.694038 0.645768 0
M  V30 6903 H 678.613 2.13518 2.79469 0
M  V30 6904 H 678.487 0.647115 3.71608 0
M  V30 6905 H 680.874 0.0159658 2.95096 0
M  V30 6906 H 680.955 1.53461 2.04654 0
M  V30 6907 H 680.599 2.82327 4.22201 0
M  V30 6908 H 680.529 1.2794 5.10822 0
M  V30 6909 H 683.02 1.30436 3.54676 0
M  V30 6910 H 683.333 3.24551 7.01346 0
M  V30 6911 H 681.678 2.91247 6.31031 0
M  V30 6912 H 684.869 1.69451 4.36353 0
M  V30 6913 H 685.042 2.57948 5.94446 0
M  V30 6914 N 678.448 -1.51871 0.421078 0
M  V30 6915 C 679.396 -2.28903 -0.413066 0
M  V30 6916 C 680.39 -1.3408 -1.03532 0
M  V30 6917 O 681.596 -1.5149 -0.972146 0
M  V30 6918 H 677.971 -0.736478 -0.152003 0
M  V30 6919 H 679.942 -2.97285 0.257695 0
M  V30 6920 C 678.691 -3.13156 -1.51091 0
M  V30 6921 H 678.014 -3.85997 -1.04145 0
M  V30 6922 H 679.454 -3.7014 -2.06814 0
M  V30 6923 C 677.913 -2.27482 -2.48503 0
M  V30 6924 O 678.443 -1.92325 -3.52667 0
M  V30 6925 N 676.649 -1.91019 -2.18998 0
M  V30 6926 H 676.196 -2.19808 -1.34322 0
M  V30 6927 H 676.154 -1.3399 -2.84419 0
M  V30 6928 N 679.926 -0.151884 -1.56866 0
M  V30 6929 C 681.342 0.204486 -1.58285 0
M  V30 6930 C 681.542 1.6431 -1.16639 0
M  V30 6931 O 680.598 2.37077 -0.868946 0
M  V30 6932 C 681.911 -0.0587019 -3.00643 0
M  V30 6933 C 683.459 0.00462303 -3.13 0
M  V30 6934 C 683.934 -0.231297 -4.57416 0
M  V30 6935 N 685.425 -0.178394 -4.62856 0
M  V30 6936 C 686.16 -0.335379 -5.72418 0
M  V30 6937 N 685.656 -0.550355 -6.90611 0
M  V30 6938 N 687.449 -0.272641 -5.61438 0
M  V30 6939 H 679.6 -1.09116 -1.82229 0
M  V30 6940 H 681.863 -0.432311 -0.843689 0
M  V30 6941 H 681.569 -1.05453 -3.35518 0
M  V30 6942 H 681.443 0.658508 -3.71407 0
M  V30 6943 H 683.83 0.991009 -2.77962 0
M  V30 6944 H 683.911 -0.744992 -2.44711 0
M  V30 6945 H 683.555 -1.2148 -4.93158 0
M  V30 6946 H 683.485 0.5387 -5.23837 0
M  V30 6947 H 685.976 -0.0170923 -3.77896 0
M  V30 6948 H 686.289 -0.660116 -7.69976 0
M  V30 6949 H 684.634 -0.586736 -6.92519 0
M  V30 6950 H 687.825 -0.105421 -4.67981 0
M  V30 6951 H 687.998 -0.398418 -6.46774 0
M  V30 6952 N 681.404 1.57128 0.121893 0
M  V30 6953 C 682.314 2.03425 1.16857 0
M  V30 6954 C 683.33 0.954108 1.45509 0
M  V30 6955 O 684.506 1.26541 1.56682 0
M  V30 6956 C 681.571 2.42685 2.47599 0
M  V30 6957 C 680.632 3.64767 2.2637 0
M  V30 6958 C 679.865 4.02145 3.50878 0
M  V30 6959 O 680.088 3.39897 4.58068 0
M  V30 6960 O 679.022 4.95262 3.42051 0
M  V30 6961 H 682.848 2.92825 0.80544 0
M  V30 6962 H 680.433 1.45654 0.332477 0
M  V30 6963 H 682.315 2.68684 3.24634 0
M  V30 6964 H 680.99 1.56432 2.83392 0
M  V30 6965 H 679.897 3.43922 1.47203 0
M  V30 6966 H 681.23 4.51716 1.95482 0
M  V30 6967 N 682.882 -0.391992 1.52647 0
M  V30 6968 C 683.792 -1.503 1.80131 0
M  V30 6969 C 684.808 -1.59825 0.687882 0
M  V30 6970 O 685.984 -1.76218 0.975149 0
M  V30 6971 C 683.049 -2.85863 1.96171 0
M  V30 6972 C 682.11 -2.86084 3.20085 0
M  V30 6973 C 681.343 -4.15181 3.35351 0
M  V30 6974 O 681.566 -5.09981 2.55491 0
M  V30 6975 O 680.5 -4.22603 4.28591 0
M  V30 6976 H 684.326 -1.30007 2.74466 0
M  V30 6977 H 681.911 -0.579539 1.37701 0
M  V30 6978 H 683.793 -3.66236 2.08445 0
M  V30 6979 H 682.468 -3.06189 1.05025 0
M  V30 6980 H 681.375 -2.04504 3.13256 0
M  V30 6981 H 682.708 -2.7071 4.11068 0
M  V30 6982 N 684.36 -1.4356 -0.65026 0
M  V30 6983 C 685.323 -1.48615 -1.74489 0
M  V30 6984 C 686.323 -0.370483 -1.56474 0
M  V30 6985 O 687.513 -0.632351 -1.62317 0
M  V30 6986 C 684.645 -1.34161 -3.13391 0
M  V30 6987 H 685.838 -2.46103 -1.71387 0
M  V30 6988 H 683.391 -1.30369 -0.862186 0
M  V30 6989 H 684.126 -0.376918 -3.22102 0
M  V30 6990 H 683.911 -2.1504 -3.27872 0
M  V30 6991 H 685.401 -1.40637 -3.93206 0
M  V30 6992 N 685.838 0.888903 -1.30139 0
M  V30 6993 C 686.771 1.99655 -1.10514 0
M  V30 6994 C 687.749 1.62594 -0.0138934 0
M  V30 6995 O 688.933 1.87762 -0.166689 0
M  V30 6996 C 686.06 3.31708 -0.684655 0
M  V30 6997 C 685.106 3.87755 -1.77619 0
M  V30 6998 S 685.939 4.15532 -3.37777 0
M  V30 6999 C 687.095 5.5061 -2.97622 0
M  V30 7000 H 687.328 2.15996 -2.04287 0
M  V30 7001 H 684.861 1.03682 -1.14409 0
M  V30 7002 H 686.819 4.08039 -0.448782 0
M  V30 7003 H 685.48 3.1323 0.233648 0
M  V30 7004 H 684.673 4.83164 -1.43417 0
M  V30 7005 H 684.275 3.18149 -1.96614 0
M  V30 7006 H 686.567 6.31518 -2.45338 0
M  V30 7007 H 687.51 5.89747 -3.91924 0
M  V30 7008 H 687.918 5.12983 -2.35603 0
M  V30 7009 N 687.317 1.12792 1.10072 0
M  V30 7010 C 688.247 0.821688 2.18565 0
M  V30 7011 C 689.228 -0.21612 1.68721 0
M  V30 7012 O 690.413 -0.0764932 1.94049 0
M  V30 7013 C 687.543 0.279624 3.46172 0
M  V30 7014 C 686.497 1.25092 4.09312 0
M  V30 7015 C 685.823 0.568916 5.31665 0
M  V30 7016 C 687.123 2.60699 4.52585 0
M  V30 7017 H 688.817 1.72888 2.44438 0
M  V30 7018 H 686.363 0.832702 1.17482 0
M  V30 7019 H 688.316 0.053099 4.21367 0
M  V30 7020 H 687.04 -0.662929 3.19801 0
M  V30 7021 H 685.699 1.46332 3.36129 0
M  V30 7022 H 685.347 -0.378898 5.01571 0
M  V30 7023 H 685.047 1.21687 5.74862 0
M  V30 7024 H 686.571 0.351517 6.09587 0
M  V30 7025 H 687.985 2.43465 5.19035 0
M  V30 7026 H 686.382 3.21608 5.06644 0
M  V30 7027 H 687.452 3.1886 3.65317 0
M  V30 7028 N 688.795 -1.27931 0.920396 0
M  V30 7029 C 690.043 -1.94304 0.555906 0
M  V30 7030 C 690.364 -1.72753 -0.904519 0
M  V30 7031 O 689.634 -1.07104 -1.64029 0
M  V30 7032 H 688.214 -0.719001 0.202599 0
M  V30 7033 H 690.876 -1.55785 1.1712 0
M  V30 7034 H 689.972 -3.02806 0.755981 0
M  V30 7035 N 690.273 -0.685099 -1.4193 0
M  V30 7036 C 691.501 -0.220372 -2.05723 0
M  V30 7037 C 691.916 1.12642 -1.51516 0
M  V30 7038 O 691.273 1.70182 -0.659114 0
M  V30 7039 C 691.324 -0.157974 -3.61155 0
M  V30 7040 O 691.045 -1.45156 -4.13354 0
M  V30 7041 C 692.546 0.329009 -4.42077 0
M  V30 7042 H 689.766 -0.104725 -0.662777 0
M  V30 7043 H 692.31 -0.934736 -1.81887 0
M  V30 7044 H 690.465 0.507144 -3.84066 0
M  V30 7045 H 690.879 -1.33172 -5.07312 0
M  V30 7046 H 692.353 0.321559 -5.51063 0
M  V30 7047 H 692.83 1.36608 -4.17414 0
M  V30 7048 H 693.436 -0.304737 -4.24207 0
M  V30 7049 N 691.751 1.51645 -0.429126 0
M  V30 7050 C 692.701 2.24388 0.404217 0
M  V30 7051 C 693.685 1.26294 0.996933 0
M  V30 7052 O 694.877 1.51428 0.916434 0
M  V30 7053 C 692.006 3.08338 1.50938 0
M  V30 7054 C 691.092 4.13857 0.926464 0
M  V30 7055 N 691.483 5.05749 0.0719732 0
M  V30 7056 C 689.781 4.29695 1.19491 0
M  V30 7057 C 690.482 5.81143 -0.254528 0
M  V30 7058 N 689.458 5.42408 0.359763 0
M  V30 7059 H 693.26 2.92794 -0.254697 0
M  V30 7060 H 690.774 1.60606 -0.240712 0
M  V30 7061 H 692.771 3.59022 2.11918 0
M  V30 7062 H 691.431 2.41475 2.17072 0
M  V30 7063 H 692.442 5.17066 -0.293854 0
M  V30 7064 H 689.119 3.74059 1.85434 0
M  V30 7065 H 690.509 6.65159 -0.949365 0
M  V30 7066 N 693.229 0.160201 1.56784 0
M  V30 7067 C 694.475 -0.48831 1.96833 0
M  V30 7068 C 694.808 -1.63641 1.04571 0
M  V30 7069 O 694.083 -1.94289 0.0906481 0
M  V30 7070 C 694.366 -0.981908 3.46454 0
M  V30 7071 C 694.219 0.165607 4.49495 0
M  V30 7072 C 695.538 -1.85931 3.98896 0
M  V30 7073 H 692.657 -0.176027 0.71567 0
M  V30 7074 H 695.299 0.244093 1.88426 0
M  V30 7075 H 693.449 -1.60602 3.5375 0
M  V30 7076 H 695.121 0.802372 4.54268 0
M  V30 7077 H 693.364 0.822789 4.25926 0
M  V30 7078 H 694.035 -0.221699 5.51555 0
M  V30 7079 H 696.511 -1.33327 3.94161 0
M  V30 7080 H 695.387 -2.17373 5.04024 0
M  V30 7081 H 695.648 -2.80106 3.42042 0
M  V30 7082 N 694.707 -1.5719 -0.113559 0
M  V30 7083 C 695.953 -1.85412 -0.821597 0
M  V30 7084 C 696.286 -0.746722 -1.7927 0
M  V30 7085 O 695.561 0.246971 -1.92926 0
M  V30 7086 C 695.844 -3.24233 -1.56669 0
M  V30 7087 C 695.697 -4.45578 -0.614823 0
M  V30 7088 C 697.016 -3.60697 -2.52161 0
M  V30 7089 H 694.135 -0.674406 -0.29723 0
M  V30 7090 H 696.777 -1.89807 -0.085694 0
M  V30 7091 H 694.927 -3.20617 -2.19401 0
M  V30 7092 H 696.599 -4.613 0.00407137 0
M  V30 7093 H 694.842 -4.33738 0.0732332 0
M  V30 7094 H 695.513 -5.39395 -1.17292 0
M  V30 7095 H 697.989 -3.65139 -1.99532 0
M  V30 7096 H 696.865 -4.58798 -3.01323 0
M  V30 7097 H 697.126 -2.88403 -3.35076 0
M  V30 7098 N 696.185 0.383891 -1.52853 0
M  V30 7099 C 697.431 1.12667 -1.69345 0
M  V30 7100 C 697.786 1.87519 -0.430635 0
M  V30 7101 O 697.079 1.82742 0.575846 0
M  V30 7102 C 697.273 2.12881 -2.87082 0
M  V30 7103 C 697.102 1.47873 -4.24692 0
M  V30 7104 C 695.872 1.24064 -4.89833 0
M  V30 7105 C 698.07 0.926118 -5.05893 0
M  V30 7106 N 696.052 0.552138 -6.11412 0
M  V30 7107 C 697.423 0.365966 -6.18919 0
M  V30 7108 C 699.478 0.823023 -4.91051 0
M  V30 7109 C 698.181 -0.287204 -7.18726 0
M  V30 7110 C 700.207 0.183666 -5.91115 0
M  V30 7111 C 699.569 -0.365693 -7.0345 0
M  V30 7112 H 695.668 0.398064 -0.673104 0
M  V30 7113 H 698.252 0.415504 -1.90215 0
M  V30 7114 H 696.423 2.81329 -2.67784 0
M  V30 7115 H 698.155 2.79703 -2.92486 0
M  V30 7116 H 694.91 1.51701 -4.48647 0
M  V30 7117 H 695.334 0.223783 -6.7663 0
M  V30 7118 H 699.976 1.23354 -4.04405 0
M  V30 7119 H 697.694 -0.709719 -8.04977 0
M  V30 7120 H 701.28 0.105074 -5.81705 0
M  V30 7121 H 700.16 -0.85261 -7.79551 0
M  V30 7122 N 697.663 1.43903 0.642637 0
M  V30 7123 C 698.94 1.36556 1.40043 0
M  V30 7124 C 699.32 0.0185588 2.11092 0
M  V30 7125 O 698.668 -0.998438 2.05532 0
M  V30 7126 C 698.878 2.55596 2.37638 0
M  V30 7127 C 700.226 2.99153 3.01318 0
M  V30 7128 O 701.25 2.55719 2.47965 0
M  V30 7129 O 700.109 3.74427 3.98078 0
M  V30 7130 H 697.203 0.540189 0.626198 0
M  V30 7131 H 699.749 1.55971 0.668657 0
M  V30 7132 H 698.521 3.45256 1.84158 0
M  V30 7133 H 698.144 2.38334 3.18249 0
M  V30 7134 N 699.141 -0.881989 1.30609 0
M  V30 7135 C 700.388 -1.63405 1.19604 0
M  V30 7136 C 700.716 -1.92905 -0.248574 0
M  V30 7137 O 699.971 -1.55062 -1.19391 0
M  V30 7138 C 700.27 -2.97999 1.97311 0
M  V30 7139 C 699.936 -2.88039 3.46907 0
M  V30 7140 C 698.598 -2.85029 3.877 0
M  V30 7141 C 700.95 -2.75948 4.42156 0
M  V30 7142 C 698.278 -2.67772 5.2203 0
M  V30 7143 C 700.63 -2.60228 5.76597 0
M  V30 7144 C 699.294 -2.55595 6.16626 0
M  V30 7145 H 698.564 -0.597941 0.437662 0
M  V30 7146 H 701.211 -1.02524 1.61744 0
M  V30 7147 H 699.516 -3.62847 1.47815 0
M  V30 7148 H 701.213 -3.55156 1.86186 0
M  V30 7149 H 697.803 -2.91192 3.14492 0
M  V30 7150 H 701.987 -2.77337 4.1158 0
M  V30 7151 H 697.243 -2.62601 5.52133 0
M  V30 7152 H 701.417 -2.49847 6.50038 0
M  V30 7153 H 699.044 -2.41981 7.20659 0
M  V30 7154 N 700.619 -1.13374 -1.09472 0
M  V30 7155 C 701.867 -0.893422 -1.8128 0
M  V30 7156 C 702.188 0.582029 -1.86111 0
M  V30 7157 O 701.458 1.42305 -1.34633 0
M  V30 7158 H 700.038 -0.327543 -0.67136 0
M  V30 7159 H 702.7 -1.43018 -1.32408 0
M  V30 7160 H 701.796 -1.28374 -2.84476 0
M  V30 7161 N 702.098 1.27442 -0.927168 0
M  V30 7162 C 703.028 2.29256 -0.443188 0
M  V30 7163 C 704.009 1.62701 0.49624 0
M  V30 7164 O 705.194 1.90013 0.401105 0
M  V30 7165 C 702.324 3.45955 0.305366 0
M  V30 7166 C 701.278 4.24501 -0.546178 0
M  V30 7167 C 700.604 5.33671 0.331512 0
M  V30 7168 C 701.904 4.89921 -1.81037 0
M  V30 7169 H 703.598 2.69988 -1.29409 0
M  V30 7170 H 701.144 1.29792 -0.623705 0
M  V30 7171 H 703.097 4.1628 0.654885 0
M  V30 7172 H 701.821 3.04138 1.19029 0
M  V30 7173 H 700.48 3.55921 -0.878398 0
M  V30 7174 H 700.128 4.88096 1.21537 0
M  V30 7175 H 699.828 5.87131 -0.234746 0
M  V30 7176 H 701.352 6.0684 0.676614 0
M  V30 7177 H 702.766 5.52536 -1.52895 0
M  V30 7178 H 701.163 5.53436 -2.32009 0
M  V30 7179 H 702.233 4.13652 -2.53021 0
M  V30 7180 N 703.576 0.692616 1.41565 0
M  V30 7181 C 704.508 -0.0137132 2.29196 0
M  V30 7182 C 705.521 -0.747417 1.44629 0
M  V30 7183 O 706.71 -0.598611 1.68163 0
M  V30 7184 C 703.81 -1.04347 3.22436 0
M  V30 7185 C 702.983 -0.379985 4.35746 0
M  V30 7186 C 702.042 -1.31195 5.09583 0
M  V30 7187 O 701.068 -0.805455 5.63472 0
M  V30 7188 N 702.27 -2.64443 5.16769 0
M  V30 7189 H 705.035 0.738614 2.90456 0
M  V30 7190 H 702.596 0.538415 1.52685 0
M  V30 7191 H 704.588 -1.6686 3.687 0
M  V30 7192 H 703.158 -1.69736 2.62504 0
M  V30 7193 H 702.378 0.424975 3.91903 0
M  V30 7194 H 703.666 0.0814904 5.08735 0
M  V30 7195 H 703.064 -3.08114 4.74428 0
M  V30 7196 H 701.621 -3.22159 5.66619 0
M  V30 7197 N 705.054 -1.51416 0.437162 0
M  V30 7198 C 706.279 -2.0699 -0.130424 0
M  V30 7199 C 706.704 -1.30249 -1.35709 0
M  V30 7200 O 706.062 -0.340388 -1.78076 0
M  V30 7201 C 706.11 -3.5801 -0.43142 0
M  V30 7202 O 705.214 -3.8345 -1.5179 0
M  V30 7203 H 704.555 -0.663997 -0.00194339 0
M  V30 7204 H 707.085 -1.95029 0.618445 0
M  V30 7205 H 707.095 -4.02261 -0.681926 0
M  V30 7206 H 705.77 -4.13291 0.465137 0
M  V30 7207 H 704.347 -3.51062 -1.25737 0
M  V30 7208 N 706.532 -0.168513 -1.56696 0
M  V30 7209 C 707.757 0.486688 -2.01609 0
M  V30 7210 C 708.182 1.56203 -1.04796 0
M  V30 7211 O 707.54 1.8128 -0.0270596 0
M  V30 7212 C 707.588 1.04451 -3.45141 0
M  V30 7213 O 706.692 2.15862 -3.51393 0
M  V30 7214 H 706.033 0.116831 -0.653641 0
M  V30 7215 H 708.563 -0.271579 -2.0279 0
M  V30 7216 H 708.573 1.36782 -3.84389 0
M  V30 7217 H 707.248 0.257155 -4.15104 0
M  V30 7218 H 705.825 1.84597 -3.24004 0
M  V30 7219 N 708.01 1.57248 0.105221 0
M  V30 7220 C 709.259 1.84756 0.809198 0
M  V30 7221 C 709.572 0.756262 1.80389 0
M  V30 7222 O 710.778 0.918158 2.55504 0
M  V30 7223 C 709.234 3.27613 1.48989 0
M  V30 7224 C 708.842 4.44788 0.535484 0
M  V30 7225 C 710.586 3.64356 2.17819 0
M  V30 7226 C 708.493 5.78676 1.22019 0
M  V30 7227 H 707.423 0.689139 0.305946 0
M  V30 7228 H 710.074 1.83395 0.0620371 0
M  V30 7229 H 708.456 3.23485 2.28415 0
M  V30 7230 H 709.63 4.60243 -0.226557 0
M  V30 7231 H 707.945 4.16374 -0.0465769 0
M  V30 7232 H 710.542 4.61663 2.69761 0
M  V30 7233 H 710.885 2.92474 2.96251 0
M  V30 7234 H 711.418 3.70328 1.45264 0
M  V30 7235 H 708.157 6.53763 0.476875 0
M  V30 7236 H 707.677 5.67083 1.9539 0
M  V30 7237 H 709.356 6.22897 1.74952 0
M  V30 7238 N 709.488 -0.375779 1.53054 0
M  V30 7239 C 710.716 -1.14036 1.72637 0
M  V30 7240 C 711.131 -1.83342 0.450687 0
M  V30 7241 O 710.488 -1.7318 -0.575749 0
M  V30 7242 C 710.539 -2.17841 2.88492 0
M  V30 7243 O 710.26 -1.51358 4.11123 0
M  V30 7244 C 711.761 -3.06924 3.19863 0
M  V30 7245 H 708.981 -0.341386 0.577665 0
M  V30 7246 H 711.525 -0.437809 1.99759 0
M  V30 7247 H 709.68 -2.8371 2.63794 0
M  V30 7248 H 710.094 -2.20439 4.75928 0
M  V30 7249 H 711.568 -3.75763 4.04359 0
M  V30 7250 H 712.045 -3.71169 2.34798 0
M  V30 7251 H 712.651 -2.46684 3.46449 0
M  V30 7252 N 710.966 -1.44241 -0.634997 0
M  V30 7253 C 711.896 -1.53632 -1.7584 0
M  V30 7254 C 712.877 -0.389603 -1.65578 0
M  V30 7255 O 714.062 -0.609219 -1.84397 0
M  V30 7256 C 711.192 -1.47644 -3.14354 0
M  V30 7257 C 710.146 -2.60752 -3.394 0
M  V30 7258 C 709.472 -2.39817 -4.77904 0
M  V30 7259 C 710.772 -4.02921 -3.32343 0
M  V30 7260 H 712.466 -2.47662 -1.68238 0
M  V30 7261 H 710.012 -1.19197 -0.807969 0
M  V30 7262 H 711.965 -1.52815 -3.92716 0
M  V30 7263 H 710.689 -0.501284 -3.2273 0
M  V30 7264 H 709.348 -2.54965 -2.63417 0
M  V30 7265 H 708.996 -1.40502 -4.82978 0
M  V30 7266 H 708.696 -3.15649 -4.9562 0
M  V30 7267 H 710.22 -2.46799 -5.585 0
M  V30 7268 H 711.634 -4.10098 -4.00615 0
M  V30 7269 H 710.031 -4.78925 -3.61595 0
M  V30 7270 H 711.101 -4.26766 -2.30215 0
M  V30 7271 N 712.444 0.87505 -1.31075 0
M  V30 7272 C 713.69 1.63009 -1.20647 0
M  V30 7273 C 714.023 1.9276 0.236045 0
M  V30 7274 O 713.298 1.55559 1.16754 0
M  V30 7275 C 713.581 2.96357 -2.0456 0
M  V30 7276 C 713.434 2.73516 -3.57084 0
M  V30 7277 C 714.753 3.974 -1.89107 0
M  V30 7278 H 711.872 0.591518 -0.439631 0
M  V30 7279 H 714.514 1.0119 -1.60812 0
M  V30 7280 H 712.664 3.49119 -1.70435 0
M  V30 7281 H 714.336 2.27465 -4.01319 0
M  V30 7282 H 712.579 2.0784 -3.80769 0
M  V30 7283 H 713.25 3.68377 -4.11099 0
M  V30 7284 H 715.726 3.5383 -2.18961 0
M  V30 7285 H 714.602 4.88596 -2.5013 0
M  V30 7286 H 714.863 4.33794 -0.85296 0
M  V30 7287 N 713.922 1.13953 1.08869 0
M  V30 7288 C 715.171 0.899431 1.80536 0
M  V30 7289 C 715.484 -0.575781 1.86933 0
M  V30 7290 O 716.69 -0.932988 2.54966 0
M  V30 7291 C 715.146 1.55963 3.24351 0
M  V30 7292 C 714.754 3.07077 3.26202 0
M  V30 7293 C 716.498 1.40046 4.00733 0
M  V30 7294 C 714.405 3.65955 4.64576 0
M  V30 7295 H 713.335 0.332849 0.676556 0
M  V30 7296 H 715.986 1.3679 1.22314 0
M  V30 7297 H 714.368 1.01883 3.82669 0
M  V30 7298 H 715.542 3.67785 2.77617 0
M  V30 7299 H 713.857 3.22576 2.63312 0
M  V30 7300 H 716.454 1.81441 5.02974 0
M  V30 7301 H 716.797 0.345993 4.1486 0
M  V30 7302 H 717.33 1.91137 3.48872 0
M  V30 7303 H 714.069 4.71234 4.55652 0
M  V30 7304 H 713.589 3.10027 5.13462 0
M  V30 7305 H 715.268 3.65968 5.33551 0
M  V30 7306 N 715.4 -1.26948 0.933913 0
M  V30 7307 C 716.811 -1.76058 0.621324 0
M  V30 7308 C 717.162 -1.76175 -0.863522 0
M  V30 7309 O 716.287 -1.36921 -1.67576 0
M  V30 7310 C 716.882 -3.19713 1.12111 0
M  V30 7311 C 715.441 -3.66465 0.859074 0
M  V30 7312 C 714.588 -2.46186 1.27624 0
M  V30 7313 H 717.539 -1.13127 1.11301 0
M  V30 7314 H 717.56 -3.77566 0.471608 0
M  V30 7315 H 717.072 -3.19596 2.20182 0
M  V30 7316 H 715.173 -3.72021 -0.207566 0
M  V30 7317 H 715.286 -4.55636 1.48098 0
M  V30 7318 H 713.65 -2.45042 0.694727 0
M  V30 7319 H 714.433 -2.48774 2.36572 0
M  V30 7320 N 716.879 -0.700114 -1.41195 0
M  V30 7321 C 718.125 -0.242122 -2.01954 0
M  V30 7322 C 718.48 1.14697 -1.54475 0
M  V30 7323 O 717.773 1.76392 -0.748095 0
M  V30 7324 C 717.967 -0.243986 -3.56566 0
M  V30 7325 C 717.796 -1.63172 -4.19053 0
M  V30 7326 C 716.566 -2.23566 -4.53152 0
M  V30 7327 C 718.764 -2.57916 -4.44954 0
M  V30 7328 N 716.746 -3.54856 -5.00949 0
M  V30 7329 C 718.117 -3.73892 -4.94576 0
M  V30 7330 C 720.172 -2.56125 -4.26971 0
M  V30 7331 C 718.875 -4.88363 -5.28104 0
M  V30 7332 C 720.901 -3.69712 -4.61592 0
M  V30 7333 C 720.263 -4.84418 -5.11389 0
M  V30 7334 H 716.362 -0.134088 -0.770418 0
M  V30 7335 H 718.946 -0.918576 -1.71669 0
M  V30 7336 H 717.117 0.401971 -3.86314 0
M  V30 7337 H 718.849 0.229261 -4.0405 0
M  V30 7338 H 715.604 -1.75809 -4.39759 0
M  V30 7339 H 716.028 -4.22167 -5.29249 0
M  V30 7340 H 720.67 -1.68656 -3.87705 0
M  V30 7341 H 718.388 -5.76488 -5.66292 0
M  V30 7342 H 721.974 -3.69583 -4.49332 0
M  V30 7343 H 720.854 -5.70855 -5.37675 0
M  V30 7344 N 718.357 1.51182 -0.445186 0
M  V30 7345 C 719.606 2.01342 0.120189 0
M  V30 7346 C 719.919 1.33353 1.43095 0
M  V30 7347 O 721.125 1.74525 2.07974 0
M  V30 7348 C 719.581 3.58925 0.264732 0
M  V30 7349 C 719.189 4.35855 -1.03606 0
M  V30 7350 C 720.933 4.17208 0.783455 0
M  V30 7351 C 718.84 5.85162 -0.856731 0
M  V30 7352 H 717.77 0.752426 0.0486922 0
M  V30 7353 H 720.421 1.74221 -0.576143 0
M  V30 7354 H 718.803 3.82525 1.02425 0
M  V30 7355 H 719.977 4.23997 -1.80452 0
M  V30 7356 H 718.292 3.89062 -1.48391 0
M  V30 7357 H 720.889 5.26475 0.934239 0
M  V30 7358 H 721.232 3.76892 1.768 0
M  V30 7359 H 721.765 3.97715 0.0820346 0
M  V30 7360 H 718.504 6.29904 -1.81388 0
M  V30 7361 H 718.024 5.99663 -0.128206 0
M  V30 7362 H 719.703 6.44963 -0.513027 0
M  V30 7363 N 719.835 0.176821 1.56605 0
M  V30 7364 C 721.06 -0.47599 2.01864 0
M  V30 7365 C 721.485 -1.55645 1.05623 0
M  V30 7366 O 720.843 -1.81263 0.0366729 0
M  V30 7367 C 720.891 -1.02619 3.4569 0
M  V30 7368 O 719.995 -2.13996 3.52533 0
M  V30 7369 H 719.336 -0.113363 0.654251 0
M  V30 7370 H 721.866 0.28233 2.02643 0
M  V30 7371 H 721.876 -1.34742 3.85109 0
M  V30 7372 H 720.551 -0.235138 4.15235 0
M  V30 7373 H 719.128 -1.82876 3.24978 0
M  V30 7374 N 721.313 -1.57302 -0.09688 0
M  V30 7375 C 722.276 -2.00976 -1.10188 0
M  V30 7376 C 723.276 -0.903009 -1.3305 0
M  V30 7377 O 724.466 -1.16853 -1.29194 0
M  V30 7378 C 721.598 -2.36893 -2.45142 0
M  V30 7379 H 722.791 -2.9098 -0.726003 0
M  V30 7380 H 720.344 -1.52515 -0.341872 0
M  V30 7381 H 721.079 -1.49837 -2.8761 0
M  V30 7382 H 720.864 -3.17632 -2.29897 0
M  V30 7383 H 722.354 -2.71345 -3.1743 0
M  V30 7384 N 722.791 0.367657 -1.53252 0
M  V30 7385 C 724.016 1.13566 -1.73544 0
M  V30 7386 C 724.441 1.82329 -0.462344 0
M  V30 7387 O 723.799 1.71655 0.583472 0
M  V30 7388 C 723.847 2.14322 -2.89997 0
M  V30 7389 O 722.951 3.21359 -2.58461 0
M  V30 7390 H 722.292 0.329614 -0.576412 0
M  V30 7391 H 724.822 0.425417 -2.00128 0
M  V30 7392 H 724.832 2.57958 -3.16104 0
M  V30 7393 H 723.507 1.63664 -3.82344 0
M  V30 7394 H 722.084 2.8271 -2.43165 0
M  V30 7395 N 724.269 1.44576 0.627338 0
M  V30 7396 C 725.219 1.48168 1.73293 0
M  V30 7397 C 726.203 0.347045 1.57113 0
M  V30 7398 O 727.395 0.592605 1.66785 0
M  V30 7399 C 724.524 1.43236 3.11991 0
M  V30 7400 C 723.61 2.61828 3.33627 0
M  V30 7401 N 724.001 3.87053 3.25612 0
M  V30 7402 C 722.299 2.57104 3.64436 0
M  V30 7403 C 723 4.66093 3.48041 0
M  V30 7404 N 721.976 3.97228 3.71095 0
M  V30 7405 H 725.778 2.42832 1.6556 0
M  V30 7406 H 723.292 1.39592 0.829934 0
M  V30 7407 H 725.289 1.43893 3.91281 0
M  V30 7408 H 723.949 0.496133 3.20887 0
M  V30 7409 H 724.96 4.18966 3.04447 0
M  V30 7410 H 721.637 1.72295 3.8029 0
M  V30 7411 H 723.027 5.75117 3.47404 0
M  V30 7412 N 725.747 -0.868086 1.31537 0
M  V30 7413 C 726.994 -1.62127 1.2133 0
M  V30 7414 C 727.322 -1.93158 -0.2281 0
M  V30 7415 O 726.577 -1.5632 -1.1774 0
M  V30 7416 C 726.876 -2.95889 2.0046 0
M  V30 7417 C 726.542 -2.84343 3.49943 0
M  V30 7418 C 725.204 -2.80901 3.90702 0
M  V30 7419 C 727.556 -2.71243 4.45058 0
M  V30 7420 C 724.884 -2.6222 5.24841 0
M  V30 7421 C 727.236 -2.54098 5.79325 0
M  V30 7422 C 725.9 -2.4904 6.19302 0
M  V30 7423 H 725.17 -0.593265 0.443979 0
M  V30 7424 H 727.817 -1.00803 1.62822 0
M  V30 7425 H 726.122 -3.61259 1.51655 0
M  V30 7426 H 727.819 -3.53161 1.89942 0
M  V30 7427 H 724.409 -2.8784 3.17563 0
M  V30 7428 H 728.593 -2.72956 4.14498 0
M  V30 7429 H 723.849 -2.56731 5.54887 0
M  V30 7430 H 728.023 -2.42938 6.52652 0
M  V30 7431 H 725.65 -2.34324 7.23185 0
M  V30 7432 N 727.225 -1.14528 -1.08264 0
M  V30 7433 C 728.641 -0.885976 -1.3275 0
M  V30 7434 C 728.841 0.472096 -1.95892 0
M  V30 7435 O 727.897 1.21606 -2.21288 0
M  V30 7436 C 729.21 -2.01982 -2.22764 0
M  V30 7437 C 730.758 -2.05329 -2.36239 0
M  V30 7438 C 731.233 -3.1801 -3.29596 0
M  V30 7439 N 732.724 -3.17598 -3.37173 0
M  V30 7440 C 733.459 -4.01426 -4.09444 0
M  V30 7441 N 732.955 -4.95297 -4.8441 0
M  V30 7442 N 734.748 -3.89482 -4.0529 0
M  V30 7443 H 726.899 -2.01996 -0.656607 0
M  V30 7444 H 729.162 -0.880274 -0.351884 0
M  V30 7445 H 728.868 -2.99964 -1.83615 0
M  V30 7446 H 728.742 -1.94421 -3.23234 0
M  V30 7447 H 731.129 -1.07953 -2.74646 0
M  V30 7448 H 731.21 -2.1696 -1.35506 0
M  V30 7449 H 730.854 -4.15633 -2.9191 0
M  V30 7450 H 730.784 -3.03616 -4.30261 0
M  V30 7451 H 733.275 -2.4961 -2.83731 0
M  V30 7452 H 733.588 -5.55723 -5.37021 0
M  V30 7453 H 731.933 -4.99293 -4.83457 0
M  V30 7454 H 735.124 -3.15465 -3.45832 0
M  V30 7455 H 735.297 -4.55039 -4.6135 0
M  V30 7456 N 728.703 1.26451 -0.940633 0
M  V30 7457 C 729.951 1.93395 -0.586748 0
M  V30 7458 C 730.272 1.7417 0.876921 0
M  V30 7459 O 729.542 1.097 1.62304 0
M  V30 7460 H 728.122 0.715687 -0.214012 0
M  V30 7461 H 730.784 1.53902 -1.19584 0
M  V30 7462 H 729.88 3.01565 -0.804059 0
M  V30 7463 N 730.181 0.707592 1.40822 0
M  V30 7464 C 731.427 0.244031 2.01326 0
M  V30 7465 C 731.76 -1.15722 1.55955 0
M  V30 7466 O 731.035 -1.78347 0.776044 0
M  V30 7467 C 731.318 0.315128 3.58718 0
M  V30 7468 C 731.171 1.75419 4.14184 0
M  V30 7469 C 732.49 -0.318251 4.38948 0
M  V30 7470 H 729.609 0.0901471 0.731466 0
M  V30 7471 H 732.251 0.898584 1.67408 0
M  V30 7472 H 730.401 -0.242176 3.87744 0
M  V30 7473 H 732.073 2.36626 3.95987 0
M  V30 7474 H 730.316 2.28449 3.68773 0
M  V30 7475 H 730.987 1.75538 5.23345 0
M  V30 7476 H 733.463 0.156514 4.15806 0
M  V30 7477 H 732.339 -0.238019 5.48384 0
M  V30 7478 H 732.6 -1.40067 4.19325 0
M  V30 7479 N 731.66 -1.50943 0.453197 0
M  V30 7480 C 732.885 -2.07116 -0.108463 0
M  V30 7481 C 733.31 -1.31681 -1.3432 0
M  V30 7482 O 732.668 -0.359256 -1.77705 0
M  V30 7483 C 732.716 -3.58447 -0.393424 0
M  V30 7484 O 731.82 -3.85038 -1.47714 0
M  V30 7485 H 731.161 -0.66398 0.0050993 0
M  V30 7486 H 733.691 -1.94362 0.639095 0
M  V30 7487 H 733.701 -4.02961 -0.639222 0
M  V30 7488 H 732.376 -4.12774 0.508946 0
M  V30 7489 H 730.953 -3.52376 -1.22006 0
M  V30 7490 N 733.138 -0.185124 -1.56509 0
M  V30 7491 C 734.086 0.756505 -2.19954 0
M  V30 7492 C 735.08 1.22725 -1.16769 0
M  V30 7493 O 736.286 1.1913 -1.34937 0
M  V30 7494 H 732.661 0.262279 -0.704779 0
M  V30 7495 H 734.632 0.197587 -2.97745 0
M  V30 7496 C 733.381 1.96975 -2.86524 0
M  V30 7497 H 732.704 1.61658 -3.65659 0
M  V30 7498 H 734.144 2.60719 -3.34367 0
M  V30 7499 C 732.603 2.80219 -1.87027 0
M  V30 7500 O 733.133 3.77821 -1.36433 0
M  V30 7501 N 731.339 2.4551 -1.55477 0
M  V30 7502 H 730.886 1.66199 -1.96813 0
M  V30 7503 H 730.844 3.01493 -0.891597 0
M  V30 7504 N 734.616 1.57351 0.0885366 0
M  V30 7505 C 735.893 1.77449 0.822873 0
M  V30 7506 C 736.273 0.768463 1.96616 0
M  V30 7507 O 735.621 -0.201757 2.27608 0
M  V30 7508 C 735.831 3.23425 1.31137 0
M  V30 7509 C 737.179 3.86791 1.75152 0
M  V30 7510 O 738.203 3.27215 1.40745 0
M  V30 7511 O 737.062 4.91568 2.38794 0
M  V30 7512 H 734.156 0.727653 0.393002 0
M  V30 7513 H 736.702 1.69556 0.0699095 0
M  V30 7514 H 735.474 3.88188 0.49254 0
M  V30 7515 H 735.097 3.35977 2.12615 0
M  V30 7516 N 736.094 -0.359525 1.53444 0
M  V30 7517 C 737.371 -1.11756 1.6053 0
M  V30 7518 C 737.751 -2.06949 0.416587 0
M  V30 7519 O 737.099 -2.20681 -0.592628 0
M  V30 7520 C 737.309 -1.85133 2.95849 0
M  V30 7521 C 738.657 -2.3945 3.50641 0
M  V30 7522 O 739.681 -1.95251 2.97918 0
M  V30 7523 O 738.54 -3.20266 4.42823 0
M  V30 7524 H 735.634 -0.513005 0.648656 0
M  V30 7525 H 738.18 -0.362301 1.65787 0
M  V30 7526 H 736.952 -1.15694 3.73806 0
M  V30 7527 H 736.575 -2.67554 2.9411 0
M  V30 7528 N 737.572 -1.44907 -0.619662 0
M  V30 7529 C 738.818 -1.48512 -1.38102 0
M  V30 7530 C 739.151 -0.121686 -1.93818 0
M  V30 7531 O 738.426 0.862256 -1.74343 0
M  V30 7532 C 738.709 -2.55469 -2.53787 0
M  V30 7533 C 738.562 -4.01212 -2.03345 0
M  V30 7534 C 739.881 -2.58821 -3.55949 0
M  V30 7535 H 737 -0.540712 -0.500799 0
M  V30 7536 H 739.642 -1.7665 -0.69962 0
M  V30 7537 H 737.792 -2.31606 -3.11915 0
M  V30 7538 H 739.464 -4.36245 -1.49959 0
M  V30 7539 H 737.707 -4.12443 -1.34438 0
M  V30 7540 H 738.378 -4.71717 -2.86683 0
M  V30 7541 H 740.854 -2.80172 -3.07641 0
M  V30 7542 H 739.73 -3.35542 -4.34399 0
M  V30 7543 H 739.991 -1.63451 -4.10775 0
M  V30 7544 N 739.05 0.861098 -1.31996 0
M  V30 7545 C 739.98 1.98482 -1.22993 0
M  V30 7546 C 740.961 1.6971 -0.115168 0
M  V30 7547 O 742.146 1.91849 -0.30126 0
M  V30 7548 C 739.276 3.34179 -0.945615 0
M  V30 7549 C 738.23 3.77284 -2.02091 0
M  V30 7550 C 737.556 5.1054 -1.58912 0
M  V30 7551 C 738.856 3.93439 -3.43515 0
M  V30 7552 H 740.55 2.06271 -2.17008 0
M  V30 7553 H 738.096 0.991043 -1.04472 0
M  V30 7554 H 740.049 4.12338 -0.869206 0
M  V30 7555 H 738.773 3.26586 0.0301849 0
M  V30 7556 H 737.432 3.01371 -2.08737 0
M  V30 7557 H 737.08 4.99397 -0.600942 0
M  V30 7558 H 736.78 5.40352 -2.30854 0
M  V30 7559 H 738.304 5.91199 -1.52696 0
M  V30 7560 H 739.718 4.6197 -3.39495 0
M  V30 7561 H 738.115 4.34661 -4.13751 0
M  V30 7562 H 739.185 2.96548 -3.8365 0
M  V30 7563 N 740.528 1.15101 1.07655 0
M  V30 7564 C 741.476 0.840714 2.16875 0
M  V30 7565 C 742.47 -0.184594 1.68391 0
M  V30 7566 O 743.676 -0.0399315 1.79956 0
M  V30 7567 H 740.051 0.254192 0.707736 0
M  V30 7568 H 742.022 1.76959 2.40266 0
M  V30 7569 C 740.771 0.343018 3.46004 0
M  V30 7570 H 740.094 1.12335 3.83694 0
M  V30 7571 H 741.534 0.16453 4.23681 0
M  V30 7572 C 739.993 -0.934881 3.23669 0
M  V30 7573 O 740.523 -2.00706 3.47965 0
M  V30 7574 N 738.729 -0.873167 2.77172 0
M  V30 7575 H 738.276 -0.000479072 2.576 0
M  V30 7576 H 738.234 -1.72873 2.62607 0
M  V30 7577 N 742.006 -1.2595 0.947325 0
M  V30 7578 C 743.236 -1.97258 0.614235 0
M  V30 7579 C 743.644 -1.70682 -0.816355 0
M  V30 7580 O 742.987 -0.97527 -1.55673 0
M  V30 7581 C 743.049 -3.50845 0.784081 0
M  V30 7582 C 742.713 -4.01084 2.19045 0
M  V30 7583 C 743.71 -4.12347 3.16648 0
M  V30 7584 C 741.395 -4.34936 2.51268 0
M  V30 7585 C 743.389 -4.56766 4.44572 0
M  V30 7586 C 741.076 -4.79043 3.79422 0
M  V30 7587 C 742.074 -4.89919 4.75887 0
M  V30 7588 O 741.762 -5.3305 6.01758 0
M  V30 7589 H 741.494 -0.635738 0.22981 0
M  V30 7590 H 744.048 -1.61268 1.27207 0
M  V30 7591 H 742.278 -3.86638 0.069101 0
M  V30 7592 H 743.967 -4.03363 0.453135 0
M  V30 7593 H 744.733 -3.86432 2.93079 0
M  V30 7594 H 740.612 -4.25702 1.76916 0
M  V30 7595 H 744.156 -4.6517 5.19868 0
M  V30 7596 H 740.053 -5.04402 4.02802 0
M  V30 7597 H 740.821 -5.51255 6.05029 0
M  V30 7598 N 743.484 -0.715051 -1.40445 0
M  V30 7599 C 744.416 -0.0227516 -2.29189 0
M  V30 7600 C 745.429 0.724313 -1.458 0
M  V30 7601 O 746.618 0.571781 -1.69094 0
M  V30 7602 C 743.718 0.992038 -3.24055 0
M  V30 7603 C 742.891 0.310613 -4.36296 0
M  V30 7604 C 741.95 1.23071 -5.11605 0
M  V30 7605 O 740.976 0.71571 -5.64682 0
M  V30 7606 N 742.178 2.56188 -5.2091 0
M  V30 7607 H 744.943 -0.78473 -2.89244 0
M  V30 7608 H 742.504 -0.562637 -1.51809 0
M  V30 7609 H 744.496 1.60973 -3.71308 0
M  V30 7610 H 743.066 1.65538 -2.65171 0
M  V30 7611 H 742.286 -0.487269 -3.91177 0
M  V30 7612 H 743.574 -0.162415 -5.08541 0
M  V30 7613 H 742.972 3.00527 -4.7927 0
M  V30 7614 H 741.529 3.13103 -5.71673 0
M  V30 7615 N 744.962 1.50701 -0.461195 0
M  V30 7616 C 746.192 2.06381 0.0950376 0
M  V30 7617 C 746.6 1.32627 1.34933 0
M  V30 7618 O 745.943 0.386137 1.79596 0
M  V30 7619 C 746.005 3.56558 0.458965 0
M  V30 7620 C 745.669 4.51732 -0.691891 0
M  V30 7621 C 746.666 4.95594 -1.57105 0
M  V30 7622 C 744.351 4.94542 -0.879407 0
M  V30 7623 C 746.345 5.80963 -2.62223 0
M  V30 7624 C 744.032 5.79695 -1.93382 0
M  V30 7625 C 745.03 6.22806 -2.80359 0
M  V30 7626 O 744.718 7.06265 -3.83986 0
M  V30 7627 H 744.45 0.676 0.000687488 0
M  V30 7628 H 747.004 1.94974 -0.646087 0
M  V30 7629 H 745.234 3.65832 1.25314 0
M  V30 7630 H 746.923 3.94647 0.949124 0
M  V30 7631 H 747.689 4.63197 -1.43783 0
M  V30 7632 H 743.568 4.60513 -0.211907 0
M  V30 7633 H 747.112 6.14533 -3.30143 0
M  V30 7634 H 743.009 6.11506 -2.06715 0
M  V30 7635 H 743.777 7.24494 -3.80855 0
M  V30 7636 N 746.441 0.193421 1.56409 0
M  V30 7637 C 747.671 -0.450783 2.01622 0
M  V30 7638 C 748.079 -1.5585 1.07273 0
M  V30 7639 O 747.422 -1.83569 0.0694875 0
M  V30 7640 C 747.484 -1.06913 3.43235 0
M  V30 7641 C 747.148 -0.100352 4.5689 0
M  V30 7642 C 748.145 0.689633 5.15306 0
M  V30 7643 C 745.83 0.0102436 5.02299 0
M  V30 7644 C 747.824 1.5772 6.17579 0
M  V30 7645 C 745.511 0.901368 6.04416 0
M  V30 7646 C 746.509 1.68341 6.61929 0
M  V30 7647 O 746.197 2.5596 7.62063 0
M  V30 7648 H 745.929 -0.117671 0.66568 0
M  V30 7649 H 748.483 0.2989 2.03214 0
M  V30 7650 H 746.713 -1.86736 3.38624 0
M  V30 7651 H 748.402 -1.61781 3.72266 0
M  V30 7652 H 749.168 0.614485 4.81092 0
M  V30 7653 H 745.047 -0.58829 4.57231 0
M  V30 7654 H 748.591 2.18805 6.62397 0
M  V30 7655 H 744.488 0.977637 6.38054 0
M  V30 7656 H 745.256 2.49721 7.79475 0
M  V30 7657 N 747.919 -1.57396 -0.0801906 0
M  V30 7658 C 748.882 -2.02133 -1.0805 0
M  V30 7659 C 749.882 -0.91707 -1.32085 0
M  V30 7660 O 751.072 -1.18217 -1.27947 0
M  V30 7661 C 748.204 -2.39479 -2.42616 0
M  V30 7662 H 749.397 -2.91733 -0.6951 0
M  V30 7663 H 746.95 -1.52869 -0.325677 0
M  V30 7664 H 747.685 -1.52879 -2.86004 0
M  V30 7665 H 747.47 -3.20052 -2.26515 0
M  V30 7666 H 748.96 -2.74697 -3.14534 0
M  V30 7667 N 749.397 0.351382 -1.53633 0
M  V30 7668 C 750.36 1.41403 -1.80383 0
M  V30 7669 C 751.36 1.45963 -0.674635 0
M  V30 7670 O 752.55 1.46476 -0.942895 0
M  V30 7671 C 749.682 2.80401 -1.93876 0
M  V30 7672 H 750.875 1.18951 -2.75301 0
M  V30 7673 H 748.428 0.58533 -1.44926 0
M  V30 7674 H 749.163 3.08147 -1.01074 0
M  V30 7675 H 748.948 2.78488 -2.7602 0
M  V30 7676 H 750.438 3.57329 -2.16116 0
M  V30 7677 N 750.875 1.45233 0.611969 0
M  V30 7678 C 752.123 1.48727 1.36838 0
M  V30 7679 C 752.444 0.128616 1.94575 0
M  V30 7680 O 751.714 -0.84149 1.76906 0
M  V30 7681 H 750.294 0.547695 0.507976 0
M  V30 7682 H 752.956 1.81156 0.718925 0
M  V30 7683 H 752.052 2.2236 2.19003 0
M  V30 7684 N 752.353 -0.854086 1.3245 0
M  V30 7685 C 753.303 -1.9508 1.18016 0
M  V30 7686 C 754.287 -1.60665 0.0869417 0
M  V30 7687 O 755.479 -1.74201 0.313505 0
M  V30 7688 C 752.608 -3.3113 0.905961 0
M  V30 7689 C 751.694 -3.71763 2.04091 0
M  V30 7690 N 752.085 -3.84218 3.28953 0
M  V30 7691 C 750.383 -4.01393 1.94421 0
M  V30 7692 C 751.084 -4.192 4.03294 0
M  V30 7693 N 750.06 -4.30749 3.31596 0
M  V30 7694 H 753.862 -2.02843 2.12678 0
M  V30 7695 H 751.376 -1.04588 1.24238 0
M  V30 7696 H 753.373 -4.09471 0.783508 0
M  V30 7697 H 752.033 -3.24684 -0.0322715 0
M  V30 7698 H 753.044 -3.68524 3.63883 0
M  V30 7699 H 749.721 -4.03246 1.08162 0
M  V30 7700 H 751.111 -4.36301 5.1097 0
M  V30 7701 N 753.831 -1.1567 -1.07043 0
M  V30 7702 C 755.077 -0.9349 -1.79965 0
M  V30 7703 C 755.41 0.536464 -1.86643 0
M  V30 7704 O 754.685 1.39781 -1.35247 0
M  V30 7705 C 754.968 -1.55371 -3.24857 0
M  V30 7706 C 754.821 -3.09589 -3.26305 0
M  V30 7707 C 756.14 -1.24209 -4.22209 0
M  V30 7708 H 753.259 -0.341061 -0.653335 0
M  V30 7709 H 755.901 -1.42883 -1.25237 0
M  V30 7710 H 754.051 -1.13368 -3.71591 0
M  V30 7711 H 755.723 -3.60521 -2.87789 0
M  V30 7712 H 753.966 -3.43315 -2.65174 0
M  V30 7713 H 754.637 -3.48002 -4.28484 0
M  V30 7714 H 757.113 -1.60548 -3.8388 0
M  V30 7715 H 755.989 -1.70119 -5.21872 0
M  V30 7716 H 756.25 -0.15964 -4.41812 0
M  V30 7717 N 755.309 1.25446 -0.953992 0
M  V30 7718 C 756.537 1.97215 -0.625595 0
M  V30 7719 C 756.952 1.70911 0.802168 0
M  V30 7720 O 756.309 0.984782 1.5365 0
M  V30 7721 C 756.36 3.50777 -0.873943 0
M  V30 7722 O 756.081 3.76173 -2.24556 0
M  V30 7723 C 757.582 4.39776 -0.557845 0
M  V30 7724 H 754.802 0.628652 -0.2346 0
M  V30 7725 H 757.346 1.59632 -1.27819 0
M  V30 7726 H 755.501 3.86474 -0.267765 0
M  V30 7727 H 755.915 4.70636 -2.31522 0
M  V30 7728 H 757.389 5.46431 -0.782157 0
M  V30 7729 H 757.866 4.36257 0.507573 0
M  V30 7730 H 758.472 4.09644 -1.14332 0
M  V30 7731 N 756.787 0.722489 1.40064 0
M  V30 7732 C 758.036 0.261932 1.99992 0
M  V30 7733 C 758.349 -1.15358 1.57961 0
M  V30 7734 O 759.555 -1.71301 2.10637 0
M  V30 7735 C 758.011 0.41737 3.57472 0
M  V30 7736 C 757.619 1.83997 4.08472 0
M  V30 7737 C 759.363 0.0179561 4.24496 0
M  V30 7738 C 757.27 1.94563 5.5848 0
M  V30 7739 H 756.2 0.0941768 0.748095 0
M  V30 7740 H 758.851 0.894572 1.60218 0
M  V30 7741 H 757.233 -0.283965 3.94981 0
M  V30 7742 H 758.407 2.57224 3.82325 0
M  V30 7743 H 756.722 2.19147 3.54067 0
M  V30 7744 H 759.319 0.076085 5.34646 0
M  V30 7745 H 759.662 -1.02498 4.03485 0
M  V30 7746 H 760.195 0.669988 3.92117 0
M  V30 7747 H 756.934 2.97001 5.84355 0
M  V30 7748 H 756.454 1.25756 5.86469 0
M  V30 7749 H 758.133 1.72095 6.23692 0
M  V30 7750 N 758.265 -1.50454 0.469181 0
M  V30 7751 C 759.511 -2.03248 -0.0787241 0
M  V30 7752 C 759.866 -1.34499 -1.37578 0
M  V30 7753 O 759.159 -0.461173 -1.85967 0
M  V30 7754 C 759.353 -3.55963 -0.320207 0
M  V30 7755 C 759.182 -4.3951 0.951893 0
M  V30 7756 C 757.952 -4.82689 1.49465 0
M  V30 7757 C 760.15 -4.79999 1.84677 0
M  V30 7758 N 758.132 -5.50553 2.71597 0
M  V30 7759 C 759.503 -5.47254 2.91398 0
M  V30 7760 C 761.558 -4.61959 1.85738 0
M  V30 7761 C 760.261 -5.98381 3.99166 0
M  V30 7762 C 762.287 -5.14024 2.92461 0
M  V30 7763 C 761.649 -5.81253 3.97901 0
M  V30 7764 H 757.748 -0.78192 0.0111715 0
M  V30 7765 H 760.332 -1.83986 0.636961 0
M  V30 7766 H 758.503 -3.75174 -1.00493 0
M  V30 7767 H 760.235 -3.95407 -0.862285 0
M  V30 7768 H 756.99 -4.61948 1.0441 0
M  V30 7769 H 757.414 -5.89093 3.33615 0
M  V30 7770 H 762.056 -4.09416 1.05539 0
M  V30 7771 H 759.774 -6.49961 4.80183 0
M  V30 7772 H 763.36 -5.01897 2.94263 0
M  V30 7773 H 762.24 -6.20814 4.79123 0
M  V30 7774 N 759.743 -0.201713 -1.56304 0
M  V30 7775 C 760.973 0.440084 -2.01858 0
M  V30 7776 C 761.381 1.55279 -1.08098 0
M  V30 7777 O 760.724 1.83529 -0.0792216 0
M  V30 7778 C 760.786 1.05091 -3.43797 0
M  V30 7779 C 760.45 0.0761208 -4.56937 0
M  V30 7780 C 761.447 -0.716951 -5.14933 0
M  V30 7781 C 759.132 -0.0368815 -5.02286 0
M  V30 7782 C 761.126 -1.60993 -6.16733 0
M  V30 7783 C 758.813 -0.933409 -6.03929 0
M  V30 7784 C 759.811 -1.71849 -6.61027 0
M  V30 7785 O 759.499 -2.59998 -7.60695 0
M  V30 7786 H 759.231 0.114139 -0.666294 0
M  V30 7787 H 761.785 -0.309672 -2.03052 0
M  V30 7788 H 760.015 1.84938 -3.3961 0
M  V30 7789 H 761.704 1.59804 -3.73118 0
M  V30 7790 H 762.47 -0.63999 -4.80759 0
M  V30 7791 H 758.349 0.564034 -4.57537 0
M  V30 7792 H 761.893 -2.22315 -6.61227 0
M  V30 7793 H 757.79 -1.01146 -6.37526 0
M  V30 7794 H 758.558 -2.53851 -7.7814 0
M  V30 7795 N 761.222 1.57436 0.0718424 0
M  V30 7796 C 762.154 2.00412 1.1121 0
M  V30 7797 C 763.167 0.910074 1.34987 0
M  V30 7798 O 764.356 1.18796 1.33228 0
M  V30 7799 C 761.456 2.32786 2.46301 0
M  V30 7800 C 760.629 3.64036 2.4248 0
M  V30 7801 C 759.688 3.8408 3.59679 0
M  V30 7802 O 758.714 4.55667 3.4111 0
M  V30 7803 N 759.916 3.2643 4.80025 0
M  V30 7804 H 762.681 2.90264 0.746118 0
M  V30 7805 H 760.242 1.59791 0.260495 0
M  V30 7806 H 762.234 2.43368 3.23348 0
M  V30 7807 H 760.804 1.48824 2.74901 0
M  V30 7808 H 760.024 3.64208 1.50818 0
M  V30 7809 H 761.312 4.50217 2.37027 0
M  V30 7810 H 760.71 2.68325 4.98014 0
M  V30 7811 H 759.267 3.42461 5.54584 0
M  V30 7812 N 762.7 -0.34323 1.53817 0
M  V30 7813 C 763.928 -1.10348 1.75017 0
M  V30 7814 C 764.343 -1.82345 0.489475 0
M  V30 7815 O 763.7 -1.74362 -0.538886 0
M  V30 7816 C 763.751 -2.11672 2.93048 0
M  V30 7817 O 763.472 -1.42603 4.14241 0
M  V30 7818 C 764.973 -3.0007 3.26301 0
M  V30 7819 H 762.193 -0.329056 0.584776 0
M  V30 7820 H 764.737 -0.395339 2.00642 0
M  V30 7821 H 762.892 -2.78051 2.69753 0
M  V30 7822 H 763.306 -2.10294 4.80496 0
M  V30 7823 H 764.78 -3.67101 4.12239 0
M  V30 7824 H 765.257 -3.66105 2.42618 0
M  V30 7825 H 765.863 -2.3928 3.51604 0
M  V30 7826 N 764.178 -1.45556 -0.604258 0
M  V30 7827 C 765.126 -1.5482 -1.7359 0
M  V30 7828 C 766.12 -0.417966 -1.64163 0
M  V30 7829 O 767.326 -0.594007 -1.69916 0
M  V30 7830 H 763.701 -0.486352 -0.573556 0
M  V30 7831 H 765.672 -2.5001 -1.62903 0
M  V30 7832 C 764.421 -1.53521 -3.11972 0
M  V30 7833 H 763.744 -2.39818 -3.19886 0
M  V30 7834 H 765.184 -1.64061 -3.90973 0
M  V30 7835 C 763.643 -0.260191 -3.35894 0
M  V30 7836 O 764.173 0.658582 -3.96265 0
M  V30 7837 N 762.379 -0.154839 -2.90187 0
M  V30 7838 H 761.926 -0.903378 -2.4124 0
M  V30 7839 H 761.884 0.697437 -3.06567 0
M  V30 7840 N 765.656 0.84705 -1.32902 0
M  V30 7841 C 766.589 1.96038 -1.1681 0
M  V30 7842 C 767.567 1.62468 -0.0656144 0
M  V30 7843 O 768.751 1.87136 -0.226339 0
M  V30 7844 C 765.878 3.29362 -0.789839 0
M  V30 7845 C 764.924 3.81908 -1.89865 0
M  V30 7846 S 765.757 4.04576 -3.50826 0
M  V30 7847 C 766.913 5.40863 -3.14989 0
M  V30 7848 H 767.146 2.09387 -2.11055 0
M  V30 7849 H 764.679 0.999896 -1.1765 0
M  V30 7850 H 766.637 4.06405 -0.578369 0
M  V30 7851 H 765.298 3.13815 0.133878 0
M  V30 7852 H 764.491 4.78357 -1.58716 0
M  V30 7853 H 764.093 3.11733 -2.06636 0
M  V30 7854 H 766.385 6.23393 -2.65306 0
M  V30 7855 H 767.328 5.7698 -4.10488 0
M  V30 7856 H 767.736 5.05228 -2.51804 0
M  V30 7857 N 767.134 1.16236 1.06428 0
M  V30 7858 C 768.38 0.944431 1.79467 0
M  V30 7859 C 768.713 -0.526558 1.86925 0
M  V30 7860 O 767.988 -1.39061 1.35986 0
M  V30 7861 C 768.271 1.57092 3.24028 0
M  V30 7862 C 768.124 3.11315 3.24658 0
M  V30 7863 C 769.443 1.26447 4.21544 0
M  V30 7864 H 766.562 0.344521 0.651517 0
M  V30 7865 H 769.204 1.43545 1.24478 0
M  V30 7866 H 767.354 1.15337 3.70985 0
M  V30 7867 H 769.026 3.62042 2.85873 0
M  V30 7868 H 767.269 3.44716 2.6335 0
M  V30 7869 H 767.94 3.50269 4.26633 0
M  V30 7870 H 770.416 1.62581 3.83023 0
M  V30 7871 H 769.292 1.72885 5.20963 0
M  V30 7872 H 769.553 0.183068 4.41721 0
M  V30 7873 N 768.612 -1.24939 0.960631 0
M  V30 7874 C 769.861 -1.92118 0.614298 0
M  V30 7875 C 770.174 -1.75998 -0.853474 0
M  V30 7876 O 771.38 -2.37804 -1.31003 0
M  V30 7877 C 769.836 -3.44303 1.04801 0
M  V30 7878 C 769.444 -3.69123 2.53875 0
M  V30 7879 C 771.188 -4.17375 0.774497 0
M  V30 7880 C 769.095 -5.14843 2.91016 0
M  V30 7881 H 768.025 -0.719319 0.226045 0
M  V30 7882 H 770.676 -1.41701 1.16589 0
M  V30 7883 H 769.058 -3.93715 0.42479 0
M  V30 7884 H 770.232 -3.30339 3.21267 0
M  V30 7885 H 768.547 -3.09323 2.78762 0
M  V30 7886 H 771.144 -5.24723 1.02808 0
M  V30 7887 H 771.487 -4.15294 -0.289192 0
M  V30 7888 H 772.02 -3.7389 1.35835 0
M  V30 7889 H 768.759 -5.2204 3.96427 0
M  V30 7890 H 768.279 -5.54652 2.28302 0
M  V30 7891 H 769.958 -5.83017 2.80535 0
M  V30 7892 N 770.09 -0.729906 -1.39679 0
M  V30 7893 C 771.501 -0.346241 -1.83461 0
M  V30 7894 C 771.852 1.1215 -1.60987 0
M  V30 7895 O 770.977 1.86456 -1.09832 0
M  V30 7896 C 771.572 -0.621656 -3.33048 0
M  V30 7897 C 770.131 -0.291543 -3.75269 0
M  V30 7898 C 769.278 -0.886844 -2.62736 0
M  V30 7899 H 772.229 -0.927949 -1.28743 0
M  V30 7900 H 772.25 0.108301 -3.80346 0
M  V30 7901 H 771.762 -1.68996 -3.49373 0
M  V30 7902 H 769.863 0.771133 -3.64533 0
M  V30 7903 H 769.976 -0.770544 -4.72863 0
M  V30 7904 H 768.34 -0.313839 -2.52759 0
M  V30 7905 H 769.123 -1.95971 -2.81869 0
M  V30 7906 N 771.568 1.50203 -0.477153 0
M  V30 7907 C 772.979 1.86685 -0.0235041 0
M  V30 7908 C 773.33 1.39148 1.38319 0
M  V30 7909 O 772.455 0.759051 2.02651 0
M  V30 7910 C 773.05 3.38781 -0.0358767 0
M  V30 7911 C 771.609 3.74652 0.362327 0
M  V30 7912 C 770.756 2.7412 -0.41875 0
M  V30 7913 H 773.707 1.4286 -0.691133 0
M  V30 7914 H 773.728 3.72732 0.764924 0
M  V30 7915 H 773.24 3.73349 -1.05981 0
M  V30 7916 H 771.341 3.45686 1.39039 0
M  V30 7917 H 771.454 4.79063 0.059457 0
M  V30 7918 H 769.818 2.54376 0.128341 0
M  V30 7919 H 770.601 3.11532 -1.44231 0
M  V30 7920 N 773.046 0.209999 1.56195 0
M  V30 7921 C 774.294 -0.423974 1.97603 0
M  V30 7922 C 774.615 -1.61112 1.09854 0
M  V30 7923 O 773.885 -1.95134 0.173032 0
M  V30 7924 H 772.465 -0.159629 0.729745 0
M  V30 7925 H 775.127 0.300205 1.92574 0
M  V30 7926 H 774.223 -0.75809 3.02753 0
M  V30 7927 N 774.524 -1.57472 -0.0634922 0
M  V30 7928 C 775.771 -1.87654 -0.761066 0
M  V30 7929 C 776.099 -0.802847 -1.77157 0
M  V30 7930 O 775.354 0.200244 -1.94673 0
M  V30 7931 C 775.653 -3.24521 -1.49736 0
M  V30 7932 C 775.319 -4.46532 -0.626065 0
M  V30 7933 C 773.981 -4.7965 -0.385978 0
M  V30 7934 C 776.333 -5.21195 -0.0224001 0
M  V30 7935 C 773.661 -5.84837 0.467118 0
M  V30 7936 C 776.013 -6.27286 0.818198 0
M  V30 7937 C 774.677 -6.58899 1.06808 0
M  V30 7938 H 773.947 -0.686675 -0.278494 0
M  V30 7939 H 776.594 -1.91488 -0.0216348 0
M  V30 7940 H 774.899 -3.16516 -2.30921 0
M  V30 7941 H 776.596 -3.45111 -2.04204 0
M  V30 7942 H 773.186 -4.20618 -0.823325 0
M  V30 7943 H 777.37 -4.95917 -0.194985 0
M  V30 7944 H 772.626 -6.07725 0.669375 0
M  V30 7945 H 776.8 -6.84298 1.29265 0
M  V30 7946 H 774.427 -7.40233 1.73088 0
M  V30 7947 N 776.003 0.335068 -1.53997 0
M  V30 7948 C 777.414 0.910191 -1.6301 0
M  V30 7949 C 777.765 1.89271 -0.516809 0
M  V30 7950 O 776.89 2.13516 0.352123 0
M  V30 7951 C 777.485 1.65761 -2.9548 0
M  V30 7952 C 776.044 2.18163 -3.06728 0
M  V30 7953 C 775.191 1.00338 -2.5851 0
M  V30 7954 H 778.142 0.112965 -1.58297 0
M  V30 7955 H 778.163 2.52107 -2.84995 0
M  V30 7956 H 777.675 0.94227 -3.76488 0
M  V30 7957 H 775.776 2.92847 -2.30372 0
M  V30 7958 H 775.889 2.43952 -4.1234 0
M  V30 7959 H 774.253 1.37925 -2.14124 0
M  V30 7960 H 775.036 0.30254 -3.41964 0
M  V30 7961 N 777.481 1.45874 0.596531 0
M  V30 7962 C 778.429 1.55739 1.72766 0
M  V30 7963 C 779.423 0.426666 1.63939 0
M  V30 7964 O 780.629 0.60301 1.69599 0
M  V30 7965 H 777.004 0.489386 0.570968 0
M  V30 7966 H 778.975 2.50871 1.61575 0
M  V30 7967 C 777.724 1.55174 3.11153 0
M  V30 7968 H 777.047 2.41511 3.1861 0
M  V30 7969 H 778.487 1.66133 3.90097 0
M  V30 7970 C 776.946 0.278001 3.35751 0
M  V30 7971 O 777.476 -0.637557 3.96608 0
M  V30 7972 N 775.682 0.170227 2.90101 0
M  V30 7973 H 775.229 0.916159 2.40758 0
M  V30 7974 H 775.187 -0.68117 3.06932 0
M  V30 7975 N 778.959 -0.83999 1.33349 0
M  V30 7976 C 780.187 -1.62728 1.27778 0
M  V30 7977 C 780.602 -1.88191 -0.151505 0
M  V30 7978 O 779.959 -1.46128 -1.09329 0
M  V30 7979 C 780.01 -2.97813 2.04913 0
M  V30 7980 O 779.731 -2.73469 3.42266 0
M  V30 7981 C 781.232 -3.92245 2.0654 0
M  V30 7982 H 778.452 -0.506374 0.440257 0
M  V30 7983 H 780.996 -1.04637 1.75703 0
M  V30 7984 H 779.151 -3.52509 1.60674 0
M  V30 7985 H 779.565 -3.59483 3.81932 0
M  V30 7986 H 781.039 -4.84249 2.64966 0
M  V30 7987 H 781.516 -4.26332 1.05537 0
M  V30 7988 H 782.122 -3.43487 2.50793 0
M  V30 7989 N 780.437 -1.16799 -1.0581 0
M  V30 7990 C 781.4 -0.881396 -2.11575 0
M  V30 7991 C 782.4 0.12574 -1.60308 0
M  V30 7992 O 783.59 -0.105716 -1.73879 0
M  V30 7993 C 780.722 -0.319037 -3.39404 0
M  V30 7994 H 781.915 -1.81907 -2.38432 0
M  V30 7995 H 779.468 -0.977597 -1.21954 0
M  V30 7996 H 780.203 0.626082 -3.18199 0
M  V30 7997 H 779.988 -1.04481 -3.77923 0
M  V30 7998 H 781.478 -0.13663 -4.17376 0
M  V30 7999 N 781.915 1.24427 -0.967243 0
M  V30 8000 C 783.163 1.92107 -0.627638 0
M  V30 8001 C 783.484 1.75991 0.83978 0
M  V30 8002 O 782.754 1.13118 1.59941 0
M  V30 8003 H 781.334 0.710986 -0.229145 0
M  V30 8004 H 783.996 1.51331 -1.22821 0
M  V30 8005 H 783.092 2.99791 -0.867844 0
M  V30 8006 N 783.393 0.737304 1.3929 0
M  V30 8007 C 784.642 0.283129 1.99703 0
M  V30 8008 C 784.955 -1.13677 1.59176 0
M  V30 8009 O 786.161 -1.69058 2.12442 0
M  V30 8010 C 784.617 0.455262 3.57009 0
M  V30 8011 C 784.225 1.88319 4.06497 0
M  V30 8012 C 785.969 0.0629786 4.24453 0
M  V30 8013 C 783.876 2.00475 5.56385 0
M  V30 8014 H 782.806 0.102106 0.747054 0
M  V30 8015 H 785.457 0.911515 1.5926 0
M  V30 8016 H 783.839 -0.242057 3.9526 0
M  V30 8017 H 785.013 2.61265 3.79575 0
M  V30 8018 H 783.328 2.2289 3.51723 0
M  V30 8019 H 785.925 0.132787 5.34535 0
M  V30 8020 H 786.268 -0.982128 4.04549 0
M  V30 8021 H 786.801 0.71154 3.91385 0
M  V30 8022 H 783.54 3.03182 5.81172 0
M  V30 8023 H 783.06 1.31969 5.85102 0
M  V30 8024 H 784.739 1.787 6.21832 0
M  V30 8025 N 784.871 -1.49948 0.485112 0
M  V30 8026 C 786.12 -2.01589 -0.066765 0
M  V30 8027 C 786.433 -1.371 -1.39509 0
M  V30 8028 O 787.639 -1.79978 -2.03274 0
M  V30 8029 C 786.095 -3.59501 -0.169476 0
M  V30 8030 C 785.703 -4.32955 1.15126 0
M  V30 8031 C 787.447 -4.19138 -0.672564 0
M  V30 8032 C 785.354 -5.82684 1.01158 0
M  V30 8033 H 784.284 -0.753453 -0.0287259 0
M  V30 8034 H 786.935 -1.72632 0.622132 0
M  V30 8035 H 785.317 -3.85106 -0.922471 0
M  V30 8036 H 786.491 -4.19064 1.9163 0
M  V30 8037 H 784.806 -3.84991 1.58654 0
M  V30 8038 H 787.403 -5.28767 -0.794325 0
M  V30 8039 H 787.746 -3.81447 -1.66745 0
M  V30 8040 H 788.279 -3.97793 0.0234415 0
M  V30 8041 H 785.018 -6.24873 1.98025 0
M  V30 8042 H 784.538 -5.99112 0.287151 0
M  V30 8043 H 786.217 -6.43376 0.683847 0
M  V30 8044 N 786.349 -0.21828 -1.56081 0
M  V30 8045 C 787.282 0.733096 -2.16104 0
M  V30 8046 C 788.26 1.19333 -1.10447 0
M  V30 8047 O 789.444 1.27666 -1.38685 0
M  V30 8048 C 786.571 1.99283 -2.73868 0
M  V30 8049 C 785.617 1.67285 -3.92324 0
M  V30 8050 S 786.45 0.800511 -5.29483 0
M  V30 8051 C 787.606 2.06988 -5.90683 0
M  V30 8052 H 787.839 0.222917 -2.96463 0
M  V30 8053 H 785.372 -0.00300946 -1.544 0
M  V30 8054 H 787.33 2.71618 -3.07789 0
M  V30 8055 H 785.991 2.47414 -1.93508 0
M  V30 8056 H 785.184 2.60874 -4.31232 0
M  V30 8057 H 784.786 1.03016 -3.59533 0
M  V30 8058 H 787.078 3.02019 -6.06457 0
M  V30 8059 H 788.021 1.72476 -6.86773 0
M  V30 8060 H 788.429 2.20893 -5.19487 0
M  V30 8061 N 787.827 1.57504 0.0551401 0
M  V30 8062 C 788.76 2.00155 1.09604 0
M  V30 8063 C 789.738 0.881274 1.36647 0
M  V30 8064 O 790.922 1.14498 1.49742 0
M  V30 8065 C 788.049 2.35246 2.43674 0
M  V30 8066 C 787.095 3.57452 2.32659 0
M  V30 8067 S 787.928 5.07639 1.7048 0
M  V30 8068 C 789.084 5.45947 3.06093 0
M  V30 8069 H 789.317 2.88131 0.732635 0
M  V30 8070 H 786.85 1.52122 0.264252 0
M  V30 8071 H 788.808 2.56136 3.20787 0
M  V30 8072 H 787.469 1.47769 2.7717 0
M  V30 8073 H 786.662 3.79576 3.31569 0
M  V30 8074 H 786.264 3.36279 1.63685 0
M  V30 8075 H 788.556 5.45036 4.0242 0
M  V30 8076 H 789.499 6.4656 2.88732 0
M  V30 8077 H 789.907 4.73419 3.07466 0
M  V30 8078 N 789.305 -0.326896 1.54172 0
M  V30 8079 C 790.554 -1.06274 1.71431 0
M  V30 8080 C 790.867 -1.89282 0.493123 0
M  V30 8081 O 792.073 -2.65933 0.54699 0
M  V30 8082 C 790.529 -1.93892 3.03206 0
M  V30 8083 C 790.137 -1.16011 4.32719 0
M  V30 8084 C 791.881 -2.67232 3.29829 0
M  V30 8085 C 789.788 -2.02755 5.55558 0
M  V30 8086 H 788.718 -0.400475 0.638855 0
M  V30 8087 H 791.369 -0.321184 1.80667 0
M  V30 8088 H 789.751 -2.71933 2.87869 0
M  V30 8089 H 790.925 -0.427643 4.58811 0
M  V30 8090 H 789.24 -0.54367 4.12836 0
M  V30 8091 H 791.837 -3.32434 4.18798 0
M  V30 8092 H 792.18 -3.34692 2.47562 0
M  V30 8093 H 792.713 -1.96255 3.46018 0
M  V30 8094 H 789.452 -1.3981 6.40417 0
M  V30 8095 H 788.972 -2.73745 5.33689 0
M  V30 8096 H 790.651 -2.61419 5.91835 0
M  V30 8097 N 790.784 -1.46188 -0.588786 0
M  V30 8098 C 791.747 -1.55882 -1.68029 0
M  V30 8099 C 792.747 -0.436515 -1.54762 0
M  V30 8100 O 793.937 -0.700626 -1.59489 0
M  V30 8101 C 791.069 -1.47332 -3.07418 0
M  V30 8102 H 792.262 -2.5315 -1.60795 0
M  V30 8103 H 789.815 -1.33908 -0.806116 0
M  V30 8104 H 790.55 -0.513193 -3.20214 0
M  V30 8105 H 790.335 -2.28753 -3.18456 0
M  V30 8106 H 791.825 -1.57187 -3.86887 0
M  V30 8107 N 792.262 0.832906 -1.33792 0
M  V30 8108 C 793.225 1.92471 -1.24449 0
M  V30 8109 C 794.225 1.59981 -0.162085 0
M  V30 8110 O 795.415 1.69208 -0.414029 0
M  V30 8111 C 792.547 3.28278 -0.919044 0
M  V30 8112 H 793.74 2.0218 -2.21502 0
M  V30 8113 H 791.293 1.0257 -1.17936 0
M  V30 8114 H 792.028 3.24263 0.048738 0
M  V30 8115 H 791.813 3.53241 -1.70187 0
M  V30 8116 H 793.303 4.08253 -0.878576 0
M  V30 8117 N 793.74 1.17359 1.05189 0
M  V30 8118 C 794.672 0.848078 2.12933 0
M  V30 8119 C 795.685 -0.149521 1.62112 0
M  V30 8120 O 796.874 0.0767797 1.78335 0
M  V30 8121 C 793.974 0.243889 3.38021 0
M  V30 8122 C 793.147 1.28436 4.18118 0
M  V30 8123 C 792.206 0.697926 5.21551 0
M  V30 8124 O 791.232 1.36973 5.52473 0
M  V30 8125 N 792.434 -0.510024 5.78255 0
M  V30 8126 H 795.199 1.7754 2.41453 0
M  V30 8127 H 792.76 1.07244 1.21286 0
M  V30 8128 H 794.752 -0.161727 4.04377 0
M  V30 8129 H 793.322 -0.58722 3.07035 0
M  V30 8130 H 792.542 1.86573 3.47252 0
M  V30 8131 H 793.83 1.98617 4.68432 0
M  V30 8132 H 793.228 -1.07378 5.55416 0
M  V30 8133 H 791.785 -0.857705 6.46132 0
M  V30 8134 N 795.218 -1.23913 0.973828 0
M  V30 8135 C 796.629 -1.73992 0.677021 0
M  V30 8136 C 796.98 -1.78833 -0.807036 0
M  V30 8137 O 796.105 -1.42183 -1.63135 0
M  V30 8138 C 796.7 -3.15985 1.22226 0
M  V30 8139 C 795.259 -3.63547 0.975228 0
M  V30 8140 C 794.406 -2.42001 1.35392 0
M  V30 8141 H 797.357 -1.09529 1.14844 0
M  V30 8142 H 797.378 -3.75875 0.591489 0
M  V30 8143 H 796.89 -3.12429 2.30238 0
M  V30 8144 H 794.991 -3.72493 -0.0891047 0
M  V30 8145 H 795.104 -4.50693 1.62518 0
M  V30 8146 H 793.468 -2.42708 0.772334 0
M  V30 8147 H 794.251 -2.41122 2.44367 0
M  V30 8148 N 796.696 -0.74468 -1.38897 0
M  V30 8149 C 797.644 -0.100312 -2.32384 0
M  V30 8150 C 798.638 0.715191 -1.53562 0
M  V30 8151 O 799.844 0.615288 -1.69157 0
M  V30 8152 H 796.219 -0.0136403 -0.751876 0
M  V30 8153 H 798.19 -0.905007 -2.84345 0
M  V30 8154 C 796.939 0.785432 -3.38713 0
M  V30 8155 H 796.262 0.167308 -3.9945 0
M  V30 8156 H 797.702 1.20374 -4.06554 0
M  V30 8157 C 796.161 1.92408 -2.76552 0
M  V30 8158 O 796.691 3.01752 -2.65157 0
M  V30 8159 N 794.897 1.71642 -2.34494 0
M  V30 8160 H 794.444 0.827079 -2.43961 0
M  V30 8161 H 794.402 2.48 -1.93244 0
M  V30 8162 N 798.174 1.49689 -0.493057 0
M  V30 8163 C 799.421 2.02427 0.0542714 0
M  V30 8164 C 799.749 1.37339 1.37725 0
M  V30 8165 O 799.004 0.495523 1.89323 0
M  V30 8166 C 799.303 3.56427 0.263536 0
M  V30 8167 C 798.969 4.40111 -0.98046 0
M  V30 8168 C 797.631 4.62699 -1.32148 0
M  V30 8169 C 799.983 4.88847 -1.80771 0
M  V30 8170 C 797.311 5.31268 -2.48941 0
M  V30 8171 C 799.663 5.587 -2.96711 0
M  V30 8172 C 798.327 5.79536 -3.31202 0
M  V30 8173 H 797.597 0.740734 0.0198593 0
M  V30 8174 H 800.244 1.80073 -0.651603 0
M  V30 8175 H 798.549 3.77416 1.05186 0
M  V30 8176 H 800.246 3.94819 0.701348 0
M  V30 8177 H 796.836 4.22765 -0.704814 0
M  V30 8178 H 801.02 4.71231 -1.55741 0
M  V30 8179 H 796.276 5.45603 -2.75911 0
M  V30 8180 H 800.45 5.9544 -3.61143 0
M  V30 8181 H 798.077 6.32443 -4.21805 0
M  V30 8182 N 799.652 0.226554 1.55963 0
M  V30 8183 C 800.877 -0.411527 2.03276 0
M  V30 8184 C 801.302 -1.52206 1.10521 0
M  V30 8185 O 800.66 -1.81054 0.0943217 0
M  V30 8186 C 800.708 -0.915694 3.4878 0
M  V30 8187 O 799.812 -2.02672 3.59163 0
M  V30 8188 H 799.153 -0.0924907 0.657527 0
M  V30 8189 H 801.683 0.346656 2.01642 0
M  V30 8190 H 801.693 -1.22421 3.892 0
M  V30 8191 H 800.368 -0.102915 4.15773 0
M  V30 8192 H 798.945 -1.72445 3.30632 0
M  V30 8193 N 801.13 -1.57531 -0.0467866 0
M  V30 8194 C 802.377 -1.88451 -0.74112 0
M  V30 8195 C 802.705 -0.821592 -1.76296 0
M  V30 8196 O 801.96 0.179585 -1.94874 0
M  V30 8197 C 802.259 -3.26091 -1.46285 0
M  V30 8198 C 801.925 -4.47171 -0.578669 0
M  V30 8199 C 800.587 -4.80032 -0.335083 0
M  V30 8200 C 802.939 -5.2119 0.0328809 0
M  V30 8201 C 800.267 -5.84309 0.529121 0
M  V30 8202 C 802.619 -6.26383 0.884684 0
M  V30 8203 C 801.283 -6.57729 1.1379 0
M  V30 8204 H 800.553 -0.68959 -0.271195 0
M  V30 8205 H 803.2 -1.915 -0.00132378 0
M  V30 8206 H 801.505 -3.18948 -2.27551 0
M  V30 8207 H 803.202 -3.47258 -2.00532 0
M  V30 8208 H 799.792 -4.21467 -0.778666 0
M  V30 8209 H 803.976 -4.96096 -0.142375 0
M  V30 8210 H 799.232 -6.06981 0.733794 0
M  V30 8211 H 803.406 -6.82888 1.36516 0
M  V30 8212 H 801.033 -7.38355 1.80929 0
M  V30 8213 N 802.608 0.318715 -1.54344 0
M  V30 8214 C 804.024 0.663345 -1.45162 0
M  V30 8215 C 804.224 1.9145 -0.62842 0
M  V30 8216 O 803.28 2.5217 -0.129126 0
M  V30 8217 C 804.593 0.832836 -2.88937 0
M  V30 8218 C 806.141 0.929866 -2.98869 0
M  V30 8219 C 806.616 1.13149 -4.43803 0
M  V30 8220 N 808.107 1.19811 -4.47437 0
M  V30 8221 C 808.842 1.37209 -5.56742 0
M  V30 8222 N 808.338 1.51619 -6.76006 0
M  V30 8223 N 810.131 1.39956 -5.44398 0
M  V30 8224 H 802.282 -0.50357 -2.06344 0
M  V30 8225 H 804.545 -0.163528 -0.933789 0
M  V30 8226 H 804.251 -0.0153519 -3.51697 0
M  V30 8227 H 804.125 1.72721 -3.35332 0
M  V30 8228 H 806.512 1.76855 -2.36233 0
M  V30 8229 H 806.593 0.0118561 -2.55797 0
M  V30 8230 H 806.237 0.297636 -5.07027 0
M  V30 8231 H 806.167 2.06345 -4.84489 0
M  V30 8232 H 808.658 1.101 -3.61506 0
M  V30 8233 H 808.971 1.64599 -7.55067 0
M  V30 8234 H 807.316 1.48708 -6.78904 0
M  V30 8235 H 810.507 1.28298 -4.50175 0
M  V30 8236 H 810.68 1.53172 -6.29637 0
M  V30 8237 N 804.086 1.46499 0.581025 0
M  V30 8238 C 805.335 1.51162 1.3354 0
M  V30 8239 C 805.648 0.168433 1.94873 0
M  V30 8240 O 806.854 0.092883 2.71341 0
M  V30 8241 C 805.31 2.66362 2.42032 0
M  V30 8242 C 804.918 4.07109 1.86994 0
M  V30 8243 C 806.662 2.80297 3.188 0
M  V30 8244 C 804.569 5.13645 2.93125 0
M  V30 8245 H 803.499 0.562576 0.502021 0
M  V30 8246 H 806.15 1.72713 0.619863 0
M  V30 8247 H 804.532 2.38143 3.16392 0
M  V30 8248 H 805.706 4.45125 1.19166 0
M  V30 8249 H 804.021 3.97854 1.22887 0
M  V30 8250 H 806.618 3.5706 3.9801 0
M  V30 8251 H 806.961 1.87875 3.71495 0
M  V30 8252 H 807.494 3.0817 2.51547 0
M  V30 8253 H 804.233 6.07866 2.45315 0
M  V30 8254 H 803.753 4.80172 3.59437 0
M  V30 8255 H 805.432 5.39562 3.57046 0
M  V30 8256 N 805.565 -0.825799 1.34232 0
M  V30 8257 C 806.497 -1.94401 1.21413 0
M  V30 8258 C 807.51 -1.6218 0.141902 0
M  V30 8259 O 808.699 -1.74109 0.3935 0
M  V30 8260 C 805.799 -3.28257 0.842635 0
M  V30 8261 C 804.972 -3.88521 2.00924 0
M  V30 8262 C 804.031 -5.00752 1.61661 0
M  V30 8263 O 803.057 -5.19201 2.33279 0
M  V30 8264 N 804.259 -5.78084 0.52911 0
M  V30 8265 H 807.024 -2.05931 2.17744 0
M  V30 8266 H 804.585 -1.00223 1.27149 0
M  V30 8267 H 806.577 -4.00781 0.561822 0
M  V30 8268 H 805.147 -3.12585 -0.0304029 0
M  V30 8269 H 804.367 -3.08425 2.45495 0
M  V30 8270 H 805.655 -4.25516 2.78951 0
M  V30 8271 H 805.053 -5.65661 -0.0663322 0
M  V30 8272 H 803.61 -6.51072 0.308017 0
M  V30 8273 N 807.043 -1.17915 -1.04565 0
M  V30 8274 C 807.99 -0.901605 -2.12461 0
M  V30 8275 C 808.96 0.157011 -1.65356 0
M  V30 8276 O 810.145 0.0184494 -1.90791 0
M  V30 8277 C 807.285 -0.42796 -3.42436 0
M  V30 8278 C 806.398 -1.55142 -4.03181 0
M  V30 8279 C 805.533 -1.03101 -5.21098 0
M  V30 8280 C 804.572 -2.1295 -5.73863 0
M  V30 8281 N 803.709 -1.62339 -6.83074 0
M  V30 8282 H 808.549 -1.82551 -2.3554 0
M  V30 8283 H 806.086 -0.910389 -1.15544 0
M  V30 8284 H 808.044 -0.134859 -4.16982 0
M  V30 8285 H 806.674 0.458977 -3.1952 0
M  V30 8286 H 805.726 -1.96011 -3.26012 0
M  V30 8287 H 807.038 -2.37968 -4.38375 0
M  V30 8288 H 806.192 -0.692132 -6.02739 0
M  V30 8289 H 804.931 -0.17227 -4.87396 0
M  V30 8290 H 803.936 -2.47687 -4.90847 0
M  V30 8291 H 805.161 -2.9925 -6.09611 0
M  V30 8292 H 803.107 -0.787464 -6.51256 0
M  V30 8293 H 803.024 -2.38767 -7.17305 0
M  V30 8294 H 804.292 -1.31363 -7.68351 0
M  V30 8295 N 808.521 1.23394 -0.980386 0
M  V30 8296 C 809.798 1.87242 -0.565667 0
M  V30 8297 C 810.178 1.88151 0.957197 0
M  V30 8298 O 809.526 1.36309 1.8339 0
M  V30 8299 C 809.736 3.28743 -1.17172 0
M  V30 8300 C 811.084 4.05335 -1.26446 0
M  V30 8301 O 812.108 3.37962 -1.12517 0
M  V30 8302 O 810.967 5.25908 -1.48604 0
M  V30 8303 H 808.061 0.80477 -0.190459 0
M  V30 8304 H 810.607 1.3127 -1.07547 0
M  V30 8305 H 809.379 3.22647 -2.21392 0
M  V30 8306 H 809.002 3.92305 -0.646739 0
M  V30 8307 N 809.999 0.752036 1.385 0
M  V30 8308 C 811.415 0.42946 1.53713 0
M  V30 8309 C 811.615 -1.0576 1.71514 0
M  V30 8310 O 810.671 -1.84366 1.72527 0
M  V30 8311 C 811.984 1.22735 2.74511 0
M  V30 8312 C 813.532 1.21727 2.8836 0
M  V30 8313 C 814.007 1.99809 4.12117 0
M  V30 8314 N 815.498 1.97062 4.19191 0
M  V30 8315 C 816.233 2.54274 5.13938 0
M  V30 8316 N 815.729 3.20193 6.14368 0
M  V30 8317 N 817.522 2.44212 5.06277 0
M  V30 8318 H 809.673 1.71581 1.25195 0
M  V30 8319 H 811.936 0.727293 0.60807 0
M  V30 8320 H 811.642 2.28032 2.67758 0
M  V30 8321 H 811.516 0.843186 3.67655 0
M  V30 8322 H 813.903 0.172367 2.94596 0
M  V30 8323 H 813.984 1.64094 1.96232 0
M  V30 8324 H 813.628 3.0431 4.06642 0
M  V30 8325 H 813.558 1.54837 5.03322 0
M  V30 8326 H 816.049 1.49054 3.47263 0
M  V30 8327 H 816.362 3.61272 6.83156 0
M  V30 8328 H 814.707 3.24287 6.14705 0
M  V30 8329 H 817.898 1.92343 4.26757 0
M  V30 8330 H 818.071 2.89096 5.79937 0
M  V30 8331 N 811.477 -1.49425 0.500989 0
M  V30 8332 C 812.387 -2.32899 -0.282011 0
M  V30 8333 C 813.403 -1.44632 -0.967346 0
M  V30 8334 O 814.579 -1.77654 -0.94873 0
M  V30 8335 C 811.644 -3.20069 -1.33253 0
M  V30 8336 C 810.705 -4.24186 -0.660636 0
M  V30 8337 C 809.938 -5.07191 -1.6611 0
M  V30 8338 O 810.161 -4.91712 -2.89094 0
M  V30 8339 O 809.095 -5.8948 -1.21643 0
M  V30 8340 H 812.921 -3.01038 0.401224 0
M  V30 8341 H 810.506 -1.47079 0.262323 0
M  V30 8342 H 812.388 -3.74071 -1.94033 0
M  V30 8343 H 811.063 -2.54625 -1.9987 0
M  V30 8344 H 809.97 -3.74098 -0.0130959 0
M  V30 8345 H 811.303 -4.92186 -0.0369179 0
M  V30 8346 N 812.955 -0.234822 -1.55841 0
M  V30 8347 C 814.232 0.442961 -1.90518 0
M  V30 8348 C 814.612 1.76768 -1.15397 0
M  V30 8349 O 813.96 2.26928 -0.267534 0
M  V30 8350 C 814.17 0.622905 -3.43396 0
M  V30 8351 C 815.518 0.9243 -4.14417 0
M  V30 8352 O 816.542 0.709211 -3.49068 0
M  V30 8353 O 815.401 1.33323 -5.29988 0
M  V30 8354 H 812.495 0.236042 -0.792599 0
M  V30 8355 H 815.041 -0.277992 -1.67408 0
M  V30 8356 H 813.813 -0.310973 -3.90062 0
M  V30 8357 H 813.436 1.39485 -3.7233 0
M  V30 8358 N 814.433 1.57553 0.0384317 0
M  V30 8359 C 815.366 2.01307 1.07475 0
M  V30 8360 C 816.344 0.895717 1.35704 0
M  V30 8361 O 817.528 1.16079 1.48519 0
M  V30 8362 C 814.655 2.37817 2.41165 0
M  V30 8363 C 813.701 3.599 2.28855 0
M  V30 8364 S 814.534 5.09418 1.65086 0
M  V30 8365 C 815.69 5.49162 3.00286 0
M  V30 8366 H 815.923 2.88892 0.702034 0
M  V30 8367 H 813.456 1.52394 0.248103 0
M  V30 8368 H 815.414 2.59524 3.18053 0
M  V30 8369 H 814.075 1.507 2.75587 0
M  V30 8370 H 813.268 3.83071 3.27525 0
M  V30 8371 H 812.87 3.37996 1.60109 0
M  V30 8372 H 815.162 5.49274 3.96617 0
M  V30 8373 H 816.105 6.49586 2.81858 0
M  V30 8374 H 816.513 4.76653 3.02427 0
M  V30 8375 N 815.911 -0.310526 1.54511 0
M  V30 8376 C 817.139 -1.06611 1.77318 0
M  V30 8377 C 817.554 -1.81265 0.528043 0
M  V30 8378 O 816.911 -1.75466 -0.50178 0
M  V30 8379 C 816.962 -2.05409 2.97472 0
M  V30 8380 O 816.683 -1.33785 4.17173 0
M  V30 8381 C 818.184 -2.93082 3.32593 0
M  V30 8382 H 815.404 -0.316578 0.591624 0
M  V30 8383 H 817.948 -0.352691 2.01436 0
M  V30 8384 H 816.103 -2.72266 2.7559 0
M  V30 8385 H 816.517 -2.00055 4.84849 0
M  V30 8386 H 817.991 -3.58274 4.19933 0
M  V30 8387 H 818.468 -3.60877 2.50329 0
M  V30 8388 H 819.074 -2.31768 3.566 0
M  V30 8389 N 817.389 -1.46805 -0.573248 0
M  V30 8390 C 818.321 -1.54127 -1.6964 0
M  V30 8391 C 819.334 -0.428778 -1.57052 0
M  V30 8392 O 820.523 -0.697612 -1.64303 0
M  V30 8393 C 817.623 -1.41438 -3.07975 0
M  V30 8394 C 816.796 -2.66974 -3.46474 0
M  V30 8395 C 815.855 -2.48349 -4.63906 0
M  V30 8396 O 814.881 -3.22109 -4.69292 0
M  V30 8397 N 816.083 -1.55129 -5.59388 0
M  V30 8398 H 818.848 -2.50971 -1.6381 0
M  V30 8399 H 816.409 -1.42981 -0.759479 0
M  V30 8400 H 818.401 -1.26737 -3.84343 0
M  V30 8401 H 816.971 -0.527388 -3.08119 0
M  V30 8402 H 816.191 -2.9655 -2.59715 0
M  V30 8403 H 817.479 -3.50347 -3.68964 0
M  V30 8404 H 816.877 -0.94324 -5.57781 0
M  V30 8405 H 815.434 -1.46387 -6.35149 0
M  V30 8406 N 818.867 0.818669 -1.34668 0
M  V30 8407 C 820.095 1.60674 -1.30351 0
M  V30 8408 C 820.51 1.88408 0.121546 0
M  V30 8409 O 819.867 1.47849 1.06991 0
M  V30 8410 C 819.918 2.94516 -2.09625 0
M  V30 8411 O 819.639 2.6799 -3.46573 0
M  V30 8412 C 821.14 3.8891 -2.12754 0
M  V30 8413 H 818.36 0.499306 -0.448258 0
M  V30 8414 H 820.904 1.01828 -1.77345 0
M  V30 8415 H 819.059 3.49908 -1.66262 0
M  V30 8416 H 819.473 3.53361 -3.87603 0
M  V30 8417 H 820.947 4.79972 -2.72637 0
M  V30 8418 H 821.424 4.24599 -1.12306 0
M  V30 8419 H 822.03 3.39453 -2.56225 0
M  V30 8420 N 820.346 1.18468 1.03938 0
M  V30 8421 C 821.309 0.914944 2.10146 0
M  V30 8422 C 822.309 -0.10022 1.60487 0
M  V30 8423 O 823.499 0.133365 1.73689 0
M  V30 8424 C 820.631 0.372993 3.38853 0
M  V30 8425 H 821.824 1.85677 2.35508 0
M  V30 8426 H 819.377 0.996876 1.20383 0
M  V30 8427 H 820.112 -0.57538 3.19155 0
M  V30 8428 H 819.897 1.1048 3.76213 0
M  V30 8429 H 821.387 0.203014 4.17106 0
M  V30 8430 N 821.824 -1.22873 0.986916 0
M  V30 8431 C 823.073 -1.90772 0.654911 0
M  V30 8432 C 823.386 -1.77768 -0.81595 0
M  V30 8433 O 824.592 -2.40529 -1.25929 0
M  V30 8434 C 823.048 -3.42003 1.12081 0
M  V30 8435 C 822.656 -3.63655 2.61647 0
M  V30 8436 C 824.4 -4.15638 0.862854 0
M  V30 8437 C 822.307 -5.08555 3.01871 0
M  V30 8438 H 821.237 -0.714362 0.241252 0
M  V30 8439 H 823.888 -1.39196 1.19568 0
M  V30 8440 H 822.27 -3.92725 0.508207 0
M  V30 8441 H 823.444 -3.2345 3.28202 0
M  V30 8442 H 821.759 -3.03341 2.8526 0
M  V30 8443 H 824.356 -5.22425 1.13915 0
M  V30 8444 H 824.699 -4.15814 -0.201036 0
M  V30 8445 H 825.232 -3.70924 1.43736 0
M  V30 8446 H 821.971 -5.13514 4.07411 0
M  V30 8447 H 821.491 -5.49684 2.40015 0
M  V30 8448 H 823.17 -5.76936 2.92839 0
M  V30 8449 N 823.302 -0.75937 -1.38099 0
M  V30 8450 C 824.232 -0.151077 -2.33011 0
M  V30 8451 C 825.213 0.697099 -1.5516 0
M  V30 8452 O 826.398 0.637101 -1.83452 0
M  V30 8453 C 823.528 0.738423 -3.39359 0
M  V30 8454 C 822.482 -0.0074741 -4.27999 0
M  V30 8455 C 821.808 1.00066 -5.25253 0
M  V30 8456 C 823.108 -1.17926 -5.08813 0
M  V30 8457 H 824.802 -0.943933 -2.84131 0
M  V30 8458 H 822.348 -0.455362 -1.36611 0
M  V30 8459 H 824.301 1.17369 -4.04725 0
M  V30 8460 H 823.025 1.56366 -2.86735 0
M  V30 8461 H 821.684 -0.423379 -3.64147 0
M  V30 8462 H 821.332 1.82012 -4.68914 0
M  V30 8463 H 821.032 0.506199 -5.85416 0
M  V30 8464 H 822.556 1.43512 -5.93495 0
M  V30 8465 H 823.97 -0.821262 -5.67387 0
M  V30 8466 H 822.367 -1.60497 -5.78239 0
M  V30 8467 H 823.437 -1.98938 -4.42212 0
M  V30 8468 N 824.78 1.49157 -0.508906 0
M  V30 8469 C 825.712 2.272 0.302115 0
M  V30 8470 C 826.725 1.3407 0.923529 0
M  V30 8471 O 827.914 1.5929 0.805532 0
M  V30 8472 C 825.014 3.06736 1.44105 0
M  V30 8473 C 824.187 4.27497 0.925477 0
M  V30 8474 C 823.246 4.89014 1.94297 0
M  V30 8475 O 822.272 5.48851 1.50834 0
M  V30 8476 N 823.474 4.7937 3.2739 0
M  V30 8477 H 826.239 2.97443 -0.367115 0
M  V30 8478 H 823.8 1.58248 -0.341933 0
M  V30 8479 H 825.792 3.44763 2.11944 0
M  V30 8480 H 824.362 2.3905 2.0143 0
M  V30 8481 H 823.582 3.94135 0.0717301 0
M  V30 8482 H 824.87 5.05714 0.55955 0
M  V30 8483 H 824.268 4.31869 3.65384 0
M  V30 8484 H 822.825 5.21559 3.90922 0
M  V30 8485 N 826.258 0.243083 1.55714 0
M  V30 8486 C 827.206 -0.674349 2.2261 0
M  V30 8487 C 828.2 -1.18307 1.21243 0
M  V30 8488 O 829.406 -1.1404 1.39265 0
M  V30 8489 H 825.781 -0.235941 0.714028 0
M  V30 8490 H 827.752 -0.0869446 2.98273 0
M  V30 8491 C 826.501 -1.86206 2.93637 0
M  V30 8492 H 825.824 -1.47975 3.71407 0
M  V30 8493 H 827.264 -2.4813 3.43813 0
M  V30 8494 C 825.723 -2.73084 1.97298 0
M  V30 8495 O 826.253 -3.72497 1.50361 0
M  V30 8496 N 824.459 -2.39571 1.64482 0
M  V30 8497 H 824.006 -1.5878 2.02846 0
M  V30 8498 H 823.964 -2.97976 1.00288 0
M  V30 8499 N 827.736 -1.57571 -0.0300757 0
M  V30 8500 C 829.013 -1.80381 -0.756447 0
M  V30 8501 C 829.393 -0.840906 -1.93628 0
M  V30 8502 O 828.741 0.117143 -2.282 0
M  V30 8503 C 828.951 -3.2807 -1.19043 0
M  V30 8504 C 830.299 -3.93025 -1.60676 0
M  V30 8505 O 831.323 -3.32213 -1.28503 0
M  V30 8506 O 830.182 -5.00092 -2.20386 0
M  V30 8507 H 827.276 -0.741737 -0.365725 0
M  V30 8508 H 829.822 -1.69699 -0.00693177 0
M  V30 8509 H 828.594 -3.89748 -0.348128 0
M  V30 8510 H 828.217 -3.43637 -1.99999 0
M  V30 8511 N 829.214 0.302327 -1.54673 0
M  V30 8512 C 830.625 0.875409 -1.64904 0
M  V30 8513 C 830.976 1.88132 -0.55684 0
M  V30 8514 O 830.101 2.14215 0.306754 0
M  V30 8515 C 830.696 1.59457 -2.9893 0
M  V30 8516 C 829.255 2.11607 -3.11287 0
M  V30 8517 C 828.402 0.948324 -2.6058 0
M  V30 8518 H 831.353 0.079362 -1.58501 0
M  V30 8519 H 831.374 2.46005 -2.90279 0
M  V30 8520 H 830.886 0.8622 -3.78402 0
M  V30 8521 H 828.987 2.87895 -2.36532 0
M  V30 8522 H 829.1 2.35151 -4.17422 0
M  V30 8523 H 827.464 1.33352 -2.17001 0
M  V30 8524 H 828.247 0.229936 -3.42529 0
M  V30 8525 N 830.692 1.47107 0.565454 0
M  V30 8526 C 831.94 1.53005 1.32038 0
M  V30 8527 C 832.261 0.190453 1.94068 0
M  V30 8528 O 831.531 -0.784783 1.79494 0
M  V30 8529 H 830.111 0.563578 0.490294 0
M  V30 8530 H 832.773 1.83351 0.660928 0
M  V30 8531 H 831.869 2.29215 2.11818 0
M  V30 8532 N 832.17 -0.811516 1.35101 0
M  V30 8533 C 833.117 -1.92308 1.27617 0
M  V30 8534 C 834.087 -1.6543 0.149091 0
M  V30 8535 O 835.272 -1.8789 0.331974 0
M  V30 8536 C 832.412 -3.28768 1.04908 0
M  V30 8537 C 831.525 -3.67865 2.26493 0
M  V30 8538 C 830.66 -4.9333 1.96974 0
M  V30 8539 C 829.699 -5.25041 3.1464 0
M  V30 8540 N 828.836 -6.41685 2.84929 0
M  V30 8541 H 833.676 -1.98041 2.22674 0
M  V30 8542 H 831.213 -0.968755 1.10696 0
M  V30 8543 H 833.171 -4.07426 0.897749 0
M  V30 8544 H 831.801 -3.22517 0.135151 0
M  V30 8545 H 830.853 -2.84507 2.52507 0
M  V30 8546 H 832.165 -3.87263 3.14371 0
M  V30 8547 H 831.319 -5.79803 1.78643 0
M  V30 8548 H 830.058 -4.75958 1.06374 0
M  V30 8549 H 829.063 -4.3706 3.33554 0
M  V30 8550 H 830.288 -5.44346 4.06035 0
M  V30 8551 H 828.234 -6.25747 1.96918 0
M  V30 8552 H 828.151 -6.6131 3.66341 0
M  V30 8553 H 829.419 -7.31198 2.70128 0
M  V30 8554 N 833.648 -1.19017 -1.03309 0
M  V30 8555 C 834.581 -0.867457 -2.1107 0
M  V30 8556 C 835.559 0.173752 -1.61669 0
M  V30 8557 O 836.743 0.0510077 -1.88431 0
M  V30 8558 C 833.87 -0.297459 -3.37391 0
M  V30 8559 C 832.916 -1.31706 -4.05655 0
M  V30 8560 S 833.749 -2.87591 -4.51721 0
M  V30 8561 C 834.905 -2.32122 -5.81266 0
M  V30 8562 H 835.138 -1.78008 -2.38119 0
M  V30 8563 H 832.671 -1.01686 -1.16187 0
M  V30 8564 H 834.629 0.0248889 -4.10492 0
M  V30 8565 H 833.29 0.5934 -3.08444 0
M  V30 8566 H 832.483 -0.867264 -4.96482 0
M  V30 8567 H 832.085 -1.58603 -3.38705 0
M  V30 8568 H 834.377 -1.70855 -6.55603 0
M  V30 8569 H 835.32 -3.2128 -6.31019 0
M  V30 8570 H 835.728 -1.74858 -5.36736 0
M  V30 8571 N 835.127 1.22348 -0.993418 0
M  V30 8572 C 836.057 2.26584 -0.564088 0
M  V30 8573 C 837.038 1.65102 0.409298 0
M  V30 8574 O 838.223 1.91872 0.299819 0
M  V30 8575 C 835.353 3.47087 0.121554 0
M  V30 8576 C 834.307 4.21009 -0.770429 0
M  V30 8577 C 833.633 5.34678 0.0481586 0
M  V30 8578 C 834.933 4.79636 -2.06752 0
M  V30 8579 H 836.627 2.62749 -1.43538 0
M  V30 8580 H 834.173 1.26303 -0.691628 0
M  V30 8581 H 836.126 4.19166 0.433303 0
M  V30 8582 H 834.85 3.1002 1.0274 0
M  V30 8583 H 833.509 3.50764 -1.06583 0
M  V30 8584 H 833.157 4.93852 0.954933 0
M  V30 8585 H 832.857 5.85061 -0.545641 0
M  V30 8586 H 834.381 6.09573 0.353991 0
M  V30 8587 H 835.795 5.43654 -1.81969 0
M  V30 8588 H 834.192 5.4036 -2.61019 0
M  V30 8589 H 835.262 3.99659 -2.74592 0
M  V30 8590 N 836.605 0.766683 1.37694 0
M  V30 8591 C 837.552 0.147725 2.30327 0
M  V30 8592 C 838.522 -0.695366 1.50844 0
M  V30 8593 O 839.707 -0.64878 1.79431 0
M  V30 8594 C 836.847 -0.72935 3.37305 0
M  V30 8595 C 835.96 0.129795 4.31805 0
M  V30 8596 C 835.095 -0.751511 5.25857 0
M  V30 8597 C 834.134 0.110475 6.12 0
M  V30 8598 N 833.271 -0.728522 6.9831 0
M  V30 8599 H 838.111 0.943204 2.82679 0
M  V30 8600 H 835.648 0.476736 1.3916 0
M  V30 8601 H 837.606 -1.25263 3.97951 0
M  V30 8602 H 836.236 -1.49048 2.86329 0
M  V30 8603 H 835.288 0.770829 3.72508 0
M  V30 8604 H 836.6 0.794923 4.92425 0
M  V30 8605 H 835.754 -1.34146 5.91684 0
M  V30 8606 H 834.493 -1.45034 4.65636 0
M  V30 8607 H 833.498 0.712999 5.45157 0
M  V30 8608 H 834.723 0.806557 6.74293 0
M  V30 8609 H 832.669 -1.41206 6.40622 0
M  V30 8610 H 832.586 -0.12058 7.55904 0
M  V30 8611 H 833.854 -1.30303 7.68532 0
M  V30 8612 N 838.083 -1.48885 0.516809 0
M  V30 8613 C 839.36 -1.95412 -0.0858293 0
M  V30 8614 C 839.74 -1.45875 -1.5259 0
M  V30 8615 O 839.088 -0.679415 -2.18166 0
M  V30 8616 C 839.298 -3.48995 0.0178194 0
M  V30 8617 C 840.646 -4.24342 -0.14813 0
M  V30 8618 O 841.67 -3.56155 -0.0566125 0
M  V30 8619 O 840.529 -5.45454 -0.338035 0
M  V30 8620 H 837.623 -0.822455 -0.0865884 0
M  V30 8621 H 840.169 -1.59464 0.580472 0
M  V30 8622 H 838.941 -3.77732 1.02147 0
M  V30 8623 H 838.564 -3.91604 -0.687924 0
M  V30 8624 N 839.561 -0.251338 -1.55583 0
M  V30 8625 C 840.524 0.63305 -2.20284 0
M  V30 8626 C 841.524 1.09941 -1.17344 0
M  V30 8627 O 842.714 1.00341 -1.42399 0
M  V30 8628 C 839.846 1.8706 -2.84993 0
M  V30 8629 H 841.039 0.0684846 -2.99822 0
M  V30 8630 H 838.592 -0.00181653 -1.563 0
M  V30 8631 H 839.327 2.47629 -2.09405 0
M  V30 8632 H 839.112 1.54436 -3.60405 0
M  V30 8633 H 840.602 2.50004 -3.34496 0
M  V30 8634 N 841.039 1.57585 0.0217189 0
M  V30 8635 C 842.288 1.88786 0.710125 0
M  V30 8636 C 842.601 0.850819 1.76126 0
M  V30 8637 O 843.807 1.0523 2.50277 0
M  V30 8638 C 842.263 3.3505 1.31413 0
M  V30 8639 C 841.871 4.47001 0.298959 0
M  V30 8640 C 843.615 3.7539 1.98199 0
M  V30 8641 C 841.522 5.8433 0.911727 0
M  V30 8642 H 840.452 0.704388 0.268986 0
M  V30 8643 H 843.103 1.83466 -0.0352638 0
M  V30 8644 H 841.485 3.35138 2.10947 0
M  V30 8645 H 842.659 4.58395 -0.470203 0
M  V30 8646 H 840.974 4.15542 -0.267222 0
M  V30 8647 H 843.571 4.75314 2.4491 0
M  V30 8648 H 843.914 3.07766 2.80331 0
M  V30 8649 H 844.447 3.77508 1.2543 0
M  V30 8650 H 841.186 6.55372 0.129659 0
M  V30 8651 H 840.706 5.76643 1.65056 0
M  V30 8652 H 842.385 6.31295 1.41688 0
M  V30 8653 N 842.517 -0.29412 1.54831 0
M  V30 8654 C 843.794 -1.04847 1.65126 0
M  V30 8655 C 844.174 -2.04996 0.503986 0
M  V30 8656 O 843.522 -2.22996 -0.498496 0
M  V30 8657 C 843.732 -1.72418 3.03435 0
M  V30 8658 C 845.08 -2.24362 3.60481 0
M  V30 8659 O 846.104 -1.8244 3.05932 0
M  V30 8660 O 844.963 -3.01196 4.56008 0
M  V30 8661 H 842.057 -0.485032 0.669831 0
M  V30 8662 H 844.603 -0.291659 1.67175 0
M  V30 8663 H 843.375 -0.997351 3.78376 0
M  V30 8664 H 842.998 -2.54839 3.05193 0
M  V30 8665 N 843.995 -1.47404 -0.557645 0
M  V30 8666 C 844.942 -1.59859 -1.66475 0
M  V30 8667 C 845.912 -0.441644 -1.60121 0
M  V30 8668 O 847.097 -0.661641 -1.78961 0
M  V30 8669 C 844.237 -1.61843 -3.04797 0
M  V30 8670 C 843.35 -2.8845 -3.2159 0
M  V30 8671 C 842.485 -2.81773 -4.50308 0
M  V30 8672 C 841.524 -4.03208 -4.60532 0
M  V30 8673 N 840.661 -3.94769 -5.80604 0
M  V30 8674 H 845.501 -2.54415 -1.55168 0
M  V30 8675 H 843.038 -1.26194 -0.755876 0
M  V30 8676 H 844.996 -1.60976 -3.84893 0
M  V30 8677 H 843.626 -0.707997 -3.1494 0
M  V30 8678 H 842.678 -2.99186 -2.34929 0
M  V30 8679 H 843.99 -3.78379 -3.25009 0
M  V30 8680 H 843.144 -2.79153 -5.38663 0
M  V30 8681 H 841.883 -1.89527 -4.49367 0
M  V30 8682 H 840.888 -4.06133 -3.70589 0
M  V30 8683 H 842.113 -4.9658 -4.63233 0
M  V30 8684 H 840.059 -3.05326 -5.80613 0
M  V30 8685 H 839.976 -4.78375 -5.854 0
M  V30 8686 H 841.244 -3.96165 -6.71322 0
M  V30 8687 N 845.473 0.80434 -1.35529 0
M  V30 8688 C 846.405 1.92445 -1.2449 0
M  V30 8689 C 847.418 1.61934 -0.167685 0
M  V30 8690 O 848.607 1.73461 -0.42115 0
M  V30 8691 C 845.707 3.26875 -0.894751 0
M  V30 8692 C 844.88 3.85275 -2.07079 0
M  V30 8693 C 843.939 4.98116 -1.69607 0
M  V30 8694 O 842.965 5.15424 -2.41509 0
M  V30 8695 N 844.167 5.77169 -0.621012 0
M  V30 8696 H 846.932 2.02441 -2.20993 0
M  V30 8697 H 844.493 0.981874 -1.28728 0
M  V30 8698 H 846.485 3.99837 -0.625511 0
M  V30 8699 H 845.055 3.12594 -0.0193306 0
M  V30 8700 H 844.275 3.0448 -2.5037 0
M  V30 8701 H 845.563 4.21024 -2.85685 0
M  V30 8702 H 844.961 5.65695 -0.0236679 0
M  V30 8703 H 843.518 6.50499 -0.411558 0
M  V30 8704 N 846.951 1.19563 1.02676 0
M  V30 8705 C 848.197 1.00105 1.76371 0
M  V30 8706 C 848.53 -0.466823 1.88506 0
M  V30 8707 O 847.805 -1.34665 1.40341 0
M  V30 8708 C 848.088 1.67321 3.18866 0
M  V30 8709 C 847.941 3.21486 3.1459 0
M  V30 8710 C 849.26 1.39794 4.17308 0
M  V30 8711 H 846.379 0.365075 0.640226 0
M  V30 8712 H 849.021 1.47433 1.19848 0
M  V30 8713 H 847.171 1.27081 3.67128 0
M  V30 8714 H 848.843 3.70953 2.7421 0
M  V30 8715 H 847.086 3.5292 2.52249 0
M  V30 8716 H 847.757 3.63665 4.15273 0
M  V30 8717 H 850.233 1.74685 3.77657 0
M  V30 8718 H 849.109 1.89371 5.15199 0
M  V30 8719 H 849.37 0.323505 4.40915 0
M  V30 8720 N 848.429 -1.21819 0.999893 0
M  V30 8721 C 849.392 -2.22227 0.561044 0
M  V30 8722 C 850.392 -1.56722 -0.359858 0
M  V30 8723 O 851.582 -1.73546 -0.150848 0
M  V30 8724 C 848.714 -3.40409 -0.182987 0
M  V30 8725 H 849.907 -2.62567 1.44909 0
M  V30 8726 H 847.46 -1.34991 0.78785 0
M  V30 8727 H 848.195 -3.05551 -1.08671 0
M  V30 8728 H 847.98 -3.89171 0.47833 0
M  V30 8729 H 849.47 -4.14856 -0.477952 0
M  V30 8730 N 849.908 -0.773975 -1.37286 0
M  V30 8731 C 851.156 -0.338636 -1.99243 0
M  V30 8732 C 851.477 1.08919 -1.61746 0
M  V30 8733 O 850.747 1.74822 -0.88397 0
M  V30 8734 H 849.327 -0.12222 -0.736934 0
M  V30 8735 H 851.989 -0.992595 -1.67731 0
M  V30 8736 H 851.085 -0.418055 -3.09287 0
M  V30 8737 N 851.386 1.48609 -0.524698 0
M  V30 8738 C 852.349 2.28041 0.230166 0
M  V30 8739 C 853.349 1.35065 0.872584 0
M  V30 8740 O 854.539 1.58007 0.73345 0
M  V30 8741 C 851.671 3.13778 1.33252 0
M  V30 8742 H 852.864 2.96239 -0.467161 0
M  V30 8743 H 850.417 1.53763 -0.280452 0
M  V30 8744 H 851.152 2.502 2.06327 0
M  V30 8745 H 850.937 3.82165 0.877058 0
M  V30 8746 H 852.427 3.7371 1.86362 0
M  V30 8747 N 852.864 0.259585 1.55447 0
M  V30 8748 C 853.794 -0.62852 2.24882 0
M  V30 8749 C 854.775 -1.17128 1.23349 0
M  V30 8750 O 855.96 -1.20829 1.52033 0
M  V30 8751 C 853.09 -1.81983 2.95803 0
M  V30 8752 C 852.044 -1.40929 4.04132 0
M  V30 8753 C 851.37 -2.68246 4.62545 0
M  V30 8754 C 852.67 -0.570956 5.1917 0
M  V30 8755 H 854.364 -0.0495021 2.99359 0
M  V30 8756 H 851.91 -0.0223688 1.43983 0
M  V30 8757 H 853.863 -2.44689 3.43082 0
M  V30 8758 H 852.587 -2.42444 2.18835 0
M  V30 8759 H 851.246 -0.805519 3.57641 0
M  V30 8760 H 850.894 -3.26931 3.82263 0
M  V30 8761 H 850.594 -2.41495 5.35681 0
M  V30 8762 H 852.118 -3.31827 5.12565 0
M  V30 8763 H 853.532 -1.10262 5.62597 0
M  V30 8764 H 851.929 -0.398979 5.98772 0
M  V30 8765 H 852.999 0.413918 4.8313 0
M  V30 8766 N 854.342 -1.57594 -0.0133615 0
M  V30 8767 C 855.588 -1.90262 -0.702019 0
M  V30 8768 C 855.921 -0.859219 -1.74158 0
M  V30 8769 O 855.196 0.123778 -1.94106 0
M  V30 8770 C 855.479 -3.3354 -1.35732 0
M  V30 8771 C 855.332 -4.48586 -0.330208 0
M  V30 8772 C 856.651 -3.76004 -2.28712 0
M  V30 8773 H 853.77 -0.691943 -0.253739 0
M  V30 8774 H 856.412 -1.89967 0.0351894 0
M  V30 8775 H 854.562 -3.33921 -1.98567 0
M  V30 8776 H 856.234 -4.6034 0.297433 0
M  V30 8777 H 854.477 -4.32394 0.348926 0
M  V30 8778 H 855.148 -5.45762 -0.827508 0
M  V30 8779 H 857.624 -3.77089 -1.75906 0
M  V30 8780 H 856.5 -4.77032 -2.71535 0
M  V30 8781 H 856.761 -3.09129 -3.16056 0
M  V30 8782 N 855.82 0.285905 -1.54985 0
M  V30 8783 C 856.783 1.33625 -1.86218 0
M  V30 8784 C 857.783 1.42971 -0.735936 0
M  V30 8785 O 858.973 1.42345 -1.00417 0
M  V30 8786 C 856.105 2.71926 -2.05595 0
M  V30 8787 H 857.298 1.07167 -2.80099 0
M  V30 8788 H 854.851 0.523335 -1.47278 0
M  V30 8789 H 855.586 3.03583 -1.14053 0
M  V30 8790 H 855.371 2.6653 -2.87583 0
M  V30 8791 H 856.861 3.47841 -2.31077 0
M  V30 8792 N 857.298 1.47698 0.54982 0
M  V30 8793 C 858.546 1.54397 1.30407 0
M  V30 8794 C 858.867 0.211026 1.93855 0
M  V30 8795 O 858.137 -0.765701 1.80316 0
M  V30 8796 H 856.717 0.568747 0.484289 0
M  V30 8797 H 859.379 1.84042 0.641444 0
M  V30 8798 H 858.475 2.31449 2.09375 0
M  V30 8799 N 858.776 -0.797141 1.35954 0
M  V30 8800 C 860.004 -1.5858 1.32891 0
M  V30 8801 C 860.419 -1.88578 -0.0915564 0
M  V30 8802 O 859.776 -1.49532 -1.04625 0
M  V30 8803 C 859.827 -2.91143 2.14284 0
M  V30 8804 O 859.548 -2.62442 3.50793 0
M  V30 8805 C 861.049 -3.85476 2.18914 0
M  V30 8806 H 858.269 -0.492111 0.456144 0
M  V30 8807 H 860.813 -0.98994 1.78943 0
M  V30 8808 H 858.968 -3.47219 1.71807 0
M  V30 8809 H 859.382 -3.4715 3.93175 0
M  V30 8810 H 860.856 -4.75574 2.80238 0
M  V30 8811 H 861.333 -4.22758 1.19047 0
M  V30 8812 H 861.939 -3.35334 2.61593 0
M  V30 8813 N 860.254 -1.20106 -1.0204 0
M  V30 8814 C 861.482 -1.0344 -1.79186 0
M  V30 8815 C 861.897 0.416542 -1.84148 0
M  V30 8816 O 861.254 1.28925 -1.29168 0
M  V30 8817 C 861.305 -1.60663 -3.23836 0
M  V30 8818 O 861.026 -3.00079 -3.19193 0
M  V30 8819 C 862.527 -1.48897 -4.17546 0
M  V30 8820 H 859.747 -0.364093 -0.563629 0
M  V30 8821 H 862.291 -1.5911 -1.28469 0
M  V30 8822 H 860.446 -1.09122 -3.71714 0
M  V30 8823 H 860.86 -3.27162 -4.09958 0
M  V30 8824 H 862.334 -1.93703 -5.16898 0
M  V30 8825 H 862.811 -0.440843 -4.36982 0
M  V30 8826 H 863.417 -1.9961 -3.75547 0
M  V30 8827 N 861.732 1.21287 -1.00634 0
M  V30 8828 C 862.96 1.94385 -0.708678 0
M  V30 8829 C 863.375 1.7416 0.728957 0
M  V30 8830 O 862.732 1.04906 1.49335 0
M  V30 8831 C 862.783 3.46755 -1.02193 0
M  V30 8832 O 862.504 3.6631 -2.40309 0
M  V30 8833 C 864.005 4.37014 -0.743867 0
M  V30 8834 H 861.225 0.618136 -0.261052 0
M  V30 8835 H 863.769 1.54067 -1.34475 0
M  V30 8836 H 861.924 3.8499 -0.431441 0
M  V30 8837 H 862.338 4.60393 -2.51274 0
M  V30 8838 H 863.812 5.42621 -1.01321 0
M  V30 8839 H 864.289 4.38017 0.322084 0
M  V30 8840 H 864.895 4.04426 -1.31603 0
M  V30 8841 N 863.21 0.781244 1.36873 0
M  V30 8842 C 864.435 0.360398 2.04245 0
M  V30 8843 C 864.86 -1.01242 1.58529 0
M  V30 8844 O 864.218 -1.65063 0.749936 0
M  V30 8845 C 864.266 0.42329 3.58107 0
M  V30 8846 O 863.37 -0.572796 4.08403 0
M  V30 8847 H 862.711 0.154386 0.645803 0
M  V30 8848 H 865.241 1.06008 1.74996 0
M  V30 8849 H 865.251 0.283967 4.07011 0
M  V30 8850 H 863.926 1.42477 3.90734 0
M  V30 8851 H 862.503 -0.395809 3.70793 0
M  V30 8852 N 864.689 -1.48329 0.532571 0
M  V30 8853 C 865.917 -2.069 0.00354299 0
M  V30 8854 C 866.332 -1.38876 -1.27902 0
M  V30 8855 O 865.689 -0.477119 -1.76153 0
M  V30 8856 C 865.74 -3.60821 -0.221416 0
M  V30 8857 O 865.461 -4.26291 1.01034 0
M  V30 8858 C 866.962 -4.36194 -0.790531 0
M  V30 8859 H 864.182 -0.670103 0.0346836 0
M  V30 8860 H 866.726 -1.90682 0.738955 0
M  V30 8861 H 864.881 -3.76636 -0.906884 0
M  V30 8862 H 865.295 -5.18475 0.792683 0
M  V30 8863 H 866.769 -5.44657 -0.897347 0
M  V30 8864 H 867.246 -4.00798 -1.79605 0
M  V30 8865 H 867.852 -4.25064 -0.141546 0
M  V30 8866 N 866.167 -0.267825 -1.55308 0
M  V30 8867 C 867.117 0.637168 -2.18916 0
M  V30 8868 C 868.101 1.12381 -1.15149 0
M  V30 8869 O 869.293 1.0701 -1.40989 0
M  V30 8870 C 866.422 1.82423 -2.90821 0
M  V30 8871 C 865.508 1.35512 -4.01867 0
M  V30 8872 N 865.899 0.601644 -5.02209 0
M  V30 8873 C 864.197 1.63868 -4.14805 0
M  V30 8874 C 864.898 0.35596 -5.8061 0
M  V30 8875 N 863.874 0.926271 -5.3565 0
M  V30 8876 H 867.676 0.0535787 -2.93851 0
M  V30 8877 H 865.19 -0.0710577 -1.62244 0
M  V30 8878 H 867.187 2.48379 -3.34834 0
M  V30 8879 H 865.847 2.41185 -2.17394 0
M  V30 8880 H 866.858 0.249693 -5.17298 0
M  V30 8881 H 863.535 2.23618 -3.52564 0
M  V30 8882 H 864.925 -0.246994 -6.71446 0
M  V30 8883 N 867.645 1.57599 0.00500368 0
M  V30 8884 C 868.87 1.95026 0.705663 0
M  V30 8885 C 869.295 0.869643 1.6679 0
M  V30 8886 O 868.653 -0.172659 1.80476 0
M  V30 8887 C 868.701 3.31545 1.4181 0
M  V30 8888 O 867.805 3.25495 2.53232 0
M  V30 8889 H 867.146 0.636808 0.188074 0
M  V30 8890 H 869.676 2.04547 -0.046696 0
M  V30 8891 H 869.686 3.66996 1.78265 0
M  V30 8892 H 868.361 4.09751 0.712543 0
M  V30 8893 H 866.938 3.01714 2.19142 0
M  V30 8894 N 869.123 -0.277682 1.55134 0
M  V30 8895 C 870.369 -1.0114 1.7578 0
M  V30 8896 C 870.702 -1.86109 0.554719 0
M  V30 8897 O 869.977 -1.89275 -0.447813 0
M  V30 8898 C 870.26 -1.89789 3.06027 0
M  V30 8899 C 870.113 -1.07844 4.3668 0
M  V30 8900 C 871.432 -2.88577 3.32282 0
M  V30 8901 H 868.551 -0.366277 0.639539 0
M  V30 8902 H 871.193 -0.284155 1.87863 0
M  V30 8903 H 869.343 -2.51796 2.95856 0
M  V30 8904 H 871.015 -0.479432 4.58802 0
M  V30 8905 H 869.258 -0.381764 4.32117 0
M  V30 8906 H 869.929 -1.73179 5.24131 0
M  V30 8907 H 872.405 -2.36702 3.42215 0
M  V30 8908 H 871.281 -3.47749 4.2469 0
M  V30 8909 H 871.542 -3.63458 2.51696 0
M  V30 8910 N 870.601 -1.47988 -0.541979 0
M  V30 8911 C 871.564 -1.61148 -1.62984 0
M  V30 8912 C 872.564 -0.48553 -1.53295 0
M  V30 8913 O 873.754 -0.751012 -1.5718 0
M  V30 8914 C 870.886 -1.57038 -3.02576 0
M  V30 8915 H 872.079 -2.58138 -1.52659 0
M  V30 8916 H 869.632 -1.36405 -0.763106 0
M  V30 8917 H 870.367 -0.614807 -3.18419 0
M  V30 8918 H 870.152 -2.38769 -3.11018 0
M  V30 8919 H 871.642 -1.69416 -3.81691 0
M  V30 8920 N 872.079 0.78992 -1.36375 0
M  V30 8921 C 873.307 1.57873 -1.3373 0
M  V30 8922 C 873.722 1.88624 0.0815544 0
M  V30 8923 O 873.079 1.50085 1.03831 0
M  V30 8924 C 873.13 2.90003 -2.15825 0
M  V30 8925 O 872.851 2.60578 -3.5218 0
M  V30 8926 C 874.352 3.84309 -2.20955 0
M  V30 8927 H 871.572 0.489685 -0.458748 0
M  V30 8928 H 874.116 0.980436 -1.79465 0
M  V30 8929 H 872.271 3.46303 -1.73646 0
M  V30 8930 H 872.685 3.4506 -3.95011 0
M  V30 8931 H 874.159 4.74081 -2.82756 0
M  V30 8932 H 874.636 4.22121 -1.21287 0
M  V30 8933 H 875.242 3.33942 -2.63368 0
M  V30 8934 N 873.557 1.20646 1.01402 0
M  V30 8935 C 874.834 0.927176 1.72229 0
M  V30 8936 C 875.214 -0.563382 2.03443 0
M  V30 8937 O 874.562 -1.52576 1.70096 0
M  V30 8938 C 874.772 1.80285 2.98828 0
M  V30 8939 C 876.12 2.04624 3.72041 0
M  V30 8940 O 877.144 1.77559 3.0879 0
M  V30 8941 O 876.003 2.50347 4.85787 0
M  V30 8942 H 873.097 0.346891 0.75073 0
M  V30 8943 H 875.643 1.31532 1.07227 0
M  V30 8944 H 874.415 2.81204 2.72102 0
M  V30 8945 H 874.038 1.41495 3.71571 0
M  V30 8946 N 875.035 -1.20752 1.01276 0
M  V30 8947 C 876.26 -1.94547 0.718769 0
M  V30 8948 C 876.685 -1.7404 -0.713563 0
M  V30 8949 O 876.043 -1.03221 -1.49047 0
M  V30 8950 C 876.091 -3.44823 1.05497 0
M  V30 8951 O 875.195 -4.12072 0.164516 0
M  V30 8952 H 874.536 -0.607931 0.267051 0
M  V30 8953 H 877.066 -1.53292 1.35509 0
M  V30 8954 H 877.076 -3.95427 1.00507 0
M  V30 8955 H 875.751 -3.59072 2.09858 0
M  V30 8956 H 874.328 -3.71909 0.271615 0
M  V30 8957 N 876.513 -0.788492 -1.36457 0
M  V30 8958 C 877.741 -0.372365 -2.03522 0
M  V30 8959 C 878.156 1.01093 -1.59454 0
M  V30 8960 O 877.513 1.64824 -0.783535 0
M  V30 8961 C 877.564 -0.425435 -3.58988 0
M  V30 8962 O 877.285 -1.75418 -4.01448 0
M  V30 8963 C 878.786 0.000180167 -4.433 0
M  V30 8964 H 876.006 -0.1536 -0.653183 0
M  V30 8965 H 878.55 -1.06708 -1.74452 0
M  V30 8966 H 876.705 0.220856 -3.8677 0
M  V30 8967 H 877.119 -1.70437 -4.96036 0
M  V30 8968 H 878.593 -0.0880919 -5.5193 0
M  V30 8969 H 879.07 1.05269 -4.26398 0
M  V30 8970 H 879.676 -0.618563 -4.20778 0
M  V30 8971 N 877.991 1.48044 -0.54043 0
M  V30 8972 C 879.402 1.86418 -0.102662 0
M  V30 8973 C 879.753 1.4489 1.32293 0
M  V30 8974 O 878.878 0.844319 1.99249 0
M  V30 8975 C 879.473 3.38324 -0.179533 0
M  V30 8976 C 878.032 3.75852 0.203098 0
M  V30 8977 C 877.179 2.72097 -0.534637 0
M  V30 8978 H 880.13 1.398 -0.751103 0
M  V30 8979 H 880.151 3.75641 0.606147 0
M  V30 8980 H 879.663 3.68518 -1.21721 0
M  V30 8981 H 877.764 3.51272 1.24252 0
M  V30 8982 H 877.877 4.78884 -0.143784 0
M  V30 8983 H 876.241 2.54692 0.0203358 0
M  V30 8984 H 877.024 3.05135 -1.57314 0
M  V30 8985 N 879.47 0.276058 1.55163 0
M  V30 8986 C 880.433 -0.597924 2.21263 0
M  V30 8987 C 881.433 -1.0806 1.19078 0
M  V30 8988 O 882.623 -0.980626 1.43977 0
M  V30 8989 C 879.755 -1.82503 2.87933 0
M  V30 8990 H 880.948 -0.0207769 2.99893 0
M  V30 8991 H 878.501 0.0266823 1.56277 0
M  V30 8992 H 879.236 -2.44266 2.13318 0
M  V30 8993 H 879.021 -1.48683 3.62816 0
M  V30 8994 H 880.511 -2.44651 3.38431 0
M  V30 8995 N 880.948 -1.576 0.00335426 0
M  V30 8996 C 881.878 -2.11668 -0.985839 0
M  V30 8997 C 882.859 -1.02661 -1.35627 0
M  V30 8998 O 884.044 -1.30361 -1.43943 0
M  V30 8999 C 881.174 -2.62273 -2.27662 0
M  V30 9000 C 880.128 -3.75837 -2.0477 0
M  V30 9001 C 879.454 -4.12769 -3.39891 0
M  V30 9002 C 880.754 -5.02975 -1.40759 0
M  V30 9003 H 882.448 -2.9457 -0.535637 0
M  V30 9004 H 879.994 -1.41702 -0.256204 0
M  V30 9005 H 881.947 -2.98727 -2.97221 0
M  V30 9006 H 880.671 -1.76498 -2.74802 0
M  V30 9007 H 879.33 -3.39782 -1.37636 0
M  V30 9008 H 878.978 -3.24013 -3.8474 0
M  V30 9009 H 878.678 -4.89281 -3.25389 0
M  V30 9010 H 880.202 -4.51784 -4.1076 0
M  V30 9011 H 881.616 -5.37179 -2.00279 0
M  V30 9012 H 880.013 -5.84315 -1.36734 0
M  V30 9013 H 881.083 -4.83431 -0.377218 0
M  V30 9014 N 882.426 0.269451 -1.5528 0
M  V30 9015 C 883.358 1.35553 -1.84819 0
M  V30 9016 C 884.371 1.45369 -0.732914 0
M  V30 9017 O 885.56 1.47122 -1.0108 0
M  V30 9018 C 882.66 2.73645 -1.9993 0
M  V30 9019 C 881.833 2.86376 -3.30617 0
M  V30 9020 C 880.892 4.05165 -3.35749 0
M  V30 9021 O 879.918 3.95756 -4.09104 0
M  V30 9022 N 881.12 5.17297 -2.63408 0
M  V30 9023 H 883.885 1.10557 -2.78563 0
M  V30 9024 H 881.446 0.459566 -1.5524 0
M  V30 9025 H 883.438 3.51411 -2.00729 0
M  V30 9026 H 882.008 2.91448 -1.13035 0
M  V30 9027 H 881.228 1.95465 -3.42326 0
M  V30 9028 H 882.516 2.91815 -4.16799 0
M  V30 9029 H 881.914 5.2783 -2.03501 0
M  V30 9030 H 880.471 5.93281 -2.69927 0
M  V30 9031 N 883.904 1.48273 0.534124 0
M  V30 9032 C 884.867 1.6201 1.62127 0
M  V30 9033 C 885.867 0.493653 1.53035 0
M  V30 9034 O 887.057 0.759337 1.56779 0
M  V30 9035 C 884.189 1.5864 3.01739 0
M  V30 9036 H 885.382 2.58944 1.51288 0
M  V30 9037 H 882.935 1.36808 0.755861 0
M  V30 9038 H 883.67 0.631685 3.18088 0
M  V30 9039 H 883.455 2.40415 3.09747 0
M  V30 9040 H 884.945 1.71438 3.80787 0
M  V30 9041 N 885.382 -0.782676 1.36792 0
M  V30 9042 C 886.345 -1.8772 1.31507 0
M  V30 9043 C 887.345 -1.59269 0.221349 0
M  V30 9044 O 888.535 -1.67555 0.476544 0
M  V30 9045 C 885.667 -3.24641 1.04025 0
M  V30 9046 H 886.86 -1.9382 2.28853 0
M  V30 9047 H 884.413 -0.981226 1.21662 0
M  V30 9048 H 885.148 -3.24221 0.0716439 0
M  V30 9049 H 884.933 -3.46681 1.8318 0
M  V30 9050 H 886.423 -4.04711 1.02949 0
M  V30 9051 N 886.86 -1.21182 -1.00761 0
M  V30 9052 C 887.77 -0.984691 -2.12934 0
M  V30 9053 C 888.786 0.0623657 -1.73888 0
M  V30 9054 O 889.962 -0.1271 -2.00999 0
M  V30 9055 C 887.027 -0.549447 -3.42319 0
M  V30 9056 C 886.088 -1.66841 -3.95553 0
M  V30 9057 C 885.321 -1.25384 -5.18763 0
M  V30 9058 O 885.544 -0.126333 -5.7026 0
M  V30 9059 O 884.478 -2.06475 -5.65377 0
M  V30 9060 H 888.304 -1.92413 -2.3497 0
M  V30 9061 H 885.889 -0.99647 -1.11314 0
M  V30 9062 H 887.771 -0.316384 -4.20211 0
M  V30 9063 H 886.446 0.361304 -3.21677 0
M  V30 9064 H 885.353 -1.95585 -3.189 0
M  V30 9065 H 886.686 -2.55649 -4.206 0
M  V30 9066 N 888.338 1.20213 -1.01915 0
M  V30 9067 C 889.566 1.93622 -0.729255 0
M  V30 9068 C 889.981 1.74923 0.710444 0
M  V30 9069 O 889.338 1.06484 1.48214 0
M  V30 9070 C 889.389 3.45651 -1.05865 0
M  V30 9071 O 889.11 3.63741 -2.44181 0
M  V30 9072 C 890.611 4.36201 -0.790176 0
M  V30 9073 H 887.831 0.615333 -0.267594 0
M  V30 9074 H 890.375 1.52633 -1.36101 0
M  V30 9075 H 888.53 3.84511 -0.47225 0
M  V30 9076 H 888.944 4.57702 -2.56143 0
M  V30 9077 H 890.418 5.41516 -1.07071 0
M  V30 9078 H 890.895 4.38334 0.275609 0
M  V30 9079 H 891.501 4.03008 -1.35885 0
M  V30 9080 N 889.816 0.795718 1.36037 0
M  V30 9081 C 891.064 0.370291 1.98679 0
M  V30 9082 C 891.385 -1.06332 1.63458 0
M  V30 9083 O 890.655 -1.73394 0.911671 0
M  V30 9084 H 889.235 0.133928 0.734896 0
M  V30 9085 H 891.897 1.01915 1.6613 0
M  V30 9086 H 890.993 0.467207 3.08583 0
M  V30 9087 N 891.294 -1.47756 0.548274 0
M  V30 9088 C 892.257 -2.28379 -0.193857 0
M  V30 9089 C 893.257 -1.36436 -0.850986 0
M  V30 9090 O 894.447 -1.59154 -0.70822 0
M  V30 9091 C 891.579 -3.15858 -1.28243 0
M  V30 9092 H 892.772 -2.95458 0.514231 0
M  V30 9093 H 890.325 -1.53298 0.304879 0
M  V30 9094 H 891.06 -2.5345 -2.0232 0
M  V30 9095 H 890.845 -3.83512 -0.816148 0
M  V30 9096 H 892.335 -3.76627 -1.80393 0
M  V30 9097 N 892.772 -0.284283 -1.55015 0
M  V30 9098 C 894 0.332948 -2.04203 0
M  V30 9099 C 894.415 1.48783 -1.16229 0
M  V30 9100 O 893.772 1.81567 -0.184323 0
M  V30 9101 C 893.823 0.805207 -3.52418 0
M  V30 9102 O 893.544 -0.303689 -4.37046 0
M  V30 9103 C 895.045 1.48931 -4.17534 0
M  V30 9104 H 892.265 0.0747447 -0.666824 0
M  V30 9105 H 894.809 -0.419048 -2.00161 0
M  V30 9106 H 892.964 1.50727 -3.56876 0
M  V30 9107 H 893.378 0.0609703 -5.24465 0
M  V30 9108 H 894.852 1.77108 -5.22816 0
M  V30 9109 H 895.329 2.42389 -3.66257 0
M  V30 9110 H 895.935 0.830867 -4.17105 0
M  V30 9111 N 894.251 1.57596 -0.0117121 0
M  V30 9112 C 895.476 1.95764 0.684938 0
M  V30 9113 C 895.901 0.887285 1.65858 0
M  V30 9114 O 895.259 -0.153508 1.80649 0
M  V30 9115 C 895.307 3.33031 1.38285 0
M  V30 9116 O 894.411 3.28163 2.49765 0
M  V30 9117 H 893.752 0.638767 0.181309 0
M  V30 9118 H 896.282 2.04486 -0.0683883 0
M  V30 9119 H 896.292 3.68866 1.74362 0
M  V30 9120 H 894.967 4.10483 0.669043 0
M  V30 9121 H 893.544 3.04021 2.15929 0
M  V30 9122 N 895.729 -0.261212 1.5542 0
M  V30 9123 C 896.957 -1.00916 1.8062 0
M  V30 9124 C 897.372 -1.79494 0.585444 0
M  V30 9125 O 896.729 -1.76974 -0.445702 0
M  V30 9126 C 896.78 -1.95841 3.03856 0
M  V30 9127 O 896.501 -1.20445 4.21218 0
M  V30 9128 C 898.002 -2.82352 3.41749 0
M  V30 9129 H 895.222 -0.297596 0.601397 0
M  V30 9130 H 897.766 -0.288427 2.02456 0
M  V30 9131 H 895.921 -2.63361 2.84112 0
M  V30 9132 H 896.335 -1.84528 4.90968 0
M  V30 9133 H 897.809 -3.44733 4.31118 0
M  V30 9134 H 898.286 -3.5273 2.61683 0
M  V30 9135 H 898.892 -2.20306 3.63793 0
M  V30 9136 N 897.207 -1.48554 -0.526253 0
M  V30 9137 C 898.17 -1.62868 -1.61266 0
M  V30 9138 C 899.17 -0.501762 -1.52771 0
M  V30 9139 O 900.36 -0.76764 -1.56374 0
M  V30 9140 C 897.492 -1.60238 -3.00893 0
M  V30 9141 H 898.685 -2.59742 -1.49913 0
M  V30 9142 H 896.238 -1.37207 -0.748595 0
M  V30 9143 H 896.973 -0.648545 -3.17749 0
M  V30 9144 H 896.758 -2.42054 -3.08468 0
M  V30 9145 H 898.248 -1.73455 -3.79872 0
M  V30 9146 N 898.685 0.775411 -1.37205 0
M  V30 9147 C 900.101 1.07546 -1.17924 0
M  V30 9148 C 900.301 2.01496 -0.0128897 0
M  V30 9149 O 899.357 2.44039 0.64816 0
M  V30 9150 C 900.67 1.67647 -2.49629 0
M  V30 9151 C 902.218 1.79923 -2.56119 0
M  V30 9152 C 902.693 2.43438 -3.87946 0
M  V30 9153 N 904.184 2.50893 -3.89368 0
M  V30 9154 C 904.919 3.00881 -4.88117 0
M  V30 9155 N 904.415 3.5107 -5.97262 0
M  V30 9156 N 906.208 2.99722 -4.75524 0
M  V30 9157 H 898.359 0.151524 -2.11859 0
M  V30 9158 H 900.622 0.129845 -0.939066 0
M  V30 9159 H 900.328 1.06082 -3.3532 0
M  V30 9160 H 900.202 2.66988 -2.66453 0
M  V30 9161 H 902.589 2.40621 -1.70838 0
M  V30 9162 H 902.67 0.793482 -2.43182 0
M  V30 9163 H 902.314 1.8338 -4.73639 0
M  V30 9164 H 902.244 3.44611 -3.98184 0
M  V30 9165 H 904.735 2.1537 -3.10522 0
M  V30 9166 H 905.048 3.87604 -6.68568 0
M  V30 9167 H 903.393 3.49184 -6.00912 0
M  V30 9168 H 906.584 2.5981 -3.8938 0
M  V30 9169 H 906.757 3.38369 -5.52639 0
M  V30 9170 N 900.163 1.21714 1.00117 0
M  V30 9171 C 901.44 0.945391 1.71236 0
M  V30 9172 C 901.82 -0.541772 2.0403 0
M  V30 9173 O 901.168 -1.50763 1.71705 0
M  V30 9174 C 901.378 1.83444 2.96899 0
M  V30 9175 C 902.726 2.08558 3.69849 0
M  V30 9176 O 903.75 1.80824 3.06889 0
M  V30 9177 O 902.609 2.55485 4.83104 0
M  V30 9178 H 899.703 0.354834 0.747009 0
M  V30 9179 H 902.249 1.32661 1.05825 0
M  V30 9180 H 901.021 2.84075 2.69105 0
M  V30 9181 H 900.644 1.45428 3.70049 0
M  V30 9182 N 901.641 -1.19671 1.02551 0
M  V30 9183 C 902.551 -2.26441 0.613329 0
M  V30 9184 C 903.567 -1.70375 -0.353339 0
M  V30 9185 O 904.743 -2.0028 -0.212064 0
M  V30 9186 C 901.808 -3.46684 -0.0329028 0
M  V30 9187 C 900.869 -4.17945 0.980837 0
M  V30 9188 C 900.102 -5.32448 0.36535 0
M  V30 9189 O 900.325 -5.64291 -0.832596 0
M  V30 9190 O 899.259 -5.92012 1.08652 0
M  V30 9191 H 903.085 -2.63932 1.50246 0
M  V30 9192 H 900.67 -1.2646 0.795502 0
M  V30 9193 H 902.552 -4.1956 -0.393395 0
M  V30 9194 H 901.227 -3.1105 -0.896089 0
M  V30 9195 H 900.134 -3.47204 1.39286 0
M  V30 9196 H 901.467 -4.57542 1.81428 0
M  V30 9197 N 903.119 -0.802921 -1.35613 0
M  V30 9198 C 904.344 -0.392846 -2.03645 0
M  V30 9199 C 904.769 0.987075 -1.6012 0
M  V30 9200 O 904.127 1.63849 -0.776101 0
M  V30 9201 C 904.175 -0.480208 -3.57388 0
M  V30 9202 O 903.279 0.507751 -4.09262 0
M  V30 9203 H 902.62 -0.16464 -0.643265 0
M  V30 9204 H 905.15 -1.08779 -1.73287 0
M  V30 9205 H 905.16 -0.348683 -4.06507 0
M  V30 9206 H 903.835 -1.48675 -3.88418 0
M  V30 9207 H 902.412 0.336769 -3.71376 0
M  V30 9208 N 904.597 1.47463 -0.556102 0
M  V30 9209 C 905.53 2.26934 0.240027 0
M  V30 9210 C 906.508 1.33981 0.921297 0
M  V30 9211 O 907.692 1.63361 0.940506 0
M  V30 9212 C 904.819 3.10982 1.34194 0
M  V30 9213 C 903.865 4.19504 0.769342 0
M  V30 9214 S 904.698 5.34127 -0.383209 0
M  V30 9215 C 905.854 6.21739 0.720548 0
M  V30 9216 H 906.087 2.9411 -0.434348 0
M  V30 9217 H 903.62 1.50556 -0.342402 0
M  V30 9218 H 905.578 3.59976 1.973 0
M  V30 9219 H 904.239 2.4317 1.98814 0
M  V30 9220 H 903.432 4.78036 1.59679 0
M  V30 9221 H 903.034 3.73385 0.214475 0
M  V30 9222 H 905.326 6.58021 1.61292 0
M  V30 9223 H 906.269 7.0789 0.172602 0
M  V30 9224 H 906.677 5.55342 1.01272 0
M  V30 9225 N 906.075 0.2925 1.54862 0
M  V30 9226 C 907.324 -0.319994 1.99146 0
M  V30 9227 C 907.637 -1.55658 1.18448 0
M  V30 9228 O 908.843 -2.24312 1.52959 0
M  V30 9229 C 907.299 -0.620665 3.54508 0
M  V30 9230 C 906.907 0.597098 4.44003 0
M  V30 9231 C 908.651 -1.19482 4.07338 0
M  V30 9232 C 906.558 0.270049 5.90783 0
M  V30 9233 H 905.488 -0.123342 0.743843 0
M  V30 9234 H 908.139 0.399876 1.7909 0
M  V30 9235 H 906.521 -1.3999 3.7043 0
M  V30 9236 H 907.695 1.37354 4.39853 0
M  V30 9237 H 906.01 1.0893 4.019 0
M  V30 9238 H 908.607 -1.45362 5.14562 0
M  V30 9239 H 908.95 -2.13435 3.57423 0
M  V30 9240 H 909.483 -0.477485 3.94924 0
M  V30 9241 H 906.222 1.17791 6.4483 0
M  V30 9242 H 905.742 -0.469292 5.97961 0
M  V30 9243 H 907.421 -0.131471 6.46866 0
M  V30 9244 N 907.553 -1.57587 0.0200696 0
M  V30 9245 C 908.463 -2.13119 -0.980676 0
M  V30 9246 C 909.479 -1.08124 -1.36328 0
M  V30 9247 O 910.655 -1.40134 -1.44653 0
M  V30 9248 C 907.72 -2.63991 -2.24743 0
M  V30 9249 C 906.781 -3.83667 -1.9261 0
M  V30 9250 C 906.014 -4.32103 -3.13246 0
M  V30 9251 O 906.237 -3.79758 -4.25606 0
M  V30 9252 O 905.171 -5.24047 -2.96072 0
M  V30 9253 H 908.997 -2.98887 -0.538528 0
M  V30 9254 H 906.582 -1.48055 -0.19999 0
M  V30 9255 H 908.464 -2.9682 -2.99125 0
M  V30 9256 H 907.139 -1.81311 -2.68157 0
M  V30 9257 H 906.046 -3.55778 -1.15641 0
M  V30 9258 H 907.379 -4.67482 -1.54019 0
M  V30 9259 N 909.032 0.252966 -1.55557 0
M  V30 9260 C 910.26 0.999565 -1.81153 0
M  V30 9261 C 910.675 1.79181 -0.594955 0
M  V30 9262 O 910.032 1.77208 0.436311 0
M  V30 9263 C 910.083 1.94227 -3.04891 0
M  V30 9264 O 909.804 1.18209 -4.21851 0
M  V30 9265 C 911.305 2.80536 -3.43241 0
M  V30 9266 H 908.525 0.294402 -0.602966 0
M  V30 9267 H 911.069 0.277686 -2.02606 0
M  V30 9268 H 909.224 2.6185 -2.85505 0
M  V30 9269 H 909.638 1.81922 -4.9194 0
M  V30 9270 H 911.112 3.42442 -4.32941 0
M  V30 9271 H 911.589 3.51337 -2.6355 0
M  V30 9272 H 912.195 2.18373 -3.64956 0
M  V30 9273 N 910.51 1.48831 0.518367 0
M  V30 9274 C 911.926 1.35209 0.847979 0
M  V30 9275 C 912.126 0.371927 1.98038 0
M  V30 9276 O 911.182 -0.202681 2.51685 0
M  V30 9277 C 912.495 2.7552 1.20455 0
M  V30 9278 C 914.043 2.84094 1.31377 0
M  V30 9279 C 914.518 4.25132 1.70372 0
M  V30 9280 N 916.009 4.27861 1.77453 0
M  V30 9281 C 916.744 5.3394 2.09035 0
M  V30 9282 N 916.24 6.50285 2.3896 0
M  V30 9283 N 918.033 5.21343 2.10139 0
M  V30 9284 H 910.184 2.11166 -0.228624 0
M  V30 9285 H 912.447 0.94717 -0.0396599 0
M  V30 9286 H 912.153 3.48861 0.445991 0
M  V30 9287 H 912.027 3.09785 2.15204 0
M  V30 9288 H 914.414 2.11001 2.06307 0
M  V30 9289 H 914.495 2.53433 0.347203 0
M  V30 9290 H 914.139 4.98745 0.959975 0
M  V30 9291 H 914.069 4.53245 2.68098 0
M  V30 9292 H 916.56 3.43945 1.56557 0
M  V30 9293 H 916.873 7.26961 2.62196 0
M  V30 9294 H 915.218 6.5354 2.36454 0
M  V30 9295 H 918.409 4.29462 1.86225 0
M  V30 9296 H 918.582 6.04112 2.34419 0
M  V30 9297 N 911.988 -0.768124 1.37614 0
M  V30 9298 C 913.216 -1.55726 1.36224 0
M  V30 9299 C 913.631 -1.8873 -0.0515357 0
M  V30 9300 O 912.988 -1.51718 -1.0143 0
M  V30 9301 C 913.039 -2.86533 2.20412 0
M  V30 9302 O 912.76 -2.54942 3.56281 0
M  V30 9303 C 914.261 -3.80745 2.27041 0
M  V30 9304 H 911.481 -0.482325 0.46648 0
M  V30 9305 H 914.025 -0.95176 1.81002 0
M  V30 9306 H 912.18 -3.43496 1.79134 0
M  V30 9307 H 912.594 -3.38732 4.00451 0
M  V30 9308 H 914.068 -4.69523 2.90263 0
M  V30 9309 H 914.545 -4.20138 1.27987 0
M  V30 9310 H 915.151 -3.2971 2.68647 0
M  V30 9311 N 913.466 -1.22244 -0.994698 0
M  V30 9312 C 914.715 -1.04005 -1.72817 0
M  V30 9313 C 915.028 0.425413 -1.90918 0
M  V30 9314 O 916.234 0.727429 -2.61574 0
M  V30 9315 C 914.69 -1.81244 -3.10932 0
M  V30 9316 C 914.298 -3.32028 -3.00768 0
M  V30 9317 C 916.042 -1.71448 -3.88337 0
M  V30 9318 C 913.949 -4.01716 -4.34026 0
M  V30 9319 H 912.879 -0.385559 -0.647966 0
M  V30 9320 H 915.53 -1.46077 -1.11058 0
M  V30 9321 H 913.912 -1.3197 -3.73363 0
M  V30 9322 H 915.086 -3.88682 -2.47513 0
M  V30 9323 H 913.401 -3.4248 -2.36846 0
M  V30 9324 H 915.998 -2.20836 -4.86965 0
M  V30 9325 H 916.341 -0.674568 -4.10798 0
M  V30 9326 H 916.874 -2.18256 -3.3258 0
M  V30 9327 H 913.613 -5.05952 -4.16765 0
M  V30 9328 H 913.133 -3.49849 -4.87202 0
M  V30 9329 H 914.812 -4.0721 -5.02782 0
M  V30 9330 N 914.944 1.19125 -1.03184 0
M  V30 9331 C 916.19 1.89163 -0.731111 0
M  V30 9332 C 916.523 1.79604 0.738662 0
M  V30 9333 O 915.798 1.19037 1.53819 0
M  V30 9334 C 916.081 3.39986 -1.18666 0
M  V30 9335 C 915.934 3.58401 -2.71788 0
M  V30 9336 C 917.253 4.33316 -0.769772 0
M  V30 9337 H 914.372 0.686908 -0.267069 0
M  V30 9338 H 917.014 1.40205 -1.28229 0
M  V30 9339 H 915.164 3.81813 -0.717736 0
M  V30 9340 H 916.836 3.25727 -3.26649 0
M  V30 9341 H 915.079 3.01355 -3.12038 0
M  V30 9342 H 915.75 4.64189 -2.98719 0
M  V30 9343 H 918.226 3.9922 -1.17314 0
M  V30 9344 H 917.102 5.37427 -1.11637 0
M  V30 9345 H 917.363 4.40884 0.327681 0
M  V30 9346 N 916.422 0.810101 1.35185 0
M  V30 9347 C 917.833 0.452616 1.81131 0
M  V30 9348 C 918.184 -1.02573 1.67252 0
M  V30 9349 O 917.309 -1.79735 1.20516 0
M  V30 9350 C 917.904 0.814775 3.28857 0
M  V30 9351 C 916.463 0.509839 3.72931 0
M  V30 9352 C 915.61 1.03852 2.57119 0
M  V30 9353 H 918.561 1.00143 1.23114 0
M  V30 9354 H 918.582 0.113635 3.8033 0
M  V30 9355 H 918.094 1.89078 3.38926 0
M  V30 9356 H 916.195 -0.557289 3.68409 0
M  V30 9357 H 916.308 1.04493 4.67566 0
M  V30 9358 H 914.672 0.460671 2.50499 0
M  V30 9359 H 915.455 2.12071 2.69964 0
M  V30 9360 N 917.9 -1.47166 0.563914 0
M  V30 9361 C 919.128 -2.06846 0.0474287 0
M  V30 9362 C 919.543 -1.41557 -1.24928 0
M  V30 9363 O 918.9 -0.514376 -1.75101 0
M  V30 9364 C 918.951 -3.6121 -0.144831 0
M  V30 9365 O 918.672 -4.24052 1.10053 0
M  V30 9366 C 920.173 -4.37773 -0.69783 0
M  V30 9367 H 917.393 -0.669217 0.0488896 0
M  V30 9368 H 919.937 -1.89072 0.779235 0
M  V30 9369 H 918.092 -3.78474 -0.82679 0
M  V30 9370 H 918.506 -5.16677 0.902481 0
M  V30 9371 H 919.98 -5.46438 -0.781616 0
M  V30 9372 H 920.457 -4.04517 -1.71063 0
M  V30 9373 H 921.063 -4.25269 -0.0513516 0
M  V30 9374 N 919.378 -0.300708 -1.54705 0
M  V30 9375 C 920.328 0.590589 -2.20218 0
M  V30 9376 C 921.312 1.09913 -1.17507 0
M  V30 9377 O 922.504 1.03995 -1.43227 0
M  V30 9378 C 919.633 1.76214 -2.94625 0
M  V30 9379 C 918.719 1.26957 -4.04651 0
M  V30 9380 N 919.11 0.494982 -5.03372 0
M  V30 9381 C 917.408 1.55033 -4.18188 0
M  V30 9382 C 918.109 0.232724 -5.81234 0
M  V30 9383 N 917.085 0.812443 -5.37494 0
M  V30 9384 H 920.887 -0.00876354 -2.93899 0
M  V30 9385 H 918.401 -0.105456 -1.62057 0
M  V30 9386 H 920.398 2.41221 -3.40027 0
M  V30 9387 H 919.058 2.36519 -2.22461 0
M  V30 9388 H 920.069 0.13991 -5.17711 0
M  V30 9389 H 916.746 2.16089 -3.57228 0
M  V30 9390 H 918.136 -0.389362 -6.70771 0
M  V30 9391 N 920.856 1.57574 -0.0284266 0
M  V30 9392 C 922.104 1.91393 0.649079 0
M  V30 9393 C 922.425 0.905368 1.72708 0
M  V30 9394 O 921.695 -0.0532107 1.95828 0
M  V30 9395 H 920.275 0.70646 0.24274 0
M  V30 9396 H 922.937 1.94752 -0.076066 0
M  V30 9397 H 922.033 2.91988 1.10226 0
M  V30 9398 N 922.334 -0.244713 1.55689 0
M  V30 9399 C 923.583 -0.970373 1.76824 0
M  V30 9400 C 923.896 -1.86402 0.592764 0
M  V30 9401 O 925.102 -2.62659 0.687186 0
M  V30 9402 C 923.558 -1.77547 3.13058 0
M  V30 9403 C 923.166 -0.929104 4.3826 0
M  V30 9404 C 924.91 -2.49373 3.43531 0
M  V30 9405 C 922.817 -1.73021 5.65524 0
M  V30 9406 H 921.747 -0.366048 0.659185 0
M  V30 9407 H 924.398 -0.224964 1.82116 0
M  V30 9408 H 922.78 -2.56291 3.01879 0
M  V30 9409 H 923.954 -0.183836 4.60433 0
M  V30 9410 H 922.269 -0.324071 4.15137 0
M  V30 9411 H 924.866 -3.09767 4.35831 0
M  V30 9412 H 925.209 -3.21099 2.64955 0
M  V30 9413 H 925.742 -1.77637 3.55935 0
M  V30 9414 H 922.481 -1.05666 6.46927 0
M  V30 9415 H 922.001 -2.45071 5.47449 0
M  V30 9416 H 923.68 -2.2968 6.0486 0
M  V30 9417 N 923.813 -1.49104 -0.510467 0
M  V30 9418 C 924.763 -1.6147 -1.6097 0
M  V30 9419 C 925.747 -0.470797 -1.53858 0
M  V30 9420 O 926.939 -0.723266 -1.61548 0
M  V30 9421 C 924.068 -1.67575 -2.99622 0
M  V30 9422 C 923.154 -2.87511 -3.11766 0
M  V30 9423 N 923.545 -4.11704 -2.93826 0
M  V30 9424 C 921.843 -2.85251 -3.42852 0
M  V30 9425 C 922.544 -4.92276 -3.09902 0
M  V30 9426 N 921.52 -4.2546 -3.38355 0
M  V30 9427 H 925.322 -2.5522 -1.45739 0
M  V30 9428 H 922.836 -1.45745 -0.716383 0
M  V30 9429 H 924.833 -1.74531 -3.78609 0
M  V30 9430 H 923.493 -0.749557 -3.1593 0
M  V30 9431 H 924.504 -4.41834 -2.70191 0
M  V30 9432 H 921.181 -2.0197 -3.65396 0
M  V30 9433 H 922.571 -6.00905 -3.00604 0
M  V30 9434 N 925.291 0.760815 -1.38019 0
M  V30 9435 C 926.201 1.90526 -1.36884 0
M  V30 9436 C 927.217 1.71941 -0.266908 0
M  V30 9437 O 928.393 1.94988 -0.50413 0
M  V30 9438 C 925.458 3.25799 -1.18558 0
M  V30 9439 C 924.519 3.56961 -2.3849 0
M  V30 9440 C 923.752 4.8578 -2.21029 0
M  V30 9441 O 923.975 5.57629 -1.20023 0
M  V30 9442 O 922.909 5.16254 -3.0946 0
M  V30 9443 H 926.735 1.94437 -2.33298 0
M  V30 9444 H 924.32 0.905091 -1.18863 0
M  V30 9445 H 926.202 4.0669 -1.1037 0
M  V30 9446 H 924.877 3.22716 -0.252241 0
M  V30 9447 H 923.784 2.7626 -2.52252 0
M  V30 9448 H 925.117 3.64798 -3.30429 0
M  V30 9449 N 926.769 1.22769 0.988202 0
M  V30 9450 C 927.997 1.08155 1.76381 0
M  V30 9451 C 928.412 -0.367573 1.85187 0
M  V30 9452 O 927.769 -1.25455 1.32541 0
M  V30 9453 C 927.82 1.69193 3.19462 0
M  V30 9454 O 927.541 3.08437 3.11125 0
M  V30 9455 C 929.042 1.59915 4.13451 0
M  V30 9456 H 926.262 0.378908 0.553778 0
M  V30 9457 H 928.806 1.6246 1.24206 0
M  V30 9458 H 926.961 1.18939 3.6869 0
M  V30 9459 H 927.375 3.37916 4.0114 0
M  V30 9460 H 928.849 2.07339 5.1158 0
M  V30 9461 H 929.326 0.556546 4.3566 0
M  V30 9462 H 929.932 2.09497 3.70123 0
M  V30 9463 N 928.247 -1.18576 1.03814 0
M  V30 9464 C 929.472 -1.92978 0.759873 0
M  V30 9465 C 929.897 -1.75514 -0.676486 0
M  V30 9466 O 929.255 -1.06359 -1.46824 0
M  V30 9467 C 929.303 -3.42507 1.12788 0
M  V30 9468 O 928.407 -4.1163 0.251886 0
M  V30 9469 H 927.748 -0.602129 0.279886 0
M  V30 9470 H 930.278 -1.50383 1.3873 0
M  V30 9471 H 930.288 -3.93206 1.08872 0
M  V30 9472 H 928.963 -3.5454 2.17427 0
M  V30 9473 H 927.54 -3.7125 0.350441 0
M  V30 9474 N 929.725 -0.817259 -1.34754 0
M  V30 9475 C 930.971 -0.403244 -1.98751 0
M  V30 9476 C 931.304 1.02963 -1.64658 0
M  V30 9477 O 930.579 1.71617 -0.915314 0
M  V30 9478 C 930.862 -0.599188 -3.5508 0
M  V30 9479 C 930.715 -2.07777 -3.98934 0
M  V30 9480 C 932.034 -0.0315656 -4.40089 0
M  V30 9481 H 929.153 -0.147988 -0.721989 0
M  V30 9482 H 931.795 -1.02877 -1.59738 0
M  V30 9483 H 929.945 -0.0667116 -3.88443 0
M  V30 9484 H 931.617 -2.67345 -3.75931 0
M  V30 9485 H 929.86 -2.57031 -3.49453 0
M  V30 9486 H 930.531 -2.16571 -5.07741 0
M  V30 9487 H 933.007 -0.48644 -4.13247 0
M  V30 9488 H 931.883 -0.198507 -5.48541 0
M  V30 9489 H 932.144 1.06302 -4.2913 0
M  V30 9490 N 931.203 1.46865 -0.571711 0
M  V30 9491 C 932.113 2.33979 0.170571 0
M  V30 9492 C 933.129 1.49083 0.897239 0
M  V30 9493 O 934.305 1.81979 0.862888 0
M  V30 9494 C 931.37 3.26063 1.17831 0
M  V30 9495 C 930.431 4.26855 0.457499 0
M  V30 9496 C 929.664 5.14539 1.41722 0
M  V30 9497 O 929.887 5.04945 2.65305 0
M  V30 9498 O 928.821 5.94612 0.9338 0
M  V30 9499 H 932.647 2.98781 -0.544396 0
M  V30 9500 H 930.232 1.4566 -0.332198 0
M  V30 9501 H 932.114 3.82903 1.75965 0
M  V30 9502 H 930.789 2.63871 1.87493 0
M  V30 9503 H 929.696 3.73734 -0.165406 0
M  V30 9504 H 931.029 4.91802 -0.197953 0
M  V30 9505 N 932.681 0.308908 1.54543 0
M  V30 9506 C 933.906 -0.303196 2.05172 0
M  V30 9507 C 934.331 -1.46133 1.18434 0
M  V30 9508 O 933.689 -1.803 0.190162 0
M  V30 9509 C 933.737 -0.729526 3.53143 0
M  V30 9510 O 932.841 -1.83348 3.69401 0
M  V30 9511 H 932.182 -0.0575066 0.661505 0
M  V30 9512 H 934.712 0.453055 1.99521 0
M  V30 9513 H 934.722 -1.01619 3.95143 0
M  V30 9514 H 933.397 0.117622 4.15734 0
M  V30 9515 H 931.974 -1.54676 3.39308 0
M  V30 9516 N 934.159 -1.57557 0.0367827 0
M  V30 9517 C 935.406 -1.92114 -0.640185 0
M  V30 9518 C 935.734 -0.913887 -1.71693 0
M  V30 9519 O 934.989 0.0760343 -1.95552 0
M  V30 9520 C 935.288 -3.33387 -1.28794 0
M  V30 9521 C 934.954 -4.4961 -0.340819 0
M  V30 9522 C 933.616 -4.81133 -0.0801574 0
M  V30 9523 C 935.968 -5.20283 0.309106 0
M  V30 9524 C 933.296 -5.80683 0.838107 0
M  V30 9525 C 935.648 -6.20813 1.21547 0
M  V30 9526 C 934.312 -6.50773 1.48495 0
M  V30 9527 H 933.582 -0.702996 -0.23426 0
M  V30 9528 H 936.229 -1.91238 0.100188 0
M  V30 9529 H 934.534 -3.30561 -2.10324 0
M  V30 9530 H 936.231 -3.57399 -1.81843 0
M  V30 9531 H 932.821 -4.25002 -0.554161 0
M  V30 9532 H 937.005 -4.96153 0.120794 0
M  V30 9533 H 932.261 -6.02238 1.05451 0
M  V30 9534 H 936.435 -6.74692 1.72522 0
M  V30 9535 H 934.062 -7.27727 2.19814 0
M  V30 9536 N 935.637 0.236453 -1.55816 0
M  V30 9537 C 936.884 0.963012 -1.78136 0
M  V30 9538 C 937.212 1.84918 -0.602952 0
M  V30 9539 O 936.467 1.91285 0.413325 0
M  V30 9540 C 936.766 1.84549 -3.06066 0
M  V30 9541 C 936.432 1.11381 -4.36927 0
M  V30 9542 C 935.094 0.911635 -4.72486 0
M  V30 9543 C 937.446 0.596 -5.17781 0
M  V30 9544 C 934.774 0.179515 -5.86425 0
M  V30 9545 C 937.126 -0.122702 -6.32481 0
M  V30 9546 C 935.79 -0.336263 -6.66652 0
M  V30 9547 H 935.06 0.352391 -0.651845 0
M  V30 9548 H 937.707 0.232295 -1.90086 0
M  V30 9549 H 936.012 2.6436 -2.89173 0
M  V30 9550 H 937.709 2.40953 -3.20535 0
M  V30 9551 H 934.299 1.28134 -4.08998 0
M  V30 9552 H 938.483 0.73971 -4.90757 0
M  V30 9553 H 933.739 0.00368224 -6.114 0
M  V30 9554 H 937.913 -0.531516 -6.94369 0
M  V30 9555 H 935.54 -0.905507 -7.54788 0
M  V30 9556 N 937.115 1.49373 0.502552 0
M  V30 9557 C 938.363 1.58467 1.25429 0
M  V30 9558 C 938.684 0.272593 1.93085 0
M  V30 9559 O 937.954 -0.707947 1.82661 0
M  V30 9560 H 936.534 0.583866 0.46595 0
M  V30 9561 H 939.196 1.8599 0.582568 0
M  V30 9562 H 938.292 2.37993 2.01906 0
M  V30 9563 N 938.594 -0.753485 1.38421 0
M  V30 9564 C 940.01 -1.05656 1.1962 0
M  V30 9565 C 940.21 -2.0145 0.0449443 0
M  V30 9566 O 939.266 -2.45039 -0.609253 0
M  V30 9567 C 940.579 -1.63655 2.52265 0
M  V30 9568 C 942.127 -1.75825 2.58949 0
M  V30 9569 C 942.602 -2.37236 3.91769 0
M  V30 9570 N 944.093 -2.44666 3.9331 0
M  V30 9571 C 944.828 -2.93077 4.92842 0
M  V30 9572 N 944.324 -3.41523 6.02772 0
M  V30 9573 N 946.117 -2.92118 4.80232 0
M  V30 9574 H 938.268 -0.117799 2.12073 0
M  V30 9575 H 940.531 -0.114889 0.941012 0
M  V30 9576 H 940.237 -1.00734 3.36965 0
M  V30 9577 H 940.111 -2.62715 2.70667 0
M  V30 9578 H 942.498 -2.37873 1.74644 0
M  V30 9579 H 942.579 -0.754693 2.44414 0
M  V30 9580 H 942.223 -1.75822 4.76497 0
M  V30 9581 H 942.153 -3.38233 4.03616 0
M  V30 9582 H 944.644 -2.10403 3.1391 0
M  V30 9583 H 944.957 -3.76919 6.74649 0
M  V30 9584 H 943.302 -3.3958 6.06391 0
M  V30 9585 H 946.493 -2.53582 3.93464 0
M  V30 9586 H 946.666 -3.29535 5.57952 0
M  V30 9587 N 940.072 -1.23292 -0.981677 0
M  V30 9588 C 941.297 -1.09176 -1.76339 0
M  V30 9589 C 941.722 0.352726 -1.84763 0
M  V30 9590 O 941.08 1.25509 -1.30832 0
M  V30 9591 C 941.128 -1.72046 -3.16911 0
M  V30 9592 O 940.232 -0.98174 -4.00544 0
M  V30 9593 H 939.573 -0.382755 -0.542581 0
M  V30 9594 H 942.103 -1.63319 -1.23239 0
M  V30 9595 H 942.113 -1.77232 -3.67495 0
M  V30 9596 H 940.788 -2.77154 -3.10095 0
M  V30 9597 H 939.365 -1.00672 -3.59054 0
M  V30 9598 N 941.55 1.18024 -1.04442 0
M  V30 9599 C 942.775 1.92573 -0.770097 0
M  V30 9600 C 943.2 1.75871 0.667169 0
M  V30 9601 O 942.558 1.07136 1.46258 0
M  V30 9602 C 942.606 3.41904 -1.14602 0
M  V30 9603 O 941.71 4.11491 -0.273712 0
M  V30 9604 H 941.051 0.600636 -0.283076 0
M  V30 9605 H 943.581 1.49645 -1.39526 0
M  V30 9606 H 943.591 3.92623 -1.10956 0
M  V30 9607 H 942.266 3.53382 -2.19304 0
M  V30 9608 H 940.843 3.71059 -0.370124 0
M  V30 9609 N 943.028 0.824394 1.34319 0
M  V30 9610 C 943.958 0.262077 2.32025 0
M  V30 9611 C 944.939 -0.622277 1.58309 0
M  V30 9612 O 946.124 -0.548848 1.86283 0
M  V30 9613 C 943.254 -0.57567 3.42496 0
M  V30 9614 C 942.208 0.21167 4.27476 0
M  V30 9615 C 941.534 -0.748913 5.29429 0
M  V30 9616 C 942.834 1.42068 5.02607 0
M  V30 9617 H 944.528 1.07842 2.79304 0
M  V30 9618 H 942.074 0.520022 1.34282 0
M  V30 9619 H 944.027 -0.979251 4.09864 0
M  V30 9620 H 942.751 -1.42508 2.93869 0
M  V30 9621 H 941.41 0.596636 3.61712 0
M  V30 9622 H 941.058 -1.59432 4.77064 0
M  V30 9623 H 940.758 -0.226313 5.87164 0
M  V30 9624 H 942.282 -1.15032 5.99667 0
M  V30 9625 H 943.696 1.09103 5.62823 0
M  V30 9626 H 942.093 1.87903 5.69923 0
M  V30 9627 H 943.163 2.1981 4.32217 0
M  V30 9628 N 944.506 -1.46559 0.579492 0
M  V30 9629 C 945.752 -2.02699 0.0639363 0
M  V30 9630 C 946.085 -1.4504 -1.29139 0
M  V30 9631 O 945.36 -0.614284 -1.84545 0
M  V30 9632 C 945.643 -3.601 -0.00528618 0
M  V30 9633 C 945.496 -4.28149 1.37871 0
M  V30 9634 C 946.815 -4.34375 -0.707537 0
M  V30 9635 H 943.934 -0.736586 0.0247085 0
M  V30 9636 H 946.576 -1.74739 0.746071 0
M  V30 9637 H 944.726 -3.84052 -0.586206 0
M  V30 9638 H 946.398 -4.1547 2.00455 0
M  V30 9639 H 944.641 -3.87636 1.94732 0
M  V30 9640 H 945.312 -5.36888 1.28278 0
M  V30 9641 H 947.788 -4.15549 -0.214064 0
M  V30 9642 H 946.664 -5.44091 -0.724992 0
M  V30 9643 H 946.925 -4.052 -1.7682 0
M  V30 9644 N 945.984 -0.3171 -1.54377 0
M  V30 9645 C 947.232 0.286842 -2.00054 0
M  V30 9646 C 947.553 1.53161 -1.20692 0
M  V30 9647 O 946.823 1.93479 -0.307045 0
M  V30 9648 H 945.403 0.108979 -0.739008 0
M  V30 9649 H 948.065 -0.432152 -1.90049 0
M  V30 9650 H 947.161 0.547729 -3.07256 0
M  V30 9651 N 947.462 1.57535 -0.0451378 0
M  V30 9652 C 948.395 2.06721 0.96653 0
M  V30 9653 C 949.373 0.966392 1.30766 0
M  V30 9654 O 950.557 1.23789 1.42157 0
M  V30 9655 C 947.684 2.50266 2.2822 0
M  V30 9656 C 946.73 3.71525 2.09455 0
M  V30 9657 S 947.563 5.17453 1.37851 0
M  V30 9658 C 948.719 5.64308 2.70753 0
M  V30 9659 H 948.952 2.92207 0.547911 0
M  V30 9660 H 946.485 1.53494 0.166973 0
M  V30 9661 H 948.443 2.76019 3.03849 0
M  V30 9662 H 947.104 1.65097 2.67211 0
M  V30 9663 H 946.297 3.99894 3.06759 0
M  V30 9664 H 945.899 3.46008 1.41967 0
M  V30 9665 H 948.191 5.69525 3.66943 0
M  V30 9666 H 949.134 6.63613 2.47028 0
M  V30 9667 H 949.542 4.92014 2.76736 0
M  V30 9668 N 948.94 -0.228186 1.55939 0
M  V30 9669 C 950.351 -0.795734 1.68893 0
M  V30 9670 C 950.702 -1.85261 0.645967 0
M  V30 9671 O 949.827 -2.15434 -0.2042 0
M  V30 9672 C 950.422 -1.45013 3.06197 0
M  V30 9673 C 948.981 -1.96514 3.21028 0
M  V30 9674 C 948.128 -0.822918 2.64808 0
M  V30 9675 H 951.079 -0.0036485 1.587 0
M  V30 9676 H 951.1 -2.31875 3.01685 0
M  V30 9677 H 950.612 -0.680678 3.82084 0
M  V30 9678 H 948.713 -2.76282 2.49998 0
M  V30 9679 H 948.826 -2.14967 4.28166 0
M  V30 9680 H 947.19 -1.22846 2.23116 0
M  V30 9681 H 947.973 -0.0662493 3.43236 0
M  V30 9682 N 950.418 -1.49637 -0.494624 0
M  V30 9683 C 951.348 -1.69692 -1.60396 0
M  V30 9684 C 952.329 -0.545648 -1.61111 0
M  V30 9685 O 953.514 -0.782202 -1.77751 0
M  V30 9686 C 950.644 -1.76934 -2.9885 0
M  V30 9687 C 949.598 -2.91915 -3.13001 0
M  V30 9688 C 948.924 -2.84276 -4.5287 0
M  V30 9689 C 950.224 -4.32764 -2.92426 0
M  V30 9690 H 951.918 -2.6257 -1.43866 0
M  V30 9691 H 949.464 -1.26355 -0.690679 0
M  V30 9692 H 951.417 -1.8955 -3.76362 0
M  V30 9693 H 950.141 -0.806609 -3.16483 0
M  V30 9694 H 948.8 -2.78911 -2.37916 0
M  V30 9695 H 948.448 -1.85897 -4.67388 0
M  V30 9696 H 948.148 -3.61452 -4.63278 0
M  V30 9697 H 949.672 -2.98909 -5.32434 0
M  V30 9698 H 951.086 -4.46415 -3.59703 0
M  V30 9699 H 949.483 -5.1121 -3.143 0
M  V30 9700 H 950.553 -4.46765 -1.88491 0
M  V30 9701 N 951.896 0.746133 -1.38819 0
M  V30 9702 C 952.826 1.87344 -1.39372 0
M  V30 9703 C 953.807 1.68123 -0.258583 0
M  V30 9704 O 954.992 1.88606 -0.462769 0
M  V30 9705 C 952.122 3.24962 -1.22543 0
M  V30 9706 C 951.076 3.58799 -2.33339 0
M  V30 9707 C 950.402 4.95235 -2.01609 0
M  V30 9708 C 951.702 3.62911 -3.75624 0
M  V30 9709 H 953.396 1.87138 -2.33709 0
M  V30 9710 H 950.942 0.898937 -1.12495 0
M  V30 9711 H 952.895 4.03488 -1.21554 0
M  V30 9712 H 951.619 3.25667 -0.246707 0
M  V30 9713 H 950.278 2.82596 -2.33527 0
M  V30 9714 H 949.926 4.92508 -1.02202 0
M  V30 9715 H 949.626 5.18843 -2.75819 0
M  V30 9716 H 951.15 5.76131 -2.02251 0
M  V30 9717 H 952.564 4.31535 -3.77426 0
M  V30 9718 H 950.961 3.98031 -4.491 0
M  V30 9719 H 952.031 2.62967 -4.07402 0
M  V30 9720 N 953.375 1.23811 0.975125 0
M  V30 9721 C 954.338 1.02505 2.05001 0
M  V30 9722 C 955.338 -0.0150084 1.60793 0
M  V30 9723 O 956.528 0.225246 1.72738 0
M  V30 9724 C 953.66 0.552087 3.364 0
M  V30 9725 H 954.853 1.979 2.25335 0
M  V30 9726 H 952.406 1.05929 1.1493 0
M  V30 9727 H 953.141 -0.405394 3.21756 0
M  V30 9728 H 952.926 1.30267 3.69828 0
M  V30 9729 H 954.416 0.423828 4.15444 0
M  V30 9730 N 954.853 -1.17469 1.05066 0
M  V30 9731 C 956.081 -1.9162 0.780334 0
M  V30 9732 C 956.496 -1.76745 -0.663817 0
M  V30 9733 O 955.853 -1.10377 -1.45338 0
M  V30 9734 C 955.904 -3.42723 1.14992 0
M  V30 9735 O 955.625 -3.57139 2.53739 0
M  V30 9736 C 957.126 -4.33952 0.905549 0
M  V30 9737 H 954.346 -0.608022 0.283814 0
M  V30 9738 H 956.89 -1.4897 1.401 0
M  V30 9739 H 955.045 -3.83124 0.57403 0
M  V30 9740 H 955.459 -4.5075 2.68189 0
M  V30 9741 H 956.933 -5.38487 1.21391 0
M  V30 9742 H 957.41 -4.38911 -0.159295 0
M  V30 9743 H 958.016 -3.99263 1.46522 0
M  V30 9744 N 956.331 -0.831506 -1.3388 0
M  V30 9745 C 957.579 -0.422837 -1.97627 0
M  V30 9746 C 957.9 1.01961 -1.6622 0
M  V30 9747 O 957.17 1.70916 -0.957323 0
M  V30 9748 H 955.75 -0.153365 -0.731087 0
M  V30 9749 H 958.412 -1.06284 -1.6337 0
M  V30 9750 H 957.508 -0.548858 -3.07236 0
M  V30 9751 N 957.809 1.4625 -0.587256 0
M  V30 9752 C 959.037 2.06744 -0.08033 0
M  V30 9753 C 959.452 1.43527 1.2266 0
M  V30 9754 O 958.809 0.542168 1.74261 0
M  V30 9755 C 958.86 3.61394 0.0873469 0
M  V30 9756 O 958.581 4.22247 -1.16785 0
M  V30 9757 C 960.082 4.38828 0.628095 0
M  V30 9758 H 957.302 0.668354 -0.0595301 0
M  V30 9759 H 959.846 1.87808 -0.809217 0
M  V30 9760 H 958.001 3.79742 0.766473 0
M  V30 9761 H 958.415 5.15176 -0.984565 0
M  V30 9762 H 959.889 5.47613 0.694583 0
M  V30 9763 H 960.366 4.07188 1.64606 0
M  V30 9764 H 960.972 4.25297 -0.0163115 0
M  V30 9765 N 959.287 0.325282 1.54207 0
M  V30 9766 C 960.512 -0.281418 2.05482 0
M  V30 9767 C 960.937 -1.44869 1.19977 0
M  V30 9768 O 960.295 -1.80088 0.209275 0
M  V30 9769 C 960.343 -0.692029 3.53897 0
M  V30 9770 O 959.447 -1.7942 3.71325 0
M  V30 9771 H 958.788 -0.0504872 0.662078 0
M  V30 9772 H 961.318 0.474191 1.99029 0
M  V30 9773 H 961.328 -0.974219 3.96198 0
M  V30 9774 H 960.003 0.161709 4.15586 0
M  V30 9775 H 958.58 -1.51069 3.40929 0
M  V30 9776 N 960.765 -1.57509 0.0534917 0
M  V30 9777 C 962.014 -1.91959 -0.619244 0
M  V30 9778 C 962.327 -0.933882 -1.71866 0
M  V30 9779 O 963.533 -1.17052 -2.44972 0
M  V30 9780 C 961.989 -3.40938 -1.15278 0
M  V30 9781 C 961.597 -4.47919 -0.085348 0
M  V30 9782 C 963.341 -3.84419 -1.80063 0
M  V30 9783 C 961.248 -5.88014 -0.631897 0
M  V30 9784 H 960.178 -0.71642 -0.235072 0
M  V30 9785 H 962.829 -1.83089 0.122758 0
M  V30 9786 H 961.211 -3.44821 -1.94717 0
M  V30 9787 H 962.385 -4.55629 0.688374 0
M  V30 9788 H 960.7 -4.13793 0.465178 0
M  V30 9789 H 963.297 -4.86457 -2.21954 0
M  V30 9790 H 963.64 -3.20791 -2.65328 0
M  V30 9791 H 964.173 -3.83062 -1.07275 0
M  V30 9792 H 960.912 -6.55244 0.183175 0
M  V30 9793 H 960.432 -5.83861 -1.37355 0
M  V30 9794 H 962.111 -6.37336 -1.11407 0
M  V30 9795 N 962.243 0.219913 -1.56058 0
M  V30 9796 C 963.471 0.960915 -1.83232 0
M  V30 9797 C 963.886 1.77878 -0.632828 0
M  V30 9798 O 963.243 1.78093 0.398624 0
M  V30 9799 C 963.294 1.87716 -3.08942 0
M  V30 9800 O 963.015 1.09235 -4.24263 0
M  V30 9801 C 964.516 2.73192 -3.49115 0
M  V30 9802 H 961.736 0.281546 -0.609075 0
M  V30 9803 H 964.28 0.234648 -2.03149 0
M  V30 9804 H 962.435 2.55736 -2.90995 0
M  V30 9805 H 962.849 1.71446 -4.95688 0
M  V30 9806 H 964.323 3.33181 -4.40107 0
M  V30 9807 H 964.8 3.45668 -2.70943 0
M  V30 9808 H 965.406 2.10583 -3.69506 0
M  V30 9809 N 963.721 1.49897 0.486681 0
M  V30 9810 C 964.669 1.68125 1.60738 0
M  V30 9811 C 965.663 0.547097 1.60322 0
M  V30 9812 O 966.869 0.727153 1.64659 0
M  V30 9813 H 963.244 0.530391 0.533094 0
M  V30 9814 H 965.215 2.62165 1.42521 0
M  V30 9815 C 963.964 1.77827 2.98786 0
M  V30 9816 H 963.287 2.6448 2.99818 0
M  V30 9817 H 964.727 1.94611 3.76699 0
M  V30 9818 C 963.186 0.526287 3.32764 0
M  V30 9819 O 963.716 -0.341607 4.00245 0
M  V30 9820 N 961.922 0.384947 2.88039 0
M  V30 9821 H 961.469 1.09222 2.33299 0
M  V30 9822 H 961.427 -0.451618 3.11139 0
M  V30 9823 N 965.199 -0.738761 1.39212 0
M  V30 9824 C 966.445 -1.49942 1.37437 0
M  V30 9825 C 966.8 -1.92375 -0.0309496 0
M  V30 9826 O 966.093 -1.63635 -0.996706 0
M  V30 9827 C 966.287 -2.75435 2.2775 0
M  V30 9828 C 966.116 -2.45273 3.76924 0
M  V30 9829 C 964.886 -2.37755 4.45871 0
M  V30 9830 C 967.084 -2.11064 4.68995 0
M  V30 9831 N 965.066 -2.00023 5.804 0
M  V30 9832 C 966.437 -1.83746 5.92147 0
M  V30 9833 C 968.492 -1.975 4.57054 0
M  V30 9834 C 967.195 -1.4423 7.04692 0
M  V30 9835 C 969.221 -1.59388 5.69517 0
M  V30 9836 C 968.583 -1.32951 6.91739 0
M  V30 9837 H 964.682 -0.547671 0.558194 0
M  V30 9838 H 967.266 -0.858925 1.7473 0
M  V30 9839 H 965.437 -3.3727 1.92622 0
M  V30 9840 H 967.169 -3.41607 2.16995 0
M  V30 9841 H 963.924 -2.54725 3.99264 0
M  V30 9842 H 964.348 -1.83761 6.51583 0
M  V30 9843 H 968.99 -2.16609 3.63099 0
M  V30 9844 H 966.708 -1.23863 7.98551 0
M  V30 9845 H 970.294 -1.49504 5.62263 0
M  V30 9846 H 969.174 -1.039 7.77287 0
M  V30 9847 N 966.677 -1.24326 -0.968545 0
M  V30 9848 C 968.093 -1.00847 -1.23701 0
M  V30 9849 C 968.293 0.283235 -1.99499 0
M  V30 9850 O 967.349 0.999607 -2.31871 0
M  V30 9851 C 968.662 -2.22295 -2.02498 0
M  V30 9852 C 970.21 -2.26911 -2.15593 0
M  V30 9853 C 970.685 -3.47978 -2.97784 0
M  V30 9854 N 972.176 -3.48289 -3.05367 0
M  V30 9855 C 972.911 -4.38625 -3.69318 0
M  V30 9856 N 972.407 -5.39213 -4.34995 0
M  V30 9857 N 974.2 -4.26339 -3.66322 0
M  V30 9858 H 966.351 -2.07335 -0.461087 0
M  V30 9859 H 968.614 -0.909805 -0.26638 0
M  V30 9860 H 968.32 -3.161 -1.54188 0
M  V30 9861 H 968.194 -2.24344 -3.03232 0
M  V30 9862 H 970.581 -1.33639 -2.63106 0
M  V30 9863 H 970.662 -2.28888 -1.14209 0
M  V30 9864 H 970.306 -4.41564 -2.50965 0
M  V30 9865 H 970.236 -3.43244 -3.99364 0
M  V30 9866 H 972.727 -2.75517 -2.58648 0
M  V30 9867 H 973.04 -6.04378 -4.81608 0
M  V30 9868 H 971.385 -5.43101 -4.33667 0
M  V30 9869 H 974.576 -3.46991 -3.14189 0
M  V30 9870 H 974.749 -4.9694 -4.15878 0
M  V30 9871 N 968.156 1.1691 -1.05688 0
M  V30 9872 C 969.405 1.86629 -0.765022 0
M  V30 9873 C 969.718 1.82223 0.710918 0
M  V30 9874 O 970.924 2.47462 1.11691 0
M  V30 9875 C 969.38 3.34886 -1.3183 0
M  V30 9876 C 968.988 3.47781 -2.82404 0
M  V30 9877 C 970.732 4.099 -1.10372 0
M  V30 9878 C 968.639 4.9009 -3.31008 0
M  V30 9879 H 967.569 0.699082 -0.282491 0
M  V30 9880 H 970.22 1.31989 -1.27481 0
M  V30 9881 H 968.602 3.89094 -0.736312 0
M  V30 9882 H 969.776 3.03765 -3.46502 0
M  V30 9883 H 968.091 2.86193 -3.02461 0
M  V30 9884 H 970.688 5.14894 -1.4418 0
M  V30 9885 H 971.031 4.16279 -0.0417372 0
M  V30 9886 H 971.564 3.61913 -1.65117 0
M  V30 9887 H 968.303 4.88887 -4.36657 0
M  V30 9888 H 967.823 5.34756 -2.71655 0
M  V30 9889 H 969.502 5.58881 -3.25977 0
M  V30 9890 N 969.634 0.838594 1.33437 0
M  V30 9891 C 970.911 0.356112 1.92331 0
M  V30 9892 C 971.291 -1.1585 1.76471 0
M  V30 9893 O 970.639 -1.97281 1.15293 0
M  V30 9894 C 970.849 0.802715 3.39643 0
M  V30 9895 C 972.197 0.810575 4.16791 0
M  V30 9896 O 973.221 0.746304 3.48294 0
M  V30 9897 O 972.08 0.898082 5.3907 0
M  V30 9898 H 969.174 0.100711 0.820845 0
M  V30 9899 H 971.72 0.924428 1.42311 0
M  V30 9900 H 970.492 1.84529 3.45057 0
M  V30 9901 H 970.115 0.210956 3.9704 0
M  V30 9902 N 971.112 -1.45937 0.595003 0
M  V30 9903 C 972.359 -2.0232 0.0853053 0
M  V30 9904 C 972.687 -1.465 -1.27937 0
M  V30 9905 O 971.942 -0.624767 -1.85459 0
M  V30 9906 C 972.241 -3.57396 -0.0173747 0
M  V30 9907 C 971.907 -4.32311 1.28131 0
M  V30 9908 C 970.569 -4.52496 1.63708 0
M  V30 9909 C 972.921 -4.75233 2.14017 0
M  V30 9910 C 970.249 -5.12857 2.84947 0
M  V30 9911 C 972.601 -5.36933 3.34493 0
M  V30 9912 C 971.265 -5.55343 3.70338 0
M  V30 9913 H 970.535 -0.740342 0.0312154 0
M  V30 9914 H 973.182 -1.75157 0.774103 0
M  V30 9915 H 971.487 -3.83766 -0.789371 0
M  V30 9916 H 973.184 -3.98713 -0.427699 0
M  V30 9917 H 969.774 -4.16905 0.994374 0
M  V30 9918 H 973.958 -4.59383 1.87833 0
M  V30 9919 H 969.214 -5.253 3.12841 0
M  V30 9920 H 973.388 -5.69147 4.01304 0
M  V30 9921 H 971.015 -6.01883 4.64371 0
M  V30 9922 N 972.59 -0.333456 -1.54032 0
M  V30 9923 C 974.006 0.0188405 -1.59589 0
M  V30 9924 C 974.206 1.49615 -1.34972 0
M  V30 9925 O 973.262 2.2535 -1.13901 0
M  V30 9926 C 974.575 -0.408273 -2.97915 0
M  V30 9927 C 976.123 -0.359763 -3.10926 0
M  V30 9928 C 976.598 -0.76219 -4.51613 0
M  V30 9929 N 978.089 -0.715981 -4.57633 0
M  V30 9930 C 978.824 -0.999436 -5.64623 0
M  V30 9931 N 978.32 -1.35053 -6.79509 0
M  V30 9932 N 980.113 -0.924343 -5.54448 0
M  V30 9933 H 972.264 -1.29587 -1.68289 0
M  V30 9934 H 974.527 -0.527584 -0.787629 0
M  V30 9935 H 974.233 -1.43793 -3.20962 0
M  V30 9936 H 974.107 0.221685 -3.76548 0
M  V30 9937 H 976.494 0.660703 -2.87609 0
M  V30 9938 H 976.575 -1.02479 -2.34375 0
M  V30 9939 H 976.219 -1.78062 -4.75664 0
M  V30 9940 H 976.149 -0.0747478 -5.26547 0
M  V30 9941 H 978.64 -0.456875 -3.75128 0
M  V30 9942 H 978.953 -1.55194 -7.57057 0
M  V30 9943 H 977.298 -1.38889 -6.80981 0
M  V30 9944 H 980.489 -0.649469 -4.63573 0
M  V30 9945 H 980.662 -1.1486 -6.37739 0
M  V30 9946 N 974.068 1.57479 -0.061844 0
M  V30 9947 C 974.978 2.15645 0.923826 0
M  V30 9948 C 975.994 1.117 1.33413 0
M  V30 9949 O 977.17 1.4392 1.40887 0
M  V30 9950 C 974.235 2.69857 2.17665 0
M  V30 9951 C 973.296 3.88638 1.8237 0
M  V30 9952 C 972.529 4.40256 3.01679 0
M  V30 9953 O 972.752 3.90908 4.15388 0
M  V30 9954 O 971.686 5.31713 2.82073 0
M  V30 9955 H 975.512 3.0021 0.459094 0
M  V30 9956 H 973.097 1.48534 0.160665 0
M  V30 9957 H 974.979 3.04647 2.9115 0
M  V30 9958 H 973.654 1.88357 2.63255 0
M  V30 9959 H 972.561 3.58719 1.06167 0
M  V30 9960 H 973.894 4.71401 1.4157 0
M  V30 9961 N 975.546 -0.211634 1.56173 0
M  V30 9962 C 976.793 -0.93455 1.79645 0
M  V30 9963 C 977.121 -1.83936 0.632294 0
M  V30 9964 O 976.376 -1.91919 -0.382841 0
M  V30 9965 C 976.675 -1.79657 3.08963 0
M  V30 9966 C 976.341 -1.04415 4.38644 0
M  V30 9967 C 975.003 -0.836351 4.73876 0
M  V30 9968 C 977.355 -0.51355 5.18664 0
M  V30 9969 C 974.683 -0.0861976 5.86637 0
M  V30 9970 C 977.035 0.223309 6.32206 0
M  V30 9971 C 975.699 0.442279 6.66033 0
M  V30 9972 H 974.969 -0.341976 0.657368 0
M  V30 9973 H 977.616 -0.202024 1.90431 0
M  V30 9974 H 975.921 -2.59726 2.93342 0
M  V30 9975 H 977.618 -2.35823 3.24328 0
M  V30 9976 H 974.208 -1.21611 4.10985 0
M  V30 9977 H 978.392 -0.661541 4.91871 0
M  V30 9978 H 973.648 0.0935866 6.11328 0
M  V30 9979 H 977.822 0.641917 6.93435 0
M  V30 9980 H 975.449 1.02547 7.53252 0
M  V30 9981 N 977.024 -1.50153 -0.478725 0
M  V30 9982 C 978.27 -1.60998 -1.23318 0
M  V30 9983 C 978.603 -0.305868 -1.91776 0
M  V30 9984 O 977.878 0.692158 -1.81767 0
M  V30 9985 C 978.161 -2.78495 -2.28282 0
M  V30 9986 C 978.014 -4.18767 -1.64178 0
M  V30 9987 C 979.333 -2.91569 -3.2966 0
M  V30 9988 H 976.452 -0.585983 -0.446982 0
M  V30 9989 H 979.094 -1.82514 -0.528063 0
M  V30 9990 H 977.244 -2.60281 -2.8842 0
M  V30 9991 H 978.916 -4.48552 -1.07696 0
M  V30 9992 H 977.159 -4.23379 -0.94514 0
M  V30 9993 H 977.83 -4.96894 -2.40417 0
M  V30 9994 H 980.306 -3.08219 -2.79536 0
M  V30 9995 H 979.182 -3.75419 -4.0044 0
M  V30 9996 H 979.443 -2.01859 -3.93326 0
M  V30 9997 N 978.502 0.731368 -1.39602 0
M  V30 9998 C 979.434 1.85575 -1.34516 0
M  V30 9999 C 980.447 1.60818 -0.253287 0
M  V30 10000 O 981.636 1.70984 -0.512505 0
M  V30 10001 C 978.736 3.21673 -1.06676 0
M  V30 10002 C 977.909 3.73757 -2.27211 0
M  V30 10003 C 976.968 4.88426 -1.95773 0
M  V30 10004 O 975.994 5.01898 -2.68491 0
M  V30 10005 N 977.196 5.73065 -0.926083 0
M  V30 10006 H 979.961 1.90442 -2.31413 0
M  V30 10007 H 977.522 0.912258 -1.33752 0
M  V30 10008 H 979.514 3.95959 -0.836577 0
M  V30 10009 H 978.084 3.12052 -0.185003 0
M  V30 10010 H 977.304 2.90781 -2.66158 0
M  V30 10011 H 978.592 4.05289 -3.07601 0
M  V30 10012 H 977.99 5.64774 -0.323497 0
M  V30 10013 H 976.547 6.47403 -0.755795 0
M  V30 10014 N 979.98 1.24838 0.961938 0
M  V30 10015 C 980.91 1.07053 2.07514 0
M  V30 10016 C 981.891 -0.0182465 1.7009 0
M  V30 10017 O 983.076 0.149915 1.9362 0
M  V30 10018 C 980.206 0.680693 3.40564 0
M  V30 10019 C 979.16 1.71889 3.91967 0
M  V30 10020 C 978.486 1.18395 5.21428 0
M  V30 10021 C 979.786 3.1161 4.19161 0
M  V30 10022 H 981.48 2.00167 2.22651 0
M  V30 10023 H 979.026 0.963799 1.0699 0
M  V30 10024 H 980.979 0.54324 4.17884 0
M  V30 10025 H 979.703 -0.28615 3.25344 0
M  V30 10026 H 978.362 1.84465 3.16809 0
M  V30 10027 H 978.01 0.207543 5.02572 0
M  V30 10028 H 977.71 1.87778 5.56788 0
M  V30 10029 H 979.234 1.05873 6.01351 0
M  V30 10030 H 980.648 3.0223 4.87165 0
M  V30 10031 H 979.045 3.78398 4.65763 0
M  V30 10032 H 980.115 3.59218 3.25715 0
M  V30 10033 N 981.458 -1.16348 1.06306 0
M  V30 10034 C 982.874 -1.38873 0.786543 0
M  V30 10035 C 983.074 -1.91915 -0.614061 0
M  V30 10036 O 982.13 -2.11804 -1.3746 0
M  V30 10037 C 983.443 -2.36936 1.85154 0
M  V30 10038 C 984.991 -2.5062 1.87506 0
M  V30 10039 C 985.466 -3.51965 2.9306 0
M  V30 10040 N 986.957 -3.59492 2.92095 0
M  V30 10041 C 987.692 -4.37699 3.70415 0
M  V30 10042 N 987.188 -5.19327 4.58553 0
M  V30 10043 N 988.981 -4.32683 3.58806 0
M  V30 10044 H 981.132 -0.802542 1.96655 0
M  V30 10045 H 983.395 -0.415304 0.852189 0
M  V30 10046 H 983.101 -2.05056 2.85736 0
M  V30 10047 H 982.975 -3.36585 1.70267 0
M  V30 10048 H 985.362 -2.81804 0.875827 0
M  V30 10049 H 985.443 -1.51006 2.06472 0
M  V30 10050 H 985.087 -3.21518 3.93177 0
M  V30 10051 H 985.017 -4.51309 2.71344 0
M  V30 10052 H 987.508 -3.01222 2.28197 0
M  V30 10053 H 987.821 -5.76216 5.1497 0
M  V30 10054 H 986.166 -5.1867 4.62608 0
M  V30 10055 H 989.357 -3.67971 2.89335 0
M  V30 10056 H 989.53 -4.93386 4.20088 0
M  V30 10057 N 982.937 -0.845659 -1.3299 0
M  V30 10058 C 983.9 -0.288905 -2.27372 0
M  V30 10059 C 984.9 0.546263 -1.51237 0
M  V30 10060 O 986.09 0.359072 -1.70459 0
M  V30 10061 C 983.222 0.59224 -3.35716 0
M  V30 10062 H 984.415 -1.12181 -2.78128 0
M  V30 10063 H 981.968 -0.619276 -1.43508 0
M  V30 10064 H 982.703 1.44732 -2.90212 0
M  V30 10065 H 982.488 -0.00543255 -3.921 0
M  V30 10066 H 983.978 0.974848 -4.06062 0
M  V30 10067 N 984.415 1.45619 -0.602734 0
M  V30 10068 C 985.362 2.30493 0.118944 0
M  V30 10069 C 986.332 1.41816 0.864723 0
M  V30 10070 O 987.517 1.7075 0.851424 0
M  V30 10071 C 984.657 3.2664 1.11356 0
M  V30 10072 C 983.77 4.3042 0.369161 0
M  V30 10073 C 982.905 5.13678 1.35307 0
M  V30 10074 C 981.944 6.09189 0.596207 0
M  V30 10075 N 981.081 6.85245 1.52916 0
M  V30 10076 H 985.921 2.91672 -0.610836 0
M  V30 10077 H 983.458 1.43731 -0.313032 0
M  V30 10078 H 985.416 3.80846 1.7033 0
M  V30 10079 H 984.046 2.67225 1.81081 0
M  V30 10080 H 983.098 3.78913 -0.335994 0
M  V30 10081 H 984.41 4.98307 -0.221603 0
M  V30 10082 H 983.564 5.7226 2.01502 0
M  V30 10083 H 982.303 4.45798 1.97777 0
M  V30 10084 H 981.308 5.49743 -0.0793984 0
M  V30 10085 H 982.533 6.79096 -0.0233734 0
M  V30 10086 H 980.479 6.20058 2.14159 0
M  V30 10087 H 980.396 7.49467 0.991713 0
M  V30 10088 H 981.664 7.48371 2.18083 0
M  V30 10089 N 985.893 0.34162 1.53853 0
M  V30 10090 C 986.826 -0.559051 2.21246 0
M  V30 10091 C 987.804 -1.10179 1.1958 0
M  V30 10092 O 988.988 -1.16242 1.48392 0
M  V30 10093 C 986.115 -1.7689 2.88838 0
M  V30 10094 C 985.161 -1.3558 4.04377 0
M  V30 10095 S 985.994 -0.377225 5.3417 0
M  V30 10096 C 987.15 -1.59395 6.05264 0
M  V30 10097 H 987.383 0.013373 2.97297 0
M  V30 10098 H 984.916 0.125694 1.53888 0
M  V30 10099 H 986.874 -2.463 3.284 0
M  V30 10100 H 985.535 -2.31254 2.12557 0
M  V30 10101 H 984.728 -2.25781 4.50599 0
M  V30 10102 H 984.33 -0.741197 3.66582 0
M  V30 10103 H 986.622 -2.52872 6.2854 0
M  V30 10104 H 987.565 -1.17356 6.98307 0
M  V30 10105 H 987.973 -1.78913 5.35397 0
M  V30 10106 N 987.371 -1.57444 0.0701946 0
M  V30 10107 C 988.596 -1.98171 -0.61181 0
M  V30 10108 C 989.021 -0.94823 -1.62451 0
M  V30 10109 O 988.379 0.0863553 -1.81094 0
M  V30 10110 C 988.427 -3.37934 -1.2583 0
M  V30 10111 O 987.531 -3.37207 -2.37414 0
M  V30 10112 H 986.872 -0.645056 -0.157477 0
M  V30 10113 H 989.402 -2.04091 0.144235 0
M  V30 10114 H 989.412 -3.75083 -1.60552 0
M  V30 10115 H 988.087 -4.12684 -0.516234 0
M  V30 10116 H 986.664 -3.11826 -2.04497 0
M  V30 10117 N 988.849 0.203349 -1.56283 0
M  V30 10118 C 990.095 0.921876 -1.81309 0
M  V30 10119 C 990.45 1.81231 -0.645994 0
M  V30 10120 O 989.743 1.88203 0.359206 0
M  V30 10121 C 989.937 1.78016 -3.09912 0
M  V30 10122 C 989.766 0.974308 -4.39019 0
M  V30 10123 C 988.536 0.662001 -5.00945 0
M  V30 10124 C 990.734 0.330925 -5.13234 0
M  V30 10125 N 988.716 -0.163344 -6.13683 0
M  V30 10126 C 990.087 -0.356989 -6.18971 0
M  V30 10127 C 992.142 0.245809 -4.97293 0
M  V30 10128 C 990.845 -1.1219 -7.10497 0
M  V30 10129 C 992.871 -0.505684 -5.89234 0
M  V30 10130 C 992.233 -1.18207 -6.94411 0
M  V30 10131 H 988.332 0.317003 -0.714866 0
M  V30 10132 H 990.916 0.191255 -1.93758 0
M  V30 10133 H 989.087 2.48245 -2.98712 0
M  V30 10134 H 990.819 2.43754 -3.23057 0
M  V30 10135 H 987.574 0.984437 -4.63256 0
M  V30 10136 H 987.998 -0.565386 -6.74635 0
M  V30 10137 H 992.64 0.754396 -4.16015 0
M  V30 10138 H 990.358 -1.64195 -7.91243 0
M  V30 10139 H 993.944 -0.572788 -5.78974 0
M  V30 10140 H 992.824 -1.75427 -7.64327 0
M  V30 10141 N 990.327 1.50405 0.470755 0
M  V30 10142 C 991.574 1.61411 1.22281 0
M  V30 10143 C 991.902 0.314603 1.91939 0
M  V30 10144 O 991.157 -0.699531 1.82771 0
M  V30 10145 C 991.456 2.74426 2.28965 0
M  V30 10146 C 991.122 4.14896 1.76557 0
M  V30 10147 C 989.784 4.53116 1.61985 0
M  V30 10148 C 992.136 5.02686 1.3768 0
M  V30 10149 C 989.464 5.76868 1.0696 0
M  V30 10150 C 991.816 6.26985 0.840967 0
M  V30 10151 C 990.48 6.64008 0.68188 0
M  V30 10152 H 989.75 0.590645 0.447459 0
M  V30 10153 H 992.397 1.84339 0.518783 0
M  V30 10154 H 990.702 2.45588 3.05277 0
M  V30 10155 H 992.399 2.80146 2.86914 0
M  V30 10156 H 988.989 3.84743 1.88867 0
M  V30 10157 H 993.173 4.7379 1.47772 0
M  V30 10158 H 988.429 6.04227 0.933808 0
M  V30 10159 H 992.603 6.94372 0.531066 0
M  V30 10160 H 990.23 7.59778 0.25335 0
M  V30 10161 N 991.805 -0.723954 1.39988 0
M  V30 10162 C 993.033 -1.51313 1.4111 0
M  V30 10163 C 993.448 -1.88798 0.00853333 0
M  V30 10164 O 992.805 -1.54868 -0.965516 0
M  V30 10165 C 992.856 -2.79375 2.29416 0
M  V30 10166 O 992.577 -2.43478 3.64211 0
M  V30 10167 C 994.078 -3.7333 2.3904 0
M  V30 10168 H 991.298 -0.46724 0.481589 0
M  V30 10169 H 993.842 -0.893694 1.83938 0
M  V30 10170 H 991.997 -3.37624 1.89971 0
M  V30 10171 H 992.411 -3.25821 4.11024 0
M  V30 10172 H 993.885 -4.60051 3.05053 0
M  V30 10173 H 994.362 -4.15854 1.41289 0
M  V30 10174 H 994.968 -3.20996 2.79001 0
M  V30 10175 N 993.283 -1.25346 -0.955304 0
M  V30 10176 C 994.513 -1.12629 -1.732 0
M  V30 10177 C 994.921 0.322748 -1.86427 0
M  V30 10178 O 994.264 1.23381 -1.36099 0
M  V30 10179 C 994.326 -1.7064 -3.16421 0
M  V30 10180 C 993.99 -3.19632 -3.26626 0
M  V30 10181 C 994.987 -4.1663 -3.10991 0
M  V30 10182 C 992.672 -3.59829 -3.50468 0
M  V30 10183 C 994.666 -5.51806 -3.19043 0
M  V30 10184 C 992.353 -4.95143 -3.58157 0
M  V30 10185 C 993.351 -5.90941 -3.42459 0
M  V30 10186 O 993.039 -7.23792 -3.49828 0
M  V30 10187 H 992.771 -0.393646 -0.549562 0
M  V30 10188 H 995.325 -1.66184 -1.20715 0
M  V30 10189 H 993.555 -1.11532 -3.70267 0
M  V30 10190 H 995.244 -1.53032 -3.75947 0
M  V30 10191 H 996.01 -3.86915 -2.92441 0
M  V30 10192 H 991.889 -2.8576 -3.61749 0
M  V30 10193 H 995.433 -6.26559 -3.06707 0
M  V30 10194 H 991.33 -5.24525 -3.76224 0
M  V30 10195 H 992.098 -7.31879 -3.66463 0
M  V30 10196 N 994.761 1.15782 -1.06922 0
M  V30 10197 C 995.694 2.19336 -0.629837 0
M  V30 10198 C 996.672 1.58774 0.350663 0
M  V30 10199 O 997.856 1.86724 0.258124 0
M  V30 10200 C 994.983 3.38615 0.0757526 0
M  V30 10201 C 994.029 4.17688 -0.862503 0
M  V30 10202 S 994.862 4.80634 -2.36117 0
M  V30 10203 C 996.018 6.03286 -1.66725 0
M  V30 10204 H 996.251 2.56267 -1.50714 0
M  V30 10205 H 993.784 1.26674 -0.882776 0
M  V30 10206 H 995.742 4.07724 0.476611 0
M  V30 10207 H 994.403 3.00037 0.929332 0
M  V30 10208 H 993.596 5.03012 -0.315461 0
M  V30 10209 H 993.198 3.54106 -1.20354 0
M  V30 10210 H 995.49 6.70426 -0.976472 0
M  V30 10211 H 996.433 6.62551 -2.49864 0
M  V30 10212 H 996.841 5.52722 -1.14711 0
M  V30 10213 N 996.239 0.8527 1.3254 0
M  V30 10214 C 997.655 0.542298 1.50104 0
M  V30 10215 C 997.855 -0.927465 1.78886 0
M  V30 10216 O 996.911 -1.7106 1.85728 0
M  V30 10217 C 998.224 1.4276 2.64651 0
M  V30 10218 C 999.772 1.42782 2.78536 0
M  V30 10219 C 1000.25 2.29828 3.9616 0
M  V30 10220 N 1001.74 2.27613 4.03418 0
M  V30 10221 C 1002.47 2.91696 4.93661 0
M  V30 10222 N 1001.97 3.64883 5.88925 0
M  V30 10223 N 1003.76 2.81094 4.86768 0
M  V30 10224 H 995.913 1.80395 1.12123 0
M  V30 10225 H 998.176 0.770394 0.552446 0
M  V30 10226 H 997.882 2.47266 2.50105 0
M  V30 10227 H 997.756 1.11358 3.60388 0
M  V30 10228 H 1000.14 0.390417 2.92506 0
M  V30 10229 H 1000.22 1.78198 1.83519 0
M  V30 10230 H 999.868 3.33635 3.82949 0
M  V30 10231 H 999.798 1.91746 4.9045 0
M  V30 10232 H 1002.29 1.74402 3.3525 0
M  V30 10233 H 1002.6 4.10952 6.54476 0
M  V30 10234 H 1000.95 3.68991 5.88957 0
M  V30 10235 H 1004.14 2.23469 4.11314 0
M  V30 10236 H 1004.31 3.31318 5.56895 0
M  V30 10237 N 997.718 -1.45297 0.610449 0
M  V30 10238 C 998.965 -2.02218 0.106759 0
M  V30 10239 C 999.293 -1.47849 -1.26376 0
M  V30 10240 O 998.548 -0.644402 -1.84786 0
M  V30 10241 C 998.847 -3.57394 0.0205329 0
M  V30 10242 C 998.513 -4.30928 1.32709 0
M  V30 10243 C 997.175 -4.50735 1.68498 0
M  V30 10244 C 999.527 -4.72936 2.19046 0
M  V30 10245 C 996.855 -5.09806 2.90371 0
M  V30 10246 C 999.207 -5.33355 3.40169 0
M  V30 10247 C 997.871 -5.51384 3.76207 0
M  V30 10248 H 997.141 -0.739969 0.039066 0
M  V30 10249 H 999.788 -1.74326 0.792638 0
M  V30 10250 H 998.093 -3.84581 -0.748623 0
M  V30 10251 H 999.79 -3.99144 -0.385386 0
M  V30 10252 H 996.38 -4.15827 1.03854 0
M  V30 10253 H 1000.56 -4.57365 1.92695 0
M  V30 10254 H 995.82 -5.21953 3.18395 0
M  V30 10255 H 999.994 -5.64859 4.07318 0
M  V30 10256 H 997.621 -5.96924 4.70729 0
M  V30 10257 N 999.196 -0.349774 -1.5367 0
M  V30 10258 C 1000.47 0.300419 -1.93279 0
M  V30 10259 C 1000.85 1.67721 -1.28191 0
M  V30 10260 O 1000.2 2.24319 -0.435127 0
M  V30 10261 C 1000.41 0.366466 -3.47071 0
M  V30 10262 C 1001.76 0.614349 -4.20132 0
M  V30 10263 O 1002.78 0.448327 -3.53367 0
M  V30 10264 O 1001.64 0.936421 -5.38417 0
M  V30 10265 H 998.736 0.176599 -0.807924 0
M  V30 10266 H 1001.28 -0.401405 -1.64884 0
M  V30 10267 H 1000.05 -0.599455 -3.86681 0
M  V30 10268 H 999.677 1.11482 -3.81651 0
M  V30 10269 N 1000.67 1.57404 -0.0785433 0
M  V30 10270 C 1001.92 1.94031 0.589896 0
M  V30 10271 C 1002.25 0.959297 1.68852 0
M  V30 10272 O 1001.53 -0.0103978 1.94497 0
M  V30 10273 C 1001.81 3.40886 1.16055 0
M  V30 10274 C 1001.66 4.49748 0.0681072 0
M  V30 10275 C 1002.98 3.88699 2.06401 0
M  V30 10276 H 1000.1 0.70556 0.212965 0
M  V30 10277 H 1002.74 1.89439 -0.145886 0
M  V30 10278 H 1000.89 3.4493 1.78761 0
M  V30 10279 H 1002.57 4.57823 -0.565318 0
M  V30 10280 H 1000.81 4.29625 -0.600431 0
M  V30 10281 H 1001.48 5.49658 0.507906 0
M  V30 10282 H 1003.96 3.86703 1.53622 0
M  V30 10283 H 1002.83 4.92052 2.43261 0
M  V30 10284 H 1003.09 3.2703 2.97496 0
M  V30 10285 N 1002.15 -0.195058 1.56388 0
M  V30 10286 C 1003.06 -1.26219 1.97752 0
M  V30 10287 C 1004.08 -1.49801 0.885192 0
M  V30 10288 O 1005.25 -1.62415 1.19094 0
M  V30 10289 C 1002.32 -2.5865 2.3087 0
M  V30 10290 C 1001.38 -2.4314 3.5381 0
M  V30 10291 C 1000.61 -3.69255 3.85339 0
M  V30 10292 O 1000.84 -4.73425 3.18159 0
M  V30 10293 O 999.77 -3.64782 4.78767 0
M  V30 10294 H 1003.6 -0.941161 2.88749 0
M  V30 10295 H 1001.18 -0.40006 1.43944 0
M  V30 10296 H 1003.06 -3.36814 2.53247 0
M  V30 10297 H 1001.74 -2.9038 1.43042 0
M  V30 10298 H 1000.64 -1.63086 3.3668 0
M  V30 10299 H 1001.98 -2.16341 4.42105 0
M  V30 10300 N 1003.63 -1.50653 -0.462772 0
M  V30 10301 C 1004.88 -1.62057 -1.21424 0
M  V30 10302 C 1005.2 -0.324778 -1.91769 0
M  V30 10303 O 1004.46 0.689828 -1.83139 0
M  V30 10304 C 1004.76 -2.75637 -2.27507 0
M  V30 10305 C 1004.42 -4.15826 -1.74354 0
M  V30 10306 C 1003.09 -4.53969 -1.5958 0
M  V30 10307 C 1005.44 -5.03409 -1.35012 0
M  V30 10308 C 1002.77 -5.77427 -1.03899 0
M  V30 10309 C 1005.12 -6.27422 -0.807704 0
M  V30 10310 C 1003.78 -6.6436 -0.646657 0
M  V30 10311 H 1003.05 -0.59301 -0.44432 0
M  V30 10312 H 1005.7 -1.84612 -0.508999 0
M  V30 10313 H 1004 -2.47203 -3.0397 0
M  V30 10314 H 1005.7 -2.81663 -2.85424 0
M  V30 10315 H 1002.29 -3.85739 -1.86823 0
M  V30 10316 H 1006.48 -4.74567 -1.45258 0
M  V30 10317 H 1001.73 -6.04713 -0.901751 0
M  V30 10318 H 1005.91 -6.94644 -0.494234 0
M  V30 10319 H 1003.53 -7.59901 -0.213053 0
M  V30 10320 N 1005.11 0.71652 -1.4037 0
M  V30 10321 C 1006.34 1.50563 -1.4191 0
M  V30 10322 C 1006.75 1.88791 -0.0185456 0
M  V30 10323 O 1006.11 1.55378 0.957289 0
M  V30 10324 C 1006.16 2.78155 -2.30894 0
M  V30 10325 O 1005.88 2.41543 -3.65497 0
M  V30 10326 C 1007.38 3.72057 -2.41016 0
M  V30 10327 H 1004.6 0.464679 -0.48406 0
M  V30 10328 H 1007.15 0.883927 -1.8441 0
M  V30 10329 H 1005.3 3.36611 -1.91759 0
M  V30 10330 H 1005.71 3.23636 -4.12747 0
M  V30 10331 H 1007.19 4.58426 -3.07489 0
M  V30 10332 H 1007.67 4.15098 -1.43492 0
M  V30 10333 H 1008.27 3.19512 -2.80699 0
M  V30 10334 N 1006.59 1.25851 0.948643 0
M  V30 10335 C 1007.84 1.10347 1.68838 0
M  V30 10336 C 1008.15 -0.354262 1.92365 0
M  V30 10337 O 1009.35 -0.629847 2.64093 0
M  V30 10338 C 1007.81 1.92659 3.03991 0
M  V30 10339 C 1007.42 3.42962 2.88238 0
M  V30 10340 C 1009.16 1.85743 3.81707 0
M  V30 10341 C 1007.07 4.17547 4.18818 0
M  V30 10342 H 1006 0.409342 0.63321 0
M  V30 10343 H 1008.65 1.50098 1.05559 0
M  V30 10344 H 1007.03 1.45736 3.68208 0
M  V30 10345 H 1008.21 3.97601 2.32917 0
M  V30 10346 H 1006.52 3.51035 2.23972 0
M  V30 10347 H 1009.12 2.38758 4.78434 0
M  V30 10348 H 1009.46 0.826568 4.08012 0
M  V30 10349 H 1009.99 2.30449 3.2425 0
M  V30 10350 H 1006.73 5.21072 3.97699 0
M  V30 10351 H 1006.25 3.6769 4.73882 0
M  V30 10352 H 1007.93 4.25589 4.87322 0
M  V30 10353 N 1008.06 -1.15214 1.07534 0
M  V30 10354 C 1009.31 -1.85388 0.794617 0
M  V30 10355 C 1009.63 -1.83331 -0.681838 0
M  V30 10356 O 1010.83 -2.49207 -1.0774 0
M  V30 10357 C 1009.29 -3.32747 1.37141 0
M  V30 10358 C 1008.9 -3.43244 2.87902 0
M  V30 10359 C 1010.64 -4.08093 1.16879 0
M  V30 10360 C 1008.55 -4.84762 3.38763 0
M  V30 10361 H 1007.48 -0.694499 0.293577 0
M  V30 10362 H 1010.13 -1.29944 1.29564 0
M  V30 10363 H 1008.51 -3.87874 0.798121 0
M  V30 10364 H 1009.68 -2.98214 3.51291 0
M  V30 10365 H 1008 -2.81345 3.06975 0
M  V30 10366 H 1010.6 -5.12535 1.52353 0
M  V30 10367 H 1010.94 -4.1616 0.107958 0
M  V30 10368 H 1011.47 -3.59241 1.70854 0
M  V30 10369 H 1008.21 -4.81879 4.4438 0
M  V30 10370 H 1007.73 -5.30366 2.80128 0
M  V30 10371 H 1009.41 -5.53624 3.34827 0
M  V30 10372 N 1009.54 -0.859717 -1.32086 0
M  V30 10373 C 1010.51 -0.313005 -2.27053 0
M  V30 10374 C 1011.51 0.530191 -1.51808 0
M  V30 10375 O 1012.7 0.340972 -1.7083 0
M  V30 10376 C 1009.83 0.5566 -3.36325 0
M  V30 10377 H 1011.02 -1.15125 -2.76923 0
M  V30 10378 H 1008.57 -0.634463 -1.42843 0
M  V30 10379 H 1009.31 1.41645 -2.91731 0
M  V30 10380 H 1009.09 -0.0470197 -3.92072 0
M  V30 10381 H 1010.58 0.931725 -4.07073 0
M  V30 10382 N 1011.02 1.44971 -0.618145 0
M  V30 10383 C 1012.25 2.06527 -0.124165 0
M  V30 10384 C 1012.66 1.46097 1.19588 0
M  V30 10385 O 1012.02 0.57901 1.73071 0
M  V30 10386 C 1012.07 3.61498 0.0106701 0
M  V30 10387 O 1011.79 4.19675 -1.25716 0
M  V30 10388 C 1013.29 4.40061 0.534872 0
M  V30 10389 H 1010.51 0.666941 -0.0736935 0
M  V30 10390 H 1013.06 1.8605 -0.848871 0
M  V30 10391 H 1011.21 3.81282 0.685752 0
M  V30 10392 H 1011.63 5.12972 -1.09362 0
M  V30 10393 H 1013.1 5.48963 0.57827 0
M  V30 10394 H 1013.58 4.10587 1.55931 0
M  V30 10395 H 1014.18 4.25167 -0.10652 0
M  V30 10396 N 1012.5 0.357919 1.53482 0
M  V30 10397 C 1013.72 -0.237769 2.06033 0
M  V30 10398 C 1014.15 -1.42292 1.23023 0
M  V30 10399 O 1013.51 -1.79604 0.247427 0
M  V30 10400 C 1013.55 -0.616806 3.55286 0
M  V30 10401 O 1012.66 -1.71503 3.75047 0
M  V30 10402 H 1012 -0.0364322 0.663 0
M  V30 10403 H 1014.53 0.516301 1.97979 0
M  V30 10404 H 1014.54 -0.88996 3.98175 0
M  V30 10405 H 1013.21 0.249825 4.15149 0
M  V30 10406 H 1011.79 -1.43803 3.44057 0
M  V30 10407 N 1013.98 -1.5736 0.0868897 0
M  V30 10408 C 1015.2 -1.98809 -0.590757 0
M  V30 10409 C 1015.63 -0.965407 -1.61436 0
M  V30 10410 O 1014.98 0.067143 -1.81176 0
M  V30 10411 C 1015.03 -3.39249 -1.22238 0
M  V30 10412 O 1014.14 -3.39706 -2.33824 0
M  V30 10413 H 1013.48 -0.64669 -0.150626 0
M  V30 10414 H 1016.01 -2.03927 0.165873 0
M  V30 10415 H 1016.02 -3.76765 -1.56564 0
M  V30 10416 H 1014.69 -4.13208 -0.472434 0
M  V30 10417 H 1013.27 -3.13977 -2.01178 0
M  V30 10418 N 1015.45 0.186762 -1.56489 0
M  V30 10419 C 1016.68 0.921832 -1.85229 0
M  V30 10420 C 1017.1 1.76496 -0.670416 0
M  V30 10421 O 1016.45 1.78899 0.360758 0
M  V30 10422 C 1016.51 1.81121 -3.12854 0
M  V30 10423 O 1016.23 1.00211 -4.26485 0
M  V30 10424 C 1017.73 2.65725 -3.54831 0
M  V30 10425 H 1014.95 0.268563 -0.61491 0
M  V30 10426 H 1017.49 0.191505 -2.03601 0
M  V30 10427 H 1015.65 2.49506 -2.96354 0
M  V30 10428 H 1016.06 1.60893 -4.99213 0
M  V30 10429 H 1017.53 3.23771 -4.47075 0
M  V30 10430 H 1018.01 3.39843 -2.78215 0
M  V30 10431 H 1018.62 2.02698 -3.7389 0
M  V30 10432 N 1016.93 1.50896 0.454776 0
M  V30 10433 C 1018.18 1.62378 1.20324 0
M  V30 10434 C 1018.5 0.333883 1.9212 0
M  V30 10435 O 1017.77 -0.649477 1.8482 0
M  V30 10436 H 1016.35 0.598395 0.447139 0
M  V30 10437 H 1019.01 1.87749 0.523102 0
M  V30 10438 H 1018.11 2.44296 1.94232 0
M  V30 10439 N 1018.41 -0.709066 1.40748 0
M  V30 10440 C 1019.34 -1.83412 1.37451 0
M  V30 10441 C 1020.36 -1.60394 0.27884 0
M  V30 10442 O 1021.54 -1.70147 0.539642 0
M  V30 10443 C 1018.64 -3.19935 1.1178 0
M  V30 10444 C 1017.82 -3.70095 2.33128 0
M  V30 10445 C 1016.88 -4.85249 2.03518 0
M  V30 10446 O 1015.9 -4.97563 2.76442 0
M  V30 10447 N 1017.1 -5.7152 1.01714 0
M  V30 10448 H 1019.87 -1.86736 2.34414 0
M  V30 10449 H 1017.43 -0.890863 1.35186 0
M  V30 10450 H 1019.42 -3.94578 0.899464 0
M  V30 10451 H 1017.99 -3.11718 0.234624 0
M  V30 10452 H 1017.21 -2.8651 2.70751 0
M  V30 10453 H 1018.5 -4.00344 3.1401 0
M  V30 10454 H 1017.9 -5.64188 0.413307 0
M  V30 10455 H 1016.46 -6.46119 0.858696 0
M  V30 10456 N 1019.89 -1.26353 -0.941956 0
M  V30 10457 C 1020.84 -1.07654 -2.06188 0
M  V30 10458 C 1021.83 -0.00369741 -1.694 0
M  V30 10459 O 1023.04 -0.160316 -1.79285 0
M  V30 10460 H 1019.41 -0.331274 -0.675101 0
M  V30 10461 H 1021.38 -2.02566 -2.19111 0
M  V30 10462 C 1020.13 -0.725436 -3.40048 0
M  V30 10463 H 1019.46 -1.54283 -3.68832 0
M  V30 10464 H 1020.9 -0.634383 -4.19227 0
M  V30 10465 C 1019.35 0.569369 -3.32054 0
M  V30 10466 O 1019.88 1.60791 -3.68116 0
M  V30 10467 N 1018.09 0.559714 -2.85159 0
M  V30 10468 H 1017.64 -0.285817 -2.56009 0
M  V30 10469 H 1017.6 1.42617 -2.80193 0
M  V30 10470 N 1021.37 1.14642 -1.08144 0
M  V30 10471 C 1022.61 1.85892 -0.810683 0
M  V30 10472 C 1022.95 1.82575 0.661821 0
M  V30 10473 O 1022.22 1.25454 1.48632 0
M  V30 10474 C 1022.5 3.34647 -1.32979 0
M  V30 10475 C 1022.36 3.46551 -2.86744 0
M  V30 10476 C 1023.68 4.29661 -0.952864 0
M  V30 10477 H 1020.8 0.674963 -0.295963 0
M  V30 10478 H 1023.44 1.3464 -1.3406 0
M  V30 10479 H 1021.59 3.78425 -0.87903 0
M  V30 10480 H 1023.26 3.11579 -3.40171 0
M  V30 10481 H 1021.5 2.87849 -3.24539 0
M  V30 10482 H 1022.17 4.51101 -3.18138 0
M  V30 10483 H 1024.65 3.93885 -1.34141 0
M  V30 10484 H 1023.53 5.32209 -1.34331 0
M  V30 10485 H 1023.79 4.41877 0.140392 0
M  V30 10486 N 1022.85 0.866709 1.31628 0
M  V30 10487 C 1024.07 0.49039 2.01004 0
M  V30 10488 C 1024.49 -0.916244 1.65077 0
M  V30 10489 O 1023.85 -1.59975 0.8783 0
M  V30 10490 C 1023.9 0.634011 3.55897 0
M  V30 10491 O 1023.62 1.98525 3.90537 0
M  V30 10492 C 1025.12 0.258277 4.42547 0
M  V30 10493 H 1022.34 0.191421 0.643117 0
M  V30 10494 H 1024.88 1.16698 1.67934 0
M  V30 10495 H 1023.04 0.00501801 3.874 0
M  V30 10496 H 1023.45 1.99067 4.85255 0
M  V30 10497 H 1024.93 0.409733 5.50477 0
M  V30 10498 H 1025.4 -0.802301 4.3181 0
M  V30 10499 H 1026.01 0.862837 4.16456 0
M  V30 10500 N 1024.32 -1.44642 0.625825 0
M  V30 10501 C 1025.55 -2.06458 0.135116 0
M  V30 10502 C 1025.97 -1.46729 -1.18811 0
M  V30 10503 O 1025.32 -0.58818 -1.72762 0
M  V30 10504 C 1025.37 -3.61499 0.00850114 0
M  V30 10505 O 1025.1 -4.19002 1.2794 0
M  V30 10506 C 1026.6 -4.40339 -0.511527 0
M  V30 10507 H 1023.82 -0.666541 0.0772294 0
M  V30 10508 H 1026.36 -1.85597 0.858726 0
M  V30 10509 H 1024.52 -3.81641 -0.665522 0
M  V30 10510 H 1024.93 -5.12385 1.12081 0
M  V30 10511 H 1026.4 -5.49262 -0.549149 0
M  V30 10512 H 1026.88 -4.11409 -1.53752 0
M  V30 10513 H 1027.49 -4.25104 0.129066 0
M  V30 10514 N 1025.8 -0.366053 -1.5329 0
M  V30 10515 C 1026.71 0.488111 -2.29466 0
M  V30 10516 C 1027.73 1.09219 -1.35452 0
M  V30 10517 O 1028.9 1.10303 -1.68509 0
M  V30 10518 C 1025.97 1.61202 -3.06944 0
M  V30 10519 C 1025.03 1.03543 -4.16626 0
M  V30 10520 C 1024.26 2.10578 -4.904 0
M  V30 10521 O 1024.49 3.31697 -4.6404 0
M  V30 10522 O 1023.42 1.73609 -5.76319 0
M  V30 10523 H 1027.25 -0.131789 -3.03414 0
M  V30 10524 H 1024.83 -0.130421 -1.4883 0
M  V30 10525 H 1026.71 2.26546 -3.55324 0
M  V30 10526 H 1025.39 2.21732 -2.35832 0
M  V30 10527 H 1024.29 0.345892 -3.72498 0
M  V30 10528 H 1025.63 0.474687 -4.89906 0
M  V30 10529 N 1027.28 1.57312 -0.0952337 0
M  V30 10530 C 1028.21 2.11059 0.893678 0
M  V30 10531 C 1029.22 1.04787 1.24594 0
M  V30 10532 O 1030.41 1.32233 1.19903 0
M  V30 10533 C 1027.51 2.57552 2.20272 0
M  V30 10534 C 1026.69 3.87661 2.02578 0
M  V30 10535 C 1025.75 4.2 3.16996 0
M  V30 10536 O 1024.77 4.89219 2.90953 0
M  V30 10537 N 1025.97 3.75414 4.42769 0
M  V30 10538 H 1028.74 2.96532 0.434632 0
M  V30 10539 H 1026.3 1.6165 0.0898661 0
M  V30 10540 H 1028.29 2.76232 2.95766 0
M  V30 10541 H 1026.86 1.7709 2.576 0
M  V30 10542 H 1026.08 3.78128 1.11413 0
M  V30 10543 H 1027.37 4.7278 1.88032 0
M  V30 10544 H 1026.77 3.1954 4.66809 0
M  V30 10545 H 1025.32 3.99249 5.15212 0
M  V30 10546 N 1028.76 -0.17846 1.56586 0
M  V30 10547 C 1029.71 -1.22552 1.92263 0
M  V30 10548 C 1030.69 -1.40163 0.790131 0
M  V30 10549 O 1031.88 -1.42254 1.05322 0
M  V30 10550 C 1029.01 -2.5666 2.27993 0
M  V30 10551 C 1028.1 -2.42772 3.47739 0
M  V30 10552 N 1028.49 -1.98588 4.65185 0
M  V30 10553 C 1026.79 -2.73619 3.52205 0
M  V30 10554 C 1027.49 -1.96991 5.47329 0
M  V30 10555 N 1026.46 -2.39126 4.8818 0
M  V30 10556 H 1030.27 -0.875493 2.80557 0
M  V30 10557 H 1027.78 -0.386785 1.57727 0
M  V30 10558 H 1029.78 -3.32312 2.51743 0
M  V30 10559 H 1028.44 -2.92472 1.41034 0
M  V30 10560 H 1029.45 -1.69036 4.89538 0
M  V30 10561 H 1026.13 -3.13516 2.75706 0
M  V30 10562 H 1027.52 -1.64589 6.51429 0
M  V30 10563 N 1030.24 -1.51135 -0.446768 0
M  V30 10564 C 1031.46 -1.67129 -1.21965 0
M  V30 10565 C 1031.88 -0.36467 -1.85245 0
M  V30 10566 O 1031.24 0.655908 -1.70306 0
M  V30 10567 C 1031.29 -2.78016 -2.31061 0
M  V30 10568 O 1031.01 -4.03615 -1.70371 0
M  V30 10569 C 1032.51 -3.05197 -3.21511 0
M  V30 10570 H 1029.73 -0.561111 -0.367961 0
M  V30 10571 H 1032.27 -1.97499 -0.530517 0
M  V30 10572 H 1030.43 -2.50272 -2.95707 0
M  V30 10573 H 1030.84 -4.65126 -2.424 0
M  V30 10574 H 1032.32 -3.8639 -3.94216 0
M  V30 10575 H 1032.79 -2.17228 -3.81718 0
M  V30 10576 H 1033.4 -3.34565 -2.62577 0
M  V30 10577 N 1031.71 0.701592 -1.41122 0
M  V30 10578 C 1032.94 1.49049 -1.43499 0
M  V30 10579 C 1033.36 1.88761 -0.0385684 0
M  V30 10580 O 1032.71 1.56384 0.940755 0
M  V30 10581 C 1032.76 2.7569 -2.33832 0
M  V30 10582 O 1032.49 2.37653 -3.68039 0
M  V30 10583 C 1033.99 3.69479 -2.44949 0
M  V30 10584 H 1031.21 0.459519 -0.488961 0
M  V30 10585 H 1033.75 0.864318 -1.85337 0
M  V30 10586 H 1031.91 3.34559 -1.95318 0
M  V30 10587 H 1032.32 3.19241 -4.16156 0
M  V30 10588 H 1033.79 4.55139 -3.12334 0
M  V30 10589 H 1034.27 4.13553 -1.47887 0
M  V30 10590 H 1034.88 3.16517 -2.84072 0
M  V30 10591 N 1033.19 1.2685 0.935242 0
M  V30 10592 C 1034.42 1.15371 1.71386 0
M  V30 10593 C 1034.83 -0.293048 1.86917 0
M  V30 10594 O 1034.17 -1.212 1.38044 0
M  V30 10595 C 1034.23 1.75652 3.13666 0
M  V30 10596 C 1033.9 3.24788 3.215 0
M  V30 10597 C 1034.9 4.21525 3.04323 0
M  V30 10598 C 1032.58 3.65359 3.447 0
M  V30 10599 C 1034.57 5.56812 3.10224 0
M  V30 10600 C 1032.26 5.00778 3.50235 0
M  V30 10601 C 1033.26 5.96314 3.33014 0
M  V30 10602 O 1032.95 7.29266 3.38269 0
M  V30 10603 H 1032.68 0.40234 0.54323 0
M  V30 10604 H 1035.23 1.68083 1.18056 0
M  V30 10605 H 1033.46 1.17408 3.68446 0
M  V30 10606 H 1035.15 1.58994 3.73465 0
M  V30 10607 H 1035.92 3.91519 2.86249 0
M  V30 10608 H 1031.8 2.91479 3.57157 0
M  V30 10609 H 1035.34 6.3136 2.967 0
M  V30 10610 H 1031.24 5.30444 3.67831 0
M  V30 10611 H 1032.01 7.37616 3.54774 0
M  V30 10612 N 1034.67 -1.14067 1.0875 0
M  V30 10613 C 1035.6 -2.18926 0.67852 0
M  V30 10614 C 1036.62 -1.60441 -0.276163 0
M  V30 10615 O 1037.8 -1.78388 -0.0632788 0
M  V30 10616 C 1034.9 -3.38893 -0.0218852 0
M  V30 10617 C 1034.08 -4.26901 0.952582 0
M  V30 10618 C 1033.14 -5.25418 0.286859 0
M  V30 10619 O 1032.16 -5.61512 0.932354 0
M  V30 10620 N 1033.36 -5.72476 -0.961831 0
M  V30 10621 H 1036.13 -2.54629 1.58063 0
M  V30 10622 H 1033.69 -1.29321 0.974042 0
M  V30 10623 H 1035.68 -4.01864 -0.478278 0
M  V30 10624 H 1034.25 -3.01486 -0.826141 0
M  V30 10625 H 1033.47 -3.60812 1.58772 0
M  V30 10626 H 1034.76 -4.82563 1.61279 0
M  V30 10627 H 1034.16 -5.45287 -1.50594 0
M  V30 10628 H 1032.72 -6.37418 -1.36166 0
M  V30 10629 N 1036.15 -0.873678 -1.31166 0
M  V30 10630 C 1037.39 -0.487178 -1.96861 0
M  V30 10631 C 1037.73 0.95887 -1.68877 0
M  V30 10632 O 1037 1.6758 -0.987279 0
M  V30 10633 C 1037.29 -0.74925 -3.52219 0
M  V30 10634 C 1037.14 -2.2451 -3.89763 0
M  V30 10635 C 1038.46 -0.218194 -4.39559 0
M  V30 10636 H 1035.58 -0.178477 -0.715063 0
M  V30 10637 H 1038.22 -1.0956 -1.55231 0
M  V30 10638 H 1036.37 -0.231403 -3.8781 0
M  V30 10639 H 1038.04 -2.83049 -3.64254 0
M  V30 10640 H 1036.28 -2.71621 -3.38237 0
M  V30 10641 H 1036.95 -2.37911 -4.98099 0
M  V30 10642 H 1039.43 -0.661274 -4.10812 0
M  V30 10643 H 1038.31 -0.430983 -5.47205 0
M  V30 10644 H 1038.57 0.880056 -4.33252 0
M  V30 10645 N 1037.63 1.44308 -0.633487 0
M  V30 10646 C 1038.56 2.27887 0.119397 0
M  V30 10647 C 1039.54 1.38676 0.848981 0
M  V30 10648 O 1040.72 1.68116 0.85259 0
M  V30 10649 C 1037.85 3.17658 1.17521 0
M  V30 10650 C 1036.89 4.22992 0.54589 0
M  V30 10651 S 1037.73 5.31345 -0.6658 0
M  V30 10652 C 1038.88 6.24684 0.389965 0
M  V30 10653 H 1039.12 2.91394 -0.589638 0
M  V30 10654 H 1036.65 1.48529 -0.421727 0
M  V30 10655 H 1038.61 3.69929 1.77941 0
M  V30 10656 H 1037.27 2.53367 1.85645 0
M  V30 10657 H 1036.46 4.85828 1.34115 0
M  V30 10658 H 1036.06 3.73996 0.0162506 0
M  V30 10659 H 1038.36 6.65645 1.26185 0
M  V30 10660 H 1039.3 7.07809 -0.202878 0
M  V30 10661 H 1039.71 5.59929 0.716922 0
M  V30 10662 N 1039.1 0.374177 1.53094 0
M  V30 10663 C 1040.33 -0.213015 2.05499 0
M  V30 10664 C 1040.74 -1.42303 1.24686 0
M  V30 10665 O 1040.09 -1.81512 0.282702 0
M  V30 10666 C 1040.15 -0.662308 3.53346 0
M  V30 10667 C 1039.81 0.432183 4.54952 0
M  V30 10668 C 1040.81 1.2848 5.03775 0
M  V30 10669 C 1038.49 0.594887 4.98765 0
M  V30 10670 C 1040.49 2.28538 5.9502 0
M  V30 10671 C 1038.17 1.59882 5.89814 0
M  V30 10672 C 1039.17 2.4425 6.37833 0
M  V30 10673 O 1038.86 3.4293 7.27086 0
M  V30 10674 H 1038.59 -0.0393809 0.674852 0
M  V30 10675 H 1041.15 0.533423 1.98353 0
M  V30 10676 H 1039.38 -1.46049 3.5806 0
M  V30 10677 H 1041.07 -1.17347 3.88567 0
M  V30 10678 H 1041.83 1.17033 4.70668 0
M  V30 10679 H 1037.71 -0.0520401 4.60971 0
M  V30 10680 H 1041.25 2.94426 6.32423 0
M  V30 10681 H 1037.15 1.71373 6.22335 0
M  V30 10682 H 1037.92 3.3876 7.45107 0
M  V30 10683 N 1040.58 -1.57259 0.103575 0
M  V30 10684 C 1041.83 -1.94945 -0.558953 0
M  V30 10685 C 1042.16 -0.986038 -1.67305 0
M  V30 10686 O 1041.44 -0.0205464 -1.94489 0
M  V30 10687 C 1041.72 -3.42689 -1.10617 0
M  V30 10688 C 1041.57 -4.498 0.00345246 0
M  V30 10689 C 1042.89 -3.91933 -2.00191 0
M  V30 10690 H 1040.01 -0.708859 -0.201713 0
M  V30 10691 H 1042.65 -1.89183 0.176006 0
M  V30 10692 H 1040.8 -3.4773 -1.73251 0
M  V30 10693 H 1042.47 -4.56866 0.638082 0
M  V30 10694 H 1040.72 -4.28615 0.668705 0
M  V30 10695 H 1041.39 -5.50397 -0.420396 0
M  V30 10696 H 1043.86 -3.89098 -1.4745 0
M  V30 10697 H 1042.74 -4.9586 -2.35402 0
M  V30 10698 H 1043 -3.31722 -2.92255 0
M  V30 10699 N 1042.06 0.170153 -1.56679 0
M  V30 10700 C 1043.47 0.732502 -1.7173 0
M  V30 10701 C 1043.82 1.82736 -0.71428 0
M  V30 10702 O 1042.95 2.16044 0.124102 0
M  V30 10703 C 1043.54 1.33548 -3.11368 0
M  V30 10704 C 1042.1 1.84464 -3.281 0
M  V30 10705 C 1041.25 0.724069 -2.6768 0
M  V30 10706 H 1044.2 -0.0552543 -1.58604 0
M  V30 10707 H 1044.22 2.20519 -3.10083 0
M  V30 10708 H 1043.73 0.5384 -3.84347 0
M  V30 10709 H 1041.83 2.66813 -2.6008 0
M  V30 10710 H 1041.95 1.98928 -4.35849 0
M  V30 10711 H 1040.31 1.14481 -2.27522 0
M  V30 10712 H 1041.09 -0.0611861 -3.43245 0
M  V30 10713 N 1043.54 1.5137 0.438746 0
M  V30 10714 C 1044.95 1.56462 1.01866 0
M  V30 10715 C 1045.3 0.387244 1.9234 0
M  V30 10716 O 1044.43 -0.496131 2.10636 0
M  V30 10717 C 1045.02 2.83557 1.85421 0
M  V30 10718 C 1043.58 2.91224 2.38464 0
M  V30 10719 C 1042.73 2.51109 1.17641 0
M  V30 10720 H 1045.68 1.57167 0.220072 0
M  V30 10721 H 1045.7 2.6724 2.70857 0
M  V30 10722 H 1045.21 3.69229 1.19546 0
M  V30 10723 H 1043.31 2.09979 3.07798 0
M  V30 10724 H 1043.42 3.94844 2.71358 0
M  V30 10725 H 1041.79 2.04276 1.5213 0
M  V30 10726 H 1042.57 3.39125 0.533785 0
M  V30 10727 N 1045.02 -0.694098 1.41492 0
M  V30 10728 C 1046.26 -1.45127 1.4065 0
M  V30 10729 C 1046.59 -1.94993 0.0170289 0
M  V30 10730 O 1045.86 -1.71799 -0.941372 0
M  V30 10731 H 1044.44 -0.538493 0.51772 0
M  V30 10732 H 1047.1 -0.821441 1.76744 0
M  V30 10733 H 1046.19 -2.31372 2.0946 0
M  V30 10734 N 1046.49 -1.27344 -0.928501 0
M  V30 10735 C 1047.46 -1.10043 -2.01055 0
M  V30 10736 C 1048.46 -0.0446793 -1.60738 0
M  V30 10737 O 1049.65 -0.289202 -1.71783 0
M  V30 10738 C 1046.78 -0.676559 -3.34119 0
M  V30 10739 H 1047.97 -2.06126 -2.17835 0
M  V30 10740 H 1045.53 -1.10121 -1.10919 0
M  V30 10741 H 1046.26 0.285697 -3.23039 0
M  V30 10742 H 1046.05 -1.43903 -3.64739 0
M  V30 10743 H 1047.54 -0.577725 -4.13584 0
M  V30 10744 N 1047.97 1.13488 -1.09353 0
M  V30 10745 C 1049.38 1.66299 -0.848609 0
M  V30 10746 C 1049.73 1.86044 0.623051 0
M  V30 10747 O 1048.86 1.57871 1.48005 0
M  V30 10748 C 1049.45 3.02087 -1.53391 0
M  V30 10749 C 1048.01 3.51893 -1.33598 0
M  V30 10750 C 1047.16 2.27154 -1.59048 0
M  V30 10751 H 1050.11 0.974208 -1.25279 0
M  V30 10752 H 1050.13 3.68018 -0.966587 0
M  V30 10753 H 1049.64 2.87684 -2.60498 0
M  V30 10754 H 1047.75 3.715 -0.286045 0
M  V30 10755 H 1047.86 4.32059 -2.0703 0
M  V30 10756 H 1046.22 2.33708 -1.01256 0
M  V30 10757 H 1047.01 2.15317 -2.67383 0
M  V30 10758 N 1049.45 0.880621 1.30701 0
M  V30 10759 C 1050.7 0.497611 1.966 0
M  V30 10760 C 1051.03 -0.949901 1.69383 0
M  V30 10761 O 1050.31 -1.67054 0.996152 0
M  V30 10762 C 1050.59 0.767919 3.51817 0
M  V30 10763 C 1050.44 2.26574 3.88567 0
M  V30 10764 C 1051.76 0.241502 4.39437 0
M  V30 10765 H 1048.88 0.182267 0.714106 0
M  V30 10766 H 1051.52 1.10382 1.54648 0
M  V30 10767 H 1049.67 0.251967 3.87682 0
M  V30 10768 H 1051.34 2.84977 3.62748 0
M  V30 10769 H 1049.59 2.73411 3.36792 0
M  V30 10770 H 1050.26 2.40549 4.9683 0
M  V30 10771 H 1052.73 0.683051 4.10455 0
M  V30 10772 H 1051.61 0.459997 5.46969 0
M  V30 10773 H 1051.87 -0.857068 4.33713 0
M  V30 10774 N 1050.93 -1.4397 0.641131 0
M  V30 10775 C 1052.34 -1.85267 0.230838 0
M  V30 10776 C 1052.69 -1.53659 -1.21998 0
M  V30 10777 O 1051.82 -0.979572 -1.92959 0
M  V30 10778 C 1052.41 -3.36284 0.412171 0
M  V30 10779 C 1050.97 -3.76358 0.0563004 0
M  V30 10780 C 1050.12 -2.67768 0.720809 0
M  V30 10781 H 1053.07 -1.34294 0.845624 0
M  V30 10782 H 1053.09 -3.78924 -0.345936 0
M  V30 10783 H 1052.6 -3.59258 1.46818 0
M  V30 10784 H 1050.7 -3.58997 -0.997582 0
M  V30 10785 H 1050.82 -4.76756 0.473335 0
M  V30 10786 H 1049.18 -2.54227 0.155164 0
M  V30 10787 H 1049.96 -2.93573 1.77961 0
M  V30 10788 N 1052.41 -0.382291 -1.52893 0
M  V30 10789 C 1053.63 0.204961 -2.06385 0
M  V30 10790 C 1054.06 1.40316 -1.25271 0
M  V30 10791 O 1053.42 1.79187 -0.275969 0
M  V30 10792 C 1053.46 0.560205 -3.56222 0
M  V30 10793 O 1052.57 1.65515 -3.77728 0
M  V30 10794 H 1051.91 0.0258798 -0.663495 0
M  V30 10795 H 1054.44 -0.547733 -1.97132 0
M  V30 10796 H 1054.45 0.826501 -3.99541 0
M  V30 10797 H 1053.12 -0.31584 -4.14699 0
M  V30 10798 H 1051.7 1.38311 -3.46301 0
M  V30 10799 N 1053.89 1.57202 -0.111913 0
M  V30 10800 C 1054.83 2.16186 0.858286 0
M  V30 10801 C 1055.83 1.10917 1.28039 0
M  V30 10802 O 1057.03 1.29233 1.25295 0
M  V30 10803 H 1053.41 0.691777 0.29487 0
M  V30 10804 H 1055.38 2.96499 0.336265 0
M  V30 10805 C 1054.13 2.77024 2.10127 0
M  V30 10806 H 1053.45 3.5772 1.78539 0
M  V30 10807 H 1054.89 3.21841 2.76033 0
M  V30 10808 C 1053.35 1.73752 2.88638 0
M  V30 10809 O 1053.88 1.18659 3.83774 0
M  V30 10810 N 1052.09 1.43855 2.52496 0
M  V30 10811 H 1051.63 1.88846 1.75199 0
M  V30 10812 H 1051.59 0.749985 3.05324 0
M  V30 10813 N 1055.36 -0.161842 1.56767 0
M  V30 10814 C 1056.3 -1.22499 1.93718 0
M  V30 10815 C 1057.31 -1.39975 0.831314 0
M  V30 10816 O 1058.5 -1.3981 1.10975 0
M  V30 10817 C 1055.6 -2.59222 2.18306 0
M  V30 10818 C 1054.77 -2.6292 3.4956 0
M  V30 10819 C 1053.83 -3.81074 3.62863 0
M  V30 10820 O 1052.86 -3.66633 4.35395 0
M  V30 10821 N 1054.06 -4.97923 2.98418 0
M  V30 10822 H 1056.82 -0.911043 2.85517 0
M  V30 10823 H 1054.38 -0.351533 1.58038 0
M  V30 10824 H 1056.38 -3.36749 2.24461 0
M  V30 10825 H 1054.95 -2.82969 1.32844 0
M  V30 10826 H 1054.17 -1.71418 3.54978 0
M  V30 10827 H 1055.45 -2.62409 4.35911 0
M  V30 10828 H 1054.85 -5.12557 2.39378 0
M  V30 10829 H 1053.41 -5.73277 3.10155 0
M  V30 10830 N 1056.84 -1.516 -0.430713 0
M  V30 10831 C 1058.12 -1.55142 -1.19123 0
M  V30 10832 C 1058.5 -0.319596 -2.08667 0
M  V30 10833 O 1057.85 0.694927 -2.17676 0
M  V30 10834 C 1058.06 -2.86891 -1.98732 0
M  V30 10835 C 1059.4 -3.39089 -2.55546 0
M  V30 10836 O 1060.43 -2.88486 -2.08936 0
M  V30 10837 O 1059.29 -4.27401 -3.40574 0
M  V30 10838 H 1056.38 -0.624019 -0.542705 0
M  V30 10839 H 1058.93 -1.63917 -0.439244 0
M  V30 10840 H 1057.7 -3.68002 -1.33005 0
M  V30 10841 H 1057.32 -2.81309 -2.80982 0
M  V30 10842 N 1058.32 0.686584 -1.41858 0
M  V30 10843 C 1059.54 1.4802 -1.45275 0
M  V30 10844 C 1059.97 1.87997 -0.0621297 0
M  V30 10845 O 1059.33 1.55226 0.936733 0
M  V30 10846 C 1059.38 2.7133 -2.37513 0
M  V30 10847 O 1058.48 3.69159 -1.83836 0
M  V30 10848 H 1057.82 0.445152 -0.492682 0
M  V30 10849 H 1060.35 0.843161 -1.86419 0
M  V30 10850 H 1060.36 3.19537 -2.53693 0
M  V30 10851 H 1059.04 2.41571 -3.3855 0
M  V30 10852 H 1057.61 3.28134 -1.77151 0
M  V30 10853 N 1059.8 1.27835 0.921735 0
M  V30 10854 C 1061.04 1.14523 1.67005 0
M  V30 10855 C 1061.37 -0.307776 1.92049 0
M  V30 10856 O 1060.63 -1.24103 1.51317 0
M  V30 10857 C 1060.93 1.88054 3.03925 0
M  V30 10858 C 1060.59 3.37886 2.9857 0
M  V30 10859 C 1059.25 3.78752 2.96817 0
M  V30 10860 C 1061.61 4.33462 2.89414 0
M  V30 10861 C 1058.93 5.13549 2.83698 0
M  V30 10862 C 1061.29 5.68322 2.77836 0
M  V30 10863 C 1059.95 6.08475 2.74436 0
M  V30 10864 H 1059.22 0.419068 0.611116 0
M  V30 10865 H 1061.87 1.58515 1.07449 0
M  V30 10866 H 1060.17 1.36587 3.67221 0
M  V30 10867 H 1061.87 1.75176 3.60714 0
M  V30 10868 H 1058.46 3.05389 3.00725 0
M  V30 10869 H 1062.64 4.02857 2.89862 0
M  V30 10870 H 1057.9 5.43796 2.79456 0
M  V30 10871 H 1062.07 6.42048 2.69717 0
M  V30 10872 H 1059.7 7.12877 2.64027 0
M  V30 10873 N 1061.28 -1.12907 1.09954 0
M  V30 10874 C 1062.21 -2.18194 0.701701 0
M  V30 10875 C 1063.22 -1.60724 -0.259131 0
M  V30 10876 O 1064.41 -1.78445 -0.0443549 0
M  V30 10877 C 1061.51 -3.38897 0.0140602 0
M  V30 10878 C 1060.68 -4.25867 0.997807 0
M  V30 10879 C 1059.74 -5.25084 0.34257 0
M  V30 10880 O 1058.77 -5.60492 0.991857 0
M  V30 10881 N 1059.97 -5.73464 -0.901058 0
M  V30 10882 H 1062.73 -2.52939 1.60755 0
M  V30 10883 H 1060.3 -1.28281 0.987703 0
M  V30 10884 H 1062.29 -4.02349 -0.435628 0
M  V30 10885 H 1060.86 -3.02345 -0.794118 0
M  V30 10886 H 1060.08 -3.59107 1.6259 0
M  V30 10887 H 1061.37 -4.80825 1.66388 0
M  V30 10888 H 1060.76 -5.46854 -1.44802 0
M  V30 10889 H 1059.32 -6.38827 -1.29398 0
M  V30 10890 N 1062.75 -0.88754 -1.30232 0
M  V30 10891 C 1064 -0.517406 -1.96709 0
M  V30 10892 C 1064.35 0.923757 -1.68774 0
M  V30 10893 O 1063.65 1.64435 -0.983443 0
M  V30 10894 C 1063.84 -0.731765 -3.49828 0
M  V30 10895 C 1063.67 -2.19221 -3.92648 0
M  V30 10896 C 1062.44 -2.83729 -4.18122 0
M  V30 10897 C 1064.64 -3.16627 -4.0528 0
M  V30 10898 N 1062.62 -4.20343 -4.4742 0
M  V30 10899 C 1063.99 -4.38322 -4.38491 0
M  V30 10900 C 1066.05 -3.12381 -3.87715 0
M  V30 10901 C 1064.75 -5.56315 -4.55967 0
M  V30 10902 C 1066.78 -4.29648 -4.06394 0
M  V30 10903 C 1066.14 -5.5011 -4.39953 0
M  V30 10904 H 1062.24 -0.238709 -0.744676 0
M  V30 10905 H 1064.82 -1.14581 -1.57414 0
M  V30 10906 H 1062.99 -0.132827 -3.88173 0
M  V30 10907 H 1064.72 -0.328276 -4.03366 0
M  V30 10908 H 1061.48 -2.34584 -4.11421 0
M  V30 10909 H 1061.9 -4.90905 -4.66199 0
M  V30 10910 H 1066.54 -2.20345 -3.60843 0
M  V30 10911 H 1064.26 -6.48853 -4.8168 0
M  V30 10912 H 1067.85 -4.27835 -3.94269 0
M  V30 10913 H 1066.73 -6.39339 -4.54109 0
M  V30 10914 N 1064.23 1.43628 -0.648757 0
M  V30 10915 C 1065.16 2.29045 0.0841858 0
M  V30 10916 C 1066.18 1.42262 0.791537 0
M  V30 10917 O 1067.37 1.66243 0.650039 0
M  V30 10918 C 1064.47 3.19075 1.14212 0
M  V30 10919 C 1063.64 4.34372 0.513799 0
M  V30 10920 C 1062.7 5.05307 1.46803 0
M  V30 10921 O 1061.72 5.60729 0.978346 0
M  V30 10922 N 1062.93 5.08393 2.80209 0
M  V30 10923 H 1065.69 2.9259 -0.648948 0
M  V30 10924 H 1063.25 1.54268 -0.491209 0
M  V30 10925 H 1065.24 3.63395 1.78119 0
M  V30 10926 H 1063.81 2.57161 1.77728 0
M  V30 10927 H 1063.03 3.93024 -0.304262 0
M  V30 10928 H 1064.32 5.08745 0.0749871 0
M  V30 10929 H 1063.72 4.64729 3.22557 0
M  V30 10930 H 1062.28 5.56445 3.3943 0
M  V30 10931 N 1065.71 0.390394 1.52688 0
M  V30 10932 C 1066.94 -0.194013 2.06491 0
M  V30 10933 C 1067.36 -1.3965 1.26014 0
M  V30 10934 O 1066.72 -1.79038 0.285468 0
M  V30 10935 C 1066.77 -0.541306 3.56514 0
M  V30 10936 O 1065.87 -1.63509 3.78601 0
M  V30 10937 H 1065.21 -0.0223608 0.663623 0
M  V30 10938 H 1067.74 0.558179 1.96839 0
M  V30 10939 H 1067.75 -0.805301 3.99974 0
M  V30 10940 H 1066.43 0.337828 4.14526 0
M  V30 10941 H 1065 -1.36473 3.4703 0
M  V30 10942 N 1067.19 -1.57141 0.120249 0
M  V30 10943 C 1068.44 -1.94852 -0.536387 0
M  V30 10944 C 1068.76 -1.00452 -1.67136 0
M  V30 10945 O 1068.03 -0.061053 -1.95805 0
M  V30 10946 H 1066.61 -0.719411 -0.201138 0
M  V30 10947 H 1069.27 -1.93977 0.189482 0
M  V30 10948 H 1068.37 -2.97917 -0.930145 0
M  V30 10949 N 1068.67 0.153526 -1.5685 0
M  V30 10950 C 1069.91 0.873522 -1.84794 0
M  V30 10951 C 1070.27 1.78642 -0.703648 0
M  V30 10952 O 1071.47 2.54537 -0.863972 0
M  V30 10953 C 1069.74 1.63316 -3.17904 0
M  V30 10954 S 1071.3 2.39948 -3.67383 0
M  V30 10955 H 1068.12 0.292233 -0.648167 0
M  V30 10956 H 1070.72 0.133949 -1.95041 0
M  V30 10957 H 1069.43 0.95387 -3.99161 0
M  V30 10958 H 1068.96 2.41377 -3.10646 0
M  V30 10959 H 1070.97 3.65011 -3.36127 0
M  V30 10960 N 1070.14 1.51827 0.422667 0
M  V30 10961 C 1071.09 1.74791 1.53463 0
M  V30 10962 C 1072.09 0.614602 1.57858 0
M  V30 10963 O 1073.29 0.796336 1.61426 0
M  V30 10964 H 1069.67 0.552524 0.510118 0
M  V30 10965 H 1071.64 2.67974 1.31273 0
M  V30 10966 C 1070.39 1.90339 2.90975 0
M  V30 10967 H 1069.71 2.76958 2.8833 0
M  V30 10968 H 1071.15 2.10413 3.68106 0
M  V30 10969 C 1069.61 0.66695 3.30232 0
M  V30 10970 O 1070.14 -0.171542 4.01334 0
M  V30 10971 N 1068.35 0.506768 2.86147 0
M  V30 10972 H 1067.89 1.19019 2.28456 0
M  V30 10973 H 1067.85 -0.319247 3.12775 0
M  V30 10974 N 1071.62 -0.679052 1.4222 0
M  V30 10975 C 1073.03 -1.25953 1.37815 0
M  V30 10976 C 1073.38 -1.96077 0.0693215 0
M  V30 10977 O 1072.51 -1.99765 -0.832047 0
M  V30 10978 C 1073.1 -2.29063 2.49631 0
M  V30 10979 C 1071.66 -2.82647 2.48571 0
M  V30 10980 C 1070.81 -1.56909 2.28637 0
M  V30 10981 H 1073.76 -0.472714 1.51496 0
M  V30 10982 H 1073.78 -3.10708 2.19638 0
M  V30 10983 H 1073.29 -1.77996 3.44876 0
M  V30 10984 H 1071.4 -3.37846 1.57132 0
M  V30 10985 H 1071.51 -3.31952 3.45463 0
M  V30 10986 H 1069.87 -1.83323 1.76819 0
M  V30 10987 H 1070.66 -1.07814 3.25931 0
M  V30 10988 N 1073.1 -1.28322 -0.914942 0
M  V30 10989 C 1074.33 -1.1837 -1.70304 0
M  V30 10990 C 1074.75 0.254291 -1.86373 0
M  V30 10991 O 1074.11 1.18398 -1.37301 0
M  V30 10992 C 1074.16 -1.88603 -3.07346 0
M  V30 10993 O 1073.26 -1.19268 -3.94777 0
M  V30 10994 H 1072.6 -0.410978 -0.52153 0
M  V30 10995 H 1075.13 -1.69622 -1.14409 0
M  V30 10996 H 1075.14 -1.96463 -3.57584 0
M  V30 10997 H 1073.82 -2.93201 -2.94967 0
M  V30 10998 H 1072.39 -1.19563 -3.53212 0
M  V30 10999 N 1074.58 1.12322 -1.10551 0
M  V30 11000 C 1075.82 1.8413 -0.849932 0
M  V30 11001 C 1076.16 1.83938 0.622946 0
M  V30 11002 O 1075.43 1.28579 1.45937 0
M  V30 11003 C 1075.72 3.31751 -1.40048 0
M  V30 11004 C 1075.57 3.40391 -2.9403 0
M  V30 11005 C 1076.89 4.27543 -1.04379 0
M  V30 11006 H 1074.01 0.668533 -0.310213 0
M  V30 11007 H 1076.65 1.31766 -1.36886 0
M  V30 11008 H 1074.8 3.76475 -0.959102 0
M  V30 11009 H 1076.47 3.04294 -3.46703 0
M  V30 11010 H 1074.71 2.809 -3.30571 0
M  V30 11011 H 1075.38 4.44252 -3.27635 0
M  V30 11012 H 1077.86 3.90951 -1.42466 0
M  V30 11013 H 1076.74 5.2924 -1.4559 0
M  V30 11014 H 1077 4.42075 0.0466316 0
M  V30 11015 N 1076.06 0.894434 1.2976 0
M  V30 11016 C 1077.3 0.517669 1.95771 0
M  V30 11017 C 1077.63 -0.935028 1.70551 0
M  V30 11018 O 1076.89 -1.67722 1.00835 0
M  V30 11019 C 1077.19 0.750307 3.49435 0
M  V30 11020 C 1076.85 2.17955 3.94723 0
M  V30 11021 C 1075.51 2.57036 4.068 0
M  V30 11022 C 1077.87 3.11053 4.18205 0
M  V30 11023 C 1075.19 3.88406 4.39724 0
M  V30 11024 C 1077.55 4.41966 4.52602 0
M  V30 11025 C 1076.21 4.80927 4.62888 0
M  V30 11026 H 1075.48 0.189428 0.716378 0
M  V30 11027 H 1078.13 1.13209 1.54454 0
M  V30 11028 H 1076.43 0.0529242 3.91764 0
M  V30 11029 H 1078.13 0.438251 3.98598 0
M  V30 11030 H 1074.72 1.86622 3.85837 0
M  V30 11031 H 1078.9 2.82076 4.08347 0
M  V30 11032 H 1074.16 4.18321 4.4589 0
M  V30 11033 H 1078.33 5.14134 4.69722 0
M  V30 11034 H 1075.96 5.82759 4.88156 0
M  V30 11035 N 1077.53 -1.43282 0.656365 0
M  V30 11036 C 1078.5 -2.29188 -0.0239173 0
M  V30 11037 C 1079.5 -1.42373 -0.747436 0
M  V30 11038 O 1080.69 -1.63969 -0.588213 0
M  V30 11039 C 1077.82 -3.24501 -1.0446 0
M  V30 11040 H 1079.01 -2.9083 0.731978 0
M  V30 11041 H 1076.57 -1.50614 0.417752 0
M  V30 11042 H 1077.3 -2.6776 -1.82962 0
M  V30 11043 H 1077.09 -3.88509 -0.52942 0
M  V30 11044 H 1078.58 -3.88971 -1.51958 0
M  V30 11045 N 1079.01 -0.398486 -1.52479 0
M  V30 11046 C 1080.29 0.238776 -1.94137 0
M  V30 11047 C 1080.67 1.63558 -1.33462 0
M  V30 11048 O 1080.02 2.22821 -0.506272 0
M  V30 11049 C 1080.23 0.255863 -3.48061 0
M  V30 11050 C 1081.58 0.480376 -4.21874 0
M  V30 11051 O 1082.6 0.335679 -3.54615 0
M  V30 11052 O 1081.46 0.764654 -5.41124 0
M  V30 11053 H 1078.55 0.150806 -0.813134 0
M  V30 11054 H 1081.1 -0.453659 -1.63524 0
M  V30 11055 H 1079.87 -0.722171 -3.84578 0
M  V30 11056 H 1079.49 0.99284 -3.85004 0
M  V30 11057 N 1080.49 1.57075 -0.12858 0
M  V30 11058 C 1081.72 1.99876 0.534544 0
M  V30 11059 C 1082.13 1.00843 1.59612 0
M  V30 11060 O 1081.49 0.00268947 1.825 0
M  V30 11061 C 1081.54 3.42654 1.15198 0
M  V30 11062 O 1081.26 4.37899 0.132823 0
M  V30 11063 C 1082.76 4.00637 1.8975 0
M  V30 11064 H 1079.98 0.656073 0.140744 0
M  V30 11065 H 1082.53 2.03337 -0.217742 0
M  V30 11066 H 1080.68 3.40101 1.85499 0
M  V30 11067 H 1081.1 5.21253 0.582682 0
M  V30 11068 H 1082.57 5.02592 2.28266 0
M  V30 11069 H 1083.05 3.40313 2.7764 0
M  V30 11070 H 1083.65 4.06764 1.2419 0
M  V30 11071 N 1081.97 -0.145205 1.5693 0
M  V30 11072 C 1083.25 -0.88631 1.74367 0
M  V30 11073 C 1083.63 -1.99259 0.697081 0
M  V30 11074 O 1082.97 -2.26732 -0.28368 0
M  V30 11075 C 1083.18 -1.42712 3.18488 0
M  V30 11076 C 1084.53 -1.88982 3.80225 0
M  V30 11077 O 1085.56 -1.5245 3.21928 0
M  V30 11078 O 1084.42 -2.56361 4.8264 0
M  V30 11079 H 1081.51 -0.418979 0.713011 0
M  V30 11080 H 1084.06 -0.130991 1.69194 0
M  V30 11081 H 1082.83 -0.632165 3.8616 0
M  V30 11082 H 1082.45 -2.24589 3.28094 0
M  V30 11083 N 1083.45 -1.52049 -0.414609 0
M  V30 11084 C 1084.7 -1.65511 -1.15977 0
M  V30 11085 C 1085.02 -0.384703 -1.91168 0
M  V30 11086 O 1084.29 0.600247 -1.86477 0
M  V30 11087 H 1082.87 -0.610039 -0.431116 0
M  V30 11088 H 1085.53 -1.8907 -0.473139 0
M  V30 11089 H 1084.62 -2.4936 -1.87686 0
M  V30 11090 N 1084.93 0.6715 -1.42579 0
M  V30 11091 C 1086.34 1.2522 -1.38481 0
M  V30 11092 C 1086.69 1.96038 -0.079719 0
M  V30 11093 O 1085.81 2.00203 0.821441 0
M  V30 11094 C 1086.41 2.27736 -2.50842 0
M  V30 11095 C 1084.97 2.81325 -2.50067 0
M  V30 11096 C 1084.11 1.55694 -2.29466 0
M  V30 11097 H 1087.06 0.464673 -1.51745 0
M  V30 11098 H 1087.09 3.09539 -2.21283 0
M  V30 11099 H 1086.6 1.76164 -3.45815 0
M  V30 11100 H 1084.7 3.37008 -1.58922 0
M  V30 11101 H 1084.81 3.30116 -3.47218 0
M  V30 11102 H 1083.18 1.82383 -1.77788 0
M  V30 11103 H 1083.96 1.06084 -3.26498 0
M  V30 11104 N 1086.4 1.28806 0.908124 0
M  V30 11105 C 1087.81 1.14719 1.47297 0
M  V30 11106 C 1088.17 -0.260763 1.94459 0
M  V30 11107 O 1087.29 -1.15553 1.82966 0
M  V30 11108 C 1087.89 2.07643 2.67712 0
M  V30 11109 C 1086.44 1.97605 3.20358 0
M  V30 11110 C 1085.59 1.99058 1.93058 0
M  V30 11111 H 1088.54 1.41413 0.720283 0
M  V30 11112 H 1088.56 1.64372 3.43165 0
M  V30 11113 H 1088.08 3.10108 2.33355 0
M  V30 11114 H 1086.18 0.981982 3.59427 0
M  V30 11115 H 1086.29 2.84846 3.85226 0
M  V30 11116 H 1084.65 1.43541 2.104 0
M  V30 11117 H 1085.44 3.03212 1.60989 0
M  V30 11118 N 1087.88 -1.11734 1.11145 0
M  V30 11119 C 1088.84 -2.15868 0.770303 0
M  V30 11120 C 1089.84 -1.59438 -0.208842 0
M  V30 11121 O 1091.03 -1.74193 0.0152516 0
M  V30 11122 C 1088.17 -3.40603 0.142303 0
M  V30 11123 H 1089.36 -2.4756 1.69276 0
M  V30 11124 H 1086.91 -1.26867 0.912929 0
M  V30 11125 H 1087.65 -3.14517 -0.790526 0
M  V30 11126 H 1087.43 -3.8284 0.847087 0
M  V30 11127 H 1088.92 -4.17523 -0.0803608 0
M  V30 11128 N 1089.36 -0.901303 -1.29284 0
M  V30 11129 C 1090.29 -0.337552 -2.26701 0
M  V30 11130 C 1091.3 0.517039 -1.54371 0
M  V30 11131 O 1092.49 0.333937 -1.75349 0
M  V30 11132 C 1089.59 0.537214 -3.34615 0
M  V30 11133 C 1088.77 -0.292017 -4.36424 0
M  V30 11134 C 1087.83 0.515837 -5.23666 0
M  V30 11135 O 1086.85 -0.0672303 -5.6916 0
M  V30 11136 N 1088.05 1.82159 -5.51179 0
M  V30 11137 H 1090.82 -1.17484 -2.75713 0
M  V30 11138 H 1088.38 -0.765957 -1.42635 0
M  V30 11139 H 1090.37 1.0841 -3.8991 0
M  V30 11140 H 1088.94 1.2752 -2.85408 0
M  V30 11141 H 1088.16 -1.02031 -3.80767 0
M  V30 11142 H 1089.45 -0.859855 -5.01482 0
M  V30 11143 H 1088.85 2.318 -5.16028 0
M  V30 11144 H 1087.4 2.31556 -6.09282 0
M  V30 11145 N 1090.84 1.42931 -0.663954 0
M  V30 11146 C 1092.08 2.01683 -0.181738 0
M  V30 11147 C 1092.41 1.52437 1.20802 0
M  V30 11148 O 1091.67 0.71254 1.82267 0
M  V30 11149 C 1091.97 3.57072 -0.153163 0
M  V30 11150 C 1091.63 4.25706 -1.48612 0
M  V30 11151 C 1090.29 4.4417 -1.85111 0
M  V30 11152 C 1092.65 4.6448 -2.36448 0
M  V30 11153 C 1089.97 4.98677 -3.09092 0
M  V30 11154 C 1092.33 5.20362 -3.5973 0
M  V30 11155 C 1090.99 5.37041 -3.96412 0
M  V30 11156 H 1090.26 0.73801 -0.0665026 0
M  V30 11157 H 1092.91 1.71264 -0.856791 0
M  V30 11158 H 1091.21 3.87095 0.605372 0
M  V30 11159 H 1092.91 4.00299 0.236981 0
M  V30 11160 H 1089.5 4.11686 -1.19215 0
M  V30 11161 H 1093.68 4.49898 -2.09537 0
M  V30 11162 H 1088.94 5.09776 -3.37547 0
M  V30 11163 H 1093.11 5.49352 -4.28001 0
M  V30 11164 H 1090.74 5.79042 -4.92559 0
M  V30 11165 N 1092.32 0.406567 1.52266 0
M  V30 11166 C 1093.54 -0.172101 2.06685 0
M  V30 11167 C 1093.97 -1.38306 1.27488 0
M  V30 11168 O 1093.32 -1.78726 0.304441 0
M  V30 11169 C 1093.37 -0.503463 3.57068 0
M  V30 11170 O 1092.48 -1.59485 3.80314 0
M  V30 11171 H 1091.82 -0.0153209 0.663823 0
M  V30 11172 H 1094.35 0.579025 1.96236 0
M  V30 11173 H 1094.36 -0.762833 4.00805 0
M  V30 11174 H 1093.03 0.381775 4.14144 0
M  V30 11175 H 1091.61 -1.32784 3.48458 0
M  V30 11176 N 1093.79 -1.57004 0.136909 0
M  V30 11177 C 1095.04 -1.96087 -0.517477 0
M  V30 11178 C 1095.37 -1.0213 -1.65176 0
M  V30 11179 O 1094.65 -0.0617958 -1.94402 0
M  V30 11180 C 1094.93 -3.44958 -1.03323 0
M  V30 11181 C 1094.78 -4.49691 0.0988609 0
M  V30 11182 C 1096.1 -3.96091 -1.91832 0
M  V30 11183 H 1093.22 -0.712978 -0.186632 0
M  V30 11184 H 1095.86 -1.88767 0.216095 0
M  V30 11185 H 1094.01 -3.51327 -1.65836 0
M  V30 11186 H 1095.69 -4.55409 0.734847 0
M  V30 11187 H 1093.93 -4.271 0.75947 0
M  V30 11188 H 1094.6 -5.51165 -0.303554 0
M  V30 11189 H 1097.08 -3.92139 -1.39164 0
M  V30 11190 H 1095.95 -5.00742 -2.24831 0
M  V30 11191 H 1096.21 -3.37846 -2.85153 0
M  V30 11192 N 1095.27 0.136881 -1.57004 0
M  V30 11193 C 1096.68 0.695911 -1.73245 0
M  V30 11194 C 1097.03 1.8118 -0.75288 0
M  V30 11195 O 1096.16 2.16258 0.0782477 0
M  V30 11196 C 1096.75 1.26914 -3.14131 0
M  V30 11197 C 1095.31 1.77463 -3.31939 0
M  V30 11198 C 1094.46 0.667128 -2.69156 0
M  V30 11199 H 1097.41 -0.0888841 -1.58451 0
M  V30 11200 H 1097.43 2.13892 -3.14691 0
M  V30 11201 H 1096.94 0.456754 -3.85403 0
M  V30 11202 H 1095.05 2.61236 -2.65681 0
M  V30 11203 H 1095.16 1.89638 -4.39971 0
M  V30 11204 H 1093.52 1.09629 -2.29899 0
M  V30 11205 H 1094.31 -0.13398 -3.43038 0
M  V30 11206 N 1096.75 1.52266 0.40654 0
M  V30 11207 C 1098 1.66452 1.15325 0
M  V30 11208 C 1098.33 0.395728 1.90432 0
M  V30 11209 O 1097.58 -0.621382 1.85573 0
M  V30 11210 C 1097.88 2.8389 2.1712 0
M  V30 11211 C 1097.55 4.22011 1.58801 0
M  V30 11212 C 1096.21 4.59579 1.42621 0
M  V30 11213 C 1098.56 5.08074 1.16236 0
M  V30 11214 C 1095.89 5.80885 0.823967 0
M  V30 11215 C 1098.24 6.29988 0.574284 0
M  V30 11216 C 1096.9 6.66303 0.399638 0
M  V30 11217 H 1096.17 0.609092 0.422005 0
M  V30 11218 H 1098.82 1.86374 0.440131 0
M  V30 11219 H 1097.13 2.58314 2.94586 0
M  V30 11220 H 1098.82 2.92063 2.74774 0
M  V30 11221 H 1095.41 3.92408 1.72378 0
M  V30 11222 H 1099.6 4.79631 1.27544 0
M  V30 11223 H 1094.85 6.07644 0.676694 0
M  V30 11224 H 1099.03 6.96 0.236081 0
M  V30 11225 H 1096.65 7.60169 -0.0691262 0
M  V30 11226 N 1098.23 -0.663929 1.42933 0
M  V30 11227 C 1099.16 -1.78876 1.41699 0
M  V30 11228 C 1100.14 -1.60174 0.27981 0
M  V30 11229 O 1101.32 -1.82502 0.471735 0
M  V30 11230 C 1098.45 -3.1603 1.2183 0
M  V30 11231 C 1097.5 -3.53457 2.38685 0
M  V30 11232 S 1098.33 -3.54648 4.01229 0
M  V30 11233 C 1099.49 -4.94477 3.83723 0
M  V30 11234 H 1099.72 -1.7965 2.36882 0
M  V30 11235 H 1097.25 -0.835596 1.29835 0
M  V30 11236 H 1099.21 -3.95193 1.11054 0
M  V30 11237 H 1097.87 -3.1283 0.282139 0
M  V30 11238 H 1097.06 -4.53178 2.20559 0
M  V30 11239 H 1096.67 -2.81681 2.46032 0
M  V30 11240 H 1098.96 -5.82851 3.45386 0
M  V30 11241 H 1099.9 -5.17652 4.83158 0
M  V30 11242 H 1100.31 -4.67507 3.16382 0
M  V30 11243 N 1099.71 -1.29285 -0.901281 0
M  V30 11244 C 1100.93 -1.20169 -1.69039 0
M  V30 11245 C 1101.36 0.234509 -1.86632 0
M  V30 11246 O 1100.71 1.16935 -1.38549 0
M  V30 11247 C 1100.76 -1.91852 -3.05328 0
M  V30 11248 O 1099.87 -1.23448 -3.9349 0
M  V30 11249 H 1099.21 -0.416486 -0.517141 0
M  V30 11250 H 1101.74 -1.70826 -1.12603 0
M  V30 11251 H 1101.75 -2.00244 -3.5548 0
M  V30 11252 H 1100.42 -2.96313 -2.91841 0
M  V30 11253 H 1099 -1.23303 -3.51924 0
M  V30 11254 N 1101.18 1.11143 -1.11736 0
M  V30 11255 C 1102.41 1.87285 -0.891007 0
M  V30 11256 C 1102.83 1.79758 0.553971 0
M  V30 11257 O 1102.19 1.16221 1.39149 0
M  V30 11258 C 1102.24 3.33924 -1.36114 0
M  V30 11259 O 1101.34 4.08917 -0.534851 0
M  V30 11260 H 1100.69 0.581418 -0.320701 0
M  V30 11261 H 1103.22 1.40469 -1.4876 0
M  V30 11262 H 1103.23 3.84772 -1.35701 0
M  V30 11263 H 1101.9 3.38719 -2.41334 0
M  V30 11264 H 1100.48 3.67954 -0.605355 0
M  V30 11265 N 1102.66 0.908147 1.28804 0
M  V30 11266 C 1103.63 0.397058 2.25735 0
M  V30 11267 C 1104.63 -0.473483 1.53671 0
M  V30 11268 O 1105.82 -0.277335 1.71978 0
M  V30 11269 C 1102.95 -0.431392 3.38159 0
M  V30 11270 H 1104.14 1.25323 2.72459 0
M  V30 11271 H 1101.69 0.687041 1.4039 0
M  V30 11272 H 1102.43 -1.3072 2.96787 0
M  V30 11273 H 1102.21 0.192502 3.91627 0
M  V30 11274 H 1103.7 -0.78 4.10251 0
M  V30 11275 N 1104.14 -1.42577 0.671525 0
M  V30 11276 C 1105.09 -2.32591 -0.0205354 0
M  V30 11277 C 1106.08 -1.4964 -0.793993 0
M  V30 11278 O 1107.29 -1.65733 -0.702327 0
M  V30 11279 H 1103.66 -0.75157 -0.0254344 0
M  V30 11280 H 1105.63 -2.88662 0.756082 0
M  V30 11281 C 1104.38 -3.34175 -0.960316 0
M  V30 11282 H 1103.71 -3.98041 -0.374577 0
M  V30 11283 H 1105.15 -3.99752 -1.4133 0
M  V30 11284 C 1103.61 -2.66184 -2.06513 0
M  V30 11285 O 1104.14 -2.49125 -3.15119 0
M  V30 11286 N 1102.34 -2.25261 -1.83591 0
M  V30 11287 H 1101.89 -2.39336 -0.952689 0
M  V30 11288 H 1101.85 -1.80101 -2.57703 0
M  V30 11289 N 1105.62 -0.414636 -1.52048 0
M  V30 11290 C 1106.58 0.396285 -2.25748 0
M  V30 11291 C 1107.58 0.969003 -1.28324 0
M  V30 11292 O 1108.77 0.847016 -1.52221 0
M  V30 11293 C 1105.9 1.55838 -3.03195 0
M  V30 11294 H 1107.1 -0.249311 -2.98862 0
M  V30 11295 H 1104.65 -0.167276 -1.55402 0
M  V30 11296 H 1105.38 2.24068 -2.34444 0
M  V30 11297 H 1105.17 1.15414 -3.74729 0
M  V30 11298 H 1106.66 2.13187 -3.59084 0
M  V30 11299 N 1107.1 1.56929 -0.145233 0
M  V30 11300 C 1108.33 2.00141 0.51257 0
M  V30 11301 C 1108.73 1.0243 1.59075 0
M  V30 11302 O 1108.08 0.0130063 1.83695 0
M  V30 11303 C 1108.14 3.39785 1.17417 0
M  V30 11304 C 1107.8 4.56365 0.240801 0
M  V30 11305 C 1108.8 5.17183 -0.530847 0
M  V30 11306 C 1106.49 5.02093 0.144221 0
M  V30 11307 C 1108.48 6.22136 -1.38654 0
M  V30 11308 C 1106.17 6.06902 -0.71508 0
M  V30 11309 C 1107.16 6.66793 -1.47907 0
M  V30 11310 O 1106.85 7.69573 -2.32405 0
M  V30 11311 H 1106.58 0.661747 0.138085 0
M  V30 11312 H 1109.14 2.04037 -0.236269 0
M  V30 11313 H 1107.37 3.32722 1.97061 0
M  V30 11314 H 1109.06 3.67115 1.73152 0
M  V30 11315 H 1109.82 4.82754 -0.466256 0
M  V30 11316 H 1105.7 4.55206 0.728613 0
M  V30 11317 H 1109.25 6.68812 -1.98333 0
M  V30 11318 H 1105.14 6.40758 -0.78097 0
M  V30 11319 H 1105.91 7.86786 -2.25634 0
M  V30 11320 N 1108.58 -0.128553 1.57075 0
M  V30 11321 C 1109.8 -0.8564 1.88893 0
M  V30 11322 C 1110.23 -1.73095 0.736196 0
M  V30 11323 O 1109.58 -1.78567 -0.313629 0
M  V30 11324 C 1109.63 -1.67368 3.19406 0
M  V30 11325 O 1108.74 -2.77973 3.04639 0
M  V30 11326 H 1108.08 -0.237424 0.620102 0
M  V30 11327 H 1110.61 -0.113821 2.04283 0
M  V30 11328 H 1110.62 -2.0649 3.51889 0
M  V30 11329 H 1109.29 -1.03161 4.02903 0
M  V30 11330 H 1107.87 -2.42123 2.83603 0
M  V30 11331 N 1110.05 -1.5248 -0.398459 0
M  V30 11332 C 1111.28 -1.70925 -1.16586 0
M  V30 11333 C 1111.7 -0.42342 -1.83991 0
M  V30 11334 O 1111.05 0.601395 -1.72306 0
M  V30 11335 C 1111.1 -2.85226 -2.22099 0
M  V30 11336 O 1110.83 -4.08831 -1.57444 0
M  V30 11337 C 1112.33 -3.15272 -3.11639 0
M  V30 11338 H 1109.55 -0.572533 -0.349924 0
M  V30 11339 H 1112.09 -1.99087 -0.467416 0
M  V30 11340 H 1110.25 -2.59553 -2.87595 0
M  V30 11341 H 1110.66 -4.72603 -2.2748 0
M  V30 11342 H 1112.13 -3.98737 -3.81724 0
M  V30 11343 H 1112.61 -2.29262 -3.74614 0
M  V30 11344 H 1113.22 -3.42749 -2.518 0
M  V30 11345 N 1111.53 0.65634 -1.43283 0
M  V30 11346 C 1112.78 1.41837 -1.44949 0
M  V30 11347 C 1113.11 1.94065 -0.0723212 0
M  V30 11348 O 1112.39 1.72092 0.906346 0
M  V30 11349 C 1112.67 2.60206 -2.48927 0
M  V30 11350 C 1112.52 2.1349 -3.95907 0
M  V30 11351 C 1113.84 3.62421 -2.49678 0
M  V30 11352 H 1110.96 0.514398 -0.527792 0
M  V30 11353 H 1113.6 0.74435 -1.74813 0
M  V30 11354 H 1111.75 3.17708 -2.23592 0
M  V30 11355 H 1113.42 1.61012 -4.32288 0
M  V30 11356 H 1111.67 1.4489 -4.08888 0
M  V30 11357 H 1112.34 2.98596 -4.64268 0
M  V30 11358 H 1114.81 3.14671 -2.72252 0
M  V30 11359 H 1113.69 4.42798 -3.24378 0
M  V30 11360 H 1113.95 4.14802 -1.52944 0
M  V30 11361 N 1113.01 1.29761 0.894412 0
M  V30 11362 C 1114.24 1.20765 1.67629 0
M  V30 11363 C 1114.65 -0.233434 1.87754 0
M  V30 11364 O 1113.99 -1.16747 1.4183 0
M  V30 11365 C 1114.05 1.85542 3.07919 0
M  V30 11366 C 1113.72 3.34852 3.11004 0
M  V30 11367 C 1114.71 4.30994 2.90758 0
M  V30 11368 C 1112.4 3.76141 3.32901 0
M  V30 11369 C 1114.39 5.664 2.92352 0
M  V30 11370 C 1112.08 5.11667 3.34126 0
M  V30 11371 C 1113.08 6.06607 3.13874 0
M  V30 11372 O 1112.77 7.39659 3.14897 0
M  V30 11373 H 1112.5 0.419418 0.530155 0
M  V30 11374 H 1115.05 1.71754 1.12648 0
M  V30 11375 H 1113.28 1.29071 3.64524 0
M  V30 11376 H 1114.97 1.70795 3.68217 0
M  V30 11377 H 1115.74 4.00427 2.73648 0
M  V30 11378 H 1111.62 3.02694 3.47703 0
M  V30 11379 H 1115.16 6.40479 2.76464 0
M  V30 11380 H 1111.06 5.41877 3.50769 0
M  V30 11381 H 1111.82 7.4853 3.31127 0
M  V30 11382 N 1114.49 -1.10549 1.12324 0
M  V30 11383 C 1115.76 -1.78968 0.789287 0
M  V30 11384 C 1116.14 -1.984 -0.721156 0
M  V30 11385 O 1115.49 -1.5761 -1.65443 0
M  V30 11386 C 1115.7 -3.12044 1.563 0
M  V30 11387 C 1117.05 -3.86939 1.74825 0
M  V30 11388 O 1118.07 -3.21761 1.52802 0
M  V30 11389 O 1116.93 -5.0392 2.11488 0
M  V30 11390 H 1114.03 -0.775617 0.286962 0
M  V30 11391 H 1116.57 -1.17209 1.2272 0
M  V30 11392 H 1115.35 -2.93313 2.59005 0
M  V30 11393 H 1114.97 -3.81521 1.11926 0
M  V30 11394 N 1115.97 -0.914965 -1.28321 0
M  V30 11395 C 1117.21 -0.547665 -1.94538 0
M  V30 11396 C 1117.53 0.911834 -1.72368 0
M  V30 11397 O 1116.8 1.64481 -1.06408 0
M  V30 11398 H 1115.38 -0.199549 -0.719853 0
M  V30 11399 H 1118.05 -1.16459 -1.5628 0
M  V30 11400 H 1117.14 -0.743138 -3.03124 0
M  V30 11401 N 1117.44 1.42219 -0.679077 0
M  V30 11402 C 1118.67 2.05516 -0.211342 0
M  V30 11403 C 1119.08 1.5113 1.13826 0
M  V30 11404 O 1118.42 0.647593 1.71907 0
M  V30 11405 C 1118.49 3.59425 -0.0736007 0
M  V30 11406 C 1118.15 4.36525 -1.3526 0
M  V30 11407 C 1119.15 4.66897 -2.28698 0
M  V30 11408 C 1116.83 4.76089 -1.60139 0
M  V30 11409 C 1118.83 5.35775 -3.45288 0
M  V30 11410 C 1116.51 5.44706 -2.77017 0
M  V30 11411 C 1117.51 5.74474 -3.69416 0
M  V30 11412 O 1117.2 6.41683 -4.8425 0
M  V30 11413 H 1116.93 0.668662 -0.0993318 0
M  V30 11414 H 1119.49 1.8327 -0.927434 0
M  V30 11415 H 1117.72 3.80346 0.69811 0
M  V30 11416 H 1119.4 4.04346 0.354813 0
M  V30 11417 H 1120.17 4.36828 -2.10729 0
M  V30 11418 H 1116.05 4.5231 -0.890887 0
M  V30 11419 H 1119.59 5.58927 -4.17428 0
M  V30 11420 H 1115.49 5.74194 -2.9491 0
M  V30 11421 H 1116.26 6.60175 -4.8385 0
M  V30 11422 N 1118.92 0.422693 1.51826 0
M  V30 11423 C 1119.88 -0.384307 2.25955 0
M  V30 11424 C 1120.88 -0.962184 1.28836 0
M  V30 11425 O 1122.07 -0.838931 1.52668 0
M  V30 11426 C 1119.21 -1.54228 3.04018 0
M  V30 11427 H 1120.4 0.265157 2.98726 0
M  V30 11428 H 1117.95 0.175515 1.55311 0
M  V30 11429 H 1118.69 -2.22822 2.35629 0
M  V30 11430 H 1118.47 -1.13425 3.75336 0
M  V30 11431 H 1119.96 -2.1128 3.60209 0
M  V30 11432 N 1120.4 -1.5685 0.153553 0
M  V30 11433 C 1121.82 -1.58306 -0.202801 0
M  V30 11434 C 1122.02 -1.16813 -1.64186 0
M  V30 11435 O 1121.07 -0.871468 -2.36985 0
M  V30 11436 C 1122.38 -3.00636 0.0619012 0
M  V30 11437 C 1123.93 -3.13 -0.00129219 0
M  V30 11438 C 1124.41 -4.57391 0.236164 0
M  V30 11439 N 1125.9 -4.62837 0.18332 0
M  V30 11440 C 1126.63 -5.72382 0.341471 0
M  V30 11441 N 1126.13 -6.90552 0.557704 0
M  V30 11442 N 1127.92 -5.61409 0.278615 0
M  V30 11443 H 1120.07 -1.82113 1.09309 0
M  V30 11444 H 1122.34 -0.843228 0.433209 0
M  V30 11445 H 1122.04 -3.35406 1.0581 0
M  V30 11446 H 1121.92 -3.71477 -0.654555 0
M  V30 11447 H 1124.3 -2.78068 -0.98805 0
M  V30 11448 H 1124.38 -2.44632 0.747596 0
M  V30 11449 H 1124.03 -4.93029 1.22005 0
M  V30 11450 H 1123.96 -5.23894 -0.533125 0
M  V30 11451 H 1126.45 -3.77894 0.0211138 0
M  V30 11452 H 1126.76 -7.69905 0.66831 0
M  V30 11453 H 1125.11 -6.92456 0.594105 0
M  V30 11454 H 1128.3 -4.6797 0.110401 0
M  V30 11455 H 1128.47 -6.46731 0.4053 0
M  V30 11456 N 1121.88 0.120221 -1.57141 0
M  V30 11457 C 1123.12 0.828222 -1.84788 0
M  V30 11458 C 1123.45 1.79936 -0.738459 0
M  V30 11459 O 1122.71 1.93824 0.270295 0
M  V30 11460 C 1123.01 1.61338 -3.18912 0
M  V30 11461 C 1122.67 0.786637 -4.43985 0
M  V30 11462 C 1121.33 0.558645 -4.77946 0
M  V30 11463 C 1123.69 0.210281 -5.20776 0
M  V30 11464 C 1121.01 -0.255975 -5.86141 0
M  V30 11465 C 1123.37 -0.591523 -6.29828 0
M  V30 11466 C 1122.03 -0.829843 -6.62322 0
M  V30 11467 H 1121.3 0.303068 -0.676188 0
M  V30 11468 H 1123.95 0.0906538 -1.91285 0
M  V30 11469 H 1122.25 2.42182 -3.07986 0
M  V30 11470 H 1123.95 2.16513 -3.37525 0
M  V30 11471 H 1120.54 0.974426 -4.17376 0
M  V30 11472 H 1124.72 0.373641 -4.94892 0
M  V30 11473 H 1119.98 -0.449849 -6.09743 0
M  V30 11474 H 1124.15 -1.04512 -6.88513 0
M  V30 11475 H 1121.78 -1.4629 -7.45992 0
M  V30 11476 N 1123.36 1.52689 0.390367 0
M  V30 11477 C 1124.29 1.72118 1.49836 0
M  V30 11478 C 1125.27 0.568986 1.5232 0
M  V30 11479 O 1126.45 0.798623 1.70746 0
M  V30 11480 C 1123.58 1.77754 2.88307 0
M  V30 11481 C 1122.62 2.99492 3.03655 0
M  V30 11482 S 1123.46 4.59496 2.74998 0
M  V30 11483 C 1124.61 4.67946 4.15665 0
M  V30 11484 H 1124.85 2.65826 1.3313 0
M  V30 11485 H 1122.38 1.42964 0.583153 0
M  V30 11486 H 1124.34 1.81687 3.68103 0
M  V30 11487 H 1123 0.851406 3.02341 0
M  V30 11488 H 1122.19 2.99973 4.05009 0
M  V30 11489 H 1121.79 2.93544 2.3175 0
M  V30 11490 H 1124.09 4.46476 5.09573 0
M  V30 11491 H 1125.03 5.69945 4.202 0
M  V30 11492 H 1125.44 3.96799 4.01511 0
M  V30 11493 N 1124.83 -0.648732 1.43629 0
M  V30 11494 C 1126.11 -1.4062 1.35961 0
M  V30 11495 C 1126.49 -2.11098 0.00961023 0
M  V30 11496 O 1125.84 -2.05107 -1.00714 0
M  V30 11497 C 1126.05 -2.38719 2.54586 0
M  V30 11498 C 1127.4 -3.02584 2.97873 0
M  V30 11499 O 1128.42 -2.49046 2.54665 0
M  V30 11500 O 1127.28 -3.99662 3.72736 0
M  V30 11501 H 1124.37 -0.628483 0.53753 0
M  V30 11502 H 1126.92 -0.675263 1.55687 0
M  V30 11503 H 1125.69 -1.85619 3.44472 0
M  V30 11504 H 1125.32 -3.19257 2.36983 0
M  V30 11505 N 1126.31 -1.30234 -0.887518 0
M  V30 11506 C 1127.54 -1.21829 -1.67229 0
M  V30 11507 C 1127.96 0.219251 -1.87523 0
M  V30 11508 O 1127.31 1.14526 -1.42091 0
M  V30 11509 C 1127.36 -1.94044 -3.05007 0
M  V30 11510 O 1127.08 -3.32185 -2.85631 0
M  V30 11511 C 1128.59 -1.92265 -3.99436 0
M  V30 11512 H 1125.81 -0.421716 -0.521916 0
M  V30 11513 H 1128.35 -1.71816 -1.10903 0
M  V30 11514 H 1126.5 -1.47861 -3.58072 0
M  V30 11515 H 1126.92 -3.68724 -3.73018 0
M  V30 11516 H 1128.39 -2.47336 -4.93486 0
M  V30 11517 H 1128.87 -0.900984 -4.29859 0
M  V30 11518 H 1129.48 -2.38247 -3.52305 0
M  V30 11519 N 1127.79 1.09952 -1.12909 0
M  V30 11520 C 1129.07 1.78547 -0.798767 0
M  V30 11521 C 1129.45 1.9878 0.710624 0
M  V30 11522 O 1128.8 1.58485 1.64604 0
M  V30 11523 C 1129.01 3.1121 -1.57953 0
M  V30 11524 C 1130.35 3.86006 -1.76874 0
M  V30 11525 O 1131.38 3.20946 -1.54506 0
M  V30 11526 O 1130.24 5.02791 -2.14158 0
M  V30 11527 H 1127.33 0.774084 -0.291072 0
M  V30 11528 H 1129.88 1.16557 -1.2334 0
M  V30 11529 H 1128.65 2.91935 -2.60557 0
M  V30 11530 H 1128.27 3.80922 -1.13948 0
M  V30 11531 N 1129.27 0.921757 1.27833 0
M  V30 11532 C 1130.68 0.604496 1.76643 0
M  V30 11533 C 1131.03 -0.880294 1.75343 0
M  V30 11534 O 1130.16 -1.68875 1.35315 0
M  V30 11535 C 1130.75 1.09055 3.20768 0
M  V30 11536 C 1129.31 0.824066 3.67268 0
M  V30 11537 C 1128.46 1.25269 2.47392 0
M  V30 11538 H 1131.41 1.10217 1.14184 0
M  V30 11539 H 1131.43 0.435558 3.77999 0
M  V30 11540 H 1130.94 2.17122 3.21682 0
M  V30 11541 H 1129.04 -0.243055 3.71806 0
M  V30 11542 H 1129.15 1.43743 4.57028 0
M  V30 11543 H 1127.52 0.671313 2.45694 0
M  V30 11544 H 1128.3 2.34188 2.5102 0
M  V30 11545 N 1130.75 -1.41857 0.686609 0
M  V30 11546 C 1132.02 -1.95082 0.142228 0
M  V30 11547 C 1132.4 -1.62646 -1.34572 0
M  V30 11548 O 1131.75 -0.928757 -2.08773 0
M  V30 11549 C 1131.96 -3.46415 0.423955 0
M  V30 11550 C 1133.31 -4.23181 0.346842 0
M  V30 11551 O 1134.33 -3.54393 0.358363 0
M  V30 11552 O 1133.19 -5.4568 0.299211 0
M  V30 11553 H 1130.29 -0.826943 0.00974 0
M  V30 11554 H 1132.83 -1.51622 0.762153 0
M  V30 11555 H 1131.6 -3.63273 1.45424 0
M  V30 11556 H 1131.23 -3.96949 -0.227391 0
M  V30 11557 N 1132.22 -0.430739 -1.51599 0
M  V30 11558 C 1133.64 -0.0826902 -1.59386 0
M  V30 11559 C 1133.84 1.40729 -1.44214 0
M  V30 11560 O 1132.9 2.1765 -1.28002 0
M  V30 11561 C 1134.21 -0.59691 -2.94716 0
M  V30 11562 C 1135.76 -0.556772 -3.08008 0
M  V30 11563 C 1136.23 -1.04786 -4.45852 0
M  V30 11564 N 1137.72 -1.00557 -4.52153 0
M  V30 11565 C 1138.46 -1.35649 -5.57124 0
M  V30 11566 N 1137.95 -1.77994 -6.69545 0
M  V30 11567 N 1139.75 -1.27508 -5.47447 0
M  V30 11568 H 1131.9 -1.40027 -1.59707 0
M  V30 11569 H 1134.16 -0.576606 -0.752482 0
M  V30 11570 H 1133.87 -1.63914 -3.11167 0
M  V30 11571 H 1133.74 -0.0182342 -3.77196 0
M  V30 11572 H 1136.13 0.476457 -2.91228 0
M  V30 11573 H 1136.21 -1.17177 -2.27383 0
M  V30 11574 H 1135.85 -2.07952 -4.63377 0
M  V30 11575 H 1135.78 -0.409461 -5.25006 0
M  V30 11576 H 1138.27 -0.694518 -3.71463 0
M  V30 11577 H 1138.59 -2.03026 -7.45654 0
M  V30 11578 H 1136.93 -1.81916 -6.70769 0
M  V30 11579 H 1140.12 -0.942969 -4.58504 0
M  V30 11580 H 1140.3 -1.55185 -6.29143 0
M  V30 11581 N 1133.7 1.56767 -0.161869 0
M  V30 11582 C 1134.93 2.00673 0.491314 0
M  V30 11583 C 1135.34 1.04111 1.5798 0
M  V30 11584 O 1134.68 0.0324889 1.83671 0
M  V30 11585 C 1134.75 3.41011 1.13806 0
M  V30 11586 C 1134.41 4.56595 0.192384 0
M  V30 11587 C 1135.41 5.16591 -0.585671 0
M  V30 11588 C 1133.09 5.02218 0.0909594 0
M  V30 11589 C 1135.09 6.20631 -1.45245 0
M  V30 11590 C 1132.77 6.06109 -0.77941 0
M  V30 11591 C 1133.77 6.65187 -1.54971 0
M  V30 11592 O 1133.46 7.67065 -2.40555 0
M  V30 11593 H 1133.19 0.663174 0.131059 0
M  V30 11594 H 1135.74 2.03775 -0.257896 0
M  V30 11595 H 1133.97 3.34793 1.93521 0
M  V30 11596 H 1135.66 3.68931 1.69248 0
M  V30 11597 H 1136.43 4.82232 -0.517432 0
M  V30 11598 H 1132.31 4.55953 0.680292 0
M  V30 11599 H 1135.85 6.66671 -2.05415 0
M  V30 11600 H 1131.75 6.39894 -0.848887 0
M  V30 11601 H 1132.52 7.84348 -2.33966 0
M  V30 11602 N 1135.18 -0.111886 1.57202 0
M  V30 11603 C 1136.43 -0.816794 1.84859 0
M  V30 11604 C 1136.75 -1.80079 0.748113 0
M  V30 11605 O 1136.02 -1.94578 -0.227235 0
M  V30 11606 H 1134.6 -0.304633 0.682061 0
M  V30 11607 H 1137.26 -0.097513 1.94656 0
M  V30 11608 H 1136.36 -1.35768 2.81022 0
M  V30 11609 N 1136.66 -1.52894 -0.382264 0
M  V30 11610 C 1137.91 -1.67489 -1.12385 0
M  V30 11611 C 1138.22 -0.424565 -1.90937 0
M  V30 11612 O 1139.43 -0.450763 -2.67732 0
M  V30 11613 C 1137.88 -2.96019 -2.04697 0
M  V30 11614 C 1137.49 -4.28255 -1.31535 0
M  V30 11615 C 1139.23 -3.19981 -2.78949 0
M  V30 11616 C 1137.14 -5.47887 -2.22652 0
M  V30 11617 H 1136.07 -0.624002 -0.423246 0
M  V30 11618 H 1138.72 -1.79392 -0.386107 0
M  V30 11619 H 1137.1 -2.77878 -2.82134 0
M  V30 11620 H 1138.28 -4.56971 -0.592771 0
M  V30 11621 H 1136.59 -4.10607 -0.692148 0
M  V30 11622 H 1139.19 -4.06541 -3.47316 0
M  V30 11623 H 1139.53 -2.35335 -3.43399 0
M  V30 11624 H 1140.07 -3.38718 -2.08602 0
M  V30 11625 H 1136.81 -6.3496 -1.62806 0
M  V30 11626 H 1136.33 -5.23473 -2.92807 0
M  V30 11627 H 1138 -5.82026 -2.82586 0
M  V30 11628 N 1138.14 0.641106 -1.43971 0
M  V30 11629 C 1139.07 1.76489 -1.52885 0
M  V30 11630 C 1140.05 1.65742 -0.38258 0
M  V30 11631 O 1141.23 1.84653 -0.601397 0
M  V30 11632 C 1138.36 3.14977 -1.4631 0
M  V30 11633 C 1137.32 3.40502 -2.59311 0
M  V30 11634 C 1136.64 4.78916 -2.37789 0
M  V30 11635 C 1137.94 3.34048 -4.01509 0
M  V30 11636 H 1139.64 1.69286 -2.46946 0
M  V30 11637 H 1137.18 0.813015 -1.18853 0
M  V30 11638 H 1139.14 3.9336 -1.51149 0
M  V30 11639 H 1137.86 3.2294 -0.487599 0
M  V30 11640 H 1136.52 2.64495 -2.53846 0
M  V30 11641 H 1136.17 4.8357 -1.38454 0
M  V30 11642 H 1135.87 4.96954 -3.13545 0
M  V30 11643 H 1137.39 5.59541 -2.4443 0
M  V30 11644 H 1138.81 4.0235 -4.08396 0
M  V30 11645 H 1137.2 3.63622 -4.77388 0
M  V30 11646 H 1138.27 2.32022 -4.25786 0
M  V30 11647 N 1139.62 1.30703 0.880598 0
M  V30 11648 C 1141.03 1.17818 1.4483 0
M  V30 11649 C 1141.38 -0.219456 1.94969 0
M  V30 11650 O 1140.5 -1.11646 1.85375 0
M  V30 11651 C 1141.1 2.13275 2.63247 0
M  V30 11652 C 1139.66 2.04356 3.16094 0
M  V30 11653 C 1138.8 2.03108 1.88792 0
M  V30 11654 H 1141.75 1.42909 0.690125 0
M  V30 11655 H 1141.78 1.71615 3.39601 0
M  V30 11656 H 1141.29 3.14988 2.26725 0
M  V30 11657 H 1139.39 1.058 3.57263 0
M  V30 11658 H 1139.5 2.92953 3.79098 0
M  V30 11659 H 1137.87 1.47971 2.07308 0
M  V30 11660 H 1138.65 3.06558 1.54521 0
M  V30 11661 N 1141.09 -1.09351 1.1349 0
M  V30 11662 C 1142.32 -1.85844 0.92069 0
M  V30 11663 C 1142.74 -1.80616 -0.525303 0
M  V30 11664 O 1142.1 -1.1842 -1.37282 0
M  V30 11665 C 1142.15 -3.31716 1.4141 0
M  V30 11666 O 1141.25 -4.08014 0.599838 0
M  V30 11667 H 1140.59 -0.576242 0.32991 0
M  V30 11668 H 1143.12 -1.38084 1.50976 0
M  V30 11669 H 1143.13 -3.82564 1.41805 0
M  V30 11670 H 1141.81 -3.34837 2.46692 0
M  V30 11671 H 1140.39 -3.66944 0.663816 0
M  V30 11672 N 1142.57 -0.928524 -1.27343 0
M  V30 11673 C 1143.52 -0.418768 -2.28799 0
M  V30 11674 C 1144.51 0.497334 -1.61935 0
M  V30 11675 O 1145.72 0.376945 -1.76009 0
M  V30 11676 H 1142.09 -0.116855 -0.742865 0
M  V30 11677 H 1144.07 -1.28725 -2.69207 0
M  V30 11678 C 1142.81 0.312422 -3.46294 0
M  V30 11679 H 1142.14 -0.383317 -3.97958 0
M  V30 11680 H 1143.58 0.633514 -4.19241 0
M  V30 11681 C 1142.04 1.5257 -3.00373 0
M  V30 11682 O 1142.57 2.62443 -3.04116 0
M  V30 11683 N 1140.77 1.37782 -2.5586 0
M  V30 11684 H 1140.32 0.483908 -2.53014 0
M  V30 11685 H 1140.28 2.19085 -2.25498 0
M  V30 11686 N 1144.05 1.41491 -0.694123 0
M  V30 11687 C 1145.3 2.01252 -0.224477 0
M  V30 11688 C 1145.62 1.54965 1.17541 0
M  V30 11689 O 1144.88 0.751041 1.80715 0
M  V30 11690 C 1145.18 3.56666 -0.228869 0
M  V30 11691 C 1144.84 4.22458 -1.57608 0
M  V30 11692 C 1143.51 4.40144 -1.94491 0
M  V30 11693 C 1145.86 4.5936 -2.46247 0
M  V30 11694 C 1143.19 4.92009 -3.196 0
M  V30 11695 C 1145.54 5.12615 -3.70687 0
M  V30 11696 C 1144.2 5.28512 -4.07715 0
M  V30 11697 H 1143.47 0.736433 -0.0821419 0
M  V30 11698 H 1146.12 1.69408 -0.892926 0
M  V30 11699 H 1144.42 3.88292 0.523128 0
M  V30 11700 H 1146.12 4.00712 0.152019 0
M  V30 11701 H 1142.71 4.09065 -1.27921 0
M  V30 11702 H 1146.9 4.45352 -2.19032 0
M  V30 11703 H 1142.15 5.02502 -3.48285 0
M  V30 11704 H 1146.33 5.4015 -4.39558 0
M  V30 11705 H 1143.95 5.68464 -5.0473 0
M  V30 11706 N 1145.53 0.438773 1.51369 0
M  V30 11707 C 1146.46 -0.362467 2.3067 0
M  V30 11708 C 1147.44 -1.01973 1.36145 0
M  V30 11709 O 1148.62 -1.0231 1.65065 0
M  V30 11710 C 1145.75 -1.46313 3.14976 0
M  V30 11711 C 1144.71 -0.929272 4.1779 0
M  V30 11712 C 1144.03 -2.12579 4.90627 0
M  V30 11713 C 1145.33 0.0372782 5.22287 0
M  V30 11714 H 1147.03 0.29931 2.979 0
M  V30 11715 H 1144.57 0.14539 1.43264 0
M  V30 11716 H 1146.53 -2.03088 3.69233 0
M  V30 11717 H 1145.25 -2.15321 2.45569 0
M  V30 11718 H 1143.91 -0.383722 3.64586 0
M  V30 11719 H 1143.56 -2.8021 4.17722 0
M  V30 11720 H 1143.26 -1.77496 5.60151 0
M  V30 11721 H 1144.78 -2.69905 5.47708 0
M  V30 11722 H 1146.2 -0.44022 5.71607 0
M  V30 11723 H 1144.59 0.300748 5.99346 0
M  V30 11724 H 1145.66 0.973503 4.75027 0
M  V30 11725 N 1147.01 -1.56678 0.170181 0
M  V30 11726 C 1148.25 -1.9646 -0.474125 0
M  V30 11727 C 1148.57 -1.05719 -1.63855 0
M  V30 11728 O 1147.84 -0.123316 -1.95511 0
M  V30 11729 H 1146.42 -0.725446 -0.178149 0
M  V30 11730 H 1149.09 -1.93276 0.251099 0
M  V30 11731 H 1148.18 -3.00726 -0.834894 0
M  V30 11732 N 1148.48 0.103547 -1.57259 0
M  V30 11733 C 1149.73 0.808576 -1.85656 0
M  V30 11734 C 1150.06 1.79143 -0.757502 0
M  V30 11735 O 1149.31 1.941 0.249723 0
M  V30 11736 C 1149.61 1.57946 -3.20605 0
M  V30 11737 C 1149.28 0.739502 -4.44795 0
M  V30 11738 C 1147.94 0.507921 -4.78512 0
M  V30 11739 C 1150.29 0.155034 -5.20969 0
M  V30 11740 C 1147.62 -0.318129 -5.85837 0
M  V30 11741 C 1149.97 -0.658292 -6.29166 0
M  V30 11742 C 1148.64 -0.900044 -6.61404 0
M  V30 11743 H 1147.91 0.295879 -0.679365 0
M  V30 11744 H 1150.55 0.0703604 -1.91371 0
M  V30 11745 H 1148.86 2.38902 -3.10537 0
M  V30 11746 H 1150.56 2.12921 -3.39803 0
M  V30 11747 H 1147.15 0.930103 -4.18386 0
M  V30 11748 H 1151.33 0.32113 -4.9526 0
M  V30 11749 H 1146.59 -0.514495 -6.09231 0
M  V30 11750 H 1150.76 -1.11809 -6.87366 0
M  V30 11751 H 1148.39 -1.54194 -7.44398 0
M  V30 11752 N 1149.96 1.53094 0.37415 0
M  V30 11753 C 1150.89 1.73697 1.48002 0
M  V30 11754 C 1151.87 0.585109 1.51708 0
M  V30 11755 O 1153.06 0.816688 1.6989 0
M  V30 11756 C 1150.18 1.80802 2.86406 0
M  V30 11757 C 1149.23 3.02696 3.00462 0
M  V30 11758 S 1150.06 4.62386 2.70109 0
M  V30 11759 C 1151.22 4.72328 4.10679 0
M  V30 11760 H 1151.45 2.67223 1.30303 0
M  V30 11761 H 1148.98 1.43574 0.567957 0
M  V30 11762 H 1150.94 1.85581 3.66155 0
M  V30 11763 H 1149.6 0.883425 3.01421 0
M  V30 11764 H 1148.8 3.04252 4.01804 0
M  V30 11765 H 1148.4 2.95985 2.28624 0
M  V30 11766 H 1150.69 4.51856 5.04809 0
M  V30 11767 H 1151.63 5.7437 4.14131 0
M  V30 11768 H 1152.04 4.01035 3.9728 0
M  V30 11769 N 1151.44 -0.633461 1.44309 0
M  V30 11770 C 1152.67 -1.41827 1.50229 0
M  V30 11771 C 1153.08 -1.88786 0.125082 0
M  V30 11772 O 1152.42 -1.61314 -0.878836 0
M  V30 11773 C 1152.48 -2.67372 2.40317 0
M  V30 11774 C 1152.15 -2.42224 3.87526 0
M  V30 11775 C 1153.14 -2.04199 4.7812 0
M  V30 11776 C 1150.83 -2.55936 4.32206 0
M  V30 11777 C 1152.82 -1.80211 6.11394 0
M  V30 11778 C 1150.51 -2.31563 5.65528 0
M  V30 11779 C 1151.51 -1.93758 6.5494 0
M  V30 11780 O 1151.2 -1.69654 7.85794 0
M  V30 11781 H 1150.93 -0.441478 0.51193 0
M  V30 11782 H 1153.48 -0.782118 1.89927 0
M  V30 11783 H 1151.71 -3.33616 1.95543 0
M  V30 11784 H 1153.4 -3.2937 2.37214 0
M  V30 11785 H 1154.17 -1.93164 4.44874 0
M  V30 11786 H 1150.05 -2.84333 3.62872 0
M  V30 11787 H 1153.59 -1.50628 6.81144 0
M  V30 11788 H 1149.49 -2.42206 5.98336 0
M  V30 11789 H 1150.25 -1.83919 7.97569 0
M  V30 11790 N 1152.92 -1.31168 -0.873655 0
M  V30 11791 C 1154.17 -1.20642 -1.6264 0
M  V30 11792 C 1154.49 0.236286 -1.93059 0
M  V30 11793 O 1153.75 1.18401 -1.55819 0
M  V30 11794 C 1154.05 -1.99204 -2.96736 0
M  V30 11795 C 1153.71 -3.48734 -2.85824 0
M  V30 11796 C 1152.38 -3.89507 -2.82555 0
M  V30 11797 C 1154.73 -4.43905 -2.73127 0
M  V30 11798 C 1152.06 -5.23724 -2.64442 0
M  V30 11799 C 1154.41 -5.78242 -2.56551 0
M  V30 11800 C 1153.07 -6.18241 -2.51663 0
M  V30 11801 H 1152.34 -0.44146 -0.595142 0
M  V30 11802 H 1154.99 -1.62394 -1.01492 0
M  V30 11803 H 1153.29 -1.50122 -3.61899 0
M  V30 11804 H 1154.99 -1.88443 -3.53963 0
M  V30 11805 H 1151.58 -3.1634 -2.89184 0
M  V30 11806 H 1155.76 -4.13338 -2.7471 0
M  V30 11807 H 1151.02 -5.53794 -2.59081 0
M  V30 11808 H 1155.19 -6.51616 -2.45702 0
M  V30 11809 H 1152.82 -7.22185 -2.37387 0
M  V30 11810 N 1154.4 1.08748 -1.14068 0
M  V30 11811 C 1155.81 1.33125 -0.880341 0
M  V30 11812 C 1156.01 1.9569 0.480396 0
M  V30 11813 O 1155.07 2.2077 1.22543 0
M  V30 11814 C 1156.38 2.23618 -2.01036 0
M  V30 11815 C 1157.93 2.37108 -2.04326 0
M  V30 11816 C 1158.4 3.30941 -3.1661 0
M  V30 11817 N 1159.9 3.38517 -3.16166 0
M  V30 11818 C 1160.63 4.11142 -3.99687 0
M  V30 11819 N 1160.13 4.86505 -4.93239 0
M  V30 11820 N 1161.92 4.06938 -3.87761 0
M  V30 11821 H 1154.07 0.665164 -2.01716 0
M  V30 11822 H 1156.33 0.355612 -0.878774 0
M  V30 11823 H 1156.04 1.84885 -2.99183 0
M  V30 11824 H 1155.91 3.24056 -1.93049 0
M  V30 11825 H 1158.3 2.75101 -1.06787 0
M  V30 11826 H 1158.38 1.36424 -2.16384 0
M  V30 11827 H 1158.03 2.93669 -4.14392 0
M  V30 11828 H 1157.96 4.31545 -3.01789 0
M  V30 11829 H 1160.45 2.84786 -2.48405 0
M  V30 11830 H 1160.76 5.39372 -5.53441 0
M  V30 11831 H 1159.1 4.8557 -4.9724 0
M  V30 11832 H 1162.3 3.47166 -3.13996 0
M  V30 11833 H 1162.47 4.63275 -4.53079 0
M  V30 11834 N 1155.87 0.935264 1.26849 0
M  V30 11835 C 1157.1 0.596249 1.98122 0
M  V30 11836 C 1157.52 -0.827452 1.69702 0
M  V30 11837 O 1156.87 -1.55095 0.961864 0
M  V30 11838 C 1156.93 0.821773 3.52036 0
M  V30 11839 O 1156.65 2.18947 3.79465 0
M  V30 11840 C 1158.15 0.492498 4.40556 0
M  V30 11841 H 1155.37 0.225242 0.632066 0
M  V30 11842 H 1157.91 1.25435 1.61512 0
M  V30 11843 H 1156.07 0.210363 3.86828 0
M  V30 11844 H 1156.48 2.24509 4.74021 0
M  V30 11845 H 1157.95 0.700953 5.47531 0
M  V30 11846 H 1158.43 -0.57228 4.35456 0
M  V30 11847 H 1159.04 1.08238 4.11296 0
M  V30 11848 N 1157.35 -1.41121 0.701616 0
M  V30 11849 C 1158.28 -2.33436 0.0545974 0
M  V30 11850 C 1159.26 -1.52144 -0.760662 0
M  V30 11851 O 1160.45 -1.80661 -0.712414 0
M  V30 11852 C 1157.58 -3.36015 -0.878117 0
M  V30 11853 C 1156.53 -4.27664 -0.169511 0
M  V30 11854 C 1155.86 -5.20666 -1.21699 0
M  V30 11855 C 1157.16 -5.13254 0.967859 0
M  V30 11856 H 1158.85 -2.87791 0.825637 0
M  V30 11857 H 1156.4 -1.38377 0.398484 0
M  V30 11858 H 1158.35 -3.99526 -1.34004 0
M  V30 11859 H 1157.08 -2.80024 -1.68089 0
M  V30 11860 H 1155.73 -3.65586 0.272441 0
M  V30 11861 H 1155.38 -4.60987 -2.01246 0
M  V30 11862 H 1155.08 -5.82822 -0.747836 0
M  V30 11863 H 1156.61 -5.87053 -1.6793 0
M  V30 11864 H 1158.02 -5.70298 0.585944 0
M  V30 11865 H 1156.42 -5.84381 1.3645 0
M  V30 11866 H 1157.49 -4.5006 1.80483 0
M  V30 11867 N 1158.83 -0.446794 -1.51134 0
M  V30 11868 C 1159.74 0.36579 -2.31731 0
M  V30 11869 C 1160.76 1.01886 -1.41051 0
M  V30 11870 O 1161.93 1.01216 -1.74119 0
M  V30 11871 C 1159 1.44705 -3.15058 0
M  V30 11872 C 1158.06 0.813129 -4.21529 0
M  V30 11873 C 1157.29 1.84287 -5.00873 0
M  V30 11874 O 1157.51 3.06633 -4.8097 0
M  V30 11875 O 1156.45 1.42816 -5.84711 0
M  V30 11876 H 1160.27 -0.292436 -3.02289 0
M  V30 11877 H 1157.86 -0.209129 -1.47929 0
M  V30 11878 H 1159.74 2.07393 -3.66833 0
M  V30 11879 H 1158.42 2.08919 -2.47254 0
M  V30 11880 H 1157.32 0.147953 -3.73807 0
M  V30 11881 H 1158.66 0.214331 -4.91733 0
M  V30 11882 N 1160.31 1.56586 -0.178487 0
M  V30 11883 C 1161.59 1.88798 0.511356 0
M  V30 11884 C 1161.97 1.08949 1.80813 0
M  V30 11885 O 1161.31 0.185551 2.27745 0
M  V30 11886 C 1161.52 3.40927 0.746298 0
M  V30 11887 C 1162.87 4.10816 1.0731 0
M  V30 11888 O 1163.9 3.46285 0.834592 0
M  V30 11889 O 1162.75 5.24837 1.52343 0
M  V30 11890 H 1159.85 0.783574 0.264463 0
M  V30 11891 H 1162.39 1.68301 -0.21746 0
M  V30 11892 H 1161.17 3.9093 -0.17015 0
M  V30 11893 H 1160.79 3.67059 1.52817 0
M  V30 11894 N 1161.79 -0.095206 1.57312 0
M  V30 11895 C 1162.75 -1.09974 2.01093 0
M  V30 11896 C 1163.75 -1.32954 0.904424 0
M  V30 11897 O 1164.94 -1.29069 1.16991 0
M  V30 11898 C 1162.07 -2.4489 2.37153 0
M  V30 11899 H 1163.26 -0.722906 2.91057 0
M  V30 11900 H 1160.82 -0.340249 1.52552 0
M  V30 11901 H 1161.55 -2.8745 1.50143 0
M  V30 11902 H 1161.34 -2.29559 3.17876 0
M  V30 11903 H 1162.83 -3.17141 2.71683 0
M  V30 11904 N 1163.26 -1.53291 -0.366026 0
M  V30 11905 C 1164.23 -1.79025 -1.43117 0
M  V30 11906 C 1165.23 -0.660676 -1.46601 0
M  V30 11907 O 1166.42 -0.928875 -1.47369 0
M  V30 11908 C 1163.55 -1.91192 -2.82238 0
M  V30 11909 H 1164.74 -2.74154 -1.21572 0
M  V30 11910 H 1162.3 -1.44361 -0.599132 0
M  V30 11911 H 1163.03 -0.98129 -3.09097 0
M  V30 11912 H 1162.82 -2.7335 -2.81109 0
M  V30 11913 H 1164.31 -2.12696 -3.59375 0
M  V30 11914 N 1164.74 0.6258 -1.44643 0
M  V30 11915 C 1165.69 1.73135 -1.48352 0
M  V30 11916 C 1166.68 1.57076 -0.348716 0
M  V30 11917 O 1167.87 1.66722 -0.594379 0
M  V30 11918 C 1165 3.11838 -1.43568 0
M  V30 11919 C 1164.08 3.33348 -2.62183 0
M  V30 11920 N 1164.47 3.252 -3.87399 0
M  V30 11921 C 1162.77 3.64162 -2.57492 0
M  V30 11922 C 1163.47 3.47544 -4.66463 0
M  V30 11923 N 1162.45 3.70672 -3.97622 0
M  V30 11924 H 1166.25 1.65301 -2.43008 0
M  V30 11925 H 1163.77 0.828449 -1.3968 0
M  V30 11926 H 1165.76 3.91127 -1.44309 0
M  V30 11927 H 1164.42 3.20834 -0.499547 0
M  V30 11928 H 1165.43 3.04001 -4.19289 0
M  V30 11929 H 1162.11 3.80107 -1.727 0
M  V30 11930 H 1163.5 3.46792 -5.75487 0
M  V30 11931 N 1166.22 1.31629 0.866686 0
M  V30 11932 C 1167.15 1.15377 1.98042 0
M  V30 11933 C 1168.17 0.0919633 1.6254 0
M  V30 11934 O 1169.35 0.339775 1.75236 0
M  V30 11935 C 1166.45 0.741295 3.30693 0
M  V30 11936 C 1165.63 1.88882 3.94516 0
M  V30 11937 C 1164.69 1.46186 5.05486 0
M  V30 11938 O 1163.71 2.17202 5.26129 0
M  V30 11939 N 1164.91 0.351096 5.79437 0
M  V30 11940 H 1167.68 2.11309 2.12529 0
M  V30 11941 H 1165.24 1.24007 1.04085 0
M  V30 11942 H 1167.23 0.438313 4.02319 0
M  V30 11943 H 1165.8 -0.12651 3.12344 0
M  V30 11944 H 1165.02 2.35894 3.15828 0
M  V30 11945 H 1166.31 2.65734 4.33892 0
M  V30 11946 H 1165.71 -0.240245 5.6519 0
M  V30 11947 H 1164.27 0.107663 6.51711 0
M  V30 11948 N 1167.7 -1.08142 1.14644 0
M  V30 11949 C 1168.95 -1.80849 0.917685 0
M  V30 11950 C 1169.28 -1.86123 -0.554249 0
M  V30 11951 O 1168.55 -1.33907 -1.41065 0
M  V30 11952 C 1168.84 -3.26325 1.52264 0
M  V30 11953 C 1168.69 -3.29244 3.06461 0
M  V30 11954 C 1170.01 -4.23375 1.20175 0
M  V30 11955 H 1167.13 -0.656559 0.334812 0
M  V30 11956 H 1169.77 -1.26595 1.41682 0
M  V30 11957 H 1167.92 -3.72656 1.09817 0
M  V30 11958 H 1169.59 -2.91216 3.57758 0
M  V30 11959 H 1167.83 -2.68438 3.40769 0
M  V30 11960 H 1168.51 -4.31785 3.43897 0
M  V30 11961 H 1170.98 -3.85394 1.56877 0
M  V30 11962 H 1169.86 -5.23472 1.65132 0
M  V30 11963 H 1170.12 -4.41944 0.117474 0
M  V30 11964 N 1169.18 -0.941978 -1.26351 0
M  V30 11965 C 1170.59 -0.644413 -1.46012 0
M  V30 11966 C 1170.79 0.802031 -1.84851 0
M  V30 11967 O 1169.85 1.57859 -1.9707 0
M  V30 11968 C 1171.16 -1.60652 -2.54188 0
M  V30 11969 C 1172.71 -1.6163 -2.68038 0
M  V30 11970 C 1173.19 -2.56573 -3.79387 0
M  V30 11971 N 1174.68 -2.54863 -3.8678 0
M  V30 11972 C 1175.41 -3.2501 -4.72394 0
M  V30 11973 N 1174.91 -4.04586 -5.6239 0
M  V30 11974 N 1176.7 -3.13958 -4.66247 0
M  V30 11975 H 1168.85 -1.8769 -0.994293 0
M  V30 11976 H 1171.11 -0.806621 -0.498063 0
M  V30 11977 H 1170.82 -2.63907 -2.32478 0
M  V30 11978 H 1170.69 -1.3592 -3.5186 0
M  V30 11979 H 1173.08 -0.59099 -2.89122 0
M  V30 11980 H 1173.16 -1.90417 -1.70807 0
M  V30 11981 H 1172.81 -3.59223 -3.59056 0
M  V30 11982 H 1172.74 -2.25077 -4.76076 0
M  V30 11983 H 1175.23 -1.97082 -3.22439 0
M  V30 11984 H 1175.54 -4.55061 -6.24612 0
M  V30 11985 H 1173.89 -4.08687 -5.62139 0
M  V30 11986 H 1177.08 -2.51273 -3.94943 0
M  V30 11987 H 1177.25 -3.68894 -5.32749 0
M  V30 11988 N 1170.66 1.40747 -0.709091 0
M  V30 11989 C 1171.9 2.01003 -0.24581 0
M  V30 11990 C 1172.23 1.56203 1.15891 0
M  V30 11991 O 1171.49 0.770166 1.79908 0
M  V30 11992 C 1171.78 3.56404 -0.266685 0
M  V30 11993 C 1171.45 4.20762 -1.6208 0
M  V30 11994 C 1170.11 4.38056 -1.99148 0
M  V30 11995 C 1172.46 4.56723 -2.51105 0
M  V30 11996 C 1169.79 4.88591 -3.248 0
M  V30 11997 C 1172.14 5.08654 -3.76103 0
M  V30 11998 C 1170.81 5.24158 -4.13297 0
M  V30 11999 H 1170.08 0.73552 -0.0899481 0
M  V30 12000 H 1172.73 1.68451 -0.910844 0
M  V30 12001 H 1171.03 3.88825 0.481915 0
M  V30 12002 H 1172.73 4.0085 0.109509 0
M  V30 12003 H 1169.32 4.07685 -1.32252 0
M  V30 12004 H 1173.5 4.43004 -2.23744 0
M  V30 12005 H 1168.76 4.98779 -3.53595 0
M  V30 12006 H 1172.93 5.35457 -4.45262 0
M  V30 12007 H 1170.56 5.63079 -5.10731 0
M  V30 12008 N 1172.13 0.454803 1.50895 0
M  V30 12009 C 1173.55 0.108037 1.59234 0
M  V30 12010 C 1173.75 -1.38416 1.46435 0
M  V30 12011 O 1172.81 -2.15586 1.31449 0
M  V30 12012 C 1174.12 0.643721 2.93729 0
M  V30 12013 C 1175.67 0.605703 3.07083 0
M  V30 12014 C 1176.14 1.11865 4.44128 0
M  V30 12015 N 1177.63 1.07738 4.50496 0
M  V30 12016 C 1178.37 1.44495 5.54895 0
M  V30 12017 N 1177.86 1.88624 6.66628 0
M  V30 12018 N 1179.66 1.36201 5.45349 0
M  V30 12019 H 1171.81 1.4255 1.57459 0
M  V30 12020 H 1174.07 0.588504 0.743214 0
M  V30 12021 H 1173.78 1.68844 3.0852 0
M  V30 12022 H 1173.65 0.0782404 3.77119 0
M  V30 12023 H 1176.04 -0.430065 2.91949 0
M  V30 12024 H 1176.12 1.2078 2.2549 0
M  V30 12025 H 1175.76 2.15297 4.6001 0
M  V30 12026 H 1175.69 0.492933 5.24288 0
M  V30 12027 H 1178.18 0.753526 3.70311 0
M  V30 12028 H 1178.5 2.14863 7.4233 0
M  V30 12029 H 1176.84 1.92564 6.6779 0
M  V30 12030 H 1180.03 1.01579 4.56946 0
M  V30 12031 H 1180.21 1.65175 6.26595 0
M  V30 12032 N 1173.61 -1.56489 0.186789 0
M  V30 12033 C 1174.86 -1.96517 -0.45433 0
M  V30 12034 C 1175.17 -1.07618 -1.63333 0
M  V30 12035 O 1176.38 -1.37392 -2.3417 0
M  V30 12036 C 1174.84 -3.49482 -0.859685 0
M  V30 12037 C 1174.44 -4.47031 0.294572 0
M  V30 12038 C 1176.19 -3.98296 -1.46835 0
M  V30 12039 C 1174.09 -5.91254 -0.131279 0
M  V30 12040 H 1173.02 -0.733765 -0.17351 0
M  V30 12041 H 1175.68 -1.8139 0.277485 0
M  V30 12042 H 1174.06 -3.60082 -1.64793 0
M  V30 12043 H 1175.23 -4.48156 1.07205 0
M  V30 12044 H 1173.55 -4.08362 0.814197 0
M  V30 12045 H 1176.14 -5.03518 -1.79928 0
M  V30 12046 H 1176.49 -3.42123 -2.37186 0
M  V30 12047 H 1177.02 -3.90776 -0.744247 0
M  V30 12048 H 1173.76 -6.51334 0.737839 0
M  V30 12049 H 1173.28 -5.93401 -0.873786 0
M  V30 12050 H 1174.96 -6.44485 -0.569913 0
M  V30 12051 N 1175.09 0.086862 -1.5736 0
M  V30 12052 C 1176.33 0.794358 -1.88333 0
M  V30 12053 C 1176.69 1.75496 -0.778783 0
M  V30 12054 O 1177.89 2.50643 -0.971152 0
M  V30 12055 C 1176.17 1.49686 -3.24544 0
M  V30 12056 S 1177.72 2.2415 -3.7723 0
M  V30 12057 H 1174.54 0.264479 -0.659979 0
M  V30 12058 H 1177.14 0.0511046 -1.95433 0
M  V30 12059 H 1175.85 0.783713 -4.02847 0
M  V30 12060 H 1175.38 2.27984 -3.20604 0
M  V30 12061 H 1177.39 3.50426 -3.51306 0
M  V30 12062 N 1176.57 1.53483 0.357892 0
M  V30 12063 C 1177.53 1.79782 1.42166 0
M  V30 12064 C 1178.53 0.668441 1.46248 0
M  V30 12065 O 1179.72 0.936677 1.46874 0
M  V30 12066 C 1176.85 1.92686 2.8122 0
M  V30 12067 H 1178.05 2.74794 1.20117 0
M  V30 12068 H 1175.6 1.44677 0.591468 0
M  V30 12069 H 1176.33 0.997669 3.08573 0
M  V30 12070 H 1176.12 2.74837 2.79655 0
M  V30 12071 H 1177.61 2.14599 3.58242 0
M  V30 12072 N 1178.05 -0.61812 1.44973 0
M  V30 12073 C 1178.99 -1.72942 1.52838 0
M  V30 12074 C 1179.96 -1.6181 0.375056 0
M  V30 12075 O 1181.15 -1.81544 0.587075 0
M  V30 12076 C 1178.29 -3.11228 1.49101 0
M  V30 12077 C 1177.4 -3.33243 2.74906 0
M  V30 12078 C 1176.54 -4.61574 2.62912 0
M  V30 12079 C 1175.57 -4.76811 3.8382 0
M  V30 12080 N 1174.71 -5.96432 3.70424 0
M  V30 12081 H 1179.55 -1.65556 2.47781 0
M  V30 12082 H 1177.09 -0.807411 1.2296 0
M  V30 12083 H 1179.05 -3.9122 1.44923 0
M  V30 12084 H 1177.68 -3.17598 0.577163 0
M  V30 12085 H 1176.73 -2.471 2.89216 0
M  V30 12086 H 1178.04 -3.40377 3.64616 0
M  V30 12087 H 1177.19 -5.49746 2.56641 0
M  V30 12088 H 1175.93 -4.5682 1.70784 0
M  V30 12089 H 1174.94 -3.87066 3.90461 0
M  V30 12090 H 1176.16 -4.83371 4.77001 0
M  V30 12091 H 1174.11 -5.92742 2.81057 0
M  V30 12092 H 1174.03 -6.0468 4.5376 0
M  V30 12093 H 1175.29 -6.8713 3.68067 0
M  V30 12094 N 1179.52 -1.32087 -0.859693 0
M  V30 12095 C 1180.77 -1.21716 -1.60836 0
M  V30 12096 C 1181.09 0.220904 -1.94349 0
M  V30 12097 O 1182.29 0.446422 -2.67805 0
M  V30 12098 C 1180.75 -2.13143 -2.89997 0
M  V30 12099 C 1180.36 -3.62003 -2.63928 0
M  V30 12100 C 1182.1 -2.11596 -3.68004 0
M  V30 12101 C 1180.01 -4.45407 -3.89059 0
M  V30 12102 H 1178.94 -0.45199 -0.603507 0
M  V30 12103 H 1181.59 -1.57013 -0.949687 0
M  V30 12104 H 1179.97 -1.70755 -3.57294 0
M  V30 12105 H 1181.14 -4.12701 -2.04974 0
M  V30 12106 H 1179.46 -3.6563 -1.99258 0
M  V30 12107 H 1182.06 -2.71149 -4.6085 0
M  V30 12108 H 1182.4 -1.10568 -4.01348 0
M  V30 12109 H 1182.93 -2.52238 -3.07605 0
M  V30 12110 H 1179.67 -5.4723 -3.60859 0
M  V30 12111 H 1179.19 -3.99462 -4.47427 0
M  V30 12112 H 1180.87 -4.58149 -4.56846 0
M  V30 12113 N 1181 1.07532 -1.15215 0
M  V30 12114 C 1181.95 2.14687 -0.847243 0
M  V30 12115 C 1182.92 1.64903 0.199043 0
M  V30 12116 O 1184.1 1.90682 0.0669986 0
M  V30 12117 C 1181.24 3.43414 -0.340673 0
M  V30 12118 C 1180.36 4.06999 -1.44831 0
M  V30 12119 C 1179.49 5.23554 -0.898059 0
M  V30 12120 C 1178.53 5.79097 -1.98276 0
M  V30 12121 N 1177.67 6.86985 -1.44902 0
M  V30 12122 H 1182.51 2.4011 -1.76498 0
M  V30 12123 H 1180.04 1.17823 -0.880689 0
M  V30 12124 H 1182 4.1719 -0.0286956 0
M  V30 12125 H 1180.63 3.18249 0.540144 0
M  V30 12126 H 1179.68 3.30895 -1.87651 0
M  V30 12127 H 1181 4.44289 -2.26735 0
M  V30 12128 H 1180.15 6.04305 -0.538514 0
M  V30 12129 H 1178.89 4.87676 -0.0481752 0
M  V30 12130 H 1177.89 4.96992 -2.35115 0
M  V30 12131 H 1179.12 6.1703 -2.83639 0
M  V30 12132 H 1177.07 6.5305 -0.621468 0
M  V30 12133 H 1176.98 7.23149 -2.20434 0
M  V30 12134 H 1178.25 7.71446 -1.11767 0
M  V30 12135 N 1182.48 0.948665 1.2585 0
M  V30 12136 C 1183.43 0.434929 2.23813 0
M  V30 12137 C 1184.41 -0.472518 1.53805 0
M  V30 12138 O 1185.61 -0.306542 1.74325 0
M  V30 12139 C 1182.74 -0.291678 3.42059 0
M  V30 12140 C 1181.82 0.633493 4.19342 0
M  V30 12141 N 1182.21 1.76254 4.74097 0
M  V30 12142 C 1180.51 0.440528 4.43819 0
M  V30 12143 C 1181.21 2.33968 5.32573 0
M  V30 12144 N 1180.19 1.62687 5.18685 0
M  V30 12145 H 1183.99 1.29668 2.63749 0
M  V30 12146 H 1181.5 0.805431 1.4102 0
M  V30 12147 H 1183.5 -0.676811 4.1137 0
M  V30 12148 H 1182.16 -1.15011 3.03649 0
M  V30 12149 H 1183.17 2.14453 4.71413 0
M  V30 12150 H 1179.85 -0.375515 4.15808 0
M  V30 12151 H 1181.24 3.2914 5.85761 0
M  V30 12152 N 1183.96 -1.40369 0.716545 0
M  V30 12153 C 1185.19 -2.05181 0.266143 0
M  V30 12154 C 1185.6 -1.53988 -1.09239 0
M  V30 12155 O 1184.96 -0.696859 -1.68672 0
M  V30 12156 C 1185.01 -3.60713 0.238384 0
M  V30 12157 O 1184.73 -4.10018 1.54328 0
M  V30 12158 C 1186.23 -4.42701 -0.230453 0
M  V30 12159 H 1183.45 -0.66028 0.119463 0
M  V30 12160 H 1186 -1.7976 0.97502 0
M  V30 12161 H 1184.15 -3.85101 -0.421466 0
M  V30 12162 H 1184.56 -5.0422 1.4444 0
M  V30 12163 H 1186.04 -5.51642 -0.198728 0
M  V30 12164 H 1186.52 -4.20354 -1.27276 0
M  V30 12165 H 1187.12 -4.23423 0.399155 0
M  V30 12166 N 1185.44 -0.462799 -1.50652 0
M  V30 12167 C 1186.66 0.0952726 -2.07181 0
M  V30 12168 C 1187.09 1.33479 -1.32533 0
M  V30 12169 O 1186.44 1.77473 -0.370564 0
M  V30 12170 C 1186.49 0.370592 -3.58691 0
M  V30 12171 O 1185.6 1.4526 -3.85971 0
M  V30 12172 H 1184.94 -0.00932702 -0.663934 0
M  V30 12173 H 1187.47 -0.651458 -1.93951 0
M  V30 12174 H 1187.48 0.613551 -4.0336 0
M  V30 12175 H 1186.15 -0.535219 -4.12442 0
M  V30 12176 H 1184.73 1.1976 -3.53146 0
M  V30 12177 N 1186.91 1.56388 -0.195085 0
M  V30 12178 C 1188.15 1.99478 0.445855 0
M  V30 12179 C 1188.52 1.0792 1.588 0
M  V30 12180 O 1189.72 1.40246 2.29313 0
M  V30 12181 C 1187.99 3.46032 0.894248 0
M  V30 12182 S 1189.55 4.11149 1.53303 0
M  V30 12183 H 1186.37 0.696558 0.142575 0
M  V30 12184 H 1188.97 1.93213 -0.298149 0
M  V30 12185 H 1187.67 4.10366 0.0529258 0
M  V30 12186 H 1187.2 3.56114 1.67172 0
M  V30 12187 H 1189.22 4.08155 2.82177 0
M  V30 12188 N 1188.39 -0.0785156 1.57404 0
M  V30 12189 C 1189.64 -0.774884 1.88061 0
M  V30 12190 C 1189.99 -1.75525 0.787966 0
M  V30 12191 O 1189.29 -1.90462 -0.208514 0
M  V30 12192 C 1189.48 -1.52826 3.23078 0
M  V30 12193 C 1189.31 -0.62236 4.45373 0
M  V30 12194 C 1188.08 -0.261831 5.04621 0
M  V30 12195 C 1190.28 0.077964 5.14241 0
M  V30 12196 N 1188.26 0.650492 6.10444 0
M  V30 12197 C 1189.63 0.847727 6.14177 0
M  V30 12198 C 1191.69 0.150143 4.97674 0
M  V30 12199 C 1190.39 1.68295 6.99335 0
M  V30 12200 C 1192.41 0.972321 5.83352 0
M  V30 12201 C 1191.78 1.73015 6.82821 0
M  V30 12202 H 1187.88 -0.259194 0.737796 0
M  V30 12203 H 1190.46 -0.0366796 1.94665 0
M  V30 12204 H 1188.63 -2.23723 3.17494 0
M  V30 12205 H 1190.36 -2.17311 3.41406 0
M  V30 12206 H 1187.12 -0.613197 4.69614 0
M  V30 12207 H 1187.54 1.0997 6.68009 0
M  V30 12208 H 1192.18 -0.421423 4.20695 0
M  V30 12209 H 1189.9 2.26552 7.75693 0
M  V30 12210 H 1193.49 1.03106 5.72591 0
M  V30 12211 H 1192.37 2.35609 7.47969 0
M  V30 12212 N 1189.87 -1.5367 -0.349747 0
M  V30 12213 C 1191.12 -1.69835 -1.08807 0
M  V30 12214 C 1191.43 -0.46497 -1.89993 0
M  V30 12215 O 1192.64 -0.507452 -2.66716 0
M  V30 12216 C 1191.09 -3.00294 -1.98372 0
M  V30 12217 C 1190.7 -4.30949 -1.22422 0
M  V30 12218 C 1192.45 -3.25826 -2.72099 0
M  V30 12219 C 1190.35 -5.52486 -2.1098 0
M  V30 12220 H 1189.28 -0.63284 -0.409915 0
M  V30 12221 H 1191.93 -1.80171 -0.347968 0
M  V30 12222 H 1190.32 -2.838 -2.76176 0
M  V30 12223 H 1191.49 -4.58126 -0.495707 0
M  V30 12224 H 1189.81 -4.11983 -0.604896 0
M  V30 12225 H 1192.4 -4.13817 -3.38615 0
M  V30 12226 H 1192.75 -2.42566 -3.3833 0
M  V30 12227 H 1193.28 -3.43067 -2.0137 0
M  V30 12228 H 1190.02 -6.38271 -1.49301 0
M  V30 12229 H 1189.54 -5.29566 -2.81638 0
M  V30 12230 H 1191.22 -5.87889 -2.70176 0
M  V30 12231 N 1191.35 0.610423 -1.45298 0
M  V30 12232 C 1192.76 1.19234 -1.43667 0
M  V30 12233 C 1193.11 1.95523 -0.162794 0
M  V30 12234 O 1192.24 2.03507 0.735789 0
M  V30 12235 C 1192.83 2.16892 -2.60276 0
M  V30 12236 C 1191.39 2.70465 -2.61774 0
M  V30 12237 C 1190.54 1.45821 -2.35863 0
M  V30 12238 H 1193.49 0.399895 -1.53579 0
M  V30 12239 H 1193.51 2.99875 -2.34212 0
M  V30 12240 H 1193.02 1.61339 -3.52975 0
M  V30 12241 H 1191.12 3.29965 -1.73072 0
M  V30 12242 H 1191.23 3.15092 -3.60907 0
M  V30 12243 H 1189.6 1.74678 -1.85364 0
M  V30 12244 H 1190.38 0.921403 -3.30704 0
M  V30 12245 N 1192.83 1.32541 0.852676 0
M  V30 12246 C 1194.24 1.11575 1.14119 0
M  V30 12247 C 1194.44 -0.102469 2.01239 0
M  V30 12248 O 1193.5 -0.786786 2.39929 0
M  V30 12249 C 1194.81 2.39624 1.81661 0
M  V30 12250 C 1196.36 2.454 1.94288 0
M  V30 12251 C 1196.83 3.73375 2.65245 0
M  V30 12252 N 1198.33 3.74368 2.72769 0
M  V30 12253 C 1199.06 4.70094 3.28328 0
M  V30 12254 N 1198.56 5.76187 3.84682 0
M  V30 12255 N 1200.35 4.57588 3.26449 0
M  V30 12256 H 1192.5 2.10644 0.272544 0
M  V30 12257 H 1194.76 0.930094 0.183385 0
M  V30 12258 H 1194.47 3.28698 1.25102 0
M  V30 12259 H 1194.34 2.50734 2.81802 0
M  V30 12260 H 1196.73 1.56784 2.50005 0
M  V30 12261 H 1196.81 2.38241 0.931379 0
M  V30 12262 H 1196.46 4.62366 2.10191 0
M  V30 12263 H 1196.39 3.77806 3.66838 0
M  V30 12264 H 1198.88 2.97685 2.32791 0
M  V30 12265 H 1199.19 6.45285 4.25238 0
M  V30 12266 H 1197.53 5.79939 3.83008 0
M  V30 12267 H 1200.73 3.7387 2.81672 0
M  V30 12268 H 1200.9 5.32365 3.69448 0
M  V30 12269 N 1194.3 -1.0692 1.15784 0
M  V30 12270 C 1195.27 -2.12407 0.861167 0
M  V30 12271 C 1196.27 -1.6018 -0.141031 0
M  V30 12272 O 1197.46 -1.73972 0.0891192 0
M  V30 12273 C 1194.59 -3.39693 0.286636 0
M  V30 12274 H 1195.78 -2.40157 1.79623 0
M  V30 12275 H 1193.34 -1.22881 0.965916 0
M  V30 12276 H 1194.07 -3.17587 -0.656417 0
M  V30 12277 H 1193.86 -3.78903 1.0087 0
M  V30 12278 H 1195.35 -4.17488 0.0967971 0
M  V30 12279 N 1195.78 -0.955326 -1.25345 0
M  V30 12280 C 1197.19 -0.651118 -1.74978 0
M  V30 12281 C 1197.54 0.833495 -1.77616 0
M  V30 12282 O 1196.67 1.65228 -1.39745 0
M  V30 12283 C 1197.26 -1.17521 -3.17764 0
M  V30 12284 C 1195.82 -0.921151 -3.64954 0
M  V30 12285 C 1194.97 -1.31784 -2.43984 0
M  V30 12286 H 1197.92 -1.13205 -1.11222 0
M  V30 12287 H 1197.94 -0.535625 -3.76711 0
M  V30 12288 H 1197.45 -2.25575 -3.15813 0
M  V30 12289 H 1195.56 0.144392 -3.7232 0
M  V30 12290 H 1195.67 -1.5581 -4.53056 0
M  V30 12291 H 1194.03 -0.736219 -2.43828 0
M  V30 12292 H 1194.82 -2.40761 -2.44723 0
M  V30 12293 N 1197.26 1.39987 -0.723979 0
M  V30 12294 C 1198.68 1.54547 -0.398403 0
M  V30 12295 C 1198.88 1.69348 1.09194 0
M  V30 12296 O 1197.93 1.68778 1.87804 0
M  V30 12297 C 1199.25 2.76929 -1.1718 0
M  V30 12298 C 1200.79 2.90754 -1.15893 0
M  V30 12299 C 1201.27 4.16059 -1.91465 0
M  V30 12300 N 1202.76 4.23076 -1.88576 0
M  V30 12301 C 1203.5 5.18957 -2.43867 0
M  V30 12302 N 1202.99 6.20695 -3.0775 0
M  V30 12303 N 1204.78 5.11095 -2.33962 0
M  V30 12304 H 1196.94 1.28626 -1.69024 0
M  V30 12305 H 1199.2 0.6226 -0.714894 0
M  V30 12306 H 1198.9 2.72298 -2.22591 0
M  V30 12307 H 1198.78 3.69279 -0.768941 0
M  V30 12308 H 1201.17 2.94884 -0.112978 0
M  V30 12309 H 1201.25 1.99498 -1.60107 0
M  V30 12310 H 1200.89 4.12691 -2.96055 0
M  V30 12311 H 1200.82 5.06339 -1.44665 0
M  V30 12312 H 1203.31 3.50195 -1.42027 0
M  V30 12313 H 1203.62 6.90296 -3.47435 0
M  V30 12314 H 1201.97 6.21114 -3.11837 0
M  V30 12315 H 1205.16 4.30546 -1.83706 0
M  V30 12316 H 1205.33 5.85644 -2.77353 0
M  V30 12317 N 1198.74 0.470782 1.50404 0
M  V30 12318 C 1199.67 -0.359838 2.26358 0
M  V30 12319 C 1200.68 -0.95735 1.31676 0
M  V30 12320 O 1201.87 -0.84581 1.57189 0
M  V30 12321 C 1198.97 -1.51864 3.02969 0
M  V30 12322 C 1198.15 -1.03397 4.25003 0
M  V30 12323 C 1197.21 -2.06679 4.83911 0
M  V30 12324 O 1196.23 -1.64754 5.44835 0
M  V30 12325 N 1197.43 -3.39484 4.70883 0
M  V30 12326 H 1200.2 0.291299 2.98281 0
M  V30 12327 H 1197.76 0.301549 1.59067 0
M  V30 12328 H 1199.75 -2.2065 3.39258 0
M  V30 12329 H 1198.32 -2.07448 2.33846 0
M  V30 12330 H 1197.54 -0.172012 3.93825 0
M  V30 12331 H 1198.83 -0.68807 5.04126 0
M  V30 12332 H 1198.23 -3.76256 4.22431 0
M  V30 12333 H 1196.78 -4.04068 5.11441 0
M  V30 12334 N 1200.22 -1.56282 0.203376 0
M  V30 12335 C 1201.18 -2.18233 -0.700489 0
M  V30 12336 C 1202.18 -1.13908 -1.13497 0
M  V30 12337 O 1203.37 -1.39246 -1.04672 0
M  V30 12338 C 1200.5 -2.79107 -1.95735 0
M  V30 12339 H 1201.7 -2.99469 -0.160649 0
M  V30 12340 H 1199.25 -1.56232 -0.0462475 0
M  V30 12341 H 1199.98 -2.01691 -2.53951 0
M  V30 12342 H 1199.77 -3.55486 -1.65446 0
M  V30 12343 H 1201.26 -3.2665 -2.60172 0
M  V30 12344 N 1201.7 0.070167 -1.57444 0
M  V30 12345 C 1203.11 0.621805 -1.76041 0
M  V30 12346 C 1203.46 1.77824 -0.829047 0
M  V30 12347 O 1202.58 2.16396 -0.0135453 0
M  V30 12348 C 1203.18 1.13476 -3.19231 0
M  V30 12349 C 1201.74 1.63225 -3.39167 0
M  V30 12350 C 1200.88 0.552369 -2.71743 0
M  V30 12351 H 1203.83 -0.156009 -1.57931 0
M  V30 12352 H 1203.86 2.00352 -3.2348 0
M  V30 12353 H 1203.37 0.29288 -3.86993 0
M  V30 12354 H 1201.47 2.49733 -2.76522 0
M  V30 12355 H 1201.58 1.70807 -4.47618 0
M  V30 12356 H 1199.95 0.997797 -2.34342 0
M  V30 12357 H 1200.73 -0.279354 -3.42162 0
M  V30 12358 N 1203.17 1.53854 0.341593 0
M  V30 12359 C 1204.4 1.7488 1.10002 0
M  V30 12360 C 1204.81 0.488802 1.82777 0
M  V30 12361 O 1204.15 -0.549333 1.75294 0
M  V30 12362 C 1204.22 2.87604 2.15694 0
M  V30 12363 C 1203.88 4.27142 1.62477 0
M  V30 12364 C 1204.88 5.08642 1.07606 0
M  V30 12365 C 1202.56 4.73633 1.67265 0
M  V30 12366 C 1204.56 6.34735 0.582284 0
M  V30 12367 C 1202.24 5.99697 1.175 0
M  V30 12368 C 1203.24 6.80081 0.630742 0
M  V30 12369 O 1202.93 8.03777 0.140519 0
M  V30 12370 H 1202.66 0.587824 0.333824 0
M  V30 12371 H 1205.22 2.01488 0.398965 0
M  V30 12372 H 1203.45 2.56526 2.89364 0
M  V30 12373 H 1205.13 2.96583 2.77117 0
M  V30 12374 H 1205.9 4.73887 1.03227 0
M  V30 12375 H 1201.78 4.11121 2.08567 0
M  V30 12376 H 1205.32 6.97424 0.156811 0
M  V30 12377 H 1201.22 6.33947 1.21579 0
M  V30 12378 H 1201.99 8.18094 0.257626 0
M  V30 12379 N 1204.65 -0.602709 1.4562 0
M  V30 12380 C 1205.6 -1.71312 1.54664 0
M  V30 12381 C 1206.57 -1.61403 0.392197 0
M  V30 12382 O 1207.75 -1.80911 0.606297 0
M  V30 12383 C 1204.89 -3.09629 1.52393 0
M  V30 12384 C 1204.01 -3.30308 2.78425 0
M  V30 12385 C 1203.14 -4.5876 2.67793 0
M  V30 12386 C 1202.18 -4.72713 3.88855 0
M  V30 12387 N 1201.32 -5.92469 3.76729 0
M  V30 12388 H 1206.16 -1.62918 2.49523 0
M  V30 12389 H 1203.69 -0.794324 1.2381 0
M  V30 12390 H 1205.65 -3.89661 1.49064 0
M  V30 12391 H 1204.28 -3.16968 0.610816 0
M  V30 12392 H 1203.33 -2.44018 2.9182 0
M  V30 12393 H 1204.65 -3.36491 3.68205 0
M  V30 12394 H 1203.8 -5.46993 2.62457 0
M  V30 12395 H 1202.54 -4.54983 1.75619 0
M  V30 12396 H 1201.54 -3.82903 3.94545 0
M  V30 12397 H 1202.77 -4.78284 4.82101 0
M  V30 12398 H 1200.72 -5.89728 2.87328 0
M  V30 12399 H 1200.63 -5.99833 4.60148 0
M  V30 12400 H 1201.9 -6.83187 3.75334 0
M  V30 12401 N 1206.13 -1.32992 -0.845635 0
M  V30 12402 C 1207.08 -1.22682 -1.95494 0
M  V30 12403 C 1208.05 -0.106942 -1.65755 0
M  V30 12404 O 1209.23 -0.28405 -1.88674 0
M  V30 12405 C 1206.37 -0.965068 -3.31331 0
M  V30 12406 C 1205.48 -2.17058 -3.7351 0
M  V30 12407 C 1204.62 -1.84355 -4.98183 0
M  V30 12408 C 1203.66 -3.01176 -5.32878 0
M  V30 12409 N 1202.8 -2.68506 -6.48729 0
M  V30 12410 H 1207.64 -2.17562 -2.03644 0
M  V30 12411 H 1205.17 -1.08194 -0.996613 0
M  V30 12412 H 1207.13 -0.793771 -4.09579 0
M  V30 12413 H 1205.76 -0.0530285 -3.22756 0
M  V30 12414 H 1204.81 -2.45185 -2.90841 0
M  V30 12415 H 1206.12 -3.04413 -3.95138 0
M  V30 12416 H 1205.28 -1.6383 -5.84162 0
M  V30 12417 H 1204.02 -0.942264 -4.78511 0
M  V30 12418 H 1203.02 -3.22323 -4.45408 0
M  V30 12419 H 1204.25 -3.9205 -5.54503 0
M  V30 12420 H 1202.19 -1.80929 -6.30556 0
M  V30 12421 H 1202.11 -3.49392 -6.70419 0
M  V30 12422 H 1203.38 -2.51432 -7.37836 0
M  V30 12423 N 1207.61 1.06304 -1.1635 0
M  V30 12424 C 1209.02 1.31227 -0.90838 0
M  V30 12425 C 1209.22 1.96665 0.438779 0
M  V30 12426 O 1208.28 2.2332 1.17833 0
M  V30 12427 C 1209.59 2.19303 -2.05734 0
M  V30 12428 C 1211.14 2.3272 -2.09309 0
M  V30 12429 C 1211.62 3.24151 -3.23559 0
M  V30 12430 N 1213.11 3.31734 -3.23275 0
M  V30 12431 C 1213.84 4.02572 -4.08318 0
M  V30 12432 N 1213.34 4.75933 -5.03448 0
M  V30 12433 N 1215.13 3.98621 -3.96305 0
M  V30 12434 H 1207.28 0.622228 -2.03081 0
M  V30 12435 H 1209.54 0.336892 -0.886119 0
M  V30 12436 H 1209.25 1.78497 -3.03037 0
M  V30 12437 H 1209.12 3.19888 -1.99879 0
M  V30 12438 H 1211.51 2.72774 -1.12599 0
M  V30 12439 H 1211.59 1.31804 -2.19229 0
M  V30 12440 H 1211.24 2.84813 -4.20528 0
M  V30 12441 H 1211.17 4.25046 -3.10875 0
M  V30 12442 H 1213.66 2.79453 -2.5439 0
M  V30 12443 H 1213.97 5.27512 -5.64758 0
M  V30 12444 H 1212.32 4.74913 -5.07427 0
M  V30 12445 H 1215.51 3.40427 -3.21289 0
M  V30 12446 H 1215.68 4.5356 -4.62804 0
M  V30 12447 N 1209.09 0.96196 1.24836 0
M  V30 12448 C 1210.32 0.637214 1.96528 0
M  V30 12449 C 1210.72 -0.79638 1.71623 0
M  V30 12450 O 1210.07 -1.54524 0.993372 0
M  V30 12451 C 1210.13 0.824972 3.49906 0
M  V30 12452 C 1209.79 2.23711 3.985 0
M  V30 12453 C 1210.79 3.21439 4.08623 0
M  V30 12454 C 1208.47 2.56327 4.31974 0
M  V30 12455 C 1210.47 4.49872 4.51546 0
M  V30 12456 C 1208.16 3.84987 4.74582 0
M  V30 12457 C 1209.15 4.81572 4.84332 0
M  V30 12458 O 1208.84 6.07938 5.25991 0
M  V30 12459 H 1208.57 0.237214 0.633013 0
M  V30 12460 H 1211.13 1.29081 1.59773 0
M  V30 12461 H 1209.36 0.114219 3.86531 0
M  V30 12462 H 1211.05 0.500179 4.02806 0
M  V30 12463 H 1211.81 2.97569 3.82985 0
M  V30 12464 H 1207.69 1.81872 4.23608 0
M  V30 12465 H 1211.24 5.25261 4.59071 0
M  V30 12466 H 1207.13 4.08661 4.99666 0
M  V30 12467 H 1207.9 6.11421 5.44157 0
M  V30 12468 N 1210.56 -1.39601 0.731392 0
M  V30 12469 C 1211.51 -2.32469 0.0781328 0
M  V30 12470 C 1212.51 -1.52873 -0.729811 0
M  V30 12471 O 1213.71 -1.68563 -0.631402 0
M  V30 12472 H 1210.09 -0.751972 0.00646515 0
M  V30 12473 H 1212.06 -2.85196 0.877833 0
M  V30 12474 C 1210.81 -3.37948 -0.817717 0
M  V30 12475 H 1210.13 -3.99272 -0.205417 0
M  V30 12476 H 1211.57 -4.05387 -1.24248 0
M  V30 12477 C 1210.03 -2.74703 -1.95038 0
M  V30 12478 O 1210.56 -2.62266 -3.04269 0
M  V30 12479 N 1208.76 -2.32845 -1.73872 0
M  V30 12480 H 1208.31 -2.43161 -0.850321 0
M  V30 12481 H 1208.27 -1.90869 -2.49833 0
M  V30 12482 N 1212.04 -0.478751 -1.50152 0
M  V30 12483 C 1212.97 0.301182 -2.31549 0
M  V30 12484 C 1213.95 0.983276 -1.38801 0
M  V30 12485 O 1215.14 0.978973 -1.67719 0
M  V30 12486 C 1212.27 1.3791 -3.18745 0
M  V30 12487 C 1211.22 0.818175 -4.20107 0
M  V30 12488 C 1210.55 1.99496 -4.9609 0
M  V30 12489 C 1211.85 -0.17574 -5.22004 0
M  V30 12490 H 1213.54 -0.378188 -2.97002 0
M  V30 12491 H 1211.09 -0.183323 -1.42828 0
M  V30 12492 H 1213.04 1.93227 -3.74488 0
M  V30 12493 H 1211.77 2.08735 -2.51192 0
M  V30 12494 H 1210.42 0.286924 -3.65475 0
M  V30 12495 H 1210.07 2.69036 -4.25004 0
M  V30 12496 H 1209.77 1.62582 -5.6466 0
M  V30 12497 H 1211.3 2.55288 -5.54671 0
M  V30 12498 H 1212.71 0.288513 -5.72574 0
M  V30 12499 H 1211.11 -0.459549 -5.98338 0
M  V30 12500 H 1212.18 -1.09911 -4.72279 0
M  V30 12501 N 1213.52 1.56172 -0.211661 0
M  V30 12502 C 1214.77 1.98332 0.423332 0
M  V30 12503 C 1215.1 1.09895 1.60115 0
M  V30 12504 O 1214.37 0.154477 1.93886 0
M  V30 12505 C 1214.66 3.49495 0.86747 0
M  V30 12506 C 1214.51 4.48708 -0.313302 0
M  V30 12507 C 1215.83 4.04793 1.72716 0
M  V30 12508 H 1212.95 0.72107 0.152402 0
M  V30 12509 H 1215.59 1.87521 -0.305912 0
M  V30 12510 H 1213.74 3.58839 1.48885 0
M  V30 12511 H 1215.41 4.51385 -0.951291 0
M  V30 12512 H 1213.66 4.2299 -0.96238 0
M  V30 12513 H 1214.33 5.51985 0.0402402 0
M  V30 12514 H 1216.8 3.98332 1.20296 0
M  V30 12515 H 1215.68 5.10898 2.00684 0
M  V30 12516 H 1215.94 3.51067 2.68709 0
M  V30 12517 N 1215 -0.0618163 1.57479 0
M  V30 12518 C 1216.25 -0.759069 1.87735 0
M  V30 12519 C 1216.57 -1.77071 0.804732 0
M  V30 12520 O 1215.83 -1.94694 -0.198173 0
M  V30 12521 C 1216.13 -1.4939 3.2468 0
M  V30 12522 C 1215.79 -0.621312 4.46599 0
M  V30 12523 C 1214.46 -0.380873 4.7969 0
M  V30 12524 C 1216.81 -0.0168537 5.21197 0
M  V30 12525 C 1214.14 0.473341 5.84787 0
M  V30 12526 C 1216.49 0.824872 6.27199 0
M  V30 12527 C 1215.15 1.07509 6.58785 0
M  V30 12528 H 1214.42 -0.277763 0.686971 0
M  V30 12529 H 1217.07 -0.0195971 1.9149 0
M  V30 12530 H 1215.37 -2.30584 3.16762 0
M  V30 12531 H 1217.07 -2.03837 3.45328 0
M  V30 12532 H 1213.66 -0.818848 4.20705 0
M  V30 12533 H 1217.84 -0.189707 4.95937 0
M  V30 12534 H 1213.1 0.675842 6.07653 0
M  V30 12535 H 1217.27 1.29993 6.8416 0
M  V30 12536 H 1214.9 1.73876 7.40048 0
M  V30 12537 N 1216.48 -1.54033 -0.333429 0
M  V30 12538 C 1217.7 -1.76031 -1.09672 0
M  V30 12539 C 1218.13 -0.502844 -1.81254 0
M  V30 12540 O 1217.48 0.54509 -1.72912 0
M  V30 12541 C 1217.53 -2.947 -2.07809 0
M  V30 12542 O 1216.64 -2.65555 -3.15522 0
M  V30 12543 H 1215.98 -0.583611 -0.316692 0
M  V30 12544 H 1218.51 -2.01026 -0.380732 0
M  V30 12545 H 1218.52 -3.21771 -2.50853 0
M  V30 12546 H 1217.19 -3.85895 -1.55106 0
M  V30 12547 H 1215.77 -2.49403 -2.77223 0
M  V30 12548 N 1217.95 0.594978 -1.45938 0
M  V30 12549 C 1219.2 1.35093 -1.50314 0
M  V30 12550 C 1219.52 1.94412 -0.151315 0
M  V30 12551 O 1218.79 1.77876 0.820787 0
M  V30 12552 H 1217.37 0.501549 -0.553586 0
M  V30 12553 H 1220.04 0.697735 -1.81983 0
M  V30 12554 H 1219.13 2.16393 -2.24901 0
M  V30 12555 N 1219.43 1.33438 0.838571 0
M  V30 12556 C 1220.71 1.1551 1.5785 0
M  V30 12557 C 1221.09 -0.278405 2.09256 0
M  V30 12558 O 1220.44 -1.27748 1.89453 0
M  V30 12559 C 1220.65 2.19647 2.71212 0
M  V30 12560 C 1222 2.53818 3.40384 0
M  V30 12561 O 1223.02 2.18317 2.81454 0
M  V30 12562 O 1221.88 3.14741 4.46766 0
M  V30 12563 H 1218.97 0.446785 0.695925 0
M  V30 12564 H 1221.52 1.45021 0.8813 0
M  V30 12565 H 1220.29 3.15936 2.30869 0
M  V30 12566 H 1219.91 1.91224 3.48596 0
M  V30 12567 N 1220.91 -1.05686 1.16912 0
M  V30 12568 C 1222.14 -1.82821 0.979348 0
M  V30 12569 C 1222.56 -1.82196 -0.467575 0
M  V30 12570 O 1221.92 -1.22727 -1.33445 0
M  V30 12571 C 1221.97 -3.2705 1.51891 0
M  V30 12572 O 1221.07 -4.05899 0.729341 0
M  V30 12573 H 1220.41 -0.565455 0.348076 0
M  V30 12574 H 1222.94 -1.33211 1.55293 0
M  V30 12575 H 1222.95 -3.77859 1.53904 0
M  V30 12576 H 1221.63 -3.26819 2.5722 0
M  V30 12577 H 1220.2 -3.64646 0.780221 0
M  V30 12578 N 1222.39 -0.968567 -1.24324 0
M  V30 12579 C 1223.67 -0.547774 -1.87773 0
M  V30 12580 C 1224.05 0.975107 -1.87229 0
M  V30 12581 O 1223.39 1.84683 -1.34553 0
M  V30 12582 C 1223.6 -1.1403 -3.29846 0
M  V30 12583 C 1224.95 -1.22572 -4.06523 0
M  V30 12584 O 1225.98 -1.09287 -3.3902 0
M  V30 12585 O 1224.83 -1.43579 -5.27302 0
M  V30 12586 H 1221.93 -0.182771 -0.806551 0
M  V30 12587 H 1224.47 -1.06289 -1.3229 0
M  V30 12588 H 1223.25 -2.18303 -3.24745 0
M  V30 12589 H 1222.87 -0.609275 -3.92904 0
M  V30 12590 N 1223.87 1.39211 -0.738786 0
M  V30 12591 C 1225.28 1.54116 -0.414773 0
M  V30 12592 C 1225.48 1.70497 1.07392 0
M  V30 12593 O 1224.54 1.7076 1.86003 0
M  V30 12594 C 1225.85 2.7567 -1.2011 0
M  V30 12595 C 1227.4 2.89508 -1.1897 0
M  V30 12596 C 1227.87 4.14005 -1.95868 0
M  V30 12597 N 1229.37 4.21052 -1.93053 0
M  V30 12598 C 1230.1 5.16341 -2.49358 0
M  V30 12599 N 1229.6 6.17396 -3.14316 0
M  V30 12600 N 1231.39 5.08585 -2.3937 0
M  V30 12601 H 1223.54 1.26827 -1.70378 0
M  V30 12602 H 1225.8 0.614983 -0.721457 0
M  V30 12603 H 1225.51 2.69922 -2.25467 0
M  V30 12604 H 1225.38 3.68443 -0.808065 0
M  V30 12605 H 1227.77 2.94747 -0.144248 0
M  V30 12606 H 1227.85 1.97788 -1.62214 0
M  V30 12607 H 1227.5 4.09527 -3.00416 0
M  V30 12608 H 1227.43 5.04776 -1.50028 0
M  V30 12609 H 1229.92 3.48669 -1.45733 0
M  V30 12610 H 1230.23 6.86572 -3.54737 0
M  V30 12611 H 1228.57 6.17772 -3.18407 0
M  V30 12612 H 1231.77 4.28573 -1.88262 0
M  V30 12613 H 1231.94 5.8267 -2.83549 0
M  V30 12614 N 1225.34 0.486708 1.49896 0
M  V30 12615 C 1226.59 -0.0646197 2.01596 0
M  V30 12616 C 1226.91 -1.39363 1.37249 0
M  V30 12617 O 1228.11 -2.03082 1.80194 0
M  V30 12618 C 1226.57 -0.16565 3.59519 0
M  V30 12619 C 1226.18 1.15586 4.32832 0
M  V30 12620 C 1227.92 -0.668103 4.1921 0
M  V30 12621 C 1225.83 1.01778 5.82576 0
M  V30 12622 H 1224.76 -0.0279241 0.753483 0
M  V30 12623 H 1227.41 0.623969 1.72566 0
M  V30 12624 H 1225.79 -0.918372 3.85204 0
M  V30 12625 H 1226.96 1.92076 4.1886 0
M  V30 12626 H 1225.28 1.59064 3.84822 0
M  V30 12627 H 1227.88 -0.788698 5.28851 0
M  V30 12628 H 1228.22 -1.66339 3.81624 0
M  V30 12629 H 1228.75 0.0276746 3.9779 0
M  V30 12630 H 1225.49 1.9869 6.24662 0
M  V30 12631 H 1225.01 0.293527 5.99081 0
M  V30 12632 H 1226.69 0.690693 6.43303 0
M  V30 12633 N 1226.82 -1.56058 0.219941 0
M  V30 12634 C 1228.06 -2.00162 -0.414063 0
M  V30 12635 C 1228.43 -1.10432 -1.57063 0
M  V30 12636 O 1229.63 -1.43877 -2.27053 0
M  V30 12637 C 1227.9 -3.47411 -0.839084 0
M  V30 12638 S 1229.46 -4.13536 -1.46742 0
M  V30 12639 H 1226.28 -0.698738 -0.131475 0
M  V30 12640 H 1228.88 -1.92714 0.32885 0
M  V30 12641 H 1227.58 -4.10398 0.0123666 0
M  V30 12642 H 1227.11 -3.58728 -1.61485 0
M  V30 12643 H 1229.13 -4.12592 -2.75648 0
M  V30 12644 N 1228.3 0.053464 -1.57509 0
M  V30 12645 C 1229.53 0.765301 -1.92764 0
M  V30 12646 C 1229.95 1.69385 -0.817943 0
M  V30 12647 O 1229.31 1.7986 0.228075 0
M  V30 12648 C 1229.36 1.51938 -3.27028 0
M  V30 12649 O 1228.46 2.63121 -3.17555 0
M  V30 12650 H 1227.8 0.207567 -0.630723 0
M  V30 12651 H 1230.33 0.0162254 -2.04594 0
M  V30 12652 H 1230.34 1.89466 -3.6134 0
M  V30 12653 H 1229.02 0.838207 -4.07366 0
M  V30 12654 H 1227.59 2.28316 -2.94832 0
M  V30 12655 N 1229.78 1.54207 0.325255 0
M  V30 12656 C 1230.73 1.84197 1.42036 0
M  V30 12657 C 1231.72 0.71375 1.53629 0
M  V30 12658 O 1232.93 0.897385 1.56035 0
M  V30 12659 H 1229.3 0.583848 0.473947 0
M  V30 12660 H 1231.27 2.7578 1.13965 0
M  V30 12661 C 1230.02 2.08459 2.78281 0
M  V30 12662 H 1229.35 2.94734 2.70133 0
M  V30 12663 H 1230.79 2.33398 3.5398 0
M  V30 12664 C 1229.24 0.875615 3.25322 0
M  V30 12665 O 1229.77 0.0840387 4.01612 0
M  V30 12666 N 1227.98 0.687721 2.82345 0
M  V30 12667 H 1227.53 1.33307 2.20425 0
M  V30 12668 H 1227.49 -0.119687 3.14172 0
M  V30 12669 N 1231.26 -0.58723 1.46251 0
M  V30 12670 C 1232.67 -0.910129 1.31106 0
M  V30 12671 C 1232.87 -1.99557 0.279141 0
M  V30 12672 O 1231.93 -2.50466 -0.319867 0
M  V30 12673 C 1233.24 -1.33177 2.69601 0
M  V30 12674 C 1234.79 -1.44486 2.77656 0
M  V30 12675 C 1235.27 -1.90018 4.16722 0
M  V30 12676 N 1236.76 -1.97219 4.19117 0
M  V30 12677 C 1237.49 -2.33714 5.23608 0
M  V30 12678 N 1236.99 -2.69034 6.3843 0
M  V30 12679 N 1238.78 -2.3423 5.10972 0
M  V30 12680 H 1230.93 0.12987 2.12003 0
M  V30 12681 H 1233.19 -0.00456718 0.947989 0
M  V30 12682 H 1232.9 -0.608243 3.464 0
M  V30 12683 H 1232.77 -2.29421 2.99409 0
M  V30 12684 H 1235.16 -2.15926 2.01147 0
M  V30 12685 H 1235.24 -0.465047 2.51537 0
M  V30 12686 H 1234.89 -1.19159 4.93724 0
M  V30 12687 H 1234.82 -2.88949 4.40245 0
M  V30 12688 H 1237.31 -1.72431 3.36268 0
M  V30 12689 H 1237.62 -2.95822 7.13939 0
M  V30 12690 H 1235.97 -2.66683 6.41798 0
M  V30 12691 H 1239.16 -2.06056 4.20308 0
M  V30 12692 H 1239.33 -2.62345 5.92519 0
M  V30 12693 N 1232.74 -1.33881 -0.831482 0
M  V30 12694 C 1233.7 -1.24654 -1.92339 0
M  V30 12695 C 1234.7 -0.163788 -1.59964 0
M  V30 12696 O 1235.89 -0.415829 -1.69164 0
M  V30 12697 C 1233.02 -0.922537 -3.2818 0
M  V30 12698 H 1234.21 -2.21717 -2.01944 0
M  V30 12699 H 1231.77 -1.18046 -1.02445 0
M  V30 12700 H 1232.5 0.0452872 -3.24268 0
M  V30 12701 H 1232.29 -1.70562 -3.53059 0
M  V30 12702 H 1233.78 -0.88292 -4.0816 0
M  V30 12703 N 1234.21 1.05064 -1.1747 0
M  V30 12704 C 1235.44 1.82299 -0.98903 0
M  V30 12705 C 1235.86 1.82441 0.457907 0
M  V30 12706 O 1235.22 1.23433 1.32793 0
M  V30 12707 C 1235.27 3.26239 -1.53624 0
M  V30 12708 O 1234.37 4.05507 -0.750857 0
M  V30 12709 H 1233.71 0.563601 -0.35107 0
M  V30 12710 H 1236.24 1.32386 -1.55997 0
M  V30 12711 H 1236.25 3.77038 -1.55906 0
M  V30 12712 H 1234.93 3.25451 -2.58949 0
M  V30 12713 H 1233.51 3.64227 -0.799548 0
M  V30 12714 N 1235.69 0.975146 1.23809 0
M  V30 12715 C 1236.62 0.530389 2.27396 0
M  V30 12716 C 1237.6 -0.433763 1.64476 0
M  V30 12717 O 1238.79 -0.32827 1.91405 0
M  V30 12718 C 1235.92 -0.173066 3.46869 0
M  V30 12719 C 1234.87 0.707844 4.22106 0
M  V30 12720 C 1234.2 -0.127527 5.34548 0
M  V30 12721 C 1235.5 1.99609 4.82652 0
M  V30 12722 H 1237.19 1.39622 2.64851 0
M  V30 12723 H 1234.74 0.672802 1.27316 0
M  V30 12724 H 1236.69 -0.495481 4.18477 0
M  V30 12725 H 1235.41 -1.0733 3.0846 0
M  V30 12726 H 1234.07 1.01364 3.52308 0
M  V30 12727 H 1233.72 -1.02814 4.9238 0
M  V30 12728 H 1233.42 0.458728 5.85807 0
M  V30 12729 H 1234.95 -0.444443 6.0898 0
M  V30 12730 H 1236.36 1.73878 5.46296 0
M  V30 12731 H 1234.76 2.52969 5.44175 0
M  V30 12732 H 1235.83 2.68629 4.03691 0
M  V30 12733 N 1237.17 -1.38817 0.746158 0
M  V30 12734 C 1238.4 -2.0457 0.309605 0
M  V30 12735 C 1238.81 -1.5627 -1.05948 0
M  V30 12736 O 1238.17 -0.73248 -1.67156 0
M  V30 12737 C 1238.22 -3.60126 0.314843 0
M  V30 12738 O 1237.94 -4.06652 1.6299 0
M  V30 12739 C 1239.44 -4.4309 -0.136497 0
M  V30 12740 H 1236.66 -0.657597 0.133441 0
M  V30 12741 H 1239.21 -1.77651 1.01293 0
M  V30 12742 H 1237.36 -3.85908 -0.339685 0
M  V30 12743 H 1237.78 -5.01042 1.55103 0
M  V30 12744 H 1239.25 -5.5194 -0.0816714 0
M  V30 12745 H 1239.73 -4.22959 -1.18332 0
M  V30 12746 H 1240.33 -4.22481 0.488879 0
M  V30 12747 N 1238.65 -0.49465 -1.49636 0
M  V30 12748 C 1239.87 0.051305 -2.07337 0
M  V30 12749 C 1240.3 1.30637 -1.35335 0
M  V30 12750 O 1239.66 1.76647 -0.408126 0
M  V30 12751 C 1239.7 0.294425 -3.59396 0
M  V30 12752 O 1238.81 1.3704 -3.88965 0
M  V30 12753 H 1238.15 -0.023408 -0.663587 0
M  V30 12754 H 1240.68 -0.692451 -1.92526 0
M  V30 12755 H 1240.69 0.527854 -4.04571 0
M  V30 12756 H 1239.36 -0.622583 -4.11214 0
M  V30 12757 H 1237.94 1.12242 -3.55607 0
M  V30 12758 N 1240.13 1.55939 -0.228214 0
M  V30 12759 C 1241.36 2.02576 0.405759 0
M  V30 12760 C 1241.76 1.10718 1.53422 0
M  V30 12761 O 1241.11 0.110361 1.83368 0
M  V30 12762 C 1241.17 3.45531 0.992405 0
M  V30 12763 C 1240.83 4.57 -0.00144674 0
M  V30 12764 C 1241.83 5.13642 -0.804248 0
M  V30 12765 C 1239.51 5.02152 -0.12213 0
M  V30 12766 C 1241.51 6.13912 -1.71437 0
M  V30 12767 C 1239.2 6.02258 -1.03578 0
M  V30 12768 C 1240.19 6.58015 -1.83044 0
M  V30 12769 O 1239.88 7.56172 -2.72872 0
M  V30 12770 H 1239.61 0.668136 0.102813 0
M  V30 12771 H 1242.17 2.02497 -0.344092 0
M  V30 12772 H 1240.4 3.427 1.79147 0
M  V30 12773 H 1242.09 3.75777 1.53448 0
M  V30 12774 H 1242.85 4.79603 -0.721497 0
M  V30 12775 H 1238.73 4.58428 0.486294 0
M  V30 12776 H 1242.28 6.57359 -2.33506 0
M  V30 12777 H 1238.17 6.35718 -1.11952 0
M  V30 12778 H 1238.94 7.73719 -2.67022 0
M  V30 12779 N 1241.6 -0.0451101 1.57535 0
M  V30 12780 C 1242.85 -0.737654 1.88157 0
M  V30 12781 C 1243.17 -1.76743 0.823817 0
M  V30 12782 O 1242.44 -1.95366 -0.144503 0
M  V30 12783 H 1241.02 -0.275431 0.694368 0
M  V30 12784 H 1243.69 -0.0148651 1.94894 0
M  V30 12785 H 1242.78 -1.23726 2.86528 0
M  V30 12786 N 1243.08 -1.54377 -0.317073 0
M  V30 12787 C 1244.49 -1.64062 -0.891105 0
M  V30 12788 C 1244.84 -0.538863 -1.88655 0
M  V30 12789 O 1243.97 0.32718 -2.13912 0
M  V30 12790 C 1244.56 -2.97395 -1.62302 0
M  V30 12791 C 1243.12 -3.09253 -2.14568 0
M  V30 12792 C 1242.27 -2.59664 -0.973146 0
M  V30 12793 H 1245.22 -1.58418 -0.0944829 0
M  V30 12794 H 1245.24 -2.87918 -2.48764 0
M  V30 12795 H 1244.75 -3.77562 -0.898268 0
M  V30 12796 H 1242.86 -2.33774 -2.90139 0
M  V30 12797 H 1242.97 -4.15159 -2.39123 0
M  V30 12798 H 1241.33 -2.15719 -1.35416 0
M  V30 12799 H 1242.12 -3.42294 -0.262611 0
M  V30 12800 N 1244.56 0.579466 -1.4656 0
M  V30 12801 C 1245.81 1.33756 -1.52038 0
M  V30 12802 C 1246.14 1.93725 -0.173423 0
M  V30 12803 O 1245.39 1.77167 0.831293 0
M  V30 12804 C 1245.69 2.48417 -2.56951 0
M  V30 12805 C 1245.36 2.0642 -4.00876 0
M  V30 12806 C 1244.02 1.94682 -4.4006 0
M  V30 12807 C 1246.37 1.74066 -4.91274 0
M  V30 12808 C 1243.7 1.48852 -5.67503 0
M  V30 12809 C 1246.05 1.29714 -6.19158 0
M  V30 12810 C 1244.71 1.16555 -6.57245 0
M  V30 12811 H 1243.98 0.489447 -0.556347 0
M  V30 12812 H 1246.63 0.652176 -1.80053 0
M  V30 12813 H 1244.94 3.22416 -2.2261 0
M  V30 12814 H 1246.63 3.06629 -2.58418 0
M  V30 12815 H 1243.22 2.16492 -3.69904 0
M  V30 12816 H 1247.41 1.82019 -4.61717 0
M  V30 12817 H 1242.66 1.3731 -5.95782 0
M  V30 12818 H 1246.84 1.03734 -6.88631 0
M  V30 12819 H 1244.46 0.808193 -7.55892 0
M  V30 12820 N 1246.04 1.3432 0.824371 0
M  V30 12821 C 1247.29 1.26345 1.57738 0
M  V30 12822 C 1247.61 -0.166836 1.94285 0
M  V30 12823 O 1246.88 -1.09911 1.62162 0
M  V30 12824 H 1245.46 0.46466 0.584893 0
M  V30 12825 H 1248.12 1.68214 0.984373 0
M  V30 12826 H 1247.22 1.8672 2.50084 0
M  V30 12827 N 1247.52 -1.0444 1.18026 0
M  V30 12828 C 1248.45 -2.12388 0.86162 0
M  V30 12829 C 1249.46 -1.62204 -0.139196 0
M  V30 12830 O 1250.65 -1.78282 0.0881334 0
M  V30 12831 C 1247.75 -3.37859 0.265407 0
M  V30 12832 C 1246.92 -4.17292 1.31096 0
M  V30 12833 C 1245.98 -5.21096 0.731121 0
M  V30 12834 O 1245.01 -5.5159 1.40488 0
M  V30 12835 N 1246.21 -5.78568 -0.473194 0
M  V30 12836 H 1248.98 -2.40317 1.79074 0
M  V30 12837 H 1246.54 -1.20601 1.08014 0
M  V30 12838 H 1248.53 -4.04472 -0.135976 0
M  V30 12839 H 1247.1 -3.07403 -0.567658 0
M  V30 12840 H 1246.32 -3.46057 1.8878 0
M  V30 12841 H 1247.61 -4.67158 2.01596 0
M  V30 12842 H 1247 -5.56088 -1.03839 0
M  V30 12843 H 1245.56 -6.46665 -0.816545 0
M  V30 12844 N 1248.99 -0.981699 -1.2329 0
M  V30 12845 C 1249.93 -0.481042 -2.24095 0
M  V30 12846 C 1250.94 0.417818 -1.57347 0
M  V30 12847 O 1252.13 0.221746 -1.77117 0
M  V30 12848 C 1249.23 0.323324 -3.37354 0
M  V30 12849 C 1248.4 -0.568975 -4.33684 0
M  V30 12850 C 1247.46 0.181761 -5.25886 0
M  V30 12851 O 1246.49 -0.429059 -5.67581 0
M  V30 12852 N 1247.69 1.46737 -5.61648 0
M  V30 12853 H 1250.45 -1.34781 -2.67683 0
M  V30 12854 H 1248.01 -0.855117 -1.37475 0
M  V30 12855 H 1250.01 0.833934 -3.96015 0
M  V30 12856 H 1248.58 1.09111 -2.9294 0
M  V30 12857 H 1247.8 -1.2604 -3.73507 0
M  V30 12858 H 1249.08 -1.17704 -4.94998 0
M  V30 12859 H 1248.48 1.98513 -5.29725 0
M  V30 12860 H 1247.04 1.92339 -6.22775 0
M  V30 12861 N 1250.47 1.3842 -0.753509 0
M  V30 12862 C 1251.4 2.29039 -0.0859463 0
M  V30 12863 C 1252.42 1.47742 0.68383 0
M  V30 12864 O 1253.61 1.70607 0.524933 0
M  V30 12865 C 1250.71 3.26668 0.902296 0
M  V30 12866 C 1249.88 4.36986 0.190178 0
M  V30 12867 C 1248.94 5.14805 1.08916 0
M  V30 12868 O 1247.96 5.66441 0.559715 0
M  V30 12869 N 1249.17 5.27777 2.41726 0
M  V30 12870 H 1251.93 2.8697 -0.864196 0
M  V30 12871 H 1249.49 1.502 -0.604288 0
M  V30 12872 H 1251.48 3.75606 1.50672 0
M  V30 12873 H 1250.05 2.69636 1.58163 0
M  V30 12874 H 1249.27 3.89684 -0.594959 0
M  V30 12875 H 1250.56 5.07899 -0.302594 0
M  V30 12876 H 1249.96 4.87376 2.87196 0
M  V30 12877 H 1248.52 5.8009 2.97219 0
M  V30 12878 N 1251.95 0.502579 1.49372 0
M  V30 12879 C 1253.2 -0.0412993 2.02058 0
M  V30 12880 C 1253.52 -1.37338 1.38431 0
M  V30 12881 O 1252.79 -1.88305 0.540175 0
M  V30 12882 H 1251.37 -0.0182522 0.746777 0
M  V30 12883 H 1254.03 0.660179 1.83378 0
M  V30 12884 H 1253.13 -0.169812 3.11638 0
M  V30 12885 N 1253.43 -1.55816 0.23648 0
M  V30 12886 C 1254.39 -2.1967 -0.654041 0
M  V30 12887 C 1255.39 -1.1629 -1.11056 0
M  V30 12888 O 1256.58 -1.41435 -1.01695 0
M  V30 12889 C 1253.71 -2.83196 -1.89771 0
M  V30 12890 H 1254.91 -2.99743 -0.0970911 0
M  V30 12891 H 1252.46 -1.56295 -0.013098 0
M  V30 12892 H 1253.19 -2.07033 -2.49616 0
M  V30 12893 H 1252.98 -3.58915 -1.57868 0
M  V30 12894 H 1254.47 -3.32095 -2.53184 0
M  V30 12895 N 1254.91 0.036755 -1.57557 0
M  V30 12896 C 1255.87 1.02435 -2.05036 0
M  V30 12897 C 1256.87 1.29506 -0.953146 0
M  V30 12898 O 1258.06 1.24638 -1.217 0
M  V30 12899 C 1255.19 2.3592 -2.46079 0
M  V30 12900 H 1256.38 0.614384 -2.93539 0
M  V30 12901 H 1253.94 0.283396 -1.53709 0
M  V30 12902 H 1254.67 2.8168 -1.60708 0
M  V30 12903 H 1254.46 2.17603 -3.26177 0
M  V30 12904 H 1255.95 3.06839 -2.83266 0
M  V30 12905 N 1256.39 1.54543 0.308881 0
M  V30 12906 C 1257.62 1.77174 1.06268 0
M  V30 12907 C 1258.02 0.527461 1.81699 0
M  V30 12908 O 1257.37 -0.512027 1.7642 0
M  V30 12909 C 1257.43 2.92115 2.09545 0
M  V30 12910 C 1257.09 4.30492 1.5338 0
M  V30 12911 C 1258.09 5.1081 0.967923 0
M  V30 12912 C 1255.77 4.77074 1.5718 0
M  V30 12913 C 1257.77 6.35827 0.447517 0
M  V30 12914 C 1255.46 6.02055 1.04753 0
M  V30 12915 C 1256.45 6.81266 0.486345 0
M  V30 12916 O 1256.14 8.03894 -0.0300055 0
M  V30 12917 H 1255.87 0.594773 0.321281 0
M  V30 12918 H 1258.43 2.02289 0.356136 0
M  V30 12919 H 1256.66 2.62606 2.83857 0
M  V30 12920 H 1258.35 3.02394 2.70763 0
M  V30 12921 H 1259.11 4.7597 0.931523 0
M  V30 12922 H 1254.99 4.15453 1.998 0
M  V30 12923 H 1258.54 6.97599 0.00884212 0
M  V30 12924 H 1254.43 6.36383 1.08105 0
M  V30 12925 H 1255.2 8.18457 0.0840381 0
M  V30 12926 N 1257.86 -0.571685 1.46866 0
M  V30 12927 C 1259.11 -1.33145 1.52972 0
M  V30 12928 C 1259.44 -1.93314 0.185344 0
M  V30 12929 O 1258.72 -1.77083 -0.80447 0
M  V30 12930 C 1259 -2.4525 2.63675 0
M  V30 12931 C 1258.85 -1.90044 4.0768 0
M  V30 12932 C 1260.17 -3.47247 2.70384 0
M  V30 12933 H 1257.29 -0.482751 0.556885 0
M  V30 12934 H 1259.93 -0.641163 1.78855 0
M  V30 12935 H 1258.08 -3.04132 2.41735 0
M  V30 12936 H 1259.76 -1.35535 4.4094 0
M  V30 12937 H 1258 -1.20805 4.1664 0
M  V30 12938 H 1258.67 -2.71019 4.80887 0
M  V30 12939 H 1261.15 -2.98263 2.90135 0
M  V30 12940 H 1260.02 -4.23132 3.49643 0
M  V30 12941 H 1260.28 -4.05179 1.76868 0
M  V30 12942 N 1259.34 -1.34755 -0.817236 0
M  V30 12943 C 1260.59 -1.2718 -1.57066 0
M  V30 12944 C 1260.91 0.156531 -1.94371 0
M  V30 12945 O 1260.18 1.09049 -1.62742 0
M  V30 12946 H 1258.76 -0.467755 -0.582421 0
M  V30 12947 H 1261.42 -1.68734 -0.975438 0
M  V30 12948 H 1260.52 -1.88043 -2.49091 0
M  V30 12949 N 1260.82 1.03812 -1.18578 0
M  V30 12950 C 1262.04 1.8124 -1.00831 0
M  V30 12951 C 1262.47 1.82917 0.43853 0
M  V30 12952 O 1261.83 1.24835 1.31476 0
M  V30 12953 C 1261.88 3.24592 -1.57075 0
M  V30 12954 O 1260.98 4.04688 -0.793824 0
M  V30 12955 H 1260.32 0.559846 -0.357028 0
M  V30 12956 H 1262.85 1.30724 -1.57393 0
M  V30 12957 H 1262.86 3.75363 -1.59896 0
M  V30 12958 H 1261.54 3.22686 -2.62387 0
M  V30 12959 H 1260.11 3.63359 -0.838134 0
M  V30 12960 N 1262.3 0.988223 1.22768 0
M  V30 12961 C 1263.53 0.678757 1.95132 0
M  V30 12962 C 1263.94 -0.759797 1.73274 0
M  V30 12963 O 1263.28 -1.52383 1.02592 0
M  V30 12964 C 1263.34 0.899007 3.48078 0
M  V30 12965 C 1263 2.32114 3.93665 0
M  V30 12966 C 1264 3.30034 4.01713 0
M  V30 12967 C 1261.69 2.65432 4.2644 0
M  V30 12968 C 1263.68 4.59349 4.41902 0
M  V30 12969 C 1261.37 3.94967 4.66309 0
M  V30 12970 C 1262.37 4.91737 4.74008 0
M  V30 12971 O 1262.05 6.18958 5.12977 0
M  V30 12972 H 1261.79 0.250588 0.627839 0
M  V30 12973 H 1264.34 1.32441 1.56999 0
M  V30 12974 H 1262.57 0.196182 3.86202 0
M  V30 12975 H 1264.26 0.585507 4.01655 0
M  V30 12976 H 1265.02 3.05626 3.76587 0
M  V30 12977 H 1260.9 1.90816 4.19655 0
M  V30 12978 H 1264.45 5.34881 4.47826 0
M  V30 12979 H 1260.34 4.19168 4.90886 0
M  V30 12980 H 1261.11 6.22826 5.31065 0
M  V30 12981 N 1263.78 -1.38018 0.760839 0
M  V30 12982 C 1264.72 -2.30387 0.13796 0
M  V30 12983 C 1265.69 -1.50548 -0.701754 0
M  V30 12984 O 1266.88 -1.79154 -0.656381 0
M  V30 12985 C 1264.02 -3.36993 -0.743642 0
M  V30 12986 C 1263.13 -4.31856 0.111489 0
M  V30 12987 C 1262.27 -5.25534 -0.773796 0
M  V30 12988 C 1261.3 -6.12042 0.0845311 0
M  V30 12989 N 1260.44 -6.97995 -0.758118 0
M  V30 12990 H 1265.28 -2.83077 0.931212 0
M  V30 12991 H 1262.82 -1.39361 0.470833 0
M  V30 12992 H 1264.78 -3.97417 -1.26948 0
M  V30 12993 H 1263.41 -2.85695 -1.50261 0
M  V30 12994 H 1262.46 -3.72832 0.755031 0
M  V30 12995 H 1263.77 -4.92758 0.774042 0
M  V30 12996 H 1262.92 -5.9111 -1.36653 0
M  V30 12997 H 1261.66 -4.65017 -1.47006 0
M  V30 12998 H 1260.67 -5.45455 0.689883 0
M  V30 12999 H 1261.89 -6.74629 0.777966 0
M  V30 13000 H 1259.84 -6.40018 -1.4392 0
M  V30 13001 H 1259.76 -7.55846 -0.152623 0
M  V30 13002 H 1261.02 -7.67973 -1.33559 0
M  V30 13003 N 1265.25 -0.510493 -1.49103 0
M  V30 13004 C 1266.5 0.0325393 -2.01674 0
M  V30 13005 C 1266.82 1.37162 -1.39448 0
M  V30 13006 O 1268.02 2.00189 -1.83402 0
M  V30 13007 C 1266.48 0.108433 -3.59737 0
M  V30 13008 C 1266.09 -1.22458 -4.30939 0
M  V30 13009 C 1267.83 0.601326 -4.20219 0
M  V30 13010 C 1265.74 -1.11033 -5.80884 0
M  V30 13011 H 1264.67 0.0159333 -0.753832 0
M  V30 13012 H 1267.32 -0.651344 -1.71551 0
M  V30 13013 H 1265.7 0.856974 -3.86616 0
M  V30 13014 H 1266.87 -1.98715 -4.15751 0
M  V30 13015 H 1265.19 -1.65166 -3.82242 0
M  V30 13016 H 1267.79 0.704462 -5.30039 0
M  V30 13017 H 1268.13 1.60247 -3.84222 0
M  V30 13018 H 1268.66 -0.0909561 -3.97696 0
M  V30 13019 H 1265.4 -2.08603 -6.21422 0
M  V30 13020 H 1264.92 -0.388798 -5.98539 0
M  V30 13021 H 1266.6 -0.792949 -6.42123 0
M  V30 13022 N 1266.73 1.55688 -0.24474 0
M  V30 13023 C 1267.66 2.24272 0.64995 0
M  V30 13024 C 1268.64 1.22226 1.183 0
M  V30 13025 O 1269.83 1.50873 1.22274 0
M  V30 13026 C 1266.96 2.94053 1.84798 0
M  V30 13027 C 1265.91 4.02769 1.44779 0
M  V30 13028 C 1265.24 4.59965 2.72647 0
M  V30 13029 C 1266.54 5.18601 0.62047 0
M  V30 13030 H 1268.23 2.99298 0.0780654 0
M  V30 13031 H 1265.78 1.43955 0.0361069 0
M  V30 13032 H 1267.73 3.40732 2.47951 0
M  V30 13033 H 1266.45 2.16511 2.44521 0
M  V30 13034 H 1265.11 3.56856 0.839609 0
M  V30 13035 H 1264.76 3.79126 3.30564 0
M  V30 13036 H 1264.46 5.33352 2.46596 0
M  V30 13037 H 1265.99 5.09376 3.36703 0
M  V30 13038 H 1267.4 5.61519 1.15625 0
M  V30 13039 H 1265.8 5.98364 0.456097 0
M  V30 13040 H 1266.87 4.83503 -0.367798 0
M  V30 13041 N 1268.21 -0.0283989 1.57574 0
M  V30 13042 C 1269.16 -1.04723 2.07692 0
M  V30 13043 C 1270.15 -1.37399 0.990847 0
M  V30 13044 O 1271.36 -1.36297 1.17572 0
M  V30 13045 H 1267.73 -0.355251 0.662798 0
M  V30 13046 H 1269.7 -0.598737 2.92331 0
M  V30 13047 C 1268.45 -2.33941 2.57229 0
M  V30 13048 H 1267.78 -2.09659 3.40416 0
M  V30 13049 H 1269.22 -3.03574 2.96005 0
M  V30 13050 C 1267.67 -3.02953 1.47381 0
M  V30 13051 O 1268.2 -3.9281 0.840431 0
M  V30 13052 N 1266.41 -2.64294 1.20819 0
M  V30 13053 H 1265.96 -1.91307 1.72509 0
M  V30 13054 H 1265.92 -3.10786 0.475353 0
M  V30 13055 N 1269.69 -1.54705 -0.300681 0
M  V30 13056 C 1271.1 -1.45926 -0.646359 0
M  V30 13057 C 1271.3 -0.65072 -1.90704 0
M  V30 13058 O 1270.36 -0.158547 -2.52002 0
M  V30 13059 C 1271.67 -2.89889 -0.799059 0
M  V30 13060 C 1273.22 -2.99934 -0.894923 0
M  V30 13061 C 1273.7 -4.45093 -1.07962 0
M  V30 13062 N 1275.19 -4.48804 -1.14581 0
M  V30 13063 C 1275.92 -5.58305 -1.30702 0
M  V30 13064 N 1275.42 -6.77729 -1.43719 0
M  V30 13065 N 1277.21 -5.45994 -1.33593 0
M  V30 13066 H 1269.36 -2.05742 0.527617 0
M  V30 13067 H 1271.62 -0.931817 0.174415 0
M  V30 13068 H 1271.33 -3.51655 0.0563954 0
M  V30 13069 H 1271.2 -3.37325 -1.68796 0
M  V30 13070 H 1273.59 -2.38281 -1.74086 0
M  V30 13071 H 1273.67 -2.55794 0.0179973 0
M  V30 13072 H 1273.32 -5.0734 -0.238444 0
M  V30 13073 H 1273.25 -4.86864 -2.00677 0
M  V30 13074 H 1275.74 -3.62766 -1.05874 0
M  V30 13075 H 1276.05 -7.56937 -1.55776 0
M  V30 13076 H 1274.4 -6.80594 -1.40774 0
M  V30 13077 H 1277.59 -4.51641 -1.23035 0
M  V30 13078 H 1277.76 -6.31381 -1.45813 0
M  V30 13079 N 1271.17 0.563888 -1.47167 0
M  V30 13080 C 1272.12 1.66687 -1.55562 0
M  V30 13081 C 1273.1 1.55455 -0.415024 0
M  V30 13082 O 1274.29 1.64051 -0.664557 0
M  V30 13083 C 1271.42 3.05469 -1.56665 0
M  V30 13084 C 1270.51 3.21928 -2.76085 0
M  V30 13085 N 1270.9 3.08477 -4.00844 0
M  V30 13086 C 1269.2 3.52913 -2.72706 0
M  V30 13087 C 1269.9 3.27447 -4.80784 0
M  V30 13088 N 1268.87 3.53474 -4.12986 0
M  V30 13089 H 1272.68 1.54846 -2.498 0
M  V30 13090 H 1270.19 0.76846 -1.43068 0
M  V30 13091 H 1272.19 3.84655 -1.60768 0
M  V30 13092 H 1270.85 3.18427 -0.635174 0
M  V30 13093 H 1271.86 2.85944 -4.31806 0
M  V30 13094 H 1268.53 3.7244 -1.88666 0
M  V30 13095 H 1269.92 3.22072 -5.89677 0
M  V30 13096 N 1272.64 1.35187 0.810078 0
M  V30 13097 C 1273.57 1.30481 1.93641 0
M  V30 13098 C 1274.56 0.179875 1.69146 0
M  V30 13099 O 1275.74 0.374284 1.90559 0
M  V30 13100 C 1272.87 1.07251 3.30325 0
M  V30 13101 C 1271.82 2.16348 3.69293 0
M  V30 13102 C 1271.15 1.78288 5.04101 0
M  V30 13103 C 1272.45 3.58285 3.80038 0
M  V30 13104 H 1274.14 2.24725 1.97836 0
M  V30 13105 H 1271.69 1.08179 0.950436 0
M  V30 13106 H 1273.64 1.02599 4.08719 0
M  V30 13107 H 1272.37 0.0945203 3.26463 0
M  V30 13108 H 1271.03 2.2009 2.93182 0
M  V30 13109 H 1270.67 0.791163 4.96739 0
M  V30 13110 H 1270.37 2.51315 5.31144 0
M  V30 13111 H 1271.9 1.75155 5.84938 0
M  V30 13112 H 1273.31 3.56884 4.48672 0
M  V30 13113 H 1271.71 4.30044 4.18548 0
M  V30 13114 H 1272.78 3.94691 2.81685 0
M  V30 13115 N 1274.12 -1.03182 1.19127 0
M  V30 13116 C 1275.09 -2.09559 0.928307 0
M  V30 13117 C 1276.09 -1.60548 -0.0899992 0
M  V30 13118 O 1277.28 -1.736 0.144422 0
M  V30 13119 C 1274.41 -3.38609 0.394561 0
M  V30 13120 H 1275.6 -2.34321 1.87173 0
M  V30 13121 H 1273.15 -1.19746 1.00452 0
M  V30 13122 H 1273.89 -3.19515 -0.555046 0
M  V30 13123 H 1273.67 -3.75502 1.12873 0
M  V30 13124 H 1275.16 -4.16969 0.229569 0
M  V30 13125 N 1275.6 -0.99472 -1.22242 0
M  V30 13126 C 1276.83 -0.690097 -1.95052 0
M  V30 13127 C 1277.24 0.745543 -1.73456 0
M  V30 13128 O 1276.6 1.50329 -1.03477 0
M  V30 13129 C 1276.65 -0.988798 -3.47714 0
M  V30 13130 O 1276.37 -2.36803 -3.68587 0
M  V30 13131 C 1277.87 -0.702132 -4.37704 0
M  V30 13132 H 1275.09 -0.255142 -0.620599 0
M  V30 13133 H 1277.64 -1.32998 -1.55344 0
M  V30 13134 H 1275.79 -0.394684 -3.85384 0
M  V30 13135 H 1276.21 -2.4687 -4.62769 0
M  V30 13136 H 1277.68 -0.961389 -5.43564 0
M  V30 13137 H 1278.16 0.363866 -4.3769 0
M  V30 13138 H 1278.76 -1.27738 -4.05664 0
M  V30 13139 N 1277.08 1.37613 -0.768148 0
M  V30 13140 C 1278.31 2.03756 -0.341615 0
M  V30 13141 C 1278.72 1.58063 1.03984 0
M  V30 13142 O 1278.06 0.755609 1.6744 0
M  V30 13143 C 1278.12 3.58229 -0.302032 0
M  V30 13144 C 1277.79 4.27039 -1.62747 0
M  V30 13145 C 1278.78 4.51408 -2.57928 0
M  V30 13146 C 1276.47 4.64941 -1.90092 0
M  V30 13147 C 1278.46 5.12731 -3.78663 0
M  V30 13148 C 1276.15 5.25986 -3.11098 0
M  V30 13149 C 1277.15 5.49818 -4.05203 0
M  V30 13150 O 1276.83 6.09588 -5.24078 0
M  V30 13151 H 1276.57 0.660992 -0.141655 0
M  V30 13152 H 1279.12 1.77001 -1.04211 0
M  V30 13153 H 1277.35 3.84016 0.454811 0
M  V30 13154 H 1279.04 4.05784 0.0969452 0
M  V30 13155 H 1279.81 4.22542 -2.38083 0
M  V30 13156 H 1275.68 4.45729 -1.17674 0
M  V30 13157 H 1279.23 5.31249 -4.52129 0
M  V30 13158 H 1275.13 5.54276 -3.3083 0
M  V30 13159 H 1275.89 6.28068 -5.24855 0
M  V30 13160 N 1278.56 0.518393 1.4883 0
M  V30 13161 C 1279.52 -0.23983 2.27942 0
M  V30 13162 C 1280.52 -0.878302 1.34694 0
M  V30 13163 O 1281.71 -0.740142 1.57694 0
M  V30 13164 C 1278.84 -1.34581 3.1321 0
M  V30 13165 H 1280.03 0.454599 2.96434 0
M  V30 13166 H 1277.59 0.273932 1.53881 0
M  V30 13167 H 1278.32 -2.07385 2.49323 0
M  V30 13168 H 1278.11 -0.893251 3.8179 0
M  V30 13169 H 1279.6 -1.87944 3.72917 0
M  V30 13170 N 1280.03 -1.55556 0.252993 0
M  V30 13171 C 1281.31 -1.91022 -0.420696 0
M  V30 13172 C 1281.69 -1.17452 -1.75409 0
M  V30 13173 O 1281.04 -0.294 -2.26601 0
M  V30 13174 C 1281.25 -3.441 -0.582787 0
M  V30 13175 C 1282.6 -4.15468 -0.875873 0
M  V30 13176 O 1283.62 -3.49872 -0.668425 0
M  V30 13177 O 1282.48 -5.31508 -1.27128 0
M  V30 13178 H 1279.57 -0.7953 -0.226776 0
M  V30 13179 H 1282.12 -1.67072 0.297511 0
M  V30 13180 H 1280.89 -3.89673 0.356474 0
M  V30 13181 H 1280.52 -3.73933 -1.3513 0
M  V30 13182 N 1281.51 0.0200419 -1.57587 0
M  V30 13183 C 1282.76 0.704552 -1.90808 0
M  V30 13184 C 1283.11 1.72479 -0.852568 0
M  V30 13185 O 1282.41 1.91105 0.137682 0
M  V30 13186 C 1282.6 1.40729 -3.28527 0
M  V30 13187 C 1282.43 0.456634 -4.47376 0
M  V30 13188 C 1281.2 0.0743638 -5.05245 0
M  V30 13189 C 1283.4 -0.268767 -5.13597 0
M  V30 13190 N 1281.38 -0.876606 -6.07609 0
M  V30 13191 C 1282.75 -1.07509 -6.10608 0
M  V30 13192 C 1284.81 -0.334748 -4.96773 0
M  V30 13193 C 1283.51 -1.94135 -6.92607 0
M  V30 13194 C 1285.53 -1.18816 -5.79342 0
M  V30 13195 C 1284.9 -1.98238 -6.7593 0
M  V30 13196 H 1281 0.231633 -0.746907 0
M  V30 13197 H 1283.58 -0.0355944 -1.94667 0
M  V30 13198 H 1281.75 2.11785 -3.25579 0
M  V30 13199 H 1283.48 2.04491 -3.49236 0
M  V30 13200 H 1280.24 0.43848 -4.71566 0
M  V30 13201 H 1280.66 -1.34687 -6.63467 0
M  V30 13202 H 1285.3 0.264995 -4.21969 0
M  V30 13203 H 1283.02 -2.55185 -7.6675 0
M  V30 13204 H 1286.61 -1.24286 -5.6837 0
M  V30 13205 H 1285.49 -2.63208 -7.38709 0
M  V30 13206 N 1282.99 1.54862 0.292472 0
M  V30 13207 C 1283.9 1.89472 1.38339 0
M  V30 13208 C 1284.92 0.789783 1.55043 0
M  V30 13209 O 1286.09 1.08705 1.69544 0
M  V30 13210 C 1283.16 2.14244 2.72581 0
M  V30 13211 C 1282.22 3.37913 2.64789 0
M  V30 13212 C 1281.45 3.61494 3.92629 0
M  V30 13213 O 1281.67 2.87931 4.92394 0
M  V30 13214 O 1280.61 4.55019 3.94007 0
M  V30 13215 H 1284.43 2.82298 1.11989 0
M  V30 13216 H 1282.02 1.41161 0.489291 0
M  V30 13217 H 1283.9 2.31689 3.51991 0
M  V30 13218 H 1282.58 1.24603 2.98757 0
M  V30 13219 H 1281.48 3.25823 1.83821 0
M  V30 13220 H 1282.82 4.27711 2.43565 0
M  V30 13221 N 1284.47 -0.556076 1.47464 0
M  V30 13222 C 1285.42 -1.68406 1.60444 0
M  V30 13223 C 1286.41 -1.627 0.471713 0
M  V30 13224 O 1287.62 -1.67871 0.649551 0
M  V30 13225 H 1283.99 -0.557255 0.504946 0
M  V30 13226 H 1285.96 -1.54595 2.55231 0
M  V30 13227 C 1284.71 -3.06756 1.63695 0
M  V30 13228 H 1284.03 -3.11829 2.50206 0
M  V30 13229 H 1285.47 -3.85368 1.76827 0
M  V30 13230 C 1283.93 -3.34857 0.370485 0
M  V30 13231 O 1284.46 -3.98216 -0.527942 0
M  V30 13232 N 1282.67 -2.89521 0.250163 0
M  V30 13233 H 1282.22 -2.3814 0.982204 0
M  V30 13234 H 1282.17 -3.08694 -0.596268 0
M  V30 13235 N 1285.95 -1.35615 -0.802897 0
M  V30 13236 C 1286.86 -1.3096 -1.94645 0
M  V30 13237 C 1287.87 -0.213909 -1.7268 0
M  V30 13238 O 1289.05 -0.443932 -1.96446 0
M  V30 13239 C 1286.11 -1.08483 -3.2929 0
M  V30 13240 C 1285.18 -2.27401 -3.64126 0
M  V30 13241 C 1284.41 -2.05987 -4.92347 0
M  V30 13242 O 1284.63 -1.02819 -5.61057 0
M  V30 13243 O 1283.57 -2.93439 -5.25526 0
M  V30 13244 H 1287.39 -2.27209 -2.01519 0
M  V30 13245 H 1284.98 -1.16024 -0.941214 0
M  V30 13246 H 1286.86 -0.978118 -4.09891 0
M  V30 13247 H 1285.53 -0.152885 -3.23339 0
M  V30 13248 H 1284.44 -2.43638 -2.83886 0
M  V30 13249 H 1285.77 -3.19055 -3.74786 0
M  V30 13250 N 1287.43 1.02549 -1.19673 0
M  V30 13251 C 1288.67 1.76265 -1.00293 0
M  V30 13252 C 1289 1.88555 0.464816 0
M  V30 13253 O 1288.28 1.40484 1.34515 0
M  V30 13254 C 1288.56 3.18688 -1.6766 0
M  V30 13255 C 1288.42 3.14247 -3.21821 0
M  V30 13256 C 1289.73 4.17159 -1.40238 0
M  V30 13257 H 1286.85 0.639837 -0.365756 0
M  V30 13258 H 1289.5 1.19691 -1.4756 0
M  V30 13259 H 1287.65 3.66992 -1.27472 0
M  V30 13260 H 1289.32 2.73815 -3.71245 0
M  V30 13261 H 1287.56 2.51874 -3.53188 0
M  V30 13262 H 1288.23 4.14886 -3.64107 0
M  V30 13263 H 1290.71 3.77471 -1.75086 0
M  V30 13264 H 1289.58 5.14997 -1.89919 0
M  V30 13265 H 1289.84 4.4088 -0.328197 0
M  V30 13266 N 1288.9 1.00119 1.21713 0
M  V30 13267 C 1290.15 0.692409 1.91252 0
M  V30 13268 C 1290.5 -0.768052 1.76405 0
M  V30 13269 O 1289.8 -1.54913 1.1275 0
M  V30 13270 C 1289.99 1.04376 3.41819 0
M  V30 13271 C 1289.82 2.53682 3.71316 0
M  V30 13272 C 1288.59 3.20222 3.90879 0
M  V30 13273 C 1290.79 3.51829 3.75127 0
M  V30 13274 N 1288.77 4.58919 4.07758 0
M  V30 13275 C 1290.14 4.7602 3.97246 0
M  V30 13276 C 1292.2 3.46019 3.58015 0
M  V30 13277 C 1290.9 5.95108 4.04029 0
M  V30 13278 C 1292.93 4.64492 3.66061 0
M  V30 13279 C 1292.29 5.87486 3.88638 0
M  V30 13280 H 1288.39 0.304785 0.72016 0
M  V30 13281 H 1290.97 1.28289 1.46459 0
M  V30 13282 H 1289.14 0.481773 3.854 0
M  V30 13283 H 1290.87 0.690108 3.98773 0
M  V30 13284 H 1287.63 2.70673 3.8863 0
M  V30 13285 H 1288.05 5.30884 4.20108 0
M  V30 13286 H 1292.69 2.51938 3.3954 0
M  V30 13287 H 1290.41 6.89585 4.21305 0
M  V30 13288 H 1294 4.61595 3.54148 0
M  V30 13289 H 1292.88 6.77628 3.94703 0
M  V30 13290 N 1290.38 -1.37203 0.775435 0
M  V30 13291 C 1291.31 -2.28873 0.122374 0
M  V30 13292 C 1292.33 -1.48811 -0.660239 0
M  V30 13293 O 1293.52 -1.7142 -0.497724 0
M  V30 13294 C 1290.62 -3.28062 -0.850212 0
M  V30 13295 C 1289.79 -4.37234 -0.120633 0
M  V30 13296 C 1288.85 -5.16472 -1.00712 0
M  V30 13297 O 1287.87 -5.6726 -0.469528 0
M  V30 13298 N 1289.08 -5.31556 -2.33299 0
M  V30 13299 H 1291.84 -2.85559 0.909741 0
M  V30 13300 H 1289.4 -1.49219 0.628107 0
M  V30 13301 H 1291.39 -3.77956 -1.44678 0
M  V30 13302 H 1289.96 -2.72118 -1.53853 0
M  V30 13303 H 1289.18 -3.88688 0.656879 0
M  V30 13304 H 1290.47 -5.07354 0.383358 0
M  V30 13305 H 1289.87 -4.91883 -2.79406 0
M  V30 13306 H 1288.43 -5.84745 -2.87953 0
M  V30 13307 N 1291.86 -0.526279 -1.48553 0
M  V30 13308 C 1293.08 0.00731432 -2.07399 0
M  V30 13309 C 1293.51 1.27737 -1.38075 0
M  V30 13310 O 1292.87 1.75741 -0.445503 0
M  V30 13311 C 1292.92 0.218126 -3.5994 0
M  V30 13312 O 1292.02 1.28759 -3.91784 0
M  V30 13313 H 1291.36 -0.0374784 -0.662941 0
M  V30 13314 H 1293.89 -0.733133 -1.91014 0
M  V30 13315 H 1293.9 0.44192 -4.056 0
M  V30 13316 H 1292.58 -0.709668 -4.09801 0
M  V30 13317 H 1291.15 1.04674 -3.57907 0
M  V30 13318 N 1293.34 1.5542 -0.261239 0
M  V30 13319 C 1294.57 2.03391 0.362698 0
M  V30 13320 C 1294.98 1.13947 1.51039 0
M  V30 13321 O 1294.32 0.149231 1.83093 0
M  V30 13322 C 1294.38 3.47558 0.918889 0
M  V30 13323 C 1294.04 4.56894 -0.0983829 0
M  V30 13324 C 1295.04 5.1182 -0.913018 0
M  V30 13325 C 1292.73 5.01779 -0.228616 0
M  V30 13326 C 1294.72 6.10138 -1.84421 0
M  V30 13327 C 1292.41 5.99926 -1.16329 0
M  V30 13328 C 1293.41 6.53984 -1.9696 0
M  V30 13329 O 1293.09 7.50214 -2.8885 0
M  V30 13330 H 1292.83 0.670166 0.0886182 0
M  V30 13331 H 1295.38 2.01722 -0.386967 0
M  V30 13332 H 1293.61 3.46423 1.71838 0
M  V30 13333 H 1295.3 3.78947 1.45443 0
M  V30 13334 H 1296.06 4.77965 -0.823066 0
M  V30 13335 H 1291.94 4.59356 0.388945 0
M  V30 13336 H 1295.49 6.52258 -2.47397 0
M  V30 13337 H 1291.38 6.332 -1.25412 0
M  V30 13338 H 1292.15 7.67881 -2.83374 0
M  V30 13339 N 1294.82 -0.0116844 1.57596 0
M  V30 13340 C 1295.75 -1.03477 2.04512 0
M  V30 13341 C 1296.76 -1.31414 0.960945 0
M  V30 13342 O 1297.95 -1.28596 1.23796 0
M  V30 13343 C 1295.05 -2.37234 2.42019 0
M  V30 13344 C 1294.22 -2.28405 3.73028 0
M  V30 13345 C 1293.28 -3.44753 3.97532 0
M  V30 13346 O 1292.31 -3.23465 4.68358 0
M  V30 13347 N 1293.51 -4.67212 3.44518 0
M  V30 13348 H 1296.27 -0.634758 2.92901 0
M  V30 13349 H 1293.84 -0.1993 1.60669 0
M  V30 13350 H 1295.83 -3.13821 2.55535 0
M  V30 13351 H 1294.4 -2.69018 1.5921 0
M  V30 13352 H 1293.62 -1.36804 3.697 0
M  V30 13353 H 1294.91 -2.19666 4.58938 0
M  V30 13354 H 1294.3 -4.87407 2.87142 0
M  V30 13355 H 1292.86 -5.41105 3.63384 0
M  V30 13356 N 1296.29 -1.55015 -0.284256 0
M  V30 13357 C 1297.71 -1.46603 -0.630845 0
M  V30 13358 C 1297.91 -0.67091 -1.90003 0
M  V30 13359 O 1296.97 -0.185266 -2.51819 0
M  V30 13360 C 1298.28 -2.9072 -0.768268 0
M  V30 13361 C 1299.83 -3.00866 -0.863061 0
M  V30 13362 C 1300.3 -4.46214 -1.03235 0
M  V30 13363 N 1301.79 -4.49994 -1.09815 0
M  V30 13364 C 1302.53 -5.5966 -1.24773 0
M  V30 13365 N 1302.02 -6.79215 -1.36523 0
M  V30 13366 N 1303.82 -5.4738 -1.27795 0
M  V30 13367 H 1295.97 -2.05171 0.549409 0
M  V30 13368 H 1298.23 -0.929915 0.184288 0
M  V30 13369 H 1297.94 -3.51575 0.0936899 0
M  V30 13370 H 1297.81 -3.39096 -1.65209 0
M  V30 13371 H 1300.2 -2.40114 -1.71549 0
M  V30 13372 H 1300.28 -2.5576 0.0451267 0
M  V30 13373 H 1299.92 -5.07564 -0.18462 0
M  V30 13374 H 1299.85 -4.88965 -1.95502 0
M  V30 13375 H 1302.34 -3.63869 -1.0202 0
M  V30 13376 H 1302.66 -7.58547 -1.47739 0
M  V30 13377 H 1301 -6.82048 -1.33548 0
M  V30 13378 H 1304.19 -4.52921 -1.18238 0
M  V30 13379 H 1304.37 -6.32892 -1.39109 0
M  V30 13380 N 1297.77 0.548248 -1.47757 0
M  V30 13381 C 1299.05 1.3092 -1.45325 0
M  V30 13382 C 1299.43 2.1053 -0.155008 0
M  V30 13383 O 1298.78 2.11558 0.863455 0
M  V30 13384 C 1298.99 2.20614 -2.70426 0
M  V30 13385 C 1300.33 2.81345 -3.18009 0
M  V30 13386 O 1301.36 2.30911 -2.71216 0
M  V30 13387 O 1300.22 3.73036 -3.99383 0
M  V30 13388 H 1297.31 0.58996 -0.579548 0
M  V30 13389 H 1299.86 0.56641 -1.59968 0
M  V30 13390 H 1298.63 1.61449 -3.56441 0
M  V30 13391 H 1298.25 3.02173 -2.58413 0
M  V30 13392 N 1299.25 1.36039 0.795694 0
M  V30 13393 C 1300.18 1.32528 1.92246 0
M  V30 13394 C 1301.16 0.197805 1.68946 0
M  V30 13395 O 1302.35 0.394474 1.90151 0
M  V30 13396 C 1299.48 1.10748 3.29169 0
M  V30 13397 C 1298.43 2.20253 3.66978 0
M  V30 13398 C 1297.76 1.83624 5.02181 0
M  V30 13399 C 1299.06 3.62296 3.76216 0
M  V30 13400 H 1300.75 2.2681 1.95442 0
M  V30 13401 H 1298.3 1.09181 0.938908 0
M  V30 13402 H 1300.25 1.06929 4.07608 0
M  V30 13403 H 1298.97 0.129141 3.26345 0
M  V30 13404 H 1297.63 2.23187 2.90832 0
M  V30 13405 H 1297.28 0.843804 4.95872 0
M  V30 13406 H 1296.98 2.56935 5.28449 0
M  V30 13407 H 1298.5 1.81349 5.83048 0
M  V30 13408 H 1299.92 3.61623 4.44861 0
M  V30 13409 H 1298.31 4.34459 4.13963 0
M  V30 13410 H 1299.38 3.97657 2.77483 0
M  V30 13411 N 1300.73 -1.01913 1.20215 0
M  V30 13412 C 1301.66 -2.12282 0.97256 0
M  V30 13413 C 1302.64 -1.6982 -0.0975709 0
M  V30 13414 O 1303.82 -1.94109 0.0594307 0
M  V30 13415 C 1300.95 -3.43369 0.521085 0
M  V30 13416 C 1299.91 -3.99559 1.53417 0
M  V30 13417 C 1299.23 -5.26383 0.93942 0
M  V30 13418 C 1300.53 -4.33241 2.91718 0
M  V30 13419 H 1302.23 -2.31746 1.89563 0
M  V30 13420 H 1299.77 -1.1137 0.912841 0
M  V30 13421 H 1301.73 -4.19963 0.347713 0
M  V30 13422 H 1300.45 -3.23655 -0.437605 0
M  V30 13423 H 1299.11 -3.25069 1.69486 0
M  V30 13424 H 1298.76 -5.02993 -0.0271236 0
M  V30 13425 H 1298.46 -5.64942 1.616 0
M  V30 13426 H 1299.98 -6.05635 0.777059 0
M  V30 13427 H 1301.4 -5.00734 2.79175 0
M  V30 13428 H 1299.79 -4.82907 3.56259 0
M  V30 13429 H 1300.86 -3.42118 3.43633 0
M  V30 13430 N 1302.21 -1.00763 -1.2118 0
M  V30 13431 C 1303.45 -0.692851 -1.90598 0
M  V30 13432 C 1303.79 0.774698 -1.78079 0
M  V30 13433 O 1303.06 1.56186 -1.15914 0
M  V30 13434 C 1303.34 -1.11792 -3.42308 0
M  V30 13435 C 1303.2 -2.64511 -3.63805 0
M  V30 13436 C 1304.52 -0.682314 -4.34779 0
M  V30 13437 H 1301.63 -0.253175 -0.69215 0
M  V30 13438 H 1304.28 -1.25378 -1.4276 0
M  V30 13439 H 1302.43 -0.640665 -3.83181 0
M  V30 13440 H 1304.1 -3.20021 -3.32242 0
M  V30 13441 H 1302.34 -3.05903 -3.0758 0
M  V30 13442 H 1303.01 -2.89306 -4.70113 0
M  V30 13443 H 1305.49 -1.09247 -4.01503 0
M  V30 13444 H 1304.36 -1.00787 -5.39568 0
M  V30 13445 H 1304.63 0.416441 -4.40134 0
M  V30 13446 N 1303.68 1.3679 -0.7827 0
M  V30 13447 C 1304.91 2.03678 -0.363734 0
M  V30 13448 C 1305.33 1.59024 1.01768 0
M  V30 13449 O 1304.68 0.776541 1.65155 0
M  V30 13450 C 1304.74 3.59165 -0.410213 0
M  V30 13451 O 1304.46 4.02188 -1.73714 0
M  V30 13452 C 1305.96 4.43296 0.018972 0
M  V30 13453 H 1303.18 0.653828 -0.150829 0
M  V30 13454 H 1305.72 1.74903 -1.05968 0
M  V30 13455 H 1303.88 3.86673 0.237249 0
M  V30 13456 H 1304.29 4.96754 -1.68332 0
M  V30 13457 H 1305.76 5.51962 -0.0646943 0
M  V30 13458 H 1306.24 4.25948 1.07076 0
M  V30 13459 H 1306.85 4.21036 -0.600721 0
M  V30 13460 N 1305.16 0.53415 1.48272 0
M  V30 13461 C 1306.58 0.192291 1.58437 0
M  V30 13462 C 1306.78 -1.3046 1.53566 0
M  V30 13463 O 1305.83 -2.08316 1.42692 0
M  V30 13464 C 1307.15 0.798515 2.89904 0
M  V30 13465 C 1308.7 0.76763 3.03441 0
M  V30 13466 C 1309.17 1.3525 4.37574 0
M  V30 13467 N 1310.66 1.31466 4.44152 0
M  V30 13468 C 1311.4 1.73706 5.46456 0
M  V30 13469 N 1310.89 2.23695 6.55692 0
M  V30 13470 N 1312.69 1.64918 5.37363 0
M  V30 13471 H 1304.84 1.50696 1.49681 0
M  V30 13472 H 1307.1 0.627073 0.710973 0
M  V30 13473 H 1306.81 1.8496 2.99136 0
M  V30 13474 H 1306.68 0.278033 3.76174 0
M  V30 13475 H 1309.07 -0.274704 2.93819 0
M  V30 13476 H 1309.15 1.32562 2.18771 0
M  V30 13477 H 1308.79 2.39379 4.47951 0
M  V30 13478 H 1308.72 0.770153 5.20938 0
M  V30 13479 H 1311.21 0.948761 3.65796 0
M  V30 13480 H 1311.53 2.5391 7.29897 0
M  V30 13481 H 1309.87 2.27691 6.56644 0
M  V30 13482 H 1313.06 1.25658 4.50919 0
M  V30 13483 H 1313.23 1.98157 6.16958 0
M  V30 13484 N 1306.64 -1.55279 0.269478 0
M  V30 13485 C 1307.89 -1.99767 -0.34943 0
M  V30 13486 C 1308.22 -1.15762 -1.55926 0
M  V30 13487 O 1307.49 -0.22633 -1.93179 0
M  V30 13488 C 1307.78 -3.52474 -0.73716 0
M  V30 13489 C 1307.63 -4.47236 0.479621 0
M  V30 13490 C 1308.95 -4.10924 -1.57573 0
M  V30 13491 H 1306.07 -0.72623 -0.125535 0
M  V30 13492 H 1308.71 -1.86257 0.375298 0
M  V30 13493 H 1306.86 -3.64118 -1.35464 0
M  V30 13494 H 1308.53 -4.47543 1.11816 0
M  V30 13495 H 1306.78 -4.19127 1.11871 0
M  V30 13496 H 1307.45 -5.51754 0.164653 0
M  V30 13497 H 1309.92 -4.02522 -1.05429 0
M  V30 13498 H 1308.8 -5.17995 -1.81584 0
M  V30 13499 H 1309.06 -3.60798 -2.55495 0
M  V30 13500 N 1308.12 0.00332656 -1.576 0
M  V30 13501 C 1309.4 0.725722 -1.81639 0
M  V30 13502 C 1309.78 1.92173 -0.87365 0
M  V30 13503 O 1309.12 2.28365 0.0783931 0
M  V30 13504 C 1309.33 1.13458 -3.30043 0
M  V30 13505 C 1310.68 1.53982 -3.95695 0
M  V30 13506 O 1311.71 1.22846 -3.34346 0
M  V30 13507 O 1310.56 2.11866 -5.03761 0
M  V30 13508 H 1307.66 0.353083 -0.747838 0
M  V30 13509 H 1310.2 -0.0218724 -1.69686 0
M  V30 13510 H 1308.98 0.281925 -3.90283 0
M  V30 13511 H 1308.6 1.94138 -3.46982 0
M  V30 13512 N 1309.6 1.55164 0.276031 0
M  V30 13513 C 1310.56 1.87065 1.32436 0
M  V30 13514 C 1311.56 0.745024 1.42499 0
M  V30 13515 O 1312.75 1.01321 1.41702 0
M  V30 13516 C 1309.88 2.07322 2.70611 0
M  V30 13517 H 1311.07 2.80775 1.05382 0
M  V30 13518 H 1308.63 1.47609 0.513947 0
M  V30 13519 H 1309.36 1.15983 3.0285 0
M  V30 13520 H 1309.15 2.89275 2.64693 0
M  V30 13521 H 1310.64 2.33287 3.46362 0
M  V30 13522 N 1311.07 -0.540404 1.48045 0
M  V30 13523 C 1312.02 -1.64191 1.58194 0
M  V30 13524 C 1313.01 -1.54775 0.439703 0
M  V30 13525 O 1314.2 -1.62973 0.690572 0
M  V30 13526 C 1311.33 -3.02937 1.61505 0
M  V30 13527 C 1310.42 -3.17495 2.81172 0
M  V30 13528 N 1310.81 -3.02061 4.05701 0
M  V30 13529 C 1309.1 -3.4853 2.78286 0
M  V30 13530 C 1309.81 -3.19757 4.85932 0
M  V30 13531 N 1308.78 -3.46859 4.18557 0
M  V30 13532 H 1312.58 -1.50852 2.52232 0
M  V30 13533 H 1310.1 -0.745602 1.44272 0
M  V30 13534 H 1312.09 -3.82048 1.66868 0
M  V30 13535 H 1310.75 -3.17376 0.685753 0
M  V30 13536 H 1311.77 -2.79038 4.363 0
M  V30 13537 H 1308.44 -3.69391 1.94567 0
M  V30 13538 H 1309.83 -3.1265 5.94727 0
M  V30 13539 N 1312.55 -1.36459 -0.788468 0
M  V30 13540 C 1313.8 -1.30483 -1.54333 0
M  V30 13541 C 1314.12 0.115266 -1.94659 0
M  V30 13542 O 1313.39 1.05573 -1.65019 0
M  V30 13543 H 1311.97 -0.480004 -0.572368 0
M  V30 13544 H 1314.63 -1.70765 -0.939428 0
M  V30 13545 H 1313.73 -1.93284 -2.45046 0
M  V30 13546 N 1314.03 1.01274 -1.20754 0
M  V30 13547 C 1315.27 1.7647 -1.03139 0
M  V30 13548 C 1315.63 1.87157 0.428531 0
M  V30 13549 O 1316.84 2.58839 0.724973 0
M  V30 13550 C 1315.11 3.14346 -1.70063 0
M  V30 13551 S 1316.67 4.05531 -1.67602 0
M  V30 13552 H 1313.48 0.60729 -0.369756 0
M  V30 13553 H 1316.09 1.21232 -1.53372 0
M  V30 13554 H 1314.79 3.04197 -2.75486 0
M  V30 13555 H 1314.32 3.74659 -1.19977 0
M  V30 13556 H 1316.34 4.91071 -0.711623 0
M  V30 13557 N 1315.51 1.01404 1.20644 0
M  V30 13558 C 1316.79 0.617088 1.85611 0
M  V30 13559 C 1317.17 -0.904947 1.9072 0
M  V30 13560 O 1316.51 -1.79562 1.41315 0
M  V30 13561 C 1316.72 1.26193 3.25386 0
M  V30 13562 C 1318.07 1.37575 4.01694 0
M  V30 13563 O 1319.1 1.21795 3.34731 0
M  V30 13564 O 1317.96 1.6305 5.2161 0
M  V30 13565 H 1315.05 0.212579 0.799211 0
M  V30 13566 H 1317.6 1.11126 1.28254 0
M  V30 13567 H 1316.37 2.30206 3.16419 0
M  V30 13568 H 1315.99 0.754679 3.90372 0
M  V30 13569 N 1316.99 -1.36373 0.789944 0
M  V30 13570 C 1318.22 -2.03482 0.37453 0
M  V30 13571 C 1318.63 -1.59562 -1.00923 0
M  V30 13572 O 1317.99 -0.785289 -1.64741 0
M  V30 13573 C 1318.04 -3.58942 0.429255 0
M  V30 13574 O 1317.76 -4.01261 1.75845 0
M  V30 13575 C 1319.26 -4.433 0.00453729 0
M  V30 13576 H 1316.48 -0.653019 0.154295 0
M  V30 13577 H 1319.02 -1.74339 1.06894 0
M  V30 13578 H 1317.18 -3.86793 -0.21674 0
M  V30 13579 H 1317.59 -4.95854 1.70964 0
M  V30 13580 H 1319.07 -5.5192 0.0939653 0
M  V30 13581 H 1319.54 -4.26509 -1.04816 0
M  V30 13582 H 1320.15 -4.20712 0.623041 0
M  V30 13583 N 1318.47 -0.542005 -1.47987 0
M  V30 13584 C 1319.71 -0.010246 -2.01697 0
M  V30 13585 C 1320.03 1.34173 -1.42327 0
M  V30 13586 O 1321.23 1.96254 -1.87607 0
M  V30 13587 C 1319.69 0.0321032 -3.59886 0
M  V30 13588 C 1319.3 -1.31571 -4.28244 0
M  V30 13589 C 1321.04 0.512056 -4.214 0
M  V30 13590 C 1318.95 -1.23329 -5.78398 0
M  V30 13591 H 1317.88 -6.02097e-05 -0.754 0
M  V30 13592 H 1320.53 -0.687586 -1.70131 0
M  V30 13593 H 1318.91 0.774774 -3.88347 0
M  V30 13594 H 1320.09 -2.07489 -4.11442 0
M  V30 13595 H 1318.4 -1.73237 -3.78653 0
M  V30 13596 H 1321 0.591875 -5.31414 0
M  V30 13597 H 1321.34 1.52061 -3.87535 0
M  V30 13598 H 1321.87 -0.175293 -3.97414 0
M  V30 13599 H 1318.61 -2.21737 -6.16857 0
M  V30 13600 H 1318.13 -0.51567 -5.97579 0
M  V30 13601 H 1319.81 -0.928975 -6.40296 0
M  V30 13602 N 1319.94 1.55134 -0.277709 0
M  V30 13603 C 1320.91 2.21327 0.595569 0
M  V30 13604 C 1321.91 1.19193 1.07933 0
M  V30 13605 O 1323.1 1.44081 0.979093 0
M  V30 13606 C 1320.23 2.88127 1.82196 0
M  V30 13607 H 1321.42 2.99895 0.0175855 0
M  V30 13608 H 1318.97 1.56274 -0.0283453 0
M  V30 13609 H 1319.71 2.13578 2.44039 0
M  V30 13610 H 1319.49 3.62974 1.48297 0
M  V30 13611 H 1320.98 3.38691 2.44291 0
M  V30 13612 N 1321.42 0.00503138 1.57599 0
M  V30 13613 C 1322.84 -0.351109 1.5569 0
M  V30 13614 C 1323.04 -1.74465 1.00818 0
M  V30 13615 O 1322.09 -2.44144 0.64422 0
M  V30 13616 C 1323.41 -0.221738 2.99881 0
M  V30 13617 C 1324.95 -0.296303 3.11594 0
M  V30 13618 C 1325.43 -0.195998 4.5758 0
M  V30 13619 N 1326.92 -0.253741 4.62504 0
M  V30 13620 C 1327.66 -0.199546 5.73053 0
M  V30 13621 N 1327.15 -0.0956553 6.92734 0
M  V30 13622 N 1328.94 -0.251779 5.61536 0
M  V30 13623 H 1321.1 0.916578 1.91605 0
M  V30 13624 H 1323.36 0.351802 0.880306 0
M  V30 13625 H 1323.06 0.737255 3.43886 0
M  V30 13626 H 1322.94 -1.00178 3.63654 0
M  V30 13627 H 1325.33 -1.24574 2.67517 0
M  V30 13628 H 1325.41 0.513692 2.50589 0
M  V30 13629 H 1325.05 0.749918 5.02333 0
M  V30 13630 H 1324.98 -1.02455 5.16537 0
M  V30 13631 H 1327.47 -0.335163 3.76411 0
M  V30 13632 H 1327.78 -0.0603357 7.72776 0
M  V30 13633 H 1326.13 -0.0612113 6.94973 0
M  V30 13634 H 1329.32 -0.331173 4.66927 0
M  V30 13635 H 1329.49 -0.206078 6.47672 0
M  V30 13636 N 1322.9 -1.55308 -0.267798 0
M  V30 13637 C 1324.14 -1.77913 -1.0063 0
M  V30 13638 C 1324.5 -0.571149 -1.83308 0
M  V30 13639 O 1325.7 -0.675552 -2.60173 0
M  V30 13640 C 1323.98 -3.05112 -1.86123 0
M  V30 13641 S 1325.53 -3.48856 -2.66167 0
M  V30 13642 H 1322.35 -0.625065 -0.338843 0
M  V30 13643 H 1324.95 -1.93539 -0.276196 0
M  V30 13644 H 1323.66 -3.91118 -1.24317 0
M  V30 13645 H 1323.19 -2.92165 -2.63444 0
M  V30 13646 H 1325.2 -3.0854 -3.8861 0
M  V30 13647 N 1324.38 0.532545 -1.4833 0
M  V30 13648 C 1325.33 1.65832 -1.63103 0
M  V30 13649 C 1326.32 1.61929 -0.497538 0
M  V30 13650 O 1327.53 1.66817 -0.676176 0
M  V30 13651 H 1323.9 0.549152 -0.513748 0
M  V30 13652 H 1325.87 1.50515 -2.57658 0
M  V30 13653 C 1324.62 3.04113 -1.68555 0
M  V30 13654 H 1323.94 3.07809 -2.55135 0
M  V30 13655 H 1325.38 3.82506 -1.82936 0
M  V30 13656 C 1323.84 3.34225 -0.423711 0
M  V30 13657 O 1324.37 3.99005 0.464523 0
M  V30 13658 N 1322.58 2.89087 -0.296192 0
M  V30 13659 H 1322.13 2.36547 -1.01997 0
M  V30 13660 H 1322.08 3.09604 0.547082 0
M  V30 13661 N 1325.86 1.36875 0.78122 0
M  V30 13662 C 1327.1 1.32949 1.55254 0
M  V30 13663 C 1327.46 -0.0879862 1.91798 0
M  V30 13664 O 1328.66 -0.251878 2.67617 0
M  V30 13665 C 1326.93 2.23382 2.78989 0
M  V30 13666 S 1328.49 2.37218 3.69152 0
M  V30 13667 H 1325.31 0.472105 0.531637 0
M  V30 13668 H 1327.91 1.72529 0.91945 0
M  V30 13669 H 1326.61 3.25307 2.50207 0
M  V30 13670 H 1326.15 1.84852 3.47266 0
M  V30 13671 H 1328.16 1.57575 4.70515 0
M  V30 13672 N 1327.33 -1.00632 1.21289 0
M  V30 13673 C 1328.75 -1.26744 0.969956 0
M  V30 13674 C 1328.95 -1.98534 -0.344449 0
M  V30 13675 O 1328.01 -2.28687 -1.07044 0
M  V30 13676 C 1329.32 -2.09238 2.15963 0
M  V30 13677 C 1330.87 -2.22469 2.20174 0
M  V30 13678 C 1331.34 -3.08344 3.38656 0
M  V30 13679 N 1332.83 -3.15932 3.38734 0
M  V30 13680 C 1333.57 -3.82632 4.2706 0
M  V30 13681 N 1333.06 -4.51371 5.25582 0
M  V30 13682 N 1334.86 -3.79259 4.14872 0
M  V30 13683 H 1327.01 -0.524626 2.05819 0
M  V30 13684 H 1329.27 -0.294231 0.901184 0
M  V30 13685 H 1328.98 -1.63835 3.11209 0
M  V30 13686 H 1328.85 -3.09987 2.14914 0
M  V30 13687 H 1331.24 -2.67091 1.25485 0
M  V30 13688 H 1331.32 -1.21194 2.25268 0
M  V30 13689 H 1330.96 -2.64425 4.33638 0
M  V30 13690 H 1330.89 -4.0973 3.30801 0
M  V30 13691 H 1333.38 -2.66998 2.67434 0
M  V30 13692 H 1333.7 -4.99966 5.89283 0
M  V30 13693 H 1332.04 -4.50162 5.29508 0
M  V30 13694 H 1335.23 -3.2471 3.37166 0
M  V30 13695 H 1335.41 -4.30963 4.83916 0
M  V30 13696 N 1328.81 -1.02043 -1.20104 0
M  V30 13697 C 1330.04 -0.731142 -1.94085 0
M  V30 13698 C 1330.46 0.702467 -1.74491 0
M  V30 13699 O 1329.82 1.48387 -1.04168 0
M  V30 13700 C 1329.87 -1.07691 -3.44144 0
M  V30 13701 O 1328.97 -0.190751 -4.11959 0
M  V30 13702 H 1328.31 -0.270917 -0.606218 0
M  V30 13703 H 1330.84 -1.36483 -1.52426 0
M  V30 13704 H 1330.85 -1.03023 -3.94779 0
M  V30 13705 H 1329.53 -2.1214 -3.57728 0
M  V30 13706 H 1328.1 -0.29529 -3.71729 0
M  V30 13707 N 1330.29 1.35952 -0.797165 0
M  V30 13708 C 1331.54 1.98639 -0.372405 0
M  V30 13709 C 1331.86 1.63571 1.06158 0
M  V30 13710 O 1331.13 0.913516 1.73297 0
M  V30 13711 H 1329.71 0.734753 -0.13471 0
M  V30 13712 H 1332.37 1.66022 -1.02092 0
M  V30 13713 H 1331.47 3.08533 -0.47049 0
M  V30 13714 N 1331.77 0.549846 1.47697 0
M  V30 13715 C 1333.02 0.0209424 2.01689 0
M  V30 13716 C 1333.33 -1.33417 1.43036 0
M  V30 13717 O 1334.54 -1.95257 1.88646 0
M  V30 13718 C 1332.99 -0.0130171 3.59898 0
M  V30 13719 C 1332.6 1.3384 4.2754 0
M  V30 13720 C 1334.34 -0.489701 4.21666 0
M  V30 13721 C 1332.25 1.26395 5.77735 0
M  V30 13722 H 1331.18 0.00405885 0.753989 0
M  V30 13723 H 1333.83 0.696599 1.69764 0
M  V30 13724 H 1332.21 -0.754168 3.88752 0
M  V30 13725 H 1333.39 2.09668 4.10336 0
M  V30 13726 H 1331.7 1.75242 3.77729 0
M  V30 13727 H 1334.3 -0.563684 5.31721 0
M  V30 13728 H 1334.64 -1.50004 3.88336 0
M  V30 13729 H 1335.18 0.196366 3.97315 0
M  V30 13730 H 1331.92 2.25005 6.15673 0
M  V30 13731 H 1331.44 0.547353 5.97297 0
M  V30 13732 H 1333.11 0.962918 6.39794 0
M  V30 13733 N 1333.25 -1.54984 0.285932 0
M  V30 13734 C 1334.48 -2.03943 -0.330295 0
M  V30 13735 C 1334.88 -1.16336 -1.49207 0
M  V30 13736 O 1334.23 -0.178341 -1.82832 0
M  V30 13737 C 1334.29 -3.48976 -0.863479 0
M  V30 13738 C 1333.95 -4.5668 0.171058 0
M  V30 13739 C 1334.95 -5.10303 0.994329 0
M  V30 13740 C 1332.64 -5.01352 0.308416 0
M  V30 13741 C 1334.63 -6.07126 1.94104 0
M  V30 13742 C 1332.32 -5.97999 1.25859 0
M  V30 13743 C 1333.31 -6.50768 2.0734 0
M  V30 13744 O 1333 -7.45524 3.00749 0
M  V30 13745 H 1332.73 -0.671491 -0.0779452 0
M  V30 13746 H 1335.29 -2.01081 0.419011 0
M  V30 13747 H 1333.52 -3.49113 -1.66305 0
M  V30 13748 H 1335.21 -3.81213 -1.39396 0
M  V30 13749 H 1335.97 -4.76595 0.899002 0
M  V30 13750 H 1331.85 -4.59917 -0.315817 0
M  V30 13751 H 1335.4 -6.48239 2.57743 0
M  V30 13752 H 1331.29 -6.31125 1.35469 0
M  V30 13753 H 1332.06 -7.63276 2.95554 0
M  V30 13754 N 1334.72 -0.0133892 -1.57594 0
M  V30 13755 C 1335.95 0.67827 -1.95149 0
M  V30 13756 C 1336.36 1.67089 -0.887572 0
M  V30 13757 O 1335.71 1.8316 0.140774 0
M  V30 13758 C 1335.77 1.45441 -3.28766 0
M  V30 13759 C 1335.43 0.621889 -4.52749 0
M  V30 13760 C 1336.43 -0.0961541 -5.19811 0
M  V30 13761 C 1334.11 0.563917 -4.99124 0
M  V30 13762 C 1336.11 -0.86101 -6.31558 0
M  V30 13763 C 1333.79 -0.204654 -6.10757 0
M  V30 13764 C 1334.79 -0.915839 -6.76832 0
M  V30 13765 O 1334.48 -1.67184 -7.86323 0
M  V30 13766 H 1334.21 0.192983 -0.647869 0
M  V30 13767 H 1336.77 -0.0646816 -2.05298 0
M  V30 13768 H 1335 2.24215 -3.15063 0
M  V30 13769 H 1336.69 2.03268 -3.51336 0
M  V30 13770 H 1337.45 -0.0606029 -4.84962 0
M  V30 13771 H 1333.33 1.10702 -4.47511 0
M  V30 13772 H 1336.87 -1.41664 -6.83064 0
M  V30 13773 H 1332.77 -0.241979 -6.45046 0
M  V30 13774 H 1333.54 -1.58996 -8.02909 0
M  V30 13775 N 1336.2 1.55448 0.259558 0
M  V30 13776 C 1337.44 1.78444 0.996849 0
M  V30 13777 C 1337.81 0.580862 1.83003 0
M  V30 13778 O 1339.01 0.68934 2.59811 0
M  V30 13779 C 1337.28 3.06094 1.84502 0
M  V30 13780 S 1338.84 3.50263 2.64313 0
M  V30 13781 H 1335.66 0.626854 0.335523 0
M  V30 13782 H 1338.26 1.93683 0.265929 0
M  V30 13783 H 1336.96 3.91772 1.22241 0
M  V30 13784 H 1336.49 2.93558 2.61891 0
M  V30 13785 H 1338.51 3.10596 3.86968 0
M  V30 13786 N 1337.68 -0.524672 1.4861 0
M  V30 13787 C 1338.63 -1.62872 1.63527 0
M  V30 13788 C 1339.6 -1.59097 0.477202 0
M  V30 13789 O 1340.78 -1.77443 0.701341 0
M  V30 13790 C 1337.92 -3.01116 1.68592 0
M  V30 13791 C 1337.04 -3.15085 2.95542 0
M  V30 13792 C 1336.17 -4.4392 2.91734 0
M  V30 13793 C 1335.21 -4.51436 4.13366 0
M  V30 13794 N 1334.35 -5.71667 4.07605 0
M  V30 13795 H 1339.19 -1.49462 2.57808 0
M  V30 13796 H 1336.72 -0.727578 1.27846 0
M  V30 13797 H 1338.68 -3.81212 1.6951 0
M  V30 13798 H 1337.31 -3.13285 0.777975 0
M  V30 13799 H 1336.36 -2.28207 3.04345 0
M  V30 13800 H 1337.68 -3.165 3.85524 0
M  V30 13801 H 1336.83 -5.32312 2.91083 0
M  V30 13802 H 1335.57 -4.45034 1.9949 0
M  V30 13803 H 1334.57 -3.6145 4.14287 0
M  V30 13804 H 1335.8 -4.52057 5.06776 0
M  V30 13805 H 1333.74 -5.73668 3.18184 0
M  V30 13806 H 1333.66 -5.74599 4.91297 0
M  V30 13807 H 1334.93 -6.62331 4.1102 0
M  V30 13808 N 1339.16 -1.37287 -0.77395 0
M  V30 13809 C 1340.38 -1.35734 -1.56815 0
M  V30 13810 C 1340.81 0.0555546 -1.88018 0
M  V30 13811 O 1340.17 1.03197 -1.49064 0
M  V30 13812 C 1340.21 -2.2008 -2.85652 0
M  V30 13813 O 1339.32 -1.60391 -3.79932 0
M  V30 13814 H 1338.66 -0.463881 -0.47509 0
M  V30 13815 H 1341.19 -1.80781 -0.958087 0
M  V30 13816 H 1341.2 -2.33215 -3.34776 0
M  V30 13817 H 1339.87 -3.22781 -2.6227 0
M  V30 13818 H 1338.45 -1.56285 -3.3857 0
M  V30 13819 N 1340.64 0.999871 -1.21821 0
M  V30 13820 C 1341.86 1.77405 -1.06467 0
M  V30 13821 C 1342.28 1.84828 0.385227 0
M  V30 13822 O 1341.64 1.31338 1.26714 0
M  V30 13823 C 1341.69 3.21062 -1.66137 0
M  V30 13824 O 1341.41 3.14054 -3.05454 0
M  V30 13825 C 1342.91 4.14958 -1.55963 0
M  V30 13826 H 1340.13 0.557368 -0.373607 0
M  V30 13827 H 1342.67 1.2575 -1.61267 0
M  V30 13828 H 1340.83 3.69808 -1.15416 0
M  V30 13829 H 1341.24 4.04346 -3.34073 0
M  V30 13830 H 1342.72 5.13536 -2.02448 0
M  V30 13831 H 1343.19 4.36171 -0.514949 0
M  V30 13832 H 1343.8 3.72105 -2.05956 0
M  V30 13833 N 1342.11 1.02678 1.19562 0
M  V30 13834 C 1343.08 0.610407 2.20922 0
M  V30 13835 C 1344.08 -0.324858 1.57484 0
M  V30 13836 O 1345.27 -0.112153 1.73839 0
M  V30 13837 C 1342.4 -0.107115 3.40732 0
M  V30 13838 H 1343.59 1.50722 2.59274 0
M  V30 13839 H 1341.15 0.817725 1.33203 0
M  V30 13840 H 1341.88 -1.01837 3.07896 0
M  V30 13841 H 1341.67 0.564901 3.88009 0
M  V30 13842 H 1343.16 -0.385423 4.15818 0
M  V30 13843 N 1343.59 -1.35528 0.804364 0
M  V30 13844 C 1344.54 -2.29832 0.211186 0
M  V30 13845 C 1345.51 -1.52704 -0.653503 0
M  V30 13846 O 1346.69 -1.81152 -0.599052 0
M  V30 13847 C 1343.83 -3.39188 -0.636054 0
M  V30 13848 C 1342.95 -4.31283 0.248824 0
M  V30 13849 C 1342.08 -5.2773 -0.60621 0
M  V30 13850 C 1341.12 -6.11463 0.279205 0
M  V30 13851 N 1340.26 -7.00054 -0.535672 0
M  V30 13852 H 1345.1 -2.79971 1.0208 0
M  V30 13853 H 1342.64 -1.37793 0.514931 0
M  V30 13854 H 1344.59 -4.01254 -1.14241 0
M  V30 13855 H 1343.22 -2.90331 -1.41095 0
M  V30 13856 H 1342.28 -3.70241 0.873263 0
M  V30 13857 H 1343.59 -4.90046 0.930417 0
M  V30 13858 H 1342.74 -5.95158 -1.17778 0
M  V30 13859 H 1341.48 -4.69458 -1.32138 0
M  V30 13860 H 1340.49 -5.42984 0.863066 0
M  V30 13861 H 1341.71 -6.71813 0.9922 0
M  V30 13862 H 1339.66 -6.44273 -1.23486 0
M  V30 13863 H 1339.57 -7.55949 0.0879213 0
M  V30 13864 H 1340.84 -7.71833 -1.09059 0
M  V30 13865 N 1345.07 -0.557671 -1.47404 0
M  V30 13866 C 1346.02 0.210176 -2.27029 0
M  V30 13867 C 1347.01 0.884882 -1.34382 0
M  V30 13868 O 1348.2 0.783112 -1.58734 0
M  V30 13869 C 1345.33 1.23923 -3.20153 0
M  V30 13870 C 1344.41 0.567913 -4.2028 0
M  V30 13871 N 1344.8 -0.362279 -5.04501 0
M  V30 13872 C 1343.1 0.821776 -4.38364 0
M  V30 13873 C 1343.8 -0.752273 -5.76815 0
M  V30 13874 N 1342.78 -0.107008 -5.43495 0
M  V30 13875 H 1346.58 -0.505007 -2.89529 0
M  V30 13876 H 1344.09 -0.377642 -1.57948 0
M  V30 13877 H 1346.09 1.80328 -3.75882 0
M  V30 13878 H 1344.75 1.9555 -2.59211 0
M  V30 13879 H 1345.76 -0.736468 -5.12637 0
M  V30 13880 H 1342.44 1.52652 -3.88592 0
M  V30 13881 H 1343.83 -1.51664 -6.54559 0
M  V30 13882 N 1346.55 1.54831 -0.294147 0
M  V30 13883 C 1347.78 2.04115 0.319474 0
M  V30 13884 C 1348.19 1.17125 1.48588 0
M  V30 13885 O 1347.53 0.188034 1.82735 0
M  V30 13886 C 1347.59 3.49429 0.84496 0
M  V30 13887 C 1347.26 4.56583 -0.195275 0
M  V30 13888 C 1348.25 5.09768 -1.02138 0
M  V30 13889 C 1345.94 5.01182 -0.335 0
M  V30 13890 C 1347.93 6.06088 -1.97321 0
M  V30 13891 C 1345.62 5.97323 -1.29029 0
M  V30 13892 C 1346.62 6.49659 -2.10788 0
M  V30 13893 O 1346.31 7.43918 -3.04698 0
M  V30 13894 H 1346.04 0.671895 0.074383 0
M  V30 13895 H 1348.59 2.00856 -0.429669 0
M  V30 13896 H 1346.82 3.4999 1.64451 0
M  V30 13897 H 1348.51 3.81947 1.37372 0
M  V30 13898 H 1349.28 4.76112 -0.924264 0
M  V30 13899 H 1345.16 4.60078 0.291422 0
M  V30 13900 H 1348.7 6.46863 -2.61177 0
M  V30 13901 H 1344.6 6.30397 -1.38815 0
M  V30 13902 H 1345.36 7.61698 -2.99598 0
M  V30 13903 N 1348.03 0.0217466 1.57585 0
M  V30 13904 C 1349.44 -0.51811 1.79367 0
M  V30 13905 C 1349.79 -1.72688 0.931313 0
M  V30 13906 O 1348.91 -2.15949 0.139687 0
M  V30 13907 C 1349.51 -0.946711 3.25304 0
M  V30 13908 C 1348.07 -1.43173 3.48107 0
M  V30 13909 C 1347.22 -0.392996 2.74501 0
M  V30 13910 H 1350.17 0.247822 1.56753 0
M  V30 13911 H 1350.19 -1.81152 3.34611 0
M  V30 13912 H 1349.7 -0.0667536 3.88043 0
M  V30 13913 H 1347.8 -2.33186 2.90612 0
M  V30 13914 H 1347.91 -1.44419 4.56815 0
M  V30 13915 H 1346.28 -0.859471 2.39761 0
M  V30 13916 H 1347.06 0.478368 3.39951 0
M  V30 13917 N 1349.51 -1.55583 -0.251311 0
M  V30 13918 C 1350.75 -1.76411 -0.977859 0
M  V30 13919 C 1351.07 -0.584857 -1.86651 0
M  V30 13920 O 1352.27 -0.676046 -2.62948 0
M  V30 13921 C 1350.73 -3.12302 -1.78872 0
M  V30 13922 C 1350.34 -4.37862 -0.947674 0
M  V30 13923 C 1352.08 -3.42471 -2.50827 0
M  V30 13924 C 1349.99 -5.64786 -1.75417 0
M  V30 13925 H 1348.92 -0.657628 -0.368839 0
M  V30 13926 H 1351.57 -1.82019 -0.232682 0
M  V30 13927 H 1349.95 -3.0079 -2.57569 0
M  V30 13928 H 1351.13 -4.60351 -0.203352 0
M  V30 13929 H 1349.44 -4.14996 -0.341666 0
M  V30 13930 H 1352.04 -4.34514 -3.11612 0
M  V30 13931 H 1352.38 -2.63592 -3.22219 0
M  V30 13932 H 1352.91 -3.55179 -1.79145 0
M  V30 13933 H 1349.65 -6.46474 -1.08407 0
M  V30 13934 H 1349.17 -5.46405 -2.47389 0
M  V30 13935 H 1350.85 -6.03881 -2.32242 0
M  V30 13936 N 1350.98 0.516783 -1.48886 0
M  V30 13937 C 1352.23 1.27375 -1.57808 0
M  V30 13938 C 1352.56 1.92492 -0.256963 0
M  V30 13939 O 1351.84 1.79947 0.738193 0
M  V30 13940 C 1352.12 2.35295 -2.72595 0
M  V30 13941 C 1351.97 1.74783 -4.14453 0
M  V30 13942 C 1353.29 3.36973 -2.83085 0
M  V30 13943 H 1350.41 0.46175 -0.574418 0
M  V30 13944 H 1353.05 0.57434 -1.81111 0
M  V30 13945 H 1351.2 2.94951 -2.52857 0
M  V30 13946 H 1352.88 1.19076 -4.45666 0
M  V30 13947 H 1351.12 1.05258 -4.20836 0
M  V30 13948 H 1351.79 2.52985 -4.90615 0
M  V30 13949 H 1354.27 2.87289 -3.01005 0
M  V30 13950 H 1353.14 4.09864 -3.65106 0
M  V30 13951 H 1353.4 3.98336 -1.91784 0
M  V30 13952 N 1352.46 1.37696 0.766659 0
M  V30 13953 C 1353.71 1.33382 1.52765 0
M  V30 13954 C 1354.04 -0.0800569 1.94035 0
M  V30 13955 O 1353.32 -1.03848 1.64456 0
M  V30 13956 C 1353.6 2.2776 2.78922 0
M  V30 13957 C 1353.45 3.77949 2.43874 0
M  V30 13958 C 1354.77 2.20494 3.80881 0
M  V30 13959 H 1351.89 0.485836 0.554195 0
M  V30 13960 H 1354.53 1.68438 0.879119 0
M  V30 13961 H 1352.68 1.97994 3.34261 0
M  V30 13962 H 1354.35 4.18333 1.9441 0
M  V30 13963 H 1352.6 3.96269 1.76503 0
M  V30 13964 H 1353.27 4.39428 3.34077 0
M  V30 13965 H 1355.74 2.46742 3.35048 0
M  V30 13966 H 1354.62 2.88663 4.66867 0
M  V30 13967 H 1354.88 1.19951 4.25516 0
M  V30 13968 N 1353.94 -0.993397 1.22349 0
M  V30 13969 C 1355.17 -1.76838 1.07406 0
M  V30 13970 C 1355.58 -1.8503 -0.37542 0
M  V30 13971 O 1354.94 -1.32008 -1.26016 0
M  V30 13972 C 1354.99 -3.20177 1.67837 0
M  V30 13973 O 1354.71 -3.12429 3.07115 0
M  V30 13974 C 1356.21 -4.14125 1.58161 0
M  V30 13975 H 1353.43 -0.555379 0.376557 0
M  V30 13976 H 1355.98 -1.24893 1.61932 0
M  V30 13977 H 1354.13 -3.69191 1.17375 0
M  V30 13978 H 1354.55 -4.02568 3.36213 0
M  V30 13979 H 1356.02 -5.12455 2.05169 0
M  V30 13980 H 1356.5 -4.35892 0.538073 0
M  V30 13981 H 1357.1 -3.71008 2.07926 0
M  V30 13982 N 1355.42 -1.03311 -1.19015 0
M  V30 13983 C 1356.83 -0.761079 -1.70483 0
M  V30 13984 C 1357.18 0.718851 -1.82557 0
M  V30 13985 O 1356.3 1.56006 -1.4997 0
M  V30 13986 C 1356.9 -1.37492 -3.09647 0
M  V30 13987 C 1355.46 -1.15138 -3.58358 0
M  V30 13988 C 1354.61 -1.47034 -2.35109 0
M  V30 13989 H 1357.56 -1.2005 -1.03797 0
M  V30 13990 H 1357.58 -0.774115 -3.72542 0
M  V30 13991 H 1357.09 -2.45203 -3.00828 0
M  V30 13992 H 1355.19 -0.0926822 -3.72485 0
M  V30 13993 H 1355.3 -1.84307 -4.4223 0
M  V30 13994 H 1353.67 -0.889794 -2.38652 0
M  V30 13995 H 1354.45 -2.55837 -2.28916 0
M  V30 13996 N 1356.9 1.35099 -0.81154 0
M  V30 13997 C 1358.31 1.81082 -0.454543 0
M  V30 13998 C 1358.66 1.67361 1.02395 0
M  V30 13999 O 1357.78 1.20707 1.79607 0
M  V30 14000 C 1358.38 3.2877 -0.818274 0
M  V30 14001 C 1356.94 3.72877 -0.513808 0
M  V30 14002 C 1356.08 2.57008 -1.04125 0
M  V30 14003 H 1359.03 1.23007 -1.00274 0
M  V30 14004 H 1359.06 3.80318 -0.117683 0
M  V30 14005 H 1358.57 3.38725 -1.89439 0
M  V30 14006 H 1356.67 3.68468 0.553368 0
M  V30 14007 H 1356.78 4.67455 -1.0499 0
M  V30 14008 H 1355.15 2.5045 -0.463337 0
M  V30 14009 H 1355.93 2.69738 -2.12358 0
M  V30 14010 N 1358.37 0.56548 1.47106 0
M  V30 14011 C 1359.6 0.0476763 2.07345 0
M  V30 14012 C 1360.02 -1.24032 1.41413 0
M  V30 14013 O 1359.38 -1.74498 0.491941 0
M  V30 14014 C 1359.43 -0.122618 3.60391 0
M  V30 14015 O 1358.53 -1.18326 3.9506 0
M  V30 14016 H 1357.87 0.0550419 0.661715 0
M  V30 14017 H 1360.4 0.78352 1.89003 0
M  V30 14018 H 1360.41 -0.334227 4.06629 0
M  V30 14019 H 1359.09 0.81807 4.07775 0
M  V30 14020 H 1357.67 -0.951481 3.60557 0
M  V30 14021 N 1359.85 -1.54672 0.302354 0
M  V30 14022 C 1361.1 -1.99345 -0.307307 0
M  V30 14023 C 1361.41 -1.19437 -1.549 0
M  V30 14024 O 1362.62 -1.54384 -2.23334 0
M  V30 14025 C 1361.08 -3.54896 -0.59808 0
M  V30 14026 C 1360.68 -4.43614 0.625357 0
M  V30 14027 C 1362.43 -4.08091 -1.16886 0
M  V30 14028 C 1360.34 -5.90599 0.307661 0
M  V30 14029 H 1359.27 -0.744614 -0.118603 0
M  V30 14030 H 1361.92 -1.78832 0.411271 0
M  V30 14031 H 1360.3 -3.71314 -1.37629 0
M  V30 14032 H 1361.47 -4.38969 1.40152 0
M  V30 14033 H 1359.79 -4.01198 1.11487 0
M  V30 14034 H 1362.38 -5.15477 -1.42082 0
M  V30 14035 H 1362.73 -3.58775 -2.11155 0
M  V30 14036 H 1363.26 -3.9522 -0.452329 0
M  V30 14037 H 1360 -6.44067 1.21895 0
M  V30 14038 H 1359.52 -5.98248 -0.431208 0
M  V30 14039 H 1361.2 -6.46937 -0.0902796 0
M  V30 14040 N 1361.33 -0.0301034 -1.57571 0
M  V30 14041 C 1362.56 0.657533 -1.95857 0
M  V30 14042 C 1362.97 1.66138 -0.905244 0
M  V30 14043 O 1362.31 1.83299 0.12134 0
M  V30 14044 C 1362.37 1.41946 -3.3029 0
M  V30 14045 C 1362.04 0.573834 -4.53383 0
M  V30 14046 C 1363.03 -0.151282 -5.1968 0
M  V30 14047 C 1360.72 0.510947 -4.99695 0
M  V30 14048 C 1362.71 -0.927947 -6.30609 0
M  V30 14049 C 1360.4 -0.269422 -6.10506 0
M  V30 14050 C 1361.4 -0.987575 -6.75822 0
M  V30 14051 O 1361.09 -1.75515 -7.84506 0
M  V30 14052 H 1360.82 0.1861 -0.649879 0
M  V30 14053 H 1363.37 -0.0864526 -2.05218 0
M  V30 14054 H 1361.6 2.20861 -3.17423 0
M  V30 14055 H 1363.29 1.9953 -3.53472 0
M  V30 14056 H 1364.06 -0.112036 -4.84871 0
M  V30 14057 H 1359.94 1.05949 -4.4866 0
M  V30 14058 H 1363.48 -1.48901 -6.81524 0
M  V30 14059 H 1359.38 -0.310381 -6.44753 0
M  V30 14060 H 1360.15 -1.67503 -8.01177 0
M  V30 14061 N 1362.81 1.55714 0.243056 0
M  V30 14062 C 1363.76 1.90638 1.30099 0
M  V30 14063 C 1364.73 0.761049 1.47639 0
M  V30 14064 O 1365.91 1.01505 1.61559 0
M  V30 14065 C 1363.05 2.20985 2.65065 0
M  V30 14066 C 1362.16 3.48343 2.55501 0
M  V30 14067 C 1361.3 3.68241 3.82847 0
M  V30 14068 C 1360.34 4.89187 3.67916 0
M  V30 14069 N 1359.47 5.05586 4.87162 0
M  V30 14070 H 1364.31 2.80857 0.996155 0
M  V30 14071 H 1361.85 1.39027 0.480619 0
M  V30 14072 H 1363.81 2.36585 3.43632 0
M  V30 14073 H 1362.44 1.33966 2.93689 0
M  V30 14074 H 1361.49 3.41054 1.68483 0
M  V30 14075 H 1362.8 4.37057 2.4038 0
M  V30 14076 H 1361.96 3.83822 4.69857 0
M  V30 14077 H 1360.7 2.77768 4.00869 0
M  V30 14078 H 1359.7 4.7358 2.79289 0
M  V30 14079 H 1360.93 5.81124 3.51385 0
M  V30 14080 H 1358.87 4.18051 5.05538 0
M  V30 14081 H 1358.79 5.88395 4.74686 0
M  V30 14082 H 1360.06 5.25582 5.7566 0
M  V30 14083 N 1364.29 -0.50888 1.49158 0
M  V30 14084 C 1365.54 -1.26008 1.57496 0
M  V30 14085 C 1365.85 -1.9382 0.263281 0
M  V30 14086 O 1367.05 -2.70565 0.225117 0
M  V30 14087 C 1365.51 -2.28752 2.7785 0
M  V30 14088 C 1365.12 -1.66915 4.15744 0
M  V30 14089 C 1366.86 -3.0475 2.95513 0
M  V30 14090 C 1364.77 -2.67724 5.27331 0
M  V30 14091 H 1363.7 -0.473984 0.586392 0
M  V30 14092 H 1366.35 -0.534886 1.75531 0
M  V30 14093 H 1364.73 -3.044 2.53292 0
M  V30 14094 H 1365.91 -0.973131 4.50407 0
M  V30 14095 H 1364.22 -1.03336 4.03374 0
M  V30 14096 H 1366.82 -3.80121 3.76048 0
M  V30 14097 H 1367.16 -3.6189 2.05771 0
M  V30 14098 H 1367.69 -2.36217 3.20072 0
M  V30 14099 H 1364.43 -2.15375 6.19107 0
M  V30 14100 H 1363.95 -3.35589 4.97132 0
M  V30 14101 H 1365.63 -3.30304 5.56335 0
M  V30 14102 N 1365.76 -1.381 -0.759346 0
M  V30 14103 C 1366.67 -1.37086 -1.9038 0
M  V30 14104 C 1367.69 -0.268738 -1.71912 0
M  V30 14105 O 1368.87 -0.506205 -1.94935 0
M  V30 14106 C 1365.93 -1.18905 -3.25672 0
M  V30 14107 C 1364.99 -2.3887 -3.56707 0
M  V30 14108 C 1364.23 -2.21546 -4.85544 0
M  V30 14109 O 1364.45 -1.20616 -5.57501 0
M  V30 14110 O 1363.38 -3.10009 -5.15924 0
M  V30 14111 H 1367.21 -2.33505 -1.94188 0
M  V30 14112 H 1364.79 -1.18959 -0.903826 0
M  V30 14113 H 1366.68 -1.10803 -4.06572 0
M  V30 14114 H 1365.35 -0.255675 -3.22689 0
M  V30 14115 H 1364.26 -2.52546 -2.75992 0
M  V30 14116 H 1365.59 -3.30817 -3.64446 0
M  V30 14117 N 1367.24 0.986894 -1.22875 0
M  V30 14118 C 1368.21 2.0597 -1.00544 0
M  V30 14119 C 1369.21 1.60771 0.0303509 0
M  V30 14120 O 1370.4 1.72945 -0.208753 0
M  V30 14121 C 1367.53 3.36911 -0.519962 0
M  V30 14122 H 1368.72 2.27213 -1.9574 0
M  V30 14123 H 1366.27 1.15935 -1.04827 0
M  V30 14124 H 1367.01 3.21355 0.436078 0
M  V30 14125 H 1366.79 3.71054 -1.26732 0
M  V30 14126 H 1368.28 4.15829 -0.384166 0
M  V30 14127 N 1368.72 1.0394 1.18466 0
M  V30 14128 C 1369.67 0.623063 2.241 0
M  V30 14129 C 1370.66 -0.349518 1.65755 0
M  V30 14130 O 1371.87 -0.216947 1.78688 0
M  V30 14131 H 1368.24 0.183263 0.729327 0
M  V30 14132 H 1370.21 1.52439 2.56524 0
M  V30 14133 C 1368.96 0.000626805 3.477 0
M  V30 14134 H 1368.29 0.740056 3.92891 0
M  V30 14135 H 1369.73 -0.253484 4.23242 0
M  V30 14136 C 1368.19 -1.24907 3.1289 0
M  V30 14137 O 1368.72 -2.33996 3.2651 0
M  V30 14138 N 1366.92 -1.14187 2.67226 0
M  V30 14139 H 1366.47 -0.254146 2.56343 0
M  V30 14140 H 1366.43 -1.97893 2.44307 0
M  V30 14141 N 1370.2 -1.34667 0.818693 0
M  V30 14142 C 1371.48 -1.92838 0.327521 0
M  V30 14143 C 1371.86 -1.74732 -1.18457 0
M  V30 14144 O 1371.2 -1.12352 -1.98971 0
M  V30 14145 C 1371.41 -3.40797 0.752207 0
M  V30 14146 C 1372.76 -4.17948 0.748613 0
M  V30 14147 O 1373.79 -3.49364 0.694517 0
M  V30 14148 O 1372.64 -5.40344 0.817958 0
M  V30 14149 H 1369.74 -0.822249 0.0885148 0
M  V30 14150 H 1372.28 -1.43668 0.9032 0
M  V30 14151 H 1371.06 -3.47759 1.79387 0
M  V30 14152 H 1370.68 -3.97309 0.151992 0
M  V30 14153 N 1371.68 -0.573274 -1.46804 0
M  V30 14154 C 1372.91 -0.0605105 -2.06511 0
M  V30 14155 C 1373.31 1.24572 -1.42403 0
M  V30 14156 O 1372.66 1.76182 -0.520168 0
M  V30 14157 C 1372.72 0.189394 -3.59001 0
M  V30 14158 C 1372.38 -1.02981 -4.45246 0
M  V30 14159 C 1373.38 -1.93948 -4.82369 0
M  V30 14160 C 1371.07 -1.249 -4.86524 0
M  V30 14161 C 1373.06 -3.0519 -5.59587 0
M  V30 14162 C 1370.75 -2.36449 -5.63503 0
M  V30 14163 C 1371.74 -3.26424 -5.99947 0
M  V30 14164 O 1371.43 -4.36037 -6.75372 0
M  V30 14165 H 1371.16 -0.0501758 -0.674135 0
M  V30 14166 H 1373.72 -0.790951 -1.8956 0
M  V30 14167 H 1371.95 0.974337 -3.74224 0
M  V30 14168 H 1373.64 0.649506 -4.0067 0
M  V30 14169 H 1374.4 -1.78226 -4.51066 0
M  V30 14170 H 1370.28 -0.55779 -4.57613 0
M  V30 14171 H 1373.83 -3.75444 -5.87952 0
M  V30 14172 H 1369.72 -2.52138 -5.94219 0
M  V30 14173 H 1370.49 -4.34285 -6.93786 0
M  V30 14174 N 1373.15 1.5451 -0.310553 0
M  V30 14175 C 1374.38 2.04442 0.297807 0
M  V30 14176 C 1374.79 1.18695 1.47337 0
M  V30 14177 O 1374.14 0.207405 1.82525 0
M  V30 14178 C 1374.2 3.50306 0.807851 0
M  V30 14179 C 1373.86 4.5635 -0.24369 0
M  V30 14180 C 1374.86 5.08656 -1.07539 0
M  V30 14181 C 1372.54 5.00798 -0.388138 0
M  V30 14182 C 1374.54 6.03961 -2.03738 0
M  V30 14183 C 1372.22 5.95921 -1.35357 0
M  V30 14184 C 1373.22 6.47387 -2.17667 0
M  V30 14185 O 1372.91 7.40644 -3.12571 0
M  V30 14186 H 1372.64 0.672646 0.0672525 0
M  V30 14187 H 1375.2 2.00389 -0.450948 0
M  V30 14188 H 1373.43 3.51714 1.6073 0
M  V30 14189 H 1375.12 3.83383 1.33314 0
M  V30 14190 H 1375.88 4.75105 -0.97471 0
M  V30 14191 H 1371.76 4.60361 0.242608 0
M  V30 14192 H 1375.3 6.44057 -2.68023 0
M  V30 14193 H 1371.2 6.2889 -1.45493 0
M  V30 14194 H 1371.97 7.58477 -3.0766 0
M  V30 14195 N 1374.63 0.0384594 1.57553 0
M  V30 14196 C 1376.04 -0.499057 1.79906 0
M  V30 14197 C 1376.4 -1.7169 0.949577 0
M  V30 14198 O 1375.52 -2.15788 0.162584 0
M  V30 14199 C 1376.12 -0.912155 3.2629 0
M  V30 14200 C 1374.67 -1.39473 3.49606 0
M  V30 14201 C 1373.82 -0.363859 2.74902 0
M  V30 14202 H 1376.77 0.264433 1.56481 0
M  V30 14203 H 1376.79 -1.77592 3.36513 0
M  V30 14204 H 1376.31 -0.0255928 3.88092 0
M  V30 14205 H 1374.41 -2.3009 2.93068 0
M  V30 14206 H 1374.52 -1.39566 4.58321 0
M  V30 14207 H 1372.88 -0.833993 2.40659 0
M  V30 14208 H 1373.67 0.514398 3.39424 0
M  V30 14209 N 1376.11 -1.55841 -0.234795 0
M  V30 14210 C 1377.02 -1.94476 -1.31211 0
M  V30 14211 C 1378.04 -0.846782 -1.52005 0
M  V30 14212 O 1379.21 -1.14922 -1.65393 0
M  V30 14213 C 1376.28 -2.24213 -2.64442 0
M  V30 14214 C 1375.34 -3.47508 -2.52065 0
M  V30 14215 C 1374.57 -3.75817 -3.78942 0
M  V30 14216 O 1374.8 -3.06007 -4.81369 0
M  V30 14217 O 1373.73 -4.69328 -3.76848 0
M  V30 14218 H 1377.56 -2.8626 -1.01434 0
M  V30 14219 H 1375.14 -1.42879 -0.436563 0
M  V30 14220 H 1377.02 -2.44594 -3.4315 0
M  V30 14221 H 1375.7 -1.35605 -2.93927 0
M  V30 14222 H 1374.6 -3.32421 -1.71602 0
M  V30 14223 H 1375.94 -4.36457 -2.27523 0
M  V30 14224 N 1377.59 0.500963 -1.49426 0
M  V30 14225 C 1379.01 0.832142 -1.36189 0
M  V30 14226 C 1379.21 1.9759 -0.395014 0
M  V30 14227 O 1378.26 2.51905 0.173294 0
M  V30 14228 C 1379.57 1.17232 -2.76907 0
M  V30 14229 C 1381.12 1.28052 -2.85607 0
M  V30 14230 C 1381.6 1.65399 -4.27092 0
M  V30 14231 N 1383.09 1.72448 -4.29902 0
M  V30 14232 C 1383.82 2.02789 -5.36343 0
M  V30 14233 N 1383.32 2.31354 -6.53029 0
M  V30 14234 N 1385.11 2.0404 -5.23759 0
M  V30 14235 H 1377.26 -0.253253 -2.10885 0
M  V30 14236 H 1379.53 -0.0507111 -0.946643 0
M  V30 14237 H 1379.23 0.405247 -3.49357 0
M  V30 14238 H 1379.11 2.11574 -3.12276 0
M  V30 14239 H 1381.49 2.03831 -2.13394 0
M  V30 14240 H 1381.57 0.317603 -2.53821 0
M  V30 14241 H 1381.22 0.901704 -4.99832 0
M  V30 14242 H 1381.15 2.6279 -4.56343 0
M  V30 14243 H 1383.64 1.52532 -3.45749 0
M  V30 14244 H 1383.95 2.53695 -7.29972 0
M  V30 14245 H 1382.3 2.28811 -6.56255 0
M  V30 14246 H 1385.49 1.812 -4.31606 0
M  V30 14247 H 1385.66 2.27353 -6.06807 0
M  V30 14248 N 1379.07 1.38501 0.752011 0
M  V30 14249 C 1380 1.30236 1.87387 0
M  V30 14250 C 1380.98 0.179099 1.61611 0
M  V30 14251 O 1382.16 0.356686 1.85095 0
M  V30 14252 C 1379.29 1.01829 3.2303 0
M  V30 14253 C 1378.34 2.16114 3.67691 0
M  V30 14254 S 1379.17 3.78266 3.79044 0
M  V30 14255 C 1380.32 3.5205 5.17505 0
M  V30 14256 H 1380.56 2.25185 1.94111 0
M  V30 14257 H 1378.09 1.24356 0.915152 0
M  V30 14258 H 1380.05 0.861231 4.01364 0
M  V30 14259 H 1378.71 0.0859612 3.13982 0
M  V30 14260 H 1377.9 1.91788 4.66083 0
M  V30 14261 H 1377.5 2.27936 2.96515 0
M  V30 14262 H 1379.8 3.08262 6.03308 0
M  V30 14263 H 1380.74 4.49842 5.46853 0
M  V30 14264 H 1381.15 2.86528 4.86377 0
M  V30 14265 N 1380.55 -0.980364 1.23396 0
M  V30 14266 C 1381.48 -2.07522 0.972991 0
M  V30 14267 C 1382.49 -1.62714 -0.0530191 0
M  V30 14268 O 1383.68 -1.77564 0.182513 0
M  V30 14269 C 1380.78 -3.35977 0.444126 0
M  V30 14270 C 1379.95 -4.09756 1.53031 0
M  V30 14271 C 1379.01 -5.16488 1.00631 0
M  V30 14272 O 1378.04 -5.43368 1.69529 0
M  V30 14273 N 1379.24 -5.80263 -0.165842 0
M  V30 14274 H 1382 -2.30487 1.91561 0
M  V30 14275 H 1379.57 -1.14706 1.14255 0
M  V30 14276 H 1381.56 -4.04624 0.078617 0
M  V30 14277 H 1380.13 -3.0998 -0.403912 0
M  V30 14278 H 1379.35 -3.35564 2.06858 0
M  V30 14279 H 1380.64 -4.55815 2.26076 0
M  V30 14280 H 1380.03 -5.60811 -0.742162 0
M  V30 14281 H 1378.59 -6.50084 -0.472614 0
M  V30 14282 N 1382.02 -1.04567 -1.17913 0
M  V30 14283 C 1383.25 -0.772204 -1.9195 0
M  V30 14284 C 1383.67 0.671303 -1.76462 0
M  V30 14285 O 1383.02 1.45805 -1.0976 0
M  V30 14286 C 1383.07 -1.13539 -3.43207 0
M  V30 14287 O 1382.8 -2.52223 -3.58211 0
M  V30 14288 C 1384.3 -0.887146 -4.34332 0
M  V30 14289 H 1381.52 -0.281234 -0.609219 0
M  V30 14290 H 1384.06 -1.39467 -1.49563 0
M  V30 14291 H 1382.22 -0.557784 -3.83363 0
M  V30 14292 H 1382.63 -2.66275 -4.51882 0
M  V30 14293 H 1384.1 -1.19107 -5.38997 0
M  V30 14294 H 1384.58 0.1779 -4.3884 0
M  V30 14295 H 1385.19 -1.44829 -3.99881 0
M  V30 14296 N 1383.5 1.34231 -0.825823 0
M  V30 14297 C 1384.45 2.26916 -0.222038 0
M  V30 14298 C 1385.44 1.48667 0.615382 0
M  V30 14299 O 1386.63 1.7066 0.469487 0
M  V30 14300 C 1383.76 3.37787 0.612785 0
M  V30 14301 C 1382.84 4.23446 -0.235423 0
M  V30 14302 N 1383.23 4.88599 -1.30784 0
M  V30 14303 C 1381.53 4.45995 -0.0202477 0
M  V30 14304 C 1382.23 5.52254 -1.82729 0
M  V30 14305 N 1381.21 5.3171 -1.13074 0
M  V30 14306 H 1385.01 2.74796 -1.04232 0
M  V30 14307 H 1382.52 1.47983 -0.668928 0
M  V30 14308 H 1384.52 4.03159 1.06153 0
M  V30 14309 H 1383.18 2.91457 1.43119 0
M  V30 14310 H 1384.19 4.89528 -1.69066 0
M  V30 14311 H 1380.87 4.10417 0.765761 0
M  V30 14312 H 1382.26 6.14177 -2.72464 0
M  V30 14313 N 1384.98 0.581051 1.46498 0
M  V30 14314 C 1386.23 0.0637189 2.01599 0
M  V30 14315 C 1386.54 -1.30353 1.45834 0
M  V30 14316 O 1387.75 -1.91211 1.92745 0
M  V30 14317 C 1386.2 0.0633254 3.59844 0
M  V30 14318 C 1385.81 1.42879 4.24605 0
M  V30 14319 C 1387.56 -0.400149 4.2261 0
M  V30 14320 C 1385.46 1.38621 5.74924 0
M  V30 14321 H 1384.39 0.0200512 0.753733 0
M  V30 14322 H 1387.04 0.732451 1.68248 0
M  V30 14323 H 1385.43 -0.671538 3.90264 0
M  V30 14324 H 1386.6 2.18325 4.05796 0
M  V30 14325 H 1384.91 1.83215 3.73927 0
M  V30 14326 H 1387.51 -0.450771 5.32797 0
M  V30 14327 H 1387.85 -1.41733 3.9143 0
M  V30 14328 H 1388.39 0.280598 3.96809 0
M  V30 14329 H 1385.13 2.38014 6.10761 0
M  V30 14330 H 1384.65 0.673926 5.96002 0
M  V30 14331 H 1386.33 1.09841 6.37608 0
M  V30 14332 N 1386.46 -1.54343 0.318742 0
M  V30 14333 C 1387.39 -2.27118 -0.542206 0
M  V30 14334 C 1388.37 -1.27731 -1.12334 0
M  V30 14335 O 1389.55 -1.56535 -1.14937 0
M  V30 14336 C 1386.68 -3.02535 -1.70558 0
M  V30 14337 C 1385.64 -4.09218 -1.25398 0
M  V30 14338 C 1384.96 -4.72449 -2.50391 0
M  V30 14339 C 1386.26 -5.20971 -0.372332 0
M  V30 14340 H 1387.96 -2.9933 0.0648226 0
M  V30 14341 H 1385.5 -1.43963 0.0326168 0
M  V30 14342 H 1387.46 -3.52174 -2.31412 0
M  V30 14343 H 1386.18 -2.27931 -2.33912 0
M  V30 14344 H 1384.84 -3.60455 -0.668392 0
M  V30 14345 H 1384.49 -3.94466 -3.12099 0
M  V30 14346 H 1384.19 -5.4451 -2.20868 0
M  V30 14347 H 1385.71 -5.2486 -3.12016 0
M  V30 14348 H 1387.13 -5.66396 -0.887029 0
M  V30 14349 H 1385.52 -5.99859 -0.17009 0
M  V30 14350 H 1386.59 -4.81198 0.598064 0
M  V30 14351 N 1387.94 -0.0468143 -1.5753 0
M  V30 14352 C 1388.87 0.927092 -2.14306 0
M  V30 14353 C 1389.85 1.32745 -1.06362 0
M  V30 14354 O 1391.03 1.40293 -1.34281 0
M  V30 14355 C 1388.16 2.20343 -2.68452 0
M  V30 14356 C 1387.12 1.94328 -3.81341 0
M  V30 14357 C 1386.44 3.28379 -4.21985 0
M  V30 14358 C 1387.74 1.26835 -5.06666 0
M  V30 14359 H 1389.44 0.454199 -2.95935 0
M  V30 14360 H 1386.98 0.217029 -1.42355 0
M  V30 14361 H 1388.93 2.8887 -3.0681 0
M  V30 14362 H 1387.66 2.6983 -1.84009 0
M  V30 14363 H 1386.32 1.28214 -3.43448 0
M  V30 14364 H 1385.97 3.75658 -3.34499 0
M  V30 14365 H 1385.67 3.11772 -4.98068 0
M  V30 14366 H 1387.19 3.98145 -4.6294 0
M  V30 14367 H 1388.6 1.85389 -5.42498 0
M  V30 14368 H 1387 1.20569 -5.87863 0
M  V30 14369 H 1388.07 0.243759 -4.84287 0
M  V30 14370 N 1389.41 1.55964 0.226527 0
M  V30 14371 C 1390.66 1.78392 0.94977 0
M  V30 14372 C 1390.98 0.614444 1.85066 0
M  V30 14373 O 1390.25 -0.368894 1.92395 0
M  V30 14374 H 1388.83 0.657962 0.353688 0
M  V30 14375 H 1391.5 1.93422 0.239577 0
M  V30 14376 H 1390.59 2.70343 1.55952 0
M  V30 14377 N 1390.89 -0.493031 1.4969 0
M  V30 14378 C 1392.14 -1.2433 1.58823 0
M  V30 14379 C 1392.45 -1.9353 0.283823 0
M  V30 14380 O 1393.66 -2.70311 0.253801 0
M  V30 14381 C 1392.12 -2.25792 2.8026 0
M  V30 14382 C 1391.72 -1.62496 4.17491 0
M  V30 14383 C 1393.47 -3.01598 2.98729 0
M  V30 14384 C 1391.38 -2.62115 5.30141 0
M  V30 14385 H 1390.31 -0.467738 0.591386 0
M  V30 14386 H 1392.96 -0.516238 1.76089 0
M  V30 14387 H 1391.34 -3.01696 2.56506 0
M  V30 14388 H 1392.51 -0.925305 4.51414 0
M  V30 14389 H 1390.83 -0.990516 4.04447 0
M  V30 14390 H 1393.42 -3.76111 3.80058 0
M  V30 14391 H 1393.77 -3.59687 2.09597 0
M  V30 14392 H 1394.3 -2.32809 3.2256 0
M  V30 14393 H 1391.04 -2.08797 6.21357 0
M  V30 14394 H 1390.56 -3.30298 5.00663 0
M  V30 14395 H 1392.24 -3.24385 5.59807 0
M  V30 14396 N 1392.37 -1.38898 -0.744656 0
M  V30 14397 C 1393.62 -1.35327 -1.50104 0
M  V30 14398 C 1393.94 0.0532788 -1.94927 0
M  V30 14399 O 1393.21 1.0027 -1.68294 0
M  V30 14400 H 1391.79 -0.49797 -0.556808 0
M  V30 14401 H 1394.45 -1.73667 -0.884625 0
M  V30 14402 H 1393.55 -2.00983 -2.38773 0
M  V30 14403 N 1393.85 0.973806 -1.23914 0
M  V30 14404 C 1395.1 1.71598 -1.07519 0
M  V30 14405 C 1395.42 1.90613 0.386926 0
M  V30 14406 O 1394.68 1.46056 1.30254 0
M  V30 14407 C 1394.98 3.11441 -1.75326 0
M  V30 14408 C 1394.64 3.12286 -3.25251 0
M  V30 14409 C 1393.31 3.12224 -3.66155 0
M  V30 14410 C 1395.66 3.0709 -4.21124 0
M  V30 14411 C 1392.99 3.0469 -5.01379 0
M  V30 14412 C 1395.34 3.01098 -5.56348 0
M  V30 14413 C 1394 2.99362 -5.96606 0
M  V30 14414 H 1393.27 0.627922 -0.39344 0
M  V30 14415 H 1395.92 1.13912 -1.53936 0
M  V30 14416 H 1394.22 3.72555 -1.21286 0
M  V30 14417 H 1395.92 3.67649 -1.60111 0
M  V30 14418 H 1392.51 3.13096 -2.92693 0
M  V30 14419 H 1396.69 3.06272 -3.90527 0
M  V30 14420 H 1391.95 3.01703 -5.31776 0
M  V30 14421 H 1396.12 2.96036 -6.30346 0
M  V30 14422 H 1393.75 2.93279 -7.0135 0
M  V30 14423 N 1395.33 1.05191 1.17357 0
M  V30 14424 C 1396.29 0.65713 2.19578 0
M  V30 14425 C 1397.29 -0.29138 1.58138 0
M  V30 14426 O 1398.48 -0.075254 1.74037 0
M  V30 14427 C 1395.61 -0.0348162 3.40882 0
M  V30 14428 H 1396.8 1.56188 2.56018 0
M  V30 14429 H 1394.36 0.845795 1.31438 0
M  V30 14430 H 1395.09 -0.952835 3.09986 0
M  V30 14431 H 1394.88 0.647076 3.86724 0
M  V30 14432 H 1396.37 -0.297135 4.16542 0
M  V30 14433 N 1396.8 -1.33791 0.83293 0
M  V30 14434 C 1397.71 -2.33108 0.264169 0
M  V30 14435 C 1398.73 -1.6308 -0.606694 0
M  V30 14436 O 1399.91 -1.94777 -0.512225 0
M  V30 14437 C 1396.97 -3.42208 -0.556315 0
M  V30 14438 C 1396.03 -4.27966 0.338123 0
M  V30 14439 C 1395.27 -5.31856 -0.443297 0
M  V30 14440 O 1395.49 -5.45234 -1.6756 0
M  V30 14441 O 1394.42 -6.01632 0.179599 0
M  V30 14442 H 1398.25 -2.83602 1.08645 0
M  V30 14443 H 1395.83 -1.37027 0.595307 0
M  V30 14444 H 1397.72 -4.088 -1.02277 0
M  V30 14445 H 1396.39 -2.9394 -1.35575 0
M  V30 14446 H 1395.3 -3.64262 0.852293 0
M  V30 14447 H 1396.63 -4.79701 1.10217 0
M  V30 14448 N 1398.28 -0.588812 -1.46187 0
M  V30 14449 C 1399.69 -0.163897 -1.85979 0
M  V30 14450 C 1400.04 1.27458 -1.49161 0
M  V30 14451 O 1399.17 1.96365 -0.909372 0
M  V30 14452 C 1399.76 -0.29067 -3.37551 0
M  V30 14453 C 1398.32 0.0794165 -3.76316 0
M  V30 14454 C 1397.47 -0.623807 -2.70192 0
M  V30 14455 H 1400.42 -0.79666 -1.37255 0
M  V30 14456 H 1400.44 0.482316 -3.77431 0
M  V30 14457 H 1399.95 -1.33771 -3.64317 0
M  V30 14458 H 1398.06 1.12636 -3.55168 0
M  V30 14459 H 1398.17 -0.301153 -4.78153 0
M  V30 14460 H 1396.53 -0.0634124 -2.54621 0
M  V30 14461 H 1397.32 -1.67261 -2.99797 0
M  V30 14462 N 1399.76 1.54172 -0.326923 0
M  V30 14463 C 1401.01 2.00233 0.274098 0
M  V30 14464 C 1401.33 1.21665 1.5239 0
M  V30 14465 O 1400.6 0.319359 1.93279 0
M  V30 14466 H 1399.18 0.739687 0.104271 0
M  V30 14467 H 1401.84 1.8977 -0.444244 0
M  V30 14468 H 1400.94 3.07599 0.528154 0
M  V30 14469 N 1401.24 0.0551678 1.57503 0
M  V30 14470 C 1402.52 -0.657808 1.84207 0
M  V30 14471 C 1402.9 -1.88798 0.944372 0
M  V30 14472 O 1402.24 -2.28499 0.00641728 0
M  V30 14473 C 1402.45 -1.0113 3.34026 0
M  V30 14474 C 1403.8 -1.39189 4.01138 0
M  V30 14475 O 1404.83 -1.10353 3.38675 0
M  V30 14476 O 1403.68 -1.93023 5.11277 0
M  V30 14477 H 1400.78 -0.325084 0.760427 0
M  V30 14478 H 1403.32 0.0848352 1.69488 0
M  V30 14479 H 1402.1 -0.13688 3.91061 0
M  V30 14480 H 1401.72 -1.81126 3.53948 0
M  V30 14481 N 1402.72 -1.56081 -0.218252 0
M  V30 14482 C 1403.96 -1.81024 -0.949188 0
M  V30 14483 C 1404.32 -0.629178 -1.81398 0
M  V30 14484 O 1405.52 -0.757982 -2.57892 0
M  V30 14485 C 1403.79 -3.10878 -1.76322 0
M  V30 14486 S 1405.35 -3.57147 -2.54934 0
M  V30 14487 H 1402.17 -0.635529 -0.318785 0
M  V30 14488 H 1404.77 -1.9432 -0.214484 0
M  V30 14489 H 1403.48 -3.94875 -1.11811 0
M  V30 14490 H 1403.01 -3.00399 -2.54016 0
M  V30 14491 H 1405.02 -3.20747 -3.78597 0
M  V30 14492 N 1404.2 0.485086 -1.49949 0
M  V30 14493 C 1405.44 1.23571 -1.5992 0
M  V30 14494 C 1405.76 1.92754 -0.295108 0
M  V30 14495 O 1405.03 1.83474 0.686582 0
M  V30 14496 H 1403.61 0.459104 -0.589264 0
M  V30 14497 H 1406.28 0.560822 -1.86657 0
M  V30 14498 H 1405.37 1.99114 -2.40333 0
M  V30 14499 N 1405.67 1.39291 0.737279 0
M  V30 14500 C 1406.92 1.36121 1.49384 0
M  V30 14501 C 1407.24 -0.0429406 1.94953 0
M  V30 14502 O 1406.51 -0.993756 1.68823 0
M  V30 14503 H 1405.09 0.500916 0.554159 0
M  V30 14504 H 1407.75 1.74134 0.875402 0
M  V30 14505 H 1406.85 2.02246 2.37704 0
M  V30 14506 N 1407.15 -0.967221 1.24429 0
M  V30 14507 C 1408.08 -2.07966 1.06172 0
M  V30 14508 C 1409.06 -1.70081 -0.0254566 0
M  V30 14509 O 1410.25 -1.93682 0.141705 0
M  V30 14510 C 1407.38 -3.4085 0.666251 0
M  V30 14511 C 1406.33 -3.92692 1.70225 0
M  V30 14512 C 1405.66 -5.21925 1.16183 0
M  V30 14513 C 1406.96 -4.20478 3.09831 0
M  V30 14514 H 1408.65 -2.23497 1.99222 0
M  V30 14515 H 1406.2 -1.07398 0.959255 0
M  V30 14516 H 1408.15 -4.1811 0.52552 0
M  V30 14517 H 1406.87 -3.2522 -0.299939 0
M  V30 14518 H 1405.53 -3.17588 1.83121 0
M  V30 14519 H 1405.18 -5.02655 0.186237 0
M  V30 14520 H 1404.88 -5.57579 1.85416 0
M  V30 14521 H 1406.41 -6.01795 1.03323 0
M  V30 14522 H 1407.82 -4.88442 3.00162 0
M  V30 14523 H 1406.22 -4.67362 3.7642 0
M  V30 14524 H 1407.29 -3.27235 3.57834 0
M  V30 14525 N 1408.63 -1.05812 -1.16797 0
M  V30 14526 C 1409.56 -0.685778 -2.23202 0
M  V30 14527 C 1410.54 0.319428 -1.67074 0
M  V30 14528 O 1411.73 0.195635 -1.93212 0
M  V30 14529 C 1408.86 -0.0662958 -3.47237 0
M  V30 14530 C 1407.81 -0.996943 -4.16227 0
M  V30 14531 C 1407.14 -0.241015 -5.34157 0
M  V30 14532 C 1408.44 -2.32384 -4.67755 0
M  V30 14533 H 1410.13 -1.57535 -2.54604 0
M  V30 14534 H 1407.68 -0.758909 -1.22379 0
M  V30 14535 H 1409.63 0.206024 -4.20896 0
M  V30 14536 H 1408.35 0.858263 -3.15121 0
M  V30 14537 H 1407.01 -1.25393 -3.44488 0
M  V30 14538 H 1406.66 0.686508 -4.98293 0
M  V30 14539 H 1406.36 -0.861188 -5.81255 0
M  V30 14540 H 1407.88 0.0238739 -6.10595 0
M  V30 14541 H 1409.3 -2.11099 -5.3302 0
M  V30 14542 H 1407.69 -2.89855 -5.25456 0
M  V30 14543 H 1408.76 -2.958 -3.84227 0
M  V30 14544 N 1410.11 1.33347 -0.840014 0
M  V30 14545 C 1411.52 1.50615 -0.52795 0
M  V30 14546 C 1411.72 1.77993 0.944493 0
M  V30 14547 O 1410.78 1.84087 1.72824 0
M  V30 14548 C 1412.09 2.66001 -1.40228 0
M  V30 14549 C 1413.64 2.79886 -1.40117 0
M  V30 14550 C 1414.12 3.98335 -2.26038 0
M  V30 14551 N 1415.61 4.05572 -2.23753 0
M  V30 14552 C 1416.34 4.96422 -2.86972 0
M  V30 14553 N 1415.84 5.9238 -3.59247 0
M  V30 14554 N 1417.63 4.89428 -2.76436 0
M  V30 14555 H 1409.78 1.13839 -1.79317 0
M  V30 14556 H 1412.04 0.559772 -0.765088 0
M  V30 14557 H 1411.75 2.52453 -2.44868 0
M  V30 14558 H 1411.62 3.61434 -1.07914 0
M  V30 14559 H 1414.01 2.92865 -0.362487 0
M  V30 14560 H 1414.09 1.85211 -1.76439 0
M  V30 14561 H 1413.74 3.86115 -3.29966 0
M  V30 14562 H 1413.67 4.92257 -1.87057 0
M  V30 14563 H 1416.16 3.36899 -1.71195 0
M  V30 14564 H 1416.47 6.58367 -4.04688 0
M  V30 14565 H 1414.82 5.92451 -3.63354 0
M  V30 14566 H 1418.01 4.13428 -2.19534 0
M  V30 14567 H 1418.18 5.60032 -3.25989 0
M  V30 14568 N 1411.59 0.596556 1.45873 0
M  V30 14569 C 1412.83 0.090321 2.042 0
M  V30 14570 C 1413.19 -1.25123 1.45631 0
M  V30 14571 O 1414.39 -1.84752 1.95243 0
M  V30 14572 C 1412.66 0.0400377 3.57378 0
M  V30 14573 S 1414.22 -0.40661 4.36912 0
M  V30 14574 H 1411.04 0.0441976 0.709625 0
M  V30 14575 H 1413.64 0.792175 1.78731 0
M  V30 14576 H 1412.34 1.02013 3.97519 0
M  V30 14577 H 1411.88 -0.684156 3.87405 0
M  V30 14578 H 1413.89 -1.65849 4.67663 0
M  V30 14579 N 1413.06 -1.53996 0.335095 0
M  V30 14580 C 1413.97 -2.28436 -0.534244 0
M  V30 14581 C 1414.99 -1.33224 -1.11926 0
M  V30 14582 O 1416.17 -1.66252 -1.13676 0
M  V30 14583 C 1413.23 -3.03634 -1.67354 0
M  V30 14584 C 1412.29 -4.14455 -1.11916 0
M  V30 14585 C 1411.52 -4.86058 -2.20416 0
M  V30 14586 O 1411.75 -4.57263 -3.40979 0
M  V30 14587 O 1410.68 -5.72704 -1.85185 0
M  V30 14588 H 1414.51 -3.03618 0.0706314 0
M  V30 14589 H 1412.09 -1.49062 0.100409 0
M  V30 14590 H 1413.97 -3.50687 -2.33659 0
M  V30 14591 H 1412.65 -2.31317 -2.26438 0
M  V30 14592 H 1411.56 -3.71725 -0.420871 0
M  V30 14593 H 1412.89 -4.8885 -0.573295 0
M  V30 14594 N 1414.54 -0.0635198 -1.57472 0
M  V30 14595 C 1415.49 0.916528 -2.08767 0
M  V30 14596 C 1416.48 1.26405 -0.99552 0
M  V30 14597 O 1417.67 1.24441 -1.25871 0
M  V30 14598 C 1414.8 2.18704 -2.64619 0
M  V30 14599 C 1413.88 1.86637 -3.80825 0
M  V30 14600 N 1414.27 1.24982 -4.90115 0
M  V30 14601 C 1412.57 2.16435 -3.89964 0
M  V30 14602 C 1413.27 1.10821 -5.71046 0
M  V30 14603 N 1412.25 1.61519 -5.1905 0
M  V30 14604 H 1416.05 0.435376 -2.90657 0
M  V30 14605 H 1413.56 0.1406 -1.6179 0
M  V30 14606 H 1415.56 2.89825 -2.99678 0
M  V30 14607 H 1414.22 2.67415 -1.84172 0
M  V30 14608 H 1415.23 0.920491 -5.09654 0
M  V30 14609 H 1411.91 2.6758 -3.20479 0
M  V30 14610 H 1413.3 0.628547 -6.68954 0
M  V30 14611 N 1416.02 1.56195 0.209972 0
M  V30 14612 C 1417.27 1.7939 0.930796 0
M  V30 14613 C 1417.59 0.634038 1.84404 0
M  V30 14614 O 1416.86 -0.348467 1.92776 0
M  V30 14615 H 1415.44 0.661676 0.346689 0
M  V30 14616 H 1418.1 1.93665 0.219049 0
M  V30 14617 H 1417.2 2.71982 1.53075 0
M  V30 14618 N 1417.5 -0.477127 1.50204 0
M  V30 14619 C 1418.74 -1.23147 1.6113 0
M  V30 14620 C 1419.08 -1.91743 0.307909 0
M  V30 14621 O 1418.35 -1.81841 -0.690223 0
M  V30 14622 C 1418.63 -2.27985 2.78738 0
M  V30 14623 C 1418.49 -1.63733 4.18941 0
M  V30 14624 C 1419.81 -3.29349 2.9192 0
M  V30 14625 H 1416.93 -0.446358 0.586459 0
M  V30 14626 H 1419.57 -0.52612 1.8257 0
M  V30 14627 H 1417.72 -2.88143 2.60588 0
M  V30 14628 H 1419.39 -1.07218 4.48667 0
M  V30 14629 H 1417.63 -0.940634 4.23479 0
M  V30 14630 H 1418.3 -2.39888 4.9715 0
M  V30 14631 H 1420.78 -2.79208 3.08516 0
M  V30 14632 H 1419.66 -4.0004 3.75845 0
M  V30 14633 H 1419.92 -3.93111 2.02278 0
M  V30 14634 N 1418.98 -1.3968 -0.729882 0
M  V30 14635 C 1419.91 -1.33201 -1.85291 0
M  V30 14636 C 1420.89 -0.204787 -1.61305 0
M  V30 14637 O 1422.07 -0.386087 -1.84504 0
M  V30 14638 C 1419.2 -1.06955 -3.21369 0
M  V30 14639 C 1418.24 -2.21937 -3.64207 0
M  V30 14640 S 1419.08 -3.84249 -3.72979 0
M  V30 14641 C 1420.23 -3.60239 -5.11839 0
M  V30 14642 H 1420.47 -2.28244 -1.90504 0
M  V30 14643 H 1418 -1.25796 -0.895252 0
M  V30 14644 H 1419.96 -0.924975 -3.99943 0
M  V30 14645 H 1418.62 -0.135902 -3.13806 0
M  V30 14646 H 1417.81 -1.99179 -4.62973 0
M  V30 14647 H 1417.41 -2.32624 -2.92852 0
M  V30 14648 H 1419.71 -3.17821 -5.98328 0
M  V30 14649 H 1420.65 -4.58485 -5.39627 0
M  V30 14650 H 1421.06 -2.94229 -4.81757 0
M  V30 14651 N 1420.45 0.960609 -1.2494 0
M  V30 14652 C 1421.7 1.70111 -1.09117 0
M  V30 14653 C 1422.02 1.91466 0.369544 0
M  V30 14654 O 1421.29 1.49749 1.26302 0
M  V30 14655 H 1419.87 0.630372 -0.400799 0
M  V30 14656 H 1422.54 1.15525 -1.56971 0
M  V30 14657 H 1421.63 2.68277 -1.5948 0
M  V30 14658 N 1421.93 1.0643 1.16234 0
M  V30 14659 C 1423.18 0.77689 1.86138 0
M  V30 14660 C 1423.49 -0.699301 1.82672 0
M  V30 14661 O 1424.7 -1.10113 2.48168 0
M  V30 14662 C 1423.16 1.3396 3.3404 0
M  V30 14663 C 1422.76 2.84613 3.45976 0
M  V30 14664 C 1424.51 1.12979 4.09189 0
M  V30 14665 C 1422.42 3.34122 4.87972 0
M  V30 14666 H 1421.35 0.286936 0.697269 0
M  V30 14667 H 1424 1.28318 1.31174 0
M  V30 14668 H 1422.38 0.761073 3.88618 0
M  V30 14669 H 1423.55 3.48429 3.01552 0
M  V30 14670 H 1421.87 3.04277 2.84262 0
M  V30 14671 H 1424.46 1.47456 5.13966 0
M  V30 14672 H 1424.81 0.0682424 4.16244 0
M  V30 14673 H 1425.34 1.67418 3.60855 0
M  V30 14674 H 1422.08 4.39761 4.86097 0
M  V30 14675 H 1421.6 2.75055 5.33015 0
M  V30 14676 H 1423.28 3.29529 5.56794 0
M  V30 14677 N 1423.41 -1.329 0.847073 0
M  V30 14678 C 1424.34 -2.31546 0.301422 0
M  V30 14679 C 1425.32 -1.59342 -0.595317 0
M  V30 14680 O 1426.51 -1.87188 -0.517151 0
M  V30 14681 C 1423.64 -3.43423 -0.517454 0
M  V30 14682 C 1422.59 -4.27055 0.284195 0
M  V30 14683 C 1421.92 -5.30624 -0.658944 0
M  V30 14684 C 1423.22 -5.00123 1.50578 0
M  V30 14685 H 1424.91 -2.77433 1.12567 0
M  V30 14686 H 1422.46 -1.3338 0.542739 0
M  V30 14687 H 1424.41 -4.11467 -0.909543 0
M  V30 14688 H 1423.13 -2.96246 -1.37499 0
M  V30 14689 H 1421.79 -3.60648 0.657944 0
M  V30 14690 H 1421.44 -4.79702 -1.51311 0
M  V30 14691 H 1421.14 -5.87464 -0.12662 0
M  V30 14692 H 1422.66 -6.01533 -1.04837 0
M  V30 14693 H 1424.08 -5.6089 1.18641 0
M  V30 14694 H 1422.48 -5.66652 1.97549 0
M  V30 14695 H 1423.55 -4.28424 2.27115 0
M  V30 14696 N 1424.89 -0.604284 -1.45555 0
M  V30 14697 C 1426.12 -0.104452 -2.06636 0
M  V30 14698 C 1426.53 1.20976 -1.44949 0
M  V30 14699 O 1425.89 1.73616 -0.562468 0
M  V30 14700 C 1425.94 0.0451646 -3.61472 0
M  V30 14701 O 1425.66 -1.21705 -4.20856 0
M  V30 14702 C 1427.16 0.57684 -4.39531 0
M  V30 14703 H 1424.38 -0.067326 -0.667614 0
M  V30 14704 H 1426.93 -0.831079 -1.86851 0
M  V30 14705 H 1425.08 0.722104 -3.80611 0
M  V30 14706 H 1425.49 -1.04462 -5.13992 0
M  V30 14707 H 1426.97 0.630627 -5.48386 0
M  V30 14708 H 1427.45 1.59842 -4.09081 0
M  V30 14709 H 1428.05 -0.0659444 -4.25249 0
M  V30 14710 N 1426.37 1.53816 -0.343257 0
M  V30 14711 C 1427.61 2.01207 0.253721 0
M  V30 14712 C 1427.95 1.23069 1.50225 0
M  V30 14713 O 1427.22 0.31824 1.91879 0
M  V30 14714 C 1427.5 3.5559 0.56815 0
M  V30 14715 C 1427.36 4.44438 -0.692457 0
M  V30 14716 C 1428.68 4.17974 1.37788 0
M  V30 14717 H 1425.79 0.731392 0.0907427 0
M  V30 14718 H 1428.44 1.84254 -0.463736 0
M  V30 14719 H 1426.59 3.70166 1.17937 0
M  V30 14720 H 1428.26 4.41698 -1.33042 0
M  V30 14721 H 1426.5 4.13312 -1.3174 0
M  V30 14722 H 1427.17 5.5034 -0.427715 0
M  V30 14723 H 1429.65 4.07094 0.861043 0
M  V30 14724 H 1428.52 5.26068 1.56663 0
M  V30 14725 H 1428.79 3.72577 2.3799 0
M  V30 14726 N 1427.84 0.0718701 1.57436 0
M  V30 14727 C 1429.09 -0.596052 1.9311 0
M  V30 14728 C 1429.41 -1.70146 0.952652 0
M  V30 14729 O 1428.68 -1.959 0.000812941 0
M  V30 14730 H 1427.26 -0.223165 0.712886 0
M  V30 14731 H 1429.93 0.129744 1.94468 0
M  V30 14732 H 1429.02 -1.02132 2.94916 0
M  V30 14733 N 1429.32 -1.56304 -0.201686 0
M  V30 14734 C 1430.57 -1.79881 -0.921269 0
M  V30 14735 C 1430.89 -0.643809 -1.84065 0
M  V30 14736 O 1430.16 0.338239 -1.92958 0
M  V30 14737 H 1428.74 -0.663506 -0.343175 0
M  V30 14738 H 1431.4 -1.93779 -0.208775 0
M  V30 14739 H 1430.5 -2.7279 -1.51631 0
M  V30 14740 N 1430.8 0.469154 -1.50455 0
M  V30 14741 C 1432.05 1.21868 -1.61222 0
M  V30 14742 C 1432.37 1.9243 -0.315535 0
M  V30 14743 O 1431.64 1.84192 0.667083 0
M  V30 14744 H 1430.22 0.452828 -0.594101 0
M  V30 14745 H 1432.88 0.540993 -1.87241 0
M  V30 14746 H 1431.98 1.96554 -2.42431 0
M  V30 14747 N 1432.28 1.40065 0.722464 0
M  V30 14748 C 1433.56 1.28473 1.47493 0
M  V30 14749 C 1433.94 -0.100058 2.10863 0
M  V30 14750 O 1433.28 -1.11232 1.99599 0
M  V30 14751 C 1433.49 2.41842 2.51621 0
M  V30 14752 C 1434.84 2.81753 3.17648 0
M  V30 14753 O 1435.87 2.41385 2.61939 0
M  V30 14754 O 1434.72 3.51473 4.18484 0
M  V30 14755 H 1431.82 0.504158 0.655556 0
M  V30 14756 H 1434.36 1.51969 0.755223 0
M  V30 14757 H 1433.14 3.34365 2.03263 0
M  V30 14758 H 1432.76 2.20079 3.31136 0
M  V30 14759 N 1433.76 -0.95397 1.25448 0
M  V30 14760 C 1434.71 -2.03623 1.02575 0
M  V30 14761 C 1435.69 -1.60856 -0.0375824 0
M  V30 14762 O 1436.88 -1.76104 0.177833 0
M  V30 14763 C 1434.01 -3.37145 0.64714 0
M  V30 14764 C 1433.1 -3.86434 1.74726 0
M  V30 14765 N 1433.49 -4.08509 2.98251 0
M  V30 14766 C 1431.79 -4.15228 1.62793 0
M  V30 14767 C 1432.49 -4.49137 3.69663 0
M  V30 14768 N 1431.46 -4.55106 2.97287 0
M  V30 14769 H 1435.27 -2.18685 1.96352 0
M  V30 14770 H 1432.78 -1.13884 1.15777 0
M  V30 14771 H 1434.78 -4.14305 0.464462 0
M  V30 14772 H 1433.44 -3.23462 -0.283296 0
M  V30 14773 H 1434.45 -3.95564 3.3429 0
M  V30 14774 H 1431.13 -4.10403 0.766501 0
M  V30 14775 H 1432.52 -4.74515 4.75695 0
M  V30 14776 N 1435.24 -1.07045 -1.15668 0
M  V30 14777 C 1436.48 -0.792908 -1.86657 0
M  V30 14778 C 1436.81 0.679213 -1.81935 0
M  V30 14779 O 1436.09 1.49822 -1.2403 0
M  V30 14780 C 1436.37 -1.2978 -3.35901 0
M  V30 14781 C 1436.23 -2.83424 -3.49272 0
M  V30 14782 C 1437.54 -0.911821 -4.30551 0
M  V30 14783 H 1434.66 -0.289509 -0.677756 0
M  V30 14784 H 1437.31 -1.32769 -1.35913 0
M  V30 14785 H 1435.46 -0.84288 -3.79246 0
M  V30 14786 H 1437.13 -3.37182 -3.14811 0
M  V30 14787 H 1435.37 -3.21777 -2.90933 0
M  V30 14788 H 1436.04 -3.13819 -4.54116 0
M  V30 14789 H 1438.52 -1.30376 -3.95147 0
M  V30 14790 H 1437.39 -1.29247 -5.33467 0
M  V30 14791 H 1437.65 0.18255 -4.41723 0
M  V30 14792 N 1436.71 1.32449 -0.85411 0
M  V30 14793 C 1437.96 1.96881 -0.45632 0
M  V30 14794 C 1438.28 1.67926 0.991248 0
M  V30 14795 O 1437.55 0.986195 1.69266 0
M  V30 14796 H 1436.13 0.728378 -0.165752 0
M  V30 14797 H 1438.79 1.61542 -1.09042 0
M  V30 14798 H 1437.89 3.0626 -0.600927 0
M  V30 14799 N 1438.19 0.611994 1.45232 0
M  V30 14800 C 1439.44 0.108911 2.02207 0
M  V30 14801 C 1439.77 -1.26219 1.47983 0
M  V30 14802 O 1439.02 -1.84718 0.646368 0
M  V30 14803 C 1439.32 0.0243361 3.57392 0
M  V30 14804 C 1438.99 1.33168 4.30787 0
M  V30 14805 C 1437.65 1.68978 4.50555 0
M  V30 14806 C 1440 2.19549 4.72703 0
M  V30 14807 C 1437.33 2.90913 5.09496 0
M  V30 14808 C 1439.68 3.40737 5.32993 0
M  V30 14809 C 1438.34 3.76794 5.50983 0
M  V30 14810 H 1437.61 0.0398534 0.739927 0
M  V30 14811 H 1440.26 0.794492 1.74241 0
M  V30 14812 H 1438.57 -0.74453 3.84661 0
M  V30 14813 H 1440.26 -0.381139 3.99185 0
M  V30 14814 H 1436.85 1.04296 4.15717 0
M  V30 14815 H 1441.04 1.93181 4.57159 0
M  V30 14816 H 1436.29 3.1895 5.21614 0
M  V30 14817 H 1440.47 4.07919 5.64425 0
M  V30 14818 H 1438.09 4.71364 5.96423 0
M  V30 14819 N 1439.67 -1.53632 0.351409 0
M  V30 14820 C 1440.63 -2.23916 -0.489293 0
M  V30 14821 C 1441.63 -1.24207 -1.02124 0
M  V30 14822 O 1442.82 -1.48589 -0.909235 0
M  V30 14823 C 1439.95 -2.96492 -1.68242 0
M  V30 14824 H 1441.15 -2.99637 0.125518 0
M  V30 14825 H 1438.7 -1.55961 0.102874 0
M  V30 14826 H 1439.44 -2.24978 -2.33571 0
M  V30 14827 H 1439.22 -3.69637 -1.3081 0
M  V30 14828 H 1440.71 -3.49961 -2.27853 0
M  V30 14829 N 1441.15 -0.0802183 -1.57396 0
M  V30 14830 C 1442.42 0.628419 -1.8523 0
M  V30 14831 C 1442.8 1.87272 -0.974288 0
M  V30 14832 O 1442.15 2.2846 -0.0427687 0
M  V30 14833 C 1442.36 0.958033 -3.35593 0
M  V30 14834 C 1443.71 1.3279 -4.03301 0
M  V30 14835 O 1444.73 1.04951 -3.40388 0
M  V30 14836 O 1443.59 1.84865 -5.14283 0
M  V30 14837 H 1440.69 0.312945 -0.765503 0
M  V30 14838 H 1443.23 -0.111788 -1.69331 0
M  V30 14839 H 1442.01 0.074648 -3.91229 0
M  V30 14840 H 1441.63 1.75472 -3.56785 0
M  V30 14841 N 1442.63 1.56409 0.193394 0
M  V30 14842 C 1443.87 1.80991 0.914875 0
M  V30 14843 C 1444.2 0.654538 1.82837 0
M  V30 14844 O 1443.48 -0.344816 1.91419 0
M  V30 14845 C 1443.76 3.15841 1.72964 0
M  V30 14846 C 1443.62 4.41873 0.840748 0
M  V30 14847 C 1444.93 3.474 2.70188 0
M  V30 14848 H 1442.05 0.658408 0.331161 0
M  V30 14849 H 1444.7 1.89125 0.182161 0
M  V30 14850 H 1442.85 3.09038 2.35431 0
M  V30 14851 H 1444.52 4.60723 0.230654 0
M  V30 14852 H 1442.76 4.33549 0.147558 0
M  V30 14853 H 1443.43 5.32728 1.44586 0
M  V30 14854 H 1445.91 3.54513 2.17852 0
M  V30 14855 H 1444.78 4.42872 3.24278 0
M  V30 14856 H 1445.04 2.7098 3.49317 0
M  V30 14857 N 1444.1 -0.461169 1.50702 0
M  V30 14858 C 1445.52 -0.795741 1.38348 0
M  V30 14859 C 1445.72 -1.96473 0.447263 0
M  V30 14860 O 1444.78 -2.52276 -0.106445 0
M  V30 14861 C 1446.09 -1.09849 2.79917 0
M  V30 14862 C 1447.64 -1.20435 2.88902 0
M  V30 14863 C 1448.11 -1.54017 4.31327 0
M  V30 14864 N 1449.6 -1.60989 4.34323 0
M  V30 14865 C 1450.34 -1.88498 5.41531 0
M  V30 14866 N 1449.83 -2.13959 6.58933 0
M  V30 14867 N 1451.63 -1.90082 5.28985 0
M  V30 14868 H 1443.78 0.309076 2.10139 0
M  V30 14869 H 1446.04 0.0757918 0.944965 0
M  V30 14870 H 1445.75 -0.312479 3.50309 0
M  V30 14871 H 1445.62 -2.03221 3.17775 0
M  V30 14872 H 1448.01 -1.98102 2.18723 0
M  V30 14873 H 1448.09 -0.250195 2.54573 0
M  V30 14874 H 1447.73 -0.768865 5.02047 0
M  V30 14875 H 1447.66 -2.50599 4.6315 0
M  V30 14876 H 1450.15 -1.43312 3.49672 0
M  V30 14877 H 1450.47 -2.34251 7.36442 0
M  V30 14878 H 1448.81 -2.11331 6.62091 0
M  V30 14879 H 1452 -1.69693 4.36259 0
M  V30 14880 H 1452.18 -2.11184 6.12622 0
M  V30 14881 N 1445.58 -1.40446 -0.715026 0
M  V30 14882 C 1446.86 -1.29253 -1.4681 0
M  V30 14883 C 1447.24 0.0888738 -2.10913 0
M  V30 14884 O 1446.59 1.10172 -2.00186 0
M  V30 14885 C 1446.8 -2.43173 -2.50335 0
M  V30 14886 C 1448.14 -2.83433 -3.1615 0
M  V30 14887 O 1449.17 -2.4277 -2.60655 0
M  V30 14888 O 1448.03 -3.53687 -4.16615 0
M  V30 14889 H 1445.12 -0.507627 -0.652873 0
M  V30 14890 H 1447.67 -1.52367 -0.747153 0
M  V30 14891 H 1446.44 -3.35438 -2.01486 0
M  V30 14892 H 1446.06 -2.21832 -3.29964 0
M  V30 14893 N 1447.06 0.947303 -1.25952 0
M  V30 14894 C 1447.99 2.0625 -1.09467 0
M  V30 14895 C 1448.97 1.701 -0.00160498 0
M  V30 14896 O 1450.16 1.93432 -0.172501 0
M  V30 14897 C 1447.29 3.39746 -0.720392 0
M  V30 14898 C 1446.24 3.89935 -1.76451 0
M  V30 14899 C 1445.57 5.2001 -1.24472 0
M  V30 14900 C 1446.87 4.15496 -3.16481 0
M  V30 14901 H 1448.56 2.203 -2.02752 0
M  V30 14902 H 1446.11 1.05858 -0.97622 0
M  V30 14903 H 1448.06 4.17221 -0.591972 0
M  V30 14904 H 1446.78 3.25656 0.248161 0
M  V30 14905 H 1445.44 3.14635 -1.8815 0
M  V30 14906 H 1445.09 5.02295 -0.266182 0
M  V30 14907 H 1444.79 5.54559 -1.94263 0
M  V30 14908 H 1446.31 6.00075 -1.12884 0
M  V30 14909 H 1447.73 4.83605 -3.07894 0
M  V30 14910 H 1446.12 4.61315 -3.83808 0
M  V30 14911 H 1447.19 3.21501 -3.62995 0
M  V30 14912 N 1448.54 1.07657 1.15099 0
M  V30 14913 C 1449.47 0.721201 2.22083 0
M  V30 14914 C 1450.45 -0.292808 1.67561 0
M  V30 14915 O 1451.63 -0.164872 1.93499 0
M  V30 14916 C 1448.76 0.12153 3.47087 0
M  V30 14917 C 1447.72 1.06303 4.14588 0
M  V30 14918 C 1447.04 0.325964 5.33706 0
M  V30 14919 C 1448.34 2.39796 4.63999 0
M  V30 14920 H 1450.04 1.61566 2.52065 0
M  V30 14921 H 1447.58 0.778282 1.21156 0
M  V30 14922 H 1449.54 -0.139037 4.21171 0
M  V30 14923 H 1448.26 -0.808022 3.16447 0
M  V30 14924 H 1446.92 1.30858 3.4245 0
M  V30 14925 H 1446.57 -0.607147 4.99322 0
M  V30 14926 H 1446.27 0.953552 5.79811 0
M  V30 14927 H 1447.79 0.0732695 6.10556 0
M  V30 14928 H 1449.21 2.19552 5.29594 0
M  V30 14929 H 1447.6 2.98178 5.20778 0
M  V30 14930 H 1448.67 3.01876 3.79472 0
M  V30 14931 N 1450.02 -1.31994 0.861122 0
M  V30 14932 C 1451.26 -1.97712 0.477669 0
M  V30 14933 C 1451.62 -1.66878 -0.957573 0
M  V30 14934 O 1450.91 -0.950114 -1.66383 0
M  V30 14935 C 1451.1 -3.51232 0.661135 0
M  V30 14936 C 1450.93 -3.96985 2.11266 0
M  V30 14937 C 1449.7 -4.23753 2.75247 0
M  V30 14938 C 1451.9 -4.11577 3.08397 0
M  V30 14939 N 1449.88 -4.55798 4.11243 0
M  V30 14940 C 1451.25 -4.47233 4.29398 0
M  V30 14941 C 1453.31 -3.9393 3.04506 0
M  V30 14942 C 1452.01 -4.67083 5.47015 0
M  V30 14943 C 1454.04 -4.14968 4.21373 0
M  V30 14944 C 1453.4 -4.50947 5.41134 0
M  V30 14945 H 1449.5 -0.749334 0.223657 0
M  V30 14946 H 1452.08 -1.59691 1.11387 0
M  V30 14947 H 1450.25 -3.88362 0.0545925 0
M  V30 14948 H 1451.99 -4.03946 0.246941 0
M  V30 14949 H 1448.74 -4.16064 2.26248 0
M  V30 14950 H 1449.17 -4.75995 4.81412 0
M  V30 14951 H 1453.81 -3.6521 2.1303 0
M  V30 14952 H 1451.53 -4.94655 6.39016 0
M  V30 14953 H 1455.11 -4.02809 4.19805 0
M  V30 14954 H 1453.99 -4.66898 6.3006 0
M  V30 14955 N 1451.49 -0.619688 -1.44906 0
M  V30 14956 C 1452.74 -0.117147 -2.0136 0
M  V30 14957 C 1453.06 1.2644 -1.49239 0
M  V30 14958 O 1454.26 1.86034 -1.97747 0
M  V30 14959 C 1452.72 -0.15871 -3.5955 0
M  V30 14960 C 1452.33 -1.54086 -4.20668 0
M  V30 14961 C 1454.07 0.287961 -4.23522 0
M  V30 14962 C 1451.98 -1.53816 -5.71047 0
M  V30 14963 H 1450.91 -0.040028 -0.752937 0
M  V30 14964 H 1453.56 -0.776802 -1.66247 0
M  V30 14965 H 1451.94 0.56783 -3.91908 0
M  V30 14966 H 1453.11 -2.29007 -3.99865 0
M  V30 14967 H 1451.43 -1.93065 -3.68938 0
M  V30 14968 H 1454.03 0.309351 -5.33804 0
M  V30 14969 H 1454.37 1.31305 -3.9505 0
M  V30 14970 H 1454.9 -0.385707 -3.95926 0
M  V30 14971 H 1451.64 -2.54124 -6.04236 0
M  V30 14972 H 1451.16 -0.831708 -5.94006 0
M  V30 14973 H 1452.84 -1.26708 -6.34472 0
M  V30 14974 N 1452.97 1.53444 -0.359552 0
M  V30 14975 C 1453.88 2.29257 0.497834 0
M  V30 14976 C 1454.9 1.34987 1.09793 0
M  V30 14977 O 1456.07 1.68039 1.11017 0
M  V30 14978 C 1453.14 3.06258 1.62502 0
M  V30 14979 C 1452.2 4.16183 1.05308 0
M  V30 14980 C 1451.43 4.89503 2.12655 0
M  V30 14981 O 1451.66 4.6263 3.33661 0
M  V30 14982 O 1450.59 5.75578 1.76051 0
M  V30 14983 H 1454.42 3.03467 -0.118925 0
M  V30 14984 H 1452 1.48884 -0.124111 0
M  V30 14985 H 1453.88 3.5436 2.2805 0
M  V30 14986 H 1452.56 2.3489 2.22729 0
M  V30 14987 H 1451.47 3.72348 0.361679 0
M  V30 14988 H 1452.8 4.897 0.49545 0
M  V30 14989 N 1454.45 0.0885642 1.57351 0
M  V30 14990 C 1455.73 -0.618587 1.85561 0
M  V30 14991 C 1456.11 -1.86753 0.984206 0
M  V30 14992 O 1455.46 -2.28434 0.0548839 0
M  V30 14993 C 1455.67 -0.940222 3.36096 0
M  V30 14994 C 1457.01 -1.30649 4.04 0
M  V30 14995 O 1458.04 -1.03144 3.4094 0
M  V30 14996 O 1456.9 -1.82135 5.15256 0
M  V30 14997 H 1453.99 -0.308881 0.767152 0
M  V30 14998 H 1456.54 0.120767 1.6927 0
M  V30 14999 H 1455.31 -0.0538991 3.91263 0
M  V30 15000 H 1454.93 -1.73577 3.5771 0
M  V30 15001 N 1455.93 -1.56509 -0.185096 0
M  V30 15002 C 1457.21 -1.72055 -0.930398 0
M  V30 15003 C 1457.59 -0.646145 -2.00968 0
M  V30 15004 O 1456.93 0.34129 -2.25937 0
M  V30 15005 C 1457.14 -3.14752 -1.50771 0
M  V30 15006 C 1458.49 -3.75292 -1.98597 0
M  V30 15007 O 1459.52 -3.17944 -1.60593 0
M  V30 15008 O 1458.37 -4.7596 -2.68561 0
M  V30 15009 H 1455.47 -0.702118 -0.436989 0
M  V30 15010 H 1458.01 -1.68806 -0.174007 0
M  V30 15011 H 1456.79 -3.84426 -0.730236 0
M  V30 15012 H 1456.41 -3.22272 -2.32866 0
M  V30 15013 N 1457.41 0.45317 -1.50944 0
M  V30 15014 C 1458.37 1.5313 -1.7054 0
M  V30 15015 C 1459.37 1.50142 -0.575678 0
M  V30 15016 O 1460.56 1.52444 -0.842997 0
M  V30 15017 C 1457.69 2.92719 -1.74723 0
M  V30 15018 H 1458.88 1.37066 -2.66745 0
M  V30 15019 H 1456.44 0.680783 -1.40695 0
M  V30 15020 H 1457.17 3.14208 -0.802753 0
M  V30 15021 H 1456.96 2.96295 -2.56811 0
M  V30 15022 H 1458.45 3.7096 -1.91777 0
M  V30 15023 N 1458.88 1.40823 0.707568 0
M  V30 15024 C 1459.82 1.36132 1.83149 0
M  V30 15025 C 1460.8 0.230423 1.60959 0
M  V30 15026 O 1461.98 0.415391 1.83866 0
M  V30 15027 C 1459.11 1.12055 3.19627 0
M  V30 15028 C 1458.15 2.27703 3.6063 0
M  V30 15029 S 1458.99 3.90134 3.66818 0
M  V30 15030 C 1460.14 3.68336 5.06043 0
M  V30 15031 H 1460.37 2.31246 1.86849 0
M  V30 15032 H 1457.91 1.27204 0.875126 0
M  V30 15033 H 1459.87 0.988486 3.98421 0
M  V30 15034 H 1458.53 0.185809 3.1355 0
M  V30 15035 H 1457.72 2.06519 4.59746 0
M  V30 15036 H 1457.32 2.37254 2.89114 0
M  V30 15037 H 1459.61 3.27299 5.93196 0
M  V30 15038 H 1460.56 4.67012 5.32265 0
M  V30 15039 H 1460.96 3.01856 4.77015 0
M  V30 15040 N 1460.36 -0.94061 1.26453 0
M  V30 15041 C 1461.27 -2.07298 1.09839 0
M  V30 15042 C 1462.29 -1.73971 0.0317477 0
M  V30 15043 O 1463.46 -2.00017 0.235594 0
M  V30 15044 C 1460.53 -3.38847 0.733736 0
M  V30 15045 C 1459.59 -3.85954 1.87985 0
M  V30 15046 C 1458.82 -5.11224 1.5325 0
M  V30 15047 O 1459.05 -5.68743 0.434491 0
M  V30 15048 O 1457.98 -5.53386 2.36743 0
M  V30 15049 H 1461.81 -2.24222 2.04837 0
M  V30 15050 H 1459.39 -1.05763 1.0552 0
M  V30 15051 H 1461.27 -4.17885 0.543131 0
M  V30 15052 H 1459.95 -3.2316 -0.186843 0
M  V30 15053 H 1458.86 -3.07858 2.12542 0
M  V30 15054 H 1460.19 -4.06162 2.78017 0
M  V30 15055 N 1461.84 -1.08266 -1.14527 0
M  V30 15056 C 1462.77 -0.669233 -2.19212 0
M  V30 15057 C 1463.79 0.282962 -1.60322 0
M  V30 15058 O 1464.97 0.0708403 -1.78359 0
M  V30 15059 C 1462.07 0.0362509 -3.38881 0
M  V30 15060 C 1461.25 -0.934477 -4.27301 0
M  V30 15061 C 1460.31 -0.264584 -5.25534 0
M  V30 15062 O 1459.33 -0.908543 -5.61902 0
M  V30 15063 N 1460.53 0.98609 -5.72063 0
M  V30 15064 H 1463.3 -1.56982 -2.55297 0
M  V30 15065 H 1460.86 -0.968551 -1.29733 0
M  V30 15066 H 1462.85 0.495309 -4.01658 0
M  V30 15067 H 1461.42 0.838913 -3.01133 0
M  V30 15068 H 1460.64 -1.57241 -3.61481 0
M  V30 15069 H 1461.93 -1.59232 -4.83242 0
M  V30 15070 H 1461.33 1.52904 -5.44644 0
M  V30 15071 H 1459.89 1.38867 -6.36835 0
M  V30 15072 N 1463.32 1.31536 -0.86811 0
M  V30 15073 C 1464.57 1.96386 -0.477176 0
M  V30 15074 C 1464.89 1.68968 0.973381 0
M  V30 15075 O 1464.16 1.00409 1.68211 0
M  V30 15076 H 1462.74 0.726579 -0.173468 0
M  V30 15077 H 1465.4 1.60377 -1.10749 0
M  V30 15078 H 1464.5 3.05606 -0.633376 0
M  V30 15079 N 1464.8 0.627364 1.44575 0
M  V30 15080 C 1466.05 0.127824 2.01295 0
M  V30 15081 C 1466.36 -1.25647 1.49907 0
M  V30 15082 O 1467.57 -1.84982 1.9873 0
M  V30 15083 C 1466.02 0.177775 3.59461 0
M  V30 15084 C 1465.63 1.56315 4.19845 0
M  V30 15085 C 1467.37 -0.265497 4.23669 0
M  V30 15086 C 1465.28 1.56842 5.70223 0
M  V30 15087 H 1464.21 0.0440205 0.752714 0
M  V30 15088 H 1466.86 0.785607 1.65833 0
M  V30 15089 H 1465.24 -0.547038 3.92203 0
M  V30 15090 H 1466.42 2.31125 3.98645 0
M  V30 15091 H 1464.73 1.95019 3.67909 0
M  V30 15092 H 1467.33 -0.281038 5.33961 0
M  V30 15093 H 1467.67 -1.29208 3.95741 0
M  V30 15094 H 1468.21 0.406698 3.95716 0
M  V30 15095 H 1464.94 2.57325 6.0288 0
M  V30 15096 H 1464.46 0.863198 5.93556 0
M  V30 15097 H 1466.14 1.30071 6.33791 0
M  V30 15098 N 1466.28 -1.53251 0.367684 0
M  V30 15099 C 1467.5 -2.05705 -0.222047 0
M  V30 15100 C 1467.92 -1.24104 -1.4228 0
M  V30 15101 O 1467.28 -0.282228 -1.80305 0
M  V30 15102 C 1467.33 -3.56257 -0.613475 0
M  V30 15103 O 1467.05 -4.34765 0.539558 0
M  V30 15104 C 1468.55 -4.24976 -1.26137 0
M  V30 15105 H 1465.77 -0.66989 -0.0385799 0
M  V30 15106 H 1468.31 -1.97602 0.526663 0
M  V30 15107 H 1466.47 -3.64503 -1.3121 0
M  V30 15108 H 1466.88 -5.24027 0.222699 0
M  V30 15109 H 1468.36 -5.31628 -1.4858 0
M  V30 15110 H 1468.83 -3.78828 -2.2223 0
M  V30 15111 H 1469.44 -4.20987 -0.604121 0
M  V30 15112 N 1467.75 -0.0969077 -1.57302 0
M  V30 15113 C 1469.03 0.608737 -1.85886 0
M  V30 15114 C 1469.41 1.86228 -0.994096 0
M  V30 15115 O 1468.76 2.28402 -0.0669975 0
M  V30 15116 C 1468.97 0.922385 -3.3659 0
M  V30 15117 C 1470.32 1.28505 -4.04687 0
M  V30 15118 O 1471.34 1.01334 -3.41482 0
M  V30 15119 O 1470.2 1.794 -5.16215 0
M  V30 15120 H 1467.29 0.304808 -0.768779 0
M  V30 15121 H 1469.84 -0.129742 -1.69203 0
M  V30 15122 H 1468.61 0.0331488 -3.91286 0
M  V30 15123 H 1468.23 1.71678 -3.58626 0
M  V30 15124 N 1469.23 1.56605 0.176793 0
M  V30 15125 C 1470.46 1.85543 0.9087 0
M  V30 15126 C 1470.87 0.679554 1.76575 0
M  V30 15127 O 1470.21 -0.360668 1.80125 0
M  V30 15128 C 1470.27 3.08823 1.84034 0
M  V30 15129 C 1469.94 4.41942 1.16344 0
M  V30 15130 C 1470.94 5.17176 0.531526 0
M  V30 15131 C 1468.62 4.88679 1.16183 0
M  V30 15132 C 1470.61 6.37332 -0.0929601 0
M  V30 15133 C 1468.3 6.08767 0.533514 0
M  V30 15134 C 1469.3 6.82937 -0.0927812 0
M  V30 15135 O 1468.99 8.00748 -0.711202 0
M  V30 15136 H 1468.72 0.619862 0.269717 0
M  V30 15137 H 1471.27 2.04579 0.183414 0
M  V30 15138 H 1469.5 2.85718 2.6058 0
M  V30 15139 H 1471.19 3.24253 2.44161 0
M  V30 15140 H 1471.96 4.82152 0.524784 0
M  V30 15141 H 1467.84 4.30891 1.63871 0
M  V30 15142 H 1471.38 6.95165 -0.582409 0
M  V30 15143 H 1467.28 6.43256 0.537821 0
M  V30 15144 H 1468.05 8.16224 -0.609911 0
M  V30 15145 N 1470.71 -0.445159 1.51182 0
M  V30 15146 C 1471.96 -1.19701 1.63705 0
M  V30 15147 C 1472.29 -1.91047 0.348511 0
M  V30 15148 O 1471.56 -1.83264 -0.651497 0
M  V30 15149 C 1471.85 -2.22021 2.83511 0
M  V30 15150 C 1471.7 -1.54809 4.2232 0
M  V30 15151 C 1473.02 -3.23083 2.9884 0
M  V30 15152 H 1470.14 -0.433818 0.595795 0
M  V30 15153 H 1472.78 -0.487276 1.83645 0
M  V30 15154 H 1470.93 -2.82551 2.66641 0
M  V30 15155 H 1472.6 -0.976774 4.5084 0
M  V30 15156 H 1470.84 -0.850596 4.25379 0
M  V30 15157 H 1471.52 -2.29289 5.02126 0
M  V30 15158 H 1473.99 -2.72601 3.14369 0
M  V30 15159 H 1472.87 -3.91978 3.84246 0
M  V30 15160 H 1473.13 -3.88732 2.1057 0
M  V30 15161 N 1472.19 -1.41197 -0.700089 0
M  V30 15162 C 1473.12 -1.38616 -1.82533 0
M  V30 15163 C 1474.13 -0.289047 -1.60213 0
M  V30 15164 O 1475.32 -0.550465 -1.698 0
M  V30 15165 C 1472.42 -1.13815 -3.19217 0
M  V30 15166 C 1471.59 -2.3548 -3.68603 0
M  V30 15167 C 1470.65 -2.06604 -4.83943 0
M  V30 15168 O 1469.68 -2.79604 -4.95792 0
M  V30 15169 N 1470.88 -1.05351 -5.7086 0
M  V30 15170 H 1473.65 -2.35598 -1.8524 0
M  V30 15171 H 1471.21 -1.3575 -0.882238 0
M  V30 15172 H 1473.2 -0.924571 -3.93997 0
M  V30 15173 H 1471.77 -0.254468 -3.11563 0
M  V30 15174 H 1470.99 -2.72569 -2.8478 0
M  V30 15175 H 1472.28 -3.16553 -3.98336 0
M  V30 15176 H 1471.68 -0.449223 -5.63914 0
M  V30 15177 H 1470.23 -0.899819 -6.45559 0
M  V30 15178 N 1473.67 0.933891 -1.2695 0
M  V30 15179 C 1474.6 2.03768 -1.04934 0
M  V30 15180 C 1475.61 1.62798 -0.00740752 0
M  V30 15181 O 1476.8 1.76765 -0.248289 0
M  V30 15182 C 1473.9 3.34097 -0.568515 0
M  V30 15183 C 1473.07 4.03794 -1.68133 0
M  V30 15184 C 1472.13 5.12397 -1.19731 0
M  V30 15185 O 1471.16 5.36701 -1.89579 0
M  V30 15186 N 1472.36 5.80479 -0.0496327 0
M  V30 15187 H 1475.12 2.23219 -1.99984 0
M  V30 15188 H 1472.69 1.10386 -1.18433 0
M  V30 15189 H 1474.68 4.04053 -0.228736 0
M  V30 15190 H 1473.25 3.11265 0.288587 0
M  V30 15191 H 1472.47 3.27655 -2.1917 0
M  V30 15192 H 1473.76 4.4711 -2.42837 0
M  V30 15193 H 1473.15 5.63179 0.533509 0
M  V30 15194 H 1471.71 6.5139 0.231014 0
M  V30 15195 N 1475.14 1.08871 1.13951 0
M  V30 15196 C 1476.07 0.744715 2.21306 0
M  V30 15197 C 1477.05 -0.275019 1.67862 0
M  V30 15198 O 1478.24 -0.144339 1.93663 0
M  V30 15199 C 1475.37 0.158336 3.46939 0
M  V30 15200 C 1474.32 1.10695 4.13438 0
M  V30 15201 C 1473.65 0.382552 5.3333 0
M  V30 15202 C 1474.95 2.44704 4.61429 0
M  V30 15203 H 1476.64 1.6423 2.50337 0
M  V30 15204 H 1474.19 0.791088 1.20324 0
M  V30 15205 H 1476.14 -0.0943587 4.21294 0
M  V30 15206 H 1474.87 -0.774413 3.17286 0
M  V30 15207 H 1473.53 1.34482 3.41043 0
M  V30 15208 H 1473.17 -0.554153 4.99938 0
M  V30 15209 H 1472.87 1.01499 5.78767 0
M  V30 15210 H 1474.4 0.138023 6.10444 0
M  V30 15211 H 1475.81 2.25156 5.27236 0
M  V30 15212 H 1474.21 3.03684 5.17586 0
M  V30 15213 H 1475.28 3.05883 3.76249 0
M  V30 15214 N 1476.62 -1.31073 0.875073 0
M  V30 15215 C 1477.87 -1.9613 0.487584 0
M  V30 15216 C 1478.19 -1.69482 -0.964407 0
M  V30 15217 O 1477.46 -1.013 -1.67676 0
M  V30 15218 H 1476.04 -0.725649 0.177319 0
M  V30 15219 H 1478.7 -1.59787 1.11598 0
M  V30 15220 H 1477.8 -3.05265 0.649574 0
M  V30 15221 N 1478.1 -0.635022 -1.4424 0
M  V30 15222 C 1479.05 0.0797218 -2.32463 0
M  V30 15223 C 1480.04 0.831818 -1.47571 0
M  V30 15224 O 1481.25 0.744277 -1.63892 0
M  V30 15225 H 1477.62 0.0445532 -0.750679 0
M  V30 15226 H 1479.59 -0.682374 -2.90493 0
M  V30 15227 C 1478.34 1.04505 -3.31623 0
M  V30 15228 H 1477.67 0.475755 -3.96959 0
M  V30 15229 H 1479.11 1.51458 -3.96026 0
M  V30 15230 C 1477.57 2.13221 -2.60842 0
M  V30 15231 O 1478.1 3.21357 -2.41025 0
M  V30 15232 N 1476.3 1.89264 -2.20516 0
M  V30 15233 H 1475.85 1.01329 -2.36834 0
M  V30 15234 H 1475.81 2.62203 -1.73484 0
M  V30 15235 N 1479.58 1.53054 -0.375806 0
M  V30 15236 C 1480.54 2.24666 0.453608 0
M  V30 15237 C 1481.54 1.25816 1.00135 0
M  V30 15238 O 1482.73 1.50016 0.885481 0
M  V30 15239 C 1479.86 2.99131 1.63503 0
M  V30 15240 H 1481.06 2.994 -0.173172 0
M  V30 15241 H 1478.61 1.55778 -0.127673 0
M  V30 15242 H 1479.34 2.28666 2.29962 0
M  V30 15243 H 1479.13 3.71671 1.24913 0
M  V30 15244 H 1480.62 3.53542 2.22256 0
M  V30 15245 N 1481.06 0.105248 1.57248 0
M  V30 15246 C 1482.3 -0.556054 1.94716 0
M  V30 15247 C 1482.63 -1.67557 0.987669 0
M  V30 15248 O 1481.89 -1.95698 0.00905706 0
M  V30 15249 C 1482.19 -1.14178 3.38671 0
M  V30 15250 C 1481.85 -0.145022 4.50667 0
M  V30 15251 C 1480.51 0.129099 4.81027 0
M  V30 15252 C 1482.87 0.535015 5.18447 0
M  V30 15253 C 1480.19 1.08978 5.7649 0
M  V30 15254 C 1482.55 1.48423 6.14942 0
M  V30 15255 C 1481.21 1.76648 6.43702 0
M  V30 15256 H 1480.48 -0.203475 0.712516 0
M  V30 15257 H 1483.13 0.183237 1.90621 0
M  V30 15258 H 1481.43 -1.95754 3.39393 0
M  V30 15259 H 1483.13 -1.66132 3.64967 0
M  V30 15260 H 1479.72 -0.36886 4.2701 0
M  V30 15261 H 1483.9 0.336391 4.95159 0
M  V30 15262 H 1479.16 1.31535 5.97083 0
M  V30 15263 H 1483.33 2.01693 6.66553 0
M  V30 15264 H 1480.96 2.51245 7.17482 0
M  V30 15265 N 1482.53 -1.56697 -0.168486 0
M  V30 15266 C 1483.78 -1.81794 -0.882907 0
M  V30 15267 C 1484.1 -0.682707 -1.82658 0
M  V30 15268 O 1483.37 0.297234 -1.93632 0
M  V30 15269 H 1481.95 -0.670636 -0.329024 0
M  V30 15270 H 1484.62 -1.94178 -0.167625 0
M  V30 15271 H 1483.71 -2.75945 -1.45811 0
M  V30 15272 N 1484.01 0.437135 -1.51416 0
M  V30 15273 C 1484.98 1.51313 -1.72154 0
M  V30 15274 C 1485.98 1.49523 -0.59157 0
M  V30 15275 O 1487.17 1.51541 -0.859118 0
M  V30 15276 C 1484.3 2.9085 -1.77818 0
M  V30 15277 H 1485.49 1.34229 -2.68184 0
M  V30 15278 H 1483.04 0.665822 -1.41409 0
M  V30 15279 H 1483.78 3.13338 -0.836033 0
M  V30 15280 H 1483.56 2.93554 -2.59939 0
M  V30 15281 H 1485.05 3.68905 -1.957 0
M  V30 15282 N 1485.49 1.41566 0.692592 0
M  V30 15283 C 1486.74 1.40805 1.44978 0
M  V30 15284 C 1487.06 0.0191039 1.94991 0
M  V30 15285 O 1486.33 -0.939544 1.71899 0
M  V30 15286 H 1484.91 0.518293 0.537942 0
M  V30 15287 H 1487.57 1.76831 0.81956 0
M  V30 15288 H 1486.67 2.09706 2.31149 0
M  V30 15289 N 1486.97 -0.927146 1.27443 0
M  V30 15290 C 1488.22 -1.67489 1.13814 0
M  V30 15291 C 1488.54 -1.91917 -0.315914 0
M  V30 15292 O 1487.8 -1.5079 -1.24743 0
M  V30 15293 C 1488.1 -3.0472 1.86764 0
M  V30 15294 C 1487.76 -3 3.36617 0
M  V30 15295 C 1486.43 -2.9842 3.77491 0
M  V30 15296 C 1488.78 -2.91249 4.32231 0
M  V30 15297 C 1486.11 -2.85872 5.12342 0
M  V30 15298 C 1488.46 -2.80242 5.67139 0
M  V30 15299 C 1487.12 -2.77013 6.07306 0
M  V30 15300 H 1486.39 -0.612887 0.416474 0
M  V30 15301 H 1489.04 -1.0812 1.58058 0
M  V30 15302 H 1487.34 -3.67797 1.35029 0
M  V30 15303 H 1489.04 -3.61453 1.73646 0
M  V30 15304 H 1485.63 -3.02017 3.04111 0
M  V30 15305 H 1489.81 -2.91567 4.01625 0
M  V30 15306 H 1485.07 -2.81758 5.42607 0
M  V30 15307 H 1489.24 -2.72437 6.40899 0
M  V30 15308 H 1486.87 -2.67047 7.11751 0
M  V30 15309 N 1488.45 -1.09474 -1.13372 0
M  V30 15310 C 1489.67 -0.852921 -1.88502 0
M  V30 15311 C 1490.09 0.595855 -1.79151 0
M  V30 15312 O 1489.45 1.41019 -1.15845 0
M  V30 15313 C 1489.5 -1.27993 -3.38083 0
M  V30 15314 O 1489.22 -2.67189 -3.47191 0
M  V30 15315 C 1490.72 -1.07056 -4.30179 0
M  V30 15316 H 1487.94 -0.30682 -0.596743 0
M  V30 15317 H 1490.48 -1.45685 -1.43513 0
M  V30 15318 H 1488.64 -0.719879 -3.80653 0
M  V30 15319 H 1489.05 -2.85202 -4.40182 0
M  V30 15320 H 1490.53 -1.4186 -5.3346 0
M  V30 15321 H 1491 -0.00838732 -4.39199 0
M  V30 15322 H 1491.61 -1.61659 -3.93378 0
M  V30 15323 N 1489.92 1.30607 -0.882012 0
M  V30 15324 C 1490.89 2.26489 -0.351498 0
M  V30 15325 C 1491.89 1.52686 0.504348 0
M  V30 15326 O 1493.08 1.71385 0.311928 0
M  V30 15327 C 1490.21 3.37222 0.499435 0
M  V30 15328 H 1491.4 2.74929 -1.19809 0
M  V30 15329 H 1488.96 1.41746 -0.658616 0
M  V30 15330 H 1489.69 2.94093 1.36673 0
M  V30 15331 H 1489.48 3.91936 -0.11356 0
M  V30 15332 H 1490.97 4.08596 0.862497 0
M  V30 15333 N 1491.4 0.642663 1.43901 0
M  V30 15334 C 1492.31 -0.0562462 2.34533 0
M  V30 15335 C 1493.33 -0.823457 1.53281 0
M  V30 15336 O 1494.5 -0.773103 1.85971 0
M  V30 15337 C 1491.57 -1.01787 3.31422 0
M  V30 15338 C 1490.63 -0.248759 4.28579 0
M  V30 15339 C 1489.86 -1.16458 5.20839 0
M  V30 15340 O 1490.09 -2.40361 5.17284 0
M  V30 15341 O 1489.02 -0.642671 5.98459 0
M  V30 15342 H 1492.85 0.689476 2.9577 0
M  V30 15343 H 1490.43 0.402847 1.43866 0
M  V30 15344 H 1492.31 -1.5708 3.91029 0
M  V30 15345 H 1490.99 -1.744 2.72702 0
M  V30 15346 H 1489.9 0.347495 3.72483 0
M  V30 15347 H 1491.23 0.437589 4.90251 0
M  V30 15348 N 1492.88 -1.52852 0.383918 0
M  V30 15349 C 1494.13 -2.00694 -0.201206 0
M  V30 15350 C 1494.44 -1.2748 -1.48352 0
M  V30 15351 O 1495.65 -1.66005 -2.14836 0
M  V30 15352 C 1494.11 -3.57567 -0.409117 0
M  V30 15353 C 1493.71 -4.39675 0.859628 0
M  V30 15354 C 1495.46 -4.13713 -0.950899 0
M  V30 15355 C 1493.36 -5.88138 0.620292 0
M  V30 15356 H 1492.29 -0.749854 -0.0789656 0
M  V30 15357 H 1494.95 -1.764 0.505488 0
M  V30 15358 H 1493.33 -3.78088 -1.17753 0
M  V30 15359 H 1494.5 -4.30923 1.63224 0
M  V30 15360 H 1492.82 -3.94724 1.32597 0
M  V30 15361 H 1495.41 -5.22284 -1.14558 0
M  V30 15362 H 1495.76 -3.69463 -1.9184 0
M  V30 15363 H 1496.29 -3.97062 -0.242195 0
M  V30 15364 H 1493.03 -6.367 1.55864 0
M  V30 15365 H 1492.55 -5.99693 -0.113483 0
M  V30 15366 H 1494.23 -6.46506 0.252775 0
M  V30 15367 N 1494.36 -0.113586 -1.5719 0
M  V30 15368 C 1495.32 0.824258 -2.13866 0
M  V30 15369 C 1496.32 1.19831 -1.07224 0
M  V30 15370 O 1497.51 1.12471 -1.33026 0
M  V30 15371 C 1494.64 2.11391 -2.67445 0
M  V30 15372 H 1495.84 0.331803 -2.98059 0
M  V30 15373 H 1493.39 0.135599 -1.55711 0
M  V30 15374 H 1494.13 2.65079 -1.86824 0
M  V30 15375 H 1493.91 1.85523 -3.45433 0
M  V30 15376 H 1495.4 2.78443 -3.11222 0
M  V30 15377 N 1495.84 1.56784 0.160173 0
M  V30 15378 C 1496.79 1.98199 1.21737 0
M  V30 15379 C 1497.78 0.872381 1.4521 0
M  V30 15380 O 1498.99 1.05753 1.45658 0
M  V30 15381 H 1495.36 0.630742 0.409474 0
M  V30 15382 H 1497.33 2.86295 0.841289 0
M  V30 15383 C 1496.08 2.36748 2.54648 0
M  V30 15384 H 1495.4 3.21676 2.37413 0
M  V30 15385 H 1496.84 2.69561 3.27281 0
M  V30 15386 C 1495.3 1.2151 3.14224 0
M  V30 15387 O 1495.83 0.508739 3.98465 0
M  V30 15388 N 1494.04 0.982766 2.73478 0
M  V30 15389 H 1493.59 1.55893 2.05073 0
M  V30 15390 H 1493.54 0.213589 3.13674 0
M  V30 15391 N 1497.32 -0.429099 1.51646 0
M  V30 15392 C 1498.55 -1.19832 1.68297 0
M  V30 15393 C 1498.95 -1.85275 0.383378 0
M  V30 15394 O 1498.3 -1.71862 -0.648771 0
M  V30 15395 C 1498.36 -2.31803 2.74786 0
M  V30 15396 C 1498.02 -1.8666 4.17141 0
M  V30 15397 C 1499.02 -1.36544 5.01649 0
M  V30 15398 C 1496.7 -1.94101 4.63282 0
M  V30 15399 C 1498.7 -0.944655 6.30361 0
M  V30 15400 C 1496.39 -1.51634 5.91988 0
M  V30 15401 C 1497.38 -1.01899 6.75356 0
M  V30 15402 O 1497.07 -0.600375 8.01655 0
M  V30 15403 H 1496.8 -0.366924 0.567752 0
M  V30 15404 H 1499.36 -0.513643 1.98874 0
M  V30 15405 H 1497.59 -3.03573 2.39542 0
M  V30 15406 H 1499.28 -2.93639 2.80234 0
M  V30 15407 H 1500.04 -1.30184 4.67201 0
M  V30 15408 H 1495.92 -2.31758 3.98509 0
M  V30 15409 H 1499.47 -0.555763 6.95383 0
M  V30 15410 H 1495.36 -1.57667 6.25948 0
M  V30 15411 H 1496.13 -0.725485 8.15278 0
M  V30 15412 N 1498.79 -1.41931 -0.685074 0
M  V30 15413 C 1500.02 -1.45229 -1.47364 0
M  V30 15414 C 1500.44 -0.060595 -1.88703 0
M  V30 15415 O 1499.79 0.92244 -1.57472 0
M  V30 15416 C 1499.84 -2.37033 -2.72942 0
M  V30 15417 O 1499.57 -3.70787 -2.33342 0
M  V30 15418 C 1501.07 -2.49244 -3.66596 0
M  V30 15419 H 1498.29 -0.494291 -0.453781 0
M  V30 15420 H 1500.83 -1.86333 -0.84263 0
M  V30 15421 H 1498.99 -1.9921 -3.32256 0
M  V30 15422 H 1499.4 -4.19853 -3.14362 0
M  V30 15423 H 1500.87 -3.17624 -4.51463 0
M  V30 15424 H 1501.35 -1.52703 -4.11799 0
M  V30 15425 H 1501.96 -2.87747 -3.1318 0
M  V30 15426 N 1500.27 0.920374 -1.27933 0
M  V30 15427 C 1501.22 2.04331 -1.11138 0
M  V30 15428 C 1502.21 1.69369 -0.0324493 0
M  V30 15429 O 1503.42 1.78987 -0.190723 0
M  V30 15430 H 1499.79 0.669381 -0.342685 0
M  V30 15431 H 1501.77 2.15641 -2.06256 0
M  V30 15432 C 1500.51 3.38768 -0.783049 0
M  V30 15433 H 1499.84 3.6616 -1.60521 0
M  V30 15434 H 1501.28 4.1809 -0.705448 0
M  V30 15435 C 1499.74 3.32972 0.512927 0
M  V30 15436 O 1500.27 3.70792 1.54519 0
M  V30 15437 N 1498.47 2.86068 0.511232 0
M  V30 15438 H 1498.02 2.55487 -0.329229 0
M  V30 15439 H 1497.98 2.82573 1.3784 0
M  V30 15440 N 1501.75 1.10074 1.1279 0
M  V30 15441 C 1502.68 0.704023 2.1812 0
M  V30 15442 C 1503.69 -0.25742 1.60752 0
M  V30 15443 O 1504.88 -0.0424559 1.7845 0
M  V30 15444 C 1501.98 0.0176666 3.38895 0
M  V30 15445 C 1501.16 1.00234 4.2576 0
M  V30 15446 C 1500.22 0.348158 5.25047 0
M  V30 15447 O 1499.24 0.997821 5.60386 0
M  V30 15448 N 1500.44 -0.894955 5.7356 0
M  V30 15449 H 1503.21 1.61024 2.52767 0
M  V30 15450 H 1500.77 0.989068 1.28176 0
M  V30 15451 H 1502.76 -0.431346 4.02395 0
M  V30 15452 H 1501.33 -0.7909 3.02429 0
M  V30 15453 H 1500.55 1.62972 3.58934 0
M  V30 15454 H 1501.84 1.669 4.80647 0
M  V30 15455 H 1501.24 -1.4422 5.47007 0
M  V30 15456 H 1499.79 -1.28718 6.38964 0
M  V30 15457 N 1503.23 -1.30138 0.888926 0
M  V30 15458 C 1504.16 -2.3047 0.374934 0
M  V30 15459 C 1505.14 -1.61156 -0.544322 0
M  V30 15460 O 1506.32 -1.88738 -0.457337 0
M  V30 15461 C 1503.45 -3.44896 -0.407935 0
M  V30 15462 C 1502.41 -4.25935 0.419916 0
M  V30 15463 C 1501.73 -5.32452 -0.489797 0
M  V30 15464 C 1503.03 -4.9508 1.66413 0
M  V30 15465 H 1504.73 -2.73711 1.21337 0
M  V30 15466 H 1502.27 -1.31586 0.584899 0
M  V30 15467 H 1504.23 -4.14153 -0.778177 0
M  V30 15468 H 1502.95 -3.0047 -1.28005 0
M  V30 15469 H 1501.61 -3.58372 0.772348 0
M  V30 15470 H 1501.26 -4.84273 -1.35974 0
M  V30 15471 H 1500.96 -5.87569 0.0603412 0
M  V30 15472 H 1502.48 -6.04563 -0.856468 0
M  V30 15473 H 1503.9 -5.56831 1.36425 0
M  V30 15474 H 1502.29 -5.6008 2.15477 0
M  V30 15475 H 1503.36 -4.20981 2.4063 0
M  V30 15476 N 1504.71 -0.650285 -1.43559 0
M  V30 15477 C 1506.12 -0.317586 -1.56408 0
M  V30 15478 C 1506.32 1.17844 -1.63447 0
M  V30 15479 O 1505.38 1.96318 -1.58794 0
M  V30 15480 C 1506.69 -1.02636 -2.82642 0
M  V30 15481 C 1508.24 -1.00633 -2.96381 0
M  V30 15482 C 1508.71 -1.69595 -4.25443 0
M  V30 15483 N 1510.2 -1.66345 -4.323 0
M  V30 15484 C 1510.94 -2.16581 -5.30924 0
M  V30 15485 N 1510.44 -2.75092 -6.35843 0
M  V30 15486 N 1512.23 -2.07098 -5.22558 0
M  V30 15487 H 1504.38 -1.62114 -1.37233 0
M  V30 15488 H 1506.64 -0.681588 -0.658895 0
M  V30 15489 H 1506.35 -2.08146 -2.83493 0
M  V30 15490 H 1506.22 -0.576081 -3.72775 0
M  V30 15491 H 1508.61 0.0403519 -2.95072 0
M  V30 15492 H 1508.69 -1.49528 -2.07545 0
M  V30 15493 H 1508.33 -2.74218 -4.27512 0
M  V30 15494 H 1508.26 -1.18168 -5.1317 0
M  V30 15495 H 1510.76 -1.23644 -3.571 0
M  V30 15496 H 1511.07 -3.11108 -7.07412 0
M  V30 15497 H 1509.41 -2.79152 -6.36474 0
M  V30 15498 H 1512.6 -1.61093 -4.39507 0
M  V30 15499 H 1512.78 -2.46557 -5.99261 0
M  V30 15500 N 1506.18 1.52647 -0.392018 0
M  V30 15501 C 1507.46 1.94034 0.247004 0
M  V30 15502 C 1507.84 1.32767 1.64122 0
M  V30 15503 O 1507.19 0.496822 2.23033 0
M  V30 15504 C 1507.4 3.47949 0.270615 0
M  V30 15505 C 1508.75 4.21666 0.498256 0
M  V30 15506 O 1509.77 3.54469 0.350708 0
M  V30 15507 O 1508.63 5.40795 0.787586 0
M  V30 15508 H 1505.72 0.812487 0.154251 0
M  V30 15509 H 1508.27 1.63715 -0.446723 0
M  V30 15510 H 1507.04 3.84881 -0.705862 0
M  V30 15511 H 1506.66 3.8458 1.00915 0
M  V30 15512 N 1507.66 0.121921 1.57128 0
M  V30 15513 C 1508.6 -0.864553 2.11189 0
M  V30 15514 C 1509.57 -1.25896 1.02902 0
M  V30 15515 O 1510.76 -1.3595 1.30575 0
M  V30 15516 C 1507.88 -2.15742 2.611 0
M  V30 15517 C 1506.93 -1.91085 3.81299 0
M  V30 15518 S 1507.76 -1.12448 5.23561 0
M  V30 15519 C 1508.92 -2.42908 5.76842 0
M  V30 15520 H 1509.15 -0.404737 2.94532 0
M  V30 15521 H 1506.69 -0.091909 1.54126 0
M  V30 15522 H 1508.64 -2.90024 2.9051 0
M  V30 15523 H 1507.3 -2.58841 1.77933 0
M  V30 15524 H 1506.5 -2.86889 4.1438 0
M  V30 15525 H 1506.1 -1.24922 3.5252 0
M  V30 15526 H 1508.39 -3.38728 5.86745 0
M  V30 15527 H 1509.33 -2.14367 6.74872 0
M  V30 15528 H 1509.74 -2.52409 5.04926 0
M  V30 15529 N 1509.14 -1.56867 -0.151857 0
M  V30 15530 C 1510.07 -2.00932 -1.18949 0
M  V30 15531 C 1511.05 -0.888062 -1.45077 0
M  V30 15532 O 1512.24 -1.15553 -1.56081 0
M  V30 15533 C 1509.37 -2.3858 -2.52383 0
M  V30 15534 C 1508.32 -3.53845 -2.40785 0
M  V30 15535 C 1507.65 -3.77292 -3.78886 0
M  V30 15536 C 1508.95 -4.8667 -1.89605 0
M  V30 15537 H 1510.64 -2.87863 -0.823107 0
M  V30 15538 H 1508.19 -1.38491 -0.394499 0
M  V30 15539 H 1510.14 -2.68006 -3.25193 0
M  V30 15540 H 1508.86 -1.48579 -2.90847 0
M  V30 15541 H 1507.52 -3.24577 -1.70427 0
M  V30 15542 H 1507.17 -2.84551 -4.14777 0
M  V30 15543 H 1506.87 -4.54861 -3.71989 0
M  V30 15544 H 1508.39 -4.09139 -4.53252 0
M  V30 15545 H 1509.81 -5.14846 -2.52204 0
M  V30 15546 H 1508.21 -5.6801 -1.93609 0
M  V30 15547 H 1509.28 -4.77366 -0.851438 0
M  V30 15548 N 1510.62 0.421051 -1.51871 0
M  V30 15549 C 1511.55 1.53273 -1.69064 0
M  V30 15550 C 1512.53 1.53435 -0.538182 0
M  V30 15551 O 1513.71 1.72321 -0.76406 0
M  V30 15552 C 1510.84 2.9183 -1.7191 0
M  V30 15553 C 1509.89 3.09628 -2.93314 0
M  V30 15554 S 1510.72 2.842 -4.53862 0
M  V30 15555 C 1511.88 4.25009 -4.59476 0
M  V30 15556 H 1512.11 1.38459 -2.6309 0
M  V30 15557 H 1509.64 0.611839 -1.4176 0
M  V30 15558 H 1511.6 3.71689 -1.74234 0
M  V30 15559 H 1510.26 3.03995 -0.790319 0
M  V30 15560 H 1509.45 4.1097 -2.91753 0
M  V30 15561 H 1509.06 2.37617 -2.88815 0
M  V30 15562 H 1511.35 5.18465 -4.36119 0
M  V30 15563 H 1512.29 4.31598 -5.61363 0
M  V30 15564 H 1512.7 4.09424 -3.88629 0
M  V30 15565 N 1512.1 1.42293 0.677538 0
M  V30 15566 C 1513.34 1.42334 1.43476 0
M  V30 15567 C 1513.67 0.0397842 1.94959 0
M  V30 15568 O 1512.94 -0.921258 1.72886 0
M  V30 15569 H 1511.52 0.523969 0.532415 0
M  V30 15570 H 1514.18 1.7769 0.800758 0
M  V30 15571 H 1513.27 2.12146 2.28912 0
M  V30 15572 N 1513.57 -0.913576 1.28419 0
M  V30 15573 C 1514.8 -1.70178 1.18551 0
M  V30 15574 C 1515.22 -1.864 -0.252307 0
M  V30 15575 O 1514.58 -1.37427 -1.18252 0
M  V30 15576 C 1514.63 -3.07145 1.8893 0
M  V30 15577 O 1513.73 -3.9465 1.19688 0
M  V30 15578 H 1513.08 -0.521092 0.411533 0
M  V30 15579 H 1515.61 -1.14228 1.69744 0
M  V30 15580 H 1515.62 -3.57375 1.96843 0
M  V30 15581 H 1514.29 -2.94655 2.93515 0
M  V30 15582 H 1512.87 -3.53085 1.19939 0
M  V30 15583 N 1515.05 -1.1067 -1.12204 0
M  V30 15584 C 1516.33 -0.762632 -1.8012 0
M  V30 15585 C 1516.71 0.750529 -1.97308 0
M  V30 15586 O 1516.06 1.67764 -1.55137 0
M  V30 15587 C 1516.27 -1.51651 -3.14329 0
M  V30 15588 C 1517.62 -1.69061 -3.89491 0
M  V30 15589 O 1518.64 -1.48009 -3.23994 0
M  V30 15590 O 1517.5 -2.03984 -5.07004 0
M  V30 15591 H 1514.59 -0.275417 -0.779791 0
M  V30 15592 H 1517.14 -1.20966 -1.19018 0
M  V30 15593 H 1515.91 -2.54622 -2.97125 0
M  V30 15594 H 1515.53 -1.0625 -3.83141 0
M  V30 15595 N 1516.53 1.29665 -0.895815 0
M  V30 15596 C 1517.76 2.00399 -0.534333 0
M  V30 15597 C 1518.18 1.66632 0.872654 0
M  V30 15598 O 1517.54 0.888811 1.58018 0
M  V30 15599 C 1517.59 3.53154 -0.729023 0
M  V30 15600 O 1516.69 4.11812 0.22023 0
M  V30 15601 H 1516.03 0.630173 -0.209233 0
M  V30 15602 H 1518.56 1.65253 -1.20634 0
M  V30 15603 H 1518.57 4.03073 -0.632179 0
M  V30 15604 H 1517.25 3.77067 -1.75481 0
M  V30 15605 H 1515.82 3.72822 0.0761687 0
M  V30 15606 N 1518.01 0.657889 1.43212 0
M  V30 15607 C 1519.25 0.173443 2.02057 0
M  V30 15608 C 1519.59 -1.21108 1.51811 0
M  V30 15609 O 1518.86 -1.80953 0.71317 0
M  V30 15610 C 1519.15 0.189429 3.59601 0
M  V30 15611 C 1519 1.6082 4.20068 0
M  V30 15612 C 1520.32 -0.471633 4.37566 0
M  V30 15613 H 1517.44 0.0644999 0.734172 0
M  V30 15614 H 1520.08 0.839462 1.7045 0
M  V30 15615 H 1518.23 -0.377689 3.8666 0
M  V30 15616 H 1519.9 2.22627 4.04024 0
M  V30 15617 H 1518.14 2.15407 3.7654 0
M  V30 15618 H 1518.81 1.5712 5.29167 0
M  V30 15619 H 1521.29 0.0109387 4.16099 0
M  V30 15620 H 1520.17 -0.429739 5.47215 0
M  V30 15621 H 1520.43 -1.54652 4.14168 0
M  V30 15622 N 1519.49 -1.52437 0.400108 0
M  V30 15623 C 1520.73 -2.0201 -0.17887 0
M  V30 15624 C 1521.07 -1.2856 -1.45554 0
M  V30 15625 O 1520.34 -0.389236 -1.90565 0
M  V30 15626 C 1520.62 -3.57453 -0.435784 0
M  V30 15627 C 1520.48 -4.41562 0.85693 0
M  V30 15628 C 1521.8 -4.228 -1.2218 0
M  V30 15629 H 1518.91 -0.734256 -0.063535 0
M  V30 15630 H 1521.56 -1.82406 0.531801 0
M  V30 15631 H 1519.71 -3.74288 -1.04117 0
M  V30 15632 H 1521.38 -4.36456 1.49344 0
M  V30 15633 H 1519.62 -4.08138 1.46989 0
M  V30 15634 H 1520.29 -5.48374 0.631675 0
M  V30 15635 H 1522.77 -4.10009 -0.709359 0
M  V30 15636 H 1521.64 -5.3152 -1.37031 0
M  V30 15637 H 1521.91 -3.81153 -2.23998 0
M  V30 15638 N 1520.96 -0.130252 -1.57061 0
M  V30 15639 C 1521.87 0.829198 -2.19457 0
M  V30 15640 C 1522.89 1.2843 -1.17395 0
M  V30 15641 O 1524.07 1.34496 -1.49909 0
M  V30 15642 C 1521.13 2.05727 -2.79065 0
M  V30 15643 C 1520.19 1.65301 -3.962 0
M  V30 15644 C 1519.43 2.82253 -4.52956 0
M  V30 15645 O 1519.65 3.97999 -4.08598 0
M  V30 15646 O 1518.58 2.5869 -5.43473 0
M  V30 15647 H 1522.41 0.328139 -3.01922 0
M  V30 15648 H 1519.99 0.0959361 -1.49092 0
M  V30 15649 H 1521.88 2.7763 -3.17017 0
M  V30 15650 H 1520.55 2.54817 -1.99624 0
M  V30 15651 H 1519.46 0.904712 -3.62996 0
M  V30 15652 H 1520.79 1.20942 -4.7711 0
M  V30 15653 N 1522.44 1.56945 0.143535 0
M  V30 15654 C 1523.39 1.98526 1.17711 0
M  V30 15655 C 1524.36 0.853402 1.425 0
M  V30 15656 O 1525.55 1.11574 1.54777 0
M  V30 15657 C 1522.69 2.37395 2.50475 0
M  V30 15658 C 1521.8 3.63887 2.32831 0
M  V30 15659 C 1520.93 3.91844 3.58653 0
M  V30 15660 C 1519.97 5.11595 3.36061 0
M  V30 15661 N 1519.11 5.35545 4.54022 0
M  V30 15662 H 1523.95 2.86624 0.815524 0
M  V30 15663 H 1521.49 1.41802 0.391231 0
M  V30 15664 H 1523.44 2.5796 3.27891 0
M  V30 15665 H 1522.07 1.52372 2.84575 0
M  V30 15666 H 1521.13 3.51078 1.46452 0
M  V30 15667 H 1522.44 4.51459 2.12098 0
M  V30 15668 H 1521.59 4.12926 4.44497 0
M  V30 15669 H 1520.33 3.027 3.82393 0
M  V30 15670 H 1519.34 4.90383 2.48606 0
M  V30 15671 H 1520.56 6.02295 3.13716 0
M  V30 15672 H 1518.51 4.49355 4.77929 0
M  V30 15673 H 1518.42 6.17393 4.36305 0
M  V30 15674 H 1519.69 5.61127 5.4107 0
M  V30 15675 N 1523.92 -0.412991 1.52093 0
M  V30 15676 C 1525.17 -1.15737 1.65191 0
M  V30 15677 C 1525.48 -1.91753 0.38601 0
M  V30 15678 O 1526.69 -2.68586 0.396731 0
M  V30 15679 C 1525.15 -2.10619 2.91835 0
M  V30 15680 C 1524.75 -1.40137 4.25518 0
M  V30 15681 C 1526.5 -2.85339 3.14296 0
M  V30 15682 C 1524.4 -2.33645 5.4329 0
M  V30 15683 H 1523.33 -0.435732 0.615348 0
M  V30 15684 H 1525.99 -0.422172 1.78578 0
M  V30 15685 H 1524.37 -2.87675 2.72138 0
M  V30 15686 H 1525.54 -0.684719 4.55684 0
M  V30 15687 H 1523.86 -0.774734 4.09129 0
M  V30 15688 H 1526.45 -3.55437 3.99461 0
M  V30 15689 H 1526.8 -3.48071 2.28369 0
M  V30 15690 H 1527.33 -2.15384 3.34447 0
M  V30 15691 H 1524.07 -1.75566 6.31551 0
M  V30 15692 H 1523.59 -3.03294 5.17467 0
M  V30 15693 H 1525.27 -2.94255 5.76215 0
M  V30 15694 N 1525.4 -1.4265 -0.669982 0
M  V30 15695 C 1526.65 -1.42667 -1.42579 0
M  V30 15696 C 1526.96 -0.0483217 -1.9554 0
M  V30 15697 O 1528.17 0.0740917 -2.71399 0
M  V30 15698 C 1526.62 -2.5098 -2.57948 0
M  V30 15699 C 1526.23 -3.94844 -2.11666 0
M  V30 15700 C 1527.98 -2.6017 -3.35428 0
M  V30 15701 C 1525.88 -4.94655 -3.24146 0
M  V30 15702 H 1524.81 -0.530651 -0.535654 0
M  V30 15703 H 1527.46 -1.68576 -0.724861 0
M  V30 15704 H 1525.85 -2.18244 -3.30432 0
M  V30 15705 H 1527.02 -4.36958 -1.46303 0
M  V30 15706 H 1525.33 -3.89547 -1.47111 0
M  V30 15707 H 1527.93 -3.31918 -4.19207 0
M  V30 15708 H 1528.27 -1.64683 -3.82342 0
M  V30 15709 H 1528.81 -2.92124 -2.70016 0
M  V30 15710 H 1525.55 -5.91636 -2.82218 0
M  V30 15711 H 1525.07 -4.57168 -3.88275 0
M  V30 15712 H 1526.75 -5.16593 -3.89538 0
M  V30 15713 N 1526.88 0.906753 -1.28902 0
M  V30 15714 C 1528.29 1.18635 -1.06761 0
M  V30 15715 C 1528.49 2.00643 0.185594 0
M  V30 15716 O 1527.55 2.3647 0.885324 0
M  V30 15717 C 1528.86 1.91414 -2.31907 0
M  V30 15718 C 1530.41 2.04269 -2.37156 0
M  V30 15719 C 1530.89 2.80458 -3.62088 0
M  V30 15720 N 1532.38 2.88016 -3.62769 0
M  V30 15721 C 1533.11 3.47485 -4.56116 0
M  V30 15722 N 1532.61 4.08178 -5.59788 0
M  V30 15723 N 1534.4 3.45092 -4.43698 0
M  V30 15724 H 1526.55 0.359413 -2.09337 0
M  V30 15725 H 1528.81 0.221688 -0.921715 0
M  V30 15726 H 1528.52 1.38587 -3.23244 0
M  V30 15727 H 1528.39 2.91929 -2.38867 0
M  V30 15728 H 1530.78 2.56275 -1.46312 0
M  V30 15729 H 1530.86 1.0291 -2.34186 0
M  V30 15730 H 1530.51 2.2913 -4.53279 0
M  V30 15731 H 1530.44 3.82147 -3.62314 0
M  V30 15732 H 1532.93 2.44902 -2.87805 0
M  V30 15733 H 1533.24 4.51557 -6.27149 0
M  V30 15734 H 1531.59 4.06661 -5.63606 0
M  V30 15735 H 1534.78 2.96891 -3.61903 0
M  V30 15736 H 1534.95 3.91145 -5.16633 0
M  V30 15737 N 1528.36 1.11264 1.11616 0
M  V30 15738 C 1529.58 0.88306 1.87661 0
M  V30 15739 C 1530.01 -0.561586 1.79521 0
M  V30 15740 O 1529.36 -1.3964 1.1563 0
M  V30 15741 C 1529.41 1.34698 3.34498 0
M  V30 15742 O 1528.52 0.517512 4.0914 0
M  V30 15743 H 1527.86 0.318233 0.582772 0
M  V30 15744 H 1530.39 1.48164 1.41098 0
M  V30 15745 H 1530.4 1.34068 3.85344 0
M  V30 15746 H 1529.07 2.39896 3.39739 0
M  V30 15747 H 1527.65 0.589751 3.68207 0
M  V30 15748 N 1529.83 -1.29188 0.902679 0
M  V30 15749 C 1530.76 -2.3006 0.399357 0
M  V30 15750 C 1531.74 -1.61724 -0.527199 0
M  V30 15751 O 1532.93 -1.89213 -0.437293 0
M  V30 15752 C 1530.06 -3.45309 -0.371331 0
M  V30 15753 C 1529.01 -4.25466 0.465068 0
M  V30 15754 C 1528.34 -5.32941 -0.433295 0
M  V30 15755 C 1529.64 -4.93287 1.71655 0
M  V30 15756 H 1531.33 -2.72409 1.24233 0
M  V30 15757 H 1528.88 -1.30958 0.598822 0
M  V30 15758 H 1530.83 -4.14955 -0.734207 0
M  V30 15759 H 1529.56 -3.01811 -1.24811 0
M  V30 15760 H 1528.22 -3.57532 0.810315 0
M  V30 15761 H 1527.86 -4.85688 -1.3083 0
M  V30 15762 H 1527.56 -5.87472 0.122657 0
M  V30 15763 H 1529.09 -6.05438 -0.792298 0
M  V30 15764 H 1530.5 -5.55353 1.42323 0
M  V30 15765 H 1528.9 -5.57763 2.21405 0
M  V30 15766 H 1529.97 -4.18406 2.45081 0
M  V30 15767 N 1531.31 -0.665475 -1.42861 0
M  V30 15768 C 1532.56 -0.184156 -2.01962 0
M  V30 15769 C 1532.89 1.20301 -1.52451 0
M  V30 15770 O 1532.17 1.80573 -0.722756 0
M  V30 15771 C 1532.45 -0.208497 -3.59496 0
M  V30 15772 C 1532.3 -1.63045 -4.19209 0
M  V30 15773 C 1533.62 0.448421 -4.3781 0
M  V30 15774 H 1530.74 -0.0683924 -0.73382 0
M  V30 15775 H 1533.38 -0.84849 -1.70002 0
M  V30 15776 H 1531.53 0.357179 -3.86855 0
M  V30 15777 H 1533.2 -2.24766 -4.02837 0
M  V30 15778 H 1531.45 -2.17401 -3.75392 0
M  V30 15779 H 1532.12 -1.59924 -5.28326 0
M  V30 15780 H 1534.59 -0.0330053 -4.16087 0
M  V30 15781 H 1533.47 0.400713 -5.47435 0
M  V30 15782 H 1533.73 1.52454 -4.14982 0
M  V30 15783 N 1532.79 1.52222 -0.408187 0
M  V30 15784 C 1534.21 1.59491 -0.0590201 0
M  V30 15785 C 1534.41 1.42109 1.42854 0
M  V30 15786 O 1533.46 1.24757 2.19527 0
M  V30 15787 C 1534.77 2.9557 -0.553093 0
M  V30 15788 C 1536.32 3.08801 -0.510986 0
M  V30 15789 C 1536.8 4.47358 -0.981554 0
M  V30 15790 N 1538.29 4.53596 -0.938335 0
M  V30 15791 C 1539.02 5.59076 -1.27364 0
M  V30 15792 N 1538.52 6.72113 -1.68035 0
M  V30 15793 N 1540.31 5.49279 -1.19367 0
M  V30 15794 H 1532.46 1.61768 -1.37641 0
M  V30 15795 H 1534.73 0.760959 -0.565372 0
M  V30 15796 H 1534.43 3.13566 -1.59276 0
M  V30 15797 H 1534.31 3.77181 0.0377629 0
M  V30 15798 H 1536.69 2.90489 0.519637 0
M  V30 15799 H 1536.77 2.29098 -1.13788 0
M  V30 15800 H 1536.42 4.66413 -2.0105 0
M  V30 15801 H 1536.35 5.25556 -0.331478 0
M  V30 15802 H 1538.84 3.72453 -0.639297 0
M  V30 15803 H 1539.15 7.48586 -1.91934 0
M  V30 15804 H 1537.5 6.73396 -1.71938 0
M  V30 15805 H 1540.69 4.59853 -0.8748 0
M  V30 15806 H 1540.86 6.31378 -1.45829 0
M  V30 15807 N 1534.27 0.138579 1.5699 0
M  V30 15808 C 1535.2 -0.800568 2.19347 0
M  V30 15809 C 1536.18 -1.26318 1.13921 0
M  V30 15810 O 1537.36 -1.32226 1.42232 0
M  V30 15811 C 1534.49 -2.04317 2.80842 0
M  V30 15812 C 1533.45 -1.71764 3.92022 0
M  V30 15813 C 1532.77 -3.03217 4.40413 0
M  V30 15814 C 1534.07 -0.970789 5.13199 0
M  V30 15815 H 1535.77 -0.280888 2.98079 0
M  V30 15816 H 1533.31 -0.133663 1.43378 0
M  V30 15817 H 1535.27 -2.70491 3.2313 0
M  V30 15818 H 1533.99 -2.58643 1.99428 0
M  V30 15819 H 1532.65 -1.07972 3.50339 0
M  V30 15820 H 1532.3 -3.55517 3.55832 0
M  V30 15821 H 1532 -2.82203 5.15398 0
M  V30 15822 H 1533.52 -3.70477 4.85365 0
M  V30 15823 H 1534.94 -1.53445 5.52384 0
M  V30 15824 H 1533.33 -0.860895 5.93893 0
M  V30 15825 H 1534.4 0.0390088 4.84884 0
M  V30 15826 N 1535.75 -1.57019 -0.13521 0
M  V30 15827 C 1536.99 -1.84262 -0.847071 0
M  V30 15828 C 1537.32 -0.721946 -1.80282 0
M  V30 15829 O 1536.6 0.273535 -1.92567 0
M  V30 15830 C 1536.88 -3.22043 -1.61123 0
M  V30 15831 C 1536.74 -4.44689 -0.67617 0
M  V30 15832 C 1538.05 -3.57188 -2.57108 0
M  V30 15833 H 1535.17 -0.670246 -0.306496 0
M  V30 15834 H 1537.82 -1.89671 -0.111843 0
M  V30 15835 H 1535.97 -3.17563 -2.23799 0
M  V30 15836 H 1537.64 -4.61262 -0.0595009 0
M  V30 15837 H 1535.88 -4.33798 0.0134526 0
M  V30 15838 H 1536.55 -5.37727 -1.24714 0
M  V30 15839 H 1539.03 -3.62354 -2.04545 0
M  V30 15840 H 1537.9 -4.54602 -3.07617 0
M  V30 15841 H 1538.16 -2.83758 -3.39019 0
M  V30 15842 N 1537.22 0.404919 -1.52309 0
M  V30 15843 C 1538.45 1.17764 -1.70723 0
M  V30 15844 C 1538.87 1.83403 -0.417744 0
M  V30 15845 O 1538.23 1.70181 0.625157 0
M  V30 15846 C 1538.28 2.2133 -2.84685 0
M  V30 15847 O 1537.38 3.27566 -2.50548 0
M  V30 15848 H 1536.73 0.343572 -0.568203 0
M  V30 15849 H 1539.26 0.474093 -1.99031 0
M  V30 15850 H 1539.27 2.6559 -3.09719 0
M  V30 15851 H 1537.94 1.72939 -3.78239 0
M  V30 15852 H 1536.52 2.88556 -2.36199 0
M  V30 15853 N 1538.7 1.43003 0.662408 0
M  V30 15854 C 1539.67 1.4713 1.75743 0
M  V30 15855 C 1540.67 0.357203 1.56782 0
M  V30 15856 O 1541.86 0.618566 1.62848 0
M  V30 15857 C 1538.99 1.31499 3.14517 0
M  V30 15858 H 1540.18 2.44641 1.73467 0
M  V30 15859 H 1537.73 1.29633 0.873208 0
M  V30 15860 H 1538.47 0.349596 3.2241 0
M  V30 15861 H 1538.25 2.12253 3.29683 0
M  V30 15862 H 1539.74 1.37298 3.94384 0
M  V30 15863 N 1540.18 -0.899904 1.29381 0
M  V30 15864 C 1541.11 -2.02045 1.17047 0
M  V30 15865 C 1542.09 -1.69977 0.0647354 0
M  V30 15866 O 1543.28 -1.92659 0.244173 0
M  V30 15867 C 1540.41 -3.36839 0.845991 0
M  V30 15868 C 1539.36 -3.83117 1.90802 0
M  V30 15869 C 1538.69 -5.15032 1.43686 0
M  V30 15870 C 1539.99 -4.03464 3.31684 0
M  V30 15871 H 1541.68 -2.12623 2.10789 0
M  V30 15872 H 1539.23 -1.02162 1.01484 0
M  V30 15873 H 1541.18 -4.14737 0.746413 0
M  V30 15874 H 1539.9 -3.26352 -0.127125 0
M  V30 15875 H 1538.56 -3.07435 1.99698 0
M  V30 15876 H 1538.21 -5.00961 0.452422 0
M  V30 15877 H 1537.91 -5.46967 2.14711 0
M  V30 15878 H 1539.43 -5.95472 1.35078 0
M  V30 15879 H 1540.85 -4.71845 3.25631 0
M  V30 15880 H 1539.25 -4.46752 4.00665 0
M  V30 15881 H 1540.32 -3.07807 3.74677 0
M  V30 15882 N 1541.66 -1.11854 -1.11024 0
M  V30 15883 C 1542.9 -0.871362 -1.83126 0
M  V30 15884 C 1543.24 0.601437 -1.84652 0
M  V30 15885 O 1542.51 1.44427 -1.30273 0
M  V30 15886 C 1542.8 -1.4391 -3.30094 0
M  V30 15887 C 1542.65 -2.97983 -3.36937 0
M  V30 15888 C 1543.97 -1.09361 -4.26296 0
M  V30 15889 H 1541.09 -0.317994 -0.664867 0
M  V30 15890 H 1543.73 -1.38414 -1.3016 0
M  V30 15891 H 1541.88 -1.00297 -3.7533 0
M  V30 15892 H 1543.55 -3.50231 -3.00227 0
M  V30 15893 H 1541.79 -3.33827 -2.77023 0
M  V30 15894 H 1542.46 -3.32797 -4.40398 0
M  V30 15895 H 1544.94 -1.47018 -3.89262 0
M  V30 15896 H 1543.82 -1.51756 -5.27505 0
M  V30 15897 H 1544.08 -0.0049637 -4.421 0
M  V30 15898 N 1543.14 1.28707 -0.909517 0
M  V30 15899 C 1544.39 1.94437 -0.536401 0
M  V30 15900 C 1544.7 1.72416 0.923685 0
M  V30 15901 O 1545.9 2.32333 1.40477 0
M  V30 15902 C 1544.36 3.48246 -0.908455 0
M  V30 15903 C 1543.97 3.79051 -2.38798 0
M  V30 15904 C 1545.71 4.20156 -0.605721 0
M  V30 15905 C 1543.62 5.2615 -2.70038 0
M  V30 15906 H 1542.55 0.727842 -0.196882 0
M  V30 15907 H 1545.2 1.46283 -1.10786 0
M  V30 15908 H 1543.58 3.95107 -0.265829 0
M  V30 15909 H 1544.76 3.43014 -3.07698 0
M  V30 15910 H 1543.07 3.20303 -2.66074 0
M  V30 15911 H 1545.67 5.28439 -0.815849 0
M  V30 15912 H 1546.01 4.13792 0.456266 0
M  V30 15913 H 1546.54 3.79059 -1.20662 0
M  V30 15914 H 1543.28 5.37587 -3.75073 0
M  V30 15915 H 1542.8 5.63399 -2.05771 0
M  V30 15916 H 1544.48 5.93846 -2.56819 0
M  V30 15917 N 1544.61 0.673042 1.42506 0
M  V30 15918 C 1545.86 0.194864 2.01862 0
M  V30 15919 C 1546.19 -1.19491 1.53087 0
M  V30 15920 O 1545.47 -1.80187 0.732322 0
M  V30 15921 C 1545.75 0.227559 3.5938 0
M  V30 15922 C 1545.6 1.65266 4.18338 0
M  V30 15923 C 1546.92 -0.425197 4.38041 0
M  V30 15924 H 1544.04 0.0722831 0.733447 0
M  V30 15925 H 1546.68 0.857493 1.6955 0
M  V30 15926 H 1544.83 -0.336658 3.87039 0
M  V30 15927 H 1546.51 2.26899 4.0164 0
M  V30 15928 H 1544.75 2.19388 3.74234 0
M  V30 15929 H 1545.42 1.62724 5.2747 0
M  V30 15930 H 1547.9 0.0550709 4.16064 0
M  V30 15931 H 1546.77 -0.371675 5.4764 0
M  V30 15932 H 1547.03 -1.50251 4.15785 0
M  V30 15933 N 1546.09 -1.52004 0.416254 0
M  V30 15934 C 1547.34 -2.02188 -0.157434 0
M  V30 15935 C 1547.67 -1.30097 -1.44182 0
M  V30 15936 O 1546.95 -0.409426 -1.90142 0
M  V30 15937 C 1547.23 -3.57896 -0.397847 0
M  V30 15938 C 1547.08 -4.40628 0.903715 0
M  V30 15939 C 1548.4 -4.24072 -1.17689 0
M  V30 15940 H 1545.52 -0.734889 -0.0557437 0
M  V30 15941 H 1548.16 -1.81831 0.551118 0
M  V30 15942 H 1546.31 -3.75372 -1.00142 0
M  V30 15943 H 1547.98 -4.34848 1.53964 0
M  V30 15944 H 1546.23 -4.06556 1.5131 0
M  V30 15945 H 1546.9 -5.47673 0.689802 0
M  V30 15946 H 1549.37 -4.10738 -0.665832 0
M  V30 15947 H 1548.25 -5.32944 -1.31386 0
M  V30 15948 H 1548.51 -3.83507 -2.19942 0
M  V30 15949 N 1547.57 -0.146903 -1.56914 0
M  V30 15950 C 1548.99 0.20951 -1.58219 0
M  V30 15951 C 1549.19 1.64679 -1.16116 0
M  V30 15952 O 1548.24 2.37352 -0.861414 0
M  V30 15953 C 1549.56 -0.0491564 -3.0066 0
M  V30 15954 C 1551.1 0.0145605 -3.12997 0
M  V30 15955 C 1551.58 -0.216773 -4.57487 0
M  V30 15956 N 1553.07 -0.163698 -4.62911 0
M  V30 15957 C 1553.8 -0.317204 -5.72522 0
M  V30 15958 N 1553.3 -0.528426 -6.90782 0
M  V30 15959 N 1555.09 -0.254814 -5.61522 0
M  V30 15960 H 1547.24 -1.08536 -1.82575 0
M  V30 15961 H 1549.51 -0.42963 -0.845057 0
M  V30 15962 H 1549.21 -1.04387 -3.35851 0
M  V30 15963 H 1549.09 0.670296 -3.71197 0
M  V30 15964 H 1551.47 0.999829 -2.77646 0
M  V30 15965 H 1551.56 -0.737219 -2.44946 0
M  V30 15966 H 1551.2 -1.19914 -4.93541 0
M  V30 15967 H 1551.13 0.555329 -5.23664 0
M  V30 15968 H 1553.62 -0.00509433 -3.779 0
M  V30 15969 H 1553.93 -0.635667 -7.70181 0
M  V30 15970 H 1552.28 -0.564746 -6.92702 0
M  V30 15971 H 1555.47 -0.0905626 -4.68012 0
M  V30 15972 H 1555.64 -0.377881 -6.46897 0
M  V30 15973 N 1549.05 1.57088 0.126881 0
M  V30 15974 C 1550 2.00736 1.17506 0
M  V30 15975 C 1550.99 0.902986 1.43327 0
M  V30 15976 O 1552.2 1.08819 1.43382 0
M  V30 15977 H 1548.57 0.639285 0.396003 0
M  V30 15978 H 1550.54 2.88015 0.780373 0
M  V30 15979 C 1549.29 2.42096 2.49569 0
M  V30 15980 H 1548.61 3.26639 2.30536 0
M  V30 15981 H 1550.05 2.76442 3.2149 0
M  V30 15982 C 1548.51 1.28148 3.11576 0
M  V30 15983 O 1549.04 0.593145 3.97297 0
M  V30 15984 N 1547.25 1.04055 2.71332 0
M  V30 15985 H 1546.8 1.60208 2.0172 0
M  V30 15986 H 1546.75 0.280075 3.1315 0
M  V30 15987 N 1550.53 -0.396836 1.52522 0
M  V30 15988 C 1551.48 -1.48365 1.73123 0
M  V30 15989 C 1552.46 -1.4988 0.585224 0
M  V30 15990 O 1553.65 -1.55649 0.842763 0
M  V30 15991 C 1550.78 -2.86165 1.89644 0
M  V30 15992 C 1549.87 -2.8925 3.10153 0
M  V30 15993 N 1550.26 -2.62017 4.32644 0
M  V30 15994 C 1548.56 -3.20419 3.10238 0
M  V30 15995 C 1549.26 -2.71985 5.14197 0
M  V30 15996 N 1548.23 -3.05385 4.49712 0
M  V30 15997 H 1552.04 -1.26124 2.65462 0
M  V30 15998 H 1549.55 -0.604696 1.50722 0
M  V30 15999 H 1551.55 -3.64404 2.02522 0
M  V30 16000 H 1550.21 -3.09395 0.985134 0
M  V30 16001 H 1551.22 -2.36183 4.6091 0
M  V30 16002 H 1547.89 -3.49164 2.2889 0
M  V30 16003 H 1549.28 -2.54541 6.21819 0
M  V30 16004 N 1552.01 -1.43353 -0.654814 0
M  V30 16005 C 1552.94 -1.44353 -1.7803 0
M  V30 16006 C 1553.95 -0.339872 -1.59213 0
M  V30 16007 O 1555.14 -0.604207 -1.67963 0
M  V30 16008 C 1552.24 -1.23913 -3.15434 0
M  V30 16009 C 1551.41 -2.47088 -3.60924 0
M  V30 16010 C 1550.47 -2.21896 -4.77126 0
M  V30 16011 O 1549.5 -2.95236 -4.86646 0
M  V30 16012 N 1550.7 -1.23459 -5.6722 0
M  V30 16013 H 1553.46 -2.41372 -1.77651 0
M  V30 16014 H 1551.03 -1.38488 -0.838603 0
M  V30 16015 H 1553.02 -1.04945 -3.90856 0
M  V30 16016 H 1551.59 -0.35346 -3.10595 0
M  V30 16017 H 1550.81 -2.81492 -2.75964 0
M  V30 16018 H 1552.1 -3.29066 -3.88064 0
M  V30 16019 H 1551.49 -0.6284 -5.62199 0
M  V30 16020 H 1550.05 -1.10474 -6.4237 0
M  V30 16021 N 1553.48 0.89303 -1.29857 0
M  V30 16022 C 1554.76 1.62492 -1.08884 0
M  V30 16023 C 1555.14 2.07926 0.364695 0
M  V30 16024 O 1554.49 1.84009 1.35473 0
M  V30 16025 C 1554.7 2.80063 -2.08245 0
M  V30 16026 C 1556.05 3.50589 -2.39526 0
M  V30 16027 O 1557.07 2.90241 -2.06492 0
M  V30 16028 O 1555.93 4.59399 -2.95998 0
M  V30 16029 H 1553.02 0.713805 -0.417626 0
M  V30 16030 H 1555.57 0.940513 -1.41253 0
M  V30 16031 H 1554.34 2.43735 -3.06119 0
M  V30 16032 H 1553.96 3.56205 -1.76645 0
M  V30 16033 N 1554.96 1.12442 1.10429 0
M  V30 16034 C 1555.89 0.814745 2.18824 0
M  V30 16035 C 1556.87 -0.221476 1.68652 0
M  V30 16036 O 1558.06 -0.0826537 1.94024 0
M  V30 16037 C 1555.19 0.268632 3.4626 0
M  V30 16038 C 1554.14 1.23792 4.09707 0
M  V30 16039 C 1553.47 0.552034 5.31843 0
M  V30 16040 C 1554.77 2.5926 4.53411 0
M  V30 16041 H 1556.46 1.72111 2.44986 0
M  V30 16042 H 1554.01 0.828968 1.17746 0
M  V30 16043 H 1555.96 0.0397207 4.21381 0
M  V30 16044 H 1554.68 -0.673079 3.19589 0
M  V30 16045 H 1553.34 1.45264 3.36592 0
M  V30 16046 H 1552.99 -0.394821 5.01448 0
M  V30 16047 H 1552.69 1.19861 5.75245 0
M  V30 16048 H 1554.22 0.332161 6.09696 0
M  V30 16049 H 1555.63 2.41816 5.19806 0
M  V30 16050 H 1554.03 3.19997 5.07663 0
M  V30 16051 H 1555.1 3.17699 3.66327 0
M  V30 16052 N 1556.44 -1.28223 0.91633 0
M  V30 16053 C 1557.69 -1.94149 0.546705 0
M  V30 16054 C 1558 -1.72904 -0.914529 0
M  V30 16055 O 1559.21 -2.33075 -1.39243 0
M  V30 16056 C 1557.66 -3.47759 0.92691 0
M  V30 16057 C 1557.27 -3.77779 2.40805 0
M  V30 16058 C 1559.02 -4.19829 0.627994 0
M  V30 16059 C 1556.92 -5.2471 2.72825 0
M  V30 16060 H 1555.85 -0.726787 0.200739 0
M  V30 16061 H 1558.5 -1.45694 1.1156 0
M  V30 16062 H 1556.89 -3.9496 0.286779 0
M  V30 16063 H 1558.06 -3.41377 3.09513 0
M  V30 16064 H 1556.37 -3.18887 2.67769 0
M  V30 16065 H 1558.97 -5.27999 0.843862 0
M  V30 16066 H 1559.31 -4.14028 -0.434315 0
M  V30 16067 H 1559.85 -3.78413 1.22671 0
M  V30 16068 H 1556.59 -5.35591 3.77919 0
M  V30 16069 H 1556.11 -5.623 2.08756 0
M  V30 16070 H 1557.79 -5.92475 2.59965 0
M  V30 16071 N 1557.92 -0.68059 -1.42147 0
M  V30 16072 C 1559.15 -0.213839 -2.05792 0
M  V30 16073 C 1559.56 1.13123 -1.51158 0
M  V30 16074 O 1558.92 1.7039 -0.653708 0
M  V30 16075 C 1558.97 -0.146507 -3.61203 0
M  V30 16076 O 1558.69 -1.43843 -4.13813 0
M  V30 16077 C 1560.19 0.343043 -4.41971 0
M  V30 16078 H 1557.41 -0.10262 -0.663106 0
M  V30 16079 H 1559.95 -0.928957 -1.82183 0
M  V30 16080 H 1558.11 0.519335 -3.83903 0
M  V30 16081 H 1558.52 -1.31561 -5.07732 0
M  V30 16082 H 1560 0.339053 -5.50958 0
M  V30 16083 H 1560.47 1.37933 -4.16979 0
M  V30 16084 H 1561.08 -0.291267 -4.24301 0
M  V30 16085 N 1559.4 1.51781 -0.424309 0
M  V30 16086 C 1560.64 2.02269 0.146709 0
M  V30 16087 C 1560.97 1.30859 1.4349 0
M  V30 16088 O 1560.25 0.419504 1.89922 0
M  V30 16089 C 1560.53 3.58101 0.378861 0
M  V30 16090 C 1560.39 4.40143 -0.92707 0
M  V30 16091 C 1561.7 4.2469 1.15438 0
M  V30 16092 H 1558.82 0.735174 0.0518456 0
M  V30 16093 H 1561.47 1.81537 -0.560753 0
M  V30 16094 H 1559.62 3.75897 0.981496 0
M  V30 16095 H 1561.29 4.34025 -1.56268 0
M  V30 16096 H 1559.53 4.05748 -1.53464 0
M  V30 16097 H 1560.2 5.47299 -0.718837 0
M  V30 16098 H 1562.68 4.11086 0.644041 0
M  V30 16099 H 1561.55 5.33633 1.28557 0
M  V30 16100 H 1561.81 3.84668 2.17905 0
M  V30 16101 N 1560.87 0.155222 1.56834 0
M  V30 16102 C 1562.12 -0.49285 1.95998 0
M  V30 16103 C 1562.44 -1.64857 1.0415 0
M  V30 16104 O 1561.71 -1.9562 0.104654 0
M  V30 16105 H 1560.29 -0.185063 0.723713 0
M  V30 16106 H 1562.95 0.232644 1.93507 0
M  V30 16107 H 1562.05 -0.863552 2.99915 0
M  V30 16108 N 1562.35 -1.57153 -0.118549 0
M  V30 16109 C 1563.31 -1.99438 -1.12947 0
M  V30 16110 C 1564.31 -0.884588 -1.34282 0
M  V30 16111 O 1565.5 -1.15062 -1.30792 0
M  V30 16112 C 1562.64 -2.33492 -2.48384 0
M  V30 16113 H 1563.83 -2.89952 -0.766034 0
M  V30 16114 H 1561.38 -1.5203 -0.362858 0
M  V30 16115 H 1562.12 -1.45859 -2.89647 0
M  V30 16116 H 1561.9 -3.14433 -2.34252 0
M  V30 16117 H 1563.39 -2.66945 -3.21139 0
M  V30 16118 N 1563.83 0.388742 -1.5273 0
M  V30 16119 C 1565.06 1.15495 -1.71664 0
M  V30 16120 C 1565.47 1.83717 -0.435127 0
M  V30 16121 O 1564.83 1.72686 0.590411 0
M  V30 16122 C 1564.88 2.20279 -2.86635 0
M  V30 16123 O 1564.6 1.54838 -4.09825 0
M  V30 16124 C 1566.1 3.09625 -3.1725 0
M  V30 16125 H 1563.32 0.346271 -0.57475 0
M  V30 16126 H 1565.87 0.454729 -1.9938 0
M  V30 16127 H 1564.02 2.85936 -2.61379 0
M  V30 16128 H 1564.44 2.24466 -4.74042 0
M  V30 16129 H 1565.91 3.79177 -4.01159 0
M  V30 16130 H 1566.39 3.73147 -2.31643 0
M  V30 16131 H 1566.99 2.49612 -3.44345 0
M  V30 16132 N 1565.31 1.43698 0.647203 0
M  V30 16133 C 1566.24 1.52135 1.77136 0
M  V30 16134 C 1567.22 0.375551 1.65902 0
M  V30 16135 O 1568.4 0.593564 1.84907 0
M  V30 16136 C 1565.53 1.44974 3.15594 0
M  V30 16137 C 1564.49 2.57866 3.41598 0
M  V30 16138 C 1563.81 2.35757 4.7992 0
M  V30 16139 C 1565.11 4.00089 3.35747 0
M  V30 16140 H 1566.81 2.46227 1.70332 0
M  V30 16141 H 1564.35 1.18507 0.818046 0
M  V30 16142 H 1566.31 1.4948 3.93997 0
M  V30 16143 H 1565.03 0.473905 3.23143 0
M  V30 16144 H 1563.69 2.52722 2.65569 0
M  V30 16145 H 1563.34 1.36403 4.84152 0
M  V30 16146 H 1563.04 3.11436 4.98278 0
M  V30 16147 H 1564.56 2.42055 5.60572 0
M  V30 16148 H 1565.98 4.06687 4.04078 0
M  V30 16149 H 1564.37 4.75842 3.65642 0
M  V30 16150 H 1565.44 4.24798 2.33825 0
M  V30 16151 N 1566.79 -0.886131 1.30328 0
M  V30 16152 C 1567.75 -1.97328 1.16594 0
M  V30 16153 C 1568.75 -1.60504 0.0975023 0
M  V30 16154 O 1569.94 -1.70739 0.345524 0
M  V30 16155 C 1567.07 -3.31714 0.786045 0
M  V30 16156 H 1568.26 -2.1094 2.13177 0
M  V30 16157 H 1565.82 -1.07238 1.13708 0
M  V30 16158 H 1566.55 -3.23804 -0.179334 0
M  V30 16159 H 1566.34 -3.5981 1.55817 0
M  V30 16160 H 1567.83 -4.11461 0.71339 0
M  V30 16161 N 1568.26 -1.13026 -1.09832 0
M  V30 16162 C 1569.19 -0.826338 -2.18389 0
M  V30 16163 C 1570.18 0.212529 -1.68767 0
M  V30 16164 O 1571.36 0.072363 -1.94065 0
M  V30 16165 C 1568.49 -0.286991 -3.46112 0
M  V30 16166 C 1567.44 -1.25963 -4.09044 0
M  V30 16167 C 1566.77 -0.580231 -5.31542 0
M  V30 16168 C 1568.07 -2.61661 -4.5203 0
M  V30 16169 H 1569.76 -1.73408 -2.4407 0
M  V30 16170 H 1567.31 -0.835201 -1.17305 0
M  V30 16171 H 1569.26 -0.062067 -4.21354 0
M  V30 16172 H 1567.99 0.656121 -3.19942 0
M  V30 16173 H 1566.65 -1.47047 -3.35816 0
M  V30 16174 H 1566.29 0.368222 -5.0165 0
M  V30 16175 H 1565.99 -1.2291 -5.74601 0
M  V30 16176 H 1567.52 -0.36449 -6.09511 0
M  V30 16177 H 1568.93 -2.44569 -5.18516 0
M  V30 16178 H 1567.33 -3.22685 -5.05959 0
M  V30 16179 H 1568.4 -3.19637 -3.64637 0
M  V30 16180 N 1569.74 1.27735 -0.923117 0
M  V30 16181 C 1570.67 2.29395 -0.435907 0
M  V30 16182 C 1571.65 1.62542 0.501403 0
M  V30 16183 O 1572.84 1.89884 0.407135 0
M  V30 16184 C 1569.97 3.45856 0.316348 0
M  V30 16185 C 1568.92 4.24672 -0.532697 0
M  V30 16186 C 1568.25 5.33563 0.348454 0
M  V30 16187 C 1569.55 4.90494 -1.79481 0
M  V30 16188 H 1571.24 2.70398 -1.28551 0
M  V30 16189 H 1568.79 1.29989 -0.619581 0
M  V30 16190 H 1570.74 4.1607 0.668098 0
M  V30 16191 H 1569.47 3.03758 1.19994 0
M  V30 16192 H 1568.12 3.56198 -0.867093 0
M  V30 16193 H 1567.77 4.87708 1.23086 0
M  V30 16194 H 1567.47 5.87202 -0.216104 0
M  V30 16195 H 1569 6.06622 0.695878 0
M  V30 16196 H 1570.41 5.53019 -1.5114 0
M  V30 16197 H 1568.81 5.5417 -2.30251 0
M  V30 16198 H 1569.88 4.14454 -2.51707 0
M  V30 16199 N 1571.22 0.688118 1.41784 0
M  V30 16200 C 1572.47 0.215517 2.00948 0
M  V30 16201 C 1572.79 -1.18656 1.54744 0
M  V30 16202 O 1572.06 -1.79925 0.774831 0
M  V30 16203 H 1570.64 0.0766876 0.743053 0
M  V30 16204 H 1573.3 0.88761 1.73515 0
M  V30 16205 H 1572.4 0.227139 3.11272 0
M  V30 16206 N 1572.7 -1.51554 0.432352 0
M  V30 16207 C 1573.94 -2.03954 -0.135014 0
M  V30 16208 C 1574.3 -1.30972 -1.40393 0
M  V30 16209 O 1575.5 -1.73719 -2.05122 0
M  V30 16210 C 1573.77 -3.55646 -0.35361 0
M  V30 16211 S 1575.33 -4.29781 -0.885096 0
M  V30 16212 H 1572.15 -0.710178 -0.0341871 0
M  V30 16213 H 1574.75 -1.86365 0.590612 0
M  V30 16214 H 1573.46 -4.06333 0.576335 0
M  V30 16215 H 1572.99 -3.7752 -1.10646 0
M  V30 16216 H 1575 -4.46564 -2.16322 0
M  V30 16217 N 1574.18 -0.163538 -1.56749 0
M  V30 16218 C 1575.09 0.782461 -2.21167 0
M  V30 16219 C 1576.1 1.25911 -1.20093 0
M  V30 16220 O 1577.28 1.31286 -1.52728 0
M  V30 16221 C 1574.34 1.99761 -2.83366 0
M  V30 16222 C 1573.4 1.56859 -3.99617 0
M  V30 16223 C 1572.64 2.72582 -4.58841 0
M  V30 16224 O 1572.86 3.89243 -4.16949 0
M  V30 16225 O 1571.79 2.47104 -5.48838 0
M  V30 16226 H 1575.62 0.264023 -3.0255 0
M  V30 16227 H 1573.21 0.06429 -1.49262 0
M  V30 16228 H 1575.09 2.70843 -3.22835 0
M  V30 16229 H 1573.76 2.50526 -2.04984 0
M  V30 16230 H 1572.67 0.827511 -3.64833 0
M  V30 16231 H 1574 1.10794 -4.79568 0
M  V30 16232 N 1575.65 1.57214 0.110213 0
M  V30 16233 C 1576.9 1.84946 0.814827 0
M  V30 16234 C 1577.22 0.750029 1.79999 0
M  V30 16235 O 1576.49 -0.225164 1.94602 0
M  V30 16236 H 1575.07 0.682385 0.303907 0
M  V30 16237 H 1577.74 1.94666 0.0954415 0
M  V30 16238 H 1576.83 2.81167 1.35469 0
M  V30 16239 N 1577.13 -0.380637 1.52934 0
M  V30 16240 C 1578.36 -1.15033 1.72575 0
M  V30 16241 C 1578.78 -1.82715 0.446869 0
M  V30 16242 O 1578.14 -1.71154 -0.598004 0
M  V30 16243 C 1578.19 -2.16773 2.8817 0
M  V30 16244 O 1577.29 -3.23539 2.55727 0
M  V30 16245 H 1576.63 -0.334489 0.573597 0
M  V30 16246 H 1579.16 -0.442369 1.9976 0
M  V30 16247 H 1579.17 -2.60629 3.13905 0
M  V30 16248 H 1577.85 -1.669 3.80943 0
M  V30 16249 H 1576.43 -2.84761 2.4076 0
M  V30 16250 N 1578.61 -1.44039 -0.639573 0
M  V30 16251 C 1580.02 -1.41236 -1.22104 0
M  V30 16252 C 1580.37 -0.123367 -1.95812 0
M  V30 16253 O 1579.5 0.776641 -2.01983 0
M  V30 16254 C 1580.09 -2.55853 -2.22092 0
M  V30 16255 C 1578.65 -2.56271 -2.75685 0
M  V30 16256 C 1577.8 -2.32877 -1.50544 0
M  V30 16257 H 1580.75 -1.52742 -0.430756 0
M  V30 16258 H 1580.77 -2.28123 -3.04533 0
M  V30 16259 H 1580.28 -3.49653 -1.68417 0
M  V30 16260 H 1578.38 -1.66389 -3.33385 0
M  V30 16261 H 1578.5 -3.54486 -3.22299 0
M  V30 16262 H 1576.86 -1.81807 -1.78377 0
M  V30 16263 H 1577.64 -3.2878 -0.987845 0
M  V30 16264 N 1580.09 0.879207 -1.30796 0
M  V30 16265 C 1581.33 1.63392 -1.21139 0
M  V30 16266 C 1581.69 1.91016 0.230372 0
M  V30 16267 O 1580.98 1.52411 1.1611 0
M  V30 16268 C 1581.18 2.97578 -1.97945 0
M  V30 16269 C 1581.01 2.83055 -3.49442 0
M  V30 16270 C 1579.78 2.82731 -4.18797 0
M  V30 16271 C 1581.97 2.58583 -4.44566 0
M  V30 16272 N 1579.96 2.5916 -5.56515 0
M  V30 16273 C 1581.33 2.44189 -5.69887 0
M  V30 16274 C 1583.38 2.43854 -4.34096 0
M  V30 16275 C 1582.08 2.16563 -6.85925 0
M  V30 16276 C 1584.11 2.17615 -5.49907 0
M  V30 16277 C 1583.47 2.04002 -6.74213 0
M  V30 16278 H 1579.57 0.602628 -0.498361 0
M  V30 16279 H 1582.16 1.03557 -1.64876 0
M  V30 16280 H 1580.33 3.55435 -1.56591 0
M  V30 16281 H 1582.06 3.62277 -1.80382 0
M  V30 16282 H 1578.81 2.94774 -3.70682 0
M  V30 16283 H 1579.24 2.50371 -6.29002 0
M  V30 16284 H 1583.88 2.53111 -3.38666 0
M  V30 16285 H 1581.6 2.06044 -7.81391 0
M  V30 16286 H 1585.18 2.07032 -5.43718 0
M  V30 16287 H 1584.06 1.83983 -7.62312 0
M  V30 16288 N 1581.57 1.13606 1.09231 0
M  V30 16289 C 1582.51 0.815279 2.15921 0
M  V30 16290 C 1583.48 -0.223501 1.64589 0
M  V30 16291 O 1584.67 -0.0952982 1.90562 0
M  V30 16292 C 1581.81 0.289655 3.43882 0
M  V30 16293 C 1580.92 1.38773 4.09104 0
M  V30 16294 C 1580.06 0.820238 5.24829 0
M  V30 16295 C 1579.1 1.89658 5.81976 0
M  V30 16296 N 1578.23 1.34688 6.8906 0
M  V30 16297 H 1583.07 1.72914 2.42703 0
M  V30 16298 H 1580.61 0.863101 1.19117 0
M  V30 16299 H 1582.57 -0.0332398 4.17187 0
M  V30 16300 H 1581.2 -0.587329 3.17412 0
M  V30 16301 H 1580.25 1.82718 3.33644 0
M  V30 16302 H 1581.56 2.20114 4.47606 0
M  V30 16303 H 1580.72 0.448745 6.05038 0
M  V30 16304 H 1579.46 -0.0242261 4.87694 0
M  V30 16305 H 1578.46 2.27712 5.00427 0
M  V30 16306 H 1579.69 2.74448 6.21172 0
M  V30 16307 H 1577.63 0.524453 6.539 0
M  V30 16308 H 1577.55 2.09675 7.26342 0
M  V30 16309 H 1578.82 1.00302 7.7302 0
M  V30 16310 N 1583.05 -1.27244 0.929878 0
M  V30 16311 C 1584.29 -1.94902 0.5818 0
M  V30 16312 C 1584.65 -1.71719 -0.867768 0
M  V30 16313 O 1583.94 -1.03697 -1.61113 0
M  V30 16314 C 1584.13 -3.47233 0.846386 0
M  V30 16315 C 1583.96 -3.85228 2.32012 0
M  V30 16316 C 1582.73 -4.08567 2.97323 0
M  V30 16317 C 1584.93 -3.94651 3.2978 0
M  V30 16318 N 1582.91 -4.33358 4.34826 0
M  V30 16319 C 1584.28 -4.23843 4.52501 0
M  V30 16320 C 1586.34 -3.77235 3.24959 0
M  V30 16321 C 1585.04 -4.37431 5.71005 0
M  V30 16322 C 1587.07 -3.92049 4.42777 0
M  V30 16323 C 1586.43 -4.21629 5.64277 0
M  V30 16324 H 1582.53 -0.736425 0.263063 0
M  V30 16325 H 1585.11 -1.53562 1.19695 0
M  V30 16326 H 1583.28 -3.87526 0.260378 0
M  V30 16327 H 1585.02 -4.02069 0.460717 0
M  V30 16328 H 1581.77 -4.03486 2.47984 0
M  V30 16329 H 1582.19 -4.49807 5.05967 0
M  V30 16330 H 1586.84 -3.53404 2.32089 0
M  V30 16331 H 1584.55 -4.60087 6.64339 0
M  V30 16332 H 1588.14 -3.7999 4.40567 0
M  V30 16333 H 1587.02 -4.32843 6.53924 0
M  V30 16334 N 1584.52 -0.695628 -1.41417 0
M  V30 16335 C 1585.45 -0.0447013 -2.33457 0
M  V30 16336 C 1586.43 0.767104 -1.51821 0
M  V30 16337 O 1587.62 0.720066 -1.80357 0
M  V30 16338 C 1584.75 0.892353 -3.3564 0
M  V30 16339 C 1583.7 0.187638 -4.27588 0
M  V30 16340 C 1583.03 1.23906 -5.20146 0
M  V30 16341 C 1584.33 -0.946093 -5.1366 0
M  V30 16342 H 1586.02 -0.81343 -2.88138 0
M  V30 16343 H 1583.57 -0.392614 -1.38544 0
M  V30 16344 H 1585.52 1.35696 -3.98954 0
M  V30 16345 H 1584.25 1.69275 -2.79309 0
M  V30 16346 H 1582.91 -0.256942 -3.65698 0
M  V30 16347 H 1582.55 2.03198 -4.6013 0
M  V30 16348 H 1582.25 0.772536 -5.82499 0
M  V30 16349 H 1583.78 1.70417 -5.86336 0
M  V30 16350 H 1585.19 -0.561764 -5.70541 0
M  V30 16351 H 1583.59 -1.33971 -5.84954 0
M  V30 16352 H 1584.66 -1.78573 -4.50821 0
M  V30 16353 N 1586 1.51322 -0.440383 0
M  V30 16354 C 1586.95 2.27823 0.369526 0
M  V30 16355 C 1587.92 1.31543 1.01418 0
M  V30 16356 O 1589.1 1.60449 1.03251 0
M  V30 16357 C 1586.24 3.12553 1.46304 0
M  V30 16358 C 1585.36 4.23829 0.836217 0
M  V30 16359 C 1584.49 4.95865 1.90504 0
M  V30 16360 C 1583.53 5.99058 1.25681 0
M  V30 16361 N 1582.67 6.64489 2.26712 0
M  V30 16362 H 1587.51 2.96593 -0.289205 0
M  V30 16363 H 1585.04 1.46287 -0.154466 0
M  V30 16364 H 1587 3.60006 2.10836 0
M  V30 16365 H 1585.63 2.4589 2.09136 0
M  V30 16366 H 1584.68 3.80318 0.0791116 0
M  V30 16367 H 1586 4.97753 0.322989 0
M  V30 16368 H 1585.15 5.46881 2.6269 0
M  V30 16369 H 1583.89 4.21578 2.452 0
M  V30 16370 H 1582.89 5.47331 0.520422 0
M  V30 16371 H 1584.12 6.75303 0.717138 0
M  V30 16372 H 1582.07 5.93014 2.80483 0
M  V30 16373 H 1581.98 7.34188 1.80289 0
M  V30 16374 H 1583.25 7.20134 2.98373 0
M  V30 16375 N 1587.48 0.171848 1.5666 0
M  V30 16376 C 1588.9 -0.184312 1.58532 0
M  V30 16377 C 1589.1 -1.62811 1.18721 0
M  V30 16378 O 1588.15 -2.35951 0.899066 0
M  V30 16379 C 1589.46 0.0969826 3.00544 0
M  V30 16380 C 1591.01 0.0352364 3.1298 0
M  V30 16381 C 1591.49 0.289528 4.57084 0
M  V30 16382 N 1592.98 0.237322 4.62592 0
M  V30 16383 C 1593.71 0.408247 5.71945 0
M  V30 16384 N 1593.21 0.638256 6.89854 0
M  V30 16385 N 1595 0.344115 5.61046 0
M  V30 16386 H 1587.15 1.11427 1.80825 0
M  V30 16387 H 1589.42 0.44302 0.838115 0
M  V30 16388 H 1589.12 1.09717 3.34148 0
M  V30 16389 H 1589 -0.611157 3.72216 0
M  V30 16390 H 1591.38 -0.955531 2.79202 0
M  V30 16391 H 1591.46 0.776095 2.43743 0
M  V30 16392 H 1591.11 1.27751 4.91571 0
M  V30 16393 H 1591.04 -0.471948 5.24481 0
M  V30 16394 H 1593.53 0.0652142 3.77844 0
M  V30 16395 H 1593.84 0.758116 7.69072 0
M  V30 16396 H 1592.19 0.674877 6.91716 0
M  V30 16397 H 1595.38 0.165008 4.67809 0
M  V30 16398 H 1595.55 0.480749 6.46214 0
M  V30 16399 N 1588.96 -1.5727 -0.101874 0
M  V30 16400 C 1589.9 -2.01577 -1.12406 0
M  V30 16401 C 1590.87 -0.890883 -1.40187 0
M  V30 16402 O 1592.06 -1.15638 -1.51764 0
M  V30 16403 C 1589.2 -2.43952 -2.44093 0
M  V30 16404 C 1588.31 -3.69932 -2.23101 0
M  V30 16405 C 1587.45 -4.01215 -3.48138 0
M  V30 16406 C 1586.49 -5.20325 -3.22379 0
M  V30 16407 N 1585.62 -5.47394 -4.39664 0
M  V30 16408 H 1590.46 -2.88685 -0.739244 0
M  V30 16409 H 1588 -1.42789 -0.353497 0
M  V30 16410 H 1589.96 -2.66563 -3.20936 0
M  V30 16411 H 1588.59 -1.59863 -2.80435 0
M  V30 16412 H 1587.64 -3.54838 -1.37092 0
M  V30 16413 H 1588.95 -4.56924 -2.00054 0
M  V30 16414 H 1588.11 -4.24566 -4.33392 0
M  V30 16415 H 1586.85 -3.12732 -3.74233 0
M  V30 16416 H 1585.85 -4.96802 -2.35517 0
M  V30 16417 H 1587.08 -6.10401 -2.97637 0
M  V30 16418 H 1585.02 -4.61869 -4.65847 0
M  V30 16419 H 1584.94 -6.28743 -4.19783 0
M  V30 16420 H 1586.21 -5.75276 -5.26002 0
M  V30 16421 N 1590.44 0.372521 -1.53134 0
M  V30 16422 C 1591.68 1.11754 -1.6923 0
M  V30 16423 C 1592.01 1.89167 -0.439265 0
M  V30 16424 O 1591.29 1.86164 0.563317 0
M  V30 16425 C 1591.57 2.08242 -2.93781 0
M  V30 16426 C 1591.43 1.34484 -4.29225 0
M  V30 16427 C 1592.74 3.08457 -3.13914 0
M  V30 16428 H 1589.86 0.404898 -0.615814 0
M  V30 16429 H 1592.51 0.399101 -1.85761 0
M  V30 16430 H 1590.66 2.69507 -2.79818 0
M  V30 16431 H 1592.33 0.76056 -4.54987 0
M  V30 16432 H 1590.57 0.646673 -4.28953 0
M  V30 16433 H 1591.24 2.05071 -5.12494 0
M  V30 16434 H 1593.72 2.57292 -3.27017 0
M  V30 16435 H 1592.59 3.73198 -4.0251 0
M  V30 16436 H 1592.85 3.78243 -2.28878 0
M  V30 16437 N 1591.91 1.44376 0.631925 0
M  V30 16438 C 1593.15 1.48638 1.40307 0
M  V30 16439 C 1593.52 0.115559 1.91652 0
M  V30 16440 O 1594.72 0.0328551 2.6878 0
M  V30 16441 C 1592.99 2.51663 2.53773 0
M  V30 16442 S 1594.55 2.74966 3.41964 0
M  V30 16443 H 1591.37 0.525735 0.478669 0
M  V30 16444 H 1593.97 1.81294 0.731632 0
M  V30 16445 H 1592.67 3.49968 2.14361 0
M  V30 16446 H 1592.2 2.20577 3.25744 0
M  V30 16447 H 1594.22 2.06501 4.51189 0
M  V30 16448 N 1593.39 -0.872258 1.31261 0
M  V30 16449 C 1594.32 -1.9853 1.14537 0
M  V30 16450 C 1595.34 -1.62578 0.0850723 0
M  V30 16451 O 1596.53 -1.75379 0.332343 0
M  V30 16452 C 1593.63 -3.31005 0.72727 0
M  V30 16453 C 1592.8 -3.95313 1.87208 0
M  V30 16454 C 1591.86 -5.06101 1.44042 0
M  V30 16455 O 1590.88 -5.27045 2.1497 0
M  V30 16456 N 1592.09 -5.79581 0.32653 0
M  V30 16457 H 1594.85 -2.13423 2.10406 0
M  V30 16458 H 1592.41 -1.0461 1.23565 0
M  V30 16459 H 1594.4 -4.02502 0.421255 0
M  V30 16460 H 1592.97 -3.12287 -0.13975 0
M  V30 16461 H 1592.19 -3.16825 2.34553 0
M  V30 16462 H 1593.48 -4.35015 2.63893 0
M  V30 16463 H 1592.88 -5.65083 -0.264202 0
M  V30 16464 H 1591.44 -6.51751 0.0800358 0
M  V30 16465 N 1594.87 -1.14184 -1.08627 0
M  V30 16466 C 1596.12 -0.903271 -1.80344 0
M  V30 16467 C 1596.43 0.571801 -1.87056 0
M  V30 16468 O 1597.64 0.92756 -2.55164 0
M  V30 16469 C 1596.09 -1.56653 -3.24018 0
M  V30 16470 C 1595.7 -3.07771 -3.25548 0
M  V30 16471 C 1597.45 -1.40899 -4.00434 0
M  V30 16472 C 1595.35 -3.66943 -4.63796 0
M  V30 16473 H 1594.28 -0.334288 -0.675846 0
M  V30 16474 H 1596.93 -1.3705 -1.22023 0
M  V30 16475 H 1595.32 -1.02698 -3.82452 0
M  V30 16476 H 1596.49 -3.68375 -2.76834 0
M  V30 16477 H 1594.8 -3.23136 -2.62625 0
M  V30 16478 H 1597.4 -1.82511 -5.02587 0
M  V30 16479 H 1597.74 -0.354822 -4.14785 0
M  V30 16480 H 1598.28 -1.91879 -3.48464 0
M  V30 16481 H 1595.02 -4.72203 -4.54648 0
M  V30 16482 H 1594.54 -3.11119 -5.12801 0
M  V30 16483 H 1596.22 -3.67103 -5.32771 0
M  V30 16484 N 1596.35 1.26749 -0.936613 0
M  V30 16485 C 1597.28 2.2892 -0.460213 0
M  V30 16486 C 1598.26 1.63065 0.484135 0
M  V30 16487 O 1599.44 1.90305 0.386973 0
M  V30 16488 C 1596.57 3.46172 0.279648 0
M  V30 16489 C 1595.53 4.24083 -0.57771 0
M  V30 16490 C 1594.85 5.33903 0.291843 0
M  V30 16491 C 1596.15 4.88562 -1.84673 0
M  V30 16492 H 1597.85 2.69019 -1.31412 0
M  V30 16493 H 1595.39 1.29325 -0.633333 0
M  V30 16494 H 1597.35 4.16755 0.623931 0
M  V30 16495 H 1596.07 3.05014 1.16765 0
M  V30 16496 H 1594.73 3.55258 -0.904824 0
M  V30 16497 H 1594.38 4.88986 1.17906 0
M  V30 16498 H 1594.08 5.8694 -0.278372 0
M  V30 16499 H 1595.6 6.07326 0.631498 0
M  V30 16500 H 1597.02 5.51384 -1.56997 0
M  V30 16501 H 1595.41 5.51697 -2.36115 0
M  V30 16502 H 1596.48 4.11761 -2.56088 0
M  V30 16503 N 1597.83 0.703118 1.41046 0
M  V30 16504 C 1599.07 0.236818 2.00708 0
M  V30 16505 C 1599.4 -1.17008 1.55994 0
M  V30 16506 O 1598.67 -1.79094 0.793871 0
M  V30 16507 H 1597.25 0.0845643 0.742198 0
M  V30 16508 H 1599.91 0.905964 1.72564 0
M  V30 16509 H 1599 0.260141 3.11014 0
M  V30 16510 N 1599.3 -1.51086 0.448402 0
M  V30 16511 C 1600.55 -2.01367 -0.115904 0
M  V30 16512 C 1600.87 -1.33658 -1.42811 0
M  V30 16513 O 1602.07 -1.74968 -2.07602 0
M  V30 16514 C 1600.53 -3.58981 -0.257092 0
M  V30 16515 C 1600.14 -4.35634 1.04534 0
M  V30 16516 C 1601.88 -4.17373 -0.774573 0
M  V30 16517 C 1599.79 -5.84978 0.869184 0
M  V30 16518 H 1598.72 -0.752528 -0.0470907 0
M  V30 16519 H 1601.37 -1.74098 0.57985 0
M  V30 16520 H 1599.75 -3.82742 -1.01611 0
M  V30 16521 H 1600.92 -4.23612 1.81354 0
M  V30 16522 H 1599.24 -3.88745 1.49219 0
M  V30 16523 H 1601.84 -5.26673 -0.923032 0
M  V30 16524 H 1602.18 -3.77267 -1.75997 0
M  V30 16525 H 1602.71 -3.97732 -0.0735697 0
M  V30 16526 H 1599.45 -6.29516 1.82729 0
M  V30 16527 H 1598.97 -5.99634 0.140969 0
M  V30 16528 H 1600.65 -6.44852 0.526752 0
M  V30 16529 N 1600.78 -0.180154 -1.56567 0
M  V30 16530 C 1601.73 0.763484 -2.19713 0
M  V30 16531 C 1602.72 1.23095 -1.16378 0
M  V30 16532 O 1603.93 1.19558 -1.34558 0
M  V30 16533 H 1600.31 0.264515 -0.703943 0
M  V30 16534 H 1602.28 0.207039 -2.97681 0
M  V30 16535 C 1601.03 1.97884 -2.85897 0
M  V30 16536 H 1600.35 1.62818 -3.65144 0
M  V30 16537 H 1601.79 2.61779 -3.33538 0
M  V30 16538 C 1600.25 2.80811 -1.86136 0
M  V30 16539 O 1600.78 3.78253 -1.35232 0
M  V30 16540 N 1598.98 2.46003 -1.54697 0
M  V30 16541 H 1598.53 1.66823 -1.96285 0
M  V30 16542 H 1598.49 3.01774 -0.88202 0
M  V30 16543 N 1602.26 1.57322 0.0935319 0
M  V30 16544 C 1603.19 1.97423 1.14452 0
M  V30 16545 C 1604.17 0.84769 1.38755 0
M  V30 16546 O 1605.36 1.10812 1.52489 0
M  V30 16547 C 1602.48 2.29234 2.49338 0
M  V30 16548 C 1601.53 3.51672 2.41306 0
M  V30 16549 S 1602.36 5.0333 1.82808 0
M  V30 16550 C 1603.52 5.3832 3.19315 0
M  V30 16551 H 1603.75 2.86259 0.80268 0
M  V30 16552 H 1601.28 1.51432 0.301269 0
M  V30 16553 H 1603.24 2.48237 3.26938 0
M  V30 16554 H 1601.9 1.40966 2.80691 0
M  V30 16555 H 1601.1 3.71377 3.40727 0
M  V30 16556 H 1600.7 3.32187 1.71837 0
M  V30 16557 H 1602.99 5.35061 4.15591 0
M  V30 16558 H 1603.93 6.39327 3.04413 0
M  V30 16559 H 1604.34 4.6578 3.18919 0
M  V30 16560 N 1603.74 -0.364395 1.53329 0
M  V30 16561 C 1604.7 -1.42927 1.79178 0
M  V30 16562 C 1605.7 -1.4653 0.662235 0
M  V30 16563 O 1606.89 -1.4727 0.930442 0
M  V30 16564 C 1604.02 -2.82035 1.91492 0
M  V30 16565 H 1605.22 -1.21281 2.74283 0
M  V30 16566 H 1602.77 -0.597596 1.44425 0
M  V30 16567 H 1603.5 -3.08993 0.984579 0
M  V30 16568 H 1603.29 -2.80818 2.73649 0
M  V30 16569 H 1604.78 -3.59148 2.13078 0
M  V30 16570 N 1605.22 -1.44709 -0.62426 0
M  V30 16571 C 1606.13 -1.54608 -1.76447 0
M  V30 16572 C 1607.14 -0.43137 -1.68568 0
M  V30 16573 O 1608.32 -0.6897 -1.89222 0
M  V30 16574 C 1605.38 -1.49404 -3.12857 0
M  V30 16575 C 1604.44 -2.71782 -3.32315 0
M  V30 16576 C 1603.68 -2.66817 -4.62217 0
M  V30 16577 O 1603.9 -1.73205 -5.43467 0
M  V30 16578 O 1602.83 -3.57773 -4.84027 0
M  V30 16579 H 1606.66 -2.50951 -1.71048 0
M  V30 16580 H 1604.25 -1.27033 -0.786326 0
M  V30 16581 H 1606.13 -1.4905 -3.9416 0
M  V30 16582 H 1604.8 -0.562078 -3.18783 0
M  V30 16583 H 1603.71 -2.77702 -2.50664 0
M  V30 16584 H 1605.04 -3.64048 -3.31255 0
M  V30 16585 N 1606.69 0.865285 -1.31722 0
M  V30 16586 C 1608.11 1.15179 -1.10481 0
M  V30 16587 C 1608.31 2.01132 0.121667 0
M  V30 16588 O 1607.37 2.39167 0.809645 0
M  V30 16589 C 1608.68 1.8394 -2.3788 0
M  V30 16590 C 1610.23 1.96621 -2.43535 0
M  V30 16591 C 1610.7 2.68796 -3.70827 0
M  V30 16592 N 1612.19 2.76329 -3.71748 0
M  V30 16593 C 1612.93 3.32798 -4.6694 0
M  V30 16594 N 1612.42 3.90162 -5.7249 0
M  V30 16595 N 1614.22 3.30801 -4.54453 0
M  V30 16596 H 1606.37 0.292632 -2.10374 0
M  V30 16597 H 1608.63 0.192252 -0.928301 0
M  V30 16598 H 1608.34 1.28233 -3.27489 0
M  V30 16599 H 1608.21 2.84182 -2.48034 0
M  V30 16600 H 1610.6 2.5149 -1.54392 0
M  V30 16601 H 1610.68 0.954071 -2.37342 0
M  V30 16602 H 1610.32 2.14593 -4.60339 0
M  V30 16603 H 1610.25 3.70427 -3.74288 0
M  V30 16604 H 1612.74 2.35621 -2.95451 0
M  V30 16605 H 1613.06 4.31376 -6.41198 0
M  V30 16606 H 1611.4 3.88525 -5.76258 0
M  V30 16607 H 1614.59 2.85227 -3.71165 0
M  V30 16608 H 1614.77 3.74511 -5.28815 0
M  V30 16609 N 1608.17 1.14759 1.0802 0
M  V30 16610 C 1609.1 0.795901 2.14937 0
M  V30 16611 C 1610.12 -0.189008 1.61699 0
M  V30 16612 O 1611.31 0.0332689 1.78469 0
M  V30 16613 C 1608.41 0.161388 3.38516 0
M  V30 16614 C 1607.58 1.18202 4.21126 0
M  V30 16615 C 1606.64 0.570535 5.23098 0
M  V30 16616 O 1605.66 1.2346 5.55649 0
M  V30 16617 N 1606.87 -0.650883 5.76839 0
M  V30 16618 H 1609.63 1.716 2.4571 0
M  V30 16619 H 1607.19 1.04254 1.23866 0
M  V30 16620 H 1609.18 -0.260289 4.03862 0
M  V30 16621 H 1607.75 -0.661917 3.05512 0
M  V30 16622 H 1606.97 1.78049 3.51699 0
M  V30 16623 H 1608.26 1.87135 4.73136 0
M  V30 16624 H 1607.66 -1.2089 5.52632 0
M  V30 16625 H 1606.22 -1.01501 6.43848 0
M  V30 16626 N 1609.65 -1.26251 0.943322 0
M  V30 16627 C 1610.88 -1.98278 0.608341 0
M  V30 16628 C 1611.3 -1.69756 -0.810208 0
M  V30 16629 O 1610.66 -0.946846 -1.54611 0
M  V30 16630 C 1610.71 -3.50205 0.859591 0
M  V30 16631 O 1609.81 -4.12345 -0.0672371 0
M  V30 16632 H 1609.15 -0.621973 0.232477 0
M  V30 16633 H 1611.68 -1.60662 1.26684 0
M  V30 16634 H 1611.69 -4.00449 0.781341 0
M  V30 16635 H 1610.37 -3.70294 1.89354 0
M  V30 16636 H 1608.94 -3.72848 0.0622543 0
M  V30 16637 N 1611.13 -0.710588 -1.40671 0
M  V30 16638 C 1612.41 -0.175319 -1.94813 0
M  V30 16639 C 1612.79 1.31792 -1.64906 0
M  V30 16640 O 1612.13 2.07167 -0.964058 0
M  V30 16641 C 1612.34 -0.482691 -3.45646 0
M  V30 16642 C 1613.69 -0.418619 -4.22531 0
M  V30 16643 O 1614.72 -0.418463 -3.53733 0
M  V30 16644 O 1613.58 -0.391787 -5.45094 0
M  V30 16645 H 1610.67 -0.0237744 -0.826658 0
M  V30 16646 H 1613.22 -0.787778 -1.50307 0
M  V30 16647 H 1611.99 -1.51569 -3.60753 0
M  V30 16648 H 1611.61 0.159984 -3.97278 0
M  V30 16649 N 1612.61 1.50847 -0.456408 0
M  V30 16650 C 1613.56 2.29805 0.359529 0
M  V30 16651 C 1614.55 1.3646 1.00374 0
M  V30 16652 O 1615.76 1.53718 0.936524 0
M  V30 16653 H 1612.13 0.739825 0.134772 0
M  V30 16654 H 1614.1 2.96603 -0.327009 0
M  V30 16655 C 1612.85 3.16597 1.43741 0
M  V30 16656 H 1612.17 3.88323 0.95108 0
M  V30 16657 H 1613.61 3.74866 1.98119 0
M  V30 16658 C 1612.07 2.3322 2.43126 0
M  V30 16659 O 1612.6 2.00504 3.48082 0
M  V30 16660 N 1610.81 1.96078 2.1448 0
M  V30 16661 H 1610.36 2.22883 1.29155 0
M  V30 16662 H 1610.31 1.40592 2.81214 0
M  V30 16663 N 1614.09 0.188454 1.56469 0
M  V30 16664 C 1615.33 -0.446133 1.98447 0
M  V30 16665 C 1615.69 -1.59695 1.07309 0
M  V30 16666 O 1614.98 -1.91248 0.116155 0
M  V30 16667 C 1615.17 -0.960652 3.44247 0
M  V30 16668 C 1615 0.138775 4.49486 0
M  V30 16669 C 1613.77 0.594191 5.01794 0
M  V30 16670 C 1615.97 0.945352 5.05537 0
M  V30 16671 N 1613.95 1.67213 5.90689 0
M  V30 16672 C 1615.32 1.87284 5.91037 0
M  V30 16673 C 1617.38 0.988513 4.87989 0
M  V30 16674 C 1616.08 2.83989 6.60865 0
M  V30 16675 C 1618.11 1.94358 5.58551 0
M  V30 16676 C 1617.47 2.85852 6.43792 0
M  V30 16677 H 1613.57 -0.130863 0.770973 0
M  V30 16678 H 1616.15 0.29262 1.92489 0
M  V30 16679 H 1614.32 -1.66887 3.50718 0
M  V30 16680 H 1616.06 -1.56529 3.73203 0
M  V30 16681 H 1612.81 0.188748 4.73224 0
M  V30 16682 H 1613.23 2.21211 6.3984 0
M  V30 16683 H 1617.88 0.295146 4.21769 0
M  V30 16684 H 1615.59 3.54305 7.26288 0
M  V30 16685 H 1619.18 1.9833 5.46952 0
M  V30 16686 H 1618.06 3.5855 6.97432 0
M  V30 16687 N 1615.56 -1.5737 -0.0851874 0
M  V30 16688 C 1616.5 -1.98027 -1.13404 0
M  V30 16689 C 1617.47 -0.855036 -1.38304 0
M  V30 16690 O 1618.66 -1.11619 -1.51899 0
M  V30 16691 C 1615.79 -2.30553 -2.48119 0
M  V30 16692 C 1614.83 -3.52947 -2.39438 0
M  V30 16693 S 1615.66 -5.04293 -1.80136 0
M  V30 16694 C 1616.82 -5.40006 -3.16456 0
M  V30 16695 H 1617.05 -2.86681 -0.787488 0
M  V30 16696 H 1614.59 -1.5159 -0.293234 0
M  V30 16697 H 1616.54 -2.49968 -3.25617 0
M  V30 16698 H 1615.21 -1.42452 -2.7994 0
M  V30 16699 H 1614.4 -3.73179 -3.38753 0
M  V30 16700 H 1614 -3.33094 -1.70072 0
M  V30 16701 H 1616.29 -5.37257 -4.12748 0
M  V30 16702 H 1617.24 -6.40932 -3.01018 0
M  V30 16703 H 1617.64 -4.67465 -3.16444 0
M  V30 16704 N 1617.04 0.356258 -1.53521 0
M  V30 16705 C 1617.99 1.43689 -1.80616 0
M  V30 16706 C 1618.96 1.52808 -0.651064 0
M  V30 16707 O 1620.14 1.68549 -0.894203 0
M  V30 16708 C 1617.28 2.80513 -2.01013 0
M  V30 16709 C 1616.4 2.80287 -3.2873 0
M  V30 16710 C 1615.53 4.08747 -3.39263 0
M  V30 16711 C 1614.57 4.02699 -4.60977 0
M  V30 16712 N 1613.71 5.22825 -4.68614 0
M  V30 16713 H 1618.55 1.19884 -2.72822 0
M  V30 16714 H 1616.08 0.580984 -1.35141 0
M  V30 16715 H 1618.04 3.60011 -2.10827 0
M  V30 16716 H 1616.67 3.02698 -1.12134 0
M  V30 16717 H 1615.72 1.92968 -3.27822 0
M  V30 16718 H 1617.04 2.71693 -4.18311 0
M  V30 16719 H 1616.19 4.96663 -3.4844 0
M  V30 16720 H 1614.93 4.20106 -2.47715 0
M  V30 16721 H 1613.93 3.13168 -4.51892 0
M  V30 16722 H 1615.16 3.92934 -5.53877 0
M  V30 16723 H 1613.11 5.34752 -3.79969 0
M  V30 16724 H 1613.02 5.16437 -5.52113 0
M  V30 16725 H 1614.29 6.12548 -4.82085 0
M  V30 16726 N 1618.52 1.45038 0.616577 0
M  V30 16727 C 1619.47 1.53022 1.7278 0
M  V30 16728 C 1620.44 0.376778 1.6177 0
M  V30 16729 O 1621.62 0.589006 1.81481 0
M  V30 16730 C 1618.76 1.49432 3.11069 0
M  V30 16731 C 1617.87 2.7526 3.3295 0
M  V30 16732 C 1617.01 2.63403 4.61294 0
M  V30 16733 C 1616.05 3.84327 4.76402 0
M  V30 16734 N 1615.19 3.71058 5.96037 0
M  V30 16735 H 1620.03 2.47957 1.65292 0
M  V30 16736 H 1617.56 1.23046 0.806102 0
M  V30 16737 H 1619.52 1.45339 3.91066 0
M  V30 16738 H 1618.15 0.580542 3.17537 0
M  V30 16739 H 1617.2 2.89479 2.46792 0
M  V30 16740 H 1618.51 3.64978 3.39989 0
M  V30 16741 H 1617.67 2.57226 5.49472 0
M  V30 16742 H 1616.41 1.7127 4.56638 0
M  V30 16743 H 1615.41 3.90873 3.8665 0
M  V30 16744 H 1616.64 4.77515 4.82863 0
M  V30 16745 H 1614.58 2.81687 5.92443 0
M  V30 16746 H 1614.5 4.54403 6.04197 0
M  V30 16747 H 1615.77 3.68798 6.86738 0
M  V30 16748 N 1620 -0.858287 1.32179 0
M  V30 16749 C 1621.24 -1.61221 1.22532 0
M  V30 16750 C 1621.57 -1.93322 -0.213739 0
M  V30 16751 O 1620.83 -1.5719 -1.16575 0
M  V30 16752 C 1621.13 -2.94391 2.02654 0
M  V30 16753 C 1620.79 -2.81735 3.52046 0
M  V30 16754 C 1619.45 -2.7799 3.92778 0
M  V30 16755 C 1621.81 -2.67928 4.47062 0
M  V30 16756 C 1619.13 -2.58312 5.26775 0
M  V30 16757 C 1621.49 -2.49785 5.81197 0
M  V30 16758 C 1620.15 -2.44431 6.21136 0
M  V30 16759 H 1619.42 -0.589949 0.448376 0
M  V30 16760 H 1622.07 -0.995897 1.63567 0
M  V30 16761 H 1620.37 -3.60122 1.54336 0
M  V30 16762 H 1622.07 -3.5174 1.92561 0
M  V30 16763 H 1618.66 -2.85472 3.19693 0
M  V30 16764 H 1622.84 -2.69868 4.16515 0
M  V30 16765 H 1618.1 -2.526 5.56779 0
M  V30 16766 H 1622.27 -2.38081 6.54439 0
M  V30 16767 H 1619.9 -2.28943 7.24906 0
M  V30 16768 N 1621.48 -1.1533 -1.07409 0
M  V30 16769 C 1622.7 -0.951643 -1.83715 0
M  V30 16770 C 1623.12 0.500054 -1.82057 0
M  V30 16771 O 1622.48 1.3468 -1.23157 0
M  V30 16772 C 1622.53 -1.45734 -3.30823 0
M  V30 16773 O 1622.25 -2.85217 -3.3254 0
M  V30 16774 C 1623.75 -1.29709 -4.23899 0
M  V30 16775 H 1620.97 -0.338021 -0.57964 0
M  V30 16776 H 1623.51 -1.53088 -1.35589 0
M  V30 16777 H 1621.67 -0.920643 -3.76302 0
M  V30 16778 H 1622.08 -3.08134 -4.24445 0
M  V30 16779 H 1623.56 -1.69938 -5.2519 0
M  V30 16780 H 1624.03 -0.241185 -4.38537 0
M  V30 16781 H 1624.64 -1.82283 -3.84256 0
M  V30 16782 N 1622.95 1.25748 -0.950004 0
M  V30 16783 C 1623.86 2.29783 -0.472971 0
M  V30 16784 C 1624.88 1.6788 0.457403 0
M  V30 16785 O 1626.06 1.98598 0.334779 0
M  V30 16786 C 1623.12 3.45826 0.245955 0
M  V30 16787 C 1622.18 4.23184 -0.722063 0
M  V30 16788 C 1621.41 5.33687 -0.0373517 0
M  V30 16789 O 1621.64 5.58105 1.1779 0
M  V30 16790 O 1620.57 5.97572 -0.72054 0
M  V30 16791 H 1624.4 2.72668 -1.33737 0
M  V30 16792 H 1621.98 1.31111 -0.71626 0
M  V30 16793 H 1623.86 4.16348 0.650563 0
M  V30 16794 H 1622.54 3.04953 1.0856 0
M  V30 16795 H 1621.45 3.55109 -1.17679 0
M  V30 16796 H 1622.78 4.67829 -1.52959 0
M  V30 16797 N 1624.43 0.718038 1.40292 0
M  V30 16798 C 1625.36 0.0160994 2.28194 0
M  V30 16799 C 1626.34 -0.765159 1.43472 0
M  V30 16800 O 1627.53 -0.751283 1.72881 0
M  V30 16801 C 1624.65 -0.984558 3.24074 0
M  V30 16802 C 1623.7 -0.293817 4.25487 0
M  V30 16803 S 1624.53 0.980059 5.26455 0
M  V30 16804 C 1625.69 -0.0184326 6.25897 0
M  V30 16805 H 1625.92 0.761585 2.8738 0
M  V30 16806 H 1623.45 0.509158 1.45763 0
M  V30 16807 H 1625.41 -1.55667 3.7984 0
M  V30 16808 H 1624.07 -1.70276 2.63941 0
M  V30 16809 H 1623.27 -1.05037 4.92933 0
M  V30 16810 H 1622.87 0.205802 3.73433 0
M  V30 16811 H 1625.16 -0.864464 6.71962 0
M  V30 16812 H 1626.1 0.622712 7.05357 0
M  V30 16813 H 1626.51 -0.383254 5.63197 0
M  V30 16814 N 1625.91 -1.50602 0.464402 0
M  V30 16815 C 1627.15 -2.04194 -0.0917216 0
M  V30 16816 C 1627.51 -1.33921 -1.37584 0
M  V30 16817 O 1628.72 -1.78031 -2.01391 0
M  V30 16818 C 1626.99 -3.56316 -0.278093 0
M  V30 16819 S 1628.55 -4.31561 -0.793734 0
M  V30 16820 H 1625.36 -0.710743 -0.0191155 0
M  V30 16821 H 1627.97 -1.85071 0.63001 0
M  V30 16822 H 1626.67 -4.05019 0.662395 0
M  V30 16823 H 1626.2 -3.79782 -1.02613 0
M  V30 16824 H 1628.22 -4.51052 -2.06801 0
M  V30 16825 N 1627.39 -0.19675 -1.56367 0
M  V30 16826 C 1628.34 0.740138 -2.2051 0
M  V30 16827 C 1629.33 1.21854 -1.17677 0
M  V30 16828 O 1630.54 1.18124 -1.35819 0
M  V30 16829 H 1626.91 0.257034 -0.706709 0
M  V30 16830 H 1628.88 0.175454 -2.97884 0
M  V30 16831 C 1627.63 1.94841 -2.8798 0
M  V30 16832 H 1626.95 1.58936 -3.66851 0
M  V30 16833 H 1628.39 2.58227 -3.36296 0
M  V30 16834 C 1626.85 2.78821 -1.89104 0
M  V30 16835 O 1627.38 3.76797 -1.39237 0
M  V30 16836 N 1625.59 2.44348 -1.57297 0
M  V30 16837 H 1625.14 1.64732 -1.98043 0
M  V30 16838 H 1625.09 3.00822 -0.913978 0
M  V30 16839 N 1628.87 1.57413 0.0768405 0
M  V30 16840 C 1629.83 2.02363 1.0762 0
M  V30 16841 C 1630.83 0.919879 1.3189 0
M  V30 16842 O 1632.02 1.18489 1.27695 0
M  V30 16843 C 1629.15 2.39995 2.42106 0
M  V30 16844 H 1630.34 2.91881 0.688889 0
M  V30 16845 H 1627.9 1.52938 0.322422 0
M  V30 16846 H 1628.63 1.53488 2.85678 0
M  V30 16847 H 1628.42 3.20534 2.25833 0
M  V30 16848 H 1629.91 2.75365 3.13948 0
M  V30 16849 N 1630.34 -0.348112 1.53707 0
M  V30 16850 C 1631.59 -1.08886 1.70734 0
M  V30 16851 C 1631.92 -1.88782 0.468142 0
M  V30 16852 O 1631.17 -1.8781 -0.550081 0
M  V30 16853 C 1631.47 -2.06123 2.91973 0
M  V30 16854 C 1631.14 -1.42574 4.27766 0
M  V30 16855 C 1629.8 -1.24971 4.64689 0
M  V30 16856 C 1632.15 -0.967538 5.12141 0
M  V30 16857 C 1629.48 -0.601597 5.83607 0
M  V30 16858 C 1631.83 -0.33335 6.31721 0
M  V30 16859 C 1630.5 -0.144967 6.67343 0
M  V30 16860 H 1629.77 -0.398444 0.624759 0
M  V30 16861 H 1632.41 -0.368657 1.87918 0
M  V30 16862 H 1630.72 -2.84509 2.69373 0
M  V30 16863 H 1632.42 -2.63423 3.0234 0
M  V30 16864 H 1629.01 -1.57271 3.98702 0
M  V30 16865 H 1633.19 -1.0914 4.84151 0
M  V30 16866 H 1628.45 -0.444216 6.09784 0
M  V30 16867 H 1632.62 0.0298081 6.96394 0
M  V30 16868 H 1630.25 0.359291 7.5935 0
M  V30 16869 N 1631.82 -1.45363 -0.608876 0
M  V30 16870 C 1633.24 -1.29741 -0.929491 0
M  V30 16871 C 1633.44 -0.249486 -1.9995 0
M  V30 16872 O 1632.49 0.357014 -2.49963 0
M  V30 16873 C 1633.81 -2.67594 -1.37164 0
M  V30 16874 C 1635.36 -2.7548 -1.48592 0
M  V30 16875 C 1635.83 -4.13855 -1.96183 0
M  V30 16876 N 1637.32 -4.16143 -2.03419 0
M  V30 16877 C 1638.06 -5.20081 -2.41462 0
M  V30 16878 N 1637.55 -6.34365 -2.78482 0
M  V30 16879 N 1639.35 -5.07439 -2.4179 0
M  V30 16880 H 1631.5 -2.12172 0.0983838 0
M  V30 16881 H 1633.76 -0.947817 -0.0186397 0
M  V30 16882 H 1633.47 -3.45459 -0.6596 0
M  V30 16883 H 1633.34 -2.9597 -2.33841 0
M  V30 16884 H 1635.73 -1.97919 -2.18888 0
M  V30 16885 H 1635.81 -2.50819 -0.502337 0
M  V30 16886 H 1635.45 -4.91901 -1.26475 0
M  V30 16887 H 1635.38 -4.35907 -2.95453 0
M  V30 16888 H 1637.87 -3.33671 -1.77404 0
M  V30 16889 H 1638.19 -7.09469 -3.06388 0
M  V30 16890 H 1636.53 -6.37769 -2.76181 0
M  V30 16891 H 1639.72 -4.17202 -2.12273 0
M  V30 16892 H 1639.89 -5.8856 -2.71112 0
M  V30 16893 N 1633.3 0.851265 -1.32632 0
M  V30 16894 C 1634.55 1.60252 -1.23141 0
M  V30 16895 C 1634.87 1.93909 0.205946 0
M  V30 16896 O 1634.14 1.59914 1.13156 0
M  V30 16897 H 1632.72 0.594137 -0.452781 0
M  V30 16898 H 1635.38 1.01806 -1.66197 0
M  V30 16899 H 1634.48 2.53796 -1.81643 0
M  V30 16900 N 1634.78 1.15898 1.06796 0
M  V30 16901 C 1635.71 0.88395 2.16122 0
M  V30 16902 C 1636.69 -0.167708 1.69271 0
M  V30 16903 O 1637.87 -0.0208846 1.94189 0
M  V30 16904 C 1635 0.378656 3.4523 0
M  V30 16905 C 1633.96 1.36764 4.05561 0
M  V30 16906 C 1633.28 0.720956 5.29817 0
M  V30 16907 C 1634.58 2.73554 4.44933 0
M  V30 16908 H 1636.28 1.79818 2.39386 0
M  V30 16909 H 1633.82 0.866008 1.15049 0
M  V30 16910 H 1635.78 0.17376 4.21042 0
M  V30 16911 H 1634.5 -0.571063 3.21569 0
M  V30 16912 H 1633.16 1.55899 3.318 0
M  V30 16913 H 1632.81 -0.235089 5.0245 0
M  V30 16914 H 1632.51 1.38101 5.71141 0
M  V30 16915 H 1634.03 0.525963 6.0833 0
M  V30 16916 H 1635.45 2.58231 5.11849 0
M  V30 16917 H 1633.84 3.35986 4.97226 0
M  V30 16918 H 1634.91 3.29192 3.56034 0
M  V30 16919 N 1636.26 -1.25243 0.956659 0
M  V30 16920 C 1637.53 -1.88287 0.529832 0
M  V30 16921 C 1637.91 -1.8629 -0.992929 0
M  V30 16922 O 1637.26 -1.32785 -1.85958 0
M  V30 16923 C 1637.47 -3.30919 1.10877 0
M  V30 16924 C 1638.82 -4.07674 1.18687 0
M  V30 16925 O 1639.84 -3.40048 1.06047 0
M  V30 16926 O 1638.7 -5.28648 1.38541 0
M  V30 16927 H 1635.8 -0.808258 0.175066 0
M  V30 16928 H 1638.34 -1.33298 1.05022 0
M  V30 16929 H 1637.11 -3.26813 2.15195 0
M  V30 16930 H 1636.74 -3.93468 0.571755 0
M  V30 16931 N 1637.73 -0.725468 -1.3991 0
M  V30 16932 C 1638.98 -0.278509 -2.01484 0
M  V30 16933 C 1639.34 1.11892 -1.56518 0
M  V30 16934 O 1638.63 1.75014 -0.77979 0
M  V30 16935 C 1638.82 -0.308261 -3.56068 0
M  V30 16936 C 1638.65 -1.70704 -4.16041 0
M  V30 16937 C 1637.42 -2.31703 -4.49045 0
M  V30 16938 C 1639.62 -2.659 -4.40229 0
M  V30 16939 N 1637.6 -3.63834 -4.94467 0
M  V30 16940 C 1638.97 -3.82751 -4.87751 0
M  V30 16941 C 1641.03 -2.63785 -4.22282 0
M  V30 16942 C 1639.73 -4.97809 -5.1921 0
M  V30 16943 C 1641.76 -3.77978 -4.54848 0
M  V30 16944 C 1641.12 -4.93563 -5.02568 0
M  V30 16945 H 1637.22 -0.147963 -0.767874 0
M  V30 16946 H 1639.8 -0.94939 -1.69984 0
M  V30 16947 H 1637.97 0.332226 -3.86977 0
M  V30 16948 H 1639.7 0.156344 -4.04398 0
M  V30 16949 H 1636.46 -1.83712 -4.36517 0
M  V30 16950 H 1636.88 -4.31644 -5.21548 0
M  V30 16951 H 1641.53 -1.75622 -3.846 0
M  V30 16952 H 1639.24 -5.86609 -5.55802 0
M  V30 16953 H 1642.83 -3.77628 -4.42593 0
M  V30 16954 H 1641.71 -5.8046 -5.27291 0
M  V30 16955 N 1639.21 1.50354 -0.472382 0
M  V30 16956 C 1640.46 2.01526 0.0838536 0
M  V30 16957 C 1640.77 1.35913 1.40667 0
M  V30 16958 O 1641.98 1.78248 2.04792 0
M  V30 16959 C 1640.44 3.59344 0.199949 0
M  V30 16960 C 1640.04 4.33916 -1.11451 0
M  V30 16961 C 1641.79 4.18553 0.708075 0
M  V30 16962 C 1639.7 5.83521 -0.962138 0
M  V30 16963 H 1638.63 0.753182 0.0351127 0
M  V30 16964 H 1641.28 1.73153 -0.607474 0
M  V30 16965 H 1639.66 3.8431 0.955088 0
M  V30 16966 H 1640.83 4.20673 -1.8807 0
M  V30 16967 H 1639.15 3.86322 -1.55385 0
M  V30 16968 H 1641.74 5.28075 0.839126 0
M  V30 16969 H 1642.09 3.80019 1.69973 0
M  V30 16970 H 1642.62 3.97799 0.0102847 0
M  V30 16971 H 1639.36 6.26529 -1.9272 0
M  V30 16972 H 1638.88 5.99334 -0.236348 0
M  V30 16973 H 1640.56 6.43933 -0.629276 0
M  V30 16974 N 1640.69 0.205039 1.56261 0
M  V30 16975 C 1641.65 -0.698166 2.18308 0
M  V30 16976 C 1642.65 -1.13376 1.14029 0
M  V30 16977 O 1643.84 -1.04524 1.39357 0
M  V30 16978 C 1640.98 -1.95438 2.79315 0
M  V30 16979 H 1642.17 -0.157462 2.99486 0
M  V30 16980 H 1639.72 -0.0445849 1.56236 0
M  V30 16981 H 1640.46 -2.53736 2.01962 0
M  V30 16982 H 1640.24 -1.65068 3.55662 0
M  V30 16983 H 1641.73 -2.59824 3.26927 0
M  V30 16984 N 1642.17 -1.57451 -0.0684915 0
M  V30 16985 C 1643.13 -2.0293 -1.06545 0
M  V30 16986 C 1644.13 -0.926861 -1.314 0
M  V30 16987 O 1645.32 -1.19164 -1.27065 0
M  V30 16988 C 1642.45 -2.41276 -2.4083 0
M  V30 16989 H 1643.65 -2.92242 -0.673401 0
M  V30 16990 H 1641.2 -1.53107 -0.314307 0
M  V30 16991 H 1641.94 -1.55 -2.8486 0
M  V30 16992 H 1641.72 -3.21727 -2.2413 0
M  V30 16993 H 1643.21 -2.77026 -3.12484 0
M  V30 16994 N 1643.65 0.339955 -1.5389 0
M  V30 16995 C 1644.59 1.41765 -1.8213 0
M  V30 16996 C 1645.56 1.52109 -0.667235 0
M  V30 16997 O 1646.75 1.67591 -0.91203 0
M  V30 16998 C 1643.89 2.78366 -2.03977 0
M  V30 16999 C 1643 2.76785 -3.31684 0
M  V30 17000 C 1642.14 4.05125 -3.4358 0
M  V30 17001 C 1641.18 3.97787 -4.65223 0
M  V30 17002 N 1640.31 5.17825 -4.74133 0
M  V30 17003 H 1645.15 1.16984 -2.74078 0
M  V30 17004 H 1642.69 0.566618 -1.35749 0
M  V30 17005 H 1644.65 3.57755 -2.14633 0
M  V30 17006 H 1643.28 3.01491 -1.15338 0
M  V30 17007 H 1642.33 1.89481 -3.2985 0
M  V30 17008 H 1643.64 2.67241 -4.2117 0
M  V30 17009 H 1642.8 4.9294 -3.53688 0
M  V30 17010 H 1641.54 4.17455 -2.52157 0
M  V30 17011 H 1640.54 3.08357 -4.55188 0
M  V30 17012 H 1641.77 3.87037 -5.58014 0
M  V30 17013 H 1639.71 5.30691 -3.8562 0
M  V30 17014 H 1639.63 5.10552 -5.5756 0
M  V30 17015 H 1640.9 6.074 -4.88554 0
M  V30 17016 N 1645.13 1.45684 0.601159 0
M  V30 17017 C 1646.37 1.49308 1.3561 0
M  V30 17018 C 1646.69 0.141561 1.95087 0
M  V30 17019 O 1647.89 0.0554805 2.71443 0
M  V30 17020 C 1646.35 2.63001 2.4568 0
M  V30 17021 C 1645.96 4.04493 1.92586 0
M  V30 17022 C 1647.7 2.75877 3.22633 0
M  V30 17023 C 1645.61 5.09557 3.00176 0
M  V30 17024 H 1644.54 0.555604 0.509726 0
M  V30 17025 H 1647.19 1.71843 0.643606 0
M  V30 17026 H 1645.57 2.33761 3.19643 0
M  V30 17027 H 1646.75 4.4344 1.25289 0
M  V30 17028 H 1645.06 3.96123 1.28358 0
M  V30 17029 H 1647.66 3.51541 4.02893 0
M  V30 17030 H 1648 1.82737 3.74049 0
M  V30 17031 H 1648.53 3.04674 2.5577 0
M  V30 17032 H 1645.27 6.04427 2.53669 0
M  V30 17033 H 1644.79 4.75173 3.6602 0
M  V30 17034 H 1646.47 5.34591 3.64447 0
M  V30 17035 N 1646.6 -0.84422 1.33082 0
M  V30 17036 C 1647.83 -1.63654 1.27405 0
M  V30 17037 C 1648.25 -1.87476 -0.153146 0
M  V30 17038 O 1647.61 -1.43502 -1.10801 0
M  V30 17039 C 1647.66 -2.96698 2.04945 0
M  V30 17040 O 1646.76 -3.87751 1.40439 0
M  V30 17041 H 1646.1 -0.498545 0.438576 0
M  V30 17042 H 1648.63 -1.0507 1.7556 0
M  V30 17043 H 1648.64 -3.46438 2.1551 0
M  V30 17044 H 1647.32 -2.78682 3.08722 0
M  V30 17045 H 1645.9 -3.46231 1.38487 0
M  V30 17046 N 1648.08 -1.16463 -1.0618 0
M  V30 17047 C 1649.03 -0.87224 -2.13683 0
M  V30 17048 C 1650 0.179784 -1.65124 0
M  V30 17049 O 1651.18 0.0447406 -1.90748 0
M  V30 17050 C 1648.32 -0.380728 -3.42993 0
M  V30 17051 C 1647.44 -1.49571 -4.05281 0
M  V30 17052 C 1646.57 -0.959099 -5.2247 0
M  V30 17053 C 1645.61 -2.05021 -5.76743 0
M  V30 17054 N 1644.75 -1.5291 -6.85247 0
M  V30 17055 H 1649.59 -1.79288 -2.38033 0
M  V30 17056 H 1647.12 -0.894379 -1.16787 0
M  V30 17057 H 1649.08 -0.0773816 -4.17128 0
M  V30 17058 H 1647.71 0.502966 -3.18857 0
M  V30 17059 H 1646.76 -1.915 -3.28682 0
M  V30 17060 H 1648.08 -2.31904 -4.41613 0
M  V30 17061 H 1647.23 -0.609003 -6.03636 0
M  V30 17062 H 1645.97 -0.105086 -4.87587 0
M  V30 17063 H 1644.97 -2.40899 -4.94214 0
M  V30 17064 H 1646.2 -2.90821 -6.13678 0
M  V30 17065 H 1644.15 -0.697639 -6.5228 0
M  V30 17066 H 1644.06 -2.28859 -7.20527 0
M  V30 17067 H 1645.33 -1.20762 -7.70089 0
M  V30 17068 N 1649.56 1.24734 -0.963288 0
M  V30 17069 C 1650.81 1.92686 -0.622766 0
M  V30 17070 C 1651.13 1.75357 0.841442 0
M  V30 17071 O 1650.39 1.09757 1.62025 0
M  V30 17072 C 1650.69 3.44867 -0.938151 0
M  V30 17073 C 1650.35 3.82361 -2.38979 0
M  V30 17074 C 1649.02 3.92307 -2.78655 0
M  V30 17075 C 1651.37 4.00775 -3.3321 0
M  V30 17076 C 1648.7 4.1808 -4.11614 0
M  V30 17077 C 1651.05 4.28043 -4.65792 0
M  V30 17078 C 1649.71 4.36207 -5.05252 0
M  V30 17079 H 1648.98 0.705088 -0.227886 0
M  V30 17080 H 1651.63 1.48107 -1.21395 0
M  V30 17081 H 1649.93 3.90905 -0.264676 0
M  V30 17082 H 1651.63 3.95645 -0.653134 0
M  V30 17083 H 1648.22 3.75182 -2.07212 0
M  V30 17084 H 1652.41 3.92497 -3.03743 0
M  V30 17085 H 1647.66 4.22619 -4.41818 0
M  V30 17086 H 1651.84 4.41236 -5.3878 0
M  V30 17087 H 1649.46 4.55931 -6.08301 0
M  V30 17088 N 1651.04 0.732878 1.39523 0
M  V30 17089 C 1652.29 0.276787 1.99792 0
M  V30 17090 C 1652.6 -1.14181 1.58814 0
M  V30 17091 O 1653.81 -1.69731 2.11905 0
M  V30 17092 C 1652.26 0.443924 3.57152 0
M  V30 17093 C 1651.87 1.87027 4.07093 0
M  V30 17094 C 1653.61 0.0495022 4.24471 0
M  V30 17095 C 1651.52 1.98708 5.57018 0
M  V30 17096 H 1650.45 0.0997337 0.747375 0
M  V30 17097 H 1653.1 0.906454 1.59548 0
M  V30 17098 H 1651.48 -0.254605 3.95181 0
M  V30 17099 H 1652.66 2.60059 3.80403 0
M  V30 17100 H 1650.97 2.21772 3.52429 0
M  V30 17101 H 1653.57 0.115815 5.34575 0
M  V30 17102 H 1653.91 -0.994967 4.04235 0
M  V30 17103 H 1654.45 0.69911 3.91609 0
M  V30 17104 H 1651.18 3.01336 5.82131 0
M  V30 17105 H 1650.7 1.30111 5.85518 0
M  V30 17106 H 1652.38 1.76725 6.22396 0
M  V30 17107 N 1652.52 -1.50101 0.480349 0
M  V30 17108 C 1653.79 -1.95144 -0.133456 0
M  V30 17109 C 1654.17 -1.4211 -1.56102 0
M  V30 17110 O 1653.52 -0.626012 -2.19757 0
M  V30 17111 C 1653.73 -3.48935 -0.0672904 0
M  V30 17112 C 1655.08 -4.23854 -0.251564 0
M  V30 17113 O 1656.1 -3.55911 -0.143446 0
M  V30 17114 O 1654.96 -5.44467 -0.470947 0
M  V30 17115 H 1652.06 -0.820098 -0.106619 0
M  V30 17116 H 1654.6 -1.60832 0.541413 0
M  V30 17117 H 1653.37 -3.80111 0.929058 0
M  V30 17118 H 1653 -3.8981 -0.783214 0
M  V30 17119 N 1653.99 -0.213323 -1.5615 0
M  V30 17120 C 1655.24 0.414505 -1.99132 0
M  V30 17121 C 1655.59 1.57968 -1.09836 0
M  V30 17122 O 1654.89 1.91039 -0.146566 0
M  V30 17123 C 1655.08 0.905764 -3.45732 0
M  V30 17124 C 1654.91 -0.210267 -4.49208 0
M  V30 17125 C 1653.68 -0.673947 -5.00785 0
M  V30 17126 C 1655.88 -1.02566 -5.03969 0
M  V30 17127 N 1653.86 -1.76589 -5.87954 0
M  V30 17128 C 1655.23 -1.96663 -5.87983 0
M  V30 17129 C 1657.29 -1.06602 -4.86354 0
M  V30 17130 C 1655.99 -2.94467 -6.56263 0
M  V30 17131 C 1658.02 -2.0322 -5.55388 0
M  V30 17132 C 1657.38 -2.96058 -6.39163 0
M  V30 17133 H 1653.48 0.118581 -0.772957 0
M  V30 17134 H 1656.06 -0.323206 -1.91999 0
M  V30 17135 H 1654.23 1.61286 -3.53329 0
M  V30 17136 H 1655.96 1.50572 -3.75646 0
M  V30 17137 H 1652.72 -0.26401 -4.72864 0
M  V30 17138 H 1653.14 -2.31362 -6.36239 0
M  V30 17139 H 1657.78 -0.362209 -4.21246 0
M  V30 17140 H 1655.5 -3.65815 -7.20559 0
M  V30 17141 H 1659.09 -2.07007 -5.43727 0
M  V30 17142 H 1657.97 -3.696 -6.91639 0
M  V30 17143 N 1655.47 1.57485 0.0601405 0
M  V30 17144 C 1656.4 2.07525 1.07031 0
M  V30 17145 C 1657.38 0.971136 1.39653 0
M  V30 17146 O 1658.57 1.24456 1.49078 0
M  V30 17147 C 1655.7 2.52888 2.38044 0
M  V30 17148 C 1654.65 3.67282 2.19745 0
M  V30 17149 C 1653.98 3.98741 3.56244 0
M  V30 17150 C 1655.28 4.96896 1.60908 0
M  V30 17151 H 1656.97 2.92173 0.653875 0
M  V30 17152 H 1654.52 1.40555 0.313083 0
M  V30 17153 H 1656.47 2.8651 3.09014 0
M  V30 17154 H 1655.2 1.65284 2.81689 0
M  V30 17155 H 1653.85 3.33961 1.51213 0
M  V30 17156 H 1653.5 3.08249 3.97481 0
M  V30 17157 H 1653.2 4.75775 3.44836 0
M  V30 17158 H 1654.73 4.34869 4.28627 0
M  V30 17159 H 1656.14 5.28674 2.21758 0
M  V30 17160 H 1654.54 5.78332 1.60164 0
M  V30 17161 H 1655.61 4.81518 0.571671 0
M  V30 17162 N 1656.95 -0.331789 1.54068 0
M  V30 17163 C 1657.9 -1.40798 1.82879 0
M  V30 17164 C 1658.87 -1.51753 0.675292 0
M  V30 17165 O 1660.05 -1.67105 0.920905 0
M  V30 17166 C 1657.19 -2.7728 2.0545 0
M  V30 17167 C 1656.31 -2.75022 3.33147 0
M  V30 17168 C 1655.44 -4.03297 3.45723 0
M  V30 17169 C 1654.48 -3.95314 4.67326 0
M  V30 17170 N 1653.62 -5.15303 4.76872 0
M  V30 17171 H 1658.46 -1.15529 2.74695 0
M  V30 17172 H 1655.99 -0.559411 1.36048 0
M  V30 17173 H 1657.95 -3.56611 2.16528 0
M  V30 17174 H 1656.58 -3.00875 1.16935 0
M  V30 17175 H 1655.63 -1.87729 3.30851 0
M  V30 17176 H 1656.95 -2.65003 4.22581 0
M  V30 17177 H 1656.1 -4.91057 3.56297 0
M  V30 17178 H 1654.84 -4.16112 2.54367 0
M  V30 17179 H 1653.84 -3.05939 4.56817 0
M  V30 17180 H 1655.07 -3.84072 5.60058 0
M  V30 17181 H 1653.01 -5.28639 3.88429 0
M  V30 17182 H 1652.93 -5.07588 5.60259 0
M  V30 17183 H 1654.2 -6.04801 4.91769 0
M  V30 17184 N 1658.43 -1.46001 -0.593424 0
M  V30 17185 C 1659.36 -1.51774 -1.71748 0
M  V30 17186 C 1660.37 -0.407093 -1.57628 0
M  V30 17187 O 1661.56 -0.674903 -1.65249 0
M  V30 17188 C 1658.66 -1.3718 -3.09895 0
M  V30 17189 C 1657.84 -2.62173 -3.5012 0
M  V30 17190 C 1656.89 -2.41933 -4.67285 0
M  V30 17191 O 1655.92 -3.15611 -4.73686 0
M  V30 17192 N 1657.12 -1.47405 -5.61473 0
M  V30 17193 H 1659.89 -2.48689 -1.67253 0
M  V30 17194 H 1657.45 -1.41921 -0.779111 0
M  V30 17195 H 1659.44 -1.21428 -3.86054 0
M  V30 17196 H 1658.01 -0.484876 -3.08817 0
M  V30 17197 H 1657.23 -2.92943 -2.63777 0
M  V30 17198 H 1658.52 -3.45229 -3.73758 0
M  V30 17199 H 1657.92 -0.866282 -5.59028 0
M  V30 17200 H 1656.47 -1.3762 -6.37106 0
M  V30 17201 N 1659.91 0.83715 -1.33527 0
M  V30 17202 C 1660.85 1.94709 -1.23924 0
M  V30 17203 C 1661.82 1.65684 -0.117494 0
M  V30 17204 O 1663.01 1.88489 -0.296057 0
M  V30 17205 C 1660.15 3.3071 -0.986146 0
M  V30 17206 C 1659.26 3.72121 -2.19432 0
M  V30 17207 C 1658.4 4.96999 -1.87524 0
M  V30 17208 C 1657.44 5.3095 -3.04563 0
M  V30 17209 N 1656.57 6.47006 -2.72632 0
M  V30 17210 H 1661.41 2.02255 -2.18854 0
M  V30 17211 H 1658.95 0.989703 -1.08827 0
M  V30 17212 H 1660.91 4.09065 -0.819834 0
M  V30 17213 H 1659.54 3.22716 -0.0735786 0
M  V30 17214 H 1658.59 2.89274 -2.47032 0
M  V30 17215 H 1659.9 3.93192 -3.06923 0
M  V30 17216 H 1659.06 5.83107 -1.67546 0
M  V30 17217 H 1657.79 4.77901 -0.972714 0
M  V30 17218 H 1656.8 4.43346 -3.25153 0
M  V30 17219 H 1658.02 5.51995 -3.95573 0
M  V30 17220 H 1655.97 6.29391 -1.8494 0
M  V30 17221 H 1655.89 6.6818 -3.53654 0
M  V30 17222 H 1657.16 7.3622 -2.56125 0
M  V30 17223 N 1661.38 1.17024 1.05561 0
M  V30 17224 C 1662.63 0.950769 1.77886 0
M  V30 17225 C 1662.95 -0.522005 1.88506 0
M  V30 17226 O 1664.15 -0.859582 2.57533 0
M  V30 17227 C 1662.61 1.65189 3.19751 0
M  V30 17228 C 1662.22 3.16294 3.17273 0
M  V30 17229 C 1663.96 1.51466 3.96558 0
M  V30 17230 C 1661.87 3.79111 4.53904 0
M  V30 17231 H 1660.8 0.352089 0.666745 0
M  V30 17232 H 1663.45 1.40237 1.18346 0
M  V30 17233 H 1661.83 1.12801 3.79594 0
M  V30 17234 H 1663 3.75585 2.66969 0
M  V30 17235 H 1661.32 3.29986 2.53966 0
M  V30 17236 H 1663.92 1.95772 4.97571 0
M  V30 17237 H 1664.26 0.46467 4.13699 0
M  V30 17238 H 1664.79 2.0105 3.43254 0
M  V30 17239 H 1661.53 4.84091 4.41969 0
M  V30 17240 H 1661.05 3.24606 5.04372 0
M  V30 17241 H 1662.73 3.81099 5.2285 0
M  V30 17242 N 1662.86 -1.24221 0.969889 0
M  V30 17243 C 1663.79 -2.27619 0.520745 0
M  V30 17244 C 1664.77 -1.64291 -0.440731 0
M  V30 17245 O 1665.96 -1.91265 -0.336381 0
M  V30 17246 C 1663.09 -3.46792 -0.187768 0
M  V30 17247 C 1662.04 -4.22402 0.689945 0
M  V30 17248 C 1661.37 -5.34489 -0.150186 0
M  V30 17249 C 1662.67 -4.83494 1.97562 0
M  V30 17250 H 1664.36 -2.65441 1.38498 0
M  V30 17251 H 1661.91 -1.276 0.667398 0
M  V30 17252 H 1663.86 -4.18263 -0.513216 0
M  V30 17253 H 1662.59 -3.08002 -1.08637 0
M  V30 17254 H 1661.24 -3.52734 0.998696 0
M  V30 17255 H 1660.89 -4.9194 -1.049 0
M  V30 17256 H 1660.59 -5.85996 0.433891 0
M  V30 17257 H 1662.12 -6.08786 -0.470255 0
M  V30 17258 H 1663.53 -5.47028 1.71561 0
M  V30 17259 H 1661.93 -5.45243 2.5066 0
M  V30 17260 H 1663 -4.04826 2.66915 0
M  V30 17261 N 1664.34 -0.740267 -1.39132 0
M  V30 17262 C 1665.75 -0.359866 -1.83199 0
M  V30 17263 C 1666.1 1.1095 -1.61816 0
M  V30 17264 O 1665.23 1.85635 -1.11215 0
M  V30 17265 C 1665.82 -0.64639 -3.32577 0
M  V30 17266 C 1664.38 -0.319423 -3.75042 0
M  V30 17267 C 1663.53 -0.906345 -2.6207 0
M  V30 17268 H 1666.48 -0.93749 -1.2805 0
M  V30 17269 H 1666.5 0.080033 -3.80416 0
M  V30 17270 H 1666.01 -1.71588 -3.48108 0
M  V30 17271 H 1664.11 0.744022 -3.65096 0
M  V30 17272 H 1664.23 -0.805664 -4.72277 0
M  V30 17273 H 1662.59 -0.332615 -2.52519 0
M  V30 17274 H 1663.37 -1.9806 -2.80405 0
M  V30 17275 N 1665.82 1.49844 -0.488302 0
M  V30 17276 C 1666.73 2.32651 0.301746 0
M  V30 17277 C 1667.74 1.43807 0.979573 0
M  V30 17278 O 1668.92 1.76844 0.963758 0
M  V30 17279 C 1665.99 3.18928 1.35962 0
M  V30 17280 C 1665.05 4.23611 0.696575 0
M  V30 17281 C 1664.28 5.05765 1.70404 0
M  V30 17282 O 1664.5 4.89243 2.93253 0
M  V30 17283 O 1663.44 5.88427 1.26637 0
M  V30 17284 H 1667.26 3.01367 -0.375687 0
M  V30 17285 H 1664.85 1.47296 -0.249844 0
M  V30 17286 H 1666.73 3.72413 1.97198 0
M  V30 17287 H 1665.4 2.52921 2.02021 0
M  V30 17288 H 1664.31 3.74073 0.0448118 0
M  V30 17289 H 1665.64 4.92137 0.0786446 0
M  V30 17290 N 1667.3 0.221601 1.56034 0
M  V30 17291 C 1668.23 -0.683171 2.23282 0
M  V30 17292 C 1669.21 -1.20101 1.20456 0
M  V30 17293 O 1670.39 -1.245 1.49041 0
M  V30 17294 C 1667.52 -1.89143 2.91277 0
M  V30 17295 C 1666.48 -1.50742 4.00576 0
M  V30 17296 C 1665.8 -2.79446 4.55867 0
M  V30 17297 C 1667.1 -0.697388 5.17623 0
M  V30 17298 H 1668.8 -0.122488 2.99149 0
M  V30 17299 H 1666.34 -0.0574732 1.43885 0
M  V30 17300 H 1668.3 -2.52982 3.37013 0
M  V30 17301 H 1667.02 -2.47708 2.12858 0
M  V30 17302 H 1665.68 -0.892492 3.5557 0
M  V30 17303 H 1665.33 -3.36155 3.74177 0
M  V30 17304 H 1665.03 -2.54486 5.29633 0
M  V30 17305 H 1666.55 -3.44228 5.04321 0
M  V30 17306 H 1667.96 -1.23948 5.59741 0
M  V30 17307 H 1666.36 -0.544875 5.97621 0
M  V30 17308 H 1667.43 0.295981 4.83996 0
M  V30 17309 N 1668.77 -1.57515 -0.0517878 0
M  V30 17310 C 1669.72 -2.05051 -1.05937 0
M  V30 17311 C 1670.69 -0.935032 -1.37282 0
M  V30 17312 O 1671.88 -1.20408 -1.48009 0
M  V30 17313 C 1669.02 -2.51594 -2.36208 0
M  V30 17314 C 1668.13 -3.76843 -2.11219 0
M  V30 17315 C 1667.26 -4.12088 -3.35197 0
M  V30 17316 C 1666.3 -5.30318 -3.05662 0
M  V30 17317 N 1665.44 -5.61104 -4.22026 0
M  V30 17318 H 1670.28 -2.90891 -0.647027 0
M  V30 17319 H 1667.82 -1.43842 -0.307891 0
M  V30 17320 H 1669.78 -2.76638 -3.12293 0
M  V30 17321 H 1668.41 -1.68704 -2.75207 0
M  V30 17322 H 1667.46 -3.5902 -1.25734 0
M  V30 17323 H 1668.77 -4.63057 -1.85416 0
M  V30 17324 H 1667.92 -4.38139 -4.19666 0
M  V30 17325 H 1666.66 -3.24479 -3.64094 0
M  V30 17326 H 1665.67 -5.04043 -2.19592 0
M  V30 17327 H 1666.89 -6.19561 -2.78067 0
M  V30 17328 H 1664.84 -4.76456 -4.50917 0
M  V30 17329 H 1664.76 -6.4178 -3.99568 0
M  V30 17330 H 1666.02 -5.91719 -5.07434 0
M  V30 17331 N 1670.25 0.323614 -1.54242 0
M  V30 17332 C 1671.16 1.42128 -1.86646 0
M  V30 17333 C 1672.18 1.56603 -0.758385 0
M  V30 17334 O 1673.36 1.717 -1.05267 0
M  V30 17335 C 1670.42 2.76842 -2.08709 0
M  V30 17336 C 1669.48 2.71543 -3.3251 0
M  V30 17337 C 1668.71 3.99833 -3.5351 0
M  V30 17338 O 1668.94 4.98095 -2.77952 0
M  V30 17339 O 1667.87 4.03095 -4.46988 0
M  V30 17340 H 1671.7 1.17653 -2.79985 0
M  V30 17341 H 1669.28 0.517632 -1.40146 0
M  V30 17342 H 1671.16 3.56588 -2.24551 0
M  V30 17343 H 1669.84 3.01207 -1.18558 0
M  V30 17344 H 1668.75 1.90348 -3.22053 0
M  V30 17345 H 1670.08 2.52133 -4.22717 0
M  V30 17346 N 1671.73 1.46313 0.585673 0
M  V30 17347 C 1673.15 1.31203 0.908733 0
M  V30 17348 C 1673.35 0.281265 1.99527 0
M  V30 17349 O 1672.4 -0.317202 2.505 0
M  V30 17350 C 1673.72 2.69742 1.3289 0
M  V30 17351 C 1675.26 2.77809 1.44191 0
M  V30 17352 C 1675.74 4.16924 1.89574 0
M  V30 17353 N 1677.23 4.19327 1.96773 0
M  V30 17354 C 1677.97 5.23856 2.33157 0
M  V30 17355 N 1677.46 6.38716 2.68355 0
M  V30 17356 N 1679.25 5.11221 2.33686 0
M  V30 17357 H 1671.41 2.11989 -0.132126 0
M  V30 17358 H 1673.67 0.947993 0.00355835 0
M  V30 17359 H 1673.37 3.46465 0.604557 0
M  V30 17360 H 1673.25 2.99653 2.29102 0
M  V30 17361 H 1675.64 2.01377 2.15712 0
M  V30 17362 H 1675.72 2.51587 0.46237 0
M  V30 17363 H 1675.36 4.93851 1.18633 0
M  V30 17364 H 1675.29 4.40552 2.88481 0
M  V30 17365 H 1677.78 3.36451 1.72073 0
M  V30 17366 H 1678.09 7.14253 2.95063 0
M  V30 17367 H 1676.44 6.42082 2.66 0
M  V30 17368 H 1679.63 4.20527 2.05609 0
M  V30 17369 H 1679.8 5.92798 2.61714 0
M  V30 17370 N 1673.21 -0.830057 1.33969 0
M  V30 17371 C 1674.17 -1.92206 1.24858 0
M  V30 17372 C 1675.17 -1.59946 0.16549 0
M  V30 17373 O 1676.36 -1.6912 0.417629 0
M  V30 17374 C 1673.49 -3.28082 0.926029 0
M  V30 17375 H 1674.69 -2.01708 2.21932 0
M  V30 17376 H 1672.24 -1.02319 1.18154 0
M  V30 17377 H 1672.98 -3.24273 -0.0418364 0
M  V30 17378 H 1672.76 -3.52878 1.70938 0
M  V30 17379 H 1674.25 -4.08065 0.887263 0
M  V30 17380 N 1674.69 -1.17582 -1.04939 0
M  V30 17381 C 1675.6 -0.909588 -2.16249 0
M  V30 17382 C 1676.61 0.123166 -1.73564 0
M  V30 17383 O 1677.79 -0.0566976 -2.0132 0
M  V30 17384 C 1674.85 -0.429342 -3.44031 0
M  V30 17385 C 1673.92 -1.529 -4.01149 0
M  V30 17386 C 1673.15 -1.07157 -5.22832 0
M  V30 17387 O 1673.37 0.0732634 -5.70353 0
M  V30 17388 O 1672.31 -1.86567 -5.72255 0
M  V30 17389 H 1676.13 -1.84074 -2.41558 0
M  V30 17390 H 1673.72 -0.956914 -1.14732 0
M  V30 17391 H 1675.6 -0.16917 -4.2106 0
M  V30 17392 H 1674.27 0.473629 -3.20216 0
M  V30 17393 H 1673.18 -1.84308 -3.25548 0
M  V30 17394 H 1674.51 -2.40777 -4.29287 0
M  V30 17395 N 1676.17 1.23705 -0.976463 0
M  V30 17396 C 1677.41 1.92015 -0.643168 0
M  V30 17397 C 1677.74 1.76239 0.822796 0
M  V30 17398 O 1677 1.11469 1.60851 0
M  V30 17399 C 1677.29 3.43853 -0.974676 0
M  V30 17400 C 1676.96 3.79805 -2.43021 0
M  V30 17401 C 1675.62 3.89329 -2.82801 0
M  V30 17402 C 1677.97 3.97218 -3.37442 0
M  V30 17403 C 1675.3 4.13691 -4.16025 0
M  V30 17404 C 1677.65 4.23079 -4.70305 0
M  V30 17405 C 1676.32 4.30824 -5.0985 0
M  V30 17406 H 1675.59 0.702631 -0.235352 0
M  V30 17407 H 1678.24 1.46811 -1.22959 0
M  V30 17408 H 1676.54 3.90602 -0.306121 0
M  V30 17409 H 1678.24 3.9493 -0.695061 0
M  V30 17410 H 1674.83 3.72963 -2.11179 0
M  V30 17411 H 1679.01 3.89254 -3.07889 0
M  V30 17412 H 1674.27 4.17909 -4.46276 0
M  V30 17413 H 1678.44 4.35496 -5.4343 0
M  V30 17414 H 1676.07 4.49454 -6.13103 0
M  V30 17415 N 1677.64 0.747635 1.38738 0
M  V30 17416 C 1678.89 0.301593 2.00545 0
M  V30 17417 C 1679.22 -1.11208 1.59205 0
M  V30 17418 O 1678.5 -1.76052 0.826806 0
M  V30 17419 C 1678.78 0.417739 3.57669 0
M  V30 17420 C 1678.63 1.87209 4.0899 0
M  V30 17421 C 1679.95 -0.192403 4.39679 0
M  V30 17422 H 1677.07 0.11106 0.728584 0
M  V30 17423 H 1679.71 0.946162 1.64766 0
M  V30 17424 H 1677.86 -0.131024 3.88279 0
M  V30 17425 H 1679.54 2.4787 3.89048 0
M  V30 17426 H 1677.78 2.38917 3.62079 0
M  V30 17427 H 1678.45 1.90455 5.18103 0
M  V30 17428 H 1680.93 0.27554 4.15187 0
M  V30 17429 H 1679.8 -0.0808605 5.4884 0
M  V30 17430 H 1680.06 -1.28 4.23165 0
M  V30 17431 N 1679.12 -1.49583 0.496242 0
M  V30 17432 C 1680.07 -2.29037 -0.284716 0
M  V30 17433 C 1681.04 -1.35217 -0.964661 0
M  V30 17434 O 1682.22 -1.64171 -0.972244 0
M  V30 17435 C 1679.36 -3.17767 -1.34603 0
M  V30 17436 C 1678.48 -4.26641 -0.67834 0
M  V30 17437 C 1677.61 -5.02594 -1.71969 0
M  V30 17438 C 1676.65 -6.0331 -1.03361 0
M  V30 17439 N 1675.79 -6.72446 -2.01894 0
M  V30 17440 H 1680.63 -2.95316 0.399084 0
M  V30 17441 H 1678.16 -1.45613 0.208653 0
M  V30 17442 H 1680.12 -3.67583 -1.97329 0
M  V30 17443 H 1678.75 -2.53483 -1.99866 0
M  V30 17444 H 1677.8 -3.80349 0.0620953 0
M  V30 17445 H 1679.12 -4.98609 -0.138028 0
M  V30 17446 H 1678.27 -5.56254 -2.42212 0
M  V30 17447 H 1677.01 -4.30388 -2.29385 0
M  V30 17448 H 1676.01 -5.48886 -0.316925 0
M  V30 17449 H 1677.24 -6.77499 -0.466009 0
M  V30 17450 H 1675.19 -6.03015 -2.58281 0
M  V30 17451 H 1675.1 -7.40373 -1.52916 0
M  V30 17452 H 1676.37 -7.30712 -2.7144 0
M  V30 17453 N 1680.6 -0.229873 -1.55915 0
M  V30 17454 C 1681.55 0.676809 -2.20653 0
M  V30 17455 C 1682.52 1.18412 -1.16481 0
M  V30 17456 O 1683.7 1.2417 -1.44867 0
M  V30 17457 C 1680.84 1.87567 -2.89677 0
M  V30 17458 C 1679.95 1.40648 -4.08463 0
M  V30 17459 C 1679.09 2.56356 -4.65247 0
M  V30 17460 C 1678.13 2.06215 -5.76318 0
M  V30 17461 N 1677.27 3.15226 -6.27357 0
M  V30 17462 H 1682.11 0.118035 -2.97766 0
M  V30 17463 H 1679.64 0.0465042 -1.47026 0
M  V30 17464 H 1681.6 2.57968 -3.27884 0
M  V30 17465 H 1680.23 2.40719 -2.15067 0
M  V30 17466 H 1679.28 0.597104 -3.75684 0
M  V30 17467 H 1680.59 0.998877 -4.88696 0
M  V30 17468 H 1679.75 3.34827 -5.05941 0
M  V30 17469 H 1678.49 3.0041 -3.84194 0
M  V30 17470 H 1677.49 1.26209 -5.35118 0
M  V30 17471 H 1678.72 1.63151 -6.59211 0
M  V30 17472 H 1676.66 3.58746 -5.49215 0
M  V30 17473 H 1676.58 2.78744 -7.02736 0
M  V30 17474 H 1677.85 3.93807 -6.72708 0
M  V30 17475 N 1682.08 1.5754 0.0434337 0
M  V30 17476 C 1683.01 2.08648 1.04824 0
M  V30 17477 C 1683.99 0.985894 1.38615 0
M  V30 17478 O 1685.17 1.2603 1.4775 0
M  V30 17479 C 1682.3 2.55399 2.35348 0
M  V30 17480 C 1681.26 3.69592 2.15837 0
M  V30 17481 C 1680.58 4.02497 3.51995 0
M  V30 17482 C 1681.88 4.98575 1.55629 0
M  V30 17483 H 1683.58 2.9285 0.622849 0
M  V30 17484 H 1681.12 1.40879 0.298158 0
M  V30 17485 H 1683.08 2.89771 3.05958 0
M  V30 17486 H 1681.8 1.68262 2.7992 0
M  V30 17487 H 1680.46 3.35546 1.47663 0
M  V30 17488 H 1680.11 3.12448 3.94189 0
M  V30 17489 H 1679.81 4.79406 3.39771 0
M  V30 17490 H 1681.33 4.39391 4.23991 0
M  V30 17491 H 1682.75 5.30996 2.16138 0
M  V30 17492 H 1681.14 5.79998 1.54021 0
M  V30 17493 H 1682.21 4.82098 0.520567 0
M  V30 17494 N 1683.56 -0.31543 1.54411 0
M  V30 17495 C 1684.5 -1.3885 1.84362 0
M  V30 17496 C 1685.47 -1.51028 0.69135 0
M  V30 17497 O 1686.66 -1.66119 0.938577 0
M  V30 17498 C 1683.8 -2.75085 2.0838 0
M  V30 17499 C 1682.91 -2.71473 3.36045 0
M  V30 17500 C 1682.05 -3.99608 3.49981 0
M  V30 17501 C 1681.08 -3.90335 4.71492 0
M  V30 17502 N 1680.22 -5.10216 4.82311 0
M  V30 17503 H 1685.06 -1.12609 2.75905 0
M  V30 17504 H 1682.6 -0.54495 1.36633 0
M  V30 17505 H 1684.56 -3.54295 2.20298 0
M  V30 17506 H 1683.19 -2.99618 1.2012 0
M  V30 17507 H 1682.24 -1.84209 3.32823 0
M  V30 17508 H 1683.55 -2.60507 4.25368 0
M  V30 17509 H 1682.7 -4.8725 3.61486 0
M  V30 17510 H 1681.44 -4.1339 2.58766 0
M  V30 17511 H 1680.45 -3.01077 4.60036 0
M  V30 17512 H 1681.67 -3.78111 5.641 0
M  V30 17513 H 1679.62 -5.24489 3.94014 0
M  V30 17514 H 1679.54 -5.01617 5.65612 0
M  V30 17515 H 1680.8 -5.99551 4.98156 0
M  V30 17516 N 1685.03 -1.46622 -0.577906 0
M  V30 17517 C 1685.97 -1.53587 -1.70128 0
M  V30 17518 C 1686.98 -0.423789 -1.57187 0
M  V30 17519 O 1688.17 -0.692392 -1.64524 0
M  V30 17520 C 1685.27 -1.40459 -3.08422 0
M  V30 17521 C 1684.44 -2.65872 -3.47319 0
M  V30 17522 C 1683.5 -2.46875 -4.64693 0
M  V30 17523 O 1682.53 -3.20617 -4.70312 0
M  V30 17524 N 1683.73 -1.53352 -5.59878 0
M  V30 17525 H 1686.49 -2.50449 -1.64606 0
M  V30 17526 H 1684.05 -1.42739 -0.764014 0
M  V30 17527 H 1686.05 -1.25516 -3.84744 0
M  V30 17528 H 1684.62 -0.517603 -3.08285 0
M  V30 17529 H 1683.84 -2.95724 -2.60655 0
M  V30 17530 H 1685.12 -3.49173 -3.70075 0
M  V30 17531 H 1684.52 -0.925526 -5.58078 0
M  V30 17532 H 1683.08 -1.4437 -6.3561 0
M  V30 17533 N 1686.51 0.822941 -1.34408 0
M  V30 17534 C 1687.44 1.94878 -1.28627 0
M  V30 17535 C 1688.42 1.6931 -0.163727 0
M  V30 17536 O 1689.61 1.90908 -0.356083 0
M  V30 17537 C 1686.74 3.31333 -1.04094 0
M  V30 17538 C 1685.69 3.71341 -2.12814 0
M  V30 17539 C 1685.02 5.05779 -1.73469 0
M  V30 17540 C 1686.32 3.83439 -3.54643 0
M  V30 17541 H 1688.01 1.99972 -2.22827 0
M  V30 17542 H 1685.56 0.960715 -1.07267 0
M  V30 17543 H 1687.51 4.0968 -0.986947 0
M  V30 17544 H 1686.24 3.26539 -0.0633642 0
M  V30 17545 H 1684.89 2.95269 -2.17282 0
M  V30 17546 H 1684.54 4.97471 -0.743727 0
M  V30 17547 H 1684.24 5.33518 -2.46236 0
M  V30 17548 H 1685.77 5.86583 -1.69566 0
M  V30 17549 H 1687.18 4.52057 -3.52587 0
M  V30 17550 H 1685.58 4.22632 -4.2603 0
M  V30 17551 H 1686.65 2.85439 -3.91986 0
M  V30 17552 N 1687.99 1.18137 1.04314 0
M  V30 17553 C 1689.4 0.979768 1.58926 0
M  V30 17554 C 1689.75 -0.471214 1.90457 0
M  V30 17555 O 1688.88 -1.34812 1.69277 0
M  V30 17556 C 1689.47 1.77219 2.88754 0
M  V30 17557 C 1688.03 1.61501 3.39992 0
M  V30 17558 C 1687.18 1.76824 2.13609 0
M  V30 17559 H 1690.13 1.32717 0.870162 0
M  V30 17560 H 1690.15 1.2598 3.59039 0
M  V30 17561 H 1689.66 2.82818 2.65773 0
M  V30 17562 H 1687.76 0.58427 3.67991 0
M  V30 17563 H 1687.88 2.4115 4.13985 0
M  V30 17564 H 1686.24 1.19747 2.24795 0
M  V30 17565 H 1687.02 2.83853 1.93087 0
M  V30 17566 N 1689.47 -1.23186 0.98301 0
M  V30 17567 C 1690.4 -2.27054 0.544858 0
M  V30 17568 C 1691.38 -1.64749 -0.423281 0
M  V30 17569 O 1692.56 -1.91611 -0.316075 0
M  V30 17570 C 1689.69 -3.46972 -0.150976 0
M  V30 17571 C 1688.65 -4.21647 0.734707 0
M  V30 17572 C 1687.97 -5.34618 -0.0934874 0
M  V30 17573 C 1689.27 -4.81372 2.02679 0
M  V30 17574 H 1690.97 -2.63957 1.41305 0
M  V30 17575 H 1688.51 -1.26885 0.680895 0
M  V30 17576 H 1690.47 -4.18784 -0.468825 0
M  V30 17577 H 1689.19 -3.09137 -1.05364 0
M  V30 17578 H 1687.85 -3.51655 1.03605 0
M  V30 17579 H 1687.5 -4.93025 -0.996768 0
M  V30 17580 H 1687.2 -5.85503 0.496019 0
M  V30 17581 H 1688.72 -6.09251 -0.405658 0
M  V30 17582 H 1690.14 -5.45178 1.77353 0
M  V30 17583 H 1688.53 -5.42554 2.56429 0
M  V30 17584 H 1689.6 -4.01972 2.71194 0
M  V30 17585 N 1690.95 -0.754982 -1.38339 0
M  V30 17586 C 1691.88 -0.143678 -2.33058 0
M  V30 17587 C 1692.86 0.702022 -1.54938 0
M  V30 17588 O 1694.04 0.642922 -1.83249 0
M  V30 17589 C 1691.17 0.749194 -3.39123 0
M  V30 17590 C 1690.13 0.00611459 -4.28 0
M  V30 17591 C 1689.45 1.01733 -5.24933 0
M  V30 17592 C 1690.75 -1.1631 -5.09185 0
M  V30 17593 H 1692.45 -0.934907 -2.84429 0
M  V30 17594 H 1689.99 -0.451023 -1.36754 0
M  V30 17595 H 1691.95 1.18653 -4.04351 0
M  V30 17596 H 1690.67 1.57276 -2.86237 0
M  V30 17597 H 1689.33 -0.411816 -3.6428 0
M  V30 17598 H 1688.98 1.83499 -4.68334 0
M  V30 17599 H 1688.68 0.524783 -5.85252 0
M  V30 17600 H 1690.2 1.45395 -5.93037 0
M  V30 17601 H 1691.61 -0.803244 -5.67645 0
M  V30 17602 H 1690.01 -1.5866 -5.78746 0
M  V30 17603 H 1691.08 -1.97533 -4.42842 0
M  V30 17604 N 1692.42 1.49318 -0.504168 0
M  V30 17605 C 1693.33 2.32958 0.277053 0
M  V30 17606 C 1694.35 1.44838 0.964266 0
M  V30 17607 O 1695.53 1.77856 0.944947 0
M  V30 17608 C 1692.59 3.20352 1.32572 0
M  V30 17609 C 1691.65 4.24326 0.651606 0
M  V30 17610 C 1690.89 5.07544 1.65031 0
M  V30 17611 O 1691.11 4.92326 2.88047 0
M  V30 17612 O 1690.04 5.89737 1.20388 0
M  V30 17613 H 1693.87 3.00952 -0.40763 0
M  V30 17614 H 1691.45 1.47023 -0.265453 0
M  V30 17615 H 1693.34 3.74483 1.93237 0
M  V30 17616 H 1692.01 2.5505 1.99327 0
M  V30 17617 H 1690.92 3.741 0.00513384 0
M  V30 17618 H 1692.25 4.92193 0.0264424 0
M  V30 17619 N 1693.9 0.238138 1.5579 0
M  V30 17620 C 1694.87 -0.651703 2.1974 0
M  V30 17621 C 1695.87 -1.10932 1.16408 0
M  V30 17622 O 1697.06 -1.01544 1.41543 0
M  V30 17623 C 1694.19 -1.8947 2.83397 0
M  V30 17624 H 1695.38 -0.0939013 2.99753 0
M  V30 17625 H 1692.93 -0.0114348 1.56296 0
M  V30 17626 H 1693.67 -2.49395 2.07298 0
M  V30 17627 H 1693.45 -1.57486 3.59083 0
M  V30 17628 H 1694.94 -2.52831 3.32365 0
M  V30 17629 N 1695.38 -1.57561 -0.0350783 0
M  V30 17630 C 1696.31 -2.02953 -1.06502 0
M  V30 17631 C 1697.33 -0.941331 -1.32826 0
M  V30 17632 O 1698.51 -1.21873 -1.30419 0
M  V30 17633 C 1695.61 -2.38471 -2.40801 0
M  V30 17634 C 1694.79 -3.69596 -2.33917 0
M  V30 17635 C 1693.85 -3.9237 -3.50616 0
M  V30 17636 O 1692.87 -4.63504 -3.30382 0
M  V30 17637 N 1694.07 -3.37544 -4.72275 0
M  V30 17638 H 1696.84 -2.91926 -0.678169 0
M  V30 17639 H 1694.4 -1.60355 -0.22313 0
M  V30 17640 H 1696.39 -2.50849 -3.1758 0
M  V30 17641 H 1694.96 -1.55199 -2.71352 0
M  V30 17642 H 1694.18 -3.67629 -1.42277 0
M  V30 17643 H 1695.47 -4.55627 -2.26455 0
M  V30 17644 H 1694.87 -2.79875 -4.91616 0
M  V30 17645 H 1693.43 -3.55312 -5.4644 0
M  V30 17646 N 1696.86 0.307236 -1.54576 0
M  V30 17647 C 1698.1 1.04476 -1.73818 0
M  V30 17648 C 1698.44 1.87134 -0.519102 0
M  V30 17649 O 1697.71 1.88386 0.483852 0
M  V30 17650 C 1698 1.95594 -3.02349 0
M  V30 17651 C 1697.85 1.16158 -4.34543 0
M  V30 17652 C 1699.17 2.94865 -3.26715 0
M  V30 17653 H 1696.29 0.378415 -0.632433 0
M  V30 17654 H 1698.93 0.319955 -1.87287 0
M  V30 17655 H 1697.08 2.57396 -2.90997 0
M  V30 17656 H 1698.75 0.5669 -4.57803 0
M  V30 17657 H 1696.99 0.464158 -4.3131 0
M  V30 17658 H 1697.66 1.8315 -5.2073 0
M  V30 17659 H 1700.14 2.4319 -3.37636 0
M  V30 17660 H 1699.02 3.55791 -4.17976 0
M  V30 17661 H 1699.28 3.68195 -2.44714 0
M  V30 17662 N 1698.34 1.46926 0.570122 0
M  V30 17663 C 1699.28 1.5883 1.69929 0
M  V30 17664 C 1700.28 0.456167 1.63143 0
M  V30 17665 O 1701.48 0.633503 1.68484 0
M  V30 17666 H 1697.86 0.499606 0.562048 0
M  V30 17667 H 1699.83 2.53744 1.57023 0
M  V30 17668 C 1698.58 1.60761 3.08304 0
M  V30 17669 H 1697.9 2.47219 3.14202 0
M  V30 17670 H 1699.34 1.73142 3.87037 0
M  V30 17671 C 1697.8 0.338515 3.35195 0
M  V30 17672 O 1698.33 -0.565917 3.97694 0
M  V30 17673 N 1696.54 0.222525 2.89747 0
M  V30 17674 H 1696.08 0.959435 2.39066 0
M  V30 17675 H 1696.04 -0.625697 3.08111 0
M  V30 17676 N 1699.82 -0.815801 1.34842 0
M  V30 17677 C 1701.04 -1.60397 1.30693 0
M  V30 17678 C 1701.46 -1.88434 -0.117536 0
M  V30 17679 O 1700.82 -1.48076 -1.06676 0
M  V30 17680 C 1700.87 -2.94069 2.10252 0
M  V30 17681 O 1700.59 -2.67251 3.47143 0
M  V30 17682 C 1702.09 -3.88456 2.13581 0
M  V30 17683 H 1699.31 -0.49835 0.449319 0
M  V30 17684 H 1701.85 -1.01451 1.77561 0
M  V30 17685 H 1700.01 -3.49554 1.67006 0
M  V30 17686 H 1700.42 -3.52536 3.88354 0
M  V30 17687 H 1701.9 -4.79391 2.73658 0
M  V30 17688 H 1702.37 -4.24359 1.13209 0
M  V30 17689 H 1702.98 -3.38907 2.56947 0
M  V30 17690 N 1701.29 -1.18689 -1.03686 0
M  V30 17691 C 1702.22 -0.94094 -2.13702 0
M  V30 17692 C 1703.2 0.12277 -1.69656 0
M  V30 17693 O 1704.39 -0.0306085 -1.94176 0
M  V30 17694 C 1701.52 -0.470054 -3.44104 0
M  V30 17695 C 1700.47 -1.47468 -4.01792 0
M  V30 17696 C 1699.8 -0.861174 -5.2772 0
M  V30 17697 C 1701.1 -2.85254 -4.37524 0
M  V30 17698 H 1702.79 -1.86102 -2.34534 0
M  V30 17699 H 1700.34 -0.896207 -1.12713 0
M  V30 17700 H 1702.29 -0.28533 -4.20433 0
M  V30 17701 H 1701.02 0.485604 -3.2297 0
M  V30 17702 H 1699.68 -1.64641 -3.2755 0
M  V30 17703 H 1699.32 0.10179 -5.02897 0
M  V30 17704 H 1699.02 -1.53196 -5.67278 0
M  V30 17705 H 1700.55 -0.687066 -6.06722 0
M  V30 17706 H 1701.96 -2.71711 -5.04823 0
M  V30 17707 H 1700.36 -3.49051 -4.88143 0
M  V30 17708 H 1701.43 -3.38516 -3.47181 0
M  V30 17709 N 1702.77 1.22662 -0.989529 0
M  V30 17710 C 1703.68 2.28162 -0.545835 0
M  V30 17711 C 1704.7 1.69251 0.403762 0
M  V30 17712 O 1705.87 1.99563 0.271428 0
M  V30 17713 C 1702.94 3.46434 0.135808 0
M  V30 17714 C 1702 4.20673 -0.85633 0
M  V30 17715 C 1701.23 5.33298 -0.207121 0
M  V30 17716 O 1701.46 5.6157 0.99975 0
M  V30 17717 O 1700.39 5.94977 -0.910288 0
M  V30 17718 H 1704.22 2.68276 -1.42344 0
M  V30 17719 H 1701.8 1.28766 -0.757609 0
M  V30 17720 H 1703.68 4.18207 0.517776 0
M  V30 17721 H 1702.36 3.08252 0.988035 0
M  V30 17722 H 1701.26 3.51186 -1.28917 0
M  V30 17723 H 1702.6 4.62726 -1.67765 0
M  V30 17724 N 1704.25 0.762308 1.37937 0
M  V30 17725 C 1705.2 0.115944 2.27705 0
M  V30 17726 C 1706.18 -0.684063 1.45634 0
M  V30 17727 O 1707.38 -0.548586 1.68284 0
M  V30 17728 C 1704.5 -0.76969 3.3456 0
M  V30 17729 C 1703.59 0.0376368 4.24083 0
M  V30 17730 N 1703.98 1.07849 4.94168 0
M  V30 17731 C 1702.28 -0.187824 4.45604 0
M  V30 17732 C 1702.98 1.56769 5.60177 0
M  V30 17733 N 1701.96 0.881477 5.36406 0
M  V30 17734 H 1705.76 0.912994 2.79359 0
M  V30 17735 H 1703.27 0.599168 1.50943 0
M  V30 17736 H 1705.27 -1.24844 3.97768 0
M  V30 17737 H 1703.93 -1.56559 2.84463 0
M  V30 17738 H 1704.94 1.46046 4.96881 0
M  V30 17739 H 1701.62 -0.95638 4.06398 0
M  V30 17740 H 1703.01 2.43517 6.26218 0
M  V30 17741 N 1705.73 -1.49049 0.51208 0
M  V30 17742 C 1706.95 -2.07382 -0.0271044 0
M  V30 17743 C 1707.38 -1.3685 -1.29049 0
M  V30 17744 O 1706.74 -0.428713 -1.76158 0
M  V30 17745 C 1706.78 -3.59715 -0.252462 0
M  V30 17746 O 1705.89 -3.90538 -1.32491 0
M  V30 17747 H 1705.23 -0.663269 0.0311507 0
M  V30 17748 H 1707.76 -1.91705 0.714873 0
M  V30 17749 H 1707.77 -4.05159 -0.480603 0
M  V30 17750 H 1706.44 -4.10459 0.670531 0
M  V30 17751 H 1705.02 -3.56892 -1.08085 0
M  V30 17752 N 1707.21 -0.246397 -1.55662 0
M  V30 17753 C 1708.43 0.385607 -2.03784 0
M  V30 17754 C 1708.86 1.50786 -1.12451 0
M  V30 17755 O 1708.21 1.8092 -0.117371 0
M  V30 17756 C 1708.26 0.871204 -3.49918 0
M  V30 17757 O 1707.37 1.98082 -3.61715 0
M  V30 17758 H 1706.71 0.0841099 -0.658651 0
M  V30 17759 H 1709.24 -0.372306 -2.01184 0
M  V30 17760 H 1709.25 1.17455 -3.90728 0
M  V30 17761 H 1707.92 0.0499597 -4.1587 0
M  V30 17762 H 1706.5 1.6822 -3.32801 0
M  V30 17763 N 1708.68 1.57577 0.026722 0
M  V30 17764 C 1709.65 2.05684 1.01127 0
M  V30 17765 C 1710.65 0.961373 1.28896 0
M  V30 17766 O 1711.84 1.22491 1.23861 0
M  V30 17767 C 1708.97 2.47576 2.34348 0
M  V30 17768 H 1710.16 2.93925 0.595681 0
M  V30 17769 H 1707.71 1.53887 0.273603 0
M  V30 17770 H 1708.45 1.62498 2.80651 0
M  V30 17771 H 1708.23 3.27556 2.15521 0
M  V30 17772 H 1709.72 2.85214 3.05029 0
M  V30 17773 N 1710.16 -0.299034 1.54737 0
M  V30 17774 C 1711.39 -1.05723 1.7843 0
M  V30 17775 C 1711.81 -1.80089 0.543094 0
M  V30 17776 O 1711.17 -1.74083 -0.506438 0
M  V30 17777 C 1711.22 -2.01193 2.99255 0
M  V30 17778 O 1710.32 -3.09528 2.72518 0
M  V30 17779 H 1709.66 -0.303614 0.590521 0
M  V30 17780 H 1712.19 -0.335859 2.01825 0
M  V30 17781 H 1712.2 -2.43623 3.27279 0
M  V30 17782 H 1710.88 -1.46472 3.89254 0
M  V30 17783 H 1709.45 -2.71599 2.55516 0
M  V30 17784 N 1711.64 -1.47227 -0.562322 0
M  V30 17785 C 1712.57 -1.55383 -1.6849 0
M  V30 17786 C 1713.58 -0.440437 -1.56729 0
M  V30 17787 O 1714.77 -0.709803 -1.63781 0
M  V30 17788 C 1711.87 -1.43723 -3.06915 0
M  V30 17789 C 1711.05 -2.69541 -3.4448 0
M  V30 17790 C 1710.11 -2.5179 -4.62048 0
M  V30 17791 O 1709.13 -3.25587 -4.66885 0
M  V30 17792 N 1710.33 -1.59282 -5.5822 0
M  V30 17793 H 1713.1 -2.52181 -1.61941 0
M  V30 17794 H 1710.66 -1.43541 -0.748832 0
M  V30 17795 H 1712.65 -1.2959 -3.83391 0
M  V30 17796 H 1711.22 -0.550272 -3.07719 0
M  V30 17797 H 1710.44 -2.98472 -2.57504 0
M  V30 17798 H 1711.73 -3.53079 -3.66351 0
M  V30 17799 H 1711.13 -0.984666 -5.57064 0
M  V30 17800 H 1709.68 -1.51103 -6.34043 0
M  V30 17801 N 1713.12 0.808639 -1.35273 0
M  V30 17802 C 1714.03 1.95198 -1.30134 0
M  V30 17803 C 1715.04 1.72769 -0.206587 0
M  V30 17804 O 1716.22 1.96633 -0.4356 0
M  V30 17805 C 1713.28 3.29747 -1.07087 0
M  V30 17806 C 1712.35 3.65086 -2.25855 0
M  V30 17807 C 1711.58 4.93215 -2.03898 0
M  V30 17808 O 1711.8 5.61487 -1.00439 0
M  V30 17809 O 1710.74 5.26765 -2.91208 0
M  V30 17810 H 1714.56 2.0248 -2.26353 0
M  V30 17811 H 1712.15 0.946124 -1.15624 0
M  V30 17812 H 1714.03 4.10302 -0.960734 0
M  V30 17813 H 1712.7 3.23401 -0.139177 0
M  V30 17814 H 1711.61 2.84917 -2.42432 0
M  V30 17815 H 1712.94 3.76135 -3.17464 0
M  V30 17816 N 1714.6 1.19237 1.03055 0
M  V30 17817 C 1716.01 0.944224 1.28672 0
M  V30 17818 C 1716.21 -0.384378 1.978 0
M  V30 17819 O 1715.27 -1.11629 2.26484 0
M  V30 17820 C 1716.58 2.11704 2.13546 0
M  V30 17821 C 1718.13 2.15647 2.2686 0
M  V30 17822 C 1718.6 3.32375 3.15105 0
M  V30 17823 N 1720.1 3.323 3.22693 0
M  V30 17824 C 1720.83 4.19265 3.91158 0
M  V30 17825 N 1720.33 5.16381 4.61868 0
M  V30 17826 N 1722.12 4.07147 3.87541 0
M  V30 17827 H 1714.27 2.0472 0.565987 0
M  V30 17828 H 1716.53 0.895073 0.312328 0
M  V30 17829 H 1716.24 3.07845 1.70072 0
M  V30 17830 H 1716.11 2.08624 3.14254 0
M  V30 17831 H 1718.5 1.20078 2.69565 0
M  V30 17832 H 1718.58 2.22781 1.25708 0
M  V30 17833 H 1718.23 4.28222 2.73108 0
M  V30 17834 H 1718.16 3.22478 4.16312 0
M  V30 17835 H 1720.65 2.62 2.72331 0
M  V30 17836 H 1720.96 5.7909 5.11737 0
M  V30 17837 H 1719.3 5.20331 4.60739 0
M  V30 17838 H 1722.5 3.30555 3.31438 0
M  V30 17839 H 1722.67 4.75135 4.40625 0
M  V30 17840 N 1716.07 -1.22136 0.99602 0
M  V30 17841 C 1717.01 -2.23518 0.507162 0
M  V30 17842 C 1718.02 -1.57824 -0.399426 0
M  V30 17843 O 1719.21 -1.77364 -0.20106 0
M  V30 17844 C 1716.31 -3.37709 -0.283931 0
M  V30 17845 C 1715.48 -4.3299 0.619549 0
M  V30 17846 C 1714.54 -5.26062 -0.120376 0
M  V30 17847 O 1713.57 -5.67041 0.495269 0
M  V30 17848 N 1714.77 -5.63322 -1.40172 0
M  V30 17849 H 1717.53 -2.66092 1.37896 0
M  V30 17850 H 1715.09 -1.36468 0.871102 0
M  V30 17851 H 1717.09 -3.96961 -0.787661 0
M  V30 17852 H 1715.66 -2.94193 -1.05685 0
M  V30 17853 H 1714.88 -3.72011 1.3039 0
M  V30 17854 H 1716.16 -4.93591 1.23473 0
M  V30 17855 H 1715.56 -5.32006 -1.92318 0
M  V30 17856 H 1714.12 -6.24977 -1.85058 0
M  V30 17857 N 1717.55 -0.769612 -1.37531 0
M  V30 17858 C 1718.46 -0.15514 -2.34086 0
M  V30 17859 C 1719.48 0.682108 -1.60073 0
M  V30 17860 O 1720.65 0.602527 -1.92176 0
M  V30 17861 C 1717.72 0.715344 -3.3924 0
M  V30 17862 C 1716.78 -0.138116 -4.29078 0
M  V30 17863 C 1716.01 0.690916 -5.29209 0
M  V30 17864 O 1716.24 1.92812 -5.36824 0
M  V30 17865 O 1715.17 0.101247 -6.01815 0
M  V30 17866 H 1719 -0.952968 -2.88361 0
M  V30 17867 H 1716.58 -0.530738 -1.39655 0
M  V30 17868 H 1718.46 1.21236 -4.03584 0
M  V30 17869 H 1717.14 1.4914 -2.87296 0
M  V30 17870 H 1716.05 -0.681443 -3.67841 0
M  V30 17871 H 1717.38 -0.877202 -4.8432 0
M  V30 17872 N 1719.03 1.48775 -0.519977 0
M  V30 17873 C 1719.96 2.27418 0.285222 0
M  V30 17874 C 1720.98 1.34753 0.91354 0
M  V30 17875 O 1722.16 1.59885 0.793672 0
M  V30 17876 C 1719.26 3.07799 1.41821 0
M  V30 17877 C 1718.44 4.28173 0.893682 0
M  V30 17878 C 1717.5 4.90445 1.90658 0
M  V30 17879 O 1716.52 5.49957 1.46751 0
M  V30 17880 N 1717.72 4.8179 3.23819 0
M  V30 17881 H 1720.49 2.97162 -0.38921 0
M  V30 17882 H 1718.05 1.5799 -0.353684 0
M  V30 17883 H 1720.04 3.46329 2.09377 0
M  V30 17884 H 1718.61 2.4054 1.99648 0
M  V30 17885 H 1717.83 3.94177 0.0424379 0
M  V30 17886 H 1719.12 5.06116 0.521952 0
M  V30 17887 H 1718.52 4.34573 3.62164 0
M  V30 17888 H 1717.08 5.2445 3.87035 0
M  V30 17889 N 1720.51 0.254649 1.55529 0
M  V30 17890 C 1721.44 -0.635656 2.24681 0
M  V30 17891 C 1722.42 -1.17519 1.22977 0
M  V30 17892 O 1723.6 -1.21311 1.51649 0
M  V30 17893 C 1720.73 -1.82922 2.95224 0
M  V30 17894 C 1719.69 -1.42212 4.03683 0
M  V30 17895 C 1719.01 -2.69713 4.61691 0
M  V30 17896 C 1720.31 -0.587436 5.18986 0
M  V30 17897 H 1722.01 -0.0590063 2.99342 0
M  V30 17898 H 1719.55 -0.02694 1.43975 0
M  V30 17899 H 1721.51 -2.45777 3.42304 0
M  V30 17900 H 1720.23 -2.43137 2.18064 0
M  V30 17901 H 1718.89 -0.81687 3.57383 0
M  V30 17902 H 1718.54 -3.28143 3.81223 0
M  V30 17903 H 1718.24 -2.43194 5.34911 0
M  V30 17904 H 1719.76 -3.33453 5.11509 0
M  V30 17905 H 1721.18 -1.12048 5.62244 0
M  V30 17906 H 1719.57 -0.417988 5.98643 0
M  V30 17907 H 1720.64 0.398577 4.83259 0
M  V30 17908 N 1721.99 -1.57589 -0.0183649 0
M  V30 17909 C 1723.23 -1.89757 -0.707008 0
M  V30 17910 C 1723.56 -0.853257 -1.74785 0
M  V30 17911 O 1722.82 0.144406 -1.95166 0
M  V30 17912 C 1723.12 -3.28677 -1.4038 0
M  V30 17913 C 1722.78 -4.48142 -0.497917 0
M  V30 17914 C 1721.44 -4.80558 -0.248444 0
M  V30 17915 C 1723.8 -5.21046 0.126883 0
M  V30 17916 C 1721.12 -5.8326 0.634428 0
M  V30 17917 C 1723.48 -6.24686 0.997521 0
M  V30 17918 C 1722.14 -6.5557 1.25635 0
M  V30 17919 H 1721.41 -0.694369 -0.258713 0
M  V30 17920 H 1724.06 -1.91471 0.0332176 0
M  V30 17921 H 1722.36 -3.23 -2.21761 0
M  V30 17922 H 1724.06 -3.50818 -1.94236 0
M  V30 17923 H 1720.65 -4.22803 -0.702519 0
M  V30 17924 H 1724.83 -4.96272 -0.0528705 0
M  V30 17925 H 1720.09 -6.05558 0.843157 0
M  V30 17926 H 1724.26 -6.80315 1.48811 0
M  V30 17927 H 1721.89 -7.34972 1.94218 0
M  V30 17928 N 1723.46 0.290824 -1.54893 0
M  V30 17929 C 1724.71 1.02272 -1.74312 0
M  V30 17930 C 1725.03 1.87449 -0.537393 0
M  V30 17931 O 1724.3 1.90705 0.448135 0
M  V30 17932 H 1722.88 0.380592 -0.642774 0
M  V30 17933 H 1725.55 0.319353 -1.92266 0
M  V30 17934 H 1724.64 1.66997 -2.63663 0
M  V30 17935 N 1724.94 1.47523 0.554506 0
M  V30 17936 C 1725.89 1.60623 1.68235 0
M  V30 17937 C 1726.88 0.473445 1.6265 0
M  V30 17938 O 1728.09 0.651337 1.67802 0
M  V30 17939 H 1724.47 0.505539 0.556718 0
M  V30 17940 H 1726.44 2.55395 1.54323 0
M  V30 17941 C 1725.19 1.64022 3.06581 0
M  V30 17942 H 1724.51 2.50537 3.11562 0
M  V30 17943 H 1725.95 1.77237 3.85179 0
M  V30 17944 C 1724.41 0.374048 3.34817 0
M  V30 17945 O 1724.94 -0.523704 3.98272 0
M  V30 17946 N 1723.14 0.253244 2.89494 0
M  V30 17947 H 1722.69 0.984738 2.38035 0
M  V30 17948 H 1722.65 -0.592982 3.08757 0
M  V30 17949 N 1726.42 -0.801453 1.357 0
M  V30 17950 C 1727.67 -1.5611 1.29451 0
M  V30 17951 C 1728 -1.93768 -0.129412 0
M  V30 17952 O 1727.27 -1.6176 -1.08 0
M  V30 17953 C 1727.56 -2.84628 2.20588 0
M  V30 17954 C 1727.41 -2.53413 3.71621 0
M  V30 17955 C 1728.73 -3.86369 2.10729 0
M  V30 17956 H 1725.85 -0.56638 0.471575 0
M  V30 17957 H 1728.49 -0.921701 1.66147 0
M  V30 17958 H 1726.64 -3.39192 1.89424 0
M  V30 17959 H 1728.31 -2.04993 4.1325 0
M  V30 17960 H 1726.56 -1.86531 3.91649 0
M  V30 17961 H 1727.23 -3.45152 4.30783 0
M  V30 17962 H 1729.7 -3.41219 2.38136 0
M  V30 17963 H 1728.58 -4.74062 2.76688 0
M  V30 17964 H 1728.84 -4.28431 1.09083 0
M  V30 17965 N 1727.9 -1.19782 -1.02421 0
M  V30 17966 C 1728.83 -0.897544 -2.10895 0
M  V30 17967 C 1729.84 0.111644 -1.62417 0
M  V30 17968 O 1731.03 -0.118381 -1.78107 0
M  V30 17969 C 1728.13 -0.322714 -3.3736 0
M  V30 17970 C 1727.31 -1.38159 -4.15007 0
M  V30 17971 C 1726.36 -0.819462 -5.1978 0
M  V30 17972 O 1725.39 -1.4983 -5.49126 0
M  V30 17973 N 1726.59 0.374925 -5.79288 0
M  V30 17974 H 1729.36 -1.83127 -2.37243 0
M  V30 17975 H 1726.92 -1.10045 -1.1875 0
M  V30 17976 H 1728.91 0.0673046 -4.04644 0
M  V30 17977 H 1727.48 0.5154 -3.08322 0
M  V30 17978 H 1726.7 -1.94627 -3.42803 0
M  V30 17979 H 1727.99 -2.09496 -4.63669 0
M  V30 17980 H 1727.39 0.943856 -5.5777 0
M  V30 17981 H 1725.94 0.706668 -6.47958 0
M  V30 17982 N 1729.38 1.21606 -1.00248 0
M  V30 17983 C 1730.61 1.94326 -0.701484 0
M  V30 17984 C 1731.02 1.74148 0.739524 0
M  V30 17985 O 1730.36 1.04364 1.51175 0
M  V30 17986 C 1730.42 3.47005 -0.939568 0
M  V30 17987 C 1730.08 3.90929 -2.36692 0
M  V30 17988 C 1731.08 3.97834 -3.347 0
M  V30 17989 C 1728.77 4.23313 -2.70391 0
M  V30 17990 C 1730.76 4.36511 -4.64475 0
M  V30 17991 C 1728.45 4.61668 -4.00382 0
M  V30 17992 C 1729.45 4.68237 -4.97236 0
M  V30 17993 O 1729.13 5.05719 -6.24903 0
M  V30 17994 H 1728.87 0.624872 -0.257898 0
M  V30 17995 H 1731.42 1.55442 -1.34264 0
M  V30 17996 H 1729.65 3.85947 -0.24124 0
M  V30 17997 H 1731.34 4.00944 -0.632342 0
M  V30 17998 H 1732.1 3.72995 -3.1 0
M  V30 17999 H 1727.98 4.17399 -1.95701 0
M  V30 18000 H 1731.53 4.41553 -5.40071 0
M  V30 18001 H 1727.42 4.8596 -4.24868 0
M  V30 18002 H 1728.19 5.2376 -6.28981 0
M  V30 18003 N 1730.86 0.776895 1.37121 0
M  V30 18004 C 1731.79 0.180738 2.32799 0
M  V30 18005 C 1732.77 -0.677284 1.56035 0
M  V30 18006 O 1733.95 -0.613687 1.84249 0
M  V30 18007 C 1731.08 -0.695148 3.40272 0
M  V30 18008 C 1730.04 0.0619772 4.27955 0
M  V30 18009 C 1729.36 -0.933688 5.26485 0
M  V30 18010 C 1730.66 1.24396 5.0727 0
M  V30 18011 H 1732.36 0.980039 2.82906 0
M  V30 18012 H 1729.9 0.472722 1.3602 0
M  V30 18013 H 1731.85 -1.12205 4.06187 0
M  V30 18014 H 1730.58 -1.52702 2.88703 0
M  V30 18015 H 1729.24 0.469717 3.63578 0
M  V30 18016 H 1728.89 -1.76025 4.71194 0
M  V30 18017 H 1728.59 -0.431608 5.86013 0
M  V30 18018 H 1730.11 -1.35942 5.95275 0
M  V30 18019 H 1731.52 0.89345 5.66295 0
M  V30 18020 H 1729.92 1.67848 5.76149 0
M  V30 18021 H 1730.99 2.04553 4.39643 0
M  V30 18022 N 1732.33 -1.48497 0.527859 0
M  V30 18023 C 1733.3 -2.2809 -0.225312 0
M  V30 18024 C 1734.3 -1.35251 -0.869707 0
M  V30 18025 O 1735.49 -1.58163 -0.730086 0
M  V30 18026 C 1732.62 -3.14061 -1.32584 0
M  V30 18027 H 1733.81 -2.96139 0.473465 0
M  V30 18028 H 1731.36 -1.53703 0.283724 0
M  V30 18029 H 1732.1 -2.50638 -2.05794 0
M  V30 18030 H 1731.88 -3.82351 -0.868922 0
M  V30 18031 H 1733.37 -3.74106 -1.85566 0
M  V30 18032 N 1733.81 -0.262893 -1.55392 0
M  V30 18033 C 1734.76 0.644115 -2.18712 0
M  V30 18034 C 1735.75 1.12746 -1.14792 0
M  V30 18035 O 1736.94 1.07457 -1.40649 0
M  V30 18036 C 1734.07 1.83346 -2.9024 0
M  V30 18037 C 1733.15 1.36787 -4.01435 0
M  V30 18038 N 1733.54 0.617586 -5.02015 0
M  V30 18039 C 1731.84 1.65185 -4.14283 0
M  V30 18040 C 1732.54 0.374392 -5.80494 0
M  V30 18041 N 1731.52 0.943273 -5.35353 0
M  V30 18042 H 1735.32 0.062908 -2.93833 0
M  V30 18043 H 1732.83 -0.0659062 -1.62266 0
M  V30 18044 H 1734.83 2.49441 -3.34043 0
M  V30 18045 H 1733.49 2.41874 -2.16627 0
M  V30 18046 H 1734.5 0.266115 -5.17216 0
M  V30 18047 H 1731.18 2.24736 -3.51852 0
M  V30 18048 H 1732.57 -0.225674 -6.71521 0
M  V30 18049 N 1735.29 1.57597 0.0100073 0
M  V30 18050 C 1736.24 2.04265 1.01292 0
M  V30 18051 C 1737.22 0.93547 1.30911 0
M  V30 18052 O 1738.42 1.19929 1.30177 0
M  V30 18053 C 1735.54 2.54129 2.3081 0
M  V30 18054 C 1734.63 3.71704 2.04198 0
M  V30 18055 N 1735.02 4.83752 1.47709 0
M  V30 18056 C 1733.32 3.79443 2.34391 0
M  V30 18057 C 1734.02 5.65255 1.37339 0
M  V30 18058 N 1733 5.1095 1.85556 0
M  V30 18059 H 1736.8 2.8831 0.570489 0
M  V30 18060 H 1734.31 1.60958 0.215919 0
M  V30 18061 H 1736.31 2.85832 3.03489 0
M  V30 18062 H 1734.97 1.71497 2.75715 0
M  V30 18063 H 1735.98 5.04805 1.15723 0
M  V30 18064 H 1732.66 3.07648 2.82239 0
M  V30 18065 H 1734.05 6.65293 0.939918 0
M  V30 18066 N 1736.77 -0.282606 1.55045 0
M  V30 18067 C 1738.01 -1.02323 1.76945 0
M  V30 18068 C 1738.37 -1.83845 0.553631 0
M  V30 18069 O 1739.57 -2.60805 0.650695 0
M  V30 18070 C 1737.84 -1.89026 3.03322 0
M  V30 18071 S 1739.4 -2.69484 3.463 0
M  V30 18072 H 1736.22 -0.344792 0.621804 0
M  V30 18073 H 1738.82 -0.294652 1.93267 0
M  V30 18074 H 1737.53 -1.28043 3.89914 0
M  V30 18075 H 1737.06 -2.6622 2.89638 0
M  V30 18076 H 1739.07 -3.91537 3.04817 0
M  V30 18077 N 1738.25 -1.47815 -0.546675 0
M  V30 18078 C 1739.66 -1.33566 -0.873628 0
M  V30 18079 C 1739.86 -0.334067 -1.98711 0
M  V30 18080 O 1738.92 0.250675 -2.51253 0
M  V30 18081 C 1740.23 -2.73171 -1.25691 0
M  V30 18082 C 1741.78 -2.81535 -1.36774 0
M  V30 18083 C 1742.25 -4.21804 -1.78454 0
M  V30 18084 N 1743.74 -4.24396 -1.85586 0
M  V30 18085 C 1744.48 -5.29854 -2.19186 0
M  V30 18086 N 1743.98 -6.45606 -2.51326 0
M  V30 18087 N 1745.77 -5.17237 -2.2005 0
M  V30 18088 H 1737.92 -2.11564 0.188285 0
M  V30 18089 H 1740.18 -0.947754 0.0215773 0
M  V30 18090 H 1739.89 -3.47946 -0.512485 0
M  V30 18091 H 1739.76 -3.05622 -2.21077 0
M  V30 18092 H 1742.15 -2.07025 -2.10297 0
M  V30 18093 H 1742.23 -2.52724 -0.395504 0
M  V30 18094 H 1741.87 -4.96823 -1.05498 0
M  V30 18095 H 1741.8 -4.48046 -2.76699 0
M  V30 18096 H 1744.3 -3.40895 -1.63092 0
M  V30 18097 H 1744.61 -7.21825 -2.76022 0
M  V30 18098 H 1742.95 -6.48909 -2.48883 0
M  V30 18099 H 1746.14 -4.2583 -1.94387 0
M  V30 18100 H 1746.32 -5.99529 -2.45905 0
M  V30 18101 N 1739.72 0.794246 -1.36123 0
M  V30 18102 C 1740.67 1.90668 -1.30056 0
M  V30 18103 C 1741.64 1.65226 -0.170145 0
M  V30 18104 O 1742.83 1.87452 -0.355874 0
M  V30 18105 C 1739.97 3.27405 -1.09086 0
M  V30 18106 C 1739.08 3.64951 -2.31159 0
M  V30 18107 C 1738.21 4.90782 -2.0324 0
M  V30 18108 C 1737.25 5.20992 -3.21301 0
M  V30 18109 N 1736.39 6.38005 -2.93078 0
M  V30 18110 H 1741.23 1.9519 -2.25178 0
M  V30 18111 H 1738.77 0.95458 -1.1192 0
M  V30 18112 H 1740.72 4.0625 -0.94956 0
M  V30 18113 H 1739.35 3.22319 -0.176211 0
M  V30 18114 H 1738.41 2.81268 -2.5611 0
M  V30 18115 H 1739.72 3.83228 -3.19277 0
M  V30 18116 H 1738.87 5.77481 -1.86012 0
M  V30 18117 H 1737.61 4.74565 -1.12426 0
M  V30 18118 H 1736.62 4.32777 -3.39093 0
M  V30 18119 H 1737.84 5.39131 -4.12934 0
M  V30 18120 H 1735.79 6.23189 -2.0487 0
M  V30 18121 H 1735.7 6.56591 -3.74733 0
M  V30 18122 H 1736.97 7.27699 -2.79418 0
M  V30 18123 N 1741.2 1.20323 1.01785 0
M  V30 18124 C 1742.15 0.947754 2.12416 0
M  V30 18125 C 1743.14 -0.100443 1.69102 0
M  V30 18126 O 1744.35 0.0498028 1.79931 0
M  V30 18127 H 1740.72 0.289148 0.694188 0
M  V30 18128 H 1742.7 1.88714 2.31149 0
M  V30 18129 C 1741.44 0.51503 3.43864 0
M  V30 18130 H 1740.77 1.31318 3.77618 0
M  V30 18131 H 1742.21 0.375476 4.22334 0
M  V30 18132 C 1740.67 -0.772413 3.27926 0
M  V30 18133 O 1741.2 -1.83115 3.57536 0
M  V30 18134 N 1739.4 -0.733948 2.81179 0
M  V30 18135 H 1738.95 0.127902 2.57282 0
M  V30 18136 H 1738.91 -1.59571 2.70896 0
M  V30 18137 N 1742.68 -1.21073 1.00892 0
M  V30 18138 C 1743.64 -2.21804 0.577543 0
M  V30 18139 C 1744.64 -1.56985 -0.348201 0
M  V30 18140 O 1745.83 -1.73653 -0.137947 0
M  V30 18141 C 1742.96 -3.40535 -0.157685 0
M  V30 18142 H 1744.16 -2.61483 1.46856 0
M  V30 18143 H 1741.71 -1.34402 0.79786 0
M  V30 18144 H 1742.45 -3.0635 -1.06397 0
M  V30 18145 H 1742.23 -3.88805 0.507238 0
M  V30 18146 H 1743.72 -4.152 -0.447109 0
M  V30 18147 N 1744.16 -0.784156 -1.36707 0
M  V30 18148 C 1745.57 -0.417967 -1.81961 0
M  V30 18149 C 1745.92 1.05746 -1.65264 0
M  V30 18150 O 1745.05 1.82003 -1.17064 0
M  V30 18151 C 1745.64 -0.751869 -3.30352 0
M  V30 18152 C 1744.2 -0.438578 -3.73836 0
M  V30 18153 C 1743.35 -0.989262 -2.59054 0
M  V30 18154 H 1746.3 -0.977754 -1.25003 0
M  V30 18155 H 1746.32 -0.041034 -3.80478 0
M  V30 18156 H 1745.83 -1.82576 -3.42473 0
M  V30 18157 H 1743.93 0.627493 -3.67278 0
M  V30 18158 H 1744.04 -0.955508 -4.69475 0
M  V30 18159 H 1742.41 -0.412783 -2.51333 0
M  V30 18160 H 1743.19 -2.06881 -2.73962 0
M  V30 18161 N 1745.64 1.48215 -0.535727 0
M  V30 18162 C 1746.57 2.3253 0.212562 0
M  V30 18163 C 1747.55 1.42454 0.929568 0
M  V30 18164 O 1748.73 1.71334 0.914228 0
M  V30 18165 C 1745.86 3.23777 1.25641 0
M  V30 18166 C 1744.82 4.22924 0.657191 0
M  V30 18167 C 1744.14 5.03345 1.80411 0
M  V30 18168 C 1745.44 5.20953 -0.374902 0
M  V30 18169 H 1747.14 2.95341 -0.491301 0
M  V30 18170 H 1744.68 1.42024 -0.237718 0
M  V30 18171 H 1746.64 3.81592 1.78789 0
M  V30 18172 H 1745.36 2.58978 1.98993 0
M  V30 18173 H 1744.02 3.66304 0.147184 0
M  V30 18174 H 1743.67 4.34965 2.52615 0
M  V30 18175 H 1743.37 5.70455 1.40906 0
M  V30 18176 H 1744.89 5.64013 2.33926 0
M  V30 18177 H 1746.3 5.73258 0.0697072 0
M  V30 18178 H 1744.7 5.96147 -0.687646 0
M  V30 18179 H 1745.77 4.67739 -1.27861 0
M  V30 18180 N 1747.11 0.27113 1.5525 0
M  V30 18181 C 1748.34 -0.34974 2.03618 0
M  V30 18182 C 1748.75 -1.5031 1.14907 0
M  V30 18183 O 1748.1 -1.82994 0.160886 0
M  V30 18184 C 1748.16 -0.89674 3.48136 0
M  V30 18185 C 1747.82 0.127473 4.56822 0
M  V30 18186 C 1748.82 0.945589 5.11229 0
M  V30 18187 C 1746.5 0.260562 5.01624 0
M  V30 18188 C 1748.5 1.88302 6.08951 0
M  V30 18189 C 1746.18 1.20147 5.99173 0
M  V30 18190 C 1747.18 2.01121 6.52717 0
M  V30 18191 O 1746.87 2.93621 7.48359 0
M  V30 18192 H 1746.6 -0.0843491 0.670717 0
M  V30 18193 H 1749.16 0.399804 2.01471 0
M  V30 18194 H 1747.39 -1.69628 3.4751 0
M  V30 18195 H 1749.08 -1.43027 3.79866 0
M  V30 18196 H 1749.84 0.853483 4.77431 0
M  V30 18197 H 1745.72 -0.359689 4.59595 0
M  V30 18198 H 1749.26 2.51545 6.50669 0
M  V30 18199 H 1745.16 1.29441 6.32389 0
M  V30 18200 H 1745.93 2.88258 7.66061 0
M  V30 18201 N 1748.59 -1.576 -0.00164943 0
M  V30 18202 C 1749.56 -2.07267 -0.978423 0
M  V30 18203 C 1750.56 -0.981758 -1.27351 0
M  V30 18204 O 1751.75 -1.24446 -1.21896 0
M  V30 18205 C 1748.88 -2.51273 -2.30379 0
M  V30 18206 H 1750.07 -2.94835 -0.548845 0
M  V30 18207 H 1747.62 -1.54302 -0.249086 0
M  V30 18208 H 1748.36 -1.66943 -2.7803 0
M  V30 18209 H 1748.14 -3.30943 -2.10283 0
M  V30 18210 H 1749.63 -2.90031 -3.00453 0
M  V30 18211 N 1750.07 0.274379 -1.55193 0
M  V30 18212 C 1751.03 1.32237 -1.87206 0
M  V30 18213 C 1752.03 1.4242 -0.74654 0
M  V30 18214 O 1753.22 1.41595 -1.01472 0
M  V30 18215 C 1750.36 2.7039 -2.0761 0
M  V30 18216 H 1751.55 1.05083 -2.80887 0
M  V30 18217 H 1749.1 0.512375 -1.47663 0
M  V30 18218 H 1749.84 3.02727 -1.16306 0
M  V30 18219 H 1749.62 2.64385 -2.89556 0
M  V30 18220 H 1751.11 3.46114 -2.33655 0
M  V30 18221 N 1751.55 1.48103 0.538828 0
M  V30 18222 C 1752.46 1.64632 1.67133 0
M  V30 18223 C 1753.47 0.528917 1.65766 0
M  V30 18224 O 1754.65 0.798849 1.84879 0
M  V30 18225 C 1751.72 1.67391 3.03614 0
M  V30 18226 C 1750.78 2.90694 3.15904 0
M  V30 18227 C 1750.01 2.93311 4.45875 0
M  V30 18228 O 1750.23 2.04596 5.32444 0
M  V30 18229 O 1749.17 3.85384 4.62345 0
M  V30 18230 H 1752.99 2.60496 1.56126 0
M  V30 18231 H 1750.58 1.31401 0.710925 0
M  V30 18232 H 1752.46 1.71777 3.84799 0
M  V30 18233 H 1751.13 0.746982 3.14963 0
M  V30 18234 H 1750.04 2.91844 2.34047 0
M  V30 18235 H 1751.37 3.82742 3.09467 0
M  V30 18236 N 1753.03 -0.787016 1.36542 0
M  V30 18237 C 1753.99 -1.88136 1.3091 0
M  V30 18238 C 1754.99 -1.59339 0.216292 0
M  V30 18239 O 1756.18 -1.67706 0.471222 0
M  V30 18240 C 1753.31 -3.24969 1.02994 0
M  V30 18241 H 1754.5 -1.94546 2.28237 0
M  V30 18242 H 1752.06 -0.985084 1.2135 0
M  V30 18243 H 1752.79 -3.24242 0.0613497 0
M  V30 18244 H 1752.58 -3.47261 1.82078 0
M  V30 18245 H 1754.07 -4.05036 1.01664 0
M  V30 18246 N 1754.5 -1.20861 -1.01145 0
M  V30 18247 C 1755.45 -0.962085 -2.09792 0
M  V30 18248 C 1756.42 0.109588 -1.65738 0
M  V30 18249 O 1757.61 -0.0362022 -1.90766 0
M  V30 18250 C 1754.75 -0.52586 -3.4107 0
M  V30 18251 C 1753.86 -1.66626 -3.98572 0
M  V30 18252 C 1752.99 -1.17983 -5.17932 0
M  V30 18253 C 1752.03 -2.29298 -5.67529 0
M  V30 18254 N 1751.17 -1.81836 -6.78145 0
M  V30 18255 H 1756.01 -1.89222 -2.30215 0
M  V30 18256 H 1753.55 -0.943108 -1.12889 0
M  V30 18257 H 1755.51 -0.25423 -4.16425 0
M  V30 18258 H 1754.14 0.367275 -3.20704 0
M  V30 18259 H 1753.19 -2.05268 -3.20264 0
M  V30 18260 H 1754.5 -2.50426 -4.3138 0
M  V30 18261 H 1753.65 -0.864477 -6.0051 0
M  V30 18262 H 1752.39 -0.311793 -4.86702 0
M  V30 18263 H 1751.4 -2.61644 -4.83552 0
M  V30 18264 H 1752.62 -3.16587 -6.00791 0
M  V30 18265 H 1750.57 -0.973665 -6.48734 0
M  V30 18266 H 1750.49 -2.59213 -7.10172 0
M  V30 18267 H 1751.75 -1.53315 -7.64274 0
M  V30 18268 N 1755.98 1.20536 -1.01532 0
M  V30 18269 C 1757.4 1.41929 -0.729957 0
M  V30 18270 C 1757.6 1.89286 0.69088 0
M  V30 18271 O 1756.65 2.06094 1.45882 0
M  V30 18272 C 1757.97 2.44202 -1.75458 0
M  V30 18273 C 1759.52 2.57971 -1.77257 0
M  V30 18274 C 1759.99 3.63486 -2.78643 0
M  V30 18275 N 1761.48 3.70968 -2.77375 0
M  V30 18276 C 1762.22 4.52266 -3.52481 0
M  V30 18277 N 1761.71 5.37379 -4.37259 0
M  V30 18278 N 1763.51 4.46787 -3.41084 0
M  V30 18279 H 1755.66 0.881116 -1.93262 0
M  V30 18280 H 1757.92 0.449299 -0.834766 0
M  V30 18281 H 1757.63 2.16401 -2.77243 0
M  V30 18282 H 1757.5 3.43171 -1.56568 0
M  V30 18283 H 1759.89 2.85103 -0.761586 0
M  V30 18284 H 1759.97 1.59202 -2.00221 0
M  V30 18285 H 1759.61 3.37097 -3.79905 0
M  V30 18286 H 1759.54 4.61874 -2.52942 0
M  V30 18287 H 1762.03 3.10171 -2.15876 0
M  V30 18288 H 1762.35 5.96495 -4.91338 0
M  V30 18289 H 1760.69 5.36886 -4.41337 0
M  V30 18290 H 1763.88 3.79329 -2.74275 0
M  V30 18291 H 1764.05 5.0991 -3.9987 0
M  V30 18292 N 1757.46 0.791395 1.36289 0
M  V30 18293 C 1758.71 0.365242 1.99484 0
M  V30 18294 C 1759.04 -1.06087 1.62663 0
M  V30 18295 O 1758.31 -1.73332 0.882396 0
M  V30 18296 C 1758.6 0.531317 3.56159 0
M  V30 18297 C 1758.45 2.00126 4.02827 0
M  V30 18298 C 1759.77 -0.0524248 4.40069 0
M  V30 18299 H 1756.89 0.134183 0.724682 0
M  V30 18300 H 1759.53 0.998102 1.61672 0
M  V30 18301 H 1757.68 -0.0074293 3.88499 0
M  V30 18302 H 1759.35 2.60122 3.80965 0
M  V30 18303 H 1757.6 2.50316 3.54294 0
M  V30 18304 H 1758.27 2.06842 5.11782 0
M  V30 18305 H 1760.74 0.407489 4.141 0
M  V30 18306 H 1759.62 0.0937898 5.4882 0
M  V30 18307 H 1759.88 -1.14472 4.27023 0
M  V30 18308 N 1758.94 -1.47929 0.54358 0
M  V30 18309 C 1760.17 -2.06591 0.0188913 0
M  V30 18310 C 1760.58 -1.39864 -1.27415 0
M  V30 18311 O 1759.92 -0.484566 -1.77194 0
M  V30 18312 C 1759.98 -3.58546 -0.261686 0
M  V30 18313 C 1759.65 -4.4723 0.939893 0
M  V30 18314 C 1760.64 -4.86179 1.8419 0
M  V30 18315 C 1758.33 -4.88941 1.15073 0
M  V30 18316 C 1760.32 -5.65622 2.93854 0
M  V30 18317 C 1758.01 -5.68152 2.25048 0
M  V30 18318 C 1759.01 -6.06402 3.1427 0
M  V30 18319 O 1758.7 -6.8402 4.22341 0
M  V30 18320 H 1758.43 -0.675009 0.0365835 0
M  V30 18321 H 1760.98 -1.91115 0.752599 0
M  V30 18322 H 1759.21 -3.72185 -1.04954 0
M  V30 18323 H 1760.9 -3.9928 -0.730099 0
M  V30 18324 H 1761.67 -4.54565 1.69101 0
M  V30 18325 H 1757.55 -4.58644 0.465479 0
M  V30 18326 H 1761.09 -5.95397 3.63522 0
M  V30 18327 H 1756.99 -5.99179 2.40115 0
M  V30 18328 H 1757.75 -7.02395 4.20219 0
M  V30 18329 N 1760.42 -0.27936 -1.55104 0
M  V30 18330 C 1761.37 0.620882 -2.19383 0
M  V30 18331 C 1762.35 1.11522 -1.15981 0
M  V30 18332 O 1763.54 1.05959 -1.4178 0
M  V30 18333 C 1760.67 1.80257 -2.92168 0
M  V30 18334 C 1759.76 1.32522 -4.02863 0
M  V30 18335 N 1760.15 0.564305 -5.02642 0
M  V30 18336 C 1758.45 1.60781 -4.16011 0
M  V30 18337 C 1759.15 0.312802 -5.80858 0
M  V30 18338 N 1758.12 0.886439 -5.36324 0
M  V30 18339 H 1761.93 0.0317396 -2.93883 0
M  V30 18340 H 1759.44 -0.083113 -1.62187 0
M  V30 18341 H 1761.44 2.45884 -3.3667 0
M  V30 18342 H 1760.1 2.39562 -2.1918 0
M  V30 18343 H 1761.11 0.211243 -5.17469 0
M  V30 18344 H 1757.79 2.20991 -3.54216 0
M  V30 18345 H 1759.18 -0.296885 -6.71244 0
M  V30 18346 N 1761.9 1.57599 -0.0067085 0
M  V30 18347 C 1762.83 2.11878 0.981331 0
M  V30 18348 C 1763.81 1.02949 1.35408 0
M  V30 18349 O 1764.99 1.30667 1.43665 0
M  V30 18350 C 1762.12 2.62757 2.27104 0
M  V30 18351 C 1761.08 3.76272 2.0397 0
M  V30 18352 C 1760.4 4.13491 3.39012 0
M  V30 18353 C 1761.7 5.03274 1.39688 0
M  V30 18354 H 1763.4 2.94683 0.529366 0
M  V30 18355 H 1760.94 1.41757 0.253187 0
M  V30 18356 H 1762.89 2.99359 2.96585 0
M  V30 18357 H 1761.62 1.77082 2.74426 0
M  V30 18358 H 1760.28 3.40074 1.36913 0
M  V30 18359 H 1759.93 3.24831 3.8405 0
M  V30 18360 H 1759.63 4.89972 3.24347 0
M  V30 18361 H 1761.15 4.52657 4.09797 0
M  V30 18362 H 1762.56 5.37604 1.99136 0
M  V30 18363 H 1760.96 5.84604 1.3549 0
M  V30 18364 H 1762.03 4.8351 0.366928 0
M  V30 18365 N 1763.37 -0.266145 1.55336 0
M  V30 18366 C 1764.28 -1.35103 1.91793 0
M  V30 18367 C 1765.3 -1.5368 0.815985 0
M  V30 18368 O 1766.48 -1.67675 1.11567 0
M  V30 18369 C 1763.54 -2.68905 2.1884 0
M  V30 18370 C 1762.6 -2.59015 3.42359 0
M  V30 18371 C 1761.83 -3.86437 3.68106 0
M  V30 18372 O 1762.06 -4.87436 2.96247 0
M  V30 18373 O 1760.99 -3.86227 4.61641 0
M  V30 18374 H 1764.82 -1.07181 2.84158 0
M  V30 18375 H 1762.4 -0.465262 1.41971 0
M  V30 18376 H 1764.28 -3.48008 2.3763 0
M  V30 18377 H 1762.96 -2.96599 1.29656 0
M  V30 18378 H 1761.87 -1.78264 3.28896 0
M  V30 18379 H 1763.2 -2.3627 4.31784 0
M  V30 18380 N 1764.85 -1.48386 -0.530967 0
M  V30 18381 C 1765.8 -1.62835 -1.63564 0
M  V30 18382 C 1766.77 -0.470453 -1.59298 0
M  V30 18383 O 1767.95 -0.693813 -1.77738 0
M  V30 18384 C 1765.09 -1.67314 -3.01828 0
M  V30 18385 C 1764.21 -2.94204 -3.16335 0
M  V30 18386 C 1763.34 -2.8985 -4.45152 0
M  V30 18387 C 1762.38 -4.11449 -4.53185 0
M  V30 18388 N 1761.52 -4.05178 -5.7339 0
M  V30 18389 H 1766.36 -2.57172 -1.50554 0
M  V30 18390 H 1763.89 -1.27537 -0.732991 0
M  V30 18391 H 1765.85 -1.67892 -3.81927 0
M  V30 18392 H 1764.48 -0.764688 -3.13612 0
M  V30 18393 H 1763.53 -3.03375 -2.29495 0
M  V30 18394 H 1764.85 -3.84179 -3.18132 0
M  V30 18395 H 1764 -2.88824 -5.33541 0
M  V30 18396 H 1762.74 -1.97602 -4.45875 0
M  V30 18397 H 1761.74 -4.12751 -3.63203 0
M  V30 18398 H 1762.97 -5.04855 -4.54201 0
M  V30 18399 H 1760.92 -3.15749 -5.75012 0
M  V30 18400 H 1760.83 -4.88857 -5.76676 0
M  V30 18401 H 1762.1 -4.08209 -6.64067 0
M  V30 18402 N 1766.33 0.779763 -1.36958 0
M  V30 18403 C 1767.75 1.07919 -1.17582 0
M  V30 18404 C 1767.95 2.01499 -0.00649229 0
M  V30 18405 O 1767 2.43832 0.655905 0
M  V30 18406 C 1768.31 1.68439 -2.49096 0
M  V30 18407 C 1769.86 1.80735 -2.55546 0
M  V30 18408 C 1770.34 2.44669 -3.87171 0
M  V30 18409 N 1771.83 2.52127 -3.88569 0
M  V30 18410 C 1772.56 3.02429 -4.87159 0
M  V30 18411 N 1772.06 3.52964 -5.96144 0
M  V30 18412 N 1773.85 3.0123 -4.7457 0
M  V30 18413 H 1766 0.158249 -2.1181 0
M  V30 18414 H 1768.27 0.132826 -0.938649 0
M  V30 18415 H 1767.97 1.07147 -3.34981 0
M  V30 18416 H 1767.85 2.67832 -2.65604 0
M  V30 18417 H 1770.23 2.41162 -1.70073 0
M  V30 18418 H 1770.31 0.801199 -2.42929 0
M  V30 18419 H 1769.96 1.84883 -4.73055 0
M  V30 18420 H 1769.89 3.45874 -3.97088 0
M  V30 18421 H 1772.38 2.16355 -3.09837 0
M  V30 18422 H 1772.69 3.89725 -6.67334 0
M  V30 18423 H 1771.04 3.5109 -5.998 0
M  V30 18424 H 1774.23 2.61045 -3.88553 0
M  V30 18425 H 1774.4 3.40122 -5.51562 0
M  V30 18426 N 1767.81 1.21396 1.00503 0
M  V30 18427 C 1769.05 1.0327 1.74537 0
M  V30 18428 C 1769.39 -0.432746 1.89317 0
M  V30 18429 O 1768.66 -1.32111 1.42747 0
M  V30 18430 C 1768.94 1.73045 3.15797 0
M  V30 18431 C 1768.8 3.27108 3.0874 0
M  V30 18432 C 1770.12 1.47298 4.14718 0
M  V30 18433 H 1767.24 0.376563 0.633537 0
M  V30 18434 H 1769.88 1.49571 1.17169 0
M  V30 18435 H 1768.03 1.33682 3.64776 0
M  V30 18436 H 1769.7 3.75839 2.67475 0
M  V30 18437 H 1767.94 3.57413 2.45843 0
M  V30 18438 H 1768.61 3.71096 4.08646 0
M  V30 18439 H 1771.09 1.81468 3.74444 0
M  V30 18440 H 1769.97 1.98633 5.11699 0
M  V30 18441 H 1770.23 0.402981 4.4026 0
M  V30 18442 N 1769.29 -1.19996 1.0217 0
M  V30 18443 C 1770.22 -2.25206 0.616818 0
M  V30 18444 C 1771.2 -1.66013 -0.370653 0
M  V30 18445 O 1772.38 -1.92519 -0.254956 0
M  V30 18446 C 1769.51 -3.47276 -0.0405129 0
M  V30 18447 C 1768.47 -4.19096 0.868479 0
M  V30 18448 C 1767.79 -5.34645 0.0766447 0
M  V30 18449 C 1769.09 -4.7468 2.1789 0
M  V30 18450 H 1770.79 -2.59328 1.49632 0
M  V30 18451 H 1768.33 -1.24655 0.720917 0
M  V30 18452 H 1770.28 -4.20063 -0.335355 0
M  V30 18453 H 1769.01 -3.12333 -0.954759 0
M  V30 18454 H 1767.67 -3.48181 1.1474 0
M  V30 18455 H 1767.32 -4.95946 -0.839411 0
M  V30 18456 H 1767.02 -5.83628 0.682041 0
M  V30 18457 H 1768.54 -6.10233 -0.211624 0
M  V30 18458 H 1769.95 -5.39259 1.94608 0
M  V30 18459 H 1768.35 -5.34121 2.7356 0
M  V30 18460 H 1769.42 -3.93141 2.83845 0
M  V30 18461 N 1770.76 -0.798611 -1.35867 0
M  V30 18462 C 1772.01 -0.374519 -1.986 0
M  V30 18463 C 1772.33 1.05984 -1.63684 0
M  V30 18464 O 1771.6 1.73199 -0.915359 0
M  V30 18465 H 1770.18 -0.135492 -0.734609 0
M  V30 18466 H 1772.84 -1.02269 -1.65913 0
M  V30 18467 H 1771.94 -0.473773 -3.08483 0
M  V30 18468 N 1772.24 1.47639 -0.551417 0
M  V30 18469 C 1773.2 2.28419 0.188996 0
M  V30 18470 C 1774.2 1.36617 0.84808 0
M  V30 18471 O 1775.39 1.59304 0.704831 0
M  V30 18472 C 1772.53 3.16131 1.27571 0
M  V30 18473 H 1773.72 2.95348 -0.520518 0
M  V30 18474 H 1771.27 1.53232 -0.308141 0
M  V30 18475 H 1772.01 2.5388 2.0178 0
M  V30 18476 H 1771.79 3.83685 0.807984 0
M  V30 18477 H 1773.28 3.77011 1.79591 0
M  V30 18478 N 1773.72 0.287581 1.54954 0
M  V30 18479 C 1774.65 -0.636117 2.19155 0
M  V30 18480 C 1775.63 -1.14295 1.15652 0
M  V30 18481 O 1776.82 -1.21362 1.44234 0
M  V30 18482 C 1773.94 -1.86888 2.82472 0
M  V30 18483 C 1772.99 -1.49645 3.99385 0
M  V30 18484 S 1773.82 -0.563886 5.32523 0
M  V30 18485 C 1774.98 -1.80474 5.99316 0
M  V30 18486 H 1775.21 -0.0906517 2.97162 0
M  V30 18487 H 1772.74 0.0717757 1.54233 0
M  V30 18488 H 1774.7 -2.57639 3.19581 0
M  V30 18489 H 1773.36 -2.38549 2.04336 0
M  V30 18490 H 1772.56 -2.41408 4.42423 0
M  V30 18491 H 1772.16 -0.869001 3.63764 0
M  V30 18492 H 1774.45 -2.74708 6.19307 0
M  V30 18493 H 1775.39 -1.41716 6.93774 0
M  V30 18494 H 1775.8 -1.97535 5.2881 0
M  V30 18495 N 1775.2 -1.57593 0.0150662 0
M  V30 18496 C 1776.13 -2.06239 -0.999912 0
M  V30 18497 C 1777.14 -0.983112 -1.29764 0
M  V30 18498 O 1778.33 -1.25961 -1.26476 0
M  V30 18499 C 1775.43 -2.46011 -2.33092 0
M  V30 18500 C 1774.61 -3.76851 -2.2204 0
M  V30 18501 C 1773.66 -4.03326 -3.37956 0
M  V30 18502 O 1772.69 -4.73781 -3.15469 0
M  V30 18503 N 1773.89 -3.52399 -4.61298 0
M  V30 18504 H 1776.66 -2.93936 -0.584952 0
M  V30 18505 H 1774.22 -1.60984 -0.172001 0
M  V30 18506 H 1776.21 -2.60825 -3.09439 0
M  V30 18507 H 1774.78 -1.63753 -2.66277 0
M  V30 18508 H 1774 -3.71969 -1.30509 0
M  V30 18509 H 1775.29 -4.626 -2.11845 0
M  V30 18510 H 1774.69 -2.95374 -4.82463 0
M  V30 18511 H 1773.24 -3.72516 -5.3486 0
M  V30 18512 N 1776.68 0.257904 -1.55475 0
M  V30 18513 C 1777.92 0.98747 -1.76792 0
M  V30 18514 C 1778.25 1.85732 -0.577411 0
M  V30 18515 O 1777.51 1.90698 0.439647 0
M  V30 18516 C 1777.81 1.8875 -3.03494 0
M  V30 18517 C 1777.47 1.17391 -4.35351 0
M  V30 18518 C 1776.13 0.976662 -4.71184 0
M  V30 18519 C 1778.49 0.667299 -5.16911 0
M  V30 18520 C 1775.81 0.260314 -5.86122 0
M  V30 18521 C 1778.17 -0.0355283 -6.3259 0
M  V30 18522 C 1776.83 -0.244359 -6.67053 0
M  V30 18523 H 1776.1 0.361341 -0.646926 0
M  V30 18524 H 1778.75 0.258469 -1.89748 0
M  V30 18525 H 1777.05 2.6832 -2.85502 0
M  V30 18526 H 1778.75 2.45348 -3.17184 0
M  V30 18527 H 1775.34 1.33758 -4.07194 0
M  V30 18528 H 1779.52 0.807271 -4.89691 0
M  V30 18529 H 1774.78 0.0879391 -6.11337 0
M  V30 18530 H 1778.95 -0.435775 -6.95035 0
M  V30 18531 H 1776.58 -0.801403 -7.55964 0
M  V30 18532 N 1778.15 1.48666 0.52309 0
M  V30 18533 C 1779.1 1.63701 1.62698 0
M  V30 18534 C 1780.07 0.478895 1.59047 0
M  V30 18535 O 1781.26 0.703229 1.77368 0
M  V30 18536 C 1778.4 1.68912 3.00936 0
M  V30 18537 C 1777.51 2.95878 3.1477 0
M  V30 18538 C 1776.64 2.92206 4.43609 0
M  V30 18539 C 1775.68 4.13846 4.50996 0
M  V30 18540 N 1774.82 4.08213 5.71233 0
M  V30 18541 H 1779.66 2.57967 1.49188 0
M  V30 18542 H 1777.2 1.27924 0.726217 0
M  V30 18543 H 1779.16 1.69915 3.81031 0
M  V30 18544 H 1777.79 0.781309 3.13202 0
M  V30 18545 H 1776.84 3.04588 2.27883 0
M  V30 18546 H 1778.15 3.85861 3.1609 0
M  V30 18547 H 1777.3 2.91649 5.32002 0
M  V30 18548 H 1776.04 1.99964 4.44821 0
M  V30 18549 H 1775.05 4.14671 3.61009 0
M  V30 18550 H 1776.27 5.07256 4.51517 0
M  V30 18551 H 1774.22 3.18794 5.73329 0
M  V30 18552 H 1774.14 4.91908 5.74075 0
M  V30 18553 H 1775.4 4.11725 6.61893 0
M  V30 18554 N 1779.63 -0.772489 1.37369 0
M  V30 18555 C 1780.86 -1.56158 1.35729 0
M  V30 18556 C 1781.28 -1.88712 -0.0575274 0
M  V30 18557 O 1780.63 -1.51395 -1.01911 0
M  V30 18558 C 1780.68 -2.87231 2.19501 0
M  V30 18559 O 1780.4 -2.56072 3.5547 0
M  V30 18560 C 1781.91 -3.81464 2.25831 0
M  V30 18561 H 1779.13 -0.483803 0.464947 0
M  V30 18562 H 1781.67 -0.957502 1.80699 0
M  V30 18563 H 1779.82 -3.44063 1.78042 0
M  V30 18564 H 1780.24 -3.40002 3.99373 0
M  V30 18565 H 1781.71 -4.70442 2.8877 0
M  V30 18566 H 1782.19 -4.20542 1.26653 0
M  V30 18567 H 1782.8 -3.30561 2.67599 0
M  V30 18568 N 1781.11 -1.21927 -0.998575 0
M  V30 18569 C 1782.06 -0.984283 -2.08759 0
M  V30 18570 C 1783.03 0.0920029 -1.65845 0
M  V30 18571 O 1784.21 -0.0564334 -1.90717 0
M  V30 18572 C 1781.35 -0.562006 -3.40493 0
M  V30 18573 C 1780.47 -1.70844 -3.96783 0
M  V30 18574 C 1779.6 -1.2347 -5.16651 0
M  V30 18575 C 1778.64 -2.35305 -5.65065 0
M  V30 18576 N 1777.78 -1.89018 -6.76178 0
M  V30 18577 H 1782.62 -1.91653 -2.28195 0
M  V30 18578 H 1780.15 -0.955028 -1.11882 0
M  V30 18579 H 1782.11 -0.298383 -4.16132 0
M  V30 18580 H 1780.74 0.33324 -3.21075 0
M  V30 18581 H 1779.79 -2.08653 -3.18069 0
M  V30 18582 H 1781.11 -2.54987 -4.28699 0
M  V30 18583 H 1780.26 -0.928121 -5.99559 0
M  V30 18584 H 1779 -0.363397 -4.86344 0
M  V30 18585 H 1778 -2.66758 -4.8075 0
M  V30 18586 H 1779.23 -3.22941 -5.97399 0
M  V30 18587 H 1777.17 -1.04242 -6.47665 0
M  V30 18588 H 1777.09 -2.66731 -7.07383 0
M  V30 18589 H 1778.36 -1.61413 -7.62605 0
M  V30 18590 N 1782.59 1.19452 -1.02805 0
M  V30 18591 C 1783.54 2.24684 -0.60165 0
M  V30 18592 C 1784.53 1.65414 0.365319 0
M  V30 18593 O 1785.74 1.78473 0.233988 0
M  V30 18594 H 1782.11 0.731043 -0.176296 0
M  V30 18595 H 1784.08 2.57967 -1.49985 0
M  V30 18596 C 1782.83 3.47685 0.0325515 0
M  V30 18597 H 1782.15 3.93579 -0.702532 0
M  V30 18598 H 1783.59 4.2298 0.29386 0
M  V30 18599 C 1782.05 3.11684 1.27887 0
M  V30 18600 O 1782.58 3.24262 2.37101 0
M  V30 18601 N 1780.79 2.66124 1.16731 0
M  V30 18602 H 1780.34 2.56089 0.278595 0
M  V30 18603 H 1780.29 2.42407 2.00215 0
M  V30 18604 N 1784.07 0.805805 1.35442 0
M  V30 18605 C 1785.48 0.489448 1.5191 0
M  V30 18606 C 1785.68 -0.989485 1.75532 0
M  V30 18607 O 1784.74 -1.77453 1.79629 0
M  V30 18608 C 1786.05 1.33413 2.69484 0
M  V30 18609 C 1787.6 1.32949 2.83361 0
M  V30 18610 C 1788.07 2.15827 4.03959 0
M  V30 18611 N 1789.57 2.13359 4.11135 0
M  V30 18612 C 1790.3 2.74245 5.03564 0
M  V30 18613 N 1789.8 3.44055 6.0133 0
M  V30 18614 N 1791.59 2.63891 4.96304 0
M  V30 18615 H 1783.74 1.76361 1.18366 0
M  V30 18616 H 1786 0.750594 0.579062 0
M  V30 18617 H 1785.71 2.38364 2.58603 0
M  V30 18618 H 1785.58 0.986809 3.64063 0
M  V30 18619 H 1787.97 0.287837 2.93693 0
M  V30 18620 H 1788.05 1.71668 1.89641 0
M  V30 18621 H 1787.7 3.20033 3.94388 0
M  V30 18622 H 1787.63 1.74469 4.96858 0
M  V30 18623 H 1790.12 1.62566 3.41146 0
M  V30 18624 H 1790.43 3.87802 6.68453 0
M  V30 18625 H 1788.77 3.48159 6.01507 0
M  V30 18626 H 1791.97 2.08941 4.18881 0
M  V30 18627 H 1792.14 3.11631 5.68146 0
M  V30 18628 N 1785.54 -1.47344 0.559239 0
M  V30 18629 C 1786.79 -2.01672 0.0337843 0
M  V30 18630 C 1787.11 -1.43883 -1.32503 0
M  V30 18631 O 1788.31 -1.89885 -1.94051 0
M  V30 18632 C 1786.77 -3.59899 0.00989925 0
M  V30 18633 C 1786.38 -4.2668 1.3656 0
M  V30 18634 C 1788.12 -4.21969 -0.462842 0
M  V30 18635 C 1786.03 -5.76919 1.30071 0
M  V30 18636 H 1784.96 -0.753948 0.00885972 0
M  V30 18637 H 1787.61 -1.69317 0.707394 0
M  V30 18638 H 1785.99 -3.89225 -0.729399 0
M  V30 18639 H 1787.16 -4.08993 2.12277 0
M  V30 18640 H 1785.48 -3.76605 1.77644 0
M  V30 18641 H 1788.08 -5.32069 -0.529816 0
M  V30 18642 H 1788.42 -3.89283 -1.47528 0
M  V30 18643 H 1788.95 -3.97182 0.221661 0
M  V30 18644 H 1785.69 -6.14227 2.28921 0
M  V30 18645 H 1785.21 -5.96937 0.585375 0
M  V30 18646 H 1786.89 -6.39168 1.00364 0
M  V30 18647 N 1787.02 -0.295795 -1.54799 0
M  V30 18648 C 1787.93 0.592206 -2.27002 0
M  V30 18649 C 1788.95 1.1528 -1.30332 0
M  V30 18650 O 1790.12 1.1787 -1.63305 0
M  V30 18651 C 1787.19 1.75027 -2.99277 0
M  V30 18652 C 1786.25 1.22427 -4.11473 0
M  V30 18653 C 1785.48 2.32714 -4.80291 0
M  V30 18654 O 1785.71 3.52506 -4.48437 0
M  V30 18655 O 1784.64 1.997 -5.67806 0
M  V30 18656 H 1788.47 0.00666048 -3.03699 0
M  V30 18657 H 1786.05 -0.0624413 -1.49269 0
M  V30 18658 H 1787.93 2.42508 -3.44627 0
M  V30 18659 H 1786.61 2.32252 -2.25479 0
M  V30 18660 H 1785.52 0.515337 -3.70534 0
M  V30 18661 H 1786.85 0.697518 -4.87233 0
M  V30 18662 N 1788.5 1.57583 -0.0234236 0
M  V30 18663 C 1789.91 1.79422 0.516201 0
M  V30 18664 C 1790.26 0.933151 1.72588 0
M  V30 18665 O 1789.39 0.141985 2.15934 0
M  V30 18666 C 1789.98 3.25405 0.943248 0
M  V30 18667 C 1788.54 3.48259 1.42802 0
M  V30 18668 C 1787.69 2.74543 0.390074 0
M  V30 18669 H 1790.64 1.56727 -0.24949 0
M  V30 18670 H 1790.66 3.34803 1.80795 0
M  V30 18671 H 1790.17 3.88049 0.0626242 0
M  V30 18672 H 1788.27 2.9086 2.32877 0
M  V30 18673 H 1788.39 4.56968 1.43933 0
M  V30 18674 H 1786.75 2.39852 0.856919 0
M  V30 18675 H 1787.53 3.399 -0.481986 0
M  V30 18676 N 1789.98 -0.249655 1.5561 0
M  V30 18677 C 1791.23 -0.979529 1.77576 0
M  V30 18678 C 1791.56 -1.85078 0.588198 0
M  V30 18679 O 1790.83 -1.90052 -0.4136 0
M  V30 18680 C 1791.12 -1.84238 3.094 0
M  V30 18681 C 1790.97 -0.9995 4.38554 0
M  V30 18682 C 1792.29 -2.82536 3.37433 0
M  V30 18683 H 1789.41 -0.354681 0.646042 0
M  V30 18684 H 1792.05 -0.250224 1.88345 0
M  V30 18685 H 1790.2 -2.46419 3.0035 0
M  V30 18686 H 1791.87 -0.396599 4.59592 0
M  V30 18687 H 1790.11 -0.30376 4.32735 0
M  V30 18688 H 1790.79 -1.63697 5.27169 0
M  V30 18689 H 1793.26 -2.30491 3.46429 0
M  V30 18690 H 1792.14 -3.40033 4.30893 0
M  V30 18691 H 1792.4 -3.58859 2.58211 0
M  V30 18692 N 1791.46 -1.48941 -0.515198 0
M  V30 18693 C 1792.7 -1.59318 -1.28052 0
M  V30 18694 C 1793.06 -0.26749 -1.90128 0
M  V30 18695 O 1794.26 -0.246338 -2.67669 0
M  V30 18696 C 1792.53 -2.71033 -2.32972 0
M  V30 18697 S 1794.09 -3.01271 -3.19032 0
M  V30 18698 H 1790.91 -0.56211 -0.435378 0
M  V30 18699 H 1793.51 -1.86534 -0.585253 0
M  V30 18700 H 1792.22 -3.65895 -1.85873 0
M  V30 18701 H 1791.75 -2.45765 -3.07186 0
M  V30 18702 H 1793.76 -2.41702 -4.33353 0
M  V30 18703 N 1792.94 0.765193 -1.37777 0
M  V30 18704 C 1793.9 1.8603 -1.33886 0
M  V30 18705 C 1794.9 1.58974 -0.241614 0
M  V30 18706 O 1796.09 1.66935 -0.497843 0
M  V30 18707 C 1793.22 3.2329 -1.08151 0
M  V30 18708 H 1794.41 1.9089 -2.31303 0
M  V30 18709 H 1791.97 0.965653 -1.22902 0
M  V30 18710 H 1792.7 3.24103 -0.112926 0
M  V30 18711 H 1792.49 3.4432 -1.8758 0
M  V30 18712 H 1793.98 4.03367 -1.08095 0
M  V30 18713 N 1794.41 1.22455 0.992094 0
M  V30 18714 C 1795.34 1.01961 2.10063 0
M  V30 18715 C 1796.32 -0.0597186 1.69995 0
M  V30 18716 O 1797.51 0.102655 1.93928 0
M  V30 18717 C 1794.64 0.597442 3.42123 0
M  V30 18718 C 1793.59 1.62279 3.96042 0
M  V30 18719 C 1792.92 1.05644 5.2416 0
M  V30 18720 C 1794.22 3.01296 4.26635 0
M  V30 18721 H 1795.91 1.94678 2.27466 0
M  V30 18722 H 1793.46 0.937422 1.09309 0
M  V30 18723 H 1795.41 0.441175 4.19084 0
M  V30 18724 H 1794.14 -0.365401 3.24549 0
M  V30 18725 H 1792.8 1.76685 3.21213 0
M  V30 18726 H 1792.44 0.0849267 5.02928 0
M  V30 18727 H 1792.14 1.74144 5.61202 0
M  V30 18728 H 1793.67 0.911774 6.03754 0
M  V30 18729 H 1795.08 2.9026 4.94391 0
M  V30 18730 H 1793.48 3.66928 4.74852 0
M  V30 18731 H 1794.55 3.51168 3.34378 0
M  V30 18732 N 1795.89 -1.18905 1.03437 0
M  V30 18733 C 1797.14 -1.88055 0.729268 0
M  V30 18734 C 1797.45 -1.80833 -0.745564 0
M  V30 18735 O 1798.66 -2.45285 -1.16393 0
M  V30 18736 C 1797.12 -3.37341 1.25415 0
M  V30 18737 C 1796.72 -3.53107 2.75716 0
M  V30 18738 C 1798.47 -4.11932 1.02529 0
M  V30 18739 C 1796.37 -4.96317 3.21595 0
M  V30 18740 H 1795.3 -0.704345 0.269098 0
M  V30 18741 H 1797.96 -1.34397 1.24938 0
M  V30 18742 H 1796.34 -3.90429 0.661925 0
M  V30 18743 H 1797.51 -3.10322 3.40642 0
M  V30 18744 H 1795.83 -2.91913 2.96944 0
M  V30 18745 H 1798.42 -5.17552 1.34328 0
M  V30 18746 H 1798.77 -4.16283 -0.0377114 0
M  V30 18747 H 1799.3 -3.64998 1.5818 0
M  V30 18748 H 1796.04 -4.97131 4.27248 0
M  V30 18749 H 1795.56 -5.39842 2.61401 0
M  V30 18750 H 1797.24 -5.65 3.15253 0
M  V30 18751 N 1797.37 -0.812977 -1.35013 0
M  V30 18752 C 1798.32 -0.200375 -2.27118 0
M  V30 18753 C 1799.3 0.629541 -1.48073 0
M  V30 18754 O 1800.5 0.485751 -1.70204 0
M  V30 18755 C 1797.62 0.644989 -3.37187 0
M  V30 18756 C 1796.71 -0.195007 -4.23651 0
M  V30 18757 N 1797.1 -1.26116 -4.89825 0
M  V30 18758 C 1795.4 0.0223111 -4.45994 0
M  V30 18759 C 1796.1 -1.77451 -5.53973 0
M  V30 18760 N 1795.08 -1.07995 -5.32764 0
M  V30 18761 H 1798.88 -1.01605 -2.75778 0
M  V30 18762 H 1796.39 -0.654777 -1.48615 0
M  V30 18763 H 1798.39 1.09995 -4.02128 0
M  V30 18764 H 1797.05 1.45894 -2.90078 0
M  V30 18765 H 1798.06 -1.64387 -4.91118 0
M  V30 18766 H 1794.74 0.804889 -4.09668 0
M  V30 18767 H 1796.13 -2.66591 -6.16749 0
M  V30 18768 N 1798.85 1.47045 -0.567045 0
M  V30 18769 C 1800.1 2.02046 -0.0465877 0
M  V30 18770 C 1800.42 1.44271 1.3119 0
M  V30 18771 O 1799.69 0.621533 1.85779 0
M  V30 18772 H 1798.27 0.746864 -0.0142323 0
M  V30 18773 H 1800.93 1.80335 -0.739281 0
M  V30 18774 H 1800.02 3.12081 0.0341623 0
M  V30 18775 N 1800.33 0.304 1.5464 0
M  V30 18776 C 1801.55 -0.309709 2.05075 0
M  V30 18777 C 1801.98 -1.46509 1.1797 0
M  V30 18778 O 1801.33 -1.80359 0.184437 0
M  V30 18779 C 1801.38 -0.740734 3.5291 0
M  V30 18780 O 1800.49 -1.8452 3.68817 0
M  V30 18781 H 1799.83 -0.0596065 0.661319 0
M  V30 18782 H 1802.36 0.446718 1.99664 0
M  V30 18783 H 1802.37 -1.02873 3.94818 0
M  V30 18784 H 1801.04 0.104422 4.15769 0
M  V30 18785 H 1799.62 -1.55753 3.38815 0
M  V30 18786 N 1801.8 -1.57568 0.0317802 0
M  V30 18787 C 1803.21 -1.79693 -0.506679 0
M  V30 18788 C 1803.57 -0.94229 -1.72091 0
M  V30 18789 O 1802.69 -0.153435 -2.15855 0
M  V30 18790 C 1803.29 -3.259 -0.925978 0
M  V30 18791 C 1801.84 -3.49012 -1.40953 0
M  V30 18792 C 1800.99 -2.74746 -0.375509 0
M  V30 18793 H 1803.94 -1.56592 0.257798 0
M  V30 18794 H 1803.96 -3.35757 -1.79017 0
M  V30 18795 H 1803.48 -3.88077 -0.0420441 0
M  V30 18796 H 1801.58 -2.9209 -2.31331 0
M  V30 18797 H 1801.69 -4.57725 -1.41508 0
M  V30 18798 H 1800.05 -2.40303 -0.844187 0
M  V30 18799 H 1800.84 -3.39639 0.500005 0
M  V30 18800 N 1803.28 0.241399 -1.5574 0
M  V30 18801 C 1804.53 0.96675 -1.77478 0
M  V30 18802 C 1804.85 1.85644 -0.596757 0
M  V30 18803 O 1804.12 1.92035 0.387236 0
M  V30 18804 H 1802.7 0.35995 -0.654557 0
M  V30 18805 H 1805.36 0.258023 -1.93185 0
M  V30 18806 H 1804.46 1.58524 -2.68843 0
M  V30 18807 N 1804.76 1.49212 0.507292 0
M  V30 18808 C 1805.99 1.6208 1.28599 0
M  V30 18809 C 1806.4 0.289745 1.86563 0
M  V30 18810 O 1805.76 -0.723987 1.67525 0
M  V30 18811 C 1805.81 2.68482 2.42074 0
M  V30 18812 O 1805.53 3.96424 1.86493 0
M  V30 18813 C 1807.03 2.91997 3.33546 0
M  V30 18814 H 1804.25 0.545831 0.390268 0
M  V30 18815 H 1806.8 1.95201 0.609652 0
M  V30 18816 H 1804.95 2.38156 3.05549 0
M  V30 18817 H 1805.37 4.54983 2.60942 0
M  V30 18818 H 1806.84 3.70195 4.09463 0
M  V30 18819 H 1807.32 2.01673 3.9016 0
M  V30 18820 H 1807.92 3.23715 2.75842 0
M  V30 18821 N 1806.24 -0.757876 1.38181 0
M  V30 18822 C 1807.49 -1.51388 1.33888 0
M  V30 18823 C 1807.81 -1.94867 -0.0718767 0
M  V30 18824 O 1807.08 -1.67329 -1.01871 0
M  V30 18825 H 1805.66 -0.561534 0.492634 0
M  V30 18826 H 1808.32 -0.901156 1.72815 0
M  V30 18827 H 1807.42 -2.4068 1.98695 0
M  V30 18828 N 1807.72 -1.22979 -0.985586 0
M  V30 18829 C 1808.65 -0.964185 -2.07933 0
M  V30 18830 C 1809.66 0.0599162 -1.6269 0
M  V30 18831 O 1810.85 -0.174984 -1.7764 0
M  V30 18832 C 1807.95 -0.429879 -3.36163 0
M  V30 18833 C 1807.12 -1.51293 -4.10401 0
M  V30 18834 C 1806.18 -0.984411 -5.1691 0
M  V30 18835 O 1805.21 -1.67225 -5.44081 0
M  V30 18836 N 1806.41 0.190439 -5.80188 0
M  V30 18837 H 1809.18 -1.90582 -2.31297 0
M  V30 18838 H 1806.74 -1.13767 -1.15189 0
M  V30 18839 H 1808.73 -0.0614639 -4.04653 0
M  V30 18840 H 1807.3 0.417049 -3.09806 0
M  V30 18841 H 1806.52 -2.05434 -3.36438 0
M  V30 18842 H 1807.81 -2.24141 -4.56769 0
M  V30 18843 H 1807.2 0.765928 -5.60491 0
M  V30 18844 H 1805.76 0.500168 -6.49878 0
M  V30 18845 N 1809.19 1.18355 -1.04066 0
M  V30 18846 C 1810.42 1.92816 -0.763979 0
M  V30 18847 C 1810.84 1.75658 0.672749 0
M  V30 18848 O 1810.2 1.06671 1.46598 0
M  V30 18849 C 1810.25 3.42267 -1.13516 0
M  V30 18850 O 1809.35 4.11576 -0.260646 0
M  V30 18851 H 1808.7 0.601532 -0.281167 0
M  V30 18852 H 1811.23 1.50087 -1.3905 0
M  V30 18853 H 1811.24 3.92973 -1.09709 0
M  V30 18854 H 1809.91 3.54076 -2.18181 0
M  V30 18855 H 1808.49 3.71174 -0.358342 0
M  V30 18856 N 1810.67 0.820125 1.3458 0
M  V30 18857 C 1811.6 0.254709 2.32107 0
M  V30 18858 C 1812.58 -0.6273 1.58111 0
M  V30 18859 O 1813.77 -0.554759 1.86108 0
M  V30 18860 C 1810.9 -0.586541 3.42311 0
M  V30 18861 C 1809.85 0.198096 4.27541 0
M  V30 18862 C 1809.18 -0.765718 5.29189 0
M  V30 18863 C 1810.48 1.40472 5.03056 0
M  V30 18864 H 1812.17 1.06955 2.79644 0
M  V30 18865 H 1809.72 0.515756 1.34447 0
M  V30 18866 H 1811.67 -0.992259 4.09551 0
M  V30 18867 H 1810.4 -1.4344 2.93415 0
M  V30 18868 H 1809.05 0.585149 3.619 0
M  V30 18869 H 1808.7 -1.60946 4.76556 0
M  V30 18870 H 1808.4 -0.244954 5.87089 0
M  V30 18871 H 1809.93 -1.16935 5.99298 0
M  V30 18872 H 1811.34 1.07316 5.63166 0
M  V30 18873 H 1809.74 1.86092 5.70517 0
M  V30 18874 H 1810.81 2.18437 4.32913 0
M  V30 18875 N 1812.15 -1.46743 0.574835 0
M  V30 18876 C 1813.11 -2.28691 -0.152633 0
M  V30 18877 C 1814.11 -1.37949 -0.826238 0
M  V30 18878 O 1815.3 -1.60405 -0.679398 0
M  V30 18879 C 1812.44 -3.1812 -1.22525 0
M  V30 18880 H 1813.63 -2.94483 0.567439 0
M  V30 18881 H 1811.18 -1.52723 0.33248 0
M  V30 18882 H 1811.92 -2.57058 -1.97716 0
M  V30 18883 H 1811.7 -3.84922 -0.746841 0
M  V30 18884 H 1813.19 -3.7982 -1.7357 0
M  V30 18885 N 1813.63 -0.312197 -1.54477 0
M  V30 18886 C 1814.86 0.296061 -2.04771 0
M  V30 18887 C 1815.27 1.46662 -1.18894 0
M  V30 18888 O 1814.63 1.81205 -0.217043 0
M  V30 18889 C 1814.68 0.74151 -3.53813 0
M  V30 18890 O 1814.4 -0.382471 -4.36427 0
M  V30 18891 C 1815.9 1.41376 -4.20152 0
M  V30 18892 H 1813.12 0.062705 -0.668064 0
M  V30 18893 H 1815.67 -0.455083 -1.99372 0
M  V30 18894 H 1813.82 1.44265 -3.59536 0
M  V30 18895 H 1814.23 -0.0336382 -5.24489 0
M  V30 18896 H 1815.71 1.67649 -5.25926 0
M  V30 18897 H 1816.19 2.35743 -3.7057 0
M  V30 18898 H 1816.79 0.755498 -4.18536 0
M  V30 18899 N 1815.11 1.57549 -0.040136 0
M  V30 18900 C 1816.04 2.06413 0.973089 0
M  V30 18901 C 1817.02 0.962235 1.31072 0
M  V30 18902 O 1818.2 1.23337 1.42549 0
M  V30 18903 C 1815.33 2.49541 2.29013 0
M  V30 18904 C 1814.37 3.70858 2.10634 0
M  V30 18905 S 1815.21 5.17013 1.39493 0
M  V30 18906 C 1816.36 5.63445 2.72544 0
M  V30 18907 H 1816.6 2.92032 0.557186 0
M  V30 18908 H 1814.13 1.53441 0.171846 0
M  V30 18909 H 1816.09 2.75052 3.04723 0
M  V30 18910 H 1814.75 1.64247 2.67734 0
M  V30 18911 H 1813.94 3.98918 3.08027 0
M  V30 18912 H 1813.54 3.45555 1.43065 0
M  V30 18913 H 1815.84 5.68357 3.68749 0
M  V30 18914 H 1816.78 6.62826 2.49134 0
M  V30 18915 H 1817.19 4.91133 2.78296 0
M  V30 18916 N 1816.58 -0.233136 1.55866 0
M  V30 18917 C 1817.83 -0.957205 1.7754 0
M  V30 18918 C 1818.15 -1.85956 0.606601 0
M  V30 18919 O 1819.35 -2.62142 0.706687 0
M  V30 18920 C 1817.81 -1.75215 3.14369 0
M  V30 18921 C 1817.42 -0.896509 4.38938 0
M  V30 18922 C 1819.16 -2.46813 3.45374 0
M  V30 18923 C 1817.07 -1.68814 5.66794 0
M  V30 18924 H 1816 -0.361139 0.661887 0
M  V30 18925 H 1818.65 -0.211424 1.82278 0
M  V30 18926 H 1817.03 -2.54041 3.03775 0
M  V30 18927 H 1818.2 -0.149614 4.60557 0
M  V30 18928 H 1816.52 -0.293211 4.15366 0
M  V30 18929 H 1819.12 -3.0652 4.38121 0
M  V30 18930 H 1819.46 -3.19121 2.67334 0
M  V30 18931 H 1819.99 -1.74987 3.57245 0
M  V30 18932 H 1816.73 -1.00855 6.47695 0
M  V30 18933 H 1816.25 -2.40995 5.49255 0
M  V30 18934 H 1817.93 -2.25178 6.06551 0
M  V30 18935 N 1818.06 -1.49479 -0.499372 0
M  V30 18936 C 1819.31 -1.59284 -1.25525 0
M  V30 18937 C 1819.64 -0.27941 -1.92179 0
M  V30 18938 O 1818.92 0.717142 -1.80796 0
M  V30 18939 C 1819.2 -2.75323 -2.32098 0
M  V30 18940 C 1819.05 -4.16464 -1.69934 0
M  V30 18941 C 1820.37 -2.86998 -3.33646 0
M  V30 18942 H 1817.49 -0.579768 -0.455015 0
M  V30 18943 H 1820.13 -1.81769 -0.553165 0
M  V30 18944 H 1818.28 -2.56282 -2.91979 0
M  V30 18945 H 1819.96 -4.47026 -1.13867 0
M  V30 18946 H 1818.2 -4.22036 -1.0034 0
M  V30 18947 H 1818.87 -4.93534 -2.47242 0
M  V30 18948 H 1821.35 -3.04337 -2.83757 0
M  V30 18949 H 1820.22 -3.69865 -4.05575 0
M  V30 18950 H 1820.48 -1.96419 -3.9607 0
M  V30 18951 N 1819.54 0.750537 -1.38581 0
M  V30 18952 C 1820.79 1.50676 -1.34689 0
M  V30 18953 C 1821.11 1.94903 0.0615414 0
M  V30 18954 O 1820.38 1.67867 1.00982 0
M  V30 18955 H 1818.96 0.558914 -0.495605 0
M  V30 18956 H 1821.62 0.891979 -1.73291 0
M  V30 18957 H 1820.72 2.39623 -1.99969 0
M  V30 18958 N 1821.02 1.235 0.979051 0
M  V30 18959 C 1822.44 0.997948 1.24552 0
M  V30 18960 C 1822.64 -0.300139 1.99252 0
M  V30 18961 O 1821.69 -1.01923 2.31015 0
M  V30 18962 C 1823 2.2057 2.04375 0
M  V30 18963 C 1824.55 2.25075 2.17509 0
M  V30 18964 C 1825.03 3.45441 3.00724 0
M  V30 18965 N 1826.52 3.45688 3.08308 0
M  V30 18966 C 1827.25 4.35478 3.73024 0
M  V30 18967 N 1826.75 5.35506 4.39551 0
M  V30 18968 N 1828.54 4.23218 3.69923 0
M  V30 18969 H 1820.69 2.06936 0.478649 0
M  V30 18970 H 1822.96 0.907514 0.274083 0
M  V30 18971 H 1822.66 3.14781 1.56863 0
M  V30 18972 H 1822.54 2.21765 3.05123 0
M  V30 18973 H 1824.92 1.31403 2.64229 0
M  V30 18974 H 1825 2.27912 1.16146 0
M  V30 18975 H 1824.65 4.3942 2.547 0
M  V30 18976 H 1824.58 3.39845 4.0226 0
M  V30 18977 H 1827.07 2.73315 2.60974 0
M  V30 18978 H 1827.38 6.00274 4.86715 0
M  V30 18979 H 1825.73 5.39404 4.38256 0
M  V30 18980 H 1828.92 3.44315 3.17119 0
M  V30 18981 H 1829.09 4.93396 4.20076 0
M  V30 18982 N 1822.5 -1.17802 1.04693 0
M  V30 18983 C 1823.44 -2.21648 0.643478 0
M  V30 18984 C 1824.41 -1.6233 -0.351858 0
M  V30 18985 O 1825.6 -1.89228 -0.244414 0
M  V30 18986 C 1822.74 -3.45095 0.019145 0
M  V30 18987 C 1821.85 -4.18725 1.06271 0
M  V30 18988 C 1820.99 -5.29644 0.406224 0
M  V30 18989 C 1820.03 -5.95055 1.43444 0
M  V30 18990 N 1819.16 -6.97499 0.802482 0
M  V30 18991 H 1824 -2.55513 1.53352 0
M  V30 18992 H 1821.54 -1.25518 0.767051 0
M  V30 18993 H 1823.5 -4.15642 -0.36023 0
M  V30 18994 H 1822.13 -3.1183 -0.834386 0
M  V30 18995 H 1821.18 -3.46943 1.55996 0
M  V30 18996 H 1822.49 -4.63486 1.84342 0
M  V30 18997 H 1821.65 -6.06694 -0.027012 0
M  V30 18998 H 1820.39 -4.86003 -0.406525 0
M  V30 18999 H 1819.39 -5.1674 1.87775 0
M  V30 19000 H 1820.62 -6.40778 2.249 0
M  V30 19001 H 1818.56 -6.55999 0.010153 0
M  V30 19002 H 1818.48 -7.40545 1.52081 0
M  V30 19003 H 1819.75 -7.78504 0.393852 0
M  V30 19004 N 1823.98 -0.827251 -1.34143 0
M  V30 19005 C 1824.91 -0.267015 -2.31968 0
M  V30 19006 C 1825.89 0.618906 -1.58441 0
M  V30 19007 O 1827.07 0.544882 -1.86399 0
M  V30 19008 C 1824.2 0.568379 -3.42617 0
M  V30 19009 C 1823.16 -0.220767 -4.2743 0
M  V30 19010 C 1822.48 0.737643 -5.29587 0
M  V30 19011 C 1823.78 -1.43137 -5.02304 0
M  V30 19012 H 1825.48 -1.08436 -2.79073 0
M  V30 19013 H 1823.02 -0.522879 -1.34171 0
M  V30 19014 H 1824.97 0.970525 -4.10072 0
M  V30 19015 H 1823.7 1.41882 -2.94172 0
M  V30 19016 H 1822.36 -0.604333 -3.61585 0
M  V30 19017 H 1822.01 1.58416 -4.77403 0
M  V30 19018 H 1821.71 0.213815 -5.87211 0
M  V30 19019 H 1823.23 1.13755 -5.9991 0
M  V30 19020 H 1824.64 -1.10301 -5.62589 0
M  V30 19021 H 1823.04 -1.89115 -5.69522 0
M  V30 19022 H 1824.11 -2.2073 -4.31748 0
M  V30 19023 N 1825.45 1.46436 -0.582609 0
M  V30 19024 C 1826.42 2.28769 0.140502 0
M  V30 19025 C 1827.42 1.38385 0.818911 0
M  V30 19026 O 1828.61 1.60763 0.670882 0
M  V30 19027 C 1825.74 3.18765 1.20836 0
M  V30 19028 H 1826.93 2.94178 -0.583049 0
M  V30 19029 H 1824.48 1.52544 -0.340575 0
M  V30 19030 H 1825.22 2.58103 1.9635 0
M  V30 19031 H 1825 3.85312 0.726417 0
M  V30 19032 H 1826.49 3.80735 1.71553 0
M  V30 19033 N 1826.93 0.320385 1.54309 0
M  V30 19034 C 1827.84 -0.556017 2.27916 0
M  V30 19035 C 1828.86 -1.13192 1.32149 0
M  V30 19036 O 1830.03 -1.15257 1.6516 0
M  V30 19037 C 1827.1 -1.70244 3.02023 0
M  V30 19038 C 1826.16 -1.15866 4.13369 0
M  V30 19039 C 1825.39 -2.25044 4.83933 0
M  V30 19040 O 1825.62 -3.45327 4.53988 0
M  V30 19041 O 1824.55 -1.90642 5.70911 0
M  V30 19042 H 1828.38 0.0416563 3.03671 0
M  V30 19043 H 1825.96 0.0861809 1.49151 0
M  V30 19044 H 1827.84 -2.36995 3.48442 0
M  V30 19045 H 1826.52 -2.28635 2.29146 0
M  V30 19046 H 1825.42 -0.456323 3.71306 0
M  V30 19047 H 1826.76 -0.619916 4.88281 0
M  V30 19048 N 1828.41 -1.57525 0.0484906 0
M  V30 19049 C 1829.64 -1.96611 -0.634631 0
M  V30 19050 C 1830.05 -0.924571 -1.65071 0
M  V30 19051 O 1829.39 0.0999398 -1.83428 0
M  V30 19052 C 1829.45 -3.31924 -1.38082 0
M  V30 19053 C 1829.12 -4.54022 -0.520883 0
M  V30 19054 C 1830.11 -5.19468 0.21192 0
M  V30 19055 C 1827.8 -5.00257 -0.452595 0
M  V30 19056 C 1829.79 -6.29483 1.00148 0
M  V30 19057 C 1827.48 -6.1015 0.340652 0
M  V30 19058 C 1828.48 -6.74624 1.06638 0
M  V30 19059 O 1828.17 -7.82404 1.84659 0
M  V30 19060 H 1827.9 -0.652007 -0.178503 0
M  V30 19061 H 1830.45 -2.05103 0.110397 0
M  V30 19062 H 1828.68 -3.19979 -2.17142 0
M  V30 19063 H 1830.37 -3.55777 -1.95392 0
M  V30 19064 H 1831.14 -4.84707 0.168615 0
M  V30 19065 H 1827.02 -4.49866 -1.00706 0
M  V30 19066 H 1830.56 -6.79739 1.56844 0
M  V30 19067 H 1826.46 -6.44347 0.385605 0
M  V30 19068 H 1827.22 -7.99168 1.76842 0
M  V30 19069 N 1829.89 0.224867 -1.55988 0
M  V30 19070 C 1830.8 1.2997 -1.95307 0
M  V30 19071 C 1831.81 1.51463 -0.856444 0
M  V30 19072 O 1832.99 1.64658 -1.15973 0
M  V30 19073 C 1830.05 2.63009 -2.25892 0
M  V30 19074 C 1829.12 2.49847 -3.49106 0
M  V30 19075 C 1828.35 3.76541 -3.78223 0
M  V30 19076 O 1828.57 4.7941 -3.09066 0
M  V30 19077 O 1827.51 3.73852 -4.71718 0
M  V30 19078 H 1831.33 0.996093 -2.869 0
M  V30 19079 H 1828.92 0.427457 -1.43154 0
M  V30 19080 H 1830.8 3.41586 -2.46774 0
M  V30 19081 H 1829.47 2.93057 -1.37474 0
M  V30 19082 H 1828.38 1.69482 -3.33507 0
M  V30 19083 H 1829.71 2.24739 -4.37896 0
M  V30 19084 N 1831.37 1.49742 0.491438 0
M  V30 19085 C 1832.61 1.59395 1.24248 0
M  V30 19086 C 1832.93 0.286934 1.92877 0
M  V30 19087 O 1832.2 -0.694353 1.83182 0
M  V30 19088 H 1830.78 0.587313 0.461598 0
M  V30 19089 H 1833.45 1.86417 0.56873 0
M  V30 19090 H 1832.54 2.39487 2.00131 0
M  V30 19091 N 1832.84 -0.743177 1.38977 0
M  V30 19092 C 1834.07 -1.53753 1.39193 0
M  V30 19093 C 1834.49 -1.88095 -0.0136591 0
M  V30 19094 O 1833.85 -1.51326 -0.998508 0
M  V30 19095 C 1833.9 -2.80679 2.26389 0
M  V30 19096 O 1833 -3.76265 1.68815 0
M  V30 19097 H 1832.35 -0.464639 0.474349 0
M  V30 19098 H 1834.88 -0.917579 1.82871 0
M  V30 19099 H 1834.89 -3.29498 2.40614 0
M  V30 19100 H 1833.56 -2.55014 3.28543 0
M  V30 19101 H 1832.14 -3.35004 1.63788 0
M  V30 19102 N 1834.32 -1.24018 -0.972487 0
M  V30 19103 C 1835.6 -0.985099 -1.68983 0
M  V30 19104 C 1835.98 0.494006 -2.05238 0
M  V30 19105 O 1835.33 1.46715 -1.75177 0
M  V30 19106 C 1835.54 -1.90324 -2.92537 0
M  V30 19107 C 1836.89 -2.17134 -3.64881 0
M  V30 19108 O 1837.91 -1.87938 -3.02585 0
M  V30 19109 O 1836.77 -2.66691 -4.7701 0
M  V30 19110 H 1833.86 -0.372172 -0.738524 0
M  V30 19111 H 1836.41 -1.35095 -1.027 0
M  V30 19112 H 1835.18 -2.90278 -2.62401 0
M  V30 19113 H 1834.8 -1.54025 -3.66554 0
M  V30 19114 N 1835.8 1.17245 -1.05316 0
M  V30 19115 C 1837.05 1.87813 -0.765112 0
M  V30 19116 C 1837.38 1.80907 0.706147 0
M  V30 19117 O 1836.65 1.21793 1.51647 0
M  V30 19118 C 1836.94 3.3779 -1.24779 0
M  V30 19119 C 1836.79 3.53441 -2.78208 0
M  V30 19120 C 1838.11 4.31857 -0.847805 0
M  V30 19121 H 1835.23 0.681979 -0.279415 0
M  V30 19122 H 1837.87 1.37869 -1.30737 0
M  V30 19123 H 1836.02 3.80456 -0.786487 0
M  V30 19124 H 1837.69 3.19782 -3.32472 0
M  V30 19125 H 1835.94 2.95678 -3.17423 0
M  V30 19126 H 1836.61 4.58725 -3.07043 0
M  V30 19127 H 1839.08 3.97039 -1.24496 0
M  V30 19128 H 1837.96 5.35326 -1.21313 0
M  V30 19129 H 1838.22 4.41403 0.248104 0
M  V30 19130 N 1837.28 0.834353 1.33702 0
M  V30 19131 C 1838.51 0.440589 2.01847 0
M  V30 19132 C 1838.92 -0.961513 1.62947 0
M  V30 19133 O 1838.26 -1.63556 0.836377 0
M  V30 19134 C 1838.32 0.476396 3.5633 0
M  V30 19135 C 1837.99 1.83382 4.18593 0
M  V30 19136 C 1838.98 2.79638 4.3829 0
M  V30 19137 C 1836.67 2.12543 4.55116 0
M  V30 19138 C 1838.66 4.0322 4.93652 0
M  V30 19139 C 1836.35 3.36382 5.10187 0
M  V30 19140 C 1837.35 4.31537 5.294 0
M  V30 19141 O 1837.03 5.53187 5.833 0
M  V30 19142 H 1836.77 0.173726 0.653296 0
M  V30 19143 H 1839.32 1.1272 1.71707 0
M  V30 19144 H 1837.55 -0.266969 3.85777 0
M  V30 19145 H 1839.24 0.101088 4.05774 0
M  V30 19146 H 1840.01 2.58409 4.10427 0
M  V30 19147 H 1835.88 1.39274 4.39459 0
M  V30 19148 H 1839.43 4.77502 5.08564 0
M  V30 19149 H 1835.33 3.5747 5.3748 0
M  V30 19150 H 1836.09 5.54864 6.01721 0
M  V30 19151 N 1838.76 -1.46125 0.590367 0
M  V30 19152 C 1839.98 -2.07234 0.0828625 0
M  V30 19153 C 1840.41 -1.43498 -1.21614 0
M  V30 19154 O 1839.76 -0.521488 -1.73638 0
M  V30 19155 C 1839.81 -3.60548 -0.0614302 0
M  V30 19156 O 1838.92 -3.97012 -1.11603 0
M  V30 19157 H 1838.26 -0.660685 0.0662654 0
M  V30 19158 H 1840.79 -1.87646 0.815486 0
M  V30 19159 H 1840.8 -4.07137 -0.265161 0
M  V30 19160 H 1839.47 -4.06328 0.887164 0
M  V30 19161 H 1838.05 -3.6212 -0.890146 0
M  V30 19162 N 1840.23 -0.328564 -1.54137 0
M  V30 19163 C 1841.16 0.527734 -2.27458 0
M  V30 19164 C 1842.15 1.11518 -1.28444 0
M  V30 19165 O 1843.33 1.13938 -1.57264 0
M  V30 19166 C 1840.46 1.68628 -3.03615 0
M  V30 19167 C 1839.41 1.22789 -4.10008 0
M  V30 19168 C 1838.74 2.47378 -4.74034 0
M  V30 19169 C 1840.04 0.339152 -5.21198 0
M  V30 19170 H 1841.73 -0.0838808 -2.99282 0
M  V30 19171 H 1839.28 -0.0417829 -1.43939 0
M  V30 19172 H 1841.23 2.29165 -3.5364 0
M  V30 19173 H 1839.96 2.32456 -2.29416 0
M  V30 19174 H 1838.62 0.645427 -3.60874 0
M  V30 19175 H 1838.26 3.09581 -3.96445 0
M  V30 19176 H 1837.96 2.17396 -5.45905 0
M  V30 19177 H 1839.49 3.08668 -5.26836 0
M  V30 19178 H 1840.9 0.850947 -5.6695 0
M  V30 19179 H 1839.3 0.131892 -5.99955 0
M  V30 19180 H 1840.37 -0.628692 -4.80807 0
M  V30 19181 N 1841.71 1.57497 -0.0568439 0
M  V30 19182 C 1843.12 1.80477 0.478027 0
M  V30 19183 C 1843.47 0.969549 1.7057 0
M  V30 19184 O 1842.6 0.187756 2.15584 0
M  V30 19185 C 1843.19 3.27332 0.874013 0
M  V30 19186 C 1841.75 3.5121 1.35383 0
M  V30 19187 C 1840.9 2.75308 0.331752 0
M  V30 19188 H 1843.85 1.56162 -0.282678 0
M  V30 19189 H 1843.87 3.38563 1.73653 0
M  V30 19190 H 1843.38 3.88095 -0.019701 0
M  V30 19191 H 1841.49 2.95734 2.26655 0
M  V30 19192 H 1841.6 4.59919 1.34208 0
M  V30 19193 H 1839.96 2.41616 0.805851 0
M  V30 19194 H 1840.75 3.38801 -0.553975 0
M  V30 19195 N 1843.19 -0.216591 1.56105 0
M  V30 19196 C 1844.6 -0.783161 1.6948 0
M  V30 19197 C 1844.95 -1.84776 0.659716 0
M  V30 19198 O 1844.08 -2.1558 -0.188184 0
M  V30 19199 C 1844.67 -1.42733 3.07267 0
M  V30 19200 C 1843.23 -1.94123 3.2248 0
M  V30 19201 C 1842.38 -0.803216 2.65412 0
M  V30 19202 H 1845.33 0.00814542 1.58698 0
M  V30 19203 H 1845.35 -2.29627 3.034 0
M  V30 19204 H 1844.86 -0.652264 3.8258 0
M  V30 19205 H 1842.96 -2.74416 2.52045 0
M  V30 19206 H 1843.08 -2.1178 4.29751 0
M  V30 19207 H 1841.44 -1.21185 2.24023 0
M  V30 19208 H 1842.22 -0.0407398 3.43276 0
M  V30 19209 N 1844.67 -1.5 -0.48349 0
M  V30 19210 C 1845.95 -1.50879 -1.24478 0
M  V30 19211 C 1846.33 -0.246393 -2.09657 0
M  V30 19212 O 1845.67 0.77066 -2.15112 0
M  V30 19213 C 1845.88 -2.79762 -2.08648 0
M  V30 19214 C 1847.23 -3.29941 -2.67253 0
M  V30 19215 O 1848.26 -2.80999 -2.18901 0
M  V30 19216 O 1847.11 -4.15224 -3.55319 0
M  V30 19217 H 1844.21 -0.604649 -0.564206 0
M  V30 19218 H 1846.75 -1.6228 -0.496325 0
M  V30 19219 H 1845.53 -3.63123 -1.45799 0
M  V30 19220 H 1845.15 -2.71306 -2.90652 0
M  V30 19221 N 1846.15 0.735796 -1.39369 0
M  V30 19222 C 1847.56 1.31402 -1.32628 0
M  V30 19223 C 1847.91 1.96198 0.00972836 0
M  V30 19224 O 1847.03 1.9625 0.91185 0
M  V30 19225 C 1847.63 2.38934 -2.402 0
M  V30 19226 C 1846.19 2.92432 -2.36982 0
M  V30 19227 C 1845.33 1.65992 -2.2213 0
M  V30 19228 H 1848.29 0.533364 -1.49469 0
M  V30 19229 H 1848.31 3.19304 -2.06942 0
M  V30 19230 H 1847.82 1.91745 -3.37425 0
M  V30 19231 H 1845.92 3.43903 -1.43394 0
M  V30 19232 H 1846.03 3.456 -3.31809 0
M  V30 19233 H 1844.4 1.90298 -1.69289 0
M  V30 19234 H 1845.18 1.20857 -3.21323 0
M  V30 19235 N 1847.63 1.24532 0.965897 0
M  V30 19236 C 1848.9 0.994047 1.68458 0
M  V30 19237 C 1849.28 -0.483115 2.05497 0
M  V30 19238 O 1848.63 -1.45784 1.75953 0
M  V30 19239 C 1848.84 1.91872 2.91524 0
M  V30 19240 C 1850.19 2.19066 3.63724 0
M  V30 19241 O 1851.21 1.8954 3.01584 0
M  V30 19242 O 1850.07 2.69217 4.75589 0
M  V30 19243 H 1847.17 0.376083 0.73654 0
M  V30 19244 H 1849.71 1.35638 1.01982 0
M  V30 19245 H 1848.48 2.91665 2.60858 0
M  V30 19246 H 1848.11 1.55966 3.65732 0
M  V30 19247 N 1849.1 -1.16685 1.05936 0
M  V30 19248 C 1850.05 -2.18921 0.636999 0
M  V30 19249 C 1851.04 -1.5747 -0.330447 0
M  V30 19250 O 1852.23 -1.76393 -0.146469 0
M  V30 19251 C 1849.36 -3.43293 0.0211274 0
M  V30 19252 C 1848.44 -4.11828 1.01285 0
M  V30 19253 N 1848.84 -4.5607 2.18709 0
M  V30 19254 C 1847.13 -4.37961 0.842986 0
M  V30 19255 C 1847.83 -5.09046 2.81509 0
M  V30 19256 N 1846.81 -5.01709 2.09259 0
M  V30 19257 H 1850.61 -2.5084 1.53155 0
M  V30 19258 H 1848.13 -1.33096 0.930542 0
M  V30 19259 H 1850.12 -4.15824 -0.299267 0
M  V30 19260 H 1848.78 -3.12863 -0.868723 0
M  V30 19261 H 1849.79 -4.49918 2.56504 0
M  V30 19262 H 1846.47 -4.175 0.00481897 0
M  V30 19263 H 1847.86 -5.53344 3.81131 0
M  V30 19264 N 1850.58 -0.841432 -1.33258 0
M  V30 19265 C 1851.83 -0.438378 -1.97698 0
M  V30 19266 C 1852.16 1.00298 -1.66645 0
M  V30 19267 O 1851.41 1.71648 -0.939965 0
M  V30 19268 C 1851.71 -0.608921 -3.52175 0
M  V30 19269 C 1851.38 -2.01876 -4.03184 0
M  V30 19270 C 1850.04 -2.40438 -4.16825 0
M  V30 19271 C 1852.39 -2.93952 -4.30397 0
M  V30 19272 C 1849.72 -3.70376 -4.55015 0
M  V30 19273 C 1852.07 -4.23373 -4.7004 0
M  V30 19274 C 1850.73 -4.61888 -4.81888 0
M  V30 19275 H 1850 -0.160414 -0.723428 0
M  V30 19276 H 1852.65 -1.06895 -1.58889 0
M  V30 19277 H 1850.96 0.104948 -3.91659 0
M  V30 19278 H 1852.65 -0.277313 -4.0004 0
M  V30 19279 H 1849.24 -1.70927 -3.93042 0
M  V30 19280 H 1853.43 -2.65396 -4.19379 0
M  V30 19281 H 1848.68 -4.00018 -4.62381 0
M  V30 19282 H 1852.86 -4.94793 -4.90054 0
M  V30 19283 H 1850.48 -5.6262 -5.11237 0
M  V30 19284 N 1852.06 1.4581 -0.598108 0
M  V30 19285 C 1853.34 1.95588 -0.0220376 0
M  V30 19286 C 1853.72 1.54066 1.44316 0
M  V30 19287 O 1853.06 0.798663 2.14088 0
M  V30 19288 C 1853.27 3.48366 -0.210204 0
M  V30 19289 C 1854.62 4.24513 -0.0860474 0
M  V30 19290 O 1855.65 3.55925 -0.139833 0
M  V30 19291 O 1854.51 5.46488 0.0367961 0
M  V30 19292 H 1851.6 0.825977 0.0411123 0
M  V30 19293 H 1854.15 1.56021 -0.667506 0
M  V30 19294 H 1852.92 3.71526 -1.22818 0
M  V30 19295 H 1852.54 3.94801 0.470974 0
M  V30 19296 N 1853.54 0.336733 1.53961 0
M  V30 19297 C 1854.79 -0.261343 2.00403 0
M  V30 19298 C 1855.11 -1.51612 1.22633 0
M  V30 19299 O 1854.38 -1.93072 0.331659 0
M  V30 19300 H 1852.96 -0.0995594 0.740336 0
M  V30 19301 H 1855.62 0.456319 1.89483 0
M  V30 19302 H 1854.71 -0.508557 3.07929 0
M  V30 19303 N 1855.02 -1.57465 0.0651956 0
M  V30 19304 C 1856.25 -1.97273 -0.613742 0
M  V30 19305 C 1856.65 -0.942027 -1.64081 0
M  V30 19306 O 1856 0.0804791 -1.83524 0
M  V30 19307 C 1856.06 -3.3337 -1.34554 0
M  V30 19308 C 1855.72 -4.54549 -0.472698 0
M  V30 19309 C 1856.72 -5.19214 0.267005 0
M  V30 19310 C 1854.4 -5.00709 -0.399511 0
M  V30 19311 C 1856.4 -6.28386 1.06819 0
M  V30 19312 C 1854.09 -6.09754 0.405348 0
M  V30 19313 C 1855.08 -6.73455 1.13787 0
M  V30 19314 O 1854.77 -7.80402 1.92947 0
M  V30 19315 H 1854.5 -0.653863 -0.171578 0
M  V30 19316 H 1857.06 -2.04974 0.132144 0
M  V30 19317 H 1855.29 -3.22264 -2.13735 0
M  V30 19318 H 1856.98 -3.57829 -1.91607 0
M  V30 19319 H 1857.74 -4.84501 0.220015 0
M  V30 19320 H 1853.62 -4.50909 -0.959289 0
M  V30 19321 H 1857.17 -6.78038 1.64045 0
M  V30 19322 H 1853.06 -6.43902 0.453925 0
M  V30 19323 H 1853.83 -7.97247 1.85308 0
M  V30 19324 N 1856.49 0.20831 -1.56217 0
M  V30 19325 C 1857.43 1.28196 -1.89996 0
M  V30 19326 C 1858.44 1.42381 -0.789394 0
M  V30 19327 O 1859.63 1.43043 -1.06776 0
M  V30 19328 C 1856.73 2.65588 -2.10514 0
M  V30 19329 C 1855.9 2.73181 -3.416 0
M  V30 19330 C 1854.96 3.91678 -3.5139 0
M  V30 19331 O 1853.99 3.79397 -4.24319 0
M  V30 19332 N 1855.19 5.06562 -2.83505 0
M  V30 19333 H 1857.95 0.995403 -2.82687 0
M  V30 19334 H 1855.51 0.398294 -1.56924 0
M  V30 19335 H 1857.51 3.43264 -2.14365 0
M  V30 19336 H 1856.08 2.86788 -1.24385 0
M  V30 19337 H 1855.3 1.81881 -3.49733 0
M  V30 19338 H 1856.58 2.75234 -4.27929 0
M  V30 19339 H 1855.98 5.19437 -2.24056 0
M  V30 19340 H 1854.54 5.82232 -2.93 0
M  V30 19341 N 1857.97 1.50255 0.475528 0
M  V30 19342 C 1858.9 1.64942 1.59144 0
M  V30 19343 C 1859.92 0.531065 1.53895 0
M  V30 19344 O 1861.11 0.804084 1.59364 0
M  V30 19345 C 1858.21 1.61372 2.98014 0
M  V30 19346 C 1857.38 2.89167 3.28179 0
M  V30 19347 C 1856.44 2.783 4.46582 0
M  V30 19348 O 1855.46 3.52254 4.47108 0
M  V30 19349 N 1856.67 1.91557 5.47984 0
M  V30 19350 H 1859.43 2.61194 1.46962 0
M  V30 19351 H 1856.99 1.47663 0.663869 0
M  V30 19352 H 1858.98 1.51722 3.75183 0
M  V30 19353 H 1857.55 0.728744 3.03987 0
M  V30 19354 H 1856.77 3.12977 2.39664 0
M  V30 19355 H 1858.06 3.73838 3.45142 0
M  V30 19356 H 1857.46 1.30778 5.50376 0
M  V30 19357 H 1856.02 1.87813 6.24155 0
M  V30 19358 N 1859.45 -0.728395 1.39758 0
M  V30 19359 C 1860.38 -1.85288 1.34911 0
M  V30 19360 C 1861.39 -1.60763 0.25671 0
M  V30 19361 O 1862.58 -1.70875 0.516143 0
M  V30 19362 C 1859.68 -3.21445 1.07361 0
M  V30 19363 C 1858.86 -3.73272 2.28006 0
M  V30 19364 C 1857.92 -4.88008 1.96812 0
M  V30 19365 O 1856.94 -5.01325 2.69559 0
M  V30 19366 N 1858.14 -5.72867 0.938278 0
M  V30 19367 H 1860.91 -1.89949 2.31818 0
M  V30 19368 H 1858.47 -0.909409 1.33945 0
M  V30 19369 H 1860.46 -3.9578 0.845002 0
M  V30 19370 H 1859.03 -3.12012 0.191644 0
M  V30 19371 H 1858.25 -2.90214 2.66777 0
M  V30 19372 H 1859.54 -4.04633 3.08463 0
M  V30 19373 H 1858.94 -5.64704 0.335517 0
M  V30 19374 H 1857.49 -6.47241 0.769572 0
M  V30 19375 N 1860.93 -1.25042 -0.959279 0
M  V30 19376 C 1861.89 -1.05107 -2.03679 0
M  V30 19377 C 1862.89 -0.0054691 -1.60799 0
M  V30 19378 O 1864.08 -0.247225 -1.72437 0
M  V30 19379 C 1861.21 -0.594881 -3.35669 0
M  V30 19380 H 1862.41 -2.00753 -2.22796 0
M  V30 19381 H 1859.96 -1.07384 -1.13571 0
M  V30 19382 H 1860.69 0.364387 -3.22246 0
M  V30 19383 H 1860.48 -1.34966 -3.68139 0
M  V30 19384 H 1861.97 -0.476698 -4.1487 0
M  V30 19385 N 1862.41 1.16121 -1.06553 0
M  V30 19386 C 1863.65 1.86991 -0.784989 0
M  V30 19387 C 1863.99 1.81645 0.686919 0
M  V30 19388 O 1863.26 1.23394 1.50347 0
M  V30 19389 C 1863.54 3.36448 -1.28355 0
M  V30 19390 C 1863.4 3.5047 -2.81941 0
M  V30 19391 C 1864.72 4.30933 -0.893561 0
M  V30 19392 H 1861.83 0.678978 -0.286633 0
M  V30 19393 H 1864.48 1.36475 -1.32192 0
M  V30 19394 H 1862.63 3.796 -0.826796 0
M  V30 19395 H 1864.3 3.16237 -3.35845 0
M  V30 19396 H 1862.54 2.92294 -3.20541 0
M  V30 19397 H 1863.21 4.55443 -3.11891 0
M  V30 19398 H 1865.69 3.95696 -1.287 0
M  V30 19399 H 1864.56 5.3401 -1.26984 0
M  V30 19400 H 1864.83 4.41642 0.201274 0
M  V30 19401 N 1863.88 0.848487 1.3281 0
M  V30 19402 C 1865.13 0.449521 1.97755 0
M  V30 19403 C 1865.46 -0.990923 1.67016 0
M  V30 19404 O 1864.74 -1.69434 0.955119 0
M  V30 19405 C 1865.02 0.681898 3.53585 0
M  V30 19406 C 1864.87 2.17031 3.93976 0
M  V30 19407 C 1866.19 0.134271 4.39895 0
M  V30 19408 H 1863.31 0.164799 0.718339 0
M  V30 19409 H 1865.95 1.06578 1.57293 0
M  V30 19410 H 1864.1 0.157353 3.88181 0
M  V30 19411 H 1865.78 2.76046 3.69589 0
M  V30 19412 H 1864.02 2.65117 3.43359 0
M  V30 19413 H 1864.69 2.28362 5.02548 0
M  V30 19414 H 1867.17 0.582756 4.11999 0
M  V30 19415 H 1866.04 0.326479 5.47928 0
M  V30 19416 H 1866.3 -0.962576 4.31494 0
M  V30 19417 N 1865.36 -1.4549 0.605832 0
M  V30 19418 C 1866.61 -2.02551 0.100487 0
M  V30 19419 C 1866.94 -1.47346 -1.26502 0
M  V30 19420 O 1866.22 -0.647471 -1.83407 0
M  V30 19421 C 1866.5 -3.60051 0.0596664 0
M  V30 19422 C 1866.35 -4.25592 1.45572 0
M  V30 19423 C 1867.67 -4.35581 -0.629073 0
M  V30 19424 H 1864.79 -0.73602 0.0379904 0
M  V30 19425 H 1867.43 -1.73365 0.777468 0
M  V30 19426 H 1865.58 -3.85047 -0.516838 0
M  V30 19427 H 1867.25 -4.11787 2.07916 0
M  V30 19428 H 1865.5 -3.84061 2.01692 0
M  V30 19429 H 1866.17 -5.34487 1.37941 0
M  V30 19430 H 1868.64 -4.15868 -0.139076 0
M  V30 19431 H 1867.52 -5.4531 -0.626735 0
M  V30 19432 H 1867.78 -4.08323 -1.69483 0
M  V30 19433 N 1866.84 -0.344893 -1.5378 0
M  V30 19434 C 1867.77 0.55434 -2.21365 0
M  V30 19435 C 1868.75 1.09924 -1.19814 0
M  V30 19436 O 1869.94 1.15926 -1.48639 0
M  V30 19437 C 1867.06 1.76275 -2.89214 0
M  V30 19438 C 1866.11 1.34719 -4.04664 0
M  V30 19439 S 1866.94 0.365855 -5.34249 0
M  V30 19440 C 1868.1 1.58107 -6.05601 0
M  V30 19441 H 1868.33 -0.0197004 -2.97293 0
M  V30 19442 H 1865.86 -0.128969 -1.5386 0
M  V30 19443 H 1867.82 2.45601 -3.28923 0
M  V30 19444 H 1866.48 2.30801 -2.13049 0
M  V30 19445 H 1865.68 2.24821 -4.51078 0
M  V30 19446 H 1865.28 0.733393 -3.66739 0
M  V30 19447 H 1867.57 2.51534 -6.29076 0
M  V30 19448 H 1868.51 1.15869 -6.98556 0
M  V30 19449 H 1868.92 1.77773 -5.35777 0
M  V30 19450 N 1868.32 1.57428 -0.0735454 0
M  V30 19451 C 1869.6 1.84962 0.636265 0
M  V30 19452 C 1869.98 0.966341 1.87683 0
M  V30 19453 O 1869.32 0.0330837 2.28476 0
M  V30 19454 C 1869.53 3.35184 0.972251 0
M  V30 19455 C 1870.88 4.02735 1.34499 0
M  V30 19456 O 1871.91 3.3994 1.06393 0
M  V30 19457 O 1870.76 5.13495 1.87043 0
M  V30 19458 H 1867.86 0.764169 0.316187 0
M  V30 19459 H 1870.4 1.69377 -0.104609 0
M  V30 19460 H 1869.18 3.91194 0.0912319 0
M  V30 19461 H 1868.8 3.56038 1.76983 0
M  V30 19462 N 1869.8 -0.200022 1.56326 0
M  V30 19463 C 1871.07 -0.946774 1.71159 0
M  V30 19464 C 1871.45 -2.01576 0.626939 0
M  V30 19465 O 1870.8 -2.25601 -0.362834 0
M  V30 19466 C 1871.01 -1.53767 3.13299 0
M  V30 19467 C 1872.36 -2.02169 3.7338 0
M  V30 19468 O 1873.38 -1.6362 3.16397 0
M  V30 19469 O 1872.24 -2.7309 4.73375 0
M  V30 19470 H 1869.34 -0.443669 0.697916 0
M  V30 19471 H 1871.88 -0.190107 1.68632 0
M  V30 19472 H 1870.65 -0.766886 3.83712 0
M  V30 19473 H 1870.28 -2.35931 3.20035 0
M  V30 19474 N 1871.27 -1.50505 -0.467553 0
M  V30 19475 C 1872.2 -1.72558 -1.57309 0
M  V30 19476 C 1873.19 -0.574619 -1.601 0
M  V30 19477 O 1874.37 -0.814135 -1.76311 0
M  V30 19478 C 1871.5 -1.82296 -2.9561 0
M  V30 19479 C 1870.45 -2.97513 -3.07685 0
M  V30 19480 C 1869.78 -2.92398 -4.47669 0
M  V30 19481 C 1871.08 -4.37968 -2.84573 0
M  V30 19482 H 1872.77 -2.65122 -1.39107 0
M  V30 19483 H 1870.32 -1.2758 -0.667776 0
M  V30 19484 H 1872.27 -1.96308 -3.72882 0
M  V30 19485 H 1871 -0.863562 -3.14976 0
M  V30 19486 H 1869.66 -2.83157 -2.32847 0
M  V30 19487 H 1869.3 -1.94297 -4.63959 0
M  V30 19488 H 1869 -3.69749 -4.56683 0
M  V30 19489 H 1870.53 -3.08464 -5.26956 0
M  V30 19490 H 1871.94 -4.52831 -3.51593 0
M  V30 19491 H 1870.34 -5.16796 -3.05028 0
M  V30 19492 H 1871.41 -4.50093 -1.80402 0
M  V30 19493 N 1872.75 0.720973 -1.40142 0
M  V30 19494 C 1873.68 1.84799 -1.42729 0
M  V30 19495 C 1874.66 1.67629 -0.288866 0
M  V30 19496 O 1875.85 1.8774 -0.496713 0
M  V30 19497 C 1872.98 3.22699 -1.28385 0
M  V30 19498 C 1871.93 3.54532 -2.39773 0
M  V30 19499 C 1871.26 4.91518 -2.10509 0
M  V30 19500 C 1872.56 3.56077 -3.82108 0
M  V30 19501 H 1874.25 1.82892 -2.37046 0
M  V30 19502 H 1871.8 0.8785 -1.14098 0
M  V30 19503 H 1873.75 4.0123 -1.28812 0
M  V30 19504 H 1872.48 3.25169 -0.305408 0
M  V30 19505 H 1871.13 2.78338 -2.38586 0
M  V30 19506 H 1870.78 4.90584 -1.11069 0
M  V30 19507 H 1870.48 5.13783 -2.85132 0
M  V30 19508 H 1872.01 5.72389 -2.1261 0
M  V30 19509 H 1873.42 4.24657 -3.85148 0
M  V30 19510 H 1871.82 3.89866 -4.56207 0
M  V30 19511 H 1872.89 2.55576 -4.12079 0
M  V30 19512 N 1874.23 1.25549 0.952634 0
M  V30 19513 C 1875.16 1.01898 2.05304 0
M  V30 19514 C 1876.18 -0.0167609 1.62791 0
M  V30 19515 O 1877.36 0.222021 1.77114 0
M  V30 19516 C 1874.46 0.518856 3.34905 0
M  V30 19517 C 1873.64 1.62121 4.06246 0
M  V30 19518 C 1872.7 1.12111 5.14118 0
M  V30 19519 O 1871.72 1.81591 5.39456 0
M  V30 19520 N 1872.92 -0.0365454 5.80488 0
M  V30 19521 H 1875.69 1.96648 2.26163 0
M  V30 19522 H 1873.25 1.16782 1.12132 0
M  V30 19523 H 1875.24 0.168729 4.04348 0
M  V30 19524 H 1873.81 -0.334763 3.10802 0
M  V30 19525 H 1873.03 2.14282 3.30873 0
M  V30 19526 H 1874.32 2.36173 4.50666 0
M  V30 19527 H 1873.72 -0.617055 5.62325 0
M  V30 19528 H 1872.28 -0.327688 6.50976 0
M  V30 19529 N 1875.71 -1.15554 1.07168 0
M  V30 19530 C 1876.66 -2.22296 0.684626 0
M  V30 19531 C 1877.65 -1.66656 -0.303675 0
M  V30 19532 O 1878.86 -1.79218 -0.167588 0
M  V30 19533 H 1875.23 -0.723996 0.203306 0
M  V30 19534 H 1877.2 -2.52223 1.59456 0
M  V30 19535 C 1875.95 -3.47566 0.0965118 0
M  V30 19536 H 1875.27 -3.90701 0.848122 0
M  V30 19537 H 1876.71 -4.2378 -0.136671 0
M  V30 19538 C 1875.17 -3.16215 -1.16231 0
M  V30 19539 O 1875.7 -3.32838 -2.24903 0
M  V30 19540 N 1873.91 -2.70273 -1.06774 0
M  V30 19541 H 1873.46 -2.56947 -0.183357 0
M  V30 19542 H 1873.41 -2.49671 -1.9108 0
M  V30 19543 N 1877.19 -0.855519 -1.32358 0
M  V30 19544 C 1878.6 -0.513833 -1.7949 0
M  V30 19545 C 1878.95 0.968373 -1.70637 0
M  V30 19546 O 1878.07 1.75541 -1.26547 0
M  V30 19547 C 1878.67 -0.925925 -3.25902 0
M  V30 19548 C 1877.23 -0.636124 -3.70986 0
M  V30 19549 C 1876.38 -1.12519 -2.53446 0
M  V30 19550 H 1879.33 -1.04264 -1.19644 0
M  V30 19551 H 1879.35 -0.242659 -3.79725 0
M  V30 19552 H 1878.86 -2.00473 -3.32313 0
M  V30 19553 H 1876.96 0.431924 -3.70088 0
M  V30 19554 H 1877.07 -1.20302 -4.6375 0
M  V30 19555 H 1875.44 -0.545429 -2.48791 0
M  V30 19556 H 1876.22 -2.21112 -2.62611 0
M  V30 19557 N 1878.67 1.45167 -0.61354 0
M  V30 19558 C 1879.94 1.95553 -0.042781 0
M  V30 19559 C 1880.32 1.55588 1.42673 0
M  V30 19560 O 1879.67 0.821325 2.13229 0
M  V30 19561 C 1879.88 3.48124 -0.247141 0
M  V30 19562 C 1881.23 4.24398 -0.131068 0
M  V30 19563 O 1882.25 3.55757 -0.177576 0
M  V30 19564 O 1881.11 5.46496 -0.0211683 0
M  V30 19565 H 1878.21 0.826367 0.0323494 0
M  V30 19566 H 1880.75 1.55304 -0.684017 0
M  V30 19567 H 1879.52 3.70202 -1.26751 0
M  V30 19568 H 1879.15 3.95278 0.429074 0
M  V30 19569 N 1880.14 0.353044 1.53595 0
M  V30 19570 C 1881.39 -0.240073 2.00669 0
M  V30 19571 C 1881.71 -1.50303 1.24234 0
M  V30 19572 O 1880.98 -1.92709 0.352118 0
M  V30 19573 H 1879.56 -0.0917016 0.74135 0
M  V30 19574 H 1882.22 0.47639 1.88988 0
M  V30 19575 H 1881.32 -0.475869 3.08451 0
M  V30 19576 N 1881.62 -1.57387 0.0818932 0
M  V30 19577 C 1882.57 -2.13292 -0.881772 0
M  V30 19578 C 1883.54 -1.04801 -1.28864 0
M  V30 19579 O 1884.72 -1.32519 -1.37272 0
M  V30 19580 C 1881.86 -2.70708 -2.14035 0
M  V30 19581 C 1880.98 -3.93388 -1.78522 0
M  V30 19582 C 1880.11 -4.39013 -2.99067 0
M  V30 19583 C 1879.15 -5.54315 -2.59617 0
M  V30 19584 N 1878.29 -5.94853 -3.72954 0
M  V30 19585 H 1883.13 -2.95328 -0.398167 0
M  V30 19586 H 1880.66 -1.45934 -0.184876 0
M  V30 19587 H 1882.62 -3.0211 -2.87724 0
M  V30 19588 H 1881.25 -1.91421 -2.59919 0
M  V30 19589 H 1880.3 -3.68384 -0.948546 0
M  V30 19590 H 1881.62 -4.77106 -1.45505 0
M  V30 19591 H 1880.77 -4.72129 -3.81023 0
M  V30 19592 H 1879.51 -3.54169 -3.35284 0
M  V30 19593 H 1878.51 -5.2084 -1.76084 0
M  V30 19594 H 1879.74 -6.40898 -2.24558 0
M  V30 19595 H 1877.69 -5.12957 -4.08915 0
M  V30 19596 H 1877.6 -6.73335 -3.43739 0
M  V30 19597 H 1878.87 -6.32595 -4.5546 0
M  V30 19598 N 1883.1 0.191729 -1.56429 0
M  V30 19599 C 1884.38 0.937684 -1.71659 0
M  V30 19600 C 1884.76 2.0124 -0.63762 0
M  V30 19601 O 1884.1 2.2579 0.350865 0
M  V30 19602 C 1884.31 1.52104 -3.14111 0
M  V30 19603 C 1885.66 2.00186 -3.74447 0
M  V30 19604 O 1886.69 1.61939 -3.1726 0
M  V30 19605 O 1885.55 2.70576 -4.74817 0
M  V30 19606 H 1882.64 0.439962 -0.700259 0
M  V30 19607 H 1885.19 0.181161 -1.6873 0
M  V30 19608 H 1883.96 0.746526 -3.84113 0
M  V30 19609 H 1883.58 2.3423 -3.21282 0
M  V30 19610 N 1884.58 1.50751 0.459565 0
M  V30 19611 C 1885.51 1.65108 1.57526 0
M  V30 19612 C 1886.49 0.498959 1.54755 0
M  V30 19613 O 1887.67 0.719958 1.74209 0
M  V30 19614 C 1884.8 1.64427 2.96111 0
M  V30 19615 C 1883.85 2.85339 3.16992 0
M  V30 19616 S 1884.68 4.46482 2.95659 0
M  V30 19617 C 1885.83 4.48511 4.36565 0
M  V30 19618 H 1886.07 2.59481 1.45109 0
M  V30 19619 H 1883.6 1.40157 0.647718 0
M  V30 19620 H 1885.56 1.64718 3.76003 0
M  V30 19621 H 1884.22 0.712698 3.05908 0
M  V30 19622 H 1883.41 2.81199 4.18262 0
M  V30 19623 H 1883.01 2.82674 2.4489 0
M  V30 19624 H 1885.31 4.22783 5.29396 0
M  V30 19625 H 1886.25 5.50198 4.45744 0
M  V30 19626 H 1886.66 3.78084 4.19181 0
M  V30 19627 N 1886.06 -0.713531 1.40522 0
M  V30 19628 C 1887.28 -1.5026 1.4223 0
M  V30 19629 C 1887.7 -1.88787 0.0225637 0
M  V30 19630 O 1887.06 -1.55581 -0.95398 0
M  V30 19631 C 1887.11 -2.77663 2.31486 0
M  V30 19632 O 1886.83 -2.40765 3.66011 0
M  V30 19633 C 1888.33 -3.71543 2.41807 0
M  V30 19634 H 1885.55 -0.463648 0.485048 0
M  V30 19635 H 1888.09 -0.88 1.84598 0
M  V30 19636 H 1886.25 -3.36203 1.92475 0
M  V30 19637 H 1886.66 -3.22757 4.13434 0
M  V30 19638 H 1888.14 -4.57771 3.08464 0
M  V30 19639 H 1888.61 -4.14792 1.44375 0
M  V30 19640 H 1889.22 -3.18914 2.81379 0
M  V30 19641 N 1887.53 -1.26053 -0.945962 0
M  V30 19642 C 1888.46 -1.09687 -2.06134 0
M  V30 19643 C 1889.44 -0.00341513 -1.701 0
M  V30 19644 O 1890.63 -0.174559 -1.93414 0
M  V30 19645 C 1887.76 -0.724007 -3.3967 0
M  V30 19646 C 1886.71 -1.76866 -3.89747 0
M  V30 19647 C 1886.04 -1.25025 -5.19878 0
M  V30 19648 C 1887.34 -3.16923 -4.15159 0
M  V30 19649 H 1889.03 -2.02986 -2.20084 0
M  V30 19650 H 1886.58 -0.977346 -1.05754 0
M  V30 19651 H 1888.53 -0.596411 -4.17158 0
M  V30 19652 H 1887.26 0.244695 -3.25682 0
M  V30 19653 H 1885.92 -1.88485 -3.14435 0
M  V30 19654 H 1885.56 -0.271527 -5.02267 0
M  V30 19655 H 1885.26 -1.94853 -5.54352 0
M  V30 19656 H 1886.79 -1.13523 -5.99954 0
M  V30 19657 H 1888.2 -3.08409 -4.83277 0
M  V30 19658 H 1886.6 -3.84299 -4.60906 0
M  V30 19659 H 1887.67 -3.63337 -3.21114 0
M  V30 19660 N 1889.01 1.14984 -1.07779 0
M  V30 19661 C 1890.26 1.85873 -0.803587 0
M  V30 19662 C 1890.59 1.82579 0.670472 0
M  V30 19663 O 1889.84 1.247 1.50826 0
M  V30 19664 C 1890.14 3.34355 -1.26259 0
M  V30 19665 C 1889.81 3.57842 -2.74335 0
M  V30 19666 C 1888.47 3.63961 -3.14779 0
M  V30 19667 C 1890.82 3.67191 -3.69893 0
M  V30 19668 C 1888.15 3.76944 -4.49589 0
M  V30 19669 C 1890.5 3.81698 -5.04469 0
M  V30 19670 C 1889.16 3.86064 -5.44528 0
M  V30 19671 H 1888.43 0.680157 -0.294053 0
M  V30 19672 H 1891.08 1.35862 -1.34959 0
M  V30 19673 H 1889.39 3.86603 -0.636057 0
M  V30 19674 H 1891.08 3.87619 -1.02727 0
M  V30 19675 H 1887.67 3.53723 -2.42028 0
M  V30 19676 H 1891.86 3.61759 -3.3977 0
M  V30 19677 H 1887.11 3.78583 -4.80088 0
M  V30 19678 H 1891.29 3.87873 -5.78383 0
M  V30 19679 H 1888.91 3.95876 -6.48989 0
M  V30 19680 N 1890.49 0.862526 1.31902 0
M  V30 19681 C 1891.73 0.47617 1.98776 0
M  V30 19682 C 1892.09 -0.952142 1.66728 0
M  V30 19683 O 1893.29 -1.44346 2.26754 0
M  V30 19684 C 1891.57 0.71747 3.50124 0
M  V30 19685 S 1893.12 0.429862 4.36689 0
M  V30 19686 H 1889.94 0.178053 0.688344 0
M  V30 19687 H 1892.54 1.11694 1.60451 0
M  V30 19688 H 1891.25 1.75592 3.70939 0
M  V30 19689 H 1890.78 0.0634148 3.93349 0
M  V30 19690 H 1892.79 -0.740921 4.90637 0
M  V30 19691 N 1891.97 -1.4484 0.62123 0
M  V30 19692 C 1892.9 -2.28843 -0.127881 0
M  V30 19693 C 1893.91 -1.40726 -0.818542 0
M  V30 19694 O 1895.1 -1.64972 -0.681645 0
M  V30 19695 C 1892.2 -3.16837 -1.20281 0
M  V30 19696 C 1891.38 -4.33312 -0.5966 0
M  V30 19697 C 1890.43 -5.02414 -1.56419 0
M  V30 19698 O 1889.46 -5.5876 -1.08517 0
M  V30 19699 N 1890.66 -5.02953 -2.8986 0
M  V30 19700 H 1893.43 -2.93775 0.592994 0
M  V30 19701 H 1890.99 -1.55178 0.461679 0
M  V30 19702 H 1892.98 -3.59929 -1.85021 0
M  V30 19703 H 1891.55 -2.53722 -1.82603 0
M  V30 19704 H 1890.77 -3.93533 0.229203 0
M  V30 19705 H 1892.06 -5.08509 -0.17206 0
M  V30 19706 H 1891.46 -4.58489 -3.31367 0
M  V30 19707 H 1890.01 -5.49866 -3.49987 0
M  V30 19708 N 1893.45 -0.361184 -1.53405 0
M  V30 19709 C 1894.38 0.530831 -2.2194 0
M  V30 19710 C 1895.36 1.08647 -1.20974 0
M  V30 19711 O 1896.54 1.14343 -1.4986 0
M  V30 19712 C 1893.67 1.73198 -2.91067 0
M  V30 19713 C 1892.71 1.30419 -4.0607 0
M  V30 19714 S 1893.55 0.30917 -5.34607 0
M  V30 19715 C 1894.7 1.51675 -6.07244 0
M  V30 19716 H 1894.94 -0.0512313 -2.97256 0
M  V30 19717 H 1892.47 -0.145281 -1.53715 0
M  V30 19718 H 1894.43 2.42098 -3.3151 0
M  V30 19719 H 1893.09 2.28528 -2.15485 0
M  V30 19720 H 1892.28 2.20024 -4.53437 0
M  V30 19721 H 1891.88 0.694455 -3.67496 0
M  V30 19722 H 1894.18 2.44847 -6.31709 0
M  V30 19723 H 1895.12 1.08454 -6.99745 0
M  V30 19724 H 1895.53 1.7208 -5.37632 0
M  V30 19725 N 1894.92 1.57341 -0.0902386 0
M  V30 19726 C 1896.17 1.94464 0.575461 0
M  V30 19727 C 1896.5 0.971819 1.68135 0
M  V30 19728 O 1895.78 0.00405665 1.945 0
M  V30 19729 C 1896.06 3.41739 1.13518 0
M  V30 19730 C 1895.91 4.49787 0.0346821 0
M  V30 19731 C 1897.23 3.90222 2.03506 0
M  V30 19732 H 1894.35 0.707123 0.207716 0
M  V30 19733 H 1896.99 1.89325 -0.15996 0
M  V30 19734 H 1895.14 3.46249 1.76192 0
M  V30 19735 H 1896.82 4.5739 -0.599326 0
M  V30 19736 H 1895.06 4.29166 -0.632342 0
M  V30 19737 H 1895.73 5.50021 0.467044 0
M  V30 19738 H 1898.21 3.87834 1.50744 0
M  V30 19739 H 1897.08 4.93846 2.39598 0
M  V30 19740 H 1897.34 3.29232 2.95057 0
M  V30 19741 N 1896.4 -0.183431 1.56529 0
M  V30 19742 C 1897.63 -0.921964 1.85781 0
M  V30 19743 C 1898.05 -1.75564 0.675184 0
M  V30 19744 O 1897.41 -1.7736 -0.375913 0
M  V30 19745 C 1897.46 -1.7844 3.13355 0
M  V30 19746 O 1896.56 -2.88461 2.94727 0
M  V30 19747 H 1895.9 -0.258974 0.611415 0
M  V30 19748 H 1898.43 -0.185225 2.0376 0
M  V30 19749 H 1898.44 -2.18675 3.44449 0
M  V30 19750 H 1897.12 -1.17195 3.99047 0
M  V30 19751 H 1895.7 -2.51897 2.74959 0
M  V30 19752 N 1897.88 -1.50992 -0.451564 0
M  V30 19753 C 1899.11 -1.66741 -1.22495 0
M  V30 19754 C 1899.52 -0.358787 -1.8536 0
M  V30 19755 O 1898.88 0.661312 -1.70097 0
M  V30 19756 C 1898.93 -2.77281 -2.31943 0
M  V30 19757 O 1898.65 -4.03072 -1.71652 0
M  V30 19758 C 1900.15 -3.04175 -3.22479 0
M  V30 19759 H 1897.37 -0.55994 -0.369741 0
M  V30 19760 H 1899.92 -1.97329 -0.536785 0
M  V30 19761 H 1898.07 -2.49332 -2.965 0
M  V30 19762 H 1898.49 -4.64354 -2.43875 0
M  V30 19763 H 1899.96 -3.85137 -3.95441 0
M  V30 19764 H 1900.44 -2.16015 -3.82406 0
M  V30 19765 H 1901.04 -3.33729 -2.63638 0
M  V30 19766 N 1899.36 0.706069 -1.40899 0
M  V30 19767 C 1900.32 1.80184 -1.41656 0
M  V30 19768 C 1901.32 1.57807 -0.308823 0
M  V30 19769 O 1902.51 1.64673 -0.568197 0
M  V30 19770 C 1899.64 3.18412 -1.21765 0
M  V30 19771 H 1900.84 1.80908 -2.39191 0
M  V30 19772 H 1898.39 0.912658 -1.26887 0
M  V30 19773 H 1899.12 3.23333 -0.250288 0
M  V30 19774 H 1898.91 3.36054 -2.02015 0
M  V30 19775 H 1900.4 3.9842 -1.25106 0
M  V30 19776 N 1900.84 1.26553 0.939264 0
M  V30 19777 C 1902.25 1.11093 1.50051 0
M  V30 19778 C 1902.6 -0.308105 1.93766 0
M  V30 19779 O 1901.72 -1.19981 1.80093 0
M  V30 19780 C 1902.32 2.01053 2.72696 0
M  V30 19781 C 1900.88 1.89734 3.25082 0
M  V30 19782 C 1900.02 1.94291 1.97854 0
M  V30 19783 H 1902.98 1.39614 0.754553 0
M  V30 19784 H 1903 1.55955 3.47071 0
M  V30 19785 H 1902.51 3.04325 2.40848 0
M  V30 19786 H 1900.61 0.894042 3.61715 0
M  V30 19787 H 1900.72 2.75368 3.92058 0
M  V30 19788 H 1899.09 1.38367 2.13838 0
M  V30 19789 H 1899.87 2.99196 1.68335 0
M  V30 19790 N 1902.31 -1.14411 1.08387 0
M  V30 19791 C 1903.56 -1.85444 0.813433 0
M  V30 19792 C 1903.89 -1.82932 -0.66078 0
M  V30 19793 O 1903.14 -1.25498 -1.50162 0
M  V30 19794 C 1903.44 -3.33681 1.2803 0
M  V30 19795 C 1903.11 -3.56382 2.76229 0
M  V30 19796 C 1901.77 -3.62286 3.16705 0
M  V30 19797 C 1904.12 -3.65224 3.71835 0
M  V30 19798 C 1901.45 -3.74554 4.51582 0
M  V30 19799 C 1903.8 -3.79017 5.06487 0
M  V30 19800 C 1902.47 -3.8317 5.46568 0
M  V30 19801 H 1901.74 -0.678588 0.297656 0
M  V30 19802 H 1904.38 -1.35144 1.35677 0
M  V30 19803 H 1902.69 -3.8626 0.656551 0
M  V30 19804 H 1904.39 -3.87068 1.04781 0
M  V30 19805 H 1900.98 -3.52435 2.43901 0
M  V30 19806 H 1905.16 -3.59952 3.41684 0
M  V30 19807 H 1900.42 -3.76032 4.82089 0
M  V30 19808 H 1904.59 -3.84801 5.80432 0
M  V30 19809 H 1902.22 -3.92429 6.51079 0
M  V30 19810 N 1903.79 -0.869509 -1.31443 0
M  V30 19811 C 1905.02 -0.494667 -2.009 0
M  V30 19812 C 1905.44 0.912728 -1.65272 0
M  V30 19813 O 1904.79 1.59788 -0.881702 0
M  V30 19814 C 1904.84 -0.641585 -3.55761 0
M  V30 19815 O 1904.56 -1.99356 -3.90114 0
M  V30 19816 C 1906.07 -0.267695 -4.42491 0
M  V30 19817 H 1903.29 -0.192789 -0.642708 0
M  V30 19818 H 1905.83 -1.17055 -1.67686 0
M  V30 19819 H 1903.98 -0.0132632 -3.87398 0
M  V30 19820 H 1904.4 -2.00099 -4.8483 0
M  V30 19821 H 1905.87 -0.421448 -5.50389 0
M  V30 19822 H 1906.35 0.793108 -4.3198 0
M  V30 19823 H 1906.96 -0.871698 -4.16271 0
M  V30 19824 N 1905.27 1.44508 -0.628902 0
M  V30 19825 C 1906.52 2.02365 -0.132699 0
M  V30 19826 C 1906.85 1.4934 1.24142 0
M  V30 19827 O 1906.12 0.676567 1.82354 0
M  V30 19828 C 1906.41 3.5991 -0.11694 0
M  V30 19829 C 1906.26 4.23223 -1.52324 0
M  V30 19830 C 1907.58 4.36527 0.559696 0
M  V30 19831 H 1904.7 0.735323 -0.049695 0
M  V30 19832 H 1907.34 1.72106 -0.80495 0
M  V30 19833 H 1905.49 3.8582 0.455515 0
M  V30 19834 H 1907.16 4.08427 -2.14441 0
M  V30 19835 H 1905.41 3.80803 -2.07777 0
M  V30 19836 H 1906.08 5.32225 -1.46427 0
M  V30 19837 H 1908.55 4.16036 0.0728971 0
M  V30 19838 H 1907.43 5.46238 0.539902 0
M  V30 19839 H 1907.69 4.10968 1.62965 0
M  V30 19840 N 1906.75 0.369315 1.53212 0
M  V30 19841 C 1908.16 -0.10909 1.86381 0
M  V30 19842 C 1908.51 -1.47849 1.28977 0
M  V30 19843 O 1907.64 -2.07528 0.613267 0
M  V30 19844 C 1908.23 -0.204726 3.38181 0
M  V30 19845 C 1906.79 -0.627391 3.71134 0
M  V30 19846 C 1905.94 0.223086 2.76401 0
M  V30 19847 H 1908.89 0.587967 1.47406 0
M  V30 19848 H 1908.91 -1.02761 3.66361 0
M  V30 19849 H 1908.42 0.792082 3.79931 0
M  V30 19850 H 1906.52 -1.63229 3.34943 0
M  V30 19851 H 1906.64 -0.39941 4.77432 0
M  V30 19852 H 1905 -0.308608 2.52823 0
M  V30 19853 H 1905.78 1.2175 3.20986 0
M  V30 19854 N 1908.23 -1.57291 0.0985816 0
M  V30 19855 C 1909.16 -2.09882 -0.895809 0
M  V30 19856 C 1910.14 -1.01022 -1.2741 0
M  V30 19857 O 1911.32 -1.28543 -1.37873 0
M  V30 19858 C 1908.45 -2.57868 -2.19594 0
M  V30 19859 C 1907.5 -3.7842 -1.96725 0
M  V30 19860 S 1908.33 -5.21834 -1.20208 0
M  V30 19861 C 1909.48 -5.73172 -2.51444 0
M  V30 19862 H 1909.72 -2.93899 -0.448416 0
M  V30 19863 H 1907.25 -1.53973 -0.114779 0
M  V30 19864 H 1909.21 -2.86173 -2.94305 0
M  V30 19865 H 1907.87 -1.74071 -2.61454 0
M  V30 19866 H 1907.06 -4.10075 -2.93009 0
M  V30 19867 H 1906.66 -3.50627 -1.30142 0
M  V30 19868 H 1908.96 -5.81652 -3.47401 0
M  V30 19869 H 1909.9 -6.71615 -2.24362 0
M  V30 19870 H 1910.31 -5.01123 -2.59877 0
M  V30 19871 N 1909.71 0.175127 -1.56624 0
M  V30 19872 C 1910.67 1.20064 -1.95237 0
M  V30 19873 C 1911.67 1.37384 -0.835603 0
M  V30 19874 O 1912.86 1.34855 -1.10272 0
M  V30 19875 C 1909.99 2.5664 -2.24386 0
M  V30 19876 H 1911.18 0.870066 -2.87001 0
M  V30 19877 H 1908.74 0.41743 -1.50623 0
M  V30 19878 H 1909.47 2.94717 -1.35322 0
M  V30 19879 H 1909.26 2.45436 -3.05784 0
M  V30 19880 H 1910.75 3.30554 -2.55194 0
M  V30 19881 N 1911.18 1.5123 0.44355 0
M  V30 19882 C 1912.15 1.71511 1.52041 0
M  V30 19883 C 1913.15 0.585226 1.49772 0
M  V30 19884 O 1914.34 0.852687 1.51904 0
M  V30 19885 C 1911.47 1.76583 2.91601 0
M  V30 19886 H 1912.66 2.67613 1.35364 0
M  V30 19887 H 1910.21 1.41125 0.671811 0
M  V30 19888 H 1910.95 0.822743 3.1369 0
M  V30 19889 H 1910.73 2.58693 2.94653 0
M  V30 19890 H 1912.22 1.94135 3.69732 0
M  V30 19891 N 1912.66 -0.698586 1.41271 0
M  V30 19892 C 1913.59 -1.82505 1.4565 0
M  V30 19893 C 1914.57 -1.67149 0.315497 0
M  V30 19894 O 1915.76 -1.86926 0.526518 0
M  V30 19895 C 1912.89 -3.20616 1.33502 0
M  V30 19896 C 1911.84 -3.50672 2.45383 0
M  V30 19897 C 1911.17 -4.88107 2.18302 0
M  V30 19898 C 1912.47 -3.49952 3.87725 0
M  V30 19899 H 1914.16 -1.79098 2.39926 0
M  V30 19900 H 1911.71 -0.860237 1.15481 0
M  V30 19901 H 1913.66 -3.9913 1.35179 0
M  V30 19902 H 1912.38 -3.24642 0.357101 0
M  V30 19903 H 1911.04 -2.74507 2.42984 0
M  V30 19904 H 1910.69 -4.88755 1.1886 0
M  V30 19905 H 1910.39 -5.09182 2.9327 0
M  V30 19906 H 1911.92 -5.68934 2.21689 0
M  V30 19907 H 1913.33 -4.18476 3.91855 0
M  V30 19908 H 1911.73 -3.82559 4.62351 0
M  V30 19909 H 1912.8 -2.48988 4.16093 0
M  V30 19910 N 1914.14 -1.27049 -0.93254 0
M  V30 19911 C 1915.05 -1.11156 -2.06595 0
M  V30 19912 C 1916.07 -0.0428245 -1.73947 0
M  V30 19913 O 1917.24 -0.248326 -1.99863 0
M  V30 19914 C 1914.31 -0.755297 -3.38373 0
M  V30 19915 C 1913.37 -1.90439 -3.84749 0
M  V30 19916 C 1912.6 -1.56502 -5.10238 0
M  V30 19917 O 1912.82 -0.470696 -5.68455 0
M  V30 19918 O 1911.76 -2.40262 -5.51868 0
M  V30 19919 H 1915.58 -2.0626 -2.22914 0
M  V30 19920 H 1913.17 -1.06191 -1.05089 0
M  V30 19921 H 1915.05 -0.569728 -4.17531 0
M  V30 19922 H 1913.73 0.166262 -3.23273 0
M  V30 19923 H 1912.63 -2.14498 -3.06499 0
M  V30 19924 H 1913.97 -2.80598 -4.04383 0
M  V30 19925 N 1915.62 1.13835 -1.08993 0
M  V30 19926 C 1916.89 1.81232 -0.735809 0
M  V30 19927 C 1917.27 1.96172 0.779737 0
M  V30 19928 O 1916.62 1.52629 1.70049 0
M  V30 19929 C 1916.83 3.16546 -1.46968 0
M  V30 19930 C 1918.18 3.91958 -1.6326 0
M  V30 19931 O 1919.2 3.26155 -1.43183 0
M  V30 19932 O 1918.06 5.09976 -1.96435 0
M  V30 19933 H 1915.16 0.783794 -0.26381 0
M  V30 19934 H 1917.7 1.20801 -1.19186 0
M  V30 19935 H 1916.48 3.00872 -2.50183 0
M  V30 19936 H 1916.1 3.84676 -1.00551 0
M  V30 19937 N 1917.1 0.876467 1.3098 0
M  V30 19938 C 1918.04 0.335149 2.28354 0
M  V30 19939 C 1919.01 -0.569979 1.56014 0
M  V30 19940 O 1920.2 -0.500226 1.84126 0
M  V30 19941 C 1917.34 -0.451723 3.42131 0
M  V30 19942 C 1916.45 0.481657 4.29306 0
M  V30 19943 C 1915.59 -0.319977 5.30235 0
M  V30 19944 C 1914.62 0.609417 6.09059 0
M  V30 19945 N 1913.76 -0.156366 7.01926 0
M  V30 19946 H 1918.6 1.17069 2.74042 0
M  V30 19947 H 1916.14 0.588683 1.34807 0
M  V30 19948 H 1918.1 -0.923775 4.06844 0
M  V30 19949 H 1916.73 -1.25191 2.97535 0
M  V30 19950 H 1915.78 1.07218 3.64977 0
M  V30 19951 H 1917.09 1.19403 4.84298 0
M  V30 19952 H 1916.24 -0.854256 6.00656 0
M  V30 19953 H 1914.98 -1.06561 4.75916 0
M  V30 19954 H 1913.99 1.1554 5.37523 0
M  V30 19955 H 1915.21 1.354 6.65465 0
M  V30 19956 H 1913.16 -0.884688 6.50007 0
M  V30 19957 H 1913.08 0.496538 7.54368 0
M  V30 19958 H 1914.34 -0.671665 7.76601 0
M  V30 19959 N 1918.57 -1.44173 0.636557 0
M  V30 19960 C 1919.82 -2.01594 0.142933 0
M  V30 19961 C 1920.14 -1.50366 -1.24157 0
M  V30 19962 O 1919.41 -0.709463 -1.82602 0
M  V30 19963 H 1917.99 -0.745335 0.04985 0
M  V30 19964 H 1920.65 -1.76602 0.824479 0
M  V30 19965 H 1919.75 -3.11889 0.114775 0
M  V30 19966 N 1920.05 -0.377435 -1.53014 0
M  V30 19967 C 1921 0.463415 -2.261 0
M  V30 19968 C 1921.97 1.06771 -1.27237 0
M  V30 19969 O 1923.15 1.09797 -1.56043 0
M  V30 19970 C 1920.29 1.59103 -3.06236 0
M  V30 19971 C 1919.41 1.01076 -4.20009 0
M  V30 19972 C 1918.54 2.10845 -4.87563 0
M  V30 19973 C 1917.58 1.50345 -5.93349 0
M  V30 19974 N 1916.72 2.53995 -6.54546 0
M  V30 19975 H 1921.56 -0.166315 -2.97536 0
M  V30 19976 H 1919.09 -0.0938442 -1.468 0
M  V30 19977 H 1921.05 2.25542 -3.5098 0
M  V30 19978 H 1919.68 2.19125 -2.37032 0
M  V30 19979 H 1918.73 0.236306 -3.79665 0
M  V30 19980 H 1920.05 0.528534 -4.95992 0
M  V30 19981 H 1919.2 2.85079 -5.35551 0
M  V30 19982 H 1917.94 2.62423 -4.11079 0
M  V30 19983 H 1916.94 0.746299 -5.44711 0
M  V30 19984 H 1918.17 0.995763 -6.7176 0
M  V30 19985 H 1916.12 3.04765 -5.80908 0
M  V30 19986 H 1916.03 2.10494 -7.26105 0
M  V30 19987 H 1917.3 3.27896 -7.07181 0
M  V30 19988 N 1921.53 1.57237 -0.106922 0
M  V30 19989 C 1922.46 2.1769 0.844599 0
M  V30 19990 C 1923.44 1.11352 1.28587 0
M  V30 19991 O 1924.63 1.39539 1.35065 0
M  V30 19992 C 1921.76 2.76668 2.09933 0
M  V30 19993 C 1920.71 3.88482 1.79627 0
M  V30 19994 C 1920.04 4.34214 3.12029 0
M  V30 19995 C 1921.34 5.11139 1.07399 0
M  V30 19996 H 1923.03 2.97453 0.340887 0
M  V30 19997 H 1920.58 1.4308 0.162523 0
M  V30 19998 H 1922.53 3.17614 2.76946 0
M  V30 19999 H 1921.25 1.94176 2.62608 0
M  V30 20000 H 1919.91 3.48093 1.15008 0
M  V30 20001 H 1919.56 3.48597 3.62614 0
M  V30 20002 H 1919.26 5.09608 2.9253 0
M  V30 20003 H 1920.78 4.77803 3.8018 0
M  V30 20004 H 1922.2 5.4918 1.64543 0
M  V30 20005 H 1920.6 5.92038 0.980375 0
M  V30 20006 H 1921.67 4.84864 0.0586914 0
M  V30 20007 N 1923.01 -0.166818 1.56715 0
M  V30 20008 C 1924.26 -0.882715 1.82248 0
M  V30 20009 C 1924.58 -1.82049 0.684716 0
M  V30 20010 O 1923.84 -1.92937 -0.327717 0
M  V30 20011 C 1924.14 -1.70734 3.13982 0
M  V30 20012 C 1923.8 -0.918095 4.41454 0
M  V30 20013 C 1922.47 -0.700286 4.76077 0
M  V30 20014 C 1924.82 -0.364791 5.19922 0
M  V30 20015 C 1922.15 0.081855 5.86643 0
M  V30 20016 C 1924.5 0.404286 6.31307 0
M  V30 20017 C 1923.16 0.632854 6.64493 0
M  V30 20018 H 1922.43 -0.323008 0.666893 0
M  V30 20019 H 1925.08 -0.147401 1.90932 0
M  V30 20020 H 1923.38 -2.51218 3.0066 0
M  V30 20021 H 1925.08 -2.26437 3.30949 0
M  V30 20022 H 1921.67 -1.0979 4.14299 0
M  V30 20023 H 1925.85 -0.520394 4.93564 0
M  V30 20024 H 1921.11 0.268637 6.1081 0
M  V30 20025 H 1925.28 0.840259 6.91312 0
M  V30 20026 H 1922.91 1.24079 7.50006 0
M  V30 20027 N 1924.49 -1.51463 -0.435524 0
M  V30 20028 C 1925.71 -1.68031 -1.20719 0
M  V30 20029 C 1926.13 -0.378427 -1.84969 0
M  V30 20030 O 1925.49 0.643234 -1.70789 0
M  V30 20031 C 1925.54 -2.79726 -2.28989 0
M  V30 20032 O 1925.26 -4.0487 -1.67367 0
M  V30 20033 C 1926.76 -3.07578 -3.19234 0
M  V30 20034 H 1923.98 -0.56383 -0.363781 0
M  V30 20035 H 1926.52 -1.97888 -0.515825 0
M  V30 20036 H 1924.68 -2.52463 -2.93839 0
M  V30 20037 H 1925.09 -4.66915 -2.38937 0
M  V30 20038 H 1926.57 -3.89309 -3.91334 0
M  V30 20039 H 1927.04 -2.20059 -3.80093 0
M  V30 20040 H 1927.65 -3.36507 -2.60083 0
M  V30 20041 N 1925.96 0.691085 -1.4164 0
M  V30 20042 C 1927.19 1.48481 -1.44804 0
M  V30 20043 C 1927.61 1.88016 -0.0561606 0
M  V30 20044 O 1926.97 1.54927 0.941657 0
M  V30 20045 C 1927.02 2.72083 -2.3665 0
M  V30 20046 O 1926.12 3.6974 -1.82663 0
M  V30 20047 H 1925.47 0.446714 -0.491267 0
M  V30 20048 H 1928 0.849076 -1.8615 0
M  V30 20049 H 1928.01 3.2034 -2.52678 0
M  V30 20050 H 1926.68 2.42645 -3.37781 0
M  V30 20051 H 1925.26 3.28695 -1.76108 0
M  V30 20052 N 1927.44 1.27542 0.925789 0
M  V30 20053 C 1928.39 1.10432 2.02666 0
M  V30 20054 C 1929.36 0.004846 1.66099 0
M  V30 20055 O 1930.54 0.167531 1.90063 0
M  V30 20056 C 1927.68 0.759567 3.36637 0
M  V30 20057 C 1926.8 1.93687 3.86147 0
M  V30 20058 C 1925.93 1.53382 5.08574 0
M  V30 20059 C 1924.97 2.67849 5.50385 0
M  V30 20060 N 1924.11 2.2812 6.64007 0
M  V30 20061 H 1928.95 2.04632 2.16633 0
M  V30 20062 H 1926.49 1.01863 1.06124 0
M  V30 20063 H 1928.44 0.540492 4.13684 0
M  V30 20064 H 1927.07 -0.145477 3.22472 0
M  V30 20065 H 1926.13 2.26843 3.05363 0
M  V30 20066 H 1927.44 2.79548 4.13104 0
M  V30 20067 H 1926.59 1.2761 5.93128 0
M  V30 20068 H 1925.33 0.646332 4.83398 0
M  V30 20069 H 1924.34 2.94333 4.64379 0
M  V30 20070 H 1925.56 3.57222 5.77554 0
M  V30 20071 H 1923.51 1.41825 6.40485 0
M  V30 20072 H 1923.42 3.07519 6.90629 0
M  V30 20073 H 1924.69 2.056 7.51897 0
M  V30 20074 N 1928.92 -1.13255 1.09595 0
M  V30 20075 C 1930.17 -1.84571 0.833056 0
M  V30 20076 C 1930.5 -1.83622 -0.641341 0
M  V30 20077 O 1929.75 -1.27084 -1.48823 0
M  V30 20078 C 1930.05 -3.32304 1.31562 0
M  V30 20079 C 1929.72 -3.53433 2.79993 0
M  V30 20080 C 1928.38 -3.58907 3.2053 0
M  V30 20081 C 1930.73 -3.61259 3.75687 0
M  V30 20082 C 1928.06 -3.69744 4.55529 0
M  V30 20083 C 1930.41 -3.73624 5.10478 0
M  V30 20084 C 1929.07 -3.77352 5.50601 0
M  V30 20085 H 1928.34 -0.675393 0.304837 0
M  V30 20086 H 1930.99 -1.33697 1.37103 0
M  V30 20087 H 1929.3 -3.85542 0.697482 0
M  V30 20088 H 1930.99 -3.85935 1.0888 0
M  V30 20089 H 1927.58 -3.49828 2.47625 0
M  V30 20090 H 1931.77 -3.56308 3.45483 0
M  V30 20091 H 1927.02 -3.70897 4.8605 0
M  V30 20092 H 1931.2 -3.78623 5.84481 0
M  V30 20093 H 1928.82 -3.85501 6.55204 0
M  V30 20094 N 1930.4 -0.883401 -1.30514 0
M  V30 20095 C 1931.64 -0.501795 -1.96494 0
M  V30 20096 C 1931.98 0.946294 -1.69585 0
M  V30 20097 O 1931.25 1.66842 -0.999705 0
M  V30 20098 C 1931.54 -0.775405 -3.51653 0
M  V30 20099 C 1931.39 -2.27401 -3.88084 0
M  V30 20100 C 1932.71 -0.250854 -4.39384 0
M  V30 20101 H 1929.83 -0.183786 -0.713717 0
M  V30 20102 H 1932.47 -1.1071 -1.54412 0
M  V30 20103 H 1930.62 -0.260217 -3.87628 0
M  V30 20104 H 1932.29 -2.85748 -3.62141 0
M  V30 20105 H 1930.53 -2.74128 -3.36209 0
M  V30 20106 H 1931.2 -2.41606 -4.96317 0
M  V30 20107 H 1933.68 -0.691785 -4.10309 0
M  V30 20108 H 1932.56 -0.471637 -5.4687 0
M  V30 20109 H 1932.82 0.847835 -4.33894 0
M  V30 20110 N 1931.88 1.43833 -0.644194 0
M  V30 20111 C 1932.81 2.33467 0.0394911 0
M  V30 20112 C 1933.79 1.48957 0.821339 0
M  V30 20113 O 1934.97 1.77644 0.784618 0
M  V30 20114 C 1932.1 3.32205 1.01277 0
M  V30 20115 C 1931.06 4.26634 0.341666 0
M  V30 20116 C 1930.38 5.15341 1.42577 0
M  V30 20117 C 1931.68 5.16737 -0.760299 0
M  V30 20118 H 1933.38 2.90883 -0.709025 0
M  V30 20119 H 1930.92 1.3987 -0.342413 0
M  V30 20120 H 1932.88 3.93803 1.49991 0
M  V30 20121 H 1931.6 2.73025 1.79234 0
M  V30 20122 H 1930.26 3.66387 -0.124937 0
M  V30 20123 H 1929.91 4.52505 2.19654 0
M  V30 20124 H 1929.61 5.79336 0.98203 0
M  V30 20125 H 1931.13 5.79811 1.91444 0
M  V30 20126 H 1932.54 5.72195 -0.355713 0
M  V30 20127 H 1930.94 5.89404 -1.12796 0
M  V30 20128 H 1932.01 4.56966 -1.62204 0
M  V30 20129 N 1933.35 0.385544 1.52811 0
M  V30 20130 C 1934.32 -0.439294 2.24951 0
M  V30 20131 C 1935.32 -0.993315 1.26451 0
M  V30 20132 O 1936.51 -0.875911 1.50577 0
M  V30 20133 C 1933.64 -1.61595 3.00166 0
M  V30 20134 H 1934.83 0.192232 2.99283 0
M  V30 20135 H 1932.39 0.137589 1.55693 0
M  V30 20136 H 1933.12 -2.28501 2.30125 0
M  V30 20137 H 1932.91 -1.22544 3.72459 0
M  V30 20138 H 1934.4 -2.20001 3.5495 0
M  V30 20139 N 1934.83 -1.57178 0.115259 0
M  V30 20140 C 1936.06 -1.99842 -0.554802 0
M  V30 20141 C 1936.48 -0.994368 -1.59668 0
M  V30 20142 O 1935.84 0.0344531 -1.81267 0
M  V30 20143 C 1935.89 -3.41399 -1.16099 0
M  V30 20144 O 1934.99 -3.43868 -2.27659 0
M  V30 20145 H 1934.33 -0.649301 -0.138937 0
M  V30 20146 H 1936.86 -2.03594 0.202629 0
M  V30 20147 H 1936.87 -3.79527 -1.49743 0
M  V30 20148 H 1935.55 -4.13993 -0.397827 0
M  V30 20149 H 1934.13 -3.17555 -1.95482 0
M  V30 20150 N 1936.31 0.158505 -1.56801 0
M  V30 20151 C 1937.54 0.888272 -1.86862 0
M  V30 20152 C 1937.95 1.75258 -0.702142 0
M  V30 20153 O 1937.31 1.7952 0.328431 0
M  V30 20154 C 1937.36 1.75448 -3.1607 0
M  V30 20155 O 1937.08 0.925019 -4.28223 0
M  V30 20156 C 1938.58 2.59282 -3.59566 0
M  V30 20157 H 1935.8 0.257429 -0.619654 0
M  V30 20158 H 1938.35 0.154749 -2.03914 0
M  V30 20159 H 1936.5 2.4412 -3.00806 0
M  V30 20160 H 1936.92 1.51863 -5.02034 0
M  V30 20161 H 1938.39 3.15655 -4.52842 0
M  V30 20162 H 1938.87 3.3477 -2.84299 0
M  V30 20163 H 1939.47 1.95921 -3.77485 0
M  V30 20164 N 1937.79 1.51692 0.427485 0
M  V30 20165 C 1938.74 1.74303 1.54017 0
M  V30 20166 C 1939.73 0.609588 1.58052 0
M  V30 20167 O 1940.94 0.791207 1.61678 0
M  V30 20168 H 1937.31 0.550902 0.51187 0
M  V30 20169 H 1939.28 2.67556 1.32123 0
M  V30 20170 C 1938.03 1.89415 2.91577 0
M  V30 20171 H 1937.36 2.76041 2.89208 0
M  V30 20172 H 1938.8 2.09244 3.68772 0
M  V30 20173 C 1937.25 0.656462 3.30442 0
M  V30 20174 O 1937.78 -0.184283 4.01277 0
M  V30 20175 N 1935.99 0.497681 2.86307 0
M  V30 20176 H 1935.54 1.18293 2.28833 0
M  V30 20177 H 1935.5 -0.329176 3.12672 0
M  V30 20178 N 1939.27 -0.683564 1.42004 0
M  V30 20179 C 1940.23 -1.77907 1.44505 0
M  V30 20180 C 1941.23 -1.57295 0.333889 0
M  V30 20181 O 1942.42 -1.63748 0.594323 0
M  V30 20182 C 1939.55 -3.16434 1.26815 0
M  V30 20183 H 1940.75 -1.7708 2.42039 0
M  V30 20184 H 1938.3 -0.892355 1.28323 0
M  V30 20185 H 1939.03 -3.22894 0.301695 0
M  V30 20186 H 1938.82 -3.32798 2.07335 0
M  V30 20187 H 1940.31 -3.96379 1.31428 0
M  V30 20188 N 1940.75 -1.28031 -0.919012 0
M  V30 20189 C 1941.99 -1.14651 -1.66432 0
M  V30 20190 C 1942.31 0.306395 -1.92578 0
M  V30 20191 O 1941.58 1.2131 -1.5382 0
M  V30 20192 H 1940.16 -0.421307 -0.616854 0
M  V30 20193 H 1942.83 -1.60684 -1.10302 0
M  V30 20194 H 1941.92 -1.68214 -2.62888 0
M  V30 20195 N 1942.22 1.12672 -1.10194 0
M  V30 20196 C 1943.16 2.18045 -0.706344 0
M  V30 20197 C 1944.17 1.60779 0.25571 0
M  V30 20198 O 1945.36 1.78454 0.0405568 0
M  V30 20199 C 1942.46 3.38893 -0.021273 0
M  V30 20200 C 1941.63 4.25654 -1.00687 0
M  V30 20201 C 1940.69 5.2501 -0.353745 0
M  V30 20202 O 1939.72 5.60279 -1.00378 0
M  V30 20203 N 1940.92 5.73655 0.888851 0
M  V30 20204 H 1943.68 2.52596 -1.61293 0
M  V30 20205 H 1941.24 1.28071 -0.990431 0
M  V30 20206 H 1943.24 4.0244 0.427064 0
M  V30 20207 H 1941.81 3.02513 0.787681 0
M  V30 20208 H 1941.03 3.5876 -1.63354 0
M  V30 20209 H 1942.31 4.8047 -1.67411 0
M  V30 20210 H 1941.71 5.4716 1.43638 0
M  V30 20211 H 1940.27 6.39101 1.28038 0
M  V30 20212 N 1943.7 0.89031 1.30043 0
M  V30 20213 C 1944.95 0.512208 1.96225 0
M  V30 20214 C 1945.28 -0.937287 1.70084 0
M  V30 20215 O 1944.56 -1.66309 1.00854 0
M  V30 20216 C 1944.84 0.794043 3.51236 0
M  V30 20217 C 1944.69 2.29456 3.86872 0
M  V30 20218 C 1946.01 0.274152 4.39245 0
M  V30 20219 H 1943.13 0.187568 0.712732 0
M  V30 20220 H 1945.77 1.11528 1.53823 0
M  V30 20221 H 1943.92 0.28077 3.87484 0
M  V30 20222 H 1945.59 2.87665 3.6062 0
M  V30 20223 H 1943.84 2.75907 3.34751 0
M  V30 20224 H 1944.51 2.44235 4.95029 0
M  V30 20225 H 1946.98 0.713535 4.09936 0
M  V30 20226 H 1945.86 0.500633 5.46612 0
M  V30 20227 H 1946.12 -0.824812 4.34338 0
M  V30 20228 N 1945.18 -1.43489 0.651812 0
M  V30 20229 C 1946.41 -2.06181 0.172334 0
M  V30 20230 C 1946.82 -1.48848 -1.16145 0
M  V30 20231 O 1946.18 -0.619246 -1.71673 0
M  V30 20232 C 1946.23 -3.61425 0.0737039 0
M  V30 20233 O 1945.95 -4.16627 1.35476 0
M  V30 20234 C 1947.45 -4.4119 -0.432019 0
M  V30 20235 H 1944.67 -0.665039 0.0892394 0
M  V30 20236 H 1947.22 -1.84018 0.892063 0
M  V30 20237 H 1945.37 -3.82779 -0.596577 0
M  V30 20238 H 1945.79 -5.1028 1.21305 0
M  V30 20239 H 1947.26 -5.50163 -0.449989 0
M  V30 20240 H 1947.74 -4.14115 -1.46306 0
M  V30 20241 H 1948.34 -4.24802 0.205721 0
M  V30 20242 N 1946.66 -0.393643 -1.52605 0
M  V30 20243 C 1948.07 0.0794242 -1.86531 0
M  V30 20244 C 1948.42 1.45778 -1.31313 0
M  V30 20245 O 1947.54 2.06526 -0.646206 0
M  V30 20246 C 1948.14 0.150899 -3.38464 0
M  V30 20247 C 1946.7 0.568268 -3.72086 0
M  V30 20248 C 1945.85 -0.267031 -2.76011 0
M  V30 20249 H 1948.8 -0.611344 -1.46452 0
M  V30 20250 H 1948.82 0.969194 -3.6795 0
M  V30 20251 H 1948.33 -0.852425 -3.78623 0
M  V30 20252 H 1946.43 1.5788 -3.37498 0
M  V30 20253 H 1946.54 0.323405 -4.78007 0
M  V30 20254 H 1944.91 0.268347 -2.53282 0
M  V30 20255 H 1945.69 -1.26841 -3.19008 0
M  V30 20256 N 1948.14 1.57115 -0.123593 0
M  V30 20257 C 1949.55 1.82342 0.401051 0
M  V30 20258 C 1949.9 1.04102 1.66304 0
M  V30 20259 O 1949.02 0.279024 2.14594 0
M  V30 20260 C 1949.62 3.30745 0.734394 0
M  V30 20261 C 1948.18 3.56636 1.20365 0
M  V30 20262 C 1947.32 2.76468 0.214686 0
M  V30 20263 H 1950.27 1.54823 -0.348657 0
M  V30 20264 H 1950.3 3.45624 1.59137 0
M  V30 20265 H 1949.81 3.87662 -0.184288 0
M  V30 20266 H 1947.91 3.05081 2.13908 0
M  V30 20267 H 1948.02 4.65197 1.1458 0
M  V30 20268 H 1946.39 2.44816 0.702648 0
M  V30 20269 H 1947.17 3.36146 -0.697174 0
M  V30 20270 N 1949.61 -0.150187 1.56883 0
M  V30 20271 C 1950.84 -0.87835 1.8733 0
M  V30 20272 C 1951.26 -1.74883 0.711426 0
M  V30 20273 O 1950.61 -1.79692 -0.318906 0
M  V30 20274 C 1950.66 -1.73769 3.16996 0
M  V30 20275 O 1950.39 -0.902296 4.28708 0
M  V30 20276 C 1951.89 -2.57371 3.60936 0
M  V30 20277 H 1949.11 -0.254139 0.621011 0
M  V30 20278 H 1951.65 -0.143933 2.03993 0
M  V30 20279 H 1949.81 -2.42521 3.02097 0
M  V30 20280 H 1950.22 -1.49198 5.02832 0
M  V30 20281 H 1951.69 -3.13249 4.5451 0
M  V30 20282 H 1952.17 -3.33257 2.86071 0
M  V30 20283 H 1952.78 -1.93916 3.78519 0
M  V30 20284 N 1951.09 -1.51916 -0.419434 0
M  V30 20285 C 1952.34 -1.65714 -1.16905 0
M  V30 20286 C 1952.67 -0.380888 -1.90428 0
M  V30 20287 O 1951.95 0.620297 -1.84344 0
M  V30 20288 C 1952.23 -2.87239 -2.17177 0
M  V30 20289 C 1952.08 -4.24887 -1.47619 0
M  V30 20290 C 1953.4 -3.04281 -3.17964 0
M  V30 20291 H 1950.52 -0.603072 -0.423643 0
M  V30 20292 H 1953.16 -1.84446 -0.456035 0
M  V30 20293 H 1951.31 -2.71398 -2.77984 0
M  V30 20294 H 1952.98 -4.52433 -0.900112 0
M  V30 20295 H 1951.23 -4.26761 -0.778273 0
M  V30 20296 H 1951.9 -5.05945 -2.20733 0
M  V30 20297 H 1954.37 -3.18951 -2.67226 0
M  V30 20298 H 1953.25 -3.90843 -3.85399 0
M  V30 20299 H 1953.51 -2.17138 -3.85102 0
M  V30 20300 N 1952.57 0.676023 -1.42365 0
M  V30 20301 C 1953.53 1.77138 -1.45446 0
M  V30 20302 C 1954.53 1.57116 -0.342226 0
M  V30 20303 O 1955.72 1.63431 -0.602999 0
M  V30 20304 C 1952.86 3.15757 -1.28492 0
M  V30 20305 H 1954.05 1.75794 -2.42974 0
M  V30 20306 H 1951.6 0.885538 -1.28794 0
M  V30 20307 H 1952.34 3.22729 -0.318815 0
M  V30 20308 H 1952.12 3.31694 -2.09097 0
M  V30 20309 H 1953.61 3.95677 -1.33528 0
M  V30 20310 N 1954.05 1.28517 0.912209 0
M  V30 20311 C 1955.33 1.0646 1.6409 0
M  V30 20312 C 1955.71 -0.395521 2.07362 0
M  V30 20313 O 1955.05 -1.3819 1.81978 0
M  V30 20314 C 1955.26 2.04064 2.83123 0
M  V30 20315 C 1956.61 2.34295 3.54106 0
M  V30 20316 O 1957.64 2.0216 2.93274 0
M  V30 20317 O 1956.49 2.89146 4.63742 0
M  V30 20318 H 1953.59 0.406984 0.719926 0
M  V30 20319 H 1956.13 1.39841 0.961378 0
M  V30 20320 H 1954.91 3.02467 2.48253 0
M  V30 20321 H 1954.53 1.71338 3.58788 0
M  V30 20322 N 1955.53 -1.12086 1.1079 0
M  V30 20323 C 1956.76 -1.87222 0.873594 0
M  V30 20324 C 1957.16 -1.80099 -0.579728 0
M  V30 20325 O 1956.51 -1.17551 -1.41165 0
M  V30 20326 C 1956.57 -3.37136 1.24817 0
M  V30 20327 C 1956.23 -3.68031 2.70928 0
M  V30 20328 C 1957.23 -3.66084 3.69159 0
M  V30 20329 C 1954.92 -3.9725 3.07405 0
M  V30 20330 C 1956.91 -3.9292 5.01889 0
M  V30 20331 C 1954.6 -4.23745 4.40322 0
M  V30 20332 C 1955.59 -4.21567 5.37373 0
M  V30 20333 O 1955.28 -4.47403 6.67897 0
M  V30 20334 H 1955.01 -0.599114 0.31311 0
M  V30 20335 H 1957.57 -1.42723 1.47714 0
M  V30 20336 H 1955.8 -3.82207 0.587742 0
M  V30 20337 H 1957.49 -3.93623 0.990758 0
M  V30 20338 H 1958.25 -3.4357 3.42323 0
M  V30 20339 H 1954.13 -3.98085 2.32486 0
M  V30 20340 H 1957.68 -3.91136 5.77632 0
M  V30 20341 H 1953.57 -4.45734 4.66895 0
M  V30 20342 H 1954.34 -4.65004 6.73583 0
M  V30 20343 N 1957 -0.897194 -1.29569 0
M  V30 20344 C 1957.95 -0.371435 -2.27792 0
M  V30 20345 C 1958.92 0.545087 -1.56901 0
M  V30 20346 O 1960.11 0.47087 -1.84899 0
M  V30 20347 C 1957.25 0.397236 -3.42806 0
M  V30 20348 C 1956.36 -0.549895 -4.28486 0
M  V30 20349 C 1955.49 0.23558 -5.30677 0
M  V30 20350 C 1954.53 -0.706236 -6.08012 0
M  V30 20351 N 1953.67 0.0446763 -7.02086 0
M  V30 20352 H 1958.51 -1.21414 -2.72145 0
M  V30 20353 H 1956.05 -0.610055 -1.33853 0
M  V30 20354 H 1958.01 0.858933 -4.08262 0
M  V30 20355 H 1956.64 1.20441 -2.99489 0
M  V30 20356 H 1955.69 -1.13011 -3.63226 0
M  V30 20357 H 1957 -1.27092 -4.82337 0
M  V30 20358 H 1956.15 0.758588 -6.01939 0
M  V30 20359 H 1954.89 0.989757 -4.77551 0
M  V30 20360 H 1953.9 -1.24077 -5.35617 0
M  V30 20361 H 1955.12 -1.4597 -6.63227 0
M  V30 20362 H 1953.07 0.781165 -6.51332 0
M  V30 20363 H 1952.99 -0.616488 -7.53482 0
M  V30 20364 H 1954.25 0.548029 -7.77571 0
M  V30 20365 N 1958.48 1.43142 -0.659413 0
M  V30 20366 C 1959.45 2.29192 0.0190393 0
M  V30 20367 C 1960.45 1.42532 0.744404 0
M  V30 20368 O 1961.64 1.64093 0.584722 0
M  V30 20369 C 1958.77 3.24723 1.03769 0
M  V30 20370 H 1959.96 2.90674 -0.738166 0
M  V30 20371 H 1957.51 1.50525 -0.420956 0
M  V30 20372 H 1958.25 2.68149 1.82392 0
M  V30 20373 H 1958.03 3.88621 0.52115 0
M  V30 20374 H 1959.52 3.89294 1.5113 0
M  V30 20375 N 1959.96 0.40173 1.52394 0
M  V30 20376 C 1960.89 -0.41861 2.29717 0
M  V30 20377 C 1961.87 -1.05263 1.33618 0
M  V30 20378 O 1963.06 -1.06304 1.62521 0
M  V30 20379 C 1960.19 -1.5395 3.11314 0
M  V30 20380 C 1959.14 -1.03088 4.154 0
M  V30 20381 C 1958.47 -2.2448 4.85297 0
M  V30 20382 C 1959.77 -0.0900956 5.22222 0
M  V30 20383 H 1961.46 0.226577 2.98541 0
M  V30 20384 H 1959.01 0.110411 1.43576 0
M  V30 20385 H 1960.96 -2.12031 3.64171 0
M  V30 20386 H 1959.68 -2.21246 2.40246 0
M  V30 20387 H 1958.34 -0.472515 3.63542 0
M  V30 20388 H 1957.99 -2.90313 4.10764 0
M  V30 20389 H 1957.69 -1.91103 5.55656 0
M  V30 20390 H 1959.21 -2.83181 5.40963 0
M  V30 20391 H 1960.63 -0.579479 5.70364 0
M  V30 20392 H 1959.03 0.154505 5.99901 0
M  V30 20393 H 1960.1 0.857375 4.7726 0
M  V30 20394 N 1961.44 -1.57047 0.131923 0
M  V30 20395 C 1962.37 -2.13088 -0.844174 0
M  V30 20396 C 1963.38 -1.07666 -1.22114 0
M  V30 20397 O 1964.57 -1.34995 -1.16784 0
M  V30 20398 C 1961.67 -2.62623 -2.14201 0
M  V30 20399 C 1960.85 -3.92283 -1.93475 0
M  V30 20400 C 1959.9 -4.27284 -3.07107 0
M  V30 20401 O 1958.93 -4.95876 -2.79456 0
M  V30 20402 N 1960.13 -3.85646 -4.33887 0
M  V30 20403 H 1962.9 -2.97465 -0.365306 0
M  V30 20404 H 1960.46 -1.61816 -0.0521136 0
M  V30 20405 H 1962.45 -2.8306 -2.89239 0
M  V30 20406 H 1961.02 -1.83054 -2.53397 0
M  V30 20407 H 1960.24 -3.80625 -1.02558 0
M  V30 20408 H 1961.53 -4.7704 -1.76947 0
M  V30 20409 H 1960.93 -3.30348 -4.59224 0
M  V30 20410 H 1959.48 -4.11165 -5.05754 0
M  V30 20411 N 1962.92 0.141865 -1.5696 0
M  V30 20412 C 1964.33 0.494676 -1.5174 0
M  V30 20413 C 1964.53 1.83101 -0.8412 0
M  V30 20414 O 1963.59 2.49085 -0.413886 0
M  V30 20415 C 1964.9 0.500247 -2.9651 0
M  V30 20416 C 1966.45 0.585404 -3.07477 0
M  V30 20417 C 1966.92 0.621588 -4.53762 0
M  V30 20418 N 1968.42 0.683668 -4.58127 0
M  V30 20419 C 1969.15 0.732734 -5.68699 0
M  V30 20420 N 1968.65 0.740833 -6.88828 0
M  V30 20421 N 1970.44 0.774006 -5.56745 0
M  V30 20422 H 1962.59 -0.734022 -1.99314 0
M  V30 20423 H 1964.85 -0.268231 -0.909261 0
M  V30 20424 H 1964.56 -0.413562 -3.4926 0
M  V30 20425 H 1964.43 1.33632 -3.52735 0
M  V30 20426 H 1966.82 1.48963 -2.54743 0
M  V30 20427 H 1966.9 -0.277919 -2.54286 0
M  V30 20428 H 1966.55 -0.278504 -5.07136 0
M  V30 20429 H 1966.48 1.50147 -5.04741 0
M  V30 20430 H 1968.97 0.6845 -3.71649 0
M  V30 20431 H 1969.28 0.780262 -7.68851 0
M  V30 20432 H 1967.62 0.708625 -6.91378 0
M  V30 20433 H 1970.82 0.764885 -4.61809 0
M  V30 20434 H 1970.99 0.808779 -6.42933 0
M  V30 20435 N 1964.39 1.52136 0.411372 0
M  V30 20436 C 1965.81 1.40889 0.749825 0
M  V30 20437 C 1966.01 0.511617 1.94897 0
M  V30 20438 O 1965.07 -0.0234451 2.52489 0
M  V30 20439 C 1966.38 2.83378 1.00586 0
M  V30 20440 C 1967.93 2.92706 1.10871 0
M  V30 20441 C 1968.4 4.36157 1.39752 0
M  V30 20442 N 1969.89 4.39382 1.46622 0
M  V30 20443 C 1970.63 5.47436 1.70591 0
M  V30 20444 N 1970.12 6.65612 1.92179 0
M  V30 20445 N 1971.92 5.34949 1.72587 0
M  V30 20446 H 1964.07 2.09009 -0.377998 0
M  V30 20447 H 1966.33 0.941963 -0.106819 0
M  V30 20448 H 1966.04 3.51147 0.197136 0
M  V30 20449 H 1965.91 3.24285 1.92663 0
M  V30 20450 H 1968.3 2.25118 1.90803 0
M  V30 20451 H 1968.38 2.55258 0.166361 0
M  V30 20452 H 1968.02 5.04303 0.603387 0
M  V30 20453 H 1967.95 4.71139 2.35236 0
M  V30 20454 H 1970.44 3.54194 1.31738 0
M  V30 20455 H 1970.76 7.43745 2.09912 0
M  V30 20456 H 1969.1 6.68681 1.89449 0
M  V30 20457 H 1972.29 4.41602 1.55258 0
M  V30 20458 H 1972.47 6.19234 1.90929 0
M  V30 20459 N 1965.87 -0.668464 1.42721 0
M  V30 20460 C 1967.12 -1.42849 1.43528 0
M  V30 20461 C 1967.45 -1.94425 0.0540077 0
M  V30 20462 O 1966.7 -1.71721 -0.938629 0
M  V30 20463 C 1967 -2.63743 2.41194 0
M  V30 20464 C 1966.67 -2.30672 3.87429 0
M  V30 20465 C 1965.33 -2.21365 4.2726 0
M  V30 20466 C 1967.68 -2.03937 4.79645 0
M  V30 20467 C 1965.01 -1.83456 5.5728 0
M  V30 20468 C 1967.36 -1.6753 6.10013 0
M  V30 20469 C 1966.03 -1.56737 6.48837 0
M  V30 20470 H 1965.3 -0.522721 0.525208 0
M  V30 20471 H 1967.94 -0.761625 1.75703 0
M  V30 20472 H 1966.25 -3.35491 2.02369 0
M  V30 20473 H 1967.95 -3.21934 2.3908 0
M  V30 20474 H 1964.54 -2.38821 3.55896 0
M  V30 20475 H 1968.72 -2.10057 4.49655 0
M  V30 20476 H 1963.98 -1.73674 5.86214 0
M  V30 20477 H 1968.15 -1.4587 6.80952 0
M  V30 20478 H 1965.78 -1.27133 7.49494 0
M  V30 20479 N 1967.35 -1.28999 -0.905381 0
M  V30 20480 C 1968.6 -1.1664 -1.65534 0
M  V30 20481 C 1968.93 0.283294 -1.92426 0
M  V30 20482 O 1968.18 1.22166 -1.52885 0
M  V30 20483 C 1968.48 -1.91909 -3.01506 0
M  V30 20484 C 1968.15 -3.4166 -2.94243 0
M  V30 20485 C 1966.81 -3.82501 -2.91969 0
M  V30 20486 C 1969.16 -4.37112 -2.8387 0
M  V30 20487 C 1966.49 -5.1712 -2.77135 0
M  V30 20488 C 1968.84 -5.71814 -2.70576 0
M  V30 20489 C 1967.5 -6.1192 -2.66665 0
M  V30 20490 H 1966.77 -0.426816 -0.60573 0
M  V30 20491 H 1969.42 -1.5987 -1.05422 0
M  V30 20492 H 1967.73 -1.41252 -3.65452 0
M  V30 20493 H 1969.42 -1.79756 -3.58453 0
M  V30 20494 H 1966.01 -3.09194 -2.96812 0
M  V30 20495 H 1970.2 -4.06516 -2.84708 0
M  V30 20496 H 1965.45 -5.47311 -2.72508 0
M  V30 20497 H 1969.63 -6.45431 -2.61519 0
M  V30 20498 H 1967.25 -7.16182 -2.54928 0
M  V30 20499 N 1968.83 1.11497 -1.11383 0
M  V30 20500 C 1970.08 1.83222 -0.862314 0
M  V30 20501 C 1970.4 1.84619 0.612047 0
M  V30 20502 O 1969.66 1.29435 1.46782 0
M  V30 20503 C 1969.96 3.30169 -1.36832 0
M  V30 20504 C 1969.62 3.48933 -2.85581 0
M  V30 20505 C 1968.29 3.53762 -3.26199 0
M  V30 20506 C 1970.64 3.55237 -3.81387 0
M  V30 20507 C 1967.97 3.6245 -4.61353 0
M  V30 20508 C 1970.32 3.65455 -5.16358 0
M  V30 20509 C 1968.98 3.68544 -5.56535 0
M  V30 20510 H 1968.25 0.670458 -0.315543 0
M  V30 20511 H 1970.9 1.31499 -1.39213 0
M  V30 20512 H 1969.2 3.84383 -0.75873 0
M  V30 20513 H 1970.9 3.84154 -1.15006 0
M  V30 20514 H 1967.49 3.45844 -2.53159 0
M  V30 20515 H 1971.68 3.50767 -3.51107 0
M  V30 20516 H 1966.93 3.63118 -4.9189 0
M  V30 20517 H 1971.11 3.69276 -5.9043 0
M  V30 20518 H 1968.73 3.75029 -6.61255 0
M  V30 20519 N 1970.31 0.904053 1.29092 0
M  V30 20520 C 1971.58 0.451521 1.90317 0
M  V30 20521 C 1971.96 -1.06911 1.82025 0
M  V30 20522 O 1971.31 -1.9129 1.24982 0
M  V30 20523 C 1971.52 0.970986 3.35221 0
M  V30 20524 C 1972.87 1.01728 4.12234 0
M  V30 20525 O 1973.89 0.918956 3.44142 0
M  V30 20526 O 1972.75 1.16562 5.33925 0
M  V30 20527 H 1969.85 0.141495 0.814806 0
M  V30 20528 H 1972.39 0.994203 1.37527 0
M  V30 20529 H 1971.17 2.01497 3.35432 0
M  V30 20530 H 1970.79 0.408567 3.95495 0
M  V30 20531 N 1971.79 -1.4279 0.666995 0
M  V30 20532 C 1973.03 -2.03517 0.189811 0
M  V30 20533 C 1973.39 -1.5156 -1.17871 0
M  V30 20534 O 1974.59 -2.04022 -1.7501 0
M  V30 20535 C 1972.86 -3.56757 0.214298 0
M  V30 20536 S 1974.42 -4.38375 -0.193026 0
M  V30 20537 H 1971.24 -0.706625 0.0787564 0
M  V30 20538 H 1973.84 -1.74655 0.878407 0
M  V30 20539 H 1972.54 -3.92071 1.2128 0
M  V30 20540 H 1972.08 -3.90281 -0.494388 0
M  V30 20541 H 1974.09 -4.75195 -1.42842 0
M  V30 20542 N 1973.26 -0.409806 -1.52179 0
M  V30 20543 C 1974.54 0.224342 -1.94309 0
M  V30 20544 C 1974.92 1.62561 -1.34674 0
M  V30 20545 O 1974.27 2.22438 -0.522817 0
M  V30 20546 C 1974.48 0.22999 -3.48241 0
M  V30 20547 C 1975.83 0.449011 -4.22219 0
M  V30 20548 O 1976.85 0.309316 -3.54854 0
M  V30 20549 O 1975.71 0.724419 -5.41677 0
M  V30 20550 H 1972.8 0.144759 -0.814232 0
M  V30 20551 H 1975.35 -0.465799 -1.63182 0
M  V30 20552 H 1974.12 -0.750731 -3.84031 0
M  V30 20553 H 1973.74 0.964201 -3.85732 0
M  V30 20554 N 1974.74 1.56975 -0.14025 0
M  V30 20555 C 1975.99 1.95081 0.512469 0
M  V30 20556 C 1976.3 1.02722 1.66456 0
M  V30 20557 O 1977.51 1.3038 2.38146 0
M  V30 20558 C 1975.97 3.46775 0.963057 0
M  V30 20559 C 1975.57 4.47708 -0.161733 0
M  V30 20560 C 1977.32 3.93761 1.58595 0
M  V30 20561 C 1975.22 5.90604 0.306746 0
M  V30 20562 H 1974.15 0.72829 0.195216 0
M  V30 20563 H 1976.81 1.82134 -0.223514 0
M  V30 20564 H 1975.19 3.55032 1.7541 0
M  V30 20565 H 1976.36 4.51141 -0.938529 0
M  V30 20566 H 1974.68 4.10599 -0.692608 0
M  V30 20567 H 1977.27 4.97954 1.94796 0
M  V30 20568 H 1977.62 3.34931 2.47238 0
M  V30 20569 H 1978.15 3.88394 0.859928 0
M  V30 20570 H 1974.89 6.53238 -0.544152 0
M  V30 20571 H 1974.41 5.90546 1.04956 0
M  V30 20572 H 1976.09 6.42509 0.760989 0
M  V30 20573 N 1976.22 -0.133539 1.57033 0
M  V30 20574 C 1977.13 -1.18362 2.02553 0
M  V30 20575 C 1978.15 -1.46212 0.943294 0
M  V30 20576 O 1979.32 -1.57616 1.25376 0
M  V30 20577 C 1976.39 -2.49391 2.40842 0
M  V30 20578 C 1975.45 -2.29068 3.63079 0
M  V30 20579 C 1974.68 -3.53849 3.99533 0
M  V30 20580 O 1974.9 -4.60576 3.36491 0
M  V30 20581 O 1973.84 -3.45713 4.92713 0
M  V30 20582 H 1977.66 -0.827128 2.9222 0
M  V30 20583 H 1975.25 -0.343267 1.45403 0
M  V30 20584 H 1977.13 -3.26617 2.66269 0
M  V30 20585 H 1975.81 -2.84544 1.54326 0
M  V30 20586 H 1974.71 -1.49749 3.42821 0
M  V30 20587 H 1976.05 -1.98826 4.50254 0
M  V30 20588 N 1977.7 -1.52352 -0.403298 0
M  V30 20589 C 1978.94 -1.66944 -1.15141 0
M  V30 20590 C 1979.28 -0.401064 -1.90013 0
M  V30 20591 O 1978.55 0.60071 -1.84991 0
M  V30 20592 C 1978.83 -2.89526 -2.14118 0
M  V30 20593 C 1978.69 -4.26428 -1.43104 0
M  V30 20594 C 1980.01 -3.07636 -3.14719 0
M  V30 20595 H 1977.13 -0.607531 -0.417223 0
M  V30 20596 H 1979.77 -1.84919 -0.436447 0
M  V30 20597 H 1977.92 -2.74332 -2.7509 0
M  V30 20598 H 1979.59 -4.53362 -0.852075 0
M  V30 20599 H 1977.83 -4.27563 -0.732965 0
M  V30 20600 H 1978.5 -5.08258 -2.15355 0
M  V30 20601 H 1980.98 -3.21767 -2.63828 0
M  V30 20602 H 1979.86 -3.94909 -3.81232 0
M  V30 20603 H 1980.12 -2.2121 -3.82777 0
M  V30 20604 N 1979.18 0.660885 -1.43074 0
M  V30 20605 C 1980.11 1.78641 -1.43597 0
M  V30 20606 C 1981.12 1.59355 -0.333119 0
M  V30 20607 O 1982.31 1.68218 -0.597082 0
M  V30 20608 C 1979.41 3.15957 -1.22575 0
M  V30 20609 C 1978.58 3.61969 -2.45556 0
M  V30 20610 C 1977.64 4.78062 -2.19871 0
M  V30 20611 O 1976.67 4.87893 -2.93171 0
M  V30 20612 N 1977.87 5.67738 -1.21053 0
M  V30 20613 H 1980.63 1.78672 -2.40617 0
M  V30 20614 H 1978.2 0.844466 -1.38132 0
M  V30 20615 H 1980.19 3.91298 -1.03287 0
M  V30 20616 H 1978.76 3.10742 -0.34029 0
M  V30 20617 H 1977.98 2.77155 -2.80319 0
M  V30 20618 H 1979.27 3.89455 -3.27418 0
M  V30 20619 H 1978.66 5.6246 -0.604562 0
M  V30 20620 H 1977.22 6.42832 -1.0775 0
M  V30 20621 N 1980.65 1.29477 0.898527 0
M  V30 20622 C 1981.6 1.14706 2.00278 0
M  V30 20623 C 1982.57 0.040077 1.66052 0
M  V30 20624 O 1983.76 0.207808 1.89665 0
M  V30 20625 C 1980.9 0.830802 3.3495 0
M  V30 20626 C 1980.01 2.01834 3.81952 0
M  V30 20627 C 1979.14 1.64135 5.05206 0
M  V30 20628 C 1978.18 2.79464 5.44579 0
M  V30 20629 N 1977.32 2.42153 6.59019 0
M  V30 20630 H 1982.16 2.09181 2.12244 0
M  V30 20631 H 1979.7 1.04092 1.03939 0
M  V30 20632 H 1981.66 0.628119 4.12445 0
M  V30 20633 H 1980.29 -0.0770431 3.22708 0
M  V30 20634 H 1979.34 2.33269 3.00483 0
M  V30 20635 H 1980.65 2.88247 4.07081 0
M  V30 20636 H 1979.8 1.40163 5.90288 0
M  V30 20637 H 1978.54 0.748722 4.81918 0
M  V30 20638 H 1977.55 3.04117 4.58031 0
M  V30 20639 H 1978.77 3.69393 5.69847 0
M  V30 20640 H 1976.72 1.55379 6.37333 0
M  V30 20641 H 1976.64 3.221 6.8395 0
M  V30 20642 H 1977.9 2.21503 7.47366 0
M  V30 20643 N 1982.13 -1.10905 1.11972 0
M  V30 20644 C 1983.04 -2.20682 0.796029 0
M  V30 20645 C 1984.06 -1.72689 -0.213158 0
M  V30 20646 O 1985.23 -2.01343 -0.047955 0
M  V30 20647 C 1982.3 -3.45797 0.250055 0
M  V30 20648 C 1981.36 -4.08549 1.31855 0
M  V30 20649 C 1980.59 -5.27692 0.798538 0
M  V30 20650 O 1980.82 -5.69202 -0.369435 0
M  V30 20651 O 1979.75 -5.81174 1.5659 0
M  V30 20652 H 1983.58 -2.50794 1.71278 0
M  V30 20653 H 1981.16 -1.19548 0.896024 0
M  V30 20654 H 1983.04 -4.21371 -0.0497791 0
M  V30 20655 H 1981.72 -3.17324 -0.639327 0
M  V30 20656 H 1980.63 -3.34682 1.67148 0
M  V30 20657 H 1981.96 -4.41215 2.18153 0
M  V30 20658 N 1983.61 -0.910886 -1.2861 0
M  V30 20659 C 1984.84 -0.557522 -1.98935 0
M  V30 20660 C 1985.25 0.864875 -1.68275 0
M  V30 20661 O 1984.59 1.58401 -0.930312 0
M  V30 20662 C 1984.65 -0.683336 -3.52946 0
M  V30 20663 C 1984.32 -2.07475 -4.07189 0
M  V30 20664 C 1985.31 -3.04716 -4.21241 0
M  V30 20665 C 1983 -2.38716 -4.4195 0
M  V30 20666 C 1984.99 -4.31315 -4.69303 0
M  V30 20667 C 1982.68 -3.65555 -4.89707 0
M  V30 20668 C 1983.68 -4.61669 -5.0334 0
M  V30 20669 O 1983.37 -5.86254 -5.50056 0
M  V30 20670 H 1983.1 -0.211519 -0.642056 0
M  V30 20671 H 1985.65 -1.22539 -1.64843 0
M  V30 20672 H 1983.88 0.0415955 -3.86678 0
M  V30 20673 H 1985.57 -0.337494 -4.04494 0
M  V30 20674 H 1986.34 -2.81898 -3.94662 0
M  V30 20675 H 1982.22 -1.64658 -4.30591 0
M  V30 20676 H 1985.76 -5.0634 -4.79859 0
M  V30 20677 H 1981.66 -3.88199 -5.15724 0
M  V30 20678 H 1982.43 -5.89002 -5.68347 0
M  V30 20679 N 1985.09 1.42434 -0.674558 0
M  V30 20680 C 1986.04 2.308 0.00392457 0
M  V30 20681 C 1987.01 1.45949 0.792972 0
M  V30 20682 O 1988.19 1.74781 0.765269 0
M  V30 20683 C 1985.33 3.31784 0.949392 0
M  V30 20684 C 1984.44 4.31725 0.154193 0
M  V30 20685 C 1983.58 5.19783 1.09539 0
M  V30 20686 C 1982.62 6.11404 0.291864 0
M  V30 20687 N 1981.75 6.92015 1.18576 0
M  V30 20688 H 1986.59 2.88266 -0.755438 0
M  V30 20689 H 1984.13 1.41992 -0.384274 0
M  V30 20690 H 1986.09 3.88861 1.51138 0
M  V30 20691 H 1984.72 2.75918 1.67539 0
M  V30 20692 H 1983.77 3.76768 -0.524416 0
M  V30 20693 H 1985.08 4.96584 -0.469669 0
M  V30 20694 H 1984.24 5.81592 1.72732 0
M  V30 20695 H 1982.98 4.551 1.75314 0
M  V30 20696 H 1981.98 5.48664 -0.353276 0
M  V30 20697 H 1983.21 6.78136 -0.361786 0
M  V30 20698 H 1981.15 6.29961 1.82991 0
M  V30 20699 H 1981.07 7.53478 0.616968 0
M  V30 20700 H 1982.34 7.5831 1.80516 0
M  V30 20701 N 1986.57 0.417871 1.51959 0
M  V30 20702 C 1987.98 0.0691743 1.5945 0
M  V30 20703 C 1988.18 -1.41946 1.43016 0
M  V30 20704 O 1987.24 -2.18728 1.26152 0
M  V30 20705 C 1988.55 0.571902 2.95211 0
M  V30 20706 C 1990.1 0.530639 3.08469 0
M  V30 20707 C 1990.57 1.01002 4.46724 0
M  V30 20708 N 1992.07 0.967199 4.5299 0
M  V30 20709 C 1992.8 1.30921 5.58254 0
M  V30 20710 N 1992.3 1.72311 6.7103 0
M  V30 20711 N 1994.09 1.22862 5.48508 0
M  V30 20712 H 1986.24 1.38668 1.60888 0
M  V30 20713 H 1988.5 0.570206 0.757344 0
M  V30 20714 H 1988.21 1.6127 3.12546 0
M  V30 20715 H 1988.08 -0.0137455 3.77197 0
M  V30 20716 H 1990.47 -0.50113 2.90814 0
M  V30 20717 H 1990.55 1.15245 2.28369 0
M  V30 20718 H 1990.2 2.04016 4.65124 0
M  V30 20719 H 1990.13 0.364935 5.25334 0
M  V30 20720 H 1992.62 0.663 3.72039 0
M  V30 20721 H 1992.93 1.96696 7.47349 0
M  V30 20722 H 1991.27 1.76222 6.72288 0
M  V30 20723 H 1994.47 0.904063 4.59287 0
M  V30 20724 H 1994.64 1.49846 6.30437 0
M  V30 20725 N 1988.04 -1.56898 0.148573 0
M  V30 20726 C 1989.32 -1.87787 -0.547293 0
M  V30 20727 C 1989.7 -1.05479 -1.82859 0
M  V30 20728 O 1989.05 -0.142055 -2.28058 0
M  V30 20729 C 1989.26 -3.39441 -0.811223 0
M  V30 20730 C 1990.61 -4.08693 -1.1513 0
M  V30 20731 O 1991.63 -3.44629 -0.900524 0
M  V30 20732 O 1990.49 -5.21834 -1.62331 0
M  V30 20733 H 1987.58 -0.778385 -0.279368 0
M  V30 20734 H 1990.13 -1.68685 0.185302 0
M  V30 20735 H 1988.9 -3.91183 0.0955156 0
M  V30 20736 H 1988.53 -3.64076 -1.59794 0
M  V30 20737 N 1989.52 0.125209 -1.57102 0
M  V30 20738 C 1990.77 0.832437 -1.8416 0
M  V30 20739 C 1991.09 1.80706 -0.732819 0
M  V30 20740 O 1990.36 1.94378 0.243723 0
M  V30 20741 H 1988.94 0.310405 -0.679454 0
M  V30 20742 H 1991.6 0.114013 -1.94566 0
M  V30 20743 H 1990.7 1.38145 -2.79861 0
M  V30 20744 N 1991 1.52564 0.395213 0
M  V30 20745 C 1992.25 1.67552 1.14254 0
M  V30 20746 C 1992.58 0.411135 1.89798 0
M  V30 20747 O 1991.85 -0.590891 1.85307 0
M  V30 20748 C 1992.14 2.90657 2.1258 0
M  V30 20749 C 1991.99 4.27181 1.40841 0
M  V30 20750 C 1993.31 3.09301 3.13083 0
M  V30 20751 H 1990.43 0.609735 0.413995 0
M  V30 20752 H 1993.07 1.85148 0.426634 0
M  V30 20753 H 1991.22 2.75787 2.73631 0
M  V30 20754 H 1992.89 4.53808 0.82802 0
M  V30 20755 H 1991.14 4.27946 0.71028 0
M  V30 20756 H 1991.81 5.09393 2.12656 0
M  V30 20757 H 1994.28 3.23162 2.62118 0
M  V30 20758 H 1993.16 3.96925 3.79133 0
M  V30 20759 H 1993.42 2.23237 3.81599 0
M  V30 20760 N 1992.48 -0.653289 1.43422 0
M  V30 20761 C 1993.71 -1.44093 1.48475 0
M  V30 20762 C 1994.12 -1.88521 0.102614 0
M  V30 20763 O 1993.48 -1.59487 -0.887134 0
M  V30 20764 C 1993.53 -2.67595 2.43054 0
M  V30 20765 O 1993.25 -2.25025 3.75893 0
M  V30 20766 C 1994.75 -3.60953 2.57348 0
M  V30 20767 H 1991.97 -0.442658 0.504276 0
M  V30 20768 H 1994.52 -0.800914 1.88164 0
M  V30 20769 H 1992.67 -3.27736 2.06561 0
M  V30 20770 H 1993.08 -3.04932 4.26752 0
M  V30 20771 H 1994.56 -4.44276 3.27602 0
M  V30 20772 H 1995.04 -4.08295 1.61838 0
M  V30 20773 H 1995.64 -3.06693 2.94652 0
M  V30 20774 N 1993.96 -1.29952 -0.891648 0
M  V30 20775 C 1994.89 -1.18331 -2.01296 0
M  V30 20776 C 1995.87 -0.0755571 -1.69932 0
M  V30 20777 O 1997.05 -0.256435 -1.92499 0
M  V30 20778 C 1994.18 -0.867421 -3.36293 0
M  V30 20779 C 1993.14 -1.93237 -3.81894 0
M  V30 20780 C 1992.46 -1.46962 -5.14107 0
M  V30 20781 C 1993.76 -3.34246 -4.01344 0
M  V30 20782 H 1995.46 -2.12138 -2.11276 0
M  V30 20783 H 1993 -1.02132 -1.01514 0
M  V30 20784 H 1994.96 -0.772806 -4.14253 0
M  V30 20785 H 1993.68 0.106342 -3.26427 0
M  V30 20786 H 1992.34 -2.01651 -3.06157 0
M  V30 20787 H 1991.99 -0.484311 -5.00663 0
M  V30 20788 H 1991.69 -2.1819 -5.45589 0
M  V30 20789 H 1993.21 -1.38866 -5.94599 0
M  V30 20790 H 1994.62 -3.28629 -4.69762 0
M  V30 20791 H 1993.02 -4.03502 -4.44192 0
M  V30 20792 H 1994.09 -3.76629 -3.05415 0
M  V30 20793 N 1995.44 1.1031 -1.12559 0
M  V30 20794 C 1996.71 1.788 -0.793094 0
M  V30 20795 C 1997.09 1.98553 0.716932 0
M  V30 20796 O 1996.44 1.57962 1.65107 0
M  V30 20797 C 1996.65 3.1171 -1.56964 0
M  V30 20798 C 1998 3.86566 -1.75648 0
M  V30 20799 O 1999.02 3.21435 -1.53487 0
M  V30 20800 O 1997.88 5.03468 -2.1256 0
M  V30 20801 H 1994.98 0.775004 -0.288612 0
M  V30 20802 H 1997.52 1.16948 -1.22969 0
M  V30 20803 H 1996.29 2.92761 -2.59628 0
M  V30 20804 H 1995.92 3.81282 -1.12738 0
M  V30 20805 N 1996.91 0.917694 1.28125 0
M  V30 20806 C 1998.16 0.553715 1.95094 0
M  V30 20807 C 1998.49 -0.900999 1.72034 0
M  V30 20808 O 1997.77 -1.64132 1.04359 0
M  V30 20809 C 1998.05 0.868367 3.49473 0
M  V30 20810 C 1997.9 2.3761 3.81918 0
M  V30 20811 C 1999.22 0.367261 4.38565 0
M  V30 20812 H 1996.34 0.202644 0.708593 0
M  V30 20813 H 1998.98 1.14765 1.51423 0
M  V30 20814 H 1997.13 0.362898 3.86801 0
M  V30 20815 H 1998.81 2.95249 3.54437 0
M  V30 20816 H 1997.05 2.82945 3.28823 0
M  V30 20817 H 1997.72 2.5468 4.89737 0
M  V30 20818 H 2000.2 0.800328 4.08331 0
M  V30 20819 H 1999.07 0.616464 5.45427 0
M  V30 20820 H 1999.33 -0.732497 4.3599 0
M  V30 20821 N 1998.39 -1.42074 0.682102 0
M  V30 20822 C 1999.35 -2.29193 0.0174256 0
M  V30 20823 C 2000.35 -1.43698 -0.721635 0
M  V30 20824 O 2001.54 -1.65003 -0.558542 0
M  V30 20825 C 1998.68 -3.26332 -0.985903 0
M  V30 20826 H 1999.87 -2.89462 0.784316 0
M  V30 20827 H 1997.42 -1.49836 0.44485 0
M  V30 20828 H 1998.16 -2.71016 -1.78103 0
M  V30 20829 H 1997.94 -3.89401 -0.459258 0
M  V30 20830 H 1999.43 -3.91649 -1.44918 0
M  V30 20831 N 1999.87 -0.425924 -1.51735 0
M  V30 20832 C 2000.82 0.391248 -2.2746 0
M  V30 20833 C 2001.79 1.02669 -1.30569 0
M  V30 20834 O 2002.97 1.04777 -1.59457 0
M  V30 20835 C 2000.11 1.4928 -3.11142 0
M  V30 20836 C 1999.22 0.876622 -4.23012 0
M  V30 20837 C 1998.36 1.95227 -4.94024 0
M  V30 20838 C 1997.4 1.31392 -5.97832 0
M  V30 20839 N 1996.54 2.33043 -6.62296 0
M  V30 20840 H 2001.38 -0.26089 -2.96856 0
M  V30 20841 H 1998.91 -0.1405 -1.46427 0
M  V30 20842 H 2000.87 2.14262 -3.57977 0
M  V30 20843 H 1999.5 2.11473 -2.43884 0
M  V30 20844 H 1998.55 0.115399 -3.80225 0
M  V30 20845 H 1999.86 0.370471 -4.97422 0
M  V30 20846 H 1999.02 2.67897 -5.44349 0
M  V30 20847 H 1997.76 2.49212 -4.19219 0
M  V30 20848 H 1996.76 0.572626 -5.4681 0
M  V30 20849 H 1997.99 0.781544 -6.74588 0
M  V30 20850 H 1995.93 2.86129 -5.9031 0
M  V30 20851 H 1995.85 1.87287 -7.32434 0
M  V30 20852 H 1997.12 3.05231 -7.17255 0
M  V30 20853 N 2001.35 1.56817 -0.156891 0
M  V30 20854 C 2002.31 2.16058 0.764967 0
M  V30 20855 C 2003.31 1.10488 1.16829 0
M  V30 20856 O 2004.5 1.36077 1.0876 0
M  V30 20857 C 2001.63 2.73173 2.03935 0
M  V30 20858 H 2002.83 2.98861 0.249482 0
M  V30 20859 H 2000.38 1.56025 0.0926074 0
M  V30 20860 H 2001.11 1.94064 2.59827 0
M  V30 20861 H 2000.9 3.50417 1.75926 0
M  V30 20862 H 2002.39 3.18783 2.69754 0
M  V30 20863 N 2002.83 -0.116876 1.57166 0
M  V30 20864 C 2004.05 -0.838417 1.89151 0
M  V30 20865 C 2004.47 -1.73335 0.748361 0
M  V30 20866 O 2003.83 -1.80328 -0.280719 0
M  V30 20867 C 2003.88 -1.67006 3.20611 0
M  V30 20868 O 2003.6 -0.811158 4.30525 0
M  V30 20869 C 2005.1 -2.49657 3.66314 0
M  V30 20870 H 2002.32 -0.240909 0.626262 0
M  V30 20871 H 2004.86 -0.100631 2.04252 0
M  V30 20872 H 2003.02 -2.36058 3.07173 0
M  V30 20873 H 2003.43 -1.38499 5.05884 0
M  V30 20874 H 2004.91 -3.03537 4.61052 0
M  V30 20875 H 2005.38 -3.27114 2.93075 0
M  V30 20876 H 2005.99 -1.85844 3.82547 0
M  V30 20877 N 2004.3 -1.52772 -0.387116 0
M  V30 20878 C 2005.21 -1.8061 -1.49724 0
M  V30 20879 C 2006.23 -0.692981 -1.59605 0
M  V30 20880 O 2007.41 -0.98077 -1.75906 0
M  V30 20881 C 2004.47 -1.97083 -2.85236 0
M  V30 20882 C 2003.53 -3.20997 -2.8506 0
M  V30 20883 C 2002.76 -3.36675 -4.14108 0
M  V30 20884 O 2002.99 -2.57118 -5.09163 0
M  V30 20885 O 2001.92 -4.29938 -4.21233 0
M  V30 20886 H 2005.75 -2.7488 -1.2913 0
M  V30 20887 H 2003.33 -1.37886 -0.57514 0
M  V30 20888 H 2005.21 -2.09614 -3.65568 0
M  V30 20889 H 2003.89 -1.06002 -3.05852 0
M  V30 20890 H 2002.8 -3.13907 -2.03503 0
M  V30 20891 H 2004.13 -4.1193 -2.69396 0
M  V30 20892 N 2005.78 0.645673 -1.43767 0
M  V30 20893 C 2007.01 1.43303 -1.49237 0
M  V30 20894 C 2007.42 1.88464 -0.11261 0
M  V30 20895 O 2006.78 1.59955 0.878664 0
M  V30 20896 C 2006.83 2.66302 -2.4447 0
M  V30 20897 O 2006.55 2.23028 -3.77081 0
M  V30 20898 C 2008.05 3.59583 -2.59259 0
M  V30 20899 H 2005.27 0.439978 -0.506617 0
M  V30 20900 H 2007.82 0.790924 -1.88586 0
M  V30 20901 H 2005.97 3.26636 -2.08296 0
M  V30 20902 H 2006.39 3.02664 -4.28363 0
M  V30 20903 H 2007.86 4.42532 -3.29953 0
M  V30 20904 H 2008.34 4.07431 -1.64001 0
M  V30 20905 H 2008.94 3.05126 -2.96274 0
M  V30 20906 N 2007.26 1.30423 0.884744 0
M  V30 20907 C 2008.5 1.20543 1.65072 0
M  V30 20908 C 2008.86 -0.236066 1.90543 0
M  V30 20909 O 2010.06 -0.458107 2.64868 0
M  V30 20910 C 2008.34 2.01135 2.95431 0
M  V30 20911 S 2009.89 2.07956 3.86393 0
M  V30 20912 H 2006.71 0.429572 0.566559 0
M  V30 20913 H 2009.31 1.64901 1.05014 0
M  V30 20914 H 2008.02 3.04981 2.74618 0
M  V30 20915 H 2007.55 1.57439 3.60522 0
M  V30 20916 H 2009.56 1.20711 4.81293 0
M  V30 20917 N 2008.74 -1.09711 1.13142 0
M  V30 20918 C 2009.65 -2.19825 0.819391 0
M  V30 20919 C 2010.66 -1.72906 -0.19483 0
M  V30 20920 O 2011.84 -2.01382 -0.0265972 0
M  V30 20921 C 2008.9 -3.45512 0.286717 0
M  V30 20922 C 2007.97 -4.07128 1.36181 0
M  V30 20923 C 2007.2 -5.26816 0.854462 0
M  V30 20924 O 2007.42 -5.69562 -0.309043 0
M  V30 20925 O 2006.36 -5.79481 1.62745 0
M  V30 20926 H 2010.18 -2.48963 1.73928 0
M  V30 20927 H 2007.77 -1.18591 0.908654 0
M  V30 20928 H 2009.65 -4.214 -0.00508436 0
M  V30 20929 H 2008.32 -3.17984 -0.605634 0
M  V30 20930 H 2007.23 -3.32891 1.70689 0
M  V30 20931 H 2008.56 -4.38876 2.2282 0
M  V30 20932 N 2010.22 -0.924476 -1.27637 0
M  V30 20933 C 2011.49 -0.481742 -1.89575 0
M  V30 20934 C 2011.87 1.04002 -1.83703 0
M  V30 20935 O 2011.22 1.89277 -1.28009 0
M  V30 20936 C 2011.43 -1.02419 -3.33633 0
M  V30 20937 C 2012.78 -1.08274 -4.10563 0
M  V30 20938 O 2013.8 -0.97359 -3.42636 0
M  V30 20939 O 2012.66 -1.25042 -5.32003 0
M  V30 20940 H 2009.76 -0.15444 -0.812451 0
M  V30 20941 H 2012.3 -1.01596 -1.35928 0
M  V30 20942 H 2011.07 -2.06808 -3.32184 0
M  V30 20943 H 2010.7 -0.471435 -3.94795 0
M  V30 20944 N 2011.69 1.41711 -0.689627 0
M  V30 20945 C 2012.93 2.03189 -0.222164 0
M  V30 20946 C 2013.3 1.53416 1.15445 0
M  V30 20947 O 2014.5 2.06781 1.71742 0
M  V30 20948 C 2012.77 3.56371 -0.271028 0
M  V30 20949 S 2014.33 4.38627 0.12326 0
M  V30 20950 H 2011.15 0.705282 -0.0899882 0
M  V30 20951 H 2013.75 1.73235 -0.906082 0
M  V30 20952 H 2012.45 3.90091 -1.27502 0
M  V30 20953 H 2011.98 3.91018 0.432235 0
M  V30 20954 H 2014 4.77408 1.35264 0
M  V30 20955 N 2013.17 0.433965 1.51507 0
M  V30 20956 C 2014.4 -0.134793 2.06962 0
M  V30 20957 C 2014.82 -1.35984 1.29962 0
M  V30 20958 O 2014.18 -1.78147 0.336629 0
M  V30 20959 C 2014.23 -0.438976 3.57918 0
M  V30 20960 O 2013.33 -1.52599 3.83128 0
M  V30 20961 H 2012.67 -0.00334493 0.663992 0
M  V30 20962 H 2015.2 0.614327 1.95159 0
M  V30 20963 H 2015.21 -0.690415 4.02116 0
M  V30 20964 H 2013.89 0.456413 4.13388 0
M  V30 20965 H 2012.47 -1.26478 3.50796 0
M  V30 20966 N 2014.65 -1.56732 0.165206 0
M  V30 20967 C 2016.06 -1.83341 -0.352565 0
M  V30 20968 C 2016.41 -1.08475 -1.63486 0
M  V30 20969 O 2015.54 -0.335821 -2.13778 0
M  V30 20970 C 2016.13 -3.32576 -0.646444 0
M  V30 20971 C 2014.69 -3.59702 -1.10867 0
M  V30 20972 C 2013.84 -2.7694 -0.14131 0
M  V30 20973 H 2016.79 -1.53844 0.389583 0
M  V30 20974 H 2016.81 -3.49721 -1.49918 0
M  V30 20975 H 2016.32 -3.87037 0.287005 0
M  V30 20976 H 2014.42 -3.10645 -2.05744 0
M  V30 20977 H 2014.54 -4.68071 -1.02206 0
M  V30 20978 H 2012.9 -2.46593 -0.637492 0
M  V30 20979 H 2013.68 -3.3418 0.786052 0
M  V30 20980 N 2016.13 0.10854 -1.57226 0
M  V30 20981 C 2017.09 1.11675 -2.00153 0
M  V30 20982 C 2018.09 1.33716 -0.89312 0
M  V30 20983 O 2019.28 1.30056 -1.15892 0
M  V30 20984 C 2016.41 2.46892 -2.35069 0
M  V30 20985 H 2017.61 0.747556 -2.90433 0
M  V30 20986 H 2015.16 0.35317 -1.52258 0
M  V30 20987 H 2015.89 2.88713 -1.47701 0
M  V30 20988 H 2015.68 2.32245 -3.15918 0
M  V30 20989 H 2017.17 3.19433 -2.68984 0
M  V30 20990 N 2017.61 1.52975 0.379009 0
M  V30 20991 C 2018.55 1.79115 1.48393 0
M  V30 20992 C 2019.55 0.659562 1.56032 0
M  V30 20993 O 2020.75 0.842243 1.59079 0
M  V30 20994 H 2017.13 0.566908 0.494084 0
M  V30 20995 H 2019.1 2.71624 1.23544 0
M  V30 20996 C 2017.85 1.98595 2.85404 0
M  V30 20997 H 2017.17 2.85102 2.8028 0
M  V30 20998 H 2018.61 2.2087 3.61929 0
M  V30 20999 C 2017.07 0.761257 3.28187 0
M  V30 21000 O 2017.6 -0.0565264 4.0166 0
M  V30 21001 N 2015.81 0.588515 2.84578 0
M  V30 21002 H 2015.35 1.25513 2.24954 0
M  V30 21003 H 2015.31 -0.229535 3.13561 0
M  V30 21004 N 2019.08 -0.63804 1.44107 0
M  V30 21005 C 2020.33 -1.39772 1.46526 0
M  V30 21006 C 2020.66 -1.94267 0.0952359 0
M  V30 21007 O 2019.91 -1.73674 -0.901993 0
M  V30 21008 C 2020.21 -2.58567 2.46734 0
M  V30 21009 C 2019.88 -2.22403 3.92234 0
M  V30 21010 C 2018.54 -2.12252 4.31859 0
M  V30 21011 C 2020.89 -1.93717 4.83863 0
M  V30 21012 C 2018.22 -1.71594 5.61046 0
M  V30 21013 C 2020.57 -1.54553 6.1343 0
M  V30 21014 C 2019.24 -1.42939 6.52016 0
M  V30 21015 H 2018.51 -0.511463 0.536177 0
M  V30 21016 H 2021.15 -0.724184 1.77279 0
M  V30 21017 H 2019.46 -3.31123 2.0944 0
M  V30 21018 H 2021.16 -3.16791 2.45855 0
M  V30 21019 H 2017.75 -2.31219 3.60882 0
M  V30 21020 H 2021.93 -2.00472 4.5401 0
M  V30 21021 H 2017.19 -1.612 5.89766 0
M  V30 21022 H 2021.36 -1.31393 6.83892 0
M  V30 21023 H 2018.99 -1.11206 7.52022 0
M  V30 21024 N 2020.56 -1.3089 -0.877815 0
M  V30 21025 C 2021.51 -1.17878 -1.98427 0
M  V30 21026 C 2022.48 -0.0664893 -1.65967 0
M  V30 21027 O 2023.66 -0.237956 -1.8931 0
M  V30 21028 C 2020.8 -0.883984 -3.33586 0
M  V30 21029 C 2019.92 -2.07885 -3.78692 0
M  V30 21030 C 2019.05 -1.72152 -5.02531 0
M  V30 21031 C 2018.09 -2.88092 -5.40064 0
M  V30 21032 N 2017.23 -2.52607 -6.55083 0
M  V30 21033 H 2022.07 -2.12531 -2.08889 0
M  V30 21034 H 2019.61 -1.05732 -1.0227 0
M  V30 21035 H 2021.56 -0.693656 -4.11393 0
M  V30 21036 H 2020.19 0.0256933 -3.2279 0
M  V30 21037 H 2019.25 -2.3802 -2.96733 0
M  V30 21038 H 2020.56 -2.94687 -4.02444 0
M  V30 21039 H 2019.71 -1.49536 -5.87983 0
M  V30 21040 H 2018.45 -0.825297 -4.80666 0
M  V30 21041 H 2017.46 -3.11366 -4.53135 0
M  V30 21042 H 2018.68 -3.78412 -5.63898 0
M  V30 21043 H 2016.63 -1.65499 -6.3478 0
M  V30 21044 H 2016.54 -3.3294 -6.78739 0
M  V30 21045 H 2017.81 -2.33365 -7.43748 0
M  V30 21046 N 2022.04 1.0911 -1.13723 0
M  V30 21047 C 2022.99 2.15834 -0.817576 0
M  V30 21048 C 2023.96 1.64613 0.221749 0
M  V30 21049 O 2025.14 1.90572 0.0932703 0
M  V30 21050 C 2022.28 3.43851 -0.293315 0
M  V30 21051 C 2021.4 4.08956 -1.39208 0
M  V30 21052 C 2020.53 5.24741 -0.825823 0
M  V30 21053 C 2019.57 5.81774 -1.90277 0
M  V30 21054 N 2018.71 6.88916 -1.35421 0
M  V30 21055 H 2023.55 2.42519 -1.73172 0
M  V30 21056 H 2021.08 1.19026 -0.864368 0
M  V30 21057 H 2023.04 4.1719 0.0288002 0
M  V30 21058 H 2021.67 3.17474 0.583951 0
M  V30 21059 H 2020.72 3.33449 -1.83073 0
M  V30 21060 H 2022.04 4.47372 -2.2059 0
M  V30 21061 H 2021.19 6.0499 -0.455184 0
M  V30 21062 H 2019.93 4.87696 0.0190362 0
M  V30 21063 H 2018.93 5.00185 -2.28244 0
M  V30 21064 H 2020.16 6.2088 -2.75109 0
M  V30 21065 H 2018.1 6.53844 -0.531412 0
M  V30 21066 H 2018.02 7.26118 -2.10448 0
M  V30 21067 H 2019.29 7.72913 -1.01125 0
M  V30 21068 N 2023.52 0.931232 1.27145 0
M  V30 21069 C 2024.76 0.580868 1.95973 0
M  V30 21070 C 2025.12 -0.862425 1.71541 0
M  V30 21071 O 2026.32 -1.32124 2.34087 0
M  V30 21072 C 2024.59 0.902054 3.45829 0
M  V30 21073 S 2026.15 0.660737 4.33797 0
M  V30 21074 H 2022.97 0.21429 0.677939 0
M  V30 21075 H 2025.57 1.20042 1.54305 0
M  V30 21076 H 2024.28 1.95008 3.61109 0
M  V30 21077 H 2023.81 0.271831 3.9246 0
M  V30 21078 H 2025.82 -0.479804 4.93875 0
M  V30 21079 N 2025 -1.41343 0.697132 0
M  V30 21080 C 2025.93 -2.28193 -0.017778 0
M  V30 21081 C 2026.91 -1.4232 -0.786373 0
M  V30 21082 O 2028.09 -1.71747 -0.776865 0
M  V30 21083 C 2025.22 -3.22577 -1.03256 0
M  V30 21084 C 2024.27 -4.25004 -0.356949 0
M  V30 21085 S 2025.1 -5.27852 0.901798 0
M  V30 21086 C 2026.25 -6.25801 -0.111346 0
M  V30 21087 H 2026.49 -2.88479 0.718839 0
M  V30 21088 H 2024.02 -1.46503 0.487463 0
M  V30 21089 H 2025.98 -3.77487 -1.61288 0
M  V30 21090 H 2024.64 -2.61384 -1.74176 0
M  V30 21091 H 2023.83 -4.9132 -1.12343 0
M  V30 21092 H 2023.43 -3.73698 0.150343 0
M  V30 21093 H 2025.73 -6.70605 -0.964122 0
M  V30 21094 H 2026.67 -7.06203 0.517933 0
M  V30 21095 H 2027.08 -5.62566 -0.466819 0
M  V30 21096 N 2026.48 -0.441993 -1.51275 0
M  V30 21097 C 2027.89 0.0200405 -1.86689 0
M  V30 21098 C 2028.24 1.41527 -1.35885 0
M  V30 21099 O 2027.36 2.04366 -0.711583 0
M  V30 21100 C 2027.96 0.0431426 -3.38773 0
M  V30 21101 C 2026.52 0.449604 -3.73705 0
M  V30 21102 C 2025.66 -0.354706 -2.75022 0
M  V30 21103 H 2028.61 -0.657627 -1.44433 0
M  V30 21104 H 2028.64 0.851643 -3.70847 0
M  V30 21105 H 2028.15 -0.97245 -3.75719 0
M  V30 21106 H 2026.25 1.47063 -3.4235 0
M  V30 21107 H 2026.36 0.171167 -4.78794 0
M  V30 21108 H 2024.73 0.187631 -2.54008 0
M  V30 21109 H 2025.51 -1.36926 -3.14811 0
M  V30 21110 N 2027.95 1.56642 -0.173515 0
M  V30 21111 C 2028.88 2.21076 0.751509 0
M  V30 21112 C 2029.86 1.16706 1.23749 0
M  V30 21113 O 2031.05 1.45142 1.29025 0
M  V30 21114 C 2028.18 2.85323 1.9801 0
M  V30 21115 C 2027.13 3.95751 1.62989 0
M  V30 21116 C 2026.46 4.47058 2.93332 0
M  V30 21117 C 2027.76 5.15234 0.856231 0
M  V30 21118 H 2029.45 2.98631 0.21442 0
M  V30 21119 H 2027 1.4364 0.101692 0
M  V30 21120 H 2028.95 3.29075 2.63226 0
M  V30 21121 H 2027.68 2.0514 2.54136 0
M  V30 21122 H 2026.34 3.52658 1.00141 0
M  V30 21123 H 2025.98 3.63663 3.47503 0
M  V30 21124 H 2025.68 5.21556 2.70652 0
M  V30 21125 H 2027.21 4.93497 3.59573 0
M  V30 21126 H 2028.62 5.55665 1.41102 0
M  V30 21127 H 2027.02 5.95663 0.728389 0
M  V30 21128 H 2028.09 4.84677 -0.147009 0
M  V30 21129 N 2029.43 -0.1002 1.57281 0
M  V30 21130 C 2030.68 -0.803295 1.85014 0
M  V30 21131 C 2030.99 -1.80146 0.762017 0
M  V30 21132 O 2032.2 -2.55209 0.926311 0
M  V30 21133 C 2030.66 -1.47942 3.28087 0
M  V30 21134 C 2030.26 -0.521281 4.44957 0
M  V30 21135 C 2032.01 -2.16654 3.65049 0
M  V30 21136 C 2029.91 -1.20171 5.79062 0
M  V30 21137 H 2028.84 -0.303744 0.690113 0
M  V30 21138 H 2031.5 -0.0561819 1.83414 0
M  V30 21139 H 2029.88 -2.27382 3.24212 0
M  V30 21140 H 2031.05 0.241249 4.60168 0
M  V30 21141 H 2029.37 0.0598694 4.16357 0
M  V30 21142 H 2031.96 -2.68286 4.62522 0
M  V30 21143 H 2032.31 -2.95316 2.93418 0
M  V30 21144 H 2032.84 -1.44081 3.7079 0
M  V30 21145 H 2029.58 -0.456001 6.53912 0
M  V30 21146 H 2029.1 -1.93579 5.67704 0
M  V30 21147 H 2030.78 -1.72963 6.23452 0
M  V30 21148 N 2030.91 -1.53174 -0.370891 0
M  V30 21149 C 2032.15 -1.70797 -1.12284 0
M  V30 21150 C 2032.51 -0.44749 -1.86712 0
M  V30 21151 O 2033.71 -0.500342 -2.64102 0
M  V30 21152 C 2031.99 -2.92004 -2.06078 0
M  V30 21153 S 2033.54 -3.30307 -2.88864 0
M  V30 21154 H 2030.36 -0.601048 -0.379819 0
M  V30 21155 H 2032.96 -1.91263 -0.404795 0
M  V30 21156 H 2031.67 -3.81946 -1.50152 0
M  V30 21157 H 2031.2 -2.73925 -2.82363 0
M  V30 21158 H 2033.21 -2.81906 -4.08342 0
M  V30 21159 N 2032.39 0.630389 -1.44443 0
M  V30 21160 C 2033.64 1.38719 -1.46975 0
M  V30 21161 C 2033.96 1.94723 -0.103861 0
M  V30 21162 O 2033.23 1.75822 0.863919 0
M  V30 21163 H 2031.81 0.5149 -0.54119 0
M  V30 21164 H 2034.47 0.741905 -1.80227 0
M  V30 21165 H 2033.56 2.21813 -2.19557 0
M  V30 21166 N 2033.87 1.31354 0.870861 0
M  V30 21167 C 2034.81 1.18928 1.978 0
M  V30 21168 C 2035.78 0.07529 1.65929 0
M  V30 21169 O 2036.97 0.247992 1.89181 0
M  V30 21170 C 2034.11 0.901663 3.33113 0
M  V30 21171 C 2033.22 2.0989 3.77584 0
M  V30 21172 C 2032.36 1.74815 5.01611 0
M  V30 21173 C 2031.39 2.90952 5.38529 0
M  V30 21174 N 2030.53 2.56077 6.53734 0
M  V30 21175 H 2035.37 2.13636 2.07759 0
M  V30 21176 H 2032.91 1.06273 1.01708 0
M  V30 21177 H 2034.87 0.715464 4.11019 0
M  V30 21178 H 2033.5 -0.00857463 3.22799 0
M  V30 21179 H 2032.55 2.3959 2.95467 0
M  V30 21180 H 2033.86 2.96817 4.00875 0
M  V30 21181 H 2033.01 1.52652 5.87182 0
M  V30 21182 H 2031.75 0.850776 4.80222 0
M  V30 21183 H 2030.76 3.13764 4.51478 0
M  V30 21184 H 2031.98 3.81397 5.61884 0
M  V30 21185 H 2029.93 1.68863 6.33894 0
M  V30 21186 H 2029.85 3.36535 6.76964 0
M  V30 21187 H 2031.11 2.37306 7.425 0
M  V30 21188 N 2035.34 -1.08505 1.143 0
M  V30 21189 C 2036.31 -2.13573 0.831813 0
M  V30 21190 C 2037.31 -1.59971 -0.163092 0
M  V30 21191 O 2038.5 -1.74078 0.0651356 0
M  V30 21192 C 2035.63 -3.40056 0.239795 0
M  V30 21193 H 2036.82 -2.4261 1.76297 0
M  V30 21194 H 2034.37 -1.24201 0.94889 0
M  V30 21195 H 2035.11 -3.16652 -0.700121 0
M  V30 21196 H 2034.89 -3.80257 0.956388 0
M  V30 21197 H 2036.38 -4.17582 0.0392538 0
M  V30 21198 N 2036.82 -0.937962 -1.26649 0
M  V30 21199 C 2037.75 -0.462649 -2.28871 0
M  V30 21200 C 2038.73 0.4824 -1.63116 0
M  V30 21201 O 2039.92 0.384947 -1.90347 0
M  V30 21202 C 2037.05 0.275964 -3.46202 0
M  V30 21203 C 2036 -0.582222 -4.24021 0
M  V30 21204 C 2035.33 0.286161 -5.33934 0
M  V30 21205 C 2036.63 -1.85193 -4.88365 0
M  V30 21206 H 2038.32 -1.31698 -2.68879 0
M  V30 21207 H 2035.87 -0.634709 -1.29257 0
M  V30 21208 H 2037.82 0.619496 -4.16822 0
M  V30 21209 H 2036.54 1.1644 -3.05138 0
M  V30 21210 H 2035.2 -0.908604 -3.55162 0
M  V30 21211 H 2034.85 1.17386 -4.89111 0
M  V30 21212 H 2034.55 -0.284618 -5.8691 0
M  V30 21213 H 2036.08 0.625035 -6.07393 0
M  V30 21214 H 2037.49 -1.57584 -5.51217 0
M  V30 21215 H 2035.89 -2.36702 -5.51445 0
M  V30 21216 H 2036.96 -2.56526 -4.11488 0
M  V30 21217 N 2038.3 1.40971 -0.704618 0
M  V30 21218 C 2039.23 2.29199 -0.00575899 0
M  V30 21219 C 2040.24 1.45259 0.735102 0
M  V30 21220 O 2041.43 1.68666 0.584302 0
M  V30 21221 C 2038.53 3.23311 1.01604 0
M  V30 21222 C 2037.71 4.36053 0.342951 0
M  V30 21223 C 2036.77 5.10679 1.26861 0
M  V30 21224 O 2035.79 5.64136 0.757556 0
M  V30 21225 N 2036.99 5.18997 2.60043 0
M  V30 21226 H 2039.76 2.89818 -0.763264 0
M  V30 21227 H 2037.32 1.52222 -0.551367 0
M  V30 21228 H 2039.31 3.70104 1.63722 0
M  V30 21229 H 2037.88 2.63937 1.675 0
M  V30 21230 H 2037.1 3.91527 -0.458254 0
M  V30 21231 H 2038.39 5.08647 -0.124708 0
M  V30 21232 H 2037.79 4.77029 3.04072 0
M  V30 21233 H 2036.34 5.69336 3.17333 0
M  V30 21234 N 2039.78 0.45001 1.51039 0
M  V30 21235 C 2040.71 -0.345315 2.30933 0
M  V30 21236 C 2041.69 -1.00959 1.36899 0
M  V30 21237 O 2042.87 -1.0108 1.6582 0
M  V30 21238 C 2040 -1.43968 3.16055 0
M  V30 21239 C 2038.96 -0.898198 4.18469 0
M  V30 21240 C 2038.28 -2.08927 4.92193 0
M  V30 21241 C 2039.58 0.0760911 5.22245 0
M  V30 21242 H 2041.28 0.321441 2.97669 0
M  V30 21243 H 2038.82 0.156032 1.43152 0
M  V30 21244 H 2040.78 -2.00338 3.70732 0
M  V30 21245 H 2039.5 -2.1349 2.47163 0
M  V30 21246 H 2038.16 -0.356617 3.64861 0
M  V30 21247 H 2037.81 -2.77098 4.19792 0
M  V30 21248 H 2037.51 -1.73328 5.61454 0
M  V30 21249 H 2039.03 -2.65827 5.49698 0
M  V30 21250 H 2040.45 -0.397728 5.71919 0
M  V30 21251 H 2038.84 0.345281 5.99106 0
M  V30 21252 H 2039.91 1.00878 4.74291 0
M  V30 21253 N 2041.26 -1.56548 0.18182 0
M  V30 21254 C 2042.2 -2.18468 -0.744342 0
M  V30 21255 C 2043.17 -1.12785 -1.21938 0
M  V30 21256 O 2044.36 -1.4098 -1.28566 0
M  V30 21257 C 2041.5 -2.83772 -1.96386 0
M  V30 21258 C 2040.61 -4.03945 -1.53142 0
M  V30 21259 C 2039.75 -4.57144 -2.70542 0
M  V30 21260 C 2038.79 -5.69704 -2.23839 0
M  V30 21261 N 2037.92 -6.17367 -3.34369 0
M  V30 21262 H 2042.76 -2.97262 -0.209544 0
M  V30 21263 H 2040.3 -1.46814 -0.0916937 0
M  V30 21264 H 2042.26 -3.19797 -2.67929 0
M  V30 21265 H 2040.89 -2.07564 -2.47219 0
M  V30 21266 H 2039.94 -3.73671 -0.712347 0
M  V30 21267 H 2041.25 -4.85393 -1.14868 0
M  V30 21268 H 2040.41 -4.95405 -3.50226 0
M  V30 21269 H 2039.14 -3.74775 -3.12082 0
M  V30 21270 H 2038.15 -5.30984 -1.42604 0
M  V30 21271 H 2039.37 -6.53882 -1.83345 0
M  V30 21272 H 2037.32 -5.37924 -3.75465 0
M  V30 21273 H 2037.24 -6.93832 -3.00221 0
M  V30 21274 H 2038.51 -6.6028 -4.14307 0
M  V30 21275 N 2042.73 0.0918577 -1.57332 0
M  V30 21276 C 2043.96 0.81208 -1.9084 0
M  V30 21277 C 2044.38 1.71329 -0.776394 0
M  V30 21278 O 2043.74 1.7925 0.271867 0
M  V30 21279 C 2043.79 1.59867 -3.23226 0
M  V30 21280 O 2042.89 2.70787 -3.11044 0
M  V30 21281 H 2042.24 0.222886 -0.625474 0
M  V30 21282 H 2044.77 0.0661119 -2.04493 0
M  V30 21283 H 2044.78 1.98221 -3.56613 0
M  V30 21284 H 2043.45 0.937296 -4.05201 0
M  V30 21285 H 2042.03 2.35438 -2.89177 0
M  V30 21286 N 2044.21 1.53368 0.362763 0
M  V30 21287 C 2045.63 1.43203 0.704623 0
M  V30 21288 C 2045.83 0.573363 1.9317 0
M  V30 21289 O 2044.88 0.0568943 2.52436 0
M  V30 21290 C 2046.2 2.86434 0.915198 0
M  V30 21291 C 2047.75 2.96085 1.01503 0
M  V30 21292 C 2048.22 4.40383 1.25806 0
M  V30 21293 N 2049.71 4.43824 1.32569 0
M  V30 21294 C 2050.45 5.52586 1.53089 0
M  V30 21295 N 2049.94 6.71389 1.70906 0
M  V30 21296 N 2051.74 5.40169 1.55481 0
M  V30 21297 H 2043.89 2.07701 -0.444302 0
M  V30 21298 H 2046.15 0.938087 -0.136733 0
M  V30 21299 H 2045.86 3.51596 0.0853212 0
M  V30 21300 H 2045.73 3.3025 1.82249 0
M  V30 21301 H 2048.12 2.31074 1.83545 0
M  V30 21302 H 2048.2 2.55659 0.0850686 0
M  V30 21303 H 2047.84 5.05967 0.442642 0
M  V30 21304 H 2047.77 4.78384 2.20128 0
M  V30 21305 H 2050.26 3.58206 1.20402 0
M  V30 21306 H 2050.58 7.50047 1.86144 0
M  V30 21307 H 2048.92 6.7437 1.68079 0
M  V30 21308 H 2052.11 4.46318 1.41131 0
M  V30 21309 H 2052.28 6.24994 1.71131 0
M  V30 21310 N 2045.69 -0.62272 1.44776 0
M  V30 21311 C 2046.64 -1.73427 1.52288 0
M  V30 21312 C 2047.61 -1.61928 0.369917 0
M  V30 21313 O 2048.79 -1.81729 0.581308 0
M  V30 21314 C 2045.93 -3.117 1.48112 0
M  V30 21315 C 2045.05 -3.34114 2.73847 0
M  V30 21316 C 2044.18 -4.62407 2.61445 0
M  V30 21317 C 2043.22 -4.78027 3.82304 0
M  V30 21318 N 2042.36 -5.97605 3.68528 0
M  V30 21319 H 2047.2 -1.66341 2.47254 0
M  V30 21320 H 2044.73 -0.811311 1.22704 0
M  V30 21321 H 2046.69 -3.91678 1.4368 0
M  V30 21322 H 2045.32 -3.1778 0.567076 0
M  V30 21323 H 2044.37 -2.48017 2.8843 0
M  V30 21324 H 2045.69 -3.41533 3.63533 0
M  V30 21325 H 2044.84 -5.50558 2.54894 0
M  V30 21326 H 2043.58 -4.5736 1.69333 0
M  V30 21327 H 2042.58 -3.88303 3.89231 0
M  V30 21328 H 2043.81 -4.84883 4.75464 0
M  V30 21329 H 2041.75 -5.93631 2.79173 0
M  V30 21330 H 2041.67 -6.06118 4.51838 0
M  V30 21331 H 2042.94 -6.88295 3.65883 0
M  V30 21332 N 2047.17 -1.31814 -0.863883 0
M  V30 21333 C 2048.42 -1.21607 -1.61419 0
M  V30 21334 C 2048.74 0.22444 -1.93704 0
M  V30 21335 O 2048.01 1.14677 -1.58827 0
M  V30 21336 H 2046.59 -0.447091 -0.59843 0
M  V30 21337 H 2049.25 -1.65218 -1.03388 0
M  V30 21338 H 2048.35 -1.79213 -2.55517 0
M  V30 21339 N 2048.65 1.07897 -1.14873 0
M  V30 21340 C 2049.92 1.77077 -0.830842 0
M  V30 21341 C 2050.3 2.00029 0.674654 0
M  V30 21342 O 2049.65 1.61429 1.61719 0
M  V30 21343 C 2049.86 3.08311 -1.63541 0
M  V30 21344 C 2051.21 3.82753 -1.83808 0
M  V30 21345 O 2052.23 3.18107 -1.6027 0
M  V30 21346 O 2051.09 4.98846 -2.23192 0
M  V30 21347 H 2048.19 0.768708 -0.304987 0
M  V30 21348 H 2050.73 1.14313 -1.25422 0
M  V30 21349 H 2049.5 2.87188 -2.6578 0
M  V30 21350 H 2049.13 3.78805 -1.208 0
M  V30 21351 N 2050.12 0.944665 1.2615 0
M  V30 21352 C 2051.37 0.592919 1.93207 0
M  V30 21353 C 2051.69 -0.871356 1.74449 0
M  V30 21354 O 2050.96 -1.61953 1.10218 0
M  V30 21355 H 2049.54 0.216296 0.715 0
M  V30 21356 H 2052.21 1.20074 1.53519 0
M  V30 21357 H 2051.3 0.813682 3.01307 0
M  V30 21358 N 2051.6 -1.40596 0.712085 0
M  V30 21359 C 2052.54 -2.28199 0.00642592 0
M  V30 21360 C 2053.51 -1.43146 -0.771234 0
M  V30 21361 O 2054.7 -1.72561 -0.758605 0
M  V30 21362 C 2051.82 -3.23654 -0.998287 0
M  V30 21363 C 2050.87 -4.25358 -0.311852 0
M  V30 21364 S 2051.7 -5.26866 0.957734 0
M  V30 21365 C 2052.86 -6.25884 -0.0449648 0
M  V30 21366 H 2053.09 -2.877 0.749396 0
M  V30 21367 H 2050.63 -1.45978 0.502974 0
M  V30 21368 H 2052.58 -3.79176 -1.57275 0
M  V30 21369 H 2051.24 -2.63217 -1.71394 0
M  V30 21370 H 2050.44 -4.92484 -1.07125 0
M  V30 21371 H 2050.04 -3.73517 0.18997 0
M  V30 21372 H 2052.33 -6.7159 -0.892942 0
M  V30 21373 H 2053.27 -7.05614 0.592806 0
M  V30 21374 H 2053.68 -5.6303 -0.407125 0
M  V30 21375 N 2053.08 -0.458013 -1.50798 0
M  V30 21376 C 2054.5 -0.111425 -1.59211 0
M  V30 21377 C 2054.7 1.38104 -1.46729 0
M  V30 21378 O 2053.75 2.15306 -1.31907 0
M  V30 21379 C 2055.07 -0.649971 -2.93591 0
M  V30 21380 C 2056.61 -0.612237 -3.06954 0
M  V30 21381 C 2057.09 -1.1281 -4.43889 0
M  V30 21382 N 2058.58 -1.08696 -4.50266 0
M  V30 21383 C 2059.31 -1.45676 -5.54586 0
M  V30 21384 N 2058.81 -1.90042 -6.66225 0
M  V30 21385 N 2060.6 -1.37362 -5.45058 0
M  V30 21386 H 2052.75 -1.42885 -1.57155 0
M  V30 21387 H 2055.02 -0.590085 -0.741959 0
M  V30 21388 H 2054.72 -1.695 -3.0816 0
M  V30 21389 H 2054.6 -0.0862666 -3.77101 0
M  V30 21390 H 2056.98 0.42385 -2.9204 0
M  V30 21391 H 2057.07 -1.21259 -2.25233 0
M  V30 21392 H 2056.71 -2.16276 -4.59551 0
M  V30 21393 H 2056.64 -0.50409 -5.24182 0
M  V30 21394 H 2059.13 -0.761406 -3.7015 0
M  V30 21395 H 2059.44 -2.16442 -7.41871 0
M  V30 21396 H 2057.79 -1.93985 -6.67379 0
M  V30 21397 H 2060.98 -1.02552 -4.56728 0
M  V30 21398 H 2061.15 -1.66508 -6.26242 0
M  V30 21399 N 2054.56 1.56449 -0.190119 0
M  V30 21400 C 2055.79 2.01527 0.455038 0
M  V30 21401 C 2056.2 1.06944 1.56076 0
M  V30 21402 O 2055.54 0.0656127 1.83583 0
M  V30 21403 C 2055.6 3.43008 1.07637 0
M  V30 21404 C 2055.27 4.56868 0.109996 0
M  V30 21405 C 2056.26 5.1545 -0.678755 0
M  V30 21406 C 2053.95 5.023 0.000358787 0
M  V30 21407 C 2055.94 6.1791 -1.56416 0
M  V30 21408 C 2053.63 6.04605 -0.888608 0
M  V30 21409 C 2054.63 6.62283 -1.66944 0
M  V30 21410 O 2054.32 7.62601 -2.54351 0
M  V30 21411 H 2054.05 0.66543 0.119076 0
M  V30 21412 H 2056.6 2.03276 -0.29461 0
M  V30 21413 H 2054.83 3.38229 1.87451 0
M  V30 21414 H 2056.52 3.71923 1.62566 0
M  V30 21415 H 2057.29 4.8122 -0.604329 0
M  V30 21416 H 2053.17 4.57106 0.59794 0
M  V30 21417 H 2056.71 6.62858 -2.17407 0
M  V30 21418 H 2052.61 6.38259 -0.964167 0
M  V30 21419 H 2053.37 7.80001 -2.48075 0
M  V30 21420 N 2056.04 -0.0835127 1.57379 0
M  V30 21421 C 2057.26 -0.801948 1.91268 0
M  V30 21422 C 2057.69 -1.70915 0.785469 0
M  V30 21423 O 2057.05 -1.79392 -0.262357 0
M  V30 21424 C 2057.09 -1.58151 3.24069 0
M  V30 21425 O 2056.2 -2.69134 3.12475 0
M  V30 21426 H 2055.54 -0.219566 0.626647 0
M  V30 21427 H 2058.07 -0.0552662 2.04525 0
M  V30 21428 H 2058.08 -1.96327 3.57659 0
M  V30 21429 H 2056.75 -0.915794 4.05692 0
M  V30 21430 H 2055.33 -2.33901 2.90422 0
M  V30 21431 N 2057.52 -1.53558 -0.354624 0
M  V30 21432 C 2058.45 -1.83751 -1.44076 0
M  V30 21433 C 2059.43 -0.691795 -1.55397 0
M  V30 21434 O 2060.61 -0.942676 -1.69786 0
M  V30 21435 C 2057.74 -2.03721 -2.81274 0
M  V30 21436 C 2056.7 -3.19517 -2.84769 0
M  V30 21437 C 2056.02 -3.248 -4.24746 0
M  V30 21438 C 2057.32 -4.5787 -2.51301 0
M  V30 21439 H 2059.02 -2.7471 -1.19058 0
M  V30 21440 H 2056.56 -1.32182 -0.5713 0
M  V30 21441 H 2058.51 -2.23427 -3.57293 0
M  V30 21442 H 2057.24 -1.09482 -3.07703 0
M  V30 21443 H 2055.9 -2.99649 -2.11201 0
M  V30 21444 H 2055.55 -2.28177 -4.48268 0
M  V30 21445 H 2055.25 -4.02606 -4.27998 0
M  V30 21446 H 2056.77 -3.46702 -5.02623 0
M  V30 21447 H 2058.18 -4.77663 -3.17034 0
M  V30 21448 H 2056.58 -5.37998 -2.65853 0
M  V30 21449 H 2057.65 -4.62234 -1.46518 0
M  V30 21450 N 2058.99 0.615033 -1.45104 0
M  V30 21451 C 2060.27 1.37409 -1.39206 0
M  V30 21452 C 2060.65 2.11018 -0.0588763 0
M  V30 21453 O 2060 2.07402 0.958997 0
M  V30 21454 C 2060.21 2.32712 -2.60089 0
M  V30 21455 C 2061.56 2.95549 -3.04854 0
M  V30 21456 O 2062.58 2.43035 -2.60408 0
M  V30 21457 O 2061.44 3.90854 -3.81963 0
M  V30 21458 H 2058.53 0.615766 -0.552052 0
M  V30 21459 H 2061.08 0.638743 -1.5722 0
M  V30 21460 H 2059.85 1.77529 -3.48711 0
M  V30 21461 H 2059.47 3.13639 -2.4437 0
M  V30 21462 N 2060.47 1.3227 0.85688 0
M  V30 21463 C 2061.7 1.25698 1.6434 0
M  V30 21464 C 2062.11 -0.175425 1.87983 0
M  V30 21465 O 2061.47 -1.11179 1.44726 0
M  V30 21466 C 2061.52 2.0111 3.00395 0
M  V30 21467 O 2061.24 3.38761 2.778 0
M  V30 21468 C 2062.74 2.01535 3.9484 0
M  V30 21469 H 2059.96 0.433782 0.511932 0
M  V30 21470 H 2062.51 1.74358 1.06863 0
M  V30 21471 H 2060.66 1.56178 3.54524 0
M  V30 21472 H 2061.08 3.7733 3.64311 0
M  V30 21473 H 2062.55 2.58787 4.87579 0
M  V30 21474 H 2063.03 1.00106 4.27639 0
M  V30 21475 H 2063.63 2.46404 3.46648 0
M  V30 21476 N 2061.95 -1.07287 1.15444 0
M  V30 21477 C 2062.88 -2.16494 0.87478 0
M  V30 21478 C 2063.86 -1.69199 -0.174882 0
M  V30 21479 O 2065.05 -1.94178 -0.0291162 0
M  V30 21480 C 2062.18 -3.45387 0.364018 0
M  V30 21481 C 2061.13 -4.06137 1.35043 0
M  V30 21482 C 2060.46 -5.30118 0.69849 0
M  V30 21483 C 2061.76 -4.46089 2.71665 0
M  V30 21484 H 2063.45 -2.40146 1.78802 0
M  V30 21485 H 2061 -1.15415 0.861124 0
M  V30 21486 H 2062.95 -4.21111 0.15591 0
M  V30 21487 H 2061.67 -3.21324 -0.58469 0
M  V30 21488 H 2060.33 -3.32458 1.54491 0
M  V30 21489 H 2059.98 -5.02346 -0.256386 0
M  V30 21490 H 2059.68 -5.71721 1.35679 0
M  V30 21491 H 2061.2 -6.08548 0.500171 0
M  V30 21492 H 2062.62 -5.12939 2.56059 0
M  V30 21493 H 2061.01 -4.98645 3.33876 0
M  V30 21494 H 2062.08 -3.57427 3.2768 0
M  V30 21495 N 2063.43 -0.951342 -1.25647 0
M  V30 21496 C 2064.68 -0.600038 -1.92568 0
M  V30 21497 C 2064.99 0.866499 -1.7536 0
M  V30 21498 O 2066.2 1.32762 -2.36826 0
M  V30 21499 C 2064.65 -1.02246 -3.45071 0
M  V30 21500 C 2064.26 -2.51131 -3.70995 0
M  V30 21501 C 2066 -0.743532 -4.17938 0
M  V30 21502 C 2063.91 -2.87191 -5.16987 0
M  V30 21503 H 2062.84 -0.220706 -0.720975 0
M  V30 21504 H 2065.49 -1.15535 -1.42562 0
M  V30 21505 H 2063.87 -0.395588 -3.94019 0
M  V30 21506 H 2065.05 -3.18809 -3.32712 0
M  V30 21507 H 2063.36 -2.76461 -3.11381 0
M  V30 21508 H 2065.96 -0.989148 -5.25471 0
M  V30 21509 H 2066.3 0.319973 -4.15069 0
M  V30 21510 H 2066.84 -1.3306 -3.74887 0
M  V30 21511 H 2063.57 -3.92545 -5.24965 0
M  V30 21512 H 2063.09 -2.24183 -5.56329 0
M  V30 21513 H 2064.77 -2.76205 -5.85081 0
M  V30 21514 N 2064.91 1.40216 -0.719531 0
M  V30 21515 C 2066.13 2.05647 -0.269106 0
M  V30 21516 C 2066.56 1.53865 1.082 0
M  V30 21517 O 2065.91 0.675703 1.68238 0
M  V30 21518 C 2065.96 3.59636 -0.263433 0
M  V30 21519 O 2065.07 4.05448 0.754058 0
M  V30 21520 H 2064.41 0.652036 -0.12548 0
M  V30 21521 H 2066.94 1.79542 -0.981119 0
M  V30 21522 H 2066.95 4.07871 -0.102475 0
M  V30 21523 H 2065.62 3.9669 -1.24939 0
M  V30 21524 H 2064.2 3.68664 0.560502 0
M  V30 21525 N 2066.38 0.466004 1.50553 0
M  V30 21526 C 2067.29 -0.33625 2.32178 0
M  V30 21527 C 2068.31 -1.00081 1.42337 0
M  V30 21528 O 2069.49 -0.989904 1.75393 0
M  V30 21529 C 2066.55 -1.40682 3.16875 0
M  V30 21530 C 2065.61 -0.759384 4.2253 0
M  V30 21531 C 2064.84 -1.77894 5.03179 0
M  V30 21532 O 2065.07 -3.00483 4.84836 0
M  V30 21533 O 2064 -1.35358 5.86483 0
M  V30 21534 H 2067.83 0.330908 3.01892 0
M  V30 21535 H 2065.41 0.22795 1.47651 0
M  V30 21536 H 2067.29 -2.02704 3.69444 0
M  V30 21537 H 2065.97 -2.05753 2.49894 0
M  V30 21538 H 2064.88 -0.100338 3.73965 0
M  V30 21539 H 2066.21 -0.151694 4.91966 0
M  V30 21540 N 2067.86 -1.56346 0.198413 0
M  V30 21541 C 2068.79 -2.22244 -0.716243 0
M  V30 21542 C 2069.77 -1.1866 -1.21876 0
M  V30 21543 O 2070.96 -1.47177 -1.26699 0
M  V30 21544 C 2068.09 -2.88437 -1.93446 0
M  V30 21545 C 2067.04 -3.98294 -1.56672 0
M  V30 21546 C 2066.37 -4.51668 -2.86182 0
M  V30 21547 C 2067.67 -5.16531 -0.774153 0
M  V30 21548 H 2069.36 -2.98935 -0.166883 0
M  V30 21549 H 2066.91 -1.43784 -0.0788267 0
M  V30 21550 H 2068.86 -3.33221 -2.57957 0
M  V30 21551 H 2067.58 -2.09157 -2.5084 0
M  V30 21552 H 2066.24 -3.54206 -0.945178 0
M  V30 21553 H 2065.89 -3.69146 -3.41673 0
M  V30 21554 H 2065.59 -5.25796 -2.6232 0
M  V30 21555 H 2067.12 -4.99155 -3.51676 0
M  V30 21556 H 2068.53 -5.57839 -1.32244 0
M  V30 21557 H 2066.93 -5.96746 -0.633532 0
M  V30 21558 H 2068 -4.84382 0.224098 0
M  V30 21559 N 2069.34 0.0751653 -1.57421 0
M  V30 21560 C 2070.76 0.429873 -1.53702 0
M  V30 21561 C 2070.96 1.79369 -0.918103 0
M  V30 21562 O 2070.01 2.47105 -0.519159 0
M  V30 21563 C 2071.33 0.374037 -2.98365 0
M  V30 21564 C 2072.87 0.454466 -3.09683 0
M  V30 21565 C 2073.35 0.428572 -4.5599 0
M  V30 21566 N 2074.84 0.488746 -4.60614 0
M  V30 21567 C 2075.57 0.49087 -5.71295 0
M  V30 21568 N 2075.07 0.448011 -6.9135 0
M  V30 21569 N 2076.86 0.537175 -5.59527 0
M  V30 21570 H 2069.01 -0.817897 -1.96021 0
M  V30 21571 H 2071.28 -0.306554 -0.897067 0
M  V30 21572 H 2070.98 -0.561323 -3.47192 0
M  V30 21573 H 2070.86 1.18551 -3.58086 0
M  V30 21574 H 2073.24 1.38025 -2.60832 0
M  V30 21575 H 2073.33 -0.385521 -2.52878 0
M  V30 21576 H 2072.97 -0.493347 -5.05498 0
M  V30 21577 H 2072.9 1.28605 -5.10655 0
M  V30 21578 H 2075.39 0.526255 -3.74218 0
M  V30 21579 H 2075.7 0.453464 -7.71468 0
M  V30 21580 H 2074.05 0.414751 -6.93761 0
M  V30 21581 H 2077.24 0.568327 -4.64637 0
M  V30 21582 H 2077.41 0.535362 -6.45785 0
M  V30 21583 N 2070.82 1.53744 0.346476 0
M  V30 21584 C 2072.23 1.43943 0.689395 0
M  V30 21585 C 2072.43 0.593819 1.92551 0
M  V30 21586 O 2071.49 0.0836653 2.52361 0
M  V30 21587 C 2072.8 2.87389 0.884766 0
M  V30 21588 C 2074.35 2.97145 0.98357 0
M  V30 21589 C 2074.83 4.41692 1.21128 0
M  V30 21590 N 2076.32 4.45205 1.27855 0
M  V30 21591 C 2077.05 5.54179 1.47219 0
M  V30 21592 N 2076.55 6.73164 1.63775 0
M  V30 21593 N 2078.34 5.41787 1.49743 0
M  V30 21594 H 2070.49 2.07218 -0.466306 0
M  V30 21595 H 2072.76 0.936584 -0.146675 0
M  V30 21596 H 2072.46 3.51667 0.0480249 0
M  V30 21597 H 2072.34 3.32165 1.78736 0
M  V30 21598 H 2074.72 2.33008 1.81084 0
M  V30 21599 H 2074.8 2.55734 0.0579478 0
M  V30 21600 H 2074.45 5.06409 0.388952 0
M  V30 21601 H 2074.38 4.80692 2.15042 0
M  V30 21602 H 2076.87 3.59463 1.16596 0
M  V30 21603 H 2077.18 7.51979 1.78179 0
M  V30 21604 H 2075.53 6.76114 1.60917 0
M  V30 21605 H 2078.72 4.4779 1.36389 0
M  V30 21606 H 2078.89 6.26774 1.64493 0
M  V30 21607 N 2072.3 -0.607329 1.45428 0
M  V30 21608 C 2073.21 -1.7463 1.56657 0
M  V30 21609 C 2074.22 -1.68053 0.451014 0
M  V30 21610 O 2075.4 -1.88405 0.711736 0
M  V30 21611 C 2072.46 -3.11092 1.53045 0
M  V30 21612 C 2071.52 -3.29121 2.75641 0
M  V30 21613 C 2070.76 -4.59072 2.72193 0
M  V30 21614 O 2070.98 -5.41408 1.79536 0
M  V30 21615 O 2069.91 -4.79819 3.63397 0
M  V30 21616 H 2073.74 -1.68108 2.5293 0
M  V30 21617 H 2071.33 -0.771447 1.27942 0
M  V30 21618 H 2073.21 -3.92394 1.5364 0
M  V30 21619 H 2071.88 -3.18105 0.599244 0
M  V30 21620 H 2070.79 -2.47406 2.80608 0
M  V30 21621 H 2072.12 -3.26984 3.67889 0
M  V30 21622 N 2073.77 -1.32722 -0.849853 0
M  V30 21623 C 2075 -1.2671 -1.64193 0
M  V30 21624 C 2075.42 0.161092 -1.87409 0
M  V30 21625 O 2074.78 1.11408 -1.43031 0
M  V30 21626 C 2074.83 -2.03686 -2.97564 0
M  V30 21627 O 2073.93 -1.38794 -3.88343 0
M  V30 21628 H 2073.28 -0.436459 -0.5004 0
M  V30 21629 H 2075.81 -1.75113 -1.05813 0
M  V30 21630 H 2075.82 -2.1404 -3.47349 0
M  V30 21631 H 2074.49 -3.07537 -2.79989 0
M  V30 21632 H 2073.07 -1.37018 -3.46815 0
M  V30 21633 N 2075.25 1.06673 -1.16011 0
M  V30 21634 C 2076.2 2.16153 -0.859109 0
M  V30 21635 C 2077.19 1.68542 0.170281 0
M  V30 21636 O 2078.4 1.79983 0.0246416 0
M  V30 21637 H 2074.78 0.705551 -0.260196 0
M  V30 21638 H 2076.75 2.38754 -1.78994 0
M  V30 21639 C 2075.5 3.457 -0.3724 0
M  V30 21640 H 2074.82 3.82725 -1.15591 0
M  V30 21641 H 2076.26 4.23526 -0.200519 0
M  V30 21642 C 2074.72 3.24451 0.90735 0
M  V30 21643 O 2075.25 3.49658 1.97743 0
M  V30 21644 N 2073.45 2.77904 0.849588 0
M  V30 21645 H 2073 2.57591 -0.0214058 0
M  V30 21646 H 2072.96 2.64066 1.70636 0
M  V30 21647 N 2076.73 0.957992 1.25141 0
M  V30 21648 C 2078.15 0.662955 1.45179 0
M  V30 21649 C 2078.35 -0.778426 1.85857 0
M  V30 21650 O 2077.4 -1.55337 1.99065 0
M  V30 21651 C 2078.72 1.63876 2.52121 0
M  V30 21652 C 2080.26 1.65031 2.65958 0
M  V30 21653 C 2080.74 2.61384 3.76089 0
M  V30 21654 N 2082.23 2.59768 3.83503 0
M  V30 21655 C 2082.96 3.30999 4.68217 0
M  V30 21656 N 2082.46 4.11715 5.57192 0
M  V30 21657 N 2084.25 3.1987 4.62211 0
M  V30 21658 H 2076.4 1.88941 0.97031 0
M  V30 21659 H 2078.67 0.812898 0.487751 0
M  V30 21660 H 2078.37 2.66846 2.29098 0
M  V30 21661 H 2078.25 1.4039 3.50101 0
M  V30 21662 H 2080.63 0.627761 2.88346 0
M  V30 21663 H 2080.72 1.92576 1.68369 0
M  V30 21664 H 2080.36 3.63767 3.54452 0
M  V30 21665 H 2080.29 2.31121 4.73171 0
M  V30 21666 H 2082.78 2.01172 3.19903 0
M  V30 21667 H 2083.09 4.62978 6.18766 0
M  V30 21668 H 2081.44 4.15812 5.56889 0
M  V30 21669 H 2084.63 2.56282 3.91711 0
M  V30 21670 H 2084.8 3.75649 5.28008 0
M  V30 21671 N 2078.21 -1.39832 0.726957 0
M  V30 21672 C 2079.62 -1.54462 0.401692 0
M  V30 21673 C 2079.82 -1.6958 -1.08834 0
M  V30 21674 O 2078.88 -1.69177 -1.87444 0
M  V30 21675 C 2080.19 -2.76679 1.17769 0
M  V30 21676 C 2081.74 -2.90507 1.16511 0
M  V30 21677 C 2082.22 -4.1565 1.9235 0
M  V30 21678 N 2083.71 -4.22674 1.89476 0
M  V30 21679 C 2084.44 -5.18437 2.44971 0
M  V30 21680 N 2083.94 -6.20038 3.0907 0
M  V30 21681 N 2085.73 -5.10596 2.3505 0
M  V30 21682 H 2077.88 -1.28266 1.69297 0
M  V30 21683 H 2080.15 -0.621077 0.716217 0
M  V30 21684 H 2079.85 -2.71823 2.2317 0
M  V30 21685 H 2079.73 -3.69115 0.776799 0
M  V30 21686 H 2082.11 -2.94859 0.119254 0
M  V30 21687 H 2082.19 -1.99157 1.60531 0
M  V30 21688 H 2081.84 -4.1206 2.96933 0
M  V30 21689 H 2081.77 -5.0603 1.45743 0
M  V30 21690 H 2084.26 -3.49892 1.42772 0
M  V30 21691 H 2084.57 -6.89555 3.48903 0
M  V30 21692 H 2082.92 -6.20449 3.13158 0
M  V30 21693 H 2086.11 -4.30154 1.84622 0
M  V30 21694 H 2086.28 -5.85053 2.78599 0
M  V30 21695 N 2079.69 -0.473982 -1.50304 0
M  V30 21696 C 2080.92 0.0775007 -2.06455 0
M  V30 21697 C 2081.32 1.33801 -1.33768 0
M  V30 21698 O 2080.67 1.79261 -0.401381 0
M  V30 21699 C 2080.73 0.428656 -3.56935 0
M  V30 21700 C 2080.39 -0.730244 -4.51128 0
M  V30 21701 C 2081.39 -1.6131 -4.94242 0
M  V30 21702 C 2079.08 -0.92139 -4.93777 0
M  V30 21703 C 2081.07 -2.67149 -5.78714 0
M  V30 21704 C 2078.76 -1.98299 -5.78032 0
M  V30 21705 C 2079.75 -2.85641 -6.20402 0
M  V30 21706 O 2079.44 -3.89973 -7.02977 0
M  V30 21707 H 2079.17 -0.00505561 -0.675981 0
M  V30 21708 H 2081.73 -0.662628 -1.94418 0
M  V30 21709 H 2079.96 1.22201 -3.66884 0
M  V30 21710 H 2081.65 0.915562 -3.95439 0
M  V30 21711 H 2082.41 -1.47713 -4.61959 0
M  V30 21712 H 2078.29 -0.251023 -4.60316 0
M  V30 21713 H 2081.84 -3.35352 -6.11706 0
M  V30 21714 H 2077.73 -2.11903 -6.09727 0
M  V30 21715 H 2078.5 -3.86996 -7.21232 0
M  V30 21716 N 2081.16 1.56239 -0.206702 0
M  V30 21717 C 2082.11 2.20977 0.726082 0
M  V30 21718 C 2083.11 1.18451 1.21102 0
M  V30 21719 O 2084.31 1.36568 1.17257 0
M  V30 21720 H 2080.69 0.708331 0.252529 0
M  V30 21721 H 2082.66 2.97989 0.156483 0
M  V30 21722 C 2081.41 2.89215 1.93003 0
M  V30 21723 H 2080.73 3.67855 1.56597 0
M  V30 21724 H 2082.17 3.37933 2.56081 0
M  V30 21725 C 2080.63 1.90876 2.77611 0
M  V30 21726 O 2081.16 1.41633 3.75903 0
M  V30 21727 N 2079.37 1.5885 2.43341 0
M  V30 21728 H 2078.91 1.99088 1.63468 0
M  V30 21729 H 2078.87 0.933114 3.00234 0
M  V30 21730 N 2082.64 -0.0668159 1.57458 0
M  V30 21731 C 2083.89 -0.76387 1.86676 0
M  V30 21732 C 2084.2 -1.78489 0.800057 0
M  V30 21733 O 2085.41 -2.53187 0.980236 0
M  V30 21734 C 2083.87 -1.4095 3.31151 0
M  V30 21735 C 2083.47 -0.426782 4.45963 0
M  V30 21736 C 2085.22 -2.08863 3.69563 0
M  V30 21737 C 2083.13 -1.07861 5.81481 0
M  V30 21738 H 2082.06 -0.289037 0.6964 0
M  V30 21739 H 2084.71 -0.0172645 1.83492 0
M  V30 21740 H 2083.09 -2.20453 3.28962 0
M  V30 21741 H 2084.26 0.338803 4.59553 0
M  V30 21742 H 2082.58 0.148171 4.16136 0
M  V30 21743 H 2085.17 -2.58415 4.68109 0
M  V30 21744 H 2085.52 -2.89026 2.99616 0
M  V30 21745 H 2086.05 -1.36184 3.73763 0
M  V30 21746 H 2082.79 -0.317194 6.54732 0
M  V30 21747 H 2082.31 -1.81493 5.71682 0
M  V30 21748 H 2083.99 -1.597 6.26981 0
M  V30 21749 N 2084.12 -1.53926 -0.338317 0
M  V30 21750 C 2085.37 -1.71085 -1.07584 0
M  V30 21751 C 2085.69 -0.479497 -1.89013 0
M  V30 21752 O 2084.96 0.506566 -1.89237 0
M  V30 21753 H 2083.54 -0.630767 -0.400178 0
M  V30 21754 H 2086.2 -1.91193 -0.378324 0
M  V30 21755 H 2085.3 -2.58404 -1.75026 0
M  V30 21756 N 2085.6 0.599608 -1.45748 0
M  V30 21757 C 2086.55 1.73095 -1.55374 0
M  V30 21758 C 2087.54 1.64028 -0.423205 0
M  V30 21759 O 2088.75 1.69726 -0.599429 0
M  V30 21760 H 2085.12 0.572 -0.48818 0
M  V30 21761 H 2087.09 1.62104 -2.50529 0
M  V30 21762 C 2085.84 3.1148 -1.54517 0
M  V30 21763 H 2085.17 3.19119 -2.40838 0
M  V30 21764 H 2086.61 3.90447 -1.65309 0
M  V30 21765 C 2085.06 3.35809 -0.270913 0
M  V30 21766 O 2085.59 3.96473 0.645927 0
M  V30 21767 N 2083.8 2.90136 -0.164103 0
M  V30 21768 H 2083.35 2.40951 -0.911075 0
M  V30 21769 H 2083.31 3.06788 0.687647 0
M  V30 21770 N 2087.08 1.33171 0.842803 0
M  V30 21771 C 2088.32 1.24589 1.60017 0
M  V30 21772 C 2088.66 -0.188935 1.93279 0
M  V30 21773 O 2087.93 -1.12923 1.58362 0
M  V30 21774 C 2088.21 2.11731 2.91277 0
M  V30 21775 C 2088.07 3.63652 2.64721 0
M  V30 21776 C 2089.39 1.98749 3.92666 0
M  V30 21777 H 2086.51 0.453935 0.580613 0
M  V30 21778 H 2089.15 1.63234 0.972356 0
M  V30 21779 H 2087.3 1.78904 3.44856 0
M  V30 21780 H 2088.97 4.06751 2.17604 0
M  V30 21781 H 2087.21 3.85728 1.98486 0
M  V30 21782 H 2087.88 4.19966 3.58236 0
M  V30 21783 H 2090.36 2.2753 3.48381 0
M  V30 21784 H 2089.24 2.61979 4.82347 0
M  V30 21785 H 2089.5 0.958565 4.31583 0
M  V30 21786 N 2088.56 -1.06056 1.16576 0
M  V30 21787 C 2089.49 -2.15554 0.897693 0
M  V30 21788 C 2090.47 -1.69375 -0.156927 0
M  V30 21789 O 2091.65 -1.94198 -0.00851939 0
M  V30 21790 C 2088.78 -3.44982 0.40063 0
M  V30 21791 C 2087.74 -4.04682 1.39343 0
M  V30 21792 C 2087.06 -5.29347 0.754677 0
M  V30 21793 C 2088.36 -4.43182 2.76381 0
M  V30 21794 H 2090.06 -2.38236 1.81339 0
M  V30 21795 H 2087.6 -1.14495 0.873316 0
M  V30 21796 H 2089.55 -4.20922 0.200566 0
M  V30 21797 H 2088.28 -3.21926 -0.550576 0
M  V30 21798 H 2086.94 -3.308 1.58009 0
M  V30 21799 H 2086.59 -5.0259 -0.203091 0
M  V30 21800 H 2086.29 -5.7025 1.41735 0
M  V30 21801 H 2087.81 -6.07983 0.564687 0
M  V30 21802 H 2089.22 -5.10195 2.61485 0
M  V30 21803 H 2087.62 -4.95076 3.39146 0
M  V30 21804 H 2088.69 -3.53931 3.31453 0
M  V30 21805 N 2090.03 -0.964615 -1.24631 0
M  V30 21806 C 2090.94 -0.499755 -2.29215 0
M  V30 21807 C 2091.96 0.43778 -1.68403 0
M  V30 21808 O 2093.14 0.311579 -1.98975 0
M  V30 21809 C 2090.2 0.205579 -3.4609 0
M  V30 21810 C 2089.26 -0.771401 -4.22313 0
M  V30 21811 C 2088.49 -0.0996328 -5.33607 0
M  V30 21812 O 2088.72 1.11269 -5.59442 0
M  V30 21813 O 2087.65 -0.79023 -5.9669 0
M  V30 21814 H 2091.48 -1.3691 -2.71089 0
M  V30 21815 H 2089.06 -0.731512 -1.30266 0
M  V30 21816 H 2090.94 0.601929 -4.17079 0
M  V30 21817 H 2089.62 1.04994 -3.06199 0
M  V30 21818 H 2088.53 -1.21815 -3.53712 0
M  V30 21819 H 2089.86 -1.58408 -4.66012 0
M  V30 21820 N 2091.51 1.39445 -0.734362 0
M  V30 21821 C 2092.47 2.28971 -0.102477 0
M  V30 21822 C 2093.47 1.46277 0.667805 0
M  V30 21823 O 2094.66 1.66962 0.496917 0
M  V30 21824 C 2091.8 3.29767 0.864107 0
M  V30 21825 H 2092.99 2.86352 -0.891208 0
M  V30 21826 H 2090.54 1.48082 -0.500154 0
M  V30 21827 H 2091.28 2.7744 1.67922 0
M  V30 21828 H 2091.06 3.90837 0.314418 0
M  V30 21829 H 2092.55 3.96757 1.30282 0
M  V30 21830 N 2092.99 0.481946 1.5005 0
M  V30 21831 C 2093.92 -0.296253 2.31613 0
M  V30 21832 C 2094.9 -0.98032 1.3901 0
M  V30 21833 O 2096.09 -0.975402 1.67927 0
M  V30 21834 C 2093.22 -1.37231 3.19037 0
M  V30 21835 C 2092.17 -0.809232 4.2028 0
M  V30 21836 C 2091.5 -1.98439 4.96514 0
M  V30 21837 C 2092.8 0.18685 5.21966 0
M  V30 21838 H 2094.49 0.384509 2.96921 0
M  V30 21839 H 2092.04 0.186362 1.42789 0
M  V30 21840 H 2093.99 -1.92429 3.74899 0
M  V30 21841 H 2092.71 -2.082 2.51636 0
M  V30 21842 H 2091.37 -0.279145 3.65536 0
M  V30 21843 H 2091.02 -2.68131 4.25576 0
M  V30 21844 H 2090.72 -1.6138 5.65005 0
M  V30 21845 H 2092.24 -2.54107 5.55213 0
M  V30 21846 H 2093.66 -0.276326 5.72634 0
M  V30 21847 H 2092.05 0.472282 5.98239 0
M  V30 21848 H 2093.12 1.10915 4.72044 0
M  V30 21849 N 2094.47 -1.56127 0.214985 0
M  V30 21850 C 2095.71 -1.98129 -0.41849 0
M  V30 21851 C 2096.04 -1.10246 -1.60238 0
M  V30 21852 O 2095.3 -0.145925 -1.95155 0
M  V30 21853 C 2095.6 -3.45828 -0.902084 0
M  V30 21854 C 2095.26 -4.50577 0.170573 0
M  V30 21855 C 2093.92 -4.78945 0.465258 0
M  V30 21856 C 2096.28 -5.13434 0.896355 0
M  V30 21857 C 2093.6 -5.67455 1.49036 0
M  V30 21858 C 2095.96 -6.03053 1.91074 0
M  V30 21859 C 2094.62 -6.29768 2.21242 0
M  V30 21860 H 2093.89 -0.725004 -0.153136 0
M  V30 21861 H 2096.54 -1.88873 0.316127 0
M  V30 21862 H 2094.84 -3.52255 -1.71534 0
M  V30 21863 H 2096.54 -3.75694 -1.40196 0
M  V30 21864 H 2093.13 -4.28544 -0.0692657 0
M  V30 21865 H 2097.31 -4.91593 0.681928 0
M  V30 21866 H 2092.57 -5.8642 1.72978 0
M  V30 21867 H 2096.74 -6.50812 2.47824 0
M  V30 21868 H 2094.37 -6.9815 3.00817 0
M  V30 21869 N 2095.95 0.0584645 -1.57492 0
M  V30 21870 C 2096.88 1.09503 -2.0135 0
M  V30 21871 C 2097.89 1.34209 -0.921509 0
M  V30 21872 O 2099.08 1.32214 -1.19924 0
M  V30 21873 C 2096.18 2.44314 -2.3487 0
M  V30 21874 C 2095.35 2.39378 -3.66083 0
M  V30 21875 C 2094.41 3.56403 -3.87122 0
M  V30 21876 O 2093.44 3.37227 -4.58549 0
M  V30 21877 N 2094.64 4.77234 -3.30496 0
M  V30 21878 H 2097.4 0.721431 -2.90887 0
M  V30 21879 H 2094.97 0.24691 -1.60006 0
M  V30 21880 H 2096.96 3.21269 -2.46106 0
M  V30 21881 H 2095.53 2.73626 -1.51154 0
M  V30 21882 H 2094.75 1.47718 -3.65476 0
M  V30 21883 H 2096.04 2.33194 -4.52215 0
M  V30 21884 H 2095.43 4.95717 -2.72546 0
M  V30 21885 H 2093.99 5.51655 -3.47161 0
M  V30 21886 N 2097.42 1.54103 0.330149 0
M  V30 21887 C 2098.67 1.71653 1.06675 0
M  V30 21888 C 2098.99 0.489514 1.88756 0
M  V30 21889 O 2098.26 -0.496523 1.89503 0
M  V30 21890 H 2096.84 0.63288 0.396827 0
M  V30 21891 H 2099.5 1.91391 0.36818 0
M  V30 21892 H 2098.6 2.59328 1.73653 0
M  V30 21893 N 2098.9 -0.59187 1.46064 0
M  V30 21894 C 2100.31 -1.17395 1.45174 0
M  V30 21895 C 2100.66 -1.953 0.187679 0
M  V30 21896 O 2099.79 -2.04428 -0.709814 0
M  V30 21897 C 2100.38 -2.1356 2.63017 0
M  V30 21898 C 2098.94 -2.6711 2.65197 0
M  V30 21899 C 2098.09 -1.42806 2.37701 0
M  V30 21900 H 2101.04 -0.380305 1.54076 0
M  V30 21901 H 2101.06 -2.96868 2.38012 0
M  V30 21902 H 2100.57 -1.5683 3.55001 0
M  V30 21903 H 2098.68 -3.27734 1.7726 0
M  V30 21904 H 2098.79 -3.1047 3.6489 0
M  V30 21905 H 2097.15 -1.72303 1.87573 0
M  V30 21906 H 2097.94 -0.879215 3.3185 0
M  V30 21907 N 2100.38 -1.33616 -0.835729 0
M  V30 21908 C 2101.63 -1.25436 -1.59354 0
M  V30 21909 C 2101.96 0.178683 -1.93376 0
M  V30 21910 O 2101.23 1.12082 -1.58959 0
M  V30 21911 C 2101.52 -2.13273 -2.9015 0
M  V30 21912 C 2101.37 -3.65051 -2.62789 0
M  V30 21913 C 2102.69 -2.00828 -3.91607 0
M  V30 21914 H 2099.81 -0.457008 -0.578198 0
M  V30 21915 H 2102.45 -1.63747 -0.963686 0
M  V30 21916 H 2100.6 -1.8073 -3.43902 0
M  V30 21917 H 2102.27 -4.07899 -2.15444 0
M  V30 21918 H 2100.52 -3.86775 -1.96437 0
M  V30 21919 H 2101.19 -4.2186 -3.56003 0
M  V30 21920 H 2103.66 -2.29375 -3.47169 0
M  V30 21921 H 2102.54 -2.64533 -4.8095 0
M  V30 21922 H 2102.8 -0.98144 -4.31069 0
M  V30 21923 N 2101.86 1.05436 -1.17136 0
M  V30 21924 C 2103.1 1.79971 -0.969015 0
M  V30 21925 C 2103.46 1.85543 0.49375 0
M  V30 21926 O 2104.66 2.56144 0.815091 0
M  V30 21927 C 2102.93 3.20104 -1.5896 0
M  V30 21928 S 2104.49 4.11146 -1.53311 0
M  V30 21929 H 2101.31 0.619855 -0.348283 0
M  V30 21930 H 2103.91 1.26524 -1.49037 0
M  V30 21931 H 2102.62 3.13649 -2.64674 0
M  V30 21932 H 2102.15 3.78627 -1.06795 0
M  V30 21933 H 2104.16 4.9326 -0.539375 0
M  V30 21934 N 2103.34 0.971211 1.24118 0
M  V30 21935 C 2104.57 0.651802 1.96049 0
M  V30 21936 C 2104.97 -0.783604 1.7221 0
M  V30 21937 O 2104.32 -1.53782 1.00483 0
M  V30 21938 C 2104.38 0.850953 3.49284 0
M  V30 21939 C 2104.04 2.26667 3.96826 0
M  V30 21940 C 2105.04 3.24467 4.06223 0
M  V30 21941 C 2102.73 2.5953 4.30057 0
M  V30 21942 C 2104.72 4.53215 4.4819 0
M  V30 21943 C 2102.41 3.88503 4.71708 0
M  V30 21944 C 2103.4 4.85158 4.8074 0
M  V30 21945 O 2103.09 6.1183 5.21459 0
M  V30 21946 H 2102.82 0.241912 0.631233 0
M  V30 21947 H 2105.38 1.30265 1.58809 0
M  V30 21948 H 2103.61 0.142941 3.86436 0
M  V30 21949 H 2105.3 0.530099 4.02424 0
M  V30 21950 H 2106.06 3.00407 3.80763 0
M  V30 21951 H 2101.94 1.85015 4.22245 0
M  V30 21952 H 2105.49 5.28659 4.55155 0
M  V30 21953 H 2101.38 4.12363 4.96616 0
M  V30 21954 H 2102.15 6.15448 5.39598 0
M  V30 21955 N 2104.81 -1.39054 0.741747 0
M  V30 21956 C 2105.76 -2.30556 0.106197 0
M  V30 21957 C 2106.73 -1.49566 -0.722434 0
M  V30 21958 O 2107.92 -1.78233 -0.681008 0
M  V30 21959 C 2105.06 -3.35936 -0.790013 0
M  V30 21960 C 2104.17 -4.31969 0.051964 0
M  V30 21961 C 2103.3 -5.24418 -0.846146 0
M  V30 21962 C 2102.34 -6.121 0.000177444 0
M  V30 21963 N 2101.48 -6.96884 -0.854237 0
M  V30 21964 H 2106.32 -2.84333 0.892113 0
M  V30 21965 H 2103.86 -1.39997 0.451583 0
M  V30 21966 H 2105.82 -3.95629 -1.32413 0
M  V30 21967 H 2104.45 -2.83597 -1.54183 0
M  V30 21968 H 2103.5 -3.73837 0.70358 0
M  V30 21969 H 2104.81 -4.93777 0.706061 0
M  V30 21970 H 2103.96 -5.8917 -1.44786 0
M  V30 21971 H 2102.7 -4.62947 -1.53401 0
M  V30 21972 H 2101.71 -5.46353 0.614648 0
M  V30 21973 H 2102.93 -6.75637 0.684921 0
M  V30 21974 H 2100.88 -6.37974 -1.52727 0
M  V30 21975 H 2100.8 -7.55564 -0.256771 0
M  V30 21976 H 2102.06 -7.66059 -1.4413 0
M  V30 21977 N 2106.29 -0.489897 -1.49792 0
M  V30 21978 C 2107.7 -0.0393634 -1.86658 0
M  V30 21979 C 2108.05 1.37132 -1.40318 0
M  V30 21980 O 2107.18 2.01999 -0.776241 0
M  V30 21981 C 2107.77 -0.0646571 -3.38738 0
M  V30 21982 C 2106.33 0.330485 -3.74946 0
M  V30 21983 C 2105.48 -0.442023 -2.73754 0
M  V30 21984 H 2108.43 -0.703245 -1.42268 0
M  V30 21985 H 2108.45 0.73323 -3.73368 0
M  V30 21986 H 2107.96 -1.09149 -3.72435 0
M  V30 21987 H 2106.07 1.36097 -3.46855 0
M  V30 21988 H 2106.18 0.0187552 -4.79096 0
M  V30 21989 H 2104.54 0.106725 -2.54476 0
M  V30 21990 H 2105.33 -1.46872 -3.10296 0
M  V30 21991 N 2107.77 1.56011 -0.223262 0
M  V30 21992 C 2108.7 2.23355 0.680795 0
M  V30 21993 C 2109.68 1.20584 1.19973 0
M  V30 21994 O 2110.87 1.49174 1.24342 0
M  V30 21995 C 2108 2.91478 1.88833 0
M  V30 21996 C 2106.95 4.00736 1.50316 0
M  V30 21997 C 2106.28 4.56164 2.7896 0
M  V30 21998 C 2107.58 5.17697 0.69188 0
M  V30 21999 H 2109.27 2.99162 0.119304 0
M  V30 22000 H 2106.82 1.43891 0.055942 0
M  V30 22001 H 2108.77 3.37282 2.52623 0
M  V30 22002 H 2107.49 2.13121 2.47481 0
M  V30 22003 H 2106.15 3.55665 0.888708 0
M  V30 22004 H 2105.8 3.74535 3.35757 0
M  V30 22005 H 2105.5 5.29903 2.53922 0
M  V30 22006 H 2107.02 5.04687 3.43691 0
M  V30 22007 H 2108.44 5.59872 1.23353 0
M  V30 22008 H 2106.84 5.97679 0.538515 0
M  V30 22009 H 2107.91 4.83964 -0.301131 0
M  V30 22010 N 2109.25 -0.0501116 1.5752 0
M  V30 22011 C 2110.66 -0.405366 1.54366 0
M  V30 22012 C 2110.86 -1.77885 0.946523 0
M  V30 22013 O 2109.92 -2.46248 0.558406 0
M  V30 22014 C 2111.23 -0.326523 2.98922 0
M  V30 22015 C 2112.78 -0.40514 3.10367 0
M  V30 22016 C 2113.26 -0.355974 4.56615 0
M  V30 22017 N 2114.75 -0.415404 4.61334 0
M  V30 22018 C 2115.48 -0.39992 5.72004 0
M  V30 22019 N 2114.98 -0.337966 6.91975 0
M  V30 22020 N 2116.77 -0.448091 5.60311 0
M  V30 22021 H 2108.92 0.848979 1.94695 0
M  V30 22022 H 2111.19 0.320787 0.892076 0
M  V30 22023 H 2110.89 0.616487 3.46255 0
M  V30 22024 H 2110.77 -1.12839 3.59927 0
M  V30 22025 H 2113.15 -1.33858 2.62995 0
M  V30 22026 H 2113.23 0.425702 2.52233 0
M  V30 22027 H 2112.88 0.573705 5.04649 0
M  V30 22028 H 2112.81 -1.20464 5.12636 0
M  V30 22029 H 2115.3 -0.466654 3.75008 0
M  V30 22030 H 2115.61 -0.330673 7.72092 0
M  V30 22031 H 2113.96 -0.304327 6.94333 0
M  V30 22032 H 2117.15 -0.494336 4.65482 0
M  V30 22033 H 2117.32 -0.432555 6.46555 0
M  V30 22034 N 2110.73 -1.54276 -0.321972 0
M  V30 22035 C 2111.98 -1.7177 -1.05726 0
M  V30 22036 C 2112.29 -0.499164 -1.89124 0
M  V30 22037 O 2113.49 -0.555477 -2.65757 0
M  V30 22038 C 2111.95 -3.03824 -1.92923 0
M  V30 22039 C 2111.56 -4.33087 -1.14629 0
M  V30 22040 C 2113.3 -3.30681 -2.66178 0
M  V30 22041 C 2111.21 -5.56202 -2.00981 0
M  V30 22042 H 2110.14 -0.64013 -0.398433 0
M  V30 22043 H 2112.79 -1.80769 -0.315414 0
M  V30 22044 H 2111.17 -2.88736 -2.71012 0
M  V30 22045 H 2112.35 -4.58946 -0.412993 0
M  V30 22046 H 2110.66 -4.13007 -0.530488 0
M  V30 22047 H 2113.26 -4.19857 -3.31096 0
M  V30 22048 H 2113.6 -2.48629 -3.339 0
M  V30 22049 H 2114.13 -3.46643 -1.95149 0
M  V30 22050 H 2110.87 -6.4086 -1.37764 0
M  V30 22051 H 2110.39 -5.3456 -2.7204 0
M  V30 22052 H 2112.07 -5.92667 -2.59528 0
M  V30 22053 N 2112.2 0.584116 -1.46376 0
M  V30 22054 C 2113.11 1.72116 -1.59415 0
M  V30 22055 C 2114.13 1.67314 -0.477692 0
M  V30 22056 O 2115.31 1.87248 -0.74162 0
M  V30 22057 C 2112.37 3.08617 -1.57975 0
M  V30 22058 C 2111.43 3.24694 -2.80842 0
M  V30 22059 C 2110.67 4.54683 -2.79462 0
M  V30 22060 O 2110.89 5.38484 -1.88126 0
M  V30 22061 O 2109.82 4.73977 -3.70985 0
M  V30 22062 H 2113.65 1.64062 -2.55572 0
M  V30 22063 H 2111.23 0.750995 -1.29153 0
M  V30 22064 H 2113.12 3.899 -1.59863 0
M  V30 22065 H 2111.79 3.17111 -0.649775 0
M  V30 22066 H 2110.7 2.4291 -2.84509 0
M  V30 22067 H 2112.03 3.2109 -3.73044 0
M  V30 22068 N 2113.68 1.34058 0.828631 0
M  V30 22069 C 2114.93 1.2628 1.58686 0
M  V30 22070 C 2115.26 -0.168425 1.93468 0
M  V30 22071 O 2114.54 -1.11237 1.59551 0
M  V30 22072 C 2114.82 2.14808 2.89015 0
M  V30 22073 C 2114.67 3.66439 2.60849 0
M  V30 22074 C 2115.99 2.02902 3.90536 0
M  V30 22075 H 2113.11 0.460068 0.575766 0
M  V30 22076 H 2115.75 1.64256 0.954988 0
M  V30 22077 H 2113.9 1.82551 3.42939 0
M  V30 22078 H 2115.58 4.09036 2.13278 0
M  V30 22079 H 2113.82 3.87811 1.94384 0
M  V30 22080 H 2114.49 4.23742 3.53761 0
M  V30 22081 H 2116.97 2.31212 3.45948 0
M  V30 22082 H 2115.84 2.6708 4.79541 0
M  V30 22083 H 2116.1 1.00429 4.30542 0
M  V30 22084 N 2115.16 -1.04814 1.17694 0
M  V30 22085 C 2116.11 -2.10947 0.865184 0
M  V30 22086 C 2117.1 -1.60084 -0.161881 0
M  V30 22087 O 2118.29 -1.76952 0.041095 0
M  V30 22088 C 2115.42 -3.41141 0.384442 0
M  V30 22089 C 2114.5 -3.98791 1.44315 0
M  V30 22090 N 2114.89 -4.30353 2.65762 0
M  V30 22091 C 2113.19 -4.26575 1.3019 0
M  V30 22092 C 2113.89 -4.76382 3.33818 0
M  V30 22093 N 2112.87 -4.76736 2.61197 0
M  V30 22094 H 2116.67 -2.33216 1.7885 0
M  V30 22095 H 2114.18 -1.22497 1.06622 0
M  V30 22096 H 2116.18 -4.16656 0.142634 0
M  V30 22097 H 2114.84 -3.20302 -0.532624 0
M  V30 22098 H 2115.85 -4.20234 3.02694 0
M  V30 22099 H 2112.53 -4.15102 0.446785 0
M  V30 22100 H 2113.92 -5.09885 4.37569 0
M  V30 22101 N 2116.64 -0.977779 -1.23601 0
M  V30 22102 C 2117.55 -0.524039 -2.28672 0
M  V30 22103 C 2118.57 0.419894 -1.68858 0
M  V30 22104 O 2119.74 0.290458 -1.99295 0
M  V30 22105 C 2116.81 0.16886 -3.46289 0
M  V30 22106 C 2115.87 -0.81615 -4.21471 0
M  V30 22107 C 2115.1 -0.156223 -5.33471 0
M  V30 22108 O 2115.32 1.05329 -5.60591 0
M  V30 22109 O 2114.26 -0.853473 -5.95818 0
M  V30 22110 H 2118.08 -1.39778 -2.69622 0
M  V30 22111 H 2115.67 -0.745288 -1.29483 0
M  V30 22112 H 2117.55 0.557659 -4.17694 0
M  V30 22113 H 2116.23 1.0174 -3.07296 0
M  V30 22114 H 2115.13 -1.2556 -3.524 0
M  V30 22115 H 2116.47 -1.63342 -4.64306 0
M  V30 22116 N 2118.12 1.38658 -0.749111 0
M  V30 22117 C 2119.03 2.34291 -0.120373 0
M  V30 22118 C 2120.04 1.59043 0.705796 0
M  V30 22119 O 2121.22 1.9126 0.63099 0
M  V30 22120 C 2118.28 3.38141 0.765626 0
M  V30 22121 C 2117.35 4.29236 -0.0744037 0
M  V30 22122 C 2116.58 5.28125 0.769401 0
M  V30 22123 O 2116.8 5.33902 2.0076 0
M  V30 22124 O 2115.74 6.01598 0.190576 0
M  V30 22125 H 2119.56 2.89744 -0.910056 0
M  V30 22126 H 2117.15 1.40428 -0.509948 0
M  V30 22127 H 2119.03 4.0174 1.27214 0
M  V30 22128 H 2117.7 2.8505 1.53388 0
M  V30 22129 H 2116.61 3.68812 -0.626761 0
M  V30 22130 H 2117.94 4.85569 -0.805208 0
M  V30 22131 N 2119.6 0.497834 1.49531 0
M  V30 22132 C 2120.51 -0.286926 2.32839 0
M  V30 22133 C 2121.52 -0.970397 1.44427 0
M  V30 22134 O 2122.7 -0.952478 1.77454 0
M  V30 22135 C 2119.76 -1.33928 3.19788 0
M  V30 22136 C 2118.82 -0.669588 4.24046 0
M  V30 22137 C 2118.06 -1.67181 5.0684 0
M  V30 22138 O 2118.28 -2.90132 4.91101 0
M  V30 22139 O 2117.21 -1.22887 5.89222 0
M  V30 22140 H 2121.04 0.394869 3.01122 0
M  V30 22141 H 2118.62 0.259218 1.47134 0
M  V30 22142 H 2120.51 -1.94822 3.73661 0
M  V30 22143 H 2119.18 -2.00407 2.54202 0
M  V30 22144 H 2118.09 -0.0209922 3.74094 0
M  V30 22145 H 2119.42 -0.0473067 4.92177 0
M  V30 22146 N 2121.07 -1.5589 0.231532 0
M  V30 22147 C 2122.48 -1.84671 -0.274487 0
M  V30 22148 C 2122.84 -1.15311 -1.58738 0
M  V30 22149 O 2121.96 -0.42619 -2.12162 0
M  V30 22150 C 2122.56 -3.35018 -0.504806 0
M  V30 22151 C 2121.11 -3.6408 -0.955115 0
M  V30 22152 C 2120.26 -2.7729 -0.023723 0
M  V30 22153 H 2123.21 -1.52053 0.454483 0
M  V30 22154 H 2123.23 -3.55765 -1.3495 0
M  V30 22155 H 2122.75 -3.85472 0.450902 0
M  V30 22156 H 2120.85 -3.19092 -1.92383 0
M  V30 22157 H 2120.96 -4.71985 -0.822615 0
M  V30 22158 H 2119.32 -2.49075 -0.53233 0
M  V30 22159 H 2120.11 -3.30545 0.927081 0
M  V30 22160 N 2122.55 0.0417572 -1.57545 0
M  V30 22161 C 2123.51 1.03085 -2.0471 0
M  V30 22162 C 2124.51 1.29808 -0.94903 0
M  V30 22163 O 2125.7 1.25024 -1.21304 0
M  V30 22164 C 2122.84 2.367 -2.45329 0
M  V30 22165 H 2124.03 0.623701 -2.93343 0
M  V30 22166 H 2121.58 0.288275 -1.53619 0
M  V30 22167 H 2122.32 2.82188 -1.59813 0
M  V30 22168 H 2122.1 2.18637 -3.25485 0
M  V30 22169 H 2123.59 3.07737 -2.8229 0
M  V30 22170 N 2124.03 1.54445 0.313786 0
M  V30 22171 C 2125.44 1.64251 0.887611 0
M  V30 22172 C 2125.79 0.542877 1.8854 0
M  V30 22173 O 2124.92 -0.322627 2.13981 0
M  V30 22174 C 2125.51 2.97739 1.61668 0
M  V30 22175 C 2124.07 3.09709 2.13909 0
M  V30 22176 C 2123.22 2.5987 0.967618 0
M  V30 22177 H 2126.17 1.58438 0.091111 0
M  V30 22178 H 2126.19 2.88447 2.4815 0
M  V30 22179 H 2125.7 3.77752 0.890231 0
M  V30 22180 H 2123.8 2.34391 2.89641 0
M  V30 22181 H 2123.92 4.15667 2.38239 0
M  V30 22182 H 2122.28 2.16006 1.34957 0
M  V30 22183 H 2123.06 3.42349 0.255325 0
M  V30 22184 N 2125.51 -0.576345 1.46683 0
M  V30 22185 C 2126.73 -1.36505 1.56145 0
M  V30 22186 C 2127.16 -1.86975 0.20539 0
M  V30 22187 O 2126.52 -1.6192 -0.815566 0
M  V30 22188 C 2126.56 -2.52417 2.57523 0
M  V30 22189 O 2125.67 -3.54056 2.11467 0
M  V30 22190 H 2125.01 -0.406262 0.525211 0
M  V30 22191 H 2127.54 -0.698466 1.92309 0
M  V30 22192 H 2127.55 -2.99248 2.77335 0
M  V30 22193 H 2126.22 -2.15036 3.55995 0
M  V30 22194 H 2124.8 -3.13661 2.01671 0
M  V30 22195 N 2126.99 -1.34495 -0.82151 0
M  V30 22196 C 2127.95 -1.2608 -1.91407 0
M  V30 22197 C 2128.95 -0.175671 -1.59838 0
M  V30 22198 O 2130.14 -0.428389 -1.6885 0
M  V30 22199 C 2127.27 -0.9469 -3.27485 0
M  V30 22200 H 2128.46 -2.23212 -2.00291 0
M  V30 22201 H 2126.02 -1.18804 -1.01565 0
M  V30 22202 H 2126.75 0.0211878 -3.24293 0
M  V30 22203 H 2126.54 -1.73181 -3.51782 0
M  V30 22204 H 2128.03 -0.913228 -4.07492 0
M  V30 22205 N 2128.46 1.04188 -1.18248 0
M  V30 22206 C 2129.71 1.76764 -0.971464 0
M  V30 22207 C 2130.03 1.89102 0.49997 0
M  V30 22208 O 2131.23 2.58519 0.829468 0
M  V30 22209 C 2129.69 3.17801 -1.68909 0
M  V30 22210 C 2129.3 3.1356 -3.19975 0
M  V30 22211 C 2131.04 3.94763 -1.56084 0
M  V30 22212 C 2128.95 4.49449 -3.84382 0
M  V30 22213 H 2127.88 0.662591 -0.359847 0
M  V30 22214 H 2130.53 1.16702 -1.41608 0
M  V30 22215 H 2128.91 3.78252 -1.17224 0
M  V30 22216 H 2130.08 2.62568 -3.78675 0
M  V30 22217 H 2128.4 2.50097 -3.32927 0
M  V30 22218 H 2131 4.95253 -2.01566 0
M  V30 22219 H 2131.34 4.13128 -0.512919 0
M  V30 22220 H 2131.87 3.40885 -2.05043 0
M  V30 22221 H 2128.61 4.36289 -4.89216 0
M  V30 22222 H 2128.13 5.00549 -3.3047 0
M  V30 22223 H 2129.81 5.18367 -3.87175 0
M  V30 22224 N 2129.94 0.98432 1.23081 0
M  V30 22225 C 2131.17 0.673202 1.9617 0
M  V30 22226 C 2131.59 -0.753958 1.72328 0
M  V30 22227 O 2130.95 -1.51414 0.997167 0
M  V30 22228 C 2131 0.974266 3.47189 0
M  V30 22229 O 2130.1 0.0683695 4.12343 0
M  V30 22230 H 2129.44 0.252801 0.613993 0
M  V30 22231 H 2131.97 1.31898 1.5641 0
M  V30 22232 H 2131.98 0.912577 3.97663 0
M  V30 22233 H 2130.66 2.01426 3.63868 0
M  V30 22234 H 2129.24 0.184805 3.72442 0
M  V30 22235 N 2131.42 -1.38259 0.756453 0
M  V30 22236 C 2132.7 -1.94131 0.239274 0
M  V30 22237 C 2133.08 -1.6915 -1.26299 0
M  V30 22238 O 2132.43 -1.03165 -2.03885 0
M  V30 22239 C 2132.64 -3.43872 0.596071 0
M  V30 22240 C 2133.98 -4.20927 0.557312 0
M  V30 22241 O 2135.01 -3.52166 0.534537 0
M  V30 22242 O 2133.87 -5.43511 0.57079 0
M  V30 22243 H 2130.96 -0.82543 0.0509403 0
M  V30 22244 H 2133.51 -1.47636 0.83677 0
M  V30 22245 H 2132.28 -3.55575 1.63348 0
M  V30 22246 H 2131.9 -3.97589 -0.0292809 0
M  V30 22247 N 2132.9 -0.505757 -1.49264 0
M  V30 22248 C 2133.83 0.259368 -2.32055 0
M  V30 22249 C 2134.81 0.95808 -1.40552 0
M  V30 22250 O 2135.99 0.948562 -1.69458 0
M  V30 22251 C 2133.12 1.32138 -3.2118 0
M  V30 22252 C 2132.08 0.742267 -4.21514 0
M  V30 22253 C 2131.4 1.90515 -4.99608 0
M  V30 22254 C 2132.7 -0.269866 -5.21602 0
M  V30 22255 H 2134.4 -0.431697 -2.96271 0
M  V30 22256 H 2131.94 -0.209055 -1.42474 0
M  V30 22257 H 2133.9 1.86441 -3.77912 0
M  V30 22258 H 2132.62 2.0417 -2.54916 0
M  V30 22259 H 2131.28 0.220956 -3.65934 0
M  V30 22260 H 2130.93 2.61327 -4.29788 0
M  V30 22261 H 2130.63 1.52371 -5.67501 0
M  V30 22262 H 2132.15 2.45242 -5.59186 0
M  V30 22263 H 2133.57 0.18519 -5.73001 0
M  V30 22264 H 2131.96 -0.567397 -5.97412 0
M  V30 22265 H 2133.03 -1.18411 -4.7022 0
M  V30 22266 N 2134.38 1.55765 -0.239796 0
M  V30 22267 C 2135.31 2.24064 0.657067 0
M  V30 22268 C 2136.29 1.2185 1.18687 0
M  V30 22269 O 2137.47 1.50484 1.22753 0
M  V30 22270 C 2134.6 2.93465 1.8573 0
M  V30 22271 C 2133.56 4.02307 1.46057 0
M  V30 22272 C 2132.88 4.59097 2.74106 0
M  V30 22273 C 2134.18 5.18402 0.636932 0
M  V30 22274 H 2135.88 2.99272 0.0875675 0
M  V30 22275 H 2133.42 1.43943 0.0406772 0
M  V30 22276 H 2135.38 3.39943 2.49032 0
M  V30 22277 H 2134.1 2.15734 2.45207 0
M  V30 22278 H 2132.76 3.56588 0.850935 0
M  V30 22279 H 2132.41 3.78075 3.31766 0
M  V30 22280 H 2132.11 5.32566 2.48288 0
M  V30 22281 H 2133.63 5.08304 3.38318 0
M  V30 22282 H 2135.04 5.61149 1.17408 0
M  V30 22283 H 2133.44 5.98216 0.475092 0
M  V30 22284 H 2134.51 4.83617 -0.352445 0
M  V30 22285 N 2135.85 -0.0334016 1.57565 0
M  V30 22286 C 2136.79 -1.06286 2.03066 0
M  V30 22287 C 2137.8 -1.32726 0.942744 0
M  V30 22288 O 2138.99 -1.3029 1.22012 0
M  V30 22289 C 2136.09 -2.40547 2.38727 0
M  V30 22290 C 2135.26 -2.33524 3.69845 0
M  V30 22291 C 2134.32 -3.50199 3.92743 0
M  V30 22292 O 2133.35 -3.29889 4.63856 0
M  V30 22293 N 2134.55 -4.71916 3.38047 0
M  V30 22294 H 2137.31 -0.675062 2.91998 0
M  V30 22295 H 2134.87 -0.221423 1.60379 0
M  V30 22296 H 2136.87 -3.17313 2.51186 0
M  V30 22297 H 2135.44 -2.71187 1.55488 0
M  V30 22298 H 2134.66 -1.41885 3.6778 0
M  V30 22299 H 2135.94 -2.2597 4.55867 0
M  V30 22300 H 2135.34 -4.91318 2.80398 0
M  V30 22301 H 2133.9 -5.46062 3.55893 0
M  V30 22302 N 2137.33 -1.54609 -0.305591 0
M  V30 22303 C 2138.3 -1.84504 -1.35982 0
M  V30 22304 C 2139.3 -0.717695 -1.43895 0
M  V30 22305 O 2140.49 -0.985988 -1.4361 0
M  V30 22306 C 2137.62 -2.0212 -2.74518 0
M  V30 22307 H 2138.81 -2.78713 -1.10721 0
M  V30 22308 H 2136.36 -1.46601 -0.542022 0
M  V30 22309 H 2137.1 -1.10183 -3.05009 0
M  V30 22310 H 2136.88 -2.84171 -2.70166 0
M  V30 22311 H 2138.37 -2.26635 -3.50751 0
M  V30 22312 N 2138.81 0.568558 -1.46987 0
M  V30 22313 C 2140.06 1.32819 -1.53255 0
M  V30 22314 C 2140.39 1.93274 -0.189458 0
M  V30 22315 O 2139.66 1.77254 0.800699 0
M  V30 22316 C 2139.95 2.44688 -2.64196 0
M  V30 22317 C 2139.8 1.89176 -4.08084 0
M  V30 22318 C 2141.12 3.46671 -2.71122 0
M  V30 22319 H 2138.24 0.481565 -0.557911 0
M  V30 22320 H 2140.88 0.637355 -1.78991 0
M  V30 22321 H 2139.03 3.03617 -2.42382 0
M  V30 22322 H 2140.7 1.34596 -4.41227 0
M  V30 22323 H 2138.95 1.19918 -4.16896 0
M  V30 22324 H 2139.62 2.69995 -4.81463 0
M  V30 22325 H 2142.09 2.97645 -2.90769 0
M  V30 22326 H 2140.97 4.22387 -3.50543 0
M  V30 22327 H 2141.23 4.04802 -1.7773 0
M  V30 22328 N 2140.29 1.34929 0.814366 0
M  V30 22329 C 2141.57 1.18339 1.55741 0
M  V30 22330 C 2141.95 -0.240616 2.09724 0
M  V30 22331 O 2141.29 -1.2431 1.91727 0
M  V30 22332 C 2141.5 2.24503 2.67206 0
M  V30 22333 C 2142.85 2.59917 3.35751 0
M  V30 22334 O 2143.88 2.23358 2.7747 0
M  V30 22335 O 2142.73 3.22749 4.41017 0
M  V30 22336 H 2139.83 0.459265 0.687753 0
M  V30 22337 H 2142.37 1.46587 0.854999 0
M  V30 22338 H 2141.15 3.20048 2.25133 0
M  V30 22339 H 2140.77 1.9748 3.4509 0
M  V30 22340 N 2141.77 -1.0356 1.18799 0
M  V30 22341 C 2142.99 -1.81025 1.01216 0
M  V30 22342 C 2143.42 -1.8301 -0.434636 0
M  V30 22343 O 2142.77 -1.25115 -1.3121 0
M  V30 22344 C 2142.82 -3.24257 1.57766 0
M  V30 22345 O 2141.93 -4.04518 0.802435 0
M  V30 22346 H 2141.27 -0.559085 0.358218 0
M  V30 22347 H 2143.8 -1.30389 1.57671 0
M  V30 22348 H 2143.81 -3.75022 1.60694 0
M  V30 22349 H 2142.48 -3.22127 2.63073 0
M  V30 22350 H 2141.06 -3.6318 0.845866 0
M  V30 22351 N 2143.25 -0.990834 -1.22557 0
M  V30 22352 C 2144.16 -0.548263 -2.28104 0
M  V30 22353 C 2145.17 0.401961 -1.69293 0
M  V30 22354 O 2146.35 0.269304 -1.99591 0
M  V30 22355 C 2143.41 0.132121 -3.46448 0
M  V30 22356 C 2142.47 -0.860806 -4.20581 0
M  V30 22357 C 2141.71 -0.212796 -5.33276 0
M  V30 22358 O 2141.93 0.993773 -5.61676 0
M  V30 22359 O 2140.86 -0.916619 -5.9488 0
M  V30 22360 H 2144.69 -1.4263 -2.68124 0
M  V30 22361 H 2142.27 -0.758979 -1.28685 0
M  V30 22362 H 2144.16 0.513325 -4.18262 0
M  V30 22363 H 2142.83 0.984754 -3.08357 0
M  V30 22364 H 2141.74 -1.2929 -3.51048 0
M  V30 22365 H 2143.07 -1.68257 -4.62548 0
M  V30 22366 N 2144.72 1.37856 -0.763775 0
M  V30 22367 C 2145.63 2.3415 -0.145216 0
M  V30 22368 C 2146.65 1.59782 0.688888 0
M  V30 22369 O 2147.83 1.91919 0.610668 0
M  V30 22370 C 2144.89 3.38934 0.729718 0
M  V30 22371 C 2143.95 4.29132 -0.119926 0
M  V30 22372 C 2143.18 5.28911 0.713343 0
M  V30 22373 O 2143.41 5.36002 1.95086 0
M  V30 22374 O 2142.34 6.01767 0.126758 0
M  V30 22375 H 2146.17 2.88763 -0.940736 0
M  V30 22376 H 2143.75 1.39879 -0.524814 0
M  V30 22377 H 2145.63 4.03066 1.22946 0
M  V30 22378 H 2144.31 2.86661 1.50356 0
M  V30 22379 H 2143.22 3.68127 -0.665843 0
M  V30 22380 H 2144.55 4.84688 -0.856664 0
M  V30 22381 N 2146.2 0.513665 1.48994 0
M  V30 22382 C 2147.45 -0.0263732 2.02783 0
M  V30 22383 C 2147.78 -1.35469 1.39147 0
M  V30 22384 O 2147.06 -1.87097 0.531511 0
M  V30 22385 C 2147.34 -0.165605 3.59719 0
M  V30 22386 C 2147.19 1.18673 4.33863 0
M  V30 22387 C 2148.51 -0.900228 4.30794 0
M  V30 22388 H 2145.63 -0.00811043 0.736955 0
M  V30 22389 H 2148.27 0.667534 1.77888 0
M  V30 22390 H 2146.42 -0.756613 3.81061 0
M  V30 22391 H 2148.09 1.81759 4.23983 0
M  V30 22392 H 2146.34 1.77281 3.95922 0
M  V30 22393 H 2147.01 1.04247 5.42067 0
M  V30 22394 H 2149.48 -0.398863 4.14184 0
M  V30 22395 H 2148.36 -0.966514 5.40324 0
M  V30 22396 H 2148.62 -1.94685 3.96926 0
M  V30 22397 N 2147.68 -1.55636 0.248053 0
M  V30 22398 C 2149.1 -1.59242 -0.10677 0
M  V30 22399 C 2149.3 -1.26521 -1.56827 0
M  V30 22400 O 2148.35 -1.01308 -2.31285 0
M  V30 22401 C 2149.66 -2.99713 0.243455 0
M  V30 22402 C 2151.21 -3.12436 0.187848 0
M  V30 22403 C 2151.69 -4.55128 0.512122 0
M  V30 22404 N 2153.18 -4.60884 0.462665 0
M  V30 22405 C 2153.91 -5.69273 0.686723 0
M  V30 22406 N 2153.41 -6.8592 0.973967 0
M  V30 22407 N 2155.2 -5.587 0.617351 0
M  V30 22408 H 2147.35 -1.75175 1.20114 0
M  V30 22409 H 2149.62 -0.81551 0.483371 0
M  V30 22410 H 2149.32 -3.28399 1.25884 0
M  V30 22411 H 2149.2 -3.74754 -0.428884 0
M  V30 22412 H 2151.58 -2.8353 -0.818215 0
M  V30 22413 H 2151.66 -2.39667 0.894055 0
M  V30 22414 H 2151.31 -4.84755 1.51575 0
M  V30 22415 H 2151.24 -5.26159 -0.215575 0
M  V30 22416 H 2153.73 -3.77076 0.249427 0
M  V30 22417 H 2154.04 -7.64459 1.13232 0
M  V30 22418 H 2152.39 -6.87601 1.01145 0
M  V30 22419 H 2155.58 -4.66447 0.392982 0
M  V30 22420 H 2155.75 -6.431 0.795363 0
M  V30 22421 N 2149.16 0.0250451 -1.5758 0
M  V30 22422 C 2150.07 1.04128 -2.10225 0
M  V30 22423 C 2151.08 1.39367 -1.04178 0
M  V30 22424 O 2152.26 1.48605 -1.35936 0
M  V30 22425 C 2149.32 2.32208 -2.5745 0
M  V30 22426 C 2148.39 2.03512 -3.77996 0
M  V30 22427 C 2147.62 3.25486 -4.22959 0
M  V30 22428 O 2147.84 4.36301 -3.6742 0
M  V30 22429 O 2146.78 3.1095 -5.15358 0
M  V30 22430 H 2150.6 0.623859 -2.97223 0
M  V30 22431 H 2148.19 0.242286 -1.47422 0
M  V30 22432 H 2150.07 3.07498 -2.88137 0
M  V30 22433 H 2148.74 2.73237 -1.73561 0
M  V30 22434 H 2147.65 1.25777 -3.52322 0
M  V30 22435 H 2148.98 1.67337 -4.62882 0
M  V30 22436 N 2150.64 1.54769 0.297388 0
M  V30 22437 C 2151.87 1.77959 1.04948 0
M  V30 22438 C 2152.27 0.54095 1.81302 0
M  V30 22439 O 2151.62 -0.498902 1.76796 0
M  V30 22440 C 2151.68 2.93664 2.07368 0
M  V30 22441 C 2151.34 4.3162 1.50177 0
M  V30 22442 C 2152.34 5.11516 0.929935 0
M  V30 22443 C 2150.02 4.78229 1.53631 0
M  V30 22444 C 2152.02 6.36142 0.400253 0
M  V30 22445 C 2149.71 6.02817 1.00276 0
M  V30 22446 C 2150.7 6.81609 0.435703 0
M  V30 22447 O 2150.39 8.0385 -0.0897463 0
M  V30 22448 H 2150.12 0.597144 0.316852 0
M  V30 22449 H 2152.68 2.02548 0.341093 0
M  V30 22450 H 2150.91 2.64708 2.81898 0
M  V30 22451 H 2152.6 3.04398 2.68509 0
M  V30 22452 H 2153.36 4.76649 0.896125 0
M  V30 22453 H 2149.24 4.16926 1.96707 0
M  V30 22454 H 2152.79 6.97587 -0.0430005 0
M  V30 22455 H 2148.68 6.37169 1.03373 0
M  V30 22456 H 2149.45 8.18497 0.0232118 0
M  V30 22457 N 2152.11 -0.560755 1.47286 0
M  V30 22458 C 2153.35 -1.3289 1.55305 0
M  V30 22459 C 2153.72 -1.9086 0.208898 0
M  V30 22460 O 2154.92 -2.683 0.163911 0
M  V30 22461 C 2153.19 -2.41196 2.63741 0
M  V30 22462 S 2154.75 -3.28146 2.91318 0
M  V30 22463 H 2151.57 -0.452457 0.548456 0
M  V30 22464 H 2154.17 -0.642337 1.84646 0
M  V30 22465 H 2152.87 -1.97037 3.60006 0
M  V30 22466 H 2152.4 -3.14598 2.36202 0
M  V30 22467 H 2154.42 -4.4058 2.28261 0
M  V30 22468 N 2153.59 -1.35359 -0.807199 0
M  V30 22469 C 2155.01 -1.15384 -1.10266 0
M  V30 22470 C 2155.21 0.0341061 -2.01471 0
M  V30 22471 O 2154.26 0.704898 -2.42461 0
M  V30 22472 C 2155.58 -2.45652 -1.73423 0
M  V30 22473 C 2157.12 -2.51853 -1.85847 0
M  V30 22474 C 2157.6 -3.82163 -2.5242 0
M  V30 22475 N 2159.09 -3.83411 -2.59905 0
M  V30 22476 C 2159.83 -4.80967 -3.12183 0
M  V30 22477 N 2159.32 -5.88912 -3.64903 0
M  V30 22478 N 2161.11 -4.68405 -3.1073 0
M  V30 22479 H 2153.27 -2.11448 -0.200891 0
M  V30 22480 H 2155.53 -0.935782 -0.151711 0
M  V30 22481 H 2155.23 -3.32755 -1.13874 0
M  V30 22482 H 2155.11 -2.60154 -2.73129 0
M  V30 22483 H 2157.5 -1.6518 -2.4454 0
M  V30 22484 H 2157.58 -2.41265 -0.84998 0
M  V30 22485 H 2157.22 -4.69234 -1.94376 0
M  V30 22486 H 2157.15 -3.90039 -3.53804 0
M  V30 22487 H 2159.64 -3.05415 -2.22553 0
M  V30 22488 H 2159.95 -6.59346 -4.03091 0
M  V30 22489 H 2158.3 -5.92605 -3.63104 0
M  V30 22490 H 2161.49 -3.83215 -2.6882 0
M  V30 22491 H 2161.66 -5.44598 -3.51166 0
M  V30 22492 N 2155.07 1.02928 -1.19346 0
M  V30 22493 C 2156.29 1.80485 -1.02175 0
M  V30 22494 C 2156.72 1.83238 0.424925 0
M  V30 22495 O 2156.08 1.25809 1.30545 0
M  V30 22496 C 2156.13 3.23415 -1.59483 0
M  V30 22497 O 2155.23 4.04087 -0.823877 0
M  V30 22498 H 2154.57 0.557177 -0.361178 0
M  V30 22499 H 2157.1 1.29551 -1.5836 0
M  V30 22500 H 2157.11 3.74164 -1.62681 0
M  V30 22501 H 2155.79 3.20727 -2.64777 0
M  V30 22502 H 2154.36 3.62726 -0.865114 0
M  V30 22503 N 2156.55 0.997319 1.2203 0
M  V30 22504 C 2157.49 0.551276 2.2412 0
M  V30 22505 C 2158.46 -0.418681 1.60737 0
M  V30 22506 O 2159.65 -0.322451 1.88056 0
M  V30 22507 C 2156.79 -0.123569 3.44879 0
M  V30 22508 C 2155.9 0.888653 4.22761 0
M  V30 22509 C 2155.04 0.186868 5.30871 0
M  V30 22510 C 2154.08 1.18716 6.00477 0
M  V30 22511 N 2153.21 0.513378 7.00221 0
M  V30 22512 H 2158.05 1.42656 2.61636 0
M  V30 22513 H 2155.59 0.714493 1.28582 0
M  V30 22514 H 2157.55 -0.53179 4.13797 0
M  V30 22515 H 2156.18 -0.962614 3.08113 0
M  V30 22516 H 2155.23 1.41517 3.53096 0
M  V30 22517 H 2156.54 1.65019 4.70712 0
M  V30 22518 H 2155.7 -0.277858 6.06063 0
M  V30 22519 H 2154.44 -0.60714 4.83906 0
M  V30 22520 H 2153.44 1.66247 5.24063 0
M  V30 22521 H 2154.67 1.98212 6.4953 0
M  V30 22522 H 2152.61 -0.261113 6.5548 0
M  V30 22523 H 2152.53 1.21329 7.462 0
M  V30 22524 H 2153.8 0.0716018 7.79467 0
M  V30 22525 N 2158.03 -1.37449 0.771075 0
M  V30 22526 C 2159.27 -1.99314 0.33443 0
M  V30 22527 C 2159.6 -1.61515 -1.0926 0
M  V30 22528 O 2158.87 -0.880278 -1.75008 0
M  V30 22529 H 2157.45 -0.73719 0.120664 0
M  V30 22530 H 2160.11 -1.6794 0.989052 0
M  V30 22531 H 2159.2 -3.09375 0.411526 0
M  V30 22532 N 2159.5 -0.52156 -1.4872 0
M  V30 22533 C 2160.75 0.00752906 -2.03399 0
M  V30 22534 C 2161.11 1.32786 -1.39233 0
M  V30 22535 O 2160.4 1.84239 -0.525988 0
M  V30 22536 C 2160.59 0.195406 -3.56865 0
M  V30 22537 C 2160.42 -1.10516 -4.35909 0
M  V30 22538 C 2159.19 -1.66269 -4.77161 0
M  V30 22539 C 2161.39 -2.01366 -4.7324 0
M  V30 22540 N 2159.37 -2.90702 -5.40708 0
M  V30 22541 C 2160.74 -3.10376 -5.36719 0
M  V30 22542 C 2162.8 -2.01795 -4.55174 0
M  V30 22543 C 2161.5 -4.19867 -5.84041 0
M  V30 22544 C 2163.53 -3.10275 -5.03471 0
M  V30 22545 C 2162.89 -4.18003 -5.66968 0
M  V30 22546 H 2158.99 -0.0385357 -0.78105 0
M  V30 22547 H 2161.57 -0.700975 -1.81644 0
M  V30 22548 H 2159.74 0.872986 -3.78462 0
M  V30 22549 H 2161.47 0.723345 -3.98183 0
M  V30 22550 H 2158.23 -1.20516 -4.5801 0
M  V30 22551 H 2158.65 -3.54031 -5.77053 0
M  V30 22552 H 2163.3 -1.19806 -4.05471 0
M  V30 22553 H 2161.01 -5.02641 -6.32754 0
M  V30 22554 H 2164.6 -3.11652 -4.91289 0
M  V30 22555 H 2163.48 -5.00561 -6.03662 0
M  V30 22556 N 2160.98 1.55502 -0.256304 0
M  V30 22557 C 2162.23 1.98345 0.366351 0
M  V30 22558 C 2162.54 1.14786 1.58378 0
M  V30 22559 O 2163.75 1.47686 2.27818 0
M  V30 22560 C 2162.21 3.52964 0.703174 0
M  V30 22561 C 2161.81 4.45275 -0.493386 0
M  V30 22562 C 2163.56 4.04441 1.2895 0
M  V30 22563 C 2161.47 5.91252 -0.132195 0
M  V30 22564 H 2160.4 0.740764 0.140656 0
M  V30 22565 H 2163.05 1.79974 -0.358 0
M  V30 22566 H 2161.43 3.67065 1.48591 0
M  V30 22567 H 2162.6 4.42936 -1.27059 0
M  V30 22568 H 2160.92 4.04331 -0.995272 0
M  V30 22569 H 2163.51 5.11032 1.57322 0
M  V30 22570 H 2163.86 3.52348 2.21713 0
M  V30 22571 H 2164.39 3.93703 0.569458 0
M  V30 22572 H 2161.13 6.47401 -1.02721 0
M  V30 22573 H 2160.65 5.96704 0.608619 0
M  V30 22574 H 2162.33 6.46384 0.282295 0
M  V30 22575 N 2162.46 -0.0166879 1.57591 0
M  V30 22576 C 2163.71 -0.706033 1.90113 0
M  V30 22577 C 2164.04 -1.74339 0.855541 0
M  V30 22578 O 2163.31 -1.94079 -0.127874 0
M  V30 22579 C 2163.6 -1.36436 3.33253 0
M  V30 22580 C 2163.45 -0.339675 4.48516 0
M  V30 22581 C 2164.77 -2.29505 3.7552 0
M  V30 22582 H 2161.89 -0.255199 0.691406 0
M  V30 22583 H 2164.53 0.0311796 1.89974 0
M  V30 22584 H 2162.68 -1.99271 3.33501 0
M  V30 22585 H 2164.35 0.287715 4.60402 0
M  V30 22586 H 2162.6 0.339799 4.32467 0
M  V30 22587 H 2163.27 -0.839026 5.45586 0
M  V30 22588 H 2165.74 -1.76702 3.76717 0
M  V30 22589 H 2164.62 -2.72542 4.76458 0
M  V30 22590 H 2164.88 -3.16708 3.08461 0
M  V30 22591 N 2163.94 -1.54924 -0.289176 0
M  V30 22592 C 2164.85 -1.89766 -1.37935 0
M  V30 22593 C 2165.86 -0.793081 -1.54875 0
M  V30 22594 O 2167.04 -1.09065 -1.69312 0
M  V30 22595 C 2164.11 -2.14824 -2.72124 0
M  V30 22596 C 2163.17 -3.38476 -2.64069 0
M  V30 22597 C 2162.4 -3.62329 -3.91859 0
M  V30 22598 O 2162.62 -2.88978 -4.9178 0
M  V30 22599 O 2161.56 -4.55856 -3.93038 0
M  V30 22600 H 2165.38 -2.82536 -1.11387 0
M  V30 22601 H 2162.97 -1.41264 -0.486286 0
M  V30 22602 H 2164.85 -2.32438 -3.51498 0
M  V30 22603 H 2163.52 -1.25238 -2.98491 0
M  V30 22604 H 2162.43 -3.26213 -1.83127 0
M  V30 22605 H 2163.76 -4.28229 -2.42654 0
M  V30 22606 N 2165.42 0.552936 -1.47582 0
M  V30 22607 C 2166.33 1.68696 -1.6303 0
M  V30 22608 C 2167.34 1.66263 -0.513075 0
M  V30 22609 O 2168.52 1.85633 -0.781171 0
M  V30 22610 C 2165.58 3.05197 -1.64486 0
M  V30 22611 C 2164.64 3.18664 -2.87666 0
M  V30 22612 C 2163.88 4.48653 -2.89043 0
M  V30 22613 O 2164.1 5.34372 -1.99506 0
M  V30 22614 O 2163.03 4.66001 -3.80955 0
M  V30 22615 H 2166.86 1.58604 -2.58995 0
M  V30 22616 H 2164.45 0.723431 -1.30717 0
M  V30 22617 H 2166.33 3.86421 -1.68098 0
M  V30 22618 H 2165 3.15662 -0.716893 0
M  V30 22619 H 2163.91 2.36821 -2.89597 0
M  V30 22620 H 2165.24 3.13105 -3.79771 0
M  V30 22621 N 2166.89 1.35785 0.800009 0
M  V30 22622 C 2168.31 1.15967 1.09653 0
M  V30 22623 C 2168.51 -0.0234211 2.01486 0
M  V30 22624 O 2167.57 -0.692029 2.42832 0
M  V30 22625 C 2168.88 2.46568 1.72118 0
M  V30 22626 C 2170.43 2.52835 1.84509 0
M  V30 22627 C 2170.9 3.83496 2.50389 0
M  V30 22628 N 2172.39 3.84783 2.57868 0
M  V30 22629 C 2173.13 4.82616 3.09628 0
M  V30 22630 N 2172.62 5.90839 3.61775 0
M  V30 22631 N 2174.42 4.70046 3.08242 0
M  V30 22632 H 2166.57 2.11551 0.189675 0
M  V30 22633 H 2168.83 0.936573 0.146746 0
M  V30 22634 H 2168.54 3.33354 1.12108 0
M  V30 22635 H 2168.41 2.61599 2.71746 0
M  V30 22636 H 2170.8 1.66474 2.4366 0
M  V30 22637 H 2170.88 2.41713 0.837173 0
M  V30 22638 H 2170.52 4.70258 1.91885 0
M  V30 22639 H 2170.45 3.9191 3.5173 0
M  V30 22640 H 2172.94 3.06591 2.2093 0
M  V30 22641 H 2173.26 6.61475 3.99589 0
M  V30 22642 H 2171.6 5.94522 3.59956 0
M  V30 22643 H 2174.79 3.84635 2.66784 0
M  V30 22644 H 2174.97 5.46452 3.48273 0
M  V30 22645 N 2168.37 -1.02294 1.19891 0
M  V30 22646 C 2169.62 -1.76051 1.00667 0
M  V30 22647 C 2169.95 -1.88654 -0.460802 0
M  V30 22648 O 2169.23 -1.4077 -1.34216 0
M  V30 22649 C 2169.51 -3.18331 1.68338 0
M  V30 22650 C 2169.36 -3.13562 3.22489 0
M  V30 22651 C 2170.68 -4.16859 1.41125 0
M  V30 22652 H 2167.8 -0.639057 0.367117 0
M  V30 22653 H 2170.44 -1.19377 1.47815 0
M  V30 22654 H 2168.59 -3.6672 1.28252 0
M  V30 22655 H 2170.26 -2.73025 3.71827 0
M  V30 22656 H 2168.51 -2.51121 3.53724 0
M  V30 22657 H 2169.18 -4.1411 3.64989 0
M  V30 22658 H 2171.65 -3.77097 1.75889 0
M  V30 22659 H 2170.53 -5.14592 1.91015 0
M  V30 22660 H 2170.79 -4.40809 0.33758 0
M  V30 22661 N 2169.85 -1.00378 -1.21499 0
M  V30 22662 C 2171.08 -0.704573 -1.94534 0
M  V30 22663 C 2171.49 0.732632 -1.74006 0
M  V30 22664 O 2170.85 1.49556 -1.04591 0
M  V30 22665 C 2170.9 -1.01461 -3.4697 0
M  V30 22666 O 2170.62 -2.39535 -3.66817 0
M  V30 22667 C 2172.12 -0.734641 -4.3717 0
M  V30 22668 H 2169.34 -0.259747 -0.618686 0
M  V30 22669 H 2171.89 -1.34149 -1.54351 0
M  V30 22670 H 2170.04 -0.423313 -3.8508 0
M  V30 22671 H 2170.46 -2.50302 -4.60922 0
M  V30 22672 H 2171.93 -1.00176 -5.42834 0
M  V30 22673 H 2172.41 0.331329 -4.37948 0
M  V30 22674 H 2173.01 -1.30749 -4.04703 0
M  V30 22675 N 2171.33 1.37038 -0.778354 0
M  V30 22676 C 2172.24 2.33983 -0.170042 0
M  V30 22677 C 2173.25 1.60504 0.671902 0
M  V30 22678 O 2174.43 1.92556 0.590278 0
M  V30 22679 C 2171.5 3.39689 0.693729 0
M  V30 22680 C 2170.56 4.28981 -0.165434 0
M  V30 22681 C 2169.79 5.29638 0.657205 0
M  V30 22682 O 2170.01 5.38041 1.8939 0
M  V30 22683 O 2168.95 6.01867 0.0629255 0
M  V30 22684 H 2172.77 2.87749 -0.97131 0
M  V30 22685 H 2170.36 1.39314 -0.53962 0
M  V30 22686 H 2172.24 4.04348 1.18664 0
M  V30 22687 H 2170.91 2.8824 1.47307 0
M  V30 22688 H 2169.82 3.674 -0.704851 0
M  V30 22689 H 2171.15 4.83752 -0.908023 0
M  V30 22690 N 2172.81 0.529439 1.48441 0
M  V30 22691 C 2173.74 -0.222417 2.32438 0
M  V30 22692 C 2174.72 -0.935598 1.42058 0
M  V30 22693 O 2175.9 -0.921483 1.70945 0
M  V30 22694 C 2173.03 -1.27012 3.23242 0
M  V30 22695 C 2171.99 -0.675114 4.22642 0
M  V30 22696 C 2171.31 -1.82543 5.02576 0
M  V30 22697 C 2172.61 0.352815 5.21107 0
M  V30 22698 H 2174.31 0.478777 2.95547 0
M  V30 22699 H 2171.85 0.231695 1.42124 0
M  V30 22700 H 2173.81 -1.80405 3.80831 0
M  V30 22701 H 2172.53 -2.00089 2.58132 0
M  V30 22702 H 2171.19 -0.162711 3.66239 0
M  V30 22703 H 2170.84 -2.54456 4.33891 0
M  V30 22704 H 2170.54 -1.43323 5.69853 0
M  V30 22705 H 2172.06 -2.36315 5.63017 0
M  V30 22706 H 2173.48 -0.0940075 5.73223 0
M  V30 22707 H 2171.87 0.662368 5.96433 0
M  V30 22708 H 2172.94 1.25877 4.68277 0
M  V30 22709 N 2174.29 -1.55364 0.264547 0
M  V30 22710 C 2175.23 -2.22106 -0.62749 0
M  V30 22711 C 2176.2 -1.1909 -1.15788 0
M  V30 22712 O 2177.39 -1.47597 -1.20912 0
M  V30 22713 C 2174.53 -2.93783 -1.81068 0
M  V30 22714 C 2173.64 -4.11495 -1.31515 0
M  V30 22715 C 2172.78 -4.70842 -2.45929 0
M  V30 22716 C 2171.81 -5.80768 -1.93326 0
M  V30 22717 N 2170.95 -6.34223 -3.01173 0
M  V30 22718 H 2175.79 -2.97955 -0.0516766 0
M  V30 22719 H 2173.33 -1.47094 -0.0137419 0
M  V30 22720 H 2175.29 -3.33549 -2.50601 0
M  V30 22721 H 2173.92 -2.20376 -2.35869 0
M  V30 22722 H 2172.97 -3.76921 -0.513271 0
M  V30 22723 H 2174.28 -4.908 -0.88977 0
M  V30 22724 H 2173.43 -5.13274 -3.23474 0
M  V30 22725 H 2172.17 -3.90791 -2.91777 0
M  V30 22726 H 2171.18 -5.37797 -1.14257 0
M  V30 22727 H 2172.4 -6.62681 -1.48426 0
M  V30 22728 H 2170.35 -5.5707 -3.46423 0
M  V30 22729 H 2170.27 -7.08771 -2.63021 0
M  V30 22730 H 2171.53 -6.81313 -3.78725 0
M  V30 22731 N 2175.76 0.00833021 -1.57598 0
M  V30 22732 C 2176.69 1.0015 -2.10932 0
M  V30 22733 C 2177.67 1.36385 -1.01653 0
M  V30 22734 O 2178.86 1.44906 -1.2929 0
M  V30 22735 C 2175.99 2.296 -2.60578 0
M  V30 22736 C 2174.94 2.07551 -3.74308 0
M  V30 22737 C 2174.27 3.42942 -4.10238 0
M  V30 22738 C 2175.57 1.44484 -5.01918 0
M  V30 22739 H 2177.26 0.557461 -2.94164 0
M  V30 22740 H 2174.81 0.266703 -1.41509 0
M  V30 22741 H 2176.76 2.99428 -2.96515 0
M  V30 22742 H 2175.49 2.76103 -1.74456 0
M  V30 22743 H 2174.15 1.40152 -3.38752 0
M  V30 22744 H 2173.79 3.87132 -3.21151 0
M  V30 22745 H 2173.49 3.29007 -4.86855 0
M  V30 22746 H 2175.02 4.14098 -4.48726 0
M  V30 22747 H 2176.43 2.04256 -5.35679 0
M  V30 22748 H 2174.83 1.41063 -5.83285 0
M  V30 22749 H 2175.9 0.413049 -4.83138 0
M  V30 22750 N 2177.24 1.55075 0.280956 0
M  V30 22751 C 2178.15 1.90495 1.36927 0
M  V30 22752 C 2179.17 0.801283 1.54452 0
M  V30 22753 O 2180.34 1.09962 1.68732 0
M  V30 22754 C 2177.41 2.16264 2.70981 0
M  V30 22755 C 2176.47 3.39872 2.6227 0
M  V30 22756 C 2175.7 3.64402 3.89932 0
M  V30 22757 O 2175.93 2.91582 4.90241 0
M  V30 22758 O 2174.86 4.57934 3.90615 0
M  V30 22759 H 2178.69 2.83123 1.09888 0
M  V30 22760 H 2176.27 1.4152 0.478787 0
M  V30 22761 H 2178.15 2.34299 3.5026 0
M  V30 22762 H 2176.83 1.2682 2.97823 0
M  V30 22763 H 2175.73 3.2718 1.81395 0
M  V30 22764 H 2177.07 4.2951 2.40379 0
M  V30 22765 N 2178.72 -0.545102 1.47873 0
M  V30 22766 C 2180.14 -0.872206 1.33659 0
M  V30 22767 C 2180.34 -1.98676 0.336181 0
M  V30 22768 O 2179.39 -2.51279 -0.248001 0
M  V30 22769 C 2180.7 -1.254 2.73304 0
M  V30 22770 C 2182.25 -1.36475 2.8168 0
M  V30 22771 C 2182.73 -1.78005 4.21993 0
M  V30 22772 N 2184.22 -1.85134 4.24593 0
M  V30 22773 C 2184.95 -2.18622 5.30087 0
M  V30 22774 N 2184.45 -2.50639 6.45873 0
M  V30 22775 N 2186.24 -2.19499 5.17471 0
M  V30 22776 H 2178.39 0.190536 2.11544 0
M  V30 22777 H 2180.66 0.0225858 0.947731 0
M  V30 22778 H 2180.36 -0.508782 3.48 0
M  V30 22779 H 2180.24 -2.20752 3.05857 0
M  V30 22780 H 2182.62 -2.10076 2.07249 0
M  V30 22781 H 2182.7 -0.392814 2.52766 0
M  V30 22782 H 2182.35 -1.04969 4.96935 0
M  V30 22783 H 2182.28 -2.76222 4.4834 0
M  V30 22784 H 2184.77 -1.62729 3.41068 0
M  V30 22785 H 2185.08 -2.75253 7.22119 0
M  V30 22786 H 2183.43 -2.48192 6.49173 0
M  V30 22787 H 2186.62 -1.93934 4.26037 0
M  V30 22788 H 2186.79 -2.45267 5.9979 0
M  V30 22789 N 2180.2 -1.36208 -0.792797 0
M  V30 22790 C 2181.15 -1.30313 -1.92669 0
M  V30 22791 C 2182.14 -0.195525 -1.68268 0
M  V30 22792 O 2183.35 -0.362331 -1.76316 0
M  V30 22793 H 2179.72 -0.4056 -0.63324 0
M  V30 22794 H 2181.69 -2.26078 -1.9476 0
M  V30 22795 C 2180.44 -1.10589 -3.29644 0
M  V30 22796 H 2179.76 -1.95061 -3.48986 0
M  V30 22797 H 2181.2 -1.10509 -4.09345 0
M  V30 22798 C 2179.66 0.189643 -3.36366 0
M  V30 22799 O 2180.19 1.18066 -3.83958 0
M  V30 22800 N 2178.4 0.23316 -2.89663 0
M  V30 22801 H 2177.95 -0.573917 -2.51125 0
M  V30 22802 H 2177.9 1.09966 -2.94542 0
M  V30 22803 N 2181.68 1.01656 -1.20431 0
M  V30 22804 C 2182.92 1.75515 -1.016 0
M  V30 22805 C 2183.25 1.88896 0.450791 0
M  V30 22806 O 2182.53 1.4148 1.33468 0
M  V30 22807 C 2182.81 3.17433 -1.70024 0
M  V30 22808 C 2182.67 3.11847 -3.24147 0
M  V30 22809 C 2183.98 4.16105 -1.43334 0
M  V30 22810 H 2181.1 0.637102 -0.370501 0
M  V30 22811 H 2183.75 1.18591 -1.48446 0
M  V30 22812 H 2181.9 3.66035 -1.30195 0
M  V30 22813 H 2183.57 2.71049 -3.7327 0
M  V30 22814 H 2181.81 2.49242 -3.55051 0
M  V30 22815 H 2182.48 4.12169 -3.6718 0
M  V30 22816 H 2184.96 3.76159 -1.77887 0
M  V30 22817 H 2183.83 5.13571 -1.93741 0
M  V30 22818 H 2184.09 4.40624 -0.360952 0
M  V30 22819 N 2183.15 1.01021 1.20965 0
M  V30 22820 C 2184.1 0.568229 2.25552 0
M  V30 22821 C 2185.1 -0.389834 1.64853 0
M  V30 22822 O 2186.3 -0.260456 1.78106 0
M  V30 22823 H 2182.68 0.165424 0.73358 0
M  V30 22824 H 2184.65 1.46139 2.60165 0
M  V30 22825 C 2183.4 -0.0841621 3.47598 0
M  V30 22826 H 2182.72 0.644027 3.94579 0
M  V30 22827 H 2184.16 -0.356619 4.22498 0
M  V30 22828 C 2182.62 -1.325 3.09751 0
M  V30 22829 O 2183.15 -2.41889 3.20706 0
M  V30 22830 N 2181.35 -1.20669 2.64362 0
M  V30 22831 H 2180.9 -0.316581 2.55647 0
M  V30 22832 H 2180.86 -2.03792 2.39408 0
M  V30 22833 N 2184.63 -1.36623 0.78561 0
M  V30 22834 C 2186.05 -1.5262 0.466843 0
M  V30 22835 C 2186.25 -1.74044 -1.01543 0
M  V30 22836 O 2185.3 -1.76975 -1.801 0
M  V30 22837 C 2186.62 -2.71435 1.29398 0
M  V30 22838 C 2188.16 -2.85304 1.28728 0
M  V30 22839 C 2188.64 -4.07118 2.09807 0
M  V30 22840 N 2190.13 -4.14257 2.07233 0
M  V30 22841 C 2190.87 -5.0758 2.6674 0
M  V30 22842 N 2190.36 -6.06372 3.3509 0
M  V30 22843 N 2192.15 -5.00167 2.56494 0
M  V30 22844 H 2184.31 -1.20971 1.74585 0
M  V30 22845 H 2186.57 -0.590141 0.741915 0
M  V30 22846 H 2186.27 -2.62113 2.34498 0
M  V30 22847 H 2186.15 -3.65488 0.932654 0
M  V30 22848 H 2188.54 -2.94088 0.244207 0
M  V30 22849 H 2188.62 -1.92169 1.68834 0
M  V30 22850 H 2188.26 -3.99095 3.14143 0
M  V30 22851 H 2188.19 -4.99393 1.67074 0
M  V30 22852 H 2190.68 -3.43522 1.57483 0
M  V30 22853 H 2190.99 -6.74137 3.77836 0
M  V30 22854 H 2189.34 -6.06609 3.39191 0
M  V30 22855 H 2192.53 -4.21936 2.027 0
M  V30 22856 H 2192.7 -5.7271 3.03162 0
M  V30 22857 N 2186.11 -0.537304 -1.48158 0
M  V30 22858 C 2187.07 0.210784 -2.28229 0
M  V30 22859 C 2188.07 0.861078 -1.35802 0
M  V30 22860 O 2189.26 0.72 -1.58624 0
M  V30 22861 C 2186.39 1.30581 -3.14899 0
M  V30 22862 H 2187.59 -0.492311 -2.95832 0
M  V30 22863 H 2185.14 -0.293505 -1.53519 0
M  V30 22864 H 2185.88 2.04194 -2.51943 0
M  V30 22865 H 2185.66 0.844559 -3.82896 0
M  V30 22866 H 2187.15 1.8318 -3.7528 0
M  V30 22867 N 2187.59 1.55221 -0.272782 0
M  V30 22868 C 2188.52 2.25408 0.609392 0
M  V30 22869 C 2189.5 1.2434 1.16076 0
M  V30 22870 O 2190.68 1.53054 1.19533 0
M  V30 22871 C 2187.81 2.97338 1.79464 0
M  V30 22872 C 2186.77 4.05315 1.37491 0
M  V30 22873 C 2186.09 4.64808 2.64307 0
M  V30 22874 C 2187.39 5.19636 0.526828 0
M  V30 22875 H 2189.09 2.9939 0.0240678 0
M  V30 22876 H 2186.63 1.43996 0.0101357 0
M  V30 22877 H 2188.59 3.45149 2.41765 0
M  V30 22878 H 2187.31 2.20887 2.40576 0
M  V30 22879 H 2185.97 3.58312 0.775106 0
M  V30 22880 H 2185.62 3.85027 3.23672 0
M  V30 22881 H 2185.32 5.37713 2.36935 0
M  V30 22882 H 2186.84 5.15366 3.2746 0
M  V30 22883 H 2188.26 5.63513 1.05478 0
M  V30 22884 H 2186.65 5.9909 0.348095 0
M  V30 22885 H 2187.72 4.82761 -0.454948 0
M  V30 22886 N 2189.07 2.77022e-05 1.576 0
M  V30 22887 C 2190.03 -0.976217 2.07371 0
M  V30 22888 C 2191.03 -1.27246 0.983113 0
M  V30 22889 O 2192.22 -1.21764 1.24576 0
M  V30 22890 C 2189.35 -2.30112 2.51518 0
M  V30 22891 H 2190.54 -0.545707 2.94893 0
M  V30 22892 H 2188.1 -0.247444 1.54329 0
M  V30 22893 H 2188.83 -2.77852 1.67239 0
M  V30 22894 H 2188.62 -2.09931 3.31167 0
M  V30 22895 H 2190.11 -3.00144 2.9035 0
M  V30 22896 N 2190.54 -1.55222 -0.272728 0
M  V30 22897 C 2191.79 -1.76102 -1.00578 0
M  V30 22898 C 2192.12 -0.560658 -1.85931 0
M  V30 22899 O 2191.4 0.441768 -1.89417 0
M  V30 22900 C 2191.68 -3.06631 -1.88811 0
M  V30 22901 C 2191.53 -4.37022 -1.06449 0
M  V30 22902 C 2192.85 -3.33202 -2.87514 0
M  V30 22903 H 2189.97 -0.640705 -0.364233 0
M  V30 22904 H 2192.61 -1.87953 -0.278156 0
M  V30 22905 H 2190.76 -2.96659 -2.5085 0
M  V30 22906 H 2192.44 -4.58953 -0.464782 0
M  V30 22907 H 2190.68 -4.32237 -0.367967 0
M  V30 22908 H 2191.35 -5.24681 -1.71505 0
M  V30 22909 H 2193.83 -3.42969 -2.35609 0
M  V30 22910 H 2192.7 -4.25798 -3.46392 0
M  V30 22911 H 2192.96 -2.52855 -3.62652 0
M  V30 22912 N 2192.02 0.537252 -1.4816 0
M  V30 22913 C 2193.27 1.28991 -1.55062 0
M  V30 22914 C 2193.58 1.94287 -0.226245 0
M  V30 22915 O 2194.79 2.70945 -0.173442 0
M  V30 22916 C 2193.25 2.34013 -2.73434 0
M  V30 22917 C 2192.85 1.74818 -4.12483 0
M  V30 22918 C 2194.6 3.10334 -2.89643 0
M  V30 22919 C 2192.51 2.77738 -5.22126 0
M  V30 22920 H 2191.44 0.485088 -0.57724 0
M  V30 22921 H 2194.09 0.568286 -1.74479 0
M  V30 22922 H 2192.47 3.09178 -2.47437 0
M  V30 22923 H 2193.64 1.05891 -4.48468 0
M  V30 22924 H 2191.96 1.11015 -4.01329 0
M  V30 22925 H 2194.55 3.87228 -3.68725 0
M  V30 22926 H 2194.9 3.65751 -1.98827 0
M  V30 22927 H 2195.43 2.42282 -3.15506 0
M  V30 22928 H 2192.17 2.27151 -6.14884 0
M  V30 22929 H 2191.69 3.45015 -4.90637 0
M  V30 22930 H 2193.37 3.40861 -5.4993 0
M  V30 22931 N 2193.5 1.36626 0.785562 0
M  V30 22932 C 2194.43 1.27134 1.90708 0
M  V30 22933 C 2195.45 0.190014 1.61687 0
M  V30 22934 O 2196.63 0.445045 1.72863 0
M  V30 22935 C 2193.73 0.93977 3.25609 0
M  V30 22936 C 2192.91 2.12376 3.82381 0
M  V30 22937 C 2191.97 1.76464 4.95729 0
M  V30 22938 O 2190.99 2.48598 5.12043 0
M  V30 22939 N 2192.19 0.700594 5.76257 0
M  V30 22940 H 2194.96 2.23765 1.99372 0
M  V30 22941 H 2192.52 1.3007 0.964018 0
M  V30 22942 H 2194.51 0.680624 3.98936 0
M  V30 22943 H 2193.08 0.0624623 3.12538 0
M  V30 22944 H 2192.3 2.54548 3.00997 0
M  V30 22945 H 2193.59 2.91468 4.17042 0
M  V30 22946 H 2192.99 0.101724 5.65609 0
M  V30 22947 H 2191.55 0.501279 6.4987 0
M  V30 22948 N 2194.98 -1.01016 1.20969 0
M  V30 22949 C 2196.2 -1.78837 1.05034 0
M  V30 22950 C 2196.63 -1.8389 -0.39572 0
M  V30 22951 O 2195.99 -1.2787 -1.28527 0
M  V30 22952 C 2196.03 -3.20837 1.64608 0
M  V30 22953 O 2195.14 -4.02725 0.888059 0
M  V30 22954 H 2194.48 -0.55136 0.369997 0
M  V30 22955 H 2197.01 -1.27015 1.60401 0
M  V30 22956 H 2197.02 -3.71529 1.68613 0
M  V30 22957 H 2195.69 -3.16474 2.69846 0
M  V30 22958 H 2194.27 -3.61304 0.922711 0
M  V30 22959 N 2196.46 -1.01661 -1.20428 0
M  V30 22960 C 2197.7 -0.706996 -1.90077 0
M  V30 22961 C 2198.04 0.761442 -1.7865 0
M  V30 22962 O 2197.31 1.55321 -1.17072 0
M  V30 22963 C 2197.59 -1.14333 -3.41467 0
M  V30 22964 C 2197.45 -2.67208 -3.61829 0
M  V30 22965 C 2198.77 -0.714606 -4.3426 0
M  V30 22966 H 2195.88 -0.258312 -0.690249 0
M  V30 22967 H 2198.53 -1.26435 -1.41824 0
M  V30 22968 H 2196.68 -0.669123 -3.82694 0
M  V30 22969 H 2198.35 -3.22481 -3.29854 0
M  V30 22970 H 2196.59 -3.0818 -3.05299 0
M  V30 22971 H 2197.26 -2.92792 -4.6795 0
M  V30 22972 H 2199.74 -1.12228 -4.0068 0
M  V30 22973 H 2198.61 -1.04794 -5.38804 0
M  V30 22974 H 2198.88 0.383721 -4.40432 0
M  V30 22975 N 2197.93 1.36205 -0.792844 0
M  V30 22976 C 2199.16 2.03931 -0.377737 0
M  V30 22977 C 2199.58 1.59384 0.998919 0
M  V30 22978 O 2198.94 0.763932 1.64419 0
M  V30 22979 C 2198.99 3.57734 -0.453698 0
M  V30 22980 O 2198.09 4.08875 0.538079 0
M  V30 22981 H 2197.44 0.644468 -0.159867 0
M  V30 22982 H 2199.97 1.74089 -1.07491 0
M  V30 22983 H 2199.98 4.06755 -0.318535 0
M  V30 22984 H 2198.65 3.8951 -1.45791 0
M  V30 22985 H 2197.23 3.71116 0.364294 0
M  V30 22986 N 2199.41 0.545154 1.47871 0
M  V30 22987 C 2200.34 -0.197752 2.32661 0
M  V30 22988 C 2201.32 -0.920479 1.43043 0
M  V30 22989 O 2202.51 -0.9033 1.71913 0
M  V30 22990 C 2199.64 -1.23576 3.24571 0
M  V30 22991 C 2198.59 -0.630249 4.23334 0
M  V30 22992 C 2197.92 -1.77202 5.04483 0
M  V30 22993 C 2199.22 0.408065 5.20703 0
M  V30 22994 H 2200.91 0.510097 2.95023 0
M  V30 22995 H 2198.46 0.246756 1.4187 0
M  V30 22996 H 2200.41 -1.76355 3.82723 0
M  V30 22997 H 2199.14 -1.9734 2.6024 0
M  V30 22998 H 2197.79 -0.123857 3.66391 0
M  V30 22999 H 2197.44 -2.4984 4.36565 0
M  V30 23000 H 2197.14 -1.37271 5.71341 0
M  V30 23001 H 2198.67 -2.3033 5.65491 0
M  V30 23002 H 2200.08 -0.0332043 5.7329 0
M  V30 23003 H 2198.48 0.725591 5.95697 0
M  V30 23004 H 2199.55 1.30837 4.66915 0
M  V30 23005 N 2200.89 -1.55074 0.28101 0
M  V30 23006 C 2202.14 -1.98903 -0.334749 0
M  V30 23007 C 2202.45 -1.17291 -1.56532 0
M  V30 23008 O 2203.66 -1.51291 -2.2544 0
M  V30 23009 C 2202.11 -3.54038 -0.646931 0
M  V30 23010 C 2201.72 -4.44434 0.564163 0
M  V30 23011 C 2203.47 -4.06441 -1.22499 0
M  V30 23012 C 2201.37 -5.90967 0.226241 0
M  V30 23013 H 2200.3 -0.742908 -0.128853 0
M  V30 23014 H 2202.95 -1.79382 0.386587 0
M  V30 23015 H 2201.34 -3.69382 -1.42733 0
M  V30 23016 H 2202.51 -4.40859 1.3409 0
M  V30 23017 H 2200.83 -4.02696 1.05947 0
M  V30 23018 H 2203.42 -5.1347 -1.49173 0
M  V30 23019 H 2203.77 -3.55831 -2.16079 0
M  V30 23020 H 2204.3 -3.94559 -0.506751 0
M  V30 23021 H 2201.04 -6.45685 1.13007 0
M  V30 23022 H 2200.56 -5.97597 -0.513612 0
M  V30 23023 H 2202.24 -6.46751 -0.179426 0
M  V30 23024 N 2202.37 -0.00838561 -1.57598 0
M  V30 23025 C 2203.33 0.965206 -2.07886 0
M  V30 23026 C 2204.33 1.26723 -0.989847 0
M  V30 23027 O 2205.52 1.21101 -1.2522 0
M  V30 23028 C 2202.65 2.28775 -2.52735 0
M  V30 23029 H 2203.85 0.53006 -2.95179 0
M  V30 23030 H 2201.4 0.239256 -1.54458 0
M  V30 23031 H 2202.14 2.76961 -1.6871 0
M  V30 23032 H 2201.92 2.08172 -3.32276 0
M  V30 23033 H 2203.41 2.986 -2.91938 0
M  V30 23034 N 2203.85 1.55365 0.264492 0
M  V30 23035 C 2204.81 1.88044 1.31042 0
M  V30 23036 C 2205.81 0.755594 1.41942 0
M  V30 23037 O 2207 1.02372 1.40946 0
M  V30 23038 C 2204.13 2.09327 2.69063 0
M  V30 23039 H 2205.33 2.81551 1.03292 0
M  V30 23040 H 2202.88 1.47986 0.502963 0
M  V30 23041 H 2203.61 1.18231 3.0198 0
M  V30 23042 H 2203.4 2.91234 2.62536 0
M  V30 23043 H 2204.89 2.35854 3.44619 0
M  V30 23044 N 2205.33 -0.529387 1.48443 0
M  V30 23045 C 2206.57 -1.28709 1.56722 0
M  V30 23046 C 2206.9 -1.92703 0.240634 0
M  V30 23047 O 2206.18 -1.79315 -0.753422 0
M  V30 23048 C 2206.46 -2.37598 2.70591 0
M  V30 23049 C 2206.32 -1.7829 4.12956 0
M  V30 23050 C 2207.63 -3.39361 2.80218 0
M  V30 23051 H 2204.75 -0.466603 0.570483 0
M  V30 23052 H 2207.4 -0.589675 1.80618 0
M  V30 23053 H 2205.55 -2.97084 2.50347 0
M  V30 23054 H 2207.22 -1.2285 4.44641 0
M  V30 23055 H 2205.46 -1.08822 4.19929 0
M  V30 23056 H 2206.13 -2.57135 4.88452 0
M  V30 23057 H 2208.61 -2.89831 2.98558 0
M  V30 23058 H 2207.48 -4.12945 3.61618 0
M  V30 23059 H 2207.74 -3.99947 1.884 0
M  V30 23060 N 2206.8 -1.37041 -0.778305 0
M  V30 23061 C 2207.77 -1.32105 -1.87299 0
M  V30 23062 C 2208.77 -0.226433 -1.59198 0
M  V30 23063 O 2209.96 -0.481891 -1.67402 0
M  V30 23064 C 2207.09 -1.05061 -3.24307 0
M  V30 23065 H 2208.28 -2.29471 -1.93089 0
M  V30 23066 H 2205.83 -1.21975 -0.977337 0
M  V30 23067 H 2206.57 -0.0819943 -3.24196 0
M  V30 23068 H 2206.35 -1.84285 -3.46094 0
M  V30 23069 H 2207.84 -1.04241 -4.04381 0
M  V30 23070 N 2208.28 1.00373 -1.21503 0
M  V30 23071 C 2209.53 1.73825 -1.03098 0
M  V30 23072 C 2209.85 1.90056 0.436307 0
M  V30 23073 O 2209.12 1.45238 1.31464 0
M  V30 23074 H 2207.7 0.644009 -0.378498 0
M  V30 23075 H 2210.36 1.20947 -1.52833 0
M  V30 23076 H 2209.46 2.73692 -1.49996 0
M  V30 23077 N 2209.76 1.02298 1.19887 0
M  V30 23078 C 2210.99 0.735433 1.93388 0
M  V30 23079 C 2211.4 -0.704856 1.75149 0
M  V30 23080 O 2210.76 -1.47873 1.06957 0
M  V30 23081 C 2210.81 1.06968 3.45312 0
M  V30 23082 O 2210.53 2.45341 3.62959 0
M  V30 23083 C 2212.03 0.804098 4.35946 0
M  V30 23084 H 2209.25 0.269557 0.614475 0
M  V30 23085 H 2211.8 1.36588 1.52197 0
M  V30 23086 H 2209.95 0.484523 3.84358 0
M  V30 23087 H 2210.37 2.57603 4.56882 0
M  V30 23088 H 2211.84 1.08799 5.41172 0
M  V30 23089 H 2212.32 -0.261613 4.3842 0
M  V30 23090 H 2212.92 1.37171 4.02572 0
M  V30 23091 N 2211.24 -1.35782 0.800057 0
M  V30 23092 C 2212.49 -1.98204 0.373905 0
M  V30 23093 C 2212.8 -1.64194 -1.06299 0
M  V30 23094 O 2214.01 -2.19931 -1.59194 0
M  V30 23095 C 2212.46 -3.54561 0.617594 0
M  V30 23096 C 2212.07 -3.97486 2.06661 0
M  V30 23097 C 2213.81 -4.23725 0.256476 0
M  V30 23098 C 2211.72 -5.46663 2.25639 0
M  V30 23099 H 2210.65 -0.741621 0.136068 0
M  V30 23100 H 2213.3 -1.54937 0.983193 0
M  V30 23101 H 2211.68 -3.95952 -0.0615552 0
M  V30 23102 H 2212.86 -3.67266 2.78303 0
M  V30 23103 H 2211.17 -3.41193 2.38697 0
M  V30 23104 H 2213.77 -5.33373 0.376412 0
M  V30 23105 H 2214.11 -4.08607 -0.796621 0
M  V30 23106 H 2214.65 -3.87733 0.889282 0
M  V30 23107 H 2211.38 -5.66741 3.2937 0
M  V30 23108 H 2210.9 -5.78475 1.58514 0
M  V30 23109 H 2212.58 -6.13036 2.06872 0
M  V30 23110 N 2212.72 -0.552988 -1.4758 0
M  V30 23111 C 2213.95 -0.0320454 -2.06575 0
M  V30 23112 C 2214.35 1.26522 -1.40673 0
M  V30 23113 O 2213.7 1.76882 -0.495839 0
M  V30 23114 C 2213.76 0.23885 -3.58706 0
M  V30 23115 C 2213.42 -0.968351 -4.46623 0
M  V30 23116 C 2214.42 -1.87282 -4.84996 0
M  V30 23117 C 2212.1 -1.18183 -4.88199 0
M  V30 23118 C 2214.1 -2.9745 -5.6374 0
M  V30 23119 C 2211.79 -2.28661 -5.66708 0
M  V30 23120 C 2212.78 -3.18125 -6.04388 0
M  V30 23121 O 2212.47 -4.26688 -6.81317 0
M  V30 23122 H 2212.2 -0.0408808 -0.674763 0
M  V30 23123 H 2214.76 -0.764753 -1.90632 0
M  V30 23124 H 2212.99 1.02582 -3.72846 0
M  V30 23125 H 2214.68 0.704661 -3.99737 0
M  V30 23126 H 2215.44 -1.71992 -4.53479 0
M  V30 23127 H 2211.32 -0.494674 -4.58338 0
M  V30 23128 H 2214.87 -3.67306 -5.9307 0
M  V30 23129 H 2210.76 -2.43925 -5.97638 0
M  V30 23130 H 2211.53 -4.24683 -6.99705 0
M  V30 23131 N 2214.19 1.54923 -0.28923 0
M  V30 23132 C 2215.44 1.99078 0.324196 0
M  V30 23133 C 2215.76 1.1812 1.55907 0
M  V30 23134 O 2216.96 1.52485 2.24635 0
M  V30 23135 C 2215.42 3.54376 0.628147 0
M  V30 23136 C 2215.03 4.44128 -0.587725 0
M  V30 23137 C 2216.77 4.07085 1.20342 0
M  V30 23138 C 2214.68 5.90839 -0.257578 0
M  V30 23139 H 2213.61 0.743581 0.124911 0
M  V30 23140 H 2216.26 1.79174 -0.396095 0
M  V30 23141 H 2214.64 3.70134 1.40772 0
M  V30 23142 H 2215.81 4.40142 -1.36426 0
M  V30 23143 H 2214.13 4.02129 -1.08081 0
M  V30 23144 H 2216.73 5.14254 1.46447 0
M  V30 23145 H 2217.07 3.56972 2.14189 0
M  V30 23146 H 2217.6 3.94822 0.48582 0
M  V30 23147 H 2214.34 6.45077 -1.1643 0
M  V30 23148 H 2213.86 5.97861 0.481912 0
M  V30 23149 H 2215.54 6.46837 0.145124 0
M  V30 23150 N 2215.67 0.0167433 1.57591 0
M  V30 23151 C 2216.92 -0.665548 1.91568 0
M  V30 23152 C 2217.25 -1.72485 0.892329 0
M  V30 23153 O 2216.53 -1.94307 -0.0866785 0
M  V30 23154 C 2216.81 -1.29336 3.36072 0
M  V30 23155 C 2216.66 -0.244462 4.49135 0
M  V30 23156 C 2217.98 -2.21488 3.80304 0
M  V30 23157 H 2215.1 -0.240476 0.696664 0
M  V30 23158 H 2217.74 0.071469 1.89866 0
M  V30 23159 H 2215.89 -1.92153 3.37653 0
M  V30 23160 H 2217.56 0.385309 4.59688 0
M  V30 23161 H 2215.81 0.431455 4.31649 0
M  V30 23162 H 2216.48 -0.723111 5.47243 0
M  V30 23163 H 2218.95 -1.68672 3.8038 0
M  V30 23164 H 2217.83 -2.62374 4.82132 0
M  V30 23165 H 2218.09 -3.10094 3.1511 0
M  V30 23166 N 2217.15 -1.55503 -0.256249 0
M  V30 23167 C 2218.38 -1.80679 -1.00193 0
M  V30 23168 C 2218.79 -0.588829 -1.79804 0
M  V30 23169 O 2218.13 0.451852 -1.78056 0
M  V30 23170 C 2218.19 -2.99059 -1.9951 0
M  V30 23171 C 2217.86 -4.3545 -1.3868 0
M  V30 23172 C 2218.85 -5.13801 -0.793989 0
M  V30 23173 C 2216.54 -4.82134 -1.40897 0
M  V30 23174 C 2218.53 -6.3698 -0.23145 0
M  V30 23175 C 2216.22 -6.05263 -0.842578 0
M  V30 23176 C 2217.22 -6.82524 -0.254833 0
M  V30 23177 O 2216.91 -8.03329 0.302841 0
M  V30 23178 H 2216.64 -0.605335 -0.300908 0
M  V30 23179 H 2219.19 -2.03381 -0.287271 0
M  V30 23180 H 2217.42 -2.72089 -2.74781 0
M  V30 23181 H 2219.11 -3.1141 -2.60344 0
M  V30 23182 H 2219.88 -4.78858 -0.769435 0
M  V30 23183 H 2215.76 -4.21995 -1.85583 0
M  V30 23184 H 2219.3 -6.97228 0.227938 0
M  V30 23185 H 2215.2 -6.39686 -0.864428 0
M  V30 23186 H 2215.97 -8.18271 0.193806 0
M  V30 23187 N 2218.63 0.521507 -1.48721 0
M  V30 23188 C 2220.04 0.850831 -1.3503 0
M  V30 23189 C 2220.24 1.98116 -0.367746 0
M  V30 23190 O 2219.3 2.51642 0.207993 0
M  V30 23191 C 2220.61 1.21036 -2.75265 0
M  V30 23192 C 2222.16 1.31976 -2.83816 0
M  V30 23193 C 2222.64 1.71269 -4.24772 0
M  V30 23194 N 2224.13 1.78356 -4.27485 0
M  V30 23195 C 2224.86 2.10161 -5.33498 0
M  V30 23196 N 2224.36 2.40332 -6.49779 0
M  V30 23197 N 2226.15 2.11239 -5.20898 0
M  V30 23198 H 2218.3 -0.224167 -2.11214 0
M  V30 23199 H 2220.57 -0.0376605 -0.947252 0
M  V30 23200 H 2220.27 0.453354 -3.48766 0
M  V30 23201 H 2220.15 2.15858 -3.0933 0
M  V30 23202 H 2222.53 2.06752 -2.10565 0
M  V30 23203 H 2222.61 0.352552 -2.53359 0
M  V30 23204 H 2222.26 0.9705 -4.98542 0
M  V30 23205 H 2222.19 2.69054 -4.52678 0
M  V30 23206 H 2224.68 1.57282 -3.43614 0
M  V30 23207 H 2224.99 2.6373 -7.26406 0
M  V30 23208 H 2223.34 2.37833 -6.53039 0
M  V30 23209 H 2226.53 1.87131 -4.29068 0
M  V30 23210 H 2226.7 2.35694 -6.03616 0
M  V30 23211 N 2220.11 1.37452 0.771027 0
M  V30 23212 C 2221.04 1.35974 1.89825 0
M  V30 23213 C 2222.02 0.228246 1.68562 0
M  V30 23214 O 2223.2 0.428708 1.89409 0
M  V30 23215 C 2220.33 1.16668 3.27118 0
M  V30 23216 C 2219.29 2.26836 3.62946 0
M  V30 23217 C 2218.61 1.92652 4.98788 0
M  V30 23218 C 2219.91 3.69023 3.6962 0
M  V30 23219 H 2221.61 2.30299 1.91319 0
M  V30 23220 H 2219.15 1.10857 0.919062 0
M  V30 23221 H 2221.11 1.14263 4.05613 0
M  V30 23222 H 2219.83 0.187983 3.26059 0
M  V30 23223 H 2218.49 2.28397 2.86759 0
M  V30 23224 H 2218.14 0.933108 4.94269 0
M  V30 23225 H 2217.84 2.66425 5.23729 0
M  V30 23226 H 2219.36 1.91836 5.79682 0
M  V30 23227 H 2220.77 3.69588 4.38266 0
M  V30 23228 H 2219.17 4.41855 4.06059 0
M  V30 23229 H 2220.24 4.02597 2.70266 0
M  V30 23230 N 2221.58 -0.997276 1.22033 0
M  V30 23231 C 2222.83 -1.73619 1.04225 0
M  V30 23232 C 2223.16 -1.89839 -0.423231 0
M  V30 23233 O 2222.41 -1.43544 -1.33017 0
M  V30 23234 C 2222.71 -3.1473 1.6935 0
M  V30 23235 C 2222.38 -3.18436 3.19232 0
M  V30 23236 C 2221.04 -3.19155 3.6013 0
M  V30 23237 C 2223.39 -3.15071 4.15187 0
M  V30 23238 C 2220.72 -3.14203 4.95473 0
M  V30 23239 C 2223.07 -3.1166 5.505 0
M  V30 23240 C 2221.74 -3.10692 5.90785 0
M  V30 23241 H 2221.01 -0.635316 0.381385 0
M  V30 23242 H 2223.65 -1.16829 1.51734 0
M  V30 23243 H 2221.96 -3.74801 1.14154 0
M  V30 23244 H 2223.66 -3.70637 1.53066 0
M  V30 23245 H 2220.25 -3.18624 2.86664 0
M  V30 23246 H 2224.43 -3.13669 3.84611 0
M  V30 23247 H 2219.69 -3.11796 5.25921 0
M  V30 23248 H 2223.86 -3.08011 6.24582 0
M  V30 23249 H 2221.49 -3.0661 6.95625 0
M  V30 23250 N 2223.06 -1.02932 -1.19343 0
M  V30 23251 C 2224.29 -0.745545 -1.93537 0
M  V30 23252 C 2224.71 0.68948 -1.75008 0
M  V30 23253 O 2224.07 1.47609 -1.05268 0
M  V30 23254 C 2224.12 -1.10245 -3.43334 0
M  V30 23255 O 2223.22 -0.221361 -4.11805 0
M  V30 23256 H 2222.56 -0.275415 -0.604188 0
M  V30 23257 H 2225.09 -1.37612 -1.51407 0
M  V30 23258 H 2225.1 -1.05954 -3.94002 0
M  V30 23259 H 2223.78 -2.14792 -3.56142 0
M  V30 23260 H 2222.36 -0.322907 -3.71499 0
M  V30 23261 N 2224.54 1.35356 -0.807246 0
M  V30 23262 C 2225.79 1.98357 -0.387157 0
M  V30 23263 C 2226.11 1.64355 1.04939 0
M  V30 23264 O 2225.38 0.926369 1.72613 0
M  V30 23265 H 2223.96 0.733732 -0.140167 0
M  V30 23266 H 2226.62 1.65258 -1.03323 0
M  V30 23267 H 2225.72 3.08175 -0.493406 0
M  V30 23268 N 2226.02 0.560807 1.47284 0
M  V30 23269 C 2226.95 -0.232781 2.2701 0
M  V30 23270 C 2227.93 -0.917015 1.34274 0
M  V30 23271 O 2229.11 -0.935286 1.6366 0
M  V30 23272 C 2226.24 -1.332 3.11409 0
M  V30 23273 C 2225.29 -0.755945 4.19747 0
M  V30 23274 S 2226.12 0.400259 5.34002 0
M  V30 23275 C 2227.28 -0.700696 6.21965 0
M  V30 23276 H 2227.51 0.443735 2.9397 0
M  V30 23277 H 2225.04 0.347207 1.50445 0
M  V30 23278 H 2227 -1.9615 3.60604 0
M  V30 23279 H 2225.66 -1.98037 2.43803 0
M  V30 23280 H 2224.85 -1.58152 4.78544 0
M  V30 23281 H 2224.46 -0.202554 3.73451 0
M  V30 23282 H 2226.75 -1.59191 6.58532 0
M  V30 23283 H 2227.69 -0.150002 7.07941 0
M  V30 23284 H 2228.1 -0.994986 5.55662 0
M  V30 23285 N 2227.5 -1.54768 0.297442 0
M  V30 23286 C 2228.43 -2.20827 -0.613842 0
M  V30 23287 C 2229.44 -1.19989 -1.1003 0
M  V30 23288 O 2230.63 -1.466 -1.01836 0
M  V30 23289 C 2227.73 -2.83824 -1.85195 0
M  V30 23290 C 2226.9 -4.10561 -1.50858 0
M  V30 23291 C 2225.96 -4.57395 -2.60146 0
M  V30 23292 O 2224.99 -5.22674 -2.25389 0
M  V30 23293 N 2226.19 -4.29413 -3.90621 0
M  V30 23294 H 2228.96 -2.99661 -0.0483364 0
M  V30 23295 H 2226.52 -1.61458 0.119488 0
M  V30 23296 H 2228.51 -3.1209 -2.57647 0
M  V30 23297 H 2227.08 -2.08852 -2.32594 0
M  V30 23298 H 2226.3 -3.89344 -0.616857 0
M  V30 23299 H 2227.59 -4.93092 -1.2545 0
M  V30 23300 H 2226.98 -3.77108 -4.21671 0
M  V30 23301 H 2225.54 -4.62396 -4.59383 0
M  V30 23302 N 2228.97 -0.0251005 -1.5758 0
M  V30 23303 C 2230.22 0.653118 -1.91256 0
M  V30 23304 C 2230.54 1.72899 -0.901721 0
M  V30 23305 O 2229.81 1.95816 0.0573441 0
M  V30 23306 H 2228.39 0.24423 -0.705947 0
M  V30 23307 H 2231.06 -0.0719551 -1.94767 0
M  V30 23308 H 2230.15 1.10842 -2.91754 0
M  V30 23309 N 2230.45 1.55637 0.247999 0
M  V30 23310 C 2231.86 1.67868 0.817148 0
M  V30 23311 C 2232.21 0.622355 1.86068 0
M  V30 23312 O 2231.34 -0.23158 2.15157 0
M  V30 23313 C 2231.93 3.04328 1.48895 0
M  V30 23314 C 2230.49 3.18503 2.00581 0
M  V30 23315 C 2229.64 2.6374 0.856527 0
M  V30 23316 H 2232.59 1.58682 0.02383 0
M  V30 23317 H 2232.61 2.98712 2.35693 0
M  V30 23318 H 2232.12 3.81188 0.729212 0
M  V30 23319 H 2230.23 2.46465 2.79439 0
M  V30 23320 H 2230.34 4.25397 2.20395 0
M  V30 23321 H 2228.7 2.21536 1.25674 0
M  V30 23322 H 2229.49 3.43124 0.109893 0
M  V30 23323 N 2231.93 -0.513613 1.48996 0
M  V30 23324 C 2233.16 -1.29097 1.61299 0
M  V30 23325 C 2233.57 -1.87136 0.278689 0
M  V30 23326 O 2232.91 -1.67946 -0.744295 0
M  V30 23327 C 2232.97 -2.46874 2.6133 0
M  V30 23328 C 2232.64 -2.098 4.05996 0
M  V30 23329 C 2233.64 -1.6451 4.93186 0
M  V30 23330 C 2231.32 -2.19821 4.51646 0
M  V30 23331 C 2233.31 -1.29729 6.24059 0
M  V30 23332 C 2231 -1.84651 5.82535 0
M  V30 23333 C 2232 -1.39678 6.68565 0
M  V30 23334 O 2231.69 -1.04978 7.97016 0
M  V30 23335 H 2231.42 -0.39824 0.546243 0
M  V30 23336 H 2233.97 -0.624556 1.95674 0
M  V30 23337 H 2232.2 -3.16551 2.2211 0
M  V30 23338 H 2233.89 -3.08918 2.63295 0
M  V30 23339 H 2234.66 -1.56225 4.5915 0
M  V30 23340 H 2230.54 -2.53779 3.8486 0
M  V30 23341 H 2234.08 -0.945537 6.91162 0
M  V30 23342 H 2229.98 -1.92583 6.16102 0
M  V30 23343 H 2230.75 -1.18235 8.09915 0
M  V30 23344 N 2233.41 -1.37859 -0.763727 0
M  V30 23345 C 2234.63 -1.36896 -1.55802 0
M  V30 23346 C 2235.06 0.0415805 -1.88054 0
M  V30 23347 O 2234.42 1.02086 -1.49827 0
M  V30 23348 C 2234.47 -2.22197 -2.84008 0
M  V30 23349 O 2233.57 -1.6321 -3.7873 0
M  V30 23350 H 2232.91 -0.467399 -0.47163 0
M  V30 23351 H 2235.44 -1.81488 -0.944625 0
M  V30 23352 H 2235.45 -2.35696 -3.33033 0
M  V30 23353 H 2234.13 -3.24721 -2.59864 0
M  V30 23354 H 2232.7 -1.58797 -3.37399 0
M  V30 23355 N 2234.89 0.990791 -1.22561 0
M  V30 23356 C 2236.14 1.72722 -1.04936 0
M  V30 23357 C 2236.46 1.90508 0.416125 0
M  V30 23358 O 2235.73 1.46624 1.29916 0
M  V30 23359 H 2234.31 0.639959 -0.385308 0
M  V30 23360 H 2236.97 1.19319 -1.54107 0
M  V30 23361 H 2236.06 2.72086 -1.52891 0
M  V30 23362 N 2236.37 1.03564 1.18795 0
M  V30 23363 C 2237.61 0.731269 1.87977 0
M  V30 23364 C 2237.93 -0.743639 1.80913 0
M  V30 23365 O 2239.13 -1.16132 2.45409 0
M  V30 23366 C 2237.59 1.25774 3.37207 0
M  V30 23367 C 2237.2 2.76092 3.52814 0
M  V30 23368 C 2238.94 1.02967 4.11823 0
M  V30 23369 C 2236.85 3.22123 4.95975 0
M  V30 23370 H 2235.78 0.269848 0.704058 0
M  V30 23371 H 2238.43 1.25081 1.34264 0
M  V30 23372 H 2236.81 0.66608 3.90358 0
M  V30 23373 H 2237.99 3.40972 3.09959 0
M  V30 23374 H 2236.3 2.97254 2.91597 0
M  V30 23375 H 2238.9 1.34878 5.17409 0
M  V30 23376 H 2239.24 -0.0332814 4.16287 0
M  V30 23377 H 2239.77 1.58569 3.6483 0
M  V30 23378 H 2236.51 4.27777 4.96676 0
M  V30 23379 H 2236.03 2.61975 5.39564 0
M  V30 23380 H 2237.71 3.15854 5.64664 0
M  V30 23381 N 2237.84 -1.34926 0.814413 0
M  V30 23382 C 2239.09 -1.98149 0.397671 0
M  V30 23383 C 2239.41 -1.6491 -1.04066 0
M  V30 23384 O 2238.68 -0.93551 -1.72119 0
M  V30 23385 H 2237.26 -0.732978 0.144056 0
M  V30 23386 H 2239.92 -1.64708 1.04198 0
M  V30 23387 H 2239.02 -3.07909 0.509743 0
M  V30 23388 N 2239.32 -0.56861 -1.46985 0
M  V30 23389 C 2240.55 -0.054032 -2.06829 0
M  V30 23390 C 2240.96 1.24475 -1.41956 0
M  V30 23391 O 2240.32 1.74936 -0.519964 0
M  V30 23392 C 2240.37 0.133298 -3.61254 0
M  V30 23393 O 2240.09 -1.11406 -4.23698 0
M  V30 23394 C 2241.59 0.68385 -4.37994 0
M  V30 23395 H 2238.81 -0.0510259 -0.669057 0
M  V30 23396 H 2241.36 -0.785268 -1.88822 0
M  V30 23397 H 2239.51 0.814703 -3.78737 0
M  V30 23398 H 2239.93 -0.918971 -5.16387 0
M  V30 23399 H 2241.4 0.764167 -5.46685 0
M  V30 23400 H 2241.88 1.6977 -4.05061 0
M  V30 23401 H 2242.48 0.0377747 -4.25283 0
M  V30 23402 N 2240.8 1.54608 -0.305646 0
M  V30 23403 C 2241.75 2.25147 0.584079 0
M  V30 23404 C 2242.74 1.25913 1.13324 0
M  V30 23405 O 2243.95 1.43749 1.08334 0
M  V30 23406 H 2240.32 0.722957 0.206971 0
M  V30 23407 H 2242.29 2.98381 -0.0333435 0
M  V30 23408 C 2241.04 3.00904 1.74219 0
M  V30 23409 H 2240.37 3.7707 1.32885 0
M  V30 23410 H 2241.81 3.53535 2.34071 0
M  V30 23411 C 2240.26 2.08144 2.6491 0
M  V30 23412 O 2240.79 1.65252 3.66135 0
M  V30 23413 N 2239 1.74004 2.32747 0
M  V30 23414 H 2238.55 2.09081 1.50476 0
M  V30 23415 H 2238.51 1.12216 2.93692 0
M  V30 23416 N 2242.28 0.033457 1.57564 0
M  V30 23417 C 2243.51 -0.653363 1.95997 0
M  V30 23418 C 2243.92 -1.65945 0.908778 0
M  V30 23419 O 2243.26 -1.83324 -0.117438 0
M  V30 23420 C 2243.32 -1.41243 3.30591 0
M  V30 23421 C 2242.98 -0.564183 4.53504 0
M  V30 23422 C 2243.98 0.162342 5.19646 0
M  V30 23423 C 2241.67 -0.50031 4.99802 0
M  V30 23424 C 2243.66 0.941366 6.3041 0
M  V30 23425 C 2241.35 0.282415 6.10447 0
M  V30 23426 C 2242.35 1.00196 6.75611 0
M  V30 23427 O 2242.03 1.77184 7.84131 0
M  V30 23428 H 2241.77 -0.184717 0.650274 0
M  V30 23429 H 2244.32 0.0908201 2.05199 0
M  V30 23430 H 2242.55 -2.20185 3.17892 0
M  V30 23431 H 2244.24 -1.98778 3.53896 0
M  V30 23432 H 2245 0.122356 4.84846 0
M  V30 23433 H 2240.88 -1.04994 4.48884 0
M  V30 23434 H 2244.43 1.50351 6.81205 0
M  V30 23435 H 2240.32 0.324103 6.44686 0
M  V30 23436 H 2241.09 1.69208 8.00819 0
M  V30 23437 N 2243.76 -1.55766 -0.239741 0
M  V30 23438 C 2244.72 -1.90105 -1.28034 0
M  V30 23439 C 2245.72 -0.77808 -1.40722 0
M  V30 23440 O 2246.91 -1.04601 -1.39299 0
M  V30 23441 C 2244.04 -2.13581 -2.65699 0
M  V30 23442 H 2245.23 -2.83158 -0.987998 0
M  V30 23443 H 2242.79 -1.48768 -0.479356 0
M  V30 23444 H 2243.52 -1.2302 -3.00061 0
M  V30 23445 H 2243.31 -2.95374 -2.5787 0
M  V30 23446 H 2244.8 -2.41307 -3.40823 0
M  V30 23447 N 2245.23 0.505704 -1.49266 0
M  V30 23448 C 2246.46 1.28426 -1.62217 0
M  V30 23449 C 2246.88 1.86533 -0.29173 0
M  V30 23450 O 2246.23 1.67602 0.722204 0
M  V30 23451 C 2246.28 2.41788 -2.68739 0
M  V30 23452 O 2246.01 1.86071 -3.96622 0
M  V30 23453 C 2247.51 3.33235 -2.92352 0
M  V30 23454 H 2244.73 0.389687 -0.546246 0
M  V30 23455 H 2247.27 0.607575 -1.95266 0
M  V30 23456 H 2245.43 3.05296 -2.38481 0
M  V30 23457 H 2245.84 2.60457 -4.55261 0
M  V30 23458 H 2247.31 4.09068 -3.70631 0
M  V30 23459 H 2247.79 3.89945 -2.02088 0
M  V30 23460 H 2248.4 2.75498 -3.24008 0
M  V30 23461 N 2246.71 1.38262 0.756405 0
M  V30 23462 C 2247.66 1.35264 1.87009 0
M  V30 23463 C 2248.63 0.215645 1.64694 0
M  V30 23464 O 2249.81 0.407432 1.86399 0
M  V30 23465 C 2246.95 1.18073 3.24273 0
M  V30 23466 C 2246.07 2.41136 3.58438 0
M  V30 23467 C 2245.2 2.16697 4.8499 0
M  V30 23468 C 2244.24 3.35546 5.11933 0
M  V30 23469 N 2243.38 3.10561 6.2968 0
M  V30 23470 H 2248.22 2.30475 1.88906 0
M  V30 23471 H 2245.76 1.1451 0.923353 0
M  V30 23472 H 2247.71 1.06123 4.03477 0
M  V30 23473 H 2246.34 0.26503 3.2171 0
M  V30 23474 H 2245.4 2.63769 2.74099 0
M  V30 23475 H 2246.71 3.29724 3.74278 0
M  V30 23476 H 2245.86 2.01867 5.72132 0
M  V30 23477 H 2244.6 1.25471 4.71284 0
M  V30 23478 H 2243.61 3.50898 4.23262 0
M  V30 23479 H 2244.83 4.27645 5.27539 0
M  V30 23480 H 2242.78 2.21978 6.17302 0
M  V30 23481 H 2242.69 3.92697 6.46007 0
M  V30 23482 H 2243.96 2.99379 7.19717 0
M  V30 23483 N 2248.19 -0.984277 1.23084 0
M  V30 23484 C 2249.14 -2.07597 1.00858 0
M  V30 23485 C 2250.11 -1.65941 -0.0726418 0
M  V30 23486 O 2251.29 -1.90638 0.078687 0
M  V30 23487 C 2248.43 -3.39814 0.601704 0
M  V30 23488 C 2247.55 -3.94762 1.75463 0
M  V30 23489 C 2246.68 -5.15175 1.29491 0
M  V30 23490 C 2245.72 -5.6228 2.41883 0
M  V30 23491 N 2244.86 -6.73926 1.96897 0
M  V30 23492 H 2249.7 -2.25943 1.94303 0
M  V30 23493 H 2247.23 -1.1076 0.968021 0
M  V30 23494 H 2249.19 -4.15755 0.346927 0
M  V30 23495 H 2247.82 -3.21442 -0.295746 0
M  V30 23496 H 2246.87 -3.15612 2.12351 0
M  V30 23497 H 2248.19 -4.25694 2.59973 0
M  V30 23498 H 2247.34 -5.98435 0.998029 0
M  V30 23499 H 2246.08 -4.85887 0.420131 0
M  V30 23500 H 2245.08 -4.77604 2.7235 0
M  V30 23501 H 2246.31 -5.93589 3.29891 0
M  V30 23502 H 2244.25 -6.46404 1.11793 0
M  V30 23503 H 2244.17 -7.04222 2.74968 0
M  V30 23504 H 2245.44 -7.60669 1.70302 0
M  V30 23505 N 2249.67 -1.04192 -1.18244 0
M  V30 23506 C 2251.08 -0.773728 -1.69913 0
M  V30 23507 C 2251.43 0.705265 -1.83086 0
M  V30 23508 O 2250.56 1.54887 -1.51125 0
M  V30 23509 C 2251.15 -1.3979 -3.08617 0
M  V30 23510 C 2249.71 -1.17798 -3.57492 0
M  V30 23511 C 2248.86 -1.48777 -2.3401 0
M  V30 23512 H 2251.81 -1.20818 -1.02902 0
M  V30 23513 H 2251.83 -0.801779 -3.71957 0
M  V30 23514 H 2251.34 -2.47432 -2.98997 0
M  V30 23515 H 2249.44 -0.120361 -3.72406 0
M  V30 23516 H 2249.55 -1.87589 -4.40848 0
M  V30 23517 H 2247.92 -0.907505 -2.37984 0
M  V30 23518 H 2248.7 -2.57531 -2.27008 0
M  V30 23519 N 2251.15 1.34492 -0.821557 0
M  V30 23520 C 2252.39 1.98621 -0.409587 0
M  V30 23521 C 2252.73 1.64986 1.02437 0
M  V30 23522 O 2252 0.920788 1.71324 0
M  V30 23523 C 2252.28 3.54887 -0.610521 0
M  V30 23524 C 2252.14 3.98269 -2.0905 0
M  V30 23525 C 2253.46 4.40076 -0.0456153 0
M  V30 23526 H 2250.57 0.721513 -0.150292 0
M  V30 23527 H 2253.22 1.59409 -1.03387 0
M  V30 23528 H 2251.37 3.88419 -0.0791123 0
M  V30 23529 H 2253.04 3.75076 -2.68544 0
M  V30 23530 H 2251.28 3.48631 -2.58146 0
M  V30 23531 H 2251.95 5.07047 -2.18191 0
M  V30 23532 H 2254.43 4.13089 -0.49963 0
M  V30 23533 H 2253.3 5.48475 -0.216018 0
M  V30 23534 H 2253.57 4.29467 1.04932 0
M  V30 23535 N 2252.62 0.576397 1.46681 0
M  V30 23536 C 2253.87 0.0596577 2.02712 0
M  V30 23537 C 2254.2 -1.29445 1.44767 0
M  V30 23538 O 2253.48 -1.84674 0.610387 0
M  V30 23539 C 2253.76 -0.012887 3.60098 0
M  V30 23540 C 2253.61 1.36967 4.28439 0
M  V30 23541 C 2254.93 -0.716704 4.34225 0
M  V30 23542 H 2252.05 0.0231537 0.736636 0
M  V30 23543 H 2254.69 0.742381 1.74896 0
M  V30 23544 H 2252.84 -0.594311 3.83927 0
M  V30 23545 H 2254.52 1.99578 4.15892 0
M  V30 23546 H 2252.76 1.93913 3.88046 0
M  V30 23547 H 2253.43 1.27145 5.37158 0
M  V30 23548 H 2255.91 -0.222834 4.15503 0
M  V30 23549 H 2254.78 -0.736475 5.43937 0
M  V30 23550 H 2255.04 -1.77675 4.04826 0
M  V30 23551 N 2254.1 -1.54444 0.313841 0
M  V30 23552 C 2255.52 -1.59552 -0.0391338 0
M  V30 23553 C 2255.72 -1.33059 -1.51319 0
M  V30 23554 O 2254.77 -1.11026 -2.26781 0
M  V30 23555 C 2256.09 -2.98411 0.370354 0
M  V30 23556 C 2257.64 -3.11358 0.320194 0
M  V30 23557 C 2258.11 -4.52546 0.704697 0
M  V30 23558 N 2259.6 -4.58506 0.657726 0
M  V30 23559 C 2260.34 -5.65848 0.927553 0
M  V30 23560 N 2259.83 -6.81171 1.26401 0
M  V30 23561 N 2261.63 -5.55578 0.853759 0
M  V30 23562 H 2253.78 -1.69923 1.27436 0
M  V30 23563 H 2256.04 -0.794275 0.517525 0
M  V30 23564 H 2255.75 -3.22764 1.397 0
M  V30 23565 H 2255.62 -3.76236 -0.269553 0
M  V30 23566 H 2258.01 -2.86745 -0.697224 0
M  V30 23567 H 2258.09 -2.35659 0.994901 0
M  V30 23568 H 2257.73 -4.7789 1.71998 0
M  V30 23569 H 2257.66 -5.26599 0.00778099 0
M  V30 23570 H 2260.15 -3.75679 0.409133 0
M  V30 23571 H 2260.47 -7.58969 1.45554 0
M  V30 23572 H 2258.81 -6.82692 1.30218 0
M  V30 23573 H 2262 -4.64361 0.590464 0
M  V30 23574 H 2262.17 -6.39148 1.06741 0
M  V30 23575 N 2255.58 -0.0418125 -1.57545 0
M  V30 23576 C 2256.51 0.964763 -2.07906 0
M  V30 23577 C 2257.53 1.28077 -1.005 0
M  V30 23578 O 2258.71 1.2432 -1.28089 0
M  V30 23579 C 2255.81 2.28883 -2.49932 0
M  V30 23580 C 2254.99 2.15612 -3.80566 0
M  V30 23581 C 2254.05 3.31062 -4.09005 0
M  V30 23582 O 2253.07 3.07382 -4.79067 0
M  V30 23583 N 2254.27 4.5525 -3.60178 0
M  V30 23584 H 2257.04 0.534977 -2.94887 0
M  V30 23585 H 2254.6 0.144652 -1.61252 0
M  V30 23586 H 2256.59 3.04967 -2.6604 0
M  V30 23587 H 2255.16 2.6346 -1.68249 0
M  V30 23588 H 2254.38 1.24177 -3.74131 0
M  V30 23589 H 2255.67 2.03963 -4.6613 0
M  V30 23590 H 2255.07 4.7738 -3.0352 0
M  V30 23591 H 2253.63 5.2846 -3.81541 0
M  V30 23592 N 2257.06 1.55891 0.231477 0
M  V30 23593 C 2258.3 1.78707 0.958738 0
M  V30 23594 C 2258.64 0.609757 1.84379 0
M  V30 23595 O 2257.91 -0.391392 1.90521 0
M  V30 23596 C 2258.2 3.11529 1.80614 0
M  V30 23597 C 2258.05 4.39691 0.948251 0
M  V30 23598 C 2259.37 3.40708 2.78579 0
M  V30 23599 H 2256.49 0.650137 0.347118 0
M  V30 23600 H 2259.13 1.88624 0.228226 0
M  V30 23601 H 2257.28 3.03205 2.42897 0
M  V30 23602 H 2258.95 4.60024 0.342936 0
M  V30 23603 H 2257.19 4.3306 0.253237 0
M  V30 23604 H 2257.86 5.29044 1.57533 0
M  V30 23605 H 2260.34 3.49095 2.26433 0
M  V30 23606 H 2259.22 4.34832 3.34981 0
M  V30 23607 H 2259.48 2.62381 3.55821 0
M  V30 23608 N 2258.54 -0.497781 1.49532 0
M  V30 23609 C 2259.47 -1.61575 1.62562 0
M  V30 23610 C 2260.48 -1.54666 0.508161 0
M  V30 23611 O 2261.67 -1.6054 0.780338 0
M  V30 23612 C 2258.77 -3.00376 1.56931 0
M  V30 23613 C 2257.94 -3.32435 2.84263 0
M  V30 23614 C 2257 -4.50664 2.7164 0
M  V30 23615 O 2256.03 -4.52288 3.45578 0
M  V30 23616 N 2257.23 -5.50767 1.83401 0
M  V30 23617 H 2260 -1.50823 2.58983 0
M  V30 23618 H 2257.56 -0.685717 1.46661 0
M  V30 23619 H 2259.55 -3.77394 1.46136 0
M  V30 23620 H 2258.12 -3.05035 0.683537 0
M  V30 23621 H 2257.34 -2.44284 3.09385 0
M  V30 23622 H 2258.63 -3.50654 3.68673 0
M  V30 23623 H 2258.02 -5.52257 1.22593 0
M  V30 23624 H 2256.58 -6.26874 1.78526 0
M  V30 23625 N 2260.01 -1.38661 -0.749062 0
M  V30 23626 C 2261.24 -1.3836 -1.53831 0
M  V30 23627 C 2261.66 0.0254887 -1.88783 0
M  V30 23628 O 2261.01 0.993265 -1.53103 0
M  V30 23629 C 2261.07 -2.24345 -2.83464 0
M  V30 23630 O 2260.79 -3.59765 -2.50002 0
M  V30 23631 C 2262.29 -2.32274 -3.77576 0
M  V30 23632 H 2259.51 -0.473091 -0.475842 0
M  V30 23633 H 2262.05 -1.82298 -0.926694 0
M  V30 23634 H 2260.21 -1.83857 -3.40992 0
M  V30 23635 H 2260.62 -4.05086 -3.33174 0
M  V30 23636 H 2262.09 -2.96714 -4.65473 0
M  V30 23637 H 2262.57 -1.33772 -4.18332 0
M  V30 23638 H 2263.18 -2.73171 -3.25972 0
M  V30 23639 N 2261.49 0.977736 -1.23605 0
M  V30 23640 C 2262.43 2.07315 -0.977405 0
M  V30 23641 C 2263.44 1.62725 0.0495559 0
M  V30 23642 O 2264.63 1.77525 -0.186292 0
M  V30 23643 C 2261.73 3.35882 -0.451275 0
M  V30 23644 C 2260.9 4.0943 -1.53903 0
M  V30 23645 C 2259.96 5.16273 -1.01731 0
M  V30 23646 O 2258.99 5.43006 -1.70686 0
M  V30 23647 N 2260.19 5.80297 0.153492 0
M  V30 23648 H 2262.95 2.30079 -1.92051 0
M  V30 23649 H 2260.51 1.14463 -1.14499 0
M  V30 23650 H 2262.51 4.04606 -0.0872286 0
M  V30 23651 H 2261.08 3.10065 0.397314 0
M  V30 23652 H 2260.3 3.35123 -2.07572 0
M  V30 23653 H 2261.58 4.55333 -2.27045 0
M  V30 23654 H 2260.98 5.60967 0.730224 0
M  V30 23655 H 2259.54 6.50183 0.458777 0
M  V30 23656 N 2262.97 1.04818 1.1769 0
M  V30 23657 C 2264.22 0.75453 1.87487 0
M  V30 23658 C 2264.54 -0.720375 1.81206 0
M  V30 23659 O 2263.81 -1.52029 1.23547 0
M  V30 23660 H 2262.39 0.276114 0.694096 0
M  V30 23661 H 2265.05 1.32653 1.4279 0
M  V30 23662 H 2264.15 1.06611 2.93326 0
M  V30 23663 N 2264.45 -1.34055 0.828678 0
M  V30 23664 C 2265.86 -1.80489 0.477566 0
M  V30 23665 C 2266.21 -1.68651 -1.00256 0
M  V30 23666 O 2265.34 -1.22985 -1.78055 0
M  V30 23667 C 2265.93 -3.27701 0.860075 0
M  V30 23668 C 2264.49 -3.72192 0.56125 0
M  V30 23669 C 2263.64 -2.55661 1.0739 0
M  V30 23670 H 2266.59 -1.2172 1.01832 0
M  V30 23671 H 2266.61 -3.80137 0.166105 0
M  V30 23672 H 2266.12 -3.36285 1.93737 0
M  V30 23673 H 2264.22 -3.69143 -0.5064 0
M  V30 23674 H 2264.34 -4.6608 1.10934 0
M  V30 23675 H 2262.7 -2.4984 0.495193 0
M  V30 23676 H 2263.48 -2.67012 2.15776 0
M  V30 23677 N 2265.93 -0.584167 -1.46374 0
M  V30 23678 C 2266.86 0.135996 -2.33104 0
M  V30 23679 C 2267.84 0.88223 -1.45433 0
M  V30 23680 O 2269.02 0.857403 -1.74248 0
M  V30 23681 C 2266.15 1.14928 -3.27733 0
M  V30 23682 C 2265.11 0.517788 -4.24856 0
M  V30 23683 C 2264.43 1.63764 -5.09004 0
M  V30 23684 C 2265.73 -0.545977 -5.19439 0
M  V30 23685 H 2267.43 -0.588137 -2.93567 0
M  V30 23686 H 2264.97 -0.284284 -1.41166 0
M  V30 23687 H 2266.93 1.66146 -3.87264 0
M  V30 23688 H 2265.65 1.9037 -2.6538 0
M  V30 23689 H 2264.31 0.0266716 -3.6659 0
M  V30 23690 H 2263.96 2.38177 -4.43036 0
M  V30 23691 H 2263.66 1.22075 -5.7478 0
M  V30 23692 H 2265.18 2.15256 -5.71399 0
M  V30 23693 H 2266.6 -0.118805 -5.73177 0
M  V30 23694 H 2264.99 -0.883274 -5.93564 0
M  V30 23695 H 2266.06 -1.4317 -4.63282 0
M  V30 23696 N 2267.41 1.54275 -0.322027 0
M  V30 23697 C 2268.65 2.00541 0.281009 0
M  V30 23698 C 2268.98 1.21022 1.52263 0
M  V30 23699 O 2268.24 0.280016 1.93686 0
M  V30 23700 C 2268.53 3.51221 0.661707 0
M  V30 23701 C 2268.2 4.48332 -0.48056 0
M  V30 23702 C 2266.86 4.74603 -0.794088 0
M  V30 23703 C 2269.21 5.0604 -1.24792 0
M  V30 23704 C 2266.54 5.5584 -1.87773 0
M  V30 23705 C 2268.89 5.88458 -2.32164 0
M  V30 23706 C 2267.56 6.13031 -2.641 0
M  V30 23707 H 2266.83 0.733831 0.102828 0
M  V30 23708 H 2269.48 1.86246 -0.445486 0
M  V30 23709 H 2267.78 3.63234 1.4686 0
M  V30 23710 H 2269.48 3.84459 1.13982 0
M  V30 23711 H 2266.07 4.28003 -0.226114 0
M  V30 23712 H 2270.25 4.85727 -1.01896 0
M  V30 23713 H 2265.51 5.73111 -2.12964 0
M  V30 23714 H 2269.68 6.32194 -2.92068 0
M  V30 23715 H 2267.31 6.75769 -3.48196 0
M  V30 23716 N 2268.88 0.0501669 1.5752 0
M  V30 23717 C 2270.16 -0.663653 1.83997 0
M  V30 23718 C 2270.54 -1.89097 0.938373 0
M  V30 23719 O 2269.89 -2.285 -0.000837425 0
M  V30 23720 C 2270.1 -1.0219 3.33704 0
M  V30 23721 C 2271.45 -1.40462 4.00694 0
M  V30 23722 O 2272.47 -1.11427 3.38323 0
M  V30 23723 O 2271.33 -1.94645 5.10662 0
M  V30 23724 H 2268.42 -0.327497 0.759391 0
M  V30 23725 H 2270.97 0.0794536 1.69514 0
M  V30 23726 H 2269.74 -0.149295 3.91015 0
M  V30 23727 H 2269.36 -1.82249 3.53371 0
M  V30 23728 N 2270.36 -1.56011 -0.223207 0
M  V30 23729 C 2271.61 -1.78947 -0.947844 0
M  V30 23730 C 2271.94 -0.61864 -1.84399 0
M  V30 23731 O 2271.19 0.397059 -1.9163 0
M  V30 23732 C 2271.49 -3.07623 -1.81942 0
M  V30 23733 C 2271.16 -4.37857 -1.07665 0
M  V30 23734 C 2269.82 -4.73243 -0.871461 0
M  V30 23735 C 2272.17 -5.18269 -0.55199 0
M  V30 23736 C 2269.5 -5.86557 -0.129688 0
M  V30 23737 C 2271.85 -6.32354 0.176431 0
M  V30 23738 C 2270.51 -6.66343 0.392887 0
M  V30 23739 H 2269.78 -0.654815 -0.346841 0
M  V30 23740 H 2272.43 -1.90276 -0.216137 0
M  V30 23741 H 2270.74 -2.91408 -2.61894 0
M  V30 23742 H 2272.43 -3.2257 -2.38221 0
M  V30 23743 H 2269.02 -4.10072 -1.24655 0
M  V30 23744 H 2273.21 -4.91367 -0.69799 0
M  V30 23745 H 2268.46 -6.11381 0.0482604 0
M  V30 23746 H 2272.64 -6.93892 0.590489 0
M  V30 23747 H 2270.26 -7.53991 0.969598 0
M  V30 23748 N 2271.84 0.489844 -1.49794 0
M  V30 23749 C 2273.09 1.24079 -1.59527 0
M  V30 23750 C 2273.41 1.92847 -0.288987 0
M  V30 23751 O 2272.68 1.83256 0.692403 0
M  V30 23752 H 2271.26 0.460973 -0.587804 0
M  V30 23753 H 2273.92 0.566746 -1.86478 0
M  V30 23754 H 2273.02 1.99876 -2.397 0
M  V30 23755 N 2273.32 1.39056 0.741698 0
M  V30 23756 C 2274.56 1.36116 1.50334 0
M  V30 23757 C 2274.9 -0.0450455 1.94148 0
M  V30 23758 O 2274.17 -1.00865 1.66302 0
M  V30 23759 C 2274.45 2.32754 2.74768 0
M  V30 23760 C 2274.31 3.82287 2.37017 0
M  V30 23761 C 2275.63 2.27328 3.76842 0
M  V30 23762 H 2272.75 0.495753 0.545342 0
M  V30 23763 H 2275.39 1.69997 0.848595 0
M  V30 23764 H 2273.54 2.03991 3.30635 0
M  V30 23765 H 2275.21 4.21771 1.86833 0
M  V30 23766 H 2273.45 3.99388 1.69327 0
M  V30 23767 H 2274.12 4.45382 3.26097 0
M  V30 23768 H 2276.6 2.52745 3.30543 0
M  V30 23769 H 2275.48 2.97037 4.61585 0
M  V30 23770 H 2275.74 1.27606 4.23284 0
M  V30 23771 N 2274.8 -0.971167 1.24121 0
M  V30 23772 C 2276.02 -1.75405 1.1067 0
M  V30 23773 C 2276.45 -1.85056 -0.337016 0
M  V30 23774 O 2275.8 -1.31894 -1.24393 0
M  V30 23775 C 2275.85 -3.15438 1.74732 0
M  V30 23776 O 2274.96 -3.99696 1.01573 0
M  V30 23777 H 2274.3 -0.53931 0.387351 0
M  V30 23778 H 2276.83 -1.21847 1.6436 0
M  V30 23779 H 2276.84 -3.65976 1.80348 0
M  V30 23780 H 2275.51 -3.07729 2.79778 0
M  V30 23781 H 2274.09 -3.58185 1.03719 0
M  V30 23782 N 2276.27 -1.05441 -1.17133 0
M  V30 23783 C 2277.2 -0.678688 -2.23419 0
M  V30 23784 C 2278.19 0.324731 -1.66972 0
M  V30 23785 O 2279.37 0.201768 -1.93149 0
M  V30 23786 C 2276.5 -0.055271 -3.47256 0
M  V30 23787 C 2275.45 -0.983723 -4.16542 0
M  V30 23788 C 2274.78 -0.224055 -5.3423 0
M  V30 23789 C 2276.08 -2.30898 -4.68491 0
M  V30 23790 H 2277.77 -1.56726 -2.55103 0
M  V30 23791 H 2275.32 -0.755019 -1.22619 0
M  V30 23792 H 2277.27 0.219386 -4.20829 0
M  V30 23793 H 2276 0.868264 -3.14847 0
M  V30 23794 H 2274.66 -1.24299 -3.44885 0
M  V30 23795 H 2274.3 0.702325 -4.98073 0
M  V30 23796 H 2274 -0.842729 -5.81525 0
M  V30 23797 H 2275.53 0.0432598 -6.10585 0
M  V30 23798 H 2276.94 -2.09405 -5.33688 0
M  V30 23799 H 2275.34 -2.88185 -5.26374 0
M  V30 23800 H 2276.41 -2.94579 -3.85164 0
M  V30 23801 N 2277.75 1.33613 -0.835776 0
M  V30 23802 C 2278.68 2.31794 -0.28178 0
M  V30 23803 C 2279.66 1.58832 0.608805 0
M  V30 23804 O 2280.85 1.86742 0.533002 0
M  V30 23805 C 2277.98 3.42972 0.546552 0
M  V30 23806 C 2276.93 4.27281 -0.247979 0
M  V30 23807 C 2276.26 5.30046 0.703907 0
M  V30 23808 C 2277.56 5.01382 -1.46333 0
M  V30 23809 H 2279.25 2.78377 -1.10211 0
M  V30 23810 H 2276.8 1.33836 -0.531412 0
M  V30 23811 H 2278.75 4.10681 0.944395 0
M  V30 23812 H 2277.48 2.95069 1.40006 0
M  V30 23813 H 2276.13 3.61192 -0.627345 0
M  V30 23814 H 2275.78 4.78402 1.55373 0
M  V30 23815 H 2275.48 5.87335 0.176421 0
M  V30 23816 H 2277.01 6.00622 1.09933 0
M  V30 23817 H 2278.42 5.61875 -1.13881 0
M  V30 23818 H 2276.82 5.68306 -1.92738 0
M  V30 23819 H 2277.89 4.30334 -2.23474 0
M  V30 23820 N 2279.23 0.591922 1.46062 0
M  V30 23821 C 2280.18 -0.136029 2.30399 0
M  V30 23822 C 2281.15 -0.875214 1.41171 0
M  V30 23823 O 2282.33 -0.86406 1.70114 0
M  V30 23824 C 2279.47 -1.13775 3.25806 0
M  V30 23825 C 2278.59 -0.401062 4.30134 0
M  V30 23826 C 2277.72 -1.39112 5.12661 0
M  V30 23827 C 2276.76 -0.641355 6.08731 0
M  V30 23828 N 2275.9 -1.57992 6.84093 0
M  V30 23829 H 2280.74 0.589195 2.92117 0
M  V30 23830 H 2278.27 0.302367 1.43959 0
M  V30 23831 H 2280.23 -1.73149 3.79572 0
M  V30 23832 H 2278.86 -1.83058 2.65875 0
M  V30 23833 H 2277.91 0.307893 3.79152 0
M  V30 23834 H 2279.23 0.184652 4.98458 0
M  V30 23835 H 2278.38 -2.05739 5.70751 0
M  V30 23836 H 2277.12 -2.01076 4.44319 0
M  V30 23837 H 2276.12 0.0386385 5.49786 0
M  V30 23838 H 2277.35 -0.0269751 6.79095 0
M  V30 23839 H 2275.29 -2.1875 6.18453 0
M  V30 23840 H 2275.21 -1.04725 7.48711 0
M  V30 23841 H 2276.48 -2.23626 7.46734 0
M  V30 23842 N 2280.71 -1.54102 0.330204 0
M  V30 23843 C 2281.66 -2.24568 -0.532722 0
M  V30 23844 C 2282.63 -1.23893 -1.10633 0
M  V30 23845 O 2283.81 -1.52593 -1.14543 0
M  V30 23846 C 2280.95 -3.01198 -1.68445 0
M  V30 23847 C 2280.06 -4.16702 -1.13943 0
M  V30 23848 C 2279.2 -4.80849 -2.25738 0
M  V30 23849 C 2278.24 -5.88445 -1.68519 0
M  V30 23850 N 2277.37 -6.46426 -2.74003 0
M  V30 23851 H 2282.21 -2.97906 0.0747429 0
M  V30 23852 H 2279.75 -1.4702 0.0486579 0
M  V30 23853 H 2281.71 -3.43878 -2.36228 0
M  V30 23854 H 2280.34 -2.30182 -2.2631 0
M  V30 23855 H 2279.39 -3.78759 -0.352944 0
M  V30 23856 H 2280.7 -4.94132 -0.680805 0
M  V30 23857 H 2279.86 -5.26531 -3.01413 0
M  V30 23858 H 2278.6 -4.02814 -2.7494 0
M  V30 23859 H 2277.6 -5.42159 -0.913448 0
M  V30 23860 H 2278.83 -6.6838 -1.20186 0
M  V30 23861 H 2276.77 -5.71262 -3.22484 0
M  V30 23862 H 2276.69 -7.19289 -2.32723 0
M  V30 23863 H 2277.96 -6.96763 -3.49487 0
M  V30 23864 N 2282.19 -0.0585199 -1.57491 0
M  V30 23865 C 2283.13 0.931131 -2.1315 0
M  V30 23866 C 2284.13 1.31728 -1.06509 0
M  V30 23867 O 2285.33 1.29607 -1.24908 0
M  V30 23868 H 2281.71 0.318168 -0.681376 0
M  V30 23869 H 2283.68 0.436655 -2.95188 0
M  V30 23870 C 2282.43 2.19404 -2.69736 0
M  V30 23871 H 2281.75 1.90572 -3.51458 0
M  V30 23872 H 2283.19 2.86792 -3.12292 0
M  V30 23873 C 2281.65 2.94366 -1.6386 0
M  V30 23874 O 2282.18 3.87579 -1.05572 0
M  V30 23875 N 2280.39 2.5723 -1.35207 0
M  V30 23876 H 2279.93 1.81505 -1.82794 0
M  V30 23877 H 2279.89 3.07692 -0.645976 0
M  V30 23878 N 2283.66 1.56128 0.21493 0
M  V30 23879 C 2284.91 1.78645 0.93642 0
M  V30 23880 C 2285.23 0.628261 1.85236 0
M  V30 23881 O 2286.43 0.737232 2.61299 0
M  V30 23882 C 2284.89 3.16392 1.71535 0
M  V30 23883 C 2284.5 4.39955 0.845222 0
M  V30 23884 C 2286.24 3.48231 2.42766 0
M  V30 23885 C 2284.15 5.68726 1.62188 0
M  V30 23886 H 2283.08 0.666057 0.35339 0
M  V30 23887 H 2285.73 1.82512 0.190137 0
M  V30 23888 H 2284.11 3.06719 2.50478 0
M  V30 23889 H 2285.28 4.607 0.0958543 0
M  V30 23890 H 2283.6 4.1568 0.244716 0
M  V30 23891 H 2286.2 4.41668 3.01386 0
M  V30 23892 H 2286.54 2.7104 3.15979 0
M  V30 23893 H 2287.07 3.59263 1.70806 0
M  V30 23894 H 2283.81 6.48828 0.932897 0
M  V30 23895 H 2283.33 5.5203 2.34569 0
M  V30 23896 H 2285.01 6.09137 2.18084 0
M  V30 23897 N 2285.14 -0.481893 1.50052 0
M  V30 23898 C 2286.56 -0.814732 1.37238 0
M  V30 23899 C 2286.76 -1.97071 0.420144 0
M  V30 23900 O 2285.81 -2.52105 -0.141201 0
M  V30 23901 C 2287.13 -1.13696 2.78377 0
M  V30 23902 C 2288.68 -1.24405 2.87215 0
M  V30 23903 C 2289.15 -1.59946 4.29163 0
M  V30 23904 N 2290.64 -1.66959 4.32064 0
M  V30 23905 C 2291.38 -1.95942 5.38882 0
M  V30 23906 N 2290.87 -2.2302 6.55922 0
M  V30 23907 N 2292.67 -1.97354 5.26315 0
M  V30 23908 H 2284.82 0.280087 2.10545 0
M  V30 23909 H 2287.08 0.062762 0.94592 0
M  V30 23910 H 2286.79 -0.360725 3.49845 0
M  V30 23911 H 2286.66 -2.07581 3.14945 0
M  V30 23912 H 2289.05 -2.01097 2.15972 0
M  V30 23913 H 2289.13 -0.285254 2.54205 0
M  V30 23914 H 2288.77 -0.837979 5.00939 0
M  V30 23915 H 2288.7 -2.56958 4.59652 0
M  V30 23916 H 2291.19 -1.48117 3.47663 0
M  V30 23917 H 2291.51 -2.44378 7.33143 0
M  V30 23918 H 2289.85 -2.20435 6.59116 0
M  V30 23919 H 2293.04 -1.75689 4.33879 0
M  V30 23920 H 2293.21 -2.19607 6.09653 0
M  V30 23921 N 2286.62 -1.39448 -0.734313 0
M  V30 23922 C 2287.85 -1.39984 -1.52355 0
M  V30 23923 C 2288.26 0.00546432 -1.88799 0
M  V30 23924 O 2287.62 0.976971 -1.54148 0
M  V30 23925 C 2287.67 -2.27338 -2.81068 0
M  V30 23926 O 2287.39 -3.62396 -2.46172 0
M  V30 23927 C 2288.89 -2.36265 -3.75092 0
M  V30 23928 H 2286.11 -0.478112 -0.470798 0
M  V30 23929 H 2288.66 -1.83271 -0.907307 0
M  V30 23930 H 2286.81 -1.87463 -3.39023 0
M  V30 23931 H 2287.23 -4.08597 -3.28859 0
M  V30 23932 H 2288.7 -3.01634 -4.623 0
M  V30 23933 H 2289.18 -1.38202 -4.1689 0
M  V30 23934 H 2289.78 -2.76613 -3.23056 0
M  V30 23935 N 2288.1 0.964571 -1.24635 0
M  V30 23936 C 2289.34 1.71047 -1.08952 0
M  V30 23937 C 2289.68 1.90637 0.370268 0
M  V30 23938 O 2288.95 1.47014 1.27347 0
M  V30 23939 C 2289.24 3.09936 -1.83334 0
M  V30 23940 C 2289.09 2.97818 -3.37082 0
M  V30 23941 C 2290.41 4.09651 -1.60853 0
M  V30 23942 H 2287.53 0.620814 -0.397189 0
M  V30 23943 H 2290.17 1.12188 -1.53342 0
M  V30 23944 H 2288.32 3.60183 -1.45603 0
M  V30 23945 H 2289.99 2.54973 -3.8443 0
M  V30 23946 H 2288.23 2.33959 -3.65302 0
M  V30 23947 H 2288.9 3.96224 -3.84331 0
M  V30 23948 H 2291.38 3.68276 -1.93681 0
M  V30 23949 H 2290.26 5.04892 -2.15349 0
M  V30 23950 H 2290.52 4.38697 -0.547511 0
M  V30 23951 N 2289.58 1.0606 1.16572 0
M  V30 23952 C 2290.52 0.669301 2.20882 0
M  V30 23953 C 2291.49 -0.332889 1.6273 0
M  V30 23954 O 2292.68 -0.222313 1.895 0
M  V30 23955 C 2289.82 0.0594178 3.45049 0
M  V30 23956 C 2288.93 1.1115 4.17456 0
M  V30 23957 C 2288.07 0.468009 5.29134 0
M  V30 23958 C 2287.11 1.50379 5.9334 0
M  V30 23959 N 2286.24 0.883828 6.96515 0
M  V30 23960 H 2291.08 1.56324 2.53706 0
M  V30 23961 H 2288.62 0.781647 1.24614 0
M  V30 23962 H 2290.58 -0.311698 4.16034 0
M  V30 23963 H 2289.21 -0.797937 3.12782 0
M  V30 23964 H 2288.26 1.60035 3.45099 0
M  V30 23965 H 2289.57 1.89739 4.61303 0
M  V30 23966 H 2288.73 0.0437937 6.06684 0
M  V30 23967 H 2287.46 -0.349778 4.86444 0
M  V30 23968 H 2286.47 1.93793 5.14514 0
M  V30 23969 H 2287.69 2.32363 6.3811 0
M  V30 23970 H 2285.64 0.0867103 6.55943 0
M  V30 23971 H 2285.56 1.60713 7.3872 0
M  V30 23972 H 2286.83 0.48468 7.77992 0
M  V30 23973 N 2291.06 -1.33168 0.84285 0
M  V30 23974 C 2292.28 -2.01855 0.454091 0
M  V30 23975 C 2292.7 -1.63399 -0.945841 0
M  V30 23976 O 2292.06 -0.84933 -1.61532 0
M  V30 23977 C 2292.11 -3.56981 0.569777 0
M  V30 23978 O 2291.83 -3.94051 1.91455 0
M  V30 23979 C 2293.33 -4.42941 0.17849 0
M  V30 23980 H 2290.55 -0.646462 0.179801 0
M  V30 23981 H 2293.09 -1.7001 1.13653 0
M  V30 23982 H 2291.25 -3.87346 -0.0647906 0
M  V30 23983 H 2291.66 -4.88764 1.9029 0
M  V30 23984 H 2293.14 -5.51126 0.310473 0
M  V30 23985 H 2293.61 -4.30294 -0.879981 0
M  V30 23986 H 2294.22 -4.17943 0.787653 0
M  V30 23987 N 2292.53 -0.599659 -1.45746 0
M  V30 23988 C 2293.78 -0.0915827 -2.01892 0
M  V30 23989 C 2294.1 1.27944 -1.47158 0
M  V30 23990 O 2293.37 1.84348 -0.662762 0
M  V30 23991 H 2291.95 -0.0308655 -0.746362 0
M  V30 23992 H 2294.61 -0.779268 -1.78643 0
M  V30 23993 H 2293.71 -0.0353635 -3.1208 0
M  V30 23994 N 2294.01 1.53925 -0.338371 0
M  V30 23995 C 2294.97 2.23494 0.50826 0
M  V30 23996 C 2295.97 1.23337 1.03173 0
M  V30 23997 O 2297.16 1.47812 0.9218 0
M  V30 23998 C 2294.3 2.95055 1.70749 0
M  V30 23999 H 2295.49 2.99733 -0.10011 0
M  V30 24000 H 2293.04 1.56043 -0.0896473 0
M  V30 24001 H 2293.78 2.2299 2.3547 0
M  V30 24002 H 2293.56 3.68514 1.33939 0
M  V30 24003 H 2295.05 3.48017 2.30812 0
M  V30 24004 N 2295.49 0.0668712 1.57458 0
M  V30 24005 C 2296.74 -0.60218 1.9292 0
M  V30 24006 C 2297.06 -1.70447 0.947245 0
M  V30 24007 O 2296.33 -1.95899 -0.00540674 0
M  V30 24008 H 2294.91 -0.225428 0.712174 0
M  V30 24009 H 2297.57 0.123569 1.94508 0
M  V30 24010 H 2296.67 -1.03067 2.9459 0
M  V30 24011 N 2296.97 -1.56239 -0.206647 0
M  V30 24012 C 2297.88 -1.96811 -1.27682 0
M  V30 24013 C 2298.89 -0.874062 -1.50453 0
M  V30 24014 O 2300.07 -1.17887 -1.63293 0
M  V30 24015 C 2297.13 -2.28946 -2.60354 0
M  V30 24016 C 2296.2 -3.51998 -2.45756 0
M  V30 24017 C 2295.43 -3.82591 -3.72102 0
M  V30 24018 O 2295.65 -3.1464 -4.75771 0
M  V30 24019 O 2294.59 -4.76049 -3.68321 0
M  V30 24020 H 2298.41 -2.88043 -0.962543 0
M  V30 24021 H 2296 -1.43643 -0.410721 0
M  V30 24022 H 2297.88 -2.50743 -3.38682 0
M  V30 24023 H 2296.55 -1.40885 -2.91433 0
M  V30 24024 H 2295.46 -3.35462 -1.65578 0
M  V30 24025 H 2296.79 -4.40489 -2.19613 0
M  V30 24026 N 2298.45 0.473929 -1.50305 0
M  V30 24027 C 2299.69 1.22622 -1.61153 0
M  V30 24028 C 2300.02 1.92005 -0.310551 0
M  V30 24029 O 2299.28 1.82622 0.703387 0
M  V30 24030 C 2299.57 2.29544 -2.73942 0
M  V30 24031 C 2299.24 1.77432 -4.14522 0
M  V30 24032 C 2297.9 1.62941 -4.52773 0
M  V30 24033 C 2300.25 1.38741 -5.02395 0
M  V30 24034 C 2297.58 1.08177 -5.76641 0
M  V30 24035 C 2299.93 0.854199 -6.26806 0
M  V30 24036 C 2298.6 0.695894 -6.63863 0
M  V30 24037 H 2297.87 0.448705 -0.589699 0
M  V30 24038 H 2300.52 0.522673 -1.84229 0
M  V30 24039 H 2298.82 3.05795 -2.44943 0
M  V30 24040 H 2300.52 2.87504 -2.79539 0
M  V30 24041 H 2297.11 1.89678 -3.84344 0
M  V30 24042 H 2301.29 1.48772 -4.73477 0
M  V30 24043 H 2296.55 0.94656 -6.04028 0
M  V30 24044 H 2300.72 0.545721 -6.94258 0
M  V30 24045 H 2298.35 0.269386 -7.59723 0
M  V30 24046 N 2299.92 1.39835 0.726907 0
M  V30 24047 C 2301.15 1.4079 1.51611 0
M  V30 24048 C 2301.57 0.00454824 1.88799 0
M  V30 24049 O 2300.92 -0.968782 1.54664 0
M  V30 24050 C 2300.97 2.28826 2.79859 0
M  V30 24051 O 2300.7 3.63697 2.44247 0
M  V30 24052 C 2302.2 2.38251 3.73833 0
M  V30 24053 H 2299.42 0.480602 0.468255 0
M  V30 24054 H 2301.96 1.83749 0.897575 0
M  V30 24055 H 2300.12 1.89258 3.38024 0
M  V30 24056 H 2300.53 4.10336 3.26688 0
M  V30 24057 H 2302 3.04081 4.60693 0
M  V30 24058 H 2302.48 1.40411 4.16151 0
M  V30 24059 H 2303.09 2.78323 3.21584 0
M  V30 24060 N 2301.4 -0.957948 1.25144 0
M  V30 24061 C 2302.36 -2.03567 1.05324 0
M  V30 24062 C 2303.36 -1.60798 0.00718027 0
M  V30 24063 O 2304.55 -1.7241 0.24906 0
M  V30 24064 C 2301.69 -3.35606 0.598453 0
M  V30 24065 H 2302.88 -2.22583 2.0099 0
M  V30 24066 H 2300.43 -1.13457 1.07504 0
M  V30 24067 H 2301.17 -3.22285 -0.360957 0
M  V30 24068 H 2300.95 -3.67995 1.35358 0
M  V30 24069 H 2302.44 -4.14819 0.481113 0
M  V30 24070 N 2302.88 -1.06677 -1.16008 0
M  V30 24071 C 2303.81 -0.702346 -2.22687 0
M  V30 24072 C 2304.79 0.307003 -1.67307 0
M  V30 24073 O 2305.98 0.181271 -1.93352 0
M  V30 24074 C 2303.11 -0.092099 -3.47178 0
M  V30 24075 C 2302.06 -1.02785 -4.15475 0
M  V30 24076 C 2301.39 -0.280704 -5.33963 0
M  V30 24077 C 2302.69 -2.35854 -4.66015 0
M  V30 24078 H 2304.38 -1.59423 -2.53426 0
M  V30 24079 H 2301.93 -0.767982 -1.21811 0
M  V30 24080 H 2303.88 0.17474 -4.21038 0
M  V30 24081 H 2302.6 0.834821 -3.1575 0
M  V30 24082 H 2301.26 -1.2795 -3.43547 0
M  V30 24083 H 2300.91 0.649458 -4.9879 0
M  V30 24084 H 2300.61 -0.90436 -5.80599 0
M  V30 24085 H 2302.13 -0.0215033 -6.10596 0
M  V30 24086 H 2303.55 -2.15054 -5.31436 0
M  V30 24087 H 2301.94 -2.93752 -5.23288 0
M  V30 24088 H 2303.01 -2.98648 -3.82018 0
M  V30 24089 N 2304.36 1.32719 -0.8499 0
M  V30 24090 C 2305.61 1.97025 -0.450067 0
M  V30 24091 C 2305.93 1.67611 0.996574 0
M  V30 24092 O 2305.2 0.980815 1.69578 0
M  V30 24093 H 2303.78 0.728901 -0.163439 0
M  V30 24094 H 2306.44 1.61888 -1.08528 0
M  V30 24095 H 2305.53 3.06449 -0.5912 0
M  V30 24096 N 2305.84 0.60738 1.45426 0
M  V30 24097 C 2307.08 0.102643 2.0254 0
M  V30 24098 C 2307.42 -1.26345 1.47481 0
M  V30 24099 O 2306.69 -1.83338 0.649422 0
M  V30 24100 C 2306.97 0.063498 3.60044 0
M  V30 24101 C 2306.83 1.46024 4.25437 0
M  V30 24102 C 2308.15 -0.624437 4.35648 0
M  V30 24103 H 2305.26 0.0387736 0.735979 0
M  V30 24104 H 2307.91 0.779312 1.73282 0
M  V30 24105 H 2306.06 -0.51274 3.85102 0
M  V30 24106 H 2307.73 2.08355 4.11565 0
M  V30 24107 H 2305.97 2.02101 3.83846 0
M  V30 24108 H 2306.64 1.3851 5.3434 0
M  V30 24109 H 2309.12 -0.13465 4.15882 0
M  V30 24110 H 2307.99 -0.620932 5.45377 0
M  V30 24111 H 2308.26 -1.69048 4.08504 0
M  V30 24112 N 2307.31 -1.53743 0.34653 0
M  V30 24113 C 2308.54 -2.05082 -0.250011 0
M  V30 24114 C 2308.95 -1.22101 -1.44527 0
M  V30 24115 O 2308.3 -0.249949 -1.81992 0
M  V30 24116 C 2308.36 -3.52096 -0.725872 0
M  V30 24117 C 2308.02 -4.55657 0.350133 0
M  V30 24118 C 2309.02 -5.06008 1.19381 0
M  V30 24119 C 2306.7 -4.99756 0.504915 0
M  V30 24120 C 2308.7 -5.99042 2.17779 0
M  V30 24121 C 2306.38 -5.92599 1.49228 0
M  V30 24122 C 2307.38 -6.42131 2.32717 0
M  V30 24123 O 2307.07 -7.33148 3.29772 0
M  V30 24124 H 2306.8 -0.674033 -0.0515351 0
M  V30 24125 H 2309.36 -1.99282 0.497594 0
M  V30 24126 H 2307.59 -3.5537 -1.52477 0
M  V30 24127 H 2309.28 -3.8639 -1.24329 0
M  V30 24128 H 2310.04 -4.727 1.08533 0
M  V30 24129 H 2305.92 -4.60802 -0.135097 0
M  V30 24130 H 2309.46 -6.37626 2.82982 0
M  V30 24131 H 2305.36 -6.25323 1.60131 0
M  V30 24132 H 2306.13 -7.5109 3.25279 0
M  V30 24133 N 2308.79 -0.0752207 -1.5742 0
M  V30 24134 C 2310.07 0.634296 -1.8503 0
M  V30 24135 C 2310.45 1.8758 -0.968338 0
M  V30 24136 O 2309.8 2.28472 -0.035515 0
M  V30 24137 C 2310.01 0.968683 -3.35287 0
M  V30 24138 C 2311.36 1.3407 -4.02878 0
M  V30 24139 O 2312.38 1.06031 -3.40053 0
M  V30 24140 O 2311.24 1.86497 -5.13694 0
M  V30 24141 H 2308.33 0.315374 -0.764505 0
M  V30 24142 H 2310.88 -0.106412 -1.69366 0
M  V30 24143 H 2309.65 0.0870688 -3.91203 0
M  V30 24144 H 2309.27 1.76604 -3.56226 0
M  V30 24145 N 2310.27 1.56347 0.198358 0
M  V30 24146 C 2311.5 1.84541 0.93554 0
M  V30 24147 C 2311.91 0.657312 1.76988 0
M  V30 24148 O 2311.27 -0.374012 1.78626 0
M  V30 24149 C 2311.32 3.11503 1.83435 0
M  V30 24150 O 2311.04 4.2573 1.0337 0
M  V30 24151 C 2312.54 3.52851 2.68349 0
M  V30 24152 H 2309.76 0.612902 0.273115 0
M  V30 24153 H 2312.31 2.03454 0.206594 0
M  V30 24154 H 2310.46 2.94496 2.51696 0
M  V30 24155 H 2310.88 4.98006 1.6459 0
M  V30 24156 H 2312.35 4.44662 3.27077 0
M  V30 24157 H 2312.83 2.75687 3.41896 0
M  V30 24158 H 2313.43 3.72377 2.05464 0
M  V30 24159 N 2311.75 -0.465951 1.50554 0
M  V30 24160 C 2312.99 -1.21946 1.6204 0
M  V30 24161 C 2313.33 -1.91509 0.32215 0
M  V30 24162 O 2312.6 -1.82349 -0.676691 0
M  V30 24163 C 2312.89 -2.25907 2.80425 0
M  V30 24164 C 2312.74 -1.60615 4.20146 0
M  V30 24165 C 2314.06 -3.27171 2.94359 0
M  V30 24166 H 2311.18 -0.441987 0.589759 0
M  V30 24167 H 2313.82 -0.512538 1.82956 0
M  V30 24168 H 2311.97 -2.86198 2.62722 0
M  V30 24169 H 2313.64 -1.03881 4.49451 0
M  V30 24170 H 2311.88 -0.909137 4.24166 0
M  V30 24171 H 2312.55 -2.36187 4.98919 0
M  V30 24172 H 2315.03 -2.76907 3.10583 0
M  V30 24173 H 2313.91 -3.97236 3.78807 0
M  V30 24174 H 2314.17 -3.91597 2.05193 0
M  V30 24175 N 2313.23 -1.40218 -0.719481 0
M  V30 24176 C 2314.47 -1.3849 -1.4815 0
M  V30 24177 C 2314.81 0.0141526 -1.94195 0
M  V30 24178 O 2314.08 0.982067 -1.67886 0
M  V30 24179 C 2314.36 -2.37096 -2.71031 0
M  V30 24180 C 2314.22 -3.86009 -2.30905 0
M  V30 24181 C 2315.54 -2.33295 -3.73178 0
M  V30 24182 H 2312.65 -0.504366 -0.537386 0
M  V30 24183 H 2315.3 -1.71325 -0.821442 0
M  V30 24184 H 2313.45 -2.09226 -3.27348 0
M  V30 24185 H 2315.12 -4.2469 -1.80099 0
M  V30 24186 H 2313.36 -4.02031 -1.62951 0
M  V30 24187 H 2314.03 -4.50513 -3.1897 0
M  V30 24188 H 2316.51 -2.57972 -3.26481 0
M  V30 24189 H 2315.38 -3.04342 -4.56801 0
M  V30 24190 H 2315.65 -1.34324 -4.212 0
M  V30 24191 N 2314.7 0.951297 -1.25651 0
M  V30 24192 C 2315.95 1.69882 -1.1076 0
M  V30 24193 C 2316.28 1.91019 0.350028 0
M  V30 24194 O 2315.56 1.48356 1.2578 0
M  V30 24195 C 2315.84 3.07975 -1.86611 0
M  V30 24196 C 2315.69 2.94226 -3.40222 0
M  V30 24197 C 2317.01 4.07922 -1.65189 0
M  V30 24198 H 2314.13 0.616566 -0.403751 0
M  V30 24199 H 2316.77 1.10556 -1.54523 0
M  V30 24200 H 2314.92 3.58619 -1.49415 0
M  V30 24201 H 2316.6 2.50882 -3.87112 0
M  V30 24202 H 2314.84 2.30071 -3.67763 0
M  V30 24203 H 2315.51 3.92126 -3.88512 0
M  V30 24204 H 2317.99 3.66201 -1.97576 0
M  V30 24205 H 2316.86 5.02579 -2.20692 0
M  V30 24206 H 2317.12 4.38091 -0.59401 0
M  V30 24207 N 2316.18 1.07291 1.1544 0
M  V30 24208 C 2317.11 0.714146 2.22311 0
M  V30 24209 C 2318.09 -0.298126 1.67467 0
M  V30 24210 O 2319.28 -0.171014 1.93446 0
M  V30 24211 C 2316.41 0.110509 3.47124 0
M  V30 24212 C 2315.36 1.04987 4.14924 0
M  V30 24213 C 2314.69 0.309018 5.33806 0
M  V30 24214 C 2315.99 2.38322 4.64758 0
M  V30 24215 H 2317.68 1.60765 2.52577 0
M  V30 24216 H 2315.23 0.774431 1.21402 0
M  V30 24217 H 2317.18 -0.152408 4.21124 0
M  V30 24218 H 2315.91 -0.818065 3.16189 0
M  V30 24219 H 2314.56 1.2977 3.42864 0
M  V30 24220 H 2314.21 -0.622997 4.99127 0
M  V30 24221 H 2313.91 0.935138 5.80111 0
M  V30 24222 H 2315.44 0.0538844 6.10576 0
M  V30 24223 H 2316.85 2.17869 5.30289 0
M  V30 24224 H 2315.25 2.96523 5.21722 0
M  V30 24225 H 2316.32 3.00669 3.80429 0
M  V30 24226 N 2317.66 -1.32267 0.856927 0
M  V30 24227 C 2319.07 -1.79435 0.515743 0
M  V30 24228 C 2319.42 -1.7074 -0.966556 0
M  V30 24229 O 2318.55 -1.26734 -1.75407 0
M  V30 24230 C 2319.14 -3.25803 0.929392 0
M  V30 24231 C 2317.7 -3.70918 0.640071 0
M  V30 24232 C 2316.85 -2.53326 1.12789 0
M  V30 24233 H 2319.8 -1.19533 1.04391 0
M  V30 24234 H 2319.82 -3.79699 0.2467 0
M  V30 24235 H 2319.33 -3.321 2.00827 0
M  V30 24236 H 2317.43 -3.70134 -0.427986 0
M  V30 24237 H 2317.55 -4.63622 1.20796 0
M  V30 24238 H 2315.91 -2.48733 0.548076 0
M  V30 24239 H 2316.69 -2.62375 2.21391 0
M  V30 24240 N 2319.14 -0.615084 -1.45102 0
M  V30 24241 C 2320.55 -0.27935 -1.57136 0
M  V30 24242 C 2320.75 1.21795 -1.60525 0
M  V30 24243 O 2319.81 2.00132 -1.5396 0
M  V30 24244 C 2321.12 -0.957134 -2.8506 0
M  V30 24245 C 2322.67 -0.933758 -2.98747 0
M  V30 24246 C 2323.15 -1.5917 -4.29452 0
M  V30 24247 N 2324.64 -1.55753 -4.36228 0
M  V30 24248 C 2325.37 -2.0357 -5.36048 0
M  V30 24249 N 2324.87 -2.59505 -6.42362 0
M  V30 24250 N 2326.66 -1.94293 -5.27453 0
M  V30 24251 H 2318.81 -1.58719 -1.41145 0
M  V30 24252 H 2321.08 -0.665318 -0.67532 0
M  V30 24253 H 2320.78 -2.01171 -2.88484 0
M  V30 24254 H 2320.66 -0.485006 -3.74069 0
M  V30 24255 H 2323.04 0.112295 -2.94886 0
M  V30 24256 H 2323.12 -1.44422 -2.1113 0
M  V30 24257 H 2322.77 -2.63712 -4.34072 0
M  V30 24258 H 2322.7 -1.05619 -5.15899 0
M  V30 24259 H 2325.19 -1.14899 -3.60009 0
M  V30 24260 H 2325.5 -2.93765 -7.14788 0
M  V30 24261 H 2323.85 -2.63548 -6.43092 0
M  V30 24262 H 2327.04 -1.50328 -4.43305 0
M  V30 24263 H 2327.21 -2.31871 -6.05095 0
M  V30 24264 N 2320.62 1.53557 -0.354678 0
M  V30 24265 C 2321.57 2.22151 0.51314 0
M  V30 24266 C 2322.55 1.21283 1.05732 0
M  V30 24267 O 2323.74 1.4678 0.989176 0
M  V30 24268 C 2320.87 3.00612 1.65792 0
M  V30 24269 C 2319.96 4.08847 1.12714 0
M  V30 24270 N 2320.35 5.04796 0.318474 0
M  V30 24271 C 2318.65 4.23358 1.40299 0
M  V30 24272 C 2319.35 5.81693 0.0291202 0
M  V30 24273 N 2318.32 5.40009 0.623796 0
M  V30 24274 H 2322.13 2.93688 -0.111637 0
M  V30 24275 H 2319.64 1.61589 -0.16212 0
M  V30 24276 H 2321.64 3.48262 2.2917 0
M  V30 24277 H 2320.3 2.30604 2.28587 0
M  V30 24278 H 2321.31 5.17883 -0.0414001 0
M  V30 24279 H 2317.99 3.64573 2.03452 0
M  V30 24280 H 2319.38 6.68997 -0.623926 0
M  V30 24281 N 2322.1 0.083568 1.57378 0
M  V30 24282 C 2323.06 -0.864922 2.12254 0
M  V30 24283 C 2324.06 -1.21856 1.04918 0
M  V30 24284 O 2325.25 -1.14989 1.30855 0
M  V30 24285 C 2322.38 -2.16456 2.63362 0
M  V30 24286 H 2323.57 -0.388623 2.97371 0
M  V30 24287 H 2321.13 -0.16529 1.55424 0
M  V30 24288 H 2321.86 -2.68596 1.81732 0
M  V30 24289 H 2321.65 -1.92081 3.41829 0
M  V30 24290 H 2323.14 -2.84331 3.05852 0
M  V30 24291 N 2323.57 -1.5645 -0.190064 0
M  V30 24292 C 2324.51 -1.90014 -1.26372 0
M  V30 24293 C 2325.48 -0.760791 -1.43704 0
M  V30 24294 O 2326.67 -1.01229 -1.59013 0
M  V30 24295 C 2323.8 -2.13473 -2.62958 0
M  V30 24296 C 2322.84 -3.36174 -2.62468 0
M  V30 24297 S 2323.67 -4.91141 -2.13403 0
M  V30 24298 C 2324.83 -5.17673 -3.51803 0
M  V30 24299 H 2325.06 -2.80784 -0.977131 0
M  V30 24300 H 2322.6 -1.49294 -0.393788 0
M  V30 24301 H 2324.55 -2.2767 -3.41579 0
M  V30 24302 H 2323.22 -1.23444 -2.88826 0
M  V30 24303 H 2322.41 -3.4973 -3.62912 0
M  V30 24304 H 2322.01 -3.20996 -1.91932 0
M  V30 24305 H 2324.3 -5.08502 -4.47697 0
M  V30 24306 H 2325.25 -6.19405 -3.43138 0
M  V30 24307 H 2325.65 -4.45294 -3.46948 0
M  V30 24308 N 2325.05 0.45796 -1.50799 0
M  V30 24309 C 2326.46 1.03847 -1.55154 0
M  V30 24310 C 2326.81 1.92817 -0.362753 0
M  V30 24311 O 2325.94 2.09988 0.522878 0
M  V30 24312 C 2326.53 1.89012 -2.81176 0
M  V30 24313 C 2325.09 2.42149 -2.88168 0
M  V30 24314 C 2324.24 1.20825 -2.49593 0
M  V30 24315 H 2327.19 0.240041 -1.56874 0
M  V30 24316 H 2327.21 2.74233 -2.63774 0
M  V30 24317 H 2326.72 1.24232 -3.67679 0
M  V30 24318 H 2324.82 3.10444 -2.06047 0
M  V30 24319 H 2324.94 2.76357 -3.91361 0
M  V30 24320 H 2323.3 1.54716 -2.02324 0
M  V30 24321 H 2324.08 0.576868 -3.38419 0
M  V30 24322 N 2326.53 1.40598 0.712035 0
M  V30 24323 C 2327.78 1.38793 1.46904 0
M  V30 24324 C 2328.1 -0.00776963 1.94998 0
M  V30 24325 O 2327.37 -0.963144 1.70588 0
M  V30 24326 H 2325.95 0.51083 0.545034 0
M  V30 24327 H 2328.61 1.75685 0.843851 0
M  V30 24328 H 2327.71 2.06501 2.34017 0
M  V30 24329 N 2328.01 -0.94462 1.26153 0
M  V30 24330 C 2328.95 -2.04283 1.07411 0
M  V30 24331 C 2329.92 -1.66088 -0.0198121 0
M  V30 24332 O 2331.11 -1.90291 0.139297 0
M  V30 24333 C 2328.25 -3.37728 0.709509 0
M  V30 24334 C 2327.36 -3.8898 1.87933 0
M  V30 24335 C 2326.5 -5.10795 1.45816 0
M  V30 24336 C 2325.54 -5.543 2.59649 0
M  V30 24337 N 2324.67 -6.67321 2.18238 0
M  V30 24338 H 2329.51 -2.19647 2.01393 0
M  V30 24339 H 2327.05 -1.07624 1.00277 0
M  V30 24340 H 2329.01 -4.14441 0.479021 0
M  V30 24341 H 2327.64 -3.22221 -0.193332 0
M  V30 24342 H 2326.69 -3.08697 2.22285 0
M  V30 24343 H 2328 -4.17208 2.73384 0
M  V30 24344 H 2327.16 -5.94957 1.18791 0
M  V30 24345 H 2325.9 -4.84304 0.5745 0
M  V30 24346 H 2324.9 -4.68697 2.87407 0
M  V30 24347 H 2326.13 -5.82794 3.48609 0
M  V30 24348 H 2324.07 -6.4252 1.32301 0
M  V30 24349 H 2323.99 -6.95118 2.97233 0
M  V30 24350 H 2325.26 -7.54866 1.94416 0
M  V30 24351 N 2329.49 -1.07901 -1.1487 0
M  V30 24352 C 2330.71 -0.826863 -1.89659 0
M  V30 24353 C 2331.13 0.620488 -1.78313 0
M  V30 24354 O 2330.49 1.42602 -1.1389 0
M  V30 24355 C 2330.54 -1.23322 -3.39815 0
M  V30 24356 O 2330.26 -2.62379 -3.50841 0
M  V30 24357 C 2331.76 -1.01118 -4.31613 0
M  V30 24358 H 2328.98 -0.298567 -0.600915 0
M  V30 24359 H 2331.52 -1.43694 -1.45507 0
M  V30 24360 H 2329.68 -0.667353 -3.81609 0
M  V30 24361 H 2330.09 -2.79108 -4.44071 0
M  V30 24362 H 2331.57 -1.34495 -5.35364 0
M  V30 24363 H 2332.04 0.0521396 -4.39169 0
M  V30 24364 H 2332.65 -1.56222 -3.95569 0
M  V30 24365 N 2330.96 1.31811 -0.863929 0
M  V30 24366 C 2332.21 1.96194 -0.468045 0
M  V30 24367 C 2332.53 1.69079 0.983444 0
M  V30 24368 O 2333.73 2.27276 1.48519 0
M  V30 24369 C 2332.19 3.51211 -0.786057 0
M  V30 24370 C 2331.8 3.87174 -2.2539 0
M  V30 24371 C 2333.54 4.22018 -0.458348 0
M  V30 24372 C 2331.45 5.35275 -2.51464 0
M  V30 24373 H 2330.38 0.734284 -0.171296 0
M  V30 24374 H 2333.03 1.5007 -1.056 0
M  V30 24375 H 2331.41 3.95795 -0.127429 0
M  V30 24376 H 2332.58 3.53569 -2.95509 0
M  V30 24377 H 2330.9 3.29416 -2.54704 0
M  V30 24378 H 2333.5 5.3097 -0.630463 0
M  V30 24379 H 2333.84 4.11942 0.600762 0
M  V30 24380 H 2334.37 3.83048 -1.07326 0
M  V30 24381 H 2331.11 5.50381 -3.56035 0
M  V30 24382 H 2330.63 5.70253 -1.85933 0
M  V30 24383 H 2332.31 6.02468 -2.35885 0
M  V30 24384 N 2332.44 0.62277 1.44773 0
M  V30 24385 C 2333.35 -0.0885619 2.34433 0
M  V30 24386 C 2334.37 -0.844502 1.52132 0
M  V30 24387 O 2335.54 -0.798658 1.84888 0
M  V30 24388 C 2332.61 -1.06344 3.29987 0
M  V30 24389 C 2331.67 -0.307798 4.28195 0
M  V30 24390 C 2330.9 -1.23624 5.19185 0
M  V30 24391 O 2331.13 -2.47467 5.13922 0
M  V30 24392 O 2330.06 -0.725084 5.97517 0
M  V30 24393 H 2333.89 0.648651 2.96692 0
M  V30 24394 H 2331.47 0.382982 1.44408 0
M  V30 24395 H 2333.35 -1.62453 3.88828 0
M  V30 24396 H 2332.03 -1.78142 2.70272 0
M  V30 24397 H 2330.93 0.29613 3.72926 0
M  V30 24398 H 2332.27 0.369986 4.90807 0
M  V30 24399 N 2333.92 -1.53367 0.362817 0
M  V30 24400 C 2334.85 -2.21997 -0.528468 0
M  V30 24401 C 2335.83 -1.21089 -1.08518 0
M  V30 24402 O 2337.01 -1.49982 -1.14183 0
M  V30 24403 C 2334.14 -2.91252 -1.72888 0
M  V30 24404 C 2333.19 -4.06209 -1.29987 0
M  V30 24405 S 2334.02 -5.34639 -0.303481 0
M  V30 24406 C 2335.18 -6.07405 -1.51028 0
M  V30 24407 H 2335.41 -2.9725 0.0543945 0
M  V30 24408 H 2332.94 -1.53699 0.146916 0
M  V30 24409 H 2334.9 -3.31767 -2.41745 0
M  V30 24410 H 2333.56 -2.15728 -2.28299 0
M  V30 24411 H 2332.75 -4.53671 -2.19542 0
M  V30 24412 H 2332.36 -3.6757 -0.690543 0
M  V30 24413 H 2334.65 -6.31969 -2.44175 0
M  V30 24414 H 2335.59 -6.9986 -1.07709 0
M  V30 24415 H 2336 -5.37815 -1.71508 0
M  V30 24416 N 2335.4 -0.091913 -1.57332 0
M  V30 24417 C 2336.35 0.885709 -2.15077 0
M  V30 24418 C 2337.34 1.29439 -1.09279 0
M  V30 24419 O 2338.55 1.26929 -1.27629 0
M  V30 24420 H 2334.92 0.303644 -0.687971 0
M  V30 24421 H 2336.89 0.373943 -2.96048 0
M  V30 24422 C 2335.64 2.13633 -2.74329 0
M  V30 24423 H 2334.96 1.83074 -3.55421 0
M  V30 24424 H 2336.4 2.80104 -3.18305 0
M  V30 24425 C 2334.86 2.90824 -1.70067 0
M  V30 24426 O 2335.39 3.85252 -1.13769 0
M  V30 24427 N 2333.6 2.54305 -1.40633 0
M  V30 24428 H 2333.15 1.77587 -1.86603 0
M  V30 24429 H 2333.1 3.06253 -0.711096 0
M  V30 24430 N 2336.88 1.56548 0.181765 0
M  V30 24431 C 2338.12 1.81039 0.898288 0
M  V30 24432 C 2338.45 0.667196 1.83231 0
M  V30 24433 O 2337.72 -0.31364 1.93373 0
M  V30 24434 H 2336.3 0.667822 0.334698 0
M  V30 24435 H 2338.96 1.94029 0.184081 0
M  V30 24436 H 2338.05 2.74699 1.48145 0
M  V30 24437 N 2338.35 -0.449957 1.5104 0
M  V30 24438 C 2339.3 -1.5452 1.71441 0
M  V30 24439 C 2340.27 -1.56521 0.555899 0
M  V30 24440 O 2341.46 -1.73727 0.788902 0
M  V30 24441 C 2338.6 -2.9234 1.83389 0
M  V30 24442 C 2337.71 -2.99965 3.10878 0
M  V30 24443 C 2336.84 -4.28829 3.13495 0
M  V30 24444 C 2335.88 -4.30274 4.35351 0
M  V30 24445 N 2335.02 -5.50643 4.35588 0
M  V30 24446 H 2339.86 -1.36428 2.64936 0
M  V30 24447 H 2337.4 -0.662959 1.31314 0
M  V30 24448 H 2339.36 -3.7229 1.88298 0
M  V30 24449 H 2337.99 -3.09018 0.93314 0
M  V30 24450 H 2337.04 -2.12755 3.1534 0
M  V30 24451 H 2338.35 -2.96893 4.00819 0
M  V30 24452 H 2337.5 -5.17143 3.1725 0
M  V30 24453 H 2336.24 -4.34539 2.21421 0
M  V30 24454 H 2335.25 -3.40354 4.31786 0
M  V30 24455 H 2336.47 -4.26239 5.28675 0
M  V30 24456 H 2334.42 -5.57098 3.46378 0
M  V30 24457 H 2334.34 -5.494 5.19323 0
M  V30 24458 H 2335.6 -6.41024 4.43518 0
M  V30 24459 N 2339.83 -1.40974 -0.704569 0
M  V30 24460 C 2341.11 -1.3034 -1.45845 0
M  V30 24461 C 2341.49 0.0731973 -2.10973 0
M  V30 24462 O 2340.84 1.08682 -2.00999 0
M  V30 24463 C 2341.05 -2.45027 -2.48521 0
M  V30 24464 C 2342.4 -2.85775 -3.14035 0
M  V30 24465 O 2343.42 -2.44701 -2.58844 0
M  V30 24466 O 2342.28 -3.56773 -4.13975 0
M  V30 24467 H 2339.37 -0.512465 -0.649083 0
M  V30 24468 H 2341.92 -1.52918 -0.735809 0
M  V30 24469 H 2340.69 -3.36926 -1.98988 0
M  V30 24470 H 2340.31 -2.24278 -3.28306 0
M  V30 24471 N 2341.31 0.937917 -1.26653 0
M  V30 24472 C 2342.56 1.67895 -1.11778 0
M  V30 24473 C 2342.87 1.92659 0.337906 0
M  V30 24474 O 2344.08 2.64619 0.607387 0
M  V30 24475 C 2342.53 3.02343 -1.95235 0
M  V30 24476 C 2342.14 2.85314 -3.45398 0
M  V30 24477 C 2343.89 3.80115 -1.88979 0
M  V30 24478 C 2341.79 4.15255 -4.2109 0
M  V30 24479 H 2340.72 0.62971 -0.414707 0
M  V30 24480 H 2343.37 1.0428 -1.5099 0
M  V30 24481 H 2341.76 3.66956 -1.48859 0
M  V30 24482 H 2342.93 2.2953 -3.99565 0
M  V30 24483 H 2341.25 2.20982 -3.52925 0
M  V30 24484 H 2343.84 4.76388 -2.42814 0
M  V30 24485 H 2344.19 4.07295 -0.861202 0
M  V30 24486 H 2344.72 3.22281 -2.33195 0
M  V30 24487 H 2341.46 3.93258 -5.24431 0
M  V30 24488 H 2340.98 4.70741 -3.71703 0
M  V30 24489 H 2342.66 4.83689 -4.29714 0
M  V30 24490 N 2342.79 1.08509 1.14296 0
M  V30 24491 C 2343.7 0.727792 2.23025 0
M  V30 24492 C 2344.71 -0.26616 1.71952 0
M  V30 24493 O 2345.89 -0.109846 2.011 0
M  V30 24494 C 2342.96 0.143602 3.46402 0
M  V30 24495 C 2342.02 1.1923 4.12411 0
M  V30 24496 C 2341.25 0.635892 5.29898 0
M  V30 24497 O 2341.47 -0.544293 5.67797 0
M  V30 24498 O 2340.41 1.38644 5.85714 0
M  V30 24499 H 2344.23 1.63485 2.55942 0
M  V30 24500 H 2341.82 0.858839 1.22247 0
M  V30 24501 H 2343.7 -0.17933 4.21018 0
M  V30 24502 H 2342.37 -0.736603 3.15208 0
M  V30 24503 H 2341.28 1.56778 3.39664 0
M  V30 24504 H 2342.61 2.04482 4.47714 0
M  V30 24505 N 2344.27 -1.31351 0.870907 0
M  V30 24506 C 2345.51 -1.96964 0.483022 0
M  V30 24507 C 2345.85 -1.68674 -0.962433 0
M  V30 24508 O 2345.12 -0.983739 -1.67788 0
M  V30 24509 C 2345.4 -3.52376 0.741814 0
M  V30 24510 C 2345.26 -3.90236 2.23687 0
M  V30 24511 C 2346.58 -4.39604 0.208915 0
M  V30 24512 H 2343.69 -0.715438 0.176967 0
M  V30 24513 H 2346.34 -1.55462 1.09232 0
M  V30 24514 H 2344.49 -3.87858 0.223217 0
M  V30 24515 H 2346.16 -3.64851 2.82279 0
M  V30 24516 H 2344.4 -3.38809 2.70907 0
M  V30 24517 H 2345.07 -4.986 2.36859 0
M  V30 24518 H 2347.55 -4.10951 0.652601 0
M  V30 24519 H 2346.42 -5.47295 0.419432 0
M  V30 24520 H 2346.69 -4.33065 -0.889199 0
M  V30 24521 N 2345.74 -0.630439 -1.44441 0
M  V30 24522 C 2346.67 0.0617672 -2.33418 0
M  V30 24523 C 2347.66 0.835515 -1.48166 0
M  V30 24524 O 2348.84 0.801533 -1.76887 0
M  V30 24525 C 2345.97 1.04443 -3.31223 0
M  V30 24526 C 2344.92 0.382361 -4.26289 0
M  V30 24527 C 2344.25 1.47488 -5.13957 0
M  V30 24528 C 2345.55 -0.710956 -5.17439 0
M  V30 24529 H 2347.24 -0.681236 -2.91547 0
M  V30 24530 H 2344.79 -0.329051 -1.4019 0
M  V30 24531 H 2346.74 1.53742 -3.92354 0
M  V30 24532 H 2345.47 1.81831 -2.71302 0
M  V30 24533 H 2344.13 -0.0899698 -3.6649 0
M  V30 24534 H 2343.77 2.23962 -4.50389 0
M  V30 24535 H 2343.47 1.03727 -5.78372 0
M  V30 24536 H 2345 1.96968 -5.77958 0
M  V30 24537 H 2346.41 -0.301097 -5.72509 0
M  V30 24538 H 2344.81 -1.07166 -5.90454 0
M  V30 24539 H 2345.88 -1.57837 -4.58493 0
M  V30 24540 N 2347.22 1.53172 -0.370945 0
M  V30 24541 C 2348.5 1.93675 0.27372 0
M  V30 24542 C 2348.88 1.30493 1.65936 0
M  V30 24543 O 2348.23 0.466039 2.23697 0
M  V30 24544 C 2348.44 3.47543 0.31854 0
M  V30 24545 C 2349.79 4.2094 0.556318 0
M  V30 24546 O 2350.81 3.53952 0.399525 0
M  V30 24547 O 2349.67 5.39658 0.862038 0
M  V30 24548 H 2346.76 0.810284 0.165434 0
M  V30 24549 H 2349.31 1.64315 -0.424119 0
M  V30 24550 H 2348.08 3.85817 -0.652755 0
M  V30 24551 H 2347.7 3.83153 1.06206 0
M  V30 24552 N 2348.7 0.100255 1.57281 0
M  V30 24553 C 2349.66 -0.842361 2.13159 0
M  V30 24554 C 2350.66 -1.20736 1.06205 0
M  V30 24555 O 2351.85 -1.13595 1.32068 0
M  V30 24556 C 2348.99 -2.13651 2.65643 0
M  V30 24557 H 2350.18 -0.357061 2.97767 0
M  V30 24558 H 2347.73 -0.148796 1.5559 0
M  V30 24559 H 2348.47 -2.66654 1.8457 0
M  V30 24560 H 2348.25 -1.88445 3.43847 0
M  V30 24561 H 2349.74 -2.81071 3.08851 0
M  V30 24562 N 2350.18 -1.56643 -0.17346 0
M  V30 24563 C 2351.41 -1.85736 -0.904749 0
M  V30 24564 C 2351.82 -0.683311 -1.7643 0
M  V30 24565 O 2351.16 0.356833 -1.80201 0
M  V30 24566 C 2351.22 -3.09214 -1.83377 0
M  V30 24567 C 2350.89 -4.42189 -1.15403 0
M  V30 24568 C 2351.88 -5.17288 -0.520518 0
M  V30 24569 C 2349.57 -4.88925 -1.15142 0
M  V30 24570 C 2351.56 -6.37311 0.106524 0
M  V30 24571 C 2349.25 -6.08879 -0.520557 0
M  V30 24572 C 2350.25 -6.82916 0.107316 0
M  V30 24573 O 2349.94 -8.00595 0.728243 0
M  V30 24574 H 2349.67 -0.620434 -0.268397 0
M  V30 24575 H 2352.22 -2.04618 -0.17906 0
M  V30 24576 H 2350.45 -2.86272 -2.59971 0
M  V30 24577 H 2352.14 -3.24772 -2.4347 0
M  V30 24578 H 2352.91 -4.82263 -0.514521 0
M  V30 24579 H 2348.79 -4.31239 -1.62954 0
M  V30 24580 H 2352.33 -6.95039 0.597203 0
M  V30 24581 H 2348.23 -6.43369 -0.524129 0
M  V30 24582 H 2348.99 -8.16093 0.627281 0
M  V30 24583 N 2351.66 0.44194 -1.51277 0
M  V30 24584 C 2352.93 1.2027 -1.54255 0
M  V30 24585 C 2353.31 2.08898 -0.304116 0
M  V30 24586 O 2352.66 2.17155 0.711046 0
M  V30 24587 C 2352.87 2.00854 -2.8541 0
M  V30 24588 C 2354.22 2.58053 -3.37185 0
M  V30 24589 O 2355.24 2.11069 -2.86929 0
M  V30 24590 O 2354.1 3.43733 -4.24864 0
M  V30 24591 H 2351.2 0.547317 -0.619978 0
M  V30 24592 H 2353.74 0.451385 -1.63587 0
M  V30 24593 H 2352.52 1.3573 -3.67006 0
M  V30 24594 H 2352.14 2.8306 -2.79218 0
M  V30 24595 N 2353.14 1.41345 0.697083 0
M  V30 24596 C 2354.07 1.45845 1.8235 0
M  V30 24597 C 2355.05 0.317276 1.67115 0
M  V30 24598 O 2356.23 0.528507 1.8687 0
M  V30 24599 C 2353.36 1.33843 3.20474 0
M  V30 24600 C 2352.32 2.45756 3.50411 0
M  V30 24601 C 2351.64 2.18821 4.87874 0
M  V30 24602 C 2352.94 3.88097 3.4954 0
M  V30 24603 H 2354.64 2.40116 1.78842 0
M  V30 24604 H 2352.18 1.15573 0.859007 0
M  V30 24605 H 2354.13 1.35603 3.98986 0
M  V30 24606 H 2352.86 0.360555 3.24604 0
M  V30 24607 H 2351.52 2.43276 2.74249 0
M  V30 24608 H 2351.17 1.1938 4.88628 0
M  V30 24609 H 2350.87 2.93812 5.0887 0
M  V30 24610 H 2352.39 2.22294 5.68698 0
M  V30 24611 H 2353.8 3.923 4.18059 0
M  V30 24612 H 2352.2 4.62758 3.82067 0
M  V30 24613 H 2353.27 4.16357 2.48545 0
M  V30 24614 N 2354.61 -0.931187 1.27148 0
M  V30 24615 C 2355.56 -2.05266 1.09402 0
M  V30 24616 C 2356.56 -1.6939 0.0180889 0
M  V30 24617 O 2357.76 -1.79142 0.175542 0
M  V30 24618 H 2354.14 -0.672262 0.336998 0
M  V30 24619 H 2356.11 -2.17382 2.0442 0
M  V30 24620 C 2354.86 -3.3942 0.754299 0
M  V30 24621 H 2354.18 -3.67508 1.57411 0
M  V30 24622 H 2355.62 -4.18673 0.669977 0
M  V30 24623 C 2354.08 -3.32526 -0.541138 0
M  V30 24624 O 2354.61 -3.69469 -1.57657 0
M  V30 24625 N 2352.81 -2.85624 -0.535467 0
M  V30 24626 H 2352.36 -2.55757 0.307556 0
M  V30 24627 H 2352.32 -2.81394 -1.40231 0
M  V30 24628 N 2356.09 -1.09114 -1.13719 0
M  V30 24629 C 2357.37 -0.737737 -1.81154 0
M  V30 24630 C 2357.75 0.777649 -1.96255 0
M  V30 24631 O 2357.1 1.69886 -1.5281 0
M  V30 24632 C 2357.31 -1.47305 -3.16389 0
M  V30 24633 C 2358.65 -1.63677 -3.91784 0
M  V30 24634 O 2359.68 -1.4353 -3.26003 0
M  V30 24635 O 2358.54 -1.96978 -5.09767 0
M  V30 24636 H 2355.63 -0.264644 -0.783513 0
M  V30 24637 H 2358.18 -1.19315 -1.20674 0
M  V30 24638 H 2356.95 -2.50503 -3.00606 0
M  V30 24639 H 2356.57 -1.0096 -3.84568 0
M  V30 24640 N 2357.57 1.30887 -0.877861 0
M  V30 24641 C 2358.52 2.28318 -0.337578 0
M  V30 24642 C 2359.49 1.56075 0.568319 0
M  V30 24643 O 2360.67 1.84179 0.498266 0
M  V30 24644 C 2357.81 3.42179 0.448082 0
M  V30 24645 C 2356.92 4.29255 -0.486225 0
M  V30 24646 C 2356.06 5.30269 0.314334 0
M  V30 24647 C 2355.1 6.08994 -0.615898 0
M  V30 24648 N 2354.24 7.01942 0.148897 0
M  V30 24649 H 2359.08 2.73917 -1.1736 0
M  V30 24650 H 2356.61 1.34744 -0.590117 0
M  V30 24651 H 2358.57 4.06942 0.919445 0
M  V30 24652 H 2357.2 2.97668 1.24874 0
M  V30 24653 H 2356.25 3.64863 -1.07606 0
M  V30 24654 H 2357.56 4.84171 -1.19918 0
M  V30 24655 H 2356.72 6.00746 0.847863 0
M  V30 24656 H 2355.46 4.76029 1.06054 0
M  V30 24657 H 2354.46 5.37399 -1.16112 0
M  V30 24658 H 2355.69 6.6532 -1.36108 0
M  V30 24659 H 2353.63 6.50101 0.87777 0
M  V30 24660 H 2353.55 7.54314 -0.504565 0
M  V30 24661 H 2354.82 7.76672 0.6634 0
M  V30 24662 N 2359.05 0.638091 1.44105 0
M  V30 24663 C 2360.28 0.152651 2.06336 0
M  V30 24664 C 2360.69 -1.1756 1.47733 0
M  V30 24665 O 2360.05 -1.72256 0.602836 0
M  V30 24666 C 2360.1 0.0392126 3.61479 0
M  V30 24667 O 2359.82 1.31495 4.179 0
M  V30 24668 C 2361.32 -0.474099 4.40758 0
M  V30 24669 H 2358.54 0.0828893 0.665861 0
M  V30 24670 H 2361.08 0.874463 1.8486 0
M  V30 24671 H 2359.24 -0.633075 3.82192 0
M  V30 24672 H 2359.65 1.1643 5.11414 0
M  V30 24673 H 2361.13 -0.502466 5.49708 0
M  V30 24674 H 2361.6 -1.50251 4.127 0
M  V30 24675 H 2362.21 0.165176 4.24979 0
M  V30 24676 N 2360.53 -1.52973 0.379063 0
M  V30 24677 C 2361.8 -1.93818 -0.263445 0
M  V30 24678 C 2362.18 -1.31371 -1.65242 0
M  V30 24679 O 2361.53 -0.477895 -2.23447 0
M  V30 24680 C 2361.74 -3.47707 -0.300105 0
M  V30 24681 C 2363.09 -4.21229 -0.533987 0
M  V30 24682 O 2364.11 -3.54159 -0.380748 0
M  V30 24683 O 2362.97 -5.40108 -0.833407 0
M  V30 24684 H 2360.07 -0.81115 -0.161134 0
M  V30 24685 H 2362.61 -1.64087 0.432827 0
M  V30 24686 H 2361.38 -3.85465 0.673206 0
M  V30 24687 H 2361.01 -3.83711 -1.04172 0
M  V30 24688 N 2362 -0.108595 -1.57225 0
M  V30 24689 C 2363.23 0.559919 -1.9918 0
M  V30 24690 C 2363.65 1.60882 -0.988051 0
M  V30 24691 O 2363 1.82488 0.0205192 0
M  V30 24692 C 2363.05 1.19546 -3.41161 0
M  V30 24693 O 2362.78 0.1885 -4.37694 0
M  V30 24694 C 2364.28 1.9483 -3.98191 0
M  V30 24695 H 2361.5 0.149076 -0.65423 0
M  V30 24696 H 2364.04 -0.191866 -2.03598 0
M  V30 24697 H 2362.2 1.89809 -3.37715 0
M  V30 24698 H 2362.61 0.648922 -5.2047 0
M  V30 24699 H 2364.08 2.34639 -4.99648 0
M  V30 24700 H 2364.56 2.81945 -3.36755 0
M  V30 24701 H 2365.17 1.29353 -4.05152 0
M  V30 24702 N 2363.48 1.56732 0.16515 0
M  V30 24703 C 2364.71 1.86844 0.90022 0
M  V30 24704 C 2365.13 0.695627 1.74765 0
M  V30 24705 O 2364.49 -0.355188 1.77787 0
M  V30 24706 C 2364.54 3.15416 1.74771 0
M  V30 24707 O 2363.64 2.98073 2.85002 0
M  V30 24708 H 2362.98 0.614396 0.251821 0
M  V30 24709 H 2365.51 2.03962 0.161433 0
M  V30 24710 H 2365.52 3.46978 2.1464 0
M  V30 24711 H 2364.2 4.00387 1.12529 0
M  V30 24712 H 2362.77 2.7788 2.48671 0
M  V30 24713 N 2364.96 -0.433911 1.51509 0
M  V30 24714 C 2365.89 -1.53426 1.76019 0
M  V30 24715 C 2366.87 -1.58781 0.610139 0
M  V30 24716 O 2368.06 -1.74453 0.853207 0
M  V30 24717 C 2365.19 -2.91476 1.88836 0
M  V30 24718 C 2364.14 -3.00981 3.04293 0
M  V30 24719 C 2363.47 -4.41044 3.02298 0
M  V30 24720 C 2364.77 -2.74746 4.44198 0
M  V30 24721 H 2366.46 -1.33167 2.68155 0
M  V30 24722 H 2364.01 -0.639191 1.29036 0
M  V30 24723 H 2365.96 -3.68417 2.04565 0
M  V30 24724 H 2364.68 -3.12975 0.93351 0
M  V30 24725 H 2363.34 -2.26481 2.88274 0
M  V30 24726 H 2362.99 -4.59515 2.04584 0
M  V30 24727 H 2362.69 -4.48333 3.7983 0
M  V30 24728 H 2364.21 -5.19954 3.20125 0
M  V30 24729 H 2365.63 -3.41418 4.6055 0
M  V30 24730 H 2364.03 -2.93441 5.23462 0
M  V30 24731 H 2365.1 -1.70331 4.53999 0
M  V30 24732 N 2366.44 -1.41713 -0.689577 0
M  V30 24733 C 2367.35 -1.46404 -1.83311 0
M  V30 24734 C 2368.36 -0.35408 -1.70359 0
M  V30 24735 O 2369.54 -0.602726 -1.9217 0
M  V30 24736 C 2366.61 -1.34988 -3.19342 0
M  V30 24737 C 2365.67 -2.5635 -3.44359 0
M  V30 24738 C 2364.9 -2.45469 -4.73899 0
M  V30 24739 O 2365.12 -1.48251 -5.50798 0
M  V30 24740 O 2364.06 -3.35336 -4.99833 0
M  V30 24741 H 2367.88 -2.42893 -1.8231 0
M  V30 24742 H 2365.47 -1.23316 -0.843417 0
M  V30 24743 H 2367.35 -1.30927 -4.00545 0
M  V30 24744 H 2366.02 -0.416176 -3.21013 0
M  V30 24745 H 2364.93 -2.65987 -2.63063 0
M  V30 24746 H 2366.26 -3.48569 -3.47506 0
M  V30 24747 N 2367.92 0.924431 -1.2764 0
M  V30 24748 C 2368.85 2.04242 -1.1317 0
M  V30 24749 C 2369.83 1.70069 -0.0322859 0
M  V30 24750 O 2371.01 1.9309 -0.207362 0
M  V30 24751 C 2368.14 3.38392 -0.781556 0
M  V30 24752 C 2367.1 3.86688 -1.83456 0
M  V30 24753 C 2366.42 5.17681 -1.33831 0
M  V30 24754 C 2367.72 4.0972 -3.23924 0
M  V30 24755 H 2369.42 2.16607 -2.06693 0
M  V30 24756 H 2366.96 1.0408 -0.995155 0
M  V30 24757 H 2368.92 4.16086 -0.66713 0
M  V30 24758 H 2367.64 3.2605 0.189381 0
M  V30 24759 H 2366.3 3.1119 -1.93794 0
M  V30 24760 H 2365.95 5.01733 -0.356738 0
M  V30 24761 H 2365.65 5.50965 -2.04234 0
M  V30 24762 H 2367.17 5.97941 -1.23689 0
M  V30 24763 H 2368.58 4.77973 -3.16567 0
M  V30 24764 H 2366.98 4.54317 -3.92067 0
M  V30 24765 H 2368.05 3.14901 -3.68735 0
M  V30 24766 N 2369.39 1.09715 1.13139 0
M  V30 24767 C 2370.62 0.856931 1.8832 0
M  V30 24768 C 2371.04 -0.592041 1.79277 0
M  V30 24769 O 2370.39 -1.40772 1.16145 0
M  V30 24770 C 2370.45 1.28712 3.3781 0
M  V30 24771 O 2370.17 2.67927 3.46622 0
M  V30 24772 C 2371.67 1.07972 4.2995 0
M  V30 24773 H 2368.89 0.30809 0.596089 0
M  V30 24774 H 2371.43 1.45991 1.43203 0
M  V30 24775 H 2369.59 0.727979 3.80499 0
M  V30 24776 H 2370 2.86138 4.39574 0
M  V30 24777 H 2371.47 1.42995 5.33157 0
M  V30 24778 H 2371.95 0.0177349 4.39196 0
M  V30 24779 H 2372.56 1.62495 3.93033 0
M  V30 24780 N 2370.87 -1.30419 0.88479 0
M  V30 24781 C 2372.12 -1.95425 0.499198 0
M  V30 24782 C 2372.43 -1.70622 -0.95642 0
M  V30 24783 O 2373.64 -2.2961 -1.44885 0
M  V30 24784 C 2372.1 -3.49916 0.841832 0
M  V30 24785 C 2371.7 -3.83539 2.31521 0
M  V30 24786 C 2373.45 -4.21236 0.52543 0
M  V30 24787 C 2371.36 -5.31207 2.59948 0
M  V30 24788 H 2370.29 -0.731466 0.182956 0
M  V30 24789 H 2372.94 -1.48371 1.07974 0
M  V30 24790 H 2371.32 -3.95542 0.19038 0
M  V30 24791 H 2372.49 -3.48823 3.01096 0
M  V30 24792 H 2370.81 -3.25322 2.59913 0
M  V30 24793 H 2373.4 -5.299 0.714856 0
M  V30 24794 H 2373.75 -4.12846 -0.535149 0
M  V30 24795 H 2374.28 -3.81292 1.13407 0
M  V30 24796 H 2371.02 -5.44647 3.64746 0
M  V30 24797 H 2370.54 -5.67223 1.94982 0
M  V30 24798 H 2372.22 -5.98639 2.4544 0
M  V30 24799 N 2372.35 -0.645724 -1.43764 0
M  V30 24800 C 2373.6 -0.156306 -2.02197 0
M  V30 24801 C 2373.93 1.22391 -1.50779 0
M  V30 24802 O 2373.2 1.81552 -0.697803 0
M  V30 24803 C 2373.49 -0.158935 -3.59749 0
M  V30 24804 C 2373.34 -1.57253 -4.21416 0
M  V30 24805 C 2374.66 0.508713 -4.3715 0
M  V30 24806 H 2371.78 -0.0582732 -0.734693 0
M  V30 24807 H 2374.42 -0.824981 -1.71155 0
M  V30 24808 H 2372.57 0.410457 -3.86326 0
M  V30 24809 H 2374.24 -2.19193 -4.05897 0
M  V30 24810 H 2372.49 -2.12207 -3.78353 0
M  V30 24811 H 2373.16 -1.52628 -5.3048 0
M  V30 24812 H 2375.63 0.0243389 -4.16093 0
M  V30 24813 H 2374.51 0.476117 -5.46831 0
M  V30 24814 H 2374.77 1.58158 -4.12842 0
M  V30 24815 N 2373.83 1.5277 -0.38717 0
M  V30 24816 C 2374.78 2.2639 0.449009 0
M  V30 24817 C 2375.75 1.27914 1.05958 0
M  V30 24818 O 2376.93 1.56739 1.08801 0
M  V30 24819 C 2374.07 3.07242 1.5715 0
M  V30 24820 C 2373.18 4.20644 0.983992 0
M  V30 24821 C 2372.32 4.88896 2.07736 0
M  V30 24822 C 2371.36 5.94294 1.46564 0
M  V30 24823 N 2370.49 6.5615 2.49822 0
M  V30 24824 H 2375.33 2.97424 -0.185257 0
M  V30 24825 H 2372.87 1.46738 -0.10319 0
M  V30 24826 H 2374.83 3.52409 2.23303 0
M  V30 24827 H 2373.46 2.38423 2.17611 0
M  V30 24828 H 2372.51 3.79808 0.212126 0
M  V30 24829 H 2373.82 4.96318 0.496942 0
M  V30 24830 H 2372.98 5.37355 2.81663 0
M  V30 24831 H 2371.72 4.12741 2.598 0
M  V30 24832 H 2370.72 5.45175 0.7116 0
M  V30 24833 H 2371.95 6.7238 0.95297 0
M  V30 24834 H 2369.89 5.82837 3.0106 0
M  V30 24835 H 2369.81 7.2743 2.05866 0
M  V30 24836 H 2371.08 7.09254 3.23386 0
M  V30 24837 N 2375.31 0.116931 1.57166 0
M  V30 24838 C 2376.24 -0.83072 2.18223 0
M  V30 24839 C 2377.22 -1.27875 1.12169 0
M  V30 24840 O 2378.4 -1.34173 1.40396 0
M  V30 24841 C 2375.53 -2.08168 2.77999 0
M  V30 24842 C 2374.49 -1.7715 3.89618 0
M  V30 24843 C 2373.81 -3.09258 4.36192 0
M  V30 24844 C 2375.11 -1.04142 5.11812 0
M  V30 24845 H 2376.81 -0.32194 2.97664 0
M  V30 24846 H 2374.35 -0.153409 1.43181 0
M  V30 24847 H 2376.31 -2.74918 3.19371 0
M  V30 24848 H 2375.03 -2.61366 1.95845 0
M  V30 24849 H 2373.69 -1.1279 3.48818 0
M  V30 24850 H 2373.34 -3.60387 3.50899 0
M  V30 24851 H 2373.04 -2.89279 5.1146 0
M  V30 24852 H 2374.56 -3.7713 4.80214 0
M  V30 24853 H 2375.97 -1.61043 5.50216 0
M  V30 24854 H 2374.37 -0.942657 5.9265 0
M  V30 24855 H 2375.44 -0.027817 4.84892 0
M  V30 24856 N 2376.78 -1.56818 -0.156836 0
M  V30 24857 C 2377.73 -1.97521 -1.1939 0
M  V30 24858 C 2378.7 -0.84129 -1.43218 0
M  V30 24859 O 2379.89 -1.10258 -1.55717 0
M  V30 24860 C 2377.03 -2.35263 -2.52479 0
M  V30 24861 C 2376.14 -3.619 -2.35907 0
M  V30 24862 C 2375.27 -3.88789 -3.61962 0
M  V30 24863 C 2374.31 -5.08728 -3.40386 0
M  V30 24864 N 2373.45 -5.31676 -4.58547 0
M  V30 24865 H 2378.29 -2.85922 -0.839795 0
M  V30 24866 H 2375.83 -1.41465 -0.403239 0
M  V30 24867 H 2377.79 -2.55171 -3.30066 0
M  V30 24868 H 2376.42 -1.49954 -2.85856 0
M  V30 24869 H 2375.47 -3.49824 -1.49423 0
M  V30 24870 H 2376.78 -4.49645 -2.15918 0
M  V30 24871 H 2375.93 -4.09142 -4.47981 0
M  V30 24872 H 2374.67 -2.99447 -3.84945 0
M  V30 24873 H 2373.68 -4.88257 -2.52754 0
M  V30 24874 H 2374.9 -5.99613 -3.18811 0
M  V30 24875 H 2372.85 -4.45287 -4.81721 0
M  V30 24876 H 2372.77 -6.13671 -4.41524 0
M  V30 24877 H 2374.03 -5.5652 -5.45807 0
M  V30 24878 N 2378.26 0.425871 -1.51737 0
M  V30 24879 C 2379.2 1.53809 -1.68576 0
M  V30 24880 C 2380.17 1.53605 -0.533307 0
M  V30 24881 O 2381.36 1.72562 -0.758585 0
M  V30 24882 C 2378.48 2.92374 -1.70982 0
M  V30 24883 C 2377.53 3.10557 -2.92329 0
M  V30 24884 S 2378.36 2.8564 -4.52957 0
M  V30 24885 C 2379.52 4.26465 -4.58124 0
M  V30 24886 H 2379.75 1.39293 -2.62649 0
M  V30 24887 H 2377.29 0.616336 -1.41565 0
M  V30 24888 H 2379.24 3.7224 -1.73053 0
M  V30 24889 H 2377.9 3.04244 -0.780663 0
M  V30 24890 H 2377.1 4.11894 -2.90446 0
M  V30 24891 H 2376.7 2.38533 -2.88059 0
M  V30 24892 H 2378.99 5.19847 -4.34471 0
M  V30 24893 H 2379.93 4.33378 -5.5999 0
M  V30 24894 H 2380.34 4.10656 -3.87327 0
M  V30 24895 N 2379.74 1.42077 0.682052 0
M  V30 24896 C 2380.69 1.45211 1.81705 0
M  V30 24897 C 2381.68 0.32862 1.66182 0
M  V30 24898 O 2382.89 0.501294 1.72879 0
M  V30 24899 H 2379.26 0.454638 0.599006 0
M  V30 24900 H 2381.23 2.4084 1.76179 0
M  V30 24901 C 2379.98 1.36434 3.19814 0
M  V30 24902 H 2379.31 2.22177 3.32382 0
M  V30 24903 H 2380.75 1.42688 3.99269 0
M  V30 24904 C 2379.21 0.0782502 3.36809 0
M  V30 24905 O 2379.74 -0.871811 3.92125 0
M  V30 24906 N 2377.94 -0.00224158 2.906 0
M  V30 24907 H 2377.49 0.77166 2.45771 0
M  V30 24908 H 2377.45 -0.862126 3.02349 0
M  V30 24909 N 2381.22 -0.917649 1.28129 0
M  V30 24910 C 2382.13 -2.05284 1.1356 0
M  V30 24911 C 2383.15 -1.73885 0.063122 0
M  V30 24912 O 2384.32 -1.9956 0.271634 0
M  V30 24913 C 2381.39 -3.37468 0.794735 0
M  V30 24914 C 2380.45 -3.825 1.94916 0
M  V30 24915 C 2379.68 -5.08377 1.62446 0
M  V30 24916 O 2379.9 -5.67867 0.537005 0
M  V30 24917 O 2378.84 -5.49026 2.46686 0
M  V30 24918 H 2382.66 -2.20491 2.08848 0
M  V30 24919 H 2380.25 -1.03843 1.07411 0
M  V30 24920 H 2382.13 -4.16838 0.618417 0
M  V30 24921 H 2380.81 -3.23445 -0.128524 0
M  V30 24922 H 2379.71 -3.03974 2.1806 0
M  V30 24923 H 2381.05 -4.01081 2.85298 0
M  V30 24924 N 2382.7 -1.10314 -1.12555 0
M  V30 24925 C 2383.64 -0.750819 -2.18246 0
M  V30 24926 C 2384.61 0.272264 -1.63853 0
M  V30 24927 O 2385.8 0.151828 -1.90195 0
M  V30 24928 C 2382.94 -0.18744 -3.44591 0
M  V30 24929 C 2382.05 -1.26567 -4.13043 0
M  V30 24930 C 2381.19 -0.664071 -5.27033 0
M  V30 24931 C 2380.23 -1.72297 -5.8735 0
M  V30 24932 N 2379.36 -1.14173 -6.92755 0
M  V30 24933 H 2384.2 -1.65632 -2.47729 0
M  V30 24934 H 2381.74 -0.827358 -1.21627 0
M  V30 24935 H 2383.7 0.157075 -4.16904 0
M  V30 24936 H 2382.33 0.6813 -3.15528 0
M  V30 24937 H 2381.38 -1.72733 -3.38921 0
M  V30 24938 H 2382.69 -2.06729 -4.53943 0
M  V30 24939 H 2381.85 -0.26893 -6.06104 0
M  V30 24940 H 2380.59 0.168997 -4.87407 0
M  V30 24941 H 2379.59 -2.12755 -5.06967 0
M  V30 24942 H 2380.82 -2.55886 -6.29046 0
M  V30 24943 H 2378.76 -0.330099 -6.55169 0
M  V30 24944 H 2378.68 -1.8802 -7.32246 0
M  V30 24945 H 2379.95 -0.773092 -7.75657 0
M  V30 24946 N 2384.18 1.29948 -0.891694 0
M  V30 24947 C 2385.42 1.9588 -0.513535 0
M  V30 24948 C 2385.75 1.70353 0.938626 0
M  V30 24949 O 2385.01 1.00481 1.67935 0
M  V30 24950 C 2385.3 3.49593 -0.74293 0
M  V30 24951 C 2384.97 3.95183 -2.17121 0
M  V30 24952 C 2383.63 4.07342 -2.56176 0
M  V30 24953 C 2385.98 4.18861 -3.10169 0
M  V30 24954 C 2383.31 4.40543 -3.87477 0
M  V30 24955 C 2385.66 4.53534 -4.41009 0
M  V30 24956 C 2384.33 4.63902 -4.79949 0
M  V30 24957 H 2383.6 0.716777 -0.187916 0
M  V30 24958 H 2386.25 1.54692 -1.12883 0
M  V30 24959 H 2384.55 3.91775 -0.0446549 0
M  V30 24960 H 2386.25 3.9869 -0.429837 0
M  V30 24961 H 2382.84 3.8623 -1.85808 0
M  V30 24962 H 2387.02 4.08941 -2.81213 0
M  V30 24963 H 2382.28 4.46772 -4.17379 0
M  V30 24964 H 2386.45 4.70806 -5.13142 0
M  V30 24965 H 2384.08 4.89385 -5.81727 0
M  V30 24966 N 2385.65 0.653339 1.4342 0
M  V30 24967 C 2387.07 0.320914 1.5634 0
M  V30 24968 C 2387.27 -1.17496 1.63698 0
M  V30 24969 O 2386.33 -1.95979 1.59212 0
M  V30 24970 C 2387.64 1.03238 2.82423 0
M  V30 24971 C 2389.19 1.01264 2.96167 0
M  V30 24972 C 2389.66 1.705 4.25081 0
M  V30 24973 N 2391.15 1.67264 4.31945 0
M  V30 24974 C 2391.89 2.1771 5.30462 0
M  V30 24975 N 2391.38 2.76445 6.35256 0
M  V30 24976 N 2393.18 2.08209 5.22116 0
M  V30 24977 H 2385.33 1.62406 1.36887 0
M  V30 24978 H 2387.59 0.682989 0.657442 0
M  V30 24979 H 2387.3 2.08749 2.83049 0
M  V30 24980 H 2387.17 0.584013 3.72651 0
M  V30 24981 H 2389.56 -0.0340717 2.9508 0
M  V30 24982 H 2389.64 1.49969 2.07227 0
M  V30 24983 H 2389.28 2.75128 4.26928 0
M  V30 24984 H 2389.21 1.1926 5.12918 0
M  V30 24985 H 2391.7 1.24404 3.56836 0
M  V30 24986 H 2392.02 3.12613 7.06748 0
M  V30 24987 H 2390.36 2.80506 6.35879 0
M  V30 24988 H 2393.55 1.62028 4.39163 0
M  V30 24989 H 2393.73 2.47832 5.98735 0
M  V30 24990 N 2387.13 -1.52563 0.395266 0
M  V30 24991 C 2388.41 -1.94086 -0.242873 0
M  V30 24992 C 2388.79 -1.33116 -1.63839 0
M  V30 24993 O 2388.14 -0.501568 -2.22927 0
M  V30 24994 C 2388.35 -3.48006 -0.263209 0
M  V30 24995 C 2389.69 -4.21772 -0.48928 0
M  V30 24996 O 2390.72 -3.54543 -0.343163 0
M  V30 24997 O 2389.58 -5.40961 -0.776074 0
M  V30 24998 H 2386.67 -0.812814 -0.152522 0
M  V30 24999 H 2389.22 -1.63619 0.450206 0
M  V30 25000 H 2387.99 -3.8473 0.714052 0
M  V30 25001 H 2387.61 -3.84794 -1.00096 0
M  V30 25002 N 2388.61 -0.125265 -1.57101 0
M  V30 25003 C 2389.86 0.531061 -1.94583 0
M  V30 25004 C 2390.17 1.67429 -1.01129 0
M  V30 25005 O 2391.38 2.39379 -1.28101 0
M  V30 25006 C 2389.83 0.996103 -3.45841 0
M  V30 25007 C 2389.44 -0.119004 -4.47842 0
M  V30 25008 C 2391.19 1.62345 -3.9223 0
M  V30 25009 C 2389.09 0.363089 -5.90284 0
M  V30 25010 H 2388.02 0.202157 -0.726394 0
M  V30 25011 H 2390.67 -0.206124 -1.82339 0
M  V30 25012 H 2389.06 1.7879 -3.53342 0
M  V30 25013 H 2390.23 -0.895437 -4.52016 0
M  V30 25014 H 2388.54 -0.653396 -4.11242 0
M  V30 25015 H 2391.14 1.99539 -4.96073 0
M  V30 25016 H 2391.48 2.50423 -3.32557 0
M  V30 25017 H 2392.02 0.896951 -3.87556 0
M  V30 25018 H 2388.76 -0.481794 -6.53727 0
M  V30 25019 H 2388.28 1.10587 -5.89517 0
M  V30 25020 H 2389.96 0.822264 -6.41754 0
M  V30 25021 N 2390.09 1.56899 0.148518 0
M  V30 25022 C 2391.5 1.51529 0.501104 0
M  V30 25023 C 2391.7 0.833431 1.83456 0
M  V30 25024 O 2390.76 0.403324 2.49258 0
M  V30 25025 C 2392.07 2.96295 0.512812 0
M  V30 25026 C 2393.62 3.07226 0.598433 0
M  V30 25027 C 2394.1 4.53495 0.640818 0
M  V30 25028 N 2395.59 4.57833 0.703082 0
M  V30 25029 C 2396.32 5.68383 0.756835 0
M  V30 25030 N 2395.82 6.88507 0.770026 0
M  V30 25031 N 2397.61 5.56412 0.7976 0
M  V30 25032 H 2389.76 1.99623 -0.725567 0
M  V30 25033 H 2392.02 0.91039 -0.264374 0
M  V30 25034 H 2391.73 3.49432 -0.398753 0
M  V30 25035 H 2391.6 3.52166 1.35126 0
M  V30 25036 H 2393.99 2.54109 1.50042 0
M  V30 25037 H 2394.07 2.54401 -0.267137 0
M  V30 25038 H 2393.72 5.07249 -0.257004 0
M  V30 25039 H 2393.65 5.041 1.52286 0
M  V30 25040 H 2396.14 3.71356 0.700248 0
M  V30 25041 H 2396.45 7.68513 0.812848 0
M  V30 25042 H 2394.8 6.91071 0.737927 0
M  V30 25043 H 2397.99 4.6148 0.784454 0
M  V30 25044 H 2398.16 6.42584 0.836027 0
M  V30 25045 N 2391.57 -0.417818 1.51961 0
M  V30 25046 C 2392.53 -1.49108 1.74067 0
M  V30 25047 C 2393.53 -1.48757 0.610563 0
M  V30 25048 O 2394.72 -1.50435 0.878347 0
M  V30 25049 C 2391.85 -2.88562 1.81507 0
M  V30 25050 H 2393.04 -1.30803 2.69872 0
M  V30 25051 H 2390.6 -0.64776 1.42245 0
M  V30 25052 H 2391.33 -3.12248 0.875868 0
M  V30 25053 H 2391.12 -2.9022 2.63656 0
M  V30 25054 H 2392.61 -3.66383 2.00382 0
M  V30 25055 N 2393.04 -1.42436 -0.674508 0
M  V30 25056 C 2393.98 -1.40369 -1.79921 0
M  V30 25057 C 2394.95 -0.267927 -1.60377 0
M  V30 25058 O 2396.14 -0.458191 -1.82847 0
M  V30 25059 C 2393.27 -1.19484 -3.16925 0
M  V30 25060 C 2392.31 -2.36057 -3.55217 0
M  V30 25061 S 2393.14 -3.98589 -3.57613 0
M  V30 25062 C 2394.3 -3.80047 -4.97308 0
M  V30 25063 H 2394.53 -2.35544 -1.81401 0
M  V30 25064 H 2392.07 -1.29212 -0.845199 0
M  V30 25065 H 2394.02 -1.08121 -3.96005 0
M  V30 25066 H 2392.69 -0.258939 -3.13031 0
M  V30 25067 H 2391.88 -2.17193 -4.548 0
M  V30 25068 H 2391.48 -2.43937 -2.83498 0
M  V30 25069 H 2393.77 -3.41055 -5.85395 0
M  V30 25070 H 2394.72 -4.79307 -5.2122 0
M  V30 25071 H 2395.12 -3.12907 -4.6984 0
M  V30 25072 N 2394.52 0.910841 -1.28614 0
M  V30 25073 C 2395.77 1.66272 -1.16109 0
M  V30 25074 C 2396.1 1.92036 0.289079 0
M  V30 25075 O 2395.38 1.52283 1.20997 0
M  V30 25076 C 2395.66 3.01882 -1.96315 0
M  V30 25077 C 2395.51 2.83253 -3.4941 0
M  V30 25078 C 2396.83 4.0246 -1.78083 0
M  V30 25079 H 2393.95 0.603409 -0.423162 0
M  V30 25080 H 2396.59 1.05584 -1.57962 0
M  V30 25081 H 2394.74 3.53684 -1.60749 0
M  V30 25082 H 2396.41 2.38439 -3.94898 0
M  V30 25083 H 2394.66 2.18255 -3.74897 0
M  V30 25084 H 2395.33 3.79567 -4.0079 0
M  V30 25085 H 2397.8 3.5973 -2.09126 0
M  V30 25086 H 2396.68 4.95304 -2.3657 0
M  V30 25087 H 2396.94 4.3598 -0.733085 0
M  V30 25088 N 2396 1.10909 1.11969 0
M  V30 25089 C 2397.41 0.871475 1.65113 0
M  V30 25090 C 2397.76 -0.597321 1.86886 0
M  V30 25091 O 2396.89 -1.45813 1.59899 0
M  V30 25092 C 2397.48 1.57545 2.99942 0
M  V30 25093 C 2396.04 1.38441 3.50016 0
M  V30 25094 C 2395.19 1.62168 2.24938 0
M  V30 25095 H 2398.14 1.26612 0.956829 0
M  V30 25096 H 2398.16 1.01728 3.66649 0
M  V30 25097 H 2397.67 2.64443 2.84062 0
M  V30 25098 H 2395.77 0.337279 3.7107 0
M  V30 25099 H 2395.89 2.12972 4.29162 0
M  V30 25100 H 2394.25 1.04471 2.32288 0
M  V30 25101 H 2395.03 2.70328 2.11607 0
M  V30 25102 N 2397.48 -1.29474 0.898573 0
M  V30 25103 C 2398.76 -1.90507 0.44345 0
M  V30 25104 C 2399.14 -1.81571 -1.07682 0
M  V30 25105 O 2398.48 -1.2417 -1.91818 0
M  V30 25106 C 2398.69 -3.35629 0.956767 0
M  V30 25107 C 2400.04 -4.12661 0.9998 0
M  V30 25108 O 2401.07 -3.44528 0.904359 0
M  V30 25109 O 2399.92 -5.34414 1.14298 0
M  V30 25110 H 2397.02 -0.815398 0.138039 0
M  V30 25111 H 2399.56 -1.37947 0.988364 0
M  V30 25112 H 2398.34 -3.36283 2.00073 0
M  V30 25113 H 2397.96 -3.95665 0.391798 0
M  V30 25114 N 2398.96 -0.660936 -1.43071 0
M  V30 25115 C 2399.89 0.0647239 -2.29109 0
M  V30 25116 C 2400.9 0.779423 -1.4293 0
M  V30 25117 O 2402.09 0.635892 -1.66789 0
M  V30 25118 C 2399.19 1.11498 -3.20034 0
M  V30 25119 C 2398.36 0.476878 -4.34793 0
M  V30 25120 C 2397.42 1.42504 -5.06536 0
M  V30 25121 O 2396.45 0.930672 -5.6154 0
M  V30 25122 N 2397.65 2.7588 -5.10755 0
M  V30 25123 H 2400.42 -0.673782 -2.92028 0
M  V30 25124 H 2397.98 -0.504297 -1.53846 0
M  V30 25125 H 2399.97 1.75025 -3.64895 0
M  V30 25126 H 2398.54 1.75537 -2.58661 0
M  V30 25127 H 2397.76 -0.337641 -3.92751 0
M  V30 25128 H 2399.05 0.0317631 -5.0879 0
M  V30 25129 H 2398.44 3.18597 -4.67453 0
M  V30 25130 H 2397 3.3469 -5.59308 0
M  V30 25131 N 2400.43 1.52351 -0.403352 0
M  V30 25132 C 2401.68 2.00934 0.175632 0
M  V30 25133 C 2402 1.29359 1.46716 0
M  V30 25134 O 2403.2 1.68727 2.12705 0
M  V30 25135 C 2401.66 3.58059 0.363549 0
M  V30 25136 C 2401.27 4.38545 -0.915549 0
M  V30 25137 C 2403.01 4.1489 0.898137 0
M  V30 25138 C 2400.92 5.873 -0.695139 0
M  V30 25139 H 2399.85 0.750798 0.0694102 0
M  V30 25140 H 2402.5 1.75742 -0.52791 0
M  V30 25141 H 2400.88 3.79557 1.12928 0
M  V30 25142 H 2402.05 4.28809 -1.68698 0
M  V30 25143 H 2400.37 3.93004 -1.37612 0
M  V30 25144 H 2402.97 5.237 1.07898 0
M  V30 25145 H 2403.31 3.71876 1.8712 0
M  V30 25146 H 2403.84 3.97338 0.191612 0
M  V30 25147 H 2400.58 6.34663 -1.6396 0
M  V30 25148 H 2400.1 5.99789 0.0371062 0
M  V30 25149 H 2401.78 6.46132 -0.335084 0
M  V30 25150 N 2401.91 0.133594 1.57033 0
M  V30 25151 C 2403.14 -0.52816 2.00045 0
M  V30 25152 C 2403.56 -1.5929 1.01352 0
M  V30 25153 O 2402.91 -1.82498 0.00851577 0
M  V30 25154 C 2402.96 -1.14104 3.4302 0
M  V30 25155 O 2402.68 -0.118843 4.37939 0
M  V30 25156 C 2404.19 -1.8847 4.01241 0
M  V30 25157 H 2401.41 -0.138649 0.656519 0
M  V30 25158 H 2403.95 0.224232 2.03267 0
M  V30 25159 H 2402.1 -1.84412 3.40692 0
M  V30 25160 H 2402.52 -0.566038 5.21437 0
M  V30 25161 H 2403.99 -2.2666 5.03318 0
M  V30 25162 H 2404.47 -2.76552 3.41198 0
M  V30 25163 H 2405.08 -1.22891 4.07158 0
M  V30 25164 N 2403.39 -1.56975 -0.140195 0
M  V30 25165 C 2404.67 -1.74649 -0.880739 0
M  V30 25166 C 2405.05 -0.703439 -1.99035 0
M  V30 25167 O 2404.4 0.27644 -2.26822 0
M  V30 25168 C 2404.61 -3.18942 -1.41694 0
M  V30 25169 C 2405.95 -3.80826 -1.87767 0
M  V30 25170 O 2406.98 -3.22413 -1.51421 0
M  V30 25171 O 2405.84 -4.83456 -2.54819 0
M  V30 25172 H 2402.93 -0.714345 -0.416701 0
M  V30 25173 H 2405.48 -1.69235 -0.125588 0
M  V30 25174 H 2404.25 -3.8636 -0.619834 0
M  V30 25175 H 2403.87 -3.28809 -2.23541 0
M  V30 25176 N 2404.87 0.409753 -1.5218 0
M  V30 25177 C 2406.1 1.17679 -1.69809 0
M  V30 25178 C 2406.51 1.84772 -0.406941 0
M  V30 25179 O 2405.85 1.72675 0.626833 0
M  V30 25180 C 2405.91 2.28285 -2.77716 0
M  V30 25181 C 2405.58 1.81333 -4.19485 0
M  V30 25182 C 2406.57 1.30145 -5.03347 0
M  V30 25183 C 2404.26 1.88186 -4.65716 0
M  V30 25184 C 2406.25 0.864305 -6.31513 0
M  V30 25185 C 2403.94 1.44083 -5.93871 0
M  V30 25186 C 2404.94 0.932904 -6.76599 0
M  V30 25187 O 2404.62 0.498239 -8.02355 0
M  V30 25188 H 2404.36 0.359664 -0.572379 0
M  V30 25189 H 2406.91 0.488276 -1.99512 0
M  V30 25190 H 2405.14 3.00498 -2.43388 0
M  V30 25191 H 2406.83 2.90046 -2.83951 0
M  V30 25192 H 2407.6 1.24224 -4.68821 0
M  V30 25193 H 2403.47 2.26664 -4.01428 0
M  V30 25194 H 2407.02 0.467164 -6.96034 0
M  V30 25195 H 2402.92 1.49683 -6.27905 0
M  V30 25196 H 2403.68 0.621604 -8.16136 0
M  V30 25197 N 2406.35 1.42792 0.666944 0
M  V30 25198 C 2407.29 1.4713 1.80154 0
M  V30 25199 C 2408.29 0.346228 1.65824 0
M  V30 25200 O 2409.49 0.519602 1.72337 0
M  V30 25201 H 2405.87 0.460966 0.59415 0
M  V30 25202 H 2407.84 2.42695 1.73614 0
M  V30 25203 C 2406.59 1.39818 3.18349 0
M  V30 25204 H 2405.91 2.2569 3.30006 0
M  V30 25205 H 2407.35 1.46915 3.97734 0
M  V30 25206 C 2405.81 0.113969 3.36707 0
M  V30 25207 O 2406.34 -0.830172 3.93028 0
M  V30 25208 N 2404.55 0.0285805 2.90586 0
M  V30 25209 H 2404.09 0.797684 2.44938 0
M  V30 25210 H 2404.05 -0.830009 3.03246 0
M  V30 25211 N 2407.82 -0.904008 1.29095 0
M  V30 25212 C 2408.73 -2.04068 1.15731 0
M  V30 25213 C 2409.75 -1.73809 0.0815613 0
M  V30 25214 O 2410.93 -1.9926 0.292784 0
M  V30 25215 C 2407.99 -3.36606 0.830483 0
M  V30 25216 C 2407.05 -3.80411 1.98962 0
M  V30 25217 C 2406.29 -5.06625 1.67829 0
M  V30 25218 O 2406.51 -5.67265 0.597205 0
M  V30 25219 O 2405.44 -5.46379 2.52495 0
M  V30 25220 H 2409.27 -2.18264 2.11174 0
M  V30 25221 H 2406.85 -1.02698 1.08506 0
M  V30 25222 H 2408.74 -4.16158 0.662594 0
M  V30 25223 H 2407.41 -3.23563 -0.0942109 0
M  V30 25224 H 2406.32 -3.01645 2.21272 0
M  V30 25225 H 2407.65 -3.98032 2.89536 0
M  V30 25226 N 2409.3 -1.11501 -1.11379 0
M  V30 25227 C 2410.27 -0.777191 -2.15621 0
M  V30 25228 C 2411.27 0.203751 -1.59504 0
M  V30 25229 O 2412.46 -0.0208126 -1.74188 0
M  V30 25230 C 2409.59 -0.153176 -3.40556 0
M  V30 25231 H 2410.78 -1.70065 -2.47018 0
M  V30 25232 H 2408.33 -0.916974 -1.26575 0
M  V30 25233 H 2409.07 0.780481 -3.14768 0
M  V30 25234 H 2408.85 -0.859305 -3.82568 0
M  V30 25235 H 2410.34 0.067031 -4.17546 0
M  V30 25236 N 2410.78 1.28995 -0.905426 0
M  V30 25237 C 2412.03 1.95614 -0.535073 0
M  V30 25238 C 2412.36 1.71166 0.917374 0
M  V30 25239 O 2411.64 1.02788 1.65121 0
M  V30 25240 C 2411.92 3.50286 -0.83498 0
M  V30 25241 C 2411.77 3.84168 -2.33955 0
M  V30 25242 C 2413.09 4.38895 -0.325395 0
M  V30 25243 H 2410.21 0.710495 -0.195874 0
M  V30 25244 H 2412.85 1.52511 -1.13315 0
M  V30 25245 H 2411 3.8713 -0.325972 0
M  V30 25246 H 2412.67 3.57238 -2.91854 0
M  V30 25247 H 2410.92 3.31508 -2.79795 0
M  V30 25248 H 2411.59 4.92145 -2.49995 0
M  V30 25249 H 2414.06 4.09076 -0.761328 0
M  V30 25250 H 2412.94 5.45991 -0.564391 0
M  V30 25251 H 2413.2 4.35271 0.774067 0
M  V30 25252 N 2412.26 0.668514 1.42719 0
M  V30 25253 C 2413.51 0.188454 2.01922 0
M  V30 25254 C 2413.84 -1.19976 1.52707 0
M  V30 25255 O 2413.11 -1.80418 0.726597 0
M  V30 25256 C 2413.4 0.216148 3.59451 0
M  V30 25257 C 2413.25 1.63937 4.18861 0
M  V30 25258 C 2414.57 -0.439102 4.37904 0
M  V30 25259 H 2411.69 0.0699541 0.733673 0
M  V30 25260 H 2414.33 0.852106 1.69821 0
M  V30 25261 H 2412.48 -0.348944 3.8693 0
M  V30 25262 H 2414.15 2.25623 4.02358 0
M  V30 25263 H 2412.39 2.18199 3.74929 0
M  V30 25264 H 2413.07 1.61048 5.27984 0
M  V30 25265 H 2415.54 0.0418609 4.16079 0
M  V30 25266 H 2414.42 -0.389061 5.47519 0
M  V30 25267 H 2414.68 -1.5157 4.15306 0
M  V30 25268 N 2413.74 -1.52135 0.411426 0
M  V30 25269 C 2414.98 -2.02137 -0.163852 0
M  V30 25270 C 2415.32 -1.29638 -1.44595 0
M  V30 25271 O 2414.59 -0.403387 -1.90271 0
M  V30 25272 C 2414.87 -3.57767 -0.409208 0
M  V30 25273 C 2414.73 -4.40913 0.889721 0
M  V30 25274 C 2416.05 -4.23697 -1.19035 0
M  V30 25275 H 2413.17 -0.734708 -0.0580766 0
M  V30 25276 H 2415.81 -1.82006 0.545342 0
M  V30 25277 H 2413.96 -3.75052 -1.01333 0
M  V30 25278 H 2415.63 -4.35334 1.52583 0
M  V30 25279 H 2413.87 -4.07034 1.50018 0
M  V30 25280 H 2414.54 -5.47889 0.672411 0
M  V30 25281 H 2417.02 -4.10525 -0.67887 0
M  V30 25282 H 2415.9 -5.32524 -1.33077 0
M  V30 25283 H 2416.16 -3.82807 -2.21159 0
M  V30 25284 N 2415.22 -0.14192 -1.5696 0
M  V30 25285 C 2416.46 0.511214 -1.96251 0
M  V30 25286 C 2416.79 1.64849 -1.02657 0
M  V30 25287 O 2416.07 1.94381 -0.0680017 0
M  V30 25288 C 2416.35 1.02221 -3.45287 0
M  V30 25289 C 2416.21 -0.113217 -4.49657 0
M  V30 25290 C 2417.52 1.90567 -3.96702 0
M  V30 25291 H 2414.64 0.184355 -0.71357 0
M  V30 25292 H 2417.29 -0.22212 -1.88697 0
M  V30 25293 H 2415.44 1.64713 -3.51855 0
M  V30 25294 H 2417.11 -0.749382 -4.55172 0
M  V30 25295 H 2415.35 -0.773101 -4.26855 0
M  V30 25296 H 2416.02 0.285956 -5.51259 0
M  V30 25297 H 2418.5 1.37911 -3.92581 0
M  V30 25298 H 2417.37 2.23232 -5.01457 0
M  V30 25299 H 2417.63 2.84073 -3.38755 0
M  V30 25300 N 2416.69 1.57047 0.131868 0
M  V30 25301 C 2417.64 2.00362 1.18143 0
M  V30 25302 C 2418.64 0.898431 1.43613 0
M  V30 25303 O 2419.84 1.08363 1.43727 0
M  V30 25304 H 2416.22 0.638025 0.398031 0
M  V30 25305 H 2418.19 2.87766 0.789513 0
M  V30 25306 C 2416.94 2.41303 2.50336 0
M  V30 25307 H 2416.26 3.25906 2.31572 0
M  V30 25308 H 2417.7 2.7542 3.22366 0
M  V30 25309 C 2416.16 1.27158 3.11981 0
M  V30 25310 O 2416.69 0.580529 3.97483 0
M  V30 25311 N 2414.89 1.03193 2.71661 0
M  V30 25312 H 2414.44 1.59567 2.02228 0
M  V30 25313 H 2414.4 0.270132 3.13237 0
M  V30 25314 N 2418.17 -0.401677 1.52395 0
M  V30 25315 C 2419.4 -1.16946 1.70678 0
M  V30 25316 C 2419.81 -1.8408 0.419535 0
M  V30 25317 O 2419.17 -1.72179 -0.60503 0
M  V30 25318 C 2419.22 -2.22701 2.84757 0
M  V30 25319 O 2418.94 -1.58307 4.08498 0
M  V30 25320 C 2420.44 -3.12304 3.14613 0
M  V30 25321 H 2417.66 -0.351132 0.571793 0
M  V30 25322 H 2420.21 -0.471617 1.98988 0
M  V30 25323 H 2418.36 -2.88142 2.58946 0
M  V30 25324 H 2418.78 -2.28477 4.72121 0
M  V30 25325 H 2420.25 -3.82565 3.9793 0
M  V30 25326 H 2420.73 -3.75097 2.28471 0
M  V30 25327 H 2421.33 -2.52523 3.42217 0
M  V30 25328 N 2419.65 -1.43144 -0.659362 0
M  V30 25329 C 2420.87 -1.48075 -1.45219 0
M  V30 25330 C 2421.3 -0.098028 -1.87844 0
M  V30 25331 O 2420.66 0.906913 -1.56987 0
M  V30 25332 C 2420.71 -2.42652 -2.66744 0
M  V30 25333 O 2419.81 -1.90854 -3.6558 0
M  V30 25334 H 2419.15 -0.501095 -0.43566 0
M  V30 25335 H 2421.68 -1.87995 -0.807399 0
M  V30 25336 H 2421.69 -2.59751 -3.14632 0
M  V30 25337 H 2420.37 -3.43103 -2.35061 0
M  V30 25338 H 2418.94 -1.83387 -3.2469 0
M  V30 25339 N 2421.13 0.897149 -1.29572 0
M  V30 25340 C 2422.36 1.67883 -1.20411 0
M  V30 25341 C 2422.77 1.87705 0.237396 0
M  V30 25342 O 2422.11 1.41584 1.17046 0
M  V30 25343 C 2422.17 3.0831 -1.84892 0
M  V30 25344 C 2421.83 3.1171 -3.34194 0
M  V30 25345 C 2422.83 2.91667 -4.30379 0
M  V30 25346 C 2420.52 3.33695 -3.75437 0
M  V30 25347 C 2422.51 2.93547 -5.65782 0
M  V30 25348 C 2420.2 3.35205 -5.10961 0
M  V30 25349 C 2421.2 3.15154 -6.05943 0
M  V30 25350 O 2420.88 3.16457 -7.38993 0
M  V30 25351 H 2420.62 0.531039 -0.418298 0
M  V30 25352 H 2423.17 1.13011 -1.71516 0
M  V30 25353 H 2421.4 3.64795 -1.28301 0
M  V30 25354 H 2423.09 3.68577 -1.70017 0
M  V30 25355 H 2423.85 2.74492 -3.99849 0
M  V30 25356 H 2419.73 3.48341 -3.01959 0
M  V30 25357 H 2423.28 2.77815 -6.39894 0
M  V30 25358 H 2419.17 3.51912 -5.41136 0
M  V30 25359 H 2419.94 3.32706 -7.47829 0
M  V30 25360 N 2422.61 1.1209 1.10786 0
M  V30 25361 C 2423.84 0.895384 1.86189 0
M  V30 25362 C 2424.24 -0.55867 1.80764 0
M  V30 25363 O 2423.59 -1.39783 1.1919 0
M  V30 25364 C 2423.65 1.28743 3.35657 0
M  V30 25365 C 2423.31 2.75204 3.64845 0
M  V30 25366 C 2424.31 3.73406 3.61751 0
M  V30 25367 C 2421.99 3.1202 3.93635 0
M  V30 25368 C 2423.99 5.0644 3.87036 0
M  V30 25369 C 2421.68 4.45237 4.18577 0
M  V30 25370 C 2422.67 5.42256 4.15267 0
M  V30 25371 O 2422.36 6.73073 4.39578 0
M  V30 25372 H 2422.09 0.320081 0.59542 0
M  V30 25373 H 2424.65 1.49369 1.40989 0
M  V30 25374 H 2422.88 0.632307 3.81495 0
M  V30 25375 H 2424.57 1.03663 3.9244 0
M  V30 25376 H 2425.33 3.46309 3.39551 0
M  V30 25377 H 2421.21 2.37116 3.95344 0
M  V30 25378 H 2424.76 5.82157 3.84368 0
M  V30 25379 H 2420.65 4.72065 4.40255 0
M  V30 25380 H 2421.42 6.78964 4.57111 0
M  V30 25381 N 2424.08 -1.28513 0.912254 0
M  V30 25382 C 2425.49 -1.77086 0.591383 0
M  V30 25383 C 2425.85 -1.74686 -0.89327 0
M  V30 25384 O 2424.97 -1.34059 -1.69874 0
M  V30 25385 C 2425.57 -3.21568 1.06674 0
M  V30 25386 C 2424.12 -3.67869 0.796814 0
M  V30 25387 C 2423.27 -2.48314 1.23432 0
M  V30 25388 H 2426.22 -1.14998 1.09367 0
M  V30 25389 H 2426.24 -3.78311 0.407522 0
M  V30 25390 H 2425.76 -3.23283 2.14731 0
M  V30 25391 H 2423.86 -3.71616 -0.270614 0
M  V30 25392 H 2423.97 -4.58081 1.40351 0
M  V30 25393 H 2422.33 -2.46185 0.653079 0
M  V30 25394 H 2423.12 -2.52749 2.3232 0
M  V30 25395 N 2425.56 -0.676073 -1.42362 0
M  V30 25396 C 2426.49 0.0404202 -2.29164 0
M  V30 25397 C 2427.51 0.764219 -1.43748 0
M  V30 25398 O 2428.7 0.618166 -1.67454 0
M  V30 25399 C 2425.8 1.08097 -3.21198 0
M  V30 25400 C 2424.97 0.430736 -4.35274 0
M  V30 25401 C 2424.03 1.37124 -5.08019 0
M  V30 25402 O 2423.05 0.871061 -5.62495 0
M  V30 25403 N 2424.26 2.70447 -5.13652 0
M  V30 25404 H 2427.02 -0.704718 -2.91297 0
M  V30 25405 H 2424.58 -0.520586 -1.53302 0
M  V30 25406 H 2426.57 1.71145 -3.66731 0
M  V30 25407 H 2425.14 1.72783 -2.60509 0
M  V30 25408 H 2424.36 -0.379278 -3.92371 0
M  V30 25409 H 2425.65 -0.0222027 -5.08795 0
M  V30 25410 H 2425.05 3.13621 -4.70806 0
M  V30 25411 H 2423.61 3.28739 -5.62826 0
M  V30 25412 N 2427.04 1.51915 -0.419488 0
M  V30 25413 C 2427.97 2.3019 0.391772 0
M  V30 25414 C 2428.95 1.34837 1.03696 0
M  V30 25415 O 2430.14 1.6375 1.04401 0
M  V30 25416 C 2427.27 3.1309 1.50306 0
M  V30 25417 C 2426.22 4.16575 0.982327 0
M  V30 25418 C 2425.55 4.87884 2.18801 0
M  V30 25419 C 2426.85 5.22292 0.0291438 0
M  V30 25420 H 2428.54 2.98257 -0.261402 0
M  V30 25421 H 2426.09 1.43437 -0.127159 0
M  V30 25422 H 2428.04 3.66621 2.07767 0
M  V30 25423 H 2426.76 2.42811 2.18427 0
M  V30 25424 H 2425.42 3.64069 0.430055 0
M  V30 25425 H 2425.07 4.14124 2.855 0
M  V30 25426 H 2424.77 5.57848 1.84605 0
M  V30 25427 H 2426.29 5.44231 2.76848 0
M  V30 25428 H 2427.71 5.71001 0.512875 0
M  V30 25429 H 2426.11 5.9968 -0.224505 0
M  V30 25430 H 2427.18 4.76227 -0.913015 0
M  V30 25431 N 2428.52 0.150242 1.56882 0
M  V30 25432 C 2429.77 -0.500058 1.96229 0
M  V30 25433 C 2430.09 -1.64659 1.03525 0
M  V30 25434 O 2429.35 -1.95592 0.0651027 0
M  V30 25435 C 2429.65 -1.04431 3.41802 0
M  V30 25436 C 2429.31 -0.0158879 4.50897 0
M  V30 25437 C 2427.98 0.266816 4.8046 0
M  V30 25438 C 2430.33 0.683282 5.16702 0
M  V30 25439 C 2427.66 1.25444 5.73132 0
M  V30 25440 C 2430.01 1.65975 6.10439 0
M  V30 25441 C 2428.67 1.95012 6.38378 0
M  V30 25442 H 2427.94 -0.182984 0.718051 0
M  V30 25443 H 2430.59 0.237757 1.90018 0
M  V30 25444 H 2428.89 -1.85953 3.4486 0
M  V30 25445 H 2430.59 -1.55611 3.69576 0
M  V30 25446 H 2427.18 -0.24641 4.27891 0
M  V30 25447 H 2431.36 0.47807 4.93992 0
M  V30 25448 H 2426.62 1.48581 5.93071 0
M  V30 25449 H 2430.79 2.207 6.60503 0
M  V30 25450 H 2428.42 2.71691 7.09992 0
M  V30 25451 N 2430 -1.57115 -0.123538 0
M  V30 25452 C 2431.22 -1.88794 -0.846427 0
M  V30 25453 C 2431.64 -0.741007 -1.73651 0
M  V30 25454 O 2431 0.288361 -1.80207 0
M  V30 25455 C 2431.05 -3.199 -1.68364 0
M  V30 25456 O 2430.77 -4.30177 -0.829401 0
M  V30 25457 C 2432.27 -3.65253 -2.51208 0
M  V30 25458 H 2429.49 -0.625235 -0.243562 0
M  V30 25459 H 2432.03 -2.04208 -0.109288 0
M  V30 25460 H 2430.19 -3.06169 -2.37358 0
M  V30 25461 H 2430.6 -5.05292 -1.40642 0
M  V30 25462 H 2432.08 -4.59761 -3.05489 0
M  V30 25463 H 2432.55 -2.91686 -3.28354 0
M  V30 25464 H 2433.16 -3.81756 -1.87464 0
M  V30 25465 N 2431.47 0.393589 -1.52606 0
M  V30 25466 C 2432.71 1.14807 -1.69112 0
M  V30 25467 C 2433.08 1.87356 -0.419723 0
M  V30 25468 O 2434.28 2.64816 -0.46108 0
M  V30 25469 C 2432.55 2.1039 -2.88913 0
M  V30 25470 S 2434.11 2.93736 -3.25983 0
M  V30 25471 H 2430.93 0.388699 -0.595343 0
M  V30 25472 H 2433.53 0.433144 -1.90641 0
M  V30 25473 H 2432.23 1.55806 -3.79675 0
M  V30 25474 H 2431.76 2.86398 -2.69703 0
M  V30 25475 H 2433.78 4.12482 -2.75813 0
M  V30 25476 N 2432.95 1.43492 0.651762 0
M  V30 25477 C 2434.2 1.45401 1.41373 0
M  V30 25478 C 2434.53 0.0785164 1.94041 0
M  V30 25479 O 2433.81 -0.900848 1.7238 0
M  V30 25480 C 2434.09 2.49757 2.5941 0
M  V30 25481 C 2433.94 3.96586 2.12225 0
M  V30 25482 C 2435.26 2.50834 3.61622 0
M  V30 25483 H 2432.38 0.529431 0.51271 0
M  V30 25484 H 2435.02 1.75049 0.738765 0
M  V30 25485 H 2433.17 2.24606 3.16993 0
M  V30 25486 H 2434.84 4.328 1.59632 0
M  V30 25487 H 2433.09 4.09348 1.43584 0
M  V30 25488 H 2433.76 4.65219 2.97112 0
M  V30 25489 H 2436.23 2.73255 3.13801 0
M  V30 25490 H 2435.11 3.2579 4.4176 0
M  V30 25491 H 2435.37 1.54267 4.14312 0
M  V30 25492 N 2434.43 -0.890264 1.30046 0
M  V30 25493 C 2435.68 -1.63837 1.1833 0
M  V30 25494 C 2436 -1.93213 -0.263421 0
M  V30 25495 O 2435.27 -1.56485 -1.17853 0
M  V30 25496 H 2433.85 -0.607316 0.434944 0
M  V30 25497 H 2436.51 -1.06695 1.63101 0
M  V30 25498 H 2435.61 -2.59076 1.74029 0
M  V30 25499 N 2435.91 -1.12676 -1.1019 0
M  V30 25500 C 2437.32 -0.86334 -1.34233 0
M  V30 25501 C 2437.52 0.505243 -1.95063 0
M  V30 25502 O 2436.58 1.25341 -2.19194 0
M  V30 25503 C 2437.89 -1.98176 -2.26156 0
M  V30 25504 C 2439.44 -2.01294 -2.39687 0
M  V30 25505 C 2439.92 -3.12376 -3.3494 0
M  V30 25506 N 2441.41 -3.11835 -3.4251 0
M  V30 25507 C 2442.14 -3.94426 -4.16192 0
M  V30 25508 N 2441.64 -4.87012 -4.92738 0
M  V30 25509 N 2443.43 -3.82554 -4.11836 0
M  V30 25510 H 2435.58 -2.00854 -0.690762 0
M  V30 25511 H 2437.85 -0.874181 -0.366759 0
M  V30 25512 H 2437.55 -2.96808 -1.88675 0
M  V30 25513 H 2437.43 -1.88912 -3.26484 0
M  V30 25514 H 2439.81 -1.0328 -2.76437 0
M  V30 25515 H 2439.89 -2.14632 -1.39165 0
M  V30 25516 H 2439.54 -4.10624 -2.98915 0
M  V30 25517 H 2439.47 -2.96277 -4.35348 0
M  V30 25518 H 2441.96 -2.44764 -2.87922 0
M  V30 25519 H 2442.27 -5.46537 -5.46367 0
M  V30 25520 H 2440.62 -4.91024 -4.91854 0
M  V30 25521 H 2443.81 -3.09556 -3.51131 0
M  V30 25522 H 2443.98 -4.47151 -4.68999 0
M  V30 25523 N 2437.39 1.28028 -0.919057 0
M  V30 25524 C 2438.63 1.95035 -0.555791 0
M  V30 25525 C 2438.97 1.7213 0.899167 0
M  V30 25526 O 2438.24 1.04533 1.64021 0
M  V30 25527 C 2438.52 3.4938 -0.872085 0
M  V30 25528 C 2438.38 3.81665 -2.38016 0
M  V30 25529 C 2439.7 4.38526 -0.371927 0
M  V30 25530 H 2436.81 0.708377 -0.203398 0
M  V30 25531 H 2439.46 1.51301 -1.14927 0
M  V30 25532 H 2437.61 3.86763 -0.367014 0
M  V30 25533 H 2439.28 3.54123 -2.95626 0
M  V30 25534 H 2437.52 3.28522 -2.83295 0
M  V30 25535 H 2438.19 4.89465 -2.55201 0
M  V30 25536 H 2440.67 4.08245 -0.804673 0
M  V30 25537 H 2439.54 5.45361 -0.622268 0
M  V30 25538 H 2439.81 4.36067 0.727857 0
M  V30 25539 N 2438.86 0.683613 1.42002 0
M  V30 25540 C 2439.81 0.0107714 2.30797 0
M  V30 25541 C 2440.78 -0.783662 1.46451 0
M  V30 25542 O 2441.97 -0.754125 1.75264 0
M  V30 25543 C 2439.11 -0.928247 3.32382 0
M  V30 25544 C 2438.22 -0.1267 4.31814 0
M  V30 25545 C 2437.35 -1.06227 5.2047 0
M  V30 25546 C 2436.39 -0.252927 6.11577 0
M  V30 25547 N 2435.53 -1.14167 6.92756 0
M  V30 25548 H 2440.37 0.773778 2.87779 0
M  V30 25549 H 2437.91 0.393307 1.41744 0
M  V30 25550 H 2439.87 -1.48659 3.89816 0
M  V30 25551 H 2438.5 -1.65778 2.76979 0
M  V30 25552 H 2437.55 0.548396 3.76426 0
M  V30 25553 H 2438.86 0.501279 4.96275 0
M  V30 25554 H 2438.01 -1.69025 5.8268 0
M  V30 25555 H 2436.75 -1.72412 4.56207 0
M  V30 25556 H 2435.76 0.388204 5.48428 0
M  V30 25557 H 2436.98 0.404958 6.77892 0
M  V30 25558 H 2434.93 -1.78976 6.31113 0
M  V30 25559 H 2434.85 -0.568979 7.53856 0
M  V30 25560 H 2436.11 -1.75684 7.59444 0
M  V30 25561 N 2440.34 -1.5169 0.427538 0
M  V30 25562 C 2441.62 -1.94558 -0.20165 0
M  V30 25563 C 2442 -1.36562 -1.60979 0
M  V30 25564 O 2441.35 -0.548741 -2.21813 0
M  V30 25565 C 2441.56 -3.48486 -0.189333 0
M  V30 25566 C 2442.91 -4.22714 -0.399706 0
M  V30 25567 O 2443.93 -3.55191 -0.267882 0
M  V30 25568 O 2442.79 -5.42486 -0.661153 0
M  V30 25569 H 2439.88 -0.815866 -0.135247 0
M  V30 25570 H 2442.43 -1.62627 0.484811 0
M  V30 25571 H 2441.2 -3.83129 0.795498 0
M  V30 25572 H 2440.82 -3.86831 -0.919119 0
M  V30 25573 N 2441.82 -0.15856 -1.568 0
M  V30 25574 C 2443.05 0.495548 -2.00569 0
M  V30 25575 C 2443.46 1.58199 -1.03777 0
M  V30 25576 O 2442.8 1.83678 -0.0286119 0
M  V30 25577 C 2442.86 1.14526 -3.4077 0
M  V30 25578 C 2442.53 0.202021 -4.56553 0
M  V30 25579 C 2443.53 -0.574766 -5.16713 0
M  V30 25580 C 2441.21 0.10156 -5.02197 0
M  V30 25581 C 2443.2 -1.43935 -6.20936 0
M  V30 25582 C 2440.89 -0.766614 -6.06272 0
M  V30 25583 C 2441.89 -1.53566 -6.65512 0
M  V30 25584 O 2441.58 -2.38935 -7.67571 0
M  V30 25585 H 2441.31 0.132458 -0.662896 0
M  V30 25586 H 2443.86 -0.253595 -2.03828 0
M  V30 25587 H 2442.09 1.94227 -3.34384 0
M  V30 25588 H 2443.78 1.70027 -3.68573 0
M  V30 25589 H 2444.55 -0.507252 -4.8234 0
M  V30 25590 H 2440.43 0.689914 -4.55808 0
M  V30 25591 H 2443.97 -2.04008 -6.67103 0
M  V30 25592 H 2439.87 -0.835378 -6.40072 0
M  V30 25593 H 2440.64 -2.3231 -7.8484 0
M  V30 25594 N 2443.3 1.57178 0.115204 0
M  V30 25595 C 2444.55 1.84686 0.820694 0
M  V30 25596 C 2444.87 0.74431 1.80236 0
M  V30 25597 O 2444.14 -0.231341 1.94529 0
M  V30 25598 H 2442.72 0.681417 0.306072 0
M  V30 25599 H 2445.38 1.94635 0.101622 0
M  V30 25600 H 2444.48 2.80735 1.36361 0
M  V30 25601 N 2444.78 -0.38549 1.52813 0
M  V30 25602 C 2446.02 -1.13018 1.68028 0
M  V30 25603 C 2446.35 -1.89868 0.421967 0
M  V30 25604 O 2445.61 -1.86413 -0.595716 0
M  V30 25605 C 2445.91 -2.13182 2.86859 0
M  V30 25606 C 2445.57 -1.52963 4.24162 0
M  V30 25607 C 2444.23 -1.36266 4.61503 0
M  V30 25608 C 2446.59 -1.09214 5.09629 0
M  V30 25609 C 2443.91 -0.743734 5.81967 0
M  V30 25610 C 2446.27 -0.4873 6.3072 0
M  V30 25611 C 2444.93 -0.30766 6.66791 0
M  V30 25612 H 2444.2 -0.41356 0.614857 0
M  V30 25613 H 2446.85 -0.414373 1.86963 0
M  V30 25614 H 2445.15 -2.90994 2.62355 0
M  V30 25615 H 2446.85 -2.70717 2.95826 0
M  V30 25616 H 2443.44 -1.66947 3.94749 0
M  V30 25617 H 2447.62 -1.20914 4.81346 0
M  V30 25618 H 2442.88 -0.592784 6.0852 0
M  V30 25619 H 2447.05 -0.14002 6.96259 0
M  V30 25620 H 2444.68 0.174012 7.60001 0
M  V30 25621 N 2446.26 -1.43835 -0.644143 0
M  V30 25622 C 2447.19 -1.52512 -1.76812 0
M  V30 25623 C 2448.17 -0.379081 -1.65822 0
M  V30 25624 O 2449.35 -0.597498 -1.8478 0
M  V30 25625 C 2446.48 -1.45645 -3.15285 0
M  V30 25626 C 2445.44 -2.58592 -3.41049 0
M  V30 25627 C 2444.76 -2.36778 -4.79417 0
M  V30 25628 C 2446.06 -4.00803 -3.34895 0
M  V30 25629 H 2447.76 -2.46588 -1.69807 0
M  V30 25630 H 2445.3 -1.18681 -0.815521 0
M  V30 25631 H 2447.25 -1.50318 -3.93678 0
M  V30 25632 H 2445.98 -0.480781 -3.23042 0
M  V30 25633 H 2444.64 -2.53287 -2.65031 0
M  V30 25634 H 2444.29 -1.37433 -4.83861 0
M  V30 25635 H 2443.99 -3.12496 -4.97614 0
M  V30 25636 H 2445.51 -2.43248 -5.60056 0
M  V30 25637 H 2446.92 -4.07546 -4.03211 0
M  V30 25638 H 2445.32 -4.76619 -3.64628 0
M  V30 25639 H 2446.39 -4.25295 -2.32921 0
M  V30 25640 N 2447.73 0.883355 -1.30517 0
M  V30 25641 C 2448.68 2.01064 -1.16945 0
M  V30 25642 C 2449.68 1.69207 -0.0809446 0
M  V30 25643 O 2450.88 1.78367 -0.241908 0
M  V30 25644 H 2447.26 0.659292 -0.361716 0
M  V30 25645 H 2449.23 2.09645 -2.12347 0
M  V30 25646 C 2447.98 3.36386 -0.879753 0
M  V30 25647 H 2447.3 3.61412 -1.70942 0
M  V30 25648 H 2448.74 4.15898 -0.824903 0
M  V30 25649 C 2447.2 3.34305 0.417351 0
M  V30 25650 O 2447.73 3.75065 1.43836 0
M  V30 25651 N 2445.93 2.87415 0.429091 0
M  V30 25652 H 2445.48 2.5444 -0.402267 0
M  V30 25653 H 2445.44 2.86405 1.29691 0
M  V30 25654 N 2449.21 1.13259 1.09591 0
M  V30 25655 C 2450.14 0.830984 2.18213 0
M  V30 25656 C 2451.12 -0.208936 1.68812 0
M  V30 25657 O 2452.31 -0.0682324 1.9408 0
M  V30 25658 C 2449.44 0.294357 3.4605 0
M  V30 25659 C 2448.39 1.26833 4.08775 0
M  V30 25660 C 2447.72 0.591542 5.31418 0
M  V30 25661 C 2449.02 2.62623 4.51472 0
M  V30 25662 H 2450.71 1.73927 2.437 0
M  V30 25663 H 2448.26 0.837695 1.17127 0
M  V30 25664 H 2450.21 0.0710347 4.2134 0
M  V30 25665 H 2448.93 -0.64931 3.20081 0
M  V30 25666 H 2447.59 1.47762 3.35503 0
M  V30 25667 H 2447.24 -0.357544 5.01728 0
M  V30 25668 H 2446.94 1.24133 5.74339 0
M  V30 25669 H 2448.47 0.377462 6.09432 0
M  V30 25670 H 2449.88 2.45672 5.17994 0
M  V30 25671 H 2448.28 3.23761 5.05271 0
M  V30 25672 H 2449.35 3.20412 3.63956 0
M  V30 25673 N 2450.69 -1.27539 0.925834 0
M  V30 25674 C 2451.65 -2.25165 0.428168 0
M  V30 25675 C 2452.65 -1.5431 -0.452234 0
M  V30 25676 O 2453.84 -1.72344 -0.253578 0
M  V30 25677 C 2450.97 -3.38723 -0.384689 0
M  V30 25678 H 2452.17 -2.70704 1.29071 0
M  V30 25679 H 2449.72 -1.39429 0.706347 0
M  V30 25680 H 2450.46 -2.98563 -1.26613 0
M  V30 25681 H 2450.24 -3.91324 0.246523 0
M  V30 25682 H 2451.73 -4.11288 -0.723317 0
M  V30 25683 N 2452.17 -0.691135 -1.41637 0
M  V30 25684 C 2453.42 -0.219793 -2.00901 0
M  V30 25685 C 2453.74 1.18326 -1.54996 0
M  V30 25686 O 2453.01 1.7976 -0.778659 0
M  V30 25687 H 2451.59 -0.0782689 -0.742888 0
M  V30 25688 H 2454.25 -0.891301 -1.73326 0
M  V30 25689 H 2453.34 -0.233763 -3.11223 0
M  V30 25690 N 2453.65 1.51461 -0.435577 0
M  V30 25691 C 2455.06 1.59358 -0.0877782 0
M  V30 25692 C 2455.26 1.44663 1.40267 0
M  V30 25693 O 2454.32 1.28696 2.17241 0
M  V30 25694 C 2455.63 2.94524 -0.606316 0
M  V30 25695 C 2457.18 3.07829 -0.566602 0
M  V30 25696 C 2457.65 4.45515 -1.06208 0
M  V30 25697 N 2459.14 4.5183 -1.02 0
M  V30 25698 C 2459.88 5.56688 -1.37427 0
M  V30 25699 N 2459.38 6.68973 -1.80131 0
M  V30 25700 N 2461.17 5.47037 -1.29255 0
M  V30 25701 H 2453.32 1.59259 -1.40536 0
M  V30 25702 H 2455.58 0.750638 -0.579005 0
M  V30 25703 H 2455.29 3.10642 -1.64906 0
M  V30 25704 H 2455.16 3.77188 -0.030276 0
M  V30 25705 H 2457.55 2.91379 0.467157 0
M  V30 25706 H 2457.63 2.27008 -1.17902 0
M  V30 25707 H 2457.27 4.62711 -2.0943 0
M  V30 25708 H 2457.2 5.24872 -0.426219 0
M  V30 25709 H 2459.7 3.7124 -0.706373 0
M  V30 25710 H 2460.01 7.45002 -2.05405 0
M  V30 25711 H 2458.35 6.70185 -1.84056 0
M  V30 25712 H 2461.54 4.582 -0.957602 0
M  V30 25713 H 2461.72 6.28645 -1.57193 0
M  V30 25714 N 2455.12 0.166873 1.56714 0
M  V30 25715 C 2456.54 -0.350614 1.83378 0
M  V30 25716 C 2456.89 -1.6337 1.08649 0
M  V30 25717 O 2456.01 -2.13743 0.338096 0
M  V30 25718 C 2456.61 -0.642905 3.32644 0
M  V30 25719 C 2455.17 -1.10485 3.5982 0
M  V30 25720 C 2454.31 -0.138363 2.76955 0
M  V30 25721 H 2457.26 0.39122 1.53802 0
M  V30 25722 H 2457.28 -1.49545 3.49881 0
M  V30 25723 H 2456.8 0.291123 3.87007 0
M  V30 25724 H 2454.9 -2.05413 3.10864 0
M  V30 25725 H 2455.01 -1.01708 4.6818 0
M  V30 25726 H 2453.37 -0.634868 2.46661 0
M  V30 25727 H 2454.16 0.789608 3.34096 0
M  V30 25728 N 2456.6 -1.57237 -0.106866 0
M  V30 25729 C 2457.83 -1.89681 -0.826356 0
M  V30 25730 C 2458.25 -0.759383 -1.72855 0
M  V30 25731 O 2457.6 0.269231 -1.80503 0
M  V30 25732 C 2457.65 -3.21667 -1.64961 0
M  V30 25733 O 2457.37 -4.31033 -0.783728 0
M  V30 25734 C 2458.88 -3.67896 -2.4732 0
M  V30 25735 H 2456.1 -0.627783 -0.236916 0
M  V30 25736 H 2458.64 -2.04312 -0.0876234 0
M  V30 25737 H 2456.79 -3.0867 -2.34098 0
M  V30 25738 H 2457.21 -5.06755 -1.35275 0
M  V30 25739 H 2458.68 -4.62976 -3.00595 0
M  V30 25740 H 2459.16 -2.95152 -3.25241 0
M  V30 25741 H 2459.77 -3.83723 -1.83404 0
M  V30 25742 N 2458.08 0.377381 -1.53015 0
M  V30 25743 C 2459.03 1.46149 -1.74999 0
M  V30 25744 C 2460.01 1.49122 -0.604263 0
M  V30 25745 O 2461.21 1.54563 -0.862516 0
M  V30 25746 C 2458.34 2.83726 -1.93272 0
M  V30 25747 C 2457.42 2.85277 -3.13812 0
M  V30 25748 N 2457.81 2.56486 -4.35946 0
M  V30 25749 C 2456.11 3.16442 -3.14294 0
M  V30 25750 C 2456.81 2.65415 -5.17619 0
M  V30 25751 N 2455.79 2.99634 -4.53564 0
M  V30 25752 H 2459.59 1.22733 -2.67046 0
M  V30 25753 H 2457.1 0.585453 -1.5148 0
M  V30 25754 H 2459.1 3.61795 -2.07146 0
M  V30 25755 H 2457.76 3.08115 -1.02445 0
M  V30 25756 H 2458.77 2.30294 -4.6388 0
M  V30 25757 H 2455.45 3.46221 -2.33318 0
M  V30 25758 H 2456.84 2.46601 -6.2501 0
M  V30 25759 N 2459.56 1.44175 0.636506 0
M  V30 25760 C 2460.97 1.27943 0.954081 0
M  V30 25761 C 2461.17 0.211283 2.00389 0
M  V30 25762 O 2460.23 -0.404651 2.49236 0
M  V30 25763 C 2461.54 2.64928 1.42246 0
M  V30 25764 C 2463.09 2.72594 1.53822 0
M  V30 25765 C 2463.57 4.10036 2.04045 0
M  V30 25766 N 2465.06 4.12185 2.11323 0
M  V30 25767 C 2465.79 5.15378 2.51343 0
M  V30 25768 N 2465.29 6.28935 2.90538 0
M  V30 25769 N 2467.08 5.02732 2.51429 0
M  V30 25770 H 2459.23 2.12321 -0.0578759 0
M  V30 25771 H 2461.5 0.947288 0.036724 0
M  V30 25772 H 2461.2 3.44138 0.725406 0
M  V30 25773 H 2461.08 2.91454 2.39446 0
M  V30 25774 H 2463.46 1.93706 2.22625 0
M  V30 25775 H 2463.54 2.49815 0.550111 0
M  V30 25776 H 2463.19 4.89398 1.35839 0
M  V30 25777 H 2463.12 4.30189 3.03718 0
M  V30 25778 H 2465.61 3.30225 1.83739 0
M  V30 25779 H 2465.92 7.03493 3.19872 0
M  V30 25780 H 2464.27 6.32382 2.88302 0
M  V30 25781 H 2467.46 4.13075 2.20196 0
M  V30 25782 H 2467.63 5.83279 2.82294 0
M  V30 25783 N 2461.04 -0.876421 1.30983 0
M  V30 25784 C 2462.28 -1.63136 1.20477 0
M  V30 25785 C 2462.62 -1.92735 -0.238063 0
M  V30 25786 O 2461.89 -1.55437 -1.16917 0
M  V30 25787 C 2462.17 -2.96571 2.04249 0
M  V30 25788 C 2462.03 -2.7389 3.56797 0
M  V30 25789 C 2463.35 -3.97597 1.88691 0
M  V30 25790 H 2460.46 -0.591978 0.439012 0
M  V30 25791 H 2463.11 -1.01358 1.60706 0
M  V30 25792 H 2461.26 -3.49297 1.70069 0
M  V30 25793 H 2462.93 -2.27885 4.01081 0
M  V30 25794 H 2461.17 -2.08238 3.80551 0
M  V30 25795 H 2461.84 -3.68807 4.10713 0
M  V30 25796 H 2464.32 -3.54059 2.1859 0
M  V30 25797 H 2463.19 -4.88858 2.49619 0
M  V30 25798 H 2463.46 -4.33883 0.848419 0
M  V30 25799 N 2462.51 -1.13839 -1.08989 0
M  V30 25800 C 2463.44 -0.842545 -2.17769 0
M  V30 25801 C 2464.43 0.199981 -1.6892 0
M  V30 25802 O 2465.61 0.0579389 -1.94114 0
M  V30 25803 C 2462.74 -0.312705 -3.45889 0
M  V30 25804 C 2461.69 -1.28999 -4.08097 0
M  V30 25805 C 2461.02 -0.619716 -5.31097 0
M  V30 25806 C 2462.32 -2.65013 -4.50073 0
M  V30 25807 H 2464.01 -1.75217 -2.42774 0
M  V30 25808 H 2461.56 -0.843895 -1.16681 0
M  V30 25809 H 2463.51 -0.0933784 -4.21297 0
M  V30 25810 H 2462.24 0.632326 -3.2042 0
M  V30 25811 H 2460.9 -1.49539 -3.34714 0
M  V30 25812 H 2460.54 0.330931 -5.0191 0
M  V30 25813 H 2460.24 -1.27177 -5.73672 0
M  V30 25814 H 2461.77 -0.409776 -6.09223 0
M  V30 25815 H 2463.18 -2.48416 -5.16684 0
M  V30 25816 H 2461.58 -3.26436 -5.03547 0
M  V30 25817 H 2462.65 -3.22338 -3.62252 0
M  V30 25818 N 2463.99 1.27046 -0.932584 0
M  V30 25819 C 2464.93 2.25017 -0.379814 0
M  V30 25820 C 2465.9 1.53838 0.52656 0
M  V30 25821 O 2467.09 1.8265 0.46596 0
M  V30 25822 C 2464.21 3.35628 0.455128 0
M  V30 25823 C 2463.26 4.24727 -0.388502 0
M  V30 25824 S 2464.09 5.04088 -1.8071 0
M  V30 25825 C 2465.25 6.18181 -0.979974 0
M  V30 25826 H 2465.48 2.71556 -1.21015 0
M  V30 25827 H 2463.02 1.35778 -0.735102 0
M  V30 25828 H 2464.97 3.99804 0.930982 0
M  V30 25829 H 2463.63 2.87718 1.26004 0
M  V30 25830 H 2462.83 5.03376 0.250802 0
M  V30 25831 H 2462.43 3.65372 -0.798713 0
M  V30 25832 H 2464.72 6.77148 -0.218234 0
M  V30 25833 H 2465.66 6.86398 -1.73963 0
M  V30 25834 H 2466.07 5.62101 -0.519829 0
M  V30 25835 N 2465.47 0.698636 1.41269 0
M  V30 25836 C 2466.7 0.23968 2.05205 0
M  V30 25837 C 2467.11 -1.1173 1.52686 0
M  V30 25838 O 2466.45 -1.70997 0.671252 0
M  V30 25839 C 2466.51 0.123189 3.59289 0
M  V30 25840 C 2466.18 1.4127 4.34617 0
M  V30 25841 C 2467.17 2.35119 4.63697 0
M  V30 25842 C 2464.86 1.66693 4.73834 0
M  V30 25843 C 2466.85 3.52648 5.30959 0
M  V30 25844 C 2464.54 2.84507 5.40832 0
M  V30 25845 C 2465.54 3.77308 5.69322 0
M  V30 25846 O 2465.23 4.93058 6.3494 0
M  V30 25847 H 2464.96 0.108549 0.667228 0
M  V30 25848 H 2467.51 0.952634 1.81973 0
M  V30 25849 H 2465.74 -0.645561 3.81273 0
M  V30 25850 H 2467.43 -0.298985 4.04797 0
M  V30 25851 H 2468.2 2.16736 4.33878 0
M  V30 25852 H 2464.08 0.953215 4.51037 0
M  V30 25853 H 2467.62 4.25101 5.53114 0
M  V30 25854 H 2463.52 3.02805 5.70069 0
M  V30 25855 H 2464.29 4.92914 6.53436 0
M  V30 25856 N 2466.95 -1.51228 0.443603 0
M  V30 25857 C 2467.86 -2.31653 -0.37068 0
M  V30 25858 C 2468.87 -1.40835 -1.02183 0
M  V30 25859 O 2470.05 -1.73905 -1.01583 0
M  V30 25860 C 2467.12 -3.14751 -1.4537 0
M  V30 25861 C 2466.18 -4.21356 -0.822025 0
M  V30 25862 C 2465.41 -5.00483 -1.85344 0
M  V30 25863 O 2465.63 -4.80322 -3.07648 0
M  V30 25864 O 2464.57 -5.84409 -1.44049 0
M  V30 25865 H 2468.39 -3.0235 0.286055 0
M  V30 25866 H 2465.98 -1.47973 0.206006 0
M  V30 25867 H 2467.86 -3.66394 -2.08166 0
M  V30 25868 H 2466.53 -2.46812 -2.09441 0
M  V30 25869 H 2465.44 -3.73775 -0.155843 0
M  V30 25870 H 2466.77 -4.91687 -0.22471 0
M  V30 25871 N 2468.43 -0.175182 -1.56623 0
M  V30 25872 C 2469.67 0.468777 -1.96999 0
M  V30 25873 C 2470 1.62992 -1.06132 0
M  V30 25874 O 2469.26 1.95463 -0.0962114 0
M  V30 25875 C 2469.56 0.989803 -3.43421 0
M  V30 25876 C 2469.22 -0.055848 -4.50865 0
M  V30 25877 C 2467.88 -0.343219 -4.79974 0
M  V30 25878 C 2470.24 -0.765399 -5.15549 0
M  V30 25879 C 2467.56 -1.34546 -5.71064 0
M  V30 25880 C 2469.92 -1.75665 -6.07721 0
M  V30 25881 C 2468.58 -2.05143 -6.35195 0
M  V30 25882 H 2467.85 0.171538 -0.720872 0
M  V30 25883 H 2470.5 -0.267957 -1.89616 0
M  V30 25884 H 2468.8 1.80443 -3.47775 0
M  V30 25885 H 2470.5 1.49712 -3.72004 0
M  V30 25886 H 2467.09 0.178305 -4.28229 0
M  V30 25887 H 2471.27 -0.556599 -4.93169 0
M  V30 25888 H 2466.53 -1.57998 -5.90632 0
M  V30 25889 H 2470.7 -2.31181 -6.56908 0
M  V30 25890 H 2468.33 -2.82952 -7.05579 0
M  V30 25891 N 2469.91 1.57292 0.0985263 0
M  V30 25892 C 2471.32 1.74892 0.653426 0
M  V30 25893 C 2471.67 0.79687 1.79289 0
M  V30 25894 O 2470.79 -0.0254505 2.16385 0
M  V30 25895 C 2471.39 3.17135 1.1921 0
M  V30 25896 C 2469.95 3.36171 1.6931 0
M  V30 25897 C 2469.09 2.70703 0.601246 0
M  V30 25898 H 2472.04 1.58187 -0.127525 0
M  V30 25899 H 2472.07 3.19817 2.06149 0
M  V30 25900 H 2471.58 3.86403 0.362567 0
M  V30 25901 H 2469.68 2.71977 2.54675 0
M  V30 25902 H 2469.79 4.44467 1.78845 0
M  V30 25903 H 2468.16 2.32506 1.03986 0
M  V30 25904 H 2468.94 3.42609 -0.217652 0
M  V30 25905 N 2471.38 -0.369261 1.53213 0
M  V30 25906 C 2472.61 -1.133 1.73121 0
M  V30 25907 C 2473.03 -1.83148 0.458487 0
M  V30 25908 O 2472.38 -1.73424 -0.568372 0
M  V30 25909 C 2472.43 -2.16611 2.89417 0
M  V30 25910 O 2472.16 -1.49607 4.11764 0
M  V30 25911 C 2473.66 -3.0556 3.21167 0
M  V30 25912 H 2470.88 -0.338924 0.579113 0
M  V30 25913 H 2473.42 -0.429302 1.99943 0
M  V30 25914 H 2471.58 -2.82585 2.64999 0
M  V30 25915 H 2471.99 -2.18411 4.76862 0
M  V30 25916 H 2473.46 -3.74038 4.05955 0
M  V30 25917 H 2473.94 -3.70166 2.36376 0
M  V30 25918 H 2474.55 -2.45207 3.47496 0
M  V30 25919 N 2472.86 -1.4451 -0.628851 0
M  V30 25920 C 2473.81 -1.51552 -1.74071 0
M  V30 25921 C 2474.78 -0.363049 -1.62084 0
M  V30 25922 O 2475.96 -0.573599 -1.81974 0
M  V30 25923 C 2473.1 -1.46789 -3.12325 0
M  V30 25924 C 2472.22 -2.72428 -3.35272 0
M  V30 25925 C 2471.35 -2.59483 -4.63511 0
M  V30 25926 C 2470.39 -3.80274 -4.79644 0
M  V30 25927 N 2469.53 -3.65991 -5.99162 0
M  V30 25928 H 2474.37 -2.46547 -1.67388 0
M  V30 25929 H 2471.9 -1.22359 -0.816505 0
M  V30 25930 H 2473.86 -1.42019 -3.92284 0
M  V30 25931 H 2472.49 -0.5536 -3.18017 0
M  V30 25932 H 2471.54 -2.87376 -2.49237 0
M  V30 25933 H 2472.86 -3.62082 -3.43071 0
M  V30 25934 H 2472.01 -2.52558 -5.51633 0
M  V30 25935 H 2470.75 -1.67392 -4.58073 0
M  V30 25936 H 2469.75 -3.87581 -3.8995 0
M  V30 25937 H 2470.98 -4.73404 -4.86894 0
M  V30 25938 H 2468.93 -2.76654 -5.9481 0
M  V30 25939 H 2468.84 -4.49264 -6.08028 0
M  V30 25940 H 2470.11 -3.62962 -6.8984 0
M  V30 25941 N 2474.34 0.869463 -1.31446 0
M  V30 25942 C 2475.3 1.95828 -1.19097 0
M  V30 25943 C 2476.3 1.60367 -0.117934 0
M  V30 25944 O 2477.49 1.70285 -0.367238 0
M  V30 25945 C 2474.62 3.30686 -0.828223 0
M  V30 25946 H 2475.82 2.08208 -2.15846 0
M  V30 25947 H 2473.37 1.05782 -1.15065 0
M  V30 25948 H 2474.11 3.24006 0.138085 0
M  V30 25949 H 2473.89 3.57797 -1.60387 0
M  V30 25950 H 2475.38 4.1052 -0.76573 0
M  V30 25951 N 2475.82 1.14415 1.08383 0
M  V30 25952 C 2477.07 0.910711 1.80417 0
M  V30 25953 C 2477.39 -0.56421 1.86659 0
M  V30 25954 O 2476.66 -1.41012 1.35987 0
M  V30 25955 H 2475.24 0.333946 0.668198 0
M  V30 25956 H 2477.9 1.44278 1.31034 0
M  V30 25957 H 2476.99 1.31087 2.83236 0
M  V30 25958 N 2477.3 -1.26549 0.939309 0
M  V30 25959 C 2478.23 -2.25598 0.404743 0
M  V30 25960 C 2479.24 -1.55839 -0.470955 0
M  V30 25961 O 2480.43 -1.76263 -0.281703 0
M  V30 25962 C 2477.53 -3.36063 -0.437581 0
M  V30 25963 C 2476.7 -4.35364 0.421525 0
M  V30 25964 C 2475.76 -5.24967 -0.360058 0
M  V30 25965 O 2474.79 -5.68709 0.236267 0
M  V30 25966 N 2475.99 -5.56347 -1.65706 0
M  V30 25967 H 2478.75 -2.72101 1.25622 0
M  V30 25968 H 2476.32 -1.40297 0.807988 0
M  V30 25969 H 2478.31 -3.92958 -0.967797 0
M  V30 25970 H 2476.88 -2.8907 -1.18986 0
M  V30 25971 H 2476.1 -3.77568 1.13297 0
M  V30 25972 H 2477.39 -4.98706 1.00844 0
M  V30 25973 H 2476.78 -5.22686 -2.16369 0
M  V30 25974 H 2475.34 -6.15892 -2.13356 0
M  V30 25975 N 2478.77 -0.706118 -1.40896 0
M  V30 25976 C 2480.01 -0.245862 -2.02916 0
M  V30 25977 C 2480.38 1.13646 -1.54753 0
M  V30 25978 O 2481.58 1.69317 -2.08771 0
M  V30 25979 C 2479.85 -0.3126 -3.5603 0
M  V30 25980 S 2481.41 0.0720617 -4.38741 0
M  V30 25981 H 2478.23 -0.0982131 -0.704184 0
M  V30 25982 H 2480.83 -0.926238 -1.72166 0
M  V30 25983 H 2479.53 -1.32046 -3.88577 0
M  V30 25984 H 2479.06 0.386572 -3.91496 0
M  V30 25985 H 2481.08 1.29683 -4.78954 0
M  V30 25986 N 2480.25 1.50991 -0.451617 0
M  V30 25987 C 2481.5 2.01801 0.109821 0
M  V30 25988 C 2481.82 1.33692 1.41956 0
M  V30 25989 O 2481.09 0.475984 1.90029 0
M  V30 25990 H 2479.67 0.745728 0.0435753 0
M  V30 25991 H 2482.33 1.85512 -0.59759 0
M  V30 25992 H 2481.43 3.10882 0.275434 0
M  V30 25993 N 2481.73 0.183486 1.56528 0
M  V30 25994 C 2482.98 -0.457417 1.96856 0
M  V30 25995 C 2483.3 -1.62951 1.07107 0
M  V30 25996 O 2482.57 -1.954 0.139921 0
M  V30 25997 H 2481.15 -0.171979 0.726933 0
M  V30 25998 H 2483.81 0.26751 1.93055 0
M  V30 25999 H 2482.91 -0.809315 3.01424 0
M  V30 26000 N 2483.21 -1.57342 -0.0901833 0
M  V30 26001 C 2484.45 -1.86613 -0.793949 0
M  V30 26002 C 2484.79 -0.773284 -1.7814 0
M  V30 26003 O 2484.06 0.21827 -1.93271 0
M  V30 26004 C 2484.34 -3.26525 -1.51833 0
M  V30 26005 C 2484.2 -4.46443 -0.548531 0
M  V30 26006 C 2485.52 -3.64405 -2.46773 0
M  V30 26007 H 2482.64 -0.678749 -0.287174 0
M  V30 26008 H 2485.28 -1.89913 -0.0574742 0
M  V30 26009 H 2483.43 -3.23843 -2.14612 0
M  V30 26010 H 2485.1 -4.61243 0.0726324 0
M  V30 26011 H 2483.34 -4.33581 0.13769 0
M  V30 26012 H 2484.01 -5.41078 -1.09262 0
M  V30 26013 H 2486.49 -3.68064 -1.94083 0
M  V30 26014 H 2485.37 -4.63226 -2.94471 0
M  V30 26015 H 2485.63 -2.93352 -3.30753 0
M  V30 26016 N 2484.69 0.36113 -1.53407 0
M  V30 26017 C 2485.93 1.10493 -1.70056 0
M  V30 26018 C 2486.27 1.88835 -0.453311 0
M  V30 26019 O 2485.54 1.86577 0.549467 0
M  V30 26020 C 2485.82 2.06053 -2.95321 0
M  V30 26021 C 2485.68 1.3129 -4.30213 0
M  V30 26022 C 2487 3.06116 -3.16198 0
M  V30 26023 H 2484.11 0.40031 -0.618806 0
M  V30 26024 H 2486.76 0.385285 -1.86053 0
M  V30 26025 H 2484.91 2.6742 -2.81813 0
M  V30 26026 H 2486.58 0.726727 -4.5554 0
M  V30 26027 H 2484.82 0.614778 -4.29422 0
M  V30 26028 H 2485.49 2.01256 -5.14004 0
M  V30 26029 H 2487.97 2.54854 -3.2892 0
M  V30 26030 H 2486.84 3.70197 -4.05272 0
M  V30 26031 H 2487.11 3.76531 -2.31682 0
M  V30 26032 N 2486.16 1.44842 0.621179 0
M  V30 26033 C 2487.41 1.47425 1.37655 0
M  V30 26034 C 2487.73 0.114663 1.95264 0
M  V30 26035 O 2488.93 0.0180676 2.71494 0
M  V30 26036 C 2487.39 2.5959 2.49281 0
M  V30 26037 C 2487 4.018 1.98142 0
M  V30 26038 C 2488.74 2.71405 3.26404 0
M  V30 26039 C 2486.65 5.05372 3.0717 0
M  V30 26040 H 2485.58 0.548527 0.517334 0
M  V30 26041 H 2488.23 1.7094 0.667227 0
M  V30 26042 H 2486.61 2.29333 3.22835 0
M  V30 26043 H 2487.78 4.41672 1.31388 0
M  V30 26044 H 2486.1 3.94316 1.33805 0
M  V30 26045 H 2488.7 3.45956 4.07699 0
M  V30 26046 H 2489.04 1.77565 3.76532 0
M  V30 26047 H 2489.57 3.0112 2.59945 0
M  V30 26048 H 2486.31 6.00874 2.61975 0
M  V30 26049 H 2485.83 4.70084 3.72534 0
M  V30 26050 H 2487.51 5.29517 3.7178 0
M  V30 26051 N 2487.64 -0.862479 1.31905 0
M  V30 26052 C 2488.87 -1.65395 1.25137 0
M  V30 26053 C 2489.29 -1.87247 -0.178967 0
M  V30 26054 O 2488.65 -1.41962 -1.12768 0
M  V30 26055 C 2488.7 -2.99494 2.00837 0
M  V30 26056 O 2487.8 -3.89649 1.35082 0
M  V30 26057 H 2487.14 -0.504542 0.431664 0
M  V30 26058 H 2489.67 -1.07479 1.74096 0
M  V30 26059 H 2489.68 -3.49375 2.10715 0
M  V30 26060 H 2488.36 -2.8291 3.04852 0
M  V30 26061 H 2486.94 -3.48106 1.33702 0
M  V30 26062 N 2489.12 -1.14988 -1.07775 0
M  V30 26063 C 2490.05 -0.78628 -2.14226 0
M  V30 26064 C 2491.03 0.235319 -1.60888 0
M  V30 26065 O 2492.22 0.122876 -1.88099 0
M  V30 26066 C 2489.34 -0.168493 -3.38281 0
M  V30 26067 C 2488.39 -1.1613 -4.10385 0
M  V30 26068 S 2489.22 -2.70143 -4.62367 0
M  V30 26069 C 2490.38 -2.09772 -5.897 0
M  V30 26070 H 2490.61 -1.68791 -2.44738 0
M  V30 26071 H 2488.14 -0.971778 -1.19983 0
M  V30 26072 H 2490.1 0.181515 -4.10098 0
M  V30 26073 H 2488.76 0.710671 -3.05955 0
M  V30 26074 H 2487.96 -0.677174 -4.9943 0
M  V30 26075 H 2487.56 -1.45562 -3.44511 0
M  V30 26076 H 2489.85 -1.45713 -6.61645 0
M  V30 26077 H 2490.79 -2.96966 -6.42819 0
M  V30 26078 H 2491.2 -1.54248 -5.43017 0
M  V30 26079 N 2490.6 1.26049 -0.946007 0
M  V30 26080 C 2491.85 1.93144 -0.594975 0
M  V30 26081 C 2492.17 1.74541 0.869499 0
M  V30 26082 O 2491.44 1.1039 1.61836 0
M  V30 26083 H 2490.02 0.714769 -0.217057 0
M  V30 26084 H 2492.68 1.53391 -1.20238 0
M  V30 26085 H 2491.78 3.0122 -0.816888 0
M  V30 26086 N 2492.08 0.71358 1.4052 0
M  V30 26087 C 2493.02 0.0597246 2.30723 0
M  V30 26088 C 2493.99 -0.752422 1.4808 0
M  V30 26089 O 2495.18 -0.716779 1.76825 0
M  V30 26090 C 2492.32 -0.857535 3.34276 0
M  V30 26091 C 2491.43 -0.0350776 4.31986 0
M  V30 26092 C 2490.57 -0.951632 5.22606 0
M  V30 26093 C 2489.61 -0.123146 6.11976 0
M  V30 26094 N 2488.74 -0.994468 6.95021 0
M  V30 26095 H 2493.58 0.834646 2.86073 0
M  V30 26096 H 2491.12 0.423285 1.40878 0
M  V30 26097 H 2493.08 -1.40357 3.92881 0
M  V30 26098 H 2491.71 -1.59866 2.80433 0
M  V30 26099 H 2490.76 0.628118 3.75178 0
M  V30 26100 H 2492.07 0.606434 4.951 0
M  V30 26101 H 2491.23 -1.56627 5.86134 0
M  V30 26102 H 2489.96 -1.62697 4.59762 0
M  V30 26103 H 2488.97 0.504446 5.47481 0
M  V30 26104 H 2490.19 0.548658 6.7688 0
M  V30 26105 H 2488.14 -1.65549 6.34767 0
M  V30 26106 H 2488.06 -0.408947 7.54893 0
M  V30 26107 H 2489.33 -1.59535 7.63 0
M  V30 26108 N 2493.55 -1.50749 0.459618 0
M  V30 26109 C 2494.8 -2.01447 -0.100936 0
M  V30 26110 C 2495.12 -1.34715 -1.41814 0
M  V30 26111 O 2496.32 -1.76506 -2.06296 0
M  V30 26112 C 2494.78 -3.59162 -0.230407 0
M  V30 26113 C 2494.39 -4.34845 1.07768 0
M  V30 26114 C 2496.13 -4.17938 -0.743535 0
M  V30 26115 C 2494.04 -5.84316 0.912632 0
M  V30 26116 H 2492.97 -0.752857 -0.041497 0
M  V30 26117 H 2495.62 -1.73662 0.592772 0
M  V30 26118 H 2494 -3.83486 -0.987635 0
M  V30 26119 H 2495.17 -4.22253 1.84497 0
M  V30 26120 H 2493.49 -3.87625 1.52104 0
M  V30 26121 H 2496.09 -5.27344 -0.883866 0
M  V30 26122 H 2496.43 -3.78565 -1.73189 0
M  V30 26123 H 2496.96 -3.97776 -0.04401 0
M  V30 26124 H 2493.7 -6.28141 1.87402 0
M  V30 26125 H 2493.22 -5.99513 0.185527 0
M  V30 26126 H 2494.9 -6.44443 0.57466 0
M  V30 26127 N 2495.03 -0.191784 -1.56429 0
M  V30 26128 C 2496.28 0.448519 -1.97778 0
M  V30 26129 C 2496.61 1.61499 -1.0785 0
M  V30 26130 O 2495.89 1.94066 -0.129808 0
M  V30 26131 C 2496.17 0.911845 -3.48364 0
M  V30 26132 C 2496.02 -0.256215 -4.4907 0
M  V30 26133 C 2497.34 1.77849 -4.02564 0
M  V30 26134 H 2494.46 0.16156 -0.719074 0
M  V30 26135 H 2497.1 -0.28204 -1.87895 0
M  V30 26136 H 2495.25 1.53436 -3.56917 0
M  V30 26137 H 2496.92 -0.893812 -4.52558 0
M  V30 26138 H 2495.17 -0.90851 -4.2418 0
M  V30 26139 H 2495.84 0.110433 -5.5189 0
M  V30 26140 H 2498.31 1.25352 -3.9677 0
M  V30 26141 H 2497.19 2.07165 -5.08305 0
M  V30 26142 H 2497.45 2.73152 -3.47621 0
M  V30 26143 N 2496.51 1.57387 0.0818378 0
M  V30 26144 C 2497.76 1.86386 0.781335 0
M  V30 26145 C 2498.08 0.782374 1.78617 0
M  V30 26146 O 2497.35 -0.190027 1.94976 0
M  V30 26147 H 2495.93 0.687756 0.29155 0
M  V30 26148 H 2498.59 1.94807 0.0603137 0
M  V30 26149 H 2497.69 2.83564 1.30375 0
M  V30 26150 N 2497.99 -0.35299 1.53596 0
M  V30 26151 C 2499.23 -1.0959 1.7064 0
M  V30 26152 C 2499.57 -1.88592 0.463319 0
M  V30 26153 O 2498.84 -1.86866 -0.539564 0
M  V30 26154 C 2499.13 -2.04484 2.96409 0
M  V30 26155 C 2498.98 -1.29007 4.30903 0
M  V30 26156 C 2500.3 -3.04434 3.17817 0
M  V30 26157 H 2497.42 -0.397023 0.62092 0
M  V30 26158 H 2500.06 -0.375413 1.86254 0
M  V30 26159 H 2498.21 -2.65922 2.83228 0
M  V30 26160 H 2499.88 -0.702558 4.55919 0
M  V30 26161 H 2498.12 -0.591996 4.29742 0
M  V30 26162 H 2498.79 -1.98528 5.15064 0
M  V30 26163 H 2501.27 -2.53106 3.30267 0
M  V30 26164 H 2500.15 -3.68042 4.0723 0
M  V30 26165 H 2500.41 -3.75297 2.33676 0
M  V30 26166 N 2499.47 -1.45169 -0.613489 0
M  V30 26167 C 2500.42 -1.49818 -1.71868 0
M  V30 26168 C 2501.4 -0.362049 -1.56774 0
M  V30 26169 O 2502.59 -0.608522 -1.66211 0
M  V30 26170 C 2499.72 -1.46212 -3.10607 0
M  V30 26171 C 2498.81 -2.65005 -3.31109 0
M  V30 26172 N 2499.2 -3.90148 -3.21897 0
M  V30 26173 C 2497.5 -2.60576 -3.61961 0
M  V30 26174 C 2498.2 -4.69399 -3.43569 0
M  V30 26175 N 2497.17 -4.00757 -3.6728 0
M  V30 26176 H 2500.98 -2.44403 -1.63231 0
M  V30 26177 H 2498.49 -1.40379 -0.816552 0
M  V30 26178 H 2500.49 -1.47627 -3.89887 0
M  V30 26179 H 2499.15 -0.526786 -3.20398 0
M  V30 26180 H 2500.16 -4.21857 -3.00428 0
M  V30 26181 H 2496.84 -1.75923 -3.78626 0
M  V30 26182 H 2498.23 -5.78412 -3.4189 0
M  V30 26183 N 2500.95 0.855472 -1.32361 0
M  V30 26184 C 2502.19 1.61198 -1.23057 0
M  V30 26185 C 2502.52 1.9309 0.20737 0
M  V30 26186 O 2501.8 1.57278 1.14429 0
M  V30 26187 C 2502.08 2.93284 -2.08942 0
M  V30 26188 C 2501.94 2.68179 -3.6111 0
M  V30 26189 C 2503.25 3.94545 -1.94993 0
M  V30 26190 H 2500.37 0.584919 -0.448374 0
M  V30 26191 H 2503.02 0.987888 -1.62298 0
M  V30 26192 H 2501.17 3.46548 -1.75605 0
M  V30 26193 H 2502.84 2.21475 -4.04656 0
M  V30 26194 H 2501.08 2.02158 -3.83816 0
M  V30 26195 H 2501.75 3.62227 -4.16528 0
M  V30 26196 H 2504.23 3.50536 -2.24196 0
M  V30 26197 H 2503.1 4.84824 -2.57364 0
M  V30 26198 H 2503.36 4.32478 -0.917339 0
M  V30 26199 N 2502.42 1.15558 1.07164 0
M  V30 26200 C 2503.67 0.929795 1.79441 0
M  V30 26201 C 2503.99 -0.544381 1.87247 0
M  V30 26202 O 2503.26 -1.39562 1.37475 0
M  V30 26203 H 2501.84 0.341014 0.664619 0
M  V30 26204 H 2504.5 1.45659 1.29497 0
M  V30 26205 H 2503.6 1.34084 2.8183 0
M  V30 26206 N 2503.9 -1.25546 0.952678 0
M  V30 26207 C 2505.15 -1.92825 0.605209 0
M  V30 26208 C 2505.47 -1.75 -0.860231 0
M  V30 26209 O 2504.74 -1.11247 -1.61248 0
M  V30 26210 H 2503.32 -0.713608 0.220844 0
M  V30 26211 H 2505.98 -1.52751 1.2105 0
M  V30 26212 H 2505.08 -3.00782 0.832851 0
M  V30 26213 N 2505.38 -0.721022 -1.40139 0
M  V30 26214 C 2506.33 -0.0608955 -2.3252 0
M  V30 26215 C 2507.32 0.741125 -1.52328 0
M  V30 26216 O 2508.53 0.643882 -1.6809 0
M  V30 26217 H 2504.9 -0.000889883 -0.751999 0
M  V30 26218 H 2506.87 -0.856665 -2.85839 0
M  V30 26219 C 2505.62 0.84275 -3.37332 0
M  V30 26220 H 2504.95 0.235013 -3.99109 0
M  V30 26221 H 2506.39 1.2725 -4.04454 0
M  V30 26222 C 2504.84 1.97069 -2.7325 0
M  V30 26223 O 2505.37 3.06205 -2.60003 0
M  V30 26224 N 2503.58 1.75593 -2.3155 0
M  V30 26225 H 2503.13 0.868325 -2.42524 0
M  V30 26226 H 2503.09 2.51241 -1.89012 0
M  V30 26227 N 2506.86 1.50503 -0.467606 0
M  V30 26228 C 2508.11 2.01907 0.0884114 0
M  V30 26229 C 2508.43 1.3519 1.4053 0
M  V30 26230 O 2507.7 0.496112 1.89514 0
M  V30 26231 H 2506.28 0.746148 0.0356634 0
M  V30 26232 H 2508.94 1.84868 -0.617232 0
M  V30 26233 H 2508.03 3.11157 0.242445 0
M  V30 26234 N 2508.34 0.200077 1.56325 0
M  V30 26235 C 2509.3 -0.705094 2.18085 0
M  V30 26236 C 2510.3 -1.13738 1.13668 0
M  V30 26237 O 2511.49 -1.04966 1.39025 0
M  V30 26238 C 2508.62 -1.96324 2.78693 0
M  V30 26239 H 2509.81 -0.16697 2.99435 0
M  V30 26240 H 2507.37 -0.049545 1.56221 0
M  V30 26241 H 2508.1 -2.54376 2.01155 0
M  V30 26242 H 2507.89 -1.66196 3.55136 0
M  V30 26243 H 2509.38 -2.60861 3.261 0
M  V30 26244 N 2509.81 -1.57429 -0.0734901 0
M  V30 26245 C 2510.75 -2.00296 -1.11419 0
M  V30 26246 C 2511.76 -0.90866 -1.35082 0
M  V30 26247 O 2512.95 -1.18656 -1.33353 0
M  V30 26248 C 2510.05 -2.32528 -2.46544 0
M  V30 26249 C 2509.22 -3.63782 -2.42861 0
M  V30 26250 C 2508.28 -3.83704 -3.6008 0
M  V30 26251 O 2507.31 -4.5531 -3.41587 0
M  V30 26252 N 2508.51 -3.25927 -4.80366 0
M  V30 26253 H 2511.27 -2.90186 -0.749155 0
M  V30 26254 H 2508.83 -1.59763 -0.262167 0
M  V30 26255 H 2510.83 -2.4303 -3.23603 0
M  V30 26256 H 2509.4 -1.48536 -2.75056 0
M  V30 26257 H 2508.62 -3.6405 -1.51199 0
M  V30 26258 H 2509.9 -4.49969 -2.37498 0
M  V30 26259 H 2509.3 -2.67803 -4.98295 0
M  V30 26260 H 2507.86 -3.41881 -5.54942 0
M  V30 26261 N 2511.29 0.344839 -1.53781 0
M  V30 26262 C 2512.54 1.08308 -1.70627 0
M  V30 26263 C 2512.86 1.89214 -0.471481 0
M  V30 26264 O 2512.13 1.89021 0.514583 0
M  V30 26265 H 2510.71 0.402848 -0.629065 0
M  V30 26266 H 2513.37 0.386426 -1.91031 0
M  V30 26267 H 2512.47 1.7612 -2.57659 0
M  V30 26268 N 2512.77 1.45492 0.605781 0
M  V30 26269 C 2514.02 1.49603 1.36474 0
M  V30 26270 C 2514.34 0.138486 1.94006 0
M  V30 26271 O 2513.6 -0.863083 1.7564 0
M  V30 26272 C 2513.9 2.52432 2.53007 0
M  V30 26273 C 2513.56 3.97091 2.1361 0
M  V30 26274 C 2512.23 4.3648 2.0258 0
M  V30 26275 C 2514.58 4.88058 1.82891 0
M  V30 26276 C 2511.91 5.64729 1.59054 0
M  V30 26277 C 2514.26 6.1672 1.4085 0
M  V30 26278 C 2512.92 6.55038 1.2838 0
M  V30 26279 H 2512.19 0.547437 0.499393 0
M  V30 26280 H 2514.84 1.78848 0.684515 0
M  V30 26281 H 2513.14 2.16764 3.26375 0
M  V30 26282 H 2514.84 2.5285 3.11236 0
M  V30 26283 H 2511.43 3.65943 2.23122 0
M  V30 26284 H 2515.62 4.58362 1.90309 0
M  V30 26285 H 2510.87 5.93211 1.48023 0
M  V30 26286 H 2515.05 6.8665 1.16126 0
M  V30 26287 H 2512.67 7.54313 0.94427 0
M  V30 26288 N 2514.25 -0.848441 1.32813 0
M  V30 26289 C 2515.21 -1.93908 1.22198 0
M  V30 26290 C 2516.21 -1.60159 0.143432 0
M  V30 26291 O 2517.4 -1.69679 0.394283 0
M  V30 26292 C 2514.53 -3.29327 0.880728 0
M  V30 26293 H 2515.73 -2.04748 2.19131 0
M  V30 26294 H 2513.28 -1.03938 1.16733 0
M  V30 26295 H 2514.01 -3.24185 -0.0865206 0
M  V30 26296 H 2513.8 -3.552 1.66059 0
M  V30 26297 H 2515.29 -4.09249 0.830943 0
M  V30 26298 N 2515.73 -1.16125 -1.06549 0
M  V30 26299 C 2516.69 -0.867944 -2.12131 0
M  V30 26300 C 2517.69 0.135916 -1.60225 0
M  V30 26301 O 2518.88 -0.0946728 -1.73943 0
M  V30 26302 C 2516.01 -0.297479 -3.396 0
M  V30 26303 H 2517.2 -1.80389 -2.39583 0
M  V30 26304 H 2514.76 -0.969834 -1.22572 0
M  V30 26305 H 2515.49 0.646274 -3.17795 0
M  V30 26306 H 2515.28 -1.02079 -3.78579 0
M  V30 26307 H 2516.77 -0.110125 -4.17455 0
M  V30 26308 N 2517.2 1.25039 -0.959323 0
M  V30 26309 C 2518.43 1.97487 -0.633541 0
M  V30 26310 C 2518.85 1.70774 0.788525 0
M  V30 26311 O 2518.21 0.966458 1.53393 0
M  V30 26312 C 2518.26 3.49082 -0.904119 0
M  V30 26313 O 2517.36 4.12397 0.0147214 0
M  V30 26314 H 2516.71 0.618962 -0.240379 0
M  V30 26315 H 2519.24 1.59036 -1.28719 0
M  V30 26316 H 2519.25 3.99421 -0.832273 0
M  V30 26317 H 2517.92 3.67853 -1.94054 0
M  V30 26318 H 2516.5 3.72739 -0.10973 0
M  V30 26319 N 2518.68 0.728444 1.39755 0
M  V30 26320 C 2519.61 0.0991764 2.33289 0
M  V30 26321 C 2520.59 -0.731462 1.5357 0
M  V30 26322 O 2521.78 -0.677775 1.81989 0
M  V30 26323 C 2518.91 -0.813774 3.37631 0
M  V30 26324 C 2517.86 -0.0877911 4.2791 0
M  V30 26325 C 2517.19 -1.11732 5.22896 0
M  V30 26326 C 2518.49 1.06572 5.11312 0
M  V30 26327 H 2520.18 0.880458 2.86161 0
M  V30 26328 H 2517.73 0.424843 1.3759 0
M  V30 26329 H 2519.68 -1.26348 4.02013 0
M  V30 26330 H 2518.41 -1.6271 2.83184 0
M  V30 26331 H 2517.06 0.342223 3.64999 0
M  V30 26332 H 2516.71 -1.92403 4.64747 0
M  V30 26333 H 2516.41 -0.636374 5.84144 0
M  V30 26334 H 2517.94 -1.56686 5.90154 0
M  V30 26335 H 2519.35 0.694771 5.69075 0
M  V30 26336 H 2517.75 1.47587 5.81668 0
M  V30 26337 H 2518.82 1.89046 4.46531 0
M  V30 26338 N 2520.16 -1.50253 0.475581 0
M  V30 26339 C 2521.09 -2.31485 -0.306069 0
M  V30 26340 C 2522.07 -1.38593 -0.986204 0
M  V30 26341 O 2523.26 -1.67512 -0.982511 0
M  V30 26342 C 2520.39 -3.18453 -1.38583 0
M  V30 26343 C 2519.34 -4.19933 -0.827041 0
M  V30 26344 C 2518.67 -4.95668 -2.00542 0
M  V30 26345 C 2519.97 -5.2204 0.164722 0
M  V30 26346 H 2521.66 -2.97081 0.371918 0
M  V30 26347 H 2519.21 -1.42867 0.180307 0
M  V30 26348 H 2521.16 -3.74079 -1.94017 0
M  V30 26349 H 2519.88 -2.50751 -2.09265 0
M  V30 26350 H 2518.54 -3.65414 -0.294637 0
M  V30 26351 H 2518.19 -4.24435 -2.69933 0
M  V30 26352 H 2517.89 -5.64315 -1.63774 0
M  V30 26353 H 2519.41 -5.54131 -2.56459 0
M  V30 26354 H 2520.83 -5.72511 -0.300598 0
M  V30 26355 H 2519.23 -5.98433 0.446918 0
M  V30 26356 H 2520.3 -4.7251 1.08913 0
M  V30 26357 N 2521.64 -0.208365 -1.56217 0
M  V30 26358 C 2523.05 0.147262 -1.58919 0
M  V30 26359 C 2523.25 1.59996 -1.22489 0
M  V30 26360 O 2522.31 2.33789 -0.95389 0
M  V30 26361 C 2523.62 -0.167101 -3.00235 0
M  V30 26362 C 2525.17 -0.108274 -3.12813 0
M  V30 26363 C 2525.65 -0.396129 -4.56284 0
M  V30 26364 N 2527.14 -0.345223 -4.61912 0
M  V30 26365 C 2527.87 -0.541624 -5.70836 0
M  V30 26366 N 2527.37 -0.799089 -6.88176 0
M  V30 26367 N 2529.16 -0.474966 -5.6009 0
M  V30 26368 H 2521.31 -1.15617 -1.78175 0
M  V30 26369 H 2523.58 -0.46246 -0.827547 0
M  V30 26370 H 2523.28 -1.17486 -3.31496 0
M  V30 26371 H 2523.16 0.524118 -3.73541 0
M  V30 26372 H 2525.54 0.890107 -2.81356 0
M  V30 26373 H 2525.62 -0.832771 -2.41865 0
M  V30 26374 H 2525.27 -1.39189 -4.88456 0
M  V30 26375 H 2525.2 0.349409 -5.2544 0
M  V30 26376 H 2527.69 -0.153383 -3.77589 0
M  V30 26377 H 2528 -0.937405 -7.67094 0
M  V30 26378 H 2526.35 -0.836135 -6.89952 0
M  V30 26379 H 2529.54 -0.274146 -4.67297 0
M  V30 26380 H 2529.71 -0.63144 -6.44916 0
M  V30 26381 N 2523.12 1.57465 0.0651402 0
M  V30 26382 C 2524.53 1.53972 0.420078 0
M  V30 26383 C 2524.73 0.929505 1.7878 0
M  V30 26384 O 2523.79 0.534883 2.4677 0
M  V30 26385 C 2525.1 2.98597 0.355032 0
M  V30 26386 C 2526.65 3.09966 0.434738 0
M  V30 26387 C 2527.12 4.56254 0.399529 0
M  V30 26388 N 2528.62 4.60916 0.459407 0
M  V30 26389 C 2529.35 5.71596 0.454484 0
M  V30 26390 N 2528.85 6.91621 0.403981 0
M  V30 26391 N 2530.64 5.59858 0.501537 0
M  V30 26392 H 2522.79 1.95496 -0.830362 0
M  V30 26393 H 2525.05 0.895096 -0.31226 0
M  V30 26394 H 2524.76 3.46827 -0.583418 0
M  V30 26395 H 2524.63 3.58833 1.16269 0
M  V30 26396 H 2527.02 2.61705 1.36361 0
M  V30 26397 H 2527.1 2.52628 -0.401614 0
M  V30 26398 H 2526.75 5.05174 -0.525525 0
M  V30 26399 H 2526.68 5.11463 1.2535 0
M  V30 26400 H 2529.17 3.74545 0.502416 0
M  V30 26401 H 2529.48 7.71742 0.404333 0
M  V30 26402 H 2527.82 6.94011 0.370568 0
M  V30 26403 H 2531.02 4.6499 0.538731 0
M  V30 26404 H 2531.19 6.46112 0.494231 0
M  V30 26405 N 2524.59 -0.336679 1.53962 0
M  V30 26406 C 2525.82 -1.09443 1.75231 0
M  V30 26407 C 2526.23 -1.8262 0.494634 0
M  V30 26408 O 2525.58 -1.75469 -0.543734 0
M  V30 26409 C 2525.64 -2.14775 2.88292 0
M  V30 26410 C 2525.3 -1.61113 4.27658 0
M  V30 26411 C 2526.3 -1.05981 5.08983 0
M  V30 26412 C 2523.98 -1.65752 4.74164 0
M  V30 26413 C 2525.98 -0.562017 6.34917 0
M  V30 26414 C 2523.66 -1.15585 6.0007 0
M  V30 26415 C 2524.66 -0.609028 6.80279 0
M  V30 26416 O 2524.35 -0.114858 8.03818 0
M  V30 26417 H 2524.08 -0.331946 0.588887 0
M  V30 26418 H 2526.64 -0.39253 2.01614 0
M  V30 26419 H 2524.87 -2.88543 2.57448 0
M  V30 26420 H 2526.56 -2.76168 2.97466 0
M  V30 26421 H 2527.32 -1.01714 4.74214 0
M  V30 26422 H 2523.2 -2.07253 4.11785 0
M  V30 26423 H 2526.74 -0.134545 6.9747 0
M  V30 26424 H 2522.64 -1.19555 6.34332 0
M  V30 26425 H 2523.41 -0.231507 8.18173 0
M  V30 26426 N 2526.07 -1.45812 -0.598057 0
M  V30 26427 C 2527.32 -1.50325 -1.35678 0
M  V30 26428 C 2527.65 -0.148773 -1.9393 0
M  V30 26429 O 2526.9 0.853756 -1.76095 0
M  V30 26430 C 2527.2 -2.53771 -2.51665 0
M  V30 26431 C 2526.87 -3.98218 -2.11501 0
M  V30 26432 C 2525.53 -4.37548 -2.00262 0
M  V30 26433 C 2527.88 -4.89021 -1.803 0
M  V30 26434 C 2525.21 -5.65564 -1.56057 0
M  V30 26435 C 2527.56 -6.17459 -1.37578 0
M  V30 26436 C 2526.23 -6.5571 -1.24904 0
M  V30 26437 H 2525.5 -0.550078 -0.496483 0
M  V30 26438 H 2528.14 -1.79209 -0.67502 0
M  V30 26439 H 2526.45 -2.18491 -3.25221 0
M  V30 26440 H 2528.14 -2.54497 -3.0989 0
M  V30 26441 H 2524.73 -3.67121 -2.21179 0
M  V30 26442 H 2528.92 -4.59365 -1.87876 0
M  V30 26443 H 2524.17 -5.93988 -1.44875 0
M  V30 26444 H 2528.35 -6.87256 -1.12483 0
M  V30 26445 H 2525.98 -7.54803 -0.904254 0
M  V30 26446 N 2527.55 0.841385 -1.33261 0
M  V30 26447 C 2528.78 1.62861 -1.27608 0
M  V30 26448 C 2529.19 1.88175 0.153474 0
M  V30 26449 O 2528.55 1.46013 1.09482 0
M  V30 26450 C 2528.6 2.98028 -2.04602 0
M  V30 26451 O 2528.32 2.73828 -3.4198 0
M  V30 26452 C 2529.82 3.92461 -2.06129 0
M  V30 26453 H 2527.04 0.506834 -0.439727 0
M  V30 26454 H 2529.59 1.04821 -1.75593 0
M  V30 26455 H 2527.74 3.52677 -1.60305 0
M  V30 26456 H 2528.16 3.59883 -3.81556 0
M  V30 26457 H 2529.63 4.84526 -2.64459 0
M  V30 26458 H 2530.11 4.26442 -1.0509 0
M  V30 26459 H 2530.71 3.43749 -2.50433 0
M  V30 26460 N 2529.03 1.16688 1.05932 0
M  V30 26461 C 2529.99 0.879181 2.11667 0
M  V30 26462 C 2530.99 -0.127417 1.60294 0
M  V30 26463 O 2532.18 0.103896 1.7389 0
M  V30 26464 C 2529.31 0.315485 3.39437 0
M  V30 26465 H 2530.51 1.81657 2.38623 0
M  V30 26466 H 2528.06 0.976321 1.22056 0
M  V30 26467 H 2528.8 -0.629412 3.18133 0
M  V30 26468 H 2528.58 1.04085 3.78033 0
M  V30 26469 H 2530.07 0.132262 4.1739 0
M  V30 26470 N 2530.51 -1.24529 0.96594 0
M  V30 26471 C 2531.42 -2.29162 0.502194 0
M  V30 26472 C 2532.43 -1.68449 -0.435987 0
M  V30 26473 O 2533.61 -1.99008 -0.309462 0
M  V30 26474 C 2530.67 -3.46112 -0.201895 0
M  V30 26475 C 2529.74 -4.2223 0.775895 0
M  V30 26476 C 2528.97 -5.33596 0.105311 0
M  V30 26477 O 2529.19 -5.5956 -1.10674 0
M  V30 26478 O 2528.13 -5.96606 0.796579 0
M  V30 26479 H 2531.95 -2.70943 1.37199 0
M  V30 26480 H 2529.54 -1.30188 0.732898 0
M  V30 26481 H 2531.42 -4.17143 -0.59749 0
M  V30 26482 H 2530.09 -3.06311 -1.04668 0
M  V30 26483 H 2529 -3.53582 1.22191 0
M  V30 26484 H 2530.33 -4.65844 1.58904 0
M  V30 26485 N 2531.99 -0.735845 -1.39367 0
M  V30 26486 C 2532.92 -0.0568126 -2.2913 0
M  V30 26487 C 2533.93 0.702563 -1.4686 0
M  V30 26488 O 2535.12 0.546586 -1.69926 0
M  V30 26489 C 2532.22 0.943765 -3.25494 0
M  V30 26490 C 2531.39 0.245734 -4.36709 0
M  V30 26491 C 2530.45 1.15454 -5.13378 0
M  V30 26492 O 2529.48 0.631704 -5.65684 0
M  V30 26493 N 2530.68 2.48418 -5.24661 0
M  V30 26494 H 2533.44 -0.827633 -2.88046 0
M  V30 26495 H 2531.01 -0.585138 -1.50956 0
M  V30 26496 H 2533 1.55437 -3.7366 0
M  V30 26497 H 2531.57 1.61579 -2.67602 0
M  V30 26498 H 2530.79 -0.545355 -3.90409 0
M  V30 26499 H 2532.08 -0.23798 -5.08243 0
M  V30 26500 H 2531.47 2.93371 -4.83684 0
M  V30 26501 H 2530.03 3.04572 -5.76263 0
M  V30 26502 N 2533.46 1.49999 -0.483543 0
M  V30 26503 C 2534.71 2.01989 0.0669915 0
M  V30 26504 C 2535.03 1.36673 1.39088 0
M  V30 26505 O 2534.3 0.516185 1.88977 0
M  V30 26506 H 2532.88 0.746484 0.0277475 0
M  V30 26507 H 2535.54 1.84203 -0.636805 0
M  V30 26508 H 2534.64 3.11397 0.209429 0
M  V30 26509 N 2534.94 0.216646 1.56104 0
M  V30 26510 C 2535.87 -0.727722 2.1734 0
M  V30 26511 C 2536.89 -1.16114 1.14111 0
M  V30 26512 O 2538.08 -1.09314 1.41112 0
M  V30 26513 C 2535.18 -1.99688 2.73821 0
M  V30 26514 C 2534.35 -1.71981 4.02171 0
M  V30 26515 C 2533.41 -2.83554 4.43264 0
M  V30 26516 O 2532.43 -2.52235 5.10261 0
M  V30 26517 N 2533.64 -4.124 4.08542 0
M  V30 26518 H 2536.4 -0.20393 2.99005 0
M  V30 26519 H 2533.96 0.0354574 1.61861 0
M  V30 26520 H 2535.95 -2.73511 2.98285 0
M  V30 26521 H 2534.52 -2.43128 1.96487 0
M  V30 26522 H 2533.74 -0.818269 3.85614 0
M  V30 26523 H 2535.03 -1.50894 4.8591 0
M  V30 26524 H 2534.43 -4.4069 3.54695 0
M  V30 26525 H 2532.99 -4.82782 4.3791 0
M  V30 26526 N 2536.42 -1.57498 -0.0567885 0
M  V30 26527 C 2537.67 -1.87159 -0.751968 0
M  V30 26528 C 2537.98 -0.811406 -1.77976 0
M  V30 26529 O 2539.19 -0.996338 -2.52558 0
M  V30 26530 C 2537.64 -3.32042 -1.38838 0
M  V30 26531 C 2537.25 -4.46225 -0.398377 0
M  V30 26532 C 2539 -3.70885 -2.06505 0
M  V30 26533 C 2536.9 -5.82156 -1.04156 0
M  V30 26534 H 2535.83 -0.698227 -0.284597 0
M  V30 26535 H 2538.48 -1.83499 -0.00558046 0
M  V30 26536 H 2536.87 -3.3036 -2.18354 0
M  V30 26537 H 2538.04 -4.59328 0.368058 0
M  V30 26538 H 2536.35 -4.16034 0.174665 0
M  V30 26539 H 2538.95 -4.69745 -2.55429 0
M  V30 26540 H 2539.29 -3.0145 -2.87112 0
M  V30 26541 H 2539.83 -3.74623 -1.33801 0
M  V30 26542 H 2536.57 -6.54921 -0.275498 0
M  V30 26543 H 2536.09 -5.72826 -1.7785 0
M  V30 26544 H 2537.77 -6.27985 -1.55704 0
M  V30 26545 N 2537.9 0.328509 -1.54138 0
M  V30 26546 C 2538.81 1.4272 -1.86194 0
M  V30 26547 C 2539.82 1.56843 -0.753409 0
M  V30 26548 O 2541 1.72033 -1.04721 0
M  V30 26549 C 2538.06 2.77503 -2.07829 0
M  V30 26550 C 2537.13 2.72598 -3.31646 0
M  V30 26551 C 2536.36 4.00953 -3.52239 0
M  V30 26552 O 2536.58 4.98975 -2.76369 0
M  V30 26553 O 2535.52 4.04512 -4.45706 0
M  V30 26554 H 2539.34 1.18542 -2.7961 0
M  V30 26555 H 2536.93 0.522079 -1.39981 0
M  V30 26556 H 2538.81 3.57299 -2.23417 0
M  V30 26557 H 2537.48 3.01582 -1.17601 0
M  V30 26558 H 2536.39 1.9137 -3.21447 0
M  V30 26559 H 2537.72 2.53473 -4.21915 0
M  V30 26560 N 2539.38 1.46127 0.590316 0
M  V30 26561 C 2540.61 1.54375 1.37302 0
M  V30 26562 C 2541.01 0.181104 1.88331 0
M  V30 26563 O 2540.36 -0.83053 1.63853 0
M  V30 26564 C 2540.42 2.48154 2.60115 0
M  V30 26565 C 2540.08 3.9455 2.30606 0
M  V30 26566 C 2541.08 4.83975 1.89907 0
M  V30 26567 C 2538.76 4.39618 2.42985 0
M  V30 26568 C 2540.76 6.16477 1.6197 0
M  V30 26569 C 2538.45 5.72157 2.14662 0
M  V30 26570 C 2539.44 6.60407 1.74218 0
M  V30 26571 O 2539.13 7.90487 1.46237 0
M  V30 26572 H 2538.86 0.524818 0.426077 0
M  V30 26573 H 2541.42 1.92166 0.725356 0
M  V30 26574 H 2539.65 2.05366 3.27661 0
M  V30 26575 H 2541.34 2.46893 3.22178 0
M  V30 26576 H 2542.1 4.50415 1.79864 0
M  V30 26577 H 2537.98 3.71158 2.73428 0
M  V30 26578 H 2541.53 6.85318 1.30329 0
M  V30 26579 H 2537.42 6.05267 2.24326 0
M  V30 26580 H 2538.19 8.0268 1.60146 0
M  V30 26581 N 2540.85 -0.834306 1.33705 0
M  V30 26582 C 2542.1 -1.58481 1.24766 0
M  V30 26583 C 2542.42 -1.94735 -0.183741 0
M  V30 26584 O 2543.62 -2.68608 -0.395187 0
M  V30 26585 C 2542.08 -2.85872 2.18643 0
M  V30 26586 C 2541.69 -2.56965 3.66978 0
M  V30 26587 C 2543.43 -3.63895 2.18587 0
M  V30 26588 C 2541.34 -3.8048 4.52757 0
M  V30 26589 H 2540.27 -0.594764 0.463435 0
M  V30 26590 H 2542.92 -0.919523 1.58799 0
M  V30 26591 H 2541.3 -3.53967 1.77549 0
M  V30 26592 H 2542.47 -1.97053 4.16541 0
M  V30 26593 H 2540.79 -1.92238 3.69369 0
M  V30 26594 H 2543.39 -4.55586 2.79902 0
M  V30 26595 H 2543.73 -3.99163 1.18214 0
M  V30 26596 H 2544.26 -3.02731 2.58068 0
M  V30 26597 H 2541 -3.5034 5.54023 0
M  V30 26598 H 2540.52 -4.39715 4.07935 0
M  V30 26599 H 2542.2 -4.48012 4.66792 0
M  V30 26600 N 2542.33 -1.17248 -1.05312 0
M  V30 26601 C 2543.24 -0.902718 -2.16537 0
M  V30 26602 C 2544.26 0.128676 -1.73524 0
M  V30 26603 O 2545.43 -0.0503055 -2.01337 0
M  V30 26604 C 2542.5 -0.418417 -3.44166 0
M  V30 26605 C 2541.56 -1.51625 -4.01632 0
M  V30 26606 C 2540.79 -1.05497 -5.23169 0
M  V30 26607 O 2541.02 0.0913713 -5.70327 0
M  V30 26608 O 2539.95 -1.8475 -5.72845 0
M  V30 26609 H 2543.78 -1.83306 -2.42141 0
M  V30 26610 H 2541.36 -0.953267 -1.15036 0
M  V30 26611 H 2543.24 -0.1558 -4.21112 0
M  V30 26612 H 2541.92 0.483794 -3.20064 0
M  V30 26613 H 2540.82 -1.83273 -3.26131 0
M  V30 26614 H 2542.16 -2.39413 -4.30049 0
M  V30 26615 N 2543.81 1.24015 -0.972531 0
M  V30 26616 C 2544.76 2.25185 -0.506009 0
M  V30 26617 C 2545.73 1.5986 0.450981 0
M  V30 26618 O 2546.91 1.87368 0.360274 0
M  V30 26619 C 2544.05 3.4456 0.193028 0
M  V30 26620 C 2543.17 4.24466 -0.803296 0
M  V30 26621 C 2542.3 5.3114 -0.0798726 0
M  V30 26622 C 2541.34 6.02747 -1.06594 0
M  V30 26623 N 2540.48 7.01113 -0.372197 0
M  V30 26624 H 2545.32 2.64457 -1.37356 0
M  V30 26625 H 2542.85 1.29996 -0.688442 0
M  V30 26626 H 2544.81 4.12641 0.615052 0
M  V30 26627 H 2543.44 3.06111 1.0245 0
M  V30 26628 H 2542.49 3.55876 -1.34374 0
M  V30 26629 H 2543.81 4.73941 -1.55502 0
M  V30 26630 H 2542.96 6.05381 0.399908 0
M  V30 26631 H 2541.7 4.82585 0.704512 0
M  V30 26632 H 2540.7 5.27306 -1.55655 0
M  V30 26633 H 2541.93 6.53391 -1.85085 0
M  V30 26634 H 2539.87 6.54821 0.393123 0
M  V30 26635 H 2539.79 7.48494 -1.06271 0
M  V30 26636 H 2541.06 7.79453 0.0854562 0
M  V30 26637 N 2545.29 0.743226 1.38974 0
M  V30 26638 C 2546.51 0.303972 2.0516 0
M  V30 26639 C 2546.94 -1.05573 1.55679 0
M  V30 26640 O 2546.3 -1.67067 0.704161 0
M  V30 26641 C 2546.34 0.324437 3.59138 0
M  V30 26642 O 2545.45 -0.685132 4.06669 0
M  V30 26643 H 2544.79 0.136529 0.649812 0
M  V30 26644 H 2547.32 1.01145 1.77851 0
M  V30 26645 H 2547.33 0.171689 4.07639 0
M  V30 26646 H 2546 1.31654 3.94512 0
M  V30 26647 H 2544.58 -0.497848 3.69562 0
M  V30 26648 N 2546.77 -1.4974 0.491491 0
M  V30 26649 C 2547.71 -2.28946 -0.291986 0
M  V30 26650 C 2548.68 -1.3491 -0.968949 0
M  V30 26651 O 2549.87 -1.63861 -0.977452 0
M  V30 26652 C 2547.01 -3.17338 -1.35611 0
M  V30 26653 C 2546.12 -4.26423 -0.691882 0
M  V30 26654 C 2545.26 -5.02045 -1.73563 0
M  V30 26655 C 2544.3 -6.02979 -1.05276 0
M  V30 26656 N 2543.43 -6.71801 -2.04028 0
M  V30 26657 H 2548.27 -2.95441 0.389706 0
M  V30 26658 H 2545.81 -1.45678 0.204029 0
M  V30 26659 H 2547.77 -3.66954 -1.98495 0
M  V30 26660 H 2546.4 -2.52847 -2.00669 0
M  V30 26661 H 2545.45 -3.80367 0.0500192 0
M  V30 26662 H 2546.76 -4.98563 -0.153858 0
M  V30 26663 H 2545.92 -5.55482 -2.43977 0
M  V30 26664 H 2544.65 -4.29658 -2.3075 0
M  V30 26665 H 2543.66 -5.48782 -0.33435 0
M  V30 26666 H 2544.88 -6.77348 -0.487517 0
M  V30 26667 H 2542.83 -6.02192 -2.60194 0
M  V30 26668 H 2542.75 -7.39884 -1.55266 0
M  V30 26669 H 2544.02 -7.29847 -2.73759 0
M  V30 26670 N 2548.24 -0.224922 -1.55987 0
M  V30 26671 C 2549.52 0.455049 -1.90233 0
M  V30 26672 C 2549.9 1.77497 -1.14272 0
M  V30 26673 O 2549.25 2.27094 -0.253119 0
M  V30 26674 C 2549.46 0.644698 -3.42994 0
M  V30 26675 C 2550.81 0.950596 -4.13822 0
M  V30 26676 O 2551.83 0.731362 -3.48611 0
M  V30 26677 O 2550.69 1.36685 -5.29131 0
M  V30 26678 H 2547.78 0.24107 -0.791084 0
M  V30 26679 H 2550.33 -0.267357 -1.67581 0
M  V30 26680 H 2549.1 -0.286199 -3.90252 0
M  V30 26681 H 2548.73 1.41847 -3.71437 0
M  V30 26682 N 2549.72 1.57526 0.0484352 0
M  V30 26683 C 2550.69 2.04271 1.03952 0
M  V30 26684 C 2551.69 0.943519 1.30209 0
M  V30 26685 O 2552.88 1.20773 1.25537 0
M  V30 26686 C 2550.01 2.44323 2.37737 0
M  V30 26687 H 2551.2 2.93076 0.63613 0
M  V30 26688 H 2548.75 1.53495 0.294784 0
M  V30 26689 H 2549.49 1.58615 2.82863 0
M  V30 26690 H 2549.27 3.24555 2.20015 0
M  V30 26691 H 2550.76 2.80983 3.08931 0
M  V30 26692 N 2551.2 -0.32033 1.5431 0
M  V30 26693 C 2552.45 -1.0558 1.72329 0
M  V30 26694 C 2552.77 -1.8844 0.501523 0
M  V30 26695 O 2552.04 -1.89816 -0.484446 0
M  V30 26696 H 2550.62 -0.392789 0.635394 0
M  V30 26697 H 2553.28 -0.355986 1.91621 0
M  V30 26698 H 2552.38 -1.71998 2.60429 0
M  V30 26699 N 2552.68 -1.46438 -0.582558 0
M  V30 26700 C 2553.91 -1.55101 -1.36481 0
M  V30 26701 C 2554.32 -0.191089 -1.88233 0
M  V30 26702 O 2553.66 0.821829 -1.64291 0
M  V30 26703 C 2553.72 -2.4953 -2.58796 0
M  V30 26704 C 2553.39 -3.95768 -2.2851 0
M  V30 26705 C 2554.38 -4.84975 -1.87337 0
M  V30 26706 C 2552.07 -4.409 -2.4065 0
M  V30 26707 C 2554.06 -6.17328 -1.58699 0
M  V30 26708 C 2551.75 -5.73287 -2.11625 0
M  V30 26709 C 2552.75 -6.61321 -1.70714 0
M  V30 26710 O 2552.43 -7.91251 -1.42043 0
M  V30 26711 H 2552.17 -0.527071 -0.423288 0
M  V30 26712 H 2554.72 -1.92548 -0.715155 0
M  V30 26713 H 2552.95 -2.07101 -3.26567 0
M  V30 26714 H 2554.64 -2.48598 -3.20864 0
M  V30 26715 H 2555.41 -4.51363 -1.77473 0
M  V30 26716 H 2551.28 -3.72602 -2.71456 0
M  V30 26717 H 2554.83 -6.85999 -1.26692 0
M  V30 26718 H 2550.73 -6.06448 -2.21113 0
M  V30 26719 H 2551.49 -8.03518 -1.55887 0
M  V30 26720 N 2554.16 0.827204 -1.34146 0
M  V30 26721 C 2555.57 1.39964 -1.23559 0
M  V30 26722 C 2555.92 1.95695 0.140697 0
M  V30 26723 O 2555.04 1.89725 1.04084 0
M  V30 26724 C 2555.64 2.54437 -2.23712 0
M  V30 26725 C 2554.2 3.07601 -2.1693 0
M  V30 26726 C 2553.34 1.80452 -2.10552 0
M  V30 26727 H 2556.3 0.631965 -1.45574 0
M  V30 26728 H 2556.32 3.32408 -1.85163 0
M  V30 26729 H 2555.83 2.13845 -3.2387 0
M  V30 26730 H 2553.93 3.52709 -1.20113 0
M  V30 26731 H 2554.04 3.66982 -3.07995 0
M  V30 26732 H 2552.41 2.01175 -1.56207 0
M  V30 26733 H 2553.19 1.4204 -3.12537 0
M  V30 26734 N 2555.63 1.17805 1.04688 0
M  V30 26735 C 2556.88 0.971 1.78043 0
M  V30 26736 C 2557.21 -0.498718 1.87687 0
M  V30 26737 O 2556.49 -1.37025 1.38038 0
M  V30 26738 C 2556.77 1.6189 3.21658 0
M  V30 26739 C 2556.62 3.16106 3.19995 0
M  V30 26740 C 2557.94 1.32698 4.19618 0
M  V30 26741 H 2555.06 0.354167 0.646324 0
M  V30 26742 H 2557.7 1.4538 1.22331 0
M  V30 26743 H 2555.85 1.20838 3.6923 0
M  V30 26744 H 2557.53 3.66251 2.80461 0
M  V30 26745 H 2555.77 3.48592 2.58197 0
M  V30 26746 H 2556.44 3.56571 4.2138 0
M  V30 26747 H 2558.92 1.68256 3.80564 0
M  V30 26748 H 2557.79 1.80608 5.18336 0
M  V30 26749 H 2558.05 0.248699 4.414 0
M  V30 26750 N 2557.11 -1.23497 0.979094 0
M  V30 26751 C 2558.36 -1.91184 0.642784 0
M  V30 26752 C 2558.67 -1.77247 -0.827222 0
M  V30 26753 O 2559.88 -2.39724 -1.27454 0
M  V30 26754 C 2558.34 -3.42707 1.09907 0
M  V30 26755 C 2557.94 -3.65309 2.59333 0
M  V30 26756 C 2559.69 -4.16178 0.836444 0
M  V30 26757 C 2557.6 -5.10461 2.98636 0
M  V30 26758 H 2556.53 -0.71588 0.236711 0
M  V30 26759 H 2559.18 -1.39953 1.18682 0
M  V30 26760 H 2557.56 -3.9304 0.483259 0
M  V30 26761 H 2558.73 -3.25528 3.26142 0
M  V30 26762 H 2557.05 -3.05146 2.83328 0
M  V30 26763 H 2559.64 -5.23137 1.10595 0
M  V30 26764 H 2559.99 -4.15678 -0.227436 0
M  V30 26765 H 2560.52 -3.7183 1.41377 0
M  V30 26766 H 2557.26 -5.16091 4.04142 0
M  V30 26767 H 2556.78 -5.51197 2.3652 0
M  V30 26768 H 2558.46 -5.78783 2.89169 0
M  V30 26769 N 2558.59 -0.750586 -1.38578 0
M  V30 26770 C 2559.54 -0.110203 -2.32339 0
M  V30 26771 C 2560.53 0.708647 -1.53865 0
M  V30 26772 O 2561.74 0.608082 -1.69418 0
M  V30 26773 H 2558.11 -0.0168407 -0.751811 0
M  V30 26774 H 2560.09 -0.917102 -2.83957 0
M  V30 26775 C 2558.83 0.771007 -3.39044 0
M  V30 26776 H 2558.16 0.150304 -3.99517 0
M  V30 26777 H 2559.6 1.18642 -4.07063 0
M  V30 26778 C 2558.06 1.91229 -2.77368 0
M  V30 26779 O 2558.59 3.00621 -2.66439 0
M  V30 26780 N 2556.79 1.70642 -2.35222 0
M  V30 26781 H 2556.34 0.816687 -2.44311 0
M  V30 26782 H 2556.3 2.47175 -1.94298 0
M  V30 26783 N 2560.07 1.49477 -0.499425 0
M  V30 26784 C 2561.03 2.27618 0.268798 0
M  V30 26785 C 2562.03 1.33566 0.89536 0
M  V30 26786 O 2563.22 1.5674 0.760136 0
M  V30 26787 C 2560.35 3.11474 1.38553 0
M  V30 26788 H 2561.55 2.96989 -0.416865 0
M  V30 26789 H 2559.1 1.54217 -0.254341 0
M  V30 26790 H 2559.84 2.46665 2.10539 0
M  V30 26791 H 2559.62 3.80623 0.94173 0
M  V30 26792 H 2561.11 3.70496 1.92671 0
M  V30 26793 N 2561.55 0.233191 1.55865 0
M  V30 26794 C 2562.96 -0.272521 1.847 0
M  V30 26795 C 2563.31 -1.58615 1.1548 0
M  V30 26796 O 2562.43 -2.12116 0.428447 0
M  V30 26797 C 2563.03 -0.50124 3.35072 0
M  V30 26798 C 2561.59 -0.95124 3.64182 0
M  V30 26799 C 2560.74 -0.0207721 2.77292 0
M  V30 26800 H 2563.69 0.456101 1.52005 0
M  V30 26801 H 2563.71 -1.34571 3.55909 0
M  V30 26802 H 2563.22 0.455004 3.85424 0
M  V30 26803 H 2561.32 -1.92043 3.19296 0
M  V30 26804 H 2561.43 -0.817592 4.72072 0
M  V30 26805 H 2559.8 -0.529679 2.49131 0
M  V30 26806 H 2560.58 0.930599 3.30446 0
M  V30 26807 N 2563.03 -1.57549 -0.0400806 0
M  V30 26808 C 2564.25 -1.93015 -0.745162 0
M  V30 26809 C 2564.67 -0.832013 -1.69479 0
M  V30 26810 O 2564.03 0.192431 -1.81483 0
M  V30 26811 C 2564.08 -3.28375 -1.5117 0
M  V30 26812 O 2563.8 -4.33969 -0.600207 0
M  V30 26813 C 2565.3 -3.78055 -2.31494 0
M  V30 26814 H 2562.52 -0.637267 -0.210077 0
M  V30 26815 H 2565.06 -2.045 -0.000888743 0
M  V30 26816 H 2563.22 -3.18321 -2.20795 0
M  V30 26817 H 2563.63 -5.12037 -1.1366 0
M  V30 26818 H 2565.11 -4.75308 -2.80689 0
M  V30 26819 H 2565.58 -3.08681 -3.1243 0
M  V30 26820 H 2566.19 -3.91156 -1.66964 0
M  V30 26821 N 2564.5 0.312142 -1.54478 0
M  V30 26822 C 2565.44 1.40595 -1.81013 0
M  V30 26823 C 2566.45 1.47334 -0.692572 0
M  V30 26824 O 2567.64 1.49852 -0.969873 0
M  V30 26825 C 2564.74 2.79051 -1.92312 0
M  V30 26826 C 2563.91 2.95378 -3.22599 0
M  V30 26827 C 2562.97 4.14264 -3.24455 0
M  V30 26828 O 2562 4.0688 -3.98042 0
M  V30 26829 N 2563.2 5.2436 -2.49052 0
M  V30 26830 H 2565.96 1.18192 -2.7541 0
M  V30 26831 H 2563.52 0.502175 -1.53915 0
M  V30 26832 H 2565.52 3.5681 -1.90968 0
M  V30 26833 H 2564.09 2.94452 -1.0496 0
M  V30 26834 H 2563.31 2.04825 -3.36809 0
M  V30 26835 H 2564.59 3.03191 -4.08599 0
M  V30 26836 H 2563.99 5.33237 -1.88877 0
M  V30 26837 H 2562.55 6.00495 -2.53473 0
M  V30 26838 N 2565.98 1.46745 0.574784 0
M  V30 26839 C 2567.21 1.56049 1.35854 0
M  V30 26840 C 2567.62 0.204398 1.8769 0
M  V30 26841 O 2566.98 -0.799601 1.64051 0
M  V30 26842 C 2567.03 2.57168 2.54061 0
M  V30 26843 O 2566.75 3.8751 2.04371 0
M  V30 26844 C 2568.25 2.76489 3.4651 0
M  V30 26845 H 2565.47 0.527473 0.414744 0
M  V30 26846 H 2568.02 1.92219 0.698001 0
M  V30 26847 H 2566.17 2.2398 3.16088 0
M  V30 26848 H 2566.59 4.42615 2.81411 0
M  V30 26849 H 2568.06 3.51145 4.25912 0
M  V30 26850 H 2568.54 1.83678 3.98947 0
M  V30 26851 H 2569.14 3.10804 2.90312 0
M  V30 26852 N 2567.46 -0.820078 1.34583 0
M  V30 26853 C 2568.41 -1.93115 1.26393 0
M  V30 26854 C 2569.38 -1.65521 0.138583 0
M  V30 26855 O 2570.56 -1.88097 0.320037 0
M  V30 26856 C 2567.7 -3.29427 1.02818 0
M  V30 26857 C 2566.81 -3.69296 2.24153 0
M  V30 26858 C 2565.95 -4.94571 1.93838 0
M  V30 26859 C 2564.99 -5.27028 3.113 0
M  V30 26860 N 2564.13 -6.43481 2.80849 0
M  V30 26861 H 2568.97 -1.99451 2.21412 0
M  V30 26862 H 2566.5 -0.975765 1.10078 0
M  V30 26863 H 2568.46 -4.07988 0.87186 0
M  V30 26864 H 2567.09 -3.22596 0.114669 0
M  V30 26865 H 2566.14 -2.86105 2.50696 0
M  V30 26866 H 2567.45 -3.89251 3.11905 0
M  V30 26867 H 2566.61 -5.80926 1.74958 0
M  V30 26868 H 2565.35 -4.76624 1.03349 0
M  V30 26869 H 2564.35 -4.3917 3.30772 0
M  V30 26870 H 2565.58 -5.46913 4.0257 0
M  V30 26871 H 2563.52 -6.26985 1.9294 0
M  V30 26872 H 2563.44 -6.63622 3.62134 0
M  V30 26873 H 2564.71 -7.32899 2.6548 0
M  V30 26874 N 2568.94 -1.18359 -1.04062 0
M  V30 26875 C 2569.87 -0.93415 -2.14 0
M  V30 26876 C 2570.85 0.128156 -1.69617 0
M  V30 26877 O 2572.03 -0.0244434 -1.94185 0
M  V30 26878 C 2569.16 -0.459127 -3.44252 0
M  V30 26879 C 2568.12 -1.46192 -4.02258 0
M  V30 26880 C 2567.44 -0.844415 -5.2799 0
M  V30 26881 C 2568.74 -2.83864 -4.38427 0
M  V30 26882 H 2570.44 -1.85356 -2.35124 0
M  V30 26883 H 2567.98 -0.892624 -1.12997 0
M  V30 26884 H 2569.94 -0.271981 -4.20521 0
M  V30 26885 H 2568.66 0.495856 -3.22814 0
M  V30 26886 H 2567.32 -1.63601 -3.28071 0
M  V30 26887 H 2566.97 0.117756 -5.02862 0
M  V30 26888 H 2566.67 -1.51394 -5.67762 0
M  V30 26889 H 2568.19 -0.6678 -6.06937 0
M  V30 26890 H 2569.61 -2.70107 -5.05683 0
M  V30 26891 H 2568 -3.475 -4.89248 0
M  V30 26892 H 2569.07 -3.37412 -3.48254 0
M  V30 26893 N 2570.42 1.22976 -0.98563 0
M  V30 26894 C 2571.33 2.28334 -0.538588 0
M  V30 26895 C 2572.34 1.69122 0.409134 0
M  V30 26896 O 2573.52 1.99475 0.277762 0
M  V30 26897 C 2570.58 3.46389 0.146807 0
M  V30 26898 C 2569.64 4.20942 -0.84297 0
M  V30 26899 C 2568.88 5.33361 -0.190188 0
M  V30 26900 O 2569.1 5.6125 1.01757 0
M  V30 26901 O 2568.03 5.95263 -0.891393 0
M  V30 26902 H 2571.86 2.68726 -1.41492 0
M  V30 26903 H 2569.44 1.29006 -0.753517 0
M  V30 26904 H 2571.33 4.1804 0.531051 0
M  V30 26905 H 2570 3.07937 0.997817 0
M  V30 26906 H 2568.91 3.51593 -1.27801 0
M  V30 26907 H 2570.24 4.63257 -1.66295 0
M  V30 26908 N 2571.89 0.757924 1.38178 0
M  V30 26909 C 2573.3 0.383166 1.82726 0
M  V30 26910 C 2573.66 -1.08881 1.63216 0
M  V30 26911 O 2572.78 -1.84203 1.1357 0
M  V30 26912 C 2573.38 0.688689 3.31727 0
M  V30 26913 C 2571.93 0.367157 3.74605 0
M  V30 26914 C 2571.08 0.939645 2.60895 0
M  V30 26915 H 2574.03 0.953721 1.26846 0
M  V30 26916 H 2574.05 -0.0315823 3.80487 0
M  V30 26917 H 2573.57 1.76007 3.45895 0
M  V30 26918 H 2571.67 -0.697468 3.66014 0
M  V30 26919 H 2571.78 0.865741 4.71213 0
M  V30 26920 H 2570.14 0.364745 2.52075 0
M  V30 26921 H 2570.93 2.01615 2.7786 0
M  V30 26922 N 2573.37 -1.4921 0.507345 0
M  V30 26923 C 2574.6 -2.07373 -0.0336885 0
M  V30 26924 C 2575.02 -1.3644 -1.29483 0
M  V30 26925 O 2574.38 -0.423118 -1.76294 0
M  V30 26926 C 2574.43 -3.59633 -0.263882 0
M  V30 26927 O 2573.53 -3.90115 -1.33731 0
M  V30 26928 H 2572.87 -0.663364 0.0290447 0
M  V30 26929 H 2575.4 -1.91931 0.708783 0
M  V30 26930 H 2575.41 -4.05005 -0.493464 0
M  V30 26931 H 2574.09 -4.1067 0.657496 0
M  V30 26932 H 2572.67 -3.56547 -1.09217 0
M  V30 26933 N 2574.85 -0.241454 -1.55739 0
M  V30 26934 C 2576.1 0.385371 -1.99105 0
M  V30 26935 C 2576.43 1.57986 -1.12933 0
M  V30 26936 O 2575.7 1.93555 -0.191483 0
M  V30 26937 C 2575.99 0.800554 -3.51089 0
M  V30 26938 C 2575.84 -0.398953 -4.48027 0
M  V30 26939 C 2577.16 1.64952 -4.08018 0
M  V30 26940 H 2574.28 0.138601 -0.72385 0
M  V30 26941 H 2576.92 -0.341675 -1.86903 0
M  V30 26942 H 2575.07 1.42003 -3.61618 0
M  V30 26943 H 2576.74 -1.03734 -4.49485 0
M  V30 26944 H 2574.99 -1.043 -4.21075 0
M  V30 26945 H 2575.66 -0.0652026 -5.51961 0
M  V30 26946 H 2578.13 1.12665 -4.00557 0
M  V30 26947 H 2577.01 1.90889 -5.14638 0
M  V30 26948 H 2577.27 2.61955 -3.56135 0
M  V30 26949 N 2576.33 1.57568 0.0317248 0
M  V30 26950 C 2577.58 1.89151 0.723071 0
M  V30 26951 C 2577.9 0.838408 1.75502 0
M  V30 26952 O 2577.16 -0.160948 1.95037 0
M  V30 26953 C 2577.46 3.27475 1.43161 0
M  V30 26954 C 2577.12 4.47704 0.535893 0
M  V30 26955 C 2575.79 4.8033 0.289178 0
M  V30 26956 C 2578.14 5.21134 -0.0827041 0
M  V30 26957 C 2575.47 5.83777 -0.584956 0
M  V30 26958 C 2577.82 6.25509 -0.944524 0
M  V30 26959 C 2576.48 6.56612 -1.20073 0
M  V30 26960 H 2575.75 0.692151 0.26459 0
M  V30 26961 H 2578.4 1.91492 -0.0169833 0
M  V30 26962 H 2576.7 3.21109 2.24492 0
M  V30 26963 H 2578.4 3.49159 1.97203 0
M  V30 26964 H 2574.99 4.22193 0.738339 0
M  V30 26965 H 2579.17 4.96209 0.094943 0
M  V30 26966 H 2574.43 6.06251 -0.791787 0
M  V30 26967 H 2578.6 6.81552 -1.43038 0
M  V30 26968 H 2576.23 7.36592 -1.8798 0
M  V30 26969 N 2577.81 -0.303946 1.54641 0
M  V30 26970 C 2579.05 -1.03952 1.73782 0
M  V30 26971 C 2579.38 -1.87364 0.522019 0
M  V30 26972 O 2578.64 -1.89308 -0.496065 0
M  V30 26973 C 2578.94 -1.97676 2.97756 0
M  V30 26974 C 2578.6 -1.30264 4.31674 0
M  V30 26975 C 2577.26 -1.11611 4.68077 0
M  V30 26976 C 2579.62 -0.82046 5.14702 0
M  V30 26977 C 2576.94 -0.434201 5.85091 0
M  V30 26978 C 2579.3 -0.152284 6.32417 0
M  V30 26979 C 2577.96 0.046224 6.67484 0
M  V30 26980 H 2577.23 -0.380387 0.635914 0
M  V30 26981 H 2579.88 -0.314685 1.88897 0
M  V30 26982 H 2578.18 -2.76678 2.77411 0
M  V30 26983 H 2579.88 -2.54656 3.0976 0
M  V30 26984 H 2576.47 -1.45788 4.03043 0
M  V30 26985 H 2580.65 -0.952289 4.87078 0
M  V30 26986 H 2575.91 -0.269387 6.10806 0
M  V30 26987 H 2580.08 0.229248 6.96023 0
M  V30 26988 H 2577.71 0.576627 7.5801 0
M  V30 26989 N 2579.28 -1.47047 -0.566994 0
M  V30 26990 C 2580.56 -1.43648 -1.32758 0
M  V30 26991 C 2580.94 -0.128223 -2.1071 0
M  V30 26992 O 2580.29 0.890289 -2.10443 0
M  V30 26993 C 2580.5 -2.67599 -2.24035 0
M  V30 26994 C 2581.85 -3.14406 -2.85367 0
M  V30 26995 O 2582.87 -2.68258 -2.34342 0
M  V30 26996 O 2581.73 -3.94607 -3.78084 0
M  V30 26997 H 2578.82 -0.571998 -0.597283 0
M  V30 26998 H 2581.37 -1.59235 -0.586707 0
M  V30 26999 H 2580.14 -3.54359 -1.65968 0
M  V30 27000 H 2579.77 -2.54549 -3.05435 0
M  V30 27001 N 2580.76 0.812929 -1.35016 0
M  V30 27002 C 2582.01 1.57202 -1.28123 0
M  V30 27003 C 2582.34 1.93652 0.145835 0
M  V30 27004 O 2581.62 1.60838 1.09368 0
M  V30 27005 C 2581.9 2.86488 -2.18167 0
M  V30 27006 C 2581.75 2.56555 -3.69459 0
M  V30 27007 C 2583.07 3.88142 -2.07446 0
M  V30 27008 H 2580.19 0.570358 -0.466756 0
M  V30 27009 H 2582.83 0.935754 -1.65359 0
M  V30 27010 H 2580.98 3.40785 -1.86541 0
M  V30 27011 H 2582.65 2.0849 -4.11497 0
M  V30 27012 H 2580.9 1.89844 -3.90053 0
M  V30 27013 H 2581.57 3.48792 -4.27841 0
M  V30 27014 H 2584.04 3.43226 -2.35234 0
M  V30 27015 H 2582.92 4.76391 -2.72658 0
M  V30 27016 H 2583.18 4.29341 -1.05446 0
M  V30 27017 N 2582.24 1.18909 1.03433 0
M  V30 27018 C 2583.49 0.988365 1.76742 0
M  V30 27019 C 2583.82 -0.481407 1.88448 0
M  V30 27020 O 2583.07 -1.37369 1.39386 0
M  V30 27021 C 2583.37 1.59592 3.19789 0
M  V30 27022 C 2583.04 3.09289 3.28102 0
M  V30 27023 C 2581.7 3.50145 3.30078 0
M  V30 27024 C 2584.05 4.05302 3.27689 0
M  V30 27025 C 2581.38 4.85577 3.29291 0
M  V30 27026 C 2583.73 5.40656 3.28441 0
M  V30 27027 C 2582.39 5.80951 3.28712 0
M  V30 27028 H 2581.66 0.361668 0.646743 0
M  V30 27029 H 2584.31 1.4807 1.21439 0
M  V30 27030 H 2582.62 1.02575 3.78134 0
M  V30 27031 H 2584.31 1.41596 3.75169 0
M  V30 27032 H 2580.9 2.76731 3.27289 0
M  V30 27033 H 2585.09 3.74783 3.25348 0
M  V30 27034 H 2580.34 5.16085 3.27821 0
M  V30 27035 H 2584.52 6.14815 3.27071 0
M  V30 27036 H 2582.14 6.85868 3.27856 0
M  V30 27037 N 2583.72 -1.22452 0.992137 0
M  V30 27038 C 2585.13 -1.72967 0.702807 0
M  V30 27039 C 2585.48 -1.80013 -0.780368 0
M  V30 27040 O 2584.61 -1.44591 -1.61004 0
M  V30 27041 C 2585.2 -3.14133 1.26909 0
M  V30 27042 C 2583.76 -3.62057 1.02915 0
M  V30 27043 C 2582.91 -2.39962 1.38974 0
M  V30 27044 H 2585.86 -1.0781 1.16459 0
M  V30 27045 H 2585.88 -3.74954 0.647289 0
M  V30 27046 H 2585.39 -3.08973 2.34856 0
M  V30 27047 H 2583.49 -3.72585 -0.0337324 0
M  V30 27048 H 2583.6 -4.48228 1.69199 0
M  V30 27049 H 2581.97 -2.41533 0.808322 0
M  V30 27050 H 2582.75 -2.37463 2.47924 0
M  V30 27051 N 2585.2 -0.765242 -1.37774 0
M  V30 27052 C 2586.44 -0.325978 -1.99454 0
M  V30 27053 C 2586.77 1.09944 -1.61051 0
M  V30 27054 O 2586.04 1.7538 -0.872851 0
M  V30 27055 H 2584.62 -0.117538 -0.737695 0
M  V30 27056 H 2587.28 -0.981924 -1.68358 0
M  V30 27057 H 2586.37 -0.398407 -3.09547 0
M  V30 27058 N 2586.67 1.48939 -0.515251 0
M  V30 27059 C 2587.92 2.02786 0.0242152 0
M  V30 27060 C 2588.25 1.39291 1.35321 0
M  V30 27061 O 2587.53 0.533502 1.8704 0
M  V30 27062 C 2587.81 3.59736 0.161777 0
M  V30 27063 C 2587.66 4.33736 -1.19134 0
M  V30 27064 C 2588.98 4.3089 0.895644 0
M  V30 27065 H 2586.1 0.736964 0.00732618 0
M  V30 27066 H 2588.74 1.77816 -0.669426 0
M  V30 27067 H 2586.89 3.81141 0.752557 0
M  V30 27068 H 2588.57 4.23789 -1.8221 0
M  V30 27069 H 2586.81 3.95733 -1.77702 0
M  V30 27070 H 2587.48 5.41956 -1.04824 0
M  V30 27071 H 2589.96 4.14226 0.394455 0
M  V30 27072 H 2588.83 5.40426 0.960764 0
M  V30 27073 H 2589.09 3.97133 1.94263 0
M  V30 27074 N 2588.15 0.249709 1.55609 0
M  V30 27075 C 2589.1 -0.648655 2.21497 0
M  V30 27076 C 2590.07 -1.16919 1.17979 0
M  V30 27077 O 2591.26 -1.22315 1.46437 0
M  V30 27078 C 2588.4 -1.83863 2.92042 0
M  V30 27079 C 2587.51 -1.35435 4.10221 0
M  V30 27080 C 2586.64 -2.50411 4.68474 0
M  V30 27081 C 2585.68 -1.98859 5.78897 0
M  V30 27082 N 2584.82 -3.07212 6.3132 0
M  V30 27083 H 2589.66 -0.0801058 2.97892 0
M  V30 27084 H 2587.2 -0.0277773 1.47074 0
M  V30 27085 H 2589.15 -2.53772 3.31143 0
M  V30 27086 H 2587.78 -2.37961 2.18116 0
M  V30 27087 H 2586.84 -0.549214 3.76414 0
M  V30 27088 H 2588.15 -0.936563 4.89929 0
M  V30 27089 H 2587.3 -3.28357 5.10163 0
M  V30 27090 H 2586.04 -2.95493 3.87989 0
M  V30 27091 H 2585.05 -1.19384 5.36682 0
M  V30 27092 H 2586.27 -1.54743 6.61235 0
M  V30 27093 H 2584.22 -3.51723 5.53739 0
M  V30 27094 H 2584.13 -2.69772 7.06229 0
M  V30 27095 H 2585.4 -3.85209 6.77668 0
M  V30 27096 N 2589.63 -1.57583 -0.0233682 0
M  V30 27097 C 2590.54 -2.10336 -1.03904 0
M  V30 27098 C 2591.56 -1.04326 -1.39256 0
M  V30 27099 O 2592.73 -1.36094 -1.4846 0
M  V30 27100 C 2589.8 -2.57697 -2.31933 0
M  V30 27101 C 2588.86 -3.78213 -2.0311 0
M  V30 27102 C 2588.09 -4.23306 -3.25036 0
M  V30 27103 O 2588.32 -3.67884 -4.3591 0
M  V30 27104 O 2587.25 -5.15688 -3.10402 0
M  V30 27105 H 2591.08 -2.9729 -0.620695 0
M  V30 27106 H 2588.66 -1.47448 -0.240717 0
M  V30 27107 H 2590.54 -2.88464 -3.07191 0
M  V30 27108 H 2589.22 -1.73852 -2.73052 0
M  V30 27109 H 2588.12 -3.52456 -1.25402 0
M  V30 27110 H 2589.46 -4.63059 -1.66844 0
M  V30 27111 N 2591.11 0.29574 -1.548 0
M  V30 27112 C 2592.52 0.868382 -1.65276 0
M  V30 27113 C 2592.87 1.87893 -0.564844 0
M  V30 27114 O 2592 2.14343 0.297632 0
M  V30 27115 C 2592.59 1.58183 -2.99606 0
M  V30 27116 C 2591.15 2.1028 -3.12184 0
M  V30 27117 C 2590.3 0.937224 -2.60982 0
M  V30 27118 H 2593.25 0.0726144 -1.58534 0
M  V30 27119 H 2593.27 2.44767 -2.91323 0
M  V30 27120 H 2592.78 0.846085 -3.78765 0
M  V30 27121 H 2590.88 2.86885 -2.37755 0
M  V30 27122 H 2591 2.33372 -4.18419 0
M  V30 27123 H 2589.36 1.32427 -2.17567 0
M  V30 27124 H 2590.14 0.215354 -3.42624 0
M  V30 27125 N 2592.59 1.47346 0.559187 0
M  V30 27126 C 2593.55 1.59238 1.64851 0
M  V30 27127 C 2594.55 0.467634 1.5385 0
M  V30 27128 O 2595.74 0.732645 1.58044 0
M  V30 27129 C 2592.87 1.53501 3.04385 0
M  V30 27130 H 2594.07 2.56341 1.55657 0
M  V30 27131 H 2591.62 1.35507 0.778949 0
M  V30 27132 H 2592.35 0.57766 3.19114 0
M  V30 27133 H 2592.14 2.35128 3.13779 0
M  V30 27134 H 2593.63 1.64957 3.83639 0
M  V30 27135 N 2594.07 -0.805758 1.35445 0
M  V30 27136 C 2595.31 -1.5652 1.28955 0
M  V30 27137 C 2595.64 -1.93726 -0.135563 0
M  V30 27138 O 2594.92 -1.61416 -1.08513 0
M  V30 27139 C 2595.2 -2.85327 2.19683 0
M  V30 27140 C 2595.06 -2.54592 3.70814 0
M  V30 27141 C 2596.37 -3.87036 2.09502 0
M  V30 27142 H 2593.49 -0.567874 0.469774 0
M  V30 27143 H 2596.14 -0.926971 1.65853 0
M  V30 27144 H 2594.29 -3.39791 1.88346 0
M  V30 27145 H 2595.96 -2.06304 4.12597 0
M  V30 27146 H 2594.2 -1.87773 3.91055 0
M  V30 27147 H 2594.87 -3.46518 4.29685 0
M  V30 27148 H 2597.35 -3.41974 2.37051 0
M  V30 27149 H 2596.22 -4.74939 2.75181 0
M  V30 27150 H 2596.48 -4.28775 1.07722 0
M  V30 27151 N 2595.54 -1.19456 -1.02801 0
M  V30 27152 C 2596.47 -0.956795 -2.12997 0
M  V30 27153 C 2597.45 0.110159 -1.69743 0
M  V30 27154 O 2598.64 -0.0450379 -1.94148 0
M  V30 27155 C 2595.77 -0.495614 -3.43745 0
M  V30 27156 C 2594.72 -1.5045 -4.00685 0
M  V30 27157 C 2594.05 -0.900368 -5.27065 0
M  V30 27158 C 2595.35 -2.88498 -4.35392 0
M  V30 27159 H 2597.04 -1.8784 -2.33145 0
M  V30 27160 H 2594.59 -0.904559 -1.12043 0
M  V30 27161 H 2596.54 -0.316567 -4.20209 0
M  V30 27162 H 2595.27 0.461589 -3.23322 0
M  V30 27163 H 2593.93 -1.67071 -3.26317 0
M  V30 27164 H 2593.57 0.0644145 -5.02959 0
M  V30 27165 H 2593.27 -1.57407 -5.66124 0
M  V30 27166 H 2594.8 -0.732136 -6.06195 0
M  V30 27167 H 2596.21 -2.75455 -5.0279 0
M  V30 27168 H 2594.61 -3.52669 -4.85535 0
M  V30 27169 H 2595.68 -3.41087 -3.44656 0
M  V30 27170 N 2597.02 1.21924 -0.998617 0
M  V30 27171 C 2597.97 2.21878 -0.524782 0
M  V30 27172 C 2598.96 1.55585 0.410143 0
M  V30 27173 O 2600.15 1.75419 0.236032 0
M  V30 27174 C 2597.28 3.42956 0.153576 0
M  V30 27175 C 2596.36 4.16448 -0.801991 0
M  V30 27176 N 2596.75 4.66608 -1.95219 0
M  V30 27177 C 2595.05 4.41683 -0.619049 0
M  V30 27178 C 2595.75 5.2271 -2.55243 0
M  V30 27179 N 2594.73 5.11706 -1.8346 0
M  V30 27180 H 2598.53 2.58308 -1.40193 0
M  V30 27181 H 2596.04 1.37659 -0.861614 0
M  V30 27182 H 2598.04 4.13763 0.510461 0
M  V30 27183 H 2596.7 3.08038 1.02679 0
M  V30 27184 H 2597.71 4.62387 -2.33279 0
M  V30 27185 H 2594.39 4.16983 0.207621 0
M  V30 27186 H 2595.78 5.7202 -3.52481 0
M  V30 27187 N 2598.5 0.772537 1.37367 0
M  V30 27188 C 2599.45 0.157528 2.30262 0
M  V30 27189 C 2600.42 -0.688939 1.51138 0
M  V30 27190 O 2601.6 -0.641137 1.79706 0
M  V30 27191 C 2598.74 -0.714986 3.37612 0
M  V30 27192 C 2597.85 0.148174 4.31746 0
M  V30 27193 C 2596.99 -0.72912 5.26172 0
M  V30 27194 C 2596.03 0.136525 6.11948 0
M  V30 27195 N 2595.17 -0.698791 6.98614 0
M  V30 27196 H 2600.01 0.955228 2.82275 0
M  V30 27197 H 2597.54 0.482656 1.38956 0
M  V30 27198 H 2599.5 -1.23568 3.98481 0
M  V30 27199 H 2598.13 -1.47828 2.86961 0
M  V30 27200 H 2597.18 0.786679 3.72177 0
M  V30 27201 H 2598.49 0.815877 4.92082 0
M  V30 27202 H 2597.65 -1.31626 5.92249 0
M  V30 27203 H 2596.39 -1.4305 4.66249 0
M  V30 27204 H 2595.39 0.736198 5.44849 0
M  V30 27205 H 2596.62 0.835252 6.73944 0
M  V30 27206 H 2594.56 -1.38477 6.41218 0
M  V30 27207 H 2594.48 -0.0884029 7.55948 0
M  V30 27208 H 2595.75 -1.2703 7.6908 0
M  V30 27209 N 2599.98 -1.48664 0.523142 0
M  V30 27210 C 2600.92 -2.29513 -0.243358 0
M  V30 27211 C 2601.89 -1.36934 -0.940115 0
M  V30 27212 O 2603.08 -1.65898 -0.942474 0
M  V30 27213 C 2600.22 -3.20143 -1.28849 0
M  V30 27214 C 2599.33 -4.27795 -0.601275 0
M  V30 27215 C 2598.47 -5.05614 -1.62875 0
M  V30 27216 C 2597.51 -6.05076 -0.92462 0
M  V30 27217 N 2596.64 -6.75978 -1.89732 0
M  V30 27218 H 2601.48 -2.94548 0.452286 0
M  V30 27219 H 2599.02 -1.45213 0.234884 0
M  V30 27220 H 2600.98 -3.71082 -1.90667 0
M  V30 27221 H 2599.61 -2.57047 -1.95261 0
M  V30 27222 H 2598.66 -3.80175 0.130689 0
M  V30 27223 H 2599.97 -4.98777 -0.0480708 0
M  V30 27224 H 2599.13 -5.60532 -2.32139 0
M  V30 27225 H 2597.87 -4.34456 -2.21584 0
M  V30 27226 H 2596.87 -5.49368 -0.21787 0
M  V30 27227 H 2598.1 -6.7823 -0.343732 0
M  V30 27228 H 2596.04 -6.07576 -2.47362 0
M  V30 27229 H 2595.96 -7.43011 -1.39537 0
M  V30 27230 H 2597.23 -7.35489 -2.58216 0
M  V30 27231 N 2601.46 -0.257958 -1.55475 0
M  V30 27232 C 2602.73 0.414596 -1.91156 0
M  V30 27233 C 2603.11 1.75033 -1.18011 0
M  V30 27234 O 2602.46 2.26506 -0.301232 0
M  V30 27235 C 2602.67 0.571799 -3.44284 0
M  V30 27236 C 2604.02 0.862605 -4.15745 0
M  V30 27237 O 2605.04 0.657252 -3.50084 0
M  V30 27238 O 2603.9 1.25431 -5.31911 0
M  V30 27239 H 2601 0.224236 -0.79602 0
M  V30 27240 H 2603.54 -0.302843 -1.66976 0
M  V30 27241 H 2602.31 -0.368912 -3.89557 0
M  V30 27242 H 2601.94 1.33936 -3.74362 0
M  V30 27243 N 2602.93 1.57593 0.0150108 0
M  V30 27244 C 2603.88 2.07468 1.01122 0
M  V30 27245 C 2604.85 0.966818 1.35062 0
M  V30 27246 O 2606.04 1.2383 1.45158 0
M  V30 27247 C 2603.18 2.57039 2.30272 0
M  V30 27248 C 2602.29 3.8167 2.02366 0
M  V30 27249 C 2601.42 4.19799 3.25488 0
M  V30 27250 C 2600.46 5.37308 2.93201 0
M  V30 27251 N 2599.6 5.70801 4.08816 0
M  V30 27252 H 2604.44 2.92322 0.578958 0
M  V30 27253 H 2601.98 1.44521 0.274235 0
M  V30 27254 H 2603.94 2.83852 3.05752 0
M  V30 27255 H 2602.57 1.75081 2.71194 0
M  V30 27256 H 2601.62 3.61856 1.1732 0
M  V30 27257 H 2602.93 4.67259 1.74558 0
M  V30 27258 H 2602.08 4.47814 4.09326 0
M  V30 27259 H 2600.82 3.32889 3.56422 0
M  V30 27260 H 2599.83 5.09031 2.07768 0
M  V30 27261 H 2601.05 6.25882 2.63531 0
M  V30 27262 H 2599 4.8685 4.39674 0
M  V30 27263 H 2598.92 6.50931 3.8448 0
M  V30 27264 H 2600.18 6.03401 4.93485 0
M  V30 27265 N 2604.41 -0.287527 1.54955 0
M  V30 27266 C 2605.83 -0.633938 1.4647 0
M  V30 27267 C 2606.03 -1.90144 0.666898 0
M  V30 27268 O 2605.08 -2.51858 0.17995 0
M  V30 27269 C 2606.4 -0.774402 2.90557 0
M  V30 27270 C 2607.95 -0.86941 3.00683 0
M  V30 27271 C 2608.42 -1.04177 4.45995 0
M  V30 27272 N 2609.91 -1.10764 4.49762 0
M  V30 27273 C 2610.65 -1.25954 5.59395 0
M  V30 27274 N 2610.14 -1.37956 6.78926 0
M  V30 27275 N 2611.94 -1.2895 5.47109 0
M  V30 27276 H 2604.09 0.545077 2.05287 0
M  V30 27277 H 2606.35 0.182325 0.930302 0
M  V30 27278 H 2606.06 0.0862688 3.51594 0
M  V30 27279 H 2605.93 -1.65924 3.38746 0
M  V30 27280 H 2608.32 -1.72056 2.39752 0
M  V30 27281 H 2608.4 0.0397281 2.55769 0
M  V30 27282 H 2608.04 -0.195333 5.07524 0
M  V30 27283 H 2607.97 -1.96533 4.88551 0
M  V30 27284 H 2610.46 -1.02788 3.63652 0
M  V30 27285 H 2610.78 -1.4934 7.58233 0
M  V30 27286 H 2609.12 -1.34987 6.81765 0
M  V30 27287 H 2612.31 -1.19194 4.5267 0
M  V30 27288 H 2612.48 -1.40444 6.32597 0
M  V30 27289 N 2605.89 -1.47641 -0.551365 0
M  V30 27290 C 2606.82 -1.63448 -1.66755 0
M  V30 27291 C 2607.8 -0.48377 -1.63076 0
M  V30 27292 O 2608.99 -0.713802 -1.80606 0
M  V30 27293 C 2606.12 -1.65401 -3.05384 0
M  V30 27294 C 2605.07 -2.79758 -3.23913 0
M  V30 27295 C 2604.4 -2.66787 -4.63388 0
M  V30 27296 C 2605.7 -4.21289 -3.08727 0
M  V30 27297 H 2607.39 -2.56888 -1.53781 0
M  V30 27298 H 2604.94 -1.23627 -0.738394 0
M  V30 27299 H 2606.89 -1.7505 -3.83322 0
M  V30 27300 H 2605.61 -0.685251 -3.1933 0
M  V30 27301 H 2604.27 -2.69629 -2.48386 0
M  V30 27302 H 2603.92 -1.67926 -4.74141 0
M  V30 27303 H 2603.62 -3.4351 -4.76734 0
M  V30 27304 H 2605.14 -2.78373 -5.43453 0
M  V30 27305 H 2606.56 -4.32364 -3.76476 0
M  V30 27306 H 2604.96 -4.98844 -3.33579 0
M  V30 27307 H 2606.03 -4.39247 -2.05402 0
M  V30 27308 N 2607.37 0.798563 -1.3587 0
M  V30 27309 C 2608.28 1.94226 -1.31581 0
M  V30 27310 C 2609.29 1.72611 -0.219421 0
M  V30 27311 O 2610.47 1.96304 -0.450201 0
M  V30 27312 C 2607.54 3.28942 -1.09534 0
M  V30 27313 C 2606.6 3.63398 -2.28562 0
M  V30 27314 C 2605.83 4.91686 -2.07558 0
M  V30 27315 O 2606.05 5.60725 -1.04609 0
M  V30 27316 O 2604.99 5.24586 -2.95115 0
M  V30 27317 H 2608.81 2.00792 -2.27851 0
M  V30 27318 H 2606.4 0.937505 -1.16324 0
M  V30 27319 H 2608.28 4.09577 -0.991199 0
M  V30 27320 H 2606.95 3.23288 -0.163207 0
M  V30 27321 H 2605.86 2.83107 -2.44543 0
M  V30 27322 H 2607.19 3.73766 -3.2025 0
M  V30 27323 N 2608.85 1.19999 1.02166 0
M  V30 27324 C 2610.07 1.03252 1.79295 0
M  V30 27325 C 2610.49 -0.41847 1.84104 0
M  V30 27326 O 2609.85 -1.29061 1.29033 0
M  V30 27327 C 2609.9 1.60324 3.24004 0
M  V30 27328 O 2609.62 2.99745 3.19507 0
M  V30 27329 C 2611.12 1.4846 4.17701 0
M  V30 27330 H 2608.34 0.363502 0.56401 0
M  V30 27331 H 2610.88 1.58975 1.28636 0
M  V30 27332 H 2609.04 1.08733 3.71828 0
M  V30 27333 H 2609.45 3.26733 4.103 0
M  V30 27334 H 2610.93 1.93162 5.171 0
M  V30 27335 H 2611.4 0.436269 4.37028 0
M  V30 27336 H 2612.01 1.99217 3.75756 0
M  V30 27337 N 2610.32 -1.21392 1.00507 0
M  V30 27338 C 2611.27 -2.25791 0.558663 0
M  V30 27339 C 2612.27 -1.64687 -0.396819 0
M  V30 27340 O 2613.47 -1.77994 -0.268004 0
M  V30 27341 H 2609.85 -0.734274 0.162313 0
M  V30 27342 H 2611.82 -2.60783 1.45034 0
M  V30 27343 C 2610.57 -3.47559 -0.0988963 0
M  V30 27344 H 2609.89 -3.94848 0.627295 0
M  V30 27345 H 2611.33 -4.22343 -0.374526 0
M  V30 27346 C 2609.79 -3.09186 -1.33811 0
M  V30 27347 O 2610.32 -3.19678 -2.43246 0
M  V30 27348 N 2608.53 -2.63848 -1.21789 0
M  V30 27349 H 2608.07 -2.55511 -0.327415 0
M  V30 27350 H 2608.03 -2.38542 -2.04805 0
M  V30 27351 N 2611.8 -0.779811 -1.36955 0
M  V30 27352 C 2613.05 -0.347801 -1.99491 0
M  V30 27353 C 2613.38 1.0779 -1.619 0
M  V30 27354 O 2612.63 1.75755 -0.860741 0
M  V30 27355 C 2612.93 -0.447749 -3.54584 0
M  V30 27356 C 2612.6 -1.83287 -4.11967 0
M  V30 27357 C 2611.26 -2.21187 -4.27352 0
M  V30 27358 C 2613.61 -2.74027 -4.4335 0
M  V30 27359 C 2610.94 -3.49249 -4.71426 0
M  V30 27360 C 2613.29 -4.01506 -4.88851 0
M  V30 27361 C 2611.96 -4.39441 -5.02442 0
M  V30 27362 H 2611.23 -0.127269 -0.729989 0
M  V30 27363 H 2613.87 -0.995405 -1.63597 0
M  V30 27364 H 2612.18 0.283378 -3.90774 0
M  V30 27365 H 2613.87 -0.0946653 -4.00888 0
M  V30 27366 H 2610.46 -1.52832 -4.00425 0
M  V30 27367 H 2614.65 -2.46002 -4.31041 0
M  V30 27368 H 2609.9 -3.78524 -4.80135 0
M  V30 27369 H 2614.08 -4.7194 -5.121 0
M  V30 27370 H 2611.71 -5.3873 -5.36353 0
M  V30 27371 N 2613.28 1.48384 -0.531019 0
M  V30 27372 C 2614.19 2.3342 0.234989 0
M  V30 27373 C 2615.21 1.46553 0.937984 0
M  V30 27374 O 2616.38 1.79531 0.912713 0
M  V30 27375 C 2613.45 3.22691 1.26772 0
M  V30 27376 C 2612.51 4.25432 0.574964 0
M  V30 27377 C 2611.74 5.10438 1.55849 0
M  V30 27378 O 2611.96 4.97442 2.7912 0
M  V30 27379 O 2610.9 5.91813 1.09732 0
M  V30 27380 H 2614.72 3.00168 -0.461847 0
M  V30 27381 H 2612.31 1.4652 -0.291928 0
M  V30 27382 H 2614.19 3.77908 1.8645 0
M  V30 27383 H 2612.87 2.58604 1.94694 0
M  V30 27384 H 2611.77 3.74048 -0.062344 0
M  V30 27385 H 2613.11 4.92161 -0.0623395 0
M  V30 27386 N 2614.76 0.2662 1.55336 0
M  V30 27387 C 2615.67 -0.635418 2.25831 0
M  V30 27388 C 2616.68 -1.17747 1.28108 0
M  V30 27389 O 2617.86 -1.20965 1.61026 0
M  V30 27390 C 2614.93 -1.80706 2.95882 0
M  V30 27391 C 2613.99 -1.30257 4.09062 0
M  V30 27392 C 2613.22 -2.41838 4.75763 0
M  V30 27393 O 2613.44 -3.60999 4.41628 0
M  V30 27394 O 2612.38 -2.105 5.63891 0
M  V30 27395 H 2616.2 -0.0646159 3.03631 0
M  V30 27396 H 2613.79 0.033944 1.49361 0
M  V30 27397 H 2615.67 -2.49041 3.39936 0
M  V30 27398 H 2614.34 -2.36512 2.21006 0
M  V30 27399 H 2613.25 -0.585954 3.69483 0
M  V30 27400 H 2614.58 -0.790373 4.85813 0
M  V30 27401 N 2616.24 -1.57599 -0.0066531 0
M  V30 27402 C 2617.2 -2.06955 -0.984999 0
M  V30 27403 C 2618.2 -0.97771 -1.27662 0
M  V30 27404 O 2619.39 -1.24059 -1.22291 0
M  V30 27405 C 2616.52 -2.5054 -2.31176 0
M  V30 27406 H 2617.71 -2.94659 -0.558203 0
M  V30 27407 H 2615.27 -1.54223 -0.253984 0
M  V30 27408 H 2616 -1.66059 -2.78558 0
M  V30 27409 H 2615.79 -3.30274 -2.11333 0
M  V30 27410 H 2617.28 -2.89075 -3.01372 0
M  V30 27411 N 2617.72 0.279305 -1.55105 0
M  V30 27412 C 2618.65 1.34942 -1.90559 0
M  V30 27413 C 2619.63 1.51838 -0.766765 0
M  V30 27414 O 2620.81 1.64986 -1.02437 0
M  V30 27415 C 2617.94 2.71002 -2.17198 0
M  V30 27416 C 2616.9 2.68845 -3.33026 0
M  V30 27417 C 2616.22 4.08399 -3.4513 0
M  V30 27418 C 2617.52 2.2867 -4.69582 0
M  V30 27419 H 2619.22 1.05517 -2.8019 0
M  V30 27420 H 2616.76 0.50615 -1.34811 0
M  V30 27421 H 2618.71 3.45971 -2.40587 0
M  V30 27422 H 2617.44 3.01997 -1.2436 0
M  V30 27423 H 2616.1 1.96335 -3.09594 0
M  V30 27424 H 2615.75 4.36605 -2.4977 0
M  V30 27425 H 2615.45 4.07852 -4.23002 0
M  V30 27426 H 2616.97 4.85115 -3.70805 0
M  V30 27427 H 2618.38 2.93359 -4.92558 0
M  V30 27428 H 2616.78 2.39296 -5.50325 0
M  V30 27429 H 2617.85 1.23798 -4.6883 0
M  V30 27430 N 2619.19 1.47931 0.543528 0
M  V30 27431 C 2620.44 1.55257 1.30006 0
M  V30 27432 C 2620.77 0.220646 1.93244 0
M  V30 27433 O 2620.02 -0.787811 1.79142 0
M  V30 27434 C 2620.32 2.62936 2.42073 0
M  V30 27435 C 2619.99 4.05794 1.96576 0
M  V30 27436 C 2618.65 4.44679 1.83885 0
M  V30 27437 C 2621 4.95376 1.62026 0
M  V30 27438 C 2618.33 5.70967 1.34959 0
M  V30 27439 C 2620.68 6.22139 1.14566 0
M  V30 27440 C 2619.35 6.59894 1.00482 0
M  V30 27441 H 2618.62 0.568126 0.475725 0
M  V30 27442 H 2621.26 1.8159 0.608043 0
M  V30 27443 H 2619.57 2.30411 3.16888 0
M  V30 27444 H 2621.27 2.65823 3.00231 0
M  V30 27445 H 2617.86 3.75077 2.07401 0
M  V30 27446 H 2622.04 4.66022 1.70697 0
M  V30 27447 H 2617.3 5.98955 1.2273 0
M  V30 27448 H 2621.47 6.90957 0.868987 0
M  V30 27449 H 2619.1 7.57639 0.62349 0
M  V30 27450 N 2620.67 -0.791347 1.36292 0
M  V30 27451 C 2621.9 -1.58529 1.33729 0
M  V30 27452 C 2622.32 -1.87932 -0.0794603 0
M  V30 27453 O 2621.68 -1.4774 -1.05084 0
M  V30 27454 C 2621.73 -2.88427 2.1643 0
M  V30 27455 O 2620.83 -3.81941 1.55547 0
M  V30 27456 H 2620.17 -0.480951 0.457802 0
M  V30 27457 H 2622.7 -0.980999 1.79548 0
M  V30 27458 H 2622.71 -3.37714 2.28939 0
M  V30 27459 H 2621.39 -2.66353 3.1942 0
M  V30 27460 H 2619.96 -3.4053 1.51967 0
M  V30 27461 N 2622.15 -1.2054 -1.01528 0
M  V30 27462 C 2623.1 -0.95542 -2.10096 0
M  V30 27463 C 2624.07 0.114849 -1.65702 0
M  V30 27464 O 2625.25 -0.0301454 -1.90776 0
M  V30 27465 C 2622.39 -0.515029 -3.41235 0
M  V30 27466 C 2621.5 -1.6536 -3.99099 0
M  V30 27467 C 2620.64 -1.16338 -5.18304 0
M  V30 27468 C 2619.68 -2.27495 -5.68254 0
M  V30 27469 N 2618.82 -1.79682 -6.78718 0
M  V30 27470 H 2623.66 -1.8849 -2.30815 0
M  V30 27471 H 2621.19 -0.939519 -1.13188 0
M  V30 27472 H 2623.15 -0.241008 -4.16503 0
M  V30 27473 H 2621.78 0.377456 -3.20586 0
M  V30 27474 H 2620.83 -2.0425 -3.20914 0
M  V30 27475 H 2622.14 -2.49055 -4.32173 0
M  V30 27476 H 2621.3 -0.845407 -6.00781 0
M  V30 27477 H 2620.04 -0.296339 -4.86799 0
M  V30 27478 H 2619.04 -2.60107 -4.8438 0
M  V30 27479 H 2620.27 -3.14678 -6.01793 0
M  V30 27480 H 2618.21 -0.953064 -6.4904 0
M  V30 27481 H 2618.13 -2.56957 -7.10992 0
M  V30 27482 H 2619.4 -1.50888 -7.64757 0
M  V30 27483 N 2623.63 1.20858 -1.01149 0
M  V30 27484 C 2624.86 1.938 -0.715906 0
M  V30 27485 C 2625.27 1.74693 0.726561 0
M  V30 27486 O 2624.61 1.05484 1.50395 0
M  V30 27487 C 2624.67 3.46297 -0.96533 0
M  V30 27488 C 2624.33 3.8916 -2.39591 0
M  V30 27489 C 2625.33 3.95336 -3.37647 0
M  V30 27490 C 2623.02 4.21292 -2.73529 0
M  V30 27491 C 2625.01 4.33047 -4.67706 0
M  V30 27492 C 2622.7 4.5868 -4.03802 0
M  V30 27493 C 2623.7 4.64529 -5.00702 0
M  V30 27494 O 2623.38 5.01061 -6.28644 0
M  V30 27495 H 2623.12 0.622938 -0.262535 0
M  V30 27496 H 2625.67 1.5444 -1.35415 0
M  V30 27497 H 2623.9 3.85757 -0.269915 0
M  V30 27498 H 2625.59 4.00463 -0.662121 0
M  V30 27499 H 2626.35 3.70681 -3.12763 0
M  V30 27500 H 2622.23 4.15933 -1.98797 0
M  V30 27501 H 2625.78 4.37528 -5.43337 0
M  V30 27502 H 2621.67 4.8279 -4.28468 0
M  V30 27503 H 2622.44 5.19072 -6.32856 0
M  V30 27504 N 2625.11 0.787064 1.3654 0
M  V30 27505 C 2626.35 0.354975 1.98552 0
M  V30 27506 C 2626.67 -1.07861 1.63173 0
M  V30 27507 O 2627.87 -1.61285 2.18402 0
M  V30 27508 C 2626.33 0.583733 3.55135 0
M  V30 27509 C 2625.94 2.02858 3.9944 0
M  V30 27510 C 2627.68 0.216031 4.2395 0
M  V30 27511 C 2625.59 2.20412 5.48792 0
M  V30 27512 H 2624.52 0.128985 0.742886 0
M  V30 27513 H 2627.17 0.968364 1.55868 0
M  V30 27514 H 2625.55 -0.099335 3.95875 0
M  V30 27515 H 2626.73 2.74786 3.69905 0
M  V30 27516 H 2625.04 2.35431 3.43455 0
M  V30 27517 H 2627.64 0.325499 5.33708 0
M  V30 27518 H 2627.98 -0.835575 4.07828 0
M  V30 27519 H 2628.51 0.852243 3.88564 0
M  V30 27520 H 2625.25 3.23947 5.69858 0
M  V30 27521 H 2624.77 1.52987 5.79961 0
M  V30 27522 H 2626.45 2.01013 6.14982 0
M  V30 27523 N 2626.58 -1.48101 0.53888 0
M  V30 27524 C 2627.83 -2.02098 0.00802152 0
M  V30 27525 C 2628.15 -1.41741 -1.33919 0
M  V30 27526 O 2627.42 -0.585967 -1.86931 0
M  V30 27527 H 2626 -0.747 -2.30875e-05 0
M  V30 27528 H 2628.66 -1.81713 0.704732 0
M  V30 27529 H 2627.76 -3.11959 -0.0937124 0
M  V30 27530 N 2628.06 -0.274434 -1.55192 0
M  V30 27531 C 2629.01 0.629322 -2.23925 0
M  V30 27532 C 2630 1.15838 -1.23604 0
M  V30 27533 O 2631.21 1.11209 -1.41537 0
M  V30 27534 H 2627.58 0.221494 -0.718641 0
M  V30 27535 H 2629.56 0.0267798 -2.98388 0
M  V30 27536 C 2628.3 1.80246 -2.97332 0
M  V30 27537 H 2627.63 1.40455 -3.74316 0
M  V30 27538 H 2629.07 2.41146 -3.48747 0
M  V30 27539 C 2627.53 2.6905 -2.02765 0
M  V30 27540 O 2628.06 3.6939 -1.57842 0
M  V30 27541 N 2626.26 2.36205 -1.69279 0
M  V30 27542 H 2625.81 1.54658 -2.06007 0
M  V30 27543 H 2625.77 2.95893 -1.06276 0
M  V30 27544 N 2629.54 1.576 -0.00170483 0
M  V30 27545 C 2630.79 1.90924 0.683798 0
M  V30 27546 C 2631.12 0.875829 1.73329 0
M  V30 27547 O 2630.39 -0.105216 1.94215 0
M  V30 27548 C 2630.68 3.34822 1.32537 0
M  V30 27549 C 2630.53 4.48881 0.287309 0
M  V30 27550 C 2631.85 3.78173 2.25107 0
M  V30 27551 H 2628.97 0.694337 0.247112 0
M  V30 27552 H 2631.61 1.89925 -0.0533483 0
M  V30 27553 H 2629.76 3.35804 1.95366 0
M  V30 27554 H 2631.43 4.60035 -0.341427 0
M  V30 27555 H 2629.67 4.32041 -0.390246 0
M  V30 27556 H 2630.35 5.46528 0.775297 0
M  V30 27557 H 2632.82 3.78753 1.72294 0
M  V30 27558 H 2631.7 4.79606 2.66963 0
M  V30 27559 H 2631.96 3.12136 3.13087 0
M  V30 27560 N 2631.02 -0.271076 1.55251 0
M  V30 27561 C 2631.95 -1.35746 1.84677 0
M  V30 27562 C 2632.96 -1.45446 0.731392 0
M  V30 27563 O 2634.15 -1.47228 1.00926 0
M  V30 27564 C 2631.25 -2.73854 1.99643 0
M  V30 27565 C 2630.42 -2.86721 3.30317 0
M  V30 27566 C 2629.48 -4.05517 3.35325 0
M  V30 27567 O 2628.51 -3.96184 4.08689 0
M  V30 27568 N 2629.71 -5.17573 2.62867 0
M  V30 27569 H 2632.48 -1.10848 2.78447 0
M  V30 27570 H 2630.04 -0.461191 1.55192 0
M  V30 27571 H 2632.03 -3.51621 2.00362 0
M  V30 27572 H 2630.6 -2.91566 1.1273 0
M  V30 27573 H 2629.82 -1.95823 3.42121 0
M  V30 27574 H 2631.11 -2.92251 4.16493 0
M  V30 27575 H 2630.51 -5.28042 2.02948 0
M  V30 27576 H 2629.06 -5.93564 2.69305 0
M  V30 27577 N 2632.5 -1.48217 -0.535675 0
M  V30 27578 C 2633.91 -1.34212 -0.863677 0
M  V30 27579 C 2634.11 -0.348825 -1.98458 0
M  V30 27580 O 2633.17 0.231996 -2.51432 0
M  V30 27581 C 2634.48 -2.74097 -1.23658 0
M  V30 27582 C 2636.03 -2.82543 -1.34678 0
M  V30 27583 C 2636.5 -4.23118 -1.75314 0
M  V30 27584 N 2638 -4.25764 -1.82427 0
M  V30 27585 C 2638.73 -5.31468 -2.15242 0
M  V30 27586 N 2638.23 -6.47456 -2.46521 0
M  V30 27587 N 2640.02 -5.18858 -2.162 0
M  V30 27588 H 2632.17 -2.11418 0.204002 0
M  V30 27589 H 2634.43 -0.947568 0.0286199 0
M  V30 27590 H 2634.14 -3.48317 -0.486613 0
M  V30 27591 H 2634.01 -3.07257 -2.188 0
M  V30 27592 H 2636.4 -2.08582 -2.08752 0
M  V30 27593 H 2636.48 -2.53011 -0.376712 0
M  V30 27594 H 2636.13 -4.97593 -1.01803 0
M  V30 27595 H 2636.06 -4.5009 -2.73362 0
M  V30 27596 H 2638.55 -3.42098 -1.60554 0
M  V30 27597 H 2638.86 -7.23857 -2.7065 0
M  V30 27598 H 2637.2 -6.5074 -2.44054 0
M  V30 27599 H 2640.4 -4.27263 -1.91217 0
M  V30 27600 H 2640.57 -6.0134 -2.41443 0
M  V30 27601 N 2633.97 0.784108 -1.3671 0
M  V30 27602 C 2635.25 1.53067 -1.21778 0
M  V30 27603 C 2635.63 2.10208 0.193839 0
M  V30 27604 O 2634.98 1.94448 1.20009 0
M  V30 27605 C 2635.19 2.62139 -2.304 0
M  V30 27606 C 2636.54 3.29878 -2.67331 0
M  V30 27607 O 2637.56 2.72426 -2.29483 0
M  V30 27608 O 2636.42 4.33718 -3.32492 0
M  V30 27609 H 2633.51 0.677352 -0.474471 0
M  V30 27610 H 2636.06 0.822134 -1.48456 0
M  V30 27611 H 2634.83 2.17948 -3.24984 0
M  V30 27612 H 2634.46 3.40606 -2.05118 0
M  V30 27613 N 2635.45 1.21076 1.00888 0
M  V30 27614 C 2636.39 0.909843 2.09278 0
M  V30 27615 C 2637.36 -0.141116 1.61986 0
M  V30 27616 O 2638.55 -0.013 1.88496 0
M  V30 27617 C 2635.67 0.365433 3.36723 0
M  V30 27618 C 2634.72 1.39859 4.02917 0
M  V30 27619 S 2635.55 2.96641 4.4583 0
M  V30 27620 C 2636.71 2.43797 5.76467 0
M  V30 27621 H 2636.94 1.82773 2.34481 0
M  V30 27622 H 2634.48 1.04008 1.14113 0
M  V30 27623 H 2636.43 0.0578925 4.10459 0
M  V30 27624 H 2635.09 -0.531082 3.09578 0
M  V30 27625 H 2634.29 0.967204 4.94632 0
M  V30 27626 H 2633.89 1.65401 3.35438 0
M  V30 27627 H 2636.18 1.8404 6.52024 0
M  V30 27628 H 2637.12 3.33939 6.24412 0
M  V30 27629 H 2637.53 1.85645 5.331 0
M  V30 27630 N 2636.93 -1.2032 1.01789 0
M  V30 27631 C 2638.34 -1.71437 0.739337 0
M  V30 27632 C 2638.69 -1.81628 -0.742009 0
M  V30 27633 O 2637.82 -1.47974 -1.57901 0
M  V30 27634 C 2638.41 -3.11371 1.33543 0
M  V30 27635 C 2636.97 -3.59793 1.10572 0
M  V30 27636 C 2636.12 -2.3696 1.44032 0
M  V30 27637 H 2639.07 -1.05315 1.1872 0
M  V30 27638 H 2639.09 -3.73497 0.726676 0
M  V30 27639 H 2638.6 -3.03921 2.41357 0
M  V30 27640 H 2636.7 -3.72572 0.045306 0
M  V30 27641 H 2636.82 -4.44538 1.78668 0
M  V30 27642 H 2635.18 -2.39764 0.859373 0
M  V30 27643 H 2635.96 -2.32151 2.52905 0
M  V30 27644 N 2638.41 -0.794293 -1.3612 0
M  V30 27645 C 2639.32 -0.197337 -2.33769 0
M  V30 27646 C 2640.33 0.653124 -1.61277 0
M  V30 27647 O 2641.51 0.567766 -1.93231 0
M  V30 27648 C 2638.58 0.654038 -3.40475 0
M  V30 27649 C 2637.64 -0.215487 -4.28759 0
M  V30 27650 C 2636.87 0.595349 -5.30369 0
M  V30 27651 O 2637.09 1.83098 -5.40214 0
M  V30 27652 O 2636.03 -0.00731931 -6.019 0
M  V30 27653 H 2639.85 -1.00483 -2.86595 0
M  V30 27654 H 2637.44 -0.555842 -1.38675 0
M  V30 27655 H 2639.32 1.13937 -4.05705 0
M  V30 27656 H 2637.99 1.43933 -2.89939 0
M  V30 27657 H 2636.9 -0.74768 -3.66552 0
M  V30 27658 H 2638.23 -0.964417 -4.82659 0
M  V30 27659 N 2639.89 1.47813 -0.546727 0
M  V30 27660 C 2640.8 2.33656 0.210219 0
M  V30 27661 C 2641.81 1.4754 0.922387 0
M  V30 27662 O 2642.99 1.80489 0.89362 0
M  V30 27663 C 2640.05 3.24018 1.23342 0
M  V30 27664 C 2639.11 4.26018 0.529809 0
M  V30 27665 C 2638.35 5.12062 1.50426 0
M  V30 27666 O 2638.57 5.00374 2.73828 0
M  V30 27667 O 2637.5 5.92944 1.03449 0
M  V30 27668 H 2641.33 2.99661 -0.493658 0
M  V30 27669 H 2638.92 1.46202 -0.307452 0
M  V30 27670 H 2640.8 3.79864 1.82432 0
M  V30 27671 H 2639.47 2.60654 1.91941 0
M  V30 27672 H 2638.38 3.73961 -0.102013 0
M  V30 27673 H 2639.71 4.92067 -0.114536 0
M  V30 27674 N 2641.36 0.28266 1.55044 0
M  V30 27675 C 2642.29 -0.595027 2.25791 0
M  V30 27676 C 2643.28 -1.15282 1.25076 0
M  V30 27677 O 2644.46 -1.18556 1.53812 0
M  V30 27678 C 2641.59 -1.77567 2.98475 0
M  V30 27679 C 2640.54 -1.34907 4.06182 0
M  V30 27680 C 2639.87 -2.61342 4.66481 0
M  V30 27681 C 2641.17 -0.49373 5.19961 0
M  V30 27682 H 2642.86 -0.00500391 2.994 0
M  V30 27683 H 2640.41 -0.00096669 1.44 0
M  V30 27684 H 2642.36 -2.39562 3.46681 0
M  V30 27685 H 2641.09 -2.39164 2.22414 0
M  V30 27686 H 2639.75 -0.752275 3.58799 0
M  V30 27687 H 2639.39 -3.21213 3.8708 0
M  V30 27688 H 2639.09 -2.33507 5.39211 0
M  V30 27689 H 2640.62 -3.24172 5.17441 0
M  V30 27690 H 2642.03 -1.01888 5.64173 0
M  V30 27691 H 2640.43 -0.309942 5.99299 0
M  V30 27692 H 2641.5 0.485678 4.82462 0
M  V30 27693 N 2642.84 -1.57597 0.0100627 0
M  V30 27694 C 2643.77 -2.12086 -0.97682 0
M  V30 27695 C 2644.75 -1.03237 -1.35189 0
M  V30 27696 O 2645.94 -1.30973 -1.43387 0
M  V30 27697 C 2643.07 -2.6324 -2.26544 0
M  V30 27698 C 2642.02 -3.76705 -2.03169 0
M  V30 27699 C 2641.35 -4.14212 -3.38131 0
M  V30 27700 C 2642.65 -5.0357 -1.38617 0
M  V30 27701 H 2644.34 -2.94795 -0.523093 0
M  V30 27702 H 2641.89 -1.4181 -0.25017 0
M  V30 27703 H 2643.84 -2.99989 -2.95947 0
M  V30 27704 H 2642.57 -1.77666 -2.74048 0
M  V30 27705 H 2641.22 -3.40365 -1.36189 0
M  V30 27706 H 2640.87 -3.25647 -3.83357 0
M  V30 27707 H 2640.57 -4.90662 -3.23303 0
M  V30 27708 H 2642.1 -4.53529 -4.08833 0
M  V30 27709 H 2643.51 -5.38026 -1.97991 0
M  V30 27710 H 2641.91 -5.84891 -1.34246 0
M  V30 27711 H 2642.98 -4.83587 -0.356637 0
M  V30 27712 N 2644.32 0.262839 -1.55393 0
M  V30 27713 C 2645.57 0.990912 -1.75681 0
M  V30 27714 C 2645.88 1.8708 -0.571003 0
M  V30 27715 O 2647.09 2.63442 -0.656532 0
M  V30 27716 C 2645.54 1.81183 -3.10968 0
M  V30 27717 C 2645.15 0.980111 -4.37147 0
M  V30 27718 C 2646.9 2.53359 -3.40602 0
M  V30 27719 C 2644.8 1.796 -5.6347 0
M  V30 27720 H 2643.73 0.373704 -0.654875 0
M  V30 27721 H 2646.38 0.246171 -1.81841 0
M  V30 27722 H 2644.77 2.59792 -2.98872 0
M  V30 27723 H 2645.94 0.237477 -4.60188 0
M  V30 27724 H 2644.26 0.372424 -4.14731 0
M  V30 27725 H 2646.85 3.14825 -4.32191 0
M  V30 27726 H 2647.2 3.24164 -2.61196 0
M  V30 27727 H 2647.73 1.81773 -3.53841 0
M  V30 27728 H 2644.47 1.13197 -6.45652 0
M  V30 27729 H 2643.99 2.51433 -5.44556 0
M  V30 27730 H 2645.67 2.36713 -6.02143 0
M  V30 27731 N 2645.8 1.48499 0.527807 0
M  V30 27732 C 2646.76 1.62699 1.61436 0
M  V30 27733 C 2647.76 0.500163 1.52823 0
M  V30 27734 O 2648.95 0.766003 1.56455 0
M  V30 27735 C 2646.08 1.59923 3.01061 0
M  V30 27736 H 2647.28 2.59585 1.50185 0
M  V30 27737 H 2644.83 1.37128 0.750031 0
M  V30 27738 H 2645.56 0.645219 3.17817 0
M  V30 27739 H 2645.35 2.41731 3.08721 0
M  V30 27740 H 2646.84 1.73057 3.80054 0
M  V30 27741 N 2647.28 -0.776847 1.37123 0
M  V30 27742 C 2648.53 -1.53047 1.31375 0
M  V30 27743 C 2648.84 -1.95339 -0.100982 0
M  V30 27744 O 2650.05 -2.70043 -0.280905 0
M  V30 27745 C 2648.5 -2.76342 2.30572 0
M  V30 27746 C 2648.11 -2.41169 3.77547 0
M  V30 27747 C 2649.85 -3.54297 2.33824 0
M  V30 27748 C 2647.76 -3.60935 4.68487 0
M  V30 27749 H 2646.69 -0.574572 0.488244 0
M  V30 27750 H 2649.34 -0.851343 1.62556 0
M  V30 27751 H 2647.72 -3.46118 1.92402 0
M  V30 27752 H 2648.9 -1.79209 4.24524 0
M  V30 27753 H 2647.21 -1.76398 3.7719 0
M  V30 27754 H 2649.81 -4.43305 2.98973 0
M  V30 27755 H 2650.15 -3.9379 1.35037 0
M  V30 27756 H 2650.69 -2.91513 2.70675 0
M  V30 27757 H 2647.42 -3.26527 5.68384 0
M  V30 27758 H 2646.94 -4.22017 4.26218 0
M  V30 27759 H 2648.62 -4.2781 4.85373 0
M  V30 27760 N 2648.76 -1.2161 -1.00244 0
M  V30 27761 C 2650.03 -0.943599 -1.71335 0
M  V30 27762 C 2650.41 0.543907 -2.03973 0
M  V30 27763 O 2649.76 1.50943 -1.71547 0
M  V30 27764 C 2649.97 -1.83133 -2.97091 0
M  V30 27765 C 2651.32 -2.08171 -3.70067 0
M  V30 27766 O 2652.34 -1.80503 -3.07078 0
M  V30 27767 O 2651.2 -2.54979 -4.83371 0
M  V30 27768 H 2648.3 -0.354052 -0.74738 0
M  V30 27769 H 2650.84 -1.32551 -1.05964 0
M  V30 27770 H 2649.61 -2.83793 -2.69402 0
M  V30 27771 H 2649.24 -1.4504 -3.70201 0
M  V30 27772 N 2650.23 1.19778 -1.02425 0
M  V30 27773 C 2651.18 2.20715 -0.571728 0
M  V30 27774 C 2652.17 1.5642 0.377049 0
M  V30 27775 O 2653.36 1.7588 0.19877 0
M  V30 27776 C 2650.49 3.43205 0.0807951 0
M  V30 27777 C 2649.57 4.14653 -0.890146 0
M  V30 27778 N 2649.97 4.62362 -2.05073 0
M  V30 27779 C 2648.26 4.4027 -0.712598 0
M  V30 27780 C 2648.96 5.17178 -2.66273 0
M  V30 27781 N 2647.94 5.077 -1.94273 0
M  V30 27782 H 2651.74 2.55276 -1.45641 0
M  V30 27783 H 2649.26 1.358 -0.89062 0
M  V30 27784 H 2651.25 4.14753 0.422581 0
M  V30 27785 H 2649.91 3.10146 0.96122 0
M  V30 27786 H 2650.92 4.57334 -2.43035 0
M  V30 27787 H 2647.6 4.1733 0.119126 0
M  V30 27788 H 2648.99 5.64414 -3.64536 0
M  V30 27789 N 2651.71 0.801501 1.35697 0
M  V30 27790 C 2652.94 0.391236 2.02862 0
M  V30 27791 C 2653.35 -1.00096 1.60553 0
M  V30 27792 O 2652.69 -1.65546 0.796244 0
M  V30 27793 C 2652.75 0.389362 3.57385 0
M  V30 27794 C 2652.42 1.7312 4.2294 0
M  V30 27795 C 2653.42 2.68867 4.44979 0
M  V30 27796 C 2651.1 2.01381 4.60164 0
M  V30 27797 C 2653.09 3.91062 5.03338 0
M  V30 27798 C 2650.78 3.23841 5.18238 0
M  V30 27799 C 2651.78 4.18499 5.39766 0
M  V30 27800 O 2651.47 5.38798 5.96617 0
M  V30 27801 H 2651.2 0.157743 0.657338 0
M  V30 27802 H 2653.75 1.08499 1.74405 0
M  V30 27803 H 2651.98 -0.360964 3.85012 0
M  V30 27804 H 2653.67 0.00210785 4.059 0
M  V30 27805 H 2654.44 2.48323 4.16606 0
M  V30 27806 H 2650.32 1.28516 4.42724 0
M  V30 27807 H 2653.86 4.64958 5.20057 0
M  V30 27808 H 2649.76 3.44257 5.46038 0
M  V30 27809 H 2650.53 5.40026 6.15073 0
M  V30 27810 N 2653.19 -1.47521 0.554558 0
M  V30 27811 C 2654.41 -2.07375 0.0323025 0
M  V30 27812 C 2654.84 -1.4049 -1.25077 0
M  V30 27813 O 2654.2 -0.47899 -1.74858 0
M  V30 27814 C 2654.25 -3.60291 -0.149334 0
M  V30 27815 O 2653.35 -3.94172 -1.21252 0
M  V30 27816 H 2652.69 -0.662105 0.0501345 0
M  V30 27817 H 2655.22 -1.89579 0.769485 0
M  V30 27818 H 2655.23 -4.0637 -0.364365 0
M  V30 27819 H 2653.91 -4.0837 0.787815 0
M  V30 27820 H 2652.48 -3.59842 -0.978187 0
M  V30 27821 N 2654.67 -0.290879 -1.54892 0
M  V30 27822 C 2655.58 0.59941 -2.26813 0
M  V30 27823 C 2656.59 1.15694 -1.29965 0
M  V30 27824 O 2657.77 1.18388 -1.6293 0
M  V30 27825 C 2654.83 1.75976 -2.98719 0
M  V30 27826 C 2653.9 1.23733 -4.11082 0
M  V30 27827 C 2653.13 2.34238 -4.7955 0
M  V30 27828 O 2653.35 3.53928 -4.47316 0
M  V30 27829 O 2652.29 2.01502 -5.67169 0
M  V30 27830 H 2656.11 0.0163027 -3.03696 0
M  V30 27831 H 2653.7 -0.0577018 -1.49289 0
M  V30 27832 H 2655.58 2.43601 -3.43855 0
M  V30 27833 H 2654.25 2.32966 -2.24741 0
M  V30 27834 H 2653.16 0.527098 -3.70368 0
M  V30 27835 H 2654.49 0.712984 -4.87009 0
M  V30 27836 N 2656.15 1.57589 -0.0184203 0
M  V30 27837 C 2657.08 2.06451 0.99552 0
M  V30 27838 C 2658.09 0.985871 1.29555 0
M  V30 27839 O 2659.28 1.26229 1.26208 0
M  V30 27840 C 2656.38 2.46506 2.32568 0
M  V30 27841 C 2655.55 3.77323 2.21238 0
M  V30 27842 C 2654.61 4.04045 3.37097 0
M  V30 27843 O 2653.64 4.74451 3.1446 0
M  V30 27844 N 2654.84 3.5338 4.60547 0
M  V30 27845 H 2657.6 2.9406 0.578694 0
M  V30 27846 H 2655.17 1.6102 0.168575 0
M  V30 27847 H 2657.16 2.61483 3.08883 0
M  V30 27848 H 2655.73 1.6432 2.65928 0
M  V30 27849 H 2654.95 3.72246 1.29717 0
M  V30 27850 H 2656.24 4.6305 2.1086 0
M  V30 27851 H 2655.63 2.964 4.81834 0
M  V30 27852 H 2654.19 3.73654 5.34066 0
M  V30 27853 N 2657.62 -0.254594 1.5553 0
M  V30 27854 C 2658.55 -1.31893 1.92682 0
M  V30 27855 C 2659.53 -1.50599 0.790824 0
M  V30 27856 O 2660.72 -1.63335 1.05048 0
M  V30 27857 C 2657.85 -2.67513 2.21482 0
M  V30 27858 C 2656.8 -2.63513 3.37261 0
M  V30 27859 C 2656.13 -4.02856 3.51583 0
M  V30 27860 C 2657.43 -2.2117 4.73161 0
M  V30 27861 H 2659.12 -1.01046 2.81833 0
M  V30 27862 H 2656.67 -0.484638 1.356 0
M  V30 27863 H 2658.62 -3.42099 2.46061 0
M  V30 27864 H 2657.35 -2.9998 1.29149 0
M  V30 27865 H 2656.01 -1.91384 3.12678 0
M  V30 27866 H 2655.65 -4.32576 2.56684 0
M  V30 27867 H 2655.35 -4.0107 4.29437 0
M  V30 27868 H 2656.88 -4.79154 3.78475 0
M  V30 27869 H 2658.29 -2.85486 4.97163 0
M  V30 27870 H 2656.69 -2.30511 5.54062 0
M  V30 27871 H 2657.76 -1.16324 4.70741 0
M  V30 27872 N 2659.1 -1.48777 -0.519925 0
M  V30 27873 C 2660.05 -1.64047 -1.6235 0
M  V30 27874 C 2661.02 -0.482279 -1.58944 0
M  V30 27875 O 2662.2 -0.707003 -1.77218 0
M  V30 27876 C 2659.34 -1.69552 -3.00576 0
M  V30 27877 C 2658.46 -2.96547 -3.1414 0
M  V30 27878 C 2657.59 -2.9315 -4.42986 0
M  V30 27879 C 2656.63 -4.14805 -4.50114 0
M  V30 27880 N 2655.77 -4.09428 -5.70363 0
M  V30 27881 H 2660.61 -2.58284 -1.48639 0
M  V30 27882 H 2658.14 -1.28078 -0.723493 0
M  V30 27883 H 2660.1 -1.70726 -3.80668 0
M  V30 27884 H 2658.73 -0.787973 -3.13035 0
M  V30 27885 H 2657.78 -3.05072 -2.27234 0
M  V30 27886 H 2659.1 -3.86533 -3.15268 0
M  V30 27887 H 2658.25 -2.92781 -5.3138 0
M  V30 27888 H 2656.99 -2.0091 -4.44395 0
M  V30 27889 H 2655.99 -4.15439 -3.60126 0
M  V30 27890 H 2657.22 -5.08216 -4.50436 0
M  V30 27891 H 2655.17 -3.20014 -5.72649 0
M  V30 27892 H 2655.08 -4.93129 -5.73027 0
M  V30 27893 H 2656.35 -4.13133 -6.61016 0
M  V30 27894 N 2660.58 0.769564 -1.37534 0
M  V30 27895 C 2661.51 1.89028 -1.27843 0
M  V30 27896 C 2662.49 1.61825 -0.158532 0
M  V30 27897 O 2663.67 1.85533 -0.333118 0
M  V30 27898 C 2660.8 3.24299 -0.977129 0
M  V30 27899 C 2659.85 3.7041 -2.11421 0
M  V30 27900 S 2660.68 3.83824 -3.73416 0
M  V30 27901 C 2661.84 5.2194 -3.45441 0
M  V30 27902 H 2662.07 1.96959 -2.22698 0
M  V30 27903 H 2659.6 0.930892 -1.23182 0
M  V30 27904 H 2661.56 4.02427 -0.81012 0
M  V30 27905 H 2660.22 3.14066 -0.0460253 0
M  V30 27906 H 2659.41 4.68484 -1.85845 0
M  V30 27907 H 2659.02 2.9939 -2.24146 0
M  V30 27908 H 2661.31 6.0718 -3.00565 0
M  V30 27909 H 2662.25 5.52529 -4.42851 0
M  V30 27910 H 2662.66 4.89981 -2.80319 0
M  V30 27911 N 2662.06 1.22139 0.995977 0
M  V30 27912 C 2662.99 1.01293 2.10385 0
M  V30 27913 C 2663.97 -0.0651155 1.69975 0
M  V30 27914 O 2665.15 0.0964969 1.9396 0
M  V30 27915 C 2662.28 0.586577 3.42311 0
M  V30 27916 C 2661.24 1.61021 3.96556 0
M  V30 27917 C 2660.56 1.03979 5.24493 0
M  V30 27918 C 2661.86 2.9994 4.2759 0
M  V30 27919 H 2663.56 1.93955 2.28083 0
M  V30 27920 H 2661.1 0.933947 1.09606 0
M  V30 27921 H 2663.06 0.427867 4.19222 0
M  V30 27922 H 2661.78 -0.375704 3.24432 0
M  V30 27923 H 2660.44 1.75664 3.21773 0
M  V30 27924 H 2660.09 0.0689587 5.02953 0
M  V30 27925 H 2659.79 1.72362 5.61752 0
M  V30 27926 H 2661.31 0.892601 6.04041 0
M  V30 27927 H 2662.73 2.88689 4.9531 0
M  V30 27928 H 2661.12 3.65418 4.76014 0
M  V30 27929 H 2662.19 3.50105 3.35491 0
M  V30 27930 N 2663.54 -1.19233 1.03059 0
M  V30 27931 C 2664.48 -2.24556 0.606431 0
M  V30 27932 C 2665.48 -1.65491 -0.361797 0
M  V30 27933 O 2666.68 -1.78522 -0.230189 0
M  V30 27934 H 2663.06 -0.730666 0.177851 0
M  V30 27935 H 2665.03 -2.57648 1.50533 0
M  V30 27936 C 2663.78 -3.47691 -0.0251516 0
M  V30 27937 H 2663.1 -3.93429 0.710907 0
M  V30 27938 H 2664.54 -4.23042 -0.284856 0
M  V30 27939 C 2663 -3.11955 -1.27223 0
M  V30 27940 O 2663.53 -3.24766 -2.36411 0
M  V30 27941 N 2661.74 -2.66372 -1.16165 0
M  V30 27942 H 2661.28 -2.56148 -0.273144 0
M  V30 27943 H 2661.24 -2.42833 -1.99699 0
M  V30 27944 N 2665.01 -0.808686 -1.3527 0
M  V30 27945 C 2666.26 -0.386518 -1.97962 0
M  V30 27946 C 2666.58 1.05252 -1.64868 0
M  V30 27947 O 2667.78 1.5779 -2.2094 0
M  V30 27948 C 2666.24 -0.640158 -3.54161 0
M  V30 27949 C 2665.85 -2.09187 -3.96162 0
M  V30 27950 C 2667.59 -0.283451 -4.23553 0
M  V30 27951 C 2665.5 -2.29115 -5.45216 0
M  V30 27952 H 2664.43 -0.140787 -0.74074 0
M  V30 27953 H 2667.08 -0.993039 -1.54308 0
M  V30 27954 H 2665.46 0.0363421 -3.95983 0
M  V30 27955 H 2666.63 -2.80636 -3.65486 0
M  V30 27956 H 2664.95 -2.40865 -3.39666 0
M  V30 27957 H 2667.55 -0.410366 -5.33123 0
M  V30 27958 H 2667.89 0.770587 -4.09106 0
M  V30 27959 H 2668.42 -0.913952 -3.87159 0
M  V30 27960 H 2665.16 -3.32972 -5.64632 0
M  V30 27961 H 2664.68 -1.62194 -5.77454 0
M  V30 27962 H 2666.36 -2.10771 -6.11706 0
M  V30 27963 N 2666.49 1.47225 -0.562374 0
M  V30 27964 C 2667.77 1.95583 0.0256641 0
M  V30 27965 C 2668.15 1.50501 1.4803 0
M  V30 27966 O 2667.5 0.746219 2.15972 0
M  V30 27967 C 2667.71 3.48775 -0.12519 0
M  V30 27968 C 2669.06 4.24596 0.0174982 0
M  V30 27969 O 2670.08 3.56161 -0.0529967 0
M  V30 27970 O 2668.94 5.46235 0.170049 0
M  V30 27971 H 2666.03 0.824729 0.061242 0
M  V30 27972 H 2668.58 1.57602 -0.629261 0
M  V30 27973 H 2667.35 3.7441 -1.13721 0
M  V30 27974 H 2666.97 3.93535 0.567109 0
M  V30 27975 N 2667.97 0.299089 1.54736 0
M  V30 27976 C 2669.38 -0.193938 1.8569 0
M  V30 27977 C 2669.73 -1.53575 1.22104 0
M  V30 27978 O 2668.86 -2.10108 0.518027 0
M  V30 27979 C 2669.45 -0.358674 3.36896 0
M  V30 27980 C 2668.01 -0.795922 3.67889 0
M  V30 27981 C 2667.16 0.0968557 2.77131 0
M  V30 27982 H 2670.11 0.520161 1.49933 0
M  V30 27983 H 2670.13 -1.19355 3.61296 0
M  V30 27984 H 2669.64 0.618066 3.83147 0
M  V30 27985 H 2667.74 -1.78328 3.27154 0
M  V30 27986 H 2667.86 -0.616634 4.75115 0
M  V30 27987 H 2666.22 -0.423537 2.51154 0
M  V30 27988 H 2667 1.06991 3.26202 0
M  V30 27989 N 2669.45 -1.57577 0.0267774 0
M  V30 27990 C 2670.86 -1.5616 -0.329593 0
M  V30 27991 C 2671.06 -1.03216 -1.73057 0
M  V30 27992 O 2670.12 -0.677847 -2.43231 0
M  V30 27993 C 2671.43 -3.00159 -0.180337 0
M  V30 27994 C 2672.98 -3.11974 -0.253279 0
M  V30 27995 C 2673.46 -4.57807 -0.13284 0
M  V30 27996 N 2674.95 -4.62811 -0.189898 0
M  V30 27997 C 2675.68 -5.73273 -0.120454 0
M  V30 27998 N 2675.18 -6.928 -5.85384e-05 0
M  V30 27999 N 2676.97 -5.6183 -0.174271 0
M  V30 28000 H 2669.12 -1.90322 0.94293 0
M  V30 28001 H 2671.39 -0.875368 0.363916 0
M  V30 28002 H 2671.09 -3.42836 0.784636 0
M  V30 28003 H 2670.97 -3.65002 -0.951501 0
M  V30 28004 H 2673.35 -2.6921 -1.20871 0
M  V30 28005 H 2673.43 -2.49856 0.54822 0
M  V30 28006 H 2673.08 -5.01251 0.819161 0
M  V30 28007 H 2673.01 -5.17902 -0.953173 0
M  V30 28008 H 2675.5 -3.76837 -0.283191 0
M  V30 28009 H 2675.81 -7.72786 0.0463024 0
M  V30 28010 H 2674.16 -6.94991 0.0346911 0
M  V30 28011 H 2677.35 -4.6734 -0.266712 0
M  V30 28012 H 2677.52 -6.47895 -0.116688 0
M  V30 28013 N 2670.93 0.246342 -1.55663 0
M  V30 28014 C 2672.34 0.815361 -1.67955 0
M  V30 28015 C 2672.69 1.86001 -0.624334 0
M  V30 28016 O 2671.81 2.15182 0.22929 0
M  V30 28017 C 2672.41 1.48571 -3.04487 0
M  V30 28018 C 2670.97 2.00242 -3.18716 0
M  V30 28019 C 2670.11 0.85372 -2.63831 0
M  V30 28020 H 2673.07 0.0221413 -1.58685 0
M  V30 28021 H 2673.09 2.35375 -2.98963 0
M  V30 28022 H 2672.6 0.725155 -3.81265 0
M  V30 28023 H 2670.7 2.79176 -2.46762 0
M  V30 28024 H 2670.81 2.19942 -4.25632 0
M  V30 28025 H 2669.18 1.25438 -2.2167 0
M  V30 28026 H 2669.96 0.106242 -3.43136 0
M  V30 28027 N 2672.4 1.4905 0.512027 0
M  V30 28028 C 2673.65 1.57229 1.2634 0
M  V30 28029 C 2673.97 0.259189 1.93875 0
M  V30 28030 O 2675.17 0.219405 2.70612 0
M  V30 28031 C 2673.63 2.77366 2.29338 0
M  V30 28032 C 2673.24 4.15391 1.67792 0
M  V30 28033 C 2674.98 2.94869 3.05373 0
M  V30 28034 C 2672.89 5.26765 2.68836 0
M  V30 28035 H 2671.82 0.58539 0.475221 0
M  V30 28036 H 2674.47 1.75418 0.53859 0
M  V30 28037 H 2672.85 2.52649 3.04934 0
M  V30 28038 H 2674.02 4.50201 0.982636 0
M  V30 28039 H 2672.34 4.03155 1.04187 0
M  V30 28040 H 2674.94 3.75245 3.80914 0
M  V30 28041 H 2675.28 2.05006 3.62323 0
M  V30 28042 H 2675.81 3.19573 2.36892 0
M  V30 28043 H 2672.55 6.18651 2.16681 0
M  V30 28044 H 2672.07 4.96422 3.36638 0
M  V30 28045 H 2673.75 5.55636 3.31478 0
M  V30 28046 N 2673.88 -0.762259 1.3794 0
M  V30 28047 C 2675.11 -1.55657 1.37061 0
M  V30 28048 C 2675.53 -1.88058 -0.0395792 0
M  V30 28049 O 2674.89 -1.49935 -1.01927 0
M  V30 28050 C 2674.94 -2.83772 2.22499 0
M  V30 28051 O 2674.04 -3.78556 1.63613 0
M  V30 28052 H 2673.38 -0.471132 0.4679 0
M  V30 28053 H 2675.91 -0.942693 1.81589 0
M  V30 28054 H 2675.92 -3.32782 2.36051 0
M  V30 28055 H 2674.6 -2.59518 3.24997 0
M  V30 28056 H 2673.18 -3.3723 1.59156 0
M  V30 28057 N 2675.36 -1.22666 -0.989486 0
M  V30 28058 C 2676.29 -0.943022 -2.07804 0
M  V30 28059 C 2677.27 0.115328 -1.6219 0
M  V30 28060 O 2678.46 -0.0169896 -1.88492 0
M  V30 28061 C 2675.58 -0.418957 -3.36099 0
M  V30 28062 C 2674.63 -1.46251 -4.00641 0
M  V30 28063 S 2675.46 -3.03696 -4.41054 0
M  V30 28064 C 2676.62 -2.52937 -5.72515 0
M  V30 28065 H 2676.85 -1.86481 -2.31543 0
M  V30 28066 H 2674.38 -1.0581 -1.12444 0
M  V30 28067 H 2676.34 -0.123186 -4.10315 0
M  V30 28068 H 2675 0.481763 -3.10383 0
M  V30 28069 H 2674.2 -1.04577 -4.93031 0
M  V30 28070 H 2673.8 -1.70716 -3.32764 0
M  V30 28071 H 2676.09 -1.9439 -6.49014 0
M  V30 28072 H 2677.03 -3.43831 -6.1902 0
M  V30 28073 H 2677.44 -1.94103 -5.3008 0
M  V30 28074 N 2676.84 1.18685 -1.0369 0
M  V30 28075 C 2677.75 2.25844 -0.634948 0
M  V30 28076 C 2678.77 1.70705 0.337035 0
M  V30 28077 O 2679.94 2.00474 0.192908 0
M  V30 28078 C 2677.01 3.467 -0.000240995 0
M  V30 28079 C 2676.07 4.16988 -1.02075 0
M  V30 28080 C 2675.3 5.32074 -0.416234 0
M  V30 28081 O 2675.52 5.65061 0.778613 0
M  V30 28082 O 2674.46 5.90946 -1.14306 0
M  V30 28083 H 2678.28 2.62483 -1.52762 0
M  V30 28084 H 2675.87 1.25694 -0.807555 0
M  V30 28085 H 2677.75 4.19917 0.353268 0
M  V30 28086 H 2676.43 3.11892 0.866312 0
M  V30 28087 H 2675.33 3.45856 -1.42598 0
M  V30 28088 H 2676.67 4.55787 -1.85794 0
M  V30 28089 N 2678.32 0.815849 1.34839 0
M  V30 28090 C 2679.59 0.32345 1.92907 0
M  V30 28091 C 2679.97 -1.18825 1.74481 0
M  V30 28092 O 2679.32 -1.99207 1.11932 0
M  V30 28093 C 2679.53 0.745012 3.40955 0
M  V30 28094 C 2680.88 0.739789 4.18106 0
M  V30 28095 O 2681.9 0.687141 3.49509 0
M  V30 28096 O 2680.76 0.806551 5.40516 0
M  V30 28097 H 2677.86 0.086779 0.822434 0
M  V30 28098 H 2680.4 0.900166 1.43858 0
M  V30 28099 H 2679.18 1.78652 3.48137 0
M  V30 28100 H 2678.8 0.143605 3.97341 0
M  V30 28101 N 2679.8 -1.46924 0.570174 0
M  V30 28102 C 2680.76 -2.28642 -0.159893 0
M  V30 28103 C 2681.76 -1.37686 -0.830614 0
M  V30 28104 O 2682.95 -1.60189 -0.684487 0
M  V30 28105 C 2680.08 -3.17729 -1.23535 0
M  V30 28106 H 2681.27 -2.94661 0.558087 0
M  V30 28107 H 2678.83 -1.52828 0.32763 0
M  V30 28108 H 2679.56 -2.56429 -1.98531 0
M  V30 28109 H 2679.35 -3.84683 -0.759058 0
M  V30 28110 H 2680.84 -3.79267 -1.74775 0
M  V30 28111 N 2681.27 -0.307291 -1.54575 0
M  V30 28112 C 2682.52 0.300941 -1.99442 0
M  V30 28113 C 2682.84 1.54518 -1.19931 0
M  V30 28114 O 2684.04 2.2284 -1.55096 0
M  V30 28115 C 2682.5 0.586747 -3.55085 0
M  V30 28116 C 2682.11 -0.639516 -4.43412 0
M  V30 28117 C 2683.85 1.15583 -4.08462 0
M  V30 28118 C 2681.76 -0.326514 -5.90498 0
M  V30 28119 H 2680.69 0.116225 -0.744988 0
M  V30 28120 H 2683.34 -0.416978 -1.787 0
M  V30 28121 H 2681.72 1.36443 -3.71752 0
M  V30 28122 H 2682.89 -1.41553 -4.3852 0
M  V30 28123 H 2681.21 -1.12767 -4.0084 0
M  V30 28124 H 2683.81 1.40436 -5.15928 0
M  V30 28125 H 2684.15 2.10009 -3.59447 0
M  V30 28126 H 2684.68 0.439709 -3.95362 0
M  V30 28127 H 2681.42 -1.23951 -6.43674 0
M  V30 28128 H 2680.94 0.412107 -5.98383 0
M  V30 28129 H 2682.62 0.0696256 -6.46963 0
M  V30 28130 N 2682.75 1.57561 -0.0351337 0
M  V30 28131 C 2683.98 1.96066 0.651277 0
M  V30 28132 C 2684.39 0.910543 1.65849 0
M  V30 28133 O 2683.73 -0.115487 1.83337 0
M  V30 28134 C 2683.79 3.30742 1.40891 0
M  V30 28135 C 2683.46 4.53564 0.559357 0
M  V30 28136 C 2684.46 5.19629 -0.167872 0
M  V30 28137 C 2682.14 4.99855 0.494991 0
M  V30 28138 C 2684.13 6.3031 -0.948074 0
M  V30 28139 C 2681.82 6.10417 -0.288911 0
M  V30 28140 C 2682.82 6.75504 -1.00915 0
M  V30 28141 O 2682.51 7.83942 -1.78019 0
M  V30 28142 H 2682.24 0.65047 0.184024 0
M  V30 28143 H 2684.79 2.05189 -0.0930037 0
M  V30 28144 H 2683.02 3.18126 2.19847 0
M  V30 28145 H 2684.71 3.54107 1.98401 0
M  V30 28146 H 2685.48 4.84832 -0.127515 0
M  V30 28147 H 2681.36 4.48996 1.04516 0
M  V30 28148 H 2684.9 6.81045 -1.51076 0
M  V30 28149 H 2680.8 6.44651 -0.330963 0
M  V30 28150 H 2681.57 8.00638 -1.7006 0
M  V30 28151 N 2684.23 -0.238084 1.55791 0
M  V30 28152 C 2685.48 -0.96297 1.77683 0
M  V30 28153 C 2685.8 -1.85517 0.600706 0
M  V30 28154 O 2685.07 -1.92117 -0.383148 0
M  V30 28155 H 2683.65 -0.358556 0.655322 0
M  V30 28156 H 2686.31 -0.253911 1.93239 0
M  V30 28157 H 2685.41 -1.57952 2.6918 0
M  V30 28158 N 2685.71 -1.4932 -0.504115 0
M  V30 28159 C 2686.94 -1.62353 -1.28254 0
M  V30 28160 C 2687.35 -0.293715 -1.86501 0
M  V30 28161 O 2686.71 0.72042 -1.67679 0
M  V30 28162 C 2686.76 -2.68996 -2.41502 0
M  V30 28163 O 2686.48 -3.9682 -1.85649 0
M  V30 28164 C 2687.98 -2.92706 -3.32923 0
M  V30 28165 H 2685.2 -0.546661 -0.389106 0
M  V30 28166 H 2687.74 -1.9533 -0.605496 0
M  V30 28167 H 2685.9 -2.38806 -3.05042 0
M  V30 28168 H 2686.31 -4.55538 -2.59973 0
M  V30 28169 H 2687.79 -3.71066 -4.08674 0
M  V30 28170 H 2688.26 -2.02503 -3.8973 0
M  V30 28171 H 2688.87 -3.24301 -2.75153 0
M  V30 28172 N 2687.19 0.754933 -1.38342 0
M  V30 28173 C 2688.1 1.89941 -1.37693 0
M  V30 28174 C 2689.11 1.71826 -0.274225 0
M  V30 28175 O 2690.29 1.94772 -0.512426 0
M  V30 28176 C 2687.35 3.25291 -1.19944 0
M  V30 28177 C 2686.41 3.55942 -2.40007 0
M  V30 28178 C 2685.65 4.84834 -2.23095 0
M  V30 28179 O 2685.87 5.57114 -1.22396 0
M  V30 28180 O 2684.8 5.14932 -3.11655 0
M  V30 28181 H 2688.63 1.93442 -2.34124 0
M  V30 28182 H 2686.21 0.900023 -1.19247 0
M  V30 28183 H 2688.1 4.06216 -1.121 0
M  V30 28184 H 2686.77 3.22605 -0.265976 0
M  V30 28185 H 2685.68 2.75184 -2.53426 0
M  V30 28186 H 2687.01 3.63388 -3.31979 0
M  V30 28187 N 2688.66 1.23189 0.982967 0
M  V30 28188 C 2689.91 1.06034 1.7205 0
M  V30 28189 C 2690.23 -0.403986 1.90769 0
M  V30 28190 O 2689.5 -1.28979 1.47449 0
M  V30 28191 H 2688.08 0.389375 0.637492 0
M  V30 28192 H 2690.74 1.54864 1.18335 0
M  V30 28193 H 2689.84 1.5462 2.71107 0
M  V30 28194 N 2690.14 -1.18133 1.04318 0
M  V30 28195 C 2691.07 -2.24057 0.657338 0
M  V30 28196 C 2692.05 -1.66654 -0.340649 0
M  V30 28197 O 2693.24 -1.92948 -0.22019 0
M  V30 28198 C 2690.37 -3.47293 0.0221325 0
M  V30 28199 C 2689.32 -4.17461 0.943931 0
M  V30 28200 C 2688.65 -5.3442 0.173067 0
M  V30 28201 C 2689.95 -4.70673 2.26417 0
M  V30 28202 H 2691.64 -2.56586 1.54285 0
M  V30 28203 H 2689.19 -1.23334 0.743284 0
M  V30 28204 H 2691.14 -4.206 -0.259533 0
M  V30 28205 H 2689.86 -3.14004 -0.898268 0
M  V30 28206 H 2688.52 -3.46055 1.21002 0
M  V30 28207 H 2688.17 -4.9738 -0.74982 0
M  V30 28208 H 2687.87 -5.82303 0.7872 0
M  V30 28209 H 2689.4 -6.10516 -0.101521 0
M  V30 28210 H 2690.81 -5.35661 2.04303 0
M  V30 28211 H 2689.21 -5.291 2.83149 0
M  V30 28212 H 2690.28 -3.87957 2.9089 0
M  V30 28213 N 2691.62 -0.822988 -1.34405 0
M  V30 28214 C 2692.53 -0.246879 -2.33297 0
M  V30 28215 C 2693.55 0.618768 -1.62626 0
M  V30 28216 O 2694.72 0.526651 -1.94392 0
M  V30 28217 C 2691.79 0.581671 -3.41786 0
M  V30 28218 C 2690.85 -0.306384 -4.28205 0
M  V30 28219 C 2690.08 0.482716 -5.31513 0
M  V30 28220 O 2690.3 1.71598 -5.43976 0
M  V30 28221 O 2689.24 -0.134989 -6.01749 0
M  V30 28222 H 2693.06 -1.06539 -2.844 0
M  V30 28223 H 2690.65 -0.585132 -1.37465 0
M  V30 28224 H 2692.53 1.05305 -4.0803 0
M  V30 28225 H 2691.21 1.37751 -2.92927 0
M  V30 28226 H 2690.11 -0.825263 -3.64884 0
M  V30 28227 H 2691.45 -1.06658 -4.80505 0
M  V30 28228 N 2693.1 1.4662 -0.577957 0
M  V30 28229 C 2694.06 2.28723 0.147765 0
M  V30 28230 C 2695.06 1.38125 0.8233 0
M  V30 28231 O 2696.25 1.60549 0.675983 0
M  V30 28232 C 2693.38 3.1838 1.21848 0
M  V30 28233 H 2694.58 2.94361 -0.573706 0
M  V30 28234 H 2692.13 1.52652 -0.33573 0
M  V30 28235 H 2692.86 2.57479 1.97168 0
M  V30 28236 H 2692.65 3.8508 0.738647 0
M  V30 28237 H 2694.14 3.80189 1.72761 0
M  V30 28238 N 2694.58 0.315484 1.5441 0
M  V30 28239 C 2695.51 -0.546999 2.27003 0
M  V30 28240 C 2696.49 -1.12603 1.27494 0
M  V30 28241 O 2697.67 -1.15267 1.56292 0
M  V30 28242 C 2694.8 -1.71196 3.02174 0
M  V30 28243 C 2693.76 -1.26261 4.08952 0
M  V30 28244 C 2693.08 -2.51388 4.7192 0
M  V30 28245 C 2694.38 -0.383327 5.20891 0
M  V30 28246 H 2696.08 0.0585043 2.99343 0
M  V30 28247 H 2693.62 0.0295781 1.4397 0
M  V30 28248 H 2695.58 -2.32155 3.51685 0
M  V30 28249 H 2694.3 -2.34393 2.27437 0
M  V30 28250 H 2692.96 -0.675999 3.60313 0
M  V30 28251 H 2692.61 -3.12931 3.93806 0
M  V30 28252 H 2692.31 -2.22017 5.44043 0
M  V30 28253 H 2693.83 -3.13124 5.242 0
M  V30 28254 H 2695.24 -0.898983 5.66208 0
M  V30 28255 H 2693.64 -0.182752 5.99822 0
M  V30 28256 H 2694.71 0.587906 4.81323 0
M  V30 28257 N 2696.05 -1.5754 0.0434891 0
M  V30 28258 C 2697.33 -1.83714 -0.671447 0
M  V30 28259 C 2697.71 -0.930348 -1.89493 0
M  V30 28260 O 2697.06 0.0105237 -2.28498 0
M  V30 28261 C 2697.27 -3.33268 -1.03604 0
M  V30 28262 C 2698.62 -4.00095 -1.4216 0
M  V30 28263 O 2699.64 -3.37848 -1.1286 0
M  V30 28264 O 2698.5 -5.09832 -1.96808 0
M  V30 28265 H 2695.59 -0.757996 -0.330713 0
M  V30 28266 H 2698.14 -1.69546 0.0722671 0
M  V30 28267 H 2696.91 -3.90948 -0.165869 0
M  V30 28268 H 2696.54 -3.52595 -1.83745 0
M  V30 28269 N 2697.53 0.229818 -1.55915 0
M  V30 28270 C 2698.46 1.28811 -1.94756 0
M  V30 28271 C 2699.44 1.49322 -0.814683 0
M  V30 28272 O 2700.63 1.61644 -1.07634 0
M  V30 28273 C 2697.76 2.63955 -2.2571 0
M  V30 28274 C 2696.71 2.58114 -3.4141 0
M  V30 28275 C 2696.04 3.97212 -3.57948 0
M  V30 28276 C 2697.34 2.13615 -4.76619 0
M  V30 28277 H 2699.03 0.965497 -2.83405 0
M  V30 28278 H 2696.58 0.463004 -1.36353 0
M  V30 28279 H 2698.53 3.38141 -2.51472 0
M  V30 28280 H 2697.26 2.97888 -1.33905 0
M  V30 28281 H 2695.91 1.86386 -3.15683 0
M  V30 28282 H 2695.56 4.28438 -2.63534 0
M  V30 28283 H 2695.26 3.94188 -4.35764 0
M  V30 28284 H 2696.79 4.73072 -3.8605 0
M  V30 28285 H 2698.2 2.7754 -5.01642 0
M  V30 28286 H 2696.6 2.21667 -5.57659 0
M  V30 28287 H 2697.67 1.0882 -4.72532 0
M  V30 28288 N 2699.01 1.49585 0.49619 0
M  V30 28289 C 2700.26 1.59 1.24754 0
M  V30 28290 C 2700.58 0.280809 1.92968 0
M  V30 28291 O 2699.85 -0.700166 1.8296 0
M  V30 28292 H 2698.43 0.585844 0.46346 0
M  V30 28293 H 2701.09 1.86236 0.574645 0
M  V30 28294 H 2700.19 2.3885 2.00891 0
M  V30 28295 N 2700.49 -0.747586 1.3874 0
M  V30 28296 C 2701.72 -1.53684 1.38524 0
M  V30 28297 C 2702.13 -1.88785 -0.0234797 0
M  V30 28298 O 2701.49 -1.53208 -0.991635 0
M  V30 28299 C 2701.54 -2.83225 2.24646 0
M  V30 28300 O 2701.26 -2.49619 3.60031 0
M  V30 28301 C 2702.76 -3.77329 2.32675 0
M  V30 28302 H 2699.98 -0.475338 0.473597 0
M  V30 28303 H 2702.53 -0.924754 1.82397 0
M  V30 28304 H 2700.68 -3.40796 1.84219 0
M  V30 28305 H 2701.09 -3.32743 4.05441 0
M  V30 28306 H 2702.57 -4.65157 2.97209 0
M  V30 28307 H 2703.05 -4.18189 1.34217 0
M  V30 28308 H 2703.65 -3.25681 2.73518 0
M  V30 28309 N 2701.97 -1.23709 -0.97642 0
M  V30 28310 C 2703.19 -1.09925 -1.75873 0
M  V30 28311 C 2703.62 0.344858 -1.84912 0
M  V30 28312 O 2702.97 1.24951 -1.31365 0
M  V30 28313 C 2703.02 -1.73393 -3.16176 0
M  V30 28314 O 2702.13 -0.998781 -4.00123 0
M  V30 28315 H 2701.47 -0.385061 -0.540947 0
M  V30 28316 H 2704 -1.63842 -1.22543 0
M  V30 28317 H 2704.01 -1.78795 -3.66738 0
M  V30 28318 H 2702.68 -2.78471 -3.08912 0
M  V30 28319 H 2701.26 -1.022 -3.58622 0
M  V30 28320 N 2703.44 1.17579 -1.04943 0
M  V30 28321 C 2704.41 2.19716 -0.652494 0
M  V30 28322 C 2705.41 1.58076 0.294717 0
M  V30 28323 O 2706.6 1.74021 0.0789273 0
M  V30 28324 C 2703.73 3.40874 0.0420113 0
M  V30 28325 H 2704.92 2.56348 -1.55647 0
M  V30 28326 H 2702.48 1.31616 -0.843019 0
M  V30 28327 H 2703.21 3.09785 0.959376 0
M  V30 28328 H 2703 3.8686 -0.638912 0
M  V30 28329 H 2704.49 4.16478 0.305927 0
M  V30 28330 N 2704.92 0.830104 1.33967 0
M  V30 28331 C 2706.15 0.433831 2.02812 0
M  V30 28332 C 2706.57 -0.954586 1.62078 0
M  V30 28333 O 2705.93 -1.6225 0.808983 0
M  V30 28334 C 2705.98 0.552178 3.56347 0
M  V30 28335 O 2705.08 -0.425119 4.10203 0
M  V30 28336 H 2704.42 0.177578 0.639814 0
M  V30 28337 H 2706.95 1.12251 1.71058 0
M  V30 28338 H 2706.96 0.430585 4.05722 0
M  V30 28339 H 2705.64 1.56477 3.85341 0
M  V30 28340 H 2704.22 -0.261812 3.7198 0
M  V30 28341 N 2706.4 -1.46311 0.585725 0
M  V30 28342 C 2707.63 -2.06453 0.0780529 0
M  V30 28343 C 2708.04 -1.43456 -1.23357 0
M  V30 28344 O 2707.38 -0.535117 -1.75733 0
M  V30 28345 C 2707.44 -3.59149 -0.158888 0
M  V30 28346 C 2707.11 -4.44355 1.0676 0
M  V30 28347 C 2708.11 -4.80704 1.98039 0
M  V30 28348 C 2705.79 -4.85445 1.29029 0
M  V30 28349 C 2707.78 -5.56974 3.09933 0
M  V30 28350 C 2705.47 -5.61473 2.41228 0
M  V30 28351 C 2706.47 -5.97152 3.31509 0
M  V30 28352 O 2706.16 -6.71643 4.41759 0
M  V30 28353 H 2705.89 -0.673685 0.0559013 0
M  V30 28354 H 2708.44 -1.88882 0.807027 0
M  V30 28355 H 2706.67 -3.75038 -0.942509 0
M  V30 28356 H 2708.36 -4.01207 -0.615443 0
M  V30 28357 H 2709.13 -4.49536 1.82051 0
M  V30 28358 H 2705.01 -4.57123 0.596648 0
M  V30 28359 H 2708.55 -5.84741 3.80426 0
M  V30 28360 H 2704.45 -5.92056 2.57177 0
M  V30 28361 H 2705.22 -6.90071 4.40164 0
M  V30 28362 N 2707.88 -0.323668 -1.54241 0
M  V30 28363 C 2709.29 0.164372 -1.85975 0
M  V30 28364 C 2709.64 1.51613 -1.24531 0
M  V30 28365 O 2708.77 2.09257 -0.551388 0
M  V30 28366 C 2709.36 0.305031 -3.37424 0
M  V30 28367 C 2707.92 0.737293 -3.69108 0
M  V30 28368 C 2707.07 -0.140933 -2.76942 0
M  V30 28369 H 2710.02 -0.543948 -1.49087 0
M  V30 28370 H 2710.04 1.13592 -3.63149 0
M  V30 28371 H 2709.55 -0.678943 -3.82115 0
M  V30 28372 H 2707.65 1.73101 -3.2995 0
M  V30 28373 H 2707.77 0.540969 -4.76036 0
M  V30 28374 H 2706.13 0.383527 -2.51796 0
M  V30 28375 H 2706.91 -1.12168 -3.24459 0
M  V30 28376 N 2709.36 1.57515 -0.0518432 0
M  V30 28377 C 2710.59 1.96746 0.630445 0
M  V30 28378 C 2711 0.928082 1.64873 0
M  V30 28379 O 2710.34 -0.0960356 1.83449 0
M  V30 28380 C 2710.4 3.32217 1.37375 0
M  V30 28381 C 2710.06 4.54132 0.511219 0
M  V30 28382 C 2711.06 5.19422 -0.222976 0
M  V30 28383 C 2708.75 5.00352 0.441947 0
M  V30 28384 C 2710.74 6.29269 -1.01487 0
M  V30 28385 C 2708.43 6.10076 -0.353637 0
M  V30 28386 C 2709.43 6.74395 -1.08073 0
M  V30 28387 O 2709.11 7.82009 -1.86323 0
M  V30 28388 H 2708.85 0.652385 0.177115 0
M  V30 28389 H 2711.4 2.05079 -0.114762 0
M  V30 28390 H 2709.63 3.2044 2.1646 0
M  V30 28391 H 2711.32 3.56192 1.94634 0
M  V30 28392 H 2712.08 4.8467 -0.178931 0
M  V30 28393 H 2707.96 4.50079 0.997483 0
M  V30 28394 H 2711.51 6.79404 -1.58291 0
M  V30 28395 H 2707.4 6.44264 -0.399318 0
M  V30 28396 H 2708.17 7.9879 -1.78542 0
M  V30 28397 N 2710.84 -0.221546 1.56035 0
M  V30 28398 C 2712.08 -0.94734 1.79313 0
M  V30 28399 C 2712.41 -1.83987 0.621485 0
M  V30 28400 O 2711.69 -1.90767 -0.379253 0
M  V30 28401 C 2711.97 -1.78627 3.12673 0
M  V30 28402 C 2711.83 -0.920235 4.40286 0
M  V30 28403 C 2713.14 -2.76404 3.42475 0
M  V30 28404 H 2710.26 -0.342971 0.652334 0
M  V30 28405 H 2712.91 -0.216211 1.88766 0
M  V30 28406 H 2711.06 -2.40961 3.04746 0
M  V30 28407 H 2712.73 -0.313637 4.60233 0
M  V30 28408 H 2710.97 -0.225658 4.33213 0
M  V30 28409 H 2711.64 -1.54162 5.30036 0
M  V30 28410 H 2714.12 -2.24205 3.5053 0
M  V30 28411 H 2712.99 -3.32205 4.36956 0
M  V30 28412 H 2713.25 -3.54143 2.64642 0
M  V30 28413 N 2712.31 -1.49846 -0.48825 0
M  V30 28414 C 2713.28 -1.66922 -1.57066 0
M  V30 28415 C 2714.28 -0.540505 -1.51444 0
M  V30 28416 O 2715.47 -0.807215 -1.54369 0
M  V30 28417 C 2712.6 -1.67849 -2.96715 0
M  V30 28418 H 2713.79 -2.63476 -1.43249 0
M  V30 28419 H 2711.34 -1.39069 -0.71341 0
M  V30 28420 H 2712.08 -0.729256 -3.15994 0
M  V30 28421 H 2711.86 -2.49831 -3.02203 0
M  V30 28422 H 2713.35 -1.83073 -3.75332 0
M  V30 28423 N 2713.79 0.740218 -1.39135 0
M  V30 28424 C 2714.72 1.86274 -1.31823 0
M  V30 28425 C 2715.7 1.61453 -0.192822 0
M  V30 28426 O 2716.89 1.84785 -0.372398 0
M  V30 28427 C 2714.01 3.22153 -1.0457 0
M  V30 28428 C 2713.06 3.65842 -2.1923 0
M  V30 28429 S 2713.89 3.75817 -3.81473 0
M  V30 28430 C 2715.05 5.14495 -3.56434 0
M  V30 28431 H 2715.28 1.92191 -2.26826 0
M  V30 28432 H 2712.81 0.904554 -1.25129 0
M  V30 28433 H 2714.77 4.00618 -0.895298 0
M  V30 28434 H 2713.43 3.13898 -0.112633 0
M  V30 28435 H 2712.63 4.64437 -1.95741 0
M  V30 28436 H 2712.23 2.94568 -2.30446 0
M  V30 28437 H 2714.52 6.00668 -3.13376 0
M  V30 28438 H 2715.46 5.43011 -4.54471 0
M  V30 28439 H 2715.87 4.83925 -2.90649 0
M  V30 28440 N 2715.27 1.24225 0.969846 0
M  V30 28441 C 2716.52 1.07853 1.70916 0
M  V30 28442 C 2716.84 -0.383729 1.91187 0
M  V30 28443 O 2716.11 -1.27408 1.48808 0
M  V30 28444 H 2714.69 0.396114 0.633327 0
M  V30 28445 H 2717.35 1.5611 1.16686 0
M  V30 28446 H 2716.45 1.57487 2.69452 0
M  V30 28447 N 2716.75 -1.1702 1.05565 0
M  V30 28448 C 2718 -1.86709 0.763069 0
M  V30 28449 C 2718.31 -1.82149 -0.712825 0
M  V30 28450 O 2719.52 -2.47345 -1.1195 0
M  V30 28451 C 2717.97 -3.35024 1.3148 0
M  V30 28452 C 2717.58 -3.48077 2.8204 0
M  V30 28453 C 2719.32 -4.10016 1.09942 0
M  V30 28454 C 2717.23 -4.90436 3.30495 0
M  V30 28455 H 2716.16 -0.699377 0.281759 0
M  V30 28456 H 2718.81 -1.32122 1.27342 0
M  V30 28457 H 2717.19 -3.89171 0.73224 0
M  V30 28458 H 2718.37 -3.04127 3.46184 0
M  V30 28459 H 2716.68 -2.8651 3.02161 0
M  V30 28460 H 2719.28 -5.15045 1.43641 0
M  V30 28461 H 2719.62 -4.16283 0.0373804 0
M  V30 28462 H 2720.16 -3.62086 1.64738 0
M  V30 28463 H 2716.89 -4.89344 4.36145 0
M  V30 28464 H 2716.41 -5.3504 2.71095 0
M  V30 28465 H 2718.09 -5.59222 3.25392 0
M  V30 28466 N 2718.23 -0.837197 -1.33524 0
M  V30 28467 C 2719.17 -0.26721 -2.29248 0
M  V30 28468 C 2720.14 0.616044 -1.54253 0
M  V30 28469 O 2721.33 0.554667 -1.8256 0
M  V30 28470 C 2718.47 0.553092 -3.40639 0
M  V30 28471 C 2717.58 -0.353997 -4.30547 0
M  V30 28472 C 2716.72 0.477246 -5.29052 0
M  V30 28473 C 2715.75 -0.428338 -6.10599 0
M  V30 28474 N 2714.89 0.364678 -7.01152 0
M  V30 28475 H 2719.73 -1.08882 -2.77396 0
M  V30 28476 H 2717.27 -0.548404 -1.36495 0
M  V30 28477 H 2719.23 1.04415 -4.03923 0
M  V30 28478 H 2717.86 1.33968 -2.93687 0
M  V30 28479 H 2716.91 -0.963353 -3.68 0
M  V30 28480 H 2718.22 -1.04973 -4.87629 0
M  V30 28481 H 2717.37 1.0322 -5.97855 0
M  V30 28482 H 2716.11 1.20642 -4.72543 0
M  V30 28483 H 2715.12 -0.995314 -5.40716 0
M  V30 28484 H 2716.34 -1.15585 -6.69191 0
M  V30 28485 H 2714.29 1.07726 -6.47094 0
M  V30 28486 H 2714.21 -0.27237 -7.55509 0
M  V30 28487 H 2715.47 0.901918 -7.74265 0
M  V30 28488 N 2719.7 1.45999 -0.593476 0
M  V30 28489 C 2720.65 2.30413 0.133577 0
M  V30 28490 C 2721.62 1.41264 0.873711 0
M  V30 28491 O 2722.81 1.70205 0.862249 0
M  V30 28492 C 2719.95 3.25926 1.13428 0
M  V30 28493 C 2719.06 4.30177 0.396484 0
M  V30 28494 C 2718.19 5.12809 1.38566 0
M  V30 28495 C 2717.23 6.08799 0.634877 0
M  V30 28496 N 2716.37 6.8426 1.57264 0
M  V30 28497 H 2721.21 2.92054 -0.592303 0
M  V30 28498 H 2718.75 1.43927 -0.303899 0
M  V30 28499 H 2720.7 3.79756 1.72745 0
M  V30 28500 H 2719.33 2.6607 1.82775 0
M  V30 28501 H 2718.39 3.79119 -0.311927 0
M  V30 28502 H 2719.7 4.98438 -0.189957 0
M  V30 28503 H 2718.85 5.70969 2.05131 0
M  V30 28504 H 2717.59 4.44533 2.00604 0
M  V30 28505 H 2716.6 5.49782 -0.0444892 0
M  V30 28506 H 2717.82 6.79097 0.0197484 0
M  V30 28507 H 2715.77 6.18686 2.18092 0
M  V30 28508 H 2715.68 7.48822 1.03928 0
M  V30 28509 H 2716.95 7.46972 2.22831 0
M  V30 28510 N 2721.18 0.331843 1.54067 0
M  V30 28511 C 2722.6 -0.0205108 1.59587 0
M  V30 28512 C 2722.8 -1.49756 1.34816 0
M  V30 28513 O 2721.85 -2.25469 1.13665 0
M  V30 28514 C 2723.17 0.405155 2.97958 0
M  V30 28515 C 2724.72 0.356509 3.10963 0
M  V30 28516 C 2725.19 0.757463 4.51693 0
M  V30 28517 N 2726.68 0.711191 4.57708 0
M  V30 28518 C 2727.42 0.993527 5.64727 0
M  V30 28519 N 2726.91 1.34342 6.7965 0
M  V30 28520 N 2728.71 0.91854 5.54544 0
M  V30 28521 H 2720.86 1.2941 1.68424 0
M  V30 28522 H 2723.12 0.526759 0.788181 0
M  V30 28523 H 2722.83 1.43457 3.21112 0
M  V30 28524 H 2722.7 -0.225626 3.76525 0
M  V30 28525 H 2725.09 -0.663712 2.87539 0
M  V30 28526 H 2725.17 1.02234 2.34482 0
M  V30 28527 H 2724.81 1.77564 4.7585 0
M  V30 28528 H 2724.74 0.0692369 5.26554 0
M  V30 28529 H 2727.23 0.452949 3.75176 0
M  V30 28530 H 2727.55 1.54401 7.57219 0
M  V30 28531 H 2725.89 1.38176 6.81126 0
M  V30 28532 H 2729.08 0.644617 4.6364 0
M  V30 28533 H 2729.25 1.14193 6.37859 0
M  V30 28534 N 2722.66 -1.57485 0.0601958 0
M  V30 28535 C 2723.94 -1.84416 -0.651923 0
M  V30 28536 C 2724.32 -0.950394 -1.88496 0
M  V30 28537 O 2723.67 -0.0137121 -2.28496 0
M  V30 28538 C 2723.88 -3.34348 -1.00063 0
M  V30 28539 C 2725.22 -4.0158 -1.37908 0
M  V30 28540 O 2726.25 -3.39026 -1.09271 0
M  V30 28541 O 2725.11 -5.11891 -1.9139 0
M  V30 28542 H 2722.2 -0.761461 -0.322655 0
M  V30 28543 H 2724.75 -1.6946 0.0902457 0
M  V30 28544 H 2723.52 -3.91102 -0.124394 0
M  V30 28545 H 2723.14 -3.54524 -1.79995 0
M  V30 28546 N 2724.14 0.213268 -1.5615 0
M  V30 28547 C 2725.39 0.934518 -1.78745 0
M  V30 28548 C 2725.7 1.85169 -0.630232 0
M  V30 28549 O 2726.91 2.6122 -0.740012 0
M  V30 28550 C 2725.36 1.71198 -3.16574 0
M  V30 28551 C 2724.97 0.84054 -4.40044 0
M  V30 28552 C 2726.71 2.42395 -3.4849 0
M  V30 28553 C 2724.62 1.61582 -5.68898 0
M  V30 28554 H 2723.55 0.352681 -0.666433 0
M  V30 28555 H 2726.2 0.188195 -1.82532 0
M  V30 28556 H 2724.58 2.50152 -3.06986 0
M  V30 28557 H 2725.76 0.0909516 -4.6071 0
M  V30 28558 H 2724.07 0.240292 -4.15706 0
M  V30 28559 H 2726.67 3.00916 -4.41988 0
M  V30 28560 H 2727.01 3.15691 -2.71376 0
M  V30 28561 H 2727.55 1.70424 -3.59445 0
M  V30 28562 H 2724.29 0.925992 -6.48927 0
M  V30 28563 H 2723.81 2.33981 -5.5228 0
M  V30 28564 H 2725.48 2.17436 -6.09369 0
M  V30 28565 N 2725.62 1.50103 0.480296 0
M  V30 28566 C 2726.55 1.71218 1.58766 0
M  V30 28567 C 2727.53 0.561025 1.60582 0
M  V30 28568 O 2728.71 0.799158 1.76995 0
M  V30 28569 C 2725.84 1.79783 2.97145 0
M  V30 28570 C 2724.8 2.94894 3.10196 0
M  V30 28571 C 2724.12 2.88592 4.50132 0
M  V30 28572 C 2725.42 4.35539 2.88276 0
M  V30 28573 H 2727.12 2.63933 1.4135 0
M  V30 28574 H 2724.66 1.2701 0.678569 0
M  V30 28575 H 2726.62 1.9314 3.74533 0
M  V30 28576 H 2725.34 0.836827 3.15697 0
M  V30 28577 H 2724 2.81173 2.35239 0
M  V30 28578 H 2723.65 1.90357 4.65589 0
M  V30 28579 H 2723.35 3.65864 4.59801 0
M  V30 28580 H 2724.87 3.03985 5.29552 0
M  V30 28581 H 2726.28 4.49834 3.55419 0
M  V30 28582 H 2724.68 5.14191 3.09399 0
M  V30 28583 H 2725.75 4.48547 1.84211 0
M  V30 28584 N 2727.09 -0.732829 1.39526 0
M  V30 28585 C 2728.04 -1.86821 1.38566 0
M  V30 28586 C 2729.04 -1.67259 0.268497 0
M  V30 28587 O 2730.24 -1.74574 0.438644 0
M  V30 28588 H 2726.62 -0.615007 0.432748 0
M  V30 28589 H 2728.59 -1.84747 2.34332 0
M  V30 28590 C 2727.34 -3.24525 1.24816 0
M  V30 28591 H 2726.66 -3.40175 2.1005 0
M  V30 28592 H 2728.1 -4.04154 1.28202 0
M  V30 28593 C 2726.56 -3.36872 -0.0432233 0
M  V30 28594 O 2727.09 -3.88728 -1.01261 0
M  V30 28595 N 2725.3 -2.90403 -0.107004 0
M  V30 28596 H 2724.84 -2.48393 0.682556 0
M  V30 28597 H 2724.8 -2.99044 -0.970565 0
M  V30 28598 N 2728.57 -1.24737 -0.963244 0
M  V30 28599 C 2729.52 -1.04367 -2.05855 0
M  V30 28600 C 2730.49 0.0444659 -1.6604 0
M  V30 28601 O 2731.67 -0.111033 -1.90477 0
M  V30 28602 C 2728.81 -0.659295 -3.38744 0
M  V30 28603 C 2727.93 -1.82138 -3.91727 0
M  V30 28604 C 2727.06 -1.38217 -5.12903 0
M  V30 28605 C 2726.1 -2.51392 -5.58094 0
M  V30 28606 N 2725.24 -2.08307 -6.70487 0
M  V30 28607 H 2730.08 -1.9811 -2.22612 0
M  V30 28608 H 2727.62 -0.986681 -1.09101 0
M  V30 28609 H 2729.57 -0.417444 -4.15106 0
M  V30 28610 H 2728.2 0.241145 -3.21898 0
M  V30 28611 H 2727.26 -2.17677 -3.11963 0
M  V30 28612 H 2728.57 -2.67161 -4.2122 0
M  V30 28613 H 2727.72 -1.09946 -5.96655 0
M  V30 28614 H 2726.46 -0.502541 -4.85104 0
M  V30 28615 H 2725.47 -2.80418 -4.72912 0
M  V30 28616 H 2726.69 -3.39919 -5.87905 0
M  V30 28617 H 2724.64 -1.22749 -6.44414 0
M  V30 28618 H 2724.55 -2.86881 -6.99453 0
M  V30 28619 H 2725.82 -1.83188 -7.57669 0
M  V30 28620 N 2730.05 1.16459 -1.06184 0
M  V30 28621 C 2730.96 2.24446 -0.68271 0
M  V30 28622 C 2731.98 1.71381 0.30075 0
M  V30 28623 O 2733.15 2.00838 0.150341 0
M  V30 28624 C 2730.22 3.46621 -0.0737811 0
M  V30 28625 C 2729.28 4.14729 -1.10897 0
M  V30 28626 C 2728.51 5.31072 -0.529001 0
M  V30 28627 O 2728.73 5.66585 0.65858 0
M  V30 28628 O 2727.67 5.88389 -1.26815 0
M  V30 28629 H 2731.49 2.59184 -1.58295 0
M  V30 28630 H 2729.08 1.23952 -0.834035 0
M  V30 28631 H 2730.96 4.20571 0.264118 0
M  V30 28632 H 2729.64 3.1366 0.79996 0
M  V30 28633 H 2728.54 3.42754 -1.49903 0
M  V30 28634 H 2729.88 4.51743 -1.9542 0
M  V30 28635 N 2731.53 0.844266 1.33079 0
M  V30 28636 C 2732.76 0.456238 2.01807 0
M  V30 28637 C 2733.17 -0.944102 1.635 0
M  V30 28638 O 2732.53 -1.61442 0.851049 0
M  V30 28639 C 2732.58 0.573576 3.56921 0
M  V30 28640 O 2732.3 1.91874 3.93847 0
M  V30 28641 C 2733.8 0.183203 4.42921 0
M  V30 28642 H 2731.02 0.180489 0.64627 0
M  V30 28643 H 2733.57 1.13833 1.69889 0
M  V30 28644 H 2731.72 -0.0606686 3.87352 0
M  V30 28645 H 2732.13 1.90811 4.88561 0
M  V30 28646 H 2733.61 0.316337 5.51093 0
M  V30 28647 H 2734.09 -0.875401 4.30387 0
M  V30 28648 H 2734.69 0.7921 4.17859 0
M  V30 28649 N 2733.01 -1.45682 0.60121 0
M  V30 28650 C 2734.42 -1.57396 0.264343 0
M  V30 28651 C 2734.62 -1.59356 -1.23321 0
M  V30 28652 O 2733.68 -1.52043 -2.01592 0
M  V30 28653 C 2734.99 -2.85961 0.929889 0
M  V30 28654 C 2736.54 -2.99625 0.905209 0
M  V30 28655 C 2737.01 -4.30951 1.55064 0
M  V30 28656 N 2738.51 -4.37695 1.51584 0
M  V30 28657 C 2739.24 -5.37966 1.98445 0
M  V30 28658 N 2738.74 -6.44809 2.53364 0
M  V30 28659 N 2740.53 -5.29283 1.89251 0
M  V30 28660 H 2732.68 -1.42653 1.57365 0
M  V30 28661 H 2734.94 -0.681637 0.658843 0
M  V30 28662 H 2734.65 -2.90391 1.98409 0
M  V30 28663 H 2734.52 -3.74515 0.44929 0
M  V30 28664 H 2736.91 -2.94766 -0.140429 0
M  V30 28665 H 2736.99 -2.12498 1.42401 0
M  V30 28666 H 2736.64 -4.36569 2.59558 0
M  V30 28667 H 2736.57 -5.16884 1.00691 0
M  V30 28668 H 2739.06 -3.61089 1.11459 0
M  V30 28669 H 2739.37 -7.17559 2.86931 0
M  V30 28670 H 2737.71 -6.45578 2.57399 0
M  V30 28671 H 2740.91 -4.44719 1.46091 0
M  V30 28672 H 2741.08 -6.0728 2.26086 0
M  V30 28673 N 2734.48 -0.340009 -1.53889 0
M  V30 28674 C 2735.76 0.312685 -1.93085 0
M  V30 28675 C 2736.14 1.68531 -1.27123 0
M  V30 28676 O 2735.49 2.24591 -0.420875 0
M  V30 28677 C 2735.7 0.388497 -3.46831 0
M  V30 28678 C 2737.05 0.641014 -4.19733 0
M  V30 28679 O 2738.07 0.470756 -3.53076 0
M  V30 28680 O 2736.93 0.970591 -5.37812 0
M  V30 28681 H 2734.02 0.181725 -0.806787 0
M  V30 28682 H 2736.57 -0.390927 -1.65136 0
M  V30 28683 H 2735.34 -0.574889 -3.87054 0
M  V30 28684 H 2734.97 1.13904 -3.80935 0
M  V30 28685 N 2735.96 1.57451 -0.0685468 0
M  V30 28686 C 2737.21 1.93653 0.602205 0
M  V30 28687 C 2737.54 0.948556 1.69458 0
M  V30 28688 O 2736.82 -0.0227478 1.94487 0
M  V30 28689 C 2737.1 3.40142 1.18217 0
M  V30 28690 C 2736.95 4.49696 0.0966641 0
M  V30 28691 C 2738.27 3.8738 2.08865 0
M  V30 28692 H 2735.39 0.704194 0.217441 0
M  V30 28693 H 2738.03 1.89528 -0.133854 0
M  V30 28694 H 2736.18 3.43788 1.80947 0
M  V30 28695 H 2737.86 4.58173 -0.536236 0
M  V30 28696 H 2736.1 4.29997 -0.573139 0
M  V30 28697 H 2736.77 5.49325 0.542798 0
M  V30 28698 H 2739.25 3.8572 1.56074 0
M  V30 28699 H 2738.12 4.90497 2.46381 0
M  V30 28700 H 2738.38 3.25135 2.99566 0
M  V30 28701 N 2737.44 -0.204984 1.56261 0
M  V30 28702 C 2738.67 -0.943354 1.84142 0
M  V30 28703 C 2739.08 -1.77265 0.649803 0
M  V30 28704 O 2738.44 -1.78466 -0.381581 0
M  V30 28705 C 2738.49 -1.84754 3.10722 0
M  V30 28706 O 2738.21 -1.05174 4.25288 0
M  V30 28707 C 2739.71 -2.69842 3.5171 0
M  V30 28708 H 2736.93 -0.275711 0.611739 0
M  V30 28709 H 2739.48 -0.215217 2.03364 0
M  V30 28710 H 2737.63 -2.52942 2.93427 0
M  V30 28711 H 2738.05 -1.667 4.97304 0
M  V30 28712 H 2739.52 -3.28959 4.43272 0
M  V30 28713 H 2740 -3.43062 2.74236 0
M  V30 28714 H 2740.6 -2.07041 3.71503 0
M  V30 28715 N 2738.92 -1.50356 -0.472329 0
M  V30 28716 C 2739.87 -1.69129 -1.57048 0
M  V30 28717 C 2740.84 -0.532602 -1.57329 0
M  V30 28718 O 2742.02 -0.763025 -1.74879 0
M  V30 28719 C 2739.16 -1.79029 -2.9503 0
M  V30 28720 C 2738.27 -3.06391 -3.04547 0
M  V30 28721 C 2737.41 -3.07095 -4.33435 0
M  V30 28722 C 2736.45 -4.28915 -4.3669 0
M  V30 28723 N 2735.59 -4.27366 -5.57048 0
M  V30 28724 H 2740.43 -2.62882 -1.40346 0
M  V30 28725 H 2737.96 -1.30315 -0.68238 0
M  V30 28726 H 2739.92 -1.8275 -3.75044 0
M  V30 28727 H 2738.55 -0.887164 -3.1037 0
M  V30 28728 H 2737.6 -3.12147 -2.17413 0
M  V30 28729 H 2738.91 -3.96367 -3.02811 0
M  V30 28730 H 2738.07 -3.09538 -5.21796 0
M  V30 28731 H 2736.81 -2.14946 -4.37778 0
M  V30 28732 H 2735.81 -4.26686 -3.46727 0
M  V30 28733 H 2737.04 -5.22289 -4.3404 0
M  V30 28734 H 2734.98 -3.3807 -5.62178 0
M  V30 28735 H 2734.9 -5.11109 -5.57049 0
M  V30 28736 H 2736.17 -4.33953 -6.47537 0
M  V30 28737 N 2740.4 0.725419 -1.39912 0
M  V30 28738 C 2741.33 1.84865 -1.33792 0
M  V30 28739 C 2742.31 1.61239 -0.209936 0
M  V30 28740 O 2743.49 1.8438 -0.391976 0
M  V30 28741 C 2740.62 3.21026 -1.07981 0
M  V30 28742 C 2739.67 3.63496 -2.23098 0
M  V30 28743 S 2740.5 3.7175 -3.85438 0
M  V30 28744 C 2741.65 5.10686 -3.61871 0
M  V30 28745 H 2741.89 1.89775 -2.28851 0
M  V30 28746 H 2739.42 0.891231 -1.26081 0
M  V30 28747 H 2741.38 3.99646 -0.937739 0
M  V30 28748 H 2740.04 3.13761 -0.14592 0
M  V30 28749 H 2739.23 4.62335 -2.00656 0
M  V30 28750 H 2738.83 2.92107 -2.33558 0
M  V30 28751 H 2741.13 5.9731 -3.19729 0
M  V30 28752 H 2742.07 5.38161 -4.60205 0
M  V30 28753 H 2742.48 4.80815 -2.95766 0
M  V30 28754 N 2741.88 1.25246 0.956615 0
M  V30 28755 C 2742.81 1.01245 2.05626 0
M  V30 28756 C 2743.82 -0.0219293 1.62785 0
M  V30 28757 O 2745.01 0.216397 1.77183 0
M  V30 28758 C 2742.11 0.50822 3.35068 0
M  V30 28759 C 2741.28 1.6083 4.06759 0
M  V30 28760 C 2740.34 1.10479 5.14471 0
M  V30 28761 O 2739.37 1.79877 5.4003 0
M  V30 28762 N 2740.57 -0.0549753 5.80474 0
M  V30 28763 H 2743.33 1.95929 2.26786 0
M  V30 28764 H 2740.9 1.16425 1.12503 0
M  V30 28765 H 2742.89 0.15589 4.044 0
M  V30 28766 H 2741.46 -0.344629 3.10694 0
M  V30 28767 H 2740.68 2.1323 3.31552 0
M  V30 28768 H 2741.97 2.34741 4.51414 0
M  V30 28769 H 2741.36 -0.634905 5.62126 0
M  V30 28770 H 2739.92 -0.348355 6.50868 0
M  V30 28771 N 2743.35 -1.15894 1.068 0
M  V30 28772 C 2744.26 -2.24081 0.694603 0
M  V30 28773 C 2745.28 -1.71538 -0.291657 0
M  V30 28774 O 2746.46 -2.00915 -0.139688 0
M  V30 28775 C 2743.52 -3.46577 0.0921623 0
M  V30 28776 C 2742.58 -4.14135 1.13095 0
M  V30 28777 C 2741.81 -5.30784 0.557158 0
M  V30 28778 O 2742.04 -5.66927 -0.628523 0
M  V30 28779 O 2740.97 -5.87708 1.29934 0
M  V30 28780 H 2744.8 -2.58341 1.59668 0
M  V30 28781 H 2742.38 -1.23508 0.840597 0
M  V30 28782 H 2744.26 -4.20706 -0.24181 0
M  V30 28783 H 2742.94 -3.14079 -0.783315 0
M  V30 28784 H 2741.85 -3.41954 1.51718 0
M  V30 28785 H 2743.18 -4.507 1.97813 0
M  V30 28786 N 2744.83 -0.851312 -1.32629 0
M  V30 28787 C 2746.07 -0.459301 -1.99173 0
M  V30 28788 C 2746.44 0.966244 -1.65915 0
M  V30 28789 O 2747.64 1.46263 -2.25523 0
M  V30 28790 C 2745.91 -0.68776 -3.5072 0
M  V30 28791 S 2747.47 -0.392823 -4.37038 0
M  V30 28792 H 2744.28 -0.172211 -0.689829 0
M  V30 28793 H 2746.89 -1.1033 -1.61393 0
M  V30 28794 H 2745.59 -1.72441 -3.72414 0
M  V30 28795 H 2745.12 -0.030064 -3.93389 0
M  V30 28796 H 2747.14 0.782491 -4.89991 0
M  V30 28797 N 2746.31 1.45361 -0.608928 0
M  V30 28798 C 2747.56 2.01441 -0.102215 0
M  V30 28799 C 2747.87 1.48297 1.27543 0
M  V30 28800 O 2749.08 1.96362 1.87495 0
M  V30 28801 C 2747.53 3.59658 -0.132048 0
M  V30 28802 C 2747.14 4.21799 -1.50963 0
M  V30 28803 C 2748.89 4.23297 0.319353 0
M  V30 28804 C 2746.79 5.72172 -1.49578 0
M  V30 28805 H 2745.72 0.753213 -0.0344447 0
M  V30 28806 H 2748.37 1.66818 -0.764455 0
M  V30 28807 H 2746.76 3.91476 0.596871 0
M  V30 28808 H 2747.93 4.01552 -2.26036 0
M  V30 28809 H 2746.24 3.70359 -1.90324 0
M  V30 28810 H 2748.84 5.3356 0.348919 0
M  V30 28811 H 2749.18 3.94066 1.3423 0
M  V30 28812 H 2749.72 3.96201 -0.356342 0
M  V30 28813 H 2746.46 6.06104 -2.49637 0
M  V30 28814 H 2745.98 5.94606 -0.787646 0
M  V30 28815 H 2747.66 6.35394 -1.22 0
M  V30 28816 N 2747.79 0.348166 1.53706 0
M  V30 28817 C 2749.06 -0.302441 1.93248 0
M  V30 28818 C 2749.44 -1.67855 1.28015 0
M  V30 28819 O 2748.79 -2.24364 0.432779 0
M  V30 28820 C 2749 -0.370098 3.47032 0
M  V30 28821 C 2750.35 -0.618746 4.20067 0
M  V30 28822 O 2751.37 -0.452025 3.5332 0
M  V30 28823 O 2750.23 -0.942056 5.38319 0
M  V30 28824 H 2747.33 -0.177444 0.807739 0
M  V30 28825 H 2749.87 0.399679 1.64926 0
M  V30 28826 H 2748.65 0.595408 3.86744 0
M  V30 28827 H 2748.27 -1.11882 3.81534 0
M  V30 28828 N 2749.27 -1.57412 0.0768958 0
M  V30 28829 C 2750.21 -2.13011 -0.88854 0
M  V30 28830 C 2751.18 -1.04392 -1.29196 0
M  V30 28831 O 2752.37 -1.32082 -1.37692 0
M  V30 28832 C 2749.51 -2.70027 -2.14894 0
M  V30 28833 C 2748.62 -3.92819 -1.7977 0
M  V30 28834 C 2747.76 -4.38061 -3.00459 0
M  V30 28835 C 2746.79 -5.53488 -2.61376 0
M  V30 28836 N 2745.93 -5.93666 -3.74841 0
M  V30 28837 H 2750.77 -2.952 -0.407542 0
M  V30 28838 H 2748.31 -1.45874 -0.189509 0
M  V30 28839 H 2750.27 -3.01195 -2.88682 0
M  V30 28840 H 2748.9 -1.90595 -2.60525 0
M  V30 28841 H 2747.95 -3.68081 -0.960237 0
M  V30 28842 H 2749.26 -4.76641 -1.47019 0
M  V30 28843 H 2748.41 -4.70917 -3.8252 0
M  V30 28844 H 2747.15 -3.53103 -3.36407 0
M  V30 28845 H 2746.16 -5.20278 -1.77737 0
M  V30 28846 H 2747.38 -6.40182 -2.26592 0
M  V30 28847 H 2745.33 -5.11656 -4.10541 0
M  V30 28848 H 2745.25 -6.7224 -3.45875 0
M  V30 28849 H 2746.51 -6.31146 -4.57466 0
M  V30 28850 N 2750.74 0.196695 -1.56368 0
M  V30 28851 C 2751.97 0.932222 -1.84372 0
M  V30 28852 C 2752.38 1.77425 -0.657045 0
M  V30 28853 O 2751.73 1.79651 0.383545 0
M  V30 28854 C 2751.79 1.87947 -3.06458 0
M  V30 28855 C 2751.45 1.21955 -4.40427 0
M  V30 28856 C 2752.45 0.597252 -5.16458 0
M  V30 28857 C 2750.13 1.22388 -4.87162 0
M  V30 28858 C 2752.13 -0.0119033 -6.37399 0
M  V30 28859 C 2749.81 0.610888 -6.08039 0
M  V30 28860 C 2750.81 -0.00592492 -6.83 0
M  V30 28861 O 2750.5 -0.609314 -8.01588 0
M  V30 28862 H 2750.23 0.277578 -0.616382 0
M  V30 28863 H 2752.79 0.209416 -2.0433 0
M  V30 28864 H 2751.02 2.64192 -2.82381 0
M  V30 28865 H 2752.71 2.48265 -3.21122 0
M  V30 28866 H 2753.47 0.586057 -4.81446 0
M  V30 28867 H 2749.35 1.69337 -4.28773 0
M  V30 28868 H 2752.89 -0.493958 -6.95849 0
M  V30 28869 H 2748.79 0.61958 -6.4252 0
M  V30 28870 H 2749.56 -0.506062 -8.16934 0
M  V30 28871 N 2752.22 1.50604 0.464349 0
M  V30 28872 C 2753.47 1.6161 1.21353 0
M  V30 28873 C 2753.79 0.321677 1.92328 0
M  V30 28874 O 2753.06 -0.661199 1.84404 0
M  V30 28875 H 2751.64 0.595543 0.450929 0
M  V30 28876 H 2754.3 1.87413 0.535013 0
M  V30 28877 H 2753.4 2.43058 1.95779 0
M  V30 28878 N 2753.7 -0.717989 1.40295 0
M  V30 28879 C 2754.63 -1.84495 1.43122 0
M  V30 28880 C 2755.61 -1.67567 0.292433 0
M  V30 28881 O 2756.8 -1.87634 0.500707 0
M  V30 28882 C 2753.93 -3.22425 1.29071 0
M  V30 28883 C 2752.88 -3.54021 2.40527 0
M  V30 28884 C 2752.21 -4.91069 2.11555 0
M  V30 28885 C 2753.51 -3.55262 3.82865 0
M  V30 28886 H 2755.2 -1.82387 2.37435 0
M  V30 28887 H 2752.75 -0.87607 1.14285 0
M  V30 28888 H 2754.7 -4.00955 1.29665 0
M  V30 28889 H 2753.42 -3.25103 0.312328 0
M  V30 28890 H 2752.08 -2.7783 2.39178 0
M  V30 28891 H 2751.73 -4.90347 1.12113 0
M  V30 28892 H 2751.43 -5.13175 2.86225 0
M  V30 28893 H 2752.95 -5.71935 2.13827 0
M  V30 28894 H 2754.37 -4.23837 3.86051 0
M  V30 28895 H 2752.77 -3.88894 4.57035 0
M  V30 28896 H 2753.84 -2.54698 4.12622 0
M  V30 28897 N 2755.18 -1.25752 -0.94996 0
M  V30 28898 C 2756.13 -1.06342 -2.06867 0
M  V30 28899 C 2757.12 0.00705923 -1.69399 0
M  V30 28900 O 2758.33 -0.148929 -1.79383 0
M  V30 28901 H 2754.7 -0.326981 -0.677191 0
M  V30 28902 H 2756.67 -2.01171 -2.20393 0
M  V30 28903 C 2755.42 -0.703829 -3.40502 0
M  V30 28904 H 2754.74 -1.51937 -3.69804 0
M  V30 28905 H 2756.18 -0.60775 -4.19622 0
M  V30 28906 C 2754.64 0.590442 -3.31686 0
M  V30 28907 O 2755.17 1.63125 -3.67087 0
M  V30 28908 N 2753.38 0.577809 -2.84798 0
M  V30 28909 H 2752.93 -0.269555 -2.56186 0
M  V30 28910 H 2752.88 1.44393 -2.79281 0
M  V30 28911 N 2756.66 1.15326 -1.07413 0
M  V30 28912 C 2757.59 2.22235 -0.716511 0
M  V30 28913 C 2758.57 1.67499 0.296344 0
M  V30 28914 O 2759.75 1.93464 0.168955 0
M  V30 28915 C 2756.88 3.47112 -0.114203 0
M  V30 28916 C 2755.84 4.14812 -1.05428 0
M  V30 28917 C 2755.16 5.33773 -0.314698 0
M  V30 28918 C 2756.46 4.64504 -2.38816 0
M  V30 28919 H 2758.16 2.52406 -1.61033 0
M  V30 28920 H 2755.7 1.2132 -0.775723 0
M  V30 28921 H 2757.66 4.2114 0.147927 0
M  V30 28922 H 2756.38 3.16276 0.814699 0
M  V30 28923 H 2755.04 3.42725 -1.30134 0
M  V30 28924 H 2754.69 4.99193 0.617685 0
M  V30 28925 H 2754.39 5.80011 -0.941311 0
M  V30 28926 H 2755.91 6.1057 -0.060382 0
M  V30 28927 H 2757.32 5.30056 -2.18433 0
M  V30 28928 H 2755.72 5.21407 -2.97078 0
M  V30 28929 H 2756.79 3.80109 -3.01074 0
M  V30 28930 N 2758.13 0.858334 1.32176 0
M  V30 28931 C 2759.55 0.517652 1.7938 0
M  V30 28932 C 2759.9 -0.964739 1.70843 0
M  V30 28933 O 2759.02 -1.75272 1.26921 0
M  V30 28934 C 2759.62 0.932859 3.25704 0
M  V30 28935 C 2758.18 0.644018 3.7085 0
M  V30 28936 C 2757.32 1.13058 2.53206 0
M  V30 28937 H 2760.27 1.04518 1.19422 0
M  V30 28938 H 2760.29 0.250741 3.79673 0
M  V30 28939 H 2759.81 2.0118 3.31886 0
M  V30 28940 H 2757.91 -0.424047 3.70179 0
M  V30 28941 H 2758.02 1.21289 4.63493 0
M  V30 28942 H 2756.38 0.550723 2.48675 0
M  V30 28943 H 2757.17 2.2167 2.6214 0
M  V30 28944 N 2759.61 -1.45036 0.616628 0
M  V30 28945 C 2760.55 -2.27733 -0.145944 0
M  V30 28946 C 2761.52 -1.37677 -0.865084 0
M  V30 28947 O 2762.71 -1.67112 -0.872122 0
M  V30 28948 C 2759.83 -3.16267 -1.21214 0
M  V30 28949 C 2758.88 -4.22327 -0.595144 0
M  V30 28950 S 2759.71 -5.32085 0.603837 0
M  V30 28951 C 2760.87 -6.24187 -0.462732 0
M  V30 28952 H 2761.1 -2.92061 0.555643 0
M  V30 28953 H 2758.64 -1.4901 0.404391 0
M  V30 28954 H 2760.59 -3.6783 -1.8224 0
M  V30 28955 H 2759.25 -2.51186 -1.88585 0
M  V30 28956 H 2758.45 -4.84233 -1.39767 0
M  V30 28957 H 2758.05 -3.73952 -0.0598308 0
M  V30 28958 H 2760.34 -6.6413 -1.33933 0
M  V30 28959 H 2761.28 -7.07998 0.120384 0
M  V30 28960 H 2761.69 -5.59056 -0.782121 0
M  V30 28961 N 2761.09 -0.356312 -1.53519 0
M  V30 28962 C 2762.34 0.236618 -2.01415 0
M  V30 28963 C 2762.67 1.49174 -1.24341 0
M  V30 28964 O 2761.94 1.91602 -0.33453 0
M  V30 28965 C 2762.23 0.53792 -3.5606 0
M  V30 28966 C 2762.08 -0.73019 -4.43834 0
M  V30 28967 C 2763.4 1.34232 -4.1913 0
M  V30 28968 H 2760.52 0.0845258 -0.732137 0
M  V30 28969 H 2763.16 -0.479373 -1.83853 0
M  V30 28970 H 2761.31 1.14788 -3.71155 0
M  V30 28971 H 2762.98 -1.3679 -4.40552 0
M  V30 28972 H 2761.23 -1.35247 -4.12178 0
M  V30 28973 H 2761.9 -0.474455 -5.49957 0
M  V30 28974 H 2764.37 0.826426 -4.07811 0
M  V30 28975 H 2763.25 1.52188 -5.2738 0
M  V30 28976 H 2763.51 2.34816 -3.74585 0
M  V30 28977 N 2762.57 1.57369 -0.0852427 0
M  V30 28978 C 2763.8 1.98326 0.589425 0
M  V30 28979 C 2764.21 0.964059 1.62331 0
M  V30 28980 O 2763.57 -0.0476075 1.82438 0
M  V30 28981 C 2763.62 3.39349 1.24598 0
M  V30 28982 O 2763.34 4.37366 0.253455 0
M  V30 28983 C 2764.84 3.95255 2.00719 0
M  V30 28984 H 2762.06 0.651945 0.158772 0
M  V30 28985 H 2764.61 2.0386 -0.16162 0
M  V30 28986 H 2762.76 3.3486 1.94802 0
M  V30 28987 H 2763.17 5.1945 0.726115 0
M  V30 28988 H 2764.65 4.9611 2.4203 0
M  V30 28989 H 2765.13 3.32532 2.86913 0
M  V30 28990 H 2765.73 4.03187 1.35353 0
M  V30 28991 N 2764.05 -0.188399 1.5647 0
M  V30 28992 C 2765.28 -0.922431 1.84864 0
M  V30 28993 C 2765.68 -1.77074 0.666445 0
M  V30 28994 O 2765.03 -1.79852 -0.374012 0
M  V30 28995 C 2765.09 -1.86319 3.0745 0
M  V30 28996 C 2764.75 -1.19617 4.41068 0
M  V30 28997 C 2765.75 -0.569855 5.16768 0
M  V30 28998 C 2763.44 -1.19803 4.87804 0
M  V30 28999 C 2765.43 0.045706 6.37384 0
M  V30 29000 C 2763.12 -0.578633 6.08354 0
M  V30 29001 C 2764.11 0.042146 6.82987 0
M  V30 29002 O 2763.8 0.651815 8.01253 0
M  V30 29003 H 2763.53 -0.274306 0.617845 0
M  V30 29004 H 2766.09 -0.198577 2.04438 0
M  V30 29005 H 2764.32 -2.62691 2.83778 0
M  V30 29006 H 2766.01 -2.46558 3.22434 0
M  V30 29007 H 2766.77 -0.560517 4.8175 0
M  V30 29008 H 2762.65 -1.67061 4.29665 0
M  V30 29009 H 2766.2 0.530853 6.95577 0
M  V30 29010 H 2762.09 -0.585497 6.42839 0
M  V30 29011 H 2762.86 0.549379 8.16654 0
M  V30 29012 N 2765.53 -1.50848 -0.456355 0
M  V30 29013 C 2766.77 -1.62814 -1.20912 0
M  V30 29014 C 2767.1 -0.334337 -1.913 0
M  V30 29015 O 2766.38 0.665066 -1.82776 0
M  V30 29016 C 2766.66 -2.81857 -2.24117 0
M  V30 29017 C 2766.52 -4.21161 -1.57936 0
M  V30 29018 C 2767.83 -2.96437 -3.2529 0
M  V30 29019 H 2764.95 -0.592562 -0.438223 0
M  V30 29020 H 2767.6 -1.83279 -0.500878 0
M  V30 29021 H 2765.75 -2.64539 -2.8452 0
M  V30 29022 H 2767.42 -4.50104 -1.01017 0
M  V30 29023 H 2765.66 -4.24737 -0.88211 0
M  V30 29024 H 2766.33 -5.00412 -2.33005 0
M  V30 29025 H 2768.81 -3.12339 -2.74924 0
M  V30 29026 H 2767.68 -3.81329 -3.94816 0
M  V30 29027 H 2767.94 -2.07683 -3.90282 0
M  V30 29028 N 2767 0.710538 -1.40674 0
M  V30 29029 C 2767.95 1.8246 -1.4134 0
M  V30 29030 C 2768.92 1.63896 -0.269676 0
M  V30 29031 O 2770.11 1.84959 -0.468496 0
M  V30 29032 C 2767.25 3.20215 -1.28671 0
M  V30 29033 C 2766.36 3.50316 -2.5279 0
M  V30 29034 C 2765.49 4.77604 -2.32526 0
M  V30 29035 C 2764.53 5.00624 -3.52196 0
M  V30 29036 N 2763.67 6.19129 -3.31095 0
M  V30 29037 H 2768.51 1.81226 -2.36561 0
M  V30 29038 H 2766.05 0.885205 -1.17484 0
M  V30 29039 H 2768 3.9977 -1.19331 0
M  V30 29040 H 2766.63 3.20665 -0.370658 0
M  V30 29041 H 2765.69 2.65278 -2.72638 0
M  V30 29042 H 2767 3.63235 -3.41851 0
M  V30 29043 H 2766.15 5.65186 -2.20568 0
M  V30 29044 H 2764.89 4.66904 -1.40898 0
M  V30 29045 H 2763.9 4.11496 -3.64625 0
M  V30 29046 H 2765.12 5.13193 -4.44758 0
M  V30 29047 H 2763.07 6.0967 -2.42154 0
M  V30 29048 H 2762.98 6.32747 -4.13724 0
M  V30 29049 H 2764.25 7.09485 -3.2288 0
M  V30 29050 N 2768.48 1.26254 0.943277 0
M  V30 29051 C 2769.76 1.02427 1.66638 0
M  V30 29052 C 2770.14 -0.44597 2.06335 0
M  V30 29053 O 2769.49 -1.42586 1.78554 0
M  V30 29054 C 2769.7 1.97099 2.88015 0
M  V30 29055 C 2771.04 2.25591 3.59714 0
M  V30 29056 O 2772.07 1.94949 2.98117 0
M  V30 29057 O 2770.93 2.77751 4.70655 0
M  V30 29058 H 2768.02 0.389307 0.729636 0
M  V30 29059 H 2770.57 1.37455 0.995194 0
M  V30 29060 H 2769.34 2.96323 2.55555 0
M  V30 29061 H 2768.96 1.62538 3.6286 0
M  V30 29062 N 2769.96 -1.14755 1.08024 0
M  V30 29063 C 2770.87 -2.23332 0.718331 0
M  V30 29064 C 2771.89 -1.71838 -0.273447 0
M  V30 29065 O 2773.06 -2.01052 -0.11837 0
M  V30 29066 C 2770.13 -3.4646 0.128916 0
M  V30 29067 C 2769.19 -4.12913 1.17481 0
M  V30 29068 C 2768.42 -5.30163 0.613423 0
M  V30 29069 O 2768.64 -5.67561 -0.568358 0
M  V30 29070 O 2767.58 -5.86297 1.3616 0
M  V30 29071 H 2771.4 -2.56633 1.62399 0
M  V30 29072 H 2768.99 -1.2261 0.853649 0
M  V30 29073 H 2770.87 -4.20938 -0.197175 0
M  V30 29074 H 2769.55 -3.14893 -0.749959 0
M  V30 29075 H 2768.45 -3.40325 1.55336 0
M  V30 29076 H 2769.79 -4.48577 2.02582 0
M  V30 29077 N 2771.44 -0.865331 -1.31719 0
M  V30 29078 C 2772.37 -0.333343 -2.31108 0
M  V30 29079 C 2773.35 0.573273 -1.60149 0
M  V30 29080 O 2774.53 0.491272 -1.87883 0
M  V30 29081 C 2771.66 0.470017 -3.44105 0
M  V30 29082 C 2770.62 -0.343096 -4.26623 0
M  V30 29083 C 2769.94 0.585663 -5.31483 0
M  V30 29084 C 2771.24 -1.57465 -4.97998 0
M  V30 29085 H 2772.94 -1.16385 -2.75853 0
M  V30 29086 H 2770.48 -0.561092 -1.32619 0
M  V30 29087 H 2772.44 0.852679 -4.12683 0
M  V30 29088 H 2771.16 1.33399 -2.98115 0
M  V30 29089 H 2769.82 -0.707646 -3.59705 0
M  V30 29090 H 2769.47 1.44678 -4.81744 0
M  V30 29091 H 2769.17 0.0455461 -5.87582 0
M  V30 29092 H 2770.69 0.965269 -6.02922 0
M  V30 29093 H 2772.11 -1.26369 -5.59199 0
M  V30 29094 H 2770.5 -2.05349 -5.63872 0
M  V30 29095 H 2771.57 -2.33005 -4.25249 0
M  V30 29096 N 2772.92 1.44707 -0.624311 0
M  V30 29097 C 2774.33 1.56955 -0.28935 0
M  V30 29098 C 2774.53 1.61297 1.2077 0
M  V30 29099 O 2773.59 1.55231 1.99147 0
M  V30 29100 C 2774.9 2.84445 -0.975265 0
M  V30 29101 C 2776.45 2.98147 -0.952762 0
M  V30 29102 C 2776.92 4.2843 -1.61901 0
M  V30 29103 N 2778.41 4.35228 -1.58528 0
M  V30 29104 C 2779.15 5.3474 -2.06979 0
M  V30 29105 N 2778.65 6.40697 -2.6359 0
M  V30 29106 N 2780.44 5.26205 -1.97648 0
M  V30 29107 H 2772.59 1.40132 -1.59615 0
M  V30 29108 H 2774.85 0.67107 -0.669604 0
M  V30 29109 H 2774.56 2.87197 -2.03004 0
M  V30 29110 H 2774.43 3.73752 -0.508815 0
M  V30 29111 H 2776.82 2.94952 0.0935162 0
M  V30 29112 H 2776.9 2.10206 -1.45764 0
M  V30 29113 H 2776.54 4.32384 -2.6647 0
M  V30 29114 H 2776.47 5.15216 -1.08902 0
M  V30 29115 H 2778.97 3.5927 -1.17189 0
M  V30 29116 H 2779.28 7.12903 -2.9831 0
M  V30 29117 H 2777.62 6.41401 -2.67637 0
M  V30 29118 H 2780.81 4.42339 -1.53147 0
M  V30 29119 H 2780.99 6.03606 -2.35719 0
M  V30 29120 N 2774.39 0.364449 1.53328 0
M  V30 29121 C 2775.36 -0.470252 2.24324 0
M  V30 29122 C 2776.36 -1.01065 1.2507 0
M  V30 29123 O 2777.55 -0.896579 1.49356 0
M  V30 29124 C 2774.68 -1.65717 2.97911 0
M  V30 29125 H 2775.87 0.15097 2.9952 0
M  V30 29126 H 2773.42 0.11612 1.55868 0
M  V30 29127 H 2774.16 -2.31651 2.26954 0
M  V30 29128 H 2773.94 -1.27665 3.70735 0
M  V30 29129 H 2775.43 -2.24872 3.51884 0
M  V30 29130 N 2775.87 -1.57322 0.0935872 0
M  V30 29131 C 2777.28 -1.81543 -0.435775 0
M  V30 29132 C 2777.63 -1.00909 -1.68261 0
M  V30 29133 O 2776.76 -0.238021 -2.15087 0
M  V30 29134 C 2777.35 -3.29283 -0.797378 0
M  V30 29135 C 2775.91 -3.54274 -1.27149 0
M  V30 29136 C 2775.06 -2.76008 -0.267407 0
M  V30 29137 H 2778.01 -1.5546 0.319048 0
M  V30 29138 H 2778.03 -3.42524 -1.65704 0
M  V30 29139 H 2777.54 -3.87943 0.110274 0
M  V30 29140 H 2775.64 -3.00943 -2.19691 0
M  V30 29141 H 2775.76 -4.62926 -1.23437 0
M  V30 29142 H 2774.12 -2.43431 -0.74924 0
M  V30 29143 H 2774.9 -3.37416 0.632898 0
M  V30 29144 N 2777.35 0.180099 -1.56568 0
M  V30 29145 C 2778.63 0.924901 -1.72351 0
M  V30 29146 C 2779.01 2.00761 -0.652558 0
M  V30 29147 O 2778.35 2.26045 0.334075 0
M  V30 29148 C 2778.56 1.49765 -3.15232 0
M  V30 29149 C 2779.91 1.97398 -3.75924 0
M  V30 29150 O 2780.94 1.59577 -3.18455 0
M  V30 29151 O 2779.8 2.6704 -4.76814 0
M  V30 29152 H 2776.89 0.434746 -0.703509 0
M  V30 29153 H 2779.44 0.168617 -1.6886 0
M  V30 29154 H 2778.21 0.71796 -3.84657 0
M  V30 29155 H 2777.83 2.31836 -3.23013 0
M  V30 29156 N 2778.83 1.51088 0.448349 0
M  V30 29157 C 2779.77 1.71606 1.54338 0
M  V30 29158 C 2780.74 0.557564 1.56462 0
M  V30 29159 O 2781.93 0.79075 1.73643 0
M  V30 29160 C 2779.07 1.837 2.92144 0
M  V30 29161 C 2778.18 3.11197 2.99634 0
M  V30 29162 C 2777.32 3.13952 4.28495 0
M  V30 29163 C 2776.36 4.35808 4.29811 0
M  V30 29164 N 2775.49 4.36174 5.50179 0
M  V30 29165 H 2780.33 2.65081 1.36146 0
M  V30 29166 H 2777.87 1.31384 0.661562 0
M  V30 29167 H 2779.83 1.88694 3.72089 0
M  V30 29168 H 2778.46 0.936428 3.08919 0
M  V30 29169 H 2777.51 3.15566 2.1242 0
M  V30 29170 H 2778.82 4.01134 2.96467 0
M  V30 29171 H 2777.98 3.178 5.16805 0
M  V30 29172 H 2776.72 2.21884 4.34303 0
M  V30 29173 H 2775.72 4.32148 3.39895 0
M  V30 29174 H 2776.95 5.29128 4.25676 0
M  V30 29175 H 2774.89 3.46971 5.56729 0
M  V30 29176 H 2774.81 5.19907 5.48847 0
M  V30 29177 H 2776.08 4.442 6.40552 0
M  V30 29178 N 2780.31 -0.703068 1.41049 0
M  V30 29179 C 2781.56 -1.45868 1.39303 0
M  V30 29180 C 2781.87 -1.956 0.00270515 0
M  V30 29181 O 2783.07 -2.71152 -0.137366 0
M  V30 29182 C 2781.53 -2.63731 2.44896 0
M  V30 29183 C 2781.14 -2.20817 3.898 0
M  V30 29184 C 2782.88 -3.41404 2.52276 0
M  V30 29185 C 2780.79 -3.35594 4.86961 0
M  V30 29186 H 2779.72 -0.547884 0.518015 0
M  V30 29187 H 2782.37 -0.763979 1.6684 0
M  V30 29188 H 2780.75 -3.35432 2.10478 0
M  V30 29189 H 2781.93 -1.56454 4.33427 0
M  V30 29190 H 2780.24 -1.56156 3.86011 0
M  V30 29191 H 2782.84 -4.26834 3.22051 0
M  V30 29192 H 2783.18 -3.86078 1.55721 0
M  V30 29193 H 2783.71 -2.76755 2.85747 0
M  V30 29194 H 2780.45 -2.95939 5.84893 0
M  V30 29195 H 2779.97 -3.98831 4.47989 0
M  V30 29196 H 2781.65 -4.0148 5.07368 0
M  V30 29197 N 2781.78 -1.26752 -0.936569 0
M  V30 29198 C 2783.2 -1.03965 -1.21093 0
M  V30 29199 C 2783.4 0.232337 -2.00156 0
M  V30 29200 O 2782.46 0.940233 -2.34341 0
M  V30 29201 C 2783.77 -2.2738 -1.96771 0
M  V30 29202 C 2785.32 -2.32328 -2.09744 0
M  V30 29203 C 2785.79 -3.55449 -2.88826 0
M  V30 29204 N 2787.28 -3.55953 -2.96398 0
M  V30 29205 C 2788.02 -4.47888 -3.58028 0
M  V30 29206 N 2787.51 -5.50116 -4.21122 0
M  V30 29207 N 2789.31 -4.3553 -3.55346 0
M  V30 29208 H 2781.46 -2.08442 -0.408136 0
M  V30 29209 H 2783.72 -0.916294 -0.243123 0
M  V30 29210 H 2783.43 -3.19924 -1.46088 0
M  V30 29211 H 2783.3 -2.31994 -2.9742 0
M  V30 29212 H 2785.69 -1.40296 -2.59617 0
M  V30 29213 H 2785.77 -2.31723 -1.08343 0
M  V30 29214 H 2785.41 -4.47812 -2.39639 0
M  V30 29215 H 2785.34 -3.53303 -3.90493 0
M  V30 29216 H 2787.83 -2.82015 -2.51547 0
M  V30 29217 H 2788.15 -6.16448 -4.6606 0
M  V30 29218 H 2786.49 -5.53969 -4.19695 0
M  V30 29219 H 2789.68 -3.5488 -3.0525 0
M  V30 29220 H 2789.86 -5.0737 -4.03088 0
M  V30 29221 N 2783.26 1.1418 -1.08631 0
M  V30 29222 C 2784.21 2.19337 -0.718338 0
M  V30 29223 C 2785.18 1.63431 0.296558 0
M  V30 29224 O 2786.36 1.89949 0.180046 0
M  V30 29225 C 2783.5 3.44831 -0.136264 0
M  V30 29226 C 2782.62 4.14877 -1.20421 0
M  V30 29227 C 2781.75 5.27961 -0.585759 0
M  V30 29228 C 2780.79 5.89843 -1.63559 0
M  V30 29229 N 2779.93 6.94373 -1.03876 0
M  V30 29230 H 2784.77 2.50161 -1.61937 0
M  V30 29231 H 2782.31 1.22842 -0.809211 0
M  V30 29232 H 2784.26 4.16625 0.218948 0
M  V30 29233 H 2782.89 3.14482 0.728065 0
M  V30 29234 H 2781.95 3.41448 -1.67682 0
M  V30 29235 H 2783.26 4.56962 -1.99967 0
M  V30 29236 H 2782.41 6.06436 -0.178924 0
M  V30 29237 H 2781.15 4.87103 0.241334 0
M  V30 29238 H 2780.16 5.10069 -2.05206 0
M  V30 29239 H 2781.38 6.32775 -2.4652 0
M  V30 29240 H 2779.33 6.55587 -0.232803 0
M  V30 29241 H 2779.24 7.34957 -1.77129 0
M  V30 29242 H 2780.51 7.76719 -0.65786 0
M  V30 29243 N 2784.74 0.872304 1.31258 0
M  V30 29244 C 2785.99 0.483443 1.96233 0
M  V30 29245 C 2786.31 -0.967982 1.69278 0
M  V30 29246 O 2785.58 -1.67889 1.00946 0
M  V30 29247 H 2784.16 0.175787 0.726022 0
M  V30 29248 H 2786.82 1.1126 1.60022 0
M  V30 29249 H 2785.92 0.643129 3.05402 0
M  V30 29250 N 2786.22 -1.44374 0.631976 0
M  V30 29251 C 2787.17 -2.30686 -0.0724401 0
M  V30 29252 C 2788.14 -1.43531 -0.83595 0
M  V30 29253 O 2789.32 -1.72432 -0.816819 0
M  V30 29254 C 2786.46 -3.28819 -1.04747 0
M  V30 29255 C 2785.57 -4.31077 -0.282291 0
M  V30 29256 C 2784.71 -5.16302 -1.24921 0
M  V30 29257 C 2783.75 -6.10268 -0.473242 0
M  V30 29258 N 2782.88 -6.88189 -1.39067 0
M  V30 29259 H 2787.72 -2.90381 0.669528 0
M  V30 29260 H 2785.26 -1.4307 0.341952 0
M  V30 29261 H 2787.22 -3.84203 -1.62616 0
M  V30 29262 H 2785.85 -2.70822 -1.75656 0
M  V30 29263 H 2784.9 -3.78159 0.412334 0
M  V30 29264 H 2786.21 -4.97759 0.322042 0
M  V30 29265 H 2785.37 -5.76207 -1.89921 0
M  V30 29266 H 2784.11 -4.49695 -1.88747 0
M  V30 29267 H 2783.11 -5.49471 0.190238 0
M  V30 29268 H 2784.34 -6.78911 0.160309 0
M  V30 29269 H 2782.28 -6.2425 -2.01612 0
M  V30 29270 H 2782.2 -7.51315 -0.840381 0
M  V30 29271 H 2783.47 -7.52617 -2.02948 0
M  V30 29272 N 2787.7 -0.372575 -1.53133 0
M  V30 29273 C 2788.92 0.218062 -2.0625 0
M  V30 29274 C 2789.35 1.41109 -1.24378 0
M  V30 29275 O 2788.7 1.79359 -0.264585 0
M  V30 29276 C 2788.75 0.582814 -3.55859 0
M  V30 29277 O 2787.86 1.6791 -3.7667 0
M  V30 29278 H 2787.2 0.0300924 -0.663318 0
M  V30 29279 H 2789.73 -0.535204 -1.97476 0
M  V30 29280 H 2789.74 0.851855 -3.99008 0
M  V30 29281 H 2788.41 -0.289501 -4.14891 0
M  V30 29282 H 2786.99 1.40507 -3.45416 0
M  V30 29283 N 2789.17 1.5727 -0.101929 0
M  V30 29284 C 2790.59 1.57554 0.254712 0
M  V30 29285 C 2790.79 1.11355 1.67935 0
M  V30 29286 O 2789.85 0.793124 2.3972 0
M  V30 29287 C 2791.16 3.00677 0.0369221 0
M  V30 29288 C 2792.71 3.12827 0.104144 0
M  V30 29289 C 2793.18 4.5792 -0.085737 0
M  V30 29290 N 2794.67 4.6319 -0.0311313 0
M  V30 29291 C 2795.41 5.73195 -0.1532 0
M  V30 29292 N 2794.9 6.92011 -0.330485 0
M  V30 29293 N 2796.7 5.62021 -0.0939841 0
M  V30 29294 H 2788.85 1.85607 -1.03266 0
M  V30 29295 H 2791.11 0.857008 -0.405266 0
M  V30 29296 H 2790.82 3.38702 -0.947314 0
M  V30 29297 H 2790.69 3.69126 0.77627 0
M  V30 29298 H 2793.08 2.74671 1.07889 0
M  V30 29299 H 2793.16 2.46956 -0.666806 0
M  V30 29300 H 2792.8 4.96771 -1.05738 0
M  V30 29301 H 2792.73 5.2186 0.70499 0
M  V30 29302 H 2795.22 3.77759 0.103075 0
M  V30 29303 H 2795.54 7.71685 -0.414956 0
M  V30 29304 H 2793.88 6.94034 -0.366241 0
M  V30 29305 H 2797.07 4.6808 0.0434346 0
M  V30 29306 H 2797.25 6.47714 -0.192563 0
M  V30 29307 N 2790.65 -0.171793 1.56661 0
M  V30 29308 C 2791.58 -1.21494 1.99403 0
M  V30 29309 C 2792.56 -1.46195 0.869541 0
M  V30 29310 O 2793.75 -1.57537 1.13559 0
M  V30 29311 C 2790.88 -2.55396 2.35351 0
M  V30 29312 C 2789.83 -2.45265 3.50755 0
M  V30 29313 C 2789.16 -3.83653 3.72444 0
M  V30 29314 C 2790.46 -1.95778 4.84219 0
M  V30 29315 H 2792.15 -0.859648 2.86793 0
M  V30 29316 H 2789.7 -0.412079 1.37978 0
M  V30 29317 H 2791.65 -3.28575 2.63849 0
M  V30 29318 H 2790.38 -2.92713 1.44869 0
M  V30 29319 H 2789.03 -1.74541 3.22383 0
M  V30 29320 H 2788.68 -4.18362 2.79253 0
M  V30 29321 H 2788.38 -3.77743 4.50093 0
M  V30 29322 H 2789.91 -4.58418 4.03342 0
M  V30 29323 H 2791.32 -2.58731 5.11597 0
M  V30 29324 H 2789.72 -2.00817 5.65502 0
M  V30 29325 H 2790.79 -0.912075 4.76245 0
M  V30 29326 N 2792.13 -1.51324 -0.44033 0
M  V30 29327 C 2793.38 -1.63078 -1.18695 0
M  V30 29328 C 2793.69 -0.351394 -1.92418 0
M  V30 29329 O 2794.9 -0.348268 -2.69257 0
M  V30 29330 C 2793.35 -2.87992 -2.15844 0
M  V30 29331 C 2792.96 -4.22924 -1.47782 0
M  V30 29332 C 2794.71 -3.09103 -2.90956 0
M  V30 29333 C 2792.61 -5.38991 -2.43397 0
M  V30 29334 H 2791.54 -0.607397 -0.44675 0
M  V30 29335 H 2794.19 -1.77788 -0.454282 0
M  V30 29336 H 2792.58 -2.6691 -2.92532 0
M  V30 29337 H 2793.75 -4.54377 -0.76672 0
M  V30 29338 H 2792.07 -4.07667 -0.848332 0
M  V30 29339 H 2794.66 -3.92991 -3.62577 0
M  V30 29340 H 2795.01 -2.2206 -3.5213 0
M  V30 29341 H 2795.54 -3.30511 -2.21375 0
M  V30 29342 H 2792.28 -6.28285 -1.86918 0
M  V30 29343 H 2791.8 -5.11918 -3.1257 0
M  V30 29344 H 2793.48 -5.70819 -3.0459 0
M  V30 29345 N 2793.61 0.695578 -1.41419 0
M  V30 29346 C 2794.52 1.8393 -1.45626 0
M  V30 29347 C 2795.53 1.70508 -0.346855 0
M  V30 29348 O 2796.71 1.92423 -0.594574 0
M  V30 29349 C 2793.78 3.19911 -1.33633 0
M  V30 29350 C 2792.84 3.45442 -2.54888 0
M  V30 29351 C 2792.07 4.74936 -2.43458 0
M  V30 29352 O 2792.29 5.51421 -1.45914 0
M  V30 29353 O 2791.23 5.0125 -3.33215 0
M  V30 29354 H 2795.05 1.83338 -2.42118 0
M  V30 29355 H 2792.64 0.848637 -1.22957 0
M  V30 29356 H 2794.52 4.01096 -1.29228 0
M  V30 29357 H 2793.19 3.21187 -0.402564 0
M  V30 29358 H 2792.1 2.64188 -2.64869 0
M  V30 29359 H 2793.43 3.48981 -3.47093 0
M  V30 29360 N 2795.09 1.27247 0.929833 0
M  V30 29361 C 2796.05 1.09833 2.0117 0
M  V30 29362 C 2797.05 0.042997 1.60743 0
M  V30 29363 O 2798.24 0.287404 1.71813 0
M  V30 29364 C 2795.37 0.673062 3.3419 0
M  V30 29365 H 2796.57 2.05898 2.1805 0
M  V30 29366 H 2794.12 1.10005 1.11034 0
M  V30 29367 H 2794.85 -0.289078 3.23009 0
M  V30 29368 H 2794.64 1.43522 3.64889 0
M  V30 29369 H 2796.13 0.573396 4.13645 0
M  V30 29370 N 2796.57 -1.13603 1.09235 0
M  V30 29371 C 2797.79 -1.89222 0.849101 0
M  V30 29372 C 2798.22 -1.7848 -0.593844 0
M  V30 29373 O 2797.57 -1.13095 -1.41701 0
M  V30 29374 C 2797.62 -3.36871 1.28648 0
M  V30 29375 O 2796.73 -4.10006 0.443702 0
M  V30 29376 H 2796.07 -0.588412 0.30768 0
M  V30 29377 H 2798.6 -1.43745 1.45597 0
M  V30 29378 H 2798.61 -3.87697 1.27103 0
M  V30 29379 H 2797.28 -3.44007 2.33735 0
M  V30 29380 H 2795.86 -3.6921 0.523306 0
M  V30 29381 N 2798.04 -0.879253 -1.30793 0
M  V30 29382 C 2799.27 -0.508805 -2.01062 0
M  V30 29383 C 2799.69 0.893774 -1.65509 0
M  V30 29384 O 2799.05 1.59136 -0.868644 0
M  V30 29385 C 2799.1 -0.684053 -3.54052 0
M  V30 29386 O 2798.2 0.272582 -4.11498 0
M  V30 29387 H 2797.54 -0.201202 -0.632782 0
M  V30 29388 H 2800.07 -1.18522 -1.66774 0
M  V30 29389 H 2800.08 -0.580869 -4.03844 0
M  V30 29390 H 2798.76 -1.70671 -3.79268 0
M  V30 29391 H 2797.34 0.123574 -3.72695 0
M  V30 29392 N 2799.52 1.44037 -0.639624 0
M  V30 29393 C 2800.45 2.33453 0.0469033 0
M  V30 29394 C 2801.43 1.48695 0.826064 0
M  V30 29395 O 2802.62 1.77394 0.790254 0
M  V30 29396 C 2799.75 3.31882 1.02332 0
M  V30 29397 C 2798.7 4.26523 0.355209 0
M  V30 29398 C 2798.03 5.14885 1.44212 0
M  V30 29399 C 2799.33 5.16975 -0.743889 0
M  V30 29400 H 2801.02 2.91107 -0.699786 0
M  V30 29401 H 2798.57 1.39978 -0.33797 0
M  V30 29402 H 2800.52 3.93325 1.5124 0
M  V30 29403 H 2799.24 2.72455 1.801 0
M  V30 29404 H 2797.9 3.66425 -0.113304 0
M  V30 29405 H 2797.55 4.51806 2.21089 0
M  V30 29406 H 2797.25 5.79021 1.00042 0
M  V30 29407 H 2798.78 5.79201 1.93284 0
M  V30 29408 H 2800.19 5.72305 -0.337545 0
M  V30 29409 H 2798.59 5.89759 -1.10924 0
M  V30 29410 H 2799.66 4.57478 -1.60753 0
M  V30 29411 N 2801 0.380691 1.52933 0
M  V30 29412 C 2801.95 -0.47357 2.27728 0
M  V30 29413 C 2802.94 -1.07048 1.3129 0
M  V30 29414 O 2804.15 -1.01194 1.48861 0
M  V30 29415 H 2800.52 -0.171463 0.732192 0
M  V30 29416 H 2802.49 0.178837 2.97864 0
M  V30 29417 C 2801.24 -1.59336 3.09043 0
M  V30 29418 H 2800.57 -1.14336 3.83102 0
M  V30 29419 H 2802.01 -2.16549 3.64531 0
M  V30 29420 C 2800.46 -2.54443 2.20818 0
M  V30 29421 O 2800.99 -3.57639 1.82914 0
M  V30 29422 N 2799.2 -2.23983 1.85149 0
M  V30 29423 H 2798.75 -1.40099 2.16171 0
M  V30 29424 H 2798.71 -2.87869 1.26407 0
M  V30 29425 N 2802.48 -1.57214 0.110268 0
M  V30 29426 C 2803.75 -1.86397 -0.592923 0
M  V30 29427 C 2804.13 -1.00988 -1.85377 0
M  V30 29428 O 2803.48 -0.0863994 -2.28337 0
M  V30 29429 C 2803.69 -3.37362 -0.893756 0
M  V30 29430 C 2805.04 -4.05764 -1.25062 0
M  V30 29431 O 2806.06 -3.4233 -0.984296 0
M  V30 29432 O 2804.92 -5.17721 -1.75008 0
M  V30 29433 H 2802.02 -0.771341 -0.298266 0
M  V30 29434 H 2804.56 -1.69087 0.144112 0
M  V30 29435 H 2803.34 -3.913 9.48118e-05 0
M  V30 29436 H 2802.96 -3.60071 -1.68625 0
M  V30 29437 N 2803.96 0.163482 -1.5675 0
M  V30 29438 C 2805.18 0.898231 -1.8694 0
M  V30 29439 C 2805.61 1.7469 -0.697486 0
M  V30 29440 O 2804.96 1.77824 0.353296 0
M  V30 29441 C 2805.01 1.74436 -3.15602 0
M  V30 29442 O 2804.12 2.84684 -2.98376 0
M  V30 29443 H 2803.46 0.251167 -0.614664 0
M  V30 29444 H 2805.99 0.159262 -2.03979 0
M  V30 29445 H 2806 2.14271 -3.47206 0
M  V30 29446 H 2804.67 1.12103 -4.00507 0
M  V30 29447 H 2803.25 2.48375 -2.78144 0
M  V30 29448 N 2805.43 1.51555 0.432299 0
M  V30 29449 C 2806.68 1.64717 1.18306 0
M  V30 29450 C 2807.01 0.364729 1.90744 0
M  V30 29451 O 2806.29 -0.635904 1.83811 0
M  V30 29452 C 2806.57 2.85387 2.19605 0
M  V30 29453 C 2806.42 4.2362 1.51216 0
M  V30 29454 C 2807.74 3.01574 3.20532 0
M  V30 29455 H 2804.86 0.599459 0.42874 0
M  V30 29456 H 2807.5 1.84053 0.471656 0
M  V30 29457 H 2805.65 2.69032 2.80275 0
M  V30 29458 H 2807.33 4.51654 0.938437 0
M  V30 29459 H 2805.57 4.26086 0.814426 0
M  V30 29460 H 2806.24 5.04056 2.25015 0
M  V30 29461 H 2808.72 3.16674 2.6992 0
M  V30 29462 H 2807.59 3.87562 3.88699 0
M  V30 29463 H 2807.85 2.13865 3.86929 0
M  V30 29464 N 2806.91 -0.688069 1.41786 0
M  V30 29465 C 2807.87 -1.78365 1.43939 0
M  V30 29466 C 2808.87 -1.57401 0.328894 0
M  V30 29467 O 2810.06 -1.63936 0.589121 0
M  V30 29468 C 2807.2 -3.16835 1.2581 0
M  V30 29469 H 2808.39 -1.77847 2.41475 0
M  V30 29470 H 2805.94 -0.896425 1.28039 0
M  V30 29471 H 2806.68 -3.22988 0.291442 0
M  V30 29472 H 2806.46 -3.33455 2.06278 0
M  V30 29473 H 2807.95 -3.96794 1.30169 0
M  V30 29474 N 2808.39 -1.27739 -0.923072 0
M  V30 29475 C 2809.32 -1.05185 -2.02513 0
M  V30 29476 C 2810.3 0.0291919 -1.62574 0
M  V30 29477 O 2811.48 -0.116881 -1.88137 0
M  V30 29478 C 2808.61 -0.596527 -3.33406 0
M  V30 29479 C 2807.66 -1.67283 -3.92325 0
M  V30 29480 S 2808.49 -3.26649 -4.24336 0
M  V30 29481 C 2809.65 -2.82929 -5.58303 0
M  V30 29482 H 2809.88 -1.98492 -2.21333 0
M  V30 29483 H 2807.41 -1.11622 -1.06677 0
M  V30 29484 H 2809.37 -0.340512 -4.09085 0
M  V30 29485 H 2808.03 0.316559 -3.12501 0
M  V30 29486 H 2807.22 -1.30565 -4.86794 0
M  V30 29487 H 2806.83 -1.88115 -3.23247 0
M  V30 29488 H 2809.12 -2.2852 -6.37797 0
M  V30 29489 H 2810.06 -3.7616 -5.99924 0
M  V30 29490 H 2810.47 -2.21928 -5.19045 0
M  V30 29491 N 2809.87 1.13022 -1.09836 0
M  V30 29492 C 2811.28 1.36387 -0.828899 0
M  V30 29493 C 2811.48 1.93714 0.554722 0
M  V30 29494 O 2810.54 2.15933 1.30879 0
M  V30 29495 C 2811.85 2.31127 -1.92356 0
M  V30 29496 C 2813.4 2.44732 -1.95129 0
M  V30 29497 C 2813.88 3.42782 -3.03751 0
M  V30 29498 N 2815.37 3.50335 -3.03018 0
M  V30 29499 C 2816.1 4.26095 -3.83707 0
M  V30 29500 N 2815.6 5.04973 -4.74315 0
M  V30 29501 N 2817.39 4.21438 -3.71949 0
M  V30 29502 H 2809.54 0.741655 -1.99031 0
M  V30 29503 H 2811.81 0.388888 -0.864564 0
M  V30 29504 H 2811.51 1.96167 -2.9191 0
M  V30 29505 H 2811.39 3.31186 -1.80542 0
M  V30 29506 H 2813.77 2.78975 -0.962118 0
M  V30 29507 H 2813.85 1.44582 -2.11021 0
M  V30 29508 H 2813.5 3.09269 -4.02884 0
M  V30 29509 H 2813.43 4.42747 -2.85102 0
M  V30 29510 H 2815.92 2.94058 -2.37357 0
M  V30 29511 H 2816.23 5.60099 -5.32456 0
M  V30 29512 H 2814.58 5.04191 -4.78348 0
M  V30 29513 H 2817.77 3.58895 -3.0052 0
M  V30 29514 H 2817.94 4.80227 -4.3507 0
M  V30 29515 N 2811.35 0.886177 1.30325 0
M  V30 29516 C 2812.59 0.511946 1.97885 0
M  V30 29517 C 2812.95 -0.921915 1.68418 0
M  V30 29518 O 2814.15 -1.40233 2.29321 0
M  V30 29519 C 2812.42 0.780506 3.48773 0
M  V30 29520 S 2813.98 0.508558 4.35843 0
M  V30 29521 H 2810.8 0.19044 0.685021 0
M  V30 29522 H 2813.4 1.1457 1.58411 0
M  V30 29523 H 2812.11 1.82255 3.67711 0
M  V30 29524 H 2811.64 0.134353 3.93171 0
M  V30 29525 H 2813.65 -0.652304 4.91894 0
M  V30 29526 N 2812.82 -1.43695 0.647253 0
M  V30 29527 C 2814.05 -2.05936 0.165546 0
M  V30 29528 C 2814.46 -1.48559 -1.17162 0
M  V30 29529 O 2813.81 -0.60917 -1.73306 0
M  V30 29530 C 2813.87 -3.59499 -0.00641763 0
M  V30 29531 C 2813.53 -4.39427 1.2551 0
M  V30 29532 C 2814.53 -4.71872 2.18249 0
M  V30 29533 C 2812.21 -4.79536 1.49502 0
M  V30 29534 C 2814.21 -5.43328 3.33278 0
M  V30 29535 C 2811.89 -5.50737 2.64825 0
M  V30 29536 C 2812.89 -5.82554 3.56538 0
M  V30 29537 O 2812.58 -6.52302 4.69848 0
M  V30 29538 H 2812.31 -0.670708 0.0844242 0
M  V30 29539 H 2814.87 -1.85289 0.886412 0
M  V30 29540 H 2813.1 -3.78698 -0.782594 0
M  V30 29541 H 2814.79 -4.03456 -0.444723 0
M  V30 29542 H 2815.55 -4.4141 2.00954 0
M  V30 29543 H 2811.43 -4.54181 0.789992 0
M  V30 29544 H 2814.97 -5.6808 4.04884 0
M  V30 29545 H 2810.87 -5.80615 2.82057 0
M  V30 29546 H 2811.64 -6.70781 4.69036 0
M  V30 29547 N 2814.3 -0.388796 -1.52729 0
M  V30 29548 C 2815.55 0.193555 -2.01573 0
M  V30 29549 C 2815.88 1.46857 -1.27528 0
M  V30 29550 O 2815.13 1.92286 -0.36396 0
M  V30 29551 C 2815.43 0.508383 -3.53766 0
M  V30 29552 C 2815.1 -0.675025 -4.45819 0
M  V30 29553 C 2813.76 -0.999679 -4.70701 0
M  V30 29554 C 2816.11 -1.46675 -5.00136 0
M  V30 29555 C 2813.44 -2.11761 -5.47151 0
M  V30 29556 C 2815.79 -2.57528 -5.77808 0
M  V30 29557 C 2814.46 -2.90502 -6.0097 0
M  V30 29558 H 2813.73 0.0708268 -0.737607 0
M  V30 29559 H 2816.37 -0.526039 -1.84133 0
M  V30 29560 H 2814.68 1.30929 -3.69276 0
M  V30 29561 H 2816.37 0.971596 -3.89051 0
M  V30 29562 H 2812.96 -0.411981 -4.26615 0
M  V30 29563 H 2817.15 -1.22917 -4.80838 0
M  V30 29564 H 2812.4 -2.3768 -5.6331 0
M  V30 29565 H 2816.58 -3.19277 -6.18898 0
M  V30 29566 H 2814.21 -3.77247 -6.59991 0
M  V30 29567 N 2815.78 1.57153 -0.118604 0
M  V30 29568 C 2817.03 1.94796 0.538426 0
M  V30 29569 C 2817.35 1.00277 1.67241 0
M  V30 29570 O 2816.62 0.0590036 1.95811 0
M  V30 29571 H 2815.2 0.7192 0.201891 0
M  V30 29572 H 2817.86 1.93996 -0.187452 0
M  V30 29573 H 2816.96 2.9782 0.933262 0
M  V30 29574 N 2817.26 -0.155167 1.56834 0
M  V30 29575 C 2818.21 -1.21104 1.98586 0
M  V30 29576 C 2819.2 -1.44931 0.877012 0
M  V30 29577 O 2820.41 -1.4532 1.06218 0
M  V30 29578 H 2816.78 -0.407458 0.632046 0
M  V30 29579 H 2818.75 -0.832145 2.86562 0
M  V30 29580 C 2817.5 -2.53891 2.3756 0
M  V30 29581 H 2816.82 -2.36384 3.22432 0
M  V30 29582 H 2818.26 -3.26419 2.70604 0
M  V30 29583 C 2816.72 -3.13835 1.22513 0
M  V30 29584 O 2817.25 -3.98301 0.521458 0
M  V30 29585 N 2815.46 -2.73163 0.991492 0
M  V30 29586 H 2815.01 -2.04574 1.56547 0
M  V30 29587 H 2814.96 -3.13604 0.223601 0
M  V30 29588 N 2818.74 -1.51782 -0.424256 0
M  V30 29589 C 2819.67 -1.76992 -1.52302 0
M  V30 29590 C 2820.65 -0.620237 -1.58389 0
M  V30 29591 O 2821.83 -0.864298 -1.73907 0
M  V30 29592 C 2818.96 -1.90688 -2.90268 0
M  V30 29593 C 2817.92 -3.06203 -2.99038 0
M  V30 29594 C 2817.24 -3.051 -4.39111 0
M  V30 29595 C 2818.54 -4.45938 -2.71912 0
M  V30 29596 H 2820.24 -2.68997 -1.31457 0
M  V30 29597 H 2817.78 -1.29441 -0.630962 0
M  V30 29598 H 2819.74 -2.06907 -3.67107 0
M  V30 29599 H 2818.46 -0.95342 -3.12374 0
M  V30 29600 H 2817.12 -2.8971 -2.24641 0
M  V30 29601 H 2816.77 -2.07506 -4.58203 0
M  V30 29602 H 2816.47 -3.82677 -4.45906 0
M  V30 29603 H 2817.99 -3.23429 -5.17905 0
M  V30 29604 H 2819.4 -4.62715 -3.38479 0
M  V30 29605 H 2817.8 -5.2532 -2.90102 0
M  V30 29606 H 2818.87 -4.55075 -1.67437 0
M  V30 29607 N 2820.21 0.68054 -1.42149 0
M  V30 29608 C 2821.44 1.46687 -1.45487 0
M  V30 29609 C 2821.85 1.89095 -0.0629784 0
M  V30 29610 O 2821.2 1.58339 0.931369 0
M  V30 29611 C 2821.26 2.75124 -2.31402 0
M  V30 29612 C 2820.92 2.54828 -3.79357 0
M  V30 29613 C 2821.92 2.198 -4.71152 0
M  V30 29614 C 2819.6 2.70001 -4.23562 0
M  V30 29615 C 2821.6 2.00204 -6.05142 0
M  V30 29616 C 2819.28 2.50021 -5.57613 0
M  V30 29617 C 2820.28 2.15175 -6.4822 0
M  V30 29618 O 2819.97 1.95384 -7.79795 0
M  V30 29619 H 2819.7 0.458062 -0.497147 0
M  V30 29620 H 2822.26 0.844106 -1.87254 0
M  V30 29621 H 2820.49 3.39862 -1.84474 0
M  V30 29622 H 2822.18 3.36987 -2.26263 0
M  V30 29623 H 2822.94 2.07679 -4.38286 0
M  V30 29624 H 2818.82 2.96103 -3.53333 0
M  V30 29625 H 2822.36 1.72929 -6.75826 0
M  V30 29626 H 2818.26 2.61737 -5.90054 0
M  V30 29627 H 2819.03 2.10028 -7.91095 0
M  V30 29628 N 2821.69 1.28226 0.916285 0
M  V30 29629 C 2822.64 1.11935 2.01839 0
M  V30 29630 C 2823.61 0.0171896 1.66091 0
M  V30 29631 O 2824.79 0.181651 1.89933 0
M  V30 29632 C 2821.93 0.784563 3.36063 0
M  V30 29633 C 2821.05 1.96551 3.84697 0
M  V30 29634 C 2820.18 1.57157 5.0742 0
M  V30 29635 C 2819.22 2.71932 5.48379 0
M  V30 29636 N 2818.36 2.33048 6.62294 0
M  V30 29637 H 2823.2 2.06236 2.15106 0
M  V30 29638 H 2820.74 1.02649 1.05364 0
M  V30 29639 H 2822.69 0.571221 4.13271 0
M  V30 29640 H 2821.32 -0.121508 3.22571 0
M  V30 29641 H 2820.38 2.29106 3.03669 0
M  V30 29642 H 2821.69 2.8261 4.11015 0
M  V30 29643 H 2820.84 1.32015 5.92163 0
M  V30 29644 H 2819.58 0.682238 4.82905 0
M  V30 29645 H 2818.59 2.97776 4.62179 0
M  V30 29646 H 2819.81 3.61504 5.74884 0
M  V30 29647 H 2817.76 1.46581 6.39414 0
M  V30 29648 H 2817.67 3.12643 6.88324 0
M  V30 29649 H 2818.94 2.11183 7.50348 0
M  V30 29650 N 2823.17 -1.12438 1.10433 0
M  V30 29651 C 2824.42 -1.84219 0.848004 0
M  V30 29652 C 2824.75 -1.83872 -0.62487 0
M  V30 29653 O 2824.02 -1.28426 -1.46072 0
M  V30 29654 C 2824.31 -3.31897 1.397 0
M  V30 29655 C 2824.16 -3.40699 2.93674 0
M  V30 29656 C 2825.48 -4.27652 1.03931 0
M  V30 29657 H 2822.6 -0.668858 0.309513 0
M  V30 29658 H 2825.24 -1.31909 1.36748 0
M  V30 29659 H 2823.39 -3.76575 0.955161 0
M  V30 29660 H 2825.06 -3.04656 3.46385 0
M  V30 29661 H 2823.31 -2.81246 3.30277 0
M  V30 29662 H 2823.98 -4.44594 3.2717 0
M  V30 29663 H 2826.45 -3.911 1.42056 0
M  V30 29664 H 2825.33 -5.29392 1.45036 0
M  V30 29665 H 2825.59 -4.4207 -0.0512583 0
M  V30 29666 N 2824.65 -0.893076 -1.29853 0
M  V30 29667 C 2825.9 -0.515619 -1.95825 0
M  V30 29668 C 2826.22 0.936812 -1.70453 0
M  V30 29669 O 2825.48 1.67828 -1.0066 0
M  V30 29670 C 2825.78 -0.74665 -3.49514 0
M  V30 29671 C 2825.44 -2.17542 -3.94951 0
M  V30 29672 C 2824.11 -2.5661 -4.07069 0
M  V30 29673 C 2826.46 -3.10615 -4.18531 0
M  V30 29674 C 2823.79 -3.87946 -4.40131 0
M  V30 29675 C 2826.14 -4.41492 -4.53065 0
M  V30 29676 C 2824.8 -4.80442 -4.63391 0
M  V30 29677 H 2824.07 -0.188678 -0.716576 0
M  V30 29678 H 2826.72 -1.13047 -1.54572 0
M  V30 29679 H 2825.02 -0.048824 -3.9177 0
M  V30 29680 H 2826.72 -0.43408 -3.98644 0
M  V30 29681 H 2823.31 -1.86218 -3.86032 0
M  V30 29682 H 2827.5 -2.81648 -4.08642 0
M  V30 29683 H 2822.75 -4.17854 -4.46327 0
M  V30 29684 H 2826.93 -5.13642 -4.7026 0
M  V30 29685 H 2824.55 -5.82248 -4.88765 0
M  V30 29686 N 2826.13 1.4335 -0.654865 0
M  V30 29687 C 2827.08 2.27926 0.0580924 0
M  V30 29688 C 2828.06 1.39992 0.793163 0
M  V30 29689 O 2829.25 1.63609 0.675359 0
M  V30 29690 C 2826.38 3.27714 1.02266 0
M  V30 29691 C 2825.47 4.23135 0.285974 0
M  V30 29692 N 2825.86 5.00955 -0.698386 0
M  V30 29693 C 2824.16 4.42873 0.527194 0
M  V30 29694 C 2824.86 5.70504 -1.1358 0
M  V30 29695 N 2823.83 5.41567 -0.469726 0
M  V30 29696 H 2827.64 2.8551 -0.697232 0
M  V30 29697 H 2825.15 1.55074 -0.48228 0
M  V30 29698 H 2827.15 3.87086 1.54823 0
M  V30 29699 H 2825.81 2.71692 1.77803 0
M  V30 29700 H 2826.82 5.06574 -1.07717 0
M  V30 29701 H 2823.5 3.97919 1.2636 0
M  V30 29702 H 2824.89 6.42969 -1.95038 0
M  V30 29703 N 2827.61 0.39689 1.52521 0
M  V30 29704 C 2828.83 -0.182714 2.06092 0
M  V30 29705 C 2829.25 -1.39884 1.26799 0
M  V30 29706 O 2828.61 -1.79733 0.316616 0
M  V30 29707 C 2828.66 -0.545314 3.57363 0
M  V30 29708 O 2828.38 0.622505 4.33655 0
M  V30 29709 C 2829.88 -1.17997 4.27307 0
M  V30 29710 H 2827.1 -0.0257772 0.670505 0
M  V30 29711 H 2829.64 0.564311 1.9656 0
M  V30 29712 H 2827.8 -1.24223 3.66943 0
M  V30 29713 H 2828.21 0.322754 5.23506 0
M  V30 29714 H 2829.69 -1.38398 5.34369 0
M  V30 29715 H 2830.16 -2.14954 3.83003 0
M  V30 29716 H 2830.77 -0.523597 4.22065 0
M  V30 29717 N 2829.08 -1.57088 0.126936 0
M  V30 29718 C 2830.03 -2.16996 -0.83758 0
M  V30 29719 C 2831.03 -1.12136 -1.26972 0
M  V30 29720 O 2832.23 -1.30425 -1.24054 0
M  V30 29721 H 2828.61 -0.694564 -0.288243 0
M  V30 29722 H 2830.58 -2.96807 -0.307905 0
M  V30 29723 C 2829.33 -2.7902 -2.07469 0
M  V30 29724 H 2828.65 -3.59411 -1.75111 0
M  V30 29725 H 2830.09 -3.24465 -2.72944 0
M  V30 29726 C 2828.55 -1.76503 -2.86964 0
M  V30 29727 O 2829.08 -1.22323 -3.82623 0
M  V30 29728 N 2827.28 -1.46262 -2.51109 0
M  V30 29729 H 2826.83 -1.90513 -1.73386 0
M  V30 29730 H 2826.79 -0.779139 -3.04593 0
M  V30 29731 N 2830.56 0.146848 -1.56914 0
M  V30 29732 C 2831.97 0.706897 -1.728 0
M  V30 29733 C 2832.32 1.81654 -0.741361 0
M  V30 29734 O 2831.45 2.16204 0.0919782 0
M  V30 29735 C 2832.04 1.28906 -3.13319 0
M  V30 29736 C 2830.6 1.79568 -3.30806 0
M  V30 29737 C 2829.75 0.684205 -2.68726 0
M  V30 29738 H 2832.7 -0.078821 -1.58504 0
M  V30 29739 H 2832.72 2.15886 -3.13327 0
M  V30 29740 H 2832.23 0.481217 -3.85105 0
M  V30 29741 H 2830.33 2.62918 -2.64017 0
M  V30 29742 H 2830.45 1.92428 -4.38757 0
M  V30 29743 H 2828.81 1.11087 -2.29198 0
M  V30 29744 H 2829.59 -0.112195 -3.43117 0
M  V30 29745 N 2832.04 1.52005 0.4162 0
M  V30 29746 C 2833.29 1.65389 1.1615 0
M  V30 29747 C 2833.61 0.382702 1.91208 0
M  V30 29748 O 2832.88 -0.602198 1.86415 0
M  V30 29749 H 2831.46 0.609588 0.431754 0
M  V30 29750 H 2834.12 1.8902 0.475118 0
M  V30 29751 H 2833.22 2.49163 1.87947 0
M  V30 29752 N 2833.52 -0.672992 1.42508 0
M  V30 29753 C 2834.75 -1.46125 1.46476 0
M  V30 29754 C 2835.16 -1.88644 0.0766243 0
M  V30 29755 O 2834.52 -1.5825 -0.909029 0
M  V30 29756 C 2834.57 -2.70919 2.39343 0
M  V30 29757 O 2834.29 -2.30183 3.72756 0
M  V30 29758 C 2835.79 -3.64465 2.5235 0
M  V30 29759 H 2833.01 -0.449566 0.498128 0
M  V30 29760 H 2835.55 -0.826769 1.87042 0
M  V30 29761 H 2833.71 -3.30552 2.02025 0
M  V30 29762 H 2834.12 -3.10784 4.22509 0
M  V30 29763 H 2835.6 -4.48748 3.21448 0
M  V30 29764 H 2836.07 -4.10487 1.56196 0
M  V30 29765 H 2836.68 -3.10724 2.90397 0
M  V30 29766 N 2835 -1.2871 -0.909472 0
M  V30 29767 C 2836.24 -1.1549 -1.65363 0
M  V30 29768 C 2836.56 0.294907 -1.93364 0
M  V30 29769 O 2837.76 0.548292 -2.65906 0
M  V30 29770 C 2836.22 -2.01922 -2.97919 0
M  V30 29771 C 2835.83 -3.51668 -2.77549 0
M  V30 29772 C 2837.57 -1.97399 -3.75811 0
M  V30 29773 C 2835.48 -4.30236 -4.05772 0
M  V30 29774 H 2834.41 -0.428631 -0.620316 0
M  V30 29775 H 2837.06 -1.53275 -1.00891 0
M  V30 29776 H 2835.44 -1.56996 -3.63549 0
M  V30 29777 H 2836.62 -4.04579 -2.20573 0
M  V30 29778 H 2834.93 -3.5776 -2.13065 0
M  V30 29779 H 2837.53 -2.53365 -4.70861 0
M  V30 29780 H 2837.87 -0.951715 -4.05275 0
M  V30 29781 H 2838.4 -2.40316 -3.17006 0
M  V30 29782 H 2835.14 -5.33061 -3.81479 0
M  V30 29783 H 2834.66 -3.82097 -4.62344 0
M  V30 29784 H 2836.34 -4.40382 -4.73997 0
M  V30 29785 N 2836.47 1.1185 -1.11028 0
M  V30 29786 C 2837.7 1.87847 -0.879097 0
M  V30 29787 C 2838.12 1.79402 0.565374 0
M  V30 29788 O 2837.48 1.15335 1.39884 0
M  V30 29789 C 2837.53 3.34782 -1.33991 0
M  V30 29790 O 2836.63 4.09248 -0.508875 0
M  V30 29791 H 2835.97 0.583443 -0.317003 0
M  V30 29792 H 2838.5 1.41411 -1.47866 0
M  V30 29793 H 2838.51 3.85626 -1.33255 0
M  V30 29794 H 2837.19 3.40245 -2.39178 0
M  V30 29795 H 2835.77 3.68331 -0.581978 0
M  V30 29796 N 2837.95 0.89995 1.29378 0
M  V30 29797 C 2839.2 0.524958 1.95163 0
M  V30 29798 C 2839.52 -0.931858 1.71293 0
M  V30 29799 O 2838.79 -1.6571 1.04484 0
M  V30 29800 H 2837.37 0.191148 0.72213 0
M  V30 29801 H 2840.03 1.1463 1.57626 0
M  V30 29802 H 2839.13 0.707765 3.03969 0
M  V30 29803 N 2839.43 -1.43001 0.662458 0
M  V30 29804 C 2840.67 -2.03576 0.183348 0
M  V30 29805 C 2841.03 -1.51185 -1.18351 0
M  V30 29806 O 2842.24 -2.03465 -1.75657 0
M  V30 29807 C 2840.51 -3.56823 0.20297 0
M  V30 29808 S 2842.07 -4.38312 -0.206943 0
M  V30 29809 H 2838.88 -0.706871 0.0765126 0
M  V30 29810 H 2841.49 -1.74933 0.872858 0
M  V30 29811 H 2840.19 -3.92454 1.20035 0
M  V30 29812 H 2839.72 -3.90122 -0.506777 0
M  V30 29813 H 2841.74 -4.74739 -1.4435 0
M  V30 29814 N 2840.91 -0.404973 -1.52308 0
M  V30 29815 C 2841.87 0.410612 -2.25492 0
M  V30 29816 C 2842.87 0.977132 -1.27706 0
M  V30 29817 O 2844.06 0.856665 -1.5168 0
M  V30 29818 C 2841.19 1.5776 -3.022 0
M  V30 29819 H 2842.39 -0.230329 -2.99014 0
M  V30 29820 H 2839.94 -0.157405 -1.55505 0
M  V30 29821 H 2840.67 2.25552 -2.33016 0
M  V30 29822 H 2840.46 1.17791 -3.73989 0
M  V30 29823 H 2841.95 2.15463 -3.57723 0
M  V30 29824 N 2842.39 1.57018 -0.135265 0
M  V30 29825 C 2843.63 1.96032 0.519529 0
M  V30 29826 C 2843.97 1.01958 1.65282 0
M  V30 29827 O 2843.24 0.0597611 1.94408 0
M  V30 29828 C 2843.52 3.4485 1.03684 0
M  V30 29829 C 2843.38 4.49701 -0.0941544 0
M  V30 29830 C 2844.7 3.9589 1.92247 0
M  V30 29831 H 2841.81 0.712782 0.187378 0
M  V30 29832 H 2844.46 1.8879 -0.214119 0
M  V30 29833 H 2842.61 3.51153 1.66203 0
M  V30 29834 H 2844.28 4.55486 -0.73008 0
M  V30 29835 H 2842.52 4.27179 -0.754999 0
M  V30 29836 H 2843.19 5.51133 0.309322 0
M  V30 29837 H 2845.67 3.91993 1.39574 0
M  V30 29838 H 2844.54 5.00506 2.25355 0
M  V30 29839 H 2844.81 3.37548 2.85507 0
M  V30 29840 N 2843.86 -0.138524 1.5699 0
M  V30 29841 C 2845.11 -0.848021 1.83448 0
M  V30 29842 C 2845.43 -1.81321 0.717472 0
M  V30 29843 O 2844.7 -1.94164 -0.260194 0
M  V30 29844 H 2843.28 -0.316154 0.676798 0
M  V30 29845 H 2845.95 -0.130504 1.94463 0
M  V30 29846 H 2845.04 -1.40513 2.7868 0
M  V30 29847 N 2845.34 -1.52224 -0.408133 0
M  V30 29848 C 2846.58 -1.68009 -1.16415 0
M  V30 29849 C 2846.95 -0.401826 -1.87748 0
M  V30 29850 O 2848.15 -0.43579 -2.65244 0
M  V30 29851 C 2846.42 -2.86892 -2.13137 0
M  V30 29852 S 2847.98 -3.23165 -2.96833 0
M  V30 29853 H 2844.8 -0.591607 -0.394363 0
M  V30 29854 H 2847.4 -1.90219 -0.451316 0
M  V30 29855 H 2846.1 -3.78171 -1.59422 0
M  V30 29856 H 2845.63 -2.66958 -2.88959 0
M  V30 29857 H 2847.65 -2.71864 -4.15095 0
M  V30 29858 N 2846.82 0.665425 -1.42863 0
M  V30 29859 C 2848.1 1.42195 -1.34313 0
M  V30 29860 C 2848.48 2.11095 0.0149894 0
M  V30 29861 O 2847.83 2.0392 1.03097 0
M  V30 29862 C 2848.04 2.41669 -2.51787 0
M  V30 29863 C 2849.38 3.06034 -2.94327 0
M  V30 29864 O 2850.41 2.51997 -2.51746 0
M  V30 29865 O 2849.27 4.03978 -3.68054 0
M  V30 29866 H 2846.36 0.634704 -0.53017 0
M  V30 29867 H 2848.91 0.693359 -1.54889 0
M  V30 29868 H 2847.68 1.89621 -3.42286 0
M  V30 29869 H 2847.3 3.21997 -2.33247 0
M  V30 29870 N 2848.3 1.29191 0.902633 0
M  V30 29871 C 2849.71 1.15345 1.46807 0
M  V30 29872 C 2850.06 -0.252483 1.94569 0
M  V30 29873 O 2849.19 -1.14773 1.83456 0
M  V30 29874 C 2849.78 2.08781 2.66826 0
M  V30 29875 C 2848.34 1.98967 3.19514 0
M  V30 29876 C 2847.49 1.99878 1.92209 0
M  V30 29877 H 2850.44 1.41718 0.714257 0
M  V30 29878 H 2850.46 1.65832 3.42462 0
M  V30 29879 H 2849.97 3.11098 2.32033 0
M  V30 29880 H 2848.07 0.997273 3.59006 0
M  V30 29881 H 2848.18 2.86483 3.8401 0
M  V30 29882 H 2846.55 1.44435 2.09787 0
M  V30 29883 H 2847.33 3.03894 1.59697 0
M  V30 29884 N 2849.78 -1.1126 1.1162 0
M  V30 29885 C 2850.69 -2.20934 0.789019 0
M  V30 29886 C 2851.7 -1.72621 -0.21864 0
M  V30 29887 O 2852.88 -2.01327 -0.0543472 0
M  V30 29888 C 2849.94 -3.45875 0.239075 0
M  V30 29889 C 2849 -4.08966 1.30558 0
M  V30 29890 C 2848.24 -5.27943 0.78178 0
M  V30 29891 O 2848.46 -5.69082 -0.387505 0
M  V30 29892 O 2847.39 -5.81668 1.54744 0
M  V30 29893 H 2851.22 -2.51336 1.70481 0
M  V30 29894 H 2848.81 -1.19832 0.892224 0
M  V30 29895 H 2850.69 -4.21353 -0.0631571 0
M  V30 29896 H 2849.36 -3.17119 -0.649398 0
M  V30 29897 H 2848.27 -3.35211 1.66085 0
M  V30 29898 H 2849.6 -4.41905 2.16751 0
M  V30 29899 N 2851.25 -0.906798 -1.28899 0
M  V30 29900 C 2852.48 -0.552004 -1.994 0
M  V30 29901 C 2852.9 0.865019 -1.67818 0
M  V30 29902 O 2852.25 1.57197 -0.927105 0
M  V30 29903 C 2852.31 -0.743214 -3.53778 0
M  V30 29904 O 2852.03 -2.10447 -3.84244 0
M  V30 29905 C 2853.53 -0.394318 -4.41543 0
M  V30 29906 H 2850.75 -0.211118 -0.636923 0
M  V30 29907 H 2853.29 -1.21809 -1.64264 0
M  V30 29908 H 2851.45 -0.124211 -3.87201 0
M  V30 29909 H 2851.86 -2.13903 -4.78901 0
M  V30 29910 H 2853.33 -0.578911 -5.48956 0
M  V30 29911 H 2853.81 0.669061 -4.34074 0
M  V30 29912 H 2854.42 -0.990564 -4.13604 0
M  V30 29913 N 2852.73 1.42648 -0.670032 0
M  V30 29914 C 2853.98 2.01604 -0.190321 0
M  V30 29915 C 2854.31 1.5295 1.20152 0
M  V30 29916 O 2853.56 0.720292 1.81962 0
M  V30 29917 C 2853.86 3.57003 -0.168361 0
M  V30 29918 C 2853.53 4.25069 -1.50422 0
M  V30 29919 C 2852.19 4.43378 -1.87 0
M  V30 29920 C 2854.54 4.6347 -2.38423 0
M  V30 29921 C 2851.87 4.97357 -3.11212 0
M  V30 29922 C 2854.22 5.18826 -3.61942 0
M  V30 29923 C 2852.89 5.35349 -3.98695 0
M  V30 29924 H 2852.16 0.73772 -0.0696434 0
M  V30 29925 H 2854.8 1.70898 -0.864074 0
M  V30 29926 H 2853.11 3.87349 0.588889 0
M  V30 29927 H 2854.8 4.00396 0.21994 0
M  V30 29928 H 2851.39 4.11175 -1.20967 0
M  V30 29929 H 2855.58 4.49002 -2.1145 0
M  V30 29930 H 2850.83 5.08335 -3.39714 0
M  V30 29931 H 2855.01 5.47525 -4.30336 0
M  V30 29932 H 2852.64 5.7694 -4.95019 0
M  V30 29933 N 2854.21 0.413044 1.52091 0
M  V30 29934 C 2855.46 -0.154068 2.02816 0
M  V30 29935 C 2855.81 -1.42473 1.29303 0
M  V30 29936 O 2855.11 -1.8755 0.391868 0
M  V30 29937 C 2855.3 -0.452037 3.5453 0
M  V30 29938 C 2855.13 0.788193 4.42739 0
M  V30 29939 C 2853.9 1.31455 4.87901 0
M  V30 29940 C 2856.1 1.66743 4.86519 0
M  V30 29941 N 2854.08 2.50986 5.60249 0
M  V30 29942 C 2855.45 2.70896 5.57688 0
M  V30 29943 C 2857.5 1.68473 4.68531 0
M  V30 29944 C 2856.21 3.76693 6.12776 0
M  V30 29945 C 2858.23 2.73191 5.24519 0
M  V30 29946 C 2857.6 3.76064 5.95613 0
M  V30 29947 H 2853.69 -0.0178429 0.781796 0
M  V30 29948 H 2856.28 0.56827 1.86222 0
M  V30 29949 H 2854.45 -1.14342 3.71188 0
M  V30 29950 H 2856.18 -1.00837 3.91936 0
M  V30 29951 H 2852.94 0.872013 4.65503 0
M  V30 29952 H 2853.36 3.11532 6.01063 0
M  V30 29953 H 2858 0.90278 4.13049 0
M  V30 29954 H 2855.72 4.55741 6.67327 0
M  V30 29955 H 2859.31 2.75442 5.12468 0
M  V30 29956 H 2858.19 4.55763 6.38161 0
M  V30 29957 N 2855.69 -1.56945 0.143591 0
M  V30 29958 C 2856.91 -2.0081 -0.518666 0
M  V30 29959 C 2857.34 -1.02301 -1.57849 0
M  V30 29960 O 2856.7 0.00175203 -1.813 0
M  V30 29961 C 2856.75 -3.43438 -1.09923 0
M  V30 29962 O 2855.85 -3.47919 -2.21419 0
M  V30 29963 H 2855.19 -0.651702 -0.127203 0
M  V30 29964 H 2857.72 -2.03196 0.239318 0
M  V30 29965 H 2857.73 -3.82167 -1.42873 0
M  V30 29966 H 2856.41 -4.14643 -0.323089 0
M  V30 29967 H 2854.98 -3.21029 -1.89723 0
M  V30 29968 N 2857.17 0.130197 -1.57061 0
M  V30 29969 C 2858.11 1.16021 -1.99519 0
M  V30 29970 C 2859.08 1.4177 -0.865477 0
M  V30 29971 O 2860.27 1.53824 -1.12885 0
M  V30 29972 C 2857.41 2.48449 -2.39514 0
M  V30 29973 C 2856.52 2.29731 -3.65852 0
M  V30 29974 C 2855.66 3.55311 -3.94876 0
M  V30 29975 C 2854.7 3.31702 -5.14432 0
M  V30 29976 N 2853.83 4.49456 -5.39383 0
M  V30 29977 H 2858.67 0.791144 -2.87306 0
M  V30 29978 H 2856.21 0.37917 -1.42129 0
M  V30 29979 H 2858.17 3.25687 -2.60736 0
M  V30 29980 H 2856.8 2.8327 -1.54784 0
M  V30 29981 H 2855.85 1.43464 -3.5231 0
M  V30 29982 H 2857.16 2.08255 -4.53245 0
M  V30 29983 H 2856.32 4.40972 -4.16687 0
M  V30 29984 H 2855.06 3.79807 -3.05937 0
M  V30 29985 H 2854.06 2.44431 -4.92477 0
M  V30 29986 H 2855.29 3.08588 -6.04938 0
M  V30 29987 H 2853.23 4.74094 -4.534 0
M  V30 29988 H 2853.15 4.31045 -6.21077 0
M  V30 29989 H 2854.42 5.36283 -5.65704 0
M  V30 29990 N 2858.65 1.52438 0.400055 0
M  V30 29991 C 2859.89 1.66168 1.14329 0
M  V30 29992 C 2860.21 0.402287 1.91418 0
M  V30 29993 O 2861.41 0.419534 2.68239 0
M  V30 29994 C 2859.87 2.93614 2.08132 0
M  V30 29995 C 2859.48 4.26693 1.36517 0
M  V30 29996 C 2861.22 3.16708 2.82659 0
M  V30 29997 C 2859.13 5.45255 2.29021 0
M  V30 29998 H 2858.06 0.619028 0.430489 0
M  V30 29999 H 2860.71 1.7893 0.406985 0
M  V30 30000 H 2859.09 2.74572 2.85353 0
M  V30 30001 H 2860.27 4.5625 0.645981 0
M  V30 30002 H 2858.58 4.09773 0.739948 0
M  V30 30003 H 2861.18 4.02466 3.5203 0
M  V30 30004 H 2861.52 2.31318 3.46118 0
M  V30 30005 H 2862.05 3.36265 2.12535 0
M  V30 30006 H 2858.79 6.3302 1.70194 0
M  V30 30007 H 2858.31 5.20025 2.98887 0
M  V30 30008 H 2859.99 5.78694 2.89349 0
M  V30 30009 N 2860.12 -0.657839 1.43214 0
M  V30 30010 C 2861.53 -1.2389 1.39671 0
M  V30 30011 C 2861.89 -1.95953 0.0984561 0
M  V30 30012 O 2861.01 -2.00979 -0.802265 0
M  V30 30013 C 2861.61 -2.25327 2.53008 0
M  V30 30014 C 2860.16 -2.78921 2.52745 0
M  V30 30015 C 2859.31 -1.53493 2.30944 0
M  V30 30016 H 2862.26 -0.450146 1.52182 0
M  V30 30017 H 2862.28 -3.07409 2.24232 0
M  V30 30018 H 2861.8 -1.7285 3.47483 0
M  V30 30019 H 2859.9 -3.35474 1.62136 0
M  V30 30020 H 2860.01 -3.26781 3.50358 0
M  V30 30021 H 2858.37 -1.80675 1.79524 0
M  V30 30022 H 2859.16 -1.02958 3.27498 0
M  V30 30023 N 2861.6 -1.29668 -0.895769 0
M  V30 30024 C 2862.85 -1.18042 -1.64906 0
M  V30 30025 C 2863.18 0.266648 -1.92361 0
M  V30 30026 O 2862.46 1.19211 -1.53684 0
M  V30 30027 C 2862.74 -1.99824 -2.9957 0
M  V30 30028 C 2862.59 -3.52692 -2.79156 0
M  V30 30029 C 2863.91 -1.82768 -4.00355 0
M  V30 30030 H 2861.03 -0.430175 -0.59843 0
M  V30 30031 H 2863.67 -1.59184 -1.03733 0
M  V30 30032 H 2861.82 -1.64865 -3.51784 0
M  V30 30033 H 2863.49 -3.97654 -2.33814 0
M  V30 30034 H 2861.74 -3.77418 -2.13864 0
M  V30 30035 H 2862.41 -4.05193 -3.74864 0
M  V30 30036 H 2864.88 -2.1331 -3.57265 0
M  V30 30037 H 2863.76 -2.42334 -4.92509 0
M  V30 30038 H 2864.02 -0.783916 -4.35094 0
M  V30 30039 N 2863.08 1.10667 -1.12208 0
M  V30 30040 C 2864.01 2.16158 -0.731506 0
M  V30 30041 C 2864.99 1.60237 0.276188 0
M  V30 30042 O 2866.17 1.87725 0.170707 0
M  V30 30043 C 2863.3 3.386 -0.0823477 0
M  V30 30044 C 2862.35 4.13208 -1.05648 0
M  V30 30045 S 2863.18 4.69092 -2.58289 0
M  V30 30046 C 2864.34 5.94848 -1.94697 0
M  V30 30047 H 2864.57 2.48954 -1.62508 0
M  V30 30048 H 2862.1 1.22417 -0.940928 0
M  V30 30049 H 2864.06 4.09504 0.285824 0
M  V30 30050 H 2862.72 3.04047 0.788304 0
M  V30 30051 H 2861.91 5.00992 -0.549852 0
M  V30 30052 H 2861.52 3.48104 -1.36748 0
M  V30 30053 H 2863.81 6.65139 -1.28827 0
M  V30 30054 H 2864.75 6.50169 -2.80511 0
M  V30 30055 H 2865.16 5.46767 -1.40379 0
M  V30 30056 N 2864.56 0.913621 1.28416 0
M  V30 30057 C 2865.49 0.346368 2.25556 0
M  V30 30058 C 2866.47 -0.549339 1.53039 0
M  V30 30059 O 2867.65 -0.493023 1.81938 0
M  V30 30060 C 2864.78 -0.504902 3.34916 0
M  V30 30061 C 2863.83 0.325408 4.25257 0
M  V30 30062 S 2864.66 1.73207 5.06715 0
M  V30 30063 C 2865.81 0.888096 6.19567 0
M  V30 30064 H 2866.05 1.1697 2.73323 0
M  V30 30065 H 2863.58 0.714865 1.36854 0
M  V30 30066 H 2865.54 -0.990231 3.98378 0
M  V30 30067 H 2864.2 -1.30262 2.85816 0
M  V30 30068 H 2863.39 -0.3255 5.02948 0
M  V30 30069 H 2862.99 0.744385 3.66517 0
M  V30 30070 H 2865.29 0.117687 6.77398 0
M  V30 30071 H 2866.23 1.63755 6.88905 0
M  V30 30072 H 2866.64 0.436327 5.62811 0
M  V30 30073 N 2866.04 -1.4229 0.677588 0
M  V30 30074 C 2867.31 -1.95169 0.129837 0
M  V30 30075 C 2867.69 -1.61788 -1.35602 0
M  V30 30076 O 2867.04 -0.915481 -2.09359 0
M  V30 30077 C 2867.25 -3.46678 0.401949 0
M  V30 30078 C 2868.6 -4.23393 0.319963 0
M  V30 30079 O 2869.62 -3.54613 0.335853 0
M  V30 30080 O 2868.48 -5.45859 0.264555 0
M  V30 30081 H 2865.58 -0.826988 0.00448886 0
M  V30 30082 H 2868.12 -1.52103 0.75251 0
M  V30 30083 H 2866.89 -3.6419 1.43114 0
M  V30 30084 H 2866.52 -3.96797 -0.252592 0
M  V30 30085 N 2867.51 -0.421104 -1.5187 0
M  V30 30086 C 2868.76 0.150457 -2.01539 0
M  V30 30087 C 2869.08 1.4462 -1.30805 0
M  V30 30088 O 2868.35 1.9095 -0.437601 0
M  V30 30089 H 2866.93 0.058591 -0.744699 0
M  V30 30090 H 2869.59 -0.560092 -1.86679 0
M  V30 30091 H 2868.69 0.338013 -3.10264 0
M  V30 30092 N 2868.99 1.56866 -0.151912 0
M  V30 30093 C 2869.9 2.20581 0.798837 0
M  V30 30094 C 2870.92 1.19156 1.26798 0
M  V30 30095 O 2872.09 1.51751 1.32415 0
M  V30 30096 C 2869.16 2.81877 2.01856 0
M  V30 30097 C 2868.22 3.98443 1.59818 0
M  V30 30098 C 2867.45 4.56807 2.75976 0
M  V30 30099 O 2867.68 4.14051 3.92323 0
M  V30 30100 O 2866.61 5.46991 2.51166 0
M  V30 30101 H 2870.44 3.02346 0.286447 0
M  V30 30102 H 2868.02 1.4921 0.0753544 0
M  V30 30103 H 2869.9 3.20818 2.73229 0
M  V30 30104 H 2868.58 2.03121 2.52038 0
M  V30 30105 H 2867.49 3.64209 0.854537 0
M  V30 30106 H 2868.82 4.78733 1.14347 0
M  V30 30107 N 2870.47 -0.121866 1.57128 0
M  V30 30108 C 2871.4 -1.15089 2.03167 0
M  V30 30109 C 2872.38 -1.43355 0.915612 0
M  V30 30110 O 2873.57 -1.53845 1.18513 0
M  V30 30111 C 2870.7 -2.4778 2.43357 0
M  V30 30112 C 2869.65 -2.33982 3.5838 0
M  V30 30113 C 2868.98 -3.7161 3.84461 0
M  V30 30114 C 2870.28 -1.80274 4.90203 0
M  V30 30115 H 2871.97 -0.767972 2.89383 0
M  V30 30116 H 2869.52 -0.367973 1.39219 0
M  V30 30117 H 2871.47 -3.20015 2.74169 0
M  V30 30118 H 2870.19 -2.87955 1.54108 0
M  V30 30119 H 2868.85 -1.64196 3.27773 0
M  V30 30120 H 2868.5 -4.09266 2.92422 0
M  V30 30121 H 2868.2 -3.63232 4.61883 0
M  V30 30122 H 2869.72 -4.45354 4.17722 0
M  V30 30123 H 2871.14 -2.42324 5.19569 0
M  V30 30124 H 2869.54 -1.82725 5.71605 0
M  V30 30125 H 2870.61 -0.7601 4.78906 0
M  V30 30126 N 2871.95 -1.52648 -0.391965 0
M  V30 30127 C 2873.2 -1.67547 -1.13729 0
M  V30 30128 C 2873.52 -0.413915 -1.90045 0
M  V30 30129 O 2872.78 0.603613 -1.86159 0
M  V30 30130 C 2873.08 -2.85953 -2.14396 0
M  V30 30131 C 2872.74 -4.2351 -1.54759 0
M  V30 30132 C 2871.41 -4.60921 -1.38221 0
M  V30 30133 C 2873.76 -5.09162 -1.11373 0
M  V30 30134 C 2871.09 -5.81646 -0.768398 0
M  V30 30135 C 2873.44 -6.30508 -0.514032 0
M  V30 30136 C 2872.1 -6.66654 -0.335923 0
M  V30 30137 H 2871.37 -0.613098 -0.416163 0
M  V30 30138 H 2874.02 -1.86786 -0.422294 0
M  V30 30139 H 2872.32 -2.61119 -2.92103 0
M  V30 30140 H 2874.02 -2.94676 -2.71969 0
M  V30 30141 H 2870.61 -3.94038 -1.68619 0
M  V30 30142 H 2874.79 -4.80829 -1.22953 0
M  V30 30143 H 2870.05 -6.08263 -0.618574 0
M  V30 30144 H 2874.22 -6.96194 -0.169534 0
M  V30 30145 H 2871.85 -7.60068 0.141794 0
M  V30 30146 N 2873.43 0.650235 -1.43561 0
M  V30 30147 C 2874.67 1.40731 -1.45049 0
M  V30 30148 C 2875 1.94848 -0.0770164 0
M  V30 30149 O 2874.27 1.74614 0.888067 0
M  V30 30150 H 2872.85 0.522309 -0.534043 0
M  V30 30151 H 2875.51 0.766671 -1.79188 0
M  V30 30152 H 2874.6 2.24818 -2.1648 0
M  V30 30153 N 2874.9 1.30141 0.88888 0
M  V30 30154 C 2876.15 1.18739 1.64035 0
M  V30 30155 C 2876.48 -0.258767 1.92771 0
M  V30 30156 O 2875.73 -1.20209 1.54429 0
M  V30 30157 C 2876.03 1.95733 2.99037 0
M  V30 30158 C 2875.7 3.4538 2.89868 0
M  V30 30159 C 2874.36 3.86188 2.87075 0
M  V30 30160 C 2876.71 4.40692 2.78281 0
M  V30 30161 C 2874.04 5.20607 2.70527 0
M  V30 30162 C 2876.39 5.75214 2.63272 0
M  V30 30163 C 2875.06 6.15266 2.58851 0
M  V30 30164 H 2874.33 0.434495 0.600246 0
M  V30 30165 H 2876.97 1.612 1.03377 0
M  V30 30166 H 2875.28 1.45895 3.63623 0
M  V30 30167 H 2876.98 1.84306 3.56135 0
M  V30 30168 H 2873.57 3.12948 2.9285 0
M  V30 30169 H 2877.75 4.10108 2.79508 0
M  V30 30170 H 2873.01 5.50737 2.65516 0
M  V30 30171 H 2877.18 6.48709 2.53279 0
M  V30 30172 H 2874.81 7.1937 2.45787 0
M  V30 30173 N 2876.38 -1.1007 1.12794 0
M  V30 30174 C 2877.66 -1.78631 0.796898 0
M  V30 30175 C 2878.04 -1.98705 -0.712704 0
M  V30 30176 O 2877.39 -1.58313 -1.6477 0
M  V30 30177 C 2877.6 -3.11375 1.57627 0
M  V30 30178 C 2878.95 -3.86191 1.7647 0
M  V30 30179 O 2879.97 -3.21107 1.5417 0
M  V30 30180 O 2878.83 -5.03015 2.13632 0
M  V30 30181 H 2875.92 -0.774388 0.290261 0
M  V30 30182 H 2878.47 -1.16686 1.23218 0
M  V30 30183 H 2877.24 -2.92207 2.60251 0
M  V30 30184 H 2876.86 -3.81041 1.13549 0
M  V30 30185 N 2877.86 -0.920419 -1.2793 0
M  V30 30186 C 2879.09 -0.572291 -1.98515 0
M  V30 30187 C 2879.5 0.852346 -1.68913 0
M  V30 30188 O 2878.84 1.57705 -0.942058 0
M  V30 30189 C 2878.9 -0.709547 -3.52428 0
M  V30 30190 C 2878.57 -2.10496 -4.05636 0
M  V30 30191 C 2879.56 -3.07838 -4.18965 0
M  V30 30192 C 2877.25 -2.41994 -4.40164 0
M  V30 30193 C 2879.24 -4.34791 -4.66085 0
M  V30 30194 C 2876.93 -3.69184 -4.86976 0
M  V30 30195 C 2877.93 -4.65397 -4.99895 0
M  V30 30196 O 2877.62 -5.90326 -5.45684 0
M  V30 30197 H 2877.35 -0.216285 -0.640466 0
M  V30 30198 H 2879.9 -1.23761 -1.63928 0
M  V30 30199 H 2878.13 0.0128583 -3.86698 0
M  V30 30200 H 2879.82 -0.367545 -4.04233 0
M  V30 30201 H 2880.59 -2.84823 -3.92557 0
M  V30 30202 H 2876.47 -1.67854 -4.29355 0
M  V30 30203 H 2880.01 -5.09893 -4.76083 0
M  V30 30204 H 2875.91 -3.92021 -5.12825 0
M  V30 30205 H 2876.68 -5.9321 -5.63954 0
M  V30 30206 N 2879.34 1.41929 -0.685124 0
M  V30 30207 C 2880.57 2.05723 -0.220408 0
M  V30 30208 C 2880.98 1.51518 1.1264 0
M  V30 30209 O 2880.34 0.659144 1.70181 0
M  V30 30210 C 2880.39 3.61154 -0.158038 0
M  V30 30211 O 2880.11 4.13351 -1.45163 0
M  V30 30212 C 2881.61 4.42078 0.328931 0
M  V30 30213 H 2878.83 0.662775 -0.104737 0
M  V30 30214 H 2881.38 1.81885 -0.934768 0
M  V30 30215 H 2879.53 3.84067 0.507076 0
M  V30 30216 H 2879.94 5.0731 -1.33181 0
M  V30 30217 H 2881.42 5.51063 0.321462 0
M  V30 30218 H 2881.9 4.17417 1.36601 0
M  V30 30219 H 2882.5 4.24206 -0.304811 0
M  V30 30220 N 2880.82 0.429152 1.51644 0
M  V30 30221 C 2881.78 -0.374686 2.26117 0
M  V30 30222 C 2882.78 -0.956691 1.29244 0
M  V30 30223 O 2883.97 -0.832425 1.53024 0
M  V30 30224 C 2881.1 -1.52932 3.04671 0
M  V30 30225 H 2882.29 0.277871 2.9861 0
M  V30 30226 H 2879.85 0.182124 1.55235 0
M  V30 30227 H 2880.58 -2.21817 2.36575 0
M  V30 30228 H 2880.37 -1.11826 3.75816 0
M  V30 30229 H 2881.86 -2.09745 3.61105 0
M  V30 30230 N 2882.29 -1.56783 0.160229 0
M  V30 30231 C 2883.52 -2.00622 -0.493413 0
M  V30 30232 C 2883.93 -1.03946 -1.58088 0
M  V30 30233 O 2883.28 -0.0305666 -1.83675 0
M  V30 30234 C 2883.34 -3.40892 -1.14163 0
M  V30 30235 C 2883 -4.56574 -0.197162 0
M  V30 30236 C 2884 -5.16652 0.580265 0
M  V30 30237 C 2881.68 -5.02208 -0.0962155 0
M  V30 30238 C 2883.68 -6.20783 1.44595 0
M  V30 30239 C 2881.36 -6.0619 0.773066 0
M  V30 30240 C 2882.36 -6.65348 1.54274 0
M  V30 30241 O 2882.05 -7.67316 2.39752 0
M  V30 30242 H 2881.78 -0.663036 -0.131753 0
M  V30 30243 H 2884.34 -2.03801 0.255764 0
M  V30 30244 H 2882.57 -3.3459 -1.93871 0
M  V30 30245 H 2884.26 -3.68753 -1.69634 0
M  V30 30246 H 2885.02 -4.82286 0.512385 0
M  V30 30247 H 2880.9 -4.55881 -0.685063 0
M  V30 30248 H 2884.44 -6.66886 2.04717 0
M  V30 30249 H 2880.34 -6.39982 0.842189 0
M  V30 30250 H 2881.11 -7.84593 2.33145 0
M  V30 30251 N 2883.77 0.113531 -1.57191 0
M  V30 30252 C 2885.05 0.850968 -1.76119 0
M  V30 30253 C 2885.43 1.97812 -0.73712 0
M  V30 30254 O 2884.78 2.27258 0.237902 0
M  V30 30255 C 2884.99 1.3626 -3.21301 0
M  V30 30256 C 2886.34 1.81276 -3.83958 0
M  V30 30257 O 2887.36 1.45927 -3.24937 0
M  V30 30258 O 2886.22 2.46576 -4.87711 0
M  V30 30259 H 2883.31 0.404516 -0.721315 0
M  V30 30260 H 2885.86 0.0968458 -1.69423 0
M  V30 30261 H 2884.63 0.554167 -3.87356 0
M  V30 30262 H 2884.25 2.17928 -3.32556 0
M  V30 30263 N 2885.25 1.52854 0.383864 0
M  V30 30264 C 2886.21 1.77345 1.45194 0
M  V30 30265 C 2887.21 0.643548 1.4736 0
M  V30 30266 O 2888.4 0.911639 1.48441 0
M  V30 30267 C 2885.54 1.8789 2.84447 0
M  V30 30268 H 2886.73 2.72718 1.24759 0
M  V30 30269 H 2884.28 1.43653 0.615914 0
M  V30 30270 H 2885.02 0.945205 3.1022 0
M  V30 30271 H 2884.8 2.70056 2.84275 0
M  V30 30272 H 2886.29 2.08494 3.61829 0
M  V30 30273 N 2886.73 -0.642612 1.43904 0
M  V30 30274 C 2887.95 -1.43481 1.4976 0
M  V30 30275 C 2888.38 -1.87717 0.119944 0
M  V30 30276 O 2887.74 -1.58034 -0.88853 0
M  V30 30277 C 2887.79 -2.63894 2.45749 0
M  V30 30278 O 2886.89 -3.63327 1.95108 0
M  V30 30279 H 2886.23 -0.429782 0.506146 0
M  V30 30280 H 2888.76 -0.785404 1.88925 0
M  V30 30281 H 2888.77 -3.1158 2.63405 0
M  V30 30282 H 2887.45 -2.3104 3.45822 0
M  V30 30283 H 2886.02 -3.22528 1.87163 0
M  V30 30284 N 2888.21 -1.30611 -0.881966 0
M  V30 30285 C 2889.14 -1.19823 -2.00411 0
M  V30 30286 C 2890.12 -0.0881836 -1.69871 0
M  V30 30287 O 2891.3 -0.270734 -1.92304 0
M  V30 30288 C 2888.43 -0.892389 -3.35639 0
M  V30 30289 C 2887.39 -1.9607 -3.80448 0
M  V30 30290 C 2886.71 -1.50779 -5.13001 0
M  V30 30291 C 2888.01 -3.3722 -3.98849 0
M  V30 30292 H 2889.71 -2.13703 -2.09694 0
M  V30 30293 H 2887.25 -1.02884 -1.00752 0
M  V30 30294 H 2889.21 -0.80357 -4.13667 0
M  V30 30295 H 2887.93 0.0820807 -3.26497 0
M  V30 30296 H 2886.59 -2.03921 -3.0465 0
M  V30 30297 H 2886.24 -0.521504 -5.00289 0
M  V30 30298 H 2885.94 -2.22238 -5.43952 0
M  V30 30299 H 2887.46 -1.43281 -5.93551 0
M  V30 30300 H 2888.88 -3.32111 -4.67306 0
M  V30 30301 H 2887.27 -4.06792 -4.41181 0
M  V30 30302 H 2888.34 -3.78889 -3.02608 0
M  V30 30303 N 2889.69 1.0947 -1.13376 0
M  V30 30304 C 2890.91 1.8594 -0.918744 0
M  V30 30305 C 2891.34 1.80561 0.527193 0
M  V30 30306 O 2890.69 1.18276 1.37406 0
M  V30 30307 C 2890.74 3.31864 -1.41062 0
M  V30 30308 O 2889.85 4.08077 -0.595568 0
M  V30 30309 H 2889.19 0.576587 -0.329307 0
M  V30 30310 H 2891.72 1.38242 -1.50832 0
M  V30 30311 H 2891.73 3.82712 -1.41404 0
M  V30 30312 H 2890.4 3.35095 -2.46341 0
M  V30 30313 H 2888.98 3.67013 -0.659975 0
M  V30 30314 N 2891.16 0.92719 1.2744 0
M  V30 30315 C 2892.57 0.61201 1.76384 0
M  V30 30316 C 2892.93 -0.872822 1.75716 0
M  V30 30317 O 2892.05 -1.68297 1.36033 0
M  V30 30318 C 2892.65 1.1042 3.20301 0
M  V30 30319 C 2891.2 0.839692 3.66914 0
M  V30 30320 C 2890.35 1.26321 2.46857 0
M  V30 30321 H 2893.3 1.10702 1.13714 0
M  V30 30322 H 2893.32 0.451644 3.7781 0
M  V30 30323 H 2892.84 2.1849 3.20755 0
M  V30 30324 H 2890.94 -0.227226 3.71906 0
M  V30 30325 H 2891.05 1.45687 4.56412 0
M  V30 30326 H 2889.41 0.681766 2.45406 0
M  V30 30327 H 2890.2 2.35254 2.50021 0
M  V30 30328 N 2892.64 -1.41564 0.692641 0
M  V30 30329 C 2893.57 -2.28186 -0.0250229 0
M  V30 30330 C 2894.55 -1.42069 -0.790888 0
M  V30 30331 O 2895.74 -1.715 -0.782314 0
M  V30 30332 C 2892.86 -3.22248 -1.04279 0
M  V30 30333 C 2891.91 -4.24888 -0.370441 0
M  V30 30334 S 2892.74 -5.28136 0.885035 0
M  V30 30335 C 2893.9 -6.25762 -0.131214 0
M  V30 30336 H 2894.13 -2.88706 0.709677 0
M  V30 30337 H 2891.66 -1.46657 0.482809 0
M  V30 30338 H 2893.62 -3.76973 -1.62486 0
M  V30 30339 H 2892.28 -2.6083 -1.75005 0
M  V30 30340 H 2891.48 -4.90961 -1.13902 0
M  V30 30341 H 2891.08 -3.73744 0.138477 0
M  V30 30342 H 2893.37 -6.70295 -0.985409 0
M  V30 30343 H 2894.31 -7.06364 0.495509 0
M  V30 30344 H 2894.72 -5.62415 -0.484678 0
M  V30 30345 N 2894.12 -0.437188 -1.51415 0
M  V30 30346 C 2895.37 0.121782 -2.03035 0
M  V30 30347 C 2895.72 1.40398 -1.31553 0
M  V30 30348 O 2895.01 1.86903 -0.421656 0
M  V30 30349 C 2895.21 0.395577 -3.55204 0
M  V30 30350 C 2895.04 -0.85853 -4.41429 0
M  V30 30351 C 2893.81 -1.39201 -4.85748 0
M  V30 30352 C 2896 -1.74462 -4.83805 0
M  V30 30353 N 2893.99 -2.59867 -5.56185 0
M  V30 30354 C 2895.36 -2.79734 -5.53307 0
M  V30 30355 C 2897.41 -1.75906 -4.65791 0
M  V30 30356 C 2896.12 -3.86394 -6.06706 0
M  V30 30357 C 2898.14 -2.81501 -5.20107 0
M  V30 30358 C 2897.5 -3.85492 -5.89555 0
M  V30 30359 H 2893.6 0.00540297 -0.781981 0
M  V30 30360 H 2896.19 -0.597825 -1.85295 0
M  V30 30361 H 2894.36 1.08422 -3.7296 0
M  V30 30362 H 2896.09 0.945894 -3.93491 0
M  V30 30363 H 2892.84 -0.94596 -4.64057 0
M  V30 30364 H 2893.27 -3.21055 -5.96031 0
M  V30 30365 H 2897.91 -0.968379 -4.11561 0
M  V30 30366 H 2895.63 -4.663 -6.59992 0
M  V30 30367 H 2899.21 -2.8356 -5.08021 0
M  V30 30368 H 2898.09 -4.65858 -6.30829 0
M  V30 30369 N 2895.6 1.56696 -0.168541 0
M  V30 30370 C 2896.84 1.96799 0.477123 0
M  V30 30371 C 2897.17 1.0544 1.6344 0
M  V30 30372 O 2896.43 0.0879247 1.95502 0
M  V30 30373 C 2896.73 3.42998 1.00435 0
M  V30 30374 C 2896.39 4.50885 -0.0367349 0
M  V30 30375 C 2895.05 4.80116 -0.322869 0
M  V30 30376 C 2897.41 5.15869 -0.743537 0
M  V30 30377 C 2894.73 5.71629 -1.32124 0
M  V30 30378 C 2897.09 6.0846 -1.73087 0
M  V30 30379 C 2895.75 6.36059 -2.02448 0
M  V30 30380 H 2895.02 0.720138 0.174592 0
M  V30 30381 H 2897.67 1.89728 -0.259917 0
M  V30 30382 H 2895.97 3.47007 1.81916 0
M  V30 30383 H 2897.67 3.71366 1.51288 0
M  V30 30384 H 2894.26 4.2815 0.196457 0
M  V30 30385 H 2898.44 4.93401 -0.535688 0
M  V30 30386 H 2893.7 5.91297 -1.55493 0
M  V30 30387 H 2897.87 6.57882 -2.28394 0
M  V30 30388 H 2895.5 7.06772 -2.79959 0
M  V30 30389 N 2897.08 -0.105193 1.57249 0
M  V30 30390 C 2898.03 -1.13446 1.97772 0
M  V30 30391 C 2899.01 -1.36323 0.854678 0
M  V30 30392 O 2900.2 -1.37184 1.11846 0
M  V30 30393 C 2897.33 -2.45741 2.39721 0
M  V30 30394 C 2896.42 -2.2628 3.58689 0
M  V30 30395 N 2896.81 -1.76663 4.73945 0
M  V30 30396 C 2895.11 -2.56885 3.6459 0
M  V30 30397 C 2895.81 -1.71235 5.55926 0
M  V30 30398 N 2894.78 -2.16084 4.98807 0
M  V30 30399 H 2898.58 -0.743614 2.84337 0
M  V30 30400 H 2896.1 -0.312759 1.5936 0
M  V30 30401 H 2898.1 -3.20202 2.66977 0
M  V30 30402 H 2896.76 -2.85571 1.54528 0
M  V30 30403 H 2897.77 -1.46007 4.96893 0
M  V30 30404 H 2894.44 -3.00308 2.90036 0
M  V30 30405 H 2895.83 -1.3401 6.584 0
M  V30 30406 N 2898.55 -1.53055 -0.375752 0
M  V30 30407 C 2899.52 -1.78113 -1.44251 0
M  V30 30408 C 2900.52 -0.651354 -1.47017 0
M  V30 30409 O 2901.71 -0.919498 -1.47956 0
M  V30 30410 C 2898.84 -1.89396 -2.83447 0
M  V30 30411 H 2900.03 -2.73376 -1.23311 0
M  V30 30412 H 2897.59 -1.43978 -0.608287 0
M  V30 30413 H 2898.32 -0.961643 -3.09714 0
M  V30 30414 H 2898.11 -2.7156 -2.82839 0
M  V30 30415 H 2899.6 -2.1041 -3.60718 0
M  V30 30416 N 2900.03 0.634971 -1.44242 0
M  V30 30417 C 2900.96 1.75837 -1.53635 0
M  V30 30418 C 2901.94 1.65577 -0.389632 0
M  V30 30419 O 2903.13 1.84396 -0.609252 0
M  V30 30420 C 2900.26 3.14351 -1.4765 0
M  V30 30421 C 2899.21 3.39395 -2.60758 0
M  V30 30422 C 2898.54 4.77899 -2.39825 0
M  V30 30423 C 2899.84 3.32336 -4.02927 0
M  V30 30424 H 2901.53 1.68234 -2.47665 0
M  V30 30425 H 2899.08 0.807948 -1.19198 0
M  V30 30426 H 2901.03 3.92713 -1.52822 0
M  V30 30427 H 2899.76 3.22729 -0.501341 0
M  V30 30428 H 2898.41 2.63412 -2.54969 0
M  V30 30429 H 2898.06 4.82976 -1.40511 0
M  V30 30430 H 2897.76 4.95615 -3.15658 0
M  V30 30431 H 2899.29 5.58496 -2.46809 0
M  V30 30432 H 2900.7 4.00608 -4.10105 0
M  V30 30433 H 2899.1 3.61586 -4.78932 0
M  V30 30434 H 2900.17 2.30208 -4.2677 0
M  V30 30435 N 2901.51 1.31076 0.875027 0
M  V30 30436 C 2902.47 1.18266 1.96331 0
M  V30 30437 C 2903.47 0.111135 1.60415 0
M  V30 30438 O 2904.66 0.360017 1.70439 0
M  V30 30439 C 2901.8 0.814198 3.31034 0
M  V30 30440 H 2902.99 2.14961 2.09121 0
M  V30 30441 H 2900.54 1.14615 1.06269 0
M  V30 30442 H 2901.28 -0.151818 3.23944 0
M  V30 30443 H 2901.06 1.58869 3.58473 0
M  V30 30444 H 2902.55 0.748321 4.10841 0
M  V30 30445 N 2902.99 -1.08867 1.13955 0
M  V30 30446 C 2903.9 -2.1921 0.835705 0
M  V30 30447 C 2904.91 -1.73046 -0.181975 0
M  V30 30448 O 2906.09 -2.01397 -0.0116307 0
M  V30 30449 C 2903.16 -3.4529 0.312386 0
M  V30 30450 C 2902.22 -4.06105 1.39203 0
M  V30 30451 C 2901.45 -5.26166 0.893589 0
M  V30 30452 O 2901.67 -5.69776 -0.266707 0
M  V30 30453 O 2900.61 -5.78255 1.67047 0
M  V30 30454 H 2904.43 -2.47664 1.75774 0
M  V30 30455 H 2902.02 -1.17913 0.917442 0
M  V30 30456 H 2903.9 -4.21392 0.0262323 0
M  V30 30457 H 2902.57 -3.18425 -0.581986 0
M  V30 30458 H 2901.48 -3.31613 1.73158 0
M  V30 30459 H 2902.81 -4.37208 2.26075 0
M  V30 30460 N 2904.47 -0.933936 -1.26946 0
M  V30 30461 C 2905.71 -0.578514 -1.94373 0
M  V30 30462 C 2906.05 0.879018 -1.73167 0
M  V30 30463 O 2905.32 1.6279 -1.06441 0
M  V30 30464 C 2905.6 -0.9128 -3.48339 0
M  V30 30465 C 2905.46 -2.42454 -3.78861 0
M  V30 30466 C 2906.78 -0.42308 -4.38062 0
M  V30 30467 H 2903.89 -0.211652 -0.705955 0
M  V30 30468 H 2906.54 -1.16684 -1.49949 0
M  V30 30469 H 2904.69 -0.412126 -3.86308 0
M  V30 30470 H 2906.36 -2.99739 -3.50649 0
M  V30 30471 H 2904.6 -2.8711 -3.25193 0
M  V30 30472 H 2905.27 -2.60896 -4.86454 0
M  V30 30473 H 2907.75 -0.852262 -4.07278 0
M  V30 30474 H 2906.62 -0.685872 -5.44598 0
M  V30 30475 H 2906.89 0.676917 -4.36887 0
M  V30 30476 N 2905.94 1.41194 -0.700139 0
M  V30 30477 C 2906.87 2.33442 -0.0521542 0
M  V30 30478 C 2907.86 1.52065 0.762254 0
M  V30 30479 O 2909.04 1.80586 0.714304 0
M  V30 30480 C 2906.17 3.35923 0.881634 0
M  V30 30481 C 2905.12 4.27646 0.173987 0
M  V30 30482 C 2904.45 5.20539 1.22244 0
M  V30 30483 C 2905.75 5.13355 -0.962487 0
M  V30 30484 H 2907.44 2.87877 -0.822625 0
M  V30 30485 H 2904.99 1.38418 -0.397036 0
M  V30 30486 H 2906.94 3.99385 1.34422 0
M  V30 30487 H 2905.67 2.79848 1.68382 0
M  V30 30488 H 2904.33 3.65615 -0.268615 0
M  V30 30489 H 2903.97 4.60776 2.01728 0
M  V30 30490 H 2903.67 5.82743 0.753935 0
M  V30 30491 H 2905.2 5.86877 1.68545 0
M  V30 30492 H 2906.61 5.70359 -0.579975 0
M  V30 30493 H 2905.01 5.84524 -1.35838 0
M  V30 30494 H 2906.08 4.50249 -1.80011 0
M  V30 30495 N 2907.42 0.445212 1.51181 0
M  V30 30496 C 2908.84 0.0979234 1.59299 0
M  V30 30497 C 2909.04 -1.39343 1.45553 0
M  V30 30498 O 2908.09 -2.16417 1.30077 0
M  V30 30499 C 2909.41 0.625057 2.94132 0
M  V30 30500 C 2910.96 0.586191 3.07462 0
M  V30 30501 C 2911.43 1.09043 4.4483 0
M  V30 30502 N 2912.92 1.04875 4.51171 0
M  V30 30503 C 2913.66 1.40969 5.55801 0
M  V30 30504 N 2913.15 1.84387 6.67812 0
M  V30 30505 N 2914.95 1.32736 5.46203 0
M  V30 30506 H 2907.1 1.41547 1.58361 0
M  V30 30507 H 2909.36 0.583773 0.746936 0
M  V30 30508 H 2909.07 1.66881 3.09586 0
M  V30 30509 H 2908.94 0.0542925 3.77161 0
M  V30 30510 H 2911.33 -0.448594 2.9167 0
M  V30 30511 H 2911.41 1.19345 2.26253 0
M  V30 30512 H 2911.05 2.12372 4.61368 0
M  V30 30513 H 2910.98 0.459631 5.2459 0
M  V30 30514 H 2913.47 0.729997 3.70782 0
M  V30 30515 H 2913.79 2.10145 7.43679 0
M  V30 30516 H 2912.13 1.8832 6.69 0
M  V30 30517 H 2915.32 0.986758 4.57581 0
M  V30 30518 H 2915.49 1.61193 6.27631 0
M  V30 30519 N 2908.9 -1.56605 0.176849 0
M  V30 30520 C 2910.32 -1.5859 -0.17925 0
M  V30 30521 C 2910.52 -1.19241 -1.62431 0
M  V30 30522 O 2909.57 -0.906594 -2.35663 0
M  V30 30523 C 2910.89 -3.00511 0.106577 0
M  V30 30524 C 2912.43 -3.12967 0.0452281 0
M  V30 30525 C 2912.91 -4.56989 0.304119 0
M  V30 30526 N 2914.4 -4.62514 0.25209 0
M  V30 30527 C 2915.13 -5.71812 0.426504 0
M  V30 30528 N 2914.63 -6.89646 0.660277 0
M  V30 30529 N 2916.42 -5.60933 0.362025 0
M  V30 30530 H 2908.57 -1.80468 1.12004 0
M  V30 30531 H 2910.84 -0.836697 0.445694 0
M  V30 30532 H 2910.54 -3.33796 1.10783 0
M  V30 30533 H 2910.42 -3.72409 -0.599271 0
M  V30 30534 H 2912.8 -2.79505 -0.946613 0
M  V30 30535 H 2912.89 -2.43493 0.783872 0
M  V30 30536 H 2912.53 -4.91161 1.29319 0
M  V30 30537 H 2912.46 -5.24629 -0.455202 0
M  V30 30538 H 2914.95 -3.77821 0.0772766 0
M  V30 30539 H 2915.26 -7.68827 0.782664 0
M  V30 30540 H 2913.61 -6.91497 0.696957 0
M  V30 30541 H 2916.8 -4.67754 0.179942 0
M  V30 30542 H 2916.97 -6.46057 0.501377 0
M  V30 30543 N 2910.38 0.0968524 -1.57302 0
M  V30 30544 C 2911.63 0.799356 -1.85184 0
M  V30 30545 C 2911.94 1.79984 -0.765849 0
M  V30 30546 O 2913.15 2.55011 -0.93174 0
M  V30 30547 C 2911.6 1.47244 -3.28401 0
M  V30 30548 C 2911.21 0.51181 -4.45067 0
M  V30 30549 C 2912.95 2.15877 -3.6551 0
M  V30 30550 C 2910.86 1.18938 -5.79317 0
M  V30 30551 H 2909.79 0.302275 -0.690758 0
M  V30 30552 H 2912.44 0.0522781 -1.83426 0
M  V30 30553 H 2910.82 2.26691 -3.24696 0
M  V30 30554 H 2912 -0.251043 -4.60116 0
M  V30 30555 H 2910.31 -0.0687308 -4.16343 0
M  V30 30556 H 2912.91 2.67301 -4.63092 0
M  V30 30557 H 2913.25 2.94691 -2.94046 0
M  V30 30558 H 2913.79 1.43292 -3.71096 0
M  V30 30559 H 2910.53 0.442083 -6.54008 0
M  V30 30560 H 2910.05 1.9237 -5.68114 0
M  V30 30561 H 2911.72 1.71636 -6.23819 0
M  V30 30562 N 2911.86 1.53252 0.36763 0
M  V30 30563 C 2913.1 1.69001 1.10829 0
M  V30 30564 C 2913.43 0.44334 1.89893 0
M  V30 30565 O 2912.7 -0.542587 1.88236 0
M  V30 30566 H 2911.28 0.623015 0.412142 0
M  V30 30567 H 2913.94 1.90436 0.414742 0
M  V30 30568 H 2913.03 2.55016 1.79925 0
M  V30 30569 N 2913.34 -0.627313 1.44577 0
M  V30 30570 C 2914.58 -1.3868 1.47561 0
M  V30 30571 C 2914.91 -1.94191 0.10967 0
M  V30 30572 O 2914.17 -1.74339 -0.889062 0
M  V30 30573 C 2914.46 -2.56727 2.48649 0
M  V30 30574 C 2914.13 -2.19482 3.93876 0
M  V30 30575 C 2912.79 -2.09037 4.33425 0
M  V30 30576 C 2915.14 -1.90116 4.85289 0
M  V30 30577 C 2912.47 -1.6742 5.62305 0
M  V30 30578 C 2914.82 -1.4999 6.14561 0
M  V30 30579 C 2913.49 -1.3809 6.5306 0
M  V30 30580 H 2912.76 -0.507465 0.539964 0
M  V30 30581 H 2915.41 -0.71099 1.77812 0
M  V30 30582 H 2913.71 -3.29557 2.11895 0
M  V30 30583 H 2915.41 -3.14955 2.48202 0
M  V30 30584 H 2912 -2.2853 3.62591 0
M  V30 30585 H 2916.18 -1.97092 4.55487 0
M  V30 30586 H 2911.44 -1.56813 5.90948 0
M  V30 30587 H 2915.61 -1.26307 6.8485 0
M  V30 30588 H 2913.24 -1.05614 7.52828 0
M  V30 30589 N 2914.81 -1.31539 -0.868063 0
M  V30 30590 C 2916.06 -1.21513 -1.62365 0
M  V30 30591 C 2916.39 0.225786 -1.92883 0
M  V30 30592 O 2915.67 1.15925 -1.56178 0
M  V30 30593 C 2915.95 -2.06134 -2.95264 0
M  V30 30594 C 2915.8 -3.58534 -2.71612 0
M  V30 30595 C 2917.12 -1.91219 -3.96388 0
M  V30 30596 H 2914.24 -0.442772 -0.58917 0
M  V30 30597 H 2916.88 -1.61348 -1.00333 0
M  V30 30598 H 2915.03 -1.7229 -3.48207 0
M  V30 30599 H 2916.71 -4.02524 -2.25327 0
M  V30 30600 H 2914.95 -3.8187 -2.05811 0
M  V30 30601 H 2915.62 -4.13053 -3.66185 0
M  V30 30602 H 2918.1 -2.2084 -3.5266 0
M  V30 30603 H 2916.97 -2.52726 -4.87258 0
M  V30 30604 H 2917.23 -0.876029 -4.33334 0
M  V30 30605 N 2916.29 1.08262 -1.1453 0
M  V30 30606 C 2917.2 2.18764 -0.847318 0
M  V30 30607 C 2918.22 1.7314 0.172795 0
M  V30 30608 O 2919.39 2.014 0.000949935 0
M  V30 30609 C 2916.46 3.45119 -0.330693 0
M  V30 30610 C 2915.52 4.05361 -1.41355 0
M  V30 30611 C 2914.75 5.25685 -0.92148 0
M  V30 30612 O 2914.98 5.6991 0.236487 0
M  V30 30613 O 2913.91 5.77361 -1.70111 0
M  V30 30614 H 2917.74 2.46728 -1.77085 0
M  V30 30615 H 2915.32 1.17424 -0.923682 0
M  V30 30616 H 2917.2 4.21372 -0.0485793 0
M  V30 30617 H 2915.88 3.18729 0.565091 0
M  V30 30618 H 2914.78 3.3069 -1.74914 0
M  V30 30619 H 2916.12 4.36003 -2.28391 0
M  V30 30620 N 2917.77 0.940655 1.26449 0
M  V30 30621 C 2919.01 0.595416 1.95536 0
M  V30 30622 C 2919.37 -0.849653 1.72177 0
M  V30 30623 O 2920.57 -1.3038 2.35063 0
M  V30 30624 C 2918.85 0.92773 3.45149 0
M  V30 30625 S 2920.4 0.692956 4.33294 0
M  V30 30626 H 2917.22 0.219322 0.676327 0
M  V30 30627 H 2919.82 1.21186 1.53409 0
M  V30 30628 H 2918.53 1.97686 3.5965 0
M  V30 30629 H 2918.06 0.30099 3.92247 0
M  V30 30630 H 2920.07 -0.443088 4.94218 0
M  V30 30631 N 2919.25 -1.40821 0.707617 0
M  V30 30632 C 2920.19 -2.30746 0.0499435 0
M  V30 30633 C 2921.16 -1.4776 -0.758692 0
M  V30 30634 O 2922.35 -1.76519 -0.724268 0
M  V30 30635 C 2919.49 -3.33909 -0.871698 0
M  V30 30636 C 2918.6 -4.31967 -0.0533896 0
M  V30 30637 C 2917.74 -5.22198 -0.973777 0
M  V30 30638 C 2916.78 -6.11918 -0.149087 0
M  V30 30639 N 2915.91 -6.94594 -1.02392 0
M  V30 30640 H 2920.75 -2.86424 0.822512 0
M  V30 30641 H 2918.29 -1.41057 0.417309 0
M  V30 30642 H 2920.25 -3.92283 -1.42021 0
M  V30 30643 H 2918.88 -2.79753 -1.61053 0
M  V30 30644 H 2917.93 -3.75441 0.612208 0
M  V30 30645 H 2919.24 -4.95352 0.585441 0
M  V30 30646 H 2918.4 -5.85465 -1.59111 0
M  V30 30647 H 2917.14 -4.59068 -1.64644 0
M  V30 30648 H 2916.14 -5.4769 0.481234 0
M  V30 30649 H 2917.37 -6.77107 0.51996 0
M  V30 30650 H 2915.31 -6.3406 -1.68238 0
M  V30 30651 H 2915.23 -7.54713 -0.440944 0
M  V30 30652 H 2916.5 -7.62317 -1.62768 0
M  V30 30653 N 2920.73 -0.453223 -1.50943 0
M  V30 30654 C 2921.68 0.368428 -2.25004 0
M  V30 30655 C 2922.66 0.976692 -1.27865 0
M  V30 30656 O 2923.85 0.892201 -1.52869 0
M  V30 30657 C 2920.98 1.46008 -3.10703 0
M  V30 30658 C 2920.07 0.860433 -4.1528 0
M  V30 30659 N 2920.46 -0.00858501 -5.05799 0
M  V30 30660 C 2918.76 1.12632 -4.31544 0
M  V30 30661 C 2919.46 -0.347053 -5.80664 0
M  V30 30662 N 2918.43 0.27333 -5.42912 0
M  V30 30663 H 2922.23 -0.301297 -2.92352 0
M  V30 30664 H 2919.75 -0.266261 -1.60202 0
M  V30 30665 H 2921.75 2.06173 -3.62351 0
M  V30 30666 H 2920.41 2.13198 -2.44901 0
M  V30 30667 H 2921.42 -0.376168 -5.16532 0
M  V30 30668 H 2918.09 1.79453 -3.76965 0
M  V30 30669 H 2919.48 -1.05518 -6.63563 0
M  V30 30670 N 2922.2 1.56509 -0.185151 0
M  V30 30671 C 2923.45 1.97294 0.456223 0
M  V30 30672 C 2923.78 1.07168 1.62313 0
M  V30 30673 O 2923.03 0.108655 1.95398 0
M  V30 30674 C 2923.33 3.44044 0.967916 0
M  V30 30675 C 2923 4.50821 -0.0845552 0
M  V30 30676 C 2921.66 4.79746 -0.373774 0
M  V30 30677 C 2924.01 5.15051 -0.79821 0
M  V30 30678 C 2921.34 5.70196 -1.3818 0
M  V30 30679 C 2923.69 6.0659 -1.79531 0
M  V30 30680 C 2922.36 6.33876 -2.09183 0
M  V30 30681 H 2921.63 0.721949 0.166944 0
M  V30 30682 H 2924.27 1.89442 -0.280026 0
M  V30 30683 H 2922.58 3.48917 1.78225 0
M  V30 30684 H 2924.28 3.7295 1.4734 0
M  V30 30685 H 2920.87 4.28334 0.151035 0
M  V30 30686 H 2925.05 4.92805 -0.58799 0
M  V30 30687 H 2920.31 5.89614 -1.61756 0
M  V30 30688 H 2924.48 6.55423 -2.35359 0
M  V30 30689 H 2922.11 7.03763 -2.87439 0
M  V30 30690 N 2923.68 -0.0885089 1.57351 0
M  V30 30691 C 2924.93 -0.789524 1.85606 0
M  V30 30692 C 2925.24 -1.79575 0.775384 0
M  V30 30693 O 2926.45 -2.54514 0.945251 0
M  V30 30694 C 2924.91 -1.455 3.29177 0
M  V30 30695 C 2924.51 -0.4882 4.45332 0
M  V30 30696 C 2926.26 -2.13936 3.66649 0
M  V30 30697 C 2924.16 -1.15864 5.79939 0
M  V30 30698 H 2923.09 -0.298607 0.692351 0
M  V30 30699 H 2925.75 -0.0425499 1.83451 0
M  V30 30700 H 2924.13 -2.24966 3.25893 0
M  V30 30701 H 2925.3 0.27544 4.59976 0
M  V30 30702 H 2923.62 0.0908095 4.16301 0
M  V30 30703 H 2926.21 -2.64842 4.64503 0
M  V30 30704 H 2926.56 -2.93127 2.95605 0
M  V30 30705 H 2927.09 -1.41322 3.71851 0
M  V30 30706 H 2923.83 -0.407393 6.54233 0
M  V30 30707 H 2923.35 -1.89354 5.69126 0
M  V30 30708 H 2925.03 -1.68325 6.24721 0
M  V30 30709 N 2925.16 -1.53445 -0.359498 0
M  V30 30710 C 2926.44 -1.60532 -1.11753 0
M  V30 30711 C 2926.82 -0.416624 -2.06948 0
M  V30 30712 O 2926.16 0.592589 -2.20682 0
M  V30 30713 C 2926.37 -2.95853 -1.85128 0
M  V30 30714 C 2927.72 -3.50645 -2.39444 0
M  V30 30715 O 2928.75 -2.97922 -1.95246 0
M  V30 30716 O 2927.61 -4.42829 -3.20258 0
M  V30 30717 H 2924.7 -0.648665 -0.512994 0
M  V30 30718 H 2927.25 -1.65788 -0.362272 0
M  V30 30719 H 2926.02 -3.73808 -1.15687 0
M  V30 30720 H 2925.64 -2.94115 -2.67548 0
M  V30 30721 N 2926.64 0.619637 -1.44908 0
M  V30 30722 C 2927.57 1.74455 -1.48655 0
M  V30 30723 C 2928.58 1.58336 -0.378623 0
M  V30 30724 O 2929.77 1.66439 -0.645016 0
M  V30 30725 C 2926.87 3.12316 -1.31574 0
M  V30 30726 C 2926.04 3.54787 -2.55822 0
M  V30 30727 C 2925.1 4.71568 -2.33473 0
M  V30 30728 O 2924.13 4.79296 -3.07024 0
M  V30 30729 N 2925.33 5.64038 -1.37264 0
M  V30 30730 H 2928.1 1.71707 -2.45635 0
M  V30 30731 H 2925.66 0.804558 -1.40494 0
M  V30 30732 H 2927.65 3.88179 -1.14452 0
M  V30 30733 H 2926.22 3.0964 -0.42915 0
M  V30 30734 H 2925.44 2.69013 -2.88142 0
M  V30 30735 H 2926.73 3.79918 -3.38438 0
M  V30 30736 H 2926.13 5.60498 -0.765407 0
M  V30 30737 H 2924.68 6.39482 -1.26117 0
M  V30 30738 N 2928.12 1.31997 0.861075 0
M  V30 30739 C 2929.05 1.22997 1.98479 0
M  V30 30740 C 2930.03 0.115198 1.69709 0
M  V30 30741 O 2931.21 0.301294 1.91849 0
M  V30 30742 C 2928.34 0.945674 3.34177 0
M  V30 30743 C 2927.3 2.02098 3.7728 0
M  V30 30744 C 2926.62 1.58921 5.10537 0
M  V30 30745 C 2927.92 3.43522 3.93433 0
M  V30 30746 H 2929.62 2.17012 2.06268 0
M  V30 30747 H 2927.16 1.04473 0.991025 0
M  V30 30748 H 2929.12 0.869279 4.12337 0
M  V30 30749 H 2927.84 -0.0301275 3.26586 0
M  V30 30750 H 2926.5 2.08742 3.01368 0
M  V30 30751 H 2926.15 0.60103 4.99396 0
M  V30 30752 H 2925.85 2.30864 5.40348 0
M  V30 30753 H 2927.37 1.52706 5.91196 0
M  V30 30754 H 2928.78 3.39503 4.61964 0
M  V30 30755 H 2927.18 4.13759 4.34653 0
M  V30 30756 H 2928.25 3.83655 2.96542 0
M  V30 30757 N 2929.59 -1.07653 1.15103 0
M  V30 30758 C 2930.83 -1.81787 0.934494 0
M  V30 30759 C 2931.2 -1.84567 -0.529068 0
M  V30 30760 O 2932.4 -2.54542 -0.863824 0
M  V30 30761 C 2930.67 -3.23079 1.52823 0
M  V30 30762 S 2932.23 -4.13997 1.45437 0
M  V30 30763 H 2929.05 -0.626389 0.33639 0
M  V30 30764 H 2931.65 -1.29345 1.46595 0
M  V30 30765 H 2930.35 -3.18643 2.58641 0
M  V30 30766 H 2929.88 -3.80596 0.995499 0
M  V30 30767 H 2931.9 -4.94199 0.445145 0
M  V30 30768 N 2931.07 -0.947348 -1.25949 0
M  V30 30769 C 2932.31 -0.605777 -1.95217 0
M  V30 30770 C 2932.68 0.84051 -1.72625 0
M  V30 30771 O 2933.88 1.29132 -2.35751 0
M  V30 30772 C 2932.15 -0.946021 -3.44652 0
M  V30 30773 S 2933.71 -0.715925 -4.3292 0
M  V30 30774 H 2930.53 -0.222906 -0.675155 0
M  V30 30775 H 2933.13 -1.21998 -1.52764 0
M  V30 30776 H 2931.83 -1.99591 -3.58597 0
M  V30 30777 H 2931.36 -0.321787 -3.92082 0
M  V30 30778 H 2933.38 0.416872 -4.94446 0
M  V30 30779 N 2932.55 1.40444 -0.715075 0
M  V30 30780 C 2933.78 2.05731 -0.262576 0
M  V30 30781 C 2934.2 1.5352 1.08688 0
M  V30 30782 O 2933.56 0.670358 1.68451 0
M  V30 30783 C 2933.61 3.59718 -0.252013 0
M  V30 30784 O 2932.71 4.05206 0.766927 0
M  V30 30785 H 2932.05 0.652431 -0.123409 0
M  V30 30786 H 2934.58 1.79852 -0.975413 0
M  V30 30787 H 2934.59 4.07902 -0.0895254 0
M  V30 30788 H 2933.27 3.97085 -1.23679 0
M  V30 30789 H 2931.84 3.68484 0.572204 0
M  V30 30790 N 2934.03 0.461222 1.507 0
M  V30 30791 C 2934.98 -0.35649 2.25196 0
M  V30 30792 C 2935.96 -0.969897 1.28381 0
M  V30 30793 O 2937.15 -0.884081 1.5334 0
M  V30 30794 C 2934.28 -1.44359 3.11473 0
M  V30 30795 C 2933.37 -0.838397 4.1573 0
M  V30 30796 N 2933.76 0.0354087 5.05788 0
M  V30 30797 C 2932.06 -1.10342 4.32135 0
M  V30 30798 C 2932.76 0.377842 5.80472 0
M  V30 30799 N 2931.74 -0.244534 5.4305 0
M  V30 30800 H 2935.54 0.316797 2.92188 0
M  V30 30801 H 2933.05 0.274753 1.60059 0
M  V30 30802 H 2935.05 -2.04248 3.6344 0
M  V30 30803 H 2933.71 -2.11896 2.46028 0
M  V30 30804 H 2934.72 0.403556 5.16325 0
M  V30 30805 H 2931.4 -1.77452 3.77912 0
M  V30 30806 H 2932.79 1.09036 6.62994 0
M  V30 30807 N 2935.51 -1.56408 0.193449 0
M  V30 30808 C 2936.46 -2.15628 -0.740852 0
M  V30 30809 C 2937.44 -1.09658 -1.17745 0
M  V30 30810 O 2938.63 -1.35725 -1.13612 0
M  V30 30811 C 2935.76 -2.81789 -1.96086 0
M  V30 30812 C 2934.85 -3.94947 -1.54524 0
M  V30 30813 N 2935.24 -4.98768 -0.840481 0
M  V30 30814 C 2933.54 -4.06517 -1.83466 0
M  V30 30815 C 2934.24 -5.78251 -0.632469 0
M  V30 30816 N 2933.21 -5.30623 -1.18069 0
M  V30 30817 H 2937.02 -2.93261 -0.193666 0
M  V30 30818 H 2934.53 -1.62399 -0.00640356 0
M  V30 30819 H 2936.53 -3.22606 -2.64066 0
M  V30 30820 H 2935.19 -2.05643 -2.51278 0
M  V30 30821 H 2936.2 -5.15518 -0.496127 0
M  V30 30822 H 2932.87 -3.41498 -2.40178 0
M  V30 30823 H 2934.26 -6.7186 -0.0735252 0
M  V30 30824 N 2936.98 0.0801629 -1.57396 0
M  V30 30825 C 2937.91 1.09662 -2.06147 0
M  V30 30826 C 2938.9 1.40877 -0.953298 0
M  V30 30827 O 2940.08 1.50649 -1.2255 0
M  V30 30828 C 2937.21 2.4124 -2.49841 0
M  V30 30829 C 2936.16 2.24398 -3.64458 0
M  V30 30830 C 2935.49 3.61286 -3.94178 0
M  V30 30831 C 2936.79 1.67214 -4.9481 0
M  V30 30832 H 2938.48 0.690977 -2.91317 0
M  V30 30833 H 2936.03 0.330932 -1.40146 0
M  V30 30834 H 2937.98 3.12633 -2.82557 0
M  V30 30835 H 2936.71 2.83768 -1.61688 0
M  V30 30836 H 2935.37 1.55448 -3.32011 0
M  V30 30837 H 2935.01 4.01369 -3.0317 0
M  V30 30838 H 2934.71 3.50859 -4.71351 0
M  V30 30839 H 2936.24 4.34123 -4.29383 0
M  V30 30840 H 2937.65 2.28463 -5.25811 0
M  V30 30841 H 2936.05 1.67505 -5.76248 0
M  V30 30842 H 2937.12 0.632859 -4.80752 0
M  V30 30843 N 2938.46 1.53634 0.351355 0
M  V30 30844 C 2939.69 1.74178 1.1111 0
M  V30 30845 C 2940.1 0.477186 1.83084 0
M  V30 30846 O 2939.44 -0.560452 1.74942 0
M  V30 30847 C 2939.51 2.86229 2.17516 0
M  V30 30848 C 2939.17 4.26102 1.65186 0
M  V30 30849 C 2940.17 5.07949 1.10833 0
M  V30 30850 C 2937.85 4.72561 1.70269 0
M  V30 30851 C 2939.85 6.34352 0.622577 0
M  V30 30852 C 2937.53 5.98939 1.21305 0
M  V30 30853 C 2938.53 6.79667 0.673914 0
M  V30 30854 O 2938.22 8.03672 0.191555 0
M  V30 30855 H 2937.95 0.585693 0.33755 0
M  V30 30856 H 2940.5 2.01231 0.411751 0
M  V30 30857 H 2938.73 2.54683 2.90987 0
M  V30 30858 H 2940.42 2.94817 2.78994 0
M  V30 30859 H 2941.19 4.73222 1.06234 0
M  V30 30860 H 2937.07 4.09789 2.11173 0
M  V30 30861 H 2940.61 6.9731 0.201093 0
M  V30 30862 H 2936.51 6.33162 1.25602 0
M  V30 30863 H 2937.28 8.17914 0.309568 0
M  V30 30864 N 2939.94 -0.611943 1.45234 0
M  V30 30865 C 2940.87 -1.73648 1.48059 0
M  V30 30866 C 2941.85 -1.59061 0.337401 0
M  V30 30867 O 2943.04 -1.80682 0.537254 0
M  V30 30868 C 2940.16 -3.1143 1.3315 0
M  V30 30869 C 2939.21 -3.44618 2.51278 0
M  V30 30870 S 2940.04 -3.39946 4.1376 0
M  V30 30871 C 2941.2 -4.80315 4.01308 0
M  V30 30872 H 2941.43 -1.70989 2.43208 0
M  V30 30873 H 2938.96 -0.788223 1.32764 0
M  V30 30874 H 2940.92 -3.9093 1.25235 0
M  V30 30875 H 2939.58 -3.11609 0.394789 0
M  V30 30876 H 2938.78 -4.44927 2.36761 0
M  V30 30877 H 2938.38 -2.72624 2.56032 0
M  V30 30878 H 2940.67 -5.70014 3.66184 0
M  V30 30879 H 2941.61 -4.99888 5.01515 0
M  V30 30880 H 2942.02 -4.55791 3.33038 0
M  V30 30881 N 2941.42 -1.32452 -0.854063 0
M  V30 30882 C 2942.7 -1.13663 -1.59186 0
M  V30 30883 C 2943.08 0.30277 -2.08917 0
M  V30 30884 O 2942.42 1.29947 -1.87952 0
M  V30 30885 C 2942.63 -2.16472 -2.73753 0
M  V30 30886 C 2943.98 -2.49835 -3.43319 0
M  V30 30887 O 2945.01 -2.15022 -2.83979 0
M  V30 30888 O 2943.86 -3.09514 -4.50404 0
M  V30 30889 H 2940.96 -0.438645 -0.701084 0
M  V30 30890 H 2943.5 -1.43985 -0.898139 0
M  V30 30891 H 2942.28 -3.13224 -2.34535 0
M  V30 30892 H 2941.9 -1.87148 -3.50801 0
M  V30 30893 N 2942.9 1.07041 -1.15672 0
M  V30 30894 C 2943.84 2.14324 -0.856374 0
M  V30 30895 C 2944.81 1.64986 0.192022 0
M  V30 30896 O 2946 1.90709 0.0588813 0
M  V30 30897 C 2943.14 3.43266 -0.355288 0
M  V30 30898 C 2942.25 4.06379 -1.46562 0
M  V30 30899 C 2941.39 5.23167 -0.920337 0
M  V30 30900 C 2940.43 5.78247 -2.00739 0
M  V30 30901 N 2939.56 6.86361 -1.47825 0
M  V30 30902 H 2944.4 2.39356 -1.77518 0
M  V30 30903 H 2941.94 1.17447 -0.885696 0
M  V30 30904 H 2943.9 4.17174 -0.0464537 0
M  V30 30905 H 2942.53 3.18476 0.526593 0
M  V30 30906 H 2941.58 3.30093 -1.89058 0
M  V30 30907 H 2942.89 4.4332 -2.28624 0
M  V30 30908 H 2942.05 6.04071 -0.564233 0
M  V30 30909 H 2940.79 4.87651 -0.0689335 0
M  V30 30910 H 2939.79 4.95986 -2.37229 0
M  V30 30911 H 2941.02 6.15817 -2.86263 0
M  V30 30912 H 2938.96 6.52779 -0.64926 0
M  V30 30913 H 2938.88 7.22204 -2.23511 0
M  V30 30914 H 2940.15 7.70963 -1.15049 0
M  V30 30915 N 2944.38 0.954014 1.25445 0
M  V30 30916 C 2945.33 0.444452 2.23626 0
M  V30 30917 C 2946.31 -0.465966 1.54005 0
M  V30 30918 O 2947.5 -0.299119 1.74454 0
M  V30 30919 C 2944.63 -0.277115 3.4218 0
M  V30 30920 C 2943.72 0.651337 4.19069 0
M  V30 30921 N 2944.11 1.78271 4.73343 0
M  V30 30922 C 2942.41 0.459416 4.43628 0
M  V30 30923 C 2943.11 2.36233 5.31572 0
M  V30 30924 N 2942.08 1.64893 5.17988 0
M  V30 30925 H 2945.88 1.3079 2.63194 0
M  V30 30926 H 2943.4 0.811427 1.40676 0
M  V30 30927 H 2945.4 -0.659294 4.11654 0
M  V30 30928 H 2944.06 -1.13717 3.04136 0
M  V30 30929 H 2945.07 2.16458 4.70496 0
M  V30 30930 H 2941.74 -0.357812 4.15964 0
M  V30 30931 H 2943.13 3.3163 5.84355 0
M  V30 30932 N 2945.85 -1.40063 0.722513 0
M  V30 30933 C 2947.08 -2.04769 0.274475 0
M  V30 30934 C 2947.49 -1.54561 -1.09122 0
M  V30 30935 O 2946.83 -0.700179 -1.69833 0
M  V30 30936 C 2946.9 -3.59028 0.184154 0
M  V30 30937 C 2946.56 -4.32156 1.48627 0
M  V30 30938 C 2947.56 -4.5964 2.42955 0
M  V30 30939 C 2945.24 -4.70937 1.74711 0
M  V30 30940 C 2947.24 -5.24897 3.6161 0
M  V30 30941 C 2944.92 -5.35925 2.93646 0
M  V30 30942 C 2945.92 -5.62836 3.86917 0
M  V30 30943 O 2945.61 -6.2648 5.03764 0
M  V30 30944 H 2945.34 -0.665289 0.119858 0
M  V30 30945 H 2947.9 -1.8033 0.983383 0
M  V30 30946 H 2946.13 -3.82314 -0.580754 0
M  V30 30947 H 2947.81 -4.05247 -0.230235 0
M  V30 30948 H 2948.58 -4.30137 2.24069 0
M  V30 30949 H 2944.46 -4.49355 1.02963 0
M  V30 30950 H 2948 -5.45819 4.34428 0
M  V30 30951 H 2943.9 -5.64848 3.12438 0
M  V30 30952 H 2944.67 -6.44976 5.03933 0
M  V30 30953 N 2947.33 -0.469207 -1.50453 0
M  V30 30954 C 2948.56 0.084055 -2.06429 0
M  V30 30955 C 2948.97 1.34225 -1.33343 0
M  V30 30956 O 2948.31 1.79388 -0.395688 0
M  V30 30957 C 2948.37 0.439987 -3.56797 0
M  V30 30958 C 2948.04 -0.715918 -4.51358 0
M  V30 30959 C 2949.04 -1.5974 -4.94752 0
M  V30 30960 C 2946.72 -0.905708 -4.94067 0
M  V30 30961 C 2948.71 -2.6531 -5.7956 0
M  V30 30962 C 2946.4 -1.96463 -5.78658 0
M  V30 30963 C 2947.4 -2.83669 -6.21306 0
M  V30 30964 O 2947.09 -3.87739 -7.04211 0
M  V30 30965 H 2946.82 -0.00290939 -0.675994 0
M  V30 30966 H 2949.37 -0.656452 -1.94628 0
M  V30 30967 H 2947.6 1.23365 -3.66494 0
M  V30 30968 H 2949.29 0.928112 -3.95147 0
M  V30 30969 H 2950.06 -1.46245 -4.62425 0
M  V30 30970 H 2945.94 -0.236407 -4.60393 0
M  V30 30971 H 2949.48 -3.33408 -6.12768 0
M  V30 30972 H 2945.38 -2.09966 -6.10397 0
M  V30 30973 H 2946.15 -3.84704 -7.22457 0
M  V30 30974 N 2948.81 1.56303 -0.201741 0
M  V30 30975 C 2950.06 1.9806 0.435917 0
M  V30 30976 C 2950.39 1.08876 1.60809 0
M  V30 30977 O 2949.66 0.142163 1.9398 0
M  V30 30978 C 2949.95 3.48937 0.889645 0
M  V30 30979 C 2949.8 4.48897 -0.284803 0
M  V30 30980 C 2951.12 4.03688 1.75283 0
M  V30 30981 H 2948.24 0.720088 0.156978 0
M  V30 30982 H 2950.88 1.87712 -0.293998 0
M  V30 30983 H 2949.03 3.57887 1.5116 0
M  V30 30984 H 2950.7 4.5198 -0.92261 0
M  V30 30985 H 2948.94 4.23593 -0.935501 0
M  V30 30986 H 2949.62 5.51949 0.0752895 0
M  V30 30987 H 2952.09 3.9756 1.22823 0
M  V30 30988 H 2950.97 5.09614 2.03924 0
M  V30 30989 H 2951.23 3.49353 2.70933 0
M  V30 30990 N 2950.29 -0.0718147 1.57436 0
M  V30 30991 C 2951.53 -0.772116 1.87527 0
M  V30 30992 C 2951.87 -1.77226 0.794021 0
M  V30 30993 O 2951.14 -1.93513 -0.195699 0
M  V30 30994 C 2951.42 -1.48012 3.28275 0
M  V30 30995 C 2951.28 -0.496391 4.47053 0
M  V30 30996 C 2952.6 -2.42503 3.67261 0
M  V30 30997 H 2949.72 -0.279233 0.682054 0
M  V30 30998 H 2952.36 -0.0353066 1.89967 0
M  V30 30999 H 2950.51 -2.10818 3.26325 0
M  V30 31000 H 2952.18 0.126456 4.61127 0
M  V30 31001 H 2950.42 0.188282 4.33391 0
M  V30 31002 H 2951.09 -1.0294 5.42317 0
M  V30 31003 H 2953.57 -1.89774 3.70304 0
M  V30 31004 H 2952.45 -2.89045 4.66631 0
M  V30 31005 H 2952.71 -3.27307 2.97192 0
M  V30 31006 N 2951.77 -1.53818 -0.343203 0
M  V30 31007 C 2953.01 -1.70743 -1.08127 0
M  V30 31008 C 2953.33 -0.473494 -1.89164 0
M  V30 31009 O 2952.6 0.512571 -1.89075 0
M  V30 31010 H 2951.18 -0.629493 -0.402178 0
M  V30 31011 H 2953.85 -1.91072 -0.384393 0
M  V30 31012 H 2952.94 -2.57847 -1.75845 0
M  V30 31013 N 2953.24 0.604233 -1.45557 0
M  V30 31014 C 2954.49 1.36045 -1.49453 0
M  V30 31015 C 2954.81 1.94504 -0.138967 0
M  V30 31016 O 2954.08 1.77351 0.832065 0
M  V30 31017 H 2952.66 0.505055 -0.55039 0
M  V30 31018 H 2955.32 0.709276 -1.81536 0
M  V30 31019 H 2954.42 2.17817 -2.23522 0
M  V30 31020 N 2954.72 1.32903 0.847027 0
M  V30 31021 C 2955.65 1.16813 1.96036 0
M  V30 31022 C 2956.63 0.065643 1.62467 0
M  V30 31023 O 2957.82 0.226372 1.87136 0
M  V30 31024 C 2954.94 0.789897 3.2936 0
M  V30 31025 C 2953.99 1.89872 3.81904 0
M  V30 31026 S 2954.82 3.50833 4.04569 0
M  V30 31027 C 2955.98 3.14998 5.40858 0
M  V30 31028 H 2956.21 2.11059 2.09384 0
M  V30 31029 H 2953.74 1.17651 0.999876 0
M  V30 31030 H 2955.7 0.578441 4.06404 0
M  V30 31031 H 2954.36 -0.133823 3.13815 0
M  V30 31032 H 2953.56 1.58724 4.78354 0
M  V30 31033 H 2953.16 2.06642 3.11729 0
M  V30 31034 H 2955.45 2.65316 6.23389 0
M  V30 31035 H 2956.39 4.10498 5.76972 0
M  V30 31036 H 2956.8 2.51813 5.05223 0
M  V30 31037 N 2956.2 -1.06426 1.16238 0
M  V30 31038 C 2957.61 -1.60666 0.950971 0
M  V30 31039 C 2957.96 -1.89577 -0.505457 0
M  V30 31040 O 2957.09 -1.6682 -1.3784 0
M  V30 31041 C 2957.68 -2.91901 1.71987 0
M  V30 31042 C 2956.24 -3.42847 1.55348 0
M  V30 31043 C 2955.39 -2.1676 1.72946 0
M  V30 31044 H 2958.34 -0.893936 1.31128 0
M  V30 31045 H 2958.36 -3.61251 1.1949 0
M  V30 31046 H 2957.87 -2.70826 2.77983 0
M  V30 31047 H 2955.97 -3.68984 0.517865 0
M  V30 31048 H 2956.09 -4.18263 2.33651 0
M  V30 31049 H 2954.45 -2.26916 1.15677 0
M  V30 31050 H 2955.23 -1.9817 2.80327 0
M  V30 31051 N 2957.68 -0.960653 -1.24937 0
M  V30 31052 C 2958.9 -0.635643 -1.97419 0
M  V30 31053 C 2959.33 0.786707 -1.70858 0
M  V30 31054 O 2958.69 1.5329 -0.96809 0
M  V30 31055 C 2958.73 -0.907833 -3.48985 0
M  V30 31056 O 2957.84 0.0103328 -4.12399 0
M  V30 31057 H 2957.18 -0.241038 -0.618706 0
M  V30 31058 H 2959.71 -1.28889 -1.58899 0
M  V30 31059 H 2959.72 -0.836523 -3.99332 0
M  V30 31060 H 2958.39 -1.94446 -3.67646 0
M  V30 31061 H 2956.97 -0.113696 -3.72727 0
M  V30 31062 N 2959.16 1.39677 -0.729931 0
M  V30 31063 C 2960.4 2.00219 -0.275112 0
M  V30 31064 C 2960.73 1.58201 1.14007 0
M  V30 31065 O 2960 0.827935 1.77544 0
M  V30 31066 H 2958.58 0.740447 -0.0987258 0
M  V30 31067 H 2961.24 1.70802 -0.93876 0
M  V30 31068 H 2960.33 3.1046 -0.3195 0
M  V30 31069 N 2960.63 0.47718 1.50202 0
M  V30 31070 C 2961.87 -0.0743706 2.04265 0
M  V30 31071 C 2962.24 -1.36441 1.35085 0
M  V30 31072 O 2963.44 -1.99871 1.79735 0
M  V30 31073 C 2961.71 -0.247811 3.5654 0
M  V30 31074 S 2963.27 -0.757041 4.3222 0
M  V30 31075 H 2960.09 -0.0130766 0.71088 0
M  V30 31076 H 2962.69 0.64571 1.84529 0
M  V30 31077 H 2961.39 0.69678 4.04442 0
M  V30 31078 H 2960.92 -0.993829 3.8064 0
M  V30 31079 H 2962.94 -2.02962 4.52792 0
M  V30 31080 N 2962.11 -1.56194 0.210027 0
M  V30 31081 C 2963.34 -2.02829 -0.433028 0
M  V30 31082 C 2963.76 -1.08903 -1.53368 0
M  V30 31083 O 2963.12 -0.075145 -1.81144 0
M  V30 31084 C 2963.17 -3.47791 -0.952574 0
M  V30 31085 O 2962.27 -3.56997 -2.06463 0
M  V30 31086 H 2961.61 -0.656511 -0.0994479 0
M  V30 31087 H 2964.14 -2.01998 0.325285 0
M  V30 31088 H 2964.15 -3.87882 -1.26536 0
M  V30 31089 H 2962.83 -4.1564 -0.146934 0
M  V30 31090 H 2961.41 -3.28787 -1.75936 0
M  V30 31091 N 2963.59 0.0634645 -1.57472 0
M  V30 31092 C 2964.84 0.75953 -1.87285 0
M  V30 31093 C 2965.16 1.77691 -0.803166 0
M  V30 31094 O 2964.43 1.95185 0.167259 0
M  V30 31095 H 2963.01 0.283503 -0.691111 0
M  V30 31096 H 2965.67 0.0375748 -1.94864 0
M  V30 31097 H 2964.77 1.27057 -2.85067 0
M  V30 31098 N 2965.07 1.53998 0.33504 0
M  V30 31099 C 2966.3 1.75602 1.09415 0
M  V30 31100 C 2966.71 0.49917 1.82082 0
M  V30 31101 O 2966.07 -0.529601 1.74647 0
M  V30 31102 C 2966.12 2.9417 2.1011 0
M  V30 31103 O 2965.84 4.14994 1.40397 0
M  V30 31104 C 2967.34 3.27893 2.9833 0
M  V30 31105 H 2964.56 0.586519 0.32594 0
M  V30 31106 H 2967.11 2.0085 0.384658 0
M  V30 31107 H 2965.26 2.71228 2.76611 0
M  V30 31108 H 2965.67 4.81608 2.07734 0
M  V30 31109 H 2967.15 4.14186 3.64902 0
M  V30 31110 H 2967.63 2.44563 3.64809 0
M  V30 31111 H 2968.23 3.52872 2.37406 0
M  V30 31112 N 2966.55 -0.596505 1.45875 0
M  V30 31113 C 2967.77 -1.38643 1.54249 0
M  V30 31114 C 2968.2 -1.87241 0.179604 0
M  V30 31115 O 2967.55 -1.60781 -0.837803 0
M  V30 31116 C 2967.6 -2.55942 2.5402 0
M  V30 31117 O 2966.71 -3.56936 2.06568 0
M  V30 31118 H 2966.05 -0.413462 0.519563 0
M  V30 31119 H 2968.58 -0.724902 1.91328 0
M  V30 31120 H 2968.59 -3.03042 2.73184 0
M  V30 31121 H 2967.26 -2.19921 3.52998 0
M  V30 31122 H 2965.84 -3.1641 1.9733 0
M  V30 31123 N 2968.02 -1.3335 -0.839967 0
M  V30 31124 C 2969.27 -1.24093 -1.59009 0
M  V30 31125 C 2969.59 0.191994 -1.94655 0
M  V30 31126 O 2970.79 0.40657 -2.68439 0
M  V30 31127 C 2969.25 -2.1743 -2.86797 0
M  V30 31128 C 2968.86 -3.65886 -2.58518 0
M  V30 31129 C 2970.6 -2.17043 -3.64819 0
M  V30 31130 C 2968.51 -4.5114 -3.82396 0
M  V30 31131 H 2967.44 -0.46091 -0.596723 0
M  V30 31132 H 2970.09 -1.58407 -0.926246 0
M  V30 31133 H 2968.47 -1.76047 -3.54716 0
M  V30 31134 H 2969.64 -4.15702 -1.98817 0
M  V30 31135 H 2967.96 -3.68551 -1.93802 0
M  V30 31136 H 2970.56 -2.77968 -4.56769 0
M  V30 31137 H 2970.9 -1.1652 -3.99661 0
M  V30 31138 H 2971.43 -2.56782 -3.03822 0
M  V30 31139 H 2968.17 -5.52533 -3.52686 0
M  V30 31140 H 2967.69 -4.06067 -4.4144 0
M  V30 31141 H 2969.37 -4.64888 -4.49987 0
M  V30 31142 N 2969.5 1.05808 -1.16801 0
M  V30 31143 C 2970.75 1.78697 -0.952555 0
M  V30 31144 C 2971.08 1.8744 0.519277 0
M  V30 31145 O 2970.33 1.3659 1.40149 0
M  V30 31146 C 2970.63 3.2294 -1.53117 0
M  V30 31147 C 2970.3 3.34267 -3.02616 0
M  V30 31148 C 2968.96 3.37066 -3.43424 0
M  V30 31149 C 2971.31 3.35788 -3.98617 0
M  V30 31150 C 2968.64 3.39007 -4.78844 0
M  V30 31151 C 2970.99 3.39267 -5.33929 0
M  V30 31152 C 2969.66 3.4035 -5.74211 0
M  V30 31153 H 2968.93 0.653899 -0.348565 0
M  V30 31154 H 2971.57 1.24398 -1.45593 0
M  V30 31155 H 2969.88 3.80124 -0.949353 0
M  V30 31156 H 2971.57 3.77945 -1.34009 0
M  V30 31157 H 2968.16 3.32798 -2.70081 0
M  V30 31158 H 2972.35 3.32833 -3.68152 0
M  V30 31159 H 2967.6 3.38152 -5.09375 0
M  V30 31160 H 2971.78 3.39392 -6.081 0
M  V30 31161 H 2969.41 3.41608 -6.79123 0
M  V30 31162 N 2970.98 0.967265 1.24426 0
M  V30 31163 C 2971.93 0.488967 2.27402 0
M  V30 31164 C 2972.92 -0.447274 1.63389 0
M  V30 31165 O 2974.13 -0.322611 1.77085 0
M  V30 31166 H 2970.5 0.139656 0.738918 0
M  V30 31167 H 2972.47 1.36947 2.65119 0
M  V30 31168 C 2971.22 -0.205726 3.47091 0
M  V30 31169 H 2970.55 0.50558 3.9659 0
M  V30 31170 H 2971.99 -0.504222 4.20991 0
M  V30 31171 C 2970.45 -1.43256 3.04925 0
M  V30 31172 O 2970.98 -2.52962 3.12047 0
M  V30 31173 N 2969.18 -1.29845 2.59978 0
M  V30 31174 H 2968.73 -0.405831 2.54383 0
M  V30 31175 H 2968.69 -2.12043 2.32132 0
M  V30 31176 N 2972.46 -1.39288 0.737328 0
M  V30 31177 C 2973.68 -2.05287 0.295273 0
M  V30 31178 C 2974.11 -1.5523 -1.06232 0
M  V30 31179 O 2973.47 -0.697072 -1.67364 0
M  V30 31180 C 2973.52 -3.59272 0.30921 0
M  V30 31181 O 2972.62 -4.06375 -0.702365 0
M  V30 31182 H 2971.96 -0.650385 0.133773 0
M  V30 31183 H 2974.49 -1.78278 1.0039 0
M  V30 31184 H 2974.5 -4.07708 0.154408 0
M  V30 31185 H 2973.18 -3.95067 1.29981 0
M  V30 31186 H 2971.75 -3.69347 -0.513509 0
M  V30 31187 N 2973.94 -0.485139 -1.49947 0
M  V30 31188 C 2974.87 0.347988 -2.25531 0
M  V30 31189 C 2975.85 0.984149 -1.29434 0
M  V30 31190 O 2977.03 1.01735 -1.58689 0
M  V30 31191 C 2974.16 1.48873 -3.04228 0
M  V30 31192 C 2973.21 0.968543 -4.15357 0
M  V30 31193 S 2974.04 -0.128028 -5.35347 0
M  V30 31194 C 2975.19 1.01626 -6.17595 0
M  V30 31195 H 2975.43 -0.293581 -2.95847 0
M  V30 31196 H 2972.96 -0.270207 -1.52017 0
M  V30 31197 H 2974.92 2.14244 -3.50157 0
M  V30 31198 H 2973.58 2.10186 -2.33411 0
M  V30 31199 H 2972.77 1.82296 -4.69877 0
M  V30 31200 H 2972.37 0.392312 -3.71937 0
M  V30 31201 H 2974.67 1.92492 -6.49579 0
M  V30 31202 H 2975.61 0.510025 -7.06261 0
M  V30 31203 H 2976.02 1.27643 -5.4988 0
M  V30 31204 N 2975.42 1.56081 -0.218307 0
M  V30 31205 C 2976.66 1.97393 0.414609 0
M  V30 31206 C 2976.98 1.1089 1.6113 0
M  V30 31207 O 2978.18 1.42086 2.31352 0
M  V30 31208 C 2976.64 3.51144 0.789037 0
M  V30 31209 C 2976.25 4.46346 -0.384657 0
M  V30 31210 C 2977.99 4.01176 1.38774 0
M  V30 31211 C 2975.9 5.91399 0.0120248 0
M  V30 31212 H 2974.83 0.737114 0.158678 0
M  V30 31213 H 2977.48 1.80793 -0.314006 0
M  V30 31214 H 2975.86 3.63332 1.57498 0
M  V30 31215 H 2977.04 4.45903 -1.1622 0
M  V30 31216 H 2975.35 4.06637 -0.896378 0
M  V30 31217 H 2977.95 5.07044 1.69738 0
M  V30 31218 H 2978.29 3.46837 2.30239 0
M  V30 31219 H 2978.82 3.92197 0.665295 0
M  V30 31220 H 2975.56 6.49714 -0.869031 0
M  V30 31221 H 2975.08 5.95043 0.753948 0
M  V30 31222 H 2976.76 6.45503 0.439836 0
M  V30 31223 N 2976.89 -0.0551124 1.57504 0
M  V30 31224 C 2977.84 -1.08229 2.05886 0
M  V30 31225 C 2978.84 -1.3906 0.967407 0
M  V30 31226 O 2980.04 -1.3827 1.15244 0
M  V30 31227 H 2976.42 -0.366438 0.656679 0
M  V30 31228 H 2978.39 -0.648218 2.91274 0
M  V30 31229 C 2977.14 -2.38269 2.53226 0
M  V30 31230 H 2976.46 -2.154 3.36813 0
M  V30 31231 H 2977.9 -3.08549 2.90815 0
M  V30 31232 C 2976.36 -3.05408 1.42223 0
M  V30 31233 O 2976.89 -3.94178 0.773707 0
M  V30 31234 N 2975.09 -2.66304 1.16321 0
M  V30 31235 H 2974.64 -1.94204 1.69241 0
M  V30 31236 H 2974.6 -3.11547 0.422589 0
M  V30 31237 N 2978.37 -1.54173 -0.326869 0
M  V30 31238 C 2979.32 -1.84048 -1.42229 0
M  V30 31239 C 2980.31 -0.712142 -1.53704 0
M  V30 31240 O 2981.52 -0.895752 -1.56129 0
M  V30 31241 H 2977.89 -0.583351 -0.474558 0
M  V30 31242 H 2979.87 -2.7566 -1.14254 0
M  V30 31243 C 2978.61 -2.08168 -2.78499 0
M  V30 31244 H 2977.94 -2.94451 -2.70441 0
M  V30 31245 H 2979.38 -2.33027 -3.54224 0
M  V30 31246 C 2977.84 -0.87221 -3.25414 0
M  V30 31247 O 2978.37 -0.0798354 -4.01621 0
M  V30 31248 N 2976.57 -0.684766 -2.82417 0
M  V30 31249 H 2976.12 -1.33076 -2.20564 0
M  V30 31250 H 2976.08 0.122975 -3.14159 0
M  V30 31251 N 2979.85 0.58876 -1.4619 0
M  V30 31252 C 2980.78 1.7086 -1.59151 0
M  V30 31253 C 2981.76 1.64254 -0.442112 0
M  V30 31254 O 2982.95 1.82364 -0.667608 0
M  V30 31255 C 2980.08 3.09495 -1.57576 0
M  V30 31256 C 2979.03 3.30928 -2.71424 0
M  V30 31257 C 2978.36 4.70028 -2.54908 0
M  V30 31258 C 2979.66 3.19349 -4.13296 0
M  V30 31259 H 2981.35 1.60269 -2.52892 0
M  V30 31260 H 2978.9 0.769617 -1.21708 0
M  V30 31261 H 2980.85 3.87652 -1.65238 0
M  V30 31262 H 2979.57 3.20971 -0.603761 0
M  V30 31263 H 2978.23 2.55167 -2.63221 0
M  V30 31264 H 2977.88 4.78261 -1.55805 0
M  V30 31265 H 2977.58 4.85321 -3.31266 0
M  V30 31266 H 2979.1 5.50361 -2.64452 0
M  V30 31267 H 2980.52 3.87358 -4.22643 0
M  V30 31268 H 2978.91 3.46166 -4.90193 0
M  V30 31269 H 2979.98 2.16514 -4.33877 0
M  V30 31270 N 2981.33 1.33794 0.832883 0
M  V30 31271 C 2982.58 1.24935 1.58348 0
M  V30 31272 C 2982.89 -0.181669 1.94755 0
M  V30 31273 O 2984.1 -0.392328 2.6865 0
M  V30 31274 C 2982.55 2.18948 2.8564 0
M  V30 31275 C 2982.16 3.67252 2.56574 0
M  V30 31276 C 2983.9 2.18974 3.63663 0
M  V30 31277 C 2981.81 4.53162 3.79998 0
M  V30 31278 H 2980.74 0.464068 0.59427 0
M  V30 31279 H 2983.39 1.58896 0.917832 0
M  V30 31280 H 2981.77 1.77925 3.53778 0
M  V30 31281 H 2982.95 4.16751 1.9661 0
M  V30 31282 H 2981.26 3.69574 1.91844 0
M  V30 31283 H 2983.86 2.80387 4.55288 0
M  V30 31284 H 2984.2 1.18638 3.99037 0
M  V30 31285 H 2984.74 2.5839 3.02456 0
M  V30 31286 H 2981.47 5.54396 3.49751 0
M  V30 31287 H 2980.99 4.08403 4.3928 0
M  V30 31288 H 2982.67 4.67268 4.47515 0
M  V30 31289 N 2982.81 -1.05187 1.1736 0
M  V30 31290 C 2984.05 -1.77581 0.956443 0
M  V30 31291 C 2984.37 -1.88672 -0.515985 0
M  V30 31292 O 2985.57 -2.57806 -0.851355 0
M  V30 31293 C 2984.03 -3.19222 1.66209 0
M  V30 31294 C 2983.64 -3.16262 3.17305 0
M  V30 31295 C 2985.38 -3.96072 1.52732 0
M  V30 31296 C 2983.29 -4.52691 3.80558 0
M  V30 31297 H 2982.22 -0.665618 0.354216 0
M  V30 31298 H 2984.87 -1.17898 1.40614 0
M  V30 31299 H 2983.25 -3.79232 1.14013 0
M  V30 31300 H 2984.43 -2.65769 3.76435 0
M  V30 31301 H 2982.74 -2.52911 3.30795 0
M  V30 31302 H 2985.34 -4.96944 1.9736 0
M  V30 31303 H 2985.68 -4.13548 0.477875 0
M  V30 31304 H 2986.21 -3.42611 2.02145 0
M  V30 31305 H 2982.95 -4.40421 4.85499 0
M  V30 31306 H 2982.47 -5.03333 3.26215 0
M  V30 31307 H 2984.15 -5.21631 3.82767 0
M  V30 31308 N 2984.28 -0.97385 -1.23911 0
M  V30 31309 C 2985.7 -0.681389 -1.44323 0
M  V30 31310 C 2985.9 0.754695 -1.86833 0
M  V30 31311 O 2984.96 1.52789 -2.01027 0
M  V30 31312 C 2986.27 -1.67073 -2.50014 0
M  V30 31313 C 2987.82 -1.68404 -2.63835 0
M  V30 31314 C 2988.29 -2.66152 -3.72729 0
M  V30 31315 N 2989.78 -2.64631 -3.80164 0
M  V30 31316 C 2990.52 -3.36935 -4.63964 0
M  V30 31317 N 2990.01 -4.18777 -5.51904 0
M  V30 31318 N 2991.81 -3.25731 -4.581 0
M  V30 31319 H 2983.96 -1.90161 -0.946171 0
M  V30 31320 H 2986.22 -0.819043 -0.477359 0
M  V30 31321 H 2985.93 -2.69742 -2.25681 0
M  V30 31322 H 2985.8 -1.44837 -3.48285 0
M  V30 31323 H 2988.19 -0.664429 -2.87523 0
M  V30 31324 H 2988.27 -1.94705 -1.65902 0
M  V30 31325 H 2987.91 -3.68251 -3.49791 0
M  V30 31326 H 2987.84 -2.37128 -4.70189 0
M  V30 31327 H 2990.33 -2.0523 -3.17315 0
M  V30 31328 H 2990.65 -4.7082 -6.1282 0
M  V30 31329 H 2988.99 -4.2287 -5.51549 0
M  V30 31330 H 2992.18 -2.61249 -3.88415 0
M  V30 31331 H 2992.36 -3.82342 -5.23181 0
M  V30 31332 N 2985.76 1.38895 -0.744705 0
M  V30 31333 C 2986.99 2.04603 -0.307463 0
M  V30 31334 C 2987.4 1.56159 1.06112 0
M  V30 31335 O 2986.76 0.730731 1.67232 0
M  V30 31336 C 2986.81 3.60159 -0.311074 0
M  V30 31337 O 2986.53 4.06822 -1.62564 0
M  V30 31338 C 2988.03 4.43075 0.141135 0
M  V30 31339 H 2985.25 0.657737 -0.132753 0
M  V30 31340 H 2987.8 1.77757 -1.01107 0
M  V30 31341 H 2985.95 3.85872 0.343724 0
M  V30 31342 H 2986.37 5.01204 -1.54578 0
M  V30 31343 H 2987.84 5.51931 0.0874479 0
M  V30 31344 H 2988.32 4.22835 1.18774 0
M  V30 31345 H 2988.92 4.22532 -0.484457 0
M  V30 31346 N 2987.24 0.493084 1.49688 0
M  V30 31347 C 2988.17 -0.279033 2.31827 0
M  V30 31348 C 2989.15 -0.969962 1.39735 0
M  V30 31349 O 2990.34 -0.962895 1.68647 0
M  V30 31350 C 2987.47 -1.34857 3.20048 0
M  V30 31351 C 2986.42 -0.777976 4.2087 0
M  V30 31352 C 2985.75 -1.94744 4.97975 0
M  V30 31353 C 2987.05 0.225635 5.21812 0
M  V30 31354 H 2988.74 0.406564 2.96627 0
M  V30 31355 H 2986.29 0.196968 1.42647 0
M  V30 31356 H 2988.24 -1.89638 3.76318 0
M  V30 31357 H 2986.96 -2.06324 2.53176 0
M  V30 31358 H 2985.62 -0.251972 3.65733 0
M  V30 31359 H 2985.27 -2.64961 4.27557 0
M  V30 31360 H 2984.97 -1.57177 5.66188 0
M  V30 31361 H 2986.49 -2.49974 5.57086 0
M  V30 31362 H 2987.91 -0.233763 5.72823 0
M  V30 31363 H 2986.31 0.516727 5.97871 0
M  V30 31364 H 2987.38 1.1442 4.71207 0
M  V30 31365 N 2988.72 -1.55963 0.226582 0
M  V30 31366 C 2989.96 -1.98728 -0.404352 0
M  V30 31367 C 2990.3 -1.11421 -1.59057 0
M  V30 31368 O 2989.57 -0.173005 -1.93729 0
M  V30 31369 C 2989.86 -3.50309 -0.834019 0
M  V30 31370 C 2989.71 -4.48388 0.356183 0
M  V30 31371 C 2991.03 -4.06426 -1.68838 0
M  V30 31372 H 2988.15 -0.722494 -0.145502 0
M  V30 31373 H 2990.79 -1.8722 0.323824 0
M  V30 31374 H 2988.94 -3.60246 -1.45447 0
M  V30 31375 H 2990.61 -4.50455 0.994399 0
M  V30 31376 H 2988.85 -4.22051 1.00277 0
M  V30 31377 H 2989.52 -5.51999 0.0125303 0
M  V30 31378 H 2992 -3.99463 -1.16482 0
M  V30 31379 H 2990.88 -5.12793 -1.95791 0
M  V30 31380 H 2991.14 -3.53619 -2.65341 0
M  V30 31381 N 2990.2 0.0467589 -1.57531 0
M  V30 31382 C 2991.13 1.05264 -2.08427 0
M  V30 31383 C 2992.11 1.38823 -0.982966 0
M  V30 31384 O 2993.29 1.48015 -1.25718 0
M  V30 31385 C 2990.42 2.35887 -2.54902 0
M  V30 31386 C 2989.38 2.16617 -3.69136 0
M  V30 31387 C 2988.7 3.52844 -4.01753 0
M  V30 31388 C 2990 1.56681 -4.98245 0
M  V30 31389 H 2991.7 0.629029 -2.92718 0
M  V30 31390 H 2989.24 0.301131 -1.40816 0
M  V30 31391 H 2991.2 3.06569 -2.89125 0
M  V30 31392 H 2989.92 2.80275 -1.67671 0
M  V30 31393 H 2988.58 1.48371 -3.35234 0
M  V30 31394 H 2988.23 3.94848 -3.11615 0
M  V30 31395 H 2987.93 3.40782 -4.78687 0
M  V30 31396 H 2989.45 4.24917 -4.38495 0
M  V30 31397 H 2990.86 2.17259 -5.30539 0
M  V30 31398 H 2989.26 1.55244 -5.79672 0
M  V30 31399 H 2990.33 0.530742 -4.81987 0
M  V30 31400 N 2991.67 1.54344 0.318688 0
M  V30 31401 C 2992.9 1.76752 1.07547 0
M  V30 31402 C 2993.32 0.518454 1.81542 0
M  V30 31403 O 2992.67 -0.511047 1.75199 0
M  V30 31404 C 2992.73 2.96382 2.06978 0
M  V30 31405 O 2992.45 4.1646 1.35988 0
M  V30 31406 C 2993.95 3.31039 2.94835 0
M  V30 31407 H 2991.17 0.589943 0.319701 0
M  V30 31408 H 2993.71 2.01246 0.363333 0
M  V30 31409 H 2991.87 2.74147 2.73719 0
M  V30 31410 H 2992.28 4.83785 2.02615 0
M  V30 31411 H 2993.75 4.18033 3.60489 0
M  V30 31412 H 2994.23 2.48418 3.62195 0
M  V30 31413 H 2994.84 3.5537 2.3365 0
M  V30 31414 N 2993.15 -0.580999 1.465 0
M  V30 31415 C 2994.4 -1.34113 1.52123 0
M  V30 31416 C 2994.73 -1.93427 0.173065 0
M  V30 31417 O 2994.01 -1.76569 -0.815698 0
M  V30 31418 C 2994.29 -2.4692 2.62112 0
M  V30 31419 C 2994.14 -1.92629 4.06465 0
M  V30 31420 C 2995.46 -3.48957 2.68173 0
M  V30 31421 H 2992.58 -0.486277 0.553808 0
M  V30 31422 H 2995.22 -0.652507 1.78444 0
M  V30 31423 H 2993.37 -3.05661 2.39799 0
M  V30 31424 H 2995.04 -1.38332 4.4007 0
M  V30 31425 H 2993.29 -1.23448 4.15864 0
M  V30 31426 H 2993.96 -2.74068 4.79157 0
M  V30 31427 H 2996.43 -3.00099 2.88235 0
M  V30 31428 H 2995.31 -4.25344 3.46949 0
M  V30 31429 H 2995.57 -4.06294 1.74291 0
M  V30 31430 N 2994.63 -1.34234 -0.825776 0
M  V30 31431 C 2995.86 -1.29312 -1.61127 0
M  V30 31432 C 2996.27 0.135556 -1.88714 0
M  V30 31433 O 2995.61 1.09219 -1.47705 0
M  V30 31434 C 2995.67 -2.01292 -2.97862 0
M  V30 31435 C 2995.34 -3.5056 -2.93184 0
M  V30 31436 C 2996.33 -4.4552 -2.6797 0
M  V30 31437 C 2994.02 -3.92931 -3.12906 0
M  V30 31438 C 2996.01 -5.80826 -2.62526 0
M  V30 31439 C 2993.7 -5.28338 -3.07087 0
M  V30 31440 C 2994.7 -6.22097 -2.81929 0
M  V30 31441 O 2994.39 -7.55023 -2.76037 0
M  V30 31442 H 2994.12 -0.4464 -0.507645 0
M  V30 31443 H 2996.67 -1.77376 -1.03571 0
M  V30 31444 H 2994.9 -1.47838 -3.57324 0
M  V30 31445 H 2996.59 -1.89698 -3.58845 0
M  V30 31446 H 2997.36 -4.14106 -2.52471 0
M  V30 31447 H 2993.24 -3.20352 -3.31505 0
M  V30 31448 H 2996.78 -6.5398 -2.42809 0
M  V30 31449 H 2992.68 -5.59372 -3.22138 0
M  V30 31450 H 2993.45 -7.64725 -2.91784 0
M  V30 31451 N 2996.11 1.04563 -1.17917 0
M  V30 31452 C 2997.06 2.1246 -0.901642 0
M  V30 31453 C 2998.03 1.65357 0.156982 0
M  V30 31454 O 2999.21 1.90791 0.0184158 0
M  V30 31455 C 2996.35 3.42435 -0.42802 0
M  V30 31456 C 2995.46 4.03178 -1.55149 0
M  V30 31457 C 2994.6 5.21097 -1.0311 0
M  V30 31458 C 2993.64 5.73859 -2.1296 0
M  V30 31459 N 2992.77 6.83071 -1.62351 0
M  V30 31460 H 2997.61 2.35537 -1.82555 0
M  V30 31461 H 2995.15 1.15542 -0.910409 0
M  V30 31462 H 2997.11 4.16982 -0.134932 0
M  V30 31463 H 2995.74 3.19521 0.458921 0
M  V30 31464 H 2994.79 3.26008 -1.96017 0
M  V30 31465 H 2996.1 4.38371 -2.37976 0
M  V30 31466 H 2995.26 6.02738 -0.692238 0
M  V30 31467 H 2994 4.87395 -0.172356 0
M  V30 31468 H 2993 4.90843 -2.47696 0
M  V30 31469 H 2994.23 6.09606 -2.99261 0
M  V30 31470 H 2992.17 6.51255 -0.787578 0
M  V30 31471 H 2992.09 7.17301 -2.38779 0
M  V30 31472 H 2993.36 7.68349 -1.31377 0
M  V30 31473 N 2997.59 0.980408 1.23393 0
M  V30 31474 C 2998.53 0.513058 2.26871 0
M  V30 31475 C 2999.53 -0.429919 1.63854 0
M  V30 31476 O 3000.73 -0.303811 1.77418 0
M  V30 31477 H 2997.11 0.147486 0.737395 0
M  V30 31478 H 2999.08 1.39751 2.63652 0
M  V30 31479 C 2997.83 -0.168901 3.4729 0
M  V30 31480 H 2997.15 0.547615 3.96032 0
M  V30 31481 H 2998.59 -0.459541 4.21502 0
M  V30 31482 C 2997.05 -1.40014 3.06427 0
M  V30 31483 O 2997.58 -2.49638 3.14713 0
M  V30 31484 N 2995.79 -1.2708 2.61341 0
M  V30 31485 H 2995.33 -0.378828 2.54799 0
M  V30 31486 H 2995.29 -2.09569 2.34368 0
M  V30 31487 N 2999.06 -1.38498 0.75206 0
M  V30 31488 C 3000.31 -1.99391 0.304329 0
M  V30 31489 C 3000.63 -1.60375 -1.11979 0
M  V30 31490 O 3001.83 -2.14226 -1.66791 0
M  V30 31491 C 3000.29 -3.56505 0.493164 0
M  V30 31492 C 2999.9 -4.04474 1.92627 0
M  V30 31493 C 3001.64 -4.24362 0.108069 0
M  V30 31494 C 2999.55 -5.54223 2.06375 0
M  V30 31495 H 2998.48 -0.745928 0.110037 0
M  V30 31496 H 3001.13 -1.58282 0.928383 0
M  V30 31497 H 2999.51 -3.95494 -0.200051 0
M  V30 31498 H 3000.68 -3.76778 2.65283 0
M  V30 31499 H 2999 -3.49335 2.26614 0
M  V30 31500 H 3001.6 -5.34364 0.189568 0
M  V30 31501 H 3001.94 -4.0557 -0.939094 0
M  V30 31502 H 3002.47 -3.90607 0.75308 0
M  V30 31503 H 2999.21 -5.77918 3.0934 0
M  V30 31504 H 2998.73 -5.83667 1.38178 0
M  V30 31505 H 3000.41 -6.19899 1.85297 0
M  V30 31506 N 3000.54 -0.501015 -1.49424 0
M  V30 31507 C 3001.82 0.106516 -1.9531 0
M  V30 31508 C 3002.2 1.54126 -1.44251 0
M  V30 31509 O 3001.55 2.18873 -0.656276 0
M  V30 31510 C 3001.76 0.0191358 -3.48995 0
M  V30 31511 C 3003.11 0.193055 -4.24161 0
M  V30 31512 O 3004.13 0.0943217 -3.56075 0
M  V30 31513 O 3002.99 0.395773 -5.45065 0
M  V30 31514 H 3000.08 0.0952924 -0.821492 0
M  V30 31515 H 3002.63 -0.563554 -1.60069 0
M  V30 31516 H 3001.4 -0.98142 -3.78793 0
M  V30 31517 H 3001.02 0.729351 -3.90853 0
M  V30 31518 N 3002.02 1.5584 -0.234849 0
M  V30 31519 C 3002.95 2.23855 0.664177 0
M  V30 31520 C 3003.93 1.21472 1.19074 0
M  V30 31521 O 3005.12 1.50094 1.2323 0
M  V30 31522 C 3002.25 2.92874 1.86661 0
M  V30 31523 C 3001.2 4.01842 1.47334 0
M  V30 31524 C 3000.53 4.58224 2.75563 0
M  V30 31525 C 3001.83 5.18197 0.653388 0
M  V30 31526 H 3003.52 2.99243 0.0970687 0
M  V30 31527 H 3001.07 1.43929 0.0452471 0
M  V30 31528 H 3003.02 3.39151 2.5011 0
M  V30 31529 H 3001.74 2.14954 2.45891 0
M  V30 31530 H 3000.4 3.56316 0.862252 0
M  V30 31531 H 3000.05 3.7702 3.32964 0
M  V30 31532 H 2999.75 5.31775 2.49977 0
M  V30 31533 H 3001.28 5.07227 3.39931 0
M  V30 31534 H 3002.69 5.60774 1.19189 0
M  V30 31535 H 3001.09 5.98063 0.494083 0
M  V30 31536 H 3002.16 4.83727 -0.337089 0
M  V30 31537 N 3003.5 -0.038404 1.57553 0
M  V30 31538 C 3004.78 -0.765971 1.79978 0
M  V30 31539 C 3005.16 -1.9407 0.83066 0
M  V30 31540 O 3004.5 -2.28134 -0.129203 0
M  V30 31541 C 3004.71 -1.20776 3.27436 0
M  V30 31542 C 3006.06 -1.62751 3.9217 0
M  V30 31543 O 3007.09 -1.30258 3.31529 0
M  V30 31544 O 3005.95 -2.23026 4.98921 0
M  V30 31545 H 3003.04 -0.369641 0.739794 0
M  V30 31546 H 3005.59 -0.0159014 1.69693 0
M  V30 31547 H 3004.36 -0.368724 3.89559 0
M  V30 31548 H 3003.98 -2.01813 3.42575 0
M  V30 31549 N 3004.98 -1.54511 -0.310498 0
M  V30 31550 C 3006.25 -1.64006 -1.0659 0
M  V30 31551 C 3006.63 -0.482252 -2.05518 0
M  V30 31552 O 3005.98 0.522081 -2.22456 0
M  V30 31553 C 3006.19 -3.01592 -1.75622 0
M  V30 31554 C 3007.54 -3.58085 -2.28167 0
M  V30 31555 O 3008.56 -3.03983 -1.85669 0
M  V30 31556 O 3007.42 -4.52793 -3.06008 0
M  V30 31557 H 3004.52 -0.664657 -0.492097 0
M  V30 31558 H 3007.06 -1.66857 -0.309345 0
M  V30 31559 H 3005.84 -3.77299 -1.03736 0
M  V30 31560 H 3005.46 -3.02478 -2.58056 0
M  V30 31561 N 3006.46 0.573222 -1.46806 0
M  V30 31562 C 3007.39 1.69163 -1.60954 0
M  V30 31563 C 3008.37 1.63776 -0.459508 0
M  V30 31564 O 3009.55 1.81646 -0.686912 0
M  V30 31565 C 3006.68 3.07806 -1.6085 0
M  V30 31566 C 3005.64 3.2803 -2.74919 0
M  V30 31567 C 3004.96 4.67298 -2.59879 0
M  V30 31568 C 3006.26 3.14947 -4.1666 0
M  V30 31569 H 3007.96 1.57578 -2.54577 0
M  V30 31570 H 3005.5 0.756665 -1.22518 0
M  V30 31571 H 3007.45 3.85878 -1.6934 0
M  V30 31572 H 3006.18 3.20312 -0.63777 0
M  V30 31573 H 3004.84 2.52361 -2.65912 0
M  V30 31574 H 3004.49 4.76582 -1.60869 0
M  V30 31575 H 3004.19 4.8178 -3.36395 0
M  V30 31576 H 3005.71 5.47525 -2.70275 0
M  V30 31577 H 3007.12 3.82853 -4.26727 0
M  V30 31578 H 3005.52 3.40948 -4.93837 0
M  V30 31579 H 3006.59 2.119 -4.36149 0
M  V30 31580 N 3007.93 1.3467 0.818645 0
M  V30 31581 C 3008.88 1.26599 1.9298 0
M  V30 31582 C 3009.85 0.140345 1.65506 0
M  V30 31583 O 3011.04 0.322038 1.88063 0
M  V30 31584 C 3008.18 1.03169 3.29318 0
M  V30 31585 C 3007.29 2.24546 3.69057 0
M  V30 31586 C 3006.42 1.94364 4.94364 0
M  V30 31587 C 3005.46 3.1186 5.26697 0
M  V30 31588 N 3004.6 2.81534 6.43182 0
M  V30 31589 H 3009.44 2.21624 1.99216 0
M  V30 31590 H 3006.98 1.10182 0.974593 0
M  V30 31591 H 3008.93 0.876201 4.07895 0
M  V30 31592 H 3007.56 0.118102 3.22584 0
M  V30 31593 H 3006.62 2.51 2.85838 0
M  V30 31594 H 3007.93 3.12319 3.88919 0
M  V30 31595 H 3007.08 1.75576 5.80739 0
M  V30 31596 H 3005.82 1.03857 4.76514 0
M  V30 31597 H 3004.83 3.31239 4.38817 0
M  V30 31598 H 3006.05 4.03152 5.46484 0
M  V30 31599 H 3004 1.93607 6.26779 0
M  V30 31600 H 3003.91 3.6284 6.63237 0
M  V30 31601 H 3005.18 2.6626 7.32616 0
M  V30 31602 N 3009.41 -1.03936 1.1847 0
M  V30 31603 C 3010.66 -1.76557 0.975224 0
M  V30 31604 C 3010.97 -1.89208 -0.495944 0
M  V30 31605 O 3012.18 -2.58695 -0.823964 0
M  V30 31606 C 3010.64 -3.17441 1.69585 0
M  V30 31607 C 3010.24 -3.12879 3.20642 0
M  V30 31608 C 3011.99 -3.9443 1.56924 0
M  V30 31609 C 3009.89 -4.4863 3.85338 0
M  V30 31610 H 3008.82 -0.661823 0.361256 0
M  V30 31611 H 3011.48 -1.164 1.41857 0
M  V30 31612 H 3009.86 -3.78002 1.18029 0
M  V30 31613 H 3011.03 -2.61761 3.79233 0
M  V30 31614 H 3009.35 -2.49388 3.33458 0
M  V30 31615 H 3011.94 -4.94823 2.0262 0
M  V30 31616 H 3012.29 -4.13018 0.521711 0
M  V30 31617 H 3012.82 -3.40447 2.05768 0
M  V30 31618 H 3009.56 -4.35247 4.90143 0
M  V30 31619 H 3009.08 -4.99845 3.31535 0
M  V30 31620 H 3010.76 -5.17542 3.88278 0
M  V30 31621 N 3010.89 -0.986938 -1.22871 0
M  V30 31622 C 3012.14 -0.654945 -1.9077 0
M  V30 31623 C 3012.45 0.815919 -1.7777 0
M  V30 31624 O 3013.66 1.25925 -2.40531 0
M  V30 31625 C 3012.11 -1.12087 -3.42001 0
M  V30 31626 C 3011.72 -2.61654 -3.6365 0
M  V30 31627 C 3013.47 -0.862927 -4.15637 0
M  V30 31628 C 3011.37 -3.0188 -5.08549 0
M  V30 31629 H 3010.3 -0.241264 -0.714358 0
M  V30 31630 H 3012.95 -1.19571 -1.39194 0
M  V30 31631 H 3011.34 -0.508276 -3.92725 0
M  V30 31632 H 3012.51 -3.28208 -3.23444 0
M  V30 31633 H 3010.82 -2.85265 -3.03336 0
M  V30 31634 H 3013.42 -1.13924 -5.22423 0
M  V30 31635 H 3013.76 0.200963 -4.15815 0
M  V30 31636 H 3014.3 -1.43742 -3.70922 0
M  V30 31637 H 3011.04 -4.0742 -5.13507 0
M  V30 31638 H 3010.56 -2.40025 -5.4968 0
M  V30 31639 H 3012.24 -2.92849 -5.7693 0
M  V30 31640 N 3012.37 1.38098 -0.759394 0
M  V30 31641 C 3013.33 2.28749 -0.14376 0
M  V30 31642 C 3014.33 1.47458 0.641312 0
M  V30 31643 O 3015.52 1.67831 0.466721 0
M  V30 31644 C 3012.65 3.31272 0.804486 0
M  V30 31645 H 3013.85 2.84698 -0.942713 0
M  V30 31646 H 3011.4 1.47155 -0.526783 0
M  V30 31647 H 3012.13 2.80423 1.6289 0
M  V30 31648 H 3011.92 3.91341 0.24387 0
M  V30 31649 H 3013.41 3.99043 1.23104 0
M  V30 31650 N 3013.85 0.508932 1.49156 0
M  V30 31651 C 3015.08 -0.0292945 2.06579 0
M  V30 31652 C 3015.48 -1.30643 1.36855 0
M  V30 31653 O 3014.83 -1.78276 0.44311 0
M  V30 31654 C 3014.89 -0.345234 3.57838 0
M  V30 31655 C 3014.55 0.835335 4.49301 0
M  V30 31656 C 3015.55 1.72802 4.90342 0
M  V30 31657 C 3013.23 1.03638 4.91492 0
M  V30 31658 C 3015.23 2.80583 5.72322 0
M  V30 31659 C 3012.92 2.11736 5.73246 0
M  V30 31660 C 3013.91 3.00042 6.13566 0
M  V30 31661 O 3013.6 4.06274 6.93684 0
M  V30 31662 H 3013.33 0.0208312 0.675679 0
M  V30 31663 H 3015.89 0.707823 1.92819 0
M  V30 31664 H 3014.12 -1.13605 3.69636 0
M  V30 31665 H 3015.81 -0.823019 3.97468 0
M  V30 31666 H 3016.57 1.58454 4.58385 0
M  V30 31667 H 3012.45 0.358389 4.59605 0
M  V30 31668 H 3016 3.49538 6.03713 0
M  V30 31669 H 3011.89 2.26076 6.04616 0
M  V30 31670 H 3012.66 4.03724 7.12004 0
M  V30 31671 N 3015.32 -1.55714 0.243111 0
M  V30 31672 C 3016.57 -1.98458 -0.381929 0
M  V30 31673 C 3016.89 -1.1325 -1.58743 0
M  V30 31674 O 3016.16 -0.214419 -1.94723 0
M  V30 31675 H 3014.74 -0.732969 -0.144101 0
M  V30 31676 H 3017.4 -1.91893 0.341019 0
M  V30 31677 H 3016.5 -3.04294 -0.693648 0
M  V30 31678 N 3016.8 0.030048 -1.57571 0
M  V30 31679 C 3018.08 0.756415 -1.80382 0
M  V30 31680 C 3018.46 1.93627 -0.84094 0
M  V30 31681 O 3017.81 2.282 0.117103 0
M  V30 31682 C 3018.02 1.19037 -3.28072 0
M  V30 31683 C 3019.37 1.60669 -3.93028 0
M  V30 31684 O 3020.39 1.28498 -3.32215 0
M  V30 31685 O 3019.25 2.20377 -5.00096 0
M  V30 31686 H 3016.34 0.365712 -0.741744 0
M  V30 31687 H 3018.89 0.00690194 -1.69699 0
M  V30 31688 H 3017.66 0.348059 -3.89749 0
M  V30 31689 H 3017.28 1.99993 -3.4364 0
M  V30 31690 N 3018.28 1.54674 0.3023 0
M  V30 31691 C 3019.56 1.64569 1.05718 0
M  V30 31692 C 3019.94 0.493144 2.05259 0
M  V30 31693 O 3019.29 -0.510276 2.2273 0
M  V30 31694 C 3019.5 3.0252 1.7402 0
M  V30 31695 C 3020.84 3.5929 2.26265 0
M  V30 31696 O 3021.87 3.04963 1.84054 0
M  V30 31697 O 3020.73 4.5441 3.03602 0
M  V30 31698 H 3017.82 0.667258 0.488565 0
M  V30 31699 H 3020.37 1.67018 0.300492 0
M  V30 31700 H 3019.14 3.77844 1.01734 0
M  V30 31701 H 3018.76 3.03842 2.56448 0
M  V30 31702 N 3019.76 -0.565428 1.47108 0
M  V30 31703 C 3021 -1.32492 1.53537 0
M  V30 31704 C 3021.34 -1.93233 0.193571 0
M  V30 31705 O 3020.61 -1.77424 -0.796925 0
M  V30 31706 C 3020.9 -2.44126 2.64716 0
M  V30 31707 C 3020.75 -1.88307 4.08486 0
M  V30 31708 C 3022.07 -3.46093 2.71859 0
M  V30 31709 H 3019.19 -0.480376 0.558935 0
M  V30 31710 H 3021.83 -0.633544 1.79126 0
M  V30 31711 H 3019.98 -3.031 2.43028 0
M  V30 31712 H 3021.65 -1.33657 4.41513 0
M  V30 31713 H 3019.89 -1.1903 4.1715 0
M  V30 31714 H 3020.56 -2.6897 4.82036 0
M  V30 31715 H 3023.04 -2.97025 2.91402 0
M  V30 31716 H 3021.92 -4.2164 3.51441 0
M  V30 31717 H 3022.18 -4.04423 1.78591 0
M  V30 31718 N 3021.24 -1.35102 -0.811492 0
M  V30 31719 C 3022.17 -1.30278 -1.93778 0
M  V30 31720 C 3023.15 -0.178105 -1.69165 0
M  V30 31721 O 3024.33 -0.372289 -1.90598 0
M  V30 31722 C 3021.46 -1.06905 -3.30437 0
M  V30 31723 C 3020.42 -2.15961 -3.6952 0
M  V30 31724 C 3019.74 -1.7776 -5.04287 0
M  V30 31725 C 3021.04 -3.57888 -3.80413 0
M  V30 31726 H 3022.74 -2.24518 -1.98071 0
M  V30 31727 H 3020.28 -1.0808 -0.951567 0
M  V30 31728 H 3022.24 -1.02172 -4.08826 0
M  V30 31729 H 3020.96 -0.0911035 -3.26473 0
M  V30 31730 H 3019.62 -2.19783 -2.93413 0
M  V30 31731 H 3019.27 -0.785964 -4.96822 0
M  V30 31732 H 3018.97 -2.50759 -5.31407 0
M  V30 31733 H 3020.49 -1.74543 -5.85121 0
M  V30 31734 H 3021.9 -3.56415 -4.49045 0
M  V30 31735 H 3020.3 -4.29606 -4.18998 0
M  V30 31736 H 3021.37 -3.94396 -2.82098 0
M  V30 31737 N 3022.71 1.03306 -1.19019 0
M  V30 31738 C 3023.68 2.09656 -0.926113 0
M  V30 31739 C 3024.68 1.60538 0.0916795 0
M  V30 31740 O 3025.87 1.73615 -0.142605 0
M  V30 31741 C 3023 3.3865 -0.391017 0
M  V30 31742 H 3024.19 2.34517 -1.86927 0
M  V30 31743 H 3021.75 1.19851 -1.00327 0
M  V30 31744 H 3022.48 3.19457 0.55839 0
M  V30 31745 H 3022.27 3.7562 -1.1248 0
M  V30 31746 H 3023.76 4.16992 -0.225205 0
M  V30 31747 N 3024.19 0.99344 1.22346 0
M  V30 31748 C 3025.42 0.687761 1.95665 0
M  V30 31749 C 3025.84 -0.741131 1.72884 0
M  V30 31750 O 3025.2 -1.50669 1.00839 0
M  V30 31751 C 3025.25 1.00004 3.46456 0
M  V30 31752 O 3024.35 0.099011 4.12281 0
M  V30 31753 H 3023.69 0.257357 0.612098 0
M  V30 31754 H 3026.22 1.33056 1.55426 0
M  V30 31755 H 3026.23 0.942105 3.96974 0
M  V30 31756 H 3024.91 2.04125 3.62362 0
M  V30 31757 H 3023.49 0.212478 3.72294 0
M  V30 31758 N 3025.67 -1.37693 0.766707 0
M  V30 31759 C 3026.9 -2.03792 0.339482 0
M  V30 31760 C 3027.31 -1.57954 -1.0415 0
M  V30 31761 O 3026.65 -0.753856 -1.67519 0
M  V30 31762 C 3026.71 -3.5826 0.298283 0
M  V30 31763 C 3026.38 -4.27209 1.623 0
M  V30 31764 C 3027.37 -4.51678 2.57455 0
M  V30 31765 C 3025.06 -4.6514 1.89605 0
M  V30 31766 C 3027.05 -5.13127 3.78126 0
M  V30 31767 C 3024.74 -5.26311 3.10547 0
M  V30 31768 C 3025.74 -5.50242 4.04627 0
M  V30 31769 O 3025.43 -6.10136 5.2344 0
M  V30 31770 H 3025.16 -0.661139 0.140963 0
M  V30 31771 H 3027.71 -1.7711 1.04026 0
M  V30 31772 H 3025.94 -3.83968 -0.45883 0
M  V30 31773 H 3027.63 -4.05774 -0.101192 0
M  V30 31774 H 3028.4 -4.22791 2.3764 0
M  V30 31775 H 3024.28 -4.45851 1.17207 0
M  V30 31776 H 3027.82 -5.31722 4.51573 0
M  V30 31777 H 3023.72 -5.54622 3.3025 0
M  V30 31778 H 3024.49 -6.28617 5.24198 0
M  V30 31779 N 3027.15 -0.516835 -1.48884 0
M  V30 31780 C 3028.56 -0.0730249 -1.86557 0
M  V30 31781 C 3028.91 1.34579 -1.42769 0
M  V30 31782 O 3028.04 2.00566 -0.812549 0
M  V30 31783 C 3028.63 -0.125745 -3.38567 0
M  V30 31784 C 3027.19 0.262801 -3.75481 0
M  V30 31785 C 3026.34 -0.491329 -2.72913 0
M  V30 31786 H 3029.29 -0.728791 -1.40976 0
M  V30 31787 H 3029.31 0.665766 -3.7463 0
M  V30 31788 H 3028.82 -1.15849 -3.70406 0
M  V30 31789 H 3026.92 1.29818 -3.49253 0
M  V30 31790 H 3027.03 -0.0676632 -4.79052 0
M  V30 31791 H 3025.4 0.0608078 -2.54627 0
M  V30 31792 H 3026.18 -1.52445 -3.07596 0
M  V30 31793 N 3028.63 1.55583 -0.251365 0
M  V30 31794 C 3029.86 2.03157 0.375606 0
M  V30 31795 C 3030.26 1.12986 1.51759 0
M  V30 31796 O 3029.61 0.137602 1.83184 0
M  V30 31797 C 3029.67 3.46968 0.94094 0
M  V30 31798 C 3029.33 4.56947 -0.069369 0
M  V30 31799 C 3030.33 5.1239 -0.8805 0
M  V30 31800 C 3028.02 5.01915 -0.19675 0
M  V30 31801 C 3030.01 6.11296 -1.80543 0
M  V30 31802 C 3027.7 6.00652 -1.12518 0
M  V30 31803 C 3028.69 6.55222 -1.92804 0
M  V30 31804 O 3028.38 7.52033 -2.84081 0
M  V30 31805 H 3028.11 0.66959 0.0928718 0
M  V30 31806 H 3030.67 2.01964 -0.374151 0
M  V30 31807 H 3028.9 3.45325 1.74034 0
M  V30 31808 H 3030.59 3.78016 1.47846 0
M  V30 31809 H 3031.35 4.78478 -0.7927 0
M  V30 31810 H 3027.23 4.591 0.418106 0
M  V30 31811 H 3030.78 6.53816 -2.43251 0
M  V30 31812 H 3026.67 6.33984 -1.21388 0
M  V30 31813 H 3027.44 7.69665 -2.78492 0
M  V30 31814 N 3030.1 -0.0216912 1.57585 0
M  V30 31815 C 3031.01 -1.0368 2.10446 0
M  V30 31816 C 3032.03 -1.39145 1.04474 0
M  V30 31817 O 3033.21 -1.48315 1.36252 0
M  V30 31818 C 3030.27 -2.31659 2.57944 0
M  V30 31819 C 3029.33 -2.02708 3.78429 0
M  V30 31820 C 3028.57 -3.24585 4.23651 0
M  V30 31821 O 3028.79 -4.35518 3.68348 0
M  V30 31822 O 3027.72 -3.09853 5.16018 0
M  V30 31823 H 3031.55 -0.617531 2.97355 0
M  V30 31824 H 3029.13 -0.239148 1.47474 0
M  V30 31825 H 3031.02 -3.06884 2.88791 0
M  V30 31826 H 3029.69 -2.72867 1.74142 0
M  V30 31827 H 3028.6 -1.25027 3.52589 0
M  V30 31828 H 3029.93 -1.66351 4.63237 0
M  V30 31829 N 3031.58 -1.54832 -0.294093 0
M  V30 31830 C 3032.83 -1.73649 -1.02611 0
M  V30 31831 C 3033.15 -0.533195 -1.88192 0
M  V30 31832 O 3034.35 -0.603322 -2.64712 0
M  V30 31833 C 3032.81 -3.07254 -1.87411 0
M  V30 31834 C 3032.42 -4.35084 -1.06799 0
M  V30 31835 C 3034.16 -3.35428 -2.6017 0
M  V30 31836 C 3032.07 -5.59737 -1.90916 0
M  V30 31837 H 3031 -0.647213 -0.386822 0
M  V30 31838 H 3033.65 -1.81308 -0.282757 0
M  V30 31839 H 3032.03 -2.93577 -2.6576 0
M  V30 31840 H 3033.2 -4.59616 -0.330145 0
M  V30 31841 H 3031.52 -4.13897 -0.455906 0
M  V30 31842 H 3034.12 -4.25761 -3.23469 0
M  V30 31843 H 3034.46 -2.54612 -3.29361 0
M  V30 31844 H 3034.99 -3.50107 -1.88865 0
M  V30 31845 H 3031.73 -6.4324 -1.26183 0
M  V30 31846 H 3031.25 -5.3938 -2.62354 0
M  V30 31847 H 3032.93 -5.97252 -2.48796 0
M  V30 31848 N 3033.06 0.557619 -1.47405 0
M  V30 31849 C 3034.34 1.3184 -1.4449 0
M  V30 31850 C 3034.72 2.10624 -0.141637 0
M  V30 31851 O 3034.07 2.11005 0.876871 0
M  V30 31852 C 3034.28 2.22327 -2.6902 0
M  V30 31853 C 3035.62 2.83359 -3.16217 0
M  V30 31854 O 3036.65 2.32629 -2.69745 0
M  V30 31855 O 3035.51 3.75564 -3.97006 0
M  V30 31856 H 3032.6 0.593629 -0.57579 0
M  V30 31857 H 3035.15 0.576556 -1.59606 0
M  V30 31858 H 3033.92 1.63709 -3.55408 0
M  V30 31859 H 3033.54 3.03808 -2.56489 0
M  V30 31860 N 3034.54 1.35531 0.804316 0
M  V30 31861 C 3035.5 1.28507 1.89786 0
M  V30 31862 C 3036.5 0.196011 1.59601 0
M  V30 31863 O 3037.69 0.449857 1.68291 0
M  V30 31864 C 3034.82 0.988527 3.26253 0
M  V30 31865 H 3036.02 2.25744 1.97432 0
M  V30 31866 H 3033.57 1.20087 1.00044 0
M  V30 31867 H 3034.31 0.0201111 3.24294 0
M  V30 31868 H 3034.09 1.77647 3.49548 0
M  V30 31869 H 3035.58 0.965046 4.06296 0
M  V30 31870 N 3036.02 -1.02674 1.19565 0
M  V30 31871 C 3037.24 -1.80268 1.02559 0
M  V30 31872 C 3037.67 -1.83328 -0.421024 0
M  V30 31873 O 3037.03 -1.26086 -1.30277 0
M  V30 31874 C 3037.07 -3.23075 1.60171 0
M  V30 31875 O 3036.18 -4.0391 0.832475 0
M  V30 31876 H 3035.52 -0.556407 0.362363 0
M  V30 31877 H 3038.05 -1.29213 1.58635 0
M  V30 31878 H 3038.06 -3.73817 1.63477 0
M  V30 31879 H 3036.73 -3.20163 2.65459 0
M  V30 31880 H 3035.31 -3.62541 0.872832 0
M  V30 31881 N 3037.5 -0.999914 -1.21817 0
M  V30 31882 C 3038.43 -0.576136 -2.26281 0
M  V30 31883 C 3039.41 0.400508 -1.65318 0
M  V30 31884 O 3040.59 0.289606 -1.92028 0
M  V30 31885 C 3037.72 0.103084 -3.47147 0
M  V30 31886 C 3036.68 -0.792819 -4.20593 0
M  V30 31887 C 3036 0.0197086 -5.34696 0
M  V30 31888 C 3037.3 -2.09302 -4.78529 0
M  V30 31889 H 3039 -1.44934 -2.61982 0
M  V30 31890 H 3036.54 -0.698338 -1.25933 0
M  V30 31891 H 3038.49 0.410994 -4.19391 0
M  V30 31892 H 3037.22 1.01089 -3.10562 0
M  V30 31893 H 3035.88 -1.08448 -3.50192 0
M  V30 31894 H 3035.53 0.928642 -4.94353 0
M  V30 31895 H 3035.23 -0.576763 -5.84763 0
M  V30 31896 H 3036.75 0.321551 -6.09753 0
M  V30 31897 H 3038.16 -1.84859 -5.42679 0
M  V30 31898 H 3036.56 -2.63891 -5.38964 0
M  V30 31899 H 3037.63 -2.76715 -3.98192 0
M  V30 31900 N 3038.97 1.37284 -0.773999 0
M  V30 31901 C 3039.9 2.32837 -0.175823 0
M  V30 31902 C 3040.88 1.55892 0.680576 0
M  V30 31903 O 3042.07 1.84119 0.617575 0
M  V30 31904 C 3039.2 3.40124 0.702328 0
M  V30 31905 C 3038.15 4.27967 -0.052944 0
M  V30 31906 C 3037.48 5.26287 0.944799 0
M  V30 31907 C 3038.78 5.07531 -1.23325 0
M  V30 31908 H 3040.47 2.83112 -0.974066 0
M  V30 31909 H 3038.02 1.36119 -0.46985 0
M  V30 31910 H 3039.97 4.05949 1.13062 0
M  V30 31911 H 3038.7 2.8838 1.53311 0
M  V30 31912 H 3037.36 3.63677 -0.462042 0
M  V30 31913 H 3037 4.70822 1.7702 0
M  V30 31914 H 3036.7 5.8592 0.443976 0
M  V30 31915 H 3038.23 5.94986 1.37199 0
M  V30 31916 H 3039.64 5.66483 -0.881495 0
M  V30 31917 H 3038.04 5.76502 -1.66631 0
M  V30 31918 H 3039.11 4.40074 -2.03625 0
M  V30 31919 N 3040.45 0.524724 1.48608 0
M  V30 31920 C 3041.41 -0.230126 2.28042 0
M  V30 31921 C 3042.41 -0.87256 1.35067 0
M  V30 31922 O 3043.6 -0.733423 1.58008 0
M  V30 31923 C 3040.74 -1.33247 3.1378 0
M  V30 31924 H 3041.93 0.467213 2.96238 0
M  V30 31925 H 3039.48 0.280479 1.53763 0
M  V30 31926 H 3040.22 -2.06322 2.50203 0
M  V30 31927 H 3040 -0.876991 3.82167 0
M  V30 31928 H 3041.49 -1.86355 3.73713 0
M  V30 31929 N 3041.93 -1.55447 0.259613 0
M  V30 31930 C 3042.84 -2.2556 -0.644986 0
M  V30 31931 C 3043.86 -1.27608 -1.18289 0
M  V30 31932 O 3045.03 -1.60512 -1.21647 0
M  V30 31933 C 3042.1 -2.95113 -1.81959 0
M  V30 31934 C 3041.16 -4.08506 -1.3199 0
M  V30 31935 C 3040.39 -4.74733 -2.43852 0
M  V30 31936 O 3040.61 -4.40094 -3.62868 0
M  V30 31937 O 3039.55 -5.62994 -2.12888 0
M  V30 31938 H 3043.37 -3.03601 -0.0774866 0
M  V30 31939 H 3040.96 -1.49374 0.0276121 0
M  V30 31940 H 3042.84 -3.38878 -2.50479 0
M  V30 31941 H 3041.52 -2.20001 -2.37447 0
M  V30 31942 H 3040.42 -3.69231 -0.601611 0
M  V30 31943 H 3041.76 -4.85473 -0.81096 0
M  V30 31944 N 3043.41 0.0133338 -1.57594 0
M  V30 31945 C 3044.37 0.993763 -2.06536 0
M  V30 31946 C 3045.37 1.28075 -0.972289 0
M  V30 31947 O 3046.56 1.22816 -1.23539 0
M  V30 31948 C 3043.69 2.32236 -2.49558 0
M  V30 31949 H 3044.89 0.570689 -2.9442 0
M  V30 31950 H 3042.44 0.260519 -1.54114 0
M  V30 31951 H 3043.17 2.7926 -1.64877 0
M  V30 31952 H 3042.96 2.12731 -3.29375 0
M  V30 31953 H 3044.45 3.02595 -2.87795 0
M  V30 31954 N 3044.89 1.54985 0.285878 0
M  V30 31955 C 3046.13 1.74638 1.01715 0
M  V30 31956 C 3046.45 0.543375 1.87276 0
M  V30 31957 O 3045.72 -0.442044 1.90848 0
M  V30 31958 H 3044.3 0.643986 0.378538 0
M  V30 31959 H 3046.97 1.92367 0.313213 0
M  V30 31960 H 3046.06 2.64195 1.66154 0
M  V30 31961 N 3046.36 -0.549794 1.47699 0
M  V30 31962 C 3047.31 -1.65622 1.60742 0
M  V30 31963 C 3048.28 -1.59884 0.450158 0
M  V30 31964 O 3049.47 -1.78606 0.671154 0
M  V30 31965 C 3046.61 -3.03931 1.63462 0
M  V30 31966 C 3045.72 -3.20051 2.90158 0
M  V30 31967 C 3044.85 -4.48802 2.84165 0
M  V30 31968 C 3043.89 -4.5838 4.05652 0
M  V30 31969 N 3043.03 -5.78496 3.97853 0
M  V30 31970 H 3047.87 -1.53812 2.55237 0
M  V30 31971 H 3045.41 -0.749151 1.26594 0
M  V30 31972 H 3047.37 -3.84031 1.63022 0
M  V30 31973 H 3046 -3.14559 0.724744 0
M  V30 31974 H 3045.05 -2.33334 3.00432 0
M  V30 31975 H 3046.36 -3.22992 3.80103 0
M  V30 31976 H 3045.51 -5.37171 2.82015 0
M  V30 31977 H 3044.25 -4.48352 1.91916 0
M  V30 31978 H 3043.26 -3.68423 4.08099 0
M  V30 31979 H 3044.48 -4.60584 4.99038 0
M  V30 31980 H 3042.43 -5.78981 3.08411 0
M  V30 31981 H 3042.35 -5.82846 4.81483 0
M  V30 31982 H 3043.61 -6.69205 3.99731 0
M  V30 31983 N 3047.84 -1.35955 -0.797117 0
M  V30 31984 C 3049.07 -1.33055 -1.59094 0
M  V30 31985 C 3049.49 0.0874262 -1.87897 0
M  V30 31986 O 3048.85 1.0571 -1.47293 0
M  V30 31987 C 3048.9 -2.15205 -2.89342 0
M  V30 31988 O 3048 -1.53926 -3.82597 0
M  V30 31989 H 3047.34 -0.455759 -0.482887 0
M  V30 31990 H 3049.87 -1.79131 -0.988601 0
M  V30 31991 H 3049.88 -2.27505 -3.38682 0
M  V30 31992 H 3048.56 -3.18288 -2.67705 0
M  V30 31993 H 3047.14 -1.50522 -3.41171 0
M  V30 31994 N 3049.32 1.02038 -1.20108 0
M  V30 31995 C 3050.57 1.75576 -1.00892 0
M  V30 31996 C 3050.9 1.88997 0.459382 0
M  V30 31997 O 3050.15 1.40979 1.35732 0
M  V30 31998 C 3050.45 3.17905 -1.63313 0
M  V30 31999 C 3050.12 3.24471 -3.13097 0
M  V30 32000 C 3048.78 3.25969 -3.53974 0
M  V30 32001 C 3051.13 3.22936 -4.09098 0
M  V30 32002 C 3048.46 3.23601 -4.89386 0
M  V30 32003 C 3050.81 3.22109 -5.44452 0
M  V30 32004 C 3049.47 3.2191 -5.84748 0
M  V30 32005 H 3048.74 0.642478 -0.369192 0
M  V30 32006 H 3051.39 1.19703 -1.49477 0
M  V30 32007 H 3049.7 3.76912 -1.06981 0
M  V30 32008 H 3051.39 3.73491 -1.45965 0
M  V30 32009 H 3047.98 3.24037 -2.80532 0
M  V30 32010 H 3052.17 3.20952 -3.78555 0
M  V30 32011 H 3047.42 3.21776 -5.19875 0
M  V30 32012 H 3051.6 3.19874 -6.1859 0
M  V30 32013 H 3049.22 3.19829 -6.89647 0
M  V30 32014 N 3050.8 1.00636 1.21285 0
M  V30 32015 C 3052.05 0.688471 1.90012 0
M  V30 32016 C 3052.37 -0.783333 1.78575 0
M  V30 32017 O 3051.64 -1.56259 1.18152 0
M  V30 32018 H 3050.22 0.251661 0.703332 0
M  V30 32019 H 3052.88 1.27576 1.47344 0
M  V30 32020 H 3051.98 0.962833 2.96877 0
M  V30 32021 N 3052.28 -1.36872 0.781268 0
M  V30 32022 C 3053.21 -2.32741 0.188169 0
M  V30 32023 C 3054.19 -1.5625 -0.672299 0
M  V30 32024 O 3055.37 -1.84444 -0.607802 0
M  V30 32025 C 3052.5 -3.40492 -0.684281 0
M  V30 32026 C 3051.46 -4.27933 0.0756394 0
M  V30 32027 C 3050.78 -5.2678 -0.916875 0
M  V30 32028 C 3052.08 -5.0687 1.26015 0
M  V30 32029 H 3053.78 -2.82591 0.989066 0
M  V30 32030 H 3051.32 -1.35868 0.477062 0
M  V30 32031 H 3053.28 -4.06543 -1.10908 0
M  V30 32032 H 3052 -2.89189 -1.5178 0
M  V30 32033 H 3050.66 -3.63427 0.481322 0
M  V30 32034 H 3050.31 -4.71754 -1.7452 0
M  V30 32035 H 3050.01 -5.86148 -0.412897 0
M  V30 32036 H 3051.53 -5.95706 -1.34041 0
M  V30 32037 H 3052.94 -5.66007 0.911524 0
M  V30 32038 H 3051.34 -5.7561 1.69686 0
M  V30 32039 H 3052.41 -4.38988 2.05956 0
M  V30 32040 N 3053.75 -0.532597 -1.48328 0
M  V30 32041 C 3055 0.0025616 -2.017 0
M  V30 32042 C 3055.32 1.35075 -1.41472 0
M  V30 32043 O 3056.52 1.97442 -1.86357 0
M  V30 32044 C 3054.98 0.0549546 -3.59858 0
M  V30 32045 C 3054.59 -1.28849 -4.29071 0
M  V30 32046 C 3056.33 0.538804 -4.21067 0
M  V30 32047 C 3054.24 -1.19654 -5.79169 0
M  V30 32048 H 3053.17 0.00472755 -0.753985 0
M  V30 32049 H 3055.82 -0.676769 -1.70564 0
M  V30 32050 H 3054.2 0.799417 -3.87847 0
M  V30 32051 H 3055.37 -2.04873 -4.12752 0
M  V30 32052 H 3053.69 -1.70829 -3.79745 0
M  V30 32053 H 3056.29 0.625607 -5.31028 0
M  V30 32054 H 3056.63 1.54519 -3.86561 0
M  V30 32055 H 3057.16 -0.150054 -3.97517 0
M  V30 32056 H 3053.9 -2.17816 -6.18253 0
M  V30 32057 H 3053.42 -0.477714 -5.97895 0
M  V30 32058 H 3055.1 -0.888298 -6.40873 0
M  V30 32059 N 3055.23 1.55307 -0.267853 0
M  V30 32060 C 3056.17 2.18328 0.663935 0
M  V30 32061 C 3057.14 1.14189 1.15757 0
M  V30 32062 O 3058.33 1.42679 1.23187 0
M  V30 32063 C 3055.45 2.80073 1.90465 0
M  V30 32064 C 3054.5 3.9745 1.54711 0
M  V30 32065 S 3055.33 5.31763 0.631561 0
M  V30 32066 C 3056.49 5.96973 1.88081 0
M  V30 32067 H 3056.72 2.97022 0.128434 0
M  V30 32068 H 3054.26 1.54312 -0.0521562 0
M  V30 32069 H 3056.21 3.16279 2.61683 0
M  V30 32070 H 3054.87 2.01286 2.41128 0
M  V30 32071 H 3054.07 4.39317 2.47014 0
M  V30 32072 H 3053.67 3.6263 0.91519 0
M  V30 32073 H 3055.96 6.15764 2.82562 0
M  V30 32074 H 3056.9 6.91916 1.50527 0
M  V30 32075 H 3057.31 5.26255 2.04244 0
M  V30 32076 N 3056.71 -0.00497598 1.57599 0
M  V30 32077 C 3057.94 -0.701982 1.94627 0
M  V30 32078 C 3058.35 -1.67583 0.869559 0
M  V30 32079 O 3057.71 -1.81866 -0.151958 0
M  V30 32080 C 3057.76 -1.43818 3.3166 0
M  V30 32081 O 3057.48 -0.50339 4.35198 0
M  V30 32082 C 3058.98 -2.23015 3.83118 0
M  V30 32083 H 3056.2 -0.195829 0.641788 0
M  V30 32084 H 3058.75 0.0446647 2.04451 0
M  V30 32085 H 3056.9 -2.1365 3.2316 0
M  V30 32086 H 3057.32 -1.02226 5.14442 0
M  V30 32087 H 3058.79 -2.70031 4.81443 0
M  V30 32088 H 3059.27 -3.05477 3.15564 0
M  V30 32089 H 3059.87 -1.58209 3.94778 0
M  V30 32090 N 3058.19 -1.55135 -0.277654 0
M  V30 32091 C 3059.6 -1.66278 -0.849034 0
M  V30 32092 C 3059.95 -0.586733 -1.87221 0
M  V30 32093 O 3059.08 0.272597 -2.14676 0
M  V30 32094 C 3059.67 -3.01432 -1.54675 0
M  V30 32095 C 3058.23 -3.14617 -2.06623 0
M  V30 32096 C 3057.38 -2.62058 -0.906702 0
M  V30 32097 H 3060.33 -1.58608 -0.0541078 0
M  V30 32098 H 3060.35 -2.9416 -2.41351 0
M  V30 32099 H 3059.86 -3.79727 -0.801823 0
M  V30 32100 H 3057.96 -2.41087 -2.84091 0
M  V30 32101 H 3058.07 -4.21114 -2.28473 0
M  V30 32102 H 3056.44 -2.19097 -1.29879 0
M  V30 32103 H 3057.22 -3.42852 -0.175353 0
M  V30 32104 N 3059.67 0.541953 -1.47989 0
M  V30 32105 C 3061.08 1.124 -1.49075 0
M  V30 32106 C 3061.43 1.94551 -0.253859 0
M  V30 32107 O 3060.55 2.06719 0.640019 0
M  V30 32108 C 3061.15 2.04509 -2.70114 0
M  V30 32109 C 3059.71 2.57955 -2.7411 0
M  V30 32110 C 3058.85 1.34656 -2.42411 0
M  V30 32111 H 3061.81 0.32779 -1.55278 0
M  V30 32112 H 3061.83 2.88618 -2.47951 0
M  V30 32113 H 3061.34 1.44691 -3.6012 0
M  V30 32114 H 3059.44 3.21529 -1.88282 0
M  V30 32115 H 3059.55 2.97907 -3.75218 0
M  V30 32116 H 3057.92 1.65837 -1.93313 0
M  V30 32117 H 3058.7 0.766074 -3.34643 0
M  V30 32118 N 3061.15 1.36376 0.789896 0
M  V30 32119 C 3062.42 1.21128 1.53581 0
M  V30 32120 C 3062.8 -0.202748 2.10124 0
M  V30 32121 O 3062.15 -1.20832 1.93938 0
M  V30 32122 C 3062.36 2.29287 2.63113 0
M  V30 32123 C 3063.71 2.6593 3.31008 0
M  V30 32124 O 3064.73 2.28326 2.73396 0
M  V30 32125 O 3063.59 3.30651 4.35123 0
M  V30 32126 H 3060.69 0.471595 0.679358 0
M  V30 32127 H 3063.23 1.48106 0.82842 0
M  V30 32128 H 3062 3.24057 2.19323 0
M  V30 32129 H 3061.63 2.03672 3.41472 0
M  V30 32130 N 3062.62 -1.014 1.20647 0
M  V30 32131 C 3063.57 -2.09994 0.957655 0
M  V30 32132 C 3064.54 -1.65715 -0.113086 0
M  V30 32133 O 3065.73 -1.90773 0.0321755 0
M  V30 32134 C 3062.87 -3.4118 0.51866 0
M  V30 32135 C 3061.98 -3.98923 1.65784 0
M  V30 32136 C 3061.11 -5.1818 1.1689 0
M  V30 32137 C 3060.15 -5.68011 2.281 0
M  V30 32138 N 3059.29 -6.78527 1.80404 0
M  V30 32139 H 3064.13 -2.30614 1.88736 0
M  V30 32140 H 3061.67 -1.13088 0.940723 0
M  V30 32141 H 3063.62 -4.16477 0.24544 0
M  V30 32142 H 3062.25 -3.20626 -0.374044 0
M  V30 32143 H 3061.31 -3.20697 2.04592 0
M  V30 32144 H 3062.62 -4.31907 2.49515 0
M  V30 32145 H 3061.77 -6.00691 0.8518 0
M  V30 32146 H 3060.51 -4.86767 0.30152 0
M  V30 32147 H 3059.52 -4.84103 2.60623 0
M  V30 32148 H 3060.74 -6.01458 3.15318 0
M  V30 32149 H 3058.69 -6.48938 0.95997 0
M  V30 32150 H 3058.6 -7.10718 2.57713 0
M  V30 32151 H 3059.87 -7.64596 1.51702 0
M  V30 32152 N 3064.1 -1.01278 -1.2075 0
M  V30 32153 C 3065.33 -0.718803 -1.94546 0
M  V30 32154 C 3065.75 0.713532 -1.74041 0
M  V30 32155 O 3065.11 1.49046 -1.03223 0
M  V30 32156 C 3065.16 -1.05503 -3.44821 0
M  V30 32157 O 3064.26 -0.164589 -4.12071 0
M  V30 32158 H 3063.6 -0.267062 -0.607926 0
M  V30 32159 H 3066.13 -1.35512 -1.53289 0
M  V30 32160 H 3066.14 -1.00514 -3.95425 0
M  V30 32161 H 3064.82 -2.09864 -3.59068 0
M  V30 32162 H 3063.39 -0.27168 -3.71909 0
M  V30 32163 N 3065.58 1.36456 -0.788516 0
M  V30 32164 C 3066.54 2.28392 -0.192249 0
M  V30 32165 C 3067.54 1.48785 0.60989 0
M  V30 32166 O 3068.73 1.68784 0.431017 0
M  V30 32167 C 3065.86 3.32903 0.734038 0
M  V30 32168 H 3067.06 2.82634 -1.00289 0
M  V30 32169 H 3064.61 1.46005 -0.557878 0
M  V30 32170 H 3065.35 2.83815 1.56905 0
M  V30 32171 H 3065.13 3.9177 0.160806 0
M  V30 32172 H 3066.62 4.01564 1.14612 0
M  V30 32173 N 3067.06 0.540456 1.48043 0
M  V30 32174 C 3067.97 -0.220122 2.33565 0
M  V30 32175 C 3068.98 -0.928634 1.47148 0
M  V30 32176 O 3070.16 -0.901263 1.80109 0
M  V30 32177 C 3067.22 -1.24715 3.23492 0
M  V30 32178 C 3066.29 -0.547863 4.2579 0
M  V30 32179 C 3065.52 -1.52596 5.1142 0
M  V30 32180 O 3065.74 -2.75947 4.99209 0
M  V30 32181 O 3064.68 -1.05961 5.925 0
M  V30 32182 H 3068.5 0.480951 2.99868 0
M  V30 32183 H 3066.09 0.301252 1.46331 0
M  V30 32184 H 3067.97 -1.8404 3.79087 0
M  V30 32185 H 3066.64 -1.93044 2.59838 0
M  V30 32186 H 3065.55 0.0861598 3.74001 0
M  V30 32187 H 3066.88 0.0936761 4.92111 0
M  V30 32188 N 3068.54 -1.55163 0.276085 0
M  V30 32189 C 3069.78 -1.99618 -0.340419 0
M  V30 32190 C 3070.11 -1.16449 -1.55788 0
M  V30 32191 O 3069.37 -0.222393 -1.94432 0
M  V30 32192 C 3069.66 -3.49102 -0.765682 0
M  V30 32193 C 3069.33 -4.49561 0.347253 0
M  V30 32194 C 3067.99 -4.76751 0.652844 0
M  V30 32195 C 3070.34 -5.09522 1.09714 0
M  V30 32196 C 3067.67 -5.6117 1.71189 0
M  V30 32197 C 3070.02 -5.95091 2.14592 0
M  V30 32198 C 3068.69 -6.20602 2.45784 0
M  V30 32199 H 3067.96 -0.730454 -0.124568 0
M  V30 32200 H 3070.61 -1.87487 0.389999 0
M  V30 32201 H 3068.91 -3.58714 -1.57579 0
M  V30 32202 H 3070.61 -3.80906 -1.25346 0
M  V30 32203 H 3067.2 -4.28486 0.0989532 0
M  V30 32204 H 3071.38 -4.88538 0.874309 0
M  V30 32205 H 3066.64 -5.79181 1.95857 0
M  V30 32206 H 3070.81 -6.40586 2.73171 0
M  V30 32207 H 3068.44 -6.85808 3.27982 0
M  V30 32208 N 3070.01 -0.00338196 -1.576 0
M  V30 32209 C 3071.26 0.681766 -1.90997 0
M  V30 32210 C 3071.59 1.73235 -0.877673 0
M  V30 32211 O 3070.87 1.94226 0.103149 0
M  V30 32212 C 3071.15 1.32181 -3.34963 0
M  V30 32213 C 3071 0.282532 -4.48912 0
M  V30 32214 C 3072.32 2.24704 -3.78412 0
M  V30 32215 H 3069.44 0.246373 -0.6946 0
M  V30 32216 H 3072.08 -0.0553694 -1.89919 0
M  V30 32217 H 3070.23 1.95008 -3.36012 0
M  V30 32218 H 3071.91 -0.346322 -4.59998 0
M  V30 32219 H 3070.15 -0.394844 -4.31999 0
M  V30 32220 H 3070.82 0.76948 -5.4661 0
M  V30 32221 H 3073.3 1.7189 -3.78937 0
M  V30 32222 H 3072.17 2.66452 -4.7989 0
M  V30 32223 H 3072.43 3.12754 -3.12469 0
M  V30 32224 N 3071.49 1.5528 0.269423 0
M  V30 32225 C 3072.44 1.88405 1.33312 0
M  V30 32226 C 3073.41 0.735907 1.48908 0
M  V30 32227 O 3074.59 0.987507 1.63257 0
M  V30 32228 C 3071.73 2.16459 2.68774 0
M  V30 32229 C 3070.85 3.43961 2.61371 0
M  V30 32230 C 3069.98 3.61697 3.89036 0
M  V30 32231 C 3069.02 4.82879 3.76158 0
M  V30 32232 N 3068.16 4.97254 4.95664 0
M  V30 32233 H 3073 2.79128 1.04363 0
M  V30 32234 H 3070.53 1.38192 0.504123 0
M  V30 32235 H 3072.49 2.30725 3.47594 0
M  V30 32236 H 3071.12 1.28967 2.95918 0
M  V30 32237 H 3070.17 3.38148 1.74241 0
M  V30 32238 H 3071.49 4.32918 2.47756 0
M  V30 32239 H 3070.64 3.758 4.76298 0
M  V30 32240 H 3069.38 2.70931 4.05521 0
M  V30 32241 H 3068.38 4.68776 2.87279 0
M  V30 32242 H 3069.61 5.75083 3.61187 0
M  V30 32243 H 3067.56 4.0942 5.12554 0
M  V30 32244 H 3067.47 5.80262 4.84594 0
M  V30 32245 H 3068.74 5.15745 5.84489 0
M  V30 32246 N 3072.97 -0.534097 1.48274 0
M  V30 32247 C 3073.9 -1.64836 1.65383 0
M  V30 32248 C 3074.88 -1.625 0.502769 0
M  V30 32249 O 3076.07 -1.79761 0.734831 0
M  V30 32250 C 3073.2 -3.03433 1.68954 0
M  V30 32251 C 3072.15 -3.20626 2.83519 0
M  V30 32252 C 3071.48 -4.60243 2.72177 0
M  V30 32253 C 3072.78 -3.0379 4.24864 0
M  V30 32254 H 3074.47 -1.50773 2.58666 0
M  V30 32255 H 3072.02 -0.723916 1.24481 0
M  V30 32256 H 3073.97 -3.81252 1.79512 0
M  V30 32257 H 3072.69 -3.18509 0.722471 0
M  V30 32258 H 3071.35 -2.45222 2.7251 0
M  V30 32259 H 3071 -4.72149 1.73448 0
M  V30 32260 H 3070.7 -4.72692 3.4905 0
M  V30 32261 H 3072.22 -5.40167 2.84696 0
M  V30 32262 H 3073.64 -3.71405 4.36728 0
M  V30 32263 H 3072.03 -3.27735 5.02703 0
M  V30 32264 H 3073.1 -2.00262 4.41614 0
M  V30 32265 N 3074.45 -1.36793 -0.782652 0
M  V30 32266 C 3075.68 -1.34568 -1.5716 0
M  V30 32267 C 3076.09 0.0715169 -1.88664 0
M  V30 32268 O 3075.45 1.0303 -1.50635 0
M  V30 32269 C 3075.5 -2.17365 -2.8885 0
M  V30 32270 O 3075.22 -3.53561 -2.587 0
M  V30 32271 C 3076.72 -2.22997 -3.83128 0
M  V30 32272 H 3073.94 -0.461347 -0.487237 0
M  V30 32273 H 3076.48 -1.79984 -0.970873 0
M  V30 32274 H 3074.64 -1.75487 -3.45374 0
M  V30 32275 H 3075.05 -3.96841 -3.42954 0
M  V30 32276 H 3076.53 -2.85275 -4.7257 0
M  V30 32277 H 3077 -1.23531 -4.2147 0
M  V30 32278 H 3077.61 -2.65141 -3.32536 0
M  V30 32279 N 3075.93 1.00759 -1.21184 0
M  V30 32280 C 3077.17 1.74857 -1.03906 0
M  V30 32281 C 3077.53 1.87685 0.423314 0
M  V30 32282 O 3076.82 1.39821 1.30999 0
M  V30 32283 C 3077.01 3.16155 -1.66676 0
M  V30 32284 C 3076.84 3.17104 -3.18865 0
M  V30 32285 C 3075.61 3.23831 -3.87894 0
M  V30 32286 C 3077.81 3.02427 -4.15984 0
M  V30 32287 N 3075.79 3.14379 -5.27294 0
M  V30 32288 C 3077.16 3.00844 -5.42119 0
M  V30 32289 C 3079.22 2.8671 -4.07065 0
M  V30 32290 C 3077.92 2.85155 -6.60363 0
M  V30 32291 C 3079.95 2.72377 -5.24943 0
M  V30 32292 C 3079.31 2.71468 -6.49988 0
M  V30 32293 H 3075.41 0.650158 -0.434533 0
M  V30 32294 H 3077.99 1.19778 -1.53497 0
M  V30 32295 H 3076.16 3.69509 -1.19656 0
M  V30 32296 H 3077.9 3.78734 -1.42629 0
M  V30 32297 H 3074.65 3.30921 -3.38804 0
M  V30 32298 H 3075.08 3.13002 -6.00299 0
M  V30 32299 H 3079.72 2.8622 -3.11188 0
M  V30 32300 H 3077.44 2.84392 -7.56404 0
M  V30 32301 H 3081.02 2.61219 -5.19861 0
M  V30 32302 H 3079.9 2.60507 -7.39666 0
M  V30 32303 N 3077.4 1.01917 1.20211 0
M  V30 32304 C 3078.68 0.624983 1.85346 0
M  V30 32305 C 3079.06 -0.89682 1.91103 0
M  V30 32306 O 3078.41 -1.78958 1.42078 0
M  V30 32307 C 3078.62 1.27577 3.24846 0
M  V30 32308 C 3079.97 1.39284 4.01105 0
M  V30 32309 O 3080.99 1.23218 3.34209 0
M  V30 32310 O 3079.85 1.65269 5.20911 0
M  V30 32311 H 3076.94 0.215979 0.798299 0
M  V30 32312 H 3079.49 1.11671 1.2778 0
M  V30 32313 H 3078.26 2.3155 3.15436 0
M  V30 32314 H 3077.89 0.771289 3.90047 0
M  V30 32315 N 3078.88 -1.36036 0.795742 0
M  V30 32316 C 3079.83 -2.31851 0.186531 0
M  V30 32317 C 3080.82 -1.56112 -0.657677 0
M  V30 32318 O 3082.03 -1.71325 -0.552053 0
M  V30 32319 H 3078.41 -0.750851 0.0415495 0
M  V30 32320 H 3080.38 -2.80789 1.00997 0
M  V30 32321 C 3079.13 -3.41396 -0.65912 0
M  V30 32322 H 3078.45 -3.99796 -0.0188697 0
M  V30 32323 H 3079.89 -4.10743 -1.05195 0
M  V30 32324 C 3078.35 -2.83506 -1.82006 0
M  V30 32325 O 3078.88 -2.76179 -2.91698 0
M  V30 32326 N 3077.08 -2.40706 -1.62816 0
M  V30 32327 H 3076.63 -2.46864 -0.735921 0
M  V30 32328 H 3076.59 -2.0232 -2.40653 0
M  V30 32329 N 3080.36 -0.5483 -1.47755 0
M  V30 32330 C 3081.61 -0.0209621 -2.02789 0
M  V30 32331 C 3081.94 1.32184 -1.42271 0
M  V30 32332 O 3081.21 1.85805 -0.575034 0
M  V30 32333 C 3081.5 0.0816042 -3.60008 0
M  V30 32334 C 3081.35 -1.28766 -4.30975 0
M  V30 32335 C 3082.67 0.799439 -4.32778 0
M  V30 32336 H 3079.79 -0.00909179 -0.736944 0
M  V30 32337 H 3082.43 -0.70887 -1.76281 0
M  V30 32338 H 3080.58 0.66747 -3.82723 0
M  V30 32339 H 3082.25 -1.91605 -4.19625 0
M  V30 32340 H 3080.5 -1.86473 -3.91676 0
M  V30 32341 H 3081.17 -1.16871 -5.39486 0
M  V30 32342 H 3083.64 0.302087 -4.15002 0
M  V30 32343 H 3082.52 0.840143 -5.42432 0
M  V30 32344 H 3082.78 1.85368 -4.01361 0
M  V30 32345 N 3081.84 1.55014 -0.28431 0
M  V30 32346 C 3083.07 2.04204 0.332912 0
M  V30 32347 C 3083.48 1.16232 1.48781 0
M  V30 32348 O 3082.84 0.184355 1.81566 0
M  V30 32349 C 3082.89 3.5242 0.805145 0
M  V30 32350 O 3082.61 4.37046 -0.303766 0
M  V30 32351 C 3084.11 4.17536 1.48924 0
M  V30 32352 H 3081.33 0.666825 0.074733 0
M  V30 32353 H 3083.88 2.0016 -0.419083 0
M  V30 32354 H 3082.03 3.56878 1.5072 0
M  V30 32355 H 3082.44 5.24465 0.0608781 0
M  V30 32356 H 3083.92 5.22819 1.77099 0
M  V30 32357 H 3084.4 3.66262 2.42382 0
M  V30 32358 H 3085 4.17107 0.830794 0
M  V30 32359 N 3083.32 0.0117398 1.57596 0
M  V30 32360 C 3084.56 -0.670634 1.91073 0
M  V30 32361 C 3084.89 -1.73123 0.886487 0
M  V30 32362 O 3084.15 -1.95407 -0.107101 0
M  V30 32363 C 3084.45 -1.34076 3.31298 0
M  V30 32364 C 3084.11 -0.412226 4.49012 0
M  V30 32365 C 3082.77 -0.156607 4.80945 0
M  V30 32366 C 3085.13 0.226386 5.20708 0
M  V30 32367 C 3082.45 0.745722 5.81941 0
M  V30 32368 C 3084.81 1.11666 6.22666 0
M  V30 32369 C 3083.47 1.38134 6.53051 0
M  V30 32370 H 3082.74 -0.245402 0.699184 0
M  V30 32371 H 3085.39 0.0697847 1.91373 0
M  V30 32372 H 3083.69 -2.15551 3.27177 0
M  V30 32373 H 3085.39 -1.87499 3.54464 0
M  V30 32374 H 3081.98 -0.62163 4.24068 0
M  V30 32375 H 3086.16 0.0419328 4.96282 0
M  V30 32376 H 3081.42 0.958672 6.03837 0
M  V30 32377 H 3085.59 1.61779 6.77348 0
M  V30 32378 H 3083.22 2.08221 7.31128 0
M  V30 32379 N 3084.79 -1.55421 -0.261185 0
M  V30 32380 C 3085.72 -1.92121 -1.32709 0
M  V30 32381 C 3086.71 -0.784433 -1.50933 0
M  V30 32382 O 3087.89 -1.04355 -1.63779 0
M  V30 32383 C 3085.02 -2.20346 -2.68449 0
M  V30 32384 C 3083.97 -3.36141 -2.64941 0
M  V30 32385 C 3083.3 -3.49872 -4.04343 0
M  V30 32386 C 3084.6 -4.72219 -2.23174 0
M  V30 32387 H 3086.29 -2.81402 -1.0224 0
M  V30 32388 H 3083.84 -1.35393 -0.490382 0
M  V30 32389 H 3085.79 -2.44609 -3.43139 0
M  V30 32390 H 3084.52 -1.27876 -3.00525 0
M  V30 32391 H 3083.18 -3.11864 -1.92708 0
M  V30 32392 H 3082.82 -2.54848 -4.33661 0
M  V30 32393 H 3082.52 -4.27733 -4.02887 0
M  V30 32394 H 3084.05 -3.76441 -4.80754 0
M  V30 32395 H 3085.46 -4.95948 -2.87591 0
M  V30 32396 H 3083.86 -5.5308 -2.32858 0
M  V30 32397 H 3084.93 -4.70243 -1.18318 0
M  V30 32398 N 3086.27 0.526227 -1.48555 0
M  V30 32399 C 3087.22 1.63043 -1.63357 0
M  V30 32400 C 3088.19 1.59147 -0.475537 0
M  V30 32401 O 3089.37 1.77516 -0.699484 0
M  V30 32402 C 3086.51 3.01292 -1.68277 0
M  V30 32403 C 3085.63 3.15394 -2.95213 0
M  V30 32404 C 3084.76 4.44225 -2.91269 0
M  V30 32405 C 3083.8 4.51869 -4.12894 0
M  V30 32406 N 3082.94 5.72093 -4.07006 0
M  V30 32407 H 3087.78 1.49732 -2.57651 0
M  V30 32408 H 3085.32 0.728916 -1.2777 0
M  V30 32409 H 3087.27 3.81389 -1.69111 0
M  V30 32410 H 3085.9 3.13366 -0.774696 0
M  V30 32411 H 3084.96 2.28525 -3.04106 0
M  V30 32412 H 3086.27 3.16904 -3.85193 0
M  V30 32413 H 3085.42 5.32616 -2.90526 0
M  V30 32414 H 3084.16 4.45242 -1.99024 0
M  V30 32415 H 3083.17 3.61884 -4.13908 0
M  V30 32416 H 3084.39 4.52587 -5.06302 0
M  V30 32417 H 3082.34 5.74001 -3.17583 0
M  V30 32418 H 3082.25 5.75112 -4.90695 0
M  V30 32419 H 3083.52 6.62761 -4.10327 0
M  V30 32420 N 3087.75 1.37206 0.775387 0
M  V30 32421 C 3089.17 1.17926 1.07543 0
M  V30 32422 C 3089.37 0.0129251 2.01496 0
M  V30 32423 O 3088.42 -0.648117 2.4404 0
M  V30 32424 C 3089.74 2.49632 1.67643 0
M  V30 32425 C 3091.28 2.56122 1.79918 0
M  V30 32426 C 3091.76 3.8795 2.43431 0
M  V30 32427 N 3093.25 3.89372 2.50886 0
M  V30 32428 C 3093.98 4.88122 3.00872 0
M  V30 32429 N 3093.48 5.97268 3.51059 0
M  V30 32430 N 3095.27 4.7553 2.99713 0
M  V30 32431 H 3087.42 2.11859 0.151486 0
M  V30 32432 H 3089.69 0.939068 0.129829 0
M  V30 32433 H 3089.39 3.35322 1.06077 0
M  V30 32434 H 3089.27 2.66458 2.66983 0
M  V30 32435 H 3091.65 1.70842 2.40618 0
M  V30 32436 H 3091.74 2.43183 0.793439 0
M  V30 32437 H 3091.38 4.73643 1.83372 0
M  V30 32438 H 3091.31 3.9819 3.44604 0
M  V30 32439 H 3093.8 3.10526 2.15364 0
M  V30 32440 H 3094.11 6.68574 3.87593 0
M  V30 32441 H 3092.46 6.00918 3.49174 0
M  V30 32442 H 3095.65 3.89384 2.59803 0
M  V30 32443 H 3095.82 5.52645 3.3836 0
M  V30 32444 N 3089.23 -1.00115 1.21716 0
M  V30 32445 C 3090.18 -2.08967 0.979874 0
M  V30 32446 C 3091.15 -1.65825 -0.0955033 0
M  V30 32447 O 3092.33 -1.90728 0.0524077 0
M  V30 32448 C 3089.47 -3.40611 0.554817 0
M  V30 32449 C 3088.58 -3.97142 1.70006 0
M  V30 32450 C 3087.72 -5.16911 1.22379 0
M  V30 32451 C 3086.76 -5.6556 2.34111 0
M  V30 32452 N 3085.89 -6.76575 1.87591 0
M  V30 32453 H 3090.73 -2.28599 1.91171 0
M  V30 32454 H 3088.27 -1.12083 0.952665 0
M  V30 32455 H 3090.23 -4.16194 0.289599 0
M  V30 32456 H 3088.86 -3.21004 -0.340016 0
M  V30 32457 H 3087.91 -3.18509 2.07981 0
M  V30 32458 H 3089.22 -4.29237 2.54082 0
M  V30 32459 H 3088.38 -5.99753 0.915463 0
M  V30 32460 H 3087.12 -4.8642 0.353131 0
M  V30 32461 H 3086.12 -4.81312 2.65743 0
M  V30 32462 H 3087.35 -5.98079 3.2168 0
M  V30 32463 H 3085.29 -6.47883 1.02874 0
M  V30 32464 H 3085.21 -7.07944 2.65237 0
M  V30 32465 H 3086.48 -7.62944 1.59803 0
M  V30 32466 N 3090.71 -1.02553 -1.19669 0
M  V30 32467 C 3091.95 -0.720035 -1.89266 0
M  V30 32468 C 3092.28 0.751095 -1.79412 0
M  V30 32469 O 3091.54 1.56228 -1.17861 0
M  V30 32470 C 3091.84 -1.11247 -3.39645 0
M  V30 32471 C 3091.5 -2.58131 -3.69701 0
M  V30 32472 C 3090.16 -2.98263 -3.77615 0
M  V30 32473 C 3092.52 -3.53178 -3.83295 0
M  V30 32474 C 3089.84 -4.32361 -3.96587 0
M  V30 32475 C 3092.2 -4.86975 -4.03779 0
M  V30 32476 C 3090.86 -5.268 -4.09924 0
M  V30 32477 H 3090.13 -0.26348 -0.692575 0
M  V30 32478 H 3092.78 -1.28776 -1.41736 0
M  V30 32479 H 3091.08 -0.463303 -3.89051 0
M  V30 32480 H 3092.78 -0.853671 -3.91808 0
M  V30 32481 H 3089.37 -2.2604 -3.64148 0
M  V30 32482 H 3093.55 -3.23327 -3.76528 0
M  V30 32483 H 3088.81 -4.62757 -3.99582 0
M  V30 32484 H 3092.98 -5.60541 -4.1324 0
M  V30 32485 H 3090.61 -6.3072 -4.24378 0
M  V30 32486 N 3092.19 1.35612 -0.802945 0
M  V30 32487 C 3093.43 1.99166 -0.382176 0
M  V30 32488 C 3093.76 1.63558 1.04701 0
M  V30 32489 O 3093.04 0.89709 1.72576 0
M  V30 32490 C 3093.32 3.55694 -0.561556 0
M  V30 32491 C 3093.18 4.01112 -2.03541 0
M  V30 32492 C 3094.49 4.40097 0.0150361 0
M  V30 32493 H 3091.61 0.723516 -0.140335 0
M  V30 32494 H 3094.26 1.60818 -1.0118 0
M  V30 32495 H 3092.41 3.88492 -0.0255766 0
M  V30 32496 H 3094.08 3.78741 -2.63349 0
M  V30 32497 H 3092.32 3.52155 -2.53317 0
M  V30 32498 H 3092.99 5.10006 -2.11182 0
M  V30 32499 H 3095.47 4.13739 -0.442655 0
M  V30 32500 H 3094.34 5.4872 -0.140412 0
M  V30 32501 H 3094.6 4.2798 1.1084 0
M  V30 32502 N 3093.66 0.556128 1.47462 0
M  V30 32503 C 3095.08 0.215818 1.58134 0
M  V30 32504 C 3095.28 -1.28163 1.55488 0
M  V30 32505 O 3094.34 -2.06172 1.45772 0
M  V30 32506 C 3095.65 0.841515 2.88685 0
M  V30 32507 C 3097.2 0.812644 3.02267 0
M  V30 32508 C 3097.67 1.41739 4.35516 0
M  V30 32509 N 3099.16 1.38053 4.42149 0
M  V30 32510 C 3099.9 1.81809 5.43814 0
M  V30 32511 N 3099.39 2.33416 6.52295 0
M  V30 32512 N 3101.19 1.72886 5.34852 0
M  V30 32513 H 3093.34 1.52904 1.47425 0
M  V30 32514 H 3095.6 0.637571 0.701575 0
M  V30 32515 H 3095.31 1.89386 2.96354 0
M  V30 32516 H 3095.18 0.333912 3.75719 0
M  V30 32517 H 3097.57 -0.231004 2.94194 0
M  V30 32518 H 3097.65 1.35799 2.16777 0
M  V30 32519 H 3097.29 2.4601 4.44344 0
M  V30 32520 H 3097.22 0.847493 5.19736 0
M  V30 32521 H 3099.71 1.00302 3.64346 0
M  V30 32522 H 3100.03 2.6473 7.26043 0
M  V30 32523 H 3098.37 2.37426 6.53188 0
M  V30 32524 H 3101.56 1.32346 4.49001 0
M  V30 32525 H 3101.74 2.07305 6.13945 0
M  V30 32526 N 3095.14 -1.54861 0.292527 0
M  V30 32527 C 3096.42 -1.92032 -0.371912 0
M  V30 32528 C 3096.8 -1.21881 -1.72361 0
M  V30 32529 O 3096.15 -0.351613 -2.25779 0
M  V30 32530 C 3096.36 -3.45472 -0.494966 0
M  V30 32531 C 3097.7 -4.17564 -0.769782 0
M  V30 32532 O 3098.73 -3.51461 -0.579106 0
M  V30 32533 O 3097.59 -5.34573 -1.13551 0
M  V30 32534 H 3094.68 -0.800817 -0.206449 0
M  V30 32535 H 3097.23 -1.6626 0.339962 0
M  V30 32536 H 3096 -3.88639 0.455596 0
M  V30 32537 H 3095.62 -3.77253 -1.25564 0
M  V30 32538 N 3096.62 -0.0200973 -1.57587 0
M  V30 32539 C 3097.58 0.94973 -2.08597 0
M  V30 32540 C 3098.58 1.25984 -0.999237 0
M  V30 32541 O 3099.77 1.20168 -1.26117 0
M  V30 32542 C 3096.9 2.2689 -2.54428 0
M  V30 32543 H 3098.1 0.50811 -2.95564 0
M  V30 32544 H 3095.65 0.227771 -1.54631 0
M  V30 32545 H 3096.39 2.757 -1.70763 0
M  V30 32546 H 3096.17 2.05696 -3.33813 0
M  V30 32547 H 3097.66 2.96422 -2.94149 0
M  V30 32548 N 3098.1 1.55557 0.252939 0
M  V30 32549 C 3099.51 1.47846 0.601154 0
M  V30 32550 C 3099.71 0.709088 1.88611 0
M  V30 32551 O 3098.77 0.236008 2.51395 0
M  V30 32552 C 3100.08 2.9221 0.709488 0
M  V30 32553 C 3101.63 3.02545 0.802215 0
M  V30 32554 C 3102.11 4.48205 0.942161 0
M  V30 32555 N 3103.6 4.52117 1.00718 0
M  V30 32556 C 3104.33 5.62062 1.13462 0
M  V30 32557 N 3103.83 6.8183 1.22799 0
M  V30 32558 N 3105.62 5.49846 1.16731 0
M  V30 32559 H 3097.77 2.04022 -0.590671 0
M  V30 32560 H 3100.03 0.92601 -0.203002 0
M  V30 32561 H 3099.74 3.51315 -0.164566 0
M  V30 32562 H 3099.61 3.42358 1.58337 0
M  V30 32563 H 3102 2.43525 1.66673 0
M  V30 32564 H 3102.08 2.55617 -0.0966918 0
M  V30 32565 H 3101.73 5.07833 0.0822316 0
M  V30 32566 H 3101.66 4.92808 1.85602 0
M  V30 32567 H 3104.15 3.65852 0.94662 0
M  V30 32568 H 3104.46 7.61372 1.32413 0
M  V30 32569 H 3102.81 6.84603 1.19767 0
M  V30 32570 H 3106 4.55213 1.09081 0
M  V30 32571 H 3106.17 6.35569 1.26318 0
M  V30 32572 N 3099.58 -0.518341 1.48832 0
M  V30 32573 C 3100.81 -1.29609 1.60889 0
M  V30 32574 C 3101.21 -1.87224 0.272746 0
M  V30 32575 O 3100.56 -1.67709 -0.749624 0
M  V30 32576 C 3100.62 -2.47702 2.60545 0
M  V30 32577 C 3100.28 -2.11088 4.05328 0
M  V30 32578 C 3101.28 -1.66075 4.92661 0
M  V30 32579 C 3098.96 -2.21254 4.50946 0
M  V30 32580 C 3100.96 -1.31709 6.23644 0
M  V30 32581 C 3098.65 -1.865 5.81946 0
M  V30 32582 C 3099.64 -1.418 6.68118 0
M  V30 32583 O 3099.33 -1.07508 7.96679 0
M  V30 32584 H 3099.06 -0.399972 0.544975 0
M  V30 32585 H 3101.62 -0.630765 1.95475 0
M  V30 32586 H 3099.85 -3.17254 2.21103 0
M  V30 32587 H 3101.54 -3.09752 2.62313 0
M  V30 32588 H 3102.3 -1.57681 4.58652 0
M  V30 32589 H 3098.18 -2.55 3.84052 0
M  V30 32590 H 3101.73 -0.967476 6.90859 0
M  V30 32591 H 3097.62 -1.94538 6.15488 0
M  V30 32592 H 3098.39 -1.20805 8.09536 0
M  V30 32593 N 3101.05 -1.37615 -0.7681 0
M  V30 32594 C 3102.46 -1.29528 -1.3446 0
M  V30 32595 C 3102.82 0.0554824 -1.96122 0
M  V30 32596 O 3101.94 0.957371 -1.94071 0
M  V30 32597 C 3102.54 -2.34563 -2.44471 0
M  V30 32598 C 3101.09 -2.30098 -2.97879 0
M  V30 32599 C 3100.24 -2.18199 -1.71128 0
M  V30 32600 H 3103.19 -1.48184 -0.568077 0
M  V30 32601 H 3103.21 -1.99439 -3.24043 0
M  V30 32602 H 3102.73 -3.32861 -1.99562 0
M  V30 32603 H 3100.83 -1.35334 -3.47153 0
M  V30 32604 H 3100.94 -3.23659 -3.53245 0
M  V30 32605 H 3099.3 -1.64805 -1.94194 0
M  V30 32606 H 3100.09 -3.18417 -1.28318 0
M  V30 32607 N 3102.53 0.994677 -1.22245 0
M  V30 32608 C 3103.78 1.73397 -1.04594 0
M  V30 32609 C 3104.11 1.89929 0.419189 0
M  V30 32610 O 3103.36 1.43827 1.32712 0
M  V30 32611 C 3103.66 3.14369 -1.7002 0
M  V30 32612 C 3103.33 3.17756 -3.19909 0
M  V30 32613 C 3101.99 3.18388 -3.60808 0
M  V30 32614 C 3104.34 3.14186 -4.15856 0
M  V30 32615 C 3101.67 3.13148 -4.9614 0
M  V30 32616 C 3104.02 3.10488 -5.51162 0
M  V30 32617 C 3102.68 3.09434 -5.91445 0
M  V30 32618 H 3101.95 0.634503 -0.382736 0
M  V30 32619 H 3104.6 1.16505 -1.51983 0
M  V30 32620 H 3102.91 3.74558 -1.14951 0
M  V30 32621 H 3104.6 3.70311 -1.53854 0
M  V30 32622 H 3101.19 3.18014 -2.87342 0
M  V30 32623 H 3105.38 3.1285 -3.85277 0
M  V30 32624 H 3100.63 3.10676 -5.26584 0
M  V30 32625 H 3104.81 3.06681 -6.25236 0
M  V30 32626 H 3102.43 3.05129 -6.96276 0
M  V30 32627 N 3104.01 1.03186 1.19123 0
M  V30 32628 C 3104.94 0.635928 2.24674 0
M  V30 32629 C 3105.92 -0.356536 1.66321 0
M  V30 32630 O 3107.11 -0.238591 1.92729 0
M  V30 32631 C 3104.24 -0.011008 3.47298 0
M  V30 32632 C 3103.19 0.904053 4.18343 0
M  V30 32633 C 3102.52 0.122064 5.34561 0
M  V30 32634 C 3103.82 2.21915 4.72812 0
M  V30 32635 H 3105.51 1.51829 2.58047 0
M  V30 32636 H 3103.06 0.731482 1.24038 0
M  V30 32637 H 3105.01 -0.299656 4.20333 0
M  V30 32638 H 3103.73 -0.92819 3.13133 0
M  V30 32639 H 3102.39 1.17694 3.47194 0
M  V30 32640 H 3102.04 -0.797247 4.96642 0
M  V30 32641 H 3101.74 0.7316 5.83028 0
M  V30 32642 H 3103.26 -0.159773 6.10391 0
M  V30 32643 H 3104.68 1.99182 5.37587 0
M  V30 32644 H 3103.07 2.78088 5.31778 0
M  V30 32645 H 3104.14 2.87175 3.90715 0
M  V30 32646 N 3105.49 -1.35184 0.810125 0
M  V30 32647 C 3106.73 -1.98961 0.392733 0
M  V30 32648 C 3107.07 -1.64111 -1.03832 0
M  V30 32649 O 3106.34 -0.90623 -1.72098 0
M  V30 32650 C 3106.63 -3.55392 0.580411 0
M  V30 32651 C 3106.48 -4.00027 2.05666 0
M  V30 32652 C 3107.8 -4.40099 0.00830353 0
M  V30 32653 H 3104.92 -0.722761 0.14417 0
M  V30 32654 H 3107.56 -1.6028 1.02032 0
M  V30 32655 H 3105.71 -3.88473 0.0461789 0
M  V30 32656 H 3107.38 -3.77339 2.65354 0
M  V30 32657 H 3105.62 -3.50807 2.55181 0
M  V30 32658 H 3106.29 -5.08879 2.13884 0
M  V30 32659 H 3108.77 -4.13498 0.46459 0
M  V30 32660 H 3107.65 -5.48638 0.16951 0
M  V30 32661 H 3107.91 -4.28562 -1.08569 0
M  V30 32662 N 3106.97 -0.56394 -1.47165 0
M  V30 32663 C 3107.92 0.20051 -2.27117 0
M  V30 32664 C 3108.9 0.879154 -1.34758 0
M  V30 32665 O 3110.09 0.776349 -1.59065 0
M  V30 32666 C 3107.22 1.22559 -3.20678 0
M  V30 32667 C 3106.31 0.550018 -4.20518 0
M  V30 32668 N 3106.7 -0.383751 -5.04342 0
M  V30 32669 C 3105 0.803109 -4.3871 0
M  V30 32670 C 3105.7 -0.776819 -5.7649 0
M  V30 32671 N 3104.67 -0.130142 -5.43444 0
M  V30 32672 H 3108.48 -0.517326 -2.89311 0
M  V30 32673 H 3105.99 -0.384362 -1.57786 0
M  V30 32674 H 3107.99 1.78726 -3.76646 0
M  V30 32675 H 3106.65 1.94445 -2.60041 0
M  V30 32676 H 3107.66 -0.758282 -5.12319 0
M  V30 32677 H 3104.33 1.50997 -3.89238 0
M  V30 32678 H 3105.72 -1.54449 -6.53908 0
M  V30 32679 N 3108.44 1.54704 -0.300735 0
M  V30 32680 C 3109.86 1.85711 0.191962 0
M  V30 32681 C 3110.21 1.22267 1.53445 0
M  V30 32682 O 3109.33 0.520263 2.10053 0
M  V30 32683 C 3109.93 3.36934 0.355089 0
M  V30 32684 C 3108.49 3.67973 0.792006 0
M  V30 32685 C 3107.63 2.7712 -0.0998048 0
M  V30 32686 H 3110.58 1.49878 -0.521756 0
M  V30 32687 H 3110.6 3.61423 1.1897 0
M  V30 32688 H 3110.12 3.83081 -0.622143 0
M  V30 32689 H 3108.22 3.27344 1.7798 0
M  V30 32690 H 3108.33 4.75181 0.611578 0
M  V30 32691 H 3106.69 2.51199 0.420864 0
M  V30 32692 H 3107.48 3.26088 -1.07339 0
M  V30 32693 N 3109.92 0.0284543 1.57574 0
M  V30 32694 C 3111.17 -0.651294 1.92057 0
M  V30 32695 C 3111.5 -1.71817 0.905122 0
M  V30 32696 O 3110.78 -1.94366 -0.0722362 0
M  V30 32697 C 3111.06 -1.26835 3.37024 0
M  V30 32698 C 3110.91 -0.211078 4.49304 0
M  V30 32699 C 3112.23 -2.18656 3.81939 0
M  V30 32700 H 3109.35 -0.235292 0.698432 0
M  V30 32701 H 3111.99 0.0855769 1.89807 0
M  V30 32702 H 3110.14 -1.89638 3.39072 0
M  V30 32703 H 3111.81 0.41946 4.59389 0
M  V30 32704 H 3110.06 0.463521 4.31316 0
M  V30 32705 H 3110.73 -0.682422 5.47765 0
M  V30 32706 H 3113.2 -1.6584 3.81623 0
M  V30 32707 H 3112.08 -2.58784 4.84068 0
M  V30 32708 H 3112.34 -3.07744 3.17405 0
M  V30 32709 N 3111.4 -1.55689 -0.244686 0
M  V30 32710 C 3112.33 -1.85476 -1.32943 0
M  V30 32711 C 3113.31 -0.710047 -1.46277 0
M  V30 32712 O 3114.5 -0.956032 -1.62457 0
M  V30 32713 C 3111.62 -2.04142 -2.70266 0
M  V30 32714 C 3110.67 -3.26785 -2.74069 0
M  V30 32715 S 3111.5 -4.83374 -2.30456 0
M  V30 32716 C 3112.66 -5.05047 -3.697 0
M  V30 32717 H 3112.89 -2.77193 -1.07477 0
M  V30 32718 H 3110.42 -1.47825 -0.445781 0
M  V30 32719 H 3112.38 -2.1558 -3.49336 0
M  V30 32720 H 3111.04 -1.13264 -2.92968 0
M  V30 32721 H 3110.24 -3.36818 -3.74926 0
M  V30 32722 H 3109.84 -3.14084 -2.03045 0
M  V30 32723 H 3112.13 -4.92527 -4.65214 0
M  V30 32724 H 3113.07 -6.0702 -3.64599 0
M  V30 32725 H 3113.48 -4.32883 -3.62315 0
M  V30 32726 N 3112.88 0.510441 -1.49105 0
M  V30 32727 C 3114.16 1.27177 -1.48612 0
M  V30 32728 C 3114.54 2.10067 -0.208574 0
M  V30 32729 O 3113.88 2.13688 0.809297 0
M  V30 32730 C 3114.09 2.13656 -2.75957 0
M  V30 32731 C 3115.44 2.73155 -3.25071 0
M  V30 32732 O 3116.47 2.23929 -2.77009 0
M  V30 32733 O 3115.32 3.62744 -4.08753 0
M  V30 32734 H 3112.42 0.57501 -0.594384 0
M  V30 32735 H 3114.96 0.525487 -1.61359 0
M  V30 32736 H 3113.74 1.52319 -3.60437 0
M  V30 32737 H 3113.36 2.95494 -2.66025 0
M  V30 32738 N 3114.36 1.38021 0.760791 0
M  V30 32739 C 3115.29 1.29044 1.8821 0
M  V30 32740 C 3116.27 0.168833 1.61721 0
M  V30 32741 O 3117.45 0.344925 1.85317 0
M  V30 32742 C 3114.58 0.997759 3.2367 0
M  V30 32743 C 3113.62 2.13775 3.69056 0
M  V30 32744 S 3114.46 3.75852 3.81439 0
M  V30 32745 C 3115.61 3.48757 5.1973 0
M  V30 32746 H 3115.85 2.23947 1.95537 0
M  V30 32747 H 3113.38 1.23772 0.92303 0
M  V30 32748 H 3115.34 0.835728 4.01903 0
M  V30 32749 H 3114 0.0660222 3.14031 0
M  V30 32750 H 3113.19 1.88824 4.67291 0
M  V30 32751 H 3112.79 2.26048 2.97957 0
M  V30 32752 H 3115.09 3.04425 6.05254 0
M  V30 32753 H 3116.03 4.4636 5.49698 0
M  V30 32754 H 3116.44 2.83433 4.88186 0
M  V30 32755 N 3115.83 -0.98818 1.22771 0
M  V30 32756 C 3117.06 -1.76914 1.08242 0
M  V30 32757 C 3117.48 -1.84574 -0.362487 0
M  V30 32758 O 3116.84 -1.30167 -1.26199 0
M  V30 32759 C 3116.89 -3.17816 1.70368 0
M  V30 32760 O 3115.99 -4.01057 0.960555 0
M  V30 32761 H 3115.34 -0.544597 0.379882 0
M  V30 32762 H 3117.87 -1.24101 1.62666 0
M  V30 32763 H 3117.88 -3.68427 1.75287 0
M  V30 32764 H 3116.55 -3.11555 2.75511 0
M  V30 32765 H 3115.13 -3.59581 0.98773 0
M  V30 32766 N 3117.31 -1.03816 -1.18575 0
M  V30 32767 C 3118.26 -0.620717 -2.24165 0
M  V30 32768 C 3119.25 0.351253 -1.65718 0
M  V30 32769 O 3120.46 0.218817 -1.78665 0
M  V30 32770 H 3116.84 -0.1825 -0.729519 0
M  V30 32771 H 3118.81 -1.52171 -2.56684 0
M  V30 32772 C 3117.56 0.00301219 -3.477 0
M  V30 32773 H 3116.88 -0.735944 -3.92968 0
M  V30 32774 H 3118.32 0.257914 -4.23215 0
M  V30 32775 C 3116.78 1.25234 -3.12759 0
M  V30 32776 O 3117.31 2.34338 -3.26265 0
M  V30 32777 N 3115.51 1.14466 -2.67106 0
M  V30 32778 H 3115.06 0.256828 -2.56317 0
M  V30 32779 H 3115.02 1.98148 -2.44099 0
M  V30 32780 N 3118.79 1.34753 -0.817283 0
M  V30 32781 C 3120.04 1.97712 -0.399115 0
M  V30 32782 C 3120.35 1.65535 1.042 0
M  V30 32783 O 3121.56 2.2194 1.5638 0
M  V30 32784 C 3120.01 3.53746 -0.662696 0
M  V30 32785 C 3119.62 3.94822 -2.11706 0
M  V30 32786 C 3121.37 4.23364 -0.310414 0
M  V30 32787 C 3119.27 5.43746 -2.32582 0
M  V30 32788 H 3118.2 0.739828 -0.145501 0
M  V30 32789 H 3120.85 1.53673 -1.00284 0
M  V30 32790 H 3119.24 3.95998 0.0111276 0
M  V30 32791 H 3120.41 3.63692 -2.82957 0
M  V30 32792 H 3118.73 3.38125 -2.43023 0
M  V30 32793 H 3121.32 5.32851 -0.444304 0
M  V30 32794 H 3121.67 4.09588 0.744522 0
M  V30 32795 H 3122.2 3.86569 -0.938586 0
M  V30 32796 H 3118.94 5.62501 -3.36561 0
M  V30 32797 H 3118.46 5.7641 -1.65868 0
M  V30 32798 H 3120.14 6.10352 -2.14662 0
M  V30 32799 N 3120.27 0.571737 1.46864 0
M  V30 32800 C 3121.22 -0.188463 2.2722 0
M  V30 32801 C 3122.2 -0.871995 1.35222 0
M  V30 32802 O 3123.4 -0.767902 1.59475 0
M  V30 32803 C 3120.52 -1.20857 3.21323 0
M  V30 32804 C 3119.61 -0.527709 4.20804 0
M  V30 32805 N 3120 0.410492 5.04132 0
M  V30 32806 C 3118.3 -0.779832 4.39129 0
M  V30 32807 C 3119 0.807381 5.7607 0
M  V30 32808 N 3117.98 0.15896 5.43368 0
M  V30 32809 H 3121.78 0.532662 2.89033 0
M  V30 32810 H 3119.29 0.392724 1.5758 0
M  V30 32811 H 3121.29 -1.76726 3.77589 0
M  V30 32812 H 3119.95 -1.93063 2.61069 0
M  V30 32813 H 3120.96 0.785441 5.11909 0
M  V30 32814 H 3117.64 -1.4893 3.90033 0
M  V30 32815 H 3119.03 1.57915 6.53079 0
M  V30 32816 N 3121.75 -1.54542 0.308935 0
M  V30 32817 C 3122.66 -2.27497 -0.572899 0
M  V30 32818 C 3123.67 -1.31307 -1.14169 0
M  V30 32819 O 3124.85 -1.64301 -1.16478 0
M  V30 32820 C 3121.91 -3.00753 -1.72478 0
M  V30 32821 C 3120.98 -4.12498 -1.18927 0
M  V30 32822 C 3120.21 -4.82251 -2.28626 0
M  V30 32823 O 3120.43 -4.51416 -3.48683 0
M  V30 32824 O 3119.37 -5.69482 -1.94869 0
M  V30 32825 H 3123.19 -3.03694 0.0191411 0
M  V30 32826 H 3120.78 -1.49211 0.0751205 0
M  V30 32827 H 3122.66 -3.46675 -2.39571 0
M  V30 32828 H 3121.33 -2.27444 -2.30328 0
M  V30 32829 H 3120.24 -3.70958 -0.483839 0
M  V30 32830 H 3121.57 -4.87808 -0.6561 0
M  V30 32831 N 3123.23 -0.0368104 -1.57557 0
M  V30 32832 C 3124.45 0.653673 -1.9683 0
M  V30 32833 C 3124.88 1.64424 -0.913588 0
M  V30 32834 O 3124.23 1.80871 0.124717 0
M  V30 32835 C 3124.28 1.32964 -3.35191 0
M  V30 32836 O 3123.39 2.44507 -3.32099 0
M  V30 32837 H 3122.73 0.171113 -0.641573 0
M  V30 32838 H 3125.26 -0.100947 -2.04351 0
M  V30 32839 H 3125.27 1.68465 -3.71596 0
M  V30 32840 H 3123.94 0.603582 -4.11497 0
M  V30 32841 H 3122.52 2.1106 -3.07422 0
M  V30 32842 N 3124.7 1.55817 0.236426 0
M  V30 32843 C 3125.95 1.77338 0.96095 0
M  V30 32844 C 3126.27 0.602674 1.86084 0
M  V30 32845 O 3127.47 0.701152 2.6229 0
M  V30 32846 C 3125.93 3.13998 1.75879 0
M  V30 32847 C 3125.54 4.38748 0.905772 0
M  V30 32848 C 3127.28 3.44853 2.47542 0
M  V30 32849 C 3125.19 5.66437 1.7001 0
M  V30 32850 H 3124.12 0.661124 0.362535 0
M  V30 32851 H 3126.77 1.82233 0.215271 0
M  V30 32852 H 3125.15 3.03238 2.54681 0
M  V30 32853 H 3126.32 4.60524 0.159334 0
M  V30 32854 H 3124.64 4.15304 0.301977 0
M  V30 32855 H 3127.24 4.37473 3.07444 0
M  V30 32856 H 3127.58 2.6666 3.19684 0
M  V30 32857 H 3128.11 3.56875 1.75741 0
M  V30 32858 H 3124.85 6.4748 1.02222 0
M  V30 32859 H 3124.37 5.48745 2.42154 0
M  V30 32860 H 3126.05 6.06074 2.26458 0
M  V30 32861 N 3126.18 -0.502526 1.49373 0
M  V30 32862 C 3127.6 -0.833567 1.36102 0
M  V30 32863 C 3127.8 -1.97631 0.392946 0
M  V30 32864 O 3126.85 -2.51886 -0.175931 0
M  V30 32865 C 3128.17 -1.17521 2.76784 0
M  V30 32866 C 3129.71 -1.28351 2.85473 0
M  V30 32867 C 3130.19 -1.65845 4.26918 0
M  V30 32868 N 3131.68 -1.72897 4.29722 0
M  V30 32869 C 3132.42 -2.0335 5.36131 0
M  V30 32870 N 3131.91 -2.32038 6.52787 0
M  V30 32871 N 3133.7 -2.04588 5.23546 0
M  V30 32872 H 3125.86 0.251046 2.10911 0
M  V30 32873 H 3128.12 0.0497203 0.946695 0
M  V30 32874 H 3127.82 -0.408903 3.49315 0
M  V30 32875 H 3127.7 -2.11901 3.12054 0
M  V30 32876 H 3130.09 -2.04054 2.1318 0
M  V30 32877 H 3130.17 -0.320259 2.53787 0
M  V30 32878 H 3129.81 -0.906934 4.99737 0
M  V30 32879 H 3129.74 -2.63268 4.56068 0
M  V30 32880 H 3132.23 -1.52894 3.45589 0
M  V30 32881 H 3132.54 -2.54458 7.29706 0
M  V30 32882 H 3130.89 -2.29497 6.56015 0
M  V30 32883 H 3134.08 -1.81652 4.31416 0
M  V30 32884 H 3134.25 -2.27988 6.06569 0
M  V30 32885 N 3127.66 -1.38422 -0.75346 0
M  V30 32886 C 3128.91 -1.35842 -1.51389 0
M  V30 32887 C 3129.26 0.051318 -1.92332 0
M  V30 32888 O 3128.55 1.01398 -1.6257 0
M  V30 32889 C 3128.75 -2.24821 -2.77832 0
M  V30 32890 C 3128.58 -3.74305 -2.4925 0
M  V30 32891 C 3127.35 -4.43328 -2.42463 0
M  V30 32892 C 3129.54 -4.66734 -2.16018 0
M  V30 32893 N 3127.53 -5.78249 -2.06158 0
M  V30 32894 C 3128.9 -5.90168 -1.90005 0
M  V30 32895 C 3130.95 -4.54937 -2.02329 0
M  V30 32896 C 3129.66 -7.03125 -1.51684 0
M  V30 32897 C 3131.68 -5.67797 -1.65409 0
M  V30 32898 C 3131.04 -6.90293 -1.40269 0
M  V30 32899 H 3127.14 -0.552363 -0.553551 0
M  V30 32900 H 3129.73 -1.73811 -0.877379 0
M  V30 32901 H 3127.9 -1.8904 -3.39291 0
M  V30 32902 H 3129.63 -2.13365 -3.43886 0
M  V30 32903 H 3126.38 -3.96545 -2.58939 0
M  V30 32904 H 3126.81 -6.49601 -1.9065 0
M  V30 32905 H 3131.45 -3.60785 -2.20441 0
M  V30 32906 H 3129.17 -7.97195 -1.32311 0
M  V30 32907 H 3132.75 -5.60649 -1.55449 0
M  V30 32908 H 3131.63 -7.76143 -1.12125 0
M  V30 32909 N 3129.14 0.981655 -1.23294 0
M  V30 32910 C 3130.37 1.75803 -1.09091 0
M  V30 32911 C 3130.78 1.8538 0.357714 0
M  V30 32912 O 3130.14 1.33207 1.24748 0
M  V30 32913 C 3130.19 3.18557 -1.7089 0
M  V30 32914 O 3129.91 3.09479 -3.10088 0
M  V30 32915 C 3131.41 4.12595 -1.62113 0
M  V30 32916 H 3128.63 0.551754 -0.381849 0
M  V30 32917 H 3131.17 1.23339 -1.63118 0
M  V30 32918 H 3129.33 3.68052 -1.20899 0
M  V30 32919 H 3129.74 3.99336 -3.40046 0
M  V30 32920 H 3131.22 5.1047 -2.10058 0
M  V30 32921 H 3131.69 4.35357 -0.579719 0
M  V30 32922 H 3132.3 3.69003 -2.11464 0
M  V30 32923 N 3130.62 1.04444 1.18022 0
M  V30 32924 C 3131.56 0.638798 2.21784 0
M  V30 32925 C 3132.53 -0.355284 1.62256 0
M  V30 32926 O 3133.72 -0.248407 1.89176 0
M  V30 32927 C 3130.86 0.0118609 3.45098 0
M  V30 32928 C 3129.97 1.05386 4.18948 0
M  V30 32929 C 3129.11 0.395044 5.29729 0
M  V30 32930 C 3128.14 1.42188 5.95356 0
M  V30 32931 N 3127.28 0.787758 6.97667 0
M  V30 32932 H 3132.12 1.52813 2.55836 0
M  V30 32933 H 3129.66 0.7644 1.2568 0
M  V30 32934 H 3131.62 -0.369002 4.15565 0
M  V30 32935 H 3130.25 -0.840966 3.11653 0
M  V30 32936 H 3129.3 1.55264 3.47271 0
M  V30 32937 H 3130.61 1.83363 4.63874 0
M  V30 32938 H 3129.76 -0.0398177 6.06687 0
M  V30 32939 H 3128.5 -0.416782 4.85916 0
M  V30 32940 H 3127.51 1.86684 5.17136 0
M  V30 32941 H 3128.73 2.23547 6.41251 0
M  V30 32942 H 3126.68 -0.00369362 6.56 0
M  V30 32943 H 3126.6 1.50518 7.40865 0
M  V30 32944 H 3127.86 0.377418 7.78586 0
M  V30 32945 N 3132.09 -1.34317 0.824418 0
M  V30 32946 C 3133.37 -1.92697 0.335726 0
M  V30 32947 C 3133.75 -1.75234 -1.17712 0
M  V30 32948 O 3133.1 -1.13198 -1.98491 0
M  V30 32949 C 3133.31 -3.40474 0.766706 0
M  V30 32950 C 3134.66 -4.17626 0.766397 0
M  V30 32951 O 3135.68 -3.49065 0.709382 0
M  V30 32952 O 3134.54 -5.39991 0.840951 0
M  V30 32953 H 3131.63 -0.821865 0.092014 0
M  V30 32954 H 3134.18 -1.43282 0.909308 0
M  V30 32955 H 3132.95 -3.46992 1.80865 0
M  V30 32956 H 3132.57 -3.97241 0.168902 0
M  V30 32957 N 3133.57 -0.579517 -1.46558 0
M  V30 32958 C 3134.98 -0.152084 -1.8608 0
M  V30 32959 C 3135.33 1.28402 -1.48348 0
M  V30 32960 O 3134.46 1.96939 -0.896885 0
M  V30 32961 C 3135.05 -0.26923 -3.37729 0
M  V30 32962 C 3133.61 0.10331 -3.76258 0
M  V30 32963 C 3132.76 -0.606638 -2.70583 0
M  V30 32964 H 3135.71 -0.787928 -1.37758 0
M  V30 32965 H 3135.73 0.506273 -3.77117 0
M  V30 32966 H 3135.24 -1.31455 -3.65159 0
M  V30 32967 H 3133.34 1.14889 -3.54445 0
M  V30 32968 H 3133.46 -0.270785 -4.78334 0
M  V30 32969 H 3131.82 -0.0472431 -2.54656 0
M  V30 32970 H 3132.6 -1.65354 -3.00853 0
M  V30 32971 N 3135.05 1.54376 -0.317127 0
M  V30 32972 C 3136.47 1.5956 0.035738 0
M  V30 32973 C 3136.67 1.33381 1.51036 0
M  V30 32974 O 3135.72 1.11509 2.26544 0
M  V30 32975 C 3137.04 2.98331 -0.376705 0
M  V30 32976 C 3138.58 3.11289 -0.32682 0
M  V30 32977 C 3139.06 4.52395 -0.714327 0
M  V30 32978 N 3140.55 4.58365 -0.667483 0
M  V30 32979 C 3141.28 5.65649 -0.939594 0
M  V30 32980 N 3140.78 6.80901 -1.27851 0
M  V30 32981 N 3142.57 5.55395 -0.865582 0
M  V30 32982 H 3134.72 1.69651 -1.27797 0
M  V30 32983 H 3136.99 0.793171 -0.519214 0
M  V30 32984 H 3136.69 3.22466 -1.40386 0
M  V30 32985 H 3136.57 3.76292 0.261544 0
M  V30 32986 H 3138.95 2.86893 0.69112 0
M  V30 32987 H 3139.04 2.35447 -0.999915 0
M  V30 32988 H 3138.68 4.77523 -1.73015 0
M  V30 32989 H 3138.61 5.26597 -0.0189888 0
M  V30 32990 H 3141.1 3.75591 -0.417128 0
M  V30 32991 H 3141.41 7.58658 -1.47169 0
M  V30 32992 H 3139.76 6.82413 -1.3167 0
M  V30 32993 H 3142.95 4.64234 -0.600346 0
M  V30 32994 H 3143.12 6.3892 -1.08101 0
M  V30 32995 N 3136.53 0.0451655 1.57535 0
M  V30 32996 C 3137.48 -0.940793 2.07685 0
M  V30 32997 C 3138.46 -1.27556 0.980722 0
M  V30 32998 O 3139.65 -1.25899 1.24412 0
M  V30 32999 C 3136.78 -2.21773 2.62053 0
M  V30 33000 C 3135.87 -1.91062 3.78624 0
M  V30 33001 N 3136.26 -1.30685 4.88626 0
M  V30 33002 C 3134.56 -2.20965 3.87415 0
M  V30 33003 C 3135.26 -1.17468 5.69716 0
M  V30 33004 N 3134.24 -1.67557 5.17132 0
M  V30 33005 H 3138.04 -0.469216 2.9013 0
M  V30 33006 H 3135.55 -0.159443 1.61615 0
M  V30 33007 H 3137.55 -2.93297 2.96281 0
M  V30 33008 H 3136.21 -2.69543 1.81044 0
M  V30 33009 H 3137.22 -0.979818 5.08547 0
M  V30 33010 H 3133.9 -2.71297 3.17339 0
M  V30 33011 H 3135.29 -0.706456 6.68176 0
M  V30 33012 N 3138.01 -1.5594 -0.228159 0
M  V30 33013 C 3139.23 -1.82722 -0.970586 0
M  V30 33014 C 3139.65 -0.623417 -1.7821 0
M  V30 33015 O 3139.01 0.408032 -1.7788 0
M  V30 33016 C 3139.06 -3.07945 -1.89346 0
M  V30 33017 O 3138.78 -4.2368 -1.11476 0
M  V30 33018 C 3140.28 -3.47666 -2.75033 0
M  V30 33019 H 3137.5 -0.607579 -0.284762 0
M  V30 33020 H 3140.04 -2.03022 -0.245383 0
M  V30 33021 H 3138.2 -2.89639 -2.5727 0
M  V30 33022 H 3138.61 -4.94775 -1.74064 0
M  V30 33023 H 3140.09 -4.3834 -3.35503 0
M  V30 33024 H 3140.56 -2.69113 -3.47095 0
M  V30 33025 H 3141.17 -3.68388 -2.12533 0
M  V30 33026 N 3139.48 0.494597 -1.49638 0
M  V30 33027 C 3140.39 1.62169 -1.69524 0
M  V30 33028 C 3141.41 1.64122 -0.577923 0
M  V30 33029 O 3142.59 1.82425 -0.853414 0
M  V30 33030 C 3139.65 2.98507 -1.76336 0
M  V30 33031 C 3138.71 3.0713 -2.9995 0
M  V30 33032 C 3137.95 4.36965 -3.06426 0
M  V30 33033 O 3138.17 5.26132 -2.20322 0
M  V30 33034 O 3137.1 4.50693 -3.98948 0
M  V30 33035 H 3140.93 1.48319 -2.65019 0
M  V30 33036 H 3138.51 0.671579 -1.33455 0
M  V30 33037 H 3140.4 3.79527 -1.83132 0
M  V30 33038 H 3139.07 3.12605 -0.84021 0
M  V30 33039 H 3137.98 2.25274 -2.98667 0
M  V30 33040 H 3139.31 2.97961 -3.91765 0
M  V30 33041 N 3140.96 1.3882 0.746109 0
M  V30 33042 C 3142.24 1.25953 1.4965 0
M  V30 33043 C 3142.62 -0.135796 2.10663 0
M  V30 33044 O 3141.97 -1.14601 1.97684 0
M  V30 33045 C 3142.18 2.37541 2.55686 0
M  V30 33046 C 3143.53 2.76326 3.2238 0
M  V30 33047 O 3144.55 2.36909 2.65994 0
M  V30 33048 O 3143.41 3.44327 4.24384 0
M  V30 33049 H 3140.5 0.49297 0.66401 0
M  V30 33050 H 3143.05 1.50666 0.780882 0
M  V30 33051 H 3141.82 3.30871 2.08903 0
M  V30 33052 H 3141.44 2.14433 3.3482 0
M  V30 33053 N 3142.44 -0.975103 1.23812 0
M  V30 33054 C 3143.39 -2.05333 0.991072 0
M  V30 33055 C 3144.37 -1.60769 -0.0648511 0
M  V30 33056 O 3145.57 -1.76381 0.147948 0
M  V30 33057 C 3142.7 -3.38194 0.589882 0
M  V30 33058 C 3141.78 -3.89341 1.68149 0
M  V30 33059 N 3142.17 -4.13508 2.91282 0
M  V30 33060 C 3140.47 -4.17929 1.55729 0
M  V30 33061 C 3141.17 -4.5534 3.61995 0
M  V30 33062 N 3140.15 -4.60081 2.89528 0
M  V30 33063 H 3143.95 -2.21983 1.92616 0
M  V30 33064 H 3141.46 -1.1583 1.13829 0
M  V30 33065 H 3143.46 -4.15033 0.394148 0
M  V30 33066 H 3142.12 -3.22935 -0.3381 0
M  V30 33067 H 3143.13 -4.01175 3.27535 0
M  V30 33068 H 3139.81 -4.11644 0.696804 0
M  V30 33069 H 3141.2 -4.82512 4.67581 0
M  V30 33070 N 3143.92 -1.05068 -1.17467 0
M  V30 33071 C 3145.16 -0.761146 -1.87975 0
M  V30 33072 C 3145.5 0.709963 -1.80757 0
M  V30 33073 O 3144.77 1.51904 -1.21472 0
M  V30 33074 C 3145.06 -1.24066 -3.38053 0
M  V30 33075 C 3144.91 -2.77461 -3.54027 0
M  V30 33076 C 3146.23 -0.838688 -4.32035 0
M  V30 33077 H 3143.35 -0.277975 -0.682568 0
M  V30 33078 H 3145.99 -1.30445 -1.38145 0
M  V30 33079 H 3144.14 -0.778455 -3.80621 0
M  V30 33080 H 3145.81 -3.31796 -3.20483 0
M  V30 33081 H 3144.05 -3.16798 -2.96347 0
M  V30 33082 H 3144.72 -3.06074 -4.59372 0
M  V30 33083 H 3147.2 -1.23658 -3.97301 0
M  V30 33084 H 3146.08 -1.20183 -5.35581 0
M  V30 33085 H 3146.34 0.257421 -4.4135 0
M  V30 33086 N 3145.4 1.33878 -0.831529 0
M  V30 33087 C 3146.81 1.50947 -0.518375 0
M  V30 33088 C 3147.01 1.7739 0.955776 0
M  V30 33089 O 3146.07 1.82986 1.7399 0
M  V30 33090 C 3147.38 2.66886 -1.38536 0
M  V30 33091 C 3148.93 2.8077 -1.38337 0
M  V30 33092 C 3149.4 3.99762 -2.23504 0
M  V30 33093 N 3150.9 4.06985 -2.21174 0
M  V30 33094 C 3151.63 4.98234 -2.83814 0
M  V30 33095 N 3151.13 5.94649 -3.55478 0
M  V30 33096 N 3152.92 4.91173 -2.73323 0
M  V30 33097 H 3145.07 1.14975 -1.7859 0
M  V30 33098 H 3147.33 0.564619 -0.761518 0
M  V30 33099 H 3147.04 2.54003 -2.4326 0
M  V30 33100 H 3146.91 3.62112 -1.05617 0
M  V30 33101 H 3149.3 2.93089 -0.343884 0
M  V30 33102 H 3149.38 1.86328 -1.75259 0
M  V30 33103 H 3149.03 3.88203 -3.27507 0
M  V30 33104 H 3148.96 4.93435 -1.83928 0
M  V30 33105 H 3151.45 3.37979 -1.69052 0
M  V30 33106 H 3151.76 6.60924 -4.00499 0
M  V30 33107 H 3150.1 5.94747 -3.59585 0
M  V30 33108 H 3153.3 4.14813 -2.16904 0
M  V30 33109 H 3153.47 5.6209 -3.22426 0
M  V30 33110 N 3146.87 0.587281 1.46249 0
M  V30 33111 C 3148.1 0.0784881 2.07251 0
M  V30 33112 C 3148.52 -1.21916 1.43241 0
M  V30 33113 O 3147.88 -1.73748 0.517822 0
M  V30 33114 C 3147.93 -0.0690403 3.60534 0
M  V30 33115 O 3147.03 -1.12441 3.96775 0
M  V30 33116 H 3146.38 0.0648707 0.660824 0
M  V30 33117 H 3148.91 0.811524 1.87818 0
M  V30 33118 H 3148.92 -0.273754 4.07081 0
M  V30 33119 H 3147.59 0.878586 4.06514 0
M  V30 33120 H 3146.17 -0.897788 3.61931 0
M  V30 33121 N 3148.35 -1.54206 0.325309 0
M  V30 33122 C 3149.28 -2.27346 -0.532534 0
M  V30 33123 C 3150.26 -1.28208 -1.11789 0
M  V30 33124 O 3151.45 -1.57023 -1.14269 0
M  V30 33125 C 3148.58 -3.03258 -1.69268 0
M  V30 33126 C 3147.53 -4.09748 -1.23655 0
M  V30 33127 C 3146.86 -4.73511 -2.48378 0
M  V30 33128 C 3148.16 -5.21125 -0.350152 0
M  V30 33129 H 3149.85 -2.993 0.0775635 0
M  V30 33130 H 3147.4 -1.43948 0.0387446 0
M  V30 33131 H 3149.35 -3.53156 -2.29911 0
M  V30 33132 H 3148.08 -2.28925 -2.3294 0
M  V30 33133 H 3146.73 -3.60737 -0.653043 0
M  V30 33134 H 3146.38 -3.95791 -3.10417 0
M  V30 33135 H 3146.08 -5.45445 -2.18548 0
M  V30 33136 H 3147.61 -5.26183 -3.09779 0
M  V30 33137 H 3149.02 -5.66769 -0.862912 0
M  V30 33138 H 3147.42 -5.99926 -0.144555 0
M  V30 33139 H 3148.49 -4.80939 0.618542 0
M  V30 33140 N 3149.83 -0.0535194 -1.57509 0
M  V30 33141 C 3151.07 0.623607 -1.94655 0
M  V30 33142 C 3151.44 1.6787 -0.931869 0
M  V30 33143 O 3152.64 2.41006 -1.19035 0
M  V30 33144 C 3150.91 1.2021 -3.36577 0
M  V30 33145 S 3152.47 1.8969 -3.9568 0
M  V30 33146 H 3149.28 0.204698 -0.680896 0
M  V30 33147 H 3151.89 -0.123016 -1.95113 0
M  V30 33148 H 3150.59 0.422106 -4.08224 0
M  V30 33149 H 3150.12 1.98549 -3.3962 0
M  V30 33150 H 3152.14 3.17772 -3.81097 0
M  V30 33151 N 3151.31 1.56059 0.219886 0
M  V30 33152 C 3152.24 1.95572 1.27568 0
M  V30 33153 C 3153.22 0.824174 1.488 0
M  V30 33154 O 3154.41 1.08661 1.60955 0
M  V30 33155 C 3151.54 2.27386 2.62513 0
M  V30 33156 C 3150.49 3.43047 2.55935 0
M  V30 33157 C 3149.82 3.6047 3.94925 0
M  V30 33158 C 3151.12 4.7797 2.10576 0
M  V30 33159 H 3152.81 2.84014 0.947432 0
M  V30 33160 H 3150.36 1.36646 0.454313 0
M  V30 33161 H 3152.31 2.5362 3.36533 0
M  V30 33162 H 3151.03 1.35799 2.97029 0
M  V30 33163 H 3149.69 3.16864 1.84372 0
M  V30 33164 H 3149.34 2.66256 4.26751 0
M  V30 33165 H 3149.04 4.38265 3.91405 0
M  V30 33166 H 3150.56 3.89055 4.70605 0
M  V30 33167 H 3151.98 5.03399 2.7434 0
M  V30 33168 H 3150.37 5.59059 2.18112 0
M  V30 33169 H 3151.44 4.73215 1.05809 0
M  V30 33170 N 3152.79 -0.486655 1.49898 0
M  V30 33171 C 3153.72 -1.59491 1.70543 0
M  V30 33172 C 3154.7 -1.60818 0.554213 0
M  V30 33173 O 3155.88 -1.77332 0.791648 0
M  V30 33174 C 3153.01 -2.97905 1.78522 0
M  V30 33175 C 3151.97 -3.11444 2.93576 0
M  V30 33176 C 3151.29 -4.51351 2.86682 0
M  V30 33177 C 3152.59 -2.90119 4.34313 0
M  V30 33178 H 3154.29 -1.42467 2.63331 0
M  V30 33179 H 3151.83 -0.683947 1.26721 0
M  V30 33180 H 3153.79 -3.75348 1.9155 0
M  V30 33181 H 3152.51 -3.16049 0.823437 0
M  V30 33182 H 3151.17 -2.36429 2.80173 0
M  V30 33183 H 3150.82 -4.66392 1.88381 0
M  V30 33184 H 3150.52 -4.61348 3.63912 0
M  V30 33185 H 3152.04 -5.30836 3.01737 0
M  V30 33186 H 3153.46 -3.57323 4.48323 0
M  V30 33187 H 3151.85 -3.11576 5.12875 0
M  V30 33188 H 3152.92 -1.86111 4.47762 0
M  V30 33189 N 3154.27 -1.39214 -0.738737 0
M  V30 33190 C 3155.23 -1.37415 -1.83438 0
M  V30 33191 C 3156.23 -0.271936 -1.58484 0
M  V30 33192 O 3157.42 -0.529638 -1.65953 0
M  V30 33193 C 3154.55 -1.14306 -3.21165 0
M  V30 33194 H 3155.74 -2.34907 -1.86437 0
M  V30 33195 H 3153.3 -1.24724 -0.942002 0
M  V30 33196 H 3154.03 -0.174813 -3.23828 0
M  V30 33197 H 3153.82 -1.94122 -3.40674 0
M  V30 33198 H 3155.31 -1.1578 -4.01229 0
M  V30 33199 N 3155.74 0.968523 -1.24328 0
M  V30 33200 C 3156.99 1.71463 -1.09416 0
M  V30 33201 C 3157.34 1.88937 0.363389 0
M  V30 33202 O 3156.64 1.43918 1.26484 0
M  V30 33203 C 3156.83 3.10692 -1.7665 0
M  V30 33204 C 3156.66 3.06799 -3.28792 0
M  V30 33205 C 3155.43 3.11326 -3.98 0
M  V30 33206 C 3157.63 2.8904 -4.25395 0
M  V30 33207 N 3155.61 2.97444 -5.37029 0
M  V30 33208 C 3156.98 2.83445 -5.51416 0
M  V30 33209 C 3159.04 2.73614 -4.1598 0
M  V30 33210 C 3157.74 2.64001 -6.69101 0
M  V30 33211 C 3159.77 2.55538 -5.33343 0
M  V30 33212 C 3159.13 2.50651 -6.58296 0
M  V30 33213 H 3155.23 0.636004 -0.454998 0
M  V30 33214 H 3157.81 1.14834 -1.5723 0
M  V30 33215 H 3155.98 3.65515 -1.31351 0
M  V30 33216 H 3157.71 3.74004 -1.54606 0
M  V30 33217 H 3154.47 3.19975 -3.4916 0
M  V30 33218 H 3154.89 2.93746 -6.09953 0
M  V30 33219 H 3159.53 2.76175 -3.20136 0
M  V30 33220 H 3157.25 2.60184 -7.65069 0
M  V30 33221 H 3160.84 2.44548 -5.27909 0
M  V30 33222 H 3159.72 2.36843 -7.4758 0
M  V30 33223 N 3157.22 1.0569 1.16908 0
M  V30 33224 C 3158.17 0.632377 2.19055 0
M  V30 33225 C 3159.16 -0.33377 1.574 0
M  V30 33226 O 3160.35 -0.150192 1.76362 0
M  V30 33227 C 3157.48 0.0138812 3.43297 0
M  V30 33228 C 3156.56 1.00416 4.12041 0
M  V30 33229 N 3156.95 2.17745 4.56531 0
M  V30 33230 C 3155.25 0.83374 4.38138 0
M  V30 33231 C 3155.95 2.80434 5.09639 0
M  V30 33232 N 3154.93 2.082 5.02149 0
M  V30 33233 H 3158.73 1.52625 2.51163 0
M  V30 33234 H 3156.24 0.927731 1.33293 0
M  V30 33235 H 3158.24 -0.308044 4.1576 0
M  V30 33236 H 3156.9 -0.875325 3.12679 0
M  V30 33237 H 3157.91 2.55554 4.50458 0
M  V30 33238 H 3154.59 -0.00399345 4.175 0
M  V30 33239 H 3155.98 3.79962 5.54147 0
M  V30 33240 N 3158.7 -1.33435 0.838617 0
M  V30 33241 C 3159.94 -1.99602 0.440274 0
M  V30 33242 C 3160.3 -1.64985 -0.982032 0
M  V30 33243 O 3161.5 -2.24117 -1.48409 0
M  V30 33244 C 3159.78 -3.5136 0.654262 0
M  V30 33245 S 3161.33 -4.37393 0.351102 0
M  V30 33246 H 3158.15 -0.691441 0.16562 0
M  V30 33247 H 3160.75 -1.62438 1.08785 0
M  V30 33248 H 3159.46 -3.74042 1.6888 0
M  V30 33249 H 3158.99 -3.93399 -0.00747534 0
M  V30 33250 H 3161 -4.89222 -0.829212 0
M  V30 33251 N 3160.18 -0.595029 -1.45935 0
M  V30 33252 C 3161.43 -0.0851723 -2.0192 0
M  V30 33253 C 3161.75 1.2841 -1.46751 0
M  V30 33254 O 3161.02 1.84558 -0.656906 0
M  V30 33255 H 3159.6 -0.0284957 -0.746456 0
M  V30 33256 H 3162.26 -0.773592 -1.7889 0
M  V30 33257 H 3161.35 -0.025455 -3.1209 0
M  V30 33258 N 3161.66 1.54031 -0.333483 0
M  V30 33259 C 3162.57 2.2838 0.536634 0
M  V30 33260 C 3163.58 1.33106 1.12066 0
M  V30 33261 O 3164.76 1.66133 1.1385 0
M  V30 33262 C 3161.82 3.03459 1.67672 0
M  V30 33263 C 3160.88 4.14338 1.1235 0
M  V30 33264 C 3160.12 4.85827 2.20924 0
M  V30 33265 O 3160.34 4.56906 3.41458 0
M  V30 33266 O 3159.27 5.7251 1.85785 0
M  V30 33267 H 3163.1 3.03625 -0.0674537 0
M  V30 33268 H 3160.68 1.49073 -0.0988492 0
M  V30 33269 H 3162.57 3.50442 2.34026 0
M  V30 33270 H 3161.24 2.3108 2.2668 0
M  V30 33271 H 3160.15 3.71681 0.424761 0
M  V30 33272 H 3161.48 4.8879 0.578411 0
M  V30 33273 N 3163.13 0.0618717 1.57479 0
M  V30 33274 C 3164.04 -0.923788 2.15646 0
M  V30 33275 C 3165.06 -1.33411 1.11703 0
M  V30 33276 O 3166.24 -1.40884 1.43922 0
M  V30 33277 C 3163.3 -2.1766 2.69861 0
M  V30 33278 C 3162.36 -1.82363 3.88642 0
M  V30 33279 C 3161.59 -3.01672 4.40261 0
M  V30 33280 O 3161.82 -4.15381 3.90916 0
M  V30 33281 O 3160.75 -2.82064 5.31717 0
M  V30 33282 H 3164.58 -0.459042 3.00211 0
M  V30 33283 H 3162.16 -0.160639 1.48534 0
M  V30 33284 H 3164.04 -2.91145 3.04652 0
M  V30 33285 H 3162.72 -2.63252 1.88362 0
M  V30 33286 H 3161.63 -1.06161 3.58721 0
M  V30 33287 H 3162.96 -1.41562 4.71403 0
M  V30 33288 N 3164.61 -1.56173 -0.211607 0
M  V30 33289 C 3165.52 -1.96404 -1.28306 0
M  V30 33290 C 3166.54 -0.869281 -1.5073 0
M  V30 33291 O 3167.71 -1.17368 -1.63666 0
M  V30 33292 C 3164.78 -2.28119 -2.6108 0
M  V30 33293 C 3163.84 -3.51216 -2.46872 0
M  V30 33294 C 3163.07 -3.81408 -3.73314 0
M  V30 33295 O 3163.3 -3.13128 -4.76767 0
M  V30 33296 O 3162.23 -4.74878 -3.69831 0
M  V30 33297 H 3166.06 -2.87736 -0.971683 0
M  V30 33298 H 3163.64 -1.43512 -0.41528 0
M  V30 33299 H 3165.52 -2.49667 -3.39477 0
M  V30 33300 H 3164.2 -1.39959 -2.91879 0
M  V30 33301 H 3163.11 -3.34935 -1.66642 0
M  V30 33302 H 3164.44 -4.3979 -2.21011 0
M  V30 33303 N 3166.09 0.478699 -1.50154 0
M  V30 33304 C 3167.32 1.25298 -1.64268 0
M  V30 33305 C 3167.73 1.86435 -0.322289 0
M  V30 33306 O 3167.07 1.69638 0.704895 0
M  V30 33307 C 3167.13 2.40707 -2.67021 0
M  V30 33308 C 3166.8 2.00267 -4.10782 0
M  V30 33309 C 3167.79 1.52955 -4.96891 0
M  V30 33310 C 3165.48 2.0922 -4.56653 0
M  V30 33311 C 3167.47 1.15128 -6.26916 0
M  V30 33312 C 3165.16 1.71005 -5.86686 0
M  V30 33313 C 3166.16 1.24036 -6.71643 0
M  V30 33314 O 3165.85 0.863477 -7.99249 0
M  V30 33315 H 3165.58 0.385383 -0.555388 0
M  V30 33316 H 3168.13 0.578717 -1.97079 0
M  V30 33317 H 3166.36 3.1128 -2.29437 0
M  V30 33318 H 3168.05 3.02689 -2.70434 0
M  V30 33319 H 3168.82 1.45466 -4.62671 0
M  V30 33320 H 3164.7 2.44728 -3.90678 0
M  V30 33321 H 3168.24 0.783967 -6.93181 0
M  V30 33322 H 3164.14 1.78151 -6.20429 0
M  V30 33323 H 3164.91 0.992996 -8.12454 0
M  V30 33324 N 3167.57 1.39603 0.731343 0
M  V30 33325 C 3168.52 1.38765 1.86674 0
M  V30 33326 C 3169.51 0.270277 1.6723 0
M  V30 33327 O 3170.72 0.440502 1.74527 0
M  V30 33328 H 3167.09 0.433402 0.614546 0
M  V30 33329 H 3169.06 2.34528 1.84497 0
M  V30 33330 C 3167.81 1.25161 3.24392 0
M  V30 33331 H 3167.13 2.10412 3.39951 0
M  V30 33332 H 3168.57 1.28632 4.04017 0
M  V30 33333 C 3167.03 -0.0396384 3.36877 0
M  V30 33334 O 3167.56 -1.00847 3.88835 0
M  V30 33335 N 3165.77 -0.103914 2.90414 0
M  V30 33336 H 3165.32 0.685198 2.4832 0
M  V30 33337 H 3165.27 -0.967382 2.99147 0
M  V30 33338 N 3169.05 -0.961916 1.2484 0
M  V30 33339 C 3169.96 -2.09131 1.06308 0
M  V30 33340 C 3170.97 -1.74 0.00224534 0
M  V30 33341 O 3172.15 -2.00388 0.201646 0
M  V30 33342 C 3169.21 -3.40042 0.676177 0
M  V30 33343 C 3168.27 -3.89086 1.81414 0
M  V30 33344 C 3167.51 -5.13749 1.4456 0
M  V30 33345 O 3167.73 -5.69398 0.337994 0
M  V30 33346 O 3166.66 -5.57321 2.27326 0
M  V30 33347 H 3170.49 -2.27663 2.01005 0
M  V30 33348 H 3168.08 -1.07537 1.03712 0
M  V30 33349 H 3169.96 -4.18746 0.472198 0
M  V30 33350 H 3168.63 -3.22797 -0.24161 0
M  V30 33351 H 3167.54 -3.11418 2.07292 0
M  V30 33352 H 3168.87 -4.10817 2.71091 0
M  V30 33353 N 3170.52 -1.06308 -1.16346 0
M  V30 33354 C 3171.77 -0.779885 -1.8688 0
M  V30 33355 C 3172.1 0.693636 -1.81711 0
M  V30 33356 O 3171.35 1.52399 -1.22772 0
M  V30 33357 C 3171.65 -1.21996 -3.35934 0
M  V30 33358 C 3171.32 -2.69762 -3.61302 0
M  V30 33359 C 3169.98 -3.10125 -3.67935 0
M  V30 33360 C 3172.33 -3.65193 -3.71865 0
M  V30 33361 C 3169.66 -4.44759 -3.82631 0
M  V30 33362 C 3172.01 -4.99575 -3.88082 0
M  V30 33363 C 3170.68 -5.39575 -3.92957 0
M  V30 33364 H 3169.95 -0.28538 -0.683842 0
M  V30 33365 H 3172.59 -1.3322 -1.37567 0
M  V30 33366 H 3170.9 -0.586842 -3.8738 0
M  V30 33367 H 3172.6 -0.977889 -3.88894 0
M  V30 33368 H 3169.19 -2.37511 -3.56773 0
M  V30 33369 H 3173.37 -3.35142 -3.66051 0
M  V30 33370 H 3168.63 -4.75235 -3.84658 0
M  V30 33371 H 3172.8 -5.73404 -3.95197 0
M  V30 33372 H 3170.43 -6.43902 -4.04097 0
M  V30 33373 N 3172 1.32989 -0.845682 0
M  V30 33374 C 3173.25 1.9785 -0.445346 0
M  V30 33375 C 3173.58 1.66806 0.994446 0
M  V30 33376 O 3172.86 0.95154 1.69635 0
M  V30 33377 C 3173.14 3.53728 -0.674433 0
M  V30 33378 C 3172.99 3.94434 -2.16199 0
M  V30 33379 C 3174.31 4.39922 -0.124985 0
M  V30 33380 H 3171.43 0.718685 -0.163282 0
M  V30 33381 H 3174.07 1.57518 -1.06245 0
M  V30 33382 H 3172.22 3.88214 -0.149159 0
M  V30 33383 H 3173.89 3.70171 -2.75265 0
M  V30 33384 H 3172.14 3.43918 -2.64392 0
M  V30 33385 H 3172.81 5.03029 -2.27301 0
M  V30 33386 H 3175.28 4.12121 -0.574058 0
M  V30 33387 H 3174.16 5.47996 -0.314912 0
M  V30 33388 H 3174.42 4.3129 0.971682 0
M  V30 33389 N 3173.48 0.60276 1.45618 0
M  V30 33390 C 3174.71 0.10229 2.06647 0
M  V30 33391 C 3175.12 -1.21128 1.44822 0
M  V30 33392 O 3174.48 -1.73675 0.560651 0
M  V30 33393 C 3174.53 -0.0489478 3.61467 0
M  V30 33394 O 3174.25 1.21265 4.20983 0
M  V30 33395 C 3175.75 -0.581439 4.3947 0
M  V30 33396 H 3172.97 0.0666273 0.667684 0
M  V30 33397 H 3175.52 0.829123 1.86938 0
M  V30 33398 H 3173.67 -0.726087 3.80535 0
M  V30 33399 H 3174.09 1.03924 5.14101 0
M  V30 33400 H 3175.56 -0.636366 5.4832 0
M  V30 33401 H 3176.04 -1.6027 4.08913 0
M  V30 33402 H 3176.64 0.0614937 4.25256 0
M  V30 33403 N 3174.96 -1.53852 0.341647 0
M  V30 33404 C 3175.91 -2.24958 -0.516019 0
M  V30 33405 C 3176.88 -1.24712 -1.09709 0
M  V30 33406 O 3178.06 -1.5344 -1.13406 0
M  V30 33407 C 3175.2 -3.02442 -1.66202 0
M  V30 33408 C 3174.31 -4.17538 -1.10843 0
M  V30 33409 C 3173.45 -4.82513 -2.22158 0
M  V30 33410 C 3172.49 -5.89681 -1.64142 0
M  V30 33411 N 3171.62 -6.48445 -2.69191 0
M  V30 33412 H 3176.46 -2.97842 0.0968798 0
M  V30 33413 H 3174 -1.46979 0.0595823 0
M  V30 33414 H 3175.96 -3.45624 -2.33666 0
M  V30 33415 H 3174.59 -2.31857 -2.24593 0
M  V30 33416 H 3173.64 -3.79011 -0.324786 0
M  V30 33417 H 3174.95 -4.94624 -0.644064 0
M  V30 33418 H 3174.11 -5.28757 -2.97492 0
M  V30 33419 H 3172.85 -4.04847 -2.71938 0
M  V30 33420 H 3171.85 -5.42823 -0.873132 0
M  V30 33421 H 3173.08 -6.69255 -1.15216 0
M  V30 33422 H 3171.02 -5.73643 -3.18229 0
M  V30 33423 H 3170.94 -7.20998 -2.27371 0
M  V30 33424 H 3172.21 -6.99341 -3.44299 0
M  V30 33425 N 3176.44 -0.0702223 -1.57443 0
M  V30 33426 C 3177.69 0.598815 -1.92606 0
M  V30 33427 C 3178 1.70864 -0.952088 0
M  V30 33428 O 3179.2 2.43714 -1.19648 0
M  V30 33429 C 3177.66 1.11649 -3.42144 0
M  V30 33430 C 3177.27 0.0377567 -4.47984 0
M  V30 33431 C 3179.01 1.75969 -3.8631 0
M  V30 33432 C 3176.92 0.569391 -5.88653 0
M  V30 33433 H 3175.85 0.227448 -0.718877 0
M  V30 33434 H 3178.5 -0.142202 -1.82948 0
M  V30 33435 H 3176.88 1.91043 -3.4687 0
M  V30 33436 H 3178.06 -0.736741 -4.54872 0
M  V30 33437 H 3176.37 -0.509113 -4.13276 0
M  V30 33438 H 3178.97 2.16773 -4.88788 0
M  V30 33439 H 3179.31 2.61905 -3.23591 0
M  V30 33440 H 3179.84 1.032 -3.84181 0
M  V30 33441 H 3176.58 -0.252777 -6.55012 0
M  V30 33442 H 3176.1 1.31145 -5.85287 0
M  V30 33443 H 3177.78 1.04629 -6.38484 0
M  V30 33444 N 3177.91 1.56283 0.203321 0
M  V30 33445 C 3179.33 1.49683 0.553814 0
M  V30 33446 C 3179.53 0.768734 1.8626 0
M  V30 33447 O 3178.59 0.315868 2.50517 0
M  V30 33448 C 3179.9 2.94319 0.616164 0
M  V30 33449 C 3181.45 3.04944 0.705557 0
M  V30 33450 C 3181.92 4.50975 0.799091 0
M  V30 33451 N 3183.41 4.55093 0.862836 0
M  V30 33452 C 3184.15 5.65387 0.955234 0
M  V30 33453 N 3183.64 6.85392 1.01045 0
M  V30 33454 N 3185.44 5.53281 0.991786 0
M  V30 33455 H 3177.59 2.02039 -0.65528 0
M  V30 33456 H 3179.85 0.919083 -0.23236 0
M  V30 33457 H 3179.56 3.50613 -0.276251 0
M  V30 33458 H 3179.43 3.47222 1.47365 0
M  V30 33459 H 3181.82 2.48704 1.58841 0
M  V30 33460 H 3181.9 2.5518 -0.177966 0
M  V30 33461 H 3181.54 5.07838 -0.0793733 0
M  V30 33462 H 3181.47 4.98463 1.6983 0
M  V30 33463 H 3183.96 3.68678 0.829747 0
M  V30 33464 H 3184.28 7.65199 1.08123 0
M  V30 33465 H 3182.62 6.88066 0.979263 0
M  V30 33466 H 3185.81 4.58453 0.945434 0
M  V30 33467 H 3185.99 6.39266 1.06034 0
M  V30 33468 N 3179.39 -0.470729 1.50406 0
M  V30 33469 C 3180.62 -1.25072 1.65444 0
M  V30 33470 C 3181.04 -1.85045 0.337645 0
M  V30 33471 O 3180.4 -1.67303 -0.698526 0
M  V30 33472 C 3180.45 -2.33493 2.74797 0
M  V30 33473 O 3179.55 -3.38145 2.36075 0
M  V30 33474 H 3178.89 -0.367941 0.552734 0
M  V30 33475 H 3181.42 -0.560143 1.96783 0
M  V30 33476 H 3181.43 -2.78799 2.97884 0
M  V30 33477 H 3180.11 -1.89213 3.70366 0
M  V30 33478 H 3178.69 -2.98548 2.23436 0
M  V30 33479 N 3180.87 -1.39989 -0.72393 0
M  V30 33480 C 3182.12 -1.38019 -1.48589 0
M  V30 33481 C 3182.45 0.0203181 -1.94189 0
M  V30 33482 O 3181.73 0.987392 -1.67573 0
M  V30 33483 C 3182.01 -2.36234 -2.71782 0
M  V30 33484 C 3181.86 -3.85274 -2.32129 0
M  V30 33485 C 3183.18 -2.32109 -3.73917 0
M  V30 33486 H 3180.3 -0.502657 -0.538985 0
M  V30 33487 H 3182.94 -1.71064 -0.826878 0
M  V30 33488 H 3181.09 -2.08185 -3.28011 0
M  V30 33489 H 3182.76 -4.24117 -1.81447 0
M  V30 33490 H 3181.01 -4.01512 -1.64227 0
M  V30 33491 H 3181.68 -4.49498 -3.20398 0
M  V30 33492 H 3184.15 -2.56934 -3.27298 0
M  V30 33493 H 3183.03 -3.0289 -4.57765 0
M  V30 33494 H 3183.29 -1.32986 -4.21624 0
M  V30 33495 N 3182.35 0.955282 -1.25348 0
M  V30 33496 C 3183.76 1.51451 -1.09176 0
M  V30 33497 C 3184.11 1.93358 0.332721 0
M  V30 33498 O 3183.24 1.78553 1.22261 0
M  V30 33499 C 3183.83 2.75231 -1.97569 0
M  V30 33500 C 3182.39 3.27468 -1.85585 0
M  V30 33501 C 3181.54 2.00309 -1.91759 0
M  V30 33502 H 3184.49 0.772247 -1.38644 0
M  V30 33503 H 3184.51 3.49026 -1.51529 0
M  V30 33504 H 3184.02 2.44699 -3.01238 0
M  V30 33505 H 3182.12 3.62823 -0.84797 0
M  V30 33506 H 3182.24 3.95528 -2.7036 0
M  V30 33507 H 3180.6 2.1558 -1.35637 0
M  V30 33508 H 3181.38 1.72127 -2.97031 0
M  V30 33509 N 3183.83 1.06924 1.1578 0
M  V30 33510 C 3185.07 0.790954 1.8674 0
M  V30 33511 C 3185.41 -0.681117 1.81864 0
M  V30 33512 O 3184.68 -1.49952 1.23873 0
M  V30 33513 C 3184.96 1.29428 3.36036 0
M  V30 33514 C 3184.82 2.83058 3.49568 0
M  V30 33515 C 3186.14 0.907314 4.30646 0
M  V30 33516 H 3183.26 0.288799 0.678059 0
M  V30 33517 H 3185.9 1.32627 1.36052 0
M  V30 33518 H 3184.05 0.83891 3.79334 0
M  V30 33519 H 3185.72 3.36852 3.15164 0
M  V30 33520 H 3183.96 3.21473 2.91269 0
M  V30 33521 H 3184.63 3.13343 4.54445 0
M  V30 33522 H 3187.11 1.29963 3.95283 0
M  V30 33523 H 3185.99 1.28688 5.33602 0
M  V30 33524 H 3186.25 -0.187173 4.41704 0
M  V30 33525 N 3185.31 -1.32538 0.852723 0
M  V30 33526 C 3186.55 -1.96929 0.454259 0
M  V30 33527 C 3186.87 -1.67823 -0.993005 0
M  V30 33528 O 3186.14 -0.984422 -1.69369 0
M  V30 33529 H 3184.72 -0.728552 0.16499 0
M  V30 33530 H 3187.39 -1.61656 1.08873 0
M  V30 33531 H 3186.48 -3.06323 0.597721 0
M  V30 33532 N 3186.78 -0.610474 -1.45296 0
M  V30 33533 C 3188.2 -0.27436 -1.57224 0
M  V30 33534 C 3188.4 1.22304 -1.60138 0
M  V30 33535 O 3187.46 2.00619 -1.53323 0
M  V30 33536 C 3188.77 -0.948078 -2.85363 0
M  V30 33537 C 3190.32 -0.924269 -2.99042 0
M  V30 33538 C 3190.79 -1.57805 -4.29955 0
M  V30 33539 N 3192.28 -1.54368 -4.36721 0
M  V30 33540 C 3193.02 -2.01867 -5.36691 0
M  V30 33541 N 3192.51 -2.57464 -6.43183 0
M  V30 33542 N 3194.31 -1.92618 -5.28067 0
M  V30 33543 H 3186.46 -1.5827 -1.41648 0
M  V30 33544 H 3188.72 -0.66317 -0.677429 0
M  V30 33545 H 3188.43 -2.00254 -2.89121 0
M  V30 33546 H 3188.3 -0.473127 -3.74221 0
M  V30 33547 H 3190.69 0.121657 -2.94849 0
M  V30 33548 H 3190.77 -1.43751 -2.11587 0
M  V30 33549 H 3190.41 -2.62332 -4.34907 0
M  V30 33550 H 3190.34 -1.03981 -5.16232 0
M  V30 33551 H 3192.83 -1.13756 -3.60372 0
M  V30 33552 H 3193.15 -2.91494 -7.15717 0
M  V30 33553 H 3191.49 -2.61505 -6.43926 0
M  V30 33554 H 3194.68 -1.48919 -4.4378 0
M  V30 33555 H 3194.86 -2.29948 -6.05828 0
M  V30 33556 N 3188.26 1.53669 -0.349801 0
M  V30 33557 C 3189.22 2.23865 0.491636 0
M  V30 33558 C 3190.22 1.241 1.02254 0
M  V30 33559 O 3191.41 1.48493 0.91079 0
M  V30 33560 C 3188.55 2.96316 1.68552 0
M  V30 33561 H 3189.74 2.9965 -0.122382 0
M  V30 33562 H 3187.29 1.55972 -0.101241 0
M  V30 33563 H 3188.03 2.24734 2.33806 0
M  V30 33564 H 3187.81 3.69499 1.31197 0
M  V30 33565 H 3189.3 3.49723 2.28219 0
M  V30 33566 N 3189.74 0.0785709 1.57404 0
M  V30 33567 C 3190.67 -0.883688 2.16132 0
M  V30 33568 C 3191.65 -1.30573 1.09017 0
M  V30 33569 O 3192.84 -1.37557 1.37083 0
M  V30 33570 C 3189.97 -2.14885 2.7284 0
M  V30 33571 C 3188.92 -1.86599 3.85182 0
M  V30 33572 C 3188.25 -3.19803 4.28521 0
M  V30 33573 C 3189.55 -1.16592 5.0912 0
M  V30 33574 H 3191.24 -0.394431 2.9679 0
M  V30 33575 H 3188.79 -0.188279 1.42764 0
M  V30 33576 H 3190.74 -2.82624 3.12572 0
M  V30 33577 H 3189.46 -2.66065 1.89413 0
M  V30 33578 H 3188.12 -1.21262 3.45964 0
M  V30 33579 H 3187.77 -3.68837 3.42006 0
M  V30 33580 H 3187.47 -3.01665 5.04254 0
M  V30 33581 H 3188.99 -3.88728 4.70874 0
M  V30 33582 H 3190.41 -1.74412 5.46126 0
M  V30 33583 H 3188.8 -1.0869 5.90175 0
M  V30 33584 H 3189.87 -0.146052 4.8468 0
M  V30 33585 N 3191.22 -1.56389 -0.19503 0
M  V30 33586 C 3192.17 -1.90954 -1.24581 0
M  V30 33587 C 3193.15 -0.775245 -1.40992 0
M  V30 33588 O 3194.34 -1.0381 -1.43361 0
M  V30 33589 C 3191.47 -2.25262 -2.5906 0
M  V30 33590 C 3190.56 -3.45149 -2.46441 0
M  V30 33591 N 3190.95 -4.63056 -2.03502 0
M  V30 33592 C 3189.25 -3.49288 -2.77333 0
M  V30 33593 C 3189.95 -5.45213 -2.02776 0
M  V30 33594 N 3188.92 -4.85621 -2.44282 0
M  V30 33595 H 3192.73 -2.79614 -0.905151 0
M  V30 33596 H 3190.24 -1.57308 -0.403465 0
M  V30 33597 H 3192.24 -2.4821 -3.34959 0
M  V30 33598 H 3190.9 -1.37929 -2.93949 0
M  V30 33599 H 3191.91 -4.8772 -1.7421 0
M  V30 33600 H 3188.59 -2.72371 -3.16418 0
M  V30 33601 H 3189.98 -6.4965 -1.71478 0
M  V30 33602 N 3192.7 0.462746 -1.50653 0
M  V30 33603 C 3193.63 1.56757 -1.73059 0
M  V30 33604 C 3194.61 1.59916 -0.579727 0
M  V30 33605 O 3195.79 1.7605 -0.81976 0
M  V30 33606 C 3192.92 2.95027 -1.83239 0
M  V30 33607 C 3191.88 3.06734 -2.98494 0
M  V30 33608 C 3191.2 4.46733 -2.93826 0
M  V30 33609 C 3192.5 2.83173 -4.38874 0
M  V30 33610 H 3194.2 1.3826 -2.65565 0
M  V30 33611 H 3191.74 0.6637 -1.27793 0
M  V30 33612 H 3193.69 3.72254 -1.97497 0
M  V30 33613 H 3192.42 3.14699 -0.873613 0
M  V30 33614 H 3191.08 2.31941 -2.83899 0
M  V30 33615 H 3190.73 4.63336 -1.95777 0
M  V30 33616 H 3190.43 4.555 -3.71205 0
M  V30 33617 H 3191.95 5.25968 -3.10144 0
M  V30 33618 H 3193.36 3.50145 -4.53951 0
M  V30 33619 H 3191.76 3.03377 -5.17767 0
M  V30 33620 H 3192.83 1.78964 -4.50666 0
M  V30 33621 N 3194.17 1.40371 0.716495 0
M  V30 33622 C 3195.59 1.34429 1.2956 0
M  V30 33623 C 3195.94 0.0173451 1.96192 0
M  V30 33624 O 3195.06 -0.884684 1.9749 0
M  V30 33625 C 3195.66 2.43474 2.35596 0
M  V30 33626 C 3194.22 2.40995 2.89134 0
M  V30 33627 C 3193.36 2.244 1.62911 0
M  V30 33628 H 3196.31 1.50191 0.512688 0
M  V30 33629 H 3196.33 2.11329 3.16418 0
M  V30 33630 H 3195.85 3.40038 1.87071 0
M  V30 33631 H 3193.95 1.48126 3.41891 0
M  V30 33632 H 3194.06 3.36546 3.40989 0
M  V30 33633 H 3192.42 1.71899 1.87944 0
M  V30 33634 H 3193.21 3.2296 1.16412 0
M  V30 33635 N 3195.65 -0.948621 1.25853 0
M  V30 33636 C 3196.88 -1.7338 1.13816 0
M  V30 33637 C 3197.3 -1.85634 -0.303582 0
M  V30 33638 O 3196.66 -1.34116 -1.21994 0
M  V30 33639 C 3196.71 -3.12235 1.80393 0
M  V30 33640 O 3195.81 -3.97799 1.08766 0
M  V30 33641 H 3195.15 -0.532236 0.397015 0
M  V30 33642 H 3197.68 -1.18863 1.66531 0
M  V30 33643 H 3197.69 -3.62664 1.86919 0
M  V30 33644 H 3196.37 -3.02632 2.85283 0
M  V30 33645 H 3194.95 -3.56256 1.10163 0
M  V30 33646 N 3197.13 -1.07536 -1.15212 0
M  V30 33647 C 3198.38 -0.799662 -1.86042 0
M  V30 33648 C 3198.71 0.674324 -1.82437 0
M  V30 33649 O 3197.96 1.51088 -1.24382 0
M  V30 33650 C 3198.26 -1.25553 -3.34621 0
M  V30 33651 C 3197.93 -2.73579 -3.5842 0
M  V30 33652 C 3196.59 -3.1401 -3.64625 0
M  V30 33653 C 3198.94 -3.69117 -3.6797 0
M  V30 33654 C 3196.27 -4.48792 -3.77892 0
M  V30 33655 C 3198.62 -5.03663 -3.82762 0
M  V30 33656 C 3197.28 -5.43712 -3.87212 0
M  V30 33657 H 3196.55 -0.292617 -0.680776 0
M  V30 33658 H 3199.2 -1.34672 -1.36146 0
M  V30 33659 H 3197.51 -0.627896 -3.86736 0
M  V30 33660 H 3199.2 -1.01908 -3.87835 0
M  V30 33661 H 3195.79 -2.41281 -3.54233 0
M  V30 33662 H 3199.98 -3.39006 -3.62476 0
M  V30 33663 H 3195.23 -4.79288 -3.79596 0
M  V30 33664 H 3199.41 -5.77563 -3.89093 0
M  V30 33665 H 3197.03 -6.48152 -3.97245 0
M  V30 33666 N 3198.61 1.32084 -0.85974 0
M  V30 33667 C 3199.56 2.28761 -0.306082 0
M  V30 33668 C 3200.53 1.55277 0.589774 0
M  V30 33669 O 3201.71 1.83475 0.5236 0
M  V30 33670 C 3198.85 3.41529 0.495196 0
M  V30 33671 C 3197.96 4.29884 -0.427023 0
M  V30 33672 C 3197.1 5.29786 0.387381 0
M  V30 33673 C 3196.14 6.09784 -0.531914 0
M  V30 33674 N 3195.27 7.0167 0.245617 0
M  V30 33675 H 3200.11 2.75508 -1.13574 0
M  V30 33676 H 3197.65 1.35545 -0.571492 0
M  V30 33677 H 3199.61 4.05637 0.975439 0
M  V30 33678 H 3198.24 2.95919 1.28964 0
M  V30 33679 H 3197.29 3.66311 -1.02568 0
M  V30 33680 H 3198.6 4.85777 -1.13234 0
M  V30 33681 H 3197.76 5.99521 0.930572 0
M  V30 33682 H 3196.5 4.74522 1.12604 0
M  V30 33683 H 3195.5 5.38949 -1.08695 0
M  V30 33684 H 3196.73 6.67133 -1.26926 0
M  V30 33685 H 3194.67 6.4883 0.967277 0
M  V30 33686 H 3194.59 7.54938 -0.400565 0
M  V30 33687 H 3195.86 7.75684 0.77037 0
M  V30 33688 N 3200.09 0.618171 1.4497 0
M  V30 33689 C 3201.05 -0.0846336 2.29044 0
M  V30 33690 C 3202.05 -0.784896 1.40342 0
M  V30 33691 O 3203.24 -0.631451 1.62353 0
M  V30 33692 C 3200.37 -1.13022 3.21619 0
M  V30 33693 H 3201.56 0.654664 2.92667 0
M  V30 33694 H 3199.12 0.377699 1.51668 0
M  V30 33695 H 3199.85 -1.89993 2.62818 0
M  V30 33696 H 3199.64 -0.632172 3.8697 0
M  V30 33697 H 3201.13 -1.62211 3.84808 0
M  V30 33698 N 3201.56 -1.53481 0.357946 0
M  V30 33699 C 3202.49 -2.28425 -0.484191 0
M  V30 33700 C 3203.48 -1.3055 -1.09044 0
M  V30 33701 O 3204.66 -1.59411 -1.10913 0
M  V30 33702 C 3201.79 -3.0678 -1.62798 0
M  V30 33703 C 3200.74 -4.12279 -1.14935 0
M  V30 33704 C 3200.07 -4.78673 -2.38278 0
M  V30 33705 C 3201.37 -5.2175 -0.239535 0
M  V30 33706 H 3203.06 -2.99068 0.141032 0
M  V30 33707 H 3200.61 -1.43833 0.0692693 0
M  V30 33708 H 3202.56 -3.57953 -2.22368 0
M  V30 33709 H 3201.29 -2.33814 -2.28032 0
M  V30 33710 H 3199.95 -3.62041 -0.576378 0
M  V30 33711 H 3199.59 -4.02286 -3.01952 0
M  V30 33712 H 3199.29 -5.49958 -2.06929 0
M  V30 33713 H 3200.82 -5.32636 -2.98549 0
M  V30 33714 H 3202.23 -5.68472 -0.742497 0
M  V30 33715 H 3200.63 -6.00098 -0.0172692 0
M  V30 33716 H 3201.7 -4.79519 0.720417 0
M  V30 33717 N 3203.04 -0.0869173 -1.5736 0
M  V30 33718 C 3203.95 0.889364 -2.17089 0
M  V30 33719 C 3204.97 1.31617 -1.13811 0
M  V30 33720 O 3206.14 1.38577 -1.46145 0
M  V30 33721 C 3203.21 2.1334 -2.73289 0
M  V30 33722 C 3202.27 1.76157 -3.91494 0
M  V30 33723 C 3201.5 2.94629 -4.45005 0
M  V30 33724 O 3201.73 4.09109 -3.97475 0
M  V30 33725 O 3200.66 2.73569 -5.36138 0
M  V30 33726 H 3204.49 0.411223 -3.00903 0
M  V30 33727 H 3202.07 0.136988 -1.48771 0
M  V30 33728 H 3203.95 2.86261 -3.09245 0
M  V30 33729 H 3202.63 2.60222 -1.92526 0
M  V30 33730 H 3201.54 1.00441 -3.60364 0
M  V30 33731 H 3202.87 1.34044 -4.73596 0
M  V30 33732 N 3204.52 1.5649 0.186734 0
M  V30 33733 C 3205.94 1.50262 0.537907 0
M  V30 33734 C 3206.14 0.788446 1.85434 0
M  V30 33735 O 3205.19 0.342421 2.50167 0
M  V30 33736 C 3206.51 2.94956 0.584913 0
M  V30 33737 C 3208.05 3.05675 0.673174 0
M  V30 33738 C 3208.53 4.51797 0.751214 0
M  V30 33739 N 3210.02 4.55982 0.814519 0
M  V30 33740 C 3210.75 5.66369 0.895214 0
M  V30 33741 N 3210.25 6.86425 0.937694 0
M  V30 33742 N 3212.04 5.54302 0.933048 0
M  V30 33743 H 3204.19 2.01333 -0.676672 0
M  V30 33744 H 3206.46 0.916566 -0.242095 0
M  V30 33745 H 3206.16 3.50301 -0.313423 0
M  V30 33746 H 3206.04 3.48766 1.43674 0
M  V30 33747 H 3208.42 2.50375 1.56194 0
M  V30 33748 H 3208.51 2.54977 -0.205021 0
M  V30 33749 H 3208.15 5.07725 -0.133232 0
M  V30 33750 H 3208.08 5.00236 1.64533 0
M  V30 33751 H 3210.57 3.69538 0.790597 0
M  V30 33752 H 3210.88 7.66303 1.00001 0
M  V30 33753 H 3209.23 6.89066 0.906229 0
M  V30 33754 H 3212.42 4.5943 0.896755 0
M  V30 33755 H 3212.59 6.40355 0.992476 0
M  V30 33756 N 3206 -0.45475 1.50897 0
M  V30 33757 C 3206.95 -1.55064 1.7095 0
M  V30 33758 C 3207.92 -1.56697 0.550926 0
M  V30 33759 O 3209.1 -1.73976 0.783382 0
M  V30 33760 C 3206.24 -2.9292 1.8246 0
M  V30 33761 C 3205.35 -3.0095 3.09924 0
M  V30 33762 C 3204.49 -4.29822 3.12132 0
M  V30 33763 C 3203.53 -4.31654 4.33983 0
M  V30 33764 N 3202.66 -5.52023 4.33838 0
M  V30 33765 H 3207.5 -1.37269 2.64502 0
M  V30 33766 H 3205.04 -0.667125 1.31102 0
M  V30 33767 H 3207 -3.72886 1.87115 0
M  V30 33768 H 3205.63 -3.09313 0.923325 0
M  V30 33769 H 3204.68 -2.13756 3.14663 0
M  V30 33770 H 3205.99 -2.98165 3.99874 0
M  V30 33771 H 3205.15 -5.18148 3.15607 0
M  V30 33772 H 3203.89 -4.35239 2.20041 0
M  V30 33773 H 3202.89 -3.41723 4.30703 0
M  V30 33774 H 3204.12 -4.27915 5.27319 0
M  V30 33775 H 3202.06 -5.58195 3.44608 0
M  V30 33776 H 3201.98 -5.51046 5.17576 0
M  V30 33777 H 3203.25 -6.42429 4.41481 0
M  V30 33778 N 3207.48 -1.40749 -0.709041 0
M  V30 33779 C 3208.72 -1.40589 -1.4699 0
M  V30 33780 C 3209.08 -0.00989682 -1.92397 0
M  V30 33781 O 3208.37 0.961743 -1.65714 0
M  V30 33782 C 3208.56 -2.33546 -2.70538 0
M  V30 33783 C 3208.39 -3.82046 -2.37216 0
M  V30 33784 C 3207.16 -4.50817 -2.28236 0
M  V30 33785 C 3209.36 -4.7337 -2.0106 0
M  V30 33786 N 3207.34 -5.84515 -1.87657 0
M  V30 33787 C 3208.71 -5.95914 -1.71133 0
M  V30 33788 C 3210.77 -4.61143 -1.87753 0
M  V30 33789 C 3209.47 -7.07595 -1.29238 0
M  V30 33790 C 3211.5 -5.72772 -1.47261 0
M  V30 33791 C 3210.86 -6.94406 -1.18236 0
M  V30 33792 H 3206.96 -0.569695 -0.535698 0
M  V30 33793 H 3209.54 -1.76514 -0.821638 0
M  V30 33794 H 3207.71 -1.99738 -3.33105 0
M  V30 33795 H 3209.45 -2.24198 -3.36923 0
M  V30 33796 H 3206.2 -4.04582 -2.46192 0
M  V30 33797 H 3206.63 -6.55338 -1.69887 0
M  V30 33798 H 3211.27 -3.67615 -2.08851 0
M  V30 33799 H 3208.99 -8.01 -1.06882 0
M  V30 33800 H 3212.57 -5.6531 -1.37534 0
M  V30 33801 H 3211.45 -7.79317 -0.87376 0
M  V30 33802 N 3208.96 0.941933 -1.26354 0
M  V30 33803 C 3210.19 1.71993 -1.14463 0
M  V30 33804 C 3210.59 1.86759 0.302924 0
M  V30 33805 O 3209.94 1.37402 1.21928 0
M  V30 33806 C 3210 3.1459 -1.73992 0
M  V30 33807 C 3209.66 3.23212 -3.23084 0
M  V30 33808 C 3210.66 3.06547 -4.19911 0
M  V30 33809 C 3208.34 3.46626 -3.63532 0
M  V30 33810 C 3210.34 3.13163 -5.55165 0
M  V30 33811 C 3208.03 3.52877 -4.9892 0
M  V30 33812 C 3209.02 3.36161 -5.94546 0
M  V30 33813 O 3208.71 3.42119 -7.27468 0
M  V30 33814 H 3208.44 0.545349 -0.399463 0
M  V30 33815 H 3211 1.18942 -1.67457 0
M  V30 33816 H 3209.23 3.69061 -1.15459 0
M  V30 33817 H 3210.92 3.743 -1.57018 0
M  V30 33818 H 3211.68 2.88314 -3.9 0
M  V30 33819 H 3207.56 3.58693 -2.89587 0
M  V30 33820 H 3211.11 3.00033 -6.29782 0
M  V30 33821 H 3207 3.7063 -5.28492 0
M  V30 33822 H 3207.77 3.58667 -7.35731 0
M  V30 33823 N 3210.43 1.08146 1.1464 0
M  V30 33824 C 3211.71 0.722352 1.81773 0
M  V30 33825 C 3212.09 -0.79426 1.95588 0
M  V30 33826 O 3211.44 -1.71176 1.51364 0
M  V30 33827 C 3211.65 1.44617 3.17627 0
M  V30 33828 C 3213 1.6035 3.93158 0
M  V30 33829 O 3214.02 1.40761 3.27208 0
M  V30 33830 O 3212.88 1.92649 5.11418 0
M  V30 33831 H 3209.97 0.257992 0.785728 0
M  V30 33832 H 3212.52 1.18287 1.21681 0
M  V30 33833 H 3211.29 2.47946 3.02719 0
M  V30 33834 H 3210.91 0.97696 3.8541 0
M  V30 33835 N 3211.91 -1.31626 0.866732 0
M  V30 33836 C 3213.14 -2.01538 0.489596 0
M  V30 33837 C 3213.56 -1.64649 -0.909527 0
M  V30 33838 O 3212.92 -0.853419 -1.59958 0
M  V30 33839 C 3212.97 -3.54689 0.650238 0
M  V30 33840 O 3212.07 -4.11219 -0.311836 0
M  V30 33841 H 3211.41 -0.634674 0.195155 0
M  V30 33842 H 3213.94 -1.67897 1.16926 0
M  V30 33843 H 3213.95 -4.0438 0.542307 0
M  V30 33844 H 3212.63 -3.80879 1.67044 0
M  V30 33845 H 3211.2 -3.7256 -0.159132 0
M  V30 33846 N 3213.39 -0.62585 -1.4464 0
M  V30 33847 C 3214.64 -0.128237 -2.02094 0
M  V30 33848 C 3214.96 1.24798 -1.49183 0
M  V30 33849 O 3214.22 1.84091 -0.663997 0
M  V30 33850 C 3214.52 -0.0585009 -3.57352 0
M  V30 33851 C 3214.18 -1.3728 -4.29494 0
M  V30 33852 C 3212.85 -1.73277 -4.48919 0
M  V30 33853 C 3215.2 -2.24058 -4.70582 0
M  V30 33854 C 3212.53 -2.9577 -5.06692 0
M  V30 33855 C 3214.88 -3.45817 -5.29711 0
M  V30 33856 C 3213.54 -3.82044 -5.47356 0
M  V30 33857 H 3212.81 -0.0469252 -0.739513 0
M  V30 33858 H 3215.46 -0.811113 -1.73474 0
M  V30 33859 H 3213.76 0.707723 -3.85355 0
M  V30 33860 H 3215.46 0.34296 -3.99531 0
M  V30 33861 H 3212.05 -1.08266 -4.14701 0
M  V30 33862 H 3216.24 -1.97543 -4.55292 0
M  V30 33863 H 3211.49 -3.23922 -5.18541 0
M  V30 33864 H 3215.67 -4.13296 -5.60499 0
M  V30 33865 H 3213.29 -4.77044 -5.9189 0
M  V30 33866 O 3214.91 1.53293 -0.508279 0
M  V30 33867 H 3215.6 1.93699 0.00742734 0
M  V30 END ATOM
M  V30 BEGIN BOND
M  V30 END BOND
M  V30 END CTAB
M  END
$$$$
