drugbank_target|Q9NR19 Acetyl-coenzyme A synthetase, cytoplasmic (DB00131; DB00171)
 OpenBabel12092119303D

  0  0  0     0  0            999 V3000
M  V30 BEGIN CTAB
M  V30 COUNTS 10937 11093 0 0 0
M  V30 BEGIN ATOM
M  V30 1 H -0.908 1.98254 -0.117106 0
M  V30 2 N 0 1.576 0 0
M  V30 3 C 0.933 2.03868 1.02534 0
M  V30 4 C 1.911 0.928543 1.3348 0
M  V30 5 O 3.095 1.19667 1.45644 0
M  V30 6 C 0.222 2.43627 2.35294 0
M  V30 7 C -0.732 3.65373 2.2001 0
M  V30 8 S 0.101 5.13292 1.52614 0
M  V30 9 C 1.257 5.56322 2.86805 0
M  V30 10 H 1.49 2.90518 0.631377 0
M  V30 11 H -0.977 1.52953 0.210867 0
M  V30 12 H 0.981 2.67203 3.11629 0
M  V30 13 H -0.358 1.57376 2.7183 0
M  V30 14 H -1.165 3.90944 3.18086 0
M  V30 15 H -1.563 3.418 1.51819 0
M  V30 16 H 0.729 5.58782 3.83104 0
M  V30 17 H 1.672 6.56266 2.65933 0
M  V30 18 H 2.08 4.83886 2.90714 0
M  V30 19 N 1.4781 -0.272755 1.55222 0
M  V30 20 C 2.7261 -1.00234 1.75492 0
M  V30 21 C 3.0471 -1.8681 0.5592 0
M  V30 22 O 2.3171 -1.91215 -0.425882 0
M  V30 23 H 0.8971 -0.373076 0.647166 0
M  V30 24 H 3.5591 -0.296926 1.92625 0
M  V30 25 H 2.6551 -1.63913 2.65592 0
M  V30 26 N 2.9562 -1.48159 -0.537278 0
M  V30 27 C 3.8862 -1.65029 -1.6519 0
M  V30 28 C 4.8672 -0.499281 -1.62607 0
M  V30 29 O 6.0522 -0.730972 -1.79918 0
M  V30 30 C 3.1822 -1.68303 -3.03795 0
M  V30 31 C 2.1362 -2.8283 -3.21234 0
M  V30 32 C 1.4622 -2.71189 -4.60826 0
M  V30 33 C 2.7622 -4.24211 -3.04701 0
M  V30 34 H 4.4562 -2.58341 -1.51328 0
M  V30 35 H 2.0022 -1.24325 -0.726585 0
M  V30 36 H 3.9552 -1.78693 -3.81637 0
M  V30 37 H 2.6792 -0.715635 -3.18663 0
M  V30 38 H 1.3382 -2.71983 -2.45807 0
M  V30 39 H 0.9862 -1.72435 -4.7252 0
M  V30 40 H 0.6862 -3.48035 -4.7344 0
M  V30 41 H 2.2102 -2.83537 -5.40777 0
M  V30 42 H 3.6242 -4.3593 -3.72341 0
M  V30 43 H 2.0212 -5.01998 -3.28813 0
M  V30 44 H 3.0912 -4.41184 -2.01209 0
M  V30 45 N 4.4343 0.785586 -1.36625 0
M  V30 46 C 5.8453 1.36101 -1.27803 0
M  V30 47 C 6.1963 1.96035 0.0804875 0
M  V30 48 O 5.3213 1.92834 0.982042 0
M  V30 49 C 5.9163 2.47442 -2.31426 0
M  V30 50 C 4.4753 3.00789 -2.26281 0
M  V30 51 C 3.6223 1.73896 -2.15999 0
M  V30 52 H 6.5733 0.586928 -1.47448 0
M  V30 53 H 6.5943 3.2656 -1.95291 0
M  V30 54 H 6.1063 2.03791 -3.30289 0
M  V30 55 H 4.2073 3.48851 -1.30896 0
M  V30 56 H 4.3203 3.57343 -3.19128 0
M  V30 57 H 2.6843 1.9628 -1.62316 0
M  V30 58 H 3.4673 1.32368 -3.16755 0
M  V30 59 N 5.9124 1.20967 1.01018 0
M  V30 60 C 6.8224 0.980157 2.13143 0
M  V30 61 C 7.8384 -0.0660665 1.73875 0
M  V30 62 O 9.0144 0.122821 2.01025 0
M  V30 63 C 6.0794 0.54216 3.42435 0
M  V30 64 C 5.1404 1.65999 3.95908 0
M  V30 65 C 4.3734 1.2428 5.19028 0
M  V30 66 O 4.5964 0.114196 5.70286 0
M  V30 67 O 3.5304 2.05271 5.65816 0
M  V30 68 H 7.3564 1.91913 2.35379 0
M  V30 69 H 4.9414 0.994099 1.11526 0
M  V30 70 H 6.8234 0.30744 4.20277 0
M  V30 71 H 5.4984 -0.36815 3.216 0
M  V30 72 H 4.4054 1.94906 3.19316 0
M  V30 73 H 5.7384 2.54753 4.21143 0
M  V30 74 N 7.3905 -1.2043 1.01659 0
M  V30 75 C 8.3005 -2.2689 0.596484 0
M  V30 76 C 9.3165 -1.70107 -0.36599 0
M  V30 77 O 10.4925 -2.00117 -0.226942 0
M  V30 78 C 7.5575 -3.4665 -0.0586659 0
M  V30 79 C 6.6185 -4.18662 0.949751 0
M  V30 80 C 5.8515 -5.32705 0.32577 0
M  V30 81 O 6.0745 -5.63656 -0.874509 0
M  V30 82 O 5.0085 -5.92803 1.04249 0
M  V30 83 H 8.8345 -2.65041 1.4828 0
M  V30 84 H 6.4195 -1.27048 0.786082 0
M  V30 85 H 8.3015 -4.19256 -0.424564 0
M  V30 86 H 6.9765 -3.10375 -0.91918 0
M  V30 87 H 5.8835 -3.48229 1.36702 0
M  V30 88 H 7.2165 -4.58878 1.78023 0
M  V30 89 N 8.8686 -0.792821 -1.36206 0
M  V30 90 C 10.2846 -0.474903 -1.52371 0
M  V30 91 C 10.4846 1.00622 -1.74578 0
M  V30 92 O 9.5406 1.79162 -1.77924 0
M  V30 93 C 10.8536 -1.3083 -2.70747 0
M  V30 94 C 12.4016 -1.30234 -2.84619 0
M  V30 95 C 12.8766 -2.11956 -4.06004 0
M  V30 96 N 14.3676 -2.09419 -4.13156 0
M  V30 97 C 15.1026 -2.69419 -5.06163 0
M  V30 98 N 14.5986 -3.3829 -6.04592 0
M  V30 99 N 16.3916 -2.59134 -4.98804 0
M  V30 100 H 8.5426 -1.75222 -1.20046 0
M  V30 101 H 10.8056 -0.745024 -0.586211 0
M  V30 102 H 10.5116 -2.35881 -2.6087 0
M  V30 103 H 10.3856 -0.95196 -3.6499 0
M  V30 104 H 12.7726 -0.259748 -2.93955 0
M  V30 105 H 12.8536 -1.69847 -1.91274 0
M  V30 106 H 12.4976 -3.16248 -3.97429 0
M  V30 107 H 12.4276 -1.69711 -4.98503 0
M  V30 108 H 14.9186 -1.59297 -3.42685 0
M  V30 109 H 15.2316 -3.81394 -6.7213 0
M  V30 110 H 13.5766 -3.42393 -6.04807 0
M  V30 111 H 16.7676 -2.04927 -4.20859 0
M  V30 112 H 16.9406 -3.06185 -5.711 0
M  V30 113 N 10.3467 1.47872 -0.545128 0
M  V30 114 C 11.5927 2.02793 -0.0166104 0
M  V30 115 C 11.9257 1.41987 1.32489 0
M  V30 116 O 11.2007 0.571045 1.85928 0
M  V30 117 C 11.4837 3.59989 0.0893294 0
M  V30 118 C 11.3367 4.3125 -1.27841 0
M  V30 119 C 12.6557 4.32606 0.808724 0
M  V30 120 H 9.7747 0.736962 -0.00751035 0
M  V30 121 H 12.4167 1.76433 -0.705085 0
M  V30 122 H 10.5667 3.82579 0.675681 0
M  V30 123 H 12.2387 4.20035 -1.90704 0
M  V30 124 H 10.4817 3.92076 -1.85632 0
M  V30 125 H 11.1527 5.39736 -1.15713 0
M  V30 126 H 13.6287 4.14936 0.310992 0
M  V30 127 H 12.5047 5.42251 0.851782 0
M  V30 128 H 12.7657 4.00963 1.86229 0
M  V30 129 N 11.8248 0.280983 1.55075 0
M  V30 130 C 13.2408 -0.0729964 1.59433 0
M  V30 131 C 13.4408 -1.5411 1.29817 0
M  V30 132 O 12.4968 -2.29086 1.06187 0
M  V30 133 C 13.8098 0.306921 2.9913 0
M  V30 134 C 15.3578 0.254023 3.11968 0
M  V30 135 C 15.8328 0.608467 4.5394 0
M  V30 136 N 17.3238 0.560241 4.59799 0
M  V30 137 C 18.0588 0.80722 5.6769 0
M  V30 138 N 17.5548 1.11912 6.83701 0
M  V30 139 N 19.3478 0.735623 5.57266 0
M  V30 140 H 11.4988 1.238 1.7259 0
M  V30 141 H 13.7618 0.500547 0.805082 0
M  V30 142 H 13.4678 1.32816 3.25657 0
M  V30 143 H 13.3418 -0.349363 3.75579 0
M  V30 144 H 15.7288 -0.75794 2.852 0
M  V30 145 H 15.8098 0.944649 2.37718 0
M  V30 146 H 15.4538 1.61814 4.81434 0
M  V30 147 H 15.3838 -0.104013 5.26497 0
M  V30 148 H 17.8748 0.329288 3.76463 0
M  V30 149 H 18.1878 1.29409 7.61888 0
M  V30 150 H 16.5328 1.15695 6.85303 0
M  V30 151 H 19.7238 0.491752 4.6551 0
M  V30 152 H 19.8968 0.931482 6.4127 0
M  V30 153 N 13.3029 -1.57598 0.00835791 0
M  V30 154 C 14.5279 -1.95617 -0.689103 0
M  V30 155 C 14.9529 -0.883753 -1.66046 0
M  V30 156 O 14.3109 0.157352 -1.80616 0
M  V30 157 C 14.3589 -3.32736 -1.38994 0
M  V30 158 O 13.4629 -3.27631 -2.50463 0
M  V30 159 H 12.8039 -0.638379 -0.182668 0
M  V30 160 H 15.3339 -2.045 0.064036 0
M  V30 161 H 15.3439 -3.68494 -1.75147 0
M  V30 162 H 14.0189 -4.1034 -0.677778 0
M  V30 163 H 12.5959 -3.03561 -2.16576 0
M  V30 164 N 14.781 0.264519 -1.55364 0
M  V30 165 C 16.029 0.993021 -1.76021 0
M  V30 166 C 16.35 1.86511 -0.569099 0
M  V30 167 O 15.62 1.91438 0.415735 0
M  V30 168 H 14.2 0.369639 -0.649135 0
M  V30 169 H 16.862 0.286707 -1.9278 0
M  V30 170 H 15.958 1.62502 -2.66457 0
M  V30 171 N 16.2591 1.48442 0.529413 0
M  V30 172 C 17.4841 1.60406 1.31471 0
M  V30 173 C 17.9091 0.264738 1.86228 0
M  V30 174 O 17.2671 -0.763668 1.64432 0
M  V30 175 C 17.3151 2.65419 2.44101 0
M  V30 176 O 16.4191 2.22618 3.47153 0
M  V30 177 H 15.7601 0.537863 0.389357 0
M  V30 178 H 18.2901 1.94432 0.636965 0
M  V30 179 H 18.3001 2.86709 2.90279 0
M  V30 180 H 16.9751 3.62652 2.03608 0
M  V30 181 H 15.5521 2.11543 3.0709 0
M  V30 182 N 17.7372 -0.778329 1.37039 0
M  V30 183 C 18.9852 -1.53361 1.31623 0
M  V30 184 C 19.3062 -1.94739 -0.100831 0
M  V30 185 O 18.5762 -1.65797 -1.04347 0
M  V30 186 H 17.1562 -0.568794 0.484234 0
M  V30 187 H 19.8182 -0.926742 1.71457 0
M  V30 188 H 18.9142 -2.43606 1.95096 0
M  V30 189 N 19.2153 -1.21501 -1.00376 0
M  V30 190 C 20.4403 -1.05977 -1.78279 0
M  V30 191 C 20.8653 0.385994 -1.84097 0
M  V30 192 O 20.2233 1.27849 -1.28547 0
M  V30 193 C 20.2713 -1.66302 -3.19963 0
M  V30 194 O 19.3753 -0.909333 -4.0225 0
M  V30 195 H 18.7163 -0.372906 -0.549397 0
M  V30 196 H 21.2463 -1.6107 -1.26165 0
M  V30 197 H 21.2563 -1.70574 -3.70632 0
M  V30 198 H 19.9313 -2.71515 -3.15043 0
M  V30 199 H 18.5083 -0.941795 -3.60811 0
M  V30 200 N 20.6934 1.19889 -1.02296 0
M  V30 201 C 22.1094 1.41462 -0.738954 0
M  V30 202 C 22.3094 1.89721 0.678846 0
M  V30 203 O 21.3654 2.07016 1.4457 0
M  V30 204 C 22.6784 2.43083 -1.77005 0
M  V30 205 C 24.2264 2.5684 -1.78892 0
M  V30 206 C 24.7014 3.61709 -2.80945 0
M  V30 207 N 26.1924 3.69199 -2.79725 0
M  V30 208 C 26.9274 4.50019 -3.55345 0
M  V30 209 N 26.4234 5.34592 -4.40662 0
M  V30 210 N 28.2164 4.44612 -3.43914 0
M  V30 211 H 20.3674 0.868827 -1.93817 0
M  V30 212 H 22.6304 0.44399 -0.837602 0
M  V30 213 H 22.3364 2.14636 -2.78612 0
M  V30 214 H 22.2104 3.4217 -1.58744 0
M  V30 215 H 24.5974 2.84614 -0.779674 0
M  V30 216 H 24.6784 1.57927 -2.01228 0
M  V30 217 H 24.3224 3.34678 -3.82038 0
M  V30 218 H 24.2524 4.60259 -2.5587 0
M  V30 219 H 26.7434 3.08794 -2.17842 0
M  V30 220 H 27.0564 5.93363 -4.95116 0
M  V30 221 H 25.4014 5.34073 -4.44737 0
M  V30 222 H 28.5924 3.7758 -2.76679 0
M  V30 223 H 28.7654 5.0736 -4.031 0
M  V30 224 N 22.1715 0.800033 1.35784 0
M  V30 225 C 23.4195 0.376597 1.9856 0
M  V30 226 C 23.7405 -1.05812 1.63795 0
M  V30 227 O 23.0105 -1.73103 0.917171 0
M  V30 228 H 21.5905 0.136261 0.734467 0
M  V30 229 H 24.2525 1.02442 1.65806 0
M  V30 230 H 23.3485 0.477002 3.08433 0
M  V30 231 N 23.6496 -1.47581 0.552962 0
M  V30 232 C 24.5816 -2.27997 -0.234533 0
M  V30 233 C 25.5946 -1.36753 -0.883321 0
M  V30 234 O 26.7836 -1.61612 -0.757889 0
M  V30 235 C 23.8836 -3.10879 -1.34935 0
M  V30 236 C 23.0566 -4.30056 -0.798158 0
M  V30 237 C 22.1156 -4.94567 -1.79694 0
M  V30 238 O 21.1416 -5.53087 -1.34474 0
M  V30 239 N 22.3436 -4.88878 -3.13015 0
M  V30 240 H 25.1086 -2.96222 0.455255 0
M  V30 241 H 22.6696 -1.57163 0.388761 0
M  V30 242 H 24.6616 -3.50903 -2.01616 0
M  V30 243 H 23.2316 -2.44924 -1.94244 0
M  V30 244 H 22.4516 -3.94174 0.0453079 0
M  V30 245 H 23.7396 -5.07152 -0.409173 0
M  V30 246 H 23.1376 -4.42526 -3.52402 0
M  V30 247 H 21.6946 -5.32934 -3.75266 0
M  V30 248 N 25.1277 -0.289203 -1.54924 0
M  V30 249 C 26.0377 0.601863 -2.26748 0
M  V30 250 C 27.0537 1.15834 -1.2984 0
M  V30 251 O 28.2297 1.18564 -1.62802 0
M  V30 252 C 25.2947 1.76299 -2.98529 0
M  V30 253 C 24.3557 1.24178 -4.10948 0
M  V30 254 C 23.5887 2.34757 -4.79296 0
M  V30 255 O 23.8117 3.54411 -4.46933 0
M  V30 256 O 22.7457 2.02115 -5.66951 0
M  V30 257 H 26.5717 0.0195879 -3.03694 0
M  V30 258 H 24.1567 -0.0560868 -1.49295 0
M  V30 259 H 26.0387 2.43973 -3.43592 0
M  V30 260 H 24.7137 2.33209 -2.24488 0
M  V30 261 H 23.6207 0.531104 -3.70311 0
M  V30 262 H 24.9537 0.718252 -4.86931 0
M  V30 263 N 26.6058 1.57591 -0.0167156 0
M  V30 264 C 27.5158 2.1291 0.98521 0
M  V30 265 C 28.5318 1.07834 1.36557 0
M  V30 266 O 29.7078 1.39826 1.44951 0
M  V30 267 C 26.7728 2.63512 2.25305 0
M  V30 268 C 25.8338 3.83256 1.93426 0
M  V30 269 C 25.0668 4.31435 3.14165 0
M  V30 270 O 25.2898 3.78851 4.26413 0
M  V30 271 O 24.2238 5.23416 2.97186 0
M  V30 272 H 28.0498 2.98772 0.544888 0
M  V30 273 H 25.6348 1.48012 0.203141 0
M  V30 274 H 27.5168 2.96183 2.99756 0
M  V30 275 H 26.1918 1.8074 2.68542 0
M  V30 276 H 25.0988 3.55531 1.16398 0
M  V30 277 H 26.4318 4.67153 1.55013 0
M  V30 278 N 28.0839 -0.256276 1.55502 0
M  V30 279 C 29.0469 -1.30047 1.88734 0
M  V30 280 C 30.0469 -1.4154 0.763086 0
M  V30 281 O 31.2369 -1.40403 1.03115 0
M  V30 282 C 28.3689 -2.67953 2.10747 0
M  V30 283 H 29.5619 -1.01802 2.82093 0
M  V30 284 H 27.1149 -0.495134 1.4825 0
M  V30 285 H 27.8499 -3.01351 1.19825 0
M  V30 286 H 27.6349 -2.60993 2.92617 0
M  V30 287 H 29.1249 -3.43368 2.37673 0
M  V30 288 N 29.562 -1.4872 -0.521534 0
M  V30 289 C 30.81 -1.56857 -1.27437 0
M  V30 290 C 31.131 -0.247982 -1.93417 0
M  V30 291 O 30.401 0.731151 -1.81744 0
M  V30 292 H 28.981 -0.577885 -0.473347 0
M  V30 293 H 31.643 -1.85233 -0.606205 0
M  V30 294 H 30.739 -2.35402 -2.0492 0
M  V30 295 N 31.0401 0.771051 -1.3745 0
M  V30 296 C 32.0031 1.86598 -1.33093 0
M  V30 297 C 33.0031 1.59076 -0.234845 0
M  V30 298 O 34.1931 1.67145 -0.490732 0
M  V30 299 C 31.3251 3.23747 -1.06773 0
M  V30 300 H 32.5181 1.91873 -2.30488 0
M  V30 301 H 30.0711 0.970876 -1.2249 0
M  V30 302 H 30.8061 3.24148 -0.099129 0
M  V30 303 H 30.5911 3.45115 -1.86112 0
M  V30 304 H 32.0811 4.03824 -1.06377 0
M  V30 305 N 32.5182 1.22032 0.997298 0
M  V30 306 C 33.7662 1.04016 1.73278 0
M  V30 307 C 34.0872 -0.426255 1.90284 0
M  V30 308 O 33.3572 -1.30694 1.45931 0
M  V30 309 H 31.9372 0.381897 0.642 0
M  V30 310 H 34.5992 1.5347 1.20137 0
M  V30 311 H 33.6952 1.51441 2.72896 0
M  V30 312 N 33.9963 -1.19345 1.0293 0
M  V30 313 C 35.2443 -1.88665 0.724574 0
M  V30 314 C 35.5653 -1.80036 -0.749144 0
M  V30 315 O 34.8353 -1.2111 -1.53978 0
M  V30 316 H 33.4153 -0.698406 0.265025 0
M  V30 317 H 36.0773 -1.44885 1.30362 0
M  V30 318 H 35.1733 -2.94987 1.01926 0
M  V30 319 N 35.4744 -0.807222 -1.35358 0
M  V30 320 C 36.8904 -0.491038 -1.51858 0
M  V30 321 C 37.0904 0.987648 -1.75635 0
M  V30 322 O 36.1464 1.77265 -1.79815 0
M  V30 323 C 37.4594 -1.33695 -2.69344 0
M  V30 324 C 39.0074 -1.33246 -2.83222 0
M  V30 325 C 39.4824 -2.1625 -4.03733 0
M  V30 326 N 40.9734 -2.1379 -4.10911 0
M  V30 327 C 41.7084 -2.74772 -5.03277 0
M  V30 328 N 41.2044 -3.44684 -6.0097 0
M  V30 329 N 42.9974 -2.6441 -4.96028 0
M  V30 330 H 35.1484 -1.76485 -1.18181 0
M  V30 331 H 37.4114 -0.751199 -0.578276 0
M  V30 332 H 37.1174 -2.38634 -2.58354 0
M  V30 333 H 36.9914 -0.990618 -3.6396 0
M  V30 334 H 39.3784 -0.290911 -2.93663 0
M  V30 335 H 39.4594 -1.71866 -1.89461 0
M  V30 336 H 39.1034 -3.20445 -3.94052 0
M  V30 337 H 39.0334 -1.74989 -4.96675 0
M  V30 338 H 41.5244 -1.62923 -3.40976 0
M  V30 339 H 41.8374 -3.88501 -6.68047 0
M  V30 340 H 40.1824 -3.48788 -6.01142 0
M  V30 341 H 43.3734 -2.0938 -4.18662 0
M  V30 342 H 43.5464 -3.12225 -5.6782 0
M  V30 343 N 36.9525 1.47285 -0.560781 0
M  V30 344 C 37.9155 2.28535 0.174488 0
M  V30 345 C 38.9155 1.37153 0.839388 0
M  V30 346 O 40.1055 1.59748 0.694702 0
M  V30 347 C 37.2375 3.16934 1.25561 0
M  V30 348 H 38.4305 2.95012 -0.539262 0
M  V30 349 H 35.9835 1.53034 -0.317865 0
M  V30 350 H 36.7185 2.55157 2.00164 0
M  V30 351 H 36.5035 3.8419 0.783604 0
M  V30 352 H 37.9935 3.78143 1.77193 0
M  V30 353 N 38.4306 0.297415 1.54768 0
M  V30 354 C 39.8466 -0.0560823 1.59501 0
M  V30 355 C 40.0466 -1.52725 1.31444 0
M  V30 356 O 39.1026 -2.27947 1.08611 0
M  V30 357 C 40.4156 0.338631 2.98787 0
M  V30 358 C 41.9636 0.287097 3.11681 0
M  V30 359 C 42.4386 0.656579 4.53269 0
M  V30 360 N 43.9296 0.608977 4.59179 0
M  V30 361 C 44.6646 0.867385 5.66802 0
M  V30 362 N 44.1606 1.19157 6.82476 0
M  V30 363 N 45.9536 0.794687 5.56454 0
M  V30 364 H 38.1046 1.25624 1.71267 0
M  V30 365 H 40.3676 0.509057 0.799728 0
M  V30 366 H 40.0736 1.36263 3.2423 0
M  V30 367 H 39.9476 -0.309508 3.75928 0
M  V30 368 H 42.3346 -0.727649 2.85988 0
M  V30 369 H 42.4156 0.969809 2.36703 0
M  V30 370 H 42.0596 1.66912 4.7969 0
M  V30 371 H 41.9896 -0.0481649 5.26578 0
M  V30 372 H 44.4806 0.369198 3.76092 0
M  V30 373 H 44.7936 1.37482 7.60473 0
M  V30 374 H 43.1386 1.22958 6.84037 0
M  V30 375 H 46.3296 0.541098 4.64962 0
M  V30 376 H 46.5026 0.999445 6.40246 0
M  V30 377 N 39.9087 -1.5758 0.0250728 0
M  V30 378 C 41.1337 -1.96337 -0.668317 0
M  V30 379 C 41.5587 -0.901314 -1.651 0
M  V30 380 O 40.9167 0.138187 -1.80773 0
M  V30 381 C 40.9647 -3.34191 -1.35457 0
M  V30 382 O 40.0687 -3.30269 -2.46974 0
M  V30 383 H 39.4097 -0.640281 -0.175887 0
M  V30 384 H 41.9397 -2.0442 0.0857224 0
M  V30 385 H 41.9497 -3.70331 -1.71228 0
M  V30 386 H 40.6247 -4.11036 -0.634218 0
M  V30 387 H 39.2017 -3.05841 -2.13344 0
M  V30 388 N 41.3868 0.248026 -1.55636 0
M  V30 389 C 42.6328 0.973427 -1.78594 0
M  V30 390 C 42.9878 1.83007 -0.593823 0
M  V30 391 O 42.2808 1.87097 0.412961 0
M  V30 392 C 42.4748 1.86819 -3.04686 0
M  V30 393 C 42.3038 1.09965 -4.36048 0
M  V30 394 C 41.0738 0.805204 -4.98843 0
M  V30 395 C 43.2718 0.477783 -5.12076 0
M  V30 396 N 41.2538 0.0124859 -6.13899 0
M  V30 397 C 42.6248 -0.179565 -6.1974 0
M  V30 398 C 44.6798 0.388136 -4.96385 0
M  V30 399 C 43.3828 -0.91795 -7.13419 0
M  V30 400 C 45.4088 -0.336716 -5.90441 0
M  V30 401 C 44.7708 -0.982705 -6.97511 0
M  V30 402 H 40.8698 0.337348 -0.705493 0
M  V30 403 H 43.4538 0.24667 -1.93131 0
M  V30 404 H 41.6248 2.56698 -2.9148 0
M  V30 405 H 43.3568 2.52907 -3.15944 0
M  V30 406 H 40.1118 1.11671 -4.60246 0
M  V30 407 H 40.5358 -0.371933 -6.75978 0
M  V30 408 H 45.1778 0.873237 -4.13684 0
M  V30 409 H 42.8958 -1.41466 -7.95621 0
M  V30 410 H 46.4818 -0.406731 -5.80377 0
M  V30 411 H 45.3618 -1.53464 -7.69037 0
M  V30 412 N 42.8649 1.48995 0.513639 0
M  V30 413 C 44.0899 1.61792 1.29762 0
M  V30 414 C 44.5149 0.284475 1.85936 0
M  V30 415 O 43.8729 -0.746185 1.65232 0
M  V30 416 C 43.9209 2.67993 2.41272 0
M  V30 417 O 43.0249 2.26287 3.44772 0
M  V30 418 H 42.3659 0.541963 0.38363 0
M  V30 419 H 44.8959 1.95097 0.616307 0
M  V30 420 H 44.9059 2.89772 2.87221 0
M  V30 421 H 43.5809 3.64791 1.9975 0
M  V30 422 H 42.1579 2.14788 3.04829 0
M  V30 423 N 44.343 -0.763751 1.37857 0
M  V30 424 C 45.754 -1.3405 1.29952 0
M  V30 425 C 46.105 -1.96138 -0.0492898 0
M  V30 426 O 45.23 -1.94372 -0.951239 0
M  V30 427 C 45.825 -2.43729 2.35333 0
M  V30 428 C 44.384 -2.97151 2.31037 0
M  V30 429 C 43.531 -1.70438 2.18738 0
M  V30 430 H 46.482 -0.563396 1.48363 0
M  V30 431 H 46.503 -3.23412 2.00462 0
M  V30 432 H 46.015 -1.9851 3.33489 0
M  V30 433 H 44.116 -3.46724 1.3643 0
M  V30 434 H 44.229 -3.52221 3.24772 0
M  V30 435 H 42.593 -1.93673 1.65418 0
M  V30 436 H 43.376 -1.27312 3.18821 0
M  V30 437 N 45.8211 -1.22559 -0.990812 0
M  V30 438 C 47.2321 -1.04791 -1.54518 0
M  V30 439 C 47.5831 0.387998 -1.92325 0
M  V30 440 O 46.7081 1.27328 -1.74976 0
M  V30 441 C 47.3031 -1.896 -2.80779 0
M  V30 442 C 45.8621 -1.76124 -3.32652 0
M  V30 443 C 45.0091 -1.8594 -2.05722 0
M  V30 444 H 47.9601 -1.36374 -0.811662 0
M  V30 445 H 47.9811 -1.41464 -3.53225 0
M  V30 446 H 47.4931 -2.94101 -2.53231 0
M  V30 447 H 45.5941 -0.743643 -3.65104 0
M  V30 448 H 45.7071 -2.58913 -4.03114 0
M  V30 449 H 44.0711 -1.29403 -2.19379 0
M  V30 450 H 44.8541 -2.91976 -1.80568 0
M  V30 451 N 47.2992 1.18797 -1.03562 0
M  V30 452 C 48.7102 1.70322 -0.764676 0
M  V30 453 C 49.0612 1.82708 0.714996 0
M  V30 454 O 48.1862 1.50299 1.55689 0
M  V30 455 C 48.7812 3.09356 -1.38145 0
M  V30 456 C 47.3402 3.58114 -1.15895 0
M  V30 457 C 46.4872 2.34798 -1.4753 0
M  V30 458 H 49.4382 1.03543 -1.20268 0
M  V30 459 H 49.4592 3.72378 -0.781977 0
M  V30 460 H 48.9712 3.00309 -2.45837 0
M  V30 461 H 47.0722 3.72464 -0.100544 0
M  V30 462 H 47.1852 4.4184 -1.8524 0
M  V30 463 H 45.5492 2.38464 -0.894829 0
M  V30 464 H 46.3322 2.28375 -2.56319 0
M  V30 465 N 48.7773 0.814389 1.34928 0
M  V30 466 C 49.6873 0.231978 2.3345 0
M  V30 467 C 50.7033 -0.629139 1.62228 0
M  V30 468 O 51.8793 -0.539052 1.94052 0
M  V30 469 C 48.9443 -0.603482 3.41407 0
M  V30 470 C 48.0053 0.279037 4.28392 0
M  V30 471 C 47.2383 -0.516643 5.31193 0
M  V30 472 O 47.4613 -1.75068 5.4287 0
M  V30 473 O 46.3953 0.0965652 6.01823 0
M  V30 474 H 50.2213 1.04721 2.85074 0
M  V30 475 H 47.8063 0.576343 1.37836 0
M  V30 476 H 49.6883 -1.07908 4.0735 0
M  V30 477 H 48.3633 -1.39618 2.92042 0
M  V30 478 H 47.2703 0.801948 3.65403 0
M  V30 479 H 48.6033 1.03588 4.81176 0
M  V30 480 N 50.2554 -1.46986 0.568584 0
M  V30 481 C 51.5014 -2.02741 0.0488709 0
M  V30 482 C 51.8344 -1.44077 -1.30214 0
M  V30 483 O 51.1094 -0.600552 -1.84996 0
M  V30 484 C 51.3924 -3.60086 -0.032047 0
M  V30 485 C 51.2454 -4.29162 1.34686 0
M  V30 486 C 52.5644 -4.33838 -0.739798 0
M  V30 487 H 49.6834 -0.736749 0.0192338 0
M  V30 488 H 52.3254 -1.75289 0.733065 0
M  V30 489 H 50.4754 -3.83606 -0.61473 0
M  V30 490 H 52.1474 -4.16948 1.97362 0
M  V30 491 H 50.3904 -3.89073 1.91846 0
M  V30 492 H 51.0614 -5.37826 1.24285 0
M  V30 493 H 53.5374 -4.15378 -0.244939 0
M  V30 494 H 52.4134 -5.43537 -0.765406 0
M  V30 495 H 52.6744 -4.03875 -1.79827 0
M  V30 496 N 51.7335 -0.305618 -1.54608 0
M  V30 497 C 52.9585 0.307562 -2.05107 0
M  V30 498 C 53.3835 1.46385 -1.18123 0
M  V30 499 O 52.7415 1.8034 -0.186324 0
M  V30 500 C 52.7895 0.73704 -3.52987 0
M  V30 501 O 51.8935 1.84134 -3.6901 0
M  V30 502 H 51.2345 0.0589143 -0.661381 0
M  V30 503 H 53.7645 -0.448807 -1.99617 0
M  V30 504 H 53.7745 1.02459 -3.94925 0
M  V30 505 H 52.4495 -0.108773 -4.15758 0
M  V30 506 H 51.0265 1.55398 -3.38978 0
M  V30 507 N 53.2116 1.57565 -0.0334293 0
M  V30 508 C 54.6276 1.56297 0.322997 0
M  V30 509 C 54.8276 1.03945 1.7262 0
M  V30 510 O 53.8836 0.688109 2.42943 0
M  V30 511 C 55.1966 3.00232 0.167664 0
M  V30 512 C 56.7446 3.12078 0.240107 0
M  V30 513 C 57.2196 4.57859 0.113513 0
M  V30 514 N 58.7106 4.62887 0.170359 0
M  V30 515 C 59.4456 5.73319 0.0962517 0
M  V30 516 N 58.9416 6.92794 -0.0291881 0
M  V30 517 N 60.7346 5.61898 0.150551 0
M  V30 518 H 52.8856 1.89923 -0.950956 0
M  V30 519 H 55.1486 0.873824 -0.367608 0
M  V30 520 H 54.8546 3.42501 -0.799102 0
M  V30 521 H 54.7286 3.654 0.936083 0
M  V30 522 H 57.1156 2.69718 1.19733 0
M  V30 523 H 57.1966 2.49623 -0.558763 0
M  V30 524 H 56.8406 5.009 -0.840314 0
M  V30 525 H 56.7706 5.18299 0.931302 0
M  V30 526 H 59.2616 3.76954 0.26728 0
M  V30 527 H 59.5746 7.7276 -0.0789252 0
M  V30 528 H 57.9196 6.94971 -0.0640299 0
M  V30 529 H 61.1106 4.67448 0.246981 0
M  V30 530 H 61.2836 6.47938 0.0893365 0
M  V30 531 N 54.6897 -0.239769 1.55765 0
M  V30 532 C 55.9147 -0.988373 1.82335 0
M  V30 533 C 56.3397 -1.77886 0.611421 0
M  V30 534 O 55.6977 -1.75889 -0.439639 0
M  V30 535 C 55.7457 -1.89627 3.06715 0
M  V30 536 O 54.8497 -2.98904 2.84131 0
M  V30 537 H 54.1907 -0.280858 0.601677 0
M  V30 538 H 56.7207 -0.258597 2.02959 0
M  V30 539 H 56.7307 -2.30957 3.36338 0
M  V30 540 H 55.4057 -1.31511 3.9456 0
M  V30 541 H 53.9827 -2.61651 2.65694 0
M  V30 542 N 56.1678 -1.49265 -0.50573 0
M  V30 543 C 57.1308 -1.65075 -1.59006 0
M  V30 544 C 58.1308 -0.522768 -1.52065 0
M  V30 545 O 59.3208 -0.789117 -1.55302 0
M  V30 546 C 56.4528 -1.64369 -2.98656 0
M  V30 547 H 57.6458 -2.61784 -1.46319 0
M  V30 548 H 55.1988 -1.38226 -0.729616 0
M  V30 549 H 55.9338 -0.692272 -3.16825 0
M  V30 550 H 55.7188 -2.46282 -3.05103 0
M  V30 551 H 57.2088 -1.78674 -3.77446 0
M  V30 552 N 57.6459 0.756429 -1.3826 0
M  V30 553 C 58.5959 1.86069 -1.31766 0
M  V30 554 C 59.5799 1.59621 -0.202483 0
M  V30 555 O 60.7719 1.7149 -0.438211 0
M  V30 556 C 57.9009 3.23742 -1.1422 0
M  V30 557 C 56.9869 3.56091 -2.30348 0
M  V30 558 N 57.3779 3.59517 -3.55783 0
M  V30 559 C 55.6759 3.86341 -2.22838 0
M  V30 560 C 56.3769 3.89052 -4.32451 0
M  V30 561 N 55.3529 4.05736 -3.61772 0
M  V30 562 H 59.1549 1.86992 -2.26741 0
M  V30 563 H 56.6689 0.953643 -1.31451 0
M  V30 564 H 58.6659 4.02761 -1.07652 0
M  V30 565 H 57.3259 3.24073 -0.201763 0
M  V30 566 H 58.3369 3.41347 -3.89491 0
M  V30 567 H 55.0139 3.94404 -1.36937 0
M  V30 568 H 56.4039 3.98349 -5.4108 0
M  V30 569 N 59.124 1.23083 0.984299 0
M  V30 570 C 60.37 1.06214 1.72761 0
M  V30 571 C 60.703 -0.400584 1.90024 0
M  V30 572 O 59.978 -1.29672 1.44967 0
M  V30 573 C 60.261 1.78375 3.12817 0
M  V30 574 C 60.114 3.32296 3.03149 0
M  V30 575 C 61.433 1.54309 4.12161 0
M  V30 576 H 58.552 0.387251 0.627061 0
M  V30 577 H 61.194 1.51536 1.14616 0
M  V30 578 H 59.344 1.39848 3.62457 0
M  V30 579 H 61.016 3.8032 2.61064 0
M  V30 580 H 59.259 3.6153 2.39747 0
M  V30 581 H 59.93 3.77972 4.02295 0
M  V30 582 H 62.406 1.87791 3.71314 0
M  V30 583 H 61.282 2.07281 5.08258 0
M  V30 584 H 61.543 0.477572 4.39513 0
M  V30 585 N 60.6021 -1.18246 1.0419 0
M  V30 586 C 62.0131 -1.69914 0.773698 0
M  V30 587 C 62.3641 -1.83085 -0.705297 0
M  V30 588 O 61.4891 -1.51123 -1.5489 0
M  V30 589 C 62.0841 -3.08619 1.39784 0
M  V30 590 C 60.6431 -3.57494 1.17792 0
M  V30 591 C 59.7901 -2.34013 1.48773 0
M  V30 592 H 62.7411 -1.02904 1.20816 0
M  V30 593 H 62.7621 -3.71958 0.801714 0
M  V30 594 H 62.2741 -2.99001 2.47426 0
M  V30 595 H 60.3751 -3.72406 0.120295 0
M  V30 596 H 60.4881 -4.40852 1.87581 0
M  V30 597 H 58.8521 -2.37986 0.907463 0
M  V30 598 H 59.6351 -2.27013 2.57527 0
M  V30 599 N 62.0802 -0.821533 -1.34494 0
M  V30 600 C 63.3052 -0.420873 -2.03085 0
M  V30 601 C 63.7302 0.964915 -1.61465 0
M  V30 602 O 63.0882 1.62763 -0.798607 0
M  V30 603 C 63.1362 -0.529414 -3.56693 0
M  V30 604 O 62.2402 0.451302 -4.09923 0
M  V30 605 H 61.5812 -0.173489 -0.640935 0
M  V30 606 H 64.1112 -1.11157 -1.71771 0
M  V30 607 H 64.1212 -0.404671 -4.05988 0
M  V30 608 H 62.7962 -1.54014 -3.86332 0
M  V30 609 H 61.3732 0.285558 -3.71805 0
M  V30 610 N 63.5583 1.46682 -0.576371 0
M  V30 611 C 64.4883 2.33028 0.148397 0
M  V30 612 C 65.4693 1.44961 0.889956 0
M  V30 613 O 66.6543 1.73789 0.866662 0
M  V30 614 C 63.7843 3.27117 1.1667 0
M  V30 615 C 62.7383 4.24575 0.540386 0
M  V30 616 C 62.0643 5.08126 1.6647 0
M  V30 617 C 63.3643 5.19722 -0.518331 0
M  V30 618 H 65.0583 2.93875 -0.572509 0
M  V30 619 H 62.6043 1.41315 -0.276768 0
M  V30 620 H 64.5573 3.86374 1.68204 0
M  V30 621 H 63.2813 2.64364 1.9178 0
M  V30 622 H 61.9403 3.66571 0.0461769 0
M  V30 623 H 61.5883 4.41762 2.40531 0
M  V30 624 H 61.2883 5.74122 1.25131 0
M  V30 625 H 62.8123 5.70246 2.18293 0
M  V30 626 H 64.2263 5.73232 -0.0883058 0
M  V30 627 H 62.6233 5.94026 -0.851679 0
M  V30 628 H 63.6933 4.64037 -1.40703 0
M  V30 629 N 65.0364 0.313813 1.54444 0
M  V30 630 C 65.9684 -0.590425 2.21465 0
M  V30 631 C 66.9814 -1.08753 1.21147 0
M  V30 632 O 68.1704 -1.00278 1.4767 0
M  V30 633 C 65.2704 -1.82179 2.85769 0
M  V30 634 C 64.4434 -1.46502 4.12136 0
M  V30 635 C 63.5024 -2.55288 4.60124 0
M  V30 636 O 62.5284 -2.19842 5.25032 0
M  V30 637 N 63.7304 -3.86053 4.33525 0
M  V30 638 H 66.4954 -0.0166033 2.99695 0
M  V30 639 H 64.0564 0.136578 1.61323 0
M  V30 640 H 66.0484 -2.54328 3.14801 0
M  V30 641 H 64.6184 -2.30369 2.11303 0
M  V30 642 H 63.8384 -0.575595 3.89975 0
M  V30 643 H 65.1264 -1.20221 4.94393 0
M  V30 644 H 64.5244 -4.17654 3.81552 0
M  V30 645 H 63.0814 -4.54461 4.67235 0
M  V30 646 N 66.5145 -1.57545 0.0417849 0
M  V30 647 C 67.9305 -1.56467 -0.314704 0
M  V30 648 C 68.1305 -1.04859 -1.72066 0
M  V30 649 O 67.1865 -0.700983 -2.42575 0
M  V30 650 C 68.4995 -3.00317 -0.15174 0
M  V30 651 C 70.0475 -3.12201 -0.223553 0
M  V30 652 C 70.5225 -4.57913 -0.0892295 0
M  V30 653 N 72.0135 -4.6297 -0.145808 0
M  V30 654 C 72.7485 -5.73362 -0.0658459 0
M  V30 655 N 72.2445 -6.92769 0.0659282 0
M  V30 656 N 74.0375 -5.6197 -0.12075 0
M  V30 657 H 66.1885 -1.89416 0.961014 0
M  V30 658 H 68.4515 -0.871862 0.372237 0
M  V30 659 H 68.1575 -3.42073 0.817254 0
M  V30 660 H 68.0315 -3.65892 -0.916692 0
M  V30 661 H 70.4185 -2.70349 -1.18301 0
M  V30 662 H 70.4995 -2.49323 0.571994 0
M  V30 663 H 70.1435 -5.00448 0.866867 0
M  V30 664 H 70.0735 -5.18786 -0.903802 0
M  V30 665 H 72.5645 -3.7709 -0.247286 0
M  V30 666 H 72.8775 -7.72707 0.119905 0
M  V30 667 H 71.2225 -6.94927 0.100885 0
M  V30 668 H 74.4135 -4.67572 -0.222187 0
M  V30 669 H 74.5865 -6.47977 -0.0549735 0
M  V30 670 N 67.9926 0.231505 -1.5589 0
M  V30 671 C 69.2226 0.973092 -1.82248 0
M  V30 672 C 69.6306 1.78845 -0.617328 0
M  V30 673 O 68.9736 1.78752 0.423499 0
M  V30 674 C 69.0356 1.94732 -3.02192 0
M  V30 675 C 68.6996 1.31743 -4.37599 0
M  V30 676 C 69.6966 0.712238 -5.14998 0
M  V30 677 C 67.3816 1.33218 -4.84312 0
M  V30 678 C 69.3756 0.130195 -6.37267 0
M  V30 679 C 67.0626 0.746286 -6.06526 0
M  V30 680 C 68.0606 0.146337 -6.82843 0
M  V30 681 O 67.7486 -0.430465 -8.02747 0
M  V30 682 H 67.4806 0.29125 -0.61004 0
M  V30 683 H 70.0346 0.254915 -2.03812 0
M  V30 684 H 68.2646 2.70422 -2.76422 0
M  V30 685 H 69.9536 2.55362 -3.15508 0
M  V30 686 H 70.7196 0.69324 -4.8002 0
M  V30 687 H 66.5986 1.78854 -4.24891 0
M  V30 688 H 70.1426 -0.33871 -6.96777 0
M  V30 689 H 66.0396 0.762663 -6.40979 0
M  V30 690 H 66.8076 -0.323818 -8.17859 0
M  V30 691 N 69.4707 1.49531 0.497807 0
M  V30 692 C 70.8867 1.36365 0.829266 0
M  V30 693 C 71.0867 0.399184 1.97506 0
M  V30 694 O 70.1427 -0.167977 2.51941 0
M  V30 695 C 71.4557 2.77153 1.16647 0
M  V30 696 C 73.0037 2.85877 1.27449 0
M  V30 697 C 73.4787 4.2744 1.64497 0
M  V30 698 N 74.9697 4.30265 1.7154 0
M  V30 699 C 75.7047 5.3677 2.01656 0
M  V30 700 N 75.2007 6.53516 2.29976 0
M  V30 701 N 76.9937 5.24189 2.02934 0
M  V30 702 H 69.1447 2.10831 -0.257703 0
M  V30 703 H 71.4077 0.946534 -0.0527091 0
M  V30 704 H 71.1137 3.49442 0.397872 0
M  V30 705 H 70.9877 3.12722 2.10915 0
M  V30 706 H 73.3747 2.13824 2.0338 0
M  V30 707 H 73.4557 2.53887 0.312244 0
M  V30 708 H 73.0997 5.00021 0.891151 0
M  V30 709 H 73.0297 4.56896 2.61827 0
M  V30 710 H 75.5207 3.4607 1.51802 0
M  V30 711 H 75.8337 7.30506 2.52153 0
M  V30 712 H 74.1787 6.56737 2.27425 0
M  V30 713 H 77.3697 4.31988 1.80289 0
M  V30 714 H 77.5427 6.07286 2.26071 0
M  V30 715 N 70.9488 -0.749086 1.3866 0
M  V30 716 C 71.8588 -1.89358 1.38494 0
M  V30 717 C 72.8748 -1.71708 0.281476 0
M  V30 718 O 74.0508 -1.94554 0.520643 0
M  V30 719 C 71.1158 -3.24782 1.21316 0
M  V30 720 C 70.1768 -3.54926 2.41508 0
M  V30 721 C 69.4098 -4.83888 2.2514 0
M  V30 722 O 69.6328 -5.56592 1.24746 0
M  V30 723 O 68.5668 -5.13612 3.13826 0
M  V30 724 H 72.3928 -1.92452 2.34938 0
M  V30 725 H 69.9778 -0.894981 1.19626 0
M  V30 726 H 71.8598 -4.05739 1.13814 0
M  V30 727 H 70.5348 -3.2249 0.279592 0
M  V30 728 H 69.4418 -2.74112 2.54585 0
M  V30 729 H 70.7748 -3.61983 3.3351 0
M  V30 730 N 72.4269 -1.23603 -0.977757 0
M  V30 731 C 73.3569 -1.04401 -2.0886 0
M  V30 732 C 74.3379 0.0399052 -1.70053 0
M  V30 733 O 75.5229 -0.125246 -1.93796 0
M  V30 734 C 72.6529 -0.637269 -3.41403 0
M  V30 735 C 71.6069 -1.66883 -3.94124 0
M  V30 736 C 70.9329 -1.11745 -5.22893 0
M  V30 737 C 72.2329 -3.06247 -4.23096 0
M  V30 738 H 73.9269 -1.97316 -2.25182 0
M  V30 739 H 71.4729 -0.950096 -1.08209 0
M  V30 740 H 73.4259 -0.48998 -4.18542 0
M  V30 741 H 72.1499 0.327557 -3.24953 0
M  V30 742 H 70.8089 -1.80416 -3.19133 0
M  V30 743 H 70.4569 -0.143527 -5.02795 0
M  V30 744 H 70.1569 -1.80672 -5.59134 0
M  V30 745 H 71.6809 -0.982067 -6.02651 0
M  V30 746 H 73.0949 -2.96001 -4.90975 0
M  V30 747 H 71.4919 -3.72436 -4.70544 0
M  V30 748 H 72.5619 -3.55041 -3.30263 0
M  V30 749 N 73.905 1.17692 -1.04816 0
M  V30 750 C 74.855 2.1952 -0.616042 0
M  V30 751 C 75.839 1.57147 0.345485 0
M  V30 752 O 77.031 1.76245 0.163325 0
M  V30 753 C 74.16 3.43298 0.0116917 0
M  V30 754 C 73.246 4.12777 -0.973435 0
M  V30 755 N 73.637 4.5814 -2.14339 0
M  V30 756 C 71.935 4.38747 -0.80108 0
M  V30 757 C 72.636 5.11713 -2.7663 0
M  V30 758 N 71.612 5.03686 -2.04453 0
M  V30 759 H 75.414 2.52293 -1.5075 0
M  V30 760 H 72.928 1.3398 -0.917776 0
M  V30 761 H 74.925 4.15519 0.339006 0
M  V30 762 H 73.585 3.12018 0.898593 0
M  V30 763 H 74.596 4.52349 -2.52191 0
M  V30 764 H 71.273 4.17485 0.0350934 0
M  V30 765 H 72.663 5.56962 -3.75823 0
M  V30 766 N 75.3831 0.828654 1.34056 0
M  V30 767 C 76.7991 0.515135 1.51058 0
M  V30 768 C 76.9991 -0.959581 1.77184 0
M  V30 769 O 76.0551 -1.74382 1.82612 0
M  V30 770 C 77.3681 1.37963 2.67183 0
M  V30 771 C 78.9161 1.37735 2.81066 0
M  V30 772 C 79.3911 2.22645 4.00241 0
M  V30 773 N 80.8821 2.203 4.07458 0
M  V30 774 C 81.6171 2.82744 4.98842 0
M  V30 775 N 81.1131 3.54201 5.9541 0
M  V30 776 N 82.9061 2.72268 4.91759 0
M  V30 777 H 75.0571 1.78343 1.15358 0
M  V30 778 H 77.3201 0.760304 0.566252 0
M  V30 779 H 77.0261 2.42714 2.54525 0
M  V30 780 H 76.9001 1.0484 3.62338 0
M  V30 781 H 79.2871 0.337593 2.93163 0
M  V30 782 H 79.3681 1.74859 1.86703 0
M  V30 783 H 79.0121 3.26674 3.88905 0
M  V30 784 H 78.9421 1.82869 4.93829 0
M  V30 785 H 81.4331 1.68327 3.38341 0
M  V30 786 H 81.7461 3.9908 6.61782 0
M  V30 787 H 80.0911 3.58308 5.95517 0
M  V30 788 H 83.2821 2.16014 4.15278 0
M  V30 789 H 83.4551 3.21219 5.62781 0
M  V30 790 N 76.8612 -1.46375 0.584142 0
M  V30 791 C 78.2772 -1.57694 0.245929 0
M  V30 792 C 78.4772 -1.57903 -1.25175 0
M  V30 793 O 77.5332 -1.49676 -2.03355 0
M  V30 794 C 78.8462 -2.87028 0.896402 0
M  V30 795 C 80.3942 -3.00662 0.870127 0
M  V30 796 C 80.8692 -4.32734 1.50017 0
M  V30 797 N 82.3602 -4.39436 1.46458 0
M  V30 798 C 83.0952 -5.40248 1.92144 0
M  V30 799 N 82.5912 -6.47726 2.4581 0
M  V30 800 N 84.3842 -5.31459 1.83052 0
M  V30 801 H 76.5352 -1.44483 1.55687 0
M  V30 802 H 78.7982 -0.689291 0.650831 0
M  V30 803 H 78.5042 -2.9269 1.95002 0
M  V30 804 H 78.3782 -3.75014 0.405486 0
M  V30 805 H 80.7652 -2.94581 -0.174871 0
M  V30 806 H 80.8462 -2.14148 1.39908 0
M  V30 807 H 80.4902 -4.39573 2.54437 0
M  V30 808 H 80.4202 -5.18025 0.946432 0
M  V30 809 H 82.9112 -3.62367 1.07231 0
M  V30 810 H 83.2242 -7.20863 2.78525 0
M  V30 811 H 81.5692 -6.48542 2.49836 0
M  V30 812 H 84.7602 -4.46396 1.40883 0
M  V30 813 H 84.9332 -6.09881 2.18973 0
M  V30 814 N 78.3393 -0.321999 -1.54275 0
M  V30 815 C 79.5643 0.285791 -2.05422 0
M  V30 816 C 79.9893 1.45124 -1.19669 0
M  V30 817 O 79.3473 1.80132 -0.205441 0
M  V30 818 C 79.3953 0.69956 -3.53749 0
M  V30 819 O 78.4993 1.8021 -3.70942 0
M  V30 820 H 77.8403 0.0518962 -0.661969 0
M  V30 821 H 80.3703 -0.469954 -1.9913 0
M  V30 822 H 80.3803 0.982649 -3.9599 0
M  V30 823 H 79.0553 -0.152864 -4.15619 0
M  V30 824 H 77.6323 1.51794 -3.40607 0
M  V30 825 N 79.8174 1.5752 -0.0501392 0
M  V30 826 C 81.0634 1.92936 0.624798 0
M  V30 827 C 81.3964 0.928685 1.70555 0
M  V30 828 O 80.6714 -0.0454779 1.94447 0
M  V30 829 C 80.9544 3.38737 1.22185 0
M  V30 830 C 80.8074 4.49552 0.149218 0
M  V30 831 C 82.1264 3.84913 2.13378 0
M  V30 832 H 79.2454 0.701604 0.225657 0
M  V30 833 H 81.8874 1.89671 -0.111693 0
M  V30 834 H 80.0374 3.4165 1.84953 0
M  V30 835 H 81.7094 4.58768 -0.482648 0
M  V30 836 H 79.9524 4.30638 -0.522841 0
M  V30 837 H 80.6234 5.48653 0.606966 0
M  V30 838 H 83.0994 3.8387 1.60572 0
M  V30 839 H 81.9754 4.87584 2.52097 0
M  V30 840 H 82.2364 3.21611 3.03346 0
M  V30 841 N 81.2955 -0.223234 1.56011 0
M  V30 842 C 82.2055 -1.29766 1.95443 0
M  V30 843 C 83.2215 -1.51373 0.858028 0
M  V30 844 O 84.3975 -1.64536 1.16146 0
M  V30 845 C 81.4625 -2.62772 2.26167 0
M  V30 846 C 80.5235 -2.49482 3.49367 0
M  V30 847 C 79.7565 -3.76145 3.78616 0
M  V30 848 O 79.9795 -4.79087 3.09568 0
M  V30 849 O 78.9135 -3.73358 4.72109 0
M  V30 850 H 82.7395 -0.99309 2.87004 0
M  V30 851 H 80.3245 -0.425958 1.43199 0
M  V30 852 H 82.2065 -3.41327 2.47131 0
M  V30 853 H 80.8815 -2.92913 1.37781 0
M  V30 854 H 79.7885 -1.69133 3.33684 0
M  V30 855 H 81.1215 -2.2428 4.38131 0
M  V30 856 N 82.7736 -1.49793 -0.48987 0
M  V30 857 C 83.6836 -1.70036 -1.61632 0
M  V30 858 C 84.6996 -0.583102 -1.63939 0
M  V30 859 O 85.8756 -0.859169 -1.82154 0
M  V30 860 C 82.9406 -1.77277 -2.97949 0
M  V30 861 C 82.0016 -3.00918 -3.06181 0
M  V30 862 C 81.2346 -3.07804 -4.35996 0
M  V30 863 O 81.4576 -2.21982 -5.25433 0
M  V30 864 O 80.3916 -4.00369 -4.49431 0
M  V30 865 H 84.2176 -2.65486 -1.47482 0
M  V30 866 H 81.8026 -1.33666 -0.667362 0
M  V30 867 H 83.6846 -1.84329 -3.78947 0
M  V30 868 H 82.3596 -0.850076 -3.12339 0
M  V30 869 H 81.2666 -2.99377 -2.2433 0
M  V30 870 H 82.5996 -3.92704 -2.96723 0
M  V30 871 N 84.2517 0.741722 -1.39055 0
M  V30 872 C 85.6627 1.31966 -1.32068 0
M  V30 873 C 86.0137 1.96192 0.0180797 0
M  V30 874 O 85.1387 1.95861 0.920196 0
M  V30 875 C 85.7337 2.39954 -2.39181 0
M  V30 876 C 84.2927 2.93438 -2.35735 0
M  V30 877 C 83.4397 1.66936 -2.21422 0
M  V30 878 H 86.3907 0.539721 -1.4924 0
M  V30 879 H 86.4117 3.20182 -2.05581 0
M  V30 880 H 85.9237 1.9318 -3.36605 0
M  V30 881 H 84.0247 3.4451 -1.41929 0
M  V30 882 H 84.1377 3.4701 -3.30335 0
M  V30 883 H 82.5017 1.91016 -1.68478 0
M  V30 884 H 83.2847 1.22224 -3.20806 0
M  V30 885 N 85.7298 1.2412 0.971189 0
M  V30 886 C 87.1458 1.00584 1.23916 0
M  V30 887 C 87.3458 -0.287481 1.99439 0
M  V30 888 O 86.4018 -1.00454 2.31658 0
M  V30 889 C 87.7148 2.21864 2.0297 0
M  V30 890 C 89.2628 2.26452 2.16076 0
M  V30 891 C 89.7378 3.47343 2.98524 0
M  V30 892 N 91.2288 3.47639 3.06107 0
M  V30 893 C 91.9638 4.37837 3.70251 0
M  V30 894 N 91.4598 5.38286 4.36142 0
M  V30 895 N 93.2528 4.25558 3.67228 0
M  V30 896 H 85.4038 2.07236 0.465499 0
M  V30 897 H 87.6668 0.909236 0.268315 0
M  V30 898 H 87.3728 3.15771 1.54861 0
M  V30 899 H 87.2468 2.23698 3.03709 0
M  V30 900 H 89.6338 1.33078 2.6339 0
M  V30 901 H 89.7148 2.28645 1.14696 0
M  V30 902 H 89.3588 4.41029 2.51905 0
M  V30 903 H 89.2888 3.42393 4.00093 0
M  V30 904 H 91.7798 2.74966 2.59233 0
M  V30 905 H 92.0928 6.03352 4.82894 0
M  V30 906 H 90.4378 5.42176 4.34822 0
M  V30 907 H 93.6288 3.46322 3.14927 0
M  V30 908 H 93.8018 4.96054 4.16935 0
M  V30 909 N 87.2079 -1.17134 1.05439 0
M  V30 910 C 88.1179 -2.24878 0.668365 0
M  V30 911 C 89.1339 -1.71186 -0.311687 0
M  V30 912 O 90.3099 -2.00738 -0.163161 0
M  V30 913 C 87.3749 -3.46662 0.051648 0
M  V30 914 C 86.4359 -4.15429 1.08246 0
M  V30 915 C 85.6689 -5.31399 0.495082 0
M  V30 916 O 85.8919 -5.66153 -0.694743 0
M  V30 917 O 84.8259 -5.89187 1.23056 0
M  V30 918 H 88.6519 -2.60189 1.56637 0
M  V30 919 H 86.2369 -1.24482 0.826104 0
M  V30 920 H 88.1189 -4.20394 -0.290966 0
M  V30 921 H 86.7939 -3.13142 -0.819971 0
M  V30 922 H 85.7009 -3.43704 1.47711 0
M  V30 923 H 87.0339 -4.52982 1.92532 0
M  V30 924 N 88.686 -0.835752 -1.33615 0
M  V30 925 C 89.933 -0.429959 -1.97883 0
M  V30 926 C 90.261 1.01006 -1.66217 0
M  V30 927 O 89.516 1.72047 -0.93265 0
M  V30 928 C 89.815 -0.593925 -3.52431 0
M  V30 929 C 89.481 -2.00158 -4.04039 0
M  V30 930 C 88.143 -2.38662 -4.17844 0
M  V30 931 C 90.495 -2.92117 -4.31644 0
M  V30 932 C 87.823 -3.68435 -4.56588 0
M  V30 933 C 90.175 -4.21368 -4.71838 0
M  V30 934 C 88.839 -4.59833 -4.83849 0
M  V30 935 H 88.109 -0.157333 -0.724104 0
M  V30 936 H 90.756 -1.06217 -1.59343 0
M  V30 937 H 89.061 0.121619 -3.91611 0
M  V30 938 H 90.758 -0.260282 -4.00154 0
M  V30 939 H 87.348 -1.69252 -3.93766 0
M  V30 940 H 91.532 -2.63608 -4.20505 0
M  V30 941 H 86.788 -3.98046 -4.64079 0
M  V30 942 H 90.962 -4.92703 -4.92155 0
M  V30 943 H 88.589 -5.60438 -5.13627 0
M  V30 944 N 90.1641 1.46063 -0.591896 0
M  V30 945 C 91.4101 2.03203 -0.0894879 0
M  V30 946 C 91.7651 1.45407 1.25994 0
M  V30 947 O 91.0581 0.61326 1.8152 0
M  V30 948 C 91.2521 3.57391 0.0249813 0
M  V30 949 C 91.0811 4.30142 -1.3118 0
M  V30 950 C 89.8511 4.68688 -1.88838 0
M  V30 951 C 92.0491 4.63098 -2.23708 0
M  V30 952 N 90.0311 5.26228 -3.1616 0
M  V30 953 C 91.4021 5.21305 -3.3562 0
M  V30 954 C 93.4571 4.45031 -2.23274 0
M  V30 955 C 92.1601 5.63351 -4.47245 0
M  V30 956 C 94.1861 4.881 -3.33935 0
M  V30 957 C 93.5481 5.46386 -4.44569 0
M  V30 958 H 89.6471 0.778323 -0.0757431 0
M  V30 959 H 92.2311 1.78094 -0.78681 0
M  V30 960 H 90.4021 3.82195 0.69149 0
M  V30 961 H 92.1341 4.0118 0.532613 0
M  V30 962 H 88.8891 4.5174 -1.42223 0
M  V30 963 H 89.3131 5.59512 -3.8115 0
M  V30 964 H 93.9551 3.99295 -1.39008 0
M  V30 965 H 91.6731 6.08061 -5.32247 0
M  V30 966 H 95.2591 4.75866 -3.34728 0
M  V30 967 H 94.1391 5.79102 -5.28782 0
M  V30 968 N 91.6422 0.330177 1.54103 0
M  V30 969 C 92.8902 -0.269871 2.0029 0
M  V30 970 C 93.2112 -1.52133 1.21986 0
M  V30 971 O 92.4812 -1.93212 0.323438 0
M  V30 972 H 91.0612 -0.10271 0.739905 0
M  V30 973 H 93.7232 0.448249 1.89675 0
M  V30 974 H 92.8192 -0.52166 3.07709 0
M  V30 975 N 93.1203 -1.57491 0.0584922 0
M  V30 976 C 94.3973 -1.84346 -0.653918 0
M  V30 977 C 94.7773 -0.948355 -1.88599 0
M  V30 978 O 94.1253 -0.0112403 -2.28497 0
M  V30 979 C 94.3353 -3.34239 -1.00425 0
M  V30 980 C 95.6833 -4.01431 -1.38342 0
M  V30 981 O 96.7073 -3.38907 -1.09637 0
M  V30 982 O 95.5663 -5.11683 -1.91943 0
M  V30 983 H 92.6603 -0.761112 -0.323478 0
M  V30 984 H 95.2063 -1.6947 0.0884125 0
M  V30 985 H 93.9783 -3.91089 -0.128625 0
M  V30 986 H 93.6013 -3.54329 -1.80378 0
M  V30 987 N 94.5984 0.214957 -1.56127 0
M  V30 988 C 95.8474 0.936451 -1.78643 0
M  V30 989 C 96.1604 1.85237 -0.628229 0
M  V30 990 O 97.3664 2.613 -0.737186 0
M  V30 991 C 95.8224 1.7154 -3.16389 0
M  V30 992 C 95.4304 0.845299 -4.39953 0
M  V30 993 C 97.1744 2.42772 -3.48227 0
M  V30 994 C 95.0814 1.62198 -5.68723 0
M  V30 995 H 94.0114 0.353401 -0.666051 0
M  V30 996 H 96.6624 0.190169 -1.82512 0
M  V30 997 H 95.0444 2.50484 -3.06715 0
M  V30 998 H 96.2184 0.0959353 -4.607 0
M  V30 999 H 94.5334 0.244789 -4.1568 0
M  V30 1000 H 97.1304 3.01394 -4.41663 0
M  V30 1001 H 97.4734 3.15984 -2.71035 0
M  V30 1002 H 98.0064 1.70813 -3.5926 0
M  V30 1003 H 94.7454 0.933011 -6.48826 0
M  V30 1004 H 94.2654 2.34579 -5.52026 0
M  V30 1005 H 95.9444 2.18095 -6.09133 0
M  V30 1006 N 96.0765 1.50051 0.48192 0
M  V30 1007 C 97.0395 1.67584 1.5636 0
M  V30 1008 C 98.0395 0.546894 1.51214 0
M  V30 1009 O 99.2295 0.813725 1.54026 0
M  V30 1010 C 96.3615 1.691 2.96003 0
M  V30 1011 H 97.5545 2.64078 1.42136 0
M  V30 1012 H 95.1075 1.39369 0.707533 0
M  V30 1013 H 95.8425 0.742589 3.15684 0
M  V30 1014 H 95.6275 2.51105 3.01146 0
M  V30 1015 H 97.1175 1.84656 3.74556 0
M  V30 1016 N 97.5546 -0.734337 1.39446 0
M  V30 1017 C 98.5016 -1.84835 1.38219 0
M  V30 1018 C 99.4716 -1.64331 0.24179 0
M  V30 1019 O 100.657 -1.85728 0.437002 0
M  V30 1020 C 97.7966 -3.22355 1.23212 0
M  V30 1021 C 96.9096 -3.5456 2.46801 0
M  V30 1022 C 96.0446 -4.81485 2.24377 0
M  V30 1023 C 95.0836 -5.06536 3.43639 0
M  V30 1024 N 94.2206 -6.24665 3.20528 0
M  V30 1025 H 99.0606 -1.85219 2.33448 0
M  V30 1026 H 96.5976 -0.905039 1.15963 0
M  V30 1027 H 98.5556 -4.0174 1.12522 0
M  V30 1028 H 97.1856 -3.21248 0.316121 0
M  V30 1029 H 96.2376 -2.69872 2.68092 0
M  V30 1030 H 97.5496 -3.6899 3.3563 0
M  V30 1031 H 96.7036 -5.68852 2.10933 0
M  V30 1032 H 95.4426 -4.6923 1.32944 0
M  V30 1033 H 94.4476 -4.17632 3.5758 0
M  V30 1034 H 95.6726 -5.20676 4.35974 0
M  V30 1035 H 93.6186 -6.13696 2.3176 0
M  V30 1036 H 93.5356 -6.39685 4.02913 0
M  V30 1037 H 94.8036 -7.14868 3.10779 0
M  V30 1038 N 99.0327 -1.24633 -0.964593 0
M  V30 1039 C 99.9427 -1.05859 -2.09359 0
M  V30 1040 C 100.959 0.00148855 -1.74 0
M  V30 1041 O 102.135 -0.197346 -2.00431 0
M  V30 1042 C 99.1997 -0.668879 -3.40187 0
M  V30 1043 C 98.2607 -1.80578 -3.89474 0
M  V30 1044 C 97.4937 -1.43457 -5.14058 0
M  V30 1045 O 97.7167 -0.325775 -5.69469 0
M  V30 1046 O 96.6507 -2.2613 -5.57807 0
M  V30 1047 H 100.477 -2.00516 -2.28094 0
M  V30 1048 H 98.0617 -1.03481 -1.0776 0
M  V30 1049 H 99.9437 -0.463211 -4.18846 0
M  V30 1050 H 98.6187 0.248536 -3.22744 0
M  V30 1051 H 97.5257 -2.06623 -3.11862 0
M  V30 1052 H 98.8587 -2.70208 -4.11398 0
M  V30 1053 N 100.511 1.16574 -1.06058 0
M  V30 1054 C 101.758 1.87047 -0.775873 0
M  V30 1055 C 102.086 1.81562 0.697534 0
M  V30 1056 O 101.341 1.22445 1.52662 0
M  V30 1057 C 101.64 3.36195 -1.21275 0
M  V30 1058 C 101.306 3.6188 -2.68986 0
M  V30 1059 C 99.9678 3.68599 -3.09335 0
M  V30 1060 C 102.32 3.72648 -3.64394 0
M  V30 1061 C 99.6478 3.83584 -4.43937 0
M  V30 1062 C 102 3.89154 -4.98741 0
M  V30 1063 C 100.664 3.94114 -5.3873 0
M  V30 1064 H 99.9338 0.684452 -0.283912 0
M  V30 1065 H 102.581 1.37853 -1.32925 0
M  V30 1066 H 100.886 3.87505 -0.578528 0
M  V30 1067 H 102.583 3.89103 -0.969542 0
M  V30 1068 H 99.1728 3.57281 -2.36744 0
M  V30 1069 H 103.357 3.66769 -3.34356 0
M  V30 1070 H 98.6128 3.85677 -4.74409 0
M  V30 1071 H 102.787 3.96427 -5.72554 0
M  V30 1072 H 100.414 4.05478 -6.43033 0
M  V30 1073 N 101.989 0.842826 1.3317 0
M  V30 1074 C 103.219 0.453397 2.01564 0
M  V30 1075 C 103.627 -0.951147 1.63554 0
M  V30 1076 O 102.97 -1.63021 0.846746 0
M  V30 1077 C 103.032 0.499013 3.5602 0
M  V30 1078 C 102.696 1.86037 4.1742 0
M  V30 1079 C 103.693 2.82416 4.36506 0
M  V30 1080 C 101.378 2.15428 4.53757 0
M  V30 1081 C 103.372 4.06346 4.91082 0
M  V30 1082 C 101.059 3.39615 5.0804 0
M  V30 1083 C 102.057 4.3489 5.26649 0
M  V30 1084 O 101.745 5.5688 5.79776 0
M  V30 1085 H 101.477 0.177871 0.652179 0
M  V30 1086 H 104.031 1.13808 1.70988 0
M  V30 1087 H 102.261 -0.242467 3.85939 0
M  V30 1088 H 103.95 0.126852 4.05702 0
M  V30 1089 H 104.716 2.6101 4.08777 0
M  V30 1090 H 100.595 1.42061 4.38565 0
M  V30 1091 H 104.139 4.80722 5.05522 0
M  V30 1092 H 100.036 3.60876 5.352 0
M  V30 1093 H 100.804 5.58674 5.98185 0
M  V30 1094 N 103.467 -1.45747 0.599634 0
M  V30 1095 C 104.713 -2.03153 0.100263 0
M  V30 1096 C 105.068 -1.46073 -1.25221 0
M  V30 1097 O 104.361 -0.622878 -1.81193 0
M  V30 1098 C 104.555 -3.57399 -0.00602758 0
M  V30 1099 C 104.384 -4.2944 1.3346 0
M  V30 1100 C 103.154 -4.6768 1.91321 0
M  V30 1101 C 105.352 -4.61905 2.2616 0
M  V30 1102 N 103.334 -5.24544 3.18946 0
M  V30 1103 C 104.705 -5.19518 3.3838 0
M  V30 1104 C 106.76 -4.43841 2.25631 0
M  V30 1105 C 105.463 -5.60972 4.50226 0
M  V30 1106 C 107.489 -4.86322 3.36518 0
M  V30 1107 C 106.851 -5.44021 4.4746 0
M  V30 1108 H 102.95 -0.777911 0.0798696 0
M  V30 1109 H 105.534 -1.77674 0.796244 0
M  V30 1110 H 103.705 -3.82556 -0.671212 0
M  V30 1111 H 105.437 -4.01457 -0.51133 0
M  V30 1112 H 102.192 -4.5098 1.44617 0
M  V30 1113 H 102.616 -5.57483 3.84112 0
M  V30 1114 H 107.258 -3.98552 1.41123 0
M  V30 1115 H 104.976 -6.0523 5.35464 0
M  V30 1116 H 108.562 -4.74084 3.37247 0
M  V30 1117 H 107.442 -5.76289 5.31846 0
M  V30 1118 N 104.945 -0.338344 -1.53925 0
M  V30 1119 C 105.892 0.520845 -2.24846 0
M  V30 1120 C 106.862 1.09976 -1.24477 0
M  V30 1121 O 108.047 1.13735 -1.53196 0
M  V30 1122 C 105.187 1.6685 -3.02084 0
M  V30 1123 C 104.3 1.11739 -4.17299 0
M  V30 1124 C 103.435 2.23193 -4.82036 0
M  V30 1125 C 102.474 1.65407 -5.89328 0
M  V30 1126 N 101.611 2.70582 -6.47866 0
M  V30 1127 H 106.451 -0.0904881 -2.97863 0
M  V30 1128 H 103.988 -0.0564282 -1.46992 0
M  V30 1129 H 105.946 2.34407 -3.45122 0
M  V30 1130 H 104.576 2.2509 -2.31375 0
M  V30 1131 H 103.628 0.332919 -3.7894 0
M  V30 1132 H 104.94 0.654677 -4.94485 0
M  V30 1133 H 104.094 2.98626 -5.28117 0
M  V30 1134 H 102.833 2.72807 -4.04262 0
M  V30 1135 H 101.838 0.884779 -5.42634 0
M  V30 1136 H 103.063 1.16652 -6.69006 0
M  V30 1137 H 101.009 3.1946 -5.72959 0
M  V30 1138 H 100.926 2.28917 -7.20509 0
M  V30 1139 H 102.194 3.45799 -6.98601 0
M  V30 1140 N 106.423 1.57458 -0.0668435 0
M  V30 1141 C 107.651 1.97624 0.612565 0
M  V30 1142 C 108.066 0.94502 1.63447 0
M  V30 1143 O 107.423 -0.0689276 1.8237 0
M  V30 1144 C 107.474 3.37869 1.28555 0
M  V30 1145 O 107.195 4.3704 0.304557 0
M  V30 1146 C 108.696 3.92882 2.05325 0
M  V30 1147 H 105.916 0.650045 0.166381 0
M  V30 1148 H 108.46 2.04035 -0.137782 0
M  V30 1149 H 106.615 3.3256 1.98702 0
M  V30 1150 H 107.029 5.18565 0.786779 0
M  V30 1151 H 108.503 4.93247 2.47812 0
M  V30 1152 H 108.98 3.29156 2.9078 0
M  V30 1153 H 109.586 4.01577 1.40056 0
M  V30 1154 N 107.901 -0.206675 1.56239 0
M  V30 1155 C 109.312 -0.772383 1.69974 0
M  V30 1156 C 109.663 -1.84353 0.671436 0
M  V30 1157 O 108.788 -2.15695 -0.174491 0
M  V30 1158 C 109.383 -1.40779 3.08167 0
M  V30 1159 C 107.942 -1.92072 3.23706 0
M  V30 1160 C 107.089 -0.786347 2.65917 0
M  V30 1161 H 110.04 0.0182223 1.5869 0
M  V30 1162 H 110.061 -2.27696 3.04852 0
M  V30 1163 H 109.573 -0.627958 3.82986 0
M  V30 1164 H 107.674 -2.7281 2.53782 0
M  V30 1165 H 107.787 -2.09046 4.31087 0
M  V30 1166 H 106.151 -1.1976 2.24788 0
M  V30 1167 H 106.934 -0.0189416 3.43295 0
M  V30 1168 N 109.379 -1.50304 -0.473955 0
M  V30 1169 C 110.619 -1.62786 -1.23612 0
M  V30 1170 C 110.983 -0.319786 -1.89318 0
M  V30 1171 O 112.184 -0.320012 -2.66888 0
M  V30 1172 C 110.455 -2.77351 -2.25414 0
M  V30 1173 S 112.014 -3.09948 -3.10608 0
M  V30 1174 H 108.832 -0.573895 -0.419721 0
M  V30 1175 H 111.434 -1.88076 -0.533623 0
M  V30 1176 H 110.138 -3.70879 -1.75719 0
M  V30 1177 H 109.669 -2.54137 -3.00296 0
M  V30 1178 H 111.684 -2.53553 -4.26527 0
M  V30 1179 N 110.857 0.726932 -1.39834 0
M  V30 1180 C 112.268 1.30558 -1.3346 0
M  V30 1181 C 112.619 1.962 -0.00273003 0
M  V30 1182 O 111.744 1.96826 0.899371 0
M  V30 1183 C 112.339 2.37404 -2.41713 0
M  V30 1184 C 110.898 2.90921 -2.38835 0
M  V30 1185 C 110.045 1.64578 -2.2318 0
M  V30 1186 H 112.996 0.523862 -1.49804 0
M  V30 1187 H 113.017 3.17984 -2.08966 0
M  V30 1188 H 112.529 1.89599 -3.38635 0
M  V30 1189 H 110.63 3.42985 -1.45575 0
M  V30 1190 H 110.743 3.43487 -3.33997 0
M  V30 1191 H 109.107 1.89219 -1.70494 0
M  V30 1192 H 109.89 1.18814 -3.22084 0
M  V30 1193 N 112.336 1.25143 0.95797 0
M  V30 1194 C 113.584 1.09476 1.69881 0
M  V30 1195 C 113.905 -0.365502 1.91544 0
M  V30 1196 O 113.175 -1.25985 1.50015 0
M  V30 1197 H 111.755 0.402128 0.629525 0
M  V30 1198 H 114.417 1.57214 1.15194 0
M  V30 1199 H 113.513 1.60046 2.6794 0
M  V30 1200 N 113.814 -1.1601 1.06675 0
M  V30 1201 C 115.225 -1.68235 0.809565 0
M  V30 1202 C 115.576 -1.8454 -0.666303 0
M  V30 1203 O 114.701 -1.54374 -1.5165 0
M  V30 1204 C 115.296 -3.05585 1.46299 0
M  V30 1205 C 113.855 -3.54915 1.25349 0
M  V30 1206 C 113.002 -2.30804 1.53703 0
M  V30 1207 H 115.953 -1.00318 1.22971 0
M  V30 1208 H 115.974 -3.70174 0.880431 0
M  V30 1209 H 115.486 -2.93686 2.53713 0
M  V30 1210 H 113.587 -3.72067 0.199261 0
M  V30 1211 H 113.7 -4.36774 1.9689 0
M  V30 1212 H 112.064 -2.36007 0.957739 0
M  V30 1213 H 112.847 -2.21499 2.62284 0
M  V30 1214 N 115.292 -0.849877 -1.32721 0
M  V30 1215 C 116.539 -0.450923 -1.97416 0
M  V30 1216 C 116.867 0.992376 -1.67279 0
M  V30 1217 O 116.122 1.71048 -0.950845 0
M  V30 1218 C 116.421 -0.631272 -3.51781 0
M  V30 1219 C 116.087 -2.04432 -4.01894 0
M  V30 1220 C 114.749 -2.4308 -4.1529 0
M  V30 1221 C 117.101 -2.96679 -4.28522 0
M  V30 1222 C 114.429 -3.73257 -4.52654 0
M  V30 1223 C 116.781 -4.26349 -4.67343 0
M  V30 1224 C 115.445 -4.64939 -4.78945 0
M  V30 1225 H 114.715 -0.165004 -0.722395 0
M  V30 1226 H 117.362 -1.07901 -1.58207 0
M  V30 1227 H 115.667 0.0800767 -3.91718 0
M  V30 1228 H 117.364 -0.302709 -3.99856 0
M  V30 1229 H 113.954 -1.73419 -3.91949 0
M  V30 1230 H 118.138 -2.68054 -4.17685 0
M  V30 1231 H 113.394 -4.02946 -4.59831 0
M  V30 1232 H 117.568 -4.97895 -4.86902 0
M  V30 1233 H 115.195 -5.65855 -5.07654 0
M  V30 1234 N 116.77 1.45427 -0.607355 0
M  V30 1235 C 117.7 2.3329 0.0989352 0
M  V30 1236 C 118.681 1.46816 0.859007 0
M  V30 1237 O 119.866 1.75588 0.829604 0
M  V30 1238 C 116.996 3.29518 1.09705 0
M  V30 1239 C 115.95 4.25626 0.450206 0
M  V30 1240 C 115.276 5.11542 1.55655 0
M  V30 1241 C 116.576 5.18505 -0.628455 0
M  V30 1242 H 118.27 2.92595 -0.634716 0
M  V30 1243 H 115.816 1.40696 -0.306681 0
M  V30 1244 H 117.769 3.89855 1.59971 0
M  V30 1245 H 116.493 2.68372 1.86129 0
M  V30 1246 H 115.152 3.66586 -0.0315886 0
M  V30 1247 H 114.8 4.46765 2.31107 0
M  V30 1248 H 114.5 5.76647 1.12925 0
M  V30 1249 H 116.024 5.74748 2.06148 0
M  V30 1250 H 117.438 5.72916 -0.209877 0
M  V30 1251 H 115.835 5.92085 -0.977489 0
M  V30 1252 H 116.905 4.60948 -1.50514 0
M  V30 1253 N 118.248 0.346503 1.53744 0
M  V30 1254 C 119.664 -0.00530975 1.59599 0
M  V30 1255 C 119.864 -1.48465 1.36236 0
M  V30 1256 O 118.92 -2.24376 1.15808 0
M  V30 1257 C 120.233 0.433516 2.97559 0
M  V30 1258 C 121.781 0.386111 3.10609 0
M  V30 1259 C 122.256 0.800451 4.50951 0
M  V30 1260 N 123.747 0.754753 4.5701 0
M  V30 1261 C 124.482 1.04727 5.63755 0
M  V30 1262 N 123.978 1.4081 6.7834 0
M  V30 1263 N 125.771 0.971316 5.53644 0
M  V30 1264 H 117.922 1.31009 1.67184 0
M  V30 1265 H 120.185 0.534242 0.783128 0
M  V30 1266 H 119.891 1.46509 3.19731 0
M  V30 1267 H 119.765 -0.189753 3.76722 0
M  V30 1268 H 122.152 -0.636295 2.88158 0
M  V30 1269 H 122.233 1.04462 2.33498 0
M  V30 1270 H 121.877 1.82088 4.74137 0
M  V30 1271 H 121.807 0.119386 5.26465 0
M  V30 1272 H 124.298 0.488662 3.74727 0
M  V30 1273 H 124.611 1.61607 7.55714 0
M  V30 1274 H 122.956 1.44657 6.79779 0
M  V30 1275 H 126.147 0.688748 4.63005 0
M  V30 1276 H 126.32 1.20263 6.36742 0
M  V30 1277 N 119.726 -1.57421 0.075193 0
M  V30 1278 C 120.956 -1.97659 -0.601203 0
M  V30 1279 C 121.364 -0.952427 -1.63479 0
M  V30 1280 O 120.707 0.0688241 -1.83571 0
M  V30 1281 C 120.769 -3.34218 -1.32434 0
M  V30 1282 C 120.433 -4.5484 -0.443826 0
M  V30 1283 C 121.43 -5.19034 0.299969 0
M  V30 1284 C 119.115 -5.00952 -0.367709 0
M  V30 1285 C 121.109 -6.27695 1.10807 0
M  V30 1286 C 118.796 -6.09484 0.444058 0
M  V30 1287 C 119.794 -6.72719 1.18061 0
M  V30 1288 O 119.482 -7.79161 1.97898 0
M  V30 1289 H 119.214 -0.65494 -0.167422 0
M  V30 1290 H 121.768 -2.04886 0.145157 0
M  V30 1291 H 119.998 -3.23615 -2.11685 0
M  V30 1292 H 121.687 -3.59038 -1.89331 0
M  V30 1293 H 122.453 -4.84351 0.250776 0
M  V30 1294 H 118.332 -4.51509 -0.930638 0
M  V30 1295 H 121.876 -6.76982 1.68347 0
M  V30 1296 H 117.773 -6.43601 0.494803 0
M  V30 1297 H 118.541 -7.96055 1.90367 0
M  V30 1298 N 121.204 0.198386 -1.56346 0
M  V30 1299 C 122.152 1.26538 -1.95169 0
M  V30 1300 C 123.146 1.47295 -0.836685 0
M  V30 1301 O 124.352 1.48195 -1.02167 0
M  V30 1302 H 120.727 0.424744 -0.620561 0
M  V30 1303 H 122.698 0.910904 -2.84157 0
M  V30 1304 C 121.447 2.6035 -2.30463 0
M  V30 1305 H 120.77 2.45192 -3.15786 0
M  V30 1306 H 122.21 3.33762 -2.61494 0
M  V30 1307 C 120.669 3.17096 -1.13806 0
M  V30 1308 O 121.199 3.99588 -0.41135 0
M  V30 1309 N 119.405 2.75795 -0.915736 0
M  V30 1310 H 118.952 2.08816 -1.50843 0
M  V30 1311 H 118.91 3.14101 -0.136979 0
M  V30 1312 N 122.682 1.50554 0.465978 0
M  V30 1313 C 123.929 1.61798 1.21768 0
M  V30 1314 C 124.257 0.320696 1.91838 0
M  V30 1315 O 123.512 -0.693724 1.82992 0
M  V30 1316 C 123.811 2.75152 2.28093 0
M  V30 1317 C 123.477 4.15454 1.75239 0
M  V30 1318 C 122.139 4.53628 1.60546 0
M  V30 1319 C 124.491 5.03121 1.36083 0
M  V30 1320 C 121.819 5.77204 1.05128 0
M  V30 1321 C 124.171 6.27249 0.821056 0
M  V30 1322 C 122.835 6.64221 0.660795 0
M  V30 1323 H 122.105 0.592063 0.445582 0
M  V30 1324 H 124.752 1.84503 0.512927 0
M  V30 1325 H 123.057 2.46556 3.04496 0
M  V30 1326 H 124.754 2.81055 2.86023 0
M  V30 1327 H 121.344 3.85341 1.87644 0
M  V30 1328 H 125.528 4.74257 1.46267 0
M  V30 1329 H 120.784 6.0452 0.91462 0
M  V30 1330 H 124.958 6.94537 0.509018 0
M  V30 1331 H 122.585 7.59854 0.229226 0
M  V30 1332 N 124.16 -0.719506 1.40217 0
M  V30 1333 C 125.437 -1.47221 1.28784 0
M  V30 1334 C 125.817 -2.10883 -0.0956067 0
M  V30 1335 O 125.165 -1.99833 -1.10811 0
M  V30 1336 C 125.375 -2.5111 2.42373 0
M  V30 1337 C 126.723 -3.17053 2.82423 0
M  V30 1338 O 127.747 -2.61429 2.41937 0
M  V30 1339 O 126.606 -4.17742 3.52355 0
M  V30 1340 H 123.7 -0.654491 0.50554 0
M  V30 1341 H 126.246 -0.752014 1.52128 0
M  V30 1342 H 125.018 -2.02556 3.34793 0
M  V30 1343 H 124.641 -3.3067 2.20778 0
M  V30 1344 N 125.638 -1.25649 -0.95132 0
M  V30 1345 C 126.884 -1.10757 -1.69884 0
M  V30 1346 C 127.217 0.350061 -1.91019 0
M  V30 1347 O 126.492 1.25783 -1.48354 0
M  V30 1348 C 126.775 -1.86606 -3.07978 0
M  V30 1349 C 126.628 -3.40217 -2.94232 0
M  V30 1350 C 127.947 -1.65182 -4.07925 0
M  V30 1351 H 125.066 -0.40374 -0.616574 0
M  V30 1352 H 127.708 -1.54521 -1.10558 0
M  V30 1353 H 125.858 -1.49409 -3.58621 0
M  V30 1354 H 127.53 -3.87108 -2.50889 0
M  V30 1355 H 125.773 -3.67759 -2.30078 0
M  V30 1356 H 126.444 -3.88505 -3.92133 0
M  V30 1357 H 128.92 -1.9757 -3.66204 0
M  V30 1358 H 127.796 -2.20683 -5.02583 0
M  V30 1359 H 128.057 -0.593933 -4.38092 0
M  V30 1360 N 127.117 1.15442 -1.07289 0
M  V30 1361 C 128.345 1.90096 -0.81676 0
M  V30 1362 C 128.76 1.7798 0.629966 0
M  V30 1363 O 128.117 1.1313 1.43206 0
M  V30 1364 C 128.168 3.40466 -1.21512 0
M  V30 1365 O 127.889 3.52232 -2.60508 0
M  V30 1366 C 129.39 4.32145 -0.988198 0
M  V30 1367 H 126.61 0.602495 -0.295366 0
M  V30 1368 H 129.154 1.4627 -1.42918 0
M  V30 1369 H 127.309 3.81958 -0.647039 0
M  V30 1370 H 127.723 4.45549 -2.76742 0
M  V30 1371 H 129.197 5.36072 -1.31645 0
M  V30 1372 H 129.674 4.39135 0.0755063 0
M  V30 1373 H 130.28 3.96395 -1.54115 0
M  V30 1374 N 128.595 0.856903 1.32268 0
M  V30 1375 C 129.542 0.301172 2.28827 0
M  V30 1376 C 130.512 -0.593104 1.5515 0
M  V30 1377 O 131.697 -0.527537 1.83362 0
M  V30 1378 C 128.837 -0.502523 3.41422 0
M  V30 1379 C 127.95 0.417797 4.29975 0
M  V30 1380 C 127.085 -0.398749 5.29701 0
M  V30 1381 C 126.124 0.518827 6.09897 0
M  V30 1382 N 125.261 -0.260674 7.01616 0
M  V30 1383 H 130.101 1.12983 2.75751 0
M  V30 1384 H 127.638 0.568582 1.35667 0
M  V30 1385 H 129.596 -0.984141 4.05426 0
M  V30 1386 H 128.226 -1.29599 2.95642 0
M  V30 1387 H 127.278 1.01781 3.66531 0
M  V30 1388 H 128.59 1.12191 4.86019 0
M  V30 1389 H 127.744 -0.943435 5.9932 0
M  V30 1390 H 126.483 -1.13622 4.7428 0
M  V30 1391 H 125.488 1.07538 5.39181 0
M  V30 1392 H 126.713 1.25495 6.67404 0
M  V30 1393 H 124.659 -0.981198 6.4862 0
M  V30 1394 H 124.576 0.384364 7.55022 0
M  V30 1395 H 125.844 -0.787014 7.75517 0
M  V30 1396 N 130.073 -1.45103 0.615059 0
M  V30 1397 C 131.321 -2.01784 0.112955 0
M  V30 1398 C 131.642 -1.48504 -1.26378 0
M  V30 1399 O 130.912 -0.682245 -1.83636 0
M  V30 1400 H 129.492 -0.745993 0.0387668 0
M  V30 1401 H 132.154 -1.77808 0.798141 0
M  V30 1402 H 131.25 -3.12025 0.0684069 0
M  V30 1403 N 131.551 -0.354651 -1.53558 0
M  V30 1404 C 132.498 0.496968 -2.25386 0
M  V30 1405 C 133.468 1.0865 -1.25636 0
M  V30 1406 O 134.653 1.12104 -1.54394 0
M  V30 1407 C 131.793 1.63637 -3.03837 0
M  V30 1408 C 130.906 1.07307 -4.18461 0
M  V30 1409 C 130.041 2.18068 -4.84376 0
M  V30 1410 C 129.08 1.59147 -5.91049 0
M  V30 1411 N 128.217 2.63695 -6.50699 0
M  V30 1412 H 133.057 -0.122075 -2.9775 0
M  V30 1413 H 130.594 -0.0720154 -1.46924 0
M  V30 1414 H 132.552 2.30734 -3.47589 0
M  V30 1415 H 131.182 2.22623 -2.33749 0
M  V30 1416 H 130.234 0.292708 -3.79272 0
M  V30 1417 H 131.546 0.602193 -4.95152 0
M  V30 1418 H 130.7 2.93007 -5.31255 0
M  V30 1419 H 129.439 2.68504 -4.07133 0
M  V30 1420 H 128.444 0.827175 -5.43542 0
M  V30 1421 H 129.669 1.09549 -6.70206 0
M  V30 1422 H 127.615 3.13365 -5.76315 0
M  V30 1423 H 127.532 2.21263 -7.22896 0
M  V30 1424 H 128.8 3.3837 -7.02229 0
M  V30 1425 N 133.029 1.57378 -0.0835403 0
M  V30 1426 C 134.278 1.93106 0.582498 0
M  V30 1427 C 134.591 0.96651 1.70053 0
M  V30 1428 O 135.797 1.21705 2.42693 0
M  V30 1429 C 134.253 3.43076 1.08751 0
M  V30 1430 C 133.861 4.48 -0.000146404 0
M  V30 1431 C 135.605 3.87785 1.72694 0
M  V30 1432 C 133.512 5.89113 0.519568 0
M  V30 1433 H 132.442 0.720775 0.221358 0
M  V30 1434 H 135.093 1.82821 -0.157675 0
M  V30 1435 H 133.475 3.48474 1.88101 0
M  V30 1436 H 134.649 4.54233 -0.775199 0
M  V30 1437 H 132.964 4.1283 -0.54406 0
M  V30 1438 H 135.561 4.90604 2.1263 0
M  V30 1439 H 135.904 3.25796 2.59158 0
M  V30 1440 H 136.437 3.8504 0.999457 0
M  V30 1441 H 133.176 6.54775 -0.308186 0
M  V30 1442 H 132.696 5.86376 1.26188 0
M  V30 1443 H 134.375 6.39346 0.992237 0
M  V30 1444 N 134.507 -0.190092 1.56449 0
M  V30 1445 C 135.754 -0.909705 1.80916 0
M  V30 1446 C 136.082 -1.83047 0.657583 0
M  V30 1447 O 135.337 -1.92428 -0.356356 0
M  V30 1448 C 135.636 -1.75382 3.1141 0
M  V30 1449 C 135.302 -0.983606 4.40041 0
M  V30 1450 C 133.964 -0.770967 4.74984 0
M  V30 1451 C 136.316 -0.442024 5.19322 0
M  V30 1452 C 133.644 -0.0053448 5.867 0
M  V30 1453 C 135.996 0.310412 6.31838 0
M  V30 1454 C 134.66 0.534023 6.6536 0
M  V30 1455 H 133.93 -0.332885 0.662019 0
M  V30 1456 H 136.577 -0.175762 1.90692 0
M  V30 1457 H 134.882 -2.55659 2.96893 0
M  V30 1458 H 136.579 -2.31331 3.27547 0
M  V30 1459 H 133.169 -1.15936 4.12622 0
M  V30 1460 H 137.353 -0.593693 4.92736 0
M  V30 1461 H 132.609 0.177825 6.11141 0
M  V30 1462 H 136.783 0.737419 6.92485 0
M  V30 1463 H 134.41 1.12918 7.51767 0
M  V30 1464 N 135.985 -1.50799 -0.457987 0
M  V30 1465 C 137.234 -1.6168 -1.20593 0
M  V30 1466 C 137.547 -0.32888 -1.92815 0
M  V30 1467 O 138.753 -0.316773 -2.69646 0
M  V30 1468 C 137.209 -2.8545 -2.19195 0
M  V30 1469 C 136.817 -4.21168 -1.52715 0
M  V30 1470 C 138.561 -3.05681 -2.94549 0
M  V30 1471 C 136.468 -5.3611 -2.4968 0
M  V30 1472 H 135.398 -0.602134 -0.453818 0
M  V30 1473 H 138.049 -1.77245 -0.475031 0
M  V30 1474 H 136.431 -2.63472 -2.95632 0
M  V30 1475 H 137.605 -4.53449 -0.819775 0
M  V30 1476 H 135.92 -4.06648 -0.895922 0
M  V30 1477 H 138.517 -3.88727 -3.67145 0
M  V30 1478 H 138.86 -2.17929 -3.54701 0
M  V30 1479 H 139.393 -3.27901 -2.25223 0
M  V30 1480 H 136.132 -6.26057 -1.94249 0
M  V30 1481 H 135.652 -5.0823 -3.18532 0
M  V30 1482 H 137.331 -5.6722 -3.11241 0
M  V30 1483 N 137.463 0.71206 -1.40597 0
M  V30 1484 C 138.373 1.8562 -1.43466 0
M  V30 1485 C 139.389 1.70902 -0.326902 0
M  V30 1486 O 140.565 1.93105 -0.572043 0
M  V30 1487 C 137.63 3.21451 -1.29884 0
M  V30 1488 C 136.691 3.48398 -2.50833 0
M  V30 1489 C 135.924 4.77749 -2.3789 0
M  V30 1490 O 136.147 5.53089 -1.39459 0
M  V30 1491 O 135.081 5.05111 -3.27333 0
M  V30 1492 H 138.907 1.86155 -2.39958 0
M  V30 1493 H 136.492 0.86295 -1.21957 0
M  V30 1494 H 138.374 4.02579 -1.24531 0
M  V30 1495 H 137.049 3.21636 -0.364997 0
M  V30 1496 H 135.956 2.67265 -2.61763 0
M  V30 1497 H 137.289 3.53014 -3.4299 0
M  V30 1498 N 138.941 1.26152 0.944643 0
M  V30 1499 C 140.187 1.12665 1.69346 0
M  V30 1500 C 140.542 -0.3273 1.89596 0
M  V30 1501 O 139.835 -1.23717 1.46303 0
M  V30 1502 C 140.029 1.82541 3.07268 0
M  V30 1503 C 139.858 3.34582 3.00475 0
M  V30 1504 C 138.628 4.03863 3.03681 0
M  V30 1505 C 140.826 4.30828 2.80877 0
M  V30 1506 N 138.808 5.42603 2.87151 0
M  V30 1507 C 140.179 5.5672 2.7288 0
M  V30 1508 C 142.234 4.21122 2.65633 0
M  V30 1509 C 140.937 6.74013 2.51196 0
M  V30 1510 C 142.963 5.38118 2.45323 0
M  V30 1511 C 142.325 6.62955 2.38055 0
M  V30 1512 H 138.424 0.467041 0.627214 0
M  V30 1513 H 141.008 1.59391 1.11815 0
M  V30 1514 H 139.179 1.38296 3.62945 0
M  V30 1515 H 140.911 1.61708 3.70989 0
M  V30 1516 H 137.666 3.55198 3.1326 0
M  V30 1517 H 138.09 6.15443 2.82063 0
M  V30 1518 H 142.732 3.25344 2.70021 0
M  V30 1519 H 140.45 7.6989 2.4555 0
M  V30 1520 H 144.036 5.32475 2.34439 0
M  V30 1521 H 142.916 7.51959 2.22546 0
M  V30 1522 N 140.419 -1.14872 1.07899 0
M  V30 1523 C 141.352 -2.18794 0.64841 0
M  V30 1524 C 142.33 -1.59065 -0.337189 0
M  V30 1525 O 143.514 -1.86936 -0.242284 0
M  V30 1526 C 140.641 -3.38667 -0.0470417 0
M  V30 1527 C 139.687 -4.16942 0.897884 0
M  V30 1528 S 140.52 -4.78615 2.40183 0
M  V30 1529 C 141.676 -6.0185 1.71834 0
M  V30 1530 H 141.909 -2.5498 1.52881 0
M  V30 1531 H 139.442 -1.25922 0.893484 0
M  V30 1532 H 141.4 -4.08113 -0.442027 0
M  V30 1533 H 140.061 -3.00814 -0.903861 0
M  V30 1534 H 139.254 -5.02726 0.358096 0
M  V30 1535 H 138.856 -3.53073 1.23352 0
M  V30 1536 H 141.148 -6.69574 1.03328 0
M  V30 1537 H 142.091 -6.60408 2.55473 0
M  V30 1538 H 142.499 -5.5173 1.19392 0
M  V30 1539 N 141.898 -0.863906 -1.31812 0
M  V30 1540 C 142.845 -0.313303 -2.28664 0
M  V30 1541 C 143.815 0.584868 -1.55462 0
M  V30 1542 O 145 0.517805 -1.83639 0
M  V30 1543 C 142.14 0.48441 -3.41683 0
M  V30 1544 C 141.253 -0.440594 -4.29747 0
M  V30 1545 C 140.388 0.370652 -5.29905 0
M  V30 1546 C 139.427 -0.551164 -6.09613 0
M  V30 1547 N 138.564 0.223462 -7.01744 0
M  V30 1548 H 143.404 -1.14444 -2.75148 0
M  V30 1549 H 140.941 -0.575769 -1.35364 0
M  V30 1550 H 142.899 0.962627 -4.05943 0
M  V30 1551 H 141.529 1.28029 -2.96325 0
M  V30 1552 H 140.581 -1.03724 -3.65986 0
M  V30 1553 H 141.893 -1.14767 -4.85417 0
M  V30 1554 H 141.047 0.911638 -5.99812 0
M  V30 1555 H 139.786 1.11105 -4.74876 0
M  V30 1556 H 138.791 -1.10396 -5.38603 0
M  V30 1557 H 140.016 -1.29032 -6.66729 0
M  V30 1558 H 137.962 0.946787 -6.49132 0
M  V30 1559 H 137.879 -0.424399 -7.54808 0
M  V30 1560 H 139.147 0.745876 -7.75923 0
M  V30 1561 N 143.376 1.44774 -0.622745 0
M  V30 1562 C 144.624 2.01721 -0.123655 0
M  V30 1563 C 144.945 1.49172 1.25589 0
M  V30 1564 O 144.215 0.691974 1.83272 0
M  V30 1565 H 142.795 0.745777 -0.0427225 0
M  V30 1566 H 145.457 1.77382 -0.807559 0
M  V30 1567 H 144.553 3.11984 -0.0849534 0
M  V30 1568 N 144.854 0.36279 1.53368 0
M  V30 1569 C 145.817 -0.472679 2.24273 0
M  V30 1570 C 146.817 -1.012 1.24961 0
M  V30 1571 O 148.007 -0.898194 1.49259 0
M  V30 1572 C 145.139 -1.66039 2.97731 0
M  V30 1573 H 146.332 0.14773 2.99536 0
M  V30 1574 H 143.885 0.114434 1.55881 0
M  V30 1575 H 144.62 -2.31896 2.26704 0
M  V30 1576 H 144.405 -1.28066 3.70596 0
M  V30 1577 H 145.895 -2.25252 3.51641 0
M  V30 1578 N 146.332 -1.57332 0.0918853 0
M  V30 1579 C 147.56 -1.98574 -0.581048 0
M  V30 1580 C 147.975 -0.970903 -1.61923 0
M  V30 1581 O 147.332 0.0399054 -1.82456 0
M  V30 1582 C 147.383 -3.39872 -1.23164 0
M  V30 1583 O 147.104 -4.37469 -0.234989 0
M  V30 1584 C 148.605 -3.96099 -1.99049 0
M  V30 1585 H 145.825 -0.65261 -0.156018 0
M  V30 1586 H 148.369 -2.0379 0.170225 0
M  V30 1587 H 146.524 -3.35679 -1.93386 0
M  V30 1588 H 146.938 -5.19751 -0.70418 0
M  V30 1589 H 148.412 -4.97127 -2.39934 0
M  V30 1590 H 148.889 -3.3374 -2.85507 0
M  V30 1591 H 149.495 -4.03755 -1.3365 0
M  V30 1592 N 147.81 0.181792 -1.56548 0
M  V30 1593 C 149.038 0.915947 -1.85521 0
M  V30 1594 C 149.453 1.76282 -0.676016 0
M  V30 1595 O 148.81 1.79012 0.355077 0
M  V30 1596 C 148.861 1.80126 -3.13427 0
M  V30 1597 O 148.582 0.988562 -4.26801 0
M  V30 1598 C 150.083 2.64597 -3.55673 0
M  V30 1599 H 147.303 0.26661 -0.61576 0
M  V30 1600 H 149.847 0.185039 -2.03661 0
M  V30 1601 H 148.002 2.48563 -2.97145 0
M  V30 1602 H 148.416 1.59308 -4.99721 0
M  V30 1603 H 149.89 3.2235 -4.48101 0
M  V30 1604 H 150.367 3.38958 -2.79292 0
M  V30 1605 H 150.973 2.0151 -3.74532 0
M  V30 1606 N 149.288 1.51039 0.449983 0
M  V30 1607 C 150.236 1.71995 1.5659 0
M  V30 1608 C 151.23 0.586029 1.5894 0
M  V30 1609 O 152.436 0.76709 1.62837 0
M  V30 1610 H 148.811 0.543233 0.520001 0
M  V30 1611 H 150.782 2.65562 1.36085 0
M  V30 1612 C 149.531 1.8506 2.9436 0
M  V30 1613 H 148.854 2.71712 2.93279 0
M  V30 1614 H 150.294 2.0374 3.71842 0
M  V30 1615 C 148.753 0.607277 3.31382 0
M  V30 1616 O 149.283 -0.243903 4.00959 0
M  V30 1617 N 147.489 0.455073 2.87015 0
M  V30 1618 H 147.036 1.14879 2.30566 0
M  V30 1619 H 146.994 -0.375611 3.12148 0
M  V30 1620 N 150.766 -0.704594 1.40972 0
M  V30 1621 C 152.015 -1.46018 1.39146 0
M  V30 1622 C 152.328 -1.956 0.000589254 0
M  V30 1623 O 153.534 -2.71137 -0.1403 0
M  V30 1624 C 151.99 -2.63996 2.4461 0
M  V30 1625 C 151.598 -2.21238 3.89561 0
M  V30 1626 C 153.342 -3.41677 2.51907 0
M  V30 1627 C 151.249 -3.3612 4.86598 0
M  V30 1628 H 150.179 -0.548444 0.517422 0
M  V30 1629 H 152.83 -0.765784 1.66757 0
M  V30 1630 H 151.212 -3.3566 2.10115 0
M  V30 1631 H 152.386 -1.56923 4.33257 0
M  V30 1632 H 150.701 -1.56574 3.85841 0
M  V30 1633 H 153.298 -4.27182 3.2159 0
M  V30 1634 H 153.641 -3.86247 1.55303 0
M  V30 1635 H 154.174 -2.77064 2.85448 0
M  V30 1636 H 150.913 -2.96572 5.84573 0
M  V30 1637 H 150.433 -3.99315 4.47557 0
M  V30 1638 H 152.112 -4.02029 5.06934 0
M  V30 1639 N 152.244 -1.26651 -0.937939 0
M  V30 1640 C 153.484 -1.13611 -1.69917 0
M  V30 1641 C 153.848 0.314687 -1.89404 0
M  V30 1642 O 155.049 0.567285 -2.62746 0
M  V30 1643 C 153.32 -1.88742 -3.03498 0
M  V30 1644 S 154.879 -1.91794 -3.94665 0
M  V30 1645 H 151.697 -0.405767 -0.583844 0
M  V30 1646 H 154.299 -1.60416 -1.11745 0
M  V30 1647 H 153.003 -2.9336 -2.86999 0
M  V30 1648 H 152.534 -1.42391 -3.66727 0
M  V30 1649 H 154.549 -1.00698 -4.85875 0
M  V30 1650 N 153.722 1.14298 -1.08507 0
M  V30 1651 C 154.952 1.88945 -0.835663 0
M  V30 1652 C 155.36 1.78894 0.615928 0
M  V30 1653 O 154.703 1.1468 1.43506 0
M  V30 1654 C 154.765 3.39585 -1.17994 0
M  V30 1655 C 154.429 3.7342 -2.63451 0
M  V30 1656 C 155.426 3.73454 -3.61702 0
M  V30 1657 C 153.111 4.03368 -2.99332 0
M  V30 1658 C 155.105 4.02961 -4.93864 0
M  V30 1659 C 152.792 4.32538 -4.31687 0
M  V30 1660 C 153.79 4.32318 -5.28763 0
M  V30 1661 O 153.478 4.6078 -6.58739 0
M  V30 1662 H 153.21 0.605307 -0.300965 0
M  V30 1663 H 155.764 1.45673 -1.44806 0
M  V30 1664 H 153.994 3.83315 -0.51055 0
M  V30 1665 H 155.683 3.9554 -0.911182 0
M  V30 1666 H 156.449 3.50403 -3.35325 0
M  V30 1667 H 152.328 4.02692 -2.24411 0
M  V30 1668 H 155.872 4.02704 -5.69627 0
M  V30 1669 H 151.769 4.55059 -4.57812 0
M  V30 1670 H 152.537 4.78492 -6.64069 0
M  V30 1671 N 155.201 0.870884 1.31352 0
M  V30 1672 C 156.149 0.316445 2.30437 0
M  V30 1673 C 157.143 -0.568965 1.59559 0
M  V30 1674 O 158.349 -0.454964 1.74155 0
M  V30 1675 H 154.724 0.0836521 0.747333 0
M  V30 1676 H 156.695 1.16606 2.74673 0
M  V30 1677 C 155.444 -0.46635 3.44558 0
M  V30 1678 H 154.767 0.205687 3.99271 0
M  V30 1679 H 156.207 -0.819614 4.16003 0
M  V30 1680 C 154.666 -1.65797 2.9328 0
M  V30 1681 O 155.196 -2.75728 2.92125 0
M  V30 1682 N 153.402 -1.49041 2.4947 0
M  V30 1683 H 152.949 -0.59612 2.50608 0
M  V30 1684 H 152.907 -2.28911 2.15516 0
M  V30 1685 N 156.679 -1.44442 0.630414 0
M  V30 1686 C 157.925 -2.02351 0.134816 0
M  V30 1687 C 158.258 -1.4947 -1.23986 0
M  V30 1688 O 157.533 -0.678475 -1.82283 0
M  V30 1689 C 157.816 -3.59898 0.120707 0
M  V30 1690 C 157.669 -4.23063 1.52767 0
M  V30 1691 C 158.988 -4.36585 -0.555127 0
M  V30 1692 H 156.107 -0.73527 0.0504646 0
M  V30 1693 H 158.749 -1.72022 0.806751 0
M  V30 1694 H 156.899 -3.85868 -0.451477 0
M  V30 1695 H 158.571 -4.08202 2.14869 0
M  V30 1696 H 156.814 -3.80586 2.08175 0
M  V30 1697 H 157.485 -5.32071 1.46984 0
M  V30 1698 H 159.961 -4.16044 -0.0685429 0
M  V30 1699 H 158.837 -5.46294 -0.534185 0
M  V30 1700 H 159.098 -4.11138 -1.62535 0
M  V30 1701 N 158.157 -0.370918 -1.53173 0
M  V30 1702 C 159.087 0.464847 -2.28826 0
M  V30 1703 C 160.068 1.07936 -1.31468 0
M  V30 1704 O 161.253 1.0956 -1.60344 0
M  V30 1705 C 158.383 1.60196 -3.08147 0
M  V30 1706 C 157.337 1.11443 -4.13237 0
M  V30 1707 C 156.663 2.3422 -4.80672 0
M  V30 1708 C 157.963 0.195384 -5.21934 0
M  V30 1709 H 159.657 -0.166329 -2.98938 0
M  V30 1710 H 157.203 -0.0814359 -1.4377 0
M  V30 1711 H 159.156 2.19332 -3.59822 0
M  V30 1712 H 157.88 2.26045 -2.35735 0
M  V30 1713 H 156.539 0.545727 -3.62515 0
M  V30 1714 H 156.187 2.98537 -4.04827 0
M  V30 1715 H 155.887 2.02269 -5.51689 0
M  V30 1716 H 157.411 2.94032 -5.35143 0
M  V30 1717 H 158.825 0.694375 -5.69079 0
M  V30 1718 H 157.222 -0.0335027 -6.00091 0
M  V30 1719 H 158.292 -0.760961 -4.78892 0
M  V30 1720 N 159.635 1.57281 -0.100228 0
M  V30 1721 C 160.912 1.86014 0.604812 0
M  V30 1722 C 161.292 0.998025 1.86018 0
M  V30 1723 O 160.64 0.0718184 2.28387 0
M  V30 1724 C 160.85 3.36784 0.915278 0
M  V30 1725 C 162.198 4.04957 1.27651 0
M  V30 1726 O 163.222 3.41695 1.00613 0
M  V30 1727 O 162.081 5.16593 1.7831 0
M  V30 1728 H 159.175 0.76942 0.303185 0
M  V30 1729 H 161.721 1.69176 -0.133313 0
M  V30 1730 H 160.493 3.91292 0.0248896 0
M  V30 1731 H 160.116 3.58987 1.70921 0
M  V30 1732 N 161.113 -0.173488 1.56642 0
M  V30 1733 C 162.529 -0.525174 1.50712 0
M  V30 1734 C 162.729 -1.8476 0.804107 0
M  V30 1735 O 161.785 -2.49869 0.363574 0
M  V30 1736 C 163.098 -0.559937 2.95441 0
M  V30 1737 C 164.646 -0.647288 3.06234 0
M  V30 1738 C 165.121 -0.712963 4.52417 0
M  V30 1739 N 166.612 -0.775911 4.56655 0
M  V30 1740 C 167.347 -0.847264 5.67106 0
M  V30 1741 N 166.843 -0.879585 6.87194 0
M  V30 1742 N 168.636 -0.886117 5.55071 0
M  V30 1743 H 160.787 0.693681 2.00753 0
M  V30 1744 H 163.05 0.249841 0.914485 0
M  V30 1745 H 162.756 0.343049 3.50023 0
M  V30 1746 H 162.63 -1.40718 3.49969 0
M  V30 1747 H 165.017 -1.5407 2.51687 0
M  V30 1748 H 165.098 0.226586 2.54794 0
M  V30 1749 H 164.742 0.176183 5.07594 0
M  V30 1750 H 164.672 -1.60295 5.0161 0
M  V30 1751 H 167.163 -0.759304 3.70193 0
M  V30 1752 H 167.476 -0.935144 7.67121 0
M  V30 1753 H 165.821 -0.847898 6.89808 0
M  V30 1754 H 169.012 -0.857853 4.60172 0
M  V30 1755 H 169.185 -0.938263 6.41171 0
M  V30 1756 N 162.591 -1.51276 -0.441967 0
M  V30 1757 C 163.539 -1.72823 -1.55676 0
M  V30 1758 C 164.533 -0.59445 -1.58627 0
M  V30 1759 O 165.739 -0.775715 -1.62427 0
M  V30 1760 H 162.114 -0.545983 -0.517113 0
M  V30 1761 H 164.085 -2.6628 -1.34675 0
M  V30 1762 C 162.834 -1.86619 -2.93375 0
M  V30 1763 H 162.157 -2.73264 -2.91834 0
M  V30 1764 H 163.597 -2.05709 -3.70756 0
M  V30 1765 C 162.056 -0.624842 -3.31055 0
M  V30 1766 O 162.586 0.222636 -4.01083 0
M  V30 1767 N 160.792 -0.470288 -2.86769 0
M  V30 1768 H 160.339 -1.161 -2.29953 0
M  V30 1769 H 160.297 0.359051 -3.12343 0
M  V30 1770 N 164.069 0.697108 -1.41344 0
M  V30 1771 C 165.315 1.4593 -1.40827 0
M  V30 1772 C 165.648 1.94193 -0.0167098 0
M  V30 1773 O 164.923 1.69425 0.955263 0
M  V30 1774 C 165.206 2.67229 -2.41373 0
M  V30 1775 C 165.059 2.24741 -3.8963 0
M  V30 1776 C 166.378 3.69423 -2.39196 0
M  V30 1777 H 163.497 0.529303 -0.512842 0
M  V30 1778 H 166.139 0.794112 -1.72609 0
M  V30 1779 H 164.289 3.23982 -2.14401 0
M  V30 1780 H 165.961 1.73327 -4.27499 0
M  V30 1781 H 164.204 1.56542 -4.0457 0
M  V30 1782 H 164.875 3.1177 -4.55525 0
M  V30 1783 H 167.351 3.2234 -2.63128 0
M  V30 1784 H 166.227 4.51907 -3.11563 0
M  V30 1785 H 166.488 4.19012 -1.41001 0
M  V30 1786 N 165.547 1.27147 0.931209 0
M  V30 1787 C 166.497 1.06227 2.01742 0
M  V30 1788 C 167.481 -0.00859065 1.60898 0
M  V30 1789 O 168.673 0.209537 1.75755 0
M  V30 1790 C 165.802 0.707787 3.35924 0
M  V30 1791 C 164.888 1.81661 3.83223 0
M  V30 1792 N 165.279 3.05564 4.03069 0
M  V30 1793 C 163.577 1.70249 4.12227 0
M  V30 1794 C 164.278 3.77697 4.42403 0
M  V30 1795 N 163.254 3.0544 4.49675 0
M  V30 1796 H 167.056 2.00261 2.15111 0
M  V30 1797 H 164.57 1.1781 1.11779 0
M  V30 1798 H 166.567 0.539043 4.134 0
M  V30 1799 H 165.227 -0.224964 3.2392 0
M  V30 1800 H 166.238 3.41363 3.89476 0
M  V30 1801 H 162.915 0.840329 4.08956 0
M  V30 1802 H 164.305 4.84168 4.65866 0
M  V30 1803 N 167.025 -1.13721 1.09112 0
M  V30 1804 C 167.935 -2.22638 0.73957 0
M  V30 1805 C 168.951 -1.72091 -0.257068 0
M  V30 1806 O 170.127 -2.01155 -0.0992154 0
M  V30 1807 C 167.192 -3.46322 0.16191 0
M  V30 1808 C 166.253 -4.11775 1.21408 0
M  V30 1809 C 165.486 -5.29555 0.663891 0
M  V30 1810 O 165.709 -5.68077 -0.514274 0
M  V30 1811 O 164.643 -5.84973 1.41738 0
M  V30 1812 H 168.469 -2.55074 1.64836 0
M  V30 1813 H 166.054 -1.21791 0.865289 0
M  V30 1814 H 167.936 -4.21107 -0.157073 0
M  V30 1815 H 166.611 -3.15593 -0.719932 0
M  V30 1816 H 165.518 -3.3883 1.58571 0
M  V30 1817 H 166.851 -4.46627 2.06845 0
M  V30 1818 N 168.503 -0.877838 -1.30888 0
M  V30 1819 C 169.45 -0.337538 -2.28318 0
M  V30 1820 C 170.42 0.568346 -1.56074 0
M  V30 1821 O 171.605 0.498298 -1.84178 0
M  V30 1822 C 168.745 0.448142 -3.42178 0
M  V30 1823 C 167.858 -0.48615 -4.29256 0
M  V30 1824 C 166.993 0.314427 -5.30269 0
M  V30 1825 C 166.032 -0.615791 -6.08995 0
M  V30 1826 N 165.169 0.14902 -7.01942 0
M  V30 1827 H 170.009 -1.17356 -2.73919 0
M  V30 1828 H 167.546 -0.590094 -1.34745 0
M  V30 1829 H 169.504 0.919517 -4.06941 0
M  V30 1830 H 168.134 1.24879 -2.97666 0
M  V30 1831 H 167.186 -1.076 -3.64865 0
M  V30 1832 H 168.498 -1.19909 -4.84173 0
M  V30 1833 H 167.652 0.847969 -6.00745 0
M  V30 1834 H 166.391 1.06062 -4.76027 0
M  V30 1835 H 165.396 -1.16102 -5.37401 0
M  V30 1836 H 166.621 -1.36097 -6.65323 0
M  V30 1837 H 164.567 0.877884 -6.50099 0
M  V30 1838 H 164.484 -0.504433 -7.54315 0
M  V30 1839 H 165.752 0.663537 -7.76671 0
M  V30 1840 N 169.982 1.44106 -0.638065 0
M  V30 1841 C 170.929 2.30715 0.062701 0
M  V30 1842 C 171.899 1.43882 0.829883 0
M  V30 1843 O 173.084 1.72775 0.809532 0
M  V30 1844 C 170.224 3.29258 1.03358 0
M  V30 1845 C 169.337 4.31192 0.26409 0
M  V30 1846 C 168.472 5.16825 1.22741 0
M  V30 1847 C 167.511 6.10462 0.447475 0
M  V30 1848 N 166.648 6.8877 1.36161 0
M  V30 1849 H 171.488 2.90096 -0.681781 0
M  V30 1850 H 169.025 1.42925 -0.347988 0
M  V30 1851 H 170.983 3.84886 1.60992 0
M  V30 1852 H 169.613 2.71562 1.74511 0
M  V30 1853 H 168.665 3.77981 -0.428295 0
M  V30 1854 H 169.977 4.97619 -0.343052 0
M  V30 1855 H 169.131 5.77004 1.87487 0
M  V30 1856 H 167.87 4.50488 1.86847 0
M  V30 1857 H 166.875 5.49386 -0.213433 0
M  V30 1858 H 168.1 6.78837 -0.188968 0
M  V30 1859 H 166.046 6.25096 1.98975 0
M  V30 1860 H 165.963 7.51663 0.808656 0
M  V30 1861 H 167.231 7.53467 1.99769 0
M  V30 1862 N 171.46 0.379036 1.52974 0
M  V30 1863 C 172.39 -0.452706 2.29069 0
M  V30 1864 C 173.371 -1.07237 1.32039 0
M  V30 1865 O 174.556 -1.08708 1.60923 0
M  V30 1866 C 171.686 -1.5856 3.08992 0
M  V30 1867 C 170.64 -1.0925 4.13822 0
M  V30 1868 C 169.966 -2.31668 4.81907 0
M  V30 1869 C 171.266 -0.167702 5.22031 0
M  V30 1870 H 172.96 0.182181 2.98845 0
M  V30 1871 H 170.506 0.0890592 1.43724 0
M  V30 1872 H 172.459 -2.1742 3.6098 0
M  V30 1873 H 171.183 -2.24792 2.36931 0
M  V30 1874 H 169.842 -0.526494 3.628 0
M  V30 1875 H 169.49 -2.96386 4.06404 0
M  V30 1876 H 169.19 -1.9934 5.52754 0
M  V30 1877 H 170.714 -2.91189 5.36695 0
M  V30 1878 H 172.128 -0.664186 5.6944 0
M  V30 1879 H 170.525 0.0653265 6.00064 0
M  V30 1880 H 171.595 0.786347 4.78482 0
M  V30 1881 N 172.938 -1.57226 0.108567 0
M  V30 1882 C 174.186 -1.94448 -0.550853 0
M  V30 1883 C 174.507 -0.992074 -1.67878 0
M  V30 1884 O 173.777 -0.0465 -1.95845 0
M  V30 1885 H 172.357 -0.717897 -0.206479 0
M  V30 1886 H 175.019 -1.94112 0.175062 0
M  V30 1887 H 174.115 -2.97218 -0.952259 0
M  V30 1888 N 174.416 0.165178 -1.56732 0
M  V30 1889 C 175.693 0.908443 -1.73224 0
M  V30 1890 C 176.073 2.0013 -0.67165 0
M  V30 1891 O 175.421 2.26353 0.31253 0
M  V30 1892 C 175.631 1.46756 -3.16644 0
M  V30 1893 C 176.979 1.93809 -3.77787 0
M  V30 1894 O 178.003 1.56537 -3.1996 0
M  V30 1895 O 176.862 2.62486 -4.79336 0
M  V30 1896 H 173.956 0.428025 -0.707618 0
M  V30 1897 H 176.502 0.152526 -1.69013 0
M  V30 1898 H 175.274 0.68129 -3.85323 0
M  V30 1899 H 174.897 2.28749 -3.25207 0
M  V30 1900 N 175.894 1.51508 0.433938 0
M  V30 1901 C 176.841 1.73068 1.52696 0
M  V30 1902 C 177.811 0.572441 1.55924 0
M  V30 1903 O 178.996 0.807253 1.72882 0
M  V30 1904 C 176.136 1.86474 2.90381 0
M  V30 1905 C 175.249 3.14037 2.96656 0
M  V30 1906 C 174.384 3.18019 4.25485 0
M  V30 1907 C 173.423 4.39882 4.2564 0
M  V30 1908 N 172.56 4.41394 5.45999 0
M  V30 1909 H 177.4 2.66366 1.33615 0
M  V30 1910 H 174.937 1.32008 0.649018 0
M  V30 1911 H 176.895 1.92229 3.70275 0
M  V30 1912 H 175.525 0.965809 3.08013 0
M  V30 1913 H 174.577 3.17575 2.09404 0
M  V30 1914 H 175.889 4.0394 2.92633 0
M  V30 1915 H 175.043 3.22708 5.13755 0
M  V30 1916 H 173.782 2.2601 4.3217 0
M  V30 1917 H 172.787 4.35366 3.35763 0
M  V30 1918 H 174.012 5.33159 4.20617 0
M  V30 1919 H 171.958 3.52258 5.53399 0
M  V30 1920 H 171.875 5.25111 5.4387 0
M  V30 1921 H 173.143 4.50281 6.36292 0
M  V30 1922 N 177.372 -0.689602 1.41712 0
M  V30 1923 C 178.618 -1.45181 1.41599 0
M  V30 1924 C 178.951 -1.94181 0.0270081 0
M  V30 1925 O 178.226 -1.6993 -0.946265 0
M  V30 1926 C 178.509 -2.65945 2.42787 0
M  V30 1927 C 178.362 -2.22672 3.90816 0
M  V30 1928 C 179.681 -3.68149 2.41151 0
M  V30 1929 H 176.8 -0.526576 0.515642 0
M  V30 1930 H 179.442 -0.784947 1.73028 0
M  V30 1931 H 177.592 -3.2284 2.16116 0
M  V30 1932 H 179.264 -1.71058 4.28412 0
M  V30 1933 H 177.507 -1.54394 4.05395 0
M  V30 1934 H 178.178 -3.0935 4.57172 0
M  V30 1935 H 180.654 -3.2094 2.64834 0
M  V30 1936 H 179.53 -4.50248 3.13955 0
M  V30 1937 H 179.791 -4.18259 1.43221 0
M  V30 1938 N 178.85 -1.27639 -0.924453 0
M  V30 1939 C 179.813 -1.10681 -2.00705 0
M  V30 1940 C 180.813 -0.0497823 -1.60723 0
M  V30 1941 O 182.003 -0.294654 -1.7169 0
M  V30 1942 C 179.135 -0.687164 -3.33902 0
M  V30 1943 H 180.328 -2.06817 -2.17179 0
M  V30 1944 H 177.881 -1.10473 -1.10569 0
M  V30 1945 H 178.616 0.275439 -3.23128 0
M  V30 1946 H 178.401 -1.45061 -3.6428 0
M  V30 1947 H 179.891 -0.590853 -4.13399 0
M  V30 1948 N 180.328 1.1314 -1.09713 0
M  V30 1949 C 181.575 1.84484 -0.834987 0
M  V30 1950 C 181.903 1.83689 0.639418 0
M  V30 1951 O 181.158 1.2724 1.4869 0
M  V30 1952 C 181.457 3.32167 -1.3191 0
M  V30 1953 C 181.123 3.53139 -2.80363 0
M  V30 1954 C 179.785 3.58571 -3.20905 0
M  V30 1955 C 182.137 3.60866 -3.76065 0
M  V30 1956 C 179.465 3.69267 -4.55916 0
M  V30 1957 C 181.817 3.73089 -5.10869 0
M  V30 1958 C 180.481 3.76775 -5.50996 0
M  V30 1959 H 179.751 0.675073 -0.305544 0
M  V30 1960 H 182.398 1.33554 -1.37243 0
M  V30 1961 H 180.703 3.85469 -0.701517 0
M  V30 1962 H 182.4 3.85821 -1.09284 0
M  V30 1963 H 178.99 3.49569 -2.47991 0
M  V30 1964 H 183.174 3.55946 -3.45855 0
M  V30 1965 H 178.43 3.70388 -4.86438 0
M  V30 1966 H 182.604 3.78011 -5.84877 0
M  V30 1967 H 180.231 3.84815 -6.55608 0
M  V30 1968 N 181.806 0.884767 1.30421 0
M  V30 1969 C 183.036 0.517293 2.00019 0
M  V30 1970 C 183.444 -0.898632 1.66497 0
M  V30 1971 O 182.787 -1.60245 0.898181 0
M  V30 1972 C 182.849 0.612025 3.54252 0
M  V30 1973 C 182.513 1.99222 4.1129 0
M  V30 1974 C 183.51 2.9616 4.273 0
M  V30 1975 C 181.195 2.29755 4.46674 0
M  V30 1976 C 183.189 4.21764 4.77906 0
M  V30 1977 C 180.876 3.55606 4.96979 0
M  V30 1978 C 181.874 4.51425 5.12547 0
M  V30 1979 O 181.562 5.75043 5.61766 0
M  V30 1980 H 181.294 0.198529 0.64619 0
M  V30 1981 H 183.848 1.1919 1.67281 0
M  V30 1982 H 182.078 -0.119561 3.86515 0
M  V30 1983 H 183.767 0.255859 4.05093 0
M  V30 1984 H 184.533 2.73882 4.00267 0
M  V30 1985 H 180.412 1.55942 4.33824 0
M  V30 1986 H 183.956 4.96561 4.89972 0
M  V30 1987 H 179.853 3.7772 5.23448 0
M  V30 1988 H 180.621 5.77422 5.80109 0
M  V30 1989 N 183.284 -1.43765 0.645699 0
M  V30 1990 C 184.53 -2.02731 0.164844 0
M  V30 1991 C 184.885 -1.49983 -1.2051 0
M  V30 1992 O 184.178 -0.680208 -1.79119 0
M  V30 1993 C 184.372 -3.57238 0.107679 0
M  V30 1994 C 184.201 -4.24977 1.47054 0
M  V30 1995 C 182.971 -4.61356 2.06103 0
M  V30 1996 C 185.169 -4.54476 2.40741 0
M  V30 1997 N 183.151 -5.14132 3.35473 0
M  V30 1998 C 184.522 -5.08489 3.54737 0
M  V30 1999 C 186.577 -4.36438 2.39637 0
M  V30 2000 C 185.28 -5.46364 4.67845 0
M  V30 2001 C 187.306 -4.7537 3.5182 0
M  V30 2002 C 186.668 -5.2951 4.64541 0
M  V30 2003 H 182.767 -0.774976 0.104578 0
M  V30 2004 H 185.351 -1.75051 0.852367 0
M  V30 2005 H 183.522 -3.84498 -0.549165 0
M  V30 2006 H 185.254 -4.0288 -0.383351 0
M  V30 2007 H 182.009 -4.46151 1.58892 0
M  V30 2008 H 182.433 -5.4498 4.01654 0
M  V30 2009 H 187.075 -3.93861 1.53731 0
M  V30 2010 H 184.793 -5.87888 5.54448 0
M  V30 2011 H 188.379 -4.63115 3.52159 0
M  V30 2012 H 187.259 -5.59077 5.49911 0
M  V30 2013 N 184.763 -0.387143 -1.52771 0
M  V30 2014 C 185.673 0.456442 -2.30117 0
M  V30 2015 C 186.689 1.07342 -1.36944 0
M  V30 2016 O 187.865 1.07971 -1.70013 0
M  V30 2017 C 184.93 1.56957 -3.09136 0
M  V30 2018 C 183.991 0.977916 -4.18014 0
M  V30 2019 C 183.224 2.038 -4.93256 0
M  V30 2020 O 183.447 3.25271 -4.68567 0
M  V30 2021 O 182.381 1.6565 -5.78657 0
M  V30 2022 H 186.207 -0.17359 -3.03203 0
M  V30 2023 H 183.792 -0.150919 -1.48636 0
M  V30 2024 H 185.674 2.21628 -3.58412 0
M  V30 2025 H 184.349 2.18461 -2.38865 0
M  V30 2026 H 183.256 0.294525 -3.72939 0
M  V30 2027 H 184.589 0.407128 -4.90513 0
M  V30 2028 N 186.241 1.57166 -0.116904 0
M  V30 2029 C 187.489 1.94737 0.540533 0
M  V30 2030 C 187.81 1.00096 1.67349 0
M  V30 2031 O 187.08 0.0568854 1.95817 0
M  V30 2032 H 185.66 0.718981 0.202669 0
M  V30 2033 H 188.322 1.94017 -0.185353 0
M  V30 2034 H 187.418 2.97719 0.936483 0
M  V30 2035 N 187.719 -0.156864 1.56817 0
M  V30 2036 C 188.667 -1.21319 1.98455 0
M  V30 2037 C 189.661 -1.45025 0.875444 0
M  V30 2038 O 190.867 -1.45435 1.0606 0
M  V30 2039 H 187.242 -0.408142 0.631605 0
M  V30 2040 H 189.213 -0.835244 2.86472 0
M  V30 2041 C 187.962 -2.54148 2.37285 0
M  V30 2042 H 187.285 -2.36733 3.22176 0
M  V30 2043 H 188.725 -3.26712 2.70251 0
M  V30 2044 C 187.184 -3.13967 1.22173 0
M  V30 2045 O 187.714 -3.98357 0.517149 0
M  V30 2046 N 185.92 -2.7327 0.988536 0
M  V30 2047 H 185.467 -2.04744 1.56326 0
M  V30 2048 H 185.425 -3.13628 0.220209 0
M  V30 2049 N 189.197 -1.51736 -0.425897 0
M  V30 2050 C 190.107 -1.76738 -1.54275 0
M  V30 2051 C 191.123 -0.65211 -1.61318 0
M  V30 2052 O 192.299 -0.935654 -1.78346 0
M  V30 2053 C 189.364 -1.89755 -2.90162 0
M  V30 2054 C 188.425 -3.13633 -2.93143 0
M  V30 2055 C 187.658 -3.2602 -4.22548 0
M  V30 2056 O 187.881 -2.44067 -5.15546 0
M  V30 2057 O 186.815 -4.19071 -4.32046 0
M  V30 2058 H 190.641 -2.71502 -1.36089 0
M  V30 2059 H 188.226 -1.36376 -0.610069 0
M  V30 2060 H 190.108 -2.00236 -3.70788 0
M  V30 2061 H 188.783 -0.981785 -3.08452 0
M  V30 2062 H 187.69 -3.08622 -2.11431 0
M  V30 2063 H 189.023 -4.04936 -2.798 0
M  V30 2064 N 190.675 0.682077 -1.42076 0
M  V30 2065 C 192.086 1.26246 -1.37546 0
M  V30 2066 C 192.437 1.96092 -0.0651481 0
M  V30 2067 O 191.562 1.99587 0.836297 0
M  V30 2068 C 192.157 2.29594 -2.49143 0
M  V30 2069 C 190.716 2.83175 -2.47969 0
M  V30 2070 C 189.863 1.57395 -2.28303 0
M  V30 2071 H 192.814 0.475937 -1.51395 0
M  V30 2072 H 192.835 3.11175 -2.18976 0
M  V30 2073 H 192.347 1.78729 -3.44496 0
M  V30 2074 H 190.448 3.3818 -1.56413 0
M  V30 2075 H 190.561 3.32687 -3.44755 0
M  V30 2076 H 188.925 1.83699 -1.76428 0
M  V30 2077 H 189.708 1.08507 -3.25701 0
M  V30 2078 N 192.153 1.28127 0.917671 0
M  V30 2079 C 193.401 1.14825 1.66312 0
M  V30 2080 C 193.722 -0.304379 1.9261 0
M  V30 2081 O 192.992 -1.21149 1.53947 0
M  V30 2082 H 191.572 0.421953 0.616413 0
M  V30 2083 H 194.234 1.608 1.10134 0
M  V30 2084 H 193.33 1.68489 2.62712 0
M  V30 2085 N 193.631 -1.12557 1.10312 0
M  V30 2086 C 194.541 -2.21841 0.763142 0
M  V30 2087 C 195.557 -1.72354 -0.238801 0
M  V30 2088 O 196.733 -2.01249 -0.0778746 0
M  V30 2089 C 193.798 -3.46131 0.198632 0
M  V30 2090 C 192.859 -4.10464 1.25769 0
M  V30 2091 C 192.092 -5.28821 0.72002 0
M  V30 2092 O 192.315 -5.6859 -0.453993 0
M  V30 2093 O 191.249 -5.83437 1.47935 0
M  V30 2094 H 195.075 -2.53312 1.67532 0
M  V30 2095 H 192.66 -1.20867 0.878157 0
M  V30 2096 H 194.542 -4.2125 -0.112401 0
M  V30 2097 H 193.217 -3.16338 -0.686419 0
M  V30 2098 H 192.124 -3.3713 1.62156 0
M  V30 2099 H 193.457 -4.44408 2.11571 0
M  V30 2100 N 195.109 -0.891671 -1.2995 0
M  V30 2101 C 196.337 -0.52866 -2.00032 0
M  V30 2102 C 196.752 0.884574 -1.66795 0
M  V30 2103 O 196.109 1.5827 -0.908669 0
M  V30 2104 C 196.16 -0.701814 -3.54622 0
M  V30 2105 O 195.881 -2.05942 -3.86678 0
M  V30 2106 C 197.382 -0.342683 -4.41973 0
M  V30 2107 H 194.602 -0.203659 -0.639347 0
M  V30 2108 H 197.146 -1.19881 -1.65677 0
M  V30 2109 H 195.301 -0.0789468 -3.8732 0
M  V30 2110 H 195.715 -2.08291 -4.81368 0
M  V30 2111 H 197.189 -0.514709 -5.49595 0
M  V30 2112 H 197.666 0.71975 -4.33262 0
M  V30 2113 H 198.272 -0.942154 -4.14733 0
M  V30 2114 N 196.587 1.43421 -0.653314 0
M  V30 2115 C 197.815 2.06163 -0.174491 0
M  V30 2116 C 198.23 1.48969 1.1599 0
M  V30 2117 O 197.587 0.621042 1.71608 0
M  V30 2118 C 197.638 3.61417 -0.0774865 0
M  V30 2119 O 197.359 4.16485 -1.35912 0
M  V30 2120 C 198.86 4.41235 0.427402 0
M  V30 2121 H 196.08 0.664946 -0.0899353 0
M  V30 2122 H 198.624 1.83924 -0.893988 0
M  V30 2123 H 196.779 3.82841 0.59257 0
M  V30 2124 H 197.193 5.10153 -1.21839 0
M  V30 2125 H 198.667 5.5021 0.44423 0
M  V30 2126 H 199.144 4.14268 1.45873 0
M  V30 2127 H 199.75 4.2478 -0.210167 0
M  V30 2128 N 198.065 0.39524 1.52563 0
M  V30 2129 C 198.997 -0.472201 2.24283 0
M  V30 2130 C 200.01 -1.02178 1.26742 0
M  V30 2131 O 201.199 -0.923097 1.52778 0
M  V30 2132 C 198.299 -1.66775 2.95024 0
M  V30 2133 C 197.472 -1.2445 4.19322 0
M  V30 2134 C 196.531 -2.30539 4.7301 0
M  V30 2135 O 195.557 -1.91702 5.35947 0
M  V30 2136 N 196.759 -3.6253 4.53379 0
M  V30 2137 H 199.524 0.142282 2.99362 0
M  V30 2138 H 197.085 0.2219 1.60372 0
M  V30 2139 H 199.077 -2.37283 3.27839 0
M  V30 2140 H 197.647 -2.18845 2.23217 0
M  V30 2141 H 196.867 -0.368069 3.92478 0
M  V30 2142 H 198.155 -0.938457 5.0007 0
M  V30 2143 H 197.553 -3.96841 4.03154 0
M  V30 2144 H 196.11 -4.29055 4.90668 0
M  V30 2145 N 199.544 -1.57102 0.125237 0
M  V30 2146 C 200.793 -1.94582 -0.531095 0
M  V30 2147 C 201.106 -1.01126 -1.6743 0
M  V30 2148 O 202.312 -1.28097 -2.39381 0
M  V30 2149 C 200.768 -3.45839 -0.996164 0
M  V30 2150 C 200.376 -4.47842 0.118926 0
M  V30 2151 C 202.12 -3.92227 -1.62352 0
M  V30 2152 C 200.027 -5.90284 -0.363192 0
M  V30 2153 H 198.957 -0.726391 -0.20217 0
M  V30 2154 H 201.608 -1.82339 0.206092 0
M  V30 2155 H 199.99 -3.53338 -1.78796 0
M  V30 2156 H 201.164 -4.52018 0.895358 0
M  V30 2157 H 199.479 -4.11243 0.653324 0
M  V30 2158 H 202.076 -4.96069 -1.99548 0
M  V30 2159 H 202.419 -3.32552 -2.50429 0
M  V30 2160 H 202.952 -3.87554 -0.897019 0
M  V30 2161 H 199.691 -6.53728 0.481679 0
M  V30 2162 H 199.211 -5.89515 -1.10597 0
M  V30 2163 H 200.89 -6.41752 -0.822377 0
M  V30 2164 N 201.022 0.148545 -1.56898 0
M  V30 2165 C 202.25 0.876389 -1.87422 0
M  V30 2166 C 202.665 1.74809 -0.713256 0
M  V30 2167 O 202.022 1.79725 0.317025 0
M  V30 2168 C 202.073 1.73438 -3.17178 0
M  V30 2169 O 201.794 0.897809 -4.28802 0
M  V30 2170 C 203.295 2.56993 -3.61205 0
M  V30 2171 H 200.515 0.253489 -0.621277 0
M  V30 2172 H 203.059 0.141798 -2.04008 0
M  V30 2173 H 201.214 2.42205 -3.0235 0
M  V30 2174 H 201.628 1.48672 -5.02988 0
M  V30 2175 H 203.102 3.12773 -4.54838 0
M  V30 2176 H 203.579 3.32958 -2.86419 0
M  V30 2177 H 204.185 1.9352 -3.78722 0
M  V30 2178 N 202.5 1.5196 0.417844 0
M  V30 2179 C 203.73 1.69181 1.18581 0
M  V30 2180 C 204.138 0.397104 1.84986 0
M  V30 2181 O 203.481 -0.636011 1.72339 0
M  V30 2182 C 203.543 2.76497 2.29759 0
M  V30 2183 C 203.207 4.18514 1.83563 0
M  V30 2184 C 204.204 5.02648 1.32821 0
M  V30 2185 C 201.889 4.64708 1.90661 0
M  V30 2186 C 203.883 6.31044 0.897894 0
M  V30 2187 C 201.57 5.93096 1.47241 0
M  V30 2188 C 202.568 6.76093 0.968891 0
M  V30 2189 O 202.256 8.02078 0.540924 0
M  V30 2190 H 201.988 0.570457 0.362705 0
M  V30 2191 H 204.542 1.99249 0.498885 0
M  V30 2192 H 202.772 2.41786 3.01789 0
M  V30 2193 H 204.461 2.82403 2.91553 0
M  V30 2194 H 205.227 4.68154 1.26716 0
M  V30 2195 H 201.106 4.00216 2.28797 0
M  V30 2196 H 204.65 6.95776 0.504192 0
M  V30 2197 H 200.547 6.271 1.53022 0
M  V30 2198 H 201.315 8.15794 0.66502 0
M  V30 2199 N 203.978 -0.674533 1.42435 0
M  V30 2200 C 204.928 -1.7807 1.4239 0
M  V30 2201 C 205.912 -1.58169 0.295202 0
M  V30 2202 O 207.104 -1.68643 0.537449 0
M  V30 2203 C 204.233 -3.16532 1.32901 0
M  V30 2204 C 203.319 -3.42055 2.50717 0
M  V30 2205 N 203.71 -3.38162 3.76139 0
M  V30 2206 C 202.008 -3.72692 2.44983 0
M  V30 2207 C 202.709 -3.63177 4.54398 0
M  V30 2208 N 201.685 -3.83954 3.84812 0
M  V30 2209 H 205.487 -1.73454 2.37257 0
M  V30 2210 H 203.001 -0.875381 1.36788 0
M  V30 2211 H 204.998 -3.958 1.30951 0
M  V30 2212 H 203.658 -3.22345 0.390363 0
M  V30 2213 H 204.669 -3.18057 4.0873 0
M  V30 2214 H 201.346 -3.85749 1.59699 0
M  V30 2215 H 202.736 -3.66125 5.63384 0
M  V30 2216 N 205.456 -1.28612 -0.910864 0
M  V30 2217 C 206.388 -1.08589 -2.01844 0
M  V30 2218 C 207.401 -0.0367419 -1.62759 0
M  V30 2219 O 208.59 -0.280101 -1.76289 0
M  V30 2220 C 205.69 -0.628626 -3.33019 0
M  V30 2221 C 204.863 -1.75382 -4.00699 0
M  V30 2222 C 203.922 -1.28945 -5.10156 0
M  V30 2223 O 202.948 -1.9922 -5.33198 0
M  V30 2224 N 204.15 -0.154224 -5.80295 0
M  V30 2225 H 206.915 -2.03973 -2.19579 0
M  V30 2226 H 204.476 -1.20403 -1.08234 0
M  V30 2227 H 206.468 -0.301508 -4.03575 0
M  V30 2228 H 205.038 0.232451 -3.11735 0
M  V30 2229 H 204.258 -2.25039 -3.23653 0
M  V30 2230 H 205.546 -2.50854 -4.42662 0
M  V30 2231 H 204.944 0.43194 -5.64049 0
M  V30 2232 H 203.501 0.113599 -6.51701 0
M  V30 2233 N 206.934 1.1197 -1.10907 0
M  V30 2234 C 207.864 2.19928 -0.784473 0
M  V30 2235 C 208.845 1.6833 0.244726 0
M  V30 2236 O 210.03 1.93892 0.109418 0
M  V30 2237 C 207.16 3.46597 -0.220827 0
M  V30 2238 C 206.114 4.11376 -1.18127 0
M  V30 2239 C 205.44 5.32554 -0.478594 0
M  V30 2240 C 206.74 4.56945 -2.52979 0
M  V30 2241 H 208.434 2.47337 -1.68715 0
M  V30 2242 H 205.98 1.18879 -0.812642 0
M  V30 2243 H 207.933 4.21396 0.0184278 0
M  V30 2244 H 206.657 3.1863 0.717113 0
M  V30 2245 H 205.316 3.38564 -1.40606 0
M  V30 2246 H 204.964 5.00856 0.463976 0
M  V30 2247 H 204.664 5.76844 -1.11912 0
M  V30 2248 H 206.188 6.10096 -0.248 0
M  V30 2249 H 207.602 5.23093 -2.3462 0
M  V30 2250 H 205.999 5.1203 -3.12962 0
M  V30 2251 H 207.069 3.70676 -3.12614 0
M  V30 2252 N 208.412 0.89855 1.29475 0
M  V30 2253 C 209.342 0.39201 2.30186 0
M  V30 2254 C 210.323 -0.532359 1.61555 0
M  V30 2255 O 211.508 -0.443331 1.89072 0
M  V30 2256 C 208.638 -0.382353 3.45189 0
M  V30 2257 C 207.592 0.451483 4.25612 0
M  V30 2258 C 206.918 -0.450307 5.328 0
M  V30 2259 C 208.218 1.70079 4.93832 0
M  V30 2260 H 209.912 1.23362 2.72804 0
M  V30 2261 H 207.458 0.594638 1.31149 0
M  V30 2262 H 209.411 -0.747451 4.14718 0
M  V30 2263 H 208.135 -1.25774 3.01411 0
M  V30 2264 H 206.794 0.798897 3.57789 0
M  V30 2265 H 206.442 -1.32379 4.85268 0
M  V30 2266 H 206.142 0.103902 5.87508 0
M  V30 2267 H 207.666 -0.811623 6.05182 0
M  V30 2268 H 209.08 1.40549 5.55805 0
M  V30 2269 H 207.477 2.19623 5.58467 0
M  V30 2270 H 208.547 2.43744 4.19186 0
M  V30 2271 N 209.89 -1.43072 0.660911 0
M  V30 2272 C 211.136 -2.0202 0.177708 0
M  V30 2273 C 211.469 -1.52066 -1.20787 0
M  V30 2274 O 210.744 -0.716987 -1.80802 0
M  V30 2275 C 211.027 -3.59561 0.197019 0
M  V30 2276 C 210.88 -4.19727 1.61706 0
M  V30 2277 C 212.199 -4.37664 -0.462396 0
M  V30 2278 H 209.318 -0.734034 0.0660494 0
M  V30 2279 H 211.96 -1.70272 0.843058 0
M  V30 2280 H 210.11 -3.86739 -0.369527 0
M  V30 2281 H 211.782 -4.03553 2.23479 0
M  V30 2282 H 210.025 -3.76084 2.16201 0
M  V30 2283 H 210.696 -5.28834 1.58237 0
M  V30 2284 H 213.172 -4.16095 0.0197215 0
M  V30 2285 H 212.048 -5.47305 -0.418188 0
M  V30 2286 H 212.309 -4.14493 -1.53778 0
M  V30 2287 N 211.368 -0.403325 -1.52352 0
M  V30 2288 C 212.3 0.4603 -2.2453 0
M  V30 2289 C 213.313 1.01505 -1.27282 0
M  V30 2290 O 214.502 0.914982 -1.53266 0
M  V30 2291 C 211.602 1.65208 -2.95905 0
M  V30 2292 C 210.775 1.22224 -4.19976 0
M  V30 2293 C 209.834 2.28028 -4.74226 0
M  V30 2294 O 208.86 1.88857 -5.36956 0
M  V30 2295 N 210.062 3.6012 -4.55295 0
M  V30 2296 H 212.827 -0.158156 -2.99282 0
M  V30 2297 H 210.388 -0.230402 -1.60252 0
M  V30 2298 H 212.38 2.35541 -3.29093 0
M  V30 2299 H 210.95 2.17658 -2.24374 0
M  V30 2300 H 210.17 0.34725 -3.92668 0
M  V30 2301 H 211.458 0.911924 -5.00561 0
M  V30 2302 H 210.856 3.94698 -4.05253 0
M  V30 2303 H 209.413 4.26447 -4.92936 0
M  V30 2304 N 212.846 1.57033 -0.133567 0
M  V30 2305 C 214.092 1.95976 0.521649 0
M  V30 2306 C 214.425 1.01779 1.65393 0
M  V30 2307 O 213.7 0.0576581 1.94415 0
M  V30 2308 C 213.983 3.44738 1.04057 0
M  V30 2309 C 213.836 4.49711 -0.0892897 0
M  V30 2310 C 215.155 3.95682 1.92675 0
M  V30 2311 H 212.274 0.712579 0.188149 0
M  V30 2312 H 214.916 1.88813 -0.212076 0
M  V30 2313 H 213.066 3.50973 1.66583 0
M  V30 2314 H 214.738 4.55565 -0.725152 0
M  V30 2315 H 212.981 4.27261 -0.750378 0
M  V30 2316 H 213.652 5.51099 0.315284 0
M  V30 2317 H 216.128 3.91841 1.39998 0
M  V30 2318 H 215.004 5.00262 2.25897 0
M  V30 2319 H 215.265 3.37239 2.85872 0
M  V30 2320 N 214.325 -0.140222 1.56975 0
M  V30 2321 C 215.565 -0.857823 1.85528 0
M  V30 2322 C 215.929 -1.78039 0.718768 0
M  V30 2323 O 217.13 -2.53795 0.885521 0
M  V30 2324 C 215.401 -1.60615 3.19277 0
M  V30 2325 S 216.96 -2.36824 3.69405 0
M  V30 2326 H 213.778 -0.286727 0.650622 0
M  V30 2327 H 216.38 -0.117408 1.95147 0
M  V30 2328 H 215.084 -0.919994 3.99955 0
M  V30 2329 H 214.615 -2.38735 3.12681 0
M  V30 2330 H 216.63 -3.62148 3.3921 0
M  V30 2331 N 215.803 -1.52179 -0.40978 0
M  V30 2332 C 216.735 -1.71703 -1.51825 0
M  V30 2333 C 217.748 -0.597445 -1.51441 0
M  V30 2334 O 218.937 -0.872582 -1.55719 0
M  V30 2335 C 216.037 -1.74171 -2.90719 0
M  V30 2336 C 215.21 -3.03156 -3.15302 0
M  V30 2337 C 214.269 -2.97445 -4.34065 0
M  V30 2338 O 213.295 -3.71352 -4.31377 0
M  V30 2339 N 214.497 -2.15191 -5.39141 0
M  V30 2340 H 217.262 -2.67334 -1.35472 0
M  V30 2341 H 214.823 -1.50409 -0.599069 0
M  V30 2342 H 216.815 -1.67884 -3.68235 0
M  V30 2343 H 215.385 -0.860166 -3.00533 0
M  V30 2344 H 214.605 -3.23097 -2.25836 0
M  V30 2345 H 215.893 -3.88484 -3.28569 0
M  V30 2346 H 215.291 -1.54573 -5.44173 0
M  V30 2347 H 213.848 -2.1476 -6.15403 0
M  V30 2348 N 217.281 0.66697 -1.42791 0
M  V30 2349 C 218.528 1.42699 -1.43678 0
M  V30 2350 C 218.856 1.94419 -0.0560425 0
M  V30 2351 O 218.111 1.7182 0.936831 0
M  V30 2352 C 218.41 2.6349 -2.4147 0
M  V30 2353 C 218.076 2.30267 -3.8767 0
M  V30 2354 C 216.738 2.20918 -4.27491 0
M  V30 2355 C 219.09 2.03435 -4.79858 0
M  V30 2356 C 216.418 1.82873 -5.57471 0
M  V30 2357 C 218.77 1.66892 -6.10188 0
M  V30 2358 C 217.434 1.56058 -6.49001 0
M  V30 2359 H 216.704 0.522171 -0.525755 0
M  V30 2360 H 219.351 0.759785 -1.75783 0
M  V30 2361 H 217.656 3.35279 -2.0272 0
M  V30 2362 H 219.353 3.21684 -2.39417 0
M  V30 2363 H 215.943 2.38449 -3.56146 0
M  V30 2364 H 220.127 2.09586 -4.49875 0
M  V30 2365 H 215.383 1.7306 -5.86396 0
M  V30 2366 H 219.557 1.45157 -6.81104 0
M  V30 2367 H 217.184 1.26348 -7.49627 0
M  V30 2368 N 218.759 1.29093 0.90403 0
M  V30 2369 C 219.984 1.19809 1.69294 0
M  V30 2370 C 220.409 -0.238481 1.86582 0
M  V30 2371 O 219.767 -1.1723 1.383 0
M  V30 2372 C 219.815 1.91202 3.05736 0
M  V30 2373 O 218.919 1.22611 3.93752 0
M  V30 2374 H 218.26 0.415385 0.518027 0
M  V30 2375 H 220.79 1.70586 1.12967 0
M  V30 2376 H 220.8 1.99487 3.55906 0
M  V30 2377 H 219.475 2.95692 2.92471 0
M  V30 2378 H 218.052 1.22554 3.52186 0
M  V30 2379 N 220.237 -1.11381 1.11499 0
M  V30 2380 C 221.185 -2.19522 0.768956 0
M  V30 2381 C 222.179 -1.67693 -0.239857 0
M  V30 2382 O 223.385 -1.79727 -0.0990755 0
M  V30 2383 H 219.76 -0.715711 0.230786 0
M  V30 2384 H 221.731 -2.45954 1.68964 0
M  V30 2385 C 220.48 -3.46945 0.229073 0
M  V30 2386 H 219.803 -3.8718 0.996596 0
M  V30 2387 H 221.243 -4.23993 0.0251441 0
M  V30 2388 C 219.702 -3.2042 -1.04079 0
M  V30 2389 O 220.232 -3.41178 -2.12038 0
M  V30 2390 N 218.438 -2.74151 -0.963823 0
M  V30 2391 H 217.985 -2.57459 -0.0851722 0
M  V30 2392 H 217.943 -2.56781 -1.81414 0
M  V30 2393 N 221.715 -0.905404 -1.28997 0
M  V30 2394 C 222.961 -0.535039 -1.95615 0
M  V30 2395 C 223.294 0.917404 -1.71165 0
M  V30 2396 O 222.569 1.65123 -1.02785 0
M  V30 2397 C 222.852 -0.834918 -3.50287 0
M  V30 2398 C 222.705 -2.33948 -3.84172 0
M  V30 2399 C 224.024 -0.325318 -4.38896 0
M  V30 2400 H 221.143 -0.195861 -0.710498 0
M  V30 2401 H 223.785 -1.13313 -1.52513 0
M  V30 2402 H 221.935 -0.325904 -3.87131 0
M  V30 2403 H 223.607 -2.91847 -3.57243 0
M  V30 2404 H 221.85 -2.79789 -3.31513 0
M  V30 2405 H 222.521 -2.49987 -4.92149 0
M  V30 2406 H 224.997 -0.761256 -4.09077 0
M  V30 2407 H 223.873 -0.564295 -5.45992 0
M  V30 2408 H 224.134 0.774144 -4.35269 0
M  V30 2409 N 223.193 1.4272 -0.668489 0
M  V30 2410 C 224.123 2.335 -0.000100175 0
M  V30 2411 C 225.104 1.50328 0.795964 0
M  V30 2412 O 226.289 1.78949 0.754385 0
M  V30 2413 C 223.419 3.33874 0.956302 0
M  V30 2414 C 222.373 4.27152 0.269278 0
M  V30 2415 C 221.699 5.17684 1.33818 0
M  V30 2416 C 222.999 5.15373 -0.847805 0
M  V30 2417 H 224.693 2.89639 -0.758244 0
M  V30 2418 H 222.239 1.39269 -0.366079 0
M  V30 2419 H 224.192 3.9629 1.43292 0
M  V30 2420 H 222.916 2.76025 1.74579 0
M  V30 2421 H 221.575 3.66123 -0.187042 0
M  V30 2422 H 221.223 4.56165 2.1195 0
M  V30 2423 H 220.923 5.80918 0.883659 0
M  V30 2424 H 222.447 5.82974 1.81586 0
M  V30 2425 H 223.861 5.7151 -0.452681 0
M  V30 2426 H 222.258 5.87407 -1.22773 0
M  V30 2427 H 223.328 4.5415 -1.69929 0
M  V30 2428 N 224.671 0.411399 1.52136 0
M  V30 2429 C 226.087 0.0623865 1.59478 0
M  V30 2430 C 226.287 -1.42554 1.4241 0
M  V30 2431 O 225.343 -2.19263 1.2522 0
M  V30 2432 C 226.656 0.559331 2.95452 0
M  V30 2433 C 228.204 0.517503 3.08692 0
M  V30 2434 C 228.679 0.990994 4.4715 0
M  V30 2435 N 230.17 0.947908 4.53397 0
M  V30 2436 C 230.905 1.28544 5.58806 0
M  V30 2437 N 230.401 1.69454 6.71757 0
M  V30 2438 N 232.194 1.20526 5.49026 0
M  V30 2439 H 224.345 1.37982 1.61477 0
M  V30 2440 H 226.608 0.566977 0.759764 0
M  V30 2441 H 226.314 1.59938 3.1323 0
M  V30 2442 H 226.188 -0.0298014 3.77188 0
M  V30 2443 H 228.575 -0.513505 2.90598 0
M  V30 2444 H 228.656 1.14272 2.28857 0
M  V30 2445 H 228.3 2.02034 4.65988 0
M  V30 2446 H 228.23 0.34257 5.25485 0
M  V30 2447 H 230.721 0.647157 3.72317 0
M  V30 2448 H 231.034 1.93513 7.48179 0
M  V30 2449 H 229.379 1.73359 6.73032 0
M  V30 2450 H 232.57 0.884505 4.59667 0
M  V30 2451 H 232.743 1.47161 6.31069 0
M  V30 2452 N 226.149 -1.5696 0.141893 0
M  V30 2453 C 227.096 -2.16501 -0.799737 0
M  V30 2454 C 228.066 -1.09643 -1.24771 0
M  V30 2455 O 229.251 -1.3766 -1.32115 0
M  V30 2456 C 226.391 -2.78679 -2.03549 0
M  V30 2457 C 225.504 -3.99914 -1.6338 0
M  V30 2458 C 224.639 -4.50106 -2.82096 0
M  V30 2459 C 223.678 -5.63819 -2.38275 0
M  V30 2460 N 222.815 -6.08651 -3.49983 0
M  V30 2461 H 227.655 -2.96632 -0.285179 0
M  V30 2462 H 225.192 -1.46533 -0.129053 0
M  V30 2463 H 227.15 -3.1287 -2.75986 0
M  V30 2464 H 225.78 -2.012 -2.52425 0
M  V30 2465 H 224.832 -3.71735 -0.807279 0
M  V30 2466 H 226.144 -4.82311 -1.27192 0
M  V30 2467 H 225.298 -4.86325 -3.62729 0
M  V30 2468 H 224.037 -3.66706 -3.21525 0
M  V30 2469 H 223.042 -5.2718 -1.56081 0
M  V30 2470 H 224.267 -6.49 -1.99938 0
M  V30 2471 H 222.213 -5.28188 -3.89042 0
M  V30 2472 H 222.13 -6.85961 -3.17794 0
M  V30 2473 H 223.398 -6.49515 -4.30988 0
M  V30 2474 N 227.627 0.131896 -1.57047 0
M  V30 2475 C 228.559 1.1878 -1.9602 0
M  V30 2476 C 229.572 1.38363 -0.857875 0
M  V30 2477 O 230.761 1.37666 -1.13623 0
M  V30 2478 C 227.861 2.55008 -2.23213 0
M  V30 2479 C 227.034 2.56201 -3.54513 0
M  V30 2480 C 226.093 3.7408 -3.70069 0
M  V30 2481 O 225.119 3.58258 -4.42312 0
M  V30 2482 N 226.321 4.92137 -3.07866 0
M  V30 2483 H 229.086 0.85639 -2.87204 0
M  V30 2484 H 226.647 0.321309 -1.5868 0
M  V30 2485 H 228.639 3.32404 -2.30846 0
M  V30 2486 H 227.209 2.80382 -1.3822 0
M  V30 2487 H 226.429 1.64613 -3.58185 0
M  V30 2488 H 227.717 2.54043 -4.4084 0
M  V30 2489 H 227.115 5.07895 -2.49116 0
M  V30 2490 H 225.672 5.67254 -3.21039 0
M  V30 2491 N 229.106 1.52395 0.401703 0
M  V30 2492 C 230.354 1.66488 1.14569 0
M  V30 2493 C 230.675 0.400897 1.90835 0
M  V30 2494 O 229.945 -0.584415 1.8698 0
M  V30 2495 H 228.525 0.613672 0.425929 0
M  V30 2496 H 231.187 1.89464 0.457093 0
M  V30 2497 H 230.283 2.50942 1.85566 0
M  V30 2498 N 230.584 -0.659388 1.43143 0
M  V30 2499 C 231.833 -1.41518 1.43721 0
M  V30 2500 C 232.146 -1.95499 0.0628176 0
M  V30 2501 O 233.352 -2.71446 -0.0539683 0
M  V30 2502 C 231.808 -2.5608 2.52885 0
M  V30 2503 C 231.416 -2.08733 3.96402 0
M  V30 2504 C 233.16 -3.3349 2.62649 0
M  V30 2505 C 231.067 -3.20469 4.97045 0
M  V30 2506 H 229.997 -0.531705 0.534608 0
M  V30 2507 H 232.648 -0.712343 1.69109 0
M  V30 2508 H 231.03 -3.28805 2.20688 0
M  V30 2509 H 232.204 -1.43059 4.3803 0
M  V30 2510 H 230.519 -1.44219 3.90627 0
M  V30 2511 H 233.116 -4.16734 3.35017 0
M  V30 2512 H 233.459 -3.8111 1.67513 0
M  V30 2513 H 233.992 -2.67842 2.94118 0
M  V30 2514 H 230.731 -2.77824 5.93712 0
M  V30 2515 H 230.251 -3.84874 4.60034 0
M  V30 2516 H 231.93 -3.85698 5.19467 0
M  V30 2517 N 232.062 -1.29571 -0.897171 0
M  V30 2518 C 232.994 -1.10724 -2.00681 0
M  V30 2519 C 234.007 -0.0540026 -1.6271 0
M  V30 2520 O 235.196 -0.298783 -1.75982 0
M  V30 2521 C 232.296 -0.663912 -3.32333 0
M  V30 2522 C 231.469 -1.79622 -3.98816 0
M  V30 2523 C 230.528 -1.34349 -5.0876 0
M  V30 2524 O 229.554 -2.04864 -5.31055 0
M  V30 2525 N 230.756 -0.215764 -5.80099 0
M  V30 2526 H 233.521 -2.06291 -2.17403 0
M  V30 2527 H 231.082 -1.21544 -1.06951 0
M  V30 2528 H 233.074 -0.344295 -4.03233 0
M  V30 2529 H 231.644 0.199375 -3.11964 0
M  V30 2530 H 230.864 -2.28459 -3.21248 0
M  V30 2531 H 232.152 -2.55535 -4.39976 0
M  V30 2532 H 231.55 0.372091 -5.64475 0
M  V30 2533 H 230.107 0.0444707 -6.51785 0
M  V30 2534 N 233.54 1.10788 -1.12088 0
M  V30 2535 C 234.487 2.17025 -0.785407 0
M  V30 2536 C 235.457 1.64265 0.246191 0
M  V30 2537 O 236.642 1.90412 0.121584 0
M  V30 2538 C 233.782 3.44249 -0.242177 0
M  V30 2539 C 232.895 4.1098 -1.33115 0
M  V30 2540 C 232.03 5.25911 -0.747741 0
M  V30 2541 C 231.069 5.84538 -1.81609 0
M  V30 2542 N 230.206 6.90853 -1.25167 0
M  V30 2543 H 235.046 2.45066 -1.69548 0
M  V30 2544 H 232.583 1.20297 -0.846582 0
M  V30 2545 H 234.541 4.17101 0.0908026 0
M  V30 2546 H 233.171 3.16571 0.631072 0
M  V30 2547 H 232.223 3.36133 -1.78097 0
M  V30 2548 H 233.535 4.50601 -2.13917 0
M  V30 2549 H 232.689 6.056 -0.365216 0
M  V30 2550 H 231.428 4.87614 0.0915188 0
M  V30 2551 H 230.433 5.03522 -2.20785 0
M  V30 2552 H 231.658 6.249 -2.6585 0
M  V30 2553 H 229.604 6.54562 -0.434174 0
M  V30 2554 H 229.521 7.29166 -1.99633 0
M  V30 2555 H 230.789 7.7433 -0.896259 0
M  V30 2556 N 235.018 0.912232 1.28515 0
M  V30 2557 C 236.266 0.543523 1.94654 0
M  V30 2558 C 236.587 -0.9155 1.72173 0
M  V30 2559 O 235.857 -1.64708 1.06058 0
M  V30 2560 H 234.437 0.198017 0.720277 0
M  V30 2561 H 237.099 1.16126 1.56527 0
M  V30 2562 H 236.195 0.736684 3.03281 0
M  V30 2563 N 236.496 -1.42363 0.676048 0
M  V30 2564 C 237.773 -1.95183 0.127726 0
M  V30 2565 C 238.153 -1.61641 -1.35777 0
M  V30 2566 O 237.501 -0.913216 -2.09458 0
M  V30 2567 C 237.711 -3.46721 0.398199 0
M  V30 2568 C 239.059 -4.23427 0.315383 0
M  V30 2569 O 240.083 -3.54649 0.332016 0
M  V30 2570 O 238.942 -5.45888 0.25865 0
M  V30 2571 H 236.036 -0.826992 0.00359427 0
M  V30 2572 H 238.582 -1.52184 0.750864 0
M  V30 2573 H 237.354 -3.64344 1.4272 0
M  V30 2574 H 236.977 -3.96769 -0.256885 0
M  V30 2575 N 237.974 -0.419461 -1.51915 0
M  V30 2576 C 239.39 -0.0708431 -1.59443 0
M  V30 2577 C 239.59 1.41796 -1.43164 0
M  V30 2578 O 238.646 2.18596 -1.26381 0
M  V30 2579 C 239.959 -0.574991 -2.95151 0
M  V30 2580 C 241.507 -0.533867 -3.08413 0
M  V30 2581 C 241.982 -1.01469 -4.46618 0
M  V30 2582 N 243.473 -0.971939 -4.52888 0
M  V30 2583 C 244.208 -1.31505 -5.58116 0
M  V30 2584 N 243.704 -1.73014 -6.70849 0
M  V30 2585 N 245.497 -1.23436 -5.48379 0
M  V30 2586 H 237.648 -1.38836 -1.60743 0
M  V30 2587 H 239.911 -0.570998 -0.756747 0
M  V30 2588 H 239.617 -1.61597 -3.12377 0
M  V30 2589 H 239.491 0.00979777 -3.77199 0
M  V30 2590 H 241.878 0.498086 -2.90866 0
M  V30 2591 H 241.959 -1.15484 -2.28248 0
M  V30 2592 H 241.603 -2.04502 -4.6491 0
M  V30 2593 H 241.533 -0.370433 -5.25295 0
M  V30 2594 H 244.024 -0.666893 -3.71969 0
M  V30 2595 H 244.337 -1.97479 -7.47143 0
M  V30 2596 H 242.682 -1.76926 -6.72103 0
M  V30 2597 H 245.873 -0.908869 -4.59192 0
M  V30 2598 H 246.046 -1.50506 -6.30279 0
M  V30 2599 N 239.452 1.56882 -0.150215 0
M  V30 2600 C 240.698 1.96518 0.500834 0
M  V30 2601 C 241.031 1.03527 1.64304 0
M  V30 2602 O 240.306 0.0782751 1.94342 0
M  V30 2603 C 240.589 3.45822 1.00395 0
M  V30 2604 C 240.442 4.49591 -0.136983 0
M  V30 2605 C 241.761 3.97704 1.88467 0
M  V30 2606 H 238.88 0.714535 0.18058 0
M  V30 2607 H 241.522 1.88577 -0.232091 0
M  V30 2608 H 239.672 3.5272 1.62851 0
M  V30 2609 H 241.344 4.5477 -0.77343 0
M  V30 2610 H 239.587 4.26441 -0.795652 0
M  V30 2611 H 240.258 5.51402 0.256815 0
M  V30 2612 H 242.734 3.93304 1.35834 0
M  V30 2613 H 241.61 5.0263 2.20578 0
M  V30 2614 H 241.871 3.40252 2.82279 0
M  V30 2615 N 240.93 -0.123565 1.57115 0
M  V30 2616 C 241.893 -1.13583 1.99076 0
M  V30 2617 C 242.893 -1.34564 0.880296 0
M  V30 2618 O 244.083 -1.31158 1.14644 0
M  V30 2619 C 241.215 -2.49128 2.32698 0
M  V30 2620 H 242.408 -0.775287 2.89706 0
M  V30 2621 H 239.961 -0.36771 1.51913 0
M  V30 2622 H 240.696 -2.90111 1.44934 0
M  V30 2623 H 240.481 -2.35255 3.13684 0
M  V30 2624 H 241.971 -3.2199 2.65918 0
M  V30 2625 N 242.408 -1.52605 -0.393616 0
M  V30 2626 C 243.657 -1.66649 -1.13627 0
M  V30 2627 C 243.97 -0.410364 -1.91247 0
M  V30 2628 O 245.176 -0.430854 -2.68059 0
M  V30 2629 C 243.632 -2.9449 -2.06891 0
M  V30 2630 C 243.24 -4.27266 -1.34714 0
M  V30 2631 C 244.984 -3.17899 -2.81319 0
M  V30 2632 C 242.891 -5.46217 -2.26717 0
M  V30 2633 H 241.821 -0.62084 -0.427871 0
M  V30 2634 H 244.472 -1.791 -0.399428 0
M  V30 2635 H 242.854 -2.75774 -2.84191 0
M  V30 2636 H 244.028 -4.56518 -0.626714 0
M  V30 2637 H 242.343 -4.10081 -0.722643 0
M  V30 2638 H 244.94 -4.03949 -3.50328 0
M  V30 2639 H 245.283 -2.32777 -3.45139 0
M  V30 2640 H 245.816 -3.37159 -2.11113 0
M  V30 2641 H 242.555 -6.33733 -1.67521 0
M  V30 2642 H 242.075 -5.21283 -2.96689 0
M  V30 2643 H 243.754 -5.7991 -2.86903 0
M  V30 2644 N 243.887 0.651787 -1.4349 0
M  V30 2645 C 245.117 1.43728 -1.48411 0
M  V30 2646 C 245.525 1.8893 -0.10103 0
M  V30 2647 O 244.868 1.60182 0.899307 0
M  V30 2648 C 244.93 2.70411 -2.36893 0
M  V30 2649 C 244.594 2.4714 -3.8441 0
M  V30 2650 C 245.591 2.10271 -4.75481 0
M  V30 2651 C 243.276 2.6142 -4.28912 0
M  V30 2652 C 245.27 1.87982 -6.0905 0
M  V30 2653 C 242.957 2.38746 -5.62533 0
M  V30 2654 C 243.955 2.02083 -6.5242 0
M  V30 2655 O 243.643 1.79647 -7.8357 0
M  V30 2656 H 243.375 0.447962 -0.506267 0
M  V30 2657 H 245.929 0.80624 -1.88915 0
M  V30 2658 H 244.159 3.36079 -1.91278 0
M  V30 2659 H 245.848 3.32364 -2.33 0
M  V30 2660 H 246.614 1.98814 -4.42378 0
M  V30 2661 H 242.493 2.88931 -3.59222 0
M  V30 2662 H 246.037 1.5929 -6.7917 0
M  V30 2663 H 241.934 2.49806 -5.95203 0
M  V30 2664 H 242.702 1.9406 -7.95162 0
M  V30 2665 N 245.365 1.30045 0.890287 0
M  V30 2666 C 246.298 1.10301 1.99772 0
M  V30 2667 C 247.276 0.0121631 1.62595 0
M  V30 2668 O 248.46 0.16469 1.87779 0
M  V30 2669 C 245.587 0.681125 3.31781 0
M  V30 2670 C 244.633 1.77206 3.87944 0
M  V30 2671 S 245.466 3.37335 4.15891 0
M  V30 2672 C 246.622 2.97036 5.50927 0
M  V30 2673 H 246.855 2.04057 2.16213 0
M  V30 2674 H 244.388 1.14299 1.03804 0
M  V30 2675 H 246.346 0.444439 4.08087 0
M  V30 2676 H 245.007 -0.236981 3.13205 0
M  V30 2677 H 244.2 1.42903 4.83316 0
M  V30 2678 H 243.802 1.96275 3.18358 0
M  V30 2679 H 246.094 2.44666 6.31779 0
M  V30 2680 H 247.037 3.91296 5.90164 0
M  V30 2681 H 247.445 2.35057 5.13233 0
M  V30 2682 N 246.843 -1.10192 1.12674 0
M  V30 2683 C 248.254 -1.63707 0.897604 0
M  V30 2684 C 248.605 -1.87812 -0.567546 0
M  V30 2685 O 247.73 -1.62196 -1.43253 0
M  V30 2686 C 248.325 -2.974 1.62292 0
M  V30 2687 C 246.884 -3.47772 1.43986 0
M  V30 2688 C 246.031 -2.22332 1.65722 0
M  V30 2689 H 248.982 -0.936587 1.28116 0
M  V30 2690 H 249.003 -3.64986 1.07541 0
M  V30 2691 H 248.515 -2.79824 2.68924 0
M  V30 2692 H 246.616 -3.70487 0.396206 0
M  V30 2693 H 246.729 -4.25723 2.19765 0
M  V30 2694 H 245.093 -2.30599 1.08149 0
M  V30 2695 H 245.876 -2.07285 2.73657 0
M  V30 2696 N 248.321 -0.919034 -1.28029 0
M  V30 2697 C 249.254 -0.355887 -2.25408 0
M  V30 2698 C 250.232 0.542874 -1.5327 0
M  V30 2699 O 251.416 0.485338 -1.82145 0
M  V30 2700 C 248.543 0.490759 -3.35126 0
M  V30 2701 C 247.589 -0.343358 -4.25116 0
M  V30 2702 S 248.422 -1.75344 -5.05979 0
M  V30 2703 C 249.578 -0.914244 -6.19187 0
M  V30 2704 H 249.811 -1.18123 -2.72826 0
M  V30 2705 H 247.344 -0.720636 -1.36551 0
M  V30 2706 H 249.302 0.973404 -3.98792 0
M  V30 2707 H 247.963 1.29054 -2.86363 0
M  V30 2708 H 247.156 0.304266 -5.03081 0
M  V30 2709 H 246.758 -0.759851 -3.662 0
M  V30 2710 H 249.05 -0.146282 -6.77342 0
M  V30 2711 H 249.993 -1.66661 -6.88208 0
M  V30 2712 H 250.401 -0.460082 -5.62622 0
M  V30 2713 N 249.799 1.42003 -0.683588 0
M  V30 2714 C 251.048 2.00638 -0.206681 0
M  V30 2715 C 251.361 1.5472 1.19671 0
M  V30 2716 O 252.567 2.05833 1.77045 0
M  V30 2717 C 251.023 3.58487 -0.318632 0
M  V30 2718 C 250.631 4.1339 -1.72663 0
M  V30 2719 C 252.375 4.24384 0.0991141 0
M  V30 2720 C 250.282 5.63633 -1.79087 0
M  V30 2721 H 249.212 0.750408 -0.0735107 0
M  V30 2722 H 251.863 1.62624 -0.850048 0
M  V30 2723 H 250.245 3.94047 0.392781 0
M  V30 2724 H 251.419 3.89273 -2.46583 0
M  V30 2725 H 249.734 3.59976 -2.09299 0
M  V30 2726 H 252.331 5.34652 0.0713833 0
M  V30 2727 H 252.674 4.00505 1.13586 0
M  V30 2728 H 253.207 3.93816 -0.561599 0
M  V30 2729 H 249.946 5.92323 -2.80774 0
M  V30 2730 H 249.466 5.89714 -1.09535 0
M  V30 2731 H 251.145 6.28201 -1.5483 0
M  V30 2732 N 251.277 0.427512 1.51691 0
M  V30 2733 C 252.688 -0.0378867 1.86662 0
M  V30 2734 C 253.039 -1.42819 1.34525 0
M  V30 2735 O 252.164 -2.05037 0.692014 0
M  V30 2736 C 252.759 -0.0755266 3.38716 0
M  V30 2737 C 251.318 -0.485309 3.73258 0
M  V30 2738 C 250.465 0.328399 2.75349 0
M  V30 2739 H 253.416 0.64379 1.45055 0
M  V30 2740 H 253.437 -0.887056 3.70016 0
M  V30 2741 H 252.949 0.936487 3.76632 0
M  V30 2742 H 251.05 -1.50329 3.40928 0
M  V30 2743 H 251.163 -0.21693 4.78609 0
M  V30 2744 H 249.527 -0.211905 2.53817 0
M  V30 2745 H 250.31 1.3391 3.16106 0
M  V30 2746 N 252.755 -1.56801 0.158532 0
M  V30 2747 C 253.665 -2.20916 -0.789518 0
M  V30 2748 C 254.681 -1.1969 -1.26294 0
M  V30 2749 O 255.857 -1.52308 -1.31773 0
M  V30 2750 C 252.922 -2.82727 -2.00665 0
M  V30 2751 C 251.983 -3.99114 -1.58134 0
M  V30 2752 C 251.216 -4.57968 -2.74045 0
M  V30 2753 O 251.439 -4.15704 -3.90572 0
M  V30 2754 O 250.373 -5.48047 -2.48855 0
M  V30 2755 H 254.199 -3.02464 -0.273681 0
M  V30 2756 H 251.784 -1.4924 -0.0690548 0
M  V30 2757 H 253.666 -3.21968 -2.71872 0
M  V30 2758 H 252.341 -2.04184 -2.51179 0
M  V30 2759 H 251.248 -3.64567 -0.839155 0
M  V30 2760 H 252.581 -4.79212 -1.12325 0
M  V30 2761 N 254.233 0.115231 -1.57178 0
M  V30 2762 C 255.163 1.1423 -2.03651 0
M  V30 2763 C 256.144 1.42967 -0.921655 0
M  V30 2764 O 257.329 1.53343 -1.19162 0
M  V30 2765 C 254.459 2.4675 -2.44401 0
M  V30 2766 C 253.413 2.32467 -3.59365 0
M  V30 2767 C 252.739 3.69984 -3.86026 0
M  V30 2768 C 254.039 1.78203 -4.90959 0
M  V30 2769 H 255.733 0.755749 -2.89705 0
M  V30 2770 H 253.279 0.362093 -1.39373 0
M  V30 2771 H 255.232 3.18854 -2.75517 0
M  V30 2772 H 253.956 2.87302 -1.55322 0
M  V30 2773 H 252.615 1.62811 -3.28463 0
M  V30 2774 H 252.263 4.08028 -2.94147 0
M  V30 2775 H 251.963 3.61279 -4.63412 0
M  V30 2776 H 253.487 4.43587 -4.19599 0
M  V30 2777 H 254.901 2.40128 -5.20587 0
M  V30 2778 H 253.298 1.8031 -5.72371 0
M  V30 2779 H 254.368 0.739876 -4.79222 0
M  V30 2780 N 255.711 1.52812 0.385517 0
M  V30 2781 C 256.957 1.68275 1.13188 0
M  V30 2782 C 257.29 0.423179 1.89533 0
M  V30 2783 O 256.565 -0.579113 1.85679 0
M  V30 2784 C 256.848 2.92001 2.1073 0
M  V30 2785 C 256.701 4.28067 1.38125 0
M  V30 2786 C 258.02 3.11283 3.11113 0
M  V30 2787 H 255.139 0.612352 0.410115 0
M  V30 2788 H 257.781 1.85415 0.414869 0
M  V30 2789 H 255.931 2.77519 2.71874 0
M  V30 2790 H 257.603 4.54324 0.799187 0
M  V30 2791 H 255.846 4.28388 0.683092 0
M  V30 2792 H 256.517 5.10733 2.09417 0
M  V30 2793 H 258.993 3.2482 2.6006 0
M  V30 2794 H 257.869 3.99325 3.76605 0
M  V30 2795 H 258.13 2.25656 3.80173 0
M  V30 2796 N 257.189 -0.644168 1.43834 0
M  V30 2797 C 258.435 -1.40603 1.46146 0
M  V30 2798 C 258.768 -1.93997 0.0887717 0
M  V30 2799 O 258.043 -1.72854 -0.891724 0
M  V30 2800 C 258.326 -2.58086 2.51124 0
M  V30 2801 C 258.179 -2.10126 3.97702 0
M  V30 2802 C 259.498 -3.60291 2.52742 0
M  V30 2803 H 256.617 -0.509905 0.532134 0
M  V30 2804 H 259.259 -0.729502 1.75437 0
M  V30 2805 H 257.409 -3.15801 2.26278 0
M  V30 2806 H 259.081 -1.57342 4.33637 0
M  V30 2807 H 257.324 -1.41419 4.10101 0
M  V30 2808 H 257.995 -2.94649 4.66783 0
M  V30 2809 H 260.471 -3.12352 2.7491 0
M  V30 2810 H 259.347 -4.40032 3.28121 0
M  V30 2811 H 259.608 -4.1349 1.56455 0
M  V30 2812 N 258.668 -1.30515 -0.883378 0
M  V30 2813 C 259.631 -1.1701 -1.97082 0
M  V30 2814 C 260.631 -0.10089 -1.60483 0
M  V30 2815 O 261.821 -0.349127 -1.70666 0
M  V30 2816 C 258.953 -0.793045 -3.31547 0
M  V30 2817 H 260.146 -2.13622 -2.10489 0
M  V30 2818 H 257.699 -1.13935 -1.06998 0
M  V30 2819 H 258.434 0.172499 -3.23841 0
M  V30 2820 H 258.219 -1.56576 -3.5948 0
M  V30 2821 H 259.709 -0.722073 -4.1131 0
M  V30 2822 N 260.146 1.09593 -1.13257 0
M  V30 2823 C 261.079 2.15451 -0.752061 0
M  V30 2824 C 262.057 1.60493 0.260913 0
M  V30 2825 O 263.241 1.8788 0.152819 0
M  V30 2826 C 260.368 3.38506 -0.114594 0
M  V30 2827 C 259.414 4.12183 -1.09579 0
M  V30 2828 S 260.247 4.6661 -2.62745 0
M  V30 2829 C 261.403 5.92966 -2.00354 0
M  V30 2830 H 261.636 2.47395 -1.64872 0
M  V30 2831 H 259.169 1.21515 -0.952545 0
M  V30 2832 H 261.127 4.09757 0.246808 0
M  V30 2833 H 259.788 3.04784 0.759309 0
M  V30 2834 H 258.981 5.00445 -0.597545 0
M  V30 2835 H 258.583 3.46785 -1.40057 0
M  V30 2836 H 260.875 6.63882 -1.35156 0
M  V30 2837 H 261.818 6.47467 -2.86691 0
M  V30 2838 H 262.226 5.45405 -1.4558 0
M  V30 2839 N 261.624 0.925811 1.2754 0
M  V30 2840 C 262.554 0.440748 2.29303 0
M  V30 2841 C 263.535 -0.497971 1.62648 0
M  V30 2842 O 264.72 -0.403126 1.8997 0
M  V30 2843 C 261.85 -0.309048 3.45922 0
M  V30 2844 C 260.804 0.54166 4.24559 0
M  V30 2845 C 260.13 -0.337191 5.33636 0
M  V30 2846 C 261.43 1.80516 4.90114 0
M  V30 2847 H 263.124 1.29121 2.70126 0
M  V30 2848 H 260.67 0.622323 1.29858 0
M  V30 2849 H 262.623 -0.659315 4.1621 0
M  V30 2850 H 261.347 -1.19352 3.04011 0
M  V30 2851 H 260.006 0.874609 3.56014 0
M  V30 2852 H 259.654 -1.22056 4.87966 0
M  V30 2853 H 259.354 0.228497 5.87156 0
M  V30 2854 H 260.878 -0.683072 6.06767 0
M  V30 2855 H 262.292 1.52307 5.52698 0
M  V30 2856 H 260.689 2.3142 5.53683 0
M  V30 2857 H 261.759 2.52581 4.13921 0
M  V30 2858 N 263.102 -1.41638 0.69111 0
M  V30 2859 C 264.065 -2.29178 0.0319786 0
M  V30 2860 C 265.065 -1.44153 -0.712496 0
M  V30 2861 O 266.255 -1.65354 -0.548053 0
M  V30 2862 C 263.387 -3.26952 -0.965161 0
M  V30 2863 H 264.58 -2.88959 0.802681 0
M  V30 2864 H 262.133 -1.4955 0.454356 0
M  V30 2865 H 262.868 -2.72142 -1.76378 0
M  V30 2866 H 262.653 -3.89685 -0.434522 0
M  V30 2867 H 264.143 -3.92561 -1.42428 0
M  V30 2868 N 264.58 -0.43555 -1.51462 0
M  V30 2869 C 265.82 0.130708 -2.03982 0
M  V30 2870 C 266.184 1.40117 -1.31268 0
M  V30 2871 O 267.385 2.04755 -1.74152 0
M  V30 2872 C 265.656 0.346102 -3.5572 0
M  V30 2873 S 267.215 0.876022 -4.29967 0
M  V30 2874 H 264.033 0.0326881 -0.710248 0
M  V30 2875 H 266.635 -0.594544 -1.8624 0
M  V30 2876 H 265.339 -0.584911 -4.0621 0
M  V30 2877 H 264.87 1.09849 -3.77752 0
M  V30 2878 H 266.885 2.15379 -4.47019 0
M  V30 2879 N 266.058 1.56714 -0.166846 0
M  V30 2880 C 267.021 2.16539 0.751232 0
M  V30 2881 C 268.021 1.11228 1.16125 0
M  V30 2882 O 269.211 1.36765 1.07894 0
M  V30 2883 C 266.343 2.74462 2.02196 0
M  V30 2884 H 267.536 2.99013 0.230499 0
M  V30 2885 H 265.089 1.56081 0.0826982 0
M  V30 2886 H 265.824 1.95709 2.58589 0
M  V30 2887 H 265.609 3.51527 1.73698 0
M  V30 2888 H 267.099 3.20489 2.67725 0
M  V30 2889 N 267.536 -0.106894 1.57237 0
M  V30 2890 C 268.952 -0.46078 1.52804 0
M  V30 2891 C 269.152 -1.81184 0.881746 0
M  V30 2892 O 268.208 -2.48102 0.469224 0
M  V30 2893 C 269.521 -0.434127 2.9755 0
M  V30 2894 C 271.069 -0.516821 3.08704 0
M  V30 2895 C 271.544 -0.520436 4.55033 0
M  V30 2896 N 273.035 -0.58153 4.59535 0
M  V30 2897 C 273.77 -0.605973 5.70189 0
M  V30 2898 N 273.266 -0.587331 6.90306 0
M  V30 2899 N 275.059 -0.649895 5.5833 0
M  V30 2900 H 267.21 0.778203 1.9763 0
M  V30 2901 H 269.473 0.288403 0.903066 0
M  V30 2902 H 269.179 0.491197 3.48253 0
M  V30 2903 H 269.053 -1.25748 3.55622 0
M  V30 2904 H 271.44 -1.43256 2.57995 0
M  V30 2905 H 271.521 0.334449 2.53604 0
M  V30 2906 H 271.165 0.391313 5.0639 0
M  V30 2907 H 271.095 -1.38876 5.07958 0
M  V30 2908 H 273.586 -0.60161 3.73081 0
M  V30 2909 H 273.899 -0.60894 7.70397 0
M  V30 2910 H 272.244 -0.554564 6.92784 0
M  V30 2911 H 275.435 -0.661907 4.63397 0
M  V30 2912 H 275.608 -0.665476 6.44574 0
M  V30 2913 N 269.014 -1.53014 -0.377408 0
M  V30 2914 C 270.263 -1.67845 -1.11853 0
M  V30 2915 C 270.576 -0.430625 -1.90801 0
M  V30 2916 O 271.782 -0.459261 -2.67587 0
M  V30 2917 C 270.238 -2.96668 -2.03756 0
M  V30 2918 C 269.846 -4.28671 -1.30175 0
M  V30 2919 C 271.59 -3.20865 -2.77932 0
M  V30 2920 C 269.497 -5.48591 -2.20911 0
M  V30 2921 H 268.427 -0.625343 -0.421263 0
M  V30 2922 H 271.078 -1.79514 -0.380409 0
M  V30 2923 H 269.46 -2.78773 -2.8125 0
M  V30 2924 H 270.634 -4.57157 -0.578259 0
M  V30 2925 H 268.949 -4.10825 -0.679108 0
M  V30 2926 H 271.546 -4.07642 -3.46024 0
M  V30 2927 H 271.889 -2.36424 -3.4265 0
M  V30 2928 H 272.422 -3.39379 -2.07525 0
M  V30 2929 H 269.161 -6.35474 -1.6079 0
M  V30 2930 H 268.681 -5.244 -2.91144 0
M  V30 2931 H 270.36 -5.8292 -2.80736 0
M  V30 2932 N 270.492 0.636531 -1.44174 0
M  V30 2933 C 271.74 1.39343 -1.46383 0
M  V30 2934 C 272.061 1.94766 -0.0955715 0
M  V30 2935 O 271.331 1.75452 0.871395 0
M  V30 2936 H 269.911 0.517199 -0.538994 0
M  V30 2937 H 272.573 0.74957 -1.7991 0
M  V30 2938 H 271.669 2.22746 -2.18611 0
M  V30 2939 N 271.97 1.30982 0.876444 0
M  V30 2940 C 272.933 1.18054 1.96459 0
M  V30 2941 C 273.933 0.109399 1.60427 0
M  V30 2942 O 275.123 0.358173 1.70478 0
M  V30 2943 C 272.255 0.810616 3.31122 0
M  V30 2944 H 273.448 2.14735 2.09354 0
M  V30 2945 H 271.001 1.145 1.06392 0
M  V30 2946 H 271.736 -0.155322 3.23928 0
M  V30 2947 H 271.521 1.58481 3.58645 0
M  V30 2948 H 273.011 0.743876 4.10921 0
M  V30 2949 N 273.449 -1.08991 1.13837 0
M  V30 2950 C 274.379 -2.17771 0.842507 0
M  V30 2951 C 275.36 -1.6892 -0.20001 0
M  V30 2952 O 276.545 -1.94113 -0.0579731 0
M  V30 2953 C 273.675 -3.4589 0.312644 0
M  V30 2954 C 272.629 -4.08099 1.28992 0
M  V30 2955 C 271.955 -5.31098 0.619623 0
M  V30 2956 C 273.255 -4.50077 2.65005 0
M  V30 2957 H 274.949 -2.42777 1.75213 0
M  V30 2958 H 272.495 -1.16682 0.843875 0
M  V30 2959 H 274.448 -4.21297 0.0933043 0
M  V30 2960 H 273.172 -3.20419 -0.632382 0
M  V30 2961 H 271.831 -3.34717 1.49533 0
M  V30 2962 H 271.479 -5.0191 -0.33102 0
M  V30 2963 H 271.179 -5.73674 1.27167 0
M  V30 2964 H 272.703 -6.09224 0.409669 0
M  V30 2965 H 274.117 -5.16688 2.48407 0
M  V30 2966 H 272.514 -5.03553 3.26427 0
M  V30 2967 H 273.584 -3.62257 3.22332 0
M  V30 2968 N 274.927 -0.932562 -1.27047 0
M  V30 2969 C 275.877 -0.406392 -2.24349 0
M  V30 2970 C 276.861 0.492066 -1.53191 0
M  V30 2971 O 278.053 0.328717 -1.73921 0
M  V30 2972 C 275.182 0.335214 -3.41659 0
M  V30 2973 C 274.268 -0.58004 -4.20115 0
M  V30 2974 N 274.659 -1.70203 -4.76303 0
M  V30 2975 C 272.957 -0.383974 -4.44344 0
M  V30 2976 C 273.658 -2.27167 -5.35509 0
M  V30 2977 N 272.634 -1.56068 -5.20715 0
M  V30 2978 H 276.436 -1.26299 -2.65378 0
M  V30 2979 H 273.95 -0.787408 -1.42034 0
M  V30 2980 H 275.947 0.729142 -4.10474 0
M  V30 2981 H 274.607 1.18868 -3.0216 0
M  V30 2982 H 275.618 -2.08433 -4.74106 0
M  V30 2983 H 272.295 0.428436 -4.15296 0
M  V30 2984 H 273.685 -3.21654 -5.89905 0
M  V30 2985 N 276.405 1.4127 -0.698611 0
M  V30 2986 C 277.63 2.06024 -0.238512 0
M  V30 2987 C 278.055 1.5224 1.10475 0
M  V30 2988 O 277.413 0.650623 1.69223 0
M  V30 2989 C 277.461 3.59988 -0.209952 0
M  V30 2990 O 276.565 4.04282 0.814235 0
M  V30 2991 H 275.906 0.653829 -0.115775 0
M  V30 2992 H 278.436 1.8098 -0.954326 0
M  V30 2993 H 278.446 4.07979 -0.0418436 0
M  V30 2994 H 277.121 3.98503 -1.1903 0
M  V30 2995 H 275.698 3.6779 0.615234 0
M  V30 2996 N 277.883 0.443576 1.51229 0
M  V30 2997 C 279.132 -0.122332 2.01329 0
M  V30 2998 C 279.445 -1.43237 1.33201 0
M  V30 2999 O 280.651 -2.0816 1.74304 0
M  V30 3000 C 279.107 -0.268551 3.58897 0
M  V30 3001 C 278.715 1.03142 4.35965 0
M  V30 3002 C 280.459 -0.787894 4.17124 0
M  V30 3003 C 278.366 0.850504 5.85252 0
M  V30 3004 H 277.296 -0.0494929 0.752374 0
M  V30 3005 H 279.947 0.574289 1.74282 0
M  V30 3006 H 278.329 -1.02832 3.82415 0
M  V30 3007 H 279.503 1.80001 4.24189 0
M  V30 3008 H 277.818 1.47977 3.89219 0
M  V30 3009 H 280.415 -0.939841 5.26375 0
M  V30 3010 H 280.758 -1.77201 3.76703 0
M  V30 3011 H 281.291 -0.0862669 3.97706 0
M  V30 3012 H 278.03 1.80718 6.30096 0
M  V30 3013 H 277.55 0.121825 5.99676 0
M  V30 3014 H 279.229 0.506163 6.45017 0
M  V30 3015 N 279.361 -1.56624 0.175154 0
M  V30 3016 C 280.607 -1.9729 -0.469506 0
M  V30 3017 C 280.94 -1.06128 -1.62636 0
M  V30 3018 O 280.215 -0.109183 -1.94193 0
M  V30 3019 C 280.498 -3.47375 -0.948804 0
M  V30 3020 C 280.351 -4.49317 0.208491 0
M  V30 3021 C 281.67 -4.00652 -1.82116 0
M  V30 3022 H 278.789 -0.717317 -0.16919 0
M  V30 3023 H 281.431 -1.88184 0.262062 0
M  V30 3024 H 279.581 -3.55267 -1.57219 0
M  V30 3025 H 281.253 -4.53482 0.845682 0
M  V30 3026 H 279.496 -4.25121 0.863395 0
M  V30 3027 H 280.167 -5.51741 -0.169059 0
M  V30 3028 H 282.643 -3.95416 -1.2956 0
M  V30 3029 H 281.519 -5.06075 -2.12554 0
M  V30 3030 H 281.78 -3.44699 -2.7683 0
M  V30 3031 N 280.839 0.0985539 -1.57292 0
M  V30 3032 C 282.086 0.802678 -1.85912 0
M  V30 3033 C 282.414 1.78901 -0.763186 0
M  V30 3034 O 281.669 1.94178 0.243559 0
M  V30 3035 C 281.968 1.56927 -3.21105 0
M  V30 3036 C 281.634 0.725376 -4.45027 0
M  V30 3037 C 280.296 0.492726 -4.78671 0
M  V30 3038 C 282.648 0.138493 -5.21016 0
M  V30 3039 C 279.976 -0.336727 -5.85733 0
M  V30 3040 C 282.328 -0.678264 -6.28953 0
M  V30 3041 C 280.992 -0.921039 -6.61115 0
M  V30 3042 H 280.262 0.293721 -0.680301 0
M  V30 3043 H 282.909 0.0642841 -1.91392 0
M  V30 3044 H 281.214 2.37914 -3.11294 0
M  V30 3045 H 282.911 2.11841 -3.40477 0
M  V30 3046 H 279.501 0.916815 -4.18679 0
M  V30 3047 H 283.685 0.305404 -4.95359 0
M  V30 3048 H 278.941 -0.533836 -6.09065 0
M  V30 3049 H 283.115 -1.1399 -6.87007 0
M  V30 3050 H 280.742 -1.56556 -7.43905 0
M  V30 3051 N 282.317 1.53212 0.369288 0
M  V30 3052 C 283.28 1.7872 1.43498 0
M  V30 3053 C 284.28 0.657554 1.46741 0
M  V30 3054 O 285.47 0.925736 1.47566 0
M  V30 3055 C 282.602 1.90591 2.82645 0
M  V30 3056 H 283.795 2.73894 1.22156 0
M  V30 3057 H 281.348 1.44233 0.602203 0
M  V30 3058 H 282.083 0.974709 3.09306 0
M  V30 3059 H 281.868 2.72751 2.8169 0
M  V30 3060 H 283.358 2.11931 3.59826 0
M  V30 3061 N 283.795 -0.628877 1.44509 0
M  V30 3062 C 285.043 -1.38565 1.4712 0
M  V30 3063 C 285.364 -1.94712 0.105899 0
M  V30 3064 O 284.634 -1.75912 -0.862079 0
M  V30 3065 H 283.214 -0.514333 0.541729 0
M  V30 3066 H 285.876 -0.740018 1.80305 0
M  V30 3067 H 284.972 -2.21583 2.19789 0
M  V30 3068 N 285.273 -1.31445 -0.869486 0
M  V30 3069 C 286.52 -1.21158 -1.62256 0
M  V30 3070 C 286.848 0.230155 -1.93133 0
M  V30 3071 O 286.103 1.17906 -1.56194 0
M  V30 3072 C 286.402 -2.00145 -2.96102 0
M  V30 3073 C 286.068 -3.4964 -2.84715 0
M  V30 3074 C 284.73 -3.90403 -2.81317 0
M  V30 3075 C 287.082 -4.44769 -2.71716 0
M  V30 3076 C 284.41 -5.24561 -2.62778 0
M  V30 3077 C 286.762 -5.79054 -2.54714 0
M  V30 3078 C 285.426 -6.19037 -2.49699 0
M  V30 3079 H 284.696 -0.443348 -0.593737 0
M  V30 3080 H 287.343 -1.62715 -1.00976 0
M  V30 3081 H 285.648 -1.5127 -3.6142 0
M  V30 3082 H 287.345 -1.89566 -3.53363 0
M  V30 3083 H 283.935 -3.17256 -2.88178 0
M  V30 3084 H 288.119 -4.14208 -2.73397 0
M  V30 3085 H 283.375 -5.54613 -2.57321 0
M  V30 3086 H 287.549 -6.52393 -2.43632 0
M  V30 3087 H 285.176 -7.22935 -2.35093 0
M  V30 3088 N 286.751 1.08385 -1.14413 0
M  V30 3089 C 287.976 1.85057 -0.936413 0
M  V30 3090 C 288.401 1.81055 0.509971 0
M  V30 3091 O 287.759 1.1958 1.36273 0
M  V30 3092 C 287.807 3.30505 -1.44217 0
M  V30 3093 O 286.911 4.07491 -0.634409 0
M  V30 3094 H 286.252 0.573425 -0.334784 0
M  V30 3095 H 288.782 1.36799 -1.52142 0
M  V30 3096 H 288.792 3.81348 -1.45043 0
M  V30 3097 H 287.467 3.32734 -2.49522 0
M  V30 3098 H 286.044 3.66368 -0.694902 0
M  V30 3099 N 288.23 0.939286 1.26551 0
M  V30 3100 C 289.455 0.602008 1.98471 0
M  V30 3101 C 289.88 -0.815624 1.69497 0
M  V30 3102 O 289.238 -1.54912 0.941905 0
M  V30 3103 C 289.286 0.848407 3.50477 0
M  V30 3104 O 288.39 -0.0804009 4.12322 0
M  V30 3105 H 287.731 0.23049 0.622712 0
M  V30 3106 H 290.261 1.2617 1.61066 0
M  V30 3107 H 290.271 0.768553 4.00696 0
M  V30 3108 H 288.946 1.88171 3.70897 0
M  V30 3109 H 287.523 0.0503508 3.72866 0
M  V30 3110 N 289.708 -1.40897 0.706093 0
M  V30 3111 C 290.618 -2.3455 0.0482286 0
M  V30 3112 C 291.634 -1.56796 -0.754396 0
M  V30 3113 O 292.81 -1.89228 -0.689538 0
M  V30 3114 C 289.875 -3.35625 -0.869303 0
M  V30 3115 C 288.936 -4.29261 -0.0576994 0
M  V30 3116 C 288.169 -5.25508 -0.931531 0
M  V30 3117 O 288.392 -5.27472 -2.17092 0
M  V30 3118 O 287.326 -6.00727 -0.375587 0
M  V30 3119 H 291.152 -2.92407 0.820476 0
M  V30 3120 H 288.737 -1.4193 0.4665 0
M  V30 3121 H 290.619 -3.97635 -1.39514 0
M  V30 3122 H 289.294 -2.80196 -1.62086 0
M  V30 3123 H 288.201 -3.70566 0.512988 0
M  V30 3124 H 289.534 -4.87817 0.655426 0
M  V30 3125 N 291.186 -0.45159 -1.50991 0
M  V30 3126 C 292.411 0.110667 -2.07105 0
M  V30 3127 C 292.836 1.3446 -1.31538 0
M  V30 3128 O 292.194 1.77743 -0.357365 0
M  V30 3129 C 292.242 0.397238 -3.58405 0
M  V30 3130 O 291.346 1.48124 -3.84881 0
M  V30 3131 H 290.687 -0.00439271 -0.663985 0
M  V30 3132 H 293.217 -0.637026 -1.9443 0
M  V30 3133 H 293.227 0.64351 -4.02893 0
M  V30 3134 H 291.902 -0.504553 -4.12828 0
M  V30 3135 H 290.479 1.22381 -3.52246 0
M  V30 3136 N 292.664 1.56529 -0.183458 0
M  V30 3137 C 293.594 2.21549 0.737456 0
M  V30 3138 C 294.575 1.17489 1.23005 0
M  V30 3139 O 295.76 1.45959 1.281 0
M  V30 3140 C 292.89 2.86575 1.96194 0
M  V30 3141 C 291.844 3.96778 1.60473 0
M  V30 3142 C 291.17 4.48911 2.90487 0
M  V30 3143 C 292.47 5.15767 0.823497 0
M  V30 3144 H 294.164 2.98761 0.195453 0
M  V30 3145 H 291.71 1.43702 0.0925686 0
M  V30 3146 H 293.663 3.30739 2.61131 0
M  V30 3147 H 292.387 2.06749 2.52828 0
M  V30 3148 H 291.046 3.53286 0.978997 0
M  V30 3149 H 290.694 3.65862 3.45186 0
M  V30 3150 H 290.394 5.23265 2.67335 0
M  V30 3151 H 291.918 4.95771 3.56432 0
M  V30 3152 H 293.332 5.56549 1.37571 0
M  V30 3153 H 291.729 5.96114 0.690551 0
M  V30 3154 H 292.799 4.84574 -0.177782 0
M  V30 3155 N 294.142 -0.090211 1.57342 0
M  V30 3156 C 295.382 -0.798365 1.88163 0
M  V30 3157 C 295.746 -1.75662 0.775046 0
M  V30 3158 O 296.947 -2.50849 0.965816 0
M  V30 3159 C 295.218 -1.50376 3.24225 0
M  V30 3160 S 296.777 -2.24952 3.76752 0
M  V30 3161 H 293.595 -0.265883 0.659414 0
M  V30 3162 H 296.197 -0.055264 1.95422 0
M  V30 3163 H 294.901 -0.792286 4.0268 0
M  V30 3164 H 294.432 -2.28666 3.20118 0
M  V30 3165 H 296.447 -3.51173 3.5056 0
M  V30 3166 N 295.62 -1.53406 -0.361157 0
M  V30 3167 C 296.53 -1.83122 -1.4664 0
M  V30 3168 C 297.546 -0.719943 -1.58407 0
M  V30 3169 O 298.722 -1.01046 -1.74218 0
M  V30 3170 C 295.787 -2.01891 -2.81853 0
M  V30 3171 C 294.848 -3.25784 -2.79577 0
M  V30 3172 C 294.081 -3.43648 -4.0834 0
M  V30 3173 O 294.304 -2.65714 -5.0473 0
M  V30 3174 O 293.238 -4.37018 -4.13883 0
M  V30 3175 H 297.064 -2.7703 -1.24451 0
M  V30 3176 H 294.649 -1.38841 -0.551678 0
M  V30 3177 H 296.531 -2.15782 -3.61962 0
M  V30 3178 H 295.206 -1.11173 -3.0401 0
M  V30 3179 H 294.113 -3.17312 -1.98151 0
M  V30 3180 H 295.446 -4.16439 -2.62373 0
M  V30 3181 N 297.098 0.621204 -1.44841 0
M  V30 3182 C 298.514 0.94048 -1.28946 0
M  V30 3183 C 298.714 2.00154 -0.23249 0
M  V30 3184 O 297.77 2.49651 0.378237 0
M  V30 3185 C 299.083 1.39433 -2.66419 0
M  V30 3186 C 300.631 1.50927 -2.74208 0
M  V30 3187 C 301.106 1.99692 -4.12174 0
M  V30 3188 N 302.597 2.06947 -4.144 0
M  V30 3189 C 303.332 2.45871 -5.1801 0
M  V30 3190 N 302.828 2.83862 -6.31977 0
M  V30 3191 N 304.621 2.46092 -5.05366 0
M  V30 3192 H 296.772 -0.0803548 -2.12248 0
M  V30 3193 H 299.035 0.0266913 -0.947624 0
M  V30 3194 H 298.741 0.688925 -3.44887 0
M  V30 3195 H 298.615 2.36347 -2.93973 0
M  V30 3196 H 301.002 2.20561 -1.96053 0
M  V30 3197 H 301.083 0.523627 -2.50383 0
M  V30 3198 H 300.727 1.30649 -4.90809 0
M  V30 3199 H 300.657 2.99146 -4.33381 0
M  V30 3200 H 303.148 1.80232 -3.32152 0
M  V30 3201 H 303.461 3.12405 -7.0684 0
M  V30 3202 H 301.806 2.8159 -6.35399 0
M  V30 3203 H 304.997 2.1581 -4.15384 0
M  V30 3204 H 305.17 2.76102 -5.86235 0
M  V30 3205 N 298.576 1.31904 0.862503 0
M  V30 3206 C 299.825 1.21373 1.61094 0
M  V30 3207 C 300.138 -0.22504 1.94301 0
M  V30 3208 O 301.344 -0.452121 2.67709 0
M  V30 3209 C 299.8 2.12525 2.9045 0
M  V30 3210 C 299.408 3.61441 2.64697 0
M  V30 3211 C 301.152 2.10813 3.68454 0
M  V30 3212 C 299.059 4.44578 3.90006 0
M  V30 3213 H 297.989 0.450705 0.604468 0
M  V30 3214 H 300.64 1.56811 0.953027 0
M  V30 3215 H 299.022 1.69994 3.57656 0
M  V30 3216 H 300.196 4.12264 2.05851 0
M  V30 3217 H 298.511 3.65205 2.00036 0
M  V30 3218 H 301.108 2.70167 4.61426 0
M  V30 3219 H 301.451 1.09713 4.01583 0
M  V30 3220 H 301.984 2.51583 3.08141 0
M  V30 3221 H 298.723 5.46461 3.62023 0
M  V30 3222 H 298.243 3.98508 4.48276 0
M  V30 3223 H 299.922 4.57176 4.5782 0
M  V30 3224 N 300.054 -1.07777 1.14986 0
M  V30 3225 C 300.984 -2.16865 0.865557 0
M  V30 3226 C 301.965 -1.69123 -0.182083 0
M  V30 3227 O 303.15 -1.94164 -0.0373815 0
M  V30 3228 C 300.28 -3.45539 0.349313 0
M  V30 3229 C 299.234 -4.06708 1.33313 0
M  V30 3230 C 298.56 -5.30411 0.675918 0
M  V30 3231 C 299.86 -4.47241 2.69764 0
M  V30 3232 H 301.554 -2.40905 1.77778 0
M  V30 3233 H 299.1 -1.15781 0.856203 0
M  V30 3234 H 301.053 -4.21174 0.137983 0
M  V30 3235 H 299.777 -3.21072 -0.598362 0
M  V30 3236 H 298.436 -3.33112 1.53075 0
M  V30 3237 H 298.084 -5.02232 -0.277767 0
M  V30 3238 H 297.784 -5.72293 1.33244 0
M  V30 3239 H 299.308 -6.08755 0.474262 0
M  V30 3240 H 300.722 -5.14025 2.53873 0
M  V30 3241 H 299.119 -5.00062 3.3175 0
M  V30 3242 H 300.189 -3.58818 3.26156 0
M  V30 3243 N 301.532 -0.945985 -1.26051 0
M  V30 3244 C 302.809 -0.513816 -1.88731 0
M  V30 3245 C 303.189 1.00872 -1.8544 0
M  V30 3246 O 302.537 1.8708 -1.312 0
M  V30 3247 C 302.747 -1.08062 -3.31849 0
M  V30 3248 C 304.095 -1.1522 -4.08668 0
M  V30 3249 O 305.119 -1.03155 -3.40936 0
M  V30 3250 O 303.978 -1.34044 -5.29806 0
M  V30 3251 H 301.072 -0.168193 -0.809716 0
M  V30 3252 H 303.618 -1.03886 -1.34186 0
M  V30 3253 H 302.39 -2.1241 -3.2863 0
M  V30 3254 H 302.013 -0.538307 -3.93939 0
M  V30 3255 N 303.011 1.40521 -0.713556 0
M  V30 3256 C 304.236 2.05759 -0.26035 0
M  V30 3257 C 304.661 1.53403 1.08854 0
M  V30 3258 O 304.019 0.668535 1.68524 0
M  V30 3259 C 304.067 3.59745 -0.248122 0
M  V30 3260 O 303.171 4.05123 0.77131 0
M  V30 3261 H 302.512 0.652564 -0.122703 0
M  V30 3262 H 305.042 1.79958 -0.973467 0
M  V30 3263 H 305.052 4.07911 -0.0851129 0
M  V30 3264 H 303.727 3.97218 -1.2325 0
M  V30 3265 H 302.304 3.68422 0.57619 0
M  V30 3266 N 304.489 0.459591 1.5075 0
M  V30 3267 C 305.714 -0.0996819 2.0716 0
M  V30 3268 C 306.139 -1.33761 1.32249 0
M  V30 3269 O 305.497 -1.77551 0.366786 0
M  V30 3270 C 305.545 -0.378226 3.58611 0
M  V30 3271 O 304.649 -1.46081 3.85661 0
M  V30 3272 H 303.99 0.00791392 0.663953 0
M  V30 3273 H 306.52 0.647329 1.9409 0
M  V30 3274 H 306.53 -0.622135 4.03229 0
M  V30 3275 H 305.205 0.526439 4.12555 0
M  V30 3276 H 303.782 -1.20511 3.5289 0
M  V30 3277 N 305.967 -1.56429 0.191757 0
M  V30 3278 C 307.207 -1.99383 -0.450099 0
M  V30 3279 C 307.571 -1.07581 -1.59029 0
M  V30 3280 O 308.772 -1.39758 -2.29611 0
M  V30 3281 C 307.043 -3.45841 -0.901611 0
M  V30 3282 S 308.602 -4.10822 -1.54177 0
M  V30 3283 H 305.42 -0.696253 -0.144057 0
M  V30 3284 H 308.022 -1.93276 0.294036 0
M  V30 3285 H 306.726 -4.10354 -0.0616596 0
M  V30 3286 H 306.257 -3.55757 -1.67929 0
M  V30 3287 H 308.272 -4.07553 -2.83046 0
M  V30 3288 N 307.445 0.0818655 -1.57387 0
M  V30 3289 C 308.67 0.799946 -1.91352 0
M  V30 3290 C 309.095 1.70833 -0.787258 0
M  V30 3291 O 308.453 1.79419 0.26048 0
M  V30 3292 C 308.501 1.57812 -3.24234 0
M  V30 3293 O 307.605 2.68806 -3.12757 0
M  V30 3294 H 306.946 0.21891 -0.626877 0
M  V30 3295 H 309.476 0.0531256 -2.04531 0
M  V30 3296 H 309.486 1.95952 -3.57864 0
M  V30 3297 H 308.161 0.911548 -4.05788 0
M  V30 3298 H 306.738 2.33597 -2.90666 0
M  V30 3299 N 308.923 1.53595 0.353017 0
M  V30 3300 C 309.853 1.83902 1.43883 0
M  V30 3301 C 310.834 0.693421 1.55324 0
M  V30 3302 O 312.019 0.944452 1.69687 0
M  V30 3303 C 309.149 2.04016 2.8106 0
M  V30 3304 C 308.103 3.19814 2.84434 0
M  V30 3305 C 307.429 3.25244 4.24406 0
M  V30 3306 C 308.729 4.58133 2.50822 0
M  V30 3307 H 310.423 2.74835 1.1877 0
M  V30 3308 H 307.969 1.32242 0.569917 0
M  V30 3309 H 309.922 2.238 3.57059 0
M  V30 3310 H 308.646 1.09804 3.07588 0
M  V30 3311 H 307.305 2.9987 2.10887 0
M  V30 3312 H 306.953 2.28646 4.48029 0
M  V30 3313 H 306.653 4.03054 4.27576 0
M  V30 3314 H 308.177 3.47228 5.0226 0
M  V30 3315 H 309.591 4.77995 3.16534 0
M  V30 3316 H 307.988 5.38276 2.6529 0
M  V30 3317 H 309.058 4.62387 1.46034 0
M  V30 3318 N 310.401 -0.613514 1.45168 0
M  V30 3319 C 311.331 -1.7354 1.56225 0
M  V30 3320 C 312.312 -1.64981 0.41414 0
M  V30 3321 O 313.497 -1.83472 0.636526 0
M  V30 3322 C 310.627 -3.12128 1.52295 0
M  V30 3323 C 309.581 -3.35491 2.65762 0
M  V30 3324 C 308.907 -4.74291 2.46885 0
M  V30 3325 C 310.207 -3.26325 4.0781 0
M  V30 3326 H 311.901 -1.64543 2.50132 0
M  V30 3327 H 309.447 -0.790185 1.20383 0
M  V30 3328 H 311.4 -3.90404 1.58628 0
M  V30 3329 H 310.124 -3.2195 0.549139 0
M  V30 3330 H 308.783 -2.59603 2.58847 0
M  V30 3331 H 308.431 -4.80839 1.47657 0
M  V30 3332 H 308.131 -4.9088 3.22972 0
M  V30 3333 H 309.655 -5.54775 2.55063 0
M  V30 3334 H 311.069 -3.94483 4.16 0
M  V30 3335 H 309.466 -3.54445 4.8424 0
M  V30 3336 H 310.536 -2.23855 4.30136 0
M  V30 3337 N 311.879 -1.3236 -0.855495 0
M  V30 3338 C 313.128 -1.22226 -1.60448 0
M  V30 3339 C 313.441 0.214733 -1.94418 0
M  V30 3340 O 314.647 0.437917 -2.67945 0
M  V30 3341 C 313.103 -2.14063 -2.89318 0
M  V30 3342 C 312.711 -3.62839 -2.62777 0
M  V30 3343 C 314.455 -2.12764 -3.67331 0
M  V30 3344 C 312.362 -4.4664 -3.87643 0
M  V30 3345 H 311.292 -0.453904 -0.602069 0
M  V30 3346 H 313.943 -1.57314 -0.944698 0
M  V30 3347 H 312.325 -1.71889 -3.5675 0
M  V30 3348 H 313.499 -4.1335 -2.03662 0
M  V30 3349 H 311.814 -3.66261 -1.98096 0
M  V30 3350 H 314.411 -2.72611 -4.59987 0
M  V30 3351 H 314.754 -1.11841 -4.00995 0
M  V30 3352 H 315.287 -2.53214 -3.06802 0
M  V30 3353 H 312.026 -5.48373 -3.5912 0
M  V30 3354 H 311.546 -4.0088 -4.46156 0
M  V30 3355 H 313.225 -4.59597 -4.55389 0
M  V30 3356 N 313.357 1.07166 -1.15556 0
M  V30 3357 C 314.585 1.83514 -0.955519 0
M  V30 3358 C 315 1.82163 0.49621 0
M  V30 3359 O 314.357 1.23441 1.34419 0
M  V30 3360 C 314.408 3.30515 -1.46432 0
M  V30 3361 O 314.129 3.31937 -2.85918 0
M  V30 3362 C 315.63 4.23625 -1.30603 0
M  V30 3363 H 312.85 0.578926 -0.339244 0
M  V30 3364 H 315.394 1.35265 -1.53374 0
M  V30 3365 H 313.549 3.76106 -0.928584 0
M  V30 3366 H 313.963 4.23794 -3.09029 0
M  V30 3367 H 315.437 5.24831 -1.71047 0
M  V30 3368 H 315.914 4.38485 -0.250441 0
M  V30 3369 H 316.52 3.83871 -1.83094 0
M  V30 3370 N 314.835 0.952656 1.25548 0
M  V30 3371 C 316.063 0.623496 1.97282 0
M  V30 3372 C 316.478 -0.803987 1.70826 0
M  V30 3373 O 315.835 -1.53755 0.983147 0
M  V30 3374 C 315.886 0.870209 3.5087 0
M  V30 3375 O 315.607 2.24156 3.76412 0
M  V30 3376 C 317.108 0.553164 4.39835 0
M  V30 3377 H 314.328 0.233931 0.628902 0
M  V30 3378 H 316.872 1.27649 1.59768 0
M  V30 3379 H 315.027 0.263652 3.86502 0
M  V30 3380 H 315.441 2.31021 4.70882 0
M  V30 3381 H 316.915 0.776342 5.46513 0
M  V30 3382 H 317.392 -0.512215 4.36203 0
M  V30 3383 H 317.998 1.13896 4.09766 0
M  V30 3384 N 316.313 -1.40141 0.720998 0
M  V30 3385 C 317.59 -1.94677 0.189757 0
M  V30 3386 C 317.97 -1.65879 -1.30566 0
M  V30 3387 O 317.318 -0.979391 -2.06447 0
M  V30 3388 C 317.528 -3.45279 0.508304 0
M  V30 3389 C 318.876 -4.22209 0.449934 0
M  V30 3390 O 319.9 -3.53413 0.444677 0
M  V30 3391 O 318.759 -5.44788 0.432189 0
M  V30 3392 H 315.853 -0.826459 0.0299026 0
M  V30 3393 H 318.399 -1.49719 0.7989 0
M  V30 3394 H 317.171 -3.59619 1.54239 0
M  V30 3395 H 316.794 -3.97386 -0.130525 0
M  V30 3396 N 317.792 -0.46758 -1.50504 0
M  V30 3397 C 318.755 0.317059 -2.26996 0
M  V30 3398 C 319.755 0.923513 -1.31635 0
M  V30 3399 O 320.945 0.793239 -1.55091 0
M  V30 3400 C 318.077 1.45134 -3.08462 0
M  V30 3401 H 319.27 -0.353723 -2.97807 0
M  V30 3402 H 316.823 -0.221545 -1.54722 0
M  V30 3403 H 317.558 2.15728 -2.4214 0
M  V30 3404 H 317.343 1.02232 -3.78538 0
M  V30 3405 H 318.833 2.00493 -3.66323 0
M  V30 3406 N 319.27 1.56325 -0.20005 0
M  V30 3407 C 320.517 1.97719 0.437411 0
M  V30 3408 C 320.845 1.08709 1.61284 0
M  V30 3409 O 320.1 0.127261 1.95286 0
M  V30 3410 C 320.399 3.4495 0.935103 0
M  V30 3411 C 320.065 4.5072 -0.12749 0
M  V30 3412 C 318.727 4.79368 -0.419451 0
M  V30 3413 C 321.079 5.14268 -0.847231 0
M  V30 3414 C 318.407 5.68854 -1.43604 0
M  V30 3415 C 320.759 6.04852 -1.85301 0
M  V30 3416 C 319.423 6.31855 -2.15211 0
M  V30 3417 H 318.693 0.723507 0.16006 0
M  V30 3418 H 321.34 1.89166 -0.298056 0
M  V30 3419 H 319.645 3.50599 1.74894 0
M  V30 3420 H 321.342 3.74337 1.43781 0
M  V30 3421 H 317.932 4.28458 0.11023 0
M  V30 3422 H 322.116 4.92222 -0.634901 0
M  V30 3423 H 317.372 5.88047 -1.67364 0
M  V30 3424 H 321.546 6.53152 -2.41591 0
M  V30 3425 H 319.173 7.00994 -2.94129 0
M  V30 3426 N 320.748 -0.0735177 1.57428 0
M  V30 3427 C 321.978 -0.78483 1.91112 0
M  V30 3428 C 322.386 -1.71729 0.7941 0
M  V30 3429 O 321.729 -1.82105 -0.241542 0
M  V30 3430 C 321.791 -1.63346 3.20247 0
M  V30 3431 C 321.455 -0.870557 4.48632 0
M  V30 3432 C 322.452 -0.19058 5.19551 0
M  V30 3433 C 320.137 -0.838242 4.95256 0
M  V30 3434 C 322.131 0.511503 6.35344 0
M  V30 3435 C 319.818 -0.132386 6.10957 0
M  V30 3436 C 320.816 0.541288 6.80852 0
M  V30 3437 O 320.504 1.23578 7.94345 0
M  V30 3438 H 320.236 -0.228408 0.636244 0
M  V30 3439 H 322.79 -0.0486039 2.05342 0
M  V30 3440 H 321.02 -2.41245 3.02222 0
M  V30 3441 H 322.709 -2.22329 3.39595 0
M  V30 3442 H 323.475 -0.206864 4.84559 0
M  V30 3443 H 319.354 -1.35206 4.40727 0
M  V30 3444 H 322.898 1.03789 6.89836 0
M  V30 3445 H 318.795 -0.114023 6.45399 0
M  V30 3446 H 319.563 1.14487 8.10454 0
M  V30 3447 N 322.226 -1.5378 -0.344866 0
M  V30 3448 C 323.642 -1.44015 -0.687888 0
M  V30 3449 C 323.842 -0.595834 -1.92489 0
M  V30 3450 O 322.898 -0.0863064 -2.52352 0
M  V30 3451 C 324.211 -2.87481 -0.881758 0
M  V30 3452 C 325.759 -2.97247 -0.980459 0
M  V30 3453 C 326.234 -4.41819 -1.20665 0
M  V30 3454 N 327.725 -4.45339 -1.27389 0
M  V30 3455 C 328.46 -5.54333 -1.46639 0
M  V30 3456 N 327.956 -6.73335 -1.63071 0
M  V30 3457 N 329.749 -5.41944 -1.49176 0
M  V30 3458 H 321.9 -2.07169 0.468475 0
M  V30 3459 H 324.163 -0.93643 0.147655 0
M  V30 3460 H 323.869 -3.51672 -0.0443444 0
M  V30 3461 H 323.743 -3.32352 -1.78388 0
M  V30 3462 H 326.13 -2.33197 -1.8084 0
M  V30 3463 H 326.211 -2.5574 -0.0552713 0
M  V30 3464 H 325.855 -5.06449 -0.383652 0
M  V30 3465 H 325.785 -4.80917 -2.14539 0
M  V30 3466 H 328.276 -3.59585 -1.1622 0
M  V30 3467 H 328.589 -7.52165 -1.77391 0
M  V30 3468 H 326.934 -6.76282 -1.60209 0
M  V30 3469 H 330.125 -4.47932 -1.3592 0
M  V30 3470 H 330.298 -6.26946 -1.63837 0
M  V30 3471 N 323.704 0.605807 -1.45491 0
M  V30 3472 C 324.952 1.36207 -1.49305 0
M  V30 3473 C 325.273 1.94519 -0.136863 0
M  V30 3474 O 324.543 1.77261 0.833983 0
M  V30 3475 H 323.123 0.50565 -0.549843 0
M  V30 3476 H 325.785 0.711239 -1.81459 0
M  V30 3477 H 324.881 2.18058 -2.23287 0
M  V30 3478 N 325.182 1.32811 0.848464 0
M  V30 3479 C 326.092 1.24278 1.98978 0
M  V30 3480 C 327.108 0.155176 1.73307 0
M  V30 3481 O 328.284 0.376999 1.9784 0
M  V30 3482 C 325.349 0.972444 3.32783 0
M  V30 3483 C 324.41 2.14911 3.71634 0
M  V30 3484 C 323.643 1.89157 4.99054 0
M  V30 3485 O 323.866 0.837165 5.64223 0
M  V30 3486 O 322.8 2.75433 5.35183 0
M  V30 3487 H 326.626 2.20238 2.09115 0
M  V30 3488 H 324.211 1.12762 0.980052 0
M  V30 3489 H 326.093 0.838432 4.12975 0
M  V30 3490 H 324.768 0.043051 3.23671 0
M  V30 3491 H 323.675 2.33862 2.91992 0
M  V30 3492 H 325.008 3.06151 3.85399 0
M  V30 3493 N 326.66 -1.06551 1.16123 0
M  V30 3494 C 327.607 -2.13961 0.865414 0
M  V30 3495 C 328.577 -1.65066 -0.185055 0
M  V30 3496 O 329.762 -1.90732 -0.05083 0
M  V30 3497 C 326.902 -3.43113 0.369776 0
M  V30 3498 C 326.015 -4.05756 1.48276 0
M  V30 3499 C 325.15 -5.22773 0.942414 0
M  V30 3500 C 324.189 -5.77395 2.03179 0
M  V30 3501 N 323.326 -6.85731 1.50721 0
M  V30 3502 H 328.166 -2.38605 1.78527 0
M  V30 3503 H 325.703 -1.17072 0.890646 0
M  V30 3504 H 327.661 -4.17151 0.0640643 0
M  V30 3505 H 326.291 -3.18695 -0.513143 0
M  V30 3506 H 325.343 -3.29292 1.9045 0
M  V30 3507 H 326.655 -4.42351 2.30493 0
M  V30 3508 H 325.809 -6.03827 0.589729 0
M  V30 3509 H 324.548 -4.87618 0.0895191 0
M  V30 3510 H 323.553 -4.94981 2.3932 0
M  V30 3511 H 324.778 -6.14603 2.8886 0
M  V30 3512 H 322.724 -6.52499 0.676811 0
M  V30 3513 H 322.641 -7.21254 2.26557 0
M  V30 3514 H 323.909 -7.7047 1.18303 0
M  V30 3515 N 328.138 -0.959301 -1.25041 0
M  V30 3516 C 329.068 -0.501388 -2.28053 0
M  V30 3517 C 330.049 0.454673 -1.63911 0
M  V30 3518 O 331.234 0.352618 -1.90972 0
M  V30 3519 C 328.364 0.217224 -3.4662 0
M  V30 3520 C 327.318 -0.654034 -4.22973 0
M  V30 3521 C 326.644 0.195589 -5.34342 0
M  V30 3522 C 327.944 -1.93447 -4.85155 0
M  V30 3523 H 329.638 -1.36238 -2.66608 0
M  V30 3524 H 327.184 -0.656534 -1.28163 0
M  V30 3525 H 329.137 0.548732 -4.17812 0
M  V30 3526 H 327.861 1.1125 -3.07068 0
M  V30 3527 H 326.52 -0.968693 -3.5357 0
M  V30 3528 H 326.168 1.09076 -4.91031 0
M  V30 3529 H 325.868 -0.384091 -5.86343 0
M  V30 3530 H 327.392 0.521958 -6.08365 0
M  V30 3531 H 328.806 -1.66908 -5.48466 0
M  V30 3532 H 327.203 -2.46018 -5.47353 0
M  V30 3533 H 328.273 -2.63466 -4.07079 0
M  V30 3534 N 329.616 1.39756 -0.72842 0
M  V30 3535 C 330.862 2.00942 -0.273892 0
M  V30 3536 C 331.195 1.57656 1.13394 0
M  V30 3537 O 330.47 0.802434 1.77176 0
M  V30 3538 C 330.753 3.58211 -0.368346 0
M  V30 3539 C 330.606 4.11534 -1.81548 0
M  V30 3540 C 331.925 4.39372 0.253054 0
M  V30 3541 H 329.044 0.730047 -0.100996 0
M  V30 3542 H 331.686 1.66056 -0.923337 0
M  V30 3543 H 329.836 3.88061 0.184588 0
M  V30 3544 H 331.508 3.92431 -2.42478 0
M  V30 3545 H 329.751 3.65341 -2.33898 0
M  V30 3546 H 330.422 5.20682 -1.83288 0
M  V30 3547 H 332.898 4.15527 -0.218224 0
M  V30 3548 H 331.774 5.48677 0.156585 0
M  V30 3549 H 332.035 4.21358 1.33826 0
M  V30 3550 N 331.094 0.475555 1.50254 0
M  V30 3551 C 332.042 -0.330276 2.30243 0
M  V30 3552 C 333.036 -0.986306 1.37726 0
M  V30 3553 O 334.242 -0.9169 1.54897 0
M  V30 3554 H 330.617 -0.125353 0.741479 0
M  V30 3555 H 332.588 0.364702 2.96163 0
M  V30 3556 C 331.337 -1.39704 3.18399 0
M  V30 3557 H 330.66 -0.901621 3.89501 0
M  V30 3558 H 332.1 -1.93336 3.77355 0
M  V30 3559 C 330.559 -2.4014 2.36293 0
M  V30 3560 O 331.089 -3.45504 2.04914 0
M  V30 3561 N 329.295 -2.1197 1.98789 0
M  V30 3562 H 328.842 -1.2631 2.24507 0
M  V30 3563 H 328.8 -2.79403 1.44157 0
M  V30 3564 N 332.573 -1.56217 0.208337 0
M  V30 3565 C 333.503 -2.22694 -0.702116 0
M  V30 3566 C 334.484 -1.19432 -1.2112 0
M  V30 3567 O 335.669 -1.47978 -1.25762 0
M  V30 3568 C 332.799 -2.8966 -1.9161 0
M  V30 3569 C 331.753 -3.9928 -1.5414 0
M  V30 3570 C 331.079 -4.53476 -2.83308 0
M  V30 3571 C 332.379 -5.17012 -0.741339 0
M  V30 3572 H 334.073 -2.99034 -0.147898 0
M  V30 3573 H 331.619 -1.43831 -0.0696951 0
M  V30 3574 H 333.572 -3.34852 -2.55836 0
M  V30 3575 H 332.296 -2.10746 -2.49507 0
M  V30 3576 H 330.955 -3.54799 -0.922668 0
M  V30 3577 H 330.603 -3.71308 -3.39322 0
M  V30 3578 H 330.303 -5.27451 -2.58976 0
M  V30 3579 H 331.827 -5.01378 -3.485 0
M  V30 3580 H 333.241 -5.58667 -1.28699 0
M  V30 3581 H 331.638 -5.97137 -0.595627 0
M  V30 3582 H 332.708 -4.8423 0.254851 0
M  V30 3583 N 334.051 0.0651679 -1.57465 0
M  V30 3584 C 334.998 1.07675 -2.04144 0
M  V30 3585 C 335.968 1.38071 -0.923335 0
M  V30 3586 O 337.153 1.49026 -1.19146 0
M  V30 3587 C 334.293 2.38337 -2.49579 0
M  V30 3588 C 333.406 2.14413 -3.75035 0
M  V30 3589 C 332.541 3.38686 -4.09225 0
M  V30 3590 C 331.58 3.10156 -5.27702 0
M  V30 3591 N 330.717 4.26778 -5.57499 0
M  V30 3592 H 335.557 0.671716 -2.90331 0
M  V30 3593 H 333.094 0.3201 -1.43575 0
M  V30 3594 H 335.052 3.14632 -2.73975 0
M  V30 3595 H 333.682 2.7663 -1.6636 0
M  V30 3596 H 332.734 1.2878 -3.57939 0
M  V30 3597 H 334.046 1.89344 -4.61466 0
M  V30 3598 H 333.2 4.23373 -4.34558 0
M  V30 3599 H 331.939 3.66837 -3.21374 0
M  V30 3600 H 330.944 2.23866 -5.02159 0
M  V30 3601 H 332.169 2.8332 -6.17176 0
M  V30 3602 H 330.115 4.54948 -4.72608 0
M  V30 3603 H 330.032 4.05005 -6.38362 0
M  V30 3604 H 331.3 5.12443 -5.87386 0
M  V30 3605 N 335.529 1.53961 0.336706 0
M  V30 3606 C 336.439 1.85432 1.43708 0
M  V30 3607 C 337.455 0.745053 1.57242 0
M  V30 3608 O 338.631 1.03804 1.72588 0
M  V30 3609 C 335.696 2.06349 2.78605 0
M  V30 3610 C 334.757 3.30191 2.74358 0
M  V30 3611 C 333.99 3.50101 4.02822 0
M  V30 3612 O 334.213 2.7371 5.00439 0
M  V30 3613 O 333.147 4.43547 4.06878 0
M  V30 3614 H 336.973 2.78975 1.20028 0
M  V30 3615 H 334.558 1.39701 0.52952 0
M  V30 3616 H 336.44 2.21513 3.58483 0
M  V30 3617 H 335.115 1.15995 3.02203 0
M  V30 3618 H 334.022 3.20425 1.93078 0
M  V30 3619 H 335.355 4.2056 2.55715 0
M  V30 3620 N 337.007 -0.598083 1.45811 0
M  V30 3621 C 337.937 -1.71873 1.58057 0
M  V30 3622 C 338.918 -1.64533 0.431615 0
M  V30 3623 O 340.103 -1.82787 0.65595 0
M  V30 3624 C 337.233 -3.10495 1.55597 0
M  V30 3625 C 336.187 -3.32654 2.69305 0
M  V30 3626 C 335.513 -4.71646 2.51902 0
M  V30 3627 C 336.813 -3.21981 4.11248 0
M  V30 3628 H 338.507 -1.61881 2.51863 0
M  V30 3629 H 336.053 -0.777372 1.21214 0
M  V30 3630 H 338.006 -3.88699 1.6276 0
M  V30 3631 H 336.73 -3.2135 0.583255 0
M  V30 3632 H 335.389 -2.56843 2.61586 0
M  V30 3633 H 335.037 -4.79246 1.52748 0
M  V30 3634 H 334.737 -4.87426 3.2816 0
M  V30 3635 H 336.261 -5.52038 2.60933 0
M  V30 3636 H 337.675 -3.90049 4.20161 0
M  V30 3637 H 336.072 -3.49289 4.87972 0
M  V30 3638 H 337.142 -2.1928 4.32486 0
M  V30 3639 N 338.485 -1.33259 -0.841409 0
M  V30 3640 C 339.448 -1.23221 -1.9326 0
M  V30 3641 C 340.448 -0.151895 -1.60081 0
M  V30 3642 O 341.638 -0.403246 -1.69468 0
M  V30 3643 C 338.77 -0.898123 -3.28856 0
M  V30 3644 H 339.963 -2.2021 -2.03587 0
M  V30 3645 H 337.516 -1.17281 -1.03319 0
M  V30 3646 H 338.251 0.0693841 -3.24226 0
M  V30 3647 H 338.036 -1.67934 -3.54317 0
M  V30 3648 H 339.526 -0.852563 -4.08805 0
M  V30 3649 N 339.963 1.05934 -1.16686 0
M  V30 3650 C 341.24 1.75643 -0.860747 0
M  V30 3651 C 341.62 2.01144 0.640641 0
M  V30 3652 O 340.968 1.64147 1.58959 0
M  V30 3653 C 341.178 3.05493 -1.68745 0
M  V30 3654 C 342.526 3.79581 -1.90271 0
M  V30 3655 O 343.55 3.15344 -1.65641 0
M  V30 3656 O 342.409 4.9499 -2.31618 0
M  V30 3657 H 339.503 0.763426 -0.317977 0
M  V30 3658 H 342.049 1.1217 -1.27342 0
M  V30 3659 H 340.821 2.8264 -2.70611 0
M  V30 3660 H 340.444 3.76702 -1.27206 0
M  V30 3661 N 341.441 0.965919 1.2453 0
M  V30 3662 C 342.351 0.502154 2.29163 0
M  V30 3663 C 343.367 -0.436017 1.68448 0
M  V30 3664 O 344.543 -0.309497 1.99008 0
M  V30 3665 C 341.608 -0.201956 3.46111 0
M  V30 3666 C 340.669 0.775821 4.22232 0
M  V30 3667 C 339.902 0.105217 5.33596 0
M  V30 3668 O 340.125 -1.10683 5.59558 0
M  V30 3669 O 339.059 0.796475 5.96607 0
M  V30 3670 H 342.885 1.37194 2.70946 0
M  V30 3671 H 340.47 0.732875 1.30189 0
M  V30 3672 H 342.352 -0.597564 4.17142 0
M  V30 3673 H 341.027 -1.04673 3.06309 0
M  V30 3674 H 339.934 1.22185 3.53584 0
M  V30 3675 H 341.267 1.58896 4.65846 0
M  V30 3676 N 342.919 -1.39368 0.735821 0
M  V30 3677 C 343.882 -2.2896 0.104874 0
M  V30 3678 C 344.882 -1.46347 -0.666274 0
M  V30 3679 O 346.072 -1.67014 -0.49517 0
M  V30 3680 C 343.204 -3.29857 -0.860656 0
M  V30 3681 H 344.397 -2.86259 0.894205 0
M  V30 3682 H 341.95 -1.48029 0.501704 0
M  V30 3683 H 342.685 -2.77615 -1.67631 0
M  V30 3684 H 342.47 -3.9087 -0.310327 0
M  V30 3685 H 343.96 -3.96893 -1.29867 0
M  V30 3686 N 344.397 -0.483516 -1.5 0
M  V30 3687 C 345.327 0.293829 -2.31644 0
M  V30 3688 C 346.308 0.978864 -1.39112 0
M  V30 3689 O 347.493 0.973644 -1.68029 0
M  V30 3690 C 344.623 1.36897 -3.19181 0
M  V30 3691 C 343.577 0.804833 -4.20365 0
M  V30 3692 C 342.903 1.9792 -4.96721 0
M  V30 3693 C 344.203 -0.192313 -5.21946 0
M  V30 3694 H 345.897 -0.387616 -2.9688 0
M  V30 3695 H 343.443 -0.187856 -1.42769 0
M  V30 3696 H 345.396 1.92037 -3.751 0
M  V30 3697 H 344.12 2.07936 -2.51853 0
M  V30 3698 H 342.779 0.275319 -3.65565 0
M  V30 3699 H 342.427 2.67686 -4.25856 0
M  V30 3700 H 342.127 1.60789 -5.65173 0
M  V30 3701 H 343.651 2.53526 -5.55479 0
M  V30 3702 H 345.065 0.270333 -5.72662 0
M  V30 3703 H 343.462 -0.478543 -5.98189 0
M  V30 3704 H 344.532 -1.11409 -4.71928 0
M  V30 3705 N 345.875 1.56104 -0.216619 0
M  V30 3706 C 346.807 2.17339 0.72776 0
M  V30 3707 C 347.82 1.14109 1.16116 0
M  V30 3708 O 349.009 1.4111 1.09317 0
M  V30 3709 C 346.109 2.73818 1.99693 0
M  V30 3710 C 345.282 4.02168 1.71988 0
M  V30 3711 C 344.341 4.43259 2.83562 0
M  V30 3712 O 343.367 5.10257 2.52244 0
M  V30 3713 N 344.569 4.08535 4.12407 0
M  V30 3714 H 347.334 2.99005 0.203983 0
M  V30 3715 H 344.895 1.61861 -0.0354289 0
M  V30 3716 H 346.887 2.9828 2.73516 0
M  V30 3717 H 345.457 1.96483 2.43132 0
M  V30 3718 H 344.677 3.85612 0.818337 0
M  V30 3719 H 345.965 4.85907 1.50903 0
M  V30 3720 H 345.363 3.54687 4.40696 0
M  V30 3721 H 343.92 4.37901 4.8279 0
M  V30 3722 N 347.353 -0.0568162 1.57498 0
M  V30 3723 C 348.3 -1.06591 2.04712 0
M  V30 3724 C 349.27 -1.3758 0.930644 0
M  V30 3725 O 350.455 -1.48392 1.19935 0
M  V30 3726 C 347.595 -2.3701 2.50839 0
M  V30 3727 C 346.708 -2.12421 3.76167 0
M  V30 3728 C 345.843 -3.36511 4.11015 0
M  V30 3729 C 344.882 -3.07353 5.2934 0
M  V30 3730 N 344.019 -4.23816 5.59754 0
M  V30 3731 H 348.859 -0.65631 2.90683 0
M  V30 3732 H 346.396 -0.312481 1.43743 0
M  V30 3733 H 348.354 -3.13175 2.7564 0
M  V30 3734 H 346.984 -2.75744 1.67825 0
M  V30 3735 H 346.036 -1.2688 3.58616 0
M  V30 3736 H 347.348 -1.86894 4.62463 0
M  V30 3737 H 346.502 -4.21062 4.36797 0
M  V30 3738 H 345.241 -3.65128 3.23315 0
M  V30 3739 H 344.246 -2.212 5.03339 0
M  V30 3740 H 345.471 -2.80043 6.1867 0
M  V30 3741 H 343.417 -4.52436 4.75014 0
M  V30 3742 H 343.334 -4.01614 6.40501 0
M  V30 3743 H 344.602 -5.0932 5.90096 0
M  V30 3744 N 348.832 -1.54138 -0.328536 0
M  V30 3745 C 350.072 -1.73827 -1.07534 0
M  V30 3746 C 350.436 -0.498777 -1.85408 0
M  V30 3747 O 351.637 -0.572937 -2.62623 0
M  V30 3748 C 349.908 -2.97573 -1.97952 0
M  V30 3749 S 351.467 -3.38143 -2.79652 0
M  V30 3750 H 348.285 -0.611287 -0.36311 0
M  V30 3751 H 350.887 -1.92306 -0.351931 0
M  V30 3752 H 349.591 -3.85939 -1.39569 0
M  V30 3753 H 349.122 -2.81603 -2.74706 0
M  V30 3754 H 351.137 -2.93052 -4.00418 0
M  V30 3755 N 350.31 0.590341 -1.46126 0
M  V30 3756 C 351.242 1.71427 -1.52136 0
M  V30 3757 C 352.255 1.57542 -0.41042 0
M  V30 3758 O 353.444 1.65106 -0.678389 0
M  V30 3759 C 350.544 3.09605 -1.37834 0
M  V30 3760 C 349.717 3.49566 -2.62912 0
M  V30 3761 C 348.776 4.66773 -2.42918 0
M  V30 3762 O 347.802 4.73019 -3.1661 0
M  V30 3763 N 349.004 5.61161 -1.4859 0
M  V30 3764 H 351.769 1.66728 -2.49042 0
M  V30 3765 H 349.33 0.776113 -1.42085 0
M  V30 3766 H 351.322 3.85796 -1.22243 0
M  V30 3767 H 349.892 3.08714 -0.491393 0
M  V30 3768 H 349.112 2.63158 -2.93499 0
M  V30 3769 H 350.4 3.73028 -3.46017 0
M  V30 3770 H 349.798 5.58844 -0.87808 0
M  V30 3771 H 348.355 6.36814 -1.38965 0
M  V30 3772 N 351.788 1.33704 0.83433 0
M  V30 3773 C 352.698 1.26382 1.97648 0
M  V30 3774 C 353.714 0.173548 1.73132 0
M  V30 3775 O 354.89 0.397962 1.97429 0
M  V30 3776 C 351.955 1.00769 3.31733 0
M  V30 3777 C 351.016 2.1884 3.69334 0
M  V30 3778 C 350.249 1.9444 4.9702 0
M  V30 3779 O 350.472 0.896961 5.63303 0
M  V30 3780 O 349.406 2.81093 5.32231 0
M  V30 3781 H 353.232 2.22444 2.06767 0
M  V30 3782 H 350.817 1.13795 0.968037 0
M  V30 3783 H 352.699 0.882186 4.12062 0
M  V30 3784 H 351.374 0.0773783 3.23608 0
M  V30 3785 H 350.281 2.36946 2.89495 0
M  V30 3786 H 351.614 3.10221 3.82131 0
M  V30 3787 N 353.266 -1.05314 1.17247 0
M  V30 3788 C 354.213 -2.13031 0.888058 0
M  V30 3789 C 355.183 -1.65253 -0.167537 0
M  V30 3790 O 356.368 -1.90775 -0.0305974 0
M  V30 3791 C 353.508 -3.42702 0.406147 0
M  V30 3792 C 352.621 -4.04161 1.52572 0
M  V30 3793 C 351.756 -5.21744 0.997808 0
M  V30 3794 C 350.795 -5.75207 2.09291 0
M  V30 3795 N 349.932 -6.84094 1.57986 0
M  V30 3796 H 354.772 -2.36698 1.81048 0
M  V30 3797 H 352.309 -1.16121 0.903013 0
M  V30 3798 H 354.267 -4.17059 0.108305 0
M  V30 3799 H 352.897 -3.19222 -0.479313 0
M  V30 3800 H 351.949 -3.27253 1.93931 0
M  V30 3801 H 353.261 -4.39881 2.35172 0
M  V30 3802 H 352.415 -6.03168 0.653739 0
M  V30 3803 H 351.154 -4.87495 0.141232 0
M  V30 3804 H 350.159 -4.92414 2.44557 0
M  V30 3805 H 351.384 -6.11505 2.95362 0
M  V30 3806 H 349.33 -6.51745 0.74598 0
M  V30 3807 H 349.247 -7.18811 2.34195 0
M  V30 3808 H 350.515 -7.69172 1.26468 0
M  V30 3809 N 354.744 -0.972509 -1.24016 0
M  V30 3810 C 355.992 -0.635776 -1.91839 0
M  V30 3811 C 356.313 0.832312 -1.76345 0
M  V30 3812 O 355.583 1.5946 -1.13795 0
M  V30 3813 H 354.163 -0.232157 -0.710009 0
M  V30 3814 H 356.825 -1.23462 -1.50809 0
M  V30 3815 H 355.921 -0.880545 -2.99421 0
M  V30 3816 N 356.222 1.38976 -0.743202 0
M  V30 3817 C 357.469 2.00343 -0.294752 0
M  V30 3818 C 357.797 1.58983 1.12047 0
M  V30 3819 O 357.052 0.813809 1.77977 0
M  V30 3820 C 357.351 3.55647 -0.353517 0
M  V30 3821 C 357.017 4.16685 -1.72292 0
M  V30 3822 C 355.679 4.3307 -2.09771 0
M  V30 3823 C 358.031 4.50464 -2.62168 0
M  V30 3824 C 355.359 4.80526 -3.36618 0
M  V30 3825 C 357.711 4.99332 -3.88395 0
M  V30 3826 C 356.375 5.13924 -4.25956 0
M  V30 3827 H 355.645 0.733108 -0.107857 0
M  V30 3828 H 358.292 1.6618 -0.951651 0
M  V30 3829 H 356.597 3.89884 0.386954 0
M  V30 3830 H 358.294 4.00998 0.0117269 0
M  V30 3831 H 354.884 4.04339 -1.42155 0
M  V30 3832 H 359.068 4.37416 -2.3448 0
M  V30 3833 H 354.324 4.90008 -3.65653 0
M  V30 3834 H 358.498 5.2444 -4.58187 0
M  V30 3835 H 356.125 5.50457 -5.2431 0
M  V30 3836 N 357.7 0.491464 1.49741 0
M  V30 3837 C 359.111 0.0413169 1.86654 0
M  V30 3838 C 359.462 -1.36985 1.40462 0
M  V30 3839 O 358.587 -2.01917 0.778354 0
M  V30 3840 C 359.182 0.0682023 3.38731 0
M  V30 3841 C 357.741 -0.32656 3.74981 0
M  V30 3842 C 356.888 0.444888 2.73708 0
M  V30 3843 H 359.839 0.704733 1.42194 0
M  V30 3844 H 359.86 -0.729322 3.73445 0
M  V30 3845 H 359.372 1.09539 3.72321 0
M  V30 3846 H 357.473 -1.35734 3.46997 0
M  V30 3847 H 357.586 -0.013741 4.79098 0
M  V30 3848 H 355.95 -0.104062 2.54487 0
M  V30 3849 H 356.733 1.47197 3.10142 0
M  V30 3850 N 359.178 -1.55987 0.224894 0
M  V30 3851 C 360.424 -1.98684 -0.406502 0
M  V30 3852 C 360.757 -1.11248 -1.59177 0
M  V30 3853 O 360.032 -0.170909 -1.93748 0
M  V30 3854 C 360.315 -3.50218 -0.837808 0
M  V30 3855 C 360.168 -4.48426 0.351332 0
M  V30 3856 C 361.487 -4.06243 -1.69278 0
M  V30 3857 H 358.606 -0.722337 -0.146283 0
M  V30 3858 H 361.248 -1.87255 0.321799 0
M  V30 3859 H 359.398 -3.60089 -1.45837 0
M  V30 3860 H 361.07 -4.50562 0.989526 0
M  V30 3861 H 359.313 -4.22159 0.998207 0
M  V30 3862 H 359.984 -5.52 0.00655905 0
M  V30 3863 H 362.46 -3.99337 -1.16914 0
M  V30 3864 H 361.336 -5.12581 -1.96346 0
M  V30 3865 H 361.597 -3.53332 -2.65723 0
M  V30 3866 N 360.656 0.0484629 -1.57525 0
M  V30 3867 C 362.072 0.40375 -1.54409 0
M  V30 3868 C 362.272 1.77786 -0.948384 0
M  V30 3869 O 361.328 2.46189 -0.560983 0
M  V30 3870 C 362.641 0.323394 -2.98956 0
M  V30 3871 C 364.189 0.401892 -3.10409 0
M  V30 3872 C 364.664 0.351195 -4.56652 0
M  V30 3873 N 366.155 0.410576 -4.61377 0
M  V30 3874 C 366.89 0.393933 -5.72045 0
M  V30 3875 N 366.386 0.330724 -6.9201 0
M  V30 3876 N 368.179 0.442227 -5.60358 0
M  V30 3877 H 360.33 -0.851016 -1.94606 0
M  V30 3878 H 362.593 -0.321721 -0.89174 0
M  V30 3879 H 362.299 -0.62011 -3.4619 0
M  V30 3880 H 362.173 1.12463 -3.60044 0
M  V30 3881 H 364.56 1.33582 -2.63134 0
M  V30 3882 H 364.641 -0.428342 -2.52188 0
M  V30 3883 H 364.285 -0.578987 -5.04589 0
M  V30 3884 H 364.215 1.19928 -5.12762 0
M  V30 3885 H 366.706 0.462729 -3.75056 0
M  V30 3886 H 367.019 0.322592 -7.72126 0
M  V30 3887 H 365.364 0.29706 -6.94365 0
M  V30 3888 H 368.555 0.489464 -4.65534 0
M  V30 3889 H 368.728 0.425788 -6.466 0
M  V30 3890 N 362.134 1.5431 0.320358 0
M  V30 3891 C 363.374 1.74395 1.0661 0
M  V30 3892 C 363.738 0.508602 1.85141 0
M  V30 3893 O 364.939 0.586856 2.62316 0
M  V30 3894 C 363.21 2.98619 1.96371 0
M  V30 3895 S 364.769 3.39621 2.77854 0
M  V30 3896 H 361.587 0.613204 0.359863 0
M  V30 3897 H 364.189 1.9249 0.341727 0
M  V30 3898 H 362.893 3.86673 1.3752 0
M  V30 3899 H 362.424 2.83055 2.73209 0
M  V30 3900 H 364.439 2.95172 3.98858 0
M  V30 3901 N 363.613 -0.582584 1.46437 0
M  V30 3902 C 364.853 -1.35184 1.53312 0
M  V30 3903 C 365.217 -1.9115 0.180508 0
M  V30 3904 O 366.418 -2.68514 0.124017 0
M  V30 3905 C 364.689 -2.45089 2.60127 0
M  V30 3906 S 366.248 -3.32439 2.86408 0
M  V30 3907 H 363.066 -0.460559 0.54167 0
M  V30 3908 H 365.668 -0.669709 1.83671 0
M  V30 3909 H 364.372 -2.02366 3.57038 0
M  V30 3910 H 363.903 -3.18074 2.315 0
M  V30 3911 H 365.918 -4.43924 2.21688 0
M  V30 3912 N 365.091 -1.34144 -0.827227 0
M  V30 3913 C 366.34 -1.25602 -1.5782 0
M  V30 3914 C 366.653 0.173445 -1.94829 0
M  V30 3915 O 367.859 0.380984 -2.68814 0
M  V30 3916 C 366.315 -2.20151 -2.84713 0
M  V30 3917 C 365.923 -3.68331 -2.55021 0
M  V30 3918 C 367.667 -2.20508 -3.62735 0
M  V30 3919 C 365.574 -4.54762 -3.78082 0
M  V30 3920 H 364.504 -0.466573 -0.592306 0
M  V30 3921 H 367.155 -1.59283 -0.911116 0
M  V30 3922 H 365.537 -1.79417 -3.53023 0
M  V30 3923 H 366.711 -4.17577 -1.94849 0
M  V30 3924 H 365.026 -3.7038 -1.90283 0
M  V30 3925 H 367.623 -2.82306 -4.54101 0
M  V30 3926 H 367.966 -1.20322 -3.98533 0
M  V30 3927 H 368.499 -2.59664 -3.01362 0
M  V30 3928 H 365.238 -5.55867 -3.47407 0
M  V30 3929 H 364.758 -4.10254 -4.37552 0
M  V30 3930 H 366.437 -4.69153 -4.45538 0
M  V30 3931 N 366.569 1.04691 -1.17803 0
M  V30 3932 C 367.815 1.78045 -0.970969 0
M  V30 3933 C 368.148 1.87686 0.498751 0
M  V30 3934 O 367.423 1.38035 1.37027 0
M  V30 3935 C 367.706 3.2166 -1.61884 0
M  V30 3936 C 367.559 3.20001 -3.161 0
M  V30 3937 C 368.878 4.1962 -1.3269 0
M  V30 3938 H 365.997 0.64633 -0.354155 0
M  V30 3939 H 368.639 1.22333 -1.45378 0
M  V30 3940 H 366.789 3.69232 -1.20831 0
M  V30 3941 H 368.461 2.80467 -3.66246 0
M  V30 3942 H 366.704 2.58203 -3.48588 0
M  V30 3943 H 367.375 4.21386 -3.56564 0
M  V30 3944 H 369.851 3.80567 -1.68249 0
M  V30 3945 H 368.727 5.18339 -1.80599 0
M  V30 3946 H 368.988 4.414 -0.248622 0
M  V30 3947 N 368.047 0.979072 1.23499 0
M  V30 3948 C 369.293 0.648178 1.92163 0
M  V30 3949 C 369.626 -0.816049 1.76222 0
M  V30 3950 O 368.901 -1.58849 1.12237 0
M  V30 3951 C 369.184 1.03773 3.44824 0
M  V30 3952 C 369.037 2.55948 3.69879 0
M  V30 3953 C 370.356 0.580653 4.36253 0
M  V30 3954 H 367.475 0.236952 0.69787 0
M  V30 3955 H 370.117 1.22012 1.45647 0
M  V30 3956 H 368.267 0.551058 3.84572 0
M  V30 3957 H 369.939 3.12179 3.3962 0
M  V30 3958 H 368.182 2.98641 3.14636 0
M  V30 3959 H 368.853 2.78255 4.76737 0
M  V30 3960 H 371.329 0.998465 4.03943 0
M  V30 3961 H 370.205 0.881663 5.41773 0
M  V30 3962 H 370.466 -0.519052 4.39042 0
M  V30 3963 N 369.525 -1.3858 0.750561 0
M  V30 3964 C 370.472 -2.30483 0.120835 0
M  V30 3965 C 371.442 -1.50022 -0.712923 0
M  V30 3966 O 372.627 -1.78662 -0.669676 0
M  V30 3967 C 369.767 -3.36431 -0.768666 0
M  V30 3968 C 368.88 -4.31927 0.0793922 0
M  V30 3969 C 368.015 -5.24944 -0.81283 0
M  V30 3970 C 367.054 -6.12088 0.0390447 0
M  V30 3971 N 366.191 -6.97412 -0.809969 0
M  V30 3972 H 371.031 -2.83761 0.91015 0
M  V30 3973 H 368.568 -1.39707 0.460463 0
M  V30 3974 H 370.526 -3.96462 -1.29898 0
M  V30 3975 H 369.156 -2.8457 -1.5238 0
M  V30 3976 H 368.208 -3.73382 0.727303 0
M  V30 3977 H 369.52 -4.93319 0.737401 0
M  V30 3978 H 368.674 -5.90078 -1.41042 0
M  V30 3979 H 367.413 -4.63911 -1.50458 0
M  V30 3980 H 366.418 -5.45952 0.649328 0
M  V30 3981 H 367.643 -6.75189 0.727809 0
M  V30 3982 H 365.589 -6.38931 -1.48672 0
M  V30 3983 H 365.506 -7.55712 -0.208789 0
M  V30 3984 H 366.774 -7.66959 -1.39263 0
M  V30 3985 N 371.003 -0.499398 -1.49478 0
M  V30 3986 C 371.953 0.299103 -2.2603 0
M  V30 3987 C 372.937 0.936934 -1.30807 0
M  V30 3988 O 374.129 0.844798 -1.55538 0
M  V30 3989 C 371.258 1.36391 -3.15044 0
M  V30 3990 C 370.344 0.732398 -4.17728 0
M  V30 3991 N 370.735 -0.164028 -5.05534 0
M  V30 3992 C 369.033 0.993162 -4.34801 0
M  V30 3993 C 369.734 -0.525345 -5.79323 0
M  V30 3994 N 368.71 0.106348 -5.43496 0
M  V30 3995 H 372.512 -0.391003 -2.91287 0
M  V30 3996 H 370.026 -0.31537 -1.59308 0
M  V30 3997 H 372.023 1.94939 -3.68516 0
M  V30 3998 H 370.683 2.05571 -2.51338 0
M  V30 3999 H 371.694 -0.534736 -5.15132 0
M  V30 4000 H 368.371 1.67783 -3.82302 0
M  V30 4001 H 369.761 -1.25862 -6.60006 0
M  V30 4002 N 372.481 1.55866 -0.233164 0
M  V30 4003 C 373.411 2.23783 0.666599 0
M  V30 4004 C 374.392 1.21343 1.19205 0
M  V30 4005 O 375.577 1.4996 1.23392 0
M  V30 4006 C 372.707 2.92671 1.86978 0
M  V30 4007 C 371.661 4.01682 1.47768 0
M  V30 4008 C 370.987 4.57926 2.76058 0
M  V30 4009 C 372.287 5.18126 0.658993 0
M  V30 4010 H 373.981 2.99232 0.100306 0
M  V30 4011 H 371.527 1.43924 0.046804 0
M  V30 4012 H 373.48 3.3888 2.50476 0
M  V30 4013 H 372.204 2.14688 2.46123 0
M  V30 4014 H 370.863 3.56222 0.866106 0
M  V30 4015 H 370.511 3.76659 3.33372 0
M  V30 4016 H 370.211 5.31505 2.50552 0
M  V30 4017 H 371.735 5.06859 3.40479 0
M  V30 4018 H 373.149 5.60644 1.19795 0
M  V30 4019 H 371.546 5.98009 0.500552 0
M  V30 4020 H 372.616 4.83763 -0.331856 0
M  V30 4021 N 373.959 -0.0401083 1.57549 0
M  V30 4022 C 375.207 -0.731677 1.8839 0
M  V30 4023 C 375.528 -1.76481 0.829425 0
M  V30 4024 O 374.798 -1.95411 -0.1383 0
M  V30 4025 H 373.378 -0.273225 0.695239 0
M  V30 4026 H 376.04 -0.00867725 1.94898 0
M  V30 4027 H 375.136 -1.22816 2.86919 0
M  V30 4028 N 375.437 -1.54477 -0.31217 0
M  V30 4029 C 376.853 -1.45442 -0.657185 0
M  V30 4030 C 377.053 -0.63653 -1.91182 0
M  V30 4031 O 376.109 -0.139815 -2.52113 0
M  V30 4032 C 377.422 -2.89287 -0.82058 0
M  V30 4033 C 378.97 -2.9926 -0.917188 0
M  V30 4034 C 379.445 -4.44279 -1.11267 0
M  V30 4035 N 380.936 -4.4794 -1.17914 0
M  V30 4036 C 381.671 -5.57318 -1.34848 0
M  V30 4037 N 381.167 -6.76642 -1.48752 0
M  V30 4038 N 382.96 -5.44986 -1.37647 0
M  V30 4039 H 375.111 -2.06129 0.512313 0
M  V30 4040 H 377.374 -0.933088 0.167485 0
M  V30 4041 H 377.08 -3.51687 0.0302604 0
M  V30 4042 H 376.954 -3.36061 -1.71298 0
M  V30 4043 H 379.341 -2.36981 -1.75852 0
M  V30 4044 H 379.422 -2.558 -0.00101257 0
M  V30 4045 H 379.066 -5.07149 -0.27614 0
M  V30 4046 H 378.996 -4.85359 -2.04289 0
M  V30 4047 H 381.487 -3.61969 -1.08567 0
M  V30 4048 H 381.8 -7.55758 -1.61397 0
M  V30 4049 H 380.145 -6.79529 -1.45828 0
M  V30 4050 H 383.336 -4.50715 -1.26388 0
M  V30 4051 H 383.509 -6.3028 -1.50501 0
M  V30 4052 N 376.915 0.57481 -1.46744 0
M  V30 4053 C 377.878 1.66533 -1.57478 0
M  V30 4054 C 378.878 1.54338 -0.451263 0
M  V30 4055 O 380.068 1.58814 -0.715813 0
M  V30 4056 C 377.2 3.05999 -1.50259 0
M  V30 4057 H 378.393 1.58372 -2.54673 0
M  V30 4058 H 375.946 0.793301 -1.34672 0
M  V30 4059 H 376.681 3.19709 -0.543725 0
M  V30 4060 H 376.466 3.16259 -2.31781 0
M  V30 4061 H 377.956 3.8537 -1.60872 0
M  V30 4062 N 378.394 1.34581 0.820102 0
M  V30 4063 C 379.304 1.28471 1.96297 0
M  V30 4064 C 380.32 0.191902 1.72939 0
M  V30 4065 O 381.496 0.418879 1.96996 0
M  V30 4066 C 378.561 1.04281 3.30645 0
M  V30 4067 C 377.622 2.22745 3.66992 0
M  V30 4068 C 376.855 1.997 4.9493 0
M  V30 4069 O 377.078 0.956656 5.6232 0
M  V30 4070 O 376.012 2.86723 5.2922 0
M  V30 4071 H 379.838 2.24624 2.04396 0
M  V30 4072 H 377.423 1.14816 0.955913 0
M  V30 4073 H 379.305 0.925841 4.11104 0
M  V30 4074 H 377.98 0.111697 3.23507 0
M  V30 4075 H 376.887 2.40003 2.86966 0
M  V30 4076 H 378.22 3.14257 3.78819 0
M  V30 4077 N 379.872 -1.04064 1.18357 0
M  V30 4078 C 380.802 -2.14001 0.934113 0
M  V30 4079 C 381.783 -1.69616 -0.128186 0
M  V30 4080 O 382.968 -1.94185 0.0244093 0
M  V30 4081 C 380.098 -3.44253 0.459066 0
M  V30 4082 C 379.052 -4.02261 1.46185 0
M  V30 4083 C 378.378 -5.27992 0.844322 0
M  V30 4084 C 379.678 -4.38432 2.83856 0
M  V30 4085 H 381.372 -2.35127 1.85352 0
M  V30 4086 H 378.918 -1.12998 0.892604 0
M  V30 4087 H 380.871 -4.20522 0.271907 0
M  V30 4088 H 379.595 -3.22813 -0.495912 0
M  V30 4089 H 378.254 -3.28074 1.63595 0
M  V30 4090 H 377.902 -5.02862 -0.117845 0
M  V30 4091 H 377.602 -5.67765 1.51384 0
M  V30 4092 H 379.126 -6.06938 0.667693 0
M  V30 4093 H 380.54 -5.05688 2.70098 0
M  V30 4094 H 378.937 -4.89254 3.47491 0
M  V30 4095 H 380.007 -3.4826 3.37406 0
M  V30 4096 N 381.35 -0.985608 -1.22978 0
M  V30 4097 C 382.598 -0.656087 -1.91154 0
M  V30 4098 C 382.919 0.813561 -1.77218 0
M  V30 4099 O 382.189 1.58244 -1.1548 0
M  V30 4100 H 380.769 -0.239674 -0.707506 0
M  V30 4101 H 383.431 -1.25054 -1.49491 0
M  V30 4102 H 382.527 -0.912253 -2.9847 0
M  V30 4103 N 382.828 1.3818 -0.7579 0
M  V30 4104 C 383.761 2.28055 -0.0814093 0
M  V30 4105 C 384.739 1.45603 0.723779 0
M  V30 4106 O 385.923 1.74961 0.701491 0
M  V30 4107 C 383.05 3.2676 0.891394 0
M  V30 4108 C 382.096 4.26153 0.171909 0
M  V30 4109 S 382.929 5.23434 -1.13035 0
M  V30 4110 C 384.085 6.25694 -0.160727 0
M  V30 4111 H 384.318 2.85082 -0.84353 0
M  V30 4112 H 381.851 1.44246 -0.550671 0
M  V30 4113 H 383.809 3.8414 1.44731 0
M  V30 4114 H 382.47 2.68706 1.62652 0
M  V30 4115 H 381.663 4.95738 0.908843 0
M  V30 4116 H 381.265 3.72691 -0.312606 0
M  V30 4117 H 383.557 6.74161 0.671773 0
M  V30 4118 H 384.5 7.03285 -0.824353 0
M  V30 4119 H 384.908 5.64064 0.221892 0
M  V30 4120 N 384.306 0.507319 1.49211 0
M  V30 4121 C 385.554 -0.0348839 2.0207 0
M  V30 4122 C 385.875 -1.36898 1.38866 0
M  V30 4123 O 385.145 -1.88133 0.546151 0
M  V30 4124 H 383.725 -0.0158812 0.746831 0
M  V30 4125 H 386.387 0.665998 1.83168 0
M  V30 4126 H 385.483 -0.159917 3.1169 0
M  V30 4127 N 385.784 -1.5574 0.241426 0
M  V30 4128 C 387.061 -1.90704 -0.434881 0
M  V30 4129 C 387.441 -1.16145 -1.76277 0
M  V30 4130 O 386.789 -0.277152 -2.26813 0
M  V30 4131 C 386.999 -3.43657 -0.608343 0
M  V30 4132 C 388.347 -4.14806 -0.906725 0
M  V30 4133 O 389.371 -3.49366 -0.694408 0
M  V30 4134 O 388.23 -5.30548 -1.31075 0
M  V30 4135 H 385.324 -0.793592 -0.23268 0
M  V30 4136 H 387.87 -1.67288 0.285086 0
M  V30 4137 H 386.642 -3.89927 0.327505 0
M  V30 4138 H 386.265 -3.72918 -1.37906 0
M  V30 4139 N 387.262 0.0317525 -1.57568 0
M  V30 4140 C 388.487 0.738664 -1.938 0
M  V30 4141 C 388.912 1.68242 -0.841208 0
M  V30 4142 O 388.27 1.80157 0.203267 0
M  V30 4143 C 388.318 1.47417 -3.29091 0
M  V30 4144 O 387.422 2.5872 -3.2115 0
M  V30 4145 H 386.763 0.198856 -0.633524 0
M  V30 4146 H 389.293 -0.0119713 -2.04596 0
M  V30 4147 H 389.303 1.84468 -3.63917 0
M  V30 4148 H 387.978 0.781988 -4.08482 0
M  V30 4149 H 386.555 2.24231 -2.97951 0
M  V30 4150 N 388.74 1.54641 0.303973 0
M  V30 4151 C 389.968 1.77768 1.05858 0
M  V30 4152 C 390.383 0.535722 1.8104 0
M  V30 4153 O 389.74 -0.494337 1.75677 0
M  V30 4154 C 389.791 2.9834 2.04146 0
M  V30 4155 O 389.512 4.17736 1.32015 0
M  V30 4156 C 391.013 3.33832 2.91669 0
M  V30 4157 H 388.233 0.592961 0.314067 0
M  V30 4158 H 390.777 2.01583 0.344149 0
M  V30 4159 H 388.932 2.76742 2.71096 0
M  V30 4160 H 389.346 4.85693 1.97998 0
M  V30 4161 H 390.82 4.21448 3.56491 0
M  V30 4162 H 391.297 2.51857 3.59812 0
M  V30 4163 H 391.903 3.57579 2.30254 0
M  V30 4164 N 390.218 -0.567019 1.47046 0
M  V30 4165 C 391.443 -1.3551 1.57009 0
M  V30 4166 C 391.868 -1.86841 0.217259 0
M  V30 4167 O 391.226 -1.62435 -0.805268 0
M  V30 4168 C 391.274 -2.50777 2.5912 0
M  V30 4169 O 390.378 -3.52706 2.13711 0
M  V30 4170 H 389.719 -0.402919 0.52778 0
M  V30 4171 H 392.249 -0.686241 1.92748 0
M  V30 4172 H 392.259 -2.97481 2.79229 0
M  V30 4173 H 390.934 -2.12771 3.57353 0
M  V30 4174 H 389.511 -3.12374 2.03659 0
M  V30 4175 N 391.696 -1.35014 -0.812953 0
M  V30 4176 C 392.628 -1.23262 -1.93233 0
M  V30 4177 C 393.641 -0.157371 -1.62038 0
M  V30 4178 O 394.83 -0.410096 -1.73725 0
M  V30 4179 C 391.93 -0.87392 -3.27438 0
M  V30 4180 C 391.103 -2.04622 -3.86586 0
M  V30 4181 C 390.162 -1.66432 -4.99186 0
M  V30 4182 O 389.188 -2.38222 -5.16951 0
M  V30 4183 N 390.39 -0.584248 -5.77552 0
M  V30 4184 H 393.155 -2.19699 -2.03844 0
M  V30 4185 H 390.716 -1.281 -0.99005 0
M  V30 4186 H 392.708 -0.600039 -4.00227 0
M  V30 4187 H 391.278 0.00057392 -3.126 0
M  V30 4188 H 390.498 -2.48427 -3.06068 0
M  V30 4189 H 391.786 -2.82999 -4.22835 0
M  V30 4190 H 391.184 0.0123526 -5.65699 0
M  V30 4191 H 389.741 -0.37013 -6.50748 0
M  V30 4192 N 393.175 1.03435 -1.18907 0
M  V30 4193 C 394.4 1.80919 -1.01406 0
M  V30 4194 C 394.825 1.83055 0.432721 0
M  V30 4195 O 394.183 1.25252 1.31079 0
M  V30 4196 C 394.231 3.24091 -1.58105 0
M  V30 4197 O 393.335 4.04434 -0.806669 0
M  V30 4198 H 392.676 0.558709 -0.358803 0
M  V30 4199 H 395.206 1.30223 -1.57807 0
M  V30 4200 H 395.216 3.74853 -1.61087 0
M  V30 4201 H 393.891 3.21851 -2.6341 0
M  V30 4202 H 392.468 3.63091 -0.849666 0
M  V30 4203 N 394.653 0.992116 1.22453 0
M  V30 4204 C 396.064 0.702776 1.72968 0
M  V30 4205 C 396.415 -0.780399 1.80012 0
M  V30 4206 O 395.54 -1.61007 1.44589 0
M  V30 4207 C 396.135 1.26903 3.14135 0
M  V30 4208 C 394.694 1.02909 3.62059 0
M  V30 4209 C 393.841 1.38969 2.39964 0
M  V30 4210 H 396.792 1.16457 1.07812 0
M  V30 4211 H 396.813 0.647223 3.74955 0
M  V30 4212 H 396.325 2.34851 3.08977 0
M  V30 4213 H 394.426 -0.0337979 3.72585 0
M  V30 4214 H 394.539 1.69191 4.48231 0
M  V30 4215 H 392.903 0.808279 2.41535 0
M  V30 4216 H 393.686 2.4792 2.37467 0
M  V30 4217 N 396.131 -1.37776 0.765217 0
M  V30 4218 C 397.542 -1.82521 0.392819 0
M  V30 4219 C 397.893 -1.63789 -1.08017 0
M  V30 4220 O 397.018 -1.14542 -1.83601 0
M  V30 4221 C 397.613 -3.31358 0.706214 0
M  V30 4222 C 396.172 -3.74406 0.386952 0
M  V30 4223 C 395.319 -2.60394 0.953422 0
M  V30 4224 H 398.27 -1.2634 0.960412 0
M  V30 4225 H 398.291 -3.80498 -0.0114706 0
M  V30 4226 H 397.803 -3.44959 1.77833 0
M  V30 4227 H 395.904 -3.66377 -0.678112 0
M  V30 4228 H 396.017 -4.70749 0.890636 0
M  V30 4229 H 394.381 -2.51878 0.378064 0
M  V30 4230 H 395.164 -2.76791 2.03081 0
M  V30 4231 N 397.609 -0.515225 -1.4894 0
M  V30 4232 C 398.858 0.0261361 -2.01683 0
M  V30 4233 C 399.171 1.36719 -1.39883 0
M  V30 4234 O 400.377 1.99606 -1.84037 0
M  V30 4235 C 398.833 0.0970111 -3.59769 0
M  V30 4236 C 398.441 -1.23825 -4.30548 0
M  V30 4237 C 400.185 0.587981 -4.20408 0
M  V30 4238 C 398.092 -1.12877 -5.80528 0
M  V30 4239 H 397.022 0.0135398 -0.753878 0
M  V30 4240 H 399.673 -0.656787 -1.71343 0
M  V30 4241 H 398.055 0.844694 -3.86886 0
M  V30 4242 H 399.229 -2.00034 -4.15118 0
M  V30 4243 H 397.544 -1.66379 -3.81716 0
M  V30 4244 H 400.141 0.68763 -5.3026 0
M  V30 4245 H 400.484 1.59026 -3.84729 0
M  V30 4246 H 401.017 -0.103582 -3.97665 0
M  V30 4247 H 397.756 -2.10575 -6.20756 0
M  V30 4248 H 397.276 -0.407799 -5.98412 0
M  V30 4249 H 398.955 -0.813332 -6.41868 0
M  V30 4250 N 399.087 1.5561 -0.249682 0
M  V30 4251 C 400.034 2.21496 0.648694 0
M  V30 4252 C 401.004 1.17977 1.16921 0
M  V30 4253 O 402.189 1.46434 1.22318 0
M  V30 4254 C 399.329 2.92039 1.83868 0
M  V30 4255 C 398.442 4.10219 1.35442 0
M  V30 4256 C 397.577 4.6847 2.50419 0
M  V30 4257 C 396.616 5.78893 1.98869 0
M  V30 4258 N 395.753 6.31315 3.07223 0
M  V30 4259 H 400.593 2.97892 0.0801582 0
M  V30 4260 H 398.13 1.47074 0.0278031 0
M  V30 4261 H 400.088 3.31138 2.53778 0
M  V30 4262 H 398.718 2.18111 2.37965 0
M  V30 4263 H 397.77 3.76413 0.54928 0
M  V30 4264 H 399.082 4.89927 0.936649 0
M  V30 4265 H 398.236 5.10158 3.28366 0
M  V30 4266 H 396.975 3.87984 2.95499 0
M  V30 4267 H 395.98 5.3668 1.19393 0
M  V30 4268 H 397.205 6.61232 1.54755 0
M  V30 4269 H 395.151 5.53733 3.51732 0
M  V30 4270 H 395.068 7.06224 2.69784 0
M  V30 4271 H 396.336 6.77662 3.8522 0
M  V30 4272 N 400.565 -0.0233959 1.57583 0
M  V30 4273 C 401.981 -0.379134 1.55031 0
M  V30 4274 C 402.181 -1.76255 0.976548 0
M  V30 4275 O 401.237 -2.45266 0.600078 0
M  V30 4276 C 402.55 -0.275792 2.99433 0
M  V30 4277 C 404.098 -0.352458 3.11009 0
M  V30 4278 C 404.573 -0.278501 4.57152 0
M  V30 4279 N 406.064 -0.337123 4.61972 0
M  V30 4280 C 406.799 -0.302876 5.726 0
M  V30 4281 N 406.295 -0.220589 6.92449 0
M  V30 4282 N 408.088 -0.353023 5.6099 0
M  V30 4283 H 400.239 0.881869 1.93227 0
M  V30 4284 H 402.502 0.335867 0.886509 0
M  V30 4285 H 402.208 0.675108 3.4516 0
M  V30 4286 H 402.082 -1.06721 3.61788 0
M  V30 4287 H 404.469 -1.29379 2.65226 0
M  V30 4288 H 404.55 0.468409 2.51475 0
M  V30 4289 H 404.194 0.659189 5.03604 0
M  V30 4290 H 404.124 -1.11755 5.14605 0
M  V30 4291 H 406.615 -0.403002 3.75745 0
M  V30 4292 H 406.928 -0.199713 7.72542 0
M  V30 4293 H 405.273 -0.186555 6.9475 0
M  V30 4294 H 408.464 -0.415339 4.66254 0
M  V30 4295 H 408.637 -0.322866 6.47195 0
M  V30 4296 N 402.043 -1.548 -0.295768 0
M  V30 4297 C 403.268 -1.78653 -1.05346 0
M  V30 4298 C 403.693 -0.546894 -1.79974 0
M  V30 4299 O 403.051 0.502763 -1.7419 0
M  V30 4300 C 403.099 -2.99679 -2.00561 0
M  V30 4301 O 402.203 -2.7317 -3.08953 0
M  V30 4302 H 401.544 -0.59116 -0.302367 0
M  V30 4303 H 404.074 -2.01895 -0.331598 0
M  V30 4304 H 404.084 -3.27793 -2.42932 0
M  V30 4305 H 402.759 -3.89562 -1.4565 0
M  V30 4306 H 401.336 -2.56089 -2.71059 0
M  V30 4307 N 403.521 0.559213 -1.47345 0
M  V30 4308 C 404.761 1.32728 -1.55444 0
M  V30 4309 C 405.125 1.90838 -0.210895 0
M  V30 4310 O 406.326 2.68282 -0.166719 0
M  V30 4311 C 404.597 2.4092 -2.63993 0
M  V30 4312 S 406.156 3.2784 -2.91661 0
M  V30 4313 H 402.974 0.451883 -0.548929 0
M  V30 4314 H 405.576 0.640404 -1.84714 0
M  V30 4315 H 404.28 1.9666 -3.60212 0
M  V30 4316 H 403.811 3.14351 -2.36531 0
M  V30 4317 H 405.826 4.40341 -2.28722 0
M  V30 4318 N 404.999 1.35443 0.805782 0
M  V30 4319 C 406.41 1.25768 1.37983 0
M  V30 4320 C 406.761 -0.10958 1.95894 0
M  V30 4321 O 405.886 -1.01056 1.91355 0
M  V30 4322 C 406.481 2.27727 2.5085 0
M  V30 4323 C 405.04 2.2179 3.04115 0
M  V30 4324 C 404.187 2.13393 1.77084 0
M  V30 4325 H 407.138 1.4656 0.608752 0
M  V30 4326 H 407.159 1.90422 3.29424 0
M  V30 4327 H 406.671 3.27227 2.08671 0
M  V30 4328 H 404.772 1.25703 3.50756 0
M  V30 4329 H 404.885 3.13788 3.62042 0
M  V30 4330 H 403.249 1.59384 1.98668 0
M  V30 4331 H 404.032 3.14755 1.37056 0
M  V30 4332 N 406.477 -1.02803 1.19454 0
M  V30 4333 C 407.754 -1.73299 0.907013 0
M  V30 4334 C 408.134 -2.02772 -0.587086 0
M  V30 4335 O 407.482 -1.68304 -1.54551 0
M  V30 4336 C 407.692 -3.00912 1.76785 0
M  V30 4337 C 409.04 -3.74403 2.00268 0
M  V30 4338 O 410.064 -3.10841 1.73943 0
M  V30 4339 O 408.923 -4.88675 2.4466 0
M  V30 4340 H 406.017 -0.754727 0.338106 0
M  V30 4341 H 408.563 -1.08754 1.30271 0
M  V30 4342 H 407.335 -2.75366 2.7801 0
M  V30 4343 H 406.958 -3.73197 1.37149 0
M  V30 4344 N 407.956 -0.998596 -1.21925 0
M  V30 4345 C 409.202 -0.678667 -1.91107 0
M  V30 4346 C 409.535 0.78791 -1.77498 0
M  V30 4347 O 408.81 1.57043 -1.1475 0
M  V30 4348 C 409.093 -1.09245 -3.43129 0
M  V30 4349 C 408.946 -2.61801 -3.6576 0
M  V30 4350 C 410.265 -0.649984 -4.35274 0
M  V30 4351 H 407.384 -0.248025 -0.694012 0
M  V30 4352 H 410.026 -1.24314 -1.43688 0
M  V30 4353 H 408.176 -0.612171 -3.83647 0
M  V30 4354 H 409.848 -3.17543 -3.34611 0
M  V30 4355 H 408.091 -3.03609 -3.09845 0
M  V30 4356 H 408.762 -2.85804 -4.7225 0
M  V30 4357 H 411.238 -1.0626 -4.02303 0
M  V30 4358 H 410.114 -0.967743 -5.40302 0
M  V30 4359 H 410.375 0.449139 -4.39813 0
M  V30 4360 N 409.434 1.37368 -0.772513 0
M  V30 4361 C 410.366 2.28899 -0.117502 0
M  V30 4362 C 411.379 1.4867 0.663405 0
M  V30 4363 O 412.568 1.71314 0.501372 0
M  V30 4364 C 409.668 3.2788 0.857192 0
M  V30 4365 C 408.841 4.37207 0.129938 0
M  V30 4366 C 407.9 5.16257 1.01811 0
M  V30 4367 O 406.926 5.67159 0.481601 0
M  V30 4368 N 408.128 5.31058 2.3443 0
M  V30 4369 H 410.893 2.85752 -0.903662 0
M  V30 4370 H 408.454 1.49353 -0.62493 0
M  V30 4371 H 410.446 3.77647 1.45482 0
M  V30 4372 H 409.016 2.7179 1.54432 0
M  V30 4373 H 408.236 3.88827 -0.648605 0
M  V30 4374 H 409.524 5.07434 -0.372559 0
M  V30 4375 H 408.922 4.91287 2.80452 0
M  V30 4376 H 407.479 5.84131 2.89197 0
M  V30 4377 N 410.912 0.523116 1.48665 0
M  V30 4378 C 412.161 -0.01544 2.01694 0
M  V30 4379 C 412.474 -1.35975 1.40606 0
M  V30 4380 O 413.68 -1.98627 1.85093 0
M  V30 4381 C 412.136 -0.0779303 3.59816 0
M  V30 4382 C 411.744 1.26107 4.29885 0
M  V30 4383 C 413.488 -0.565678 4.20714 0
M  V30 4384 C 411.395 1.15954 5.79921 0
M  V30 4385 H 410.325 -0.00954163 0.75394 0
M  V30 4386 H 412.976 0.665865 1.70993 0
M  V30 4387 H 411.358 -0.824165 3.87329 0
M  V30 4388 H 412.532 2.02233 4.14051 0
M  V30 4389 H 410.847 1.68401 3.80828 0
M  V30 4390 H 413.444 -0.6595 5.30617 0
M  V30 4391 H 413.787 -1.56984 3.85567 0
M  V30 4392 H 414.32 0.12467 3.97605 0
M  V30 4393 H 411.059 2.13864 6.19631 0
M  V30 4394 H 410.579 0.439529 5.98187 0
M  V30 4395 H 412.258 0.847361 6.41427 0
M  V30 4396 N 412.39 -1.55475 0.257931 0
M  V30 4397 C 413.615 -2.04064 -0.370488 0
M  V30 4398 C 414.04 -1.13565 -1.49948 0
M  V30 4399 O 413.398 -0.130781 -1.80828 0
M  V30 4400 C 413.446 -3.50554 -0.845237 0
M  V30 4401 O 412.55 -3.63173 -1.95394 0
M  V30 4402 H 411.891 -0.659257 -0.0792243 0
M  V30 4403 H 414.421 -2.00903 0.387212 0
M  V30 4404 H 414.431 -3.91588 -1.14555 0
M  V30 4405 H 413.106 -4.15896 -0.0191259 0
M  V30 4406 H 411.683 -3.34039 -1.65748 0
M  V30 4407 N 413.868 0.0150385 -1.57593 0
M  V30 4408 C 415.114 0.69849 -1.91031 0
M  V30 4409 C 415.469 1.72208 -0.85804 0
M  V30 4410 O 414.762 1.91147 0.131614 0
M  V30 4411 C 414.956 1.39686 -3.28972 0
M  V30 4412 C 414.785 0.442428 -4.47518 0
M  V30 4413 C 413.555 0.0583223 -5.05266 0
M  V30 4414 C 415.753 -0.285072 -5.13509 0
M  V30 4415 N 413.735 -0.895893 -6.07328 0
M  V30 4416 C 415.106 -1.09447 -6.10263 0
M  V30 4417 C 417.161 -0.350518 -4.96665 0
M  V30 4418 C 415.864 -1.96333 -6.91987 0
M  V30 4419 C 417.89 -1.20655 -5.78962 0
M  V30 4420 C 417.252 -2.00383 -6.75297 0
M  V30 4421 H 413.351 0.22926 -0.747639 0
M  V30 4422 H 415.935 -0.0417748 -1.94655 0
M  V30 4423 H 414.106 2.1075 -3.2625 0
M  V30 4424 H 415.838 2.03381 -3.49883 0
M  V30 4425 H 412.593 0.423506 -4.71703 0
M  V30 4426 H 413.017 -1.36792 -6.63036 0
M  V30 4427 H 417.659 0.251596 -4.22051 0
M  V30 4428 H 415.377 -2.57618 -7.65936 0
M  V30 4429 H 418.963 -1.2609 -5.67972 0
M  V30 4430 H 417.843 -2.65552 -7.3787 0
M  V30 4431 N 415.346 1.54954 0.287554 0
M  V30 4432 C 416.294 1.87606 1.37502 0
M  V30 4433 C 417.288 0.751001 1.51843 0
M  V30 4434 O 418.494 0.935169 1.53801 0
M  V30 4435 H 414.869 0.595231 0.459569 0
M  V30 4436 H 416.84 2.78477 1.07206 0
M  V30 4437 C 415.589 2.15183 2.73115 0
M  V30 4438 H 414.912 3.01234 2.62866 0
M  V30 4439 H 416.352 2.4196 3.48183 0
M  V30 4440 C 414.811 0.954686 3.2309 0
M  V30 4441 O 415.341 0.181949 4.01288 0
M  V30 4442 N 413.547 0.756368 2.80584 0
M  V30 4443 H 413.094 1.38643 2.17108 0
M  V30 4444 H 413.052 -0.0430391 3.14371 0
M  V30 4445 N 416.824 -0.551391 1.4764 0
M  V30 4446 C 417.756 -1.67333 1.56628 0
M  V30 4447 C 418.769 -1.56398 0.452045 0
M  V30 4448 O 419.958 -1.6325 0.721926 0
M  V30 4449 C 417.058 -3.05841 1.45994 0
M  V30 4450 C 416.231 -3.42472 2.72088 0
M  V30 4451 C 415.29 -4.60168 2.55209 0
M  V30 4452 O 414.316 -4.64458 3.2904 0
M  V30 4453 N 415.518 -5.57024 1.63416 0
M  V30 4454 H 418.283 -1.60066 2.53375 0
M  V30 4455 H 415.844 -0.738169 1.44093 0
M  V30 4456 H 417.836 -3.8242 1.32428 0
M  V30 4457 H 416.406 -3.07302 0.573071 0
M  V30 4458 H 415.626 -2.55284 3.00373 0
M  V30 4459 H 416.914 -3.63723 3.55785 0
M  V30 4460 H 416.312 -5.56319 1.02594 0
M  V30 4461 H 414.869 -6.32906 1.558 0
M  V30 4462 N 418.302 -1.35869 -0.798587 0
M  V30 4463 C 419.55 -1.29332 -1.55298 0
M  V30 4464 C 419.871 0.129729 -1.94568 0
M  V30 4465 O 419.141 1.06796 -1.6423 0
M  V30 4466 H 417.721 -0.475737 -0.57592 0
M  V30 4467 H 420.383 -1.70062 -0.952093 0
M  V30 4468 H 419.479 -1.91458 -2.46476 0
M  V30 4469 N 419.78 1.02168 -1.19998 0
M  V30 4470 C 421.029 1.75091 -1.0013 0
M  V30 4471 C 421.342 1.89923 0.467835 0
M  V30 4472 O 422.548 2.59888 0.785515 0
M  V30 4473 C 421.004 3.14892 -1.74273 0
M  V30 4474 C 420.612 3.0809 -3.25245 0
M  V30 4475 C 422.356 3.9206 -1.62755 0
M  V30 4476 C 420.263 4.42867 -3.91948 0
M  V30 4477 H 419.193 0.656394 -0.37103 0
M  V30 4478 H 421.844 1.14284 -1.43567 0
M  V30 4479 H 420.226 3.7621 -1.2362 0
M  V30 4480 H 421.4 2.5611 -3.83072 0
M  V30 4481 H 419.715 2.44416 -3.3712 0
M  V30 4482 H 422.312 4.91764 -2.09934 0
M  V30 4483 H 422.655 4.12199 -0.582894 0
M  V30 4484 H 423.188 3.37359 -2.10793 0
M  V30 4485 H 419.927 4.27931 -4.96543 0
M  V30 4486 H 419.447 4.94874 -3.3891 0
M  V30 4487 H 421.126 5.11728 -3.95909 0
M  V30 4488 N 421.258 1.00505 1.21394 0
M  V30 4489 C 422.535 0.603277 1.86064 0
M  V30 4490 C 422.915 -0.919095 1.90042 0
M  V30 4491 O 422.263 -1.80607 1.39977 0
M  V30 4492 C 422.473 1.23772 3.26315 0
M  V30 4493 C 423.821 1.34586 4.02705 0
M  V30 4494 O 424.845 1.19304 3.35626 0
M  V30 4495 O 423.704 1.59169 5.22807 0
M  V30 4496 H 420.798 0.206634 0.800769 0
M  V30 4497 H 423.344 1.1017 1.29076 0
M  V30 4498 H 422.116 2.27848 3.18121 0
M  V30 4499 H 421.739 0.725648 3.90922 0
M  V30 4500 N 422.737 -1.36956 0.779787 0
M  V30 4501 C 423.667 -2.32761 0.185651 0
M  V30 4502 C 424.648 -1.56177 -0.673989 0
M  V30 4503 O 425.833 -1.84378 -0.609797 0
M  V30 4504 C 422.963 -3.40418 -0.687964 0
M  V30 4505 C 421.917 -4.27941 0.0710102 0
M  V30 4506 C 421.243 -5.26681 -0.922573 0
M  V30 4507 C 422.543 -5.07006 1.25467 0
M  V30 4508 H 424.237 -2.82698 0.986008 0
M  V30 4509 H 421.783 -1.3592 0.475592 0
M  V30 4510 H 423.736 -4.06423 -1.11348 0
M  V30 4511 H 422.46 -2.89025 -1.52093 0
M  V30 4512 H 421.119 -3.63478 0.47739 0
M  V30 4513 H 420.767 -4.71565 -1.7503 0
M  V30 4514 H 420.467 -5.86103 -0.419237 0
M  V30 4515 H 421.991 -5.9556 -1.34686 0
M  V30 4516 H 423.405 -5.66105 0.905401 0
M  V30 4517 H 421.802 -5.75793 1.69063 0
M  V30 4518 H 422.872 -4.3921 2.05481 0
M  V30 4519 N 424.215 -0.530993 -1.48385 0
M  V30 4520 C 425.461 -0.00538653 -2.03399 0
M  V30 4521 C 425.816 1.31899 -1.40073 0
M  V30 4522 O 425.109 1.83901 -0.537676 0
M  V30 4523 C 425.303 0.172742 -3.56982 0
M  V30 4524 C 425.132 -1.13282 -4.35198 0
M  V30 4525 C 423.902 -1.69296 -4.76096 0
M  V30 4526 C 426.1 -2.04367 -4.71952 0
M  V30 4527 N 424.082 -2.9413 -5.38851 0
M  V30 4528 C 425.453 -3.13777 -5.34737 0
M  V30 4529 C 427.508 -2.04681 -4.53883 0
M  V30 4530 C 426.211 -4.23567 -5.81363 0
M  V30 4531 C 428.237 -3.13466 -5.01491 0
M  V30 4532 C 427.599 -4.21595 -5.64302 0
M  V30 4533 H 423.698 -0.0434945 -0.780789 0
M  V30 4534 H 426.282 -0.712495 -1.81195 0
M  V30 4535 H 424.453 0.848937 -3.79009 0
M  V30 4536 H 426.185 0.698046 -3.98634 0
M  V30 4537 H 422.94 -1.23422 -4.57235 0
M  V30 4538 H 423.364 -3.57689 -5.74794 0
M  V30 4539 H 428.006 -1.22378 -4.04702 0
M  V30 4540 H 425.724 -5.06648 -6.2955 0
M  V30 4541 H 429.31 -3.14765 -4.893 0
M  V30 4542 H 428.19 -5.04384 -6.00472 0
M  V30 4543 N 425.693 1.55336 -0.266172 0
M  V30 4544 C 426.939 2.00423 0.346714 0
M  V30 4545 C 427.294 1.15132 1.54151 0
M  V30 4546 O 426.587 0.211289 1.90431 0
M  V30 4547 C 426.781 3.48606 0.787957 0
M  V30 4548 C 426.61 4.48236 -0.362535 0
M  V30 4549 C 425.38 4.98211 -0.843445 0
M  V30 4550 C 427.578 5.00199 -1.19603 0
M  V30 4551 N 425.56 5.81625 -1.96434 0
M  V30 4552 C 426.931 5.80973 -2.16497 0
M  V30 4553 C 428.986 4.82458 -1.2304 0
M  V30 4554 C 427.689 6.45896 -3.1656 0
M  V30 4555 C 429.715 5.48174 -2.21944 0
M  V30 4556 C 429.077 6.28751 -3.17571 0
M  V30 4557 H 425.176 0.776535 0.0922914 0
M  V30 4558 H 427.76 1.90792 -0.388154 0
M  V30 4559 H 425.931 3.58597 1.49207 0
M  V30 4560 H 427.663 3.80538 1.37742 0
M  V30 4561 H 424.418 4.71696 -0.424271 0
M  V30 4562 H 424.842 6.28025 -2.52813 0
M  V30 4563 H 429.484 4.19774 -0.504903 0
M  V30 4564 H 427.202 7.07734 -3.90048 0
M  V30 4565 H 430.788 5.36392 -2.25333 0
M  V30 4566 H 429.668 6.78703 -3.92851 0
M  V30 4567 N 427.171 -0.0066808 1.57599 0
M  V30 4568 C 428.121 -1.0086 2.04478 0
M  V30 4569 C 429.105 -1.30714 0.938231 0
M  V30 4570 O 430.297 -1.29924 1.20203 0
M  V30 4571 C 427.426 -2.30273 2.54615 0
M  V30 4572 C 426.512 -2.03413 3.72134 0
M  V30 4573 N 426.903 -1.46688 4.84062 0
M  V30 4574 C 425.201 -2.33589 3.79937 0
M  V30 4575 C 425.902 -1.36146 5.65543 0
M  V30 4576 N 424.878 -1.84477 5.1134 0
M  V30 4577 H 428.68 -0.564402 2.8843 0
M  V30 4578 H 426.194 -0.212521 1.61003 0
M  V30 4579 H 428.191 -3.02885 2.86472 0
M  V30 4580 H 426.851 -2.75352 1.72079 0
M  V30 4581 H 427.862 -1.14658 5.05049 0
M  V30 4582 H 424.539 -2.81589 3.08243 0
M  V30 4583 H 425.929 -0.925873 6.6549 0
M  V30 4584 N 428.649 -1.55105 -0.279332 0
M  V30 4585 C 429.559 -1.90638 -1.36727 0
M  V30 4586 C 430.575 -0.802899 -1.54368 0
M  V30 4587 O 431.751 -1.10138 -1.68616 0
M  V30 4588 C 428.816 -2.16547 -2.70755 0
M  V30 4589 C 427.877 -3.40146 -2.61915 0
M  V30 4590 C 427.11 -3.6481 -3.8955 0
M  V30 4591 O 427.333 -2.92095 -4.89935 0
M  V30 4592 O 426.267 -4.58343 -3.90135 0
M  V30 4593 H 430.093 -2.83237 -1.09591 0
M  V30 4594 H 427.678 -1.4157 -0.477306 0
M  V30 4595 H 429.56 -2.34665 -3.50014 0
M  V30 4596 H 428.235 -1.27131 -2.9769 0
M  V30 4597 H 427.142 -3.2737 -1.81052 0
M  V30 4598 H 428.475 -4.29761 -2.3993 0
M  V30 4599 N 430.127 0.543554 -1.4793 0
M  V30 4600 C 431.057 1.65888 -1.64327 0
M  V30 4601 C 432.038 1.62818 -0.492383 0
M  V30 4602 O 433.223 1.80226 -0.723338 0
M  V30 4603 C 430.353 3.04506 -1.67013 0
M  V30 4604 C 429.307 3.2243 -2.81466 0
M  V30 4605 C 428.633 4.61972 -2.69233 0
M  V30 4606 C 429.933 3.06496 -4.22915 0
M  V30 4607 H 431.627 1.52421 -2.57698 0
M  V30 4608 H 429.173 0.731849 -1.24016 0
M  V30 4609 H 431.126 3.82391 -1.77074 0
M  V30 4610 H 429.85 3.18964 -0.70212 0
M  V30 4611 H 428.509 2.46957 -2.70938 0
M  V30 4612 H 428.157 4.73247 -1.7043 0
M  V30 4613 H 427.857 4.74911 -3.46025 0
M  V30 4614 H 429.381 5.41974 -2.81242 0
M  V30 4615 H 430.795 3.74186 -4.34348 0
M  V30 4616 H 429.192 3.30938 -5.006 0
M  V30 4617 H 430.262 2.03077 -4.40327 0
M  V30 4618 N 431.605 1.3629 0.791371 0
M  V30 4619 C 432.538 1.24816 1.9104 0
M  V30 4620 C 433.516 0.132739 1.62057 0
M  V30 4621 O 434.7 0.303527 1.8604 0
M  V30 4622 C 431.827 0.925355 3.25814 0
M  V30 4623 C 430.873 2.05495 3.7373 0
M  V30 4624 S 431.706 3.67255 3.89723 0
M  V30 4625 C 432.862 3.37084 5.27376 0
M  V30 4626 H 433.095 2.19533 2.00481 0
M  V30 4627 H 430.628 1.21684 0.950393 0
M  V30 4628 H 432.586 0.745924 4.03666 0
M  V30 4629 H 431.247 -0.00400098 3.141 0
M  V30 4630 H 430.44 1.7836 4.71385 0
M  V30 4631 H 430.042 2.1935 3.02922 0
M  V30 4632 H 432.334 2.90856 6.1189 0
M  V30 4633 H 433.277 4.33995 5.59512 0
M  V30 4634 H 433.685 2.7248 4.94383 0
M  V30 4635 N 433.083 -1.0153 1.20538 0
M  V30 4636 C 434.015 -2.10224 0.913155 0
M  V30 4637 C 435.028 -1.62495 -0.0995998 0
M  V30 4638 O 436.217 -1.78014 0.131582 0
M  V30 4639 C 433.317 -3.37111 0.347717 0
M  V30 4640 C 432.49 -4.13971 1.41233 0
M  V30 4641 C 431.549 -5.19158 0.857976 0
M  V30 4642 O 430.575 -5.48 1.53897 0
M  V30 4643 N 431.777 -5.7955 -0.331966 0
M  V30 4644 H 434.542 -2.35879 1.84881 0
M  V30 4645 H 432.103 -1.17931 1.10923 0
M  V30 4646 H 434.095 -4.04683 -0.0373026 0
M  V30 4647 H 432.665 -3.08696 -0.492527 0
M  V30 4648 H 431.885 -3.41351 1.97163 0
M  V30 4649 H 433.173 -4.62103 2.12928 0
M  V30 4650 H 432.571 -5.58455 -0.902478 0
M  V30 4651 H 431.128 -6.48464 -0.65861 0
M  V30 4652 N 434.561 -1.01147 -1.20859 0
M  V30 4653 C 435.471 -0.58686 -2.27141 0
M  V30 4654 C 436.487 0.373198 -1.69951 0
M  V30 4655 O 437.663 0.235423 -2.00019 0
M  V30 4656 C 434.728 0.0733602 -3.46622 0
M  V30 4657 C 433.789 -0.931995 -4.19061 0
M  V30 4658 C 433.022 -0.303186 -5.32838 0
M  V30 4659 O 433.245 0.898395 -5.63281 0
M  V30 4660 O 432.179 -1.01735 -5.9324 0
M  V30 4661 H 436.005 -1.47155 -2.65667 0
M  V30 4662 H 433.59 -0.780689 -1.2738 0
M  V30 4663 H 435.472 0.442333 -4.19072 0
M  V30 4664 H 434.147 0.932329 -3.09983 0
M  V30 4665 H 433.054 -1.35224 -3.48805 0
M  V30 4666 H 434.387 -1.76076 -4.59628 0
M  V30 4667 N 436.039 1.36541 -0.78704 0
M  V30 4668 C 437.002 2.28413 -0.189778 0
M  V30 4669 C 438.002 1.48719 0.611499 0
M  V30 4670 O 439.192 1.68737 0.432842 0
M  V30 4671 C 436.324 3.32824 0.737638 0
M  V30 4672 H 437.517 2.82743 -0.999831 0
M  V30 4673 H 435.07 1.46065 -0.556298 0
M  V30 4674 H 435.805 2.83646 1.57212 0
M  V30 4675 H 435.59 3.91752 0.165044 0
M  V30 4676 H 437.08 4.0144 1.15047 0
M  V30 4677 N 437.518 0.538854 1.48102 0
M  V30 4678 C 438.766 0.00798599 2.02098 0
M  V30 4679 C 439.087 -1.33922 1.41739 0
M  V30 4680 O 438.357 -1.86932 0.585934 0
M  V30 4681 H 436.937 -3.62179e-05 0.747 0
M  V30 4682 H 439.599 0.7047 1.81714 0
M  V30 4683 H 438.695 -0.0937672 3.11959 0
M  V30 4684 N 438.996 -1.55193 0.274407 0
M  V30 4685 C 440.273 -1.91584 -0.394331 0
M  V30 4686 C 440.653 -1.19858 -1.73774 0
M  V30 4687 O 440.001 -0.3252 -2.26174 0
M  V30 4688 C 440.211 -3.4487 -0.535311 0
M  V30 4689 C 441.559 -4.16636 -0.818534 0
M  V30 4690 O 442.583 -3.5076 -0.620146 0
M  V30 4691 O 441.442 -5.33209 -1.19792 0
M  V30 4692 H 438.536 -0.798349 -0.215794 0
M  V30 4693 H 441.082 -1.66646 0.320507 0
M  V30 4694 H 439.854 -3.89145 0.410141 0
M  V30 4695 H 439.477 -3.75759 -1.29964 0
M  V30 4696 N 440.474 -0.00167713 -1.576 0
M  V30 4697 C 441.384 1.00548 -2.1196 0
M  V30 4698 C 442.4 1.3758 -1.06526 0
M  V30 4699 O 443.576 1.46278 -1.38436 0
M  V30 4700 C 440.641 2.27809 -2.6135 0
M  V30 4701 C 439.702 1.97074 -3.81393 0
M  V30 4702 C 438.935 3.18267 -4.28417 0
M  V30 4703 O 439.158 4.30009 -3.74765 0
M  V30 4704 O 438.092 3.02167 -5.20556 0
M  V30 4705 H 441.918 0.573373 -2.98238 0
M  V30 4706 H 439.503 0.217255 -1.47812 0
M  V30 4707 H 441.385 3.02568 -2.93309 0
M  V30 4708 H 440.06 2.70254 -1.78169 0
M  V30 4709 H 438.967 1.19785 -3.54404 0
M  V30 4710 H 440.3 1.59464 -4.65652 0
M  V30 4711 N 441.952 1.55251 0.271103 0
M  V30 4712 C 443.192 1.77698 1.01008 0
M  V30 4713 C 443.556 0.567246 1.83429 0
M  V30 4714 O 444.757 0.670013 2.60316 0
M  V30 4715 C 443.028 3.04715 1.86772 0
M  V30 4716 S 444.587 3.48289 2.66909 0
M  V30 4717 H 441.405 0.624343 0.340172 0
M  V30 4718 H 444.007 1.9348 0.280315 0
M  V30 4719 H 442.711 3.90853 1.25149 0
M  V30 4720 H 442.242 2.91604 2.64066 0
M  V30 4721 H 444.257 3.07712 3.89266 0
M  V30 4722 N 443.43 -0.535701 1.48216 0
M  V30 4723 C 444.34 -1.66785 1.64985 0
M  V30 4724 C 445.356 -1.65654 0.532414 0
M  V30 4725 O 446.532 -1.8471 0.80275 0
M  V30 4726 C 443.597 -3.0326 1.68031 0
M  V30 4727 C 442.658 -3.1529 2.9136 0
M  V30 4728 C 441.891 -4.45255 2.94252 0
M  V30 4729 O 442.114 -5.32011 2.05719 0
M  V30 4730 O 441.048 -4.6153 3.86359 0
M  V30 4731 H 444.874 -1.55576 2.60825 0
M  V30 4732 H 442.459 -0.70815 1.31551 0
M  V30 4733 H 444.341 -3.84436 1.72589 0
M  V30 4734 H 443.016 -3.14805 0.753628 0
M  V30 4735 H 441.923 -2.3343 2.92337 0
M  V30 4736 H 443.256 -3.08658 3.83394 0
M  V30 4737 N 444.908 -1.36708 -0.784132 0
M  V30 4738 C 446.319 -1.27947 -1.35965 0
M  V30 4739 C 446.67 0.0784013 -1.96043 0
M  V30 4740 O 445.795 0.979989 -1.92938 0
M  V30 4741 C 446.39 -2.31689 -2.47195 0
M  V30 4742 C 444.949 -2.26601 -3.00548 0
M  V30 4743 C 444.096 -2.16184 -1.73666 0
M  V30 4744 H 447.047 -1.4751 -0.585358 0
M  V30 4745 H 447.068 -1.95638 -3.26352 0
M  V30 4746 H 446.58 -3.30506 -2.03439 0
M  V30 4747 H 444.681 -1.31268 -3.48711 0
M  V30 4748 H 444.794 -3.19508 -3.57004 0
M  V30 4749 H 443.158 -1.62524 -1.96107 0
M  V30 4750 H 443.941 -3.16896 -1.32031 0
M  V30 4751 N 446.386 1.0089 -1.21074 0
M  V30 4752 C 447.296 2.13039 -0.982425 0
M  V30 4753 C 448.312 1.73881 0.0642161 0
M  V30 4754 O 449.488 2.01012 -0.12496 0
M  V30 4755 C 446.553 3.42377 -0.545803 0
M  V30 4756 C 445.614 3.95731 -1.6642 0
M  V30 4757 C 444.847 5.18896 -1.24832 0
M  V30 4758 O 445.07 5.70273 -0.120265 0
M  V30 4759 O 444.004 5.65597 -2.05873 0
M  V30 4760 H 447.83 2.35175 -1.92163 0
M  V30 4761 H 445.415 1.1142 -0.995285 0
M  V30 4762 H 447.297 4.20244 -0.311912 0
M  V30 4763 H 445.972 3.21639 0.364727 0
M  V30 4764 H 444.879 3.19108 -1.95246 0
M  V30 4765 H 446.212 4.20872 -2.55201 0
M  V30 4766 N 447.864 1.01787 1.20321 0
M  V30 4767 C 449.11 0.718699 1.90279 0
M  V30 4768 C 449.465 -0.743669 1.77447 0
M  V30 4769 O 448.758 -1.53345 1.14874 0
M  V30 4770 C 448.952 1.09076 3.40349 0
M  V30 4771 C 448.781 2.58775 3.67784 0
M  V30 4772 C 447.551 3.25578 3.86428 0
M  V30 4773 C 449.749 3.56966 3.70243 0
M  V30 4774 N 447.731 4.64495 4.01395 0
M  V30 4775 C 449.102 4.8145 3.90649 0
M  V30 4776 C 451.157 3.5092 3.53213 0
M  V30 4777 C 449.86 6.00619 3.95789 0
M  V30 4778 C 451.886 4.69493 3.59625 0
M  V30 4779 C 451.248 5.92786 3.80505 0
M  V30 4780 H 447.347 0.31468 0.715891 0
M  V30 4781 H 449.931 1.30295 1.44677 0
M  V30 4782 H 448.102 0.534839 3.847 0
M  V30 4783 H 449.834 0.744997 3.97784 0
M  V30 4784 H 446.589 2.76003 3.84862 0
M  V30 4785 H 447.013 5.36624 4.12752 0
M  V30 4786 H 451.655 2.56593 3.36035 0
M  V30 4787 H 449.373 6.95326 4.11762 0
M  V30 4788 H 452.959 4.66432 3.47754 0
M  V30 4789 H 451.839 6.83003 3.85327 0
M  V30 4790 N 449.342 -1.36122 0.79427 0
M  V30 4791 C 450.582 -2.00942 0.374376 0
M  V30 4792 C 450.946 -1.61666 -1.03577 0
M  V30 4793 O 452.147 -2.19113 -1.55701 0
M  V30 4794 C 450.418 -3.53323 0.538327 0
M  V30 4795 S 451.977 -4.38311 0.20703 0
M  V30 4796 H 448.795 -0.696515 0.142785 0
M  V30 4797 H 451.397 -1.65929 1.03382 0
M  V30 4798 H 450.101 -3.79395 1.56484 0
M  V30 4799 H 449.632 -3.93162 -0.136882 0
M  V30 4800 H 451.647 -4.8623 -0.989695 0
M  V30 4801 N 450.82 -0.546701 -1.47814 0
M  V30 4802 C 452.097 0.0464413 -1.95545 0
M  V30 4803 C 452.477 1.4962 -1.48919 0
M  V30 4804 O 451.825 2.16752 -0.723232 0
M  V30 4805 C 452.035 -0.0881298 -3.48889 0
M  V30 4806 C 453.383 0.0626059 -4.24554 0
M  V30 4807 O 454.407 -0.0151555 -3.56197 0
M  V30 4808 O 453.266 0.228071 -5.46024 0
M  V30 4809 H 450.36 0.0700004 -0.824032 0
M  V30 4810 H 452.906 -0.612482 -1.58262 0
M  V30 4811 H 451.678 -1.09737 -3.75597 0
M  V30 4812 H 451.301 0.608886 -3.9291 0
M  V30 4813 N 452.299 1.55045 -0.282633 0
M  V30 4814 C 453.262 2.21515 0.588539 0
M  V30 4815 C 454.262 1.19535 1.07554 0
M  V30 4816 O 455.452 1.44391 0.974514 0
M  V30 4817 C 452.584 2.88704 1.8128 0
M  V30 4818 H 453.777 2.99899 0.00806397 0
M  V30 4819 H 451.33 1.56265 -0.0333067 0
M  V30 4820 H 452.065 2.14352 2.43359 0
M  V30 4821 H 451.85 3.63443 1.47144 0
M  V30 4822 H 453.34 3.39465 2.43214 0
M  V30 4823 N 453.777 0.010035 1.57597 0
M  V30 4824 C 454.687 -0.994226 2.12491 0
M  V30 4825 C 455.703 -1.37013 1.07254 0
M  V30 4826 O 456.879 -1.45542 1.3921 0
M  V30 4827 C 453.944 -2.2642 2.62555 0
M  V30 4828 C 453.005 -1.95049 3.82432 0
M  V30 4829 C 452.238 -3.15991 4.30099 0
M  V30 4830 O 452.461 -4.28015 3.7704 0
M  V30 4831 O 451.395 -2.99403 5.22151 0
M  V30 4832 H 455.221 -0.557549 2.98538 0
M  V30 4833 H 452.806 -0.209413 1.47925 0
M  V30 4834 H 454.688 -3.01009 2.9491 0
M  V30 4835 H 453.363 -2.69306 1.796 0
M  V30 4836 H 452.27 -1.17904 3.55034 0
M  V30 4837 H 453.603 -1.56992 4.66491 0
M  V30 4838 N 455.255 -1.55392 -0.262866 0
M  V30 4839 C 456.532 -1.67204 -1.01499 0
M  V30 4840 C 456.912 -0.545186 -2.03939 0
M  V30 4841 O 456.26 0.453467 -2.23955 0
M  V30 4842 C 456.47 -3.06847 -1.6627 0
M  V30 4843 C 457.818 -3.64928 -2.17054 0
M  V30 4844 O 458.842 -3.09545 -1.76239 0
M  V30 4845 O 457.701 -4.61984 -2.91947 0
M  V30 4846 H 454.795 -0.679467 -0.471438 0
M  V30 4847 H 457.341 -1.67729 -0.257918 0
M  V30 4848 H 456.113 -3.80309 -0.920915 0
M  V30 4849 H 455.736 -3.10266 -2.48638 0
M  V30 4850 N 456.733 0.527833 -1.48498 0
M  V30 4851 C 458.144 1.10975 -1.50138 0
M  V30 4852 C 458.495 1.943 -0.272378 0
M  V30 4853 O 457.62 2.07319 0.620301 0
M  V30 4854 C 458.215 2.01927 -2.72049 0
M  V30 4855 C 456.774 2.55332 -2.76554 0
M  V30 4856 C 455.921 1.32341 -2.43683 0
M  V30 4857 H 458.872 0.312986 -1.55583 0
M  V30 4858 H 458.893 2.86244 -2.50689 0
M  V30 4859 H 458.405 1.41254 -3.61481 0
M  V30 4860 H 456.506 3.19721 -1.91336 0
M  V30 4861 H 456.619 2.94319 -3.78038 0
M  V30 4862 H 454.983 1.63989 -1.94884 0
M  V30 4863 H 455.766 0.734165 -3.35358 0
M  V30 4864 N 458.211 1.37122 0.776871 0
M  V30 4865 C 459.141 1.35164 1.90402 0
M  V30 4866 C 460.122 0.221069 1.68657 0
M  V30 4867 O 461.307 0.420642 1.8959 0
M  V30 4868 C 458.437 1.15274 3.27611 0
M  V30 4869 C 457.391 2.25289 3.63908 0
M  V30 4870 C 456.717 1.90527 4.99603 0
M  V30 4871 C 458.017 3.67446 3.71188 0
M  V30 4872 H 459.711 2.29482 1.92297 0
M  V30 4873 H 457.257 1.10465 0.923773 0
M  V30 4874 H 459.21 1.12536 4.06096 0
M  V30 4875 H 457.934 0.174102 3.26136 0
M  V30 4876 H 456.593 2.27174 2.87728 0
M  V30 4877 H 456.241 0.91206 4.94662 0
M  V30 4878 H 455.941 2.64193 5.24858 0
M  V30 4879 H 457.465 1.89367 5.80493 0
M  V30 4880 H 458.879 3.67719 4.39836 0
M  V30 4881 H 457.276 4.40123 4.07936 0
M  V30 4882 H 458.346 4.01443 2.71977 0
M  V30 4883 N 459.689 -1.00246 1.21608 0
M  V30 4884 C 460.936 -1.74061 1.03485 0
M  V30 4885 C 461.264 -1.89658 -0.431308 0
M  V30 4886 O 460.519 -1.42976 -1.33627 0
M  V30 4887 C 460.818 -3.15448 1.68009 0
M  V30 4888 C 460.484 -3.19792 3.17874 0
M  V30 4889 C 459.146 -3.20685 3.58768 0
M  V30 4890 C 461.498 -3.16835 4.13842 0
M  V30 4891 C 458.826 -3.16309 4.94131 0
M  V30 4892 C 461.178 -3.14001 5.49169 0
M  V30 4893 C 459.842 -3.13204 5.89457 0
M  V30 4894 H 459.112 -0.636934 0.378677 0
M  V30 4895 H 461.759 -1.17473 1.51236 0
M  V30 4896 H 460.064 -3.75284 1.12557 0
M  V30 4897 H 461.761 -3.71285 1.51487 0
M  V30 4898 H 458.351 -3.19842 2.85305 0
M  V30 4899 H 462.535 -3.15303 3.83272 0
M  V30 4900 H 457.791 -3.14032 5.24589 0
M  V30 4901 H 461.965 -3.10667 6.23265 0
M  V30 4902 H 459.592 -3.09568 6.94314 0
M  V30 4903 N 461.167 -1.02423 -1.1978 0
M  V30 4904 C 462.416 -0.713265 -1.88667 0
M  V30 4905 C 462.729 0.7609 -1.80193 0
M  V30 4906 O 463.935 1.18473 -2.44288 0
M  V30 4907 C 462.391 -1.22545 -3.38394 0
M  V30 4908 C 461.999 -2.72706 -3.55437 0
M  V30 4909 C 463.743 -0.990257 -4.12788 0
M  V30 4910 C 461.65 -3.17367 -4.99031 0
M  V30 4911 H 460.58 -0.263105 -0.706606 0
M  V30 4912 H 463.231 -1.23792 -1.35454 0
M  V30 4913 H 461.613 -0.628732 -3.90977 0
M  V30 4914 H 462.787 -3.37993 -3.13205 0
M  V30 4915 H 461.102 -2.94453 -2.94425 0
M  V30 4916 H 463.699 -1.29926 -5.18675 0
M  V30 4917 H 464.042 0.0730761 -4.16236 0
M  V30 4918 H 464.575 -1.55074 -3.66329 0
M  V30 4919 H 461.314 -4.23009 -5.00743 0
M  V30 4920 H 460.834 -2.56805 -5.42044 0
M  V30 4921 H 462.513 -3.10441 -5.67658 0
M  V30 4922 N 462.645 1.35699 -0.801477 0
M  V30 4923 C 463.575 2.32436 -0.222658 0
M  V30 4924 C 464.556 1.5723 0.649057 0
M  V30 4925 O 465.741 1.85324 0.580387 0
M  V30 4926 C 462.871 3.41469 0.633719 0
M  V30 4927 C 461.825 4.27774 -0.139083 0
M  V30 4928 C 461.151 5.28082 0.838666 0
M  V30 4929 C 462.451 5.04946 -1.33517 0
M  V30 4930 H 464.145 2.81094 -1.03086 0
M  V30 4931 H 461.691 1.35146 -0.497155 0
M  V30 4932 H 463.644 4.08143 1.04868 0
M  V30 4933 H 462.368 2.91408 1.47475 0
M  V30 4934 H 461.027 3.62673 -0.535156 0
M  V30 4935 H 460.675 4.7429 1.67506 0
M  V30 4936 H 460.375 5.86695 0.32594 0
M  V30 4937 H 461.899 5.97628 1.25194 0
M  V30 4938 H 463.313 5.64593 -0.995349 0
M  V30 4939 H 461.71 5.7303 -1.78202 0
M  V30 4940 H 462.78 4.35886 -2.12442 0
M  V30 4941 N 464.123 0.554532 1.47522 0
M  V30 4942 C 465.353 0.0342074 2.06572 0
M  V30 4943 C 465.761 -1.26375 1.40805 0
M  V30 4944 O 465.104 -1.7683 0.49769 0
M  V30 4945 C 465.166 -0.235096 3.5873 0
M  V30 4946 C 464.83 0.973024 4.46521 0
M  V30 4947 C 465.827 1.8779 4.848 0
M  V30 4948 C 463.512 1.18694 4.88075 0
M  V30 4949 C 465.506 2.98039 5.63428 0
M  V30 4950 C 463.193 2.29254 5.66468 0
M  V30 4951 C 464.191 3.18757 6.04055 0
M  V30 4952 O 463.879 4.27401 6.8087 0
M  V30 4953 H 463.611 0.041587 0.67472 0
M  V30 4954 H 466.165 0.766748 1.90552 0
M  V30 4955 H 464.395 -1.02191 3.72953 0
M  V30 4956 H 466.084 -0.700477 3.9981 0
M  V30 4957 H 466.85 1.72467 4.53299 0
M  V30 4958 H 462.729 0.49947 4.58286 0
M  V30 4959 H 466.273 3.67926 5.92685 0
M  V30 4960 H 462.17 2.4455 5.97382 0
M  V30 4961 H 462.938 4.25415 6.9926 0
M  V30 4962 N 465.601 -1.54893 0.290851 0
M  V30 4963 C 466.829 -2.04343 -0.324288 0
M  V30 4964 C 467.244 -1.16859 -1.48289 0
M  V30 4965 O 466.601 -0.192018 -1.81487 0
M  V30 4966 C 466.652 -3.52756 -0.79026 0
M  V30 4967 O 466.373 -4.36913 0.322213 0
M  V30 4968 C 467.874 -4.18161 -1.4716 0
M  V30 4969 H 465.094 -0.667135 -0.0719173 0
M  V30 4970 H 467.638 -1.99981 0.427529 0
M  V30 4971 H 465.793 -3.57511 -1.49213 0
M  V30 4972 H 466.207 -5.24486 -0.0387372 0
M  V30 4973 H 467.681 -5.23562 -1.7489 0
M  V30 4974 H 468.158 -3.67282 -2.40834 0
M  V30 4975 H 468.764 -4.17454 -0.813178 0
M  V30 4976 N 467.08 -0.0183926 -1.57589 0
M  V30 4977 C 468.305 0.676634 -1.96052 0
M  V30 4978 C 468.73 1.6548 -0.894307 0
M  V30 4979 O 468.088 1.80712 0.145849 0
M  V30 4980 C 468.136 1.36872 -3.33614 0
M  V30 4981 O 467.24 2.48372 -3.29219 0
M  V30 4982 H 466.581 0.1786 -0.63953 0
M  V30 4983 H 469.111 -0.077056 -2.04455 0
M  V30 4984 H 469.121 1.72797 -3.69601 0
M  V30 4985 H 467.796 0.651636 -4.10763 0
M  V30 4986 H 466.373 2.14639 -3.04934 0
M  V30 4987 N 468.558 1.5553 0.254621 0
M  V30 4988 C 469.806 1.7665 0.981793 0
M  V30 4989 C 470.127 0.580963 1.86145 0
M  V30 4990 O 469.397 -0.403537 1.91699 0
M  V30 4991 H 467.977 0.651475 0.365498 0
M  V30 4992 H 470.639 1.92958 0.274426 0
M  V30 4993 H 469.735 2.67486 1.60802 0
M  V30 4994 N 470.036 -0.519951 1.48776 0
M  V30 4995 C 471.261 -1.30447 1.6124 0
M  V30 4996 C 471.686 -1.86055 0.276591 0
M  V30 4997 O 471.044 -1.64915 -0.753183 0
M  V30 4998 C 471.092 -2.42406 2.66967 0
M  V30 4999 O 470.196 -3.45728 2.24824 0
M  V30 5000 H 469.537 -0.385924 0.540332 0
M  V30 5001 H 472.067 -0.624572 1.94834 0
M  V30 5002 H 472.077 -2.88447 2.88552 0
M  V30 5003 H 470.752 -2.01294 3.63941 0
M  V30 5004 H 469.329 -3.05737 2.13494 0
M  V30 5005 N 471.514 -1.37532 -0.769588 0
M  V30 5006 C 472.742 -1.36059 -1.55871 0
M  V30 5007 C 473.157 0.053544 -1.88724 0
M  V30 5008 O 472.514 1.01591 -1.5161 0
M  V30 5009 C 472.565 -2.20107 -2.86767 0
M  V30 5010 O 472.286 -3.56009 -2.55321 0
M  V30 5011 C 473.787 -2.26636 -3.80987 0
M  V30 5012 H 471.007 -0.465967 -0.482821 0
M  V30 5013 H 473.551 -1.80901 -0.953686 0
M  V30 5014 H 471.706 -1.78768 -3.43687 0
M  V30 5015 H 472.12 -4.0009 -3.39158 0
M  V30 5016 H 473.594 -2.89763 -4.69831 0
M  V30 5017 H 474.071 -1.2754 -4.20274 0
M  V30 5018 H 474.677 -2.68296 -3.29996 0
M  V30 5019 N 472.992 0.995999 -1.22138 0
M  V30 5020 C 474.24 1.73167 -1.042 0
M  V30 5021 C 474.561 1.90329 0.42423 0
M  V30 5022 O 473.831 1.4607 1.30539 0
M  V30 5023 H 472.411 0.641593 -0.38258 0
M  V30 5024 H 475.073 1.19974 -1.53598 0
M  V30 5025 H 474.169 2.72734 -1.51731 0
M  V30 5026 N 474.47 1.03057 1.19235 0
M  V30 5027 C 475.417 0.612832 2.22515 0
M  V30 5028 C 476.387 -0.374224 1.61829 0
M  V30 5029 O 477.572 -0.270501 1.88873 0
M  V30 5030 C 474.712 -0.028475 3.45088 0
M  V30 5031 C 473.825 1.00483 4.20151 0
M  V30 5032 C 472.96 0.333102 5.30155 0
M  V30 5033 C 471.999 1.3522 5.96977 0
M  V30 5034 N 471.136 0.70616 6.9854 0
M  V30 5035 H 475.976 1.49812 2.57605 0
M  V30 5036 H 473.513 0.749658 1.26564 0
M  V30 5037 H 475.471 -0.417548 4.15105 0
M  V30 5038 H 474.101 -0.877334 3.10649 0
M  V30 5039 H 473.153 1.51194 3.49062 0
M  V30 5040 H 474.465 1.77929 4.65986 0
M  V30 5041 H 473.619 -0.110725 6.06599 0
M  V30 5042 H 472.358 -0.473547 4.85396 0
M  V30 5043 H 471.363 1.80627 5.19282 0
M  V30 5044 H 472.588 2.16037 6.4382 0
M  V30 5045 H 470.534 -0.0803667 6.55951 0
M  V30 5046 H 470.451 1.41848 7.42573 0
M  V30 5047 H 471.719 0.286391 7.78974 0
M  V30 5048 N 475.948 -1.35272 0.808662 0
M  V30 5049 C 477.359 -1.81179 0.450688 0
M  V30 5050 C 477.71 -1.67143 -1.02751 0
M  V30 5051 O 476.835 -1.20325 -1.79864 0
M  V30 5052 C 477.43 -3.28943 0.811275 0
M  V30 5053 C 475.989 -3.72985 0.505871 0
M  V30 5054 C 475.136 -2.57229 1.03578 0
M  V30 5055 H 478.087 -1.2322 1.00012 0
M  V30 5056 H 478.108 -3.80342 0.109588 0
M  V30 5057 H 477.62 -3.39127 1.88718 0
M  V30 5058 H 475.721 -3.68349 -0.561209 0
M  V30 5059 H 475.834 -4.67677 1.03995 0
M  V30 5060 H 474.198 -2.50548 0.458005 0
M  V30 5061 H 474.981 -2.7019 2.11784 0
M  V30 5062 N 477.426 -0.562348 -1.47226 0
M  V30 5063 C 478.373 0.182461 -2.30078 0
M  V30 5064 C 479.343 0.903503 -1.39377 0
M  V30 5065 O 480.528 0.898188 -1.68337 0
M  V30 5066 C 477.668 1.20322 -3.23445 0
M  V30 5067 C 476.781 0.487717 -4.29238 0
M  V30 5068 C 475.916 1.49422 -5.09752 0
M  V30 5069 C 474.955 0.763976 -6.07314 0
M  V30 5070 N 474.092 1.71755 -6.80768 0
M  V30 5071 H 478.932 -0.530169 -2.93246 0
M  V30 5072 H 476.469 -0.273276 -1.44539 0
M  V30 5073 H 478.427 1.80768 -3.76004 0
M  V30 5074 H 477.057 1.88382 -2.6213 0
M  V30 5075 H 476.109 -0.231374 -3.79696 0
M  V30 5076 H 477.421 -0.0841003 -4.98729 0
M  V30 5077 H 476.575 2.17206 -5.66486 0
M  V30 5078 H 475.314 2.09995 -4.40174 0
M  V30 5079 H 474.319 0.0722344 -5.49753 0
M  V30 5080 H 475.544 0.16391 -6.78902 0
M  V30 5081 H 473.49 2.31177 -6.13916 0
M  V30 5082 H 473.407 1.19802 -7.46447 0
M  V30 5083 H 474.675 2.38638 -7.42073 0
M  V30 5084 N 478.904 1.54736 -0.299062 0
M  V30 5085 C 480.152 1.99706 0.31017 0
M  V30 5086 C 480.473 1.18896 1.54559 0
M  V30 5087 O 479.743 0.284445 1.93824 0
M  V30 5088 H 478.323 0.737686 0.117596 0
M  V30 5089 H 480.985 1.9054 -0.409943 0
M  V30 5090 H 480.081 3.06596 0.58355 0
M  V30 5091 N 480.382 0.0267497 1.57577 0
M  V30 5092 C 481.628 -0.653371 1.91987 0
M  V30 5093 C 481.961 -1.71915 0.903263 0
M  V30 5094 O 481.236 -1.94358 -0.0743387 0
M  V30 5095 C 481.519 -1.272 3.36886 0
M  V30 5096 C 481.372 -0.215938 4.49281 0
M  V30 5097 C 482.691 -2.19069 3.81703 0
M  V30 5098 H 479.81 -0.236047 0.698177 0
M  V30 5099 H 482.452 0.0835236 1.89816 0
M  V30 5100 H 480.602 -1.90005 3.38866 0
M  V30 5101 H 482.274 0.41449 4.59434 0
M  V30 5102 H 480.517 0.458855 4.31366 0
M  V30 5103 H 481.188 -0.688347 5.47691 0
M  V30 5104 H 483.664 -1.66253 3.81444 0
M  V30 5105 H 482.54 -2.59307 4.83788 0
M  V30 5106 H 482.801 -3.08087 3.17072 0
M  V30 5107 N 481.861 -1.55662 -0.24637 0
M  V30 5108 C 483.107 -1.77782 -0.975779 0
M  V30 5109 C 483.44 -0.592103 -1.84953 0
M  V30 5110 O 482.715 0.409588 -1.90138 0
M  V30 5111 C 482.998 -3.09788 -1.83584 0
M  V30 5112 C 482.851 -4.38764 -0.990241 0
M  V30 5113 C 484.17 -3.38029 -2.81823 0
M  V30 5114 H 481.289 -0.646789 -0.353317 0
M  V30 5115 H 483.931 -1.88398 -0.246248 0
M  V30 5116 H 482.081 -3.00869 -2.45784 0
M  V30 5117 H 483.753 -4.59675 -0.386897 0
M  V30 5118 H 481.996 -4.32798 -0.294626 0
M  V30 5119 H 482.667 -5.27514 -1.62584 0
M  V30 5120 H 485.143 -3.46915 -2.2976 0
M  V30 5121 H 484.019 -4.3161 -3.39122 0
M  V30 5122 H 484.28 -2.58968 -3.58313 0
M  V30 5123 N 483.339 0.512053 -1.4905 0
M  V30 5124 C 484.289 1.61142 -1.61298 0
M  V30 5125 C 485.273 1.53908 -0.46916 0
M  V30 5126 O 486.465 1.61625 -0.721547 0
M  V30 5127 C 483.594 2.998 -1.67256 0
M  V30 5128 C 482.68 3.12072 -2.87179 0
M  V30 5129 N 483.071 2.94263 -4.11391 0
M  V30 5130 C 481.369 3.43156 -2.84886 0
M  V30 5131 C 482.07 3.10426 -4.91946 0
M  V30 5132 N 481.046 3.38808 -4.251 0
M  V30 5133 H 484.848 1.46011 -2.55065 0
M  V30 5134 H 482.362 0.717934 -1.45669 0
M  V30 5135 H 484.359 3.78794 -1.74128 0
M  V30 5136 H 483.019 3.1601 -0.746195 0
M  V30 5137 H 484.03 2.70661 -4.41546 0
M  V30 5138 H 480.707 3.65611 -2.01581 0
M  V30 5139 H 482.097 3.01243 -6.00585 0
M  V30 5140 N 484.817 1.37938 0.762283 0
M  V30 5141 C 486.045 1.36883 1.55147 0
M  V30 5142 C 486.46 -0.0435348 1.8875 0
M  V30 5143 O 485.817 -1.00786 1.52146 0
M  V30 5144 C 485.868 2.21624 2.85596 0
M  V30 5145 O 485.589 3.57358 2.5343 0
M  V30 5146 C 487.09 2.28653 3.7978 0
M  V30 5147 H 484.31 0.468521 0.480343 0
M  V30 5148 H 486.854 1.81404 0.944079 0
M  V30 5149 H 485.009 1.80588 3.42734 0
M  V30 5150 H 485.423 4.01883 3.37032 0
M  V30 5151 H 486.897 2.9225 4.68288 0
M  V30 5152 H 487.374 1.29767 4.19592 0
M  V30 5153 H 487.98 2.70043 3.28568 0
M  V30 5154 N 486.295 -0.989507 1.22664 0
M  V30 5155 C 487.541 -1.7321 1.05481 0
M  V30 5156 C 487.874 -1.89852 -0.408635 0
M  V30 5157 O 487.149 -1.44416 -1.30285 0
M  V30 5158 C 487.432 -3.1357 1.77047 0
M  V30 5159 C 487.285 -3.04555 3.31008 0
M  V30 5160 C 488.604 -4.12812 1.5256 0
M  V30 5161 H 485.723 -0.628697 0.384589 0
M  V30 5162 H 488.365 -1.15258 1.51049 0
M  V30 5163 H 486.515 -3.63046 1.3831 0
M  V30 5164 H 488.187 -2.62674 3.7921 0
M  V30 5165 H 486.43 -2.41278 3.6051 0
M  V30 5166 H 487.101 -4.03894 3.76263 0
M  V30 5167 H 489.577 -3.72106 1.86215 0
M  V30 5168 H 488.453 -5.09132 2.05124 0
M  V30 5169 H 488.714 -4.39711 0.458936 0
M  V30 5170 N 487.773 -1.03688 -1.18687 0
M  V30 5171 C 489.021 -0.736572 -1.88199 0
M  V30 5172 C 489.342 0.737665 -1.80509 0
M  V30 5173 O 488.612 1.53204 -1.22088 0
M  V30 5174 H 487.192 -0.269466 -0.696704 0
M  V30 5175 H 489.854 -1.31282 -1.44052 0
M  V30 5176 H 488.95 -1.03802 -2.94332 0
M  V30 5177 N 489.251 1.34841 -0.815825 0
M  V30 5178 C 490.499 1.98107 -0.399744 0
M  V30 5179 C 490.82 1.65019 1.03894 0
M  V30 5180 O 490.09 0.937311 1.72021 0
M  V30 5181 H 488.67 0.732827 -0.144823 0
M  V30 5182 H 491.332 1.64599 -1.0437 0
M  V30 5183 H 490.428 3.07856 -0.512965 0
M  V30 5184 N 490.729 0.570148 1.46925 0
M  V30 5185 C 491.959 0.0561151 2.06524 0
M  V30 5186 C 492.367 -1.24874 1.42137 0
M  V30 5187 O 491.71 -1.76292 0.516417 0
M  V30 5188 C 491.772 -0.197035 3.5896 0
M  V30 5189 C 491.436 1.02033 4.45464 0
M  V30 5190 C 492.433 1.92921 4.82781 0
M  V30 5191 C 490.118 1.23864 4.86788 0
M  V30 5192 C 492.112 3.03999 5.60235 0
M  V30 5193 C 489.799 2.35249 5.64004 0
M  V30 5194 C 490.797 3.25146 6.0064 0
M  V30 5195 O 490.485 4.34598 6.76299 0
M  V30 5196 H 490.217 0.0487409 0.674241 0
M  V30 5197 H 492.771 0.786915 1.89728 0
M  V30 5198 H 491.001 -0.982299 3.74016 0
M  V30 5199 H 492.69 -0.658032 4.00531 0
M  V30 5200 H 493.456 1.77265 4.51444 0
M  V30 5201 H 489.335 0.54805 4.57731 0
M  V30 5202 H 492.879 3.74192 5.8875 0
M  V30 5203 H 488.776 2.50873 5.94755 0
M  V30 5204 H 489.544 4.32808 6.94708 0
M  V30 5205 N 492.207 -1.54576 0.307264 0
M  V30 5206 C 493.14 -2.19946 -0.608195 0
M  V30 5207 C 494.118 -1.17096 -1.12815 0
M  V30 5208 O 495.302 -1.45766 -1.19518 0
M  V30 5209 C 492.429 -2.84826 -1.8328 0
M  V30 5210 C 491.475 -4.01256 -1.44554 0
M  V30 5211 S 492.308 -5.33197 -0.49612 0
M  V30 5212 C 493.464 -6.01563 -1.72838 0
M  V30 5213 H 493.697 -2.97253 -0.0528544 0
M  V30 5214 H 491.23 -1.54129 0.0913837 0
M  V30 5215 H 493.188 -3.22832 -2.53554 0
M  V30 5216 H 491.849 -2.07353 -2.35931 0
M  V30 5217 H 491.042 -4.45457 -2.35762 0
M  V30 5218 H 490.644 -3.6484 -0.822671 0
M  V30 5219 H 492.936 -6.22751 -2.6681 0
M  V30 5220 H 493.879 -6.9552 -1.32882 0
M  V30 5221 H 494.287 -5.31279 -1.90795 0
M  V30 5222 N 493.685 -0.035106 -1.57561 0
M  V30 5223 C 494.615 0.942993 -2.13612 0
M  V30 5224 C 495.596 1.33531 -1.05373 0
M  V30 5225 O 496.781 1.41287 -1.33235 0
M  V30 5226 C 493.911 2.22332 -2.66807 0
M  V30 5227 C 492.865 1.97156 -3.79886 0
M  V30 5228 C 492.191 3.31506 -4.19533 0
M  V30 5229 C 493.491 1.30596 -5.05709 0
M  V30 5230 H 495.185 0.476179 -2.95589 0
M  V30 5231 H 492.731 0.227602 -1.4219 0
M  V30 5232 H 494.684 2.91142 -3.04654 0
M  V30 5233 H 493.408 2.7119 -1.81999 0
M  V30 5234 H 492.067 1.30763 -3.42486 0
M  V30 5235 H 491.715 3.78134 -3.31698 0
M  V30 5236 H 491.415 3.15465 -4.95738 0
M  V30 5237 H 492.939 4.01574 -4.59968 0
M  V30 5238 H 494.353 1.89416 -5.41105 0
M  V30 5239 H 492.75 1.24934 -5.86951 0
M  V30 5240 H 493.82 0.279742 -4.84092 0
M  V30 5241 N 495.163 1.55791 0.238111 0
M  V30 5242 C 496.393 1.81834 0.980809 0
M  V30 5243 C 496.801 0.609741 1.79106 0
M  V30 5244 O 496.144 -0.431073 1.78571 0
M  V30 5245 C 496.206 3.01363 1.96011 0
M  V30 5246 C 495.87 4.37037 1.33597 0
M  V30 5247 C 496.867 5.14692 0.734063 0
M  V30 5248 C 494.552 4.83743 1.3527 0
M  V30 5249 C 496.546 6.37206 0.157208 0
M  V30 5250 C 494.233 6.06204 0.77199 0
M  V30 5251 C 495.231 6.82775 0.175282 0
M  V30 5252 O 494.919 8.02922 -0.396432 0
M  V30 5253 H 494.651 0.6088 0.293834 0
M  V30 5254 H 497.205 2.03702 0.263552 0
M  V30 5255 H 495.435 2.75273 2.71591 0
M  V30 5256 H 497.124 3.14422 2.56697 0
M  V30 5257 H 497.89 4.79722 0.713582 0
M  V30 5258 H 493.769 4.24129 1.80653 0
M  V30 5259 H 497.313 6.96915 -0.30917 0
M  V30 5260 H 493.21 6.4065 0.789828 0
M  V30 5261 H 493.978 8.17989 -0.289145 0
M  V30 5262 N 496.642 -0.504142 1.49319 0
M  V30 5263 C 497.888 -1.26033 1.58882 0
M  V30 5264 C 498.221 -1.92268 0.273274 0
M  V30 5265 O 497.496 -1.80567 -0.72291 0
M  V30 5266 C 497.779 -2.32976 2.7458 0
M  V30 5267 C 497.632 -1.71263 4.1592 0
M  V30 5268 C 498.951 -3.34561 2.85932 0
M  V30 5269 H 496.07 -0.456863 0.578312 0
M  V30 5270 H 498.712 -0.558965 1.81592 0
M  V30 5271 H 496.862 -2.92796 2.55348 0
M  V30 5272 H 498.534 -1.15294 4.4666 0
M  V30 5273 H 496.777 -1.01686 4.21714 0
M  V30 5274 H 497.448 -2.48816 4.92742 0
M  V30 5275 H 499.924 -2.84727 3.0343 0
M  V30 5276 H 498.8 -4.06754 3.68568 0
M  V30 5277 H 499.061 -3.96695 1.95154 0
M  V30 5278 N 498.12 -1.38341 -0.754957 0
M  V30 5279 C 499.083 -1.35262 -1.85032 0
M  V30 5280 C 500.083 -0.253393 -1.58791 0
M  V30 5281 O 501.273 -0.510205 -1.66561 0
M  V30 5282 C 498.405 -1.10544 -3.22479 0
M  V30 5283 H 499.598 -2.32712 -1.8917 0
M  V30 5284 H 497.151 -1.23614 -0.956515 0
M  V30 5285 H 497.886 -0.136952 -3.24011 0
M  V30 5286 H 497.671 -1.90127 -3.4292 0
M  V30 5287 H 499.161 -1.11082 -4.02555 0
M  V30 5288 N 499.598 0.982988 -1.23187 0
M  V30 5289 C 500.826 1.75921 -1.08901 0
M  V30 5290 C 501.241 1.85341 0.359719 0
M  V30 5291 O 500.598 1.33072 1.24892 0
M  V30 5292 C 500.649 3.18742 -1.70545 0
M  V30 5293 O 500.37 3.09814 -3.09753 0
M  V30 5294 C 501.871 4.1277 -1.61667 0
M  V30 5295 H 499.091 0.552166 -0.381252 0
M  V30 5296 H 501.635 1.23516 -1.62985 0
M  V30 5297 H 499.79 3.68182 -1.20501 0
M  V30 5298 H 500.204 3.99703 -3.39614 0
M  V30 5299 H 501.678 5.10697 -2.09506 0
M  V30 5300 H 502.155 4.3542 -0.575009 0
M  V30 5301 H 502.761 3.69232 -2.11064 0
M  V30 5302 N 501.076 1.04316 1.18135 0
M  V30 5303 C 502.304 0.768117 1.92113 0
M  V30 5304 C 502.719 -0.675057 1.76319 0
M  V30 5305 O 502.076 -1.46038 1.09449 0
M  V30 5306 C 502.127 1.12808 3.43448 0
M  V30 5307 O 501.848 2.5146 3.58747 0
M  V30 5308 C 503.349 0.8779 4.3452 0
M  V30 5309 H 500.569 0.279937 0.609817 0
M  V30 5310 H 503.113 1.39149 1.49859 0
M  V30 5311 H 501.268 0.549623 3.83481 0
M  V30 5312 H 501.682 2.65313 4.52448 0
M  V30 5313 H 503.156 1.17959 5.39249 0
M  V30 5314 H 503.633 -0.187239 4.38801 0
M  V30 5315 H 504.239 1.43977 4.00188 0
M  V30 5316 N 502.554 -1.34406 0.822964 0
M  V30 5317 C 503.801 -1.98284 0.411057 0
M  V30 5318 C 504.129 -1.65245 -1.02588 0
M  V30 5319 O 503.384 -0.91619 -1.72929 0
M  V30 5320 C 503.683 -3.52981 0.560268 0
M  V30 5321 C 503.349 -4.05931 1.96293 0
M  V30 5322 C 502.011 -4.20103 2.34664 0
M  V30 5323 C 504.363 -4.34412 2.87985 0
M  V30 5324 C 501.691 -4.60082 3.64062 0
M  V30 5325 C 504.043 -4.75838 4.16847 0
M  V30 5326 C 502.707 -4.88215 4.55195 0
M  V30 5327 H 501.977 -0.725573 0.150416 0
M  V30 5328 H 504.624 -1.60349 1.04692 0
M  V30 5329 H 502.929 -3.91477 -0.158982 0
M  V30 5330 H 504.626 -4.00385 0.222087 0
M  V30 5331 H 501.216 -3.95363 1.65487 0
M  V30 5332 H 505.4 -4.23001 2.59584 0
M  V30 5333 H 500.656 -4.67856 3.93599 0
M  V30 5334 H 504.83 -4.96834 4.87984 0
M  V30 5335 H 502.457 -5.18952 5.55512 0
M  V30 5336 N 504.032 -0.577932 -1.46621 0
M  V30 5337 C 504.979 0.158048 -2.30258 0
M  V30 5338 C 505.949 0.888669 -1.40328 0
M  V30 5339 O 507.134 0.880283 -1.6928 0
M  V30 5340 C 504.274 1.16884 -3.24703 0
M  V30 5341 C 503.387 0.442163 -4.29731 0
M  V30 5342 C 502.522 1.44007 -5.11308 0
M  V30 5343 C 501.561 0.69952 -6.0809 0
M  V30 5344 N 500.698 1.64525 -6.82551 0
M  V30 5345 H 505.538 -0.561242 -2.92667 0
M  V30 5346 H 503.075 -0.288591 -1.44241 0
M  V30 5347 H 505.033 1.7677 -3.779 0
M  V30 5348 H 503.663 1.85591 -2.64113 0
M  V30 5349 H 502.715 -0.271632 -3.79429 0
M  V30 5350 H 504.027 -0.136992 -4.98612 0
M  V30 5351 H 503.181 2.11186 -5.68758 0
M  V30 5352 H 501.92 2.05315 -4.42377 0
M  V30 5353 H 500.925 0.0139217 -5.49798 0
M  V30 5354 H 502.15 0.091894 -6.79038 0
M  V30 5355 H 500.096 2.24653 -6.16334 0
M  V30 5356 H 500.013 1.11878 -7.47676 0
M  V30 5357 H 501.281 2.30754 -7.44562 0
M  V30 5358 N 505.51 1.54411 -0.315457 0
M  V30 5359 C 506.74 2.04536 0.291315 0
M  V30 5360 C 507.148 1.19162 1.4696 0
M  V30 5361 O 506.491 0.213199 1.82459 0
M  V30 5362 C 506.553 3.5056 0.796725 0
M  V30 5363 C 506.217 4.5627 -0.258178 0
M  V30 5364 C 507.214 5.08312 -1.09153 0
M  V30 5365 C 504.899 5.00672 -0.404036 0
M  V30 5366 C 506.893 6.03312 -2.05655 0
M  V30 5367 C 504.58 5.95488 -1.37248 0
M  V30 5368 C 505.578 6.46693 -2.19721 0
M  V30 5369 O 505.266 7.39648 -3.14921 0
M  V30 5370 H 504.998 0.672856 0.0651165 0
M  V30 5371 H 507.552 2.00244 -0.457308 0
M  V30 5372 H 505.782 3.52223 1.59612 0
M  V30 5373 H 507.471 3.83804 1.32096 0
M  V30 5374 H 508.237 4.74793 -0.98979 0
M  V30 5375 H 504.116 4.60436 0.22799 0
M  V30 5376 H 507.66 6.43203 -2.70067 0
M  V30 5377 H 503.557 6.28424 -1.47489 0
M  V30 5378 H 504.325 7.57496 -3.10067 0
M  V30 5379 N 506.988 0.0434614 1.5754 0
M  V30 5380 C 508.234 -0.632971 1.92669 0
M  V30 5381 C 508.567 -1.70947 0.921446 0
M  V30 5382 O 507.842 -1.94426 -0.0537202 0
M  V30 5383 C 508.125 -1.23619 3.38216 0
M  V30 5384 C 507.978 -0.168274 4.49485 0
M  V30 5385 C 509.297 -2.15008 3.84005 0
M  V30 5386 H 506.416 -0.228629 0.700641 0
M  V30 5387 H 509.058 0.103651 1.89717 0
M  V30 5388 H 507.208 -1.864 3.40863 0
M  V30 5389 H 508.88 0.463196 4.58969 0
M  V30 5390 H 507.123 0.504581 4.30855 0
M  V30 5391 H 507.794 -0.630218 5.48391 0
M  V30 5392 H 510.27 -1.62198 3.83185 0
M  V30 5393 H 509.146 -2.54161 4.86511 0
M  V30 5394 H 509.407 -3.04707 3.20322 0
M  V30 5395 N 508.466 -1.55915 -0.229846 0
M  V30 5396 C 509.713 -1.78542 -0.955452 0
M  V30 5397 C 510.041 -0.610785 -1.84661 0
M  V30 5398 O 509.296 0.405213 -1.91459 0
M  V30 5399 C 509.595 -3.06845 -1.8325 0
M  V30 5400 C 509.261 -4.37395 -1.09528 0
M  V30 5401 C 507.923 -4.72868 -0.891598 0
M  V30 5402 C 510.275 -5.18029 -0.574046 0
M  V30 5403 C 507.603 -5.86496 -0.154655 0
M  V30 5404 C 509.955 -6.32423 0.149513 0
M  V30 5405 C 508.619 -6.66504 0.364519 0
M  V30 5406 H 507.889 -0.653333 -0.349625 0
M  V30 5407 H 510.536 -1.90183 -0.224235 0
M  V30 5408 H 508.841 -2.90291 -2.63132 0
M  V30 5409 H 510.538 -3.21553 -2.39592 0
M  V30 5410 H 507.128 -4.09538 -1.26399 0
M  V30 5411 H 511.312 -4.91066 -0.718899 0
M  V30 5412 H 506.568 -6.11396 0.0222356 0
M  V30 5413 H 510.742 -6.94137 0.560947 0
M  V30 5414 H 508.369 -7.54397 0.937495 0
M  V30 5415 N 509.944 0.496216 -1.49584 0
M  V30 5416 C 511.221 1.25755 -1.49816 0
M  V30 5417 C 511.601 2.09859 -0.228572 0
M  V30 5418 O 510.949 2.14449 0.788908 0
M  V30 5419 C 511.159 2.11017 -2.7798 0
M  V30 5420 C 512.507 2.70047 -3.27658 0
M  V30 5421 O 513.531 2.21281 -2.79129 0
M  V30 5422 O 512.39 3.58834 -4.1219 0
M  V30 5423 H 509.484 0.569322 -0.599834 0
M  V30 5424 H 512.03 0.510094 -1.61852 0
M  V30 5425 H 510.802 1.48879 -3.61871 0
M  V30 5426 H 510.425 2.92947 -2.68827 0
M  V30 5427 N 511.423 1.38739 0.74761 0
M  V30 5428 C 512.67 1.35274 1.50689 0
M  V30 5429 C 512.998 -0.0553359 1.94421 0
M  V30 5430 O 512.253 -1.03365 1.66175 0
M  V30 5431 C 512.552 2.25992 2.7688 0
M  V30 5432 C 512.218 3.73854 2.5208 0
M  V30 5433 C 510.88 4.14145 2.45025 0
M  V30 5434 C 513.232 4.67427 2.30568 0
M  V30 5435 C 510.56 5.4609 2.14483 0
M  V30 5436 C 512.912 5.99635 2.01545 0
M  V30 5437 C 511.576 6.39004 1.92951 0
M  V30 5438 H 510.846 0.495003 0.55141 0
M  V30 5439 H 513.493 1.71145 0.859158 0
M  V30 5440 H 511.798 1.83196 3.46333 0
M  V30 5441 H 513.495 2.20611 3.34861 0
M  V30 5442 H 510.085 3.41913 2.58444 0
M  V30 5443 H 514.269 4.3714 2.34994 0
M  V30 5444 H 509.525 5.75528 2.06342 0
M  V30 5445 H 513.699 6.71678 1.83906 0
M  V30 5446 H 511.326 7.41165 1.6905 0
M  V30 5447 N 512.901 -0.976442 1.23707 0
M  V30 5448 C 513.851 -2.0544 0.988851 0
M  V30 5449 C 514.835 -1.60762 -0.0665901 0
M  V30 5450 O 516.027 -1.76396 0.14604 0
M  V30 5451 C 513.156 -3.38258 0.586223 0
M  V30 5452 C 512.242 -3.89523 1.67728 0
M  V30 5453 N 512.633 -4.13823 2.90834 0
M  V30 5454 C 510.931 -4.18097 1.55277 0
M  V30 5455 C 511.632 -4.55731 3.61502 0
M  V30 5456 N 510.608 -4.60394 2.8903 0
M  V30 5457 H 514.41 -2.22191 1.92376 0
M  V30 5458 H 511.924 -1.15954 1.13704 0
M  V30 5459 H 513.921 -4.15075 0.389658 0
M  V30 5460 H 512.581 -3.22898 -0.341594 0
M  V30 5461 H 513.592 -4.01529 3.271 0
M  V30 5462 H 510.269 -4.11719 0.692351 0
M  V30 5463 H 511.659 -4.83018 4.67059 0
M  V30 5464 N 514.379 -1.04941 -1.1758 0
M  V30 5465 C 515.342 -0.652456 -2.19717 0
M  V30 5466 C 516.342 0.294745 -1.58076 0
M  V30 5467 O 517.532 0.0789579 -1.74021 0
M  V30 5468 C 514.664 0.0420712 -3.40874 0
M  V30 5469 H 515.857 -1.55642 -2.5635 0
M  V30 5470 H 513.41 -0.842995 -1.31618 0
M  V30 5471 H 514.145 0.95943 -3.09783 0
M  V30 5472 H 513.93 -0.638844 -3.86861 0
M  V30 5473 H 515.42 0.306 -4.16477 0
M  V30 5474 N 515.857 1.33968 -0.830081 0
M  V30 5475 C 516.767 2.33164 -0.259207 0
M  V30 5476 C 517.783 1.62951 0.610164 0
M  V30 5477 O 518.959 1.94668 0.516369 0
M  V30 5478 C 516.024 3.42088 0.563598 0
M  V30 5479 C 515.085 4.28037 -0.329014 0
M  V30 5480 C 514.318 5.3176 0.454616 0
M  V30 5481 O 514.541 5.44876 1.6872 0
M  V30 5482 O 513.475 6.01669 -0.166794 0
M  V30 5483 H 517.301 2.83832 -1.08041 0
M  V30 5484 H 514.886 1.37154 -0.59239 0
M  V30 5485 H 516.768 4.08581 1.03147 0
M  V30 5486 H 515.443 2.93651 1.36201 0
M  V30 5487 H 514.35 3.64443 -0.844538 0
M  V30 5488 H 515.683 4.79934 -1.09196 0
M  V30 5489 N 517.335 0.585699 1.46312 0
M  V30 5490 C 518.612 0.00542031 1.95599 0
M  V30 5491 C 518.992 -1.45619 1.52834 0
M  V30 5492 O 518.34 -2.14759 0.780446 0
M  V30 5493 C 518.55 0.180601 3.48532 0
M  V30 5494 C 519.898 0.049979 4.24571 0
M  V30 5495 O 520.922 0.109589 3.56031 0
M  V30 5496 O 519.781 -0.0832226 5.46437 0
M  V30 5497 H 516.875 -0.0481281 0.825598 0
M  V30 5498 H 519.421 0.654227 1.56582 0
M  V30 5499 H 518.193 1.19657 3.72556 0
M  V30 5500 H 517.816 -0.504498 3.94386 0
M  V30 5501 N 518.813 -1.54241 0.323641 0
M  V30 5502 C 520.059 -2.00867 -0.279323 0
M  V30 5503 C 520.392 -1.21146 -1.5178 0
M  V30 5504 O 519.667 -0.29378 -1.92269 0
M  V30 5505 C 519.95 -3.54837 -0.613387 0
M  V30 5506 C 519.803 -4.45284 0.635803 0
M  V30 5507 C 521.122 -4.16186 -1.43099 0
M  V30 5508 H 518.241 -0.730177 -0.100049 0
M  V30 5509 H 520.883 -1.84829 0.440235 0
M  V30 5510 H 519.033 -3.68634 -1.22641 0
M  V30 5511 H 520.705 -4.43357 1.27406 0
M  V30 5512 H 518.948 -4.14956 1.26466 0
M  V30 5513 H 519.619 -5.5084 0.357597 0
M  V30 5514 H 522.095 -4.05964 -0.912814 0
M  V30 5515 H 520.971 -5.24031 -1.6335 0
M  V30 5516 H 521.232 -3.69516 -2.42715 0
M  V30 5517 N 520.291 -0.0518155 -1.57515 0
M  V30 5518 C 521.538 0.621823 -1.92716 0
M  V30 5519 C 521.866 1.70813 -0.930229 0
M  V30 5520 O 521.121 1.95616 0.0573708 0
M  V30 5521 C 521.42 1.25607 -3.34601 0
M  V30 5522 C 521.086 0.297901 -4.49915 0
M  V30 5523 C 519.748 0.034243 -4.81188 0
M  V30 5524 C 522.1 -0.358738 -5.19964 0
M  V30 5525 C 519.428 -0.893479 -5.79857 0
M  V30 5526 C 521.78 -1.27466 -6.19625 0
M  V30 5527 C 520.444 -1.54698 -6.49326 0
M  V30 5528 H 519.714 0.227541 -0.705199 0
M  V30 5529 H 522.361 -0.118432 -1.91133 0
M  V30 5530 H 520.666 2.07161 -3.32553 0
M  V30 5531 H 522.363 1.78424 -3.59118 0
M  V30 5532 H 518.953 0.513581 -4.25512 0
M  V30 5533 H 523.137 -0.168133 -4.96015 0
M  V30 5534 H 518.393 -1.11193 -6.01204 0
M  V30 5535 H 522.567 -1.78953 -6.73015 0
M  V30 5536 H 520.194 -2.26748 -7.25596 0
M  V30 5537 N 521.769 1.56035 0.221574 0
M  V30 5538 C 523.015 1.80221 0.942973 0
M  V30 5539 C 523.37 0.624799 1.81973 0
M  V30 5540 O 522.663 -0.381145 1.87771 0
M  V30 5541 C 522.857 3.07813 1.8162 0
M  V30 5542 C 522.686 4.37852 1.02548 0
M  V30 5543 C 521.456 5.00138 0.720418 0
M  V30 5544 C 523.654 5.12813 0.390799 0
M  V30 5545 N 521.636 6.13831 -0.0917139 0
M  V30 5546 C 523.007 6.19346 -0.284728 0
M  V30 5547 C 525.062 4.96972 0.303828 0
M  V30 5548 C 523.765 7.11758 -1.03891 0
M  V30 5549 C 525.791 5.89784 -0.436883 0
M  V30 5550 C 525.153 6.95743 -1.10095 0
M  V30 5551 H 521.252 0.711117 0.325325 0
M  V30 5552 H 523.836 1.93522 0.213854 0
M  V30 5553 H 522.007 2.95795 2.51714 0
M  V30 5554 H 523.739 3.20191 2.47508 0
M  V30 5555 H 520.494 4.62075 1.03843 0
M  V30 5556 H 520.918 6.75249 -0.486615 0
M  V30 5557 H 525.56 4.15107 0.802896 0
M  V30 5558 H 523.278 7.93105 -1.54949 0
M  V30 5559 H 526.864 5.79603 -0.505181 0
M  V30 5560 H 525.744 7.66322 -1.66495 0
M  V30 5561 N 523.247 -0.488276 1.49845 0
M  V30 5562 C 524.487 -1.2516 1.61599 0
M  V30 5563 C 524.851 -1.89615 0.301706 0
M  V30 5564 O 526.052 -2.67182 0.29453 0
M  V30 5565 C 524.323 -2.2805 2.75187 0
M  V30 5566 S 525.882 -3.13552 3.0697 0
M  V30 5567 H 522.7 -0.425178 0.569864 0
M  V30 5568 H 525.302 -0.551545 1.87559 0
M  V30 5569 H 524.006 -1.7925 3.69185 0
M  V30 5570 H 523.537 -3.02708 2.5126 0
M  V30 5571 H 525.552 -4.28927 2.49471 0
M  V30 5572 N 524.725 -1.39134 -0.740242 0
M  V30 5573 C 525.953 -1.39334 -1.5295 0
M  V30 5574 C 526.368 0.0135008 -1.88795 0
M  V30 5575 O 525.725 0.983524 -1.5373 0
M  V30 5576 C 525.776 -2.2614 -2.82034 0
M  V30 5577 O 525.497 -3.61345 -2.47712 0
M  V30 5578 C 526.998 -2.34666 -3.76094 0
M  V30 5579 H 524.218 -0.476103 -0.472828 0
M  V30 5580 H 526.762 -1.82883 -0.9151 0
M  V30 5581 H 524.917 -1.86018 -3.39818 0
M  V30 5582 H 525.331 -4.07194 -3.30595 0
M  V30 5583 H 526.805 -2.99663 -4.63579 0
M  V30 5584 H 527.282 -1.36426 -4.17474 0
M  V30 5585 H 527.888 -2.75236 -3.2423 0
M  V30 5586 N 526.204 0.969867 -1.24223 0
M  V30 5587 C 527.167 2.04564 -1.03373 0
M  V30 5588 C 528.167 1.60798 0.00819206 0
M  V30 5589 O 529.357 1.72641 -0.232567 0
M  V30 5590 C 526.489 3.36163 -0.566343 0
M  V30 5591 H 527.682 2.24494 -1.98853 0
M  V30 5592 H 525.235 1.1448 -1.06415 0
M  V30 5593 H 525.97 3.21925 0.391751 0
M  V30 5594 H 525.755 3.69273 -1.31834 0
M  V30 5595 H 527.245 4.1526 -0.441435 0
M  V30 5596 N 527.682 1.05563 1.17022 0
M  V30 5597 C 528.959 0.68165 1.83338 0
M  V30 5598 C 529.339 -0.837665 1.93769 0
M  V30 5599 O 528.687 -1.74507 1.47511 0
M  V30 5600 C 528.897 1.375 3.20772 0
M  V30 5601 C 530.245 1.51545 3.96635 0
M  V30 5602 O 531.269 1.33431 3.30264 0
M  V30 5603 O 530.128 1.812 5.15586 0
M  V30 5604 H 527.222 0.240412 0.791285 0
M  V30 5605 H 529.768 1.15545 1.24288 0
M  V30 5606 H 528.54 2.41135 3.08171 0
M  V30 5607 H 528.163 0.890798 3.87493 0
M  V30 5608 N 529.16 -1.33526 0.837174 0
M  V30 5609 C 530.409 -1.97098 0.428387 0
M  V30 5610 C 530.722 -1.67062 -1.01734 0
M  V30 5611 O 531.928 -2.24235 -1.53072 0
M  V30 5612 C 530.384 -3.52725 0.715075 0
M  V30 5613 C 529.992 -3.9164 2.17537 0
M  V30 5614 C 531.736 -4.22857 0.373154 0
M  V30 5615 C 529.643 -5.40237 2.40619 0
M  V30 5616 H 528.573 -0.737589 0.156455 0
M  V30 5617 H 531.224 -1.52169 1.02552 0
M  V30 5618 H 529.606 -3.95971 0.0475904 0
M  V30 5619 H 530.78 -3.59456 2.88319 0
M  V30 5620 H 529.095 -3.34485 2.4801 0
M  V30 5621 H 531.692 -5.32133 0.523264 0
M  V30 5622 H 532.035 -4.10647 -0.683708 0
M  V30 5623 H 532.568 -3.85135 0.995801 0
M  V30 5624 H 529.307 -5.57449 3.44864 0
M  V30 5625 H 528.827 -5.73887 1.74396 0
M  V30 5626 H 530.506 -6.07102 2.23688 0
M  V30 5627 N 530.638 -0.59345 -1.46 0
M  V30 5628 C 531.886 -0.082988 -2.0193 0
M  V30 5629 C 532.207 1.28569 -1.46612 0
M  V30 5630 O 531.477 1.84629 -0.654909 0
M  V30 5631 H 530.057 -0.0276882 -0.746487 0
M  V30 5632 H 532.719 -0.771657 -1.78973 0
M  V30 5633 H 531.815 -0.022079 -3.12092 0
M  V30 5634 N 532.116 1.54067 -0.331816 0
M  V30 5635 C 533.362 2.01713 0.261395 0
M  V30 5636 C 533.717 1.21566 1.49129 0
M  V30 5637 O 533.01 0.291867 1.89364 0
M  V30 5638 C 533.204 3.51634 0.639392 0
M  V30 5639 C 533.033 4.46295 -0.552321 0
M  V30 5640 C 531.803 4.94185 -1.05399 0
M  V30 5641 C 534.001 4.94677 -1.40711 0
M  V30 5642 N 531.983 5.7277 -2.20925 0
M  V30 5643 C 533.354 5.71267 -2.40943 0
M  V30 5644 C 535.409 4.76805 -1.43392 0
M  V30 5645 C 534.112 6.31889 -3.4367 0
M  V30 5646 C 536.138 5.38268 -2.44994 0
M  V30 5647 C 535.5 6.14716 -3.43952 0
M  V30 5648 H 531.599 0.77975 0.0592729 0
M  V30 5649 H 534.183 1.88974 -0.468726 0
M  V30 5650 H 532.354 3.64603 1.33863 0
M  V30 5651 H 534.086 3.86038 1.21478 0
M  V30 5652 H 530.841 4.69472 -0.623952 0
M  V30 5653 H 531.265 6.16737 -2.79222 0
M  V30 5654 H 535.907 4.17255 -0.682489 0
M  V30 5655 H 533.625 6.90554 -4.19715 0
M  V30 5656 H 537.211 5.26352 -2.4788 0
M  V30 5657 H 536.091 6.6143 -4.21283 0
M  V30 5658 N 533.594 0.0601682 1.57485 0
M  V30 5659 C 534.843 -0.611101 1.9222 0
M  V30 5660 C 535.156 -1.71469 0.941159 0
M  V30 5661 O 536.362 -2.44473 1.18089 0
M  V30 5662 C 534.818 -1.13832 3.41424 0
M  V30 5663 C 534.426 -0.0663596 4.47951 0
M  V30 5664 C 536.17 -1.78432 3.85178 0
M  V30 5665 C 534.077 -0.606965 5.88277 0
M  V30 5666 H 533.007 -0.232033 0.71741 0
M  V30 5667 H 535.658 0.130518 1.83035 0
M  V30 5668 H 534.04 -1.93254 3.45643 0
M  V30 5669 H 535.214 0.707682 4.55333 0
M  V30 5670 H 533.529 0.482715 4.13593 0
M  V30 5671 H 536.126 -2.1989 4.87394 0
M  V30 5672 H 536.469 -2.63966 3.21913 0
M  V30 5673 H 537.002 -1.05651 3.83514 0
M  V30 5674 H 533.741 0.21095 6.5516 0
M  V30 5675 H 533.261 -1.34879 5.84438 0
M  V30 5676 H 534.94 -1.08704 6.37803 0
M  V30 5677 N 535.072 -1.5615 -0.213296 0
M  V30 5678 C 536.3 -1.83638 -0.953139 0
M  V30 5679 C 536.715 -0.640362 -1.77609 0
M  V30 5680 O 536.072 0.391071 -1.78261 0
M  V30 5681 C 536.123 -3.09735 -1.86405 0
M  V30 5682 O 535.844 -4.24723 -1.07435 0
M  V30 5683 C 537.345 -3.5027 -2.71709 0
M  V30 5684 H 534.565 -0.610263 -0.278962 0
M  V30 5685 H 537.109 -2.03247 -0.226035 0
M  V30 5686 H 535.264 -2.92077 -2.545 0
M  V30 5687 H 535.678 -4.9641 -1.69343 0
M  V30 5688 H 537.152 -4.41515 -3.31313 0
M  V30 5689 H 537.629 -2.72406 -3.44516 0
M  V30 5690 H 538.235 -3.70396 -2.09015 0
M  V30 5691 N 536.55 0.480323 -1.50102 0
M  V30 5692 C 537.798 1.23063 -1.60312 0
M  V30 5693 C 538.119 1.92659 -0.301226 0
M  V30 5694 O 537.389 1.83691 0.680753 0
M  V30 5695 H 535.969 0.457231 -0.590719 0
M  V30 5696 H 538.631 0.554893 -1.86834 0
M  V30 5697 H 537.727 1.9835 -2.40964 0
M  V30 5698 N 538.028 1.39524 0.732853 0
M  V30 5699 C 538.978 1.34905 1.83806 0
M  V30 5700 C 539.962 0.229546 1.59254 0
M  V30 5701 O 541.154 0.467255 1.70721 0
M  V30 5702 C 538.283 1.19699 3.21756 0
M  V30 5703 C 537.369 2.36359 3.5213 0
M  V30 5704 N 537.76 3.61834 3.53426 0
M  V30 5705 C 536.058 2.29363 3.82503 0
M  V30 5706 C 536.759 4.38992 3.81655 0
M  V30 5707 N 535.735 3.68606 3.99538 0
M  V30 5708 H 539.537 2.29882 1.83116 0
M  V30 5709 H 537.051 1.33051 0.931194 0
M  V30 5710 H 539.048 1.14472 4.00876 0
M  V30 5711 H 537.708 0.256739 3.23683 0
M  V30 5712 H 538.719 3.95228 3.34686 0
M  V30 5713 H 535.396 1.43612 3.92023 0
M  V30 5714 H 536.786 5.47763 3.89108 0
M  V30 5715 N 539.506 -0.963266 1.24736 0
M  V30 5716 C 540.731 -1.74699 1.11781 0
M  V30 5717 C 541.156 -1.85267 -0.325258 0
M  V30 5718 O 540.514 -1.32681 -1.23553 0
M  V30 5719 C 540.562 -3.14322 1.76731 0
M  V30 5720 O 539.666 -3.99043 1.04109 0
M  V30 5721 H 539.007 -0.53684 0.390767 0
M  V30 5722 H 541.537 -1.20801 1.65131 0
M  V30 5723 H 541.547 -3.64824 1.82668 0
M  V30 5724 H 540.222 -3.05946 2.81726 0
M  V30 5725 H 538.799 -3.5752 1.05991 0
M  V30 5726 N 540.985 -1.06182 -1.16461 0
M  V30 5727 C 542.215 -0.797425 -1.9059 0
M  V30 5728 C 542.623 0.651845 -1.77616 0
M  V30 5729 O 541.966 1.45788 -1.11766 0
M  V30 5730 C 542.028 -1.11128 -3.41893 0
M  V30 5731 C 541.692 -2.55874 -3.78652 0
M  V30 5732 C 542.689 -3.54104 -3.80665 0
M  V30 5733 C 540.374 -2.91144 -4.09317 0
M  V30 5734 C 542.368 -4.85645 -4.12829 0
M  V30 5735 C 540.055 -4.22885 -4.41148 0
M  V30 5736 C 541.053 -5.19945 -4.42883 0
M  V30 5737 O 540.741 -6.49322 -4.73959 0
M  V30 5738 H 540.473 -0.288709 -0.611247 0
M  V30 5739 H 543.027 -1.41841 -1.4856 0
M  V30 5740 H 541.257 -0.433217 -3.84266 0
M  V30 5741 H 542.946 -0.831306 -3.97296 0
M  V30 5742 H 543.712 -3.28197 -3.57088 0
M  V30 5743 H 539.591 -2.16252 -4.07131 0
M  V30 5744 H 543.135 -5.61398 -4.14099 0
M  V30 5745 H 539.032 -4.48551 -4.6419 0
M  V30 5746 H 539.8 -6.54294 -4.91774 0
M  V30 5747 N 542.463 1.3308 -0.844243 0
M  V30 5748 C 543.709 1.97898 -0.443206 0
M  V30 5749 C 544.042 1.66699 0.99625 0
M  V30 5750 O 543.317 0.949704 1.69738 0
M  V30 5751 C 543.6 3.53801 -0.670606 0
M  V30 5752 C 543.453 3.94667 -2.15772 0
M  V30 5753 C 544.772 4.39936 -0.120226 0
M  V30 5754 H 541.891 0.718861 -0.162504 0
M  V30 5755 H 544.533 1.57633 -1.06075 0
M  V30 5756 H 542.683 3.88229 -0.14496 0
M  V30 5757 H 544.355 3.70469 -2.74865 0
M  V30 5758 H 542.598 3.44203 -2.6402 0
M  V30 5759 H 543.269 5.03275 -2.26757 0
M  V30 5760 H 545.745 4.12183 -0.5696 0
M  V30 5761 H 544.621 5.4803 -0.308984 0
M  V30 5762 H 544.882 4.31184 0.976347 0
M  V30 5763 N 543.941 0.601185 1.45683 0
M  V30 5764 C 545.169 0.100054 2.06658 0
M  V30 5765 C 545.584 -1.21285 1.44691 0
M  V30 5766 O 544.941 -1.73735 0.558772 0
M  V30 5767 C 544.992 -0.0528579 3.61461 0
M  V30 5768 O 544.713 1.20809 4.21114 0
M  V30 5769 C 546.214 -0.586193 4.39407 0
M  V30 5770 H 543.434 0.065905 0.667756 0
M  V30 5771 H 545.978 0.827101 1.87028 0
M  V30 5772 H 544.133 -0.730203 3.80456 0
M  V30 5773 H 544.547 1.03368 5.14213 0
M  V30 5774 H 546.021 -0.642297 5.4825 0
M  V30 5775 H 546.498 -1.60713 4.0874 0
M  V30 5776 H 547.104 0.0568935 4.25262 0
M  V30 5777 N 545.419 -1.53889 0.339982 0
M  V30 5778 C 546.649 -2.04973 -0.258738 0
M  V30 5779 C 547.057 -1.21485 -1.45045 0
M  V30 5780 O 546.4 -0.2422 -1.82096 0
M  V30 5781 C 546.462 -3.51783 -0.740853 0
M  V30 5782 C 546.126 -4.55802 0.330734 0
M  V30 5783 C 547.123 -5.06512 1.17226 0
M  V30 5784 C 544.808 -4.99966 0.483637 0
M  V30 5785 C 546.802 -5.99963 2.15227 0
M  V30 5786 C 544.489 -5.93229 1.46704 0
M  V30 5787 C 545.487 -6.43115 2.29981 0
M  V30 5788 O 545.175 -7.34545 3.26649 0
M  V30 5789 H 544.907 -0.673807 -0.0544037 0
M  V30 5790 H 547.461 -1.99492 0.489107 0
M  V30 5791 H 545.691 -3.54717 -1.53988 0
M  V30 5792 H 547.38 -3.85857 -1.25973 0
M  V30 5793 H 548.146 -4.73158 1.0652 0
M  V30 5794 H 544.025 -4.6074 -0.15471 0
M  V30 5795 H 547.569 -6.38825 2.80265 0
M  V30 5796 H 543.466 -6.25998 1.57468 0
M  V30 5797 H 544.234 -7.52468 3.22078 0
M  V30 5798 N 546.897 -0.0685191 -1.57451 0
M  V30 5799 C 548.145 0.60016 -1.92983 0
M  V30 5800 C 548.466 1.70348 -0.949028 0
M  V30 5801 O 547.736 1.959 0.00335647 0
M  V30 5802 H 546.316 0.224682 -0.712409 0
M  V30 5803 H 548.978 -0.125605 -1.94495 0
M  V30 5804 H 548.074 1.02759 -2.94698 0
M  V30 5805 N 548.375 1.56261 0.205012 0
M  V30 5806 C 549.786 1.70056 0.770574 0
M  V30 5807 C 550.137 0.673398 1.84282 0
M  V30 5808 O 549.262 -0.172196 2.15714 0
M  V30 5809 C 549.857 3.08316 1.40451 0
M  V30 5810 C 548.416 3.2391 1.91727 0
M  V30 5811 C 547.563 2.66001 0.783516 0
M  V30 5812 H 550.514 1.58688 -0.019911 0
M  V30 5813 H 550.535 3.05094 2.27371 0
M  V30 5814 H 550.047 3.83053 0.623882 0
M  V30 5815 H 548.148 2.54072 2.7254 0
M  V30 5816 H 548.261 4.3131 2.08588 0
M  V30 5817 H 546.625 2.24915 1.19521 0
M  V30 5818 H 547.408 3.43297 0.0152883 0
M  V30 5819 N 549.853 -0.472356 1.50355 0
M  V30 5820 C 550.783 -1.57859 1.72055 0
M  V30 5821 C 551.764 -1.60283 0.569505 0
M  V30 5822 O 552.949 -1.7657 0.808503 0
M  V30 5823 C 550.079 -2.96191 1.81351 0
M  V30 5824 C 549.033 -3.08633 2.96529 0
M  V30 5825 C 548.359 -4.486 2.90968 0
M  V30 5826 C 549.659 -2.85969 4.37057 0
M  V30 5827 H 551.353 -1.39953 2.64676 0
M  V30 5828 H 548.899 -0.671846 1.27367 0
M  V30 5829 H 550.852 -3.73507 1.95117 0
M  V30 5830 H 549.576 -3.15251 0.853502 0
M  V30 5831 H 548.235 -2.33749 2.82413 0
M  V30 5832 H 547.883 -4.64577 1.92815 0
M  V30 5833 H 547.583 -4.57861 3.68289 0
M  V30 5834 H 549.107 -5.27938 3.0678 0
M  V30 5835 H 550.521 -3.53036 4.51706 0
M  V30 5836 H 548.918 -3.06677 5.15819 0
M  V30 5837 H 549.988 -1.81838 4.49514 0
M  V30 5838 N 551.331 -1.39911 -0.725443 0
M  V30 5839 C 552.294 -1.39156 -1.82121 0
M  V30 5840 C 553.294 -0.287018 -1.58218 0
M  V30 5841 O 554.484 -0.545421 -1.65441 0
M  V30 5842 C 551.616 -1.1736 -3.20062 0
M  V30 5843 H 552.809 -2.36672 -1.84191 0
M  V30 5844 H 550.362 -1.25615 -0.930079 0
M  V30 5845 H 551.097 -0.205648 -3.23647 0
M  V30 5846 H 550.882 -1.97358 -3.3881 0
M  V30 5847 H 552.372 -1.19596 -4.00108 0
M  V30 5848 N 552.809 0.956637 -1.25245 0
M  V30 5849 C 553.757 2.0743 -1.0524 0
M  V30 5850 C 554.751 1.69392 0.0160725 0
M  V30 5851 O 555.957 1.7946 -0.139382 0
M  V30 5852 H 552.332 0.678921 -0.323373 0
M  V30 5853 H 554.303 2.2146 -1.99995 0
M  V30 5854 C 553.052 3.40872 -0.685702 0
M  V30 5855 H 552.375 3.70607 -1.49968 0
M  V30 5856 H 553.815 4.19939 -0.585415 0
M  V30 5857 C 552.274 3.31367 0.608082 0
M  V30 5858 O 552.804 3.66214 1.65076 0
M  V30 5859 N 551.01 2.84486 0.592955 0
M  V30 5860 H 550.557 2.56326 -0.25592 0
M  V30 5861 H 550.515 2.78509 1.45877 0
M  V30 5862 N 554.287 1.06798 1.15896 0
M  V30 5863 C 555.535 0.786211 1.8618 0
M  V30 5864 C 555.856 -0.689547 1.82401 0
M  V30 5865 O 555.126 -1.49913 1.26107 0
M  V30 5866 H 553.706 0.287843 0.689315 0
M  V30 5867 H 556.368 1.35055 1.40521 0
M  V30 5868 H 555.464 1.1157 2.91477 0
M  V30 5869 N 555.766 -1.3263 0.851289 0
M  V30 5870 C 556.729 -2.27247 0.298541 0
M  V30 5871 C 557.729 -1.51467 -0.539847 0
M  V30 5872 O 558.919 -1.7061 -0.351843 0
M  V30 5873 C 556.051 -3.35964 -0.578004 0
M  V30 5874 H 557.244 -2.7765 1.13359 0
M  V30 5875 H 554.797 -1.43245 0.625354 0
M  V30 5876 H 555.532 -2.90823 -1.435 0
M  V30 5877 H 555.317 -3.92094 0.0220539 0
M  V30 5878 H 556.807 -4.06472 -0.957626 0
M  V30 5879 N 557.244 -0.608902 -1.45362 0
M  V30 5880 C 558.472 -0.111013 -2.06602 0
M  V30 5881 C 558.887 1.20516 -1.45332 0
M  V30 5882 O 558.244 1.73437 -0.567978 0
M  V30 5883 C 558.295 0.033688 -3.61484 0
M  V30 5884 O 558.016 -1.23041 -4.20467 0
M  V30 5885 C 559.517 0.562882 -4.39712 0
M  V30 5886 H 556.737 -0.0694453 -0.667397 0
M  V30 5887 H 559.281 -0.837008 -1.86586 0
M  V30 5888 H 557.436 0.710016 -3.80838 0
M  V30 5889 H 557.85 -1.06094 -5.13658 0
M  V30 5890 H 559.324 0.613213 -5.48583 0
M  V30 5891 H 559.801 1.58543 -4.09586 0
M  V30 5892 H 560.407 -0.0794454 -4.25226 0
M  V30 5893 N 558.722 1.53707 -0.348139 0
M  V30 5894 C 559.947 2.05877 0.250883 0
M  V30 5895 C 560.372 1.22115 1.43072 0
M  V30 5896 O 559.73 0.235986 1.79758 0
M  V30 5897 C 559.778 3.54886 0.639416 0
M  V30 5898 O 558.882 3.73948 1.73888 0
M  V30 5899 H 558.223 0.662754 0.040653 0
M  V30 5900 H 560.753 1.98303 -0.503685 0
M  V30 5901 H 560.763 3.97601 0.915295 0
M  V30 5902 H 559.438 4.153 -0.223386 0
M  V30 5903 H 558.015 3.43134 1.45991 0
M  V30 5904 N 560.2 0.0768682 1.57412 0
M  V30 5905 C 561.446 -0.591961 1.93968 0
M  V30 5906 C 561.779 -1.68954 0.9575 0
M  V30 5907 O 561.054 -1.94496 -0.0124675 0
M  V30 5908 C 561.337 -1.16418 3.40762 0
M  V30 5909 C 561.19 -0.0728933 4.49741 0
M  V30 5910 C 562.509 -2.06814 3.88479 0
M  V30 5911 H 559.628 -0.213716 0.705333 0
M  V30 5912 H 562.27 0.14387 1.89455 0
M  V30 5913 H 560.42 -1.79128 3.4474 0
M  V30 5914 H 562.092 0.560446 4.57883 0
M  V30 5915 H 560.335 0.595859 4.29688 0
M  V30 5916 H 561.006 -0.513755 5.49604 0
M  V30 5917 H 563.482 -1.54033 3.8654 0
M  V30 5918 H 562.358 -2.43785 4.91793 0
M  V30 5919 H 562.619 -2.97844 3.26713 0
M  V30 5920 N 561.678 -1.56367 -0.196722 0
M  V30 5921 C 562.608 -1.97442 -1.24655 0
M  V30 5922 C 563.589 -0.846147 -1.47561 0
M  V30 5923 O 564.774 -1.11035 -1.59326 0
M  V30 5924 C 561.904 -2.31253 -2.59112 0
M  V30 5925 C 560.858 -3.46804 -2.50821 0
M  V30 5926 C 560.184 -3.66286 -3.89536 0
M  V30 5927 C 561.484 -4.8104 -2.03465 0
M  V30 5928 H 563.178 -2.85388 -0.905216 0
M  V30 5929 H 560.724 -1.37304 -0.434002 0
M  V30 5930 H 562.677 -2.58583 -3.32736 0
M  V30 5931 H 561.401 -1.40188 -2.94983 0
M  V30 5932 H 560.06 -3.19563 -1.79653 0
M  V30 5933 H 559.708 -2.72555 -4.22756 0
M  V30 5934 H 559.408 -4.4402 -3.84864 0
M  V30 5935 H 560.932 -3.9599 -4.64784 0
M  V30 5936 H 562.346 -5.07411 -2.66846 0
M  V30 5937 H 560.743 -5.62232 -2.09798 0
M  V30 5938 H 561.813 -4.74732 -0.98781 0
M  V30 5939 N 563.156 0.464375 -1.50603 0
M  V30 5940 C 564.403 1.21596 -1.61928 0
M  V30 5941 C 564.731 1.91804 -0.322737 0
M  V30 5942 O 563.986 1.83065 0.691776 0
M  V30 5943 C 564.285 2.278 -2.75394 0
M  V30 5944 C 563.951 1.74797 -4.1564 0
M  V30 5945 C 562.613 1.60063 -4.53799 0
M  V30 5946 C 564.965 1.35548 -5.03266 0
M  V30 5947 C 562.293 1.04514 -5.77316 0
M  V30 5948 C 564.645 0.814381 -6.27336 0
M  V30 5949 C 563.309 0.653726 -6.64291 0
M  V30 5950 H 562.579 0.444951 -0.592536 0
M  V30 5951 H 565.226 0.510964 -1.84557 0
M  V30 5952 H 563.531 3.04233 -2.46879 0
M  V30 5953 H 565.228 2.85723 -2.81359 0
M  V30 5954 H 561.818 1.87234 -3.8554 0
M  V30 5955 H 566.002 1.45763 -4.74412 0
M  V30 5956 H 561.258 0.908186 -6.04617 0
M  V30 5957 H 565.432 0.501626 -6.94591 0
M  V30 5958 H 563.059 0.22114 -7.59878 0
M  V30 5959 N 564.634 1.40294 0.718013 0
M  V30 5960 C 565.544 1.42678 1.86226 0
M  V30 5961 C 566.56 0.319655 1.71039 0
M  V30 5962 O 567.736 0.563852 1.93346 0
M  V30 5963 C 564.801 1.2852 3.21999 0
M  V30 5964 C 563.862 2.49354 3.49458 0
M  V30 5965 C 563.095 2.35863 4.78753 0
M  V30 5966 O 563.318 1.37114 5.53675 0
M  V30 5967 O 562.252 3.25189 5.06494 0
M  V30 5968 H 566.078 2.39167 1.87171 0
M  V30 5969 H 563.663 1.2159 0.868112 0
M  V30 5970 H 565.545 1.22824 4.03103 0
M  V30 5971 H 564.22 0.351359 3.21787 0
M  V30 5972 H 563.127 2.60628 2.68373 0
M  V30 5973 H 564.46 3.41491 3.54464 0
M  V30 5974 N 566.112 -0.949982 1.2575 0
M  V30 5975 C 567.36 -1.6918 1.10555 0
M  V30 5976 C 567.681 -1.91773 -0.353298 0
M  V30 5977 O 566.951 -1.50814 -1.25027 0
M  V30 5978 H 565.531 -0.626952 0.406129 0
M  V30 5979 H 568.193 -1.1419 1.57945 0
M  V30 5980 H 567.289 -2.66915 1.61749 0
M  V30 5981 N 567.59 -1.07411 -1.15328 0
M  V30 5982 C 568.839 -0.792643 -1.85473 0
M  V30 5983 C 569.152 0.683789 -1.83259 0
M  V30 5984 O 570.358 1.08005 -2.49093 0
M  V30 5985 C 568.814 -1.36787 -3.32892 0
M  V30 5986 C 568.422 -2.87536 -3.43551 0
M  V30 5987 C 570.166 -1.16444 -4.08217 0
M  V30 5988 C 568.073 -3.38247 -4.85122 0
M  V30 5989 H 567.003 -0.292838 -0.694811 0
M  V30 5990 H 569.654 -1.29426 -1.30082 0
M  V30 5991 H 568.036 -0.793993 -3.87958 0
M  V30 5992 H 569.21 -3.50973 -2.98588 0
M  V30 5993 H 567.525 -3.06676 -2.81672 0
M  V30 5994 H 570.122 -1.51808 -5.12697 0
M  V30 5995 H 570.465 -0.10353 -4.16171 0
M  V30 5996 H 570.998 -1.70472 -3.59422 0
M  V30 5997 H 567.737 -4.43866 -4.82351 0
M  V30 5998 H 567.257 -2.79564 -5.30664 0
M  V30 5999 H 568.936 -3.34238 -5.5398 0
M  V30 6000 N 569.068 1.32177 -0.85831 0
M  V30 6001 C 570.479 1.79381 -0.517621 0
M  V30 6002 C 570.83 1.70841 0.964769 0
M  V30 6003 O 569.955 1.26917 1.75274 0
M  V30 6004 C 570.55 3.25706 -0.932801 0
M  V30 6005 C 569.109 3.70851 -0.643953 0
M  V30 6006 C 568.256 2.53208 -1.13054 0
M  V30 6007 H 571.207 1.19424 -1.04516 0
M  V30 6008 H 571.228 3.79673 -0.250674 0
M  V30 6009 H 570.74 3.31889 -2.01174 0
M  V30 6010 H 568.841 3.70178 0.424112 0
M  V30 6011 H 568.954 4.63495 -1.21281 0
M  V30 6012 H 567.318 2.48676 -0.550679 0
M  V30 6013 H 568.101 2.62143 -2.21666 0
M  V30 6014 N 570.547 0.616602 1.45037 0
M  V30 6015 C 571.775 0.121968 2.0654 0
M  V30 6016 C 572.19 -1.19743 1.45969 0
M  V30 6017 O 571.547 -1.73133 0.577168 0
M  V30 6018 C 571.598 -0.0145171 3.61497 0
M  V30 6019 O 571.319 1.25269 4.19809 0
M  V30 6020 C 572.82 -0.539555 4.40004 0
M  V30 6021 H 570.04 0.0729837 0.667019 0
M  V30 6022 H 572.584 0.846891 1.8614 0
M  V30 6023 H 570.739 -0.689809 3.81209 0
M  V30 6024 H 571.153 1.08816 5.13088 0
M  V30 6025 H 572.627 -0.584112 5.48901 0
M  V30 6026 H 573.104 -1.56368 4.10421 0
M  V30 6027 H 573.71 0.101995 4.25178 0
M  V30 6028 N 572.025 -1.5352 0.356285 0
M  V30 6029 C 573.255 -2.05236 -0.236983 0
M  V30 6030 C 573.663 -1.23016 -1.43749 0
M  V30 6031 O 573.006 -0.2615 -1.81829 0
M  V30 6032 C 573.068 -3.52549 -0.7035 0
M  V30 6033 C 572.732 -4.55425 0.379059 0
M  V30 6034 C 573.729 -5.0524 1.22592 0
M  V30 6035 C 571.414 -4.99425 0.536638 0
M  V30 6036 C 573.408 -5.97647 2.21578 0
M  V30 6037 C 571.095 -5.9164 1.52988 0
M  V30 6038 C 572.093 -6.4064 2.3679 0
M  V30 6039 O 571.781 -7.31039 3.34421 0
M  V30 6040 H 571.513 -0.674346 -0.047254 0
M  V30 6041 H 574.067 -1.98962 0.510238 0
M  V30 6042 H 572.297 -3.56331 -1.50217 0
M  V30 6043 H 573.986 -3.87171 -1.21873 0
M  V30 6044 H 574.752 -4.72002 1.11532 0
M  V30 6045 H 570.631 -4.60879 -0.105834 0
M  V30 6046 H 574.175 -6.35816 2.87025 0
M  V30 6047 H 570.072 -6.24293 1.64099 0
M  V30 6048 H 570.84 -7.49009 3.30041 0
M  V30 6049 N 573.503 -0.0852151 -1.57369 0
M  V30 6050 C 574.914 0.445428 -1.81309 0
M  V30 6051 C 575.265 1.68795 -1.00013 0
M  V30 6052 O 574.39 2.15211 -0.226573 0
M  V30 6053 C 574.985 0.814887 -3.28854 0
M  V30 6054 C 573.544 1.29032 -3.53592 0
M  V30 6055 C 572.691 0.282089 -2.75861 0
M  V30 6056 H 575.642 -0.310771 -1.55627 0
M  V30 6057 H 575.663 1.67524 -3.41637 0
M  V30 6058 H 575.175 -0.0896309 -3.87996 0
M  V30 6059 H 573.276 2.21289 -2.9977 0
M  V30 6060 H 573.389 1.25898 -4.62262 0
M  V30 6061 H 571.753 0.762182 -2.43029 0
M  V30 6062 H 572.536 -0.614936 -3.37748 0
M  V30 6063 N 574.981 1.5647 0.188427 0
M  V30 6064 C 576.258 1.71857 0.934058 0
M  V30 6065 C 576.638 0.641867 2.01105 0
M  V30 6066 O 575.986 -0.346098 2.25864 0
M  V30 6067 C 576.196 3.14431 1.5144 0
M  V30 6068 C 577.544 3.74869 1.99396 0
M  V30 6069 O 578.568 3.17601 1.61269 0
M  V30 6070 O 577.427 4.75387 2.69573 0
M  V30 6071 H 574.521 0.701186 0.438483 0
M  V30 6072 H 577.067 1.68768 0.177599 0
M  V30 6073 H 575.839 3.8427 0.738416 0
M  V30 6074 H 575.462 3.21775 2.33552 0
M  V30 6075 N 576.459 -0.456382 1.50847 0
M  V30 6076 C 577.705 -1.20914 1.62811 0
M  V30 6077 C 578.038 -1.91301 0.334304 0
M  V30 6078 O 577.313 -1.82775 -0.665098 0
M  V30 6079 C 577.596 -2.24122 2.81853 0
M  V30 6080 C 577.449 -1.57944 4.21158 0
M  V30 6081 C 578.768 -3.25295 2.96431 0
M  V30 6082 H 575.887 -0.438233 0.592554 0
M  V30 6083 H 578.529 -0.50091 1.83278 0
M  V30 6084 H 576.679 -2.84524 2.64534 0
M  V30 6085 H 578.351 -1.01025 4.50102 0
M  V30 6086 H 576.594 -0.882185 4.24735 0
M  V30 6087 H 577.265 -2.33014 5.00408 0
M  V30 6088 H 579.741 -2.7493 3.12335 0
M  V30 6089 H 578.617 -3.94822 3.81322 0
M  V30 6090 H 578.878 -3.90286 2.07676 0
M  V30 6091 N 577.937 -1.40673 -0.710563 0
M  V30 6092 C 578.885 -1.41517 -1.84596 0
M  V30 6093 C 579.879 -0.295043 -1.66811 0
M  V30 6094 O 581.085 -0.466331 -1.73854 0
M  V30 6095 H 577.46 -0.442467 -0.608052 0
M  V30 6096 H 579.431 -2.37238 -1.80999 0
M  V30 6097 C 578.18 -1.29957 -3.225 0
M  V30 6098 H 577.503 -2.15429 -3.36794 0
M  V30 6099 H 578.943 -1.34608 -4.02066 0
M  V30 6100 C 577.402 -0.0103164 -3.36898 0
M  V30 6101 O 577.932 0.950707 -3.90288 0
M  V30 6102 N 576.138 0.0608409 -2.90536 0
M  V30 6103 H 575.685 -0.721943 -2.47277 0
M  V30 6104 H 575.643 0.92292 -3.00549 0
M  V30 6105 N 579.415 0.9433 -1.26252 0
M  V30 6106 C 580.831 1.21644 -1.03319 0
M  V30 6107 C 581.031 2.0003 0.242983 0
M  V30 6108 O 580.087 2.33838 0.952688 0
M  V30 6109 C 581.4 1.97978 -2.2633 0
M  V30 6110 C 582.948 2.10978 -2.31209 0
M  V30 6111 C 583.423 2.90713 -3.53907 0
M  V30 6112 N 584.914 2.98287 -3.54371 0
M  V30 6113 C 585.649 3.60406 -4.45976 0
M  V30 6114 N 585.145 4.24043 -5.47868 0
M  V30 6115 N 586.938 3.57658 -4.33633 0
M  V30 6116 H 579.089 0.419221 -2.08222 0
M  V30 6117 H 581.352 0.247995 -0.914988 0
M  V30 6118 H 581.058 1.47788 -3.19142 0
M  V30 6119 H 580.932 2.9865 -2.30408 0
M  V30 6120 H 583.319 2.6036 -1.38913 0
M  V30 6121 H 583.4 1.09575 -2.31143 0
M  V30 6122 H 583.044 2.42018 -4.46531 0
M  V30 6123 H 582.974 3.92367 -3.5122 0
M  V30 6124 H 585.465 2.53044 -2.80673 0
M  V30 6125 H 585.778 4.69334 -6.13959 0
M  V30 6126 H 584.123 4.22637 -5.51728 0
M  V30 6127 H 587.314 3.07134 -3.53251 0
M  V30 6128 H 587.487 4.05782 -5.05218 0
M  V30 6129 N 580.893 1.08022 1.14757 0
M  V30 6130 C 581.823 0.728248 2.21853 0
M  V30 6131 C 582.804 -0.287486 1.67653 0
M  V30 6132 O 583.989 -0.158727 1.9355 0
M  V30 6133 C 581.119 0.132549 3.47047 0
M  V30 6134 C 580.073 1.07619 4.14249 0
M  V30 6135 C 579.399 0.342907 5.33599 0
M  V30 6136 C 580.699 2.41268 4.63235 0
M  V30 6137 H 582.393 1.62365 2.51551 0
M  V30 6138 H 579.939 0.782125 1.20908 0
M  V30 6139 H 581.892 -0.125665 4.21213 0
M  V30 6140 H 580.616 -0.797971 3.16702 0
M  V30 6141 H 579.275 1.31944 3.42033 0
M  V30 6142 H 578.923 -0.59129 4.99513 0
M  V30 6143 H 578.623 0.971955 5.79506 0
M  V30 6144 H 580.147 0.0926538 6.1053 0
M  V30 6145 H 581.561 2.21232 5.28894 0
M  V30 6146 H 579.958 2.9983 5.19829 0
M  V30 6147 H 581.028 3.03079 3.78512 0
M  V30 6148 N 582.371 -1.3172 0.865308 0
M  V30 6149 C 583.617 -1.97559 0.483944 0
M  V30 6150 C 583.972 -1.67181 -0.95227 0
M  V30 6151 O 583.265 -0.955392 -1.66081 0
M  V30 6152 C 583.459 -3.5102 0.672283 0
M  V30 6153 C 583.288 -3.96312 2.12525 0
M  V30 6154 C 582.058 -4.22877 2.76591 0
M  V30 6155 C 584.256 -4.10596 3.09702 0
M  V30 6156 N 582.238 -4.5449 4.12689 0
M  V30 6157 C 583.609 -4.45867 4.30816 0
M  V30 6158 C 585.664 -3.92961 3.05755 0
M  V30 6159 C 584.367 -4.65344 5.48495 0
M  V30 6160 C 586.393 -4.13628 4.22688 0
M  V30 6161 C 585.755 -4.49227 5.42563 0
M  V30 6162 H 581.854 -0.74862 0.226035 0
M  V30 6163 H 584.438 -1.59336 1.11893 0
M  V30 6164 H 582.609 -3.88342 0.0669224 0
M  V30 6165 H 584.341 -4.03865 0.259765 0
M  V30 6166 H 581.096 -4.15343 2.27567 0
M  V30 6167 H 581.52 -4.74464 4.82921 0
M  V30 6168 H 586.162 -3.64531 2.14188 0
M  V30 6169 H 583.88 -4.92624 6.40584 0
M  V30 6170 H 587.466 -4.01474 4.21082 0
M  V30 6171 H 586.346 -4.64895 6.31539 0
M  V30 6172 N 583.85 -0.624285 -1.44708 0
M  V30 6173 C 585.075 -0.131171 -2.06985 0
M  V30 6174 C 585.5 1.18234 -1.46295 0
M  V30 6175 O 584.858 1.72375 -0.561842 0
M  V30 6176 C 584.906 -0.0226724 -3.60593 0
M  V30 6177 O 584.01 1.02314 -3.99507 0
M  V30 6178 H 583.351 -0.0816556 -0.65896 0
M  V30 6179 H 585.88 -0.859027 -1.85693 0
M  V30 6180 H 585.891 0.170138 -4.07645 0
M  V30 6181 H 584.566 -0.981685 -4.04148 0
M  V30 6182 H 583.143 0.805452 -3.64097 0
M  V30 6183 N 585.328 1.53329 -0.364422 0
M  V30 6184 C 586.577 2.00421 0.226747 0
M  V30 6185 C 586.89 1.25581 1.49963 0
M  V30 6186 O 588.096 1.63256 2.16933 0
M  V30 6187 C 586.552 3.57017 0.454618 0
M  V30 6188 C 586.16 4.40734 -0.803568 0
M  V30 6189 C 587.904 4.12468 1.00351 0
M  V30 6190 C 585.811 5.8888 -0.545345 0
M  V30 6191 H 584.741 0.748787 0.0885082 0
M  V30 6192 H 587.392 1.7703 -0.482983 0
M  V30 6193 H 585.774 3.76558 1.22558 0
M  V30 6194 H 586.948 4.32967 -1.57723 0
M  V30 6195 H 585.263 3.96381 -1.27559 0
M  V30 6196 H 587.86 5.20783 1.212 0
M  V30 6197 H 588.203 3.6699 1.9653 0
M  V30 6198 H 588.736 3.96721 0.29274 0
M  V30 6199 H 585.475 6.38633 -1.47743 0
M  V30 6200 H 584.995 5.99499 0.189842 0
M  V30 6201 H 586.674 6.46776 -0.170425 0
M  V30 6202 N 586.806 0.0935595 1.57322 0
M  V30 6203 C 588.052 -0.571355 1.94585 0
M  V30 6204 C 588.385 -1.67929 0.975366 0
M  V30 6205 O 587.66 -1.94498 0.00816206 0
M  V30 6206 C 587.943 -1.12797 3.41978 0
M  V30 6207 C 587.796 -0.0251881 4.49793 0
M  V30 6208 C 589.115 -2.02682 3.90651 0
M  V30 6209 H 586.234 -0.206223 0.70756 0
M  V30 6210 H 588.876 0.163956 1.89291 0
M  V30 6211 H 587.026 -1.75461 3.4662 0
M  V30 6212 H 588.698 0.608979 4.57263 0
M  V30 6213 H 586.941 0.641399 4.29032 0
M  V30 6214 H 587.612 -0.455433 5.50118 0
M  V30 6215 H 590.088 -1.49925 3.88152 0
M  V30 6216 H 588.964 -2.38555 4.94351 0
M  V30 6217 H 589.225 -2.94362 3.29854 0
M  V30 6218 N 588.284 -1.56567 -0.180126 0
M  V30 6219 C 589.561 -1.7235 -0.924931 0
M  V30 6220 C 589.941 -0.652523 -2.00762 0
M  V30 6221 O 589.289 0.334115 -2.26044 0
M  V30 6222 C 589.499 -3.1523 -1.49771 0
M  V30 6223 C 590.847 -3.75921 -1.97405 0
M  V30 6224 O 591.871 -3.18452 -1.59583 0
M  V30 6225 O 590.73 -4.7681 -2.67048 0
M  V30 6226 H 587.824 -0.703502 -0.434758 0
M  V30 6227 H 590.37 -1.6886 -0.168647 0
M  V30 6228 H 589.142 -3.84656 -0.718027 0
M  V30 6229 H 588.765 -3.23009 -2.31842 0
M  V30 6230 N 589.762 0.448376 -1.51087 0
M  V30 6231 C 590.709 1.54341 -1.71603 0
M  V30 6232 C 591.679 1.56463 -0.557536 0
M  V30 6233 O 592.864 1.73644 -0.79072 0
M  V30 6234 C 590.004 2.92148 -1.83695 0
M  V30 6235 C 589.117 2.99639 -3.11192 0
M  V30 6236 C 588.252 4.285 -3.13944 0
M  V30 6237 C 587.291 4.29819 -4.35801 0
M  V30 6238 N 586.428 5.50186 -4.36164 0
M  V30 6239 H 591.268 1.36151 -2.65079 0
M  V30 6240 H 588.805 0.661585 -1.31383 0
M  V30 6241 H 590.763 3.72093 -1.88687 0
M  V30 6242 H 589.393 3.0892 -0.936374 0
M  V30 6243 H 588.445 2.12425 -3.15562 0
M  V30 6244 H 589.757 2.96474 -4.01129 0
M  V30 6245 H 588.911 5.16811 -3.17791 0
M  V30 6246 H 587.65 4.34307 -2.21876 0
M  V30 6247 H 586.655 3.39902 -4.32142 0
M  V30 6248 H 587.88 4.25685 -5.29121 0
M  V30 6249 H 585.826 5.56735 -3.46961 0
M  V30 6250 H 585.743 5.48856 -5.19897 0
M  V30 6251 H 587.011 6.40559 -4.44189 0
M  V30 6252 N 591.24 1.41047 0.703093 0
M  V30 6253 C 592.47 1.43133 1.48985 0
M  V30 6254 C 592.878 0.0328537 1.89171 0
M  V30 6255 O 592.221 -0.956469 1.56835 0
M  V30 6256 C 592.283 2.26991 2.78775 0
M  V30 6257 C 591.947 3.7525 2.60837 0
M  V30 6258 C 592.944 4.67591 2.27276 0
M  V30 6259 C 590.629 4.19208 2.76712 0
M  V30 6260 C 592.623 6.01877 2.09817 0
M  V30 6261 C 590.31 5.53561 2.5887 0
M  V30 6262 C 591.308 6.4471 2.25472 0
M  V30 6263 O 590.996 7.76584 2.07778 0
M  V30 6264 H 590.728 0.489788 0.465922 0
M  V30 6265 H 593.282 1.85886 0.873822 0
M  V30 6266 H 591.512 1.79038 3.42757 0
M  V30 6267 H 593.201 2.20867 3.40547 0
M  V30 6268 H 593.967 4.34923 2.14633 0
M  V30 6269 H 589.846 3.48572 3.01693 0
M  V30 6270 H 593.39 6.72986 1.83671 0
M  V30 6271 H 589.287 5.85811 2.71102 0
M  V30 6272 H 590.055 7.87649 2.22601 0
M  V30 6273 N 592.718 -0.936591 1.26751 0
M  V30 6274 C 593.665 -2.03597 1.08706 0
M  V30 6275 C 594.635 -1.66097 -0.00926542 0
M  V30 6276 O 595.82 -1.90199 0.151377 0
M  V30 6277 C 592.96 -3.3727 0.73094 0
M  V30 6278 C 592.073 -3.87778 1.90399 0
M  V30 6279 C 591.208 -5.09859 1.49056 0
M  V30 6280 C 590.247 -5.5264 2.63164 0
M  V30 6281 N 589.384 -6.65921 2.22471 0
M  V30 6282 H 594.224 -2.18364 2.02784 0
M  V30 6283 H 591.761 -1.06985 1.00958 0
M  V30 6284 H 593.719 -4.14128 0.505328 0
M  V30 6285 H 592.349 -3.22337 -0.172868 0
M  V30 6286 H 591.401 -3.07279 2.2424 0
M  V30 6287 H 592.713 -4.15464 2.76028 0
M  V30 6288 H 591.867 -5.9419 1.22567 0
M  V30 6289 H 590.606 -4.8393 0.60524 0
M  V30 6290 H 589.611 -4.66863 2.90377 0
M  V30 6291 H 590.836 -5.80568 3.52303 0
M  V30 6292 H 588.782 -6.41667 1.36379 0
M  V30 6293 H 588.699 -6.93216 3.01641 0
M  V30 6294 H 589.967 -7.53616 1.99205 0
M  V30 6295 N 594.196 -1.08629 -1.14182 0
M  V30 6296 C 595.442 -0.818556 -1.85546 0
M  V30 6297 C 595.775 0.654076 -1.82854 0
M  V30 6298 O 595.05 1.48099 -1.26083 0
M  V30 6299 C 595.333 -1.34397 -3.3408 0
M  V30 6300 C 595.186 -2.8821 -3.45333 0
M  V30 6301 C 596.505 -0.971069 -4.29253 0
M  V30 6302 H 593.624 -0.298821 -0.673702 0
M  V30 6303 H 596.266 -1.34629 -1.34071 0
M  V30 6304 H 594.416 -0.895064 -3.78049 0
M  V30 6305 H 596.088 -3.41488 -3.10134 0
M  V30 6306 H 594.331 -3.25756 -2.86471 0
M  V30 6307 H 595.002 -3.20047 -4.49749 0
M  V30 6308 H 597.478 -1.35809 -3.93313 0
M  V30 6309 H 596.354 -1.36586 -5.31635 0
M  V30 6310 H 596.615 0.121659 -4.41933 0
M  V30 6311 N 595.674 1.31259 -0.872281 0
M  V30 6312 C 596.902 2.00795 -0.498907 0
M  V30 6313 C 597.317 1.65464 0.909238 0
M  V30 6314 O 596.674 0.885073 1.59602 0
M  V30 6315 C 596.725 3.55625 -0.649092 0
M  V30 6316 O 596.446 3.89692 -2.00179 0
M  V30 6317 C 597.947 4.42434 -0.277034 0
M  V30 6318 H 595.167 0.642299 -0.194145 0
M  V30 6319 H 597.711 1.67438 -1.17408 0
M  V30 6320 H 595.866 3.87394 -0.0214402 0
M  V30 6321 H 596.28 4.84407 -2.01122 0
M  V30 6322 H 597.754 5.50299 -0.433064 0
M  V30 6323 H 598.231 4.32146 0.783989 0
M  V30 6324 H 598.837 4.16086 -0.880483 0
M  V30 6325 N 597.152 0.631951 1.44375 0
M  V30 6326 C 598.099 -0.0724807 2.30686 0
M  V30 6327 C 599.069 -0.835975 1.43529 0
M  V30 6328 O 600.254 -0.816849 1.7243 0
M  V30 6329 C 597.394 -1.04753 3.28817 0
M  V30 6330 C 596.507 -0.282367 4.31076 0
M  V30 6331 C 595.642 -1.2493 5.163 0
M  V30 6332 C 594.681 -0.473349 6.10267 0
M  V30 6333 N 593.818 -1.39079 6.88187 0
M  V30 6334 H 598.658 0.669477 2.90383 0
M  V30 6335 H 596.195 0.341927 1.43071 0
M  V30 6336 H 598.153 -1.62623 3.842 0
M  V30 6337 H 596.783 -1.75661 2.70819 0
M  V30 6338 H 595.835 0.412268 3.78159 0
M  V30 6339 H 597.147 0.321955 4.9776 0
M  V30 6340 H 596.301 -1.89931 5.76204 0
M  V30 6341 H 595.04 -1.88755 4.49692 0
M  V30 6342 H 594.045 0.190142 5.49471 0
M  V30 6343 H 595.27 0.16019 6.78911 0
M  V30 6344 H 593.216 -2.01623 6.24247 0
M  V30 6345 H 593.133 -0.840513 7.51313 0
M  V30 6346 H 594.401 -2.02961 7.52613 0
M  V30 6347 N 598.631 -1.53133 0.372548 0
M  V30 6348 C 599.878 -2.01356 -0.214959 0
M  V30 6349 C 600.206 -1.2596 -1.48204 0
M  V30 6350 O 599.461 -0.343511 -1.92662 0
M  V30 6351 C 599.76 -3.53206 -0.545938 0
M  V30 6352 C 599.426 -4.46511 0.627624 0
M  V30 6353 C 598.088 -4.71737 0.949615 0
M  V30 6354 C 600.44 -5.01666 1.41353 0
M  V30 6355 C 597.768 -5.4937 2.05936 0
M  V30 6356 C 600.12 -5.80511 2.51375 0
M  V30 6357 C 598.784 -6.04022 2.84101 0
M  V30 6358 H 598.054 -0.736813 -0.078659 0
M  V30 6359 H 600.701 -1.84682 0.506447 0
M  V30 6360 H 599.006 -3.67864 -1.34845 0
M  V30 6361 H 600.703 -3.87997 -1.01287 0
M  V30 6362 H 597.293 -4.27029 0.366635 0
M  V30 6363 H 601.477 -4.82117 1.17802 0
M  V30 6364 H 596.733 -5.65803 2.31682 0
M  V30 6365 H 600.907 -6.22255 3.12684 0
M  V30 6366 H 598.534 -6.63962 3.70214 0
M  V30 6367 N 600.109 -0.101901 -1.5727 0
M  V30 6368 C 601.339 0.567568 -1.98651 0
M  V30 6369 C 601.747 1.61839 -0.980037 0
M  V30 6370 O 601.09 1.83661 0.0376564 0
M  V30 6371 C 601.152 1.26742 -3.36417 0
M  V30 6372 C 600.816 0.366561 -4.55528 0
M  V30 6373 C 601.813 -0.388022 -5.1845 0
M  V30 6374 C 599.498 0.282629 -5.01504 0
M  V30 6375 C 601.492 -1.21445 -6.25724 0
M  V30 6376 C 599.179 -0.547443 -6.08643 0
M  V30 6377 C 600.177 -1.29462 -6.70618 0
M  V30 6378 O 599.865 -2.11095 -7.7569 0
M  V30 6379 H 599.597 0.156282 -0.657687 0
M  V30 6380 H 602.151 -0.179912 -2.04611 0
M  V30 6381 H 600.381 2.06162 -3.27161 0
M  V30 6382 H 602.07 1.8321 -3.622 0
M  V30 6383 H 602.836 -0.332949 -4.83856 0
M  V30 6384 H 598.715 0.853868 -4.53023 0
M  V30 6385 H 602.259 -1.79814 -6.74027 0
M  V30 6386 H 598.156 -0.603971 -6.42668 0
M  V30 6387 H 598.924 -2.03851 -7.92709 0
M  V30 6388 N 601.587 1.56661 0.17182 0
M  V30 6389 C 602.815 1.861 0.904115 0
M  V30 6390 C 603.23 0.687227 1.75848 0
M  V30 6391 O 602.587 -0.343671 1.79235 0
M  V30 6392 C 602.638 3.14568 1.78127 0
M  V30 6393 O 602.359 4.27422 0.961366 0
M  V30 6394 C 603.86 3.5735 2.62327 0
M  V30 6395 H 601.08 0.617445 0.262684 0
M  V30 6396 H 603.624 2.03775 0.172068 0
M  V30 6397 H 601.779 2.98721 2.46666 0
M  V30 6398 H 602.193 5.00725 1.56123 0
M  V30 6399 H 603.667 4.50144 3.1949 0
M  V30 6400 H 604.144 2.81445 3.37173 0
M  V30 6401 H 604.75 3.75807 1.99121 0
M  V30 6402 N 603.065 -0.440357 1.51323 0
M  V30 6403 C 604.028 -1.51679 1.71832 0
M  V30 6404 C 605.028 -1.49648 0.588386 0
M  V30 6405 O 606.218 -1.51724 0.855891 0
M  V30 6406 C 603.35 -2.91228 1.77199 0
M  V30 6407 H 604.543 -1.34799 2.67898 0
M  V30 6408 H 602.096 -0.66883 1.41267 0
M  V30 6409 H 602.831 -3.13516 0.829363 0
M  V30 6410 H 602.616 -2.94107 2.59314 0
M  V30 6411 H 604.106 -3.69321 1.94915 0
M  V30 6412 N 604.543 -1.41418 -0.695603 0
M  V30 6413 C 605.954 -1.36335 -1.27552 0
M  V30 6414 C 606.305 -0.0464336 -1.96145 0
M  V30 6415 O 605.43 0.855304 -1.9878 0
M  V30 6416 C 606.025 -2.46941 -2.3196 0
M  V30 6417 C 604.584 -2.45256 -2.85529 0
M  V30 6418 C 603.731 -2.2679 -1.59566 0
M  V30 6419 H 606.682 -1.50934 -0.490362 0
M  V30 6420 H 606.703 -2.15997 -3.1325 0
M  V30 6421 H 606.215 -3.42775 -1.82008 0
M  V30 6422 H 604.316 -1.53179 -3.39657 0
M  V30 6423 H 604.429 -3.41565 -3.35961 0
M  V30 6424 H 602.793 -1.74667 -1.85374 0
M  V30 6425 H 603.576 -3.24651 -1.1161 0
M  V30 6426 N 606.021 0.929856 -1.27246 0
M  V30 6427 C 607.249 1.71144 -1.16265 0
M  V30 6428 C 607.664 1.867 0.280786 0
M  V30 6429 O 607.021 1.38249 1.19136 0
M  V30 6430 C 607.072 3.11222 -1.83911 0
M  V30 6431 O 606.793 2.96398 -3.22614 0
M  V30 6432 C 608.294 4.05541 -1.79028 0
M  V30 6433 H 605.514 0.535499 -0.404328 0
M  V30 6434 H 608.058 1.16492 -1.68077 0
M  V30 6435 H 606.213 3.6274 -1.36009 0
M  V30 6436 H 606.627 3.8494 -3.56261 0
M  V30 6437 H 608.101 5.01351 -2.30978 0
M  V30 6438 H 608.578 4.32589 -0.759168 0
M  V30 6439 H 609.184 3.59947 -2.26535 0
M  V30 6440 N 607.499 1.09233 1.13605 0
M  V30 6441 C 608.462 0.733553 2.17144 0
M  V30 6442 C 609.462 -0.235873 1.59061 0
M  V30 6443 O 610.652 -0.0143167 1.74194 0
M  V30 6444 C 607.784 0.084471 3.40795 0
M  V30 6445 H 608.977 1.65049 2.50397 0
M  V30 6446 H 606.53 0.891264 1.28399 0
M  V30 6447 H 607.265 -0.843795 3.1313 0
M  V30 6448 H 607.05 0.781985 3.84223 0
M  V30 6449 H 608.54 -0.151216 4.17326 0
M  V30 6450 N 608.977 -1.30795 0.87923 0
M  V30 6451 C 610.226 -1.95636 0.490875 0
M  V30 6452 C 610.539 -1.70214 -0.963674 0
M  V30 6453 O 611.745 -2.28991 -1.45861 0
M  V30 6454 C 610.201 -3.50271 0.826929 0
M  V30 6455 C 609.809 -3.84521 2.29886 0
M  V30 6456 C 611.553 -4.21456 0.507494 0
M  V30 6457 C 609.46 -5.32309 2.57685 0
M  V30 6458 H 608.39 -0.732238 0.179841 0
M  V30 6459 H 611.041 -1.48829 1.07341 0
M  V30 6460 H 609.423 -3.9562 0.173542 0
M  V30 6461 H 610.597 -3.50102 2.99609 0
M  V30 6462 H 608.912 -3.26425 2.58526 0
M  V30 6463 H 611.509 -5.30199 0.692293 0
M  V30 6464 H 611.852 -4.12614 -0.552718 0
M  V30 6465 H 612.385 -3.81772 1.11782 0
M  V30 6466 H 609.124 -5.46195 3.62424 0
M  V30 6467 H 608.644 -5.68048 1.92566 0
M  V30 6468 H 610.323 -5.99678 2.42889 0
M  V30 6469 N 610.455 -0.639598 -1.44038 0
M  V30 6470 C 611.871 -0.305953 -1.5664 0
M  V30 6471 C 612.071 1.19055 -1.62567 0
M  V30 6472 O 611.127 1.97492 -1.57331 0
M  V30 6473 C 612.44 -1.00533 -2.83397 0
M  V30 6474 C 613.988 -0.984278 -2.97121 0
M  V30 6475 C 614.463 -1.66428 -4.26691 0
M  V30 6476 N 615.954 -1.63127 -4.33525 0
M  V30 6477 C 616.689 -2.12629 -5.32519 0
M  V30 6478 N 616.185 -2.70359 -6.3787 0
M  V30 6479 N 617.978 -2.03208 -5.24083 0
M  V30 6480 H 610.129 -1.6109 -1.38434 0
M  V30 6481 H 612.392 -0.676672 -0.663942 0
M  V30 6482 H 612.098 -2.06034 -2.85032 0
M  V30 6483 H 611.972 -0.548362 -3.73193 0
M  V30 6484 H 614.359 0.0622792 -2.95034 0
M  V30 6485 H 614.44 -1.47981 -2.08651 0
M  V30 6486 H 614.084 -2.71034 -4.29538 0
M  V30 6487 H 614.014 -1.14351 -5.14034 0
M  V30 6488 H 616.505 -1.20987 -3.58009 0
M  V30 6489 H 616.818 -3.05842 -7.09704 0
M  V30 6490 H 615.163 -2.74414 -6.38531 0
M  V30 6491 H 618.354 -1.57823 -4.40692 0
M  V30 6492 H 618.527 -2.42097 -6.01077 0
M  V30 6493 N 611.933 1.52934 -0.380664 0
M  V30 6494 C 612.863 2.29118 0.450268 0
M  V30 6495 C 613.844 1.32153 1.07096 0
M  V30 6496 O 615.029 1.61038 1.08537 0
M  V30 6497 C 612.159 3.09161 1.58231 0
M  V30 6498 C 611.113 4.13938 1.0881 0
M  V30 6499 C 610.439 4.82153 2.31155 0
M  V30 6500 C 611.739 5.22048 0.162146 0
M  V30 6501 H 613.433 2.98826 -0.185361 0
M  V30 6502 H 610.979 1.43715 -0.0905886 0
M  V30 6503 H 612.932 3.61211 2.17036 0
M  V30 6504 H 611.656 2.3717 2.2454 0
M  V30 6505 H 610.315 3.62855 0.522633 0
M  V30 6506 H 609.963 4.06719 2.95953 0
M  V30 6507 H 609.663 5.52966 1.98752 0
M  V30 6508 H 611.187 5.37004 2.90618 0
M  V30 6509 H 612.601 5.6951 0.658126 0
M  V30 6510 H 610.998 6.00057 -0.0717122 0
M  V30 6511 H 612.068 4.78398 -0.791438 0
M  V30 6512 N 613.412 0.11024 1.57214 0
M  V30 6513 C 614.342 -0.840002 2.17867 0
M  V30 6514 C 615.323 -1.28352 1.11624 0
M  V30 6515 O 616.508 -1.3477 1.39824 0
M  V30 6516 C 613.638 -2.09349 2.77111 0
M  V30 6517 C 612.592 -1.78807 3.8886 0
M  V30 6518 C 611.918 -3.11112 4.34872 0
M  V30 6519 C 613.218 -1.0632 5.11364 0
M  V30 6520 H 614.912 -0.334608 2.97524 0
M  V30 6521 H 612.458 -0.159502 1.43114 0
M  V30 6522 H 614.411 -2.76275 3.18198 0
M  V30 6523 H 613.135 -2.62198 1.9473 0
M  V30 6524 H 611.794 -1.14273 3.48335 0
M  V30 6525 H 611.442 -3.61877 3.49362 0
M  V30 6526 H 611.142 -2.91453 5.10224 0
M  V30 6527 H 612.666 -3.79171 4.78604 0
M  V30 6528 H 614.08 -1.63383 5.49526 0
M  V30 6529 H 612.477 -0.967876 5.92243 0
M  V30 6530 H 613.547 -0.0484569 4.84876 0
M  V30 6531 N 614.89 -1.56749 -0.16351 0
M  V30 6532 C 615.823 -1.9213 -1.23132 0
M  V30 6533 C 616.801 -0.785047 -1.42393 0
M  V30 6534 O 617.985 -1.0391 -1.57273 0
M  V30 6535 C 615.112 -2.17901 -2.59301 0
M  V30 6536 C 614.158 -3.40576 -2.5673 0
M  V30 6537 S 614.991 -4.94689 -2.05045 0
M  V30 6538 C 616.147 -5.23564 -3.42975 0
M  V30 6539 H 616.38 -2.824 -0.929383 0
M  V30 6540 H 613.913 -1.4994 -0.368418 0
M  V30 6541 H 615.871 -2.33429 -3.3767 0
M  V30 6542 H 614.532 -1.28324 -2.86691 0
M  V30 6543 H 613.725 -3.55833 -3.5693 0
M  V30 6544 H 613.327 -3.24204 -1.86462 0
M  V30 6545 H 615.619 -5.16019 -4.3901 0
M  V30 6546 H 616.562 -6.25134 -3.32586 0
M  V30 6547 H 616.97 -4.51113 -3.39348 0
M  V30 6548 N 616.368 0.432326 -1.51554 0
M  V30 6549 C 617.315 1.52512 -1.7323 0
M  V30 6550 C 618.285 1.55863 -0.5741 0
M  V30 6551 O 619.47 1.72796 -0.809093 0
M  V30 6552 C 616.61 2.90183 -1.86783 0
M  V30 6553 C 615.723 2.96322 -3.14352 0
M  V30 6554 C 614.858 4.25147 -3.18471 0
M  V30 6555 C 613.897 4.25172 -4.40335 0
M  V30 6556 N 613.034 5.45529 -4.41975 0
M  V30 6557 H 617.874 1.33332 -2.66508 0
M  V30 6558 H 615.411 0.647613 -1.32077 0
M  V30 6559 H 617.369 3.70071 -1.92623 0
M  V30 6560 H 615.999 3.0791 -0.969087 0
M  V30 6561 H 615.051 2.09066 -3.17798 0
M  V30 6562 H 616.363 2.92203 -4.04251 0
M  V30 6563 H 615.517 5.13411 -3.23255 0
M  V30 6564 H 614.256 4.31929 -2.2647 0
M  V30 6565 H 613.261 3.353 -4.35723 0
M  V30 6566 H 614.486 4.20049 -5.33606 0
M  V30 6567 H 612.432 5.53024 -3.52847 0
M  V30 6568 H 612.349 5.43311 -5.25689 0
M  V30 6569 H 613.617 6.35812 -4.50958 0
M  V30 6570 N 617.846 1.41785 0.688094 0
M  V30 6571 C 619.093 1.41544 1.44816 0
M  V30 6572 C 619.421 0.0271746 1.94481 0
M  V30 6573 O 618.676 -0.962235 1.7041 0
M  V30 6574 C 618.975 2.37532 2.67046 0
M  V30 6575 C 618.641 3.84209 2.35996 0
M  V30 6576 C 617.303 4.24165 2.27239 0
M  V30 6577 C 619.655 4.76785 2.10536 0
M  V30 6578 C 616.983 5.54695 1.91128 0
M  V30 6579 C 619.335 6.07644 1.75931 0
M  V30 6580 C 617.999 6.46613 1.65675 0
M  V30 6581 H 617.269 0.517945 0.529919 0
M  V30 6582 H 619.916 1.74635 0.785797 0
M  V30 6583 H 618.221 1.9772 3.38251 0
M  V30 6584 H 619.918 2.34615 3.25203 0
M  V30 6585 H 616.508 3.52567 2.4371 0
M  V30 6586 H 620.692 4.46714 2.16242 0
M  V30 6587 H 615.948 5.83762 1.81746 0
M  V30 6588 H 620.122 6.78874 1.55252 0
M  V30 6589 H 617.749 7.47668 1.37463 0
M  V30 6590 N 619.324 -0.923095 1.27737 0
M  V30 6591 C 620.572 -1.66797 1.14119 0
M  V30 6592 C 620.893 -1.92479 -0.312541 0
M  V30 6593 O 620.163 -1.53432 -1.218 0
M  V30 6594 H 618.743 -0.618196 0.419336 0
M  V30 6595 H 621.405 -1.10815 1.60331 0
M  V30 6596 H 620.501 -2.63424 1.67374 0
M  V30 6597 N 620.802 -1.09834 -1.13024 0
M  V30 6598 C 622.079 -0.749225 -1.80682 0
M  V30 6599 C 622.459 0.765171 -1.96744 0
M  V30 6600 O 621.807 1.68912 -1.53886 0
M  V30 6601 C 622.017 -1.49311 -3.15448 0
M  V30 6602 C 623.365 -1.66162 -3.90737 0
M  V30 6603 O 624.389 -1.45597 -3.25085 0
M  V30 6604 O 623.248 -2.00211 -5.08505 0
M  V30 6605 H 620.342 -0.269614 -0.781817 0
M  V30 6606 H 622.888 -1.20078 -1.19914 0
M  V30 6607 H 621.66 -2.52407 -2.99009 0
M  V30 6608 H 621.283 -1.034 -3.8392 0
M  V30 6609 N 622.28 1.30327 -0.886154 0
M  V30 6610 C 623.19 2.31854 -0.357866 0
M  V30 6611 C 624.206 1.65392 0.540502 0
M  V30 6612 O 625.382 1.96683 0.433339 0
M  V30 6613 C 622.447 3.44171 0.417999 0
M  V30 6614 C 621.508 4.26257 -0.510263 0
M  V30 6615 C 620.741 5.3321 0.228669 0
M  V30 6616 O 620.964 5.51542 1.45458 0
M  V30 6617 O 619.898 6.0042 -0.421832 0
M  V30 6618 H 623.724 2.78995 -1.19982 0
M  V30 6619 H 621.309 1.34518 -0.650028 0
M  V30 6620 H 623.191 4.12588 0.857251 0
M  V30 6621 H 621.866 2.99164 1.23623 0
M  V30 6622 H 620.773 3.60533 -0.99835 0
M  V30 6623 H 622.106 4.74871 -1.29454 0
M  V30 6624 N 623.758 0.647228 1.43697 0
M  V30 6625 C 625.169 0.238689 1.85168 0
M  V30 6626 C 625.52 -1.21345 1.54175 0
M  V30 6627 O 624.645 -1.92542 0.987743 0
M  V30 6628 C 625.24 0.426422 3.36106 0
M  V30 6629 C 623.799 0.0722541 3.76331 0
M  V30 6630 C 622.946 0.732153 2.6746 0
M  V30 6631 H 625.897 0.851309 1.33934 0
M  V30 6632 H 625.918 -0.32987 3.79067 0
M  V30 6633 H 625.43 1.48339 3.58632 0
M  V30 6634 H 623.531 -0.982355 3.59417 0
M  V30 6635 H 623.644 0.493541 4.76551 0
M  V30 6636 H 622.008 0.16594 2.54159 0
M  V30 6637 H 622.791 1.79204 2.92816 0
M  V30 6638 N 625.236 -1.5273 0.388769 0
M  V30 6639 C 626.482 -2.01871 -0.193877 0
M  V30 6640 C 626.815 -1.27475 -1.46505 0
M  V30 6641 O 626.09 -0.375063 -1.90849 0
M  V30 6642 C 626.373 -3.5712 -0.462336 0
M  V30 6643 C 626.226 -4.42186 0.824091 0
M  V30 6644 C 627.545 -4.21881 -1.25319 0
M  V30 6645 H 624.664 -0.733764 -0.0689899 0
M  V30 6646 H 627.306 -1.82796 0.518231 0
M  V30 6647 H 625.456 -3.73504 -1.06896 0
M  V30 6648 H 627.128 -4.37554 1.46096 0
M  V30 6649 H 625.371 -4.09219 1.43952 0
M  V30 6650 H 626.042 -5.48828 0.590905 0
M  V30 6651 H 628.518 -4.0947 -0.73981 0
M  V30 6652 H 627.394 -5.30487 -1.40977 0
M  V30 6653 H 627.655 -3.79478 -2.26824 0
M  V30 6654 N 626.714 -0.118576 -1.57153 0
M  V30 6655 C 627.942 0.54726 -1.99531 0
M  V30 6656 C 628.357 1.60251 -0.998246 0
M  V30 6657 O 627.714 1.82498 0.00893106 0
M  V30 6658 C 627.765 1.17378 -3.41913 0
M  V30 6659 O 627.486 0.160703 -4.37805 0
M  V30 6660 C 628.987 1.92297 -3.9942 0
M  V30 6661 H 626.207 0.144919 -0.655164 0
M  V30 6662 H 628.751 -0.20479 -2.03472 0
M  V30 6663 H 626.906 1.87661 -3.38913 0
M  V30 6664 H 627.32 0.61586 -5.20872 0
M  V30 6665 H 628.794 2.31462 -5.01128 0
M  V30 6666 H 629.271 2.79801 -3.38538 0
M  V30 6667 H 629.877 1.26777 -4.05965 0
M  V30 6668 N 628.193 1.56834 0.155195 0
M  V30 6669 C 629.14 1.97646 1.19184 0
M  V30 6670 C 630.11 0.842788 1.4313 0
M  V30 6671 O 631.295 1.1042 1.55602 0
M  V30 6672 C 628.435 2.35527 2.52232 0
M  V30 6673 C 627.548 3.62147 2.35529 0
M  V30 6674 C 626.683 3.89167 3.61555 0
M  V30 6675 C 625.722 5.09084 3.39853 0
M  V30 6676 N 624.859 5.32156 4.5799 0
M  V30 6677 H 629.699 2.8601 0.836802 0
M  V30 6678 H 627.236 1.41507 0.401758 0
M  V30 6679 H 629.194 2.55516 3.29799 0
M  V30 6680 H 627.824 1.50253 2.85699 0
M  V30 6681 H 626.876 3.4998 1.49057 0
M  V30 6682 H 628.188 4.49871 2.15448 0
M  V30 6683 H 627.342 4.09611 4.47553 0
M  V30 6684 H 626.081 2.9985 3.84632 0
M  V30 6685 H 625.086 4.88522 2.52243 0
M  V30 6686 H 626.311 5.99947 3.18183 0
M  V30 6687 H 624.257 4.45791 4.81255 0
M  V30 6688 H 624.174 6.14133 4.40882 0
M  V30 6689 H 625.442 5.57091 5.45225 0
M  V30 6690 N 629.671 -0.424282 1.51781 0
M  V30 6691 C 630.621 -1.51464 1.70419 0
M  V30 6692 C 631.605 -1.50911 0.558094 0
M  V30 6693 O 632.797 -1.57143 0.814552 0
M  V30 6694 C 629.926 -2.89539 1.84451 0
M  V30 6695 C 629.012 -2.94798 3.04886 0
M  V30 6696 N 629.403 -2.69778 4.27848 0
M  V30 6697 C 627.701 -3.25962 3.04408 0
M  V30 6698 C 628.402 -2.81216 5.09208 0
M  V30 6699 N 627.378 -3.13447 4.44131 0
M  V30 6700 H 631.18 -1.30892 2.63144 0
M  V30 6701 H 628.694 -0.631783 1.49607 0
M  V30 6702 H 630.691 -3.67998 1.95917 0
M  V30 6703 H 629.351 -3.11121 0.929168 0
M  V30 6704 H 630.362 -2.44458 4.56575 0
M  V30 6705 H 627.039 -3.53236 2.22555 0
M  V30 6706 H 628.429 -2.65715 6.17127 0
M  V30 6707 N 631.149 -1.42148 -0.680565 0
M  V30 6708 C 632.374 -1.45901 -1.47403 0
M  V30 6709 C 632.799 -0.0700985 -1.87969 0
M  V30 6710 O 632.157 0.930145 -1.55621 0
M  V30 6711 C 632.205 -2.38661 -2.70321 0
M  V30 6712 O 631.309 -1.85399 -3.68376 0
M  V30 6713 H 630.65 -0.494565 -0.443059 0
M  V30 6714 H 633.18 -1.86774 -0.835251 0
M  V30 6715 H 633.19 -2.55046 -3.18458 0
M  V30 6716 H 631.865 -3.39571 -2.40134 0
M  V30 6717 H 630.442 -1.78541 -3.2738 0
M  V30 6718 N 632.627 0.916307 -1.28225 0
M  V30 6719 C 634.043 1.19425 -1.05876 0
M  V30 6720 C 634.243 2.005 0.2005 0
M  V30 6721 O 633.299 2.35806 0.902873 0
M  V30 6722 C 634.612 1.93133 -2.30478 0
M  V30 6723 C 636.16 2.06026 -2.35632 0
M  V30 6724 C 636.635 2.83141 -3.59994 0
M  V30 6725 N 638.126 2.90704 -3.60618 0
M  V30 6726 C 638.861 3.50865 -4.53521 0
M  V30 6727 N 638.357 4.12327 -5.56739 0
M  V30 6728 N 640.15 3.48379 -4.41122 0
M  V30 6729 H 632.301 0.37496 -2.09064 0
M  V30 6730 H 634.564 0.228531 -0.920042 0
M  V30 6731 H 634.27 1.40985 -3.22205 0
M  V30 6732 H 634.144 2.93696 -2.36691 0
M  V30 6733 H 636.531 2.57355 -1.44404 0
M  V30 6734 H 636.612 1.04647 -2.33415 0
M  V30 6735 H 636.256 2.32492 -4.51564 0
M  V30 6736 H 636.186 3.84829 -3.59464 0
M  V30 6737 H 638.677 2.47034 -2.85977 0
M  V30 6738 H 638.99 4.56205 -6.23776 0
M  V30 6739 H 637.335 4.10839 -5.60568 0
M  V30 6740 H 640.526 2.99572 -3.59686 0
M  V30 6741 H 640.699 3.94974 -5.13712 0
M  V30 6742 N 634.105 1.10431 1.1244 0
M  V30 6743 C 635.068 0.756542 2.16354 0
M  V30 6744 C 636.068 -0.21899 1.59302 0
M  V30 6745 O 637.258 0.00415969 1.742 0
M  V30 6746 C 634.39 0.120612 3.40687 0
M  V30 6747 H 635.583 1.67696 2.48632 0
M  V30 6748 H 633.136 0.904832 1.27446 0
M  V30 6749 H 633.871 -0.810536 3.14008 0
M  V30 6750 H 633.656 0.822693 3.83372 0
M  V30 6751 H 635.146 -0.106945 4.17463 0
M  V30 6752 N 635.583 -1.29855 0.893053 0
M  V30 6753 C 636.808 -2.00512 0.530066 0
M  V30 6754 C 637.233 -1.66446 -0.876199 0
M  V30 6755 O 636.591 -0.885446 -1.58207 0
M  V30 6756 C 636.639 -3.53308 0.721505 0
M  V30 6757 O 635.743 -4.11764 -0.228994 0
M  V30 6758 H 635.084 -0.630617 0.207891 0
M  V30 6759 H 637.614 -1.6551 1.20282 0
M  V30 6760 H 637.624 -4.03206 0.623599 0
M  V30 6761 H 636.299 -3.77439 1.74678 0
M  V30 6762 H 634.876 -3.72805 -0.0841034 0
M  V30 6763 N 637.061 -0.65484 -1.43351 0
M  V30 6764 C 637.991 0.0221809 -2.33489 0
M  V30 6765 C 638.972 0.810272 -1.49561 0
M  V30 6766 O 640.157 0.771426 -1.78221 0
M  V30 6767 C 637.287 0.988117 -3.32947 0
M  V30 6768 C 636.241 0.310026 -4.26876 0
M  V30 6769 C 635.567 1.38752 -5.16384 0
M  V30 6770 C 636.867 -0.798589 -5.16159 0
M  V30 6771 H 638.561 -0.730571 -2.9035 0
M  V30 6772 H 636.107 -0.352773 -1.39612 0
M  V30 6773 H 638.06 1.47067 -3.94904 0
M  V30 6774 H 636.784 1.77205 -2.74346 0
M  V30 6775 H 635.443 -0.152097 -3.66284 0
M  V30 6776 H 635.091 2.16293 -4.54121 0
M  V30 6777 H 634.791 0.939051 -5.80048 0
M  V30 6778 H 636.315 1.87141 -5.81215 0
M  V30 6779 H 637.729 -0.398126 -5.71916 0
M  V30 6780 H 636.126 -1.17163 -5.88552 0
M  V30 6781 H 637.196 -1.65588 -4.55751 0
M  V30 6782 N 638.539 1.52521 -0.396863 0
M  V30 6783 C 639.471 2.24333 0.469814 0
M  V30 6784 C 640.484 1.2685 1.02043 0
M  V30 6785 O 641.673 1.52876 0.92147 0
M  V30 6786 C 638.773 2.95202 1.66461 0
M  V30 6787 C 637.946 4.19454 1.24003 0
M  V30 6788 C 637.005 4.73255 2.30036 0
M  V30 6789 O 636.031 5.36151 1.91131 0
M  V30 6790 N 637.233 4.53765 3.62047 0
M  V30 6791 H 639.998 2.99347 -0.145468 0
M  V30 6792 H 637.559 1.60348 -0.223606 0
M  V30 6793 H 639.551 3.28092 2.36934 0
M  V30 6794 H 638.121 2.2345 2.18607 0
M  V30 6795 H 637.341 3.92517 0.363892 0
M  V30 6796 H 638.629 5.0017 0.933135 0
M  V30 6797 H 638.027 4.03576 3.96412 0
M  V30 6798 H 636.584 4.91124 4.28533 0
M  V30 6799 N 640.017 0.126909 1.57088 0
M  V30 6800 C 641.263 -0.529952 1.95753 0
M  V30 6801 C 641.596 -1.65823 1.01077 0
M  V30 6802 O 640.871 -1.94437 0.0494162 0
M  V30 6803 C 641.154 -1.05517 3.44294 0
M  V30 6804 C 641.007 0.0702253 4.49745 0
M  V30 6805 C 642.326 -1.9435 3.94862 0
M  V30 6806 H 639.445 -0.191168 0.711775 0
M  V30 6807 H 642.087 0.204071 1.88901 0
M  V30 6808 H 640.237 -1.68069 3.50264 0
M  V30 6809 H 641.909 0.705834 4.55868 0
M  V30 6810 H 640.152 0.732259 4.27575 0
M  V30 6811 H 640.823 -0.338642 5.5096 0
M  V30 6812 H 643.299 -1.41658 3.91244 0
M  V30 6813 H 642.175 -2.28015 4.993 0
M  V30 6814 H 642.436 -2.87299 3.36024 0
M  V30 6815 N 641.495 -1.56914 -0.146875 0
M  V30 6816 C 642.425 -2.01308 -1.1831 0
M  V30 6817 C 643.406 -0.892664 -1.44795 0
M  V30 6818 O 644.591 -1.16048 -1.55713 0
M  V30 6819 C 641.721 -2.3938 -2.51624 0
M  V30 6820 C 640.675 -3.54608 -2.3966 0
M  V30 6821 C 640.001 -3.78493 -3.77686 0
M  V30 6822 C 641.301 -4.87269 -1.88058 0
M  V30 6823 H 642.995 -2.88123 -0.813964 0
M  V30 6824 H 640.541 -1.38615 -0.3901 0
M  V30 6825 H 642.494 -2.69037 -3.24341 0
M  V30 6826 H 641.218 -1.49502 -2.90373 0
M  V30 6827 H 639.877 -3.25116 -1.69396 0
M  V30 6828 H 639.525 -2.85866 -4.13871 0
M  V30 6829 H 639.225 -4.56039 -3.70543 0
M  V30 6830 H 640.749 -4.10576 -4.51951 0
M  V30 6831 H 642.163 -5.15644 -2.50568 0
M  V30 6832 H 640.56 -5.68622 -1.91805 0
M  V30 6833 H 641.63 -4.77634 -0.836277 0
M  V30 6834 N 642.974 0.416227 -1.52004 0
M  V30 6835 C 644.222 1.16153 -1.65387 0
M  V30 6836 C 644.543 1.91208 -0.382669 0
M  V30 6837 O 643.813 1.86413 0.602231 0
M  V30 6838 H 642.393 0.431765 -0.60958 0
M  V30 6839 H 645.055 0.475151 -1.89019 0
M  V30 6840 H 644.151 1.87952 -2.4916 0
M  V30 6841 N 644.452 1.42507 0.673017 0
M  V30 6842 C 645.68 1.46473 1.46128 0
M  V30 6843 C 646.095 0.0765912 1.88645 0
M  V30 6844 O 645.452 -0.909057 1.58248 0
M  V30 6845 C 645.503 2.39339 2.70923 0
M  V30 6846 O 645.224 3.72752 2.3019 0
M  V30 6847 C 646.725 2.52343 3.64469 0
M  V30 6848 H 643.945 0.49812 0.449575 0
M  V30 6849 H 646.489 1.87041 0.826802 0
M  V30 6850 H 644.644 2.02019 3.30556 0
M  V30 6851 H 645.058 4.22503 3.10791 0
M  V30 6852 H 646.532 3.2144 4.48754 0
M  V30 6853 H 647.009 1.56189 4.1049 0
M  V30 6854 H 647.615 2.90392 3.10729 0
M  V30 6855 N 645.93 -0.909495 1.28709 0
M  V30 6856 C 647.176 -1.66151 1.16283 0
M  V30 6857 C 647.509 -1.92067 -0.287069 0
M  V30 6858 O 646.784 -1.52409 -1.20837 0
M  V30 6859 C 647.067 -3.01676 1.9663 0
M  V30 6860 C 646.92 -2.82888 3.49707 0
M  V30 6861 C 648.239 -4.02274 1.78504 0
M  V30 6862 H 645.358 -0.602966 0.423793 0
M  V30 6863 H 648 -1.05418 1.58073 0
M  V30 6864 H 646.15 -3.53515 1.61119 0
M  V30 6865 H 647.822 -2.38026 3.95147 0
M  V30 6866 H 646.065 -2.17862 3.75125 0
M  V30 6867 H 646.736 -3.79147 4.01187 0
M  V30 6868 H 649.212 -3.59511 2.09503 0
M  V30 6869 H 648.088 -4.95056 2.37088 0
M  V30 6870 H 648.349 -4.35903 0.737647 0
M  V30 6871 N 647.408 -1.11026 -1.11852 0
M  V30 6872 C 648.656 -0.854769 -1.83134 0
M  V30 6873 C 648.977 0.621375 -1.84835 0
M  V30 6874 O 648.247 1.45129 -1.31584 0
M  V30 6875 H 646.827 -0.313229 -0.678157 0
M  V30 6876 H 649.489 -1.40178 -1.35411 0
M  V30 6877 H 648.585 -1.22311 -2.87135 0
M  V30 6878 N 648.886 1.2938 -0.899927 0
M  V30 6879 C 649.796 2.31462 -0.382437 0
M  V30 6880 C 650.812 1.65956 0.522929 0
M  V30 6881 O 651.988 1.97131 0.412454 0
M  V30 6882 C 649.053 3.44595 0.381472 0
M  V30 6883 C 648.114 4.25692 -0.555444 0
M  V30 6884 C 647.347 5.33422 0.172102 0
M  V30 6885 O 647.57 5.53053 1.396 0
M  V30 6886 O 646.504 5.99939 -0.485491 0
M  V30 6887 H 650.33 2.77706 -1.22934 0
M  V30 6888 H 647.915 1.33821 -0.664259 0
M  V30 6889 H 649.797 4.13474 0.813442 0
M  V30 6890 H 648.472 3.00458 1.20443 0
M  V30 6891 H 647.379 3.59453 -1.03653 0
M  V30 6892 H 648.712 4.73471 -1.34483 0
M  V30 6893 N 650.364 0.662433 1.43002 0
M  V30 6894 C 651.775 0.258315 1.84904 0
M  V30 6895 C 652.126 -1.19703 1.55453 0
M  V30 6896 O 651.251 -1.91484 1.00811 0
M  V30 6897 C 651.846 0.462047 3.35635 0
M  V30 6898 C 650.405 0.112165 3.76233 0
M  V30 6899 C 649.552 0.760479 2.66668 0
M  V30 6900 H 652.503 0.865467 1.33024 0
M  V30 6901 H 652.524 -0.289646 3.79396 0
M  V30 6902 H 652.036 1.52135 3.57039 0
M  V30 6903 H 650.137 -0.944179 3.60439 0
M  V30 6904 H 650.25 0.544058 4.76001 0
M  V30 6905 H 648.614 0.192887 2.53969 0
M  V30 6906 H 649.397 1.82299 2.90898 0
M  V30 6907 N 651.842 -1.52309 0.404946 0
M  V30 6908 C 653.091 -2.00952 -0.173529 0
M  V30 6909 C 653.404 -1.29512 -1.46581 0
M  V30 6910 O 654.61 -1.6895 -2.12528 0
M  V30 6911 C 653.066 -3.58097 -0.359801 0
M  V30 6912 C 652.674 -4.38449 0.920138 0
M  V30 6913 C 654.418 -4.14984 -0.893794 0
M  V30 6914 C 652.325 -5.87227 0.701285 0
M  V30 6915 H 651.255 -0.750871 -0.0686244 0
M  V30 6916 H 653.906 -1.75687 0.529749 0
M  V30 6917 H 652.288 -3.79675 -1.12531 0
M  V30 6918 H 653.462 -4.28633 1.69147 0
M  V30 6919 H 651.777 -3.92859 1.38024 0
M  V30 6920 H 654.374 -5.23813 -1.0735 0
M  V30 6921 H 654.717 -3.72072 -1.8673 0
M  V30 6922 H 655.25 -3.97358 -0.187453 0
M  V30 6923 H 651.989 -6.34491 1.64624 0
M  V30 6924 H 651.509 -5.99792 -0.0308288 0
M  V30 6925 H 653.188 -6.46096 0.341846 0
M  V30 6926 N 653.32 -0.135238 -1.57019 0
M  V30 6927 C 654.268 0.826099 -2.17436 0
M  V30 6928 C 655.262 1.26378 -1.12805 0
M  V30 6929 O 656.468 1.23363 -1.31079 0
M  V30 6930 H 652.843 0.284568 -0.696078 0
M  V30 6931 H 654.814 0.292212 -2.96966 0
M  V30 6932 C 653.563 2.05991 -2.80112 0
M  V30 6933 H 652.886 1.73209 -3.60331 0
M  V30 6934 H 654.326 2.71225 -3.25903 0
M  V30 6935 C 652.785 2.86027 -1.78017 0
M  V30 6936 O 653.315 3.81971 -1.24344 0
M  V30 6937 N 651.521 2.50332 -1.47588 0
M  V30 6938 H 651.068 1.72377 -1.91426 0
M  V30 6939 H 651.026 3.04177 -0.795228 0
M  V30 6940 N 654.798 1.5699 0.138552 0
M  V30 6941 C 656.209 1.73171 0.697754 0
M  V30 6942 C 656.56 0.750952 1.8126 0
M  V30 6943 O 655.685 -0.080549 2.1625 0
M  V30 6944 C 656.28 3.13996 1.27248 0
M  V30 6945 C 654.839 3.3175 1.77816 0
M  V30 6946 C 653.986 2.69084 0.669991 0
M  V30 6947 H 656.937 1.5846 -0.0871979 0
M  V30 6948 H 656.958 3.14463 2.14227 0
M  V30 6949 H 656.47 3.85354 0.460855 0
M  V30 6950 H 654.571 2.65403 2.61519 0
M  V30 6951 H 654.684 4.39768 1.90107 0
M  V30 6952 H 653.048 2.29782 1.09874 0
M  V30 6953 H 653.831 3.43053 -0.130329 0
M  V30 6954 N 656.276 -0.40816 1.52223 0
M  V30 6955 C 657.186 -1.52202 1.78526 0
M  V30 6956 C 658.202 -1.60546 0.670892 0
M  V30 6957 O 659.378 -1.77242 0.956404 0
M  V30 6958 C 656.443 -2.87928 1.93128 0
M  V30 6959 C 655.504 -2.89463 3.17033 0
M  V30 6960 C 654.737 -4.18715 3.30929 0
M  V30 6961 O 654.96 -5.12662 2.50067 0
M  V30 6962 O 653.894 -4.27125 4.24084 0
M  V30 6963 H 657.72 -1.32911 2.73072 0
M  V30 6964 H 655.305 -0.594112 1.37079 0
M  V30 6965 H 657.187 -3.68426 2.04549 0
M  V30 6966 H 655.862 -3.07285 1.01772 0
M  V30 6967 H 654.769 -2.07815 3.11069 0
M  V30 6968 H 656.102 -2.75055 4.08174 0
M  V30 6969 N 657.755 -1.42862 -0.66545 0
M  V30 6970 C 658.718 -1.46756 -1.76055 0
M  V30 6971 C 659.718 -0.353866 -1.56858 0
M  V30 6972 O 660.908 -0.615099 -1.62979 0
M  V30 6973 C 658.04 -1.30829 -3.14796 0
M  V30 6974 H 659.233 -2.44271 -1.73987 0
M  V30 6975 H 656.786 -1.29447 -0.875965 0
M  V30 6976 H 657.521 -0.342733 -3.22484 0
M  V30 6977 H 657.306 -2.11551 -3.30134 0
M  V30 6978 H 658.796 -1.36458 -3.94676 0
M  V30 6979 N 659.233 0.902656 -1.29189 0
M  V30 6980 C 660.479 1.6555 -1.18172 0
M  V30 6981 C 660.834 1.90569 0.264788 0
M  V30 6982 O 660.127 1.50292 1.1884 0
M  V30 6983 C 660.321 3.011 -1.92545 0
M  V30 6984 C 660.15 2.89312 -3.4428 0
M  V30 6985 C 658.92 2.90239 -4.1363 0
M  V30 6986 C 661.118 2.6656 -4.3983 0
M  V30 6987 N 659.1 2.69156 -5.5175 0
M  V30 6988 C 660.471 2.54429 -5.6539 0
M  V30 6989 C 662.526 2.51644 -4.29627 0
M  V30 6990 C 661.229 2.289 -6.81907 0
M  V30 6991 C 663.255 2.27498 -5.45892 0
M  V30 6992 C 662.617 2.16129 -6.70423 0
M  V30 6993 H 658.716 0.611519 -0.48741 0
M  V30 6994 H 661.3 1.06514 -1.62981 0
M  V30 6995 H 659.471 3.58202 -1.50154 0
M  V30 6996 H 661.203 3.65471 -1.73818 0
M  V30 6997 H 657.958 3.01412 -3.65305 0
M  V30 6998 H 658.382 2.61676 -6.24383 0
M  V30 6999 H 663.024 2.59178 -3.34045 0
M  V30 7000 H 660.742 2.20104 -7.77547 0
M  V30 7001 H 664.328 2.16805 -5.39895 0
M  V30 7002 H 663.208 1.97703 -7.5887 0
M  V30 7003 N 660.711 1.11618 1.11262 0
M  V30 7004 C 661.641 0.79846 2.19424 0
M  V30 7005 C 662.622 -0.234003 1.68483 0
M  V30 7006 O 663.807 -0.0970704 1.93957 0
M  V30 7007 C 660.937 0.242892 3.4645 0
M  V30 7008 C 659.891 1.20744 4.10615 0
M  V30 7009 C 659.217 0.512494 5.32238 0
M  V30 7010 C 660.517 2.55884 4.55325 0
M  V30 7011 H 662.211 1.70286 2.46258 0
M  V30 7012 H 659.757 0.820195 1.18359 0
M  V30 7013 H 661.71 0.00840447 4.21399 0
M  V30 7014 H 660.434 -0.696811 3.1908 0
M  V30 7015 H 659.093 1.42759 3.37662 0
M  V30 7016 H 658.741 -0.432075 5.01141 0
M  V30 7017 H 658.441 1.15583 5.7612 0
M  V30 7018 H 659.965 0.286842 6.09926 0
M  V30 7019 H 661.379 2.37946 5.21588 0
M  V30 7020 H 659.776 3.16216 5.10027 0
M  V30 7021 H 660.846 3.14968 3.68678 0
M  V30 7022 N 662.189 -1.289 0.906776 0
M  V30 7023 C 663.435 -1.95919 0.546551 0
M  V30 7024 C 663.79 -1.70126 -0.8986 0
M  V30 7025 O 663.083 -1.00775 -1.62957 0
M  V30 7026 C 663.277 -3.48704 0.783617 0
M  V30 7027 C 663.106 -3.8935 2.25026 0
M  V30 7028 C 661.876 -4.13864 2.89905 0
M  V30 7029 C 664.074 -4.00535 3.22608 0
M  V30 7030 N 662.056 -4.41131 4.26939 0
M  V30 7031 C 663.427 -4.31936 4.44783 0
M  V30 7032 C 665.482 -3.83035 3.18102 0
M  V30 7033 C 664.185 -4.47659 5.63022 0
M  V30 7034 C 666.211 -3.99971 4.35634 0
M  V30 7035 C 665.573 -4.31738 5.5658 0
M  V30 7036 H 661.672 -0.74105 0.249737 0
M  V30 7037 H 664.256 -1.55696 1.16906 0
M  V30 7038 H 662.427 -3.87933 0.190437 0
M  V30 7039 H 664.159 -4.02835 0.38812 0
M  V30 7040 H 660.914 -4.07893 2.40666 0
M  V30 7041 H 661.338 -4.5886 4.97771 0
M  V30 7042 H 665.98 -3.57533 2.25677 0
M  V30 7043 H 663.698 -4.71995 6.55932 0
M  V30 7044 H 667.284 -3.87874 4.33641 0
M  V30 7045 H 666.164 -4.44568 6.4601 0
M  V30 7046 N 663.667 -0.670007 -1.42649 0
M  V30 7047 C 664.897 -0.198252 -2.05647 0
M  V30 7048 C 665.305 1.14786 -1.50402 0
M  V30 7049 O 664.648 1.72316 -0.636634 0
M  V30 7050 C 664.71 -0.0507132 -3.59464 0
M  V30 7051 C 664.374 -1.32478 -4.37377 0
M  V30 7052 C 665.371 -2.2572 -4.68344 0
M  V30 7053 C 663.056 -1.57104 -4.77099 0
M  V30 7054 C 665.05 -3.4187 -5.37963 0
M  V30 7055 C 662.737 -2.73543 -5.46459 0
M  V30 7056 C 663.735 -3.65751 -5.76815 0
M  V30 7057 O 663.423 -4.80154 -6.44753 0
M  V30 7058 H 663.155 -0.0950721 -0.669281 0
M  V30 7059 H 665.709 -0.915745 -1.83857 0
M  V30 7060 H 663.939 0.722314 -3.79894 0
M  V30 7061 H 665.628 0.380552 -4.04112 0
M  V30 7062 H 666.394 -2.07943 -4.38161 0
M  V30 7063 H 662.273 -0.862069 -4.52868 0
M  V30 7064 H 665.817 -4.13861 -5.61574 0
M  V30 7065 H 661.714 -2.91248 -5.7606 0
M  V30 7066 H 662.482 -4.79637 -6.63243 0
M  V30 7067 N 665.145 1.52092 -0.413018 0
M  V30 7068 C 666.095 2.23947 0.427993 0
M  V30 7069 C 667.079 1.25229 1.01027 0
M  V30 7070 O 668.271 1.50448 0.932444 0
M  V30 7071 C 665.4 3.0672 1.542 0
M  V30 7072 C 664.486 4.12851 0.970307 0
M  V30 7073 N 664.877 5.05644 0.125611 0
M  V30 7074 C 663.175 4.28404 1.24042 0
M  V30 7075 C 663.876 5.8138 -0.192876 0
M  V30 7076 N 662.852 5.41996 0.417273 0
M  V30 7077 H 666.654 2.93048 -0.223628 0
M  V30 7078 H 664.168 1.60852 -0.223664 0
M  V30 7079 H 666.165 3.56754 2.15714 0
M  V30 7080 H 664.825 2.39159 2.19621 0
M  V30 7081 H 665.836 5.17348 -0.238995 0
M  V30 7082 H 662.513 3.72071 1.89391 0
M  V30 7083 H 663.903 6.66129 -0.878762 0
M  V30 7084 N 666.623 0.143563 1.56945 0
M  V30 7085 C 668.039 -0.212877 1.58174 0
M  V30 7086 C 668.239 -1.64926 1.15766 0
M  V30 7087 O 667.295 -2.37535 0.856361 0
M  V30 7088 C 668.608 0.0427573 3.0067 0
M  V30 7089 C 670.156 -0.0212221 3.12993 0
M  V30 7090 C 670.631 0.207036 4.57532 0
M  V30 7091 N 672.122 0.153845 4.62944 0
M  V30 7092 C 672.857 0.305018 5.72588 0
M  V30 7093 N 672.353 0.513722 6.90893 0
M  V30 7094 N 674.146 0.242862 5.61575 0
M  V30 7095 H 666.297 1.08148 1.82805 0
M  V30 7096 H 668.56 0.427831 0.84597 0
M  V30 7097 H 668.266 1.03672 3.36073 0
M  V30 7098 H 668.14 -0.678195 3.71053 0
M  V30 7099 H 670.527 -1.00574 2.77433 0
M  V30 7100 H 670.608 0.732004 2.45103 0
M  V30 7101 H 670.252 1.18863 4.93795 0
M  V30 7102 H 670.182 -0.566473 5.23544 0
M  V30 7103 H 672.673 -0.00294866 3.779 0
M  V30 7104 H 672.986 0.619273 7.70315 0
M  V30 7105 H 671.331 0.550001 6.9282 0
M  V30 7106 H 674.522 0.0806015 4.68031 0
M  V30 7107 H 674.695 0.364112 6.46976 0
M  V30 7108 N 668.101 -1.57061 -0.130224 0
M  V30 7109 C 669.347 -1.8453 -0.841216 0
M  V30 7110 C 669.68 -0.727666 -1.80052 0
M  V30 7111 O 668.955 0.267419 -1.92653 0
M  V30 7112 C 669.238 -3.22553 -1.60099 0
M  V30 7113 C 669.091 -4.44901 -0.662048 0
M  V30 7114 C 670.41 -3.58003 -2.55973 0
M  V30 7115 H 667.529 -0.671215 -0.304366 0
M  V30 7116 H 670.171 -1.89705 -0.105821 0
M  V30 7117 H 668.321 -3.18272 -2.22789 0
M  V30 7118 H 669.993 -4.61278 -0.0448559 0
M  V30 7119 H 668.236 -4.33791 0.0272253 0
M  V30 7120 H 668.907 -5.3812 -1.23006 0
M  V30 7121 H 671.383 -3.63002 -2.03393 0
M  V30 7122 H 670.259 -4.55576 -3.06172 0
M  V30 7123 H 670.52 -2.84833 -3.38116 0
M  V30 7124 N 669.579 0.400081 -1.52437 0
M  V30 7125 C 670.825 1.14788 -1.67187 0
M  V30 7126 C 671.158 1.89928 -0.405074 0
M  V30 7127 O 670.433 1.85118 0.596804 0
M  V30 7128 C 670.716 2.13507 -2.89977 0
M  V30 7129 C 670.569 1.42204 -4.2673 0
M  V30 7130 C 671.888 3.14069 -3.083 0
M  V30 7131 H 669.007 0.415939 -0.608411 0
M  V30 7132 H 671.649 0.432542 -1.85011 0
M  V30 7133 H 669.799 2.7451 -2.74912 0
M  V30 7134 H 671.471 0.842503 -4.53541 0
M  V30 7135 H 669.714 0.723939 -4.27717 0
M  V30 7136 H 670.385 2.14281 -5.08712 0
M  V30 7137 H 672.861 2.63148 -3.22323 0
M  V30 7138 H 671.737 3.80398 -3.95713 0
M  V30 7139 H 671.998 3.82309 -2.22018 0
M  V30 7140 N 671.057 1.43213 0.657864 0
M  V30 7141 C 672.305 1.44298 1.41501 0
M  V30 7142 C 672.626 0.0666478 1.94886 0
M  V30 7143 O 671.896 -0.897345 1.74139 0
M  V30 7144 H 670.476 0.531257 0.525143 0
M  V30 7145 H 673.138 1.78777 0.776195 0
M  V30 7146 H 672.234 2.1528 2.25966 0
M  V30 7147 N 672.536 -0.895792 1.29666 0
M  V30 7148 C 673.499 -1.98189 1.15124 0
M  V30 7149 C 674.499 -1.60572 0.0855717 0
M  V30 7150 O 675.689 -1.70991 0.332826 0
M  V30 7151 C 672.821 -3.32289 0.761372 0
M  V30 7152 H 674.014 -2.12518 2.11603 0
M  V30 7153 H 671.567 -1.0808 1.12908 0
M  V30 7154 H 672.302 -3.23662 -0.203393 0
M  V30 7155 H 672.087 -3.60958 1.53139 0
M  V30 7156 H 673.577 -4.1198 0.682792 0
M  V30 7157 N 674.014 -1.12206 -1.10668 0
M  V30 7158 C 674.946 -0.74552 -2.16736 0
M  V30 7159 C 675.959 0.226696 -1.61214 0
M  V30 7160 O 677.148 0.0083936 -1.78498 0
M  V30 7161 C 674.248 -0.0823368 -3.388 0
M  V30 7162 C 673.421 -1.08341 -4.2377 0
M  V30 7163 C 672.48 -0.448292 -5.24287 0
M  V30 7164 O 671.506 -1.10458 -5.58379 0
M  V30 7165 N 672.708 0.785336 -5.75163 0
M  V30 7166 H 675.473 -1.65818 -2.49649 0
M  V30 7167 H 673.034 -1.01335 -1.26265 0
M  V30 7168 H 675.026 0.354476 -4.03145 0
M  V30 7169 H 673.596 0.733041 -3.03884 0
M  V30 7170 H 672.816 -1.69792 -3.55759 0
M  V30 7171 H 674.104 -1.76042 -4.77375 0
M  V30 7172 H 673.502 1.33755 -5.4966 0
M  V30 7173 H 672.059 1.16501 -6.41304 0
M  V30 7174 N 675.492 1.28418 -0.913599 0
M  V30 7175 C 676.908 1.47411 -0.611728 0
M  V30 7176 C 677.108 1.83018 0.843008 0
M  V30 7177 O 676.164 1.93505 1.6221 0
M  V30 7178 C 677.477 2.57703 -1.5495 0
M  V30 7179 C 679.025 2.71572 -1.5562 0
M  V30 7180 C 679.5 3.85008 -2.48058 0
M  V30 7181 N 680.991 3.92361 -2.46184 0
M  V30 7182 C 681.726 4.79516 -3.14407 0
M  V30 7183 N 681.222 5.71262 -3.91958 0
M  V30 7184 N 683.015 4.73125 -3.03495 0
M  V30 7185 H 675.166 1.03585 -1.85429 0
M  V30 7186 H 677.429 0.515907 -0.795326 0
M  V30 7187 H 677.135 2.38298 -2.58663 0
M  V30 7188 H 677.009 3.54801 -1.28048 0
M  V30 7189 H 679.396 2.90366 -0.526441 0
M  V30 7190 H 679.477 1.75006 -1.86565 0
M  V30 7191 H 679.121 3.66969 -3.51136 0
M  V30 7192 H 679.051 4.80971 -2.14416 0
M  V30 7193 H 681.542 3.26749 -1.89851 0
M  V30 7194 H 681.855 6.34593 -4.41034 0
M  V30 7195 H 680.2 5.71103 -3.96063 0
M  V30 7196 H 683.391 4.00442 -2.42413 0
M  V30 7197 H 683.564 5.40834 -3.56935 0
M  V30 7198 N 676.97 0.677563 1.42291 0
M  V30 7199 C 678.21 0.204894 2.0337 0
M  V30 7200 C 678.574 -1.16744 1.5243 0
M  V30 7201 O 679.775 -1.73492 2.05314 0
M  V30 7202 C 678.046 0.240742 3.56588 0
M  V30 7203 S 679.605 -0.16052 4.38506 0
M  V30 7204 H 676.423 0.0839932 0.706021 0
M  V30 7205 H 679.025 0.891332 1.73999 0
M  V30 7206 H 677.729 1.24184 3.91161 0
M  V30 7207 H 677.26 -0.465439 3.90637 0
M  V30 7208 H 679.275 -1.39315 4.76241 0
M  V30 7209 N 678.448 -1.51871 0.421078 0
M  V30 7210 C 679.859 -1.86644 -0.0457991 0
M  V30 7211 C 680.21 -1.33919 -1.43388 0
M  V30 7212 O 679.335 -0.683316 -2.05328 0
M  V30 7213 C 679.93 -3.38681 -0.0898844 0
M  V30 7214 C 678.489 -3.73049 -0.501127 0
M  V30 7215 C 677.636 -2.75485 0.316723 0
M  V30 7216 H 680.587 -1.45327 0.637635 0
M  V30 7217 H 680.608 -3.69636 -0.902734 0
M  V30 7218 H 680.12 -3.77025 0.920513 0
M  V30 7219 H 678.221 -3.40288 -1.51773 0
M  V30 7220 H 678.334 -4.78512 -0.237217 0
M  V30 7221 H 676.698 -2.53725 -0.222663 0
M  V30 7222 H 677.481 -3.16671 1.32569 0
M  V30 7223 N 679.926 -0.151884 -1.56866 0
M  V30 7224 C 681.175 0.497992 -1.95456 0
M  V30 7225 C 681.488 1.6569 -1.03953 0
M  V30 7226 O 682.694 2.37173 -1.32142 0
M  V30 7227 C 681.15 0.93732 -3.4748 0
M  V30 7228 C 680.758 -0.194921 -4.47576 0
M  V30 7229 C 682.502 1.55671 -3.94926 0
M  V30 7230 C 680.409 0.26295 -5.90815 0
M  V30 7231 H 679.339 0.189811 -0.729717 0
M  V30 7232 H 681.99 -0.237011 -1.81963 0
M  V30 7233 H 680.372 1.72773 -3.56322 0
M  V30 7234 H 681.546 -0.971951 -4.50433 0
M  V30 7235 H 679.861 -0.72303 -4.10075 0
M  V30 7236 H 682.458 1.91099 -4.99385 0
M  V30 7237 H 682.801 2.44748 -3.36755 0
M  V30 7238 H 683.334 0.831109 -3.89021 0
M  V30 7239 H 680.073 -0.592568 -6.52816 0
M  V30 7240 H 679.593 1.00575 -5.91308 0
M  V30 7241 H 681.272 0.713333 -6.43056 0
M  V30 7242 N 681.404 1.57128 0.121893 0
M  V30 7243 C 682.65 1.84974 0.831418 0
M  V30 7244 C 682.983 0.737204 1.79663 0
M  V30 7245 O 682.258 -0.257199 1.92792 0
M  V30 7246 C 682.541 3.23397 1.58386 0
M  V30 7247 C 682.394 4.45246 0.638445 0
M  V30 7248 C 683.713 3.59355 2.54071 0
M  V30 7249 H 680.832 0.67282 0.300803 0
M  V30 7250 H 683.474 1.89759 0.0957587 0
M  V30 7251 H 681.624 3.19449 2.21098 0
M  V30 7252 H 683.296 4.61295 0.0203925 0
M  V30 7253 H 681.539 4.33771 -0.05023 0
M  V30 7254 H 682.21 5.38765 1.20151 0
M  V30 7255 H 684.686 3.64075 2.01465 0
M  V30 7256 H 683.562 4.57193 3.03752 0
M  V30 7257 H 683.823 2.86622 3.36601 0
M  V30 7258 N 682.882 -0.391992 1.52647 0
M  V30 7259 C 684.159 -1.15136 1.58123 0
M  V30 7260 C 684.539 -2.07786 0.372597 0
M  V30 7261 O 683.887 -2.19374 -0.639304 0
M  V30 7262 C 684.097 -1.91367 2.91856 0
M  V30 7263 C 685.445 -2.46833 3.45483 0
M  V30 7264 O 686.469 -2.01527 2.9371 0
M  V30 7265 O 685.328 -3.29587 4.3593 0
M  V30 7266 H 682.422 -0.526649 0.637629 0
M  V30 7267 H 684.968 -0.397386 1.64982 0
M  V30 7268 H 683.74 -1.23597 3.71268 0
M  V30 7269 H 683.363 -2.73732 2.88369 0
M  V30 7270 N 684.36 -1.4356 -0.65026 0
M  V30 7271 C 685.588 -1.48779 -1.43779 0
M  V30 7272 C 686.003 -0.106593 -1.88499 0
M  V30 7273 O 685.36 0.883766 -1.59674 0
M  V30 7274 C 685.411 -2.43618 -2.67081 0
M  V30 7275 O 685.132 -3.76367 -2.24231 0
M  V30 7276 C 686.633 -2.5811 -3.60409 0
M  V30 7277 H 683.853 -0.50521 -0.441593 0
M  V30 7278 H 686.397 -1.88332 -0.796941 0
M  V30 7279 H 684.552 -2.07253 -3.273 0
M  V30 7280 H 684.966 -4.27394 -3.0403 0
M  V30 7281 H 686.44 -3.28539 -4.43583 0
M  V30 7282 H 686.917 -1.627 -4.07953 0
M  V30 7283 H 687.523 -2.95298 -3.0607 0
M  V30 7284 N 685.838 0.888903 -1.30139 0
M  V30 7285 C 687.085 1.64037 -1.18736 0
M  V30 7286 C 687.413 1.92771 0.258801 0
M  V30 7287 O 686.668 1.54427 1.20212 0
M  V30 7288 C 686.967 2.99041 -1.95728 0
M  V30 7289 C 686.633 2.89874 -3.45375 0
M  V30 7290 C 685.295 2.87082 -3.86183 0
M  V30 7291 C 687.647 2.78289 -4.40687 0
M  V30 7292 C 684.975 2.70536 -5.20603 0
M  V30 7293 C 687.327 2.63282 -5.75209 0
M  V30 7294 C 685.991 2.58861 -6.15262 0
M  V30 7295 H 685.261 0.600253 -0.434485 0
M  V30 7296 H 687.908 1.0338 -1.61198 0
M  V30 7297 H 686.213 3.63626 -1.45888 0
M  V30 7298 H 687.91 3.56139 -1.843 0
M  V30 7299 H 684.5 2.92856 -3.12943 0
M  V30 7300 H 688.684 2.79516 -4.10103 0
M  V30 7301 H 683.94 2.65526 -5.50732 0
M  V30 7302 H 688.114 2.5329 -6.48704 0
M  V30 7303 H 685.741 2.45799 -7.19366 0
M  V30 7304 N 687.317 1.12792 1.10072 0
M  V30 7305 C 688.563 0.89679 1.82563 0
M  V30 7306 C 688.918 -0.571152 1.83727 0
M  V30 7307 O 688.211 -1.41697 1.28967 0
M  V30 7308 C 688.405 1.4102 3.28403 0
M  V30 7309 C 688.234 2.92652 3.41445 0
M  V30 7310 C 687.004 3.60928 3.53637 0
M  V30 7311 C 689.202 3.9063 3.34534 0
M  V30 7312 N 687.184 5.00638 3.55295 0
M  V30 7313 C 688.555 5.16492 3.42981 0
M  V30 7314 C 690.61 3.82989 3.18157 0
M  V30 7315 C 689.313 6.35609 3.3674 0
M  V30 7316 C 691.339 5.01633 3.13239 0
M  V30 7317 C 690.701 6.26355 3.22272 0
M  V30 7318 H 686.8 0.381482 0.682638 0
M  V30 7319 H 689.384 1.43491 1.31599 0
M  V30 7320 H 687.555 0.899077 3.77851 0
M  V30 7321 H 689.287 1.12075 3.88872 0
M  V30 7322 H 686.042 3.11429 3.56803 0
M  V30 7323 H 686.466 5.73521 3.59725 0
M  V30 7324 H 691.108 2.87454 3.10049 0
M  V30 7325 H 688.826 7.31407 3.43613 0
M  V30 7326 H 692.412 4.97454 3.01713 0
M  V30 7327 H 691.292 7.1662 3.18473 0
M  V30 7328 N 688.795 -1.27931 0.920396 0
M  V30 7329 C 689.727 -2.26175 0.371169 0
M  V30 7330 C 690.74 -1.55122 -0.494065 0
M  V30 7331 O 691.929 -1.75825 -0.30787 0
M  V30 7332 C 689.029 -3.35376 -0.487481 0
M  V30 7333 C 688.202 -4.35943 0.356772 0
M  V30 7334 C 687.261 -5.24374 -0.438042 0
M  V30 7335 O 686.287 -5.68998 0.151715 0
M  V30 7336 N 687.489 -5.53823 -1.73956 0
M  V30 7337 H 690.254 -2.73938 1.21564 0
M  V30 7338 H 687.815 -1.41482 0.787047 0
M  V30 7339 H 689.807 -3.91476 -1.02609 0
M  V30 7340 H 688.377 -2.87269 -1.23269 0
M  V30 7341 H 687.597 -3.7921 1.07672 0
M  V30 7342 H 688.885 -5.0015 0.934206 0
M  V30 7343 H 688.283 -5.19413 -2.24114 0
M  V30 7344 H 686.84 -6.12653 -2.22486 0
M  V30 7345 N 690.273 -0.685099 -1.4193 0
M  V30 7346 C 691.501 -0.220372 -2.05723 0
M  V30 7347 C 691.916 1.12642 -1.51516 0
M  V30 7348 O 691.273 1.70182 -0.659114 0
M  V30 7349 C 691.324 -0.157974 -3.61155 0
M  V30 7350 O 691.045 -1.45156 -4.13354 0
M  V30 7351 C 692.546 0.329009 -4.42077 0
M  V30 7352 H 689.766 -0.104725 -0.662777 0
M  V30 7353 H 692.31 -0.934736 -1.81887 0
M  V30 7354 H 690.465 0.507144 -3.84066 0
M  V30 7355 H 690.879 -1.33172 -5.07312 0
M  V30 7356 H 692.353 0.321559 -5.51063 0
M  V30 7357 H 692.83 1.36608 -4.17414 0
M  V30 7358 H 693.436 -0.304737 -4.24207 0
M  V30 7359 N 691.751 1.51645 -0.429126 0
M  V30 7360 C 692.661 2.31288 0.392809 0
M  V30 7361 C 693.677 1.39852 1.03525 0
M  V30 7362 O 694.853 1.72926 1.03241 0
M  V30 7363 C 691.918 3.13347 1.48372 0
M  V30 7364 C 690.979 4.20551 0.862268 0
M  V30 7365 C 690.212 4.98688 1.9012 0
M  V30 7366 O 690.435 4.77359 3.12225 0
M  V30 7367 O 689.369 5.83005 1.4963 0
M  V30 7368 H 693.195 3.02609 -0.257138 0
M  V30 7369 H 690.78 1.48163 -0.191851 0
M  V30 7370 H 692.662 3.64387 2.1166 0
M  V30 7371 H 691.337 2.44799 2.1179 0
M  V30 7372 H 690.244 3.73609 0.191568 0
M  V30 7373 H 691.577 4.91449 0.271704 0
M  V30 7374 N 693.229 0.160201 1.56784 0
M  V30 7375 C 694.457 -0.494165 2.00912 0
M  V30 7376 C 694.872 -1.57548 1.04038 0
M  V30 7377 O 694.229 -1.82457 0.0394581 0
M  V30 7378 C 694.28 -1.08271 3.44905 0
M  V30 7379 O 694.001 -0.0445704 4.38077 0
M  V30 7380 C 695.502 -1.8164 4.04378 0
M  V30 7381 H 692.722 -0.127498 0.658776 0
M  V30 7382 H 695.266 0.258665 2.02858 0
M  V30 7383 H 693.421 -1.78609 3.4377 0
M  V30 7384 H 693.835 -0.477544 5.22322 0
M  V30 7385 H 695.309 -2.18094 5.07089 0
M  V30 7386 H 695.786 -2.70727 3.45838 0
M  V30 7387 H 696.392 -1.15969 4.09184 0
M  V30 7388 N 694.707 -1.5719 -0.113559 0
M  V30 7389 C 695.955 -1.84772 -0.818761 0
M  V30 7390 C 696.276 -0.746196 -1.80158 0
M  V30 7391 O 695.546 0.229305 -1.94553 0
M  V30 7392 H 694.126 -0.681737 -0.305359 0
M  V30 7393 H 696.788 -1.94645 -0.0995845 0
M  V30 7394 H 695.884 -2.80878 -1.36067 0
M  V30 7395 N 696.185 0.383891 -1.52853 0
M  V30 7396 C 697.433 1.12619 -1.67814 0
M  V30 7397 C 697.754 1.90354 -0.423141 0
M  V30 7398 O 697.024 1.87649 0.562554 0
M  V30 7399 H 695.604 0.418738 -0.618601 0
M  V30 7400 H 698.266 0.43495 -1.89985 0
M  V30 7401 H 697.362 1.82624 -2.5309 0
M  V30 7402 N 697.663 1.43903 0.642637 0
M  V30 7403 C 698.613 1.46321 1.74854 0
M  V30 7404 C 699.597 0.330361 1.57472 0
M  V30 7405 O 700.789 0.574881 1.67404 0
M  V30 7406 C 697.918 1.39919 3.13493 0
M  V30 7407 C 697.004 2.58274 3.36385 0
M  V30 7408 N 697.395 3.83578 3.29699 0
M  V30 7409 C 695.693 2.53224 3.67142 0
M  V30 7410 C 696.394 4.62375 3.52965 0
M  V30 7411 N 695.37 3.93269 3.75287 0
M  V30 7412 H 699.172 2.41062 1.68126 0
M  V30 7413 H 696.686 1.38704 0.844693 0
M  V30 7414 H 698.683 1.39735 3.92785 0
M  V30 7415 H 697.343 0.46207 3.21395 0
M  V30 7416 H 698.354 4.15713 3.08874 0
M  V30 7417 H 695.031 1.68252 3.82096 0
M  V30 7418 H 696.421 5.714 3.53485 0
M  V30 7419 N 699.141 -0.881989 1.30609 0
M  V30 7420 C 700.074 -1.99066 1.11571 0
M  V30 7421 C 701.052 -1.62584 0.022516 0
M  V30 7422 O 702.236 -1.87671 0.176644 0
M  V30 7423 C 699.363 -3.3134 0.702237 0
M  V30 7424 C 698.409 -3.86807 1.79673 0
M  V30 7425 S 699.242 -4.13735 3.39976 0
M  V30 7426 C 700.398 -5.49024 3.00538 0
M  V30 7427 H 700.631 -2.1491 2.05429 0
M  V30 7428 H 698.164 -1.03074 1.14957 0
M  V30 7429 H 700.122 -4.07796 0.470415 0
M  V30 7430 H 698.783 -3.13349 -0.217034 0
M  V30 7431 H 697.976 -4.82397 1.45977 0
M  V30 7432 H 697.578 -3.17102 1.98298 0
M  V30 7433 H 699.87 -6.30208 2.48684 0
M  V30 7434 H 700.813 -5.8766 3.95046 0
M  V30 7435 H 701.221 -5.11726 2.3832 0
M  V30 7436 N 700.619 -1.13374 -1.09472 0
M  V30 7437 C 701.549 -0.833268 -2.18126 0
M  V30 7438 C 702.53 0.207169 -1.68834 0
M  V30 7439 O 703.715 0.0662012 -1.94087 0
M  V30 7440 C 700.845 -0.297979 -3.46019 0
M  V30 7441 C 699.799 -1.27261 -4.08642 0
M  V30 7442 C 699.125 -0.597104 -5.31356 0
M  V30 7443 C 700.425 -2.63095 -4.51197 0
M  V30 7444 H 702.119 -1.74182 -2.43518 0
M  V30 7445 H 699.665 -0.838921 -1.17039 0
M  V30 7446 H 701.618 -0.0754444 -4.21332 0
M  V30 7447 H 700.342 0.645959 -3.20148 0
M  V30 7448 H 699.001 -1.48113 -3.35348 0
M  V30 7449 H 698.649 0.352293 -5.01765 0
M  V30 7450 H 698.349 -1.24734 -5.74208 0
M  V30 7451 H 699.873 -0.38384 -6.09392 0
M  V30 7452 H 701.287 -2.46214 -5.17737 0
M  V30 7453 H 699.684 -3.2429 -5.04932 0
M  V30 7454 H 700.754 -3.20793 -3.6362 0
M  V30 7455 N 702.098 1.27442 -0.927168 0
M  V30 7456 C 703.326 1.98498 -0.583622 0
M  V30 7457 C 703.741 1.69171 0.838241 0
M  V30 7458 O 703.098 0.951969 1.55704 0
M  V30 7459 C 703.149 3.52552 -0.799341 0
M  V30 7460 O 702.87 3.80851 -2.16527 0
M  V30 7461 C 704.371 4.4086 -0.464436 0
M  V30 7462 H 701.591 0.633487 -0.221213 0
M  V30 7463 H 704.135 1.62308 -1.24404 0
M  V30 7464 H 702.29 3.86955 -0.185728 0
M  V30 7465 H 702.704 4.75441 -2.21487 0
M  V30 7466 H 704.178 5.47967 -0.666075 0
M  V30 7467 H 704.655 4.35082 0.599995 0
M  V30 7468 H 705.261 4.11977 -1.05617 0
M  V30 7469 N 703.576 0.692616 1.41565 0
M  V30 7470 C 704.987 0.297478 1.84315 0
M  V30 7471 C 705.338 -1.16379 1.57957 0
M  V30 7472 O 704.463 -1.89303 1.0485 0
M  V30 7473 C 705.058 0.533136 3.34579 0
M  V30 7474 C 703.617 0.191944 3.7591 0
M  V30 7475 C 702.764 0.816873 2.64995 0
M  V30 7476 H 705.715 0.893488 1.31158 0
M  V30 7477 H 705.736 -0.209105 3.79925 0
M  V30 7478 H 705.248 1.59674 3.53731 0
M  V30 7479 H 703.349 -0.867512 3.6236 0
M  V30 7480 H 703.462 0.644902 4.7474 0
M  V30 7481 H 701.826 0.246715 2.53502 0
M  V30 7482 H 702.609 1.88429 2.86966 0
M  V30 7483 N 705.054 -1.51416 0.437162 0
M  V30 7484 C 705.984 -2.30631 -0.364922 0
M  V30 7485 C 706.965 -1.36037 -1.02118 0
M  V30 7486 O 708.15 -1.64956 -1.02485 0
M  V30 7487 C 705.28 -3.1482 -1.46648 0
M  V30 7488 C 704.234 -4.17691 -0.933717 0
M  V30 7489 C 703.56 -4.904 -2.13101 0
M  V30 7490 C 704.86 -5.2229 0.0317201 0
M  V30 7491 H 706.554 -2.97932 0.29614 0
M  V30 7492 H 704.1 -1.4328 0.143865 0
M  V30 7493 H 706.053 -3.69017 -2.03481 0
M  V30 7494 H 704.777 -2.4534 -2.15583 0
M  V30 7495 H 703.436 -3.64545 -0.387602 0
M  V30 7496 H 703.084 -4.17423 -2.80654 0
M  V30 7497 H 702.784 -5.59962 -1.78092 0
M  V30 7498 H 704.308 -5.4742 -2.70487 0
M  V30 7499 H 705.722 -5.7156 -0.446302 0
M  V30 7500 H 704.119 -5.99378 0.29437 0
M  V30 7501 H 705.189 -4.75131 0.968447 0
M  V30 7502 N 706.532 -0.168513 -1.56696 0
M  V30 7503 C 707.943 0.348694 -1.83415 0
M  V30 7504 C 708.294 1.63257 -1.0882 0
M  V30 7505 O 707.419 2.13707 -0.340333 0
M  V30 7506 C 708.014 0.639423 -3.32711 0
M  V30 7507 C 706.573 1.10108 -3.59935 0
M  V30 7508 C 705.72 0.135464 -2.76969 0
M  V30 7509 H 708.671 -0.392829 -1.53761 0
M  V30 7510 H 708.692 1.49179 -3.50037 0
M  V30 7511 H 708.204 -0.295173 -3.86976 0
M  V30 7512 H 706.305 2.05088 -3.11079 0
M  V30 7513 H 706.418 1.01218 -4.68286 0
M  V30 7514 H 704.782 0.632286 -2.46727 0
M  V30 7515 H 705.565 -0.793104 -3.34013 0
M  V30 7516 N 708.01 1.57248 0.105221 0
M  V30 7517 C 709.258 1.85204 0.808951 0
M  V30 7518 C 709.579 0.75574 1.7976 0
M  V30 7519 O 708.849 -0.218984 1.94672 0
M  V30 7520 H 707.429 0.683346 0.301739 0
M  V30 7521 H 710.091 1.94695 0.0892605 0
M  V30 7522 H 709.187 2.81595 1.34575 0
M  V30 7523 N 709.488 -0.375779 1.53054 0
M  V30 7524 C 710.451 -1.44254 1.7811 0
M  V30 7525 C 711.451 -1.47018 0.651328 0
M  V30 7526 O 712.641 -1.47957 0.919472 0
M  V30 7527 C 709.773 -2.8345 1.89391 0
M  V30 7528 H 710.966 -1.23316 2.73374 0
M  V30 7529 H 708.519 -0.608312 1.43977 0
M  V30 7530 H 709.254 -3.09716 0.961589 0
M  V30 7531 H 709.039 -2.82844 2.71555 0
M  V30 7532 H 710.529 -3.60722 2.10404 0
M  V30 7533 N 710.966 -1.44241 -0.634997 0
M  V30 7534 C 712.194 -1.50296 -1.42193 0
M  V30 7535 C 712.609 -0.12658 -1.88375 0
M  V30 7536 O 711.966 0.86678 -1.60603 0
M  V30 7537 C 712.017 -2.46437 -2.64482 0
M  V30 7538 O 711.738 -3.78724 -2.20226 0
M  V30 7539 C 713.239 -2.61918 -3.57651 0
M  V30 7540 H 710.459 -0.509865 -0.43621 0
M  V30 7541 H 713.003 -1.89167 -0.776921 0
M  V30 7542 H 711.158 -2.10712 -3.25083 0
M  V30 7543 H 711.572 -4.30595 -2.9948 0
M  V30 7544 H 713.046 -3.33225 -4.40074 0
M  V30 7545 H 713.523 -1.67017 -4.06204 0
M  V30 7546 H 714.129 -2.98528 -3.02921 0
M  V30 7547 N 712.444 0.87505 -1.31075 0
M  V30 7548 C 713.855 1.4433 -1.18431 0
M  V30 7549 C 714.206 1.9506 0.211189 0
M  V30 7550 O 713.331 1.85847 1.10859 0
M  V30 7551 C 713.926 2.62341 -2.14389 0
M  V30 7552 C 712.485 3.15225 -2.05694 0
M  V30 7553 C 711.632 1.87929 -2.03907 0
M  V30 7554 H 714.583 0.684061 -1.432 0
M  V30 7555 H 714.604 3.3887 -1.73053 0
M  V30 7556 H 714.116 2.25388 -3.15946 0
M  V30 7557 H 712.217 3.56812 -1.07314 0
M  V30 7558 H 712.33 3.77853 -2.94558 0
M  V30 7559 H 710.694 2.06679 -1.48849 0
M  V30 7560 H 711.477 1.53221 -3.07211 0
M  V30 7561 N 713.922 1.13953 1.08869 0
M  V30 7562 C 714.855 0.765765 2.14968 0
M  V30 7563 C 715.833 -0.250689 1.60656 0
M  V30 7564 O 717.017 -0.140852 1.87973 0
M  V30 7565 C 714.144 0.136146 3.38426 0
M  V30 7566 C 713.19 1.12201 4.11477 0
M  V30 7567 S 714.023 2.65711 4.64928 0
M  V30 7568 C 715.179 2.04125 5.91679 0
M  V30 7569 H 715.412 1.66444 2.46341 0
M  V30 7570 H 712.945 0.960263 1.20906 0
M  V30 7571 H 714.903 -0.220712 4.09906 0
M  V30 7572 H 713.564 -0.739887 3.05261 0
M  V30 7573 H 712.757 0.629398 5.00055 0
M  V30 7574 H 712.359 1.42262 3.45886 0
M  V30 7575 H 714.651 1.39381 6.63008 0
M  V30 7576 H 715.594 2.90808 6.45629 0
M  V30 7577 H 716.002 1.4905 5.44467 0
M  V30 7578 N 715.4 -1.26948 0.933913 0
M  V30 7579 C 716.347 -2.26635 0.436484 0
M  V30 7580 C 717.317 -1.58397 -0.499953 0
M  V30 7581 O 718.502 -1.86171 -0.417753 0
M  V30 7582 C 715.642 -3.43803 -0.298951 0
M  V30 7583 C 714.755 -4.26736 0.672316 0
M  V30 7584 C 713.89 -5.31134 -0.0835872 0
M  V30 7585 C 712.929 -6.05742 0.879979 0
M  V30 7586 N 712.066 -7.01926 0.156301 0
M  V30 7587 H 716.906 -2.68558 1.29154 0
M  V30 7588 H 714.443 -1.32052 0.648118 0
M  V30 7589 H 716.401 -4.10554 -0.741723 0
M  V30 7590 H 715.031 -3.02814 -1.1182 0
M  V30 7591 H 714.083 -3.59842 1.23361 0
M  V30 7592 H 715.395 -4.78502 1.40846 0
M  V30 7593 H 714.549 -6.03863 -0.585984 0
M  V30 7594 H 713.288 -4.80188 -0.852661 0
M  V30 7595 H 712.293 -5.31846 1.39357 0
M  V30 7596 H 713.518 -6.58777 1.64894 0
M  V30 7597 H 711.464 -6.53301 -0.594413 0
M  V30 7598 H 711.381 -7.51409 0.831906 0
M  V30 7599 H 712.649 -7.78821 -0.325239 0
M  V30 7600 N 716.879 -0.700114 -1.41195 0
M  V30 7601 C 718.29 -0.307249 -1.84154 0
M  V30 7602 C 718.641 1.15539 -1.58572 0
M  V30 7603 O 717.766 1.88744 -1.05852 0
M  V30 7604 C 718.361 -0.550872 -3.34292 0
M  V30 7605 C 716.92 -0.211877 -3.75803 0
M  V30 7606 C 716.067 -0.830915 -2.64558 0
M  V30 7607 H 719.018 -0.900431 -1.30683 0
M  V30 7608 H 719.039 0.188954 -3.80031 0
M  V30 7609 H 718.551 -1.61548 -3.5288 0
M  V30 7610 H 716.652 0.848283 -3.62815 0
M  V30 7611 H 716.765 -0.67007 -4.74391 0
M  V30 7612 H 715.129 -0.260155 -2.53368 0
M  V30 7613 H 715.912 -1.89948 -2.85963 0
M  V30 7614 N 718.357 1.51182 -0.445186 0
M  V30 7615 C 719.605 2.01753 0.11841 0
M  V30 7616 C 719.926 1.33087 1.42523 0
M  V30 7617 O 719.196 0.467891 1.9023 0
M  V30 7618 H 717.776 0.745536 0.0467492 0
M  V30 7619 H 720.438 1.85765 -0.589688 0
M  V30 7620 H 719.534 3.10762 0.288665 0
M  V30 7621 N 719.835 0.176821 1.56605 0
M  V30 7622 C 721.06 -0.47599 2.01864 0
M  V30 7623 C 721.485 -1.55645 1.05623 0
M  V30 7624 O 720.843 -1.81263 0.0366729 0
M  V30 7625 C 720.891 -1.02619 3.4569 0
M  V30 7626 O 719.995 -2.13996 3.52533 0
M  V30 7627 H 719.336 -0.113363 0.654251 0
M  V30 7628 H 721.866 0.28233 2.02643 0
M  V30 7629 H 721.876 -1.34742 3.85109 0
M  V30 7630 H 720.551 -0.235138 4.15235 0
M  V30 7631 H 719.128 -1.82876 3.24978 0
M  V30 7632 N 721.313 -1.57302 -0.09688 0
M  V30 7633 C 722.276 -2.00976 -1.10188 0
M  V30 7634 C 723.276 -0.903009 -1.3305 0
M  V30 7635 O 724.466 -1.16853 -1.29194 0
M  V30 7636 C 721.598 -2.36893 -2.45142 0
M  V30 7637 H 722.791 -2.9098 -0.726003 0
M  V30 7638 H 720.344 -1.52515 -0.341872 0
M  V30 7639 H 721.079 -1.49837 -2.8761 0
M  V30 7640 H 720.864 -3.17632 -2.29897 0
M  V30 7641 H 722.354 -2.71345 -3.1743 0
M  V30 7642 N 722.791 0.367657 -1.53252 0
M  V30 7643 C 724.019 1.13119 -1.73239 0
M  V30 7644 C 724.434 1.831 -0.460404 0
M  V30 7645 O 723.791 1.73483 0.566557 0
M  V30 7646 C 723.842 2.16308 -2.89643 0
M  V30 7647 O 723.563 1.49175 -4.1192 0
M  V30 7648 C 725.064 3.05224 -3.21486 0
M  V30 7649 H 722.284 0.338318 -0.579467 0
M  V30 7650 H 724.828 0.42721 -1.99988 0
M  V30 7651 H 722.983 2.82307 -2.65295 0
M  V30 7652 H 723.397 2.17912 -4.7709 0
M  V30 7653 H 724.871 3.73613 -4.06346 0
M  V30 7654 H 725.348 3.69919 -2.36763 0
M  V30 7655 H 725.954 2.44843 -3.47753 0
M  V30 7656 N 724.269 1.44576 0.627338 0
M  V30 7657 C 725.516 1.47558 1.38682 0
M  V30 7658 C 725.844 0.109636 1.94191 0
M  V30 7659 O 725.099 -0.889092 1.74338 0
M  V30 7660 C 725.398 2.48644 2.56731 0
M  V30 7661 C 725.064 3.93873 2.19489 0
M  V30 7662 C 723.726 4.33421 2.09045 0
M  V30 7663 C 726.078 4.85286 1.90124 0
M  V30 7664 C 723.406 5.62303 1.6743 0
M  V30 7665 C 725.758 6.14559 1.50001 0
M  V30 7666 C 724.422 6.53058 1.38101 0
M  V30 7667 H 723.692 0.539955 0.507474 0
M  V30 7668 H 726.339 1.77811 0.711021 0
M  V30 7669 H 724.644 2.11889 3.29561 0
M  V30 7670 H 726.341 2.48197 3.14959 0
M  V30 7671 H 722.931 3.62587 2.28537 0
M  V30 7672 H 727.115 4.55483 1.971 0
M  V30 7673 H 722.371 5.90945 1.56823 0
M  V30 7674 H 726.545 6.84848 1.26319 0
M  V30 7675 H 724.172 7.52826 1.05628 0
M  V30 7676 N 725.747 -0.868086 1.31537 0
M  V30 7677 C 727.158 -1.437 1.19195 0
M  V30 7678 C 727.509 -1.95169 -0.200842 0
M  V30 7679 O 726.634 -1.86432 -1.09872 0
M  V30 7680 C 727.229 -2.612 2.15778 0
M  V30 7681 C 725.788 -3.1413 2.07363 0
M  V30 7682 C 724.935 -1.86845 2.049 0
M  V30 7683 H 727.886 -0.676457 1.43561 0
M  V30 7684 H 727.907 -3.37948 1.74847 0
M  V30 7685 H 727.419 -2.23709 3.17137 0
M  V30 7686 H 725.52 -3.56238 1.09204 0
M  V30 7687 H 725.633 -3.76285 2.96557 0
M  V30 7688 H 723.997 -2.05886 1.49943 0
M  V30 7689 H 724.78 -1.51589 3.08019 0
M  V30 7690 N 727.225 -1.14528 -1.08264 0
M  V30 7691 C 728.472 -0.914405 -1.80679 0
M  V30 7692 C 728.8 0.558952 -1.86295 0
M  V30 7693 O 728.055 1.43017 -1.33584 0
M  V30 7694 C 728.354 -1.46226 -3.26117 0
M  V30 7695 C 728.02 -2.95451 -3.40616 0
M  V30 7696 C 726.682 -3.36191 -3.4428 0
M  V30 7697 C 729.034 -3.91399 -3.44175 0
M  V30 7698 C 726.362 -4.71539 -3.49096 0
M  V30 7699 C 728.714 -5.26606 -3.50526 0
M  V30 7700 C 727.378 -5.66856 -3.52464 0
M  V30 7701 H 726.648 -0.334604 -0.661151 0
M  V30 7702 H 729.295 -1.4292 -1.27461 0
M  V30 7703 H 727.6 -0.868442 -3.82054 0
M  V30 7704 H 729.297 -1.25955 -3.80705 0
M  V30 7705 H 725.887 -2.62955 -3.38456 0
M  V30 7706 H 730.071 -3.61004 -3.40573 0
M  V30 7707 H 725.327 -5.02082 -3.4889 0
M  V30 7708 H 729.501 -6.00758 -3.52225 0
M  V30 7709 H 727.128 -6.71718 -3.55948 0
M  V30 7710 N 728.703 1.26451 -0.940633 0
M  V30 7711 C 729.95 1.93778 -0.587909 0
M  V30 7712 C 730.278 1.73811 0.872935 0
M  V30 7713 O 729.533 1.06816 1.63978 0
M  V30 7714 C 729.832 3.46503 -0.875794 0
M  V30 7715 C 729.498 3.86609 -2.32043 0
M  V30 7716 C 728.16 3.97269 -2.71534 0
M  V30 7717 C 730.512 4.0672 -3.25927 0
M  V30 7718 C 727.84 4.25436 -4.04006 0
M  V30 7719 C 730.192 4.36375 -4.57995 0
M  V30 7720 C 728.856 4.45249 -4.97302 0
M  V30 7721 H 728.126 0.709084 -0.215131 0
M  V30 7722 H 730.773 1.50272 -1.18704 0
M  V30 7723 H 729.078 3.91319 -0.194124 0
M  V30 7724 H 730.775 3.96759 -0.581665 0
M  V30 7725 H 727.365 3.78858 -2.00411 0
M  V30 7726 H 731.549 3.97912 -2.96614 0
M  V30 7727 H 726.805 4.30519 -4.34124 0
M  V30 7728 H 730.979 4.50882 -5.30734 0
M  V30 7729 H 728.606 4.66829 -5.99979 0
M  V30 7730 N 730.181 0.707592 1.40822 0
M  V30 7731 C 731.429 0.243189 2.00632 0
M  V30 7732 C 731.75 -1.16512 1.56365 0
M  V30 7733 O 731.02 -1.78841 0.799553 0
M  V30 7734 H 729.6 0.0869203 0.741926 0
M  V30 7735 H 732.262 0.911438 1.72275 0
M  V30 7736 H 731.358 0.270014 3.1093 0
M  V30 7737 N 731.66 -1.50943 0.453197 0
M  V30 7738 C 732.906 -2.02512 -0.108082 0
M  V30 7739 C 733.239 -1.33574 -1.40967 0
M  V30 7740 O 732.514 -0.455671 -1.89087 0
M  V30 7741 C 732.797 -3.58759 -0.310453 0
M  V30 7742 C 732.65 -4.38293 1.0109 0
M  V30 7743 C 733.969 -4.26816 -1.07313 0
M  V30 7744 H 731.088 -0.73603 -0.0378064 0
M  V30 7745 H 733.73 -1.80433 0.595295 0
M  V30 7746 H 731.88 -3.77702 -0.909582 0
M  V30 7747 H 733.552 -4.30964 1.64523 0
M  V30 7748 H 731.795 -4.02745 1.61179 0
M  V30 7749 H 732.466 -5.45828 0.82315 0
M  V30 7750 H 734.942 -4.1224 -0.565473 0
M  V30 7751 H 733.818 -5.35989 -1.1835 0
M  V30 7752 H 734.079 -3.88757 -2.10525 0
M  V30 7753 N 733.138 -0.185124 -1.56509 0
M  V30 7754 C 734.101 0.72591 -2.17401 0
M  V30 7755 C 735.101 1.14819 -1.12575 0
M  V30 7756 O 736.291 1.0629 -1.38015 0
M  V30 7757 C 733.423 1.98979 -2.76803 0
M  V30 7758 H 734.616 0.195588 -2.99262 0
M  V30 7759 H 732.169 0.0644772 -1.56167 0
M  V30 7760 H 732.904 2.56287 -1.98714 0
M  V30 7761 H 732.689 1.69583 -3.53531 0
M  V30 7762 H 734.179 2.63966 -3.23592 0
M  V30 7763 N 734.616 1.57351 0.0885366 0
M  V30 7764 C 736.027 1.75303 0.642308 0
M  V30 7765 C 736.378 0.808238 1.78779 0
M  V30 7766 O 735.503 -0.01171 2.16397 0
M  V30 7767 C 736.098 3.17885 1.17194 0
M  V30 7768 C 734.657 3.37239 1.67172 0
M  V30 7769 C 733.804 2.7108 0.584045 0
M  V30 7770 H 736.755 1.58103 -0.137567 0
M  V30 7771 H 736.776 3.2112 2.04114 0
M  V30 7772 H 736.288 3.86625 0.338024 0
M  V30 7773 H 734.389 2.73588 2.52943 0
M  V30 7774 H 734.502 4.45594 1.76019 0
M  V30 7775 H 732.866 2.33161 1.02508 0
M  V30 7776 H 733.649 3.42464 -0.239403 0
M  V30 7777 N 736.094 -0.359525 1.53444 0
M  V30 7778 C 737.057 -1.42357 1.7963 0
M  V30 7779 C 738.057 -1.46319 0.666884 0
M  V30 7780 O 739.247 -1.46974 0.935113 0
M  V30 7781 C 736.379 -2.81425 1.92387 0
M  V30 7782 H 737.572 -1.20409 2.74666 0
M  V30 7783 H 735.125 -0.593007 1.44614 0
M  V30 7784 H 735.86 -3.08679 0.994384 0
M  V30 7785 H 735.645 -2.79947 2.74539 0
M  V30 7786 H 737.135 -3.5847 2.14218 0
M  V30 7787 N 737.572 -1.44907 -0.619662 0
M  V30 7788 C 738.821 -1.47569 -1.37501 0
M  V30 7789 C 739.134 -0.116707 -1.95252 0
M  V30 7790 O 740.34 -0.020909 -2.71492 0
M  V30 7791 C 738.796 -2.59851 -2.49009 0
M  V30 7792 C 738.404 -4.02008 -1.97722 0
M  V30 7793 C 740.148 -2.71746 -3.2612 0
M  V30 7794 C 738.055 -5.05693 -3.0664 0
M  V30 7795 H 736.985 -0.549068 -0.51676 0
M  V30 7796 H 739.636 -1.71009 -0.665437 0
M  V30 7797 H 738.018 -2.29671 -3.22594 0
M  V30 7798 H 739.192 -4.41809 -1.30925 0
M  V30 7799 H 737.507 -3.94456 -1.33392 0
M  V30 7800 H 740.104 -3.46382 -4.07337 0
M  V30 7801 H 740.447 -1.77959 -3.76346 0
M  V30 7802 H 740.98 -3.01392 -2.5963 0
M  V30 7803 H 737.719 -6.01148 -2.61345 0
M  V30 7804 H 737.239 -4.70473 -3.72042 0
M  V30 7805 H 738.918 -5.29906 -3.71226 0
M  V30 7806 N 739.05 0.861098 -1.31996 0
M  V30 7807 C 739.98 1.98482 -1.22993 0
M  V30 7808 C 740.961 1.6971 -0.115168 0
M  V30 7809 O 742.146 1.91849 -0.30126 0
M  V30 7810 C 739.276 3.34179 -0.945615 0
M  V30 7811 C 738.23 3.77284 -2.02091 0
M  V30 7812 C 737.556 5.1054 -1.58912 0
M  V30 7813 C 738.856 3.93439 -3.43515 0
M  V30 7814 H 740.55 2.06271 -2.17008 0
M  V30 7815 H 738.096 0.991043 -1.04472 0
M  V30 7816 H 740.049 4.12338 -0.869206 0
M  V30 7817 H 738.773 3.26586 0.0301849 0
M  V30 7818 H 737.432 3.01371 -2.08737 0
M  V30 7819 H 737.08 4.99397 -0.600942 0
M  V30 7820 H 736.78 5.40352 -2.30854 0
M  V30 7821 H 738.304 5.91199 -1.52696 0
M  V30 7822 H 739.718 4.6197 -3.39495 0
M  V30 7823 H 738.115 4.34661 -4.13751 0
M  V30 7824 H 739.185 2.96548 -3.8365 0
M  V30 7825 N 740.528 1.15101 1.07655 0
M  V30 7826 C 741.476 0.840714 2.16875 0
M  V30 7827 C 742.47 -0.184594 1.68391 0
M  V30 7828 O 743.676 -0.0399315 1.79956 0
M  V30 7829 H 740.051 0.254192 0.707736 0
M  V30 7830 H 742.022 1.76959 2.40266 0
M  V30 7831 C 740.771 0.343018 3.46004 0
M  V30 7832 H 740.094 1.12335 3.83694 0
M  V30 7833 H 741.534 0.16453 4.23681 0
M  V30 7834 C 739.993 -0.934881 3.23669 0
M  V30 7835 O 740.523 -2.00706 3.47965 0
M  V30 7836 N 738.729 -0.873167 2.77172 0
M  V30 7837 H 738.276 -0.000479072 2.576 0
M  V30 7838 H 738.234 -1.72873 2.62607 0
M  V30 7839 N 742.006 -1.2595 0.947325 0
M  V30 7840 C 742.916 -2.29883 0.468079 0
M  V30 7841 C 743.932 -1.67783 -0.460975 0
M  V30 7842 O 745.108 -1.98526 -0.339006 0
M  V30 7843 C 742.173 -3.45773 -0.253315 0
M  V30 7844 C 741.234 -4.23337 0.713054 0
M  V30 7845 C 740.467 -5.33694 0.025993 0
M  V30 7846 O 740.69 -5.57853 -1.18978 0
M  V30 7847 O 739.624 -5.97724 0.70782 0
M  V30 7848 H 743.45 -2.72952 1.33156 0
M  V30 7849 H 741.035 -1.31263 0.713468 0
M  V30 7850 H 742.917 -4.16209 -0.659423 0
M  V30 7851 H 741.592 -3.04721 -1.09209 0
M  V30 7852 H 740.499 -3.55359 1.16923 0
M  V30 7853 H 741.832 -4.68154 1.51963 0
M  V30 7854 N 743.484 -0.715051 -1.40445 0
M  V30 7855 C 744.709 -0.26254 -2.05732 0
M  V30 7856 C 745.134 1.08691 -1.53519 0
M  V30 7857 O 744.492 1.68453 -0.670328 0
M  V30 7858 C 744.54 -0.25195 -3.59719 0
M  V30 7859 O 743.644 0.766998 -4.05205 0
M  V30 7860 H 742.985 -0.123398 -0.652433 0
M  V30 7861 H 745.515 -0.975382 -1.79854 0
M  V30 7862 H 745.525 -0.0894537 -4.07902 0
M  V30 7863 H 744.2 -1.23672 -3.97087 0
M  V30 7864 H 742.777 0.572269 -3.68483 0
M  V30 7865 N 744.962 1.50701 -0.461195 0
M  V30 7866 C 746.21 2.01867 0.0970051 0
M  V30 7867 C 746.531 1.34591 1.41104 0
M  V30 7868 O 745.801 0.488041 1.89723 0
M  V30 7869 H 744.381 0.74599 0.0388392 0
M  V30 7870 H 747.043 1.85129 -0.609357 0
M  V30 7871 H 746.139 3.11051 0.255688 0
M  V30 7872 N 746.441 0.193421 1.56409 0
M  V30 7873 C 747.351 -0.740112 2.2262 0
M  V30 7874 C 748.367 -1.23597 1.22474 0
M  V30 7875 O 749.543 -1.28348 1.55206 0
M  V30 7876 C 746.608 -1.94317 2.87127 0
M  V30 7877 C 745.669 -1.49205 4.02538 0
M  V30 7878 C 744.902 -2.63776 4.63959 0
M  V30 7879 O 745.125 -3.81215 4.24301 0
M  V30 7880 O 744.059 -2.36585 5.53454 0
M  V30 7881 H 747.885 -0.206238 3.02999 0
M  V30 7882 H 745.47 -0.0357938 1.49357 0
M  V30 7883 H 747.352 -2.64633 3.27944 0
M  V30 7884 H 746.027 -2.46568 2.09728 0
M  V30 7885 H 744.934 -0.757738 3.66346 0
M  V30 7886 H 746.267 -1.01622 4.81595 0
M  V30 7887 N 747.919 -1.57396 -0.0801906 0
M  V30 7888 C 748.829 -2.06451 -1.11423 0
M  V30 7889 C 749.845 -0.992352 -1.42928 0
M  V30 7890 O 751.021 -1.30651 -1.53272 0
M  V30 7891 C 748.086 -2.49164 -2.41077 0
M  V30 7892 C 747.147 -3.70641 -2.16619 0
M  V30 7893 C 746.38 -4.11307 -3.40092 0
M  V30 7894 O 746.603 -3.51922 -4.48895 0
M  V30 7895 O 745.537 -5.04157 -3.288 0
M  V30 7896 H 749.363 -2.94857 -0.727519 0
M  V30 7897 H 746.948 -1.46484 -0.293743 0
M  V30 7898 H 748.83 -2.77196 -3.17396 0
M  V30 7899 H 747.505 -1.6389 -2.79145 0
M  V30 7900 H 746.412 -3.47703 -1.38033 0
M  V30 7901 H 747.745 -4.5674 -1.83437 0
M  V30 7902 N 749.397 0.351382 -1.53633 0
M  V30 7903 C 750.327 1.43688 -1.84055 0
M  V30 7904 C 751.308 1.55251 -0.695073 0
M  V30 7905 O 752.493 1.69587 -0.946257 0
M  V30 7906 C 749.623 2.80843 -2.04315 0
M  V30 7907 C 748.577 2.84094 -3.20117 0
M  V30 7908 C 747.903 4.2406 -3.25696 0
M  V30 7909 C 749.203 2.50334 -4.58399 0
M  V30 7910 H 750.897 1.18478 -2.74961 0
M  V30 7911 H 748.443 0.568509 -1.32303 0
M  V30 7912 H 750.396 3.56821 -2.2418 0
M  V30 7913 H 749.12 3.07471 -1.10132 0
M  V30 7914 H 747.779 2.10568 -3.00094 0
M  V30 7915 H 747.427 4.47785 -2.29123 0
M  V30 7916 H 747.127 4.27147 -4.03509 0
M  V30 7917 H 748.651 5.0189 -3.47762 0
M  V30 7918 H 750.065 3.16025 -4.78332 0
M  V30 7919 H 748.462 2.64717 -5.38558 0
M  V30 7920 H 749.532 1.45542 -4.62543 0
M  V30 7921 N 750.875 1.45233 0.611969 0
M  V30 7922 C 751.785 1.56098 1.7513 0
M  V30 7923 C 752.801 0.445646 1.68196 0
M  V30 7924 O 753.977 0.705718 1.88631 0
M  V30 7925 C 751.042 1.52052 3.11579 0
M  V30 7926 C 750.103 2.74589 3.29999 0
M  V30 7927 C 749.336 2.70726 4.59938 0
M  V30 7928 O 749.559 1.77806 5.41979 0
M  V30 7929 O 748.493 3.61864 4.80976 0
M  V30 7930 H 752.319 2.52392 1.68914 0
M  V30 7931 H 749.904 1.27695 0.775528 0
M  V30 7932 H 751.786 1.52387 3.92882 0
M  V30 7933 H 750.461 0.589085 3.18295 0
M  V30 7934 H 749.368 2.79817 2.48301 0
M  V30 7935 H 750.701 3.66843 3.28157 0
M  V30 7936 N 752.353 -0.854086 1.3245 0
M  V30 7937 C 753.601 -1.60513 1.228 0
M  V30 7938 C 753.922 -1.93865 -0.210073 0
M  V30 7939 O 753.192 -1.59673 -1.13496 0
M  V30 7940 H 751.772 -0.595099 0.451516 0
M  V30 7941 H 754.434 -1.0216 1.6598 0
M  V30 7942 H 753.53 -2.54182 1.81102 0
M  V30 7943 N 753.831 -1.1567 -1.07043 0
M  V30 7944 C 754.741 -0.870435 -2.17855 0
M  V30 7945 C 755.757 0.154452 -1.73313 0
M  V30 7946 O 756.933 -0.0203759 -2.0139 0
M  V30 7947 C 753.998 -0.367219 -3.4475 0
M  V30 7948 C 753.059 -1.45639 -4.03841 0
M  V30 7949 C 752.292 -0.977092 -5.2468 0
M  V30 7950 O 752.515 0.176127 -5.70128 0
M  V30 7951 O 751.449 -1.76215 -5.75527 0
M  V30 7952 H 755.275 -1.79687 -2.44839 0
M  V30 7953 H 752.86 -0.936064 -1.1644 0
M  V30 7954 H 754.742 -0.0931947 -4.21297 0
M  V30 7955 H 753.417 0.53131 -3.1931 0
M  V30 7956 H 752.324 -1.78406 -3.28819 0
M  V30 7957 H 753.657 -2.32995 -4.3356 0
M  V30 7958 N 755.309 1.25446 -0.953992 0
M  V30 7959 C 756.272 2.24156 -0.478179 0
M  V30 7960 C 757.272 1.55278 0.417776 0
M  V30 7961 O 758.462 1.72866 0.215155 0
M  V30 7962 C 755.594 3.39495 0.309202 0
M  V30 7963 H 756.787 2.67764 -1.35064 0
M  V30 7964 H 754.34 1.37822 -0.737206 0
M  V30 7965 H 755.075 3.01307 1.19936 0
M  V30 7966 H 754.86 3.90679 -0.333562 0
M  V30 7967 H 756.35 4.12796 0.631594 0
M  V30 7968 N 756.787 0.722489 1.40064 0
M  V30 7969 C 757.697 0.0755984 2.34478 0
M  V30 7970 C 758.713 -0.736046 1.57665 0
M  V30 7971 O 759.889 -0.667407 1.9002 0
M  V30 7972 C 756.954 -0.830075 3.36616 0
M  V30 7973 C 756.015 -0.00759884 4.29299 0
M  V30 7974 C 755.248 -0.870139 5.26559 0
M  V30 7975 O 755.471 -2.10921 5.2997 0
M  V30 7976 O 754.405 -0.305454 6.01124 0
M  V30 7977 H 758.231 0.854545 2.9143 0
M  V30 7978 H 755.816 0.483032 1.41376 0
M  V30 7979 H 757.698 -1.34864 3.99236 0
M  V30 7980 H 756.373 -1.58805 2.82069 0
M  V30 7981 H 755.28 0.556199 3.69942 0
M  V30 7982 H 756.613 0.712312 4.87018 0
M  V30 7983 N 758.265 -1.50454 0.469181 0
M  V30 7984 C 759.513 -2.01916 -0.0862982 0
M  V30 7985 C 759.834 -1.35337 -1.40388 0
M  V30 7986 O 759.104 -0.498096 -1.89462 0
M  V30 7987 H 757.684 -0.746185 -0.0348825 0
M  V30 7988 H 760.346 -1.84804 0.619167 0
M  V30 7989 H 759.442 -3.11182 -0.239189 0
M  V30 7990 N 759.743 -0.201713 -1.56304 0
M  V30 7991 C 760.973 0.440084 -2.01858 0
M  V30 7992 C 761.381 1.55279 -1.08098 0
M  V30 7993 O 760.724 1.83529 -0.0792216 0
M  V30 7994 C 760.786 1.05091 -3.43797 0
M  V30 7995 C 760.45 0.0761208 -4.56937 0
M  V30 7996 C 761.447 -0.716951 -5.14933 0
M  V30 7997 C 759.132 -0.0368815 -5.02286 0
M  V30 7998 C 761.126 -1.60993 -6.16733 0
M  V30 7999 C 758.813 -0.933409 -6.03929 0
M  V30 8000 C 759.811 -1.71849 -6.61027 0
M  V30 8001 O 759.499 -2.59998 -7.60695 0
M  V30 8002 H 759.231 0.114139 -0.666294 0
M  V30 8003 H 761.785 -0.309672 -2.03052 0
M  V30 8004 H 760.015 1.84938 -3.3961 0
M  V30 8005 H 761.704 1.59804 -3.73118 0
M  V30 8006 H 762.47 -0.63999 -4.80759 0
M  V30 8007 H 758.349 0.564034 -4.57537 0
M  V30 8008 H 761.893 -2.22315 -6.61227 0
M  V30 8009 H 757.79 -1.01146 -6.37526 0
M  V30 8010 H 758.558 -2.53851 -7.7814 0
M  V30 8011 N 761.222 1.57436 0.0718424 0
M  V30 8012 C 762.152 2.06724 1.08571 0
M  V30 8013 C 763.133 0.960731 1.40371 0
M  V30 8014 O 764.318 1.23345 1.49999 0
M  V30 8015 C 761.448 2.51112 2.39916 0
M  V30 8016 C 760.402 3.65639 2.22469 0
M  V30 8017 C 759.728 3.96082 3.59198 0
M  V30 8018 C 761.028 4.95687 1.64596 0
M  V30 8019 H 762.722 2.91679 0.675569 0
M  V30 8020 H 760.268 1.40319 0.32352 0
M  V30 8021 H 762.221 2.84206 3.11135 0
M  V30 8022 H 760.945 1.63186 2.8291 0
M  V30 8023 H 759.604 3.32828 1.53691 0
M  V30 8024 H 759.252 3.05287 3.99761 0
M  V30 8025 H 758.952 4.73199 3.48362 0
M  V30 8026 H 760.476 4.31672 4.31847 0
M  V30 8027 H 761.89 5.27011 2.25681 0
M  V30 8028 H 760.287 5.77126 1.64457 0
M  V30 8029 H 761.357 4.8108 0.60744 0
M  V30 8030 N 762.7 -0.34323 1.53817 0
M  V30 8031 C 763.946 -1.08504 1.71332 0
M  V30 8032 C 764.279 -1.88294 0.475285 0
M  V30 8033 O 763.554 -1.87205 -0.527688 0
M  V30 8034 C 763.837 -2.02597 2.97702 0
M  V30 8035 C 763.69 -1.26268 4.31713 0
M  V30 8036 C 765.009 -3.0241 3.19744 0
M  V30 8037 H 762.128 -0.393072 0.623429 0
M  V30 8038 H 764.77 -0.363579 1.86489 0
M  V30 8039 H 762.92 -2.64118 2.8491 0
M  V30 8040 H 764.592 -0.673594 4.56356 0
M  V30 8041 H 762.835 -0.564696 4.30109 0
M  V30 8042 H 763.506 -1.95253 5.16314 0
M  V30 8043 H 765.982 -2.51004 3.31868 0
M  V30 8044 H 764.858 -3.65449 4.09558 0
M  V30 8045 H 765.119 -3.73806 2.36054 0
M  V30 8046 N 764.178 -1.45556 -0.604258 0
M  V30 8047 C 765.425 -1.49746 -1.36317 0
M  V30 8048 C 765.753 -0.140516 -1.93992 0
M  V30 8049 O 765.008 0.861244 -1.7573 0
M  V30 8050 C 765.307 -2.52697 -2.52743 0
M  V30 8051 C 764.973 -3.97315 -2.13195 0
M  V30 8052 C 763.635 -4.36692 -2.02123 0
M  V30 8053 C 765.987 -4.88249 -1.8238 0
M  V30 8054 C 763.315 -5.64895 -1.58463 0
M  V30 8055 C 765.667 -6.16867 -1.40205 0
M  V30 8056 C 764.331 -6.55172 -1.27694 0
M  V30 8057 H 763.601 -0.54796 -0.49882 0
M  V30 8058 H 766.248 -1.7892 -0.682643 0
M  V30 8059 H 764.553 -2.17105 -3.26148 0
M  V30 8060 H 766.25 -2.53176 -3.10971 0
M  V30 8061 H 762.84 -3.66176 -2.22739 0
M  V30 8062 H 767.024 -4.58561 -1.89829 0
M  V30 8063 H 762.28 -5.93365 -1.47402 0
M  V30 8064 H 766.454 -6.86771 -1.15408 0
M  V30 8065 H 764.081 -7.54411 -0.936375 0
M  V30 8066 N 765.656 0.84705 -1.32902 0
M  V30 8067 C 766.603 1.95624 -1.22473 0
M  V30 8068 C 767.573 1.65767 -0.105178 0
M  V30 8069 O 768.758 1.88704 -0.282042 0
M  V30 8070 C 765.898 3.31434 -0.961542 0
M  V30 8071 C 765.011 3.73741 -2.1666 0
M  V30 8072 C 764.146 4.98379 -1.83825 0
M  V30 8073 C 763.185 5.33199 -3.00609 0
M  V30 8074 N 762.322 6.49014 -2.67816 0
M  V30 8075 H 767.162 2.03875 -2.17345 0
M  V30 8076 H 764.699 0.997764 -1.08088 0
M  V30 8077 H 766.657 4.09663 -0.789411 0
M  V30 8078 H 765.287 3.22762 -0.0495938 0
M  V30 8079 H 764.339 2.91102 -2.44875 0
M  V30 8080 H 765.651 3.95462 -3.03993 0
M  V30 8081 H 764.805 5.84336 -1.63208 0
M  V30 8082 H 763.544 4.78611 -0.937172 0
M  V30 8083 H 762.549 4.4575 -3.21849 0
M  V30 8084 H 763.774 5.5492 -3.9146 0
M  V30 8085 H 761.72 6.30748 -1.80258 0
M  V30 8086 H 761.637 6.7079 -3.48679 0
M  V30 8087 H 762.905 7.38103 -2.50647 0
M  V30 8088 N 767.134 1.16236 1.06428 0
M  V30 8089 C 768.066 0.825446 2.1382 0
M  V30 8090 C 769.079 -0.166707 1.61944 0
M  V30 8091 O 770.268 0.0578606 1.78406 0
M  V30 8092 C 767.368 0.208023 3.38261 0
M  V30 8093 C 766.541 1.23994 4.19457 0
M  V30 8094 C 765.6 0.642569 5.22262 0
M  V30 8095 O 764.626 1.31106 5.53895 0
M  V30 8096 N 765.828 -0.571327 5.77682 0
M  V30 8097 H 768.593 1.7497 2.43322 0
M  V30 8098 H 766.154 1.05951 1.22417 0
M  V30 8099 H 768.146 -0.204608 4.04182 0
M  V30 8100 H 766.716 -0.619752 3.06395 0
M  V30 8101 H 765.936 1.82879 3.49212 0
M  V30 8102 H 767.224 1.93638 4.70512 0
M  V30 8103 H 766.622 -1.13263 5.54245 0
M  V30 8104 H 765.179 -0.926187 6.45186 0
M  V30 8105 N 768.612 -1.24939 0.960631 0
M  V30 8106 C 770.023 -1.74701 0.658529 0
M  V30 8107 C 770.374 -1.77967 -0.825959 0
M  V30 8108 O 769.499 -1.40444 -1.64634 0
M  V30 8109 C 770.094 -3.17263 1.18867 0
M  V30 8110 C 768.653 -3.64561 0.936614 0
M  V30 8111 C 767.8 -2.43423 1.32817 0
M  V30 8112 H 770.751 -1.10741 1.13676 0
M  V30 8113 H 770.772 -3.76481 0.551589 0
M  V30 8114 H 770.284 -3.14854 2.26912 0
M  V30 8115 H 768.385 -3.72378 -0.128608 0
M  V30 8116 H 768.498 -4.52392 1.57729 0
M  V30 8117 H 766.862 -2.43513 0.746548 0
M  V30 8118 H 767.645 -2.437 2.41796 0
M  V30 8119 N 770.09 -0.729906 -1.39679 0
M  V30 8120 C 771.336 -0.284905 -2.01395 0
M  V30 8121 C 771.691 1.11394 -1.56873 0
M  V30 8122 O 770.984 1.74765 -0.785342 0
M  V30 8123 C 771.178 -0.319564 -3.55968 0
M  V30 8124 C 771.007 -1.72024 -4.15497 0
M  V30 8125 C 769.777 -2.33128 -4.48307 0
M  V30 8126 C 771.975 -2.67296 -4.39383 0
M  V30 8127 N 769.957 -3.65403 -4.93309 0
M  V30 8128 C 771.328 -3.84298 -4.86534 0
M  V30 8129 C 773.383 -2.65124 -4.21442 0
M  V30 8130 C 772.086 -4.99455 -5.17627 0
M  V30 8131 C 774.112 -3.7942 -4.53646 0
M  V30 8132 C 773.474 -4.95156 -5.00999 0
M  V30 8133 H 769.573 -0.1504 -0.767401 0
M  V30 8134 H 772.157 -0.954783 -1.69682 0
M  V30 8135 H 770.328 0.319938 -3.8708 0
M  V30 8136 H 772.06 0.143504 -4.04445 0
M  V30 8137 H 768.815 -1.85097 -4.35931 0
M  V30 8138 H 769.239 -4.33298 -5.20175 0
M  V30 8139 H 773.881 -1.76842 -3.8404 0
M  V30 8140 H 771.599 -5.88371 -5.53937 0
M  V30 8141 H 775.185 -3.79031 -4.41392 0
M  V30 8142 H 774.065 -5.82131 -5.25446 0
M  V30 8143 N 771.568 1.50203 -0.477153 0
M  V30 8144 C 772.979 1.86685 -0.0235041 0
M  V30 8145 C 773.33 1.39148 1.38319 0
M  V30 8146 O 772.455 0.759051 2.02651 0
M  V30 8147 C 773.05 3.38781 -0.0358767 0
M  V30 8148 C 771.609 3.74652 0.362327 0
M  V30 8149 C 770.756 2.7412 -0.41875 0
M  V30 8150 H 773.707 1.4286 -0.691133 0
M  V30 8151 H 773.728 3.72732 0.764924 0
M  V30 8152 H 773.24 3.73349 -1.05981 0
M  V30 8153 H 771.341 3.45686 1.39039 0
M  V30 8154 H 771.454 4.79063 0.059457 0
M  V30 8155 H 769.818 2.54376 0.128341 0
M  V30 8156 H 770.601 3.11532 -1.44231 0
M  V30 8157 N 773.046 0.209999 1.56195 0
M  V30 8158 C 774.294 -0.423974 1.97603 0
M  V30 8159 C 774.615 -1.61112 1.09854 0
M  V30 8160 O 773.885 -1.95134 0.173032 0
M  V30 8161 H 772.465 -0.159629 0.729745 0
M  V30 8162 H 775.127 0.300205 1.92574 0
M  V30 8163 H 774.223 -0.75809 3.02753 0
M  V30 8164 N 774.524 -1.57472 -0.0634922 0
M  V30 8165 C 775.773 -1.86837 -0.759928 0
M  V30 8166 C 776.086 -0.803823 -1.7832 0
M  V30 8167 O 777.292 -0.985578 -2.52979 0
M  V30 8168 C 775.748 -3.31448 -1.4025 0
M  V30 8169 C 775.356 -4.46052 -0.417368 0
M  V30 8170 C 777.1 -3.70003 -2.08082 0
M  V30 8171 C 775.007 -5.81707 -1.06633 0
M  V30 8172 H 773.937 -0.697009 -0.287567 0
M  V30 8173 H 776.588 -1.83495 -0.0133914 0
M  V30 8174 H 774.97 -3.29427 -2.19759 0
M  V30 8175 H 776.144 -4.5948 0.348503 0
M  V30 8176 H 774.459 -4.16104 0.156955 0
M  V30 8177 H 777.056 -4.68653 -2.57426 0
M  V30 8178 H 777.399 -3.00226 -2.88393 0
M  V30 8179 H 777.932 -3.7405 -1.35394 0
M  V30 8180 H 774.671 -6.54798 -0.303374 0
M  V30 8181 H 774.191 -5.72064 -1.80286 0
M  V30 8182 H 775.87 -6.27317 -1.58376 0
M  V30 8183 N 776.003 0.335068 -1.53997 0
M  V30 8184 C 776.936 1.43533 -1.77407 0
M  V30 8185 C 777.914 1.5017 -0.623529 0
M  V30 8186 O 779.098 1.67756 -0.85966 0
M  V30 8187 C 776.225 2.81712 -1.88033 0
M  V30 8188 C 775.271 2.92661 -3.10245 0
M  V30 8189 S 776.104 2.58254 -4.69111 0
M  V30 8190 C 777.26 3.98525 -4.82627 0
M  V30 8191 H 777.493 1.2346 -2.70453 0
M  V30 8192 H 775.026 0.531234 -1.44973 0
M  V30 8193 H 776.984 3.61314 -1.9484 0
M  V30 8194 H 775.645 2.99075 -0.959849 0
M  V30 8195 H 774.838 3.93931 -3.14379 0
M  V30 8196 H 774.44 2.21017 -3.01708 0
M  V30 8197 H 776.732 4.93146 -4.64557 0
M  V30 8198 H 777.675 3.9938 -5.84723 0
M  V30 8199 H 778.083 3.86945 -4.11016 0
M  V30 8200 N 777.481 1.45874 0.596531 0
M  V30 8201 C 778.897 1.30524 0.918459 0
M  V30 8202 C 779.097 0.266429 1.99731 0
M  V30 8203 O 778.153 -0.335809 2.50257 0
M  V30 8204 C 779.466 2.68747 1.3489 0
M  V30 8205 C 781.014 2.7673 1.46251 0
M  V30 8206 C 781.489 4.15504 1.92667 0
M  V30 8207 N 782.98 4.17853 1.99883 0
M  V30 8208 C 783.715 5.22109 2.37044 0
M  V30 8209 N 783.211 6.36704 2.73094 0
M  V30 8210 N 785.004 5.09471 2.37479 0
M  V30 8211 H 777.155 2.12081 -0.116368 0
M  V30 8212 H 779.418 0.947941 0.0106033 0
M  V30 8213 H 779.124 3.46006 0.630288 0
M  V30 8214 H 778.998 2.97942 2.31323 0
M  V30 8215 H 781.385 1.99768 2.17202 0
M  V30 8216 H 781.466 2.51236 0.481054 0
M  V30 8217 H 781.11 4.92956 1.223 0
M  V30 8218 H 781.04 4.38396 2.91747 0
M  V30 8219 H 783.531 3.35163 1.74568 0
M  V30 8220 H 783.844 7.12041 3.00362 0
M  V30 8221 H 782.189 6.40087 2.70764 0
M  V30 8222 H 785.38 4.18987 2.08728 0
M  V30 8223 H 785.553 5.90837 2.66112 0
M  V30 8224 N 778.959 -0.83999 1.33349 0
M  V30 8225 C 780.187 -1.62728 1.27778 0
M  V30 8226 C 780.602 -1.88191 -0.151505 0
M  V30 8227 O 779.959 -1.46128 -1.09329 0
M  V30 8228 C 780.01 -2.97813 2.04913 0
M  V30 8229 O 779.731 -2.73469 3.42266 0
M  V30 8230 C 781.232 -3.92245 2.0654 0
M  V30 8231 H 778.452 -0.506374 0.440257 0
M  V30 8232 H 780.996 -1.04637 1.75703 0
M  V30 8233 H 779.151 -3.52509 1.60674 0
M  V30 8234 H 779.565 -3.59483 3.81932 0
M  V30 8235 H 781.039 -4.84249 2.64966 0
M  V30 8236 H 781.516 -4.26332 1.05537 0
M  V30 8237 H 782.122 -3.43487 2.50793 0
M  V30 8238 N 780.437 -1.16799 -1.0581 0
M  V30 8239 C 781.683 -0.953935 -1.78963 0
M  V30 8240 C 782.016 0.516638 -1.87202 0
M  V30 8241 O 781.291 1.38338 -1.36721 0
M  V30 8242 C 781.574 -1.58808 -3.23191 0
M  V30 8243 C 781.427 -3.13032 -3.23003 0
M  V30 8244 C 782.746 -1.2868 -4.20867 0
M  V30 8245 H 779.865 -0.347972 -0.64968 0
M  V30 8246 H 782.507 -1.44204 -1.23715 0
M  V30 8247 H 780.657 -1.17303 -3.70368 0
M  V30 8248 H 782.329 -3.63553 -2.83949 0
M  V30 8249 H 780.572 -3.46108 -2.61518 0
M  V30 8250 H 781.243 -3.52527 -4.24769 0
M  V30 8251 H 783.719 -1.6461 -3.82155 0
M  V30 8252 H 782.595 -1.75645 -5.20038 0
M  V30 8253 H 782.856 -0.206491 -4.41618 0
M  V30 8254 N 781.915 1.24427 -0.967243 0
M  V30 8255 C 783.145 1.96256 -0.64554 0
M  V30 8256 C 783.553 1.71959 0.789098 0
M  V30 8257 O 782.896 0.999913 1.54102 0
M  V30 8258 C 782.958 3.49553 -0.839798 0
M  V30 8259 C 782.622 3.97548 -2.25399 0
M  V30 8260 C 783.619 4.07257 -3.23168 0
M  V30 8261 C 781.304 4.30884 -2.58156 0
M  V30 8262 C 783.298 4.49635 -4.51782 0
M  V30 8263 C 780.985 4.72946 -3.86996 0
M  V30 8264 C 781.983 4.82286 -4.83621 0
M  V30 8265 O 781.671 5.23409 -6.10162 0
M  V30 8266 H 781.403 0.632002 -0.239895 0
M  V30 8267 H 783.957 1.59224 -1.29757 0
M  V30 8268 H 782.187 3.86479 -0.130603 0
M  V30 8269 H 783.876 4.02591 -0.517249 0
M  V30 8270 H 784.642 3.8172 -2.9919 0
M  V30 8271 H 780.521 4.22833 -1.83666 0
M  V30 8272 H 784.065 4.5684 -5.27203 0
M  V30 8273 H 779.962 4.9793 -4.10775 0
M  V30 8274 H 780.73 5.4156 -6.13722 0
M  V30 8275 N 783.393 0.737304 1.3929 0
M  V30 8276 C 784.641 0.285691 2.00071 0
M  V30 8277 C 784.962 -1.13169 1.58801 0
M  V30 8278 O 784.232 -1.77104 0.837308 0
M  V30 8279 H 782.812 0.102638 0.739915 0
M  V30 8280 H 785.474 0.947775 1.70303 0
M  V30 8281 H 784.57 0.335906 3.10287 0
M  V30 8282 N 784.871 -1.49948 0.485112 0
M  V30 8283 C 785.819 -2.30449 -0.315609 0
M  V30 8284 C 786.813 -1.38351 -0.977516 0
M  V30 8285 O 788.019 -1.55477 -0.907019 0
M  V30 8286 H 784.394 -0.742262 -0.120629 0
M  V30 8287 H 786.365 -2.95925 0.383552 0
M  V30 8288 C 785.114 -3.19283 -1.37673 0
M  V30 8289 H 784.437 -3.90067 -0.876801 0
M  V30 8290 H 785.877 -3.78579 -1.90929 0
M  V30 8291 C 784.336 -2.37817 -2.38631 0
M  V30 8292 O 784.866 -2.0711 -3.44192 0
M  V30 8293 N 783.072 -2.00135 -2.107 0
M  V30 8294 H 782.619 -2.25307 -1.24878 0
M  V30 8295 H 782.577 -1.45933 -2.7848 0
M  V30 8296 N 786.349 -0.21828 -1.56081 0
M  V30 8297 C 787.299 0.706492 -2.16778 0
M  V30 8298 C 788.283 1.15987 -1.11516 0
M  V30 8299 O 789.475 1.11441 -1.37513 0
M  V30 8300 C 786.604 1.91583 -2.8487 0
M  V30 8301 C 785.69 1.48228 -3.97353 0
M  V30 8302 N 786.081 0.761113 -5.00041 0
M  V30 8303 C 784.379 1.76982 -4.09382 0
M  V30 8304 C 785.08 0.540496 -5.79184 0
M  V30 8305 N 784.056 1.09622 -5.32432 0
M  V30 8306 H 787.858 0.147038 -2.93532 0
M  V30 8307 H 785.372 -0.0194049 -1.62388 0
M  V30 8308 H 787.369 2.58906 -3.26762 0
M  V30 8309 H 786.029 2.47979 -2.09611 0
M  V30 8310 H 787.04 0.414141 -5.16241 0
M  V30 8311 H 783.717 2.34721 -3.45271 0
M  V30 8312 H 785.107 -0.0332531 -6.71892 0
M  V30 8313 N 787.827 1.57504 0.0551401 0
M  V30 8314 C 788.737 2.08198 1.08124 0
M  V30 8315 C 789.753 1.01496 1.41331 0
M  V30 8316 O 790.929 1.33073 1.51174 0
M  V30 8317 C 787.994 2.52968 2.37083 0
M  V30 8318 C 787.055 3.7404 2.10696 0
M  V30 8319 C 786.288 4.16665 3.33505 0
M  V30 8320 O 786.511 3.59019 4.4324 0
M  V30 8321 O 785.445 5.09324 3.20737 0
M  V30 8322 H 789.271 2.95977 0.680518 0
M  V30 8323 H 786.856 1.46933 0.270401 0
M  V30 8324 H 788.738 2.82211 3.12946 0
M  V30 8325 H 787.413 1.6831 2.76502 0
M  V30 8326 H 786.32 3.49855 1.32484 0
M  V30 8327 H 787.653 4.59601 1.76148 0
M  V30 8328 N 789.305 -0.326896 1.54172 0
M  V30 8329 C 790.721 -0.671034 1.44808 0
M  V30 8330 C 790.921 -1.91781 0.618258 0
M  V30 8331 O 789.977 -2.52235 0.115751 0
M  V30 8332 C 791.29 -0.848147 2.88491 0
M  V30 8333 C 792.838 -0.945702 2.98371 0
M  V30 8334 C 793.313 -1.15501 4.43197 0
M  V30 8335 N 794.804 -1.22183 4.46795 0
M  V30 8336 C 795.539 -1.4016 5.56006 0
M  V30 8337 N 795.035 -1.55202 6.75192 0
M  V30 8338 N 796.828 -1.42841 5.43648 0
M  V30 8339 H 788.979 0.49262 2.06608 0
M  V30 8340 H 791.242 0.158574 0.934643 0
M  V30 8341 H 790.948 -0.00329969 3.517 0
M  V30 8342 H 790.822 -1.74497 3.34411 0
M  V30 8343 H 793.209 -1.78106 2.35292 0
M  V30 8344 H 793.29 -0.0254215 2.55787 0
M  V30 8345 H 792.934 -0.324521 5.06862 0
M  V30 8346 H 792.864 -2.08911 4.83388 0
M  V30 8347 H 795.355 -1.12016 3.60917 0
M  V30 8348 H 795.668 -1.68601 7.54184 0
M  V30 8349 H 794.013 -1.52306 6.78106 0
M  V30 8350 H 797.204 -1.30683 4.49488 0
M  V30 8351 H 797.377 -1.56509 6.28816 0
M  V30 8352 N 790.784 -1.46188 -0.588786 0
M  V30 8353 C 792.031 -1.51184 -1.34721 0
M  V30 8354 C 792.359 -0.161084 -1.93832 0
M  V30 8355 O 791.614 0.842557 -1.76634 0
M  V30 8356 C 791.913 -2.55364 -2.50048 0
M  V30 8357 C 791.579 -3.99553 -2.08969 0
M  V30 8358 C 790.241 -4.38811 -1.9748 0
M  V30 8359 C 792.593 -4.90156 -1.77191 0
M  V30 8360 C 789.921 -5.66544 -1.52463 0
M  V30 8361 C 792.273 -6.1832 -1.33654 0
M  V30 8362 C 790.937 -6.5649 -1.20738 0
M  V30 8363 H 790.207 -0.55322 -0.49298 0
M  V30 8364 H 792.854 -1.79634 -0.663627 0
M  V30 8365 H 791.159 -2.20552 -3.23827 0
M  V30 8366 H 792.856 -2.5646 -3.08268 0
M  V30 8367 H 789.446 -3.68518 -2.18843 0
M  V30 8368 H 793.63 -4.60549 -1.84955 0
M  V30 8369 H 788.886 -5.94895 -1.411 0
M  V30 8370 H 793.06 -6.87956 -1.08117 0
M  V30 8371 H 790.687 -7.55362 -0.856307 0
M  V30 8372 N 792.262 0.832906 -1.33792 0
M  V30 8373 C 793.172 1.97514 -1.26592 0
M  V30 8374 C 794.188 1.73114 -0.175391 0
M  V30 8375 O 795.364 1.97387 -0.400062 0
M  V30 8376 C 792.429 3.31625 -1.01121 0
M  V30 8377 C 791.49 3.69101 -2.19233 0
M  V30 8378 C 790.723 4.96813 -1.94968 0
M  V30 8379 O 790.946 5.63208 -0.902955 0
M  V30 8380 O 789.88 5.31932 -2.8166 0
M  V30 8381 H 793.706 2.0653 -2.22664 0
M  V30 8382 H 791.291 0.966826 -1.13898 0
M  V30 8383 H 793.173 4.11968 -0.886571 0
M  V30 8384 H 791.848 3.23599 -0.080822 0
M  V30 8385 H 790.755 2.89243 -2.37253 0
M  V30 8386 H 792.088 3.818 -3.10628 0
M  V30 8387 N 793.74 1.17359 1.05189 0
M  V30 8388 C 794.968 0.986529 1.81866 0
M  V30 8389 C 795.383 -0.46522 1.82979 0
M  V30 8390 O 794.74 -1.32305 1.25705 0
M  V30 8391 C 794.791 1.52021 3.27982 0
M  V30 8392 O 794.512 2.91511 3.27037 0
M  V30 8393 C 796.013 1.37774 4.21347 0
M  V30 8394 H 793.233 0.349021 0.573084 0
M  V30 8395 H 795.777 1.55648 1.32643 0
M  V30 8396 H 793.932 0.992287 3.74476 0
M  V30 8397 H 794.346 3.16178 4.18488 0
M  V30 8398 H 795.82 1.7993 5.21852 0
M  V30 8399 H 796.297 0.32483 4.37997 0
M  V30 8400 H 796.903 1.89583 3.80708 0
M  V30 8401 N 795.218 -1.23913 0.973828 0
M  V30 8402 C 796.446 -1.96195 0.656891 0
M  V30 8403 C 796.861 -1.72166 -0.774876 0
M  V30 8404 O 796.218 -1.0091 -1.52064 0
M  V30 8405 C 796.269 -3.49342 0.929638 0
M  V30 8406 O 795.99 -3.72553 2.30512 0
M  V30 8407 C 797.491 -4.38833 0.627739 0
M  V30 8408 H 794.711 -0.624841 0.244572 0
M  V30 8409 H 797.255 -1.57579 1.30343 0
M  V30 8410 H 795.41 -3.85999 0.329216 0
M  V30 8411 H 795.824 -4.66893 2.3898 0
M  V30 8412 H 797.298 -5.45117 0.868991 0
M  V30 8413 H 797.775 -4.37009 -0.438104 0
M  V30 8414 H 798.381 -4.07773 1.20834 0
M  V30 8415 N 796.696 -0.74468 -1.38897 0
M  V30 8416 C 797.926 -0.306982 -2.04307 0
M  V30 8417 C 798.334 1.06652 -1.56275 0
M  V30 8418 O 797.677 1.68699 -0.72708 0
M  V30 8419 C 797.739 -0.241186 -3.5869 0
M  V30 8420 C 797.403 -1.55476 -4.2974 0
M  V30 8421 C 798.4 -2.50229 -4.55721 0
M  V30 8422 C 796.085 -1.82173 -4.68101 0
M  V30 8423 C 798.079 -3.69905 -5.19085 0
M  V30 8424 C 795.766 -3.02125 -5.31191 0
M  V30 8425 C 796.764 -3.95812 -5.56616 0
M  V30 8426 O 796.452 -5.13656 -6.18395 0
M  V30 8427 H 796.184 -0.130416 -0.663301 0
M  V30 8428 H 798.738 -1.01192 -1.78744 0
M  V30 8429 H 796.968 0.519925 -3.83189 0
M  V30 8430 H 798.657 0.165806 -4.05561 0
M  V30 8431 H 799.423 -2.30877 -4.26522 0
M  V30 8432 H 795.302 -1.10091 -4.47662 0
M  V30 8433 H 798.846 -4.43047 -5.38846 0
M  V30 8434 H 794.743 -3.21374 -5.59811 0
M  V30 8435 H 795.511 -5.14119 -6.36886 0
M  V30 8436 N 798.174 1.49689 -0.493057 0
M  V30 8437 C 799.421 2.02427 0.0542714 0
M  V30 8438 C 799.749 1.37339 1.37725 0
M  V30 8439 O 799.004 0.495523 1.89323 0
M  V30 8440 C 799.303 3.56427 0.263536 0
M  V30 8441 C 798.969 4.40111 -0.98046 0
M  V30 8442 C 797.631 4.62699 -1.32148 0
M  V30 8443 C 799.983 4.88847 -1.80771 0
M  V30 8444 C 797.311 5.31268 -2.48941 0
M  V30 8445 C 799.663 5.587 -2.96711 0
M  V30 8446 C 798.327 5.79536 -3.31202 0
M  V30 8447 H 797.597 0.740734 0.0198593 0
M  V30 8448 H 800.244 1.80073 -0.651603 0
M  V30 8449 H 798.549 3.77416 1.05186 0
M  V30 8450 H 800.246 3.94819 0.701348 0
M  V30 8451 H 796.836 4.22765 -0.704814 0
M  V30 8452 H 801.02 4.71231 -1.55741 0
M  V30 8453 H 796.276 5.45603 -2.75911 0
M  V30 8454 H 800.45 5.9544 -3.61143 0
M  V30 8455 H 798.077 6.32443 -4.21805 0
M  V30 8456 N 799.652 0.226554 1.55963 0
M  V30 8457 C 800.599 -0.681504 2.20509 0
M  V30 8458 C 801.569 -1.1866 1.16229 0
M  V30 8459 O 802.754 -1.24478 1.44602 0
M  V30 8460 C 799.894 -1.88183 2.89277 0
M  V30 8461 C 799.007 -1.41517 4.08163 0
M  V30 8462 C 798.142 -2.57346 4.647 0
M  V30 8463 C 797.181 -2.07441 5.75877 0
M  V30 8464 N 796.318 -3.16561 6.26685 0
M  V30 8465 H 801.158 -0.124372 2.9774 0
M  V30 8466 H 798.695 -0.0496333 1.47016 0
M  V30 8467 H 800.653 -2.58666 3.27335 0
M  V30 8468 H 799.283 -2.41177 2.14555 0
M  V30 8469 H 798.335 -0.605099 3.75557 0
M  V30 8470 H 799.647 -1.00928 4.88482 0
M  V30 8471 H 798.801 -3.35903 5.05227 0
M  V30 8472 H 797.54 -3.01227 3.83554 0
M  V30 8473 H 796.545 -1.27347 5.34848 0
M  V30 8474 H 797.77 -1.64554 6.58862 0
M  V30 8475 H 795.716 -3.59914 5.48451 0
M  V30 8476 H 795.633 -2.80239 7.02141 0
M  V30 8477 H 796.901 -3.95238 6.71868 0
M  V30 8478 N 801.13 -1.57531 -0.0467866 0
M  V30 8479 C 802.077 -2.05387 -1.05285 0
M  V30 8480 C 803.047 -0.939385 -1.36985 0
M  V30 8481 O 804.232 -1.20877 -1.47626 0
M  V30 8482 C 801.372 -2.52343 -2.35408 0
M  V30 8483 C 800.485 -3.77512 -2.10022 0
M  V30 8484 C 799.62 -4.1315 -3.33887 0
M  V30 8485 C 798.659 -5.31286 -3.03976 0
M  V30 8486 N 797.796 -5.62441 -4.20243 0
M  V30 8487 H 802.636 -2.91095 -0.637788 0
M  V30 8488 H 800.173 -1.43939 -0.303322 0
M  V30 8489 H 802.131 -2.77628 -3.11413 0
M  V30 8490 H 800.761 -1.69577 -2.7467 0
M  V30 8491 H 799.813 -3.59417 -1.24594 0
M  V30 8492 H 801.125 -4.63644 -1.83945 0
M  V30 8493 H 800.279 -4.39469 -4.18273 0
M  V30 8494 H 799.018 -3.25634 -3.63062 0
M  V30 8495 H 798.023 -5.04738 -2.17991 0
M  V30 8496 H 799.248 -6.20441 -2.76098 0
M  V30 8497 H 797.194 -4.77885 -4.49402 0
M  V30 8498 H 797.111 -6.43046 -3.97528 0
M  V30 8499 H 798.379 -5.93327 -5.05553 0
M  V30 8500 N 802.608 0.318715 -1.54344 0
M  V30 8501 C 803.855 1.05608 -1.72781 0
M  V30 8502 C 804.183 1.87854 -0.504083 0
M  V30 8503 O 803.438 1.88826 0.51414 0
M  V30 8504 C 803.737 2.00514 -2.95853 0
M  V30 8505 C 803.403 1.34385 -4.30409 0
M  V30 8506 C 802.065 1.16081 -4.66989 0
M  V30 8507 C 804.417 0.869627 -5.13894 0
M  V30 8508 C 801.745 0.490114 -5.84649 0
M  V30 8509 C 804.097 0.212735 -6.32242 0
M  V30 8510 C 802.761 0.0175882 -6.67498 0
M  V30 8511 H 802.031 0.386449 -0.632249 0
M  V30 8512 H 804.678 0.332729 -1.88587 0
M  V30 8513 H 802.983 2.79317 -2.74753 0
M  V30 8514 H 804.68 2.57605 -3.07312 0
M  V30 8515 H 801.27 1.49634 -4.01631 0
M  V30 8516 H 805.454 0.998809 -4.86146 0
M  V30 8517 H 800.71 0.327767 -6.10521 0
M  V30 8518 H 804.884 -0.162699 -6.9621 0
M  V30 8519 H 802.511 -0.504137 -7.58527 0
M  V30 8520 N 804.086 1.46499 0.581025 0
M  V30 8521 C 805.497 1.4604 1.16315 0
M  V30 8522 C 805.848 0.202154 1.95156 0
M  V30 8523 O 804.973 -0.694638 2.04948 0
M  V30 8524 C 805.568 2.64593 2.11604 0
M  V30 8525 C 804.127 2.6717 2.65136 0
M  V30 8526 C 803.274 2.38753 1.4104 0
M  V30 8527 H 806.225 1.54354 0.368871 0
M  V30 8528 H 806.246 2.40207 2.95095 0
M  V30 8529 H 805.758 3.56154 1.54194 0
M  V30 8530 H 803.859 1.79685 3.26411 0
M  V30 8531 H 803.972 3.67182 3.07757 0
M  V30 8532 H 802.336 1.88845 1.70908 0
M  V30 8533 H 803.119 3.32493 0.854588 0
M  V30 8534 N 805.565 -0.825799 1.34232 0
M  V30 8535 C 806.813 -1.57873 1.26177 0
M  V30 8536 C 807.134 -1.94267 -0.168904 0
M  V30 8537 O 806.404 -1.62045 -1.10084 0
M  V30 8538 H 804.984 -0.585388 0.464037 0
M  V30 8539 H 807.646 -0.986163 1.6811 0
M  V30 8540 H 806.742 -2.50283 1.86453 0
M  V30 8541 N 807.043 -1.17915 -1.04565 0
M  V30 8542 C 808.273 -0.994716 -1.81077 0
M  V30 8543 C 808.681 0.460146 -1.83519 0
M  V30 8544 O 808.024 1.33136 -1.26572 0
M  V30 8545 C 808.086 -1.46698 -3.28207 0
M  V30 8546 C 807.75 -2.94523 -3.49436 0
M  V30 8547 C 808.747 -3.92414 -3.41038 0
M  V30 8548 C 806.432 -3.32841 -3.76194 0
M  V30 8549 C 808.426 -5.2662 -3.59096 0
M  V30 8550 C 806.113 -4.67212 -3.93899 0
M  V30 8551 C 807.111 -5.6391 -3.8535 0
M  V30 8552 O 806.799 -6.95849 -4.02554 0
M  V30 8553 H 806.531 -0.351797 -0.577248 0
M  V30 8554 H 809.085 -1.56772 -1.32709 0
M  V30 8555 H 807.315 -0.837592 -3.7752 0
M  V30 8556 H 809.004 -1.24724 -3.86263 0
M  V30 8557 H 809.77 -3.64157 -3.20336 0
M  V30 8558 H 805.649 -2.58139 -3.81949 0
M  V30 8559 H 809.193 -6.02082 -3.52339 0
M  V30 8560 H 805.09 -4.95172 -4.14095 0
M  V30 8561 H 805.858 -7.02679 -4.19743 0
M  V30 8562 N 808.521 1.23394 -0.980386 0
M  V30 8563 C 809.751 1.9556 -0.666319 0
M  V30 8564 C 810.159 1.72786 0.770815 0
M  V30 8565 O 809.502 1.0162 1.53033 0
M  V30 8566 C 809.564 3.48643 -0.876825 0
M  V30 8567 C 809.228 3.95135 -2.29602 0
M  V30 8568 C 810.225 4.03806 -3.2747 0
M  V30 8569 C 807.91 4.28122 -2.62711 0
M  V30 8570 C 809.904 4.44818 -4.56526 0
M  V30 8571 C 807.591 4.68814 -3.9199 0
M  V30 8572 C 808.589 4.77129 -4.88709 0
M  V30 8573 O 808.277 5.16908 -6.15679 0
M  V30 8574 H 808.009 0.629422 -0.246585 0
M  V30 8575 H 810.563 1.57839 -1.31438 0
M  V30 8576 H 808.793 3.86319 -0.171587 0
M  V30 8577 H 810.482 4.0202 -0.55992 0
M  V30 8578 H 811.248 3.78526 -3.03222 0
M  V30 8579 H 807.127 4.20861 -1.8814 0
M  V30 8580 H 810.671 4.51223 -5.32018 0
M  V30 8581 H 806.568 4.93545 -4.16033 0
M  V30 8582 H 807.336 5.3502 -6.19432 0
M  V30 8583 N 809.999 0.752036 1.385 0
M  V30 8584 C 811.245 0.307958 2.00448 0
M  V30 8585 C 811.578 -1.10702 1.59558 0
M  V30 8586 O 810.853 -1.75788 0.832391 0
M  V30 8587 C 811.136 0.429092 3.57534 0
M  V30 8588 C 810.989 1.88507 4.08393 0
M  V30 8589 C 812.308 -0.178442 4.39738 0
M  V30 8590 H 809.427 0.113373 0.728228 0
M  V30 8591 H 812.069 0.951389 1.64465 0
M  V30 8592 H 810.219 -0.118695 3.88319 0
M  V30 8593 H 811.891 2.49104 3.88259 0
M  V30 8594 H 810.134 2.40066 3.61318 0
M  V30 8595 H 810.805 1.92099 5.17496 0
M  V30 8596 H 813.281 0.28872 4.15097 0
M  V30 8597 H 812.157 -0.0634349 5.48863 0
M  V30 8598 H 812.418 -1.26655 4.23569 0
M  V30 8599 N 811.477 -1.49425 0.500989 0
M  V30 8600 C 812.705 -2.06861 -0.0403443 0
M  V30 8601 C 813.12 -1.36132 -1.30819 0
M  V30 8602 O 812.477 -0.439647 -1.77125 0
M  V30 8603 C 812.528 -3.6027 -0.297902 0
M  V30 8604 O 812.249 -4.28338 0.919686 0
M  V30 8605 C 813.75 -4.34419 -0.882876 0
M  V30 8606 H 810.97 -0.670688 0.0204619 0
M  V30 8607 H 813.514 -1.92207 0.698342 0
M  V30 8608 H 811.669 -3.74627 -0.98657 0
M  V30 8609 H 812.083 -5.2004 0.682528 0
M  V30 8610 H 813.557 -5.42631 -1.01268 0
M  V30 8611 H 814.034 -3.96898 -1.88066 0
M  V30 8612 H 814.64 -4.24669 -0.231677 0
M  V30 8613 N 812.955 -0.234822 -1.55841 0
M  V30 8614 C 814.203 0.392483 -1.98252 0
M  V30 8615 C 814.524 1.59344 -1.12404 0
M  V30 8616 O 813.794 1.94834 -0.204055 0
M  V30 8617 H 812.374 0.147999 -0.732192 0
M  V30 8618 H 815.036 -0.330804 -1.92072 0
M  V30 8619 H 814.132 0.709829 -3.03921 0
M  V30 8620 N 814.433 1.57553 0.0384317 0
M  V30 8621 C 815.71 1.79977 0.766002 0
M  V30 8622 C 816.09 0.830625 1.94072 0
M  V30 8623 O 815.438 -0.129243 2.28134 0
M  V30 8624 C 815.648 3.27434 1.20781 0
M  V30 8625 C 816.996 3.92167 1.62758 0
M  V30 8626 O 818.02 3.31527 1.30263 0
M  V30 8627 O 816.879 4.98917 2.23035 0
M  V30 8628 H 813.973 0.739787 0.369654 0
M  V30 8629 H 816.519 1.69693 0.0159312 0
M  V30 8630 H 815.291 3.89558 0.368792 0
M  V30 8631 H 814.914 3.42571 2.01819 0
M  V30 8632 N 815.911 -0.310526 1.54511 0
M  V30 8633 C 817.159 -1.04484 1.72996 0
M  V30 8634 C 817.48 -1.88118 0.513479 0
M  V30 8635 O 816.75 -1.90119 -0.472384 0
M  V30 8636 H 815.33 -0.388747 0.637875 0
M  V30 8637 H 817.992 -0.343811 1.91844 0
M  V30 8638 H 817.088 -1.70341 2.61515 0
M  V30 8639 N 817.389 -1.46805 -0.573248 0
M  V30 8640 C 818.629 -1.5417 -1.34205 0
M  V30 8641 C 818.993 -0.192675 -1.91031 0
M  V30 8642 O 820.194 -0.141111 -2.68429 0
M  V30 8643 C 818.465 -2.61682 -2.43428 0
M  V30 8644 S 820.024 -2.88519 -3.30609 0
M  V30 8645 H 816.842 -0.544592 -0.4571 0
M  V30 8646 H 819.444 -1.84094 -0.658001 0
M  V30 8647 H 818.148 -3.58319 -2.00088 0
M  V30 8648 H 817.679 -2.33521 -3.16594 0
M  V30 8649 H 819.694 -2.2451 -4.42504 0
M  V30 8650 N 818.867 0.818669 -1.34668 0
M  V30 8651 C 819.799 1.93754 -1.22442 0
M  V30 8652 C 820.812 1.62103 -0.150501 0
M  V30 8653 O 822.001 1.73898 -0.402728 0
M  V30 8654 C 819.101 3.27806 -0.860031 0
M  V30 8655 C 818.274 3.8745 -2.02981 0
M  V30 8656 C 817.333 4.99887 -1.64314 0
M  V30 8657 O 816.359 5.17957 -2.36029 0
M  V30 8658 N 817.561 5.77795 -0.55976 0
M  V30 8659 H 820.326 2.04773 -2.18833 0
M  V30 8660 H 817.887 0.995472 -1.27679 0
M  V30 8661 H 819.879 4.00478 -0.583068 0
M  V30 8662 H 818.449 3.12597 0.0138253 0
M  V30 8663 H 817.669 3.07119 -2.47127 0
M  V30 8664 H 818.957 4.2403 -2.81204 0
M  V30 8665 H 818.355 5.65688 0.0363329 0
M  V30 8666 H 816.912 6.50899 -0.342541 0
M  V30 8667 N 820.346 1.18468 1.03938 0
M  V30 8668 C 821.762 0.934635 1.29371 0
M  V30 8669 C 821.962 -0.399067 1.97509 0
M  V30 8670 O 821.018 -1.13309 2.25648 0
M  V30 8671 C 822.331 2.10111 2.15114 0
M  V30 8672 C 823.879 2.13955 2.28456 0
M  V30 8673 C 824.354 3.30024 3.17566 0
M  V30 8674 N 825.845 3.29893 3.25153 0
M  V30 8675 C 826.58 4.16346 3.94263 0
M  V30 8676 N 826.076 5.12934 4.65693 0
M  V30 8677 N 827.869 4.04256 3.90556 0
M  V30 8678 H 820.02 2.04294 0.581185 0
M  V30 8679 H 822.283 0.892727 0.318971 0
M  V30 8680 H 821.989 3.06572 1.72355 0
M  V30 8681 H 821.863 2.06283 3.15796 0
M  V30 8682 H 824.25 1.18072 2.7045 0
M  V30 8683 H 824.331 2.2184 1.2736 0
M  V30 8684 H 823.975 4.26181 2.76283 0
M  V30 8685 H 823.905 3.19376 4.18697 0
M  V30 8686 H 826.396 2.59969 2.74271 0
M  V30 8687 H 826.709 5.75271 5.16026 0
M  V30 8688 H 825.054 5.16893 4.64593 0
M  V30 8689 H 828.245 3.28083 3.33885 0
M  V30 8690 H 828.418 4.71848 4.44144 0
M  V30 8691 N 821.824 -1.22873 0.986916 0
M  V30 8692 C 823.101 -1.86939 0.575589 0
M  V30 8693 C 823.481 -1.88656 -0.947205 0
M  V30 8694 O 822.829 -1.3728 -1.82665 0
M  V30 8695 C 823.039 -3.28117 1.18914 0
M  V30 8696 C 824.387 -4.04659 1.28593 0
M  V30 8697 O 825.411 -3.3736 1.14308 0
M  V30 8698 O 824.27 -5.25112 1.51391 0
M  V30 8699 H 821.364 -0.803748 0.194724 0
M  V30 8700 H 823.91 -1.30698 1.08241 0
M  V30 8701 H 822.682 -3.21468 2.231 0
M  V30 8702 H 822.305 -3.91956 0.667535 0
M  V30 8703 N 823.302 -0.75937 -1.38099 0
M  V30 8704 C 824.234 -0.0956547 -2.29 0
M  V30 8705 C 825.247 0.677561 -1.4803 0
M  V30 8706 O 826.436 0.517696 -1.70828 0
M  V30 8707 C 823.536 0.88844 -3.27047 0
M  V30 8708 C 822.709 0.171652 -4.37063 0
M  V30 8709 C 821.768 1.06733 -5.15262 0
M  V30 8710 O 820.794 0.535698 -5.66674 0
M  V30 8711 N 821.996 2.39486 -5.28797 0
M  V30 8712 H 824.761 -0.876354 -2.86601 0
M  V30 8713 H 822.322 -0.61065 -1.49942 0
M  V30 8714 H 824.314 1.49079 -3.76241 0
M  V30 8715 H 822.884 1.57018 -2.70304 0
M  V30 8716 H 822.104 -0.611473 -3.89429 0
M  V30 8717 H 823.392 -0.324121 -5.07767 0
M  V30 8718 H 822.79 2.85127 -4.88589 0
M  V30 8719 H 821.347 2.94758 -5.81344 0
M  V30 8720 N 824.78 1.49157 -0.508906 0
M  V30 8721 C 826.057 1.95363 0.0961913 0
M  V30 8722 C 826.437 1.45064 1.53362 0
M  V30 8723 O 825.785 0.667835 2.18523 0
M  V30 8724 C 825.995 3.49 0.000688881 0
M  V30 8725 C 827.343 4.24257 0.170632 0
M  V30 8726 O 828.367 3.5612 0.0754994 0
M  V30 8727 O 827.226 5.45267 0.366957 0
M  V30 8728 H 824.32 0.821984 0.0909489 0
M  V30 8729 H 826.866 1.59769 -0.572007 0
M  V30 8730 H 825.638 3.78269 -1.00143 0
M  V30 8731 H 825.261 3.91233 0.708682 0
M  V30 8732 N 826.258 0.243083 1.55714 0
M  V30 8733 C 827.506 -0.381964 1.98458 0
M  V30 8734 C 827.827 -1.58745 1.13247 0
M  V30 8735 O 827.097 -1.94723 0.214384 0
M  V30 8736 H 825.677 -0.144114 0.732967 0
M  V30 8737 H 828.339 0.340985 1.91894 0
M  V30 8738 H 827.435 -0.693702 3.04293 0
M  V30 8739 N 827.736 -1.57571 -0.0300757 0
M  V30 8740 C 828.966 -1.93204 -0.731828 0
M  V30 8741 C 829.374 -0.841156 -1.69473 0
M  V30 8742 O 828.717 0.191231 -1.82702 0
M  V30 8743 C 828.779 -3.2463 -1.54453 0
M  V30 8744 C 828.443 -4.50862 -0.746507 0
M  V30 8745 C 829.44 -5.19879 -0.0472309 0
M  V30 8746 C 827.125 -4.9738 -0.701347 0
M  V30 8747 C 829.119 -6.33692 0.686518 0
M  V30 8748 C 826.806 -6.11089 0.036148 0
M  V30 8749 C 827.804 -6.791 0.728841 0
M  V30 8750 O 827.492 -7.90635 1.45436 0
M  V30 8751 H 827.224 -0.6423 -0.210775 0
M  V30 8752 H 829.778 -2.05398 0.00804194 0
M  V30 8753 H 828.008 -3.0876 -2.32818 0
M  V30 8754 H 829.697 -3.45597 -2.1288 0
M  V30 8755 H 830.463 -4.84945 -0.0731582 0
M  V30 8756 H 826.342 -4.44288 -1.23001 0
M  V30 8757 H 829.886 -6.86711 1.22773 0
M  V30 8758 H 825.783 -6.45468 0.064002 0
M  V30 8759 H 826.551 -8.06988 1.36794 0
M  V30 8760 N 829.214 0.302327 -1.54673 0
M  V30 8761 C 830.444 1.05516 -1.77623 0
M  V30 8762 C 830.852 1.81474 -0.535159 0
M  V30 8763 O 830.195 1.76635 0.504543 0
M  V30 8764 C 830.257 2.08305 -2.93001 0
M  V30 8765 C 829.921 1.51554 -4.31139 0
M  V30 8766 C 830.918 0.946261 -5.11216 0
M  V30 8767 C 828.603 1.55157 -4.77736 0
M  V30 8768 C 830.597 0.420559 -6.36011 0
M  V30 8769 C 828.284 1.022 -6.02494 0
M  V30 8770 C 829.282 0.457461 -6.81466 0
M  V30 8771 O 828.97 -0.064083 -8.03874 0
M  V30 8772 H 828.702 0.318756 -0.59613 0
M  V30 8773 H 831.256 0.347558 -2.02438 0
M  V30 8774 H 829.486 2.82742 -2.63807 0
M  V30 8775 H 831.175 2.69479 -3.03539 0
M  V30 8776 H 831.941 0.911338 -4.76361 0
M  V30 8777 H 827.82 1.98037 -4.16296 0
M  V30 8778 H 831.364 -0.0207298 -6.97597 0
M  V30 8779 H 827.261 1.05406 -6.36836 0
M  V30 8780 H 828.029 0.0493422 -8.18485 0
M  V30 8781 N 830.692 1.47107 0.565454 0
M  V30 8782 C 831.938 1.54519 1.3227 0
M  V30 8783 C 832.293 0.201313 1.91344 0
M  V30 8784 O 831.586 -0.792058 1.74462 0
M  V30 8785 C 831.78 2.59309 2.45954 0
M  V30 8786 C 831.609 4.03756 1.98019 0
M  V30 8787 C 830.379 4.71293 1.8224 0
M  V30 8788 C 832.577 4.91029 1.52955 0
M  V30 8789 N 830.559 6.00288 1.28557 0
M  V30 8790 C 831.93 6.09986 1.10981 0
M  V30 8791 C 833.985 4.77539 1.4093 0
M  V30 8792 C 832.688 7.16943 0.581796 0
M  V30 8793 C 834.714 5.84584 0.895307 0
M  V30 8794 C 834.076 7.02725 0.485454 0
M  V30 8795 H 830.175 0.620177 0.476345 0
M  V30 8796 H 832.759 1.83814 0.641901 0
M  V30 8797 H 830.93 2.31896 3.11575 0
M  V30 8798 H 832.662 2.56614 3.1294 0
M  V30 8799 H 829.417 4.27074 2.04707 0
M  V30 8800 H 829.841 6.68991 1.03828 0
M  V30 8801 H 834.483 3.86574 1.71231 0
M  V30 8802 H 832.201 8.07661 0.266399 0
M  V30 8803 H 835.787 5.76191 0.805939 0
M  V30 8804 H 834.667 7.84144 0.0938828 0
M  V30 8805 N 832.17 -0.811516 1.35101 0
M  V30 8806 C 833.419 -1.56343 1.27435 0
M  V30 8807 C 833.732 -1.95019 -0.150696 0
M  V30 8808 O 834.938 -2.6924 -0.349586 0
M  V30 8809 C 833.394 -2.82124 2.23459 0
M  V30 8810 C 833.002 -2.50706 3.71283 0
M  V30 8811 C 834.746 -3.60137 2.24726 0
M  V30 8812 C 832.653 -3.72748 4.59143 0
M  V30 8813 H 831.583 -0.58682 0.473453 0
M  V30 8814 H 834.234 -0.892465 1.60335 0
M  V30 8815 H 832.616 -3.50905 1.83525 0
M  V30 8816 H 833.79 -1.89962 4.19823 0
M  V30 8817 H 832.105 -1.85947 3.72576 0
M  V30 8818 H 834.702 -4.50775 2.87587 0
M  V30 8819 H 835.045 -3.97101 1.24965 0
M  V30 8820 H 835.578 -2.98311 2.63164 0
M  V30 8821 H 832.317 -3.40896 5.59884 0
M  V30 8822 H 831.837 -4.32735 4.15332 0
M  V30 8823 H 833.516 -4.40033 4.74321 0
M  V30 8824 N 833.648 -1.19017 -1.03309 0
M  V30 8825 C 834.876 -1.01534 -1.80273 0
M  V30 8826 C 835.291 0.43605 -1.83696 0
M  V30 8827 O 834.648 1.30288 -1.27794 0
M  V30 8828 C 834.699 -1.5722 -3.25522 0
M  V30 8829 O 834.42 -2.96677 -3.22358 0
M  V30 8830 C 835.921 -1.4446 -4.19102 0
M  V30 8831 H 833.141 -0.358094 -0.567459 0
M  V30 8832 H 835.685 -1.57738 -1.3015 0
M  V30 8833 H 833.84 -1.05174 -3.7285 0
M  V30 8834 H 834.254 -3.22795 -4.13405 0
M  V30 8835 H 835.728 -1.88209 -5.18923 0
M  V30 8836 H 836.205 -0.394471 -4.37425 0
M  V30 8837 H 836.811 -1.95616 -3.77643 0
M  V30 8838 N 835.127 1.22348 -0.993418 0
M  V30 8839 C 836.375 1.90733 -0.668246 0
M  V30 8840 C 836.696 1.77732 0.802261 0
M  V30 8841 O 835.966 1.16486 1.57505 0
M  V30 8842 H 834.546 0.705966 -0.244174 0
M  V30 8843 H 837.208 1.48691 -1.26004 0
M  V30 8844 H 836.304 2.97883 -0.931239 0
M  V30 8845 N 836.605 0.766683 1.37694 0
M  V30 8846 C 838.021 0.445739 1.53249 0
M  V30 8847 C 838.221 -1.03935 1.72626 0
M  V30 8848 O 837.277 -1.82525 1.74473 0
M  V30 8849 C 838.59 1.2564 2.73194 0
M  V30 8850 C 840.138 1.24779 2.87053 0
M  V30 8851 C 840.613 2.04169 4.09974 0
M  V30 8852 N 842.104 2.01497 4.17077 0
M  V30 8853 C 842.839 2.5971 5.11212 0
M  V30 8854 N 842.335 3.26691 6.10938 0
M  V30 8855 N 844.128 2.49568 5.03659 0
M  V30 8856 H 836.279 1.72899 1.23368 0
M  V30 8857 H 838.542 0.733701 0.600322 0
M  V30 8858 H 838.248 2.30859 2.65324 0
M  V30 8859 H 838.122 0.882133 3.6674 0
M  V30 8860 H 840.509 0.203603 2.94397 0
M  V30 8861 H 840.59 1.66166 1.9448 0
M  V30 8862 H 840.234 3.08606 4.03392 0
M  V30 8863 H 840.164 1.60167 5.01651 0
M  V30 8864 H 842.655 1.52728 3.45662 0
M  V30 8865 H 842.968 3.68497 6.79286 0
M  V30 8866 H 841.313 3.30789 6.11231 0
M  V30 8867 H 844.504 1.96859 4.24693 0
M  V30 8868 H 844.677 2.95231 5.76839 0
M  V30 8869 N 838.083 -1.48885 0.516809 0
M  V30 8870 C 839.332 -2.01686 -0.0239899 0
M  V30 8871 C 839.645 -1.40029 -1.3657 0
M  V30 8872 O 840.851 -1.84249 -1.9941 0
M  V30 8873 C 839.307 -3.59779 -0.0931825 0
M  V30 8874 C 838.915 -4.30416 1.24283 0
M  V30 8875 C 840.659 -4.20471 -0.583507 0
M  V30 8876 C 838.566 -5.80408 1.13494 0
M  V30 8877 H 837.496 -0.753892 -0.0127376 0
M  V30 8878 H 840.147 -1.71273 0.65861 0
M  V30 8879 H 838.529 -3.86976 -0.840577 0
M  V30 8880 H 839.703 -4.14905 2.00476 0
M  V30 8881 H 838.018 -3.81539 1.66785 0
M  V30 8882 H 840.615 -5.30333 -0.681987 0
M  V30 8883 H 840.958 -3.84898 -1.58617 0
M  V30 8884 H 841.491 -3.97654 0.107814 0
M  V30 8885 H 838.23 -6.20532 2.11235 0
M  V30 8886 H 837.75 -5.98368 0.414167 0
M  V30 8887 H 839.429 -6.41781 0.820162 0
M  V30 8888 N 839.561 -0.251338 -1.55583 0
M  V30 8889 C 840.838 0.422729 -1.90977 0
M  V30 8890 C 841.218 1.75534 -1.17265 0
M  V30 8891 O 840.566 2.26632 -0.291588 0
M  V30 8892 C 840.776 0.586448 -3.44037 0
M  V30 8893 C 842.124 0.880294 -4.15375 0
M  V30 8894 O 843.148 0.672148 -3.49801 0
M  V30 8895 O 842.007 1.27694 -5.31372 0
M  V30 8896 H 839.101 0.227622 -0.795058 0
M  V30 8897 H 841.647 -0.295733 -1.67103 0
M  V30 8898 H 840.419 -0.352327 -3.89711 0
M  V30 8899 H 840.042 1.35528 -3.73789 0
M  V30 8900 N 841.039 1.57585 0.0217189 0
M  V30 8901 C 842.316 1.80779 0.74687 0
M  V30 8902 C 842.696 0.851163 1.9318 0
M  V30 8903 O 842.044 -0.105039 2.28258 0
M  V30 8904 C 842.254 3.28696 1.17302 0
M  V30 8905 C 843.602 3.93871 1.58589 0
M  V30 8906 O 844.626 3.3289 1.2674 0
M  V30 8907 O 843.485 5.01254 2.1773 0
M  V30 8908 H 840.579 0.743666 0.361786 0
M  V30 8909 H 843.125 1.697 -0.00206785 0
M  V30 8910 H 841.897 3.89927 0.327453 0
M  V30 8911 H 841.52 3.44692 1.98174 0
M  V30 8912 N 842.517 -0.29412 1.54831 0
M  V30 8913 C 843.45 -1.38779 1.81151 0
M  V30 8914 C 844.428 -1.48464 0.663124 0
M  V30 8915 O 845.612 -1.65418 0.903835 0
M  V30 8916 C 842.739 -2.76627 1.95436 0
M  V30 8917 C 841.785 -2.84333 3.17895 0
M  V30 8918 S 842.618 -2.45726 4.75793 0
M  V30 8919 C 843.774 -3.85589 4.93023 0
M  V30 8920 H 844.007 -1.16246 2.73631 0
M  V30 8921 H 841.54 -0.492611 1.46331 0
M  V30 8922 H 843.498 -3.56021 2.04351 0
M  V30 8923 H 842.159 -2.96425 1.03881 0
M  V30 8924 H 841.352 -3.85457 3.24713 0
M  V30 8925 H 840.954 -2.1294 3.07461 0
M  V30 8926 H 843.246 -4.80656 4.77468 0
M  V30 8927 H 844.189 -3.83737 5.95107 0
M  V30 8928 H 844.597 -3.75911 4.21131 0
M  V30 8929 N 843.995 -1.47404 -0.557645 0
M  V30 8930 C 844.925 -1.62736 -1.67449 0
M  V30 8931 C 845.906 -0.476824 -1.6328 0
M  V30 8932 O 847.091 -0.706108 -1.80908 0
M  V30 8933 C 844.221 -1.641 -3.06086 0
M  V30 8934 C 843.175 -2.78377 -3.25101 0
M  V30 8935 C 842.501 -2.64812 -4.6452 0
M  V30 8936 C 843.801 -4.19971 -3.10518 0
M  V30 8937 H 845.495 -2.56232 -1.54873 0
M  V30 8938 H 843.041 -1.23312 -0.743649 0
M  V30 8939 H 844.994 -1.73417 -3.84063 0
M  V30 8940 H 843.718 -0.671652 -3.19619 0
M  V30 8941 H 842.377 -2.6857 -2.49531 0
M  V30 8942 H 842.025 -1.65906 -4.74852 0
M  V30 8943 H 841.725 -3.41477 -4.78191 0
M  V30 8944 H 843.249 -2.76057 -5.44633 0
M  V30 8945 H 844.663 -4.30757 -3.78313 0
M  V30 8946 H 843.06 -4.97419 -3.35699 0
M  V30 8947 H 844.13 -4.38369 -2.0727 0
M  V30 8948 N 845.473 0.80434 -1.35529 0
M  V30 8949 C 846.421 1.93769 -1.28671 0
M  V30 8950 C 847.415 1.68428 -0.181222 0
M  V30 8951 O 848.621 1.76617 -0.347338 0
M  V30 8952 H 844.996 0.636663 -0.400206 0
M  V30 8953 H 846.967 1.96673 -2.24415 0
M  V30 8954 C 845.716 3.30572 -1.07784 0
M  V30 8955 H 845.039 3.5063 -1.9209 0
M  V30 8956 H 846.479 4.1027 -1.07027 0
M  V30 8957 C 844.938 3.36193 0.218213 0
M  V30 8958 O 845.468 3.82941 1.21323 0
M  V30 8959 N 843.674 2.89455 0.257761 0
M  V30 8960 H 843.221 2.51604 -0.552562 0
M  V30 8961 H 843.179 2.93597 1.12465 0
M  V30 8962 N 846.951 1.19563 1.02676 0
M  V30 8963 C 848.197 1.00105 1.76371 0
M  V30 8964 C 848.53 -0.466823 1.88506 0
M  V30 8965 O 847.805 -1.34665 1.40341 0
M  V30 8966 C 848.088 1.67321 3.18866 0
M  V30 8967 C 847.941 3.21486 3.1459 0
M  V30 8968 C 849.26 1.39794 4.17308 0
M  V30 8969 H 846.379 0.365075 0.640226 0
M  V30 8970 H 849.021 1.47433 1.19848 0
M  V30 8971 H 847.171 1.27081 3.67128 0
M  V30 8972 H 848.843 3.70953 2.7421 0
M  V30 8973 H 847.086 3.5292 2.52249 0
M  V30 8974 H 847.757 3.63665 4.15273 0
M  V30 8975 H 850.233 1.74685 3.77657 0
M  V30 8976 H 849.109 1.89371 5.15199 0
M  V30 8977 H 849.37 0.323505 4.40915 0
M  V30 8978 N 848.429 -1.21819 0.999893 0
M  V30 8979 C 849.654 -1.95298 0.698094 0
M  V30 8980 C 850.079 -1.73273 -0.731982 0
M  V30 8981 O 849.437 -1.01634 -1.50134 0
M  V30 8982 C 849.485 -3.45922 1.01834 0
M  V30 8983 O 848.589 -4.12223 0.120801 0
M  V30 8984 H 847.93 -0.610729 0.260588 0
M  V30 8985 H 850.46 -1.5472 1.33876 0
M  V30 8986 H 850.47 -3.96471 0.963074 0
M  V30 8987 H 849.145 -3.61278 2.06037 0
M  V30 8988 H 847.722 -3.72177 0.232153 0
M  V30 8989 N 849.908 -0.773975 -1.37286 0
M  V30 8990 C 851.156 -0.338636 -1.99243 0
M  V30 8991 C 851.477 1.08919 -1.61746 0
M  V30 8992 O 850.747 1.74822 -0.88397 0
M  V30 8993 H 849.327 -0.12222 -0.736934 0
M  V30 8994 H 851.989 -0.992595 -1.67731 0
M  V30 8995 H 851.085 -0.418055 -3.09287 0
M  V30 8996 N 851.386 1.48609 -0.524698 0
M  V30 8997 C 852.336 2.26505 0.260696 0
M  V30 8998 C 853.32 1.32378 0.914597 0
M  V30 8999 O 854.512 1.5695 0.818277 0
M  V30 9000 C 851.641 3.17313 1.31024 0
M  V30 9001 C 850.727 4.18911 0.661391 0
M  V30 9002 N 851.118 5.05183 -0.24981 0
M  V30 9003 C 849.416 4.36425 0.91922 0
M  V30 9004 C 850.117 5.78348 -0.623598 0
M  V30 9005 N 849.093 5.43598 0.0140839 0
M  V30 9006 H 852.895 2.90582 -0.440388 0
M  V30 9007 H 850.409 1.5875 -0.342364 0
M  V30 9008 H 852.406 3.71772 1.88656 0
M  V30 9009 H 851.066 2.54791 2.01275 0
M  V30 9010 H 852.077 5.1415 -0.622093 0
M  V30 9011 H 848.754 3.85095 1.6127 0
M  V30 9012 H 850.144 6.57775 -1.37046 0
M  V30 9013 N 852.864 0.259585 1.55447 0
M  V30 9014 C 853.794 -0.62852 2.24882 0
M  V30 9015 C 854.775 -1.17128 1.23349 0
M  V30 9016 O 855.96 -1.20829 1.52033 0
M  V30 9017 C 853.09 -1.81983 2.95803 0
M  V30 9018 C 852.044 -1.40929 4.04132 0
M  V30 9019 C 851.37 -2.68246 4.62545 0
M  V30 9020 C 852.67 -0.570956 5.1917 0
M  V30 9021 H 854.364 -0.0495021 2.99359 0
M  V30 9022 H 851.91 -0.0223688 1.43983 0
M  V30 9023 H 853.863 -2.44689 3.43082 0
M  V30 9024 H 852.587 -2.42444 2.18835 0
M  V30 9025 H 851.246 -0.805519 3.57641 0
M  V30 9026 H 850.894 -3.26931 3.82263 0
M  V30 9027 H 850.594 -2.41495 5.35681 0
M  V30 9028 H 852.118 -3.31827 5.12565 0
M  V30 9029 H 853.532 -1.10262 5.62597 0
M  V30 9030 H 851.929 -0.398979 5.98772 0
M  V30 9031 H 852.999 0.413918 4.8313 0
M  V30 9032 N 854.342 -1.57594 -0.0133615 0
M  V30 9033 C 855.272 -2.10611 -1.00823 0
M  V30 9034 C 856.253 -1.01217 -1.36708 0
M  V30 9035 O 857.438 -1.28827 -1.45318 0
M  V30 9036 C 854.568 -2.59844 -2.30431 0
M  V30 9037 C 853.522 -3.73644 -2.08745 0
M  V30 9038 C 852.848 -4.09141 -3.4425 0
M  V30 9039 C 854.148 -5.01454 -1.46086 0
M  V30 9040 H 855.842 -2.93985 -0.566849 0
M  V30 9041 H 853.388 -1.41423 -0.271219 0
M  V30 9042 H 855.341 -2.95557 -3.00373 0
M  V30 9043 H 854.065 -1.73573 -2.76658 0
M  V30 9044 H 852.724 -3.38303 -1.41232 0
M  V30 9045 H 852.372 -3.19914 -3.88155 0
M  V30 9046 H 852.072 -4.85802 -3.3056 0
M  V30 9047 H 853.596 -4.47402 -4.15528 0
M  V30 9048 H 855.01 -5.35024 -2.05966 0
M  V30 9049 H 853.407 -5.82832 -1.42924 0
M  V30 9050 H 854.477 -4.83003 -0.428471 0
M  V30 9051 N 855.82 0.285905 -1.54985 0
M  V30 9052 C 857.045 1.04207 -1.7932 0
M  V30 9053 C 857.47 1.79622 -0.558343 0
M  V30 9054 O 856.828 1.74506 0.491661 0
M  V30 9055 C 856.876 1.98648 -3.0095 0
M  V30 9056 O 855.98 3.07207 -2.75132 0
M  V30 9057 H 855.321 0.298596 -0.593074 0
M  V30 9058 H 857.851 0.318736 -2.02102 0
M  V30 9059 H 857.861 2.4084 -3.29333 0
M  V30 9060 H 856.536 1.43167 -3.90482 0
M  V30 9061 H 855.113 2.69423 -2.57809 0
M  V30 9062 N 857.298 1.47698 0.54982 0
M  V30 9063 C 858.526 1.5833 1.33188 0
M  V30 9064 C 858.941 0.236193 1.87317 0
M  V30 9065 O 858.298 -0.77167 1.65383 0
M  V30 9066 C 858.349 2.61438 2.49664 0
M  V30 9067 O 858.07 3.9092 1.97771 0
M  V30 9068 C 859.571 2.82324 3.41772 0
M  V30 9069 H 856.791 0.53443 0.405741 0
M  V30 9070 H 859.335 1.93375 0.665309 0
M  V30 9071 H 857.49 2.29307 3.12245 0
M  V30 9072 H 857.904 4.47323 2.73866 0
M  V30 9073 H 859.378 3.58316 4.19897 0
M  V30 9074 H 859.855 1.90416 3.95776 0
M  V30 9075 H 860.461 3.15682 2.85 0
M  V30 9076 N 858.776 -0.797141 1.35954 0
M  V30 9077 C 859.739 -1.89104 1.29508 0
M  V30 9078 C 860.739 -1.59495 0.204444 0
M  V30 9079 O 861.929 -1.68051 0.458746 0
M  V30 9080 C 859.061 -3.25726 1.00576 0
M  V30 9081 H 860.254 -1.96237 2.26785 0
M  V30 9082 H 857.807 -0.994075 1.20614 0
M  V30 9083 H 858.542 -3.24279 0.0372519 0
M  V30 9084 H 858.327 -3.48604 1.79492 0
M  V30 9085 H 859.817 -4.0578 0.986508 0
M  V30 9086 N 860.254 -1.20106 -1.0204 0
M  V30 9087 C 861.164 -0.962051 -2.13967 0
M  V30 9088 C 862.18 0.0808053 -1.73812 0
M  V30 9089 O 863.356 -0.105774 -2.01122 0
M  V30 9090 C 860.421 -0.513108 -3.42882 0
M  V30 9091 C 859.482 -1.62636 -3.97301 0
M  V30 9092 C 858.715 -1.19875 -5.20063 0
M  V30 9093 O 858.938 -0.0658423 -5.70362 0
M  V30 9094 O 857.872 -2.00467 -5.67536 0
M  V30 9095 H 861.698 -1.8991 -2.36998 0
M  V30 9096 H 859.283 -0.984608 -1.12365 0
M  V30 9097 H 861.165 -0.271797 -4.20523 0
M  V30 9098 H 859.84 0.395402 -3.21276 0
M  V30 9099 H 858.747 -1.92192 -3.20957 0
M  V30 9100 H 860.08 -2.51174 -4.23288 0
M  V30 9101 N 861.732 1.21287 -1.00634 0
M  V30 9102 C 862.978 1.90671 -0.690822 0
M  V30 9103 C 863.311 1.77996 0.776592 0
M  V30 9104 O 862.586 1.15748 1.5631 0
M  V30 9105 C 862.869 3.42426 -1.11428 0
M  V30 9106 C 862.722 3.64086 -2.64124 0
M  V30 9107 C 864.041 4.34851 -0.677686 0
M  V30 9108 H 861.16 0.692419 -0.252439 0
M  V30 9109 H 863.802 1.42893 -1.25226 0
M  V30 9110 H 861.952 3.83249 -0.636586 0
M  V30 9111 H 863.624 3.32582 -3.19667 0
M  V30 9112 H 861.867 3.07906 -3.05576 0
M  V30 9113 H 862.538 4.7042 -2.88806 0
M  V30 9114 H 865.014 4.01619 -1.0882 0
M  V30 9115 H 863.89 5.39675 -1.00213 0
M  V30 9116 H 864.151 4.4009 0.421125 0
M  V30 9117 N 863.21 0.781244 1.36873 0
M  V30 9118 C 864.12 0.174981 2.33947 0
M  V30 9119 C 865.136 -0.668512 1.60645 0
M  V30 9120 O 866.312 -0.586213 1.9268 0
M  V30 9121 C 863.377 -0.686557 3.39834 0
M  V30 9122 C 862.438 0.174489 4.28945 0
M  V30 9123 C 861.671 -0.646024 5.29776 0
M  V30 9124 O 861.894 -1.88254 5.38439 0
M  V30 9125 O 860.828 -0.0502214 6.01879 0
M  V30 9126 H 864.654 0.977382 2.87543 0
M  V30 9127 H 862.239 0.542559 1.392 0
M  V30 9128 H 864.121 -1.1781 4.04597 0
M  V30 9129 H 862.796 -1.46699 2.8855 0
M  V30 9130 H 861.703 0.712604 3.6725 0
M  V30 9131 H 863.036 0.918232 4.83559 0
M  V30 9132 N 864.689 -1.48329 0.532571 0
M  V30 9133 C 865.914 -2.074 0.00147755 0
M  V30 9134 C 866.339 -1.38615 -1.27151 0
M  V30 9135 O 865.697 -0.452949 -1.75551 0
M  V30 9136 C 865.745 -3.60029 -0.202866 0
M  V30 9137 O 864.849 -3.92327 -1.27097 0
M  V30 9138 H 864.19 -0.662777 0.0402883 0
M  V30 9139 H 866.72 -1.90701 0.741224 0
M  V30 9140 H 866.73 -4.05783 -0.424722 0
M  V30 9141 H 865.405 -4.09496 0.727033 0
M  V30 9142 H 863.982 -3.58348 -1.03156 0
M  V30 9143 N 866.167 -0.267825 -1.55308 0
M  V30 9144 C 867.13 0.60965 -2.20943 0
M  V30 9145 C 868.13 1.0869 -1.18504 0
M  V30 9146 O 869.32 0.988248 -1.43455 0
M  V30 9147 C 866.452 1.84027 -2.86961 0
M  V30 9148 H 867.645 0.0366806 -2.99878 0
M  V30 9149 H 865.198 -0.0183941 -1.56289 0
M  V30 9150 H 865.933 2.45394 -2.1202 0
M  V30 9151 H 865.718 1.50605 -3.62023 0
M  V30 9152 H 867.208 2.46442 -3.37129 0
M  V30 9153 N 867.645 1.57599 0.00500368 0
M  V30 9154 C 868.575 2.11143 0.99705 0
M  V30 9155 C 869.556 1.0194 1.3617 0
M  V30 9156 O 870.741 1.29596 1.44632 0
M  V30 9157 C 867.871 2.61062 2.2905 0
M  V30 9158 C 866.825 3.74745 2.0676 0
M  V30 9159 C 866.151 4.10961 3.42075 0
M  V30 9160 C 867.451 5.02222 1.43424 0
M  V30 9161 H 869.145 2.94281 0.551251 0
M  V30 9162 H 866.691 1.41565 0.263715 0
M  V30 9163 H 868.644 2.97146 2.98801 0
M  V30 9164 H 867.368 1.75038 2.75734 0
M  V30 9165 H 866.027 3.39047 1.39436 0
M  V30 9166 H 865.675 3.21968 3.86453 0
M  V30 9167 H 865.375 4.87549 3.27979 0
M  V30 9168 H 866.899 4.49599 4.1315 0
M  V30 9169 H 868.313 5.36109 2.03125 0
M  V30 9170 H 866.71 5.83581 1.39831 0
M  V30 9171 H 867.78 4.83224 0.40285 0
M  V30 9172 N 869.123 -0.277682 1.55134 0
M  V30 9173 C 870.369 -1.0114 1.7578 0
M  V30 9174 C 870.702 -1.86109 0.554719 0
M  V30 9175 O 869.977 -1.89275 -0.447813 0
M  V30 9176 C 870.26 -1.89789 3.06027 0
M  V30 9177 C 870.113 -1.07844 4.3668 0
M  V30 9178 C 871.432 -2.88577 3.32282 0
M  V30 9179 H 868.551 -0.366277 0.639539 0
M  V30 9180 H 871.193 -0.284155 1.87863 0
M  V30 9181 H 869.343 -2.51796 2.95856 0
M  V30 9182 H 871.015 -0.479432 4.58802 0
M  V30 9183 H 869.258 -0.381764 4.32117 0
M  V30 9184 H 869.929 -1.73179 5.24131 0
M  V30 9185 H 872.405 -2.36702 3.42215 0
M  V30 9186 H 871.281 -3.47749 4.2469 0
M  V30 9187 H 871.542 -3.63458 2.51696 0
M  V30 9188 N 870.601 -1.47988 -0.541979 0
M  V30 9189 C 871.511 -1.64276 -1.67483 0
M  V30 9190 C 872.527 -0.525387 -1.65879 0
M  V30 9191 O 873.703 -0.794912 -1.85049 0
M  V30 9192 C 870.768 -1.66744 -3.03969 0
M  V30 9193 C 869.829 -2.90021 -3.16522 0
M  V30 9194 C 869.062 -2.92362 -4.46498 0
M  V30 9195 O 869.285 -2.03462 -5.32878 0
M  V30 9196 O 868.219 -3.84399 -4.63164 0
M  V30 9197 H 872.045 -2.60164 -1.5668 0
M  V30 9198 H 869.63 -1.31249 -0.71372 0
M  V30 9199 H 871.512 -1.70958 -3.85164 0
M  V30 9200 H 870.187 -0.740277 -3.15122 0
M  V30 9201 H 869.094 -2.91345 -2.34667 0
M  V30 9202 H 870.427 -3.82082 -3.10281 0
M  V30 9203 N 872.079 0.78992 -1.36375 0
M  V30 9204 C 873.029 1.89227 -1.27189 0
M  V30 9205 C 874.013 1.60067 -0.163498 0
M  V30 9206 O 875.205 1.72507 -0.396262 0
M  V30 9207 C 872.334 3.26431 -1.06292 0
M  V30 9208 C 871.42 3.61602 -2.21596 0
M  V30 9209 N 871.811 3.68086 -3.4691 0
M  V30 9210 C 870.109 3.9166 -2.1335 0
M  V30 9211 C 870.81 3.99481 -4.22835 0
M  V30 9212 N 869.786 4.14438 -3.5177 0
M  V30 9213 H 873.588 1.92465 -2.22113 0
M  V30 9214 H 871.102 0.985414 -1.29087 0
M  V30 9215 H 873.099 4.05267 -0.97798 0
M  V30 9216 H 871.759 3.24468 -0.122676 0
M  V30 9217 H 872.77 3.50743 -3.81051 0
M  V30 9218 H 869.447 3.97626 -1.27279 0
M  V30 9219 H 870.837 4.11425 -5.31205 0
M  V30 9220 N 873.557 1.20646 1.01402 0
M  V30 9221 C 874.467 0.973385 2.13453 0
M  V30 9222 C 875.483 -0.0715865 1.73853 0
M  V30 9223 O 876.659 0.116438 2.01063 0
M  V30 9224 C 873.724 0.531285 3.42605 0
M  V30 9225 C 872.785 1.64741 3.96433 0
M  V30 9226 C 872.018 1.22631 5.1942 0
M  V30 9227 O 872.241 0.0960891 5.70319 0
M  V30 9228 O 871.175 2.03474 5.66465 0
M  V30 9229 H 875.001 1.91164 2.35987 0
M  V30 9230 H 872.586 0.990553 1.11841 0
M  V30 9231 H 874.468 0.294095 4.20373 0
M  V30 9232 H 873.143 -0.378358 3.21481 0
M  V30 9233 H 872.05 1.93891 3.19933 0
M  V30 9234 H 873.383 2.53415 4.2195 0
M  V30 9235 N 875.035 -1.20752 1.01276 0
M  V30 9236 C 875.998 -2.2162 0.584583 0
M  V30 9237 C 876.998 -1.57094 -0.343215 0
M  V30 9238 O 878.188 -1.73696 -0.132433 0
M  V30 9239 C 875.32 -3.40583 -0.146872 0
M  V30 9240 H 876.513 -2.61015 1.47686 0
M  V30 9241 H 874.066 -1.34148 0.802123 0
M  V30 9242 H 874.801 -3.06686 -1.05424 0
M  V30 9243 H 874.586 -3.88642 0.51958 0
M  V30 9244 H 876.076 -4.15339 -0.433924 0
M  V30 9245 N 876.513 -0.788492 -1.36457 0
M  V30 9246 C 877.759 -0.360995 -1.99561 0
M  V30 9247 C 878.092 1.06433 -1.62437 0
M  V30 9248 O 877.367 1.7352 -0.878705 0
M  V30 9249 C 877.65 -0.523735 -3.56271 0
M  V30 9250 C 877.503 -1.99268 -4.03252 0
M  V30 9251 C 878.822 0.0617908 -4.40057 0
M  V30 9252 H 875.941 -0.13264 -0.724966 0
M  V30 9253 H 878.583 -0.994659 -1.61884 0
M  V30 9254 H 876.733 0.0156979 -3.88497 0
M  V30 9255 H 878.405 -2.59311 -3.81518 0
M  V30 9256 H 876.648 -2.49561 -3.54826 0
M  V30 9257 H 877.319 -2.05752 -5.12221 0
M  V30 9258 H 879.795 -0.398674 -4.14186 0
M  V30 9259 H 878.671 -0.0821089 -5.48839 0
M  V30 9260 H 878.932 1.15381 -4.26778 0
M  V30 9261 N 877.991 1.48044 -0.54043 0
M  V30 9262 C 878.954 2.28273 0.205966 0
M  V30 9263 C 879.954 1.35983 0.858209 0
M  V30 9264 O 881.144 1.58776 0.716651 0
M  V30 9265 C 878.276 3.15174 1.29917 0
M  V30 9266 H 879.469 2.95727 -0.498555 0
M  V30 9267 H 877.022 1.53457 -0.296745 0
M  V30 9268 H 877.757 2.52374 2.03661 0
M  V30 9269 H 877.542 3.83074 0.836475 0
M  V30 9270 H 879.032 3.75666 1.82387 0
M  V30 9271 N 879.47 0.276058 1.55163 0
M  V30 9272 C 880.38 -0.621066 2.2623 0
M  V30 9273 C 881.396 -1.16931 1.28853 0
M  V30 9274 O 882.572 -1.1994 1.61791 0
M  V30 9275 C 879.637 -1.78824 2.97023 0
M  V30 9276 C 878.698 -1.27657 4.09881 0
M  V30 9277 C 877.931 -2.38812 4.77289 0
M  V30 9278 O 878.154 -3.58188 4.43912 0
M  V30 9279 O 877.088 -2.06915 5.65217 0
M  V30 9280 H 880.914 -0.0453346 3.03666 0
M  V30 9281 H 878.499 0.0434275 1.49337 0
M  V30 9282 H 880.381 -2.46877 3.41511 0
M  V30 9283 H 879.056 -2.35104 2.22503 0
M  V30 9284 H 877.963 -0.56248 3.69847 0
M  V30 9285 H 879.296 -0.759509 4.86305 0
M  V30 9286 N 880.948 -1.576 0.00335426 0
M  V30 9287 C 881.911 -2.07576 -0.971838 0
M  V30 9288 C 882.911 -0.985796 -1.27038 0
M  V30 9289 O 884.101 -1.24833 -1.21501 0
M  V30 9290 C 881.233 -2.52003 -2.29581 0
M  V30 9291 H 882.426 -2.95008 -0.539481 0
M  V30 9292 H 879.979 -1.54381 -0.244186 0
M  V30 9293 H 880.714 -1.67825 -2.77498 0
M  V30 9294 H 880.499 -3.31609 -2.09231 0
M  V30 9295 H 881.989 -2.90983 -2.99531 0
M  V30 9296 N 882.426 0.269451 -1.5528 0
M  V30 9297 C 883.389 1.31642 -1.87625 0
M  V30 9298 C 884.389 1.42182 -0.751058 0
M  V30 9299 O 885.579 1.41272 -1.01921 0
M  V30 9300 C 882.711 2.6973 -2.08467 0
M  V30 9301 H 883.904 1.0419 -2.81219 0
M  V30 9302 H 881.457 0.507685 -1.47825 0
M  V30 9303 H 882.192 3.02356 -1.17266 0
M  V30 9304 H 881.977 2.63465 -2.90394 0
M  V30 9305 H 883.467 3.4537 -2.34753 0
M  V30 9306 N 883.904 1.48273 0.534124 0
M  V30 9307 C 885.15 1.56311 1.29208 0
M  V30 9308 C 885.483 0.234481 1.92779 0
M  V30 9309 O 884.758 -0.759143 1.79073 0
M  V30 9310 C 885.041 2.69831 2.3846 0
M  V30 9311 C 884.894 4.12385 1.79608 0
M  V30 9312 C 886.213 2.79133 3.40254 0
M  V30 9313 H 883.332 0.56899 0.468422 0
M  V30 9314 H 885.974 1.80429 0.595438 0
M  V30 9315 H 884.124 2.49397 2.97881 0
M  V30 9316 H 885.796 4.44246 1.24269 0
M  V30 9317 H 884.039 4.19579 1.10162 0
M  V30 9318 H 884.71 4.87629 2.58693 0
M  V30 9319 H 887.186 2.97632 2.90783 0
M  V30 9320 H 886.062 3.60298 4.14097 0
M  V30 9321 H 886.323 1.87122 4.00547 0
M  V30 9322 N 885.382 -0.782676 1.36792 0
M  V30 9323 C 886.628 -1.54311 1.3159 0
M  V30 9324 C 886.961 -1.93928 -0.102696 0
M  V30 9325 O 886.236 -1.63233 -1.05761 0
M  V30 9326 C 886.519 -2.81561 2.24489 0
M  V30 9327 C 886.372 -2.48268 3.75078 0
M  V30 9328 C 887.691 -3.83428 2.16034 0
M  V30 9329 H 884.81 -0.559828 0.479335 0
M  V30 9330 H 887.452 -0.898717 1.67401 0
M  V30 9331 H 885.602 -3.36549 1.9408 0
M  V30 9332 H 887.274 -1.99279 4.16036 0
M  V30 9333 H 885.517 -1.81116 3.94182 0
M  V30 9334 H 886.188 -3.39183 4.35499 0
M  V30 9335 H 888.664 -3.37905 2.42815 0
M  V30 9336 H 887.54 -4.70204 2.83194 0
M  V30 9337 H 887.801 -4.26887 1.14976 0
M  V30 9338 N 886.86 -1.21182 -1.00761 0
M  V30 9339 C 888.108 -1.02543 -1.74153 0
M  V30 9340 C 888.429 0.442372 -1.89916 0
M  V30 9341 O 887.699 1.31927 -1.44818 0
M  V30 9342 H 886.279 -0.37644 -0.645214 0
M  V30 9343 H 888.941 -1.52446 -1.21434 0
M  V30 9344 H 888.037 -1.49122 -2.7417 0
M  V30 9345 N 888.338 1.20213 -1.01915 0
M  V30 9346 C 889.288 2.20957 -0.562327 0
M  V30 9347 C 890.272 1.56258 0.383704 0
M  V30 9348 O 891.464 1.75794 0.206255 0
M  V30 9349 C 888.593 3.43167 0.0954035 0
M  V30 9350 C 887.679 4.15028 -0.872487 0
M  V30 9351 N 888.07 4.63231 -2.03103 0
M  V30 9352 C 886.368 4.4057 -0.69385 0
M  V30 9353 C 887.069 5.18307 -2.64069 0
M  V30 9354 N 886.045 5.08522 -1.9211 0
M  V30 9355 H 889.847 2.55894 -1.44553 0
M  V30 9356 H 887.361 1.36178 -0.884831 0
M  V30 9357 H 889.358 4.14569 0.440232 0
M  V30 9358 H 888.018 3.09734 0.974413 0
M  V30 9359 H 889.029 4.58365 -2.41086 0
M  V30 9360 H 885.706 4.17276 0.136889 0
M  V30 9361 H 887.096 5.65961 -3.6213 0
M  V30 9362 N 889.816 0.795718 1.36037 0
M  V30 9363 C 891.227 0.433379 1.816 0
M  V30 9364 C 891.578 -1.04341 1.66155 0
M  V30 9365 O 890.703 -1.81004 1.18603 0
M  V30 9366 C 891.298 0.77985 3.29703 0
M  V30 9367 C 889.857 0.470256 3.73451 0
M  V30 9368 C 889.004 1.01119 2.58206 0
M  V30 9369 H 891.955 0.988317 1.24169 0
M  V30 9370 H 891.976 0.0732898 3.80429 0
M  V30 9371 H 891.488 1.85473 3.40913 0
M  V30 9372 H 889.589 -0.596332 3.67797 0
M  V30 9373 H 889.702 0.995276 4.68648 0
M  V30 9374 H 888.066 0.434077 2.50974 0
M  V30 9375 H 888.849 2.09196 2.72198 0
M  V30 9376 N 891.294 -1.47756 0.548274 0
M  V30 9377 C 892.244 -2.26891 -0.224628 0
M  V30 9378 C 893.228 -1.33816 -0.893421 0
M  V30 9379 O 894.42 -1.58232 -0.793204 0
M  V30 9380 C 891.549 -3.19358 -1.25959 0
M  V30 9381 C 890.635 -4.1991 -0.594662 0
M  V30 9382 N 891.026 -5.04721 0.330148 0
M  V30 9383 C 889.324 -4.37832 -0.849672 0
M  V30 9384 C 890.025 -5.77282 0.71553 0
M  V30 9385 N 889.001 -5.43552 0.0723997 0
M  V30 9386 H 892.803 -2.89844 0.486561 0
M  V30 9387 H 890.317 -1.58185 0.367577 0
M  V30 9388 H 892.314 -3.74726 -1.82718 0
M  V30 9389 H 890.974 -2.57961 -1.97196 0
M  V30 9390 H 891.985 -5.13095 0.703811 0
M  V30 9391 H 888.662 -3.87612 -1.55123 0
M  V30 9392 H 890.052 -6.55512 1.47493 0
M  V30 9393 N 892.772 -0.284283 -1.55015 0
M  V30 9394 C 894.183 0.211681 -1.85496 0
M  V30 9395 C 894.534 1.54735 -1.2063 0
M  V30 9396 O 893.659 2.10594 -0.497918 0
M  V30 9397 C 894.254 0.390864 -3.36538 0
M  V30 9398 C 892.813 0.831055 -3.67111 0
M  V30 9399 C 891.96 -0.0703581 -2.77211 0
M  V30 9400 H 894.911 -0.505803 -1.50424 0
M  V30 9401 H 894.932 1.22803 -3.60138 0
M  V30 9402 H 894.444 -0.581409 -3.8372 0
M  V30 9403 H 892.545 1.81447 -3.25434 0
M  V30 9404 H 892.658 0.662026 -4.74504 0
M  V30 9405 H 891.022 0.447528 -2.50737 0
M  V30 9406 H 891.805 -1.03868 -3.2721 0
M  V30 9407 N 894.251 1.57596 -0.0117121 0
M  V30 9408 C 895.497 1.91355 0.671661 0
M  V30 9409 C 895.83 0.886818 1.72769 0
M  V30 9410 O 895.105 -0.0928813 1.94278 0
M  V30 9411 C 895.388 3.35657 1.30409 0
M  V30 9412 C 895.241 4.49055 0.2588 0
M  V30 9413 C 896.56 3.79595 2.22701 0
M  V30 9414 H 893.679 0.695893 0.242698 0
M  V30 9415 H 896.321 1.89887 -0.0654071 0
M  V30 9416 H 894.471 3.37038 1.9323 0
M  V30 9417 H 896.143 4.59809 -0.370631 0
M  V30 9418 H 894.386 4.31785 -0.417672 0
M  V30 9419 H 895.057 5.4701 0.740578 0
M  V30 9420 H 897.533 3.7984 1.69885 0
M  V30 9421 H 896.409 4.81292 2.63912 0
M  V30 9422 H 896.67 3.14118 3.11098 0
M  V30 9423 N 895.729 -0.261212 1.5542 0
M  V30 9424 C 896.676 -1.32315 1.89107 0
M  V30 9425 C 897.646 -1.48517 0.743767 0
M  V30 9426 O 898.831 -1.62733 0.996123 0
M  V30 9427 C 895.971 -2.67626 2.17877 0
M  V30 9428 C 895.084 -2.59549 3.45338 0
M  V30 9429 C 894.219 -3.87118 3.63748 0
M  V30 9430 C 893.258 -3.736 4.8486 0
M  V30 9431 N 892.395 -4.93029 4.99867 0
M  V30 9432 H 897.235 -1.02886 2.79675 0
M  V30 9433 H 894.772 -0.496812 1.38456 0
M  V30 9434 H 896.73 -3.4637 2.32559 0
M  V30 9435 H 895.36 -2.95232 1.30529 0
M  V30 9436 H 894.412 -1.72452 3.39064 0
M  V30 9437 H 895.724 -2.45465 4.34222 0
M  V30 9438 H 894.878 -4.74305 3.78312 0
M  V30 9439 H 893.617 -4.04084 2.73071 0
M  V30 9440 H 892.622 -2.84797 4.70288 0
M  V30 9441 H 893.847 -3.58143 5.76984 0
M  V30 9442 H 891.793 -5.10383 4.12123 0
M  V30 9443 H 891.71 -4.81521 5.82815 0
M  V30 9444 H 892.978 -5.81754 5.18828 0
M  V30 9445 N 897.207 -1.48554 -0.526253 0
M  V30 9446 C 898.455 -1.56452 -1.27935 0
M  V30 9447 C 898.776 -0.24184 -1.93495 0
M  V30 9448 O 898.046 0.736917 -1.81511 0
M  V30 9449 H 896.626 -0.576379 -0.47518 0
M  V30 9450 H 899.288 -1.85039 -0.612083 0
M  V30 9451 H 898.384 -2.34751 -2.05666 0
M  V30 9452 N 898.685 0.775411 -1.37205 0
M  V30 9453 C 899.595 1.91967 -1.34855 0
M  V30 9454 C 900.611 1.72214 -0.248656 0
M  V30 9455 O 901.787 1.95512 -0.483421 0
M  V30 9456 C 898.852 3.27038 -1.15096 0
M  V30 9457 C 897.913 3.5947 -2.34691 0
M  V30 9458 C 897.146 4.88097 -2.15865 0
M  V30 9459 O 897.369 5.58871 -1.14102 0
M  V30 9460 O 896.303 5.19507 -3.03967 0
M  V30 9461 H 900.129 1.969 -2.31223 0
M  V30 9462 H 897.714 0.917647 -1.17897 0
M  V30 9463 H 899.596 4.07837 -1.0605 0
M  V30 9464 H 898.271 3.22965 -0.217999 0
M  V30 9465 H 897.178 2.7892 -2.49308 0
M  V30 9466 H 898.511 3.68282 -3.26541 0
M  V30 9467 N 900.163 1.21714 1.00117 0
M  V30 9468 C 901.403 1.04818 1.75478 0
M  V30 9469 C 901.767 -0.410653 1.87557 0
M  V30 9470 O 902.968 -0.700241 2.59519 0
M  V30 9471 C 901.239 1.73055 3.12709 0
M  V30 9472 S 902.798 1.71464 4.03913 0
M  V30 9473 H 899.616 0.375534 0.603734 0
M  V30 9474 H 902.218 1.54522 1.19763 0
M  V30 9475 H 900.922 2.78376 3.01554 0
M  V30 9476 H 900.453 1.23546 3.73497 0
M  V30 9477 H 902.468 0.75845 4.90369 0
M  V30 9478 N 901.641 -1.19671 1.02551 0
M  V30 9479 C 902.571 -2.25009 0.623965 0
M  V30 9480 C 903.552 -1.66129 -0.36538 0
M  V30 9481 O 904.737 -1.92599 -0.248842 0
M  V30 9482 C 901.867 -3.47287 -0.0294869 0
M  V30 9483 C 900.821 -4.18818 0.881781 0
M  V30 9484 C 900.147 -5.34618 0.0936189 0
M  V30 9485 C 901.447 -4.73986 2.19396 0
M  V30 9486 H 903.141 -2.58851 1.50454 0
M  V30 9487 H 900.687 -1.24425 0.724872 0
M  V30 9488 H 902.64 -4.20168 -0.322016 0
M  V30 9489 H 901.364 -3.12635 -0.944838 0
M  V30 9490 H 900.023 -3.47815 1.15845 0
M  V30 9491 H 899.671 -4.9621 -0.823661 0
M  V30 9492 H 899.371 -5.83409 0.700568 0
M  V30 9493 H 900.895 -6.10297 -0.192249 0
M  V30 9494 H 902.309 -5.38639 1.96319 0
M  V30 9495 H 900.706 -5.3325 2.75254 0
M  V30 9496 H 901.776 -3.92238 2.85092 0
M  V30 9497 N 903.119 -0.802921 -1.35613 0
M  V30 9498 C 904.349 -0.393359 -2.02821 0
M  V30 9499 C 904.757 0.999282 -1.60658 0
M  V30 9500 O 904.1 1.65463 -0.797977 0
M  V30 9501 C 904.162 -0.393102 -3.57344 0
M  V30 9502 C 903.826 -1.73563 -4.22759 0
M  V30 9503 C 904.823 -2.69333 -4.44698 0
M  V30 9504 C 902.508 -2.01863 -4.59953 0
M  V30 9505 C 904.502 -3.91589 -5.02928 0
M  V30 9506 C 902.189 -3.24383 -5.17898 0
M  V30 9507 C 903.187 -4.19064 -5.39328 0
M  V30 9508 O 902.875 -5.39422 -5.96053 0
M  V30 9509 H 902.607 -0.158431 -0.657172 0
M  V30 9510 H 905.161 -1.08682 -1.74291 0
M  V30 9511 H 903.391 0.356934 -3.85049 0
M  V30 9512 H 905.08 -0.00635596 -4.059 0
M  V30 9513 H 905.846 -2.48759 -4.16346 0
M  V30 9514 H 901.725 -1.28979 -4.42589 0
M  V30 9515 H 905.269 -4.65502 -5.1957 0
M  V30 9516 H 901.166 -3.44829 -5.45677 0
M  V30 9517 H 901.934 -5.40669 -6.14507 0
M  V30 9518 N 904.597 1.47463 -0.556102 0
M  V30 9519 C 905.837 2.04372 -0.0339743 0
M  V30 9520 C 906.201 1.42125 1.29091 0
M  V30 9521 O 907.402 1.90074 1.90066 0
M  V30 9522 C 905.673 3.57352 0.0585316 0
M  V30 9523 S 907.232 4.35625 0.526943 0
M  V30 9524 H 904.05 0.710574 -0.0246115 0
M  V30 9525 H 906.652 1.80848 -0.742585 0
M  V30 9526 H 905.356 4.00181 -0.910116 0
M  V30 9527 H 904.887 3.85371 0.790731 0
M  V30 9528 H 906.902 4.62911 1.78683 0
M  V30 9529 N 906.075 0.2925 1.54862 0
M  V30 9530 C 907.322 -0.319263 1.99967 0
M  V30 9531 C 907.65 -1.54547 1.18092 0
M  V30 9532 O 906.905 -1.94186 0.242969 0
M  V30 9533 C 907.204 -0.728674 3.49893 0
M  V30 9534 C 906.87 0.394836 4.49168 0
M  V30 9535 C 905.532 0.703289 4.76033 0
M  V30 9536 C 907.884 1.15103 5.08331 0
M  V30 9537 C 905.212 1.77121 5.59325 0
M  V30 9538 C 907.564 2.20881 5.92785 0
M  V30 9539 C 906.228 2.52342 6.17964 0
M  V30 9540 H 905.498 -0.116827 0.731733 0
M  V30 9541 H 908.145 0.40983 1.87063 0
M  V30 9542 H 906.45 -1.53772 3.60363 0
M  V30 9543 H 908.147 -1.21305 3.82212 0
M  V30 9544 H 904.737 0.144319 4.28357 0
M  V30 9545 H 908.921 0.92599 4.87585 0
M  V30 9546 H 904.177 2.01978 5.77074 0
M  V30 9547 H 908.351 2.79939 6.37657 0
M  V30 9548 H 905.978 3.35225 6.82296 0
M  V30 9549 N 907.553 -1.57587 0.0200696 0
M  V30 9550 C 908.799 -1.91708 -0.661503 0
M  V30 9551 C 909.132 -0.895968 -1.72296 0
M  V30 9552 O 908.407 0.082577 -1.94325 0
M  V30 9553 C 908.69 -3.36344 -1.28627 0
M  V30 9554 C 908.543 -4.49186 -0.234982 0
M  V30 9555 C 909.862 -3.80771 -2.20685 0
M  V30 9556 H 906.981 -0.69717 -0.239005 0
M  V30 9557 H 909.623 -1.8985 0.0754764 0
M  V30 9558 H 907.773 -3.38058 -1.91439 0
M  V30 9559 H 909.445 -4.59606 0.395011 0
M  V30 9560 H 907.688 -4.31557 0.440565 0
M  V30 9561 H 908.359 -5.47395 -0.711558 0
M  V30 9562 H 910.835 -3.80735 -1.67868 0
M  V30 9563 H 909.711 -4.82685 -2.61356 0
M  V30 9564 H 909.972 -3.15764 -3.09428 0
M  V30 9565 N 909.032 0.252966 -1.55557 0
M  V30 9566 C 910.26 0.999565 -1.81153 0
M  V30 9567 C 910.675 1.79181 -0.594955 0
M  V30 9568 O 910.032 1.77208 0.436311 0
M  V30 9569 C 910.083 1.94227 -3.04891 0
M  V30 9570 O 909.804 1.18209 -4.21851 0
M  V30 9571 C 911.305 2.80536 -3.43241 0
M  V30 9572 H 908.525 0.294402 -0.602966 0
M  V30 9573 H 911.069 0.277686 -2.02606 0
M  V30 9574 H 909.224 2.6185 -2.85505 0
M  V30 9575 H 909.638 1.81922 -4.9194 0
M  V30 9576 H 911.112 3.42442 -4.32941 0
M  V30 9577 H 911.589 3.51337 -2.6355 0
M  V30 9578 H 912.195 2.18373 -3.64956 0
M  V30 9579 N 910.51 1.48831 0.518367 0
M  V30 9580 C 911.44 1.67119 1.63075 0
M  V30 9581 C 912.421 0.519948 1.61958 0
M  V30 9582 O 913.606 0.753824 1.78972 0
M  V30 9583 C 910.736 1.72158 3.01627 0
M  V30 9584 C 909.69 2.86898 3.17606 0
M  V30 9585 C 909.016 2.77035 4.57335 0
M  V30 9586 C 910.316 4.28057 2.99274 0
M  V30 9587 H 912.01 2.60248 1.48025 0
M  V30 9588 H 909.556 1.2524 0.710694 0
M  V30 9589 H 911.509 1.83539 3.7933 0
M  V30 9590 H 910.233 0.756157 3.17726 0
M  V30 9591 H 908.892 2.75091 2.42323 0
M  V30 9592 H 908.54 1.78438 4.70286 0
M  V30 9593 H 908.24 3.54036 4.6897 0
M  V30 9594 H 909.764 2.904 5.37122 0
M  V30 9595 H 911.178 4.40636 3.6676 0
M  V30 9596 H 909.575 5.06145 3.22393 0
M  V30 9597 H 910.645 4.4371 1.95574 0
M  V30 9598 N 911.988 -0.768124 1.37614 0
M  V30 9599 C 913.228 -1.53979 1.34424 0
M  V30 9600 C 913.592 -1.91874 -0.0696803 0
M  V30 9601 O 914.793 -2.67845 -0.22633 0
M  V30 9602 C 913.064 -2.76845 2.26034 0
M  V30 9603 S 914.623 -3.66871 2.4073 0
M  V30 9604 H 911.441 -0.527108 0.477157 0
M  V30 9605 H 914.043 -0.902945 1.73399 0
M  V30 9606 H 912.747 -2.47091 3.2768 0
M  V30 9607 H 912.278 -3.45486 1.88157 0
M  V30 9608 H 914.293 -4.6899 1.62057 0
M  V30 9609 N 913.466 -1.22244 -0.994698 0
M  V30 9610 C 914.743 -0.954459 -1.70732 0
M  V30 9611 C 915.123 0.530945 -2.04314 0
M  V30 9612 O 914.471 1.49851 -1.72502 0
M  V30 9613 C 914.681 -1.85016 -2.95922 0
M  V30 9614 C 916.029 -2.10517 -3.68738 0
M  V30 9615 O 917.053 -1.82449 -3.05926 0
M  V30 9616 O 915.912 -2.58044 -4.81742 0
M  V30 9617 H 913.006 -0.35879 -0.745116 0
M  V30 9618 H 915.552 -1.33221 -1.0512 0
M  V30 9619 H 914.324 -2.85498 -2.67594 0
M  V30 9620 H 913.947 -1.47388 -3.69273 0
M  V30 9621 N 914.944 1.19125 -1.03184 0
M  V30 9622 C 916.192 1.8851 -0.728587 0
M  V30 9623 C 916.513 1.80195 0.74531 0
M  V30 9624 O 915.783 1.21437 1.5372 0
M  V30 9625 H 914.363 0.69784 -0.266511 0
M  V30 9626 H 917.025 1.44607 -1.3067 0
M  V30 9627 H 916.121 2.9477 -1.02554 0
M  V30 9628 N 916.422 0.810101 1.35185 0
M  V30 9629 C 917.372 0.195541 2.2716 0
M  V30 9630 C 918.356 -0.632691 1.47939 0
M  V30 9631 O 919.548 -0.489372 1.701 0
M  V30 9632 C 916.677 -0.652164 3.37049 0
M  V30 9633 C 915.763 0.185989 4.23692 0
M  V30 9634 N 916.154 1.25073 4.90092 0
M  V30 9635 C 914.452 -0.0318033 4.45989 0
M  V30 9636 C 915.153 1.76272 5.54349 0
M  V30 9637 N 914.129 1.06861 5.32993 0
M  V30 9638 H 917.931 1.01018 2.75994 0
M  V30 9639 H 915.445 0.651612 1.48754 0
M  V30 9640 H 917.442 -1.10851 4.01893 0
M  V30 9641 H 916.102 -1.46511 2.89767 0
M  V30 9642 H 917.113 1.63341 4.91467 0
M  V30 9643 H 913.79 -0.813607 4.09496 0
M  V30 9644 H 915.18 2.65278 6.17315 0
M  V30 9645 N 917.9 -1.47166 0.563914 0
M  V30 9646 C 919.128 -2.06846 0.0474287 0
M  V30 9647 C 919.543 -1.41557 -1.24928 0
M  V30 9648 O 918.9 -0.514376 -1.75101 0
M  V30 9649 C 918.951 -3.6121 -0.144831 0
M  V30 9650 O 918.672 -4.24052 1.10053 0
M  V30 9651 C 920.173 -4.37773 -0.69783 0
M  V30 9652 H 917.393 -0.669217 0.0488896 0
M  V30 9653 H 919.937 -1.89072 0.779235 0
M  V30 9654 H 918.092 -3.78474 -0.82679 0
M  V30 9655 H 918.506 -5.16677 0.902481 0
M  V30 9656 H 919.98 -5.46438 -0.781616 0
M  V30 9657 H 920.457 -4.04517 -1.71063 0
M  V30 9658 H 921.063 -4.25269 -0.0513516 0
M  V30 9659 N 919.378 -0.300708 -1.54705 0
M  V30 9660 C 920.625 0.308654 -2.00134 0
M  V30 9661 C 920.953 1.53918 -1.1891 0
M  V30 9662 O 920.208 1.94054 -0.253263 0
M  V30 9663 C 920.507 0.710108 -3.50275 0
M  V30 9664 C 920.173 -0.418651 -4.48952 0
M  V30 9665 C 918.835 -0.728524 -4.75653 0
M  V30 9666 C 921.187 -1.17797 -5.07714 0
M  V30 9667 C 918.515 -1.80085 -5.58378 0
M  V30 9668 C 920.867 -2.24022 -5.91606 0
M  V30 9669 C 919.531 -2.55616 -6.16617 0
M  V30 9670 H 918.801 0.112945 -0.732342 0
M  V30 9671 H 921.448 -0.419744 -1.86843 0
M  V30 9672 H 919.753 1.51859 -3.61173 0
M  V30 9673 H 921.45 1.19277 -3.8285 0
M  V30 9674 H 918.04 -0.167034 -4.28274 0
M  V30 9675 H 922.224 -0.951835 -4.87087 0
M  V30 9676 H 917.48 -2.05036 -5.75995 0
M  V30 9677 H 921.654 -2.83317 -6.36164 0
M  V30 9678 H 919.281 -3.38839 -6.80509 0
M  V30 9679 N 920.856 1.57574 -0.0284266 0
M  V30 9680 C 922.081 1.96479 0.664137 0
M  V30 9681 C 922.506 0.904826 1.64908 0
M  V30 9682 O 921.864 -0.134339 1.80802 0
M  V30 9683 C 921.912 3.34479 1.34745 0
M  V30 9684 O 921.016 3.30794 2.46271 0
M  V30 9685 H 920.357 0.640654 0.174524 0
M  V30 9686 H 922.887 2.04402 -0.0900729 0
M  V30 9687 H 922.897 3.70694 1.7044 0
M  V30 9688 H 921.572 4.1117 0.625468 0
M  V30 9689 H 920.149 3.06294 2.12693 0
M  V30 9690 N 922.334 -0.244713 1.55689 0
M  V30 9691 C 923.745 -0.813603 1.6804 0
M  V30 9692 C 924.096 -1.85936 0.626281 0
M  V30 9693 O 923.221 -2.15206 -0.227038 0
M  V30 9694 C 923.816 -1.48252 3.04642 0
M  V30 9695 C 922.375 -1.99908 3.18926 0
M  V30 9696 C 921.522 -0.850958 2.6392 0
M  V30 9697 H 924.473 -0.0204805 1.58687 0
M  V30 9698 H 924.494 -2.35062 2.99209 0
M  V30 9699 H 924.006 -0.721164 3.81341 0
M  V30 9700 H 922.107 -2.78918 2.47054 0
M  V30 9701 H 922.22 -2.19497 4.25862 0
M  V30 9702 H 920.584 -1.25206 2.21801 0
M  V30 9703 H 921.367 -0.10265 3.43146 0
M  V30 9704 N 923.813 -1.49104 -0.510467 0
M  V30 9705 C 924.76 -1.65074 -1.61305 0
M  V30 9706 C 925.73 -0.492362 -1.58635 0
M  V30 9707 O 926.915 -0.718241 -1.76765 0
M  V30 9708 C 924.055 -1.71457 -2.99493 0
M  V30 9709 C 923.168 -2.98536 -3.12251 0
M  V30 9710 C 922.303 -2.95957 -4.41116 0
M  V30 9711 C 921.342 -4.17655 -4.47471 0
M  V30 9712 N 920.479 -4.13041 -5.67751 0
M  V30 9713 H 925.319 -2.59222 -1.46996 0
M  V30 9714 H 922.856 -1.28535 -0.715346 0
M  V30 9715 H 924.814 -1.7314 -3.79577 0
M  V30 9716 H 923.444 -0.807834 -3.12528 0
M  V30 9717 H 922.496 -3.06509 -2.25292 0
M  V30 9718 H 923.808 -3.88527 -3.12807 0
M  V30 9719 H 922.962 -2.96149 -5.2951 0
M  V30 9720 H 921.701 -2.03728 -4.4311 0
M  V30 9721 H 920.706 -4.17717 -3.57481 0
M  V30 9722 H 921.931 -5.11066 -4.472 0
M  V30 9723 H 919.877 -3.23643 -5.70606 0
M  V30 9724 H 919.794 -4.96757 -5.69884 0
M  V30 9725 H 921.062 -4.17322 -6.58379 0
M  V30 9726 N 925.291 0.760815 -1.38019 0
M  V30 9727 C 926.221 1.88811 -1.37377 0
M  V30 9728 C 927.202 1.68388 -0.240737 0
M  V30 9729 O 928.387 1.89086 -0.442739 0
M  V30 9730 C 925.517 3.26244 -1.1909 0
M  V30 9731 C 924.471 3.61254 -2.29521 0
M  V30 9732 C 923.797 4.97346 -1.96345 0
M  V30 9733 C 925.097 3.66874 -3.71753 0
M  V30 9734 H 926.791 1.89606 -2.31711 0
M  V30 9735 H 924.337 0.910818 -1.11535 0
M  V30 9736 H 926.29 4.04755 -1.17267 0
M  V30 9737 H 925.014 3.2591 -0.212152 0
M  V30 9738 H 923.673 2.85057 -2.30517 0
M  V30 9739 H 923.321 4.93564 -0.969728 0
M  V30 9740 H 923.021 5.21739 -2.703 0
M  V30 9741 H 924.545 5.78244 -1.96129 0
M  V30 9742 H 925.959 4.35514 -3.72828 0
M  V30 9743 H 924.356 4.02772 -4.44853 0
M  V30 9744 H 925.426 2.67273 -4.0459 0
M  V30 9745 N 926.769 1.22769 0.988202 0
M  V30 9746 C 927.997 1.08155 1.76381 0
M  V30 9747 C 928.412 -0.367573 1.85187 0
M  V30 9748 O 927.769 -1.25455 1.32541 0
M  V30 9749 C 927.82 1.69193 3.19462 0
M  V30 9750 O 927.541 3.08437 3.11125 0
M  V30 9751 C 929.042 1.59915 4.13451 0
M  V30 9752 H 926.262 0.378908 0.553778 0
M  V30 9753 H 928.806 1.6246 1.24206 0
M  V30 9754 H 926.961 1.18939 3.6869 0
M  V30 9755 H 927.375 3.37916 4.0114 0
M  V30 9756 H 928.849 2.07339 5.1158 0
M  V30 9757 H 929.326 0.556546 4.3566 0
M  V30 9758 H 929.932 2.09497 3.70123 0
M  V30 9759 N 928.247 -1.18576 1.03814 0
M  V30 9760 C 929.157 -2.25778 0.637311 0
M  V30 9761 C 930.173 -1.7074 -0.335248 0
M  V30 9762 O 931.349 -2.00494 -0.19081 0
M  V30 9763 C 928.414 -3.467 0.00386953 0
M  V30 9764 C 927.475 -4.16881 1.02511 0
M  V30 9765 C 926.708 -5.32031 0.421802 0
M  V30 9766 O 926.931 -5.65142 -0.772699 0
M  V30 9767 O 925.865 -5.90826 1.14925 0
M  V30 9768 H 929.691 -2.62323 1.53037 0
M  V30 9769 H 927.276 -1.25609 0.80887 0
M  V30 9770 H 929.158 -4.19953 -0.348873 0
M  V30 9771 H 927.833 -3.11983 -0.863047 0
M  V30 9772 H 926.74 -3.45707 1.4296 0
M  V30 9773 H 928.073 -4.55592 1.86271 0
M  V30 9774 N 929.725 -0.817259 -1.34754 0
M  V30 9775 C 930.635 -0.236946 -2.334 0
M  V30 9776 C 931.651 0.625685 -1.62361 0
M  V30 9777 O 932.827 0.534921 -1.94166 0
M  V30 9778 C 929.892 0.596215 -3.41535 0
M  V30 9779 C 928.953 -0.288154 -4.28332 0
M  V30 9780 C 928.186 0.505337 -5.31302 0
M  V30 9781 O 928.409 1.73912 -5.43241 0
M  V30 9782 O 927.343 -0.109374 -6.01801 0
M  V30 9783 H 931.169 -1.05327 -2.84851 0
M  V30 9784 H 928.754 -0.579275 -1.37713 0
M  V30 9785 H 930.636 1.07041 -4.07578 0
M  V30 9786 H 929.311 1.38997 -2.92338 0
M  V30 9787 H 928.218 -0.809724 -3.65232 0
M  V30 9788 H 929.551 -1.04612 -4.80955 0
M  V30 9789 N 931.203 1.46865 -0.571711 0
M  V30 9790 C 932.133 2.3298 0.155795 0
M  V30 9791 C 933.114 1.44678 0.894553 0
M  V30 9792 O 934.299 1.73513 0.872176 0
M  V30 9793 C 931.429 3.26745 1.17708 0
M  V30 9794 C 930.383 4.24401 0.553863 0
M  V30 9795 C 929.709 5.07595 1.68083 0
M  V30 9796 C 931.009 5.19884 -0.501827 0
M  V30 9797 H 932.703 2.94056 -0.563176 0
M  V30 9798 H 930.249 1.41402 -0.27228 0
M  V30 9799 H 932.202 3.85838 1.6943 0
M  V30 9800 H 930.926 2.63753 1.92618 0
M  V30 9801 H 929.585 3.66554 0.057815 0
M  V30 9802 H 929.233 4.40996 2.41933 0
M  V30 9803 H 928.933 5.73722 1.26953 0
M  V30 9804 H 930.457 5.6955 2.20103 0
M  V30 9805 H 931.871 5.73257 -0.0701057 0
M  V30 9806 H 930.268 5.94293 -0.832815 0
M  V30 9807 H 931.338 4.64482 -1.39229 0
M  V30 9808 N 932.681 0.308908 1.54543 0
M  V30 9809 C 933.628 -0.563659 2.23811 0
M  V30 9810 C 934.598 -1.12332 1.22355 0
M  V30 9811 O 935.783 -1.16638 1.50997 0
M  V30 9812 C 932.923 -1.72585 2.98845 0
M  V30 9813 C 932.036 -1.19682 4.1509 0
M  V30 9814 C 931.171 -2.32351 4.77688 0
M  V30 9815 C 930.21 -1.76623 5.86064 0
M  V30 9816 N 929.347 -2.82896 6.42584 0
M  V30 9817 H 934.187 0.0336288 2.97981 0
M  V30 9818 H 931.724 0.0283666 1.47073 0
M  V30 9819 H 933.682 -2.40951 3.40586 0
M  V30 9820 H 932.312 -2.29464 2.27037 0
M  V30 9821 H 931.364 -0.405173 3.78236 0
M  V30 9822 H 932.676 -0.748923 4.93146 0
M  V30 9823 H 931.83 -3.0865 5.22322 0
M  V30 9824 H 930.569 -2.80472 3.98982 0
M  V30 9825 H 929.574 -0.988171 5.40847 0
M  V30 9826 H 930.799 -1.29398 6.66658 0
M  V30 9827 H 928.745 -3.30336 5.66758 0
M  V30 9828 H 928.662 -2.42626 7.16009 0
M  V30 9829 H 929.93 -3.59068 6.91875 0
M  V30 9830 N 934.159 -1.57557 0.0367827 0
M  V30 9831 C 935.106 -2.10679 -0.942499 0
M  V30 9832 C 936.076 -1.01068 -1.31812 0
M  V30 9833 O 937.261 -1.28533 -1.41011 0
M  V30 9834 C 934.401 -2.64467 -2.21701 0
M  V30 9835 C 933.514 -3.88114 -1.89715 0
M  V30 9836 C 932.649 -4.30268 -3.11518 0
M  V30 9837 C 931.688 -5.46652 -2.75387 0
M  V30 9838 N 930.825 -5.83927 -3.89838 0
M  V30 9839 H 935.665 -2.94066 -0.482588 0
M  V30 9840 H 933.202 -1.45344 -0.226597 0
M  V30 9841 H 935.16 -2.93745 -2.96259 0
M  V30 9842 H 933.79 -1.83898 -2.65295 0
M  V30 9843 H 932.842 -3.65516 -1.05366 0
M  V30 9844 H 934.154 -4.72743 -1.5911 0
M  V30 9845 H 933.308 -4.61023 -3.94389 0
M  V30 9846 H 932.047 -3.44421 -3.4529 0
M  V30 9847 H 931.052 -5.15583 -1.90929 0
M  V30 9848 H 932.277 -6.34204 -2.42822 0
M  V30 9849 H 930.223 -5.01035 -4.23438 0
M  V30 9850 H 930.14 -6.63214 -3.62883 0
M  V30 9851 H 931.408 -6.19291 -4.73391 0
M  V30 9852 N 935.637 0.236453 -1.55816 0
M  V30 9853 C 936.569 1.31602 -1.87653 0
M  V30 9854 C 937.582 1.43782 -0.763584 0
M  V30 9855 O 938.771 1.44945 -1.04178 0
M  V30 9856 C 935.871 2.69342 -2.05689 0
M  V30 9857 C 935.044 2.79298 -3.36617 0
M  V30 9858 C 934.103 3.97952 -3.44268 0
M  V30 9859 O 933.129 3.86989 -4.17406 0
M  V30 9860 N 934.331 5.11594 -2.74321 0
M  V30 9861 H 937.096 1.04623 -2.80845 0
M  V30 9862 H 934.657 0.426534 -1.5618 0
M  V30 9863 H 936.649 3.47074 -2.08138 0
M  V30 9864 H 935.219 2.88984 -1.19192 0
M  V30 9865 H 934.439 1.8816 -3.46395 0
M  V30 9866 H 935.727 2.82908 -4.22895 0
M  V30 9867 H 935.125 5.23394 -2.14651 0
M  V30 9868 H 933.682 5.87422 -2.8245 0
M  V30 9869 N 937.115 1.49373 0.502552 0
M  V30 9870 C 938.364 1.58028 1.25339 0
M  V30 9871 C 938.677 0.271494 1.93707 0
M  V30 9872 O 939.883 0.236584 2.70467 0
M  V30 9873 C 938.339 2.78817 2.27572 0
M  V30 9874 C 937.947 4.16448 1.65151 0
M  V30 9875 C 939.691 2.96802 3.03494 0
M  V30 9876 C 937.598 5.28461 2.65486 0
M  V30 9877 H 936.528 0.588396 0.471494 0
M  V30 9878 H 939.179 1.75756 0.52744 0
M  V30 9879 H 937.561 2.5458 3.03323 0
M  V30 9880 H 938.735 4.50816 0.954029 0
M  V30 9881 H 937.05 4.03809 1.01625 0
M  V30 9882 H 939.647 3.77656 3.78524 0
M  V30 9883 H 939.99 2.07303 3.61014 0
M  V30 9884 H 940.523 3.21071 2.34858 0
M  V30 9885 H 937.262 6.20015 2.12749 0
M  V30 9886 H 936.782 4.9855 3.33479 0
M  V30 9887 H 938.461 5.5773 3.27943 0
M  V30 9888 N 938.594 -0.753485 1.38421 0
M  V30 9889 C 940.01 -1.05656 1.1962 0
M  V30 9890 C 940.21 -2.0145 0.0449443 0
M  V30 9891 O 939.266 -2.45039 -0.609253 0
M  V30 9892 C 940.579 -1.63655 2.52265 0
M  V30 9893 C 942.127 -1.75825 2.58949 0
M  V30 9894 C 942.602 -2.37236 3.91769 0
M  V30 9895 N 944.093 -2.44666 3.9331 0
M  V30 9896 C 944.828 -2.93077 4.92842 0
M  V30 9897 N 944.324 -3.41523 6.02772 0
M  V30 9898 N 946.117 -2.92118 4.80232 0
M  V30 9899 H 938.268 -0.117799 2.12073 0
M  V30 9900 H 940.531 -0.114889 0.941012 0
M  V30 9901 H 940.237 -1.00734 3.36965 0
M  V30 9902 H 940.111 -2.62715 2.70667 0
M  V30 9903 H 942.498 -2.37873 1.74644 0
M  V30 9904 H 942.579 -0.754693 2.44414 0
M  V30 9905 H 942.223 -1.75822 4.76497 0
M  V30 9906 H 942.153 -3.38233 4.03616 0
M  V30 9907 H 944.644 -2.10403 3.1391 0
M  V30 9908 H 944.957 -3.76919 6.74649 0
M  V30 9909 H 943.302 -3.3958 6.06391 0
M  V30 9910 H 946.493 -2.53582 3.93464 0
M  V30 9911 H 946.666 -3.29535 5.57952 0
M  V30 9912 N 940.072 -1.23292 -0.981677 0
M  V30 9913 C 940.982 -1.02964 -2.10798 0
M  V30 9914 C 941.998 0.0254674 -1.73981 0
M  V30 9915 O 943.174 -0.169706 -2.00684 0
M  V30 9916 C 940.239 -0.621934 -3.41076 0
M  V30 9917 C 939.3 -1.75194 -3.91926 0
M  V30 9918 C 938.533 -1.36359 -5.15986 0
M  V30 9919 O 938.756 -0.247265 -5.69864 0
M  V30 9920 O 937.69 -2.18421 -5.60871 0
M  V30 9921 H 941.516 -1.97354 -2.30836 0
M  V30 9922 H 939.101 -1.01986 -1.09175 0
M  V30 9923 H 940.983 -0.405446 -4.19445 0
M  V30 9924 H 939.658 0.29299 -3.22371 0
M  V30 9925 H 938.565 -2.02305 -3.1468 0
M  V30 9926 H 939.898 -2.64513 -4.15083 0
M  V30 9927 N 941.55 1.18024 -1.04442 0
M  V30 9928 C 942.497 2.21785 -0.638759 0
M  V30 9929 C 943.467 1.62255 0.355312 0
M  V30 9930 O 944.652 1.89176 0.24844 0
M  V30 9931 C 941.792 3.45098 -0.0118002 0
M  V30 9932 C 940.905 4.1895 -1.05379 0
M  V30 9933 C 940.04 5.2973 -0.394951 0
M  V30 9934 C 939.079 5.95359 -1.42178 0
M  V30 9935 N 938.216 6.97668 -0.787635 0
M  V30 9936 H 943.056 2.55839 -1.52808 0
M  V30 9937 H 940.593 1.25681 -0.764378 0
M  V30 9938 H 942.551 4.15564 0.369075 0
M  V30 9939 H 941.181 3.11652 0.84102 0
M  V30 9940 H 940.233 3.47274 -1.55258 0
M  V30 9941 H 941.545 4.63877 -1.83355 0
M  V30 9942 H 940.699 6.06687 0.0399244 0
M  V30 9943 H 939.438 4.85915 0.416867 0
M  V30 9944 H 938.443 5.17139 -1.86675 0
M  V30 9945 H 939.668 6.41255 -2.23536 0
M  V30 9946 H 937.614 6.56 0.00380893 0
M  V30 9947 H 937.531 7.40867 -1.50505 0
M  V30 9948 H 938.799 7.78586 -0.377282 0
M  V30 9949 N 943.028 0.824394 1.34319 0
M  V30 9950 C 944.277 0.40956 1.97498 0
M  V30 9951 C 944.59 -1.03323 1.66083 0
M  V30 9952 O 945.796 -1.55205 2.22764 0
M  V30 9953 C 944.252 0.681384 3.53391 0
M  V30 9954 C 943.86 2.1379 3.93698 0
M  V30 9955 C 945.604 0.332788 4.23194 0
M  V30 9956 C 943.511 2.35453 5.42509 0
M  V30 9957 H 942.441 0.149409 0.739049 0
M  V30 9958 H 945.092 1.01095 1.5314 0
M  V30 9959 H 943.474 0.00980375 3.95999 0
M  V30 9960 H 944.648 2.84876 3.62191 0
M  V30 9961 H 942.963 2.44807 3.36836 0
M  V30 9962 H 945.56 0.472463 5.32609 0
M  V30 9963 H 945.903 -0.722862 4.09976 0
M  V30 9964 H 946.436 0.959005 3.86067 0
M  V30 9965 H 943.175 3.39529 5.60714 0
M  V30 9966 H 942.695 1.68912 5.75525 0
M  V30 9967 H 944.374 2.17885 6.09209 0
M  V30 9968 N 944.506 -1.46559 0.579492 0
M  V30 9969 C 945.754 -2.02 0.0637157 0
M  V30 9970 C 946.075 -1.45378 -1.29962 0
M  V30 9971 O 945.345 -0.637262 -1.85245 0
M  V30 9972 H 943.925 -0.746717 0.0205638 0
M  V30 9973 H 946.587 -1.79702 0.754544 0
M  V30 9974 H 945.683 -3.12099 -0.00770254 0
M  V30 9975 N 945.984 -0.3171 -1.54377 0
M  V30 9976 C 947.395 0.172287 -1.85903 0
M  V30 9977 C 947.746 1.52141 -1.23885 0
M  V30 9978 O 946.871 2.0949 -0.542476 0
M  V30 9979 C 947.466 0.319392 -3.37291 0
M  V30 9980 C 946.025 0.752998 -3.68791 0
M  V30 9981 C 945.172 -0.129143 -2.76999 0
M  V30 9982 H 948.123 -0.537597 -1.49317 0
M  V30 9983 H 948.144 1.15137 -3.62662 0
M  V30 9984 H 947.656 -0.662671 -3.82401 0
M  V30 9985 H 945.757 1.74504 -3.2921 0
M  V30 9986 H 945.87 0.561228 -4.75801 0
M  V30 9987 H 944.234 0.394242 -2.5163 0
M  V30 9988 H 945.017 -1.10785 -3.24933 0
M  V30 9989 N 947.462 1.57535 -0.0451378 0
M  V30 9990 C 948.711 1.91628 0.629415 0
M  V30 9991 C 949.024 0.924754 1.72359 0
M  V30 9992 O 950.23 1.15751 2.45589 0
M  V30 9993 C 948.686 3.40322 1.17084 0
M  V30 9994 C 948.294 4.47867 0.109101 0
M  V30 9995 C 950.038 3.83458 1.82099 0
M  V30 9996 C 947.945 5.87671 0.663072 0
M  V30 9997 H 946.875 0.715163 0.238868 0
M  V30 9998 H 949.526 1.83151 -0.113046 0
M  V30 9999 H 947.908 3.43783 1.96543 0
M  V30 10000 H 949.082 4.55988 -0.664201 0
M  V30 10001 H 947.397 4.14034 -0.443227 0
M  V30 10002 H 949.994 4.85273 2.2453 0
M  V30 10003 H 950.337 3.19379 2.67026 0
M  V30 10004 H 950.87 3.82488 1.09305 0
M  V30 10005 H 947.609 6.55332 -0.148423 0
M  V30 10006 H 947.129 5.83124 1.4045 0
M  V30 10007 H 948.808 6.36737 1.14785 0
M  V30 10008 N 948.94 -0.228186 1.55939 0
M  V30 10009 C 949.903 -1.26621 1.91049 0
M  V30 10010 C 950.903 -1.40141 0.788491 0
M  V30 10011 O 952.093 -1.3852 1.05631 0
M  V30 10012 C 949.225 -2.64108 2.15545 0
M  V30 10013 H 950.418 -0.966978 2.83883 0
M  V30 10014 H 947.971 -0.468313 1.49119 0
M  V30 10015 H 948.706 -2.99141 1.25241 0
M  V30 10016 H 948.491 -2.55673 2.97277 0
M  V30 10017 H 949.981 -3.39025 2.43827 0
M  V30 10018 N 950.418 -1.49637 -0.494624 0
M  V30 10019 C 951.646 -1.63164 -1.2722 0
M  V30 10020 C 952.061 -0.305552 -1.86311 0
M  V30 10021 O 951.418 0.709758 -1.68133 0
M  V30 10022 C 951.469 -2.70524 -2.39789 0
M  V30 10023 O 951.19 -3.97991 -1.83126 0
M  V30 10024 C 952.691 -2.94814 -3.31058 0
M  V30 10025 H 949.911 -0.54912 -0.385627 0
M  V30 10026 H 952.455 -1.95711 -0.593081 0
M  V30 10027 H 950.61 -2.40738 -3.03519 0
M  V30 10028 H 951.024 -4.57179 -2.57075 0
M  V30 10029 H 952.498 -3.73653 -4.06309 0
M  V30 10030 H 952.975 -2.04974 -3.88436 0
M  V30 10031 H 953.581 -3.26042 -2.73088 0
M  V30 10032 N 951.896 0.746133 -1.38819 0
M  V30 10033 C 953.307 1.32384 -1.31648 0
M  V30 10034 C 953.658 1.96185 0.0243086 0
M  V30 10035 O 952.783 1.95567 0.92641 0
M  V30 10036 C 953.378 2.40712 -2.38418 0
M  V30 10037 C 951.937 2.94185 -2.34803 0
M  V30 10038 C 951.084 1.67639 -2.20891 0
M  V30 10039 H 954.035 0.544457 -1.49068 0
M  V30 10040 H 954.056 3.20833 -2.04564 0
M  V30 10041 H 953.568 1.94247 -3.3599 0
M  V30 10042 H 951.669 3.44959 -1.40834 0
M  V30 10043 H 951.782 3.48057 -3.29231 0
M  V30 10044 H 950.146 1.9155 -1.67871 0
M  V30 10045 H 950.929 1.23242 -3.20416 0
M  V30 10046 N 953.375 1.23811 0.975125 0
M  V30 10047 C 954.652 0.9815 1.69192 0
M  V30 10048 C 955.032 -0.498373 2.05133 0
M  V30 10049 O 954.38 -1.47087 1.74864 0
M  V30 10050 C 954.59 1.89701 2.92941 0
M  V30 10051 C 955.938 2.16357 3.65342 0
M  V30 10052 O 956.962 1.87293 3.02985 0
M  V30 10053 O 955.821 2.65675 4.77576 0
M  V30 10054 H 952.915 0.370599 0.739314 0
M  V30 10055 H 955.461 1.34876 1.02988 0
M  V30 10056 H 954.233 2.89719 2.63018 0
M  V30 10057 H 953.856 1.53244 3.66881 0
M  V30 10058 N 954.853 -1.17469 1.05066 0
M  V30 10059 C 956.083 -1.91343 0.779202 0
M  V30 10060 C 956.491 -1.76986 -0.668764 0
M  V30 10061 O 955.834 -1.1037 -1.46848 0
M  V30 10062 C 955.896 -3.42938 1.0786 0
M  V30 10063 C 955.56 -3.81076 2.52249 0
M  V30 10064 C 956.557 -3.84027 3.50456 0
M  V30 10065 C 954.242 -4.12076 2.87225 0
M  V30 10066 C 956.236 -4.17445 4.81683 0
M  V30 10067 C 953.923 -4.45163 4.18656 0
M  V30 10068 C 954.921 -4.47825 5.15696 0
M  V30 10069 O 954.609 -4.80133 6.44769 0
M  V30 10070 H 954.341 -0.613974 0.282863 0
M  V30 10071 H 956.895 -1.49907 1.40417 0
M  V30 10072 H 955.125 -3.84662 0.39653 0
M  V30 10073 H 956.814 -3.98071 0.793357 0
M  V30 10074 H 957.58 -3.60203 3.24775 0
M  V30 10075 H 953.459 -4.09176 2.12358 0
M  V30 10076 H 957.003 -4.19437 5.57421 0
M  V30 10077 H 952.9 -4.68449 4.44101 0
M  V30 10078 H 953.668 -4.97995 6.49571 0
M  V30 10079 N 956.331 -0.831506 -1.3388 0
M  V30 10080 C 957.58 -0.420028 -1.97278 0
M  V30 10081 C 957.893 1.02441 -1.66629 0
M  V30 10082 O 959.099 1.54021 -2.23584 0
M  V30 10083 C 957.555 -0.700116 -3.53025 0
M  V30 10084 C 957.163 -2.15874 -3.92559 0
M  V30 10085 C 958.907 -0.355226 -4.23011 0
M  V30 10086 C 956.814 -2.38327 -5.41252 0
M  V30 10087 H 955.744 -0.153326 -0.738246 0
M  V30 10088 H 958.395 -1.01906 -1.52602 0
M  V30 10089 H 956.777 -0.0308044 -3.95988 0
M  V30 10090 H 957.951 -2.86792 -3.60675 0
M  V30 10091 H 956.266 -2.4659 -3.35533 0
M  V30 10092 H 958.863 -0.500701 -5.32351 0
M  V30 10093 H 959.206 0.70111 -4.10354 0
M  V30 10094 H 959.739 -0.979466 -3.85553 0
M  V30 10095 H 956.478 -3.42498 -5.58906 0
M  V30 10096 H 955.998 -1.71962 -5.74621 0
M  V30 10097 H 957.677 -2.21113 -6.08045 0
M  V30 10098 N 957.809 1.4625 -0.587256 0
M  V30 10099 C 958.741 2.28482 0.181256 0
M  V30 10100 C 959.754 1.38777 0.851163 0
M  V30 10101 O 960.943 1.63336 0.719963 0
M  V30 10102 C 958.043 3.13944 1.27643 0
M  V30 10103 C 957.216 4.31802 0.697569 0
M  V30 10104 C 956.275 4.98626 1.68102 0
M  V30 10105 O 955.301 5.56075 1.21529 0
M  V30 10106 N 956.503 4.96051 3.0152 0
M  V30 10107 H 959.268 2.95079 -0.524267 0
M  V30 10108 H 956.829 1.56213 -0.425336 0
M  V30 10109 H 958.821 3.55513 1.93371 0
M  V30 10110 H 957.391 2.49391 1.88475 0
M  V30 10111 H 956.611 3.93961 -0.137293 0
M  V30 10112 H 957.899 5.07969 0.290696 0
M  V30 10113 H 957.297 4.5063 3.41978 0
M  V30 10114 H 955.854 5.41547 3.62725 0
M  V30 10115 N 959.287 0.325282 1.54207 0
M  V30 10116 C 960.235 -0.5554 2.25872 0
M  V30 10117 C 961.229 -1.11714 1.27344 0
M  V30 10118 O 962.435 -1.06498 1.45115 0
M  V30 10119 H 958.81 -0.19776 0.725531 0
M  V30 10120 H 960.781 0.0712858 2.98315 0
M  V30 10121 C 959.53 -1.70379 3.03095 0
M  V30 10122 H 958.853 -1.2808 3.78729 0
M  V30 10123 H 960.293 -2.29556 3.56483 0
M  V30 10124 C 958.752 -2.62242 2.11496 0
M  V30 10125 O 959.282 -3.64003 1.69895 0
M  V30 10126 N 957.488 -2.30515 1.7695 0
M  V30 10127 H 957.035 -1.47805 2.10978 0
M  V30 10128 H 956.993 -2.92241 1.15942 0
M  V30 10129 N 960.765 -1.57509 0.0534917 0
M  V30 10130 C 961.728 -2.10563 -0.905307 0
M  V30 10131 C 962.728 -1.02571 -1.23838 0
M  V30 10132 O 963.918 -1.28635 -1.17468 0
M  V30 10133 C 961.05 -2.5918 -2.21447 0
M  V30 10134 H 962.243 -2.96575 -0.445354 0
M  V30 10135 H 959.796 -1.55079 -0.194947 0
M  V30 10136 H 960.531 -1.76568 -2.72019 0
M  V30 10137 H 960.316 -3.38098 -1.98575 0
M  V30 10138 H 961.806 -3.00365 -2.90122 0
M  V30 10139 N 962.243 0.219913 -1.56058 0
M  V30 10140 C 963.654 0.786766 -1.69313 0
M  V30 10141 C 964.005 1.84916 -0.655782 0
M  V30 10142 O 963.13 2.1554 0.192772 0
M  V30 10143 C 963.725 1.43387 -3.06962 0
M  V30 10144 C 962.284 1.94809 -3.22066 0
M  V30 10145 C 961.431 0.808863 -2.65241 0
M  V30 10146 H 964.382 -0.00476777 -1.58699 0
M  V30 10147 H 964.403 2.30272 -3.02911 0
M  V30 10148 H 963.915 0.660405 -3.8244 0
M  V30 10149 H 962.016 2.74952 -2.5146 0
M  V30 10150 H 962.129 2.12694 -4.293 0
M  V30 10151 H 960.493 1.21661 -2.23765 0
M  V30 10152 H 961.276 0.0480458 -3.43266 0
M  V30 10153 N 963.721 1.49897 0.486681 0
M  V30 10154 C 964.969 1.59789 1.23742 0
M  V30 10155 C 965.29 0.293056 1.92785 0
M  V30 10156 O 964.56 -0.688534 1.83401 0
M  V30 10157 H 963.14 0.588775 0.459731 0
M  V30 10158 H 965.802 1.86597 0.562808 0
M  V30 10159 H 964.898 2.40121 1.9937 0
M  V30 10160 N 965.199 -0.738761 1.39212 0
M  V30 10161 C 966.129 -1.86602 1.40364 0
M  V30 10162 C 967.11 -1.67984 0.267495 0
M  V30 10163 O 968.295 -1.88358 0.472765 0
M  V30 10164 C 965.425 -3.24308 1.24265 0
M  V30 10165 C 964.379 -3.57557 2.35239 0
M  V30 10166 C 963.705 -4.94159 2.04233 0
M  V30 10167 C 965.005 -3.60914 3.77543 0
M  V30 10168 H 966.699 -1.85896 2.34698 0
M  V30 10169 H 964.245 -0.892959 1.1297 0
M  V30 10170 H 966.198 -4.02838 1.23692 0
M  V30 10171 H 964.922 -3.25531 0.263974 0
M  V30 10172 H 963.581 -2.81354 2.35022 0
M  V30 10173 H 963.229 -4.91959 1.04813 0
M  V30 10174 H 962.929 -5.17373 2.78567 0
M  V30 10175 H 964.453 -5.7505 2.05303 0
M  V30 10176 H 965.867 -4.29528 3.79709 0
M  V30 10177 H 964.264 -3.95644 4.51205 0
M  V30 10178 H 965.334 -2.60803 4.08791 0
M  V30 10179 N 966.677 -1.24326 -0.968545 0
M  V30 10180 C 968.088 -1.07561 -1.52603 0
M  V30 10181 C 968.439 0.353245 -1.92994 0
M  V30 10182 O 967.564 1.24151 -1.77244 0
M  V30 10183 C 968.159 -1.94634 -2.77314 0
M  V30 10184 C 966.718 -1.82095 -3.29421 0
M  V30 10185 C 965.865 -1.8962 -2.02335 0
M  V30 10186 H 968.816 -1.37815 -0.786932 0
M  V30 10187 H 968.837 -1.47812 -3.50616 0
M  V30 10188 H 968.349 -2.98621 -2.47885 0
M  V30 10189 H 966.45 -0.809376 -3.63703 0
M  V30 10190 H 966.563 -2.66142 -3.98378 0
M  V30 10191 H 964.927 -1.33339 -2.17009 0
M  V30 10192 H 965.71 -2.95185 -1.75273 0
M  V30 10193 N 968.156 1.1691 -1.05688 0
M  V30 10194 C 969.103 2.21095 -0.662246 0
M  V30 10195 C 970.073 1.62623 0.338083 0
M  V30 10196 O 971.258 1.89428 0.228362 0
M  V30 10197 C 968.398 3.45066 -0.0484018 0
M  V30 10198 C 967.511 4.17809 -1.09817 0
M  V30 10199 C 966.646 5.29281 -0.451114 0
M  V30 10200 C 965.685 5.93817 -1.48484 0
M  V30 10201 N 964.822 6.96793 -0.861588 0
M  V30 10202 H 969.662 2.54204 -1.55513 0
M  V30 10203 H 967.199 1.24863 -0.777665 0
M  V30 10204 H 969.157 4.15932 0.324978 0
M  V30 10205 H 967.787 3.12526 0.807918 0
M  V30 10206 H 966.839 3.45608 -1.58932 0
M  V30 10207 H 968.151 4.61907 -1.88265 0
M  V30 10208 H 967.305 6.06695 -0.0244251 0
M  V30 10209 H 966.044 4.8633 0.365306 0
M  V30 10210 H 965.049 5.1513 -1.92149 0
M  V30 10211 H 966.274 6.38848 -2.30325 0
M  V30 10212 H 964.22 6.55967 -0.0657688 0
M  V30 10213 H 964.137 7.39229 -1.58354 0
M  V30 10214 H 965.405 7.78142 -0.45984 0
M  V30 10215 N 969.634 0.838594 1.33437 0
M  V30 10216 C 970.862 0.447644 2.01999 0
M  V30 10217 C 971.277 -0.951053 1.63096 0
M  V30 10218 O 970.634 -1.61802 0.844169 0
M  V30 10219 C 970.685 0.558378 3.57162 0
M  V30 10220 O 970.406 1.90196 3.94661 0
M  V30 10221 C 971.907 0.164348 4.42995 0
M  V30 10222 H 969.127 0.177736 0.647032 0
M  V30 10223 H 971.671 1.13109 1.70372 0
M  V30 10224 H 969.826 -0.0771563 3.87323 0
M  V30 10225 H 970.24 1.88729 4.89369 0
M  V30 10226 H 971.714 0.292876 5.51222 0
M  V30 10227 H 972.191 -0.893713 4.30011 0
M  V30 10228 H 972.797 0.774306 4.18192 0
M  V30 10229 N 971.112 -1.45937 0.595003 0
M  V30 10230 C 972.528 -1.57507 0.257641 0
M  V30 10231 C 972.728 -1.58829 -1.23998 0
M  V30 10232 O 971.784 -1.51183 -2.02237 0
M  V30 10233 C 973.097 -2.86354 0.917708 0
M  V30 10234 C 974.645 -3.00007 0.892446 0
M  V30 10235 C 975.12 -4.31607 1.53229 0
M  V30 10236 N 976.611 -4.38336 1.49719 0
M  V30 10237 C 977.346 -5.38805 1.96154 0
M  V30 10238 N 976.842 -6.45882 2.50617 0
M  V30 10239 N 978.635 -5.30084 1.86997 0
M  V30 10240 H 970.786 -1.43322 1.56756 0
M  V30 10241 H 973.049 -0.684436 0.655936 0
M  V30 10242 H 972.755 -2.91233 1.97171 0
M  V30 10243 H 972.629 -3.74703 0.433344 0
M  V30 10244 H 975.016 -2.94703 -0.152975 0
M  V30 10245 H 975.097 -2.13103 1.41495 0
M  V30 10246 H 974.741 -4.3767 2.57697 0
M  V30 10247 H 974.671 -5.17308 0.984903 0
M  V30 10248 H 977.162 -3.6156 1.09921 0
M  V30 10249 H 977.475 -7.18774 2.83874 0
M  V30 10250 H 975.82 -6.46668 2.54649 0
M  V30 10251 H 979.011 -4.45337 1.44196 0
M  V30 10252 H 979.184 -6.08237 2.23499 0
M  V30 10253 N 972.59 -0.333456 -1.54032 0
M  V30 10254 C 973.815 0.270517 -2.05628 0
M  V30 10255 C 974.24 1.44231 -1.20744 0
M  V30 10256 O 973.598 1.79975 -0.218822 0
M  V30 10257 C 973.646 0.673251 -3.54259 0
M  V30 10258 O 972.75 1.77448 -3.72271 0
M  V30 10259 H 972.091 0.0469753 -0.662336 0
M  V30 10260 H 974.621 -0.484739 -1.98775 0
M  V30 10261 H 974.631 0.953194 -3.96709 0
M  V30 10262 H 973.306 -0.183747 -4.15494 0
M  V30 10263 H 971.883 1.49259 -3.41725 0
M  V30 10264 N 974.068 1.57479 -0.061844 0
M  V30 10265 C 975.316 1.92727 0.608336 0
M  V30 10266 C 975.637 0.941799 1.70749 0
M  V30 10267 O 974.907 -0.0116608 1.95897 0
M  V30 10268 H 973.487 0.71145 0.2277 0
M  V30 10269 H 976.149 1.94546 -0.117359 0
M  V30 10270 H 975.245 2.9426 1.04007 0
M  V30 10271 N 975.546 -0.211634 1.56173 0
M  V30 10272 C 976.493 -1.26231 1.93221 0
M  V30 10273 C 977.463 -1.46076 0.790641 0
M  V30 10274 O 978.648 -1.59482 1.04739 0
M  V30 10275 C 975.788 -2.60559 2.26281 0
M  V30 10276 C 974.901 -2.48431 3.5342 0
M  V30 10277 C 974.036 -3.7535 3.7588 0
M  V30 10278 C 973.075 -3.57985 4.96501 0
M  V30 10279 N 972.212 -4.76877 5.15299 0
M  V30 10280 H 977.052 -0.939367 2.82807 0
M  V30 10281 H 974.589 -0.452511 1.39967 0
M  V30 10282 H 976.547 -3.38796 2.43461 0
M  V30 10283 H 975.177 -2.9093 1.39855 0
M  V30 10284 H 974.229 -1.61577 3.44379 0
M  V30 10285 H 975.541 -2.31526 4.41811 0
M  V30 10286 H 974.695 -4.62029 3.9321 0
M  V30 10287 H 973.434 -3.95191 2.85788 0
M  V30 10288 H 972.439 -2.69691 4.79111 0
M  V30 10289 H 973.664 -3.39605 5.88086 0
M  V30 10290 H 971.61 -4.97013 4.28152 0
M  V30 10291 H 971.527 -4.62735 5.9784 0
M  V30 10292 H 972.795 -5.64954 5.37073 0
M  V30 10293 N 977.024 -1.50153 -0.478725 0
M  V30 10294 C 978.273 -1.60002 -1.22809 0
M  V30 10295 C 978.586 -0.302277 -1.9325 0
M  V30 10296 O 979.792 -0.279583 -2.70057 0
M  V30 10297 C 978.248 -2.82402 -2.23108 0
M  V30 10298 C 977.856 -4.19023 -1.58505 0
M  V30 10299 C 979.6 -3.01593 -2.98734 0
M  V30 10300 C 977.507 -5.32618 -2.57045 0
M  V30 10301 H 976.437 -0.595822 -0.462073 0
M  V30 10302 H 979.088 -1.76573 -0.499412 0
M  V30 10303 H 977.47 -2.59373 -2.99235 0
M  V30 10304 H 978.644 -4.52277 -0.882187 0
M  V30 10305 H 976.959 -4.05374 -0.951877 0
M  V30 10306 H 979.556 -3.8363 -3.72468 0
M  V30 10307 H 979.899 -2.1302 -3.57671 0
M  V30 10308 H 980.432 -3.24766 -2.29721 0
M  V30 10309 H 977.171 -6.23321 -2.02858 0
M  V30 10310 H 976.691 -5.03792 -3.25505 0
M  V30 10311 H 978.37 -5.62877 -3.19028 0
M  V30 10312 N 978.502 0.731368 -1.39602 0
M  V30 10313 C 979.435 1.85433 -1.33004 0
M  V30 10314 C 980.413 1.61327 -0.20307 0
M  V30 10315 O 981.597 1.84545 -0.384124 0
M  V30 10316 C 978.724 3.21483 -1.06613 0
M  V30 10317 C 977.77 3.64443 -2.21549 0
M  V30 10318 S 978.603 3.73387 -3.83852 0
M  V30 10319 C 979.759 5.12222 -3.59694 0
M  V30 10320 H 979.992 1.90747 -2.28041 0
M  V30 10321 H 977.525 0.89659 -1.25701 0
M  V30 10322 H 979.483 4.00041 -0.920719 0
M  V30 10323 H 978.144 3.1382 -0.132563 0
M  V30 10324 H 977.337 4.63185 -1.98686 0
M  V30 10325 H 976.939 2.93099 -2.32312 0
M  V30 10326 H 979.231 5.98666 -3.17184 0
M  V30 10327 H 980.174 5.40115 -4.5791 0
M  V30 10328 H 980.582 4.8207 -2.93716 0
M  V30 10329 N 979.98 1.24838 0.961938 0
M  V30 10330 C 981.396 1.01502 1.23165 0
M  V30 10331 C 981.596 -0.272651 1.99647 0
M  V30 10332 O 980.652 -0.987297 2.32398 0
M  V30 10333 C 981.965 2.23366 2.01316 0
M  V30 10334 C 983.513 2.28051 2.14387 0
M  V30 10335 C 983.988 3.49552 2.95935 0
M  V30 10336 N 985.479 3.49904 3.03515 0
M  V30 10337 C 986.214 4.40577 3.66987 0
M  V30 10338 N 985.71 5.41512 4.3213 0
M  V30 10339 N 987.503 4.28275 3.64056 0
M  V30 10340 H 979.654 2.07576 0.450086 0
M  V30 10341 H 981.917 0.911205 0.261551 0
M  V30 10342 H 981.623 3.16913 1.5251 0
M  V30 10343 H 981.497 2.25949 3.02038 0
M  V30 10344 H 983.884 1.35032 2.62393 0
M  V30 10345 H 983.965 2.29491 1.12994 0
M  V30 10346 H 983.609 4.42889 2.4862 0
M  V30 10347 H 983.539 3.45357 3.97538 0
M  V30 10348 H 986.03 2.76885 2.57183 0
M  V30 10349 H 986.343 6.06924 4.78396 0
M  V30 10350 H 984.688 5.45393 4.3078 0
M  V30 10351 H 987.879 3.48653 3.12344 0
M  V30 10352 H 988.052 4.99138 4.13237 0
M  V30 10353 N 981.458 -1.16348 1.06306 0
M  V30 10354 C 982.874 -1.38873 0.786543 0
M  V30 10355 C 983.074 -1.91915 -0.614061 0
M  V30 10356 O 982.13 -2.11804 -1.3746 0
M  V30 10357 C 983.443 -2.36936 1.85154 0
M  V30 10358 C 984.991 -2.5062 1.87506 0
M  V30 10359 C 985.466 -3.51965 2.9306 0
M  V30 10360 N 986.957 -3.59492 2.92095 0
M  V30 10361 C 987.692 -4.37699 3.70415 0
M  V30 10362 N 987.188 -5.19327 4.58553 0
M  V30 10363 N 988.981 -4.32683 3.58806 0
M  V30 10364 H 981.132 -0.802542 1.96655 0
M  V30 10365 H 983.395 -0.415304 0.852189 0
M  V30 10366 H 983.101 -2.05056 2.85736 0
M  V30 10367 H 982.975 -3.36585 1.70267 0
M  V30 10368 H 985.362 -2.81804 0.875827 0
M  V30 10369 H 985.443 -1.51006 2.06472 0
M  V30 10370 H 985.087 -3.21518 3.93177 0
M  V30 10371 H 985.017 -4.51309 2.71344 0
M  V30 10372 H 987.508 -3.01222 2.28197 0
M  V30 10373 H 987.821 -5.76216 5.1497 0
M  V30 10374 H 986.166 -5.1867 4.62608 0
M  V30 10375 H 989.357 -3.67971 2.89335 0
M  V30 10376 H 989.53 -4.93386 4.20088 0
M  V30 10377 N 982.937 -0.845659 -1.3299 0
M  V30 10378 C 984.183 -0.445311 -1.9785 0
M  V30 10379 C 984.516 0.994476 -1.66805 0
M  V30 10380 O 983.791 1.69636 -0.95151 0
M  V30 10381 C 984.074 -0.674371 -3.53729 0
M  V30 10382 C 983.927 -2.16192 -3.94437 0
M  V30 10383 C 985.246 -0.124908 -4.39923 0
M  V30 10384 H 982.365 -0.163269 -0.718688 0
M  V30 10385 H 985.007 -1.06242 -1.5752 0
M  V30 10386 H 983.157 -0.149091 -3.88214 0
M  V30 10387 H 984.829 -2.75259 -3.70176 0
M  V30 10388 H 983.072 -2.64386 -3.43922 0
M  V30 10389 H 983.743 -2.27292 -5.03033 0
M  V30 10390 H 986.219 -0.573986 -4.12122 0
M  V30 10391 H 985.095 -0.314816 -5.47996 0
M  V30 10392 H 985.356 0.971758 -4.31288 0
M  V30 10393 N 984.415 1.45619 -0.602734 0
M  V30 10394 C 985.345 2.33258 0.106342 0
M  V30 10395 C 986.326 1.46543 0.863664 0
M  V30 10396 O 987.511 1.75324 0.835175 0
M  V30 10397 C 984.641 3.29168 1.10751 0
M  V30 10398 C 983.595 4.25481 0.463717 0
M  V30 10399 C 982.921 5.11046 1.57278 0
M  V30 10400 C 984.221 5.18702 -0.61199 0
M  V30 10401 H 985.915 2.92795 -0.625423 0
M  V30 10402 H 983.461 1.40793 -0.302213 0
M  V30 10403 H 985.414 3.89346 1.61208 0
M  V30 10404 H 984.138 2.6778 1.8698 0
M  V30 10405 H 982.797 3.66595 -0.0199496 0
M  V30 10406 H 982.445 4.46029 2.32524 0
M  V30 10407 H 982.145 5.76286 1.14755 0
M  V30 10408 H 983.669 5.74091 2.07972 0
M  V30 10409 H 985.083 5.72979 -0.191686 0
M  V30 10410 H 983.48 5.92393 -0.958686 0
M  V30 10411 H 984.55 4.61424 -1.4905 0
M  V30 10412 N 985.893 0.34162 1.53853 0
M  V30 10413 C 987.309 -0.0103769 1.59597 0
M  V30 10414 C 987.509 -1.48897 1.35764 0
M  V30 10415 O 986.565 -2.24743 1.15095 0
M  V30 10416 C 987.878 0.424067 2.97695 0
M  V30 10417 C 989.426 0.376247 3.1073 0
M  V30 10418 C 989.901 0.786129 4.51203 0
M  V30 10419 N 991.392 0.74024 4.57247 0
M  V30 10420 C 992.127 1.02937 5.64085 0
M  V30 10421 N 991.623 1.38655 6.78783 0
M  V30 10422 N 993.416 0.953734 5.5395 0
M  V30 10423 H 985.567 1.30477 1.67599 0
M  V30 10424 H 987.83 0.531753 0.78482 0
M  V30 10425 H 987.536 1.45493 3.20195 0
M  V30 10426 H 987.41 -0.201713 3.7666 0
M  V30 10427 H 989.797 -0.645441 2.87955 0
M  V30 10428 H 989.878 1.0372 2.33828 0
M  V30 10429 H 989.522 1.80582 4.74713 0
M  V30 10430 H 989.452 0.102671 5.265 0
M  V30 10431 H 991.943 0.476763 3.7488 0
M  V30 10432 H 992.256 1.59206 7.56223 0
M  V30 10433 H 990.601 1.42498 6.80235 0
M  V30 10434 H 993.792 0.674044 4.63222 0
M  V30 10435 H 993.965 1.18241 6.37121 0
M  V30 10436 N 987.371 -1.57444 0.0701946 0
M  V30 10437 C 988.318 -2.12631 -0.897599 0
M  V30 10438 C 989.288 -1.03841 -1.29639 0
M  V30 10439 O 990.473 -1.31495 -1.38253 0
M  V30 10440 C 987.613 -2.6911 -2.16041 0
M  V30 10441 C 986.726 -3.9205 -1.8144 0
M  V30 10442 C 985.861 -4.36778 -3.02321 0
M  V30 10443 C 984.9 -5.52371 -2.63729 0
M  V30 10444 N 984.037 -5.92065 -3.77364 0
M  V30 10445 H 988.877 -2.95024 -0.420104 0
M  V30 10446 H 986.414 -1.45792 -0.195716 0
M  V30 10447 H 988.372 -2.99963 -2.89962 0
M  V30 10448 H 987.002 -1.89484 -2.61334 0
M  V30 10449 H 986.054 -3.67669 -0.975896 0
M  V30 10450 H 987.366 -4.76011 -1.49046 0
M  V30 10451 H 986.52 -4.69285 -3.84521 0
M  V30 10452 H 985.259 -3.51668 -3.37907 0
M  V30 10453 H 984.264 -5.19517 -1.7995 0
M  V30 10454 H 985.489 -6.39212 -2.29315 0
M  V30 10455 H 983.435 -5.09904 -4.12715 0
M  V30 10456 H 983.352 -6.70762 -3.48733 0
M  V30 10457 H 984.62 -6.29193 -4.60148 0
M  V30 10458 N 988.849 0.203349 -1.56283 0
M  V30 10459 C 990.098 0.92315 -1.79334 0
M  V30 10460 C 990.411 1.84765 -0.641977 0
M  V30 10461 O 991.617 2.60745 -0.756584 0
M  V30 10462 C 990.073 1.69184 -3.17655 0
M  V30 10463 C 989.681 0.812581 -4.40569 0
M  V30 10464 C 991.425 2.40177 -3.50022 0
M  V30 10465 C 989.332 1.57967 -5.69913 0
M  V30 10466 H 988.262 0.348442 -0.668659 0
M  V30 10467 H 990.913 0.1766 -1.82648 0
M  V30 10468 H 989.295 2.48197 -3.08568 0
M  V30 10469 H 990.469 0.0616956 -4.60759 0
M  V30 10470 H 988.784 0.21389 -4.1585 0
M  V30 10471 H 991.381 2.98103 -4.4389 0
M  V30 10472 H 991.724 3.13961 -2.73376 0
M  V30 10473 H 992.257 1.68138 -3.6052 0
M  V30 10474 H 988.996 0.884767 -6.49501 0
M  V30 10475 H 988.516 2.3047 -5.53754 0
M  V30 10476 H 990.195 2.13562 -6.10737 0
M  V30 10477 N 990.327 1.50405 0.470755 0
M  V30 10478 C 991.29 1.68741 1.5511 0
M  V30 10479 C 992.29 0.558116 1.50804 0
M  V30 10480 O 993.48 0.825149 1.53418 0
M  V30 10481 C 990.612 1.71295 2.94739 0
M  V30 10482 H 991.805 2.65127 1.40169 0
M  V30 10483 H 989.358 1.39891 0.697156 0
M  V30 10484 H 990.093 0.766029 3.15123 0
M  V30 10485 H 989.878 2.53336 2.99271 0
M  V30 10486 H 991.368 1.87434 3.73173 0
M  V30 10487 N 991.805 -0.723954 1.39988 0
M  V30 10488 C 992.737 -1.84859 1.35498 0
M  V30 10489 C 993.75 -1.60681 0.261812 0
M  V30 10490 O 994.939 -1.7071 0.521566 0
M  V30 10491 C 992.039 -3.21103 1.08381 0
M  V30 10492 C 991.212 -3.72546 2.2919 0
M  V30 10493 C 990.271 -4.8738 1.9836 0
M  V30 10494 O 989.297 -5.00467 2.71149 0
M  V30 10495 N 990.499 -5.72566 0.956461 0
M  V30 10496 H 993.264 -1.89212 2.3242 0
M  V30 10497 H 990.825 -0.905152 1.34233 0
M  V30 10498 H 992.817 -3.9551 0.857564 0
M  V30 10499 H 991.387 -3.1195 0.201549 0
M  V30 10500 H 990.607 -2.89365 2.67697 0
M  V30 10501 H 991.895 -4.03652 3.09746 0
M  V30 10502 H 991.293 -5.64595 0.353444 0
M  V30 10503 H 989.85 -6.46993 0.790118 0
M  V30 10504 N 993.283 -1.25346 -0.955304 0
M  V30 10505 C 994.231 -1.05461 -2.07318 0
M  V30 10506 C 995.225 0.0142699 -1.69394 0
M  V30 10507 O 996.431 -0.141292 -1.79445 0
M  V30 10508 H 992.806 -0.324095 -0.678577 0
M  V30 10509 H 994.777 -2.00231 -2.21247 0
M  V30 10510 C 993.526 -0.689329 -3.40798 0
M  V30 10511 H 992.849 -1.50362 -3.70447 0
M  V30 10512 H 994.289 -0.589883 -4.19877 0
M  V30 10513 C 992.748 0.604556 -3.31431 0
M  V30 10514 O 993.278 1.64686 -3.6639 0
M  V30 10515 N 991.484 0.589927 -2.84549 0
M  V30 10516 H 991.031 -0.258647 -2.56298 0
M  V30 10517 H 990.989 1.4558 -2.78664 0
M  V30 10518 N 994.761 1.15782 -1.06922 0
M  V30 10519 C 996.038 1.8253 -0.703 0
M  V30 10520 C 996.418 1.94733 0.814994 0
M  V30 10521 O 995.766 1.49537 1.72774 0
M  V30 10522 C 995.976 3.19145 -1.41234 0
M  V30 10523 C 997.324 3.94839 -1.56164 0
M  V30 10524 O 998.348 3.28685 -1.37277 0
M  V30 10525 O 997.207 5.13436 -1.87205 0
M  V30 10526 H 994.301 0.788425 -0.24963 0
M  V30 10527 H 996.847 1.22931 -1.16988 0
M  V30 10528 H 995.619 3.05336 -2.44715 0
M  V30 10529 H 995.242 3.86427 -0.935959 0
M  V30 10530 N 996.239 0.8527 1.3254 0
M  V30 10531 C 997.189 0.267711 2.26423 0
M  V30 10532 C 998.173 -0.585305 1.49877 0
M  V30 10533 O 999.365 -0.435008 1.71571 0
M  V30 10534 C 996.494 -0.544605 3.38953 0
M  V30 10535 C 995.58 0.32069 4.22886 0
M  V30 10536 N 995.971 1.40601 4.85865 0
M  V30 10537 C 994.269 0.110101 4.45864 0
M  V30 10538 C 994.97 1.93819 5.48461 0
M  V30 10539 N 993.946 1.23764 5.29324 0
M  V30 10540 H 997.748 1.09747 2.7264 0
M  V30 10541 H 995.262 0.698607 1.46606 0
M  V30 10542 H 997.259 -0.98009 4.05216 0
M  V30 10543 H 995.919 -1.37218 2.94281 0
M  V30 10544 H 996.93 1.78894 4.86022 0
M  V30 10545 H 993.607 -0.682917 4.11877 0
M  V30 10546 H 994.997 2.84783 6.08562 0
M  V30 10547 N 997.718 -1.45297 0.610449 0
M  V30 10548 C 998.995 -1.95562 0.0386189 0
M  V30 10549 C 999.375 -1.55284 -1.43004 0
M  V30 10550 O 998.723 -0.816785 -2.13403 0
M  V30 10551 C 998.933 -3.48176 0.239731 0
M  V30 10552 C 1000.28 -4.24425 0.122035 0
M  V30 10553 O 1001.3 -3.55794 0.170003 0
M  V30 10554 O 1000.16 -5.46499 0.00953695 0
M  V30 10555 H 997.258 -0.826296 -0.0341081 0
M  V30 10556 H 999.804 -1.55449 0.68071 0
M  V30 10557 H 998.576 -3.70471 1.25963 0
M  V30 10558 H 998.199 -3.95186 -0.437486 0
M  V30 10559 N 999.196 -0.349774 -1.5367 0
M  V30 10560 C 1000.13 0.496338 -2.28164 0
M  V30 10561 C 1001.11 1.09737 -1.29968 0
M  V30 10562 O 1002.29 1.11759 -1.58819 0
M  V30 10563 C 999.422 1.64428 -3.0591 0
M  V30 10564 C 998.376 1.17127 -4.11661 0
M  V30 10565 C 997.702 2.40822 -4.77398 0
M  V30 10566 C 999.002 0.267293 -5.21616 0
M  V30 10567 H 1000.7 -0.125117 -2.99138 0
M  V30 10568 H 998.242 -0.0616152 -1.43868 0
M  V30 10569 H 1000.19 2.2427 -3.56765 0
M  V30 10570 H 998.919 2.29272 -2.32598 0
M  V30 10571 H 997.578 0.595634 -3.61729 0
M  V30 10572 H 997.226 3.04088 -4.00674 0
M  V30 10573 H 996.926 2.09852 -5.48849 0
M  V30 10574 H 998.45 3.01378 -5.3104 0
M  V30 10575 H 999.864 0.772734 -5.68068 0
M  V30 10576 H 998.261 0.0491991 -6.0008 0
M  V30 10577 H 999.331 -0.694892 -4.79895 0
M  V30 10578 N 1000.67 1.57404 -0.0785433 0
M  V30 10579 C 1001.92 1.93361 0.58786 0
M  V30 10580 C 1002.24 0.959856 1.6974 0
M  V30 10581 O 1001.51 0.0091173 1.95898 0
M  V30 10582 H 1000.09 0.713825 0.220141 0
M  V30 10583 H 1002.75 1.94411 -0.137986 0
M  V30 10584 H 1001.85 2.95346 1.00881 0
M  V30 10585 N 1002.15 -0.195058 1.56388 0
M  V30 10586 C 1003.43 -0.941335 1.71459 0
M  V30 10587 C 1003.81 -2.01375 0.633336 0
M  V30 10588 O 1003.16 -2.25715 -0.35567 0
M  V30 10589 C 1003.37 -1.52772 3.13786 0
M  V30 10590 C 1004.71 -2.00983 3.7402 0
M  V30 10591 O 1005.74 -1.62614 3.16915 0
M  V30 10592 O 1004.6 -2.71586 4.7424 0
M  V30 10593 H 1001.69 -0.441451 0.699321 0
M  V30 10594 H 1004.24 -0.184752 1.68691 0
M  V30 10595 H 1003.01 -0.754699 3.83953 0
M  V30 10596 H 1002.63 -2.34914 3.20782 0
M  V30 10597 N 1003.63 -1.50653 -0.462772 0
M  V30 10598 C 1004.56 -1.64773 -1.57877 0
M  V30 10599 C 1005.54 -0.495664 -1.54861 0
M  V30 10600 O 1006.72 -0.716248 -1.74362 0
M  V30 10601 C 1003.85 -1.63796 -2.9646 0
M  V30 10602 C 1002.9 -2.84663 -3.17599 0
M  V30 10603 S 1003.73 -4.45852 -2.96608 0
M  V30 10604 C 1004.89 -4.47581 -4.37518 0
M  V30 10605 H 1005.12 -2.59172 -1.45661 0
M  V30 10606 H 1002.65 -1.40019 -0.650699 0
M  V30 10607 H 1004.61 -1.63918 -3.76353 0
M  V30 10608 H 1003.27 -0.706185 -3.06059 0
M  V30 10609 H 1002.46 -2.80308 -4.1886 0
M  V30 10610 H 1002.07 -2.82152 -2.45492 0
M  V30 10611 H 1004.36 -4.21656 -5.30295 0
M  V30 10612 H 1005.3 -5.49248 -4.46914 0
M  V30 10613 H 1005.71 -3.7719 -4.19985 0
M  V30 10614 N 1005.11 0.71652 -1.4037 0
M  V30 10615 C 1006.33 1.51069 -1.42102 0
M  V30 10616 C 1006.76 1.88087 -0.0222387 0
M  V30 10617 O 1006.12 1.53204 0.969448 0
M  V30 10618 C 1006.16 2.76307 -2.31704 0
M  V30 10619 O 1005.27 3.72975 -1.75964 0
M  V30 10620 H 1004.61 0.455502 -0.483129 0
M  V30 10621 H 1007.14 0.882514 -1.84588 0
M  V30 10622 H 1007.15 3.24846 -2.46859 0
M  V30 10623 H 1005.82 2.48698 -3.3335 0
M  V30 10624 H 1004.4 3.31818 -1.70151 0
M  V30 10625 N 1006.59 1.25851 0.948643 0
M  V30 10626 C 1007.81 1.13711 1.72851 0
M  V30 10627 C 1008.23 -0.308471 1.86263 0
M  V30 10628 O 1007.59 -1.21175 1.36465 0
M  V30 10629 C 1007.64 1.79271 3.13918 0
M  V30 10630 O 1007.36 3.18179 3.01154 0
M  V30 10631 C 1008.86 1.72988 4.08154 0
M  V30 10632 H 1006.08 0.396334 0.541443 0
M  V30 10633 H 1008.62 1.66329 1.18974 0
M  V30 10634 H 1006.78 1.30609 3.64719 0
M  V30 10635 H 1007.19 3.50507 3.90186 0
M  V30 10636 H 1008.67 2.2351 5.04725 0
M  V30 10637 H 1009.14 0.694866 4.33668 0
M  V30 10638 H 1009.75 2.21166 3.63271 0
M  V30 10639 N 1008.06 -1.15214 1.07534 0
M  V30 10640 C 1009.31 -1.86319 0.800814 0
M  V30 10641 C 1009.64 -1.82221 -0.671494 0
M  V30 10642 O 1008.92 -1.24664 -1.49295 0
M  V30 10643 C 1009.2 -3.35347 1.31203 0
M  V30 10644 C 1009.05 -3.48067 2.84902 0
M  V30 10645 C 1010.37 -4.3016 0.930064 0
M  V30 10646 H 1007.49 -0.676523 0.292379 0
M  V30 10647 H 1010.13 -1.35349 1.33344 0
M  V30 10648 H 1008.28 -3.78886 0.858949 0
M  V30 10649 H 1009.96 -3.13379 3.38514 0
M  V30 10650 H 1008.2 -2.89566 3.23008 0
M  V30 10651 H 1008.87 -4.52782 3.15741 0
M  V30 10652 H 1011.35 -3.94591 1.3205 0
M  V30 10653 H 1010.22 -5.32914 1.31507 0
M  V30 10654 H 1010.48 -4.41796 -0.163824 0
M  V30 10655 N 1009.54 -0.859717 -1.32086 0
M  V30 10656 C 1010.51 -0.313005 -2.27053 0
M  V30 10657 C 1011.51 0.530191 -1.51808 0
M  V30 10658 O 1012.7 0.340972 -1.7083 0
M  V30 10659 C 1009.83 0.5566 -3.36325 0
M  V30 10660 H 1011.02 -1.15125 -2.76923 0
M  V30 10661 H 1008.57 -0.634463 -1.42843 0
M  V30 10662 H 1009.31 1.41645 -2.91731 0
M  V30 10663 H 1009.09 -0.0470197 -3.92072 0
M  V30 10664 H 1010.58 0.931725 -4.07073 0
M  V30 10665 N 1011.02 1.44971 -0.618145 0
M  V30 10666 C 1012.3 1.95539 -0.0489895 0
M  V30 10667 C 1012.68 1.5604 1.42179 0
M  V30 10668 O 1012.03 0.82809 2.12967 0
M  V30 10669 C 1012.24 3.48044 -0.258193 0
M  V30 10670 C 1013.58 4.24354 -0.144541 0
M  V30 10671 O 1014.61 3.55699 -0.18887 0
M  V30 10672 O 1013.47 5.46486 -0.038519 0
M  V30 10673 H 1010.56 0.826466 0.0297256 0
M  V30 10674 H 1013.11 1.55086 -0.688944 0
M  V30 10675 H 1011.88 3.69798 -1.27926 0
M  V30 10676 H 1011.5 3.95412 0.416522 0
M  V30 10677 N 1012.5 0.357919 1.53482 0
M  V30 10678 C 1013.91 -0.122938 1.86295 0
M  V30 10679 C 1014.26 -1.48803 1.27875 0
M  V30 10680 O 1013.39 -2.07978 0.597828 0
M  V30 10681 C 1013.98 -0.229853 3.38019 0
M  V30 10682 C 1012.54 -0.654955 3.70658 0
M  V30 10683 C 1011.69 0.202539 2.76559 0
M  V30 10684 H 1014.64 0.576997 1.47839 0
M  V30 10685 H 1014.66 -1.05481 3.65587 0
M  V30 10686 H 1014.17 0.763825 3.80509 0
M  V30 10687 H 1012.27 -1.65714 3.33721 0
M  V30 10688 H 1012.38 -0.43488 4.77122 0
M  V30 10689 H 1010.75 -0.327388 2.52587 0
M  V30 10690 H 1011.53 1.19361 3.21882 0
M  V30 10691 N 1013.98 -1.5736 0.0868897 0
M  V30 10692 C 1015.2 -1.98809 -0.590757 0
M  V30 10693 C 1015.63 -0.965407 -1.61436 0
M  V30 10694 O 1014.98 0.067143 -1.81176 0
M  V30 10695 C 1015.03 -3.39249 -1.22238 0
M  V30 10696 O 1014.14 -3.39706 -2.33824 0
M  V30 10697 H 1013.48 -0.64669 -0.150626 0
M  V30 10698 H 1016.01 -2.03927 0.165873 0
M  V30 10699 H 1016.02 -3.76765 -1.56564 0
M  V30 10700 H 1014.69 -4.13208 -0.472434 0
M  V30 10701 H 1013.27 -3.13977 -2.01178 0
M  V30 10702 N 1015.45 0.186762 -1.56489 0
M  V30 10703 C 1016.7 0.907194 -1.81378 0
M  V30 10704 C 1017.03 1.82558 -0.662283 0
M  V30 10705 O 1016.31 1.91564 0.336699 0
M  V30 10706 C 1016.59 1.71624 -3.16571 0
M  V30 10707 C 1016.44 0.822009 -4.42225 0
M  V30 10708 C 1017.76 2.68713 -3.48542 0
M  V30 10709 H 1014.88 0.328366 -0.659806 0
M  V30 10710 H 1017.52 0.174142 -1.892 0
M  V30 10711 H 1015.67 2.34119 -3.10033 0
M  V30 10712 H 1017.35 0.211122 -4.60817 0
M  V30 10713 H 1015.59 0.129178 -4.33608 0
M  V30 10714 H 1016.26 1.42326 -5.33336 0
M  V30 10715 H 1018.74 2.16348 -3.55433 0
M  V30 10716 H 1017.61 3.22397 -4.44242 0
M  V30 10717 H 1017.87 3.48165 -2.72459 0
M  V30 10718 N 1016.93 1.50896 0.454776 0
M  V30 10719 C 1018.18 1.61936 1.20248 0
M  V30 10720 C 1018.49 0.332983 1.92745 0
M  V30 10721 O 1019.7 0.322512 2.69578 0
M  V30 10722 C 1018.16 2.85916 2.18587 0
M  V30 10723 C 1017.76 4.21492 1.51818 0
M  V30 10724 C 1019.51 3.06307 2.93898 0
M  V30 10725 C 1017.42 5.3664 2.48539 0
M  V30 10726 H 1016.35 0.603098 0.452536 0
M  V30 10727 H 1019 1.77345 0.471257 0
M  V30 10728 H 1017.38 2.64101 2.95071 0
M  V30 10729 H 1018.55 4.53623 0.810123 0
M  V30 10730 H 1016.87 4.06837 0.887265 0
M  V30 10731 H 1019.46 3.89507 3.66317 0
M  V30 10732 H 1019.81 2.18683 3.54236 0
M  V30 10733 H 1020.34 3.2838 2.24525 0
M  V30 10734 H 1017.08 6.26469 1.92916 0
M  V30 10735 H 1016.6 5.08907 3.17449 0
M  V30 10736 H 1018.28 5.67881 3.10033 0
M  V30 10737 N 1018.41 -0.709066 1.40748 0
M  V30 10738 C 1019.64 -1.50313 1.42901 0
M  V30 10739 C 1020.06 -1.88072 0.032213 0
M  V30 10740 O 1019.42 -1.53716 -0.96131 0
M  V30 10741 C 1019.47 -2.75074 2.33166 0
M  V30 10742 O 1018.57 -3.72036 1.7794 0
M  V30 10743 H 1017.91 -0.452934 0.485538 0
M  V30 10744 H 1020.44 -0.872712 1.85054 0
M  V30 10745 H 1020.45 -3.23532 2.48578 0
M  V30 10746 H 1019.13 -2.46927 3.34664 0
M  V30 10747 H 1017.7 -3.30911 1.71908 0
M  V30 10748 N 1019.89 -1.26353 -0.941956 0
M  V30 10749 C 1020.84 -1.04513 -2.02635 0
M  V30 10750 C 1021.82 0.0222314 -1.60885 0
M  V30 10751 O 1023.02 -0.194629 -1.75927 0
M  V30 10752 C 1020.14 -0.679282 -3.36512 0
M  V30 10753 C 1019.23 -1.78406 -3.8475 0
M  V30 10754 N 1019.62 -3.02136 -4.05645 0
M  V30 10755 C 1017.92 -1.66748 -4.13656 0
M  V30 10756 C 1018.62 -3.73932 -4.45589 0
M  V30 10757 N 1017.6 -3.01616 -4.52248 0
M  V30 10758 H 1021.4 -1.9843 -2.16801 0
M  V30 10759 H 1018.91 -1.16858 -1.12774 0
M  V30 10760 H 1020.91 -0.503975 -4.13843 0
M  V30 10761 H 1019.57 0.252418 -3.23717 0
M  V30 10762 H 1020.58 -3.38049 -3.92356 0
M  V30 10763 H 1017.26 -0.805627 -4.09653 0
M  V30 10764 H 1018.65 -4.80201 -4.69954 0
M  V30 10765 N 1021.37 1.14642 -1.08144 0
M  V30 10766 C 1022.3 2.21775 -0.730609 0
M  V30 10767 C 1023.28 1.67683 0.285702 0
M  V30 10768 O 1024.46 1.93567 0.156667 0
M  V30 10769 C 1021.59 3.47033 -0.136242 0
M  V30 10770 C 1020.55 4.14134 -1.0806 0
M  V30 10771 C 1019.87 5.33563 -0.348585 0
M  V30 10772 C 1021.17 4.62978 -2.41761 0
M  V30 10773 H 1022.87 2.51378 -1.62633 0
M  V30 10774 H 1020.41 1.20825 -0.783411 0
M  V30 10775 H 1022.37 4.21226 0.121182 0
M  V30 10776 H 1021.09 3.16786 0.7946 0
M  V30 10777 H 1019.75 3.41892 -1.32308 0
M  V30 10778 H 1019.4 4.99575 0.585974 0
M  V30 10779 H 1019.1 5.79402 -0.978122 0
M  V30 10780 H 1020.62 6.10519 -0.0991508 0
M  V30 10781 H 1022.04 5.28659 -2.21795 0
M  V30 10782 H 1020.43 5.1951 -3.00383 0
M  V30 10783 H 1021.5 3.78189 -3.03482 0
M  V30 10784 N 1022.85 0.866709 1.31628 0
M  V30 10785 C 1024.09 0.476026 1.96825 0
M  V30 10786 C 1024.42 -0.970994 1.68529 0
M  V30 10787 O 1023.68 -1.69823 0.97255 0
M  V30 10788 C 1023.97 0.676018 3.50948 0
M  V30 10789 C 1023.64 2.09533 3.99258 0
M  V30 10790 C 1022.3 2.48349 4.1216 0
M  V30 10791 C 1024.65 3.02112 4.24709 0
M  V30 10792 C 1021.98 3.78991 4.47864 0
M  V30 10793 C 1024.33 4.32266 4.61875 0
M  V30 10794 C 1023 4.71 4.72985 0
M  V30 10795 H 1022.27 0.17419 0.720235 0
M  V30 10796 H 1024.92 1.09907 1.5682 0
M  V30 10797 H 1023.22 -0.0301867 3.91788 0
M  V30 10798 H 1024.92 0.353604 3.99438 0
M  V30 10799 H 1021.51 1.78396 3.89709 0
M  V30 10800 H 1025.69 2.73351 4.14238 0
M  V30 10801 H 1020.95 4.08769 4.54663 0
M  V30 10802 H 1025.12 5.04055 4.80522 0
M  V30 10803 H 1022.75 5.72273 5.00407 0
M  V30 10804 N 1024.32 -1.44642 0.625825 0
M  V30 10805 C 1025.55 -2.06971 0.133373 0
M  V30 10806 C 1025.97 -1.46421 -1.18078 0
M  V30 10807 O 1025.33 -0.563676 -1.72315 0
M  V30 10808 C 1025.38 -3.6059 0.0265097 0
M  V30 10809 O 1024.48 -3.99615 -1.01889 0
M  V30 10810 H 1023.82 -0.658873 0.0823568 0
M  V30 10811 H 1026.35 -1.85601 0.861002 0
M  V30 10812 H 1026.36 -4.07663 -0.1658 0
M  V30 10813 H 1025.04 -4.04043 0.985986 0
M  V30 10814 H 1023.62 -3.64183 -0.801577 0
M  V30 10815 N 1025.8 -0.366053 -1.5329 0
M  V30 10816 C 1026.75 0.496656 -2.22525 0
M  V30 10817 C 1027.74 1.0483 -1.22063 0
M  V30 10818 O 1028.93 0.978266 -1.47509 0
M  V30 10819 C 1026.06 1.63559 -3.01833 0
M  V30 10820 C 1025.14 1.0968 -4.09672 0
M  V30 10821 N 1025.53 0.28104 -5.05019 0
M  V30 10822 C 1023.83 1.37157 -4.24387 0
M  V30 10823 C 1024.53 -0.0140071 -5.81698 0
M  V30 10824 N 1023.51 0.583743 -5.40457 0
M  V30 10825 H 1027.31 -0.133408 -2.93597 0
M  V30 10826 H 1024.82 -0.174095 -1.61464 0
M  V30 10827 H 1026.82 2.26582 -3.49952 0
M  V30 10828 H 1025.48 2.26871 -2.32292 0
M  V30 10829 H 1026.49 -0.0797947 -5.17839 0
M  V30 10830 H 1023.17 2.00743 -3.66072 0
M  V30 10831 H 1024.56 -0.673508 -6.68516 0
M  V30 10832 N 1027.28 1.57312 -0.0952337 0
M  V30 10833 C 1028.7 1.57445 0.261416 0
M  V30 10834 C 1028.9 1.10639 1.68408 0
M  V30 10835 O 1027.95 0.782912 2.40056 0
M  V30 10836 C 1029.26 3.00659 0.0497206 0
M  V30 10837 C 1030.81 3.1278 0.117459 0
M  V30 10838 C 1031.29 4.57952 -0.0662441 0
M  V30 10839 N 1032.78 4.63199 -0.0114146 0
M  V30 10840 C 1033.51 5.73255 -0.128799 0
M  V30 10841 N 1033.01 6.92146 -0.301026 0
M  V30 10842 N 1034.8 5.62056 -0.0700599 0
M  V30 10843 H 1026.95 1.86045 -1.02475 0
M  V30 10844 H 1029.22 0.858726 -0.401614 0
M  V30 10845 H 1028.92 3.39102 -0.932888 0
M  V30 10846 H 1028.8 3.68792 0.791975 0
M  V30 10847 H 1031.18 2.74209 1.09057 0
M  V30 10848 H 1031.26 2.47238 -0.656288 0
M  V30 10849 H 1030.91 4.97217 -1.03623 0
M  V30 10850 H 1030.84 5.21555 0.727198 0
M  V30 10851 H 1033.33 3.77712 0.119154 0
M  V30 10852 H 1033.64 7.71855 -0.382104 0
M  V30 10853 H 1031.99 6.94184 -0.336695 0
M  V30 10854 H 1035.18 4.68057 0.0633587 0
M  V30 10855 H 1035.35 6.4779 -0.164991 0
M  V30 10856 N 1028.76 -0.17846 1.56586 0
M  V30 10857 C 1030 -0.90281 1.83381 0
M  V30 10858 C 1030.36 -1.79738 0.675139 0
M  V30 10859 O 1031.56 -2.55879 0.823368 0
M  V30 10860 C 1029.83 -1.68353 3.15265 0
M  V30 10861 S 1031.39 -2.45762 3.6352 0
M  V30 10862 H 1028.21 -0.302508 0.643436 0
M  V30 10863 H 1030.81 -0.164961 1.94803 0
M  V30 10864 H 1029.52 -1.01725 3.97593 0
M  V30 10865 H 1029.05 -2.46289 3.06766 0
M  V30 10866 H 1031.06 -3.70312 3.30278 0
M  V30 10867 N 1030.24 -1.51135 -0.446768 0
M  V30 10868 C 1031.17 -1.74709 -1.54916 0
M  V30 10869 C 1032.15 -0.596628 -1.59293 0
M  V30 10870 O 1033.33 -0.838356 -1.75172 0
M  V30 10871 C 1030.46 -1.86353 -2.9307 0
M  V30 10872 C 1029.42 -3.01725 -3.03556 0
M  V30 10873 C 1028.74 -2.9854 -4.43597 0
M  V30 10874 C 1030.04 -4.41848 -2.7851 0
M  V30 10875 H 1031.74 -2.67014 -1.3544 0
M  V30 10876 H 1029.28 -1.28489 -0.650131 0
M  V30 10877 H 1031.23 -2.01428 -3.70141 0
M  V30 10878 H 1029.96 -0.906887 -3.13756 0
M  V30 10879 H 1028.62 -2.86339 -2.28922 0
M  V30 10880 H 1028.27 -2.00673 -4.61237 0
M  V30 10881 H 1027.97 -3.76008 -4.51544 0
M  V30 10882 H 1029.49 -3.15696 -5.22655 0
M  V30 10883 H 1030.9 -4.57633 -3.45319 0
M  V30 10884 H 1029.3 -5.2095 -2.97877 0
M  V30 10885 H 1030.37 -4.52536 -1.74182 0
M  V30 10886 N 1031.71 0.701592 -1.41122 0
M  V30 10887 C 1032.94 1.49049 -1.43499 0
M  V30 10888 C 1033.36 1.88761 -0.0385684 0
M  V30 10889 O 1032.71 1.56384 0.940755 0
M  V30 10890 C 1032.76 2.7569 -2.33832 0
M  V30 10891 O 1032.49 2.37653 -3.68039 0
M  V30 10892 C 1033.99 3.69479 -2.44949 0
M  V30 10893 H 1031.21 0.459519 -0.488961 0
M  V30 10894 H 1033.75 0.864318 -1.85337 0
M  V30 10895 H 1031.91 3.34559 -1.95318 0
M  V30 10896 H 1032.32 3.19241 -4.16156 0
M  V30 10897 H 1033.79 4.55139 -3.12334 0
M  V30 10898 H 1034.27 4.13553 -1.47887 0
M  V30 10899 H 1034.88 3.16517 -2.84072 0
M  V30 10900 N 1033.19 1.2685 0.935242 0
M  V30 10901 C 1034.44 1.12132 1.67658 0
M  V30 10902 C 1034.75 -0.333839 1.9273 0
M  V30 10903 O 1035.96 -0.601801 2.64746 0
M  V30 10904 C 1034.42 1.95873 3.0193 0
M  V30 10905 C 1034.02 3.46 2.84584 0
M  V30 10906 C 1035.77 1.89781 3.79715 0
M  V30 10907 C 1033.67 4.21966 4.14365 0
M  V30 10908 H 1032.6 0.416035 0.628833 0
M  V30 10909 H 1035.26 1.51209 1.03962 0
M  V30 10910 H 1033.64 1.49633 3.66641 0
M  V30 10911 H 1034.81 4.00049 2.28687 0
M  V30 10912 H 1033.13 3.53391 2.20236 0
M  V30 10913 H 1035.72 2.43819 4.75875 0
M  V30 10914 H 1036.07 0.869797 4.07112 0
M  V30 10915 H 1036.6 2.33875 3.21788 0
M  V30 10916 H 1033.34 5.2526 3.9215 0
M  V30 10917 H 1032.86 3.72696 4.69955 0
M  V30 10918 H 1034.54 4.30734 4.82781 0
M  V30 10919 N 1034.67 -1.14067 1.0875 0
M  V30 10920 C 1035.6 -2.18926 0.67852 0
M  V30 10921 C 1036.62 -1.60441 -0.276163 0
M  V30 10922 O 1037.8 -1.78388 -0.0632788 0
M  V30 10923 C 1034.9 -3.38893 -0.0218852 0
M  V30 10924 C 1034.08 -4.26901 0.952582 0
M  V30 10925 C 1033.14 -5.25418 0.286859 0
M  V30 10926 O 1032.16 -5.61512 0.932354 0
M  V30 10927 N 1033.36 -5.72476 -0.961831 0
M  V30 10928 H 1036.13 -2.54629 1.58063 0
M  V30 10929 H 1033.69 -1.29321 0.974042 0
M  V30 10930 H 1035.68 -4.01864 -0.478278 0
M  V30 10931 H 1034.25 -3.01486 -0.826141 0
M  V30 10932 H 1033.47 -3.60812 1.58772 0
M  V30 10933 H 1034.76 -4.82563 1.61279 0
M  V30 10934 H 1034.16 -5.45287 -1.50594 0
M  V30 10935 H 1032.72 -6.37418 -1.36166 0
M  V30 10936 O 1036.19 -1.00711 -1.26252 0
M  V30 10937 H 1036.88 -0.662989 -1.82 0
M  V30 END ATOM
M  V30 BEGIN BOND
M  V30 END BOND
M  V30 END CTAB
M  END
$$$$
