drugbank_target|O75116 Rho-associated protein kinase 2 (DB08162; DB08756; DB12010; DB13165; DB13931)
 OpenBabel12092120483D

  0  0  0     0  0            999 V3000
M  V30 BEGIN CTAB
M  V30 COUNTS 22587 22754 0 0 0
M  V30 BEGIN ATOM
M  V30 1 H -0.908 1.98254 -0.117106 0
M  V30 2 N 0 1.576 0 0
M  V30 3 C 0.933 2.03868 1.02534 0
M  V30 4 C 1.911 0.928543 1.3348 0
M  V30 5 O 3.095 1.19667 1.45644 0
M  V30 6 C 0.222 2.43627 2.35294 0
M  V30 7 C -0.732 3.65373 2.2001 0
M  V30 8 S 0.101 5.13292 1.52614 0
M  V30 9 C 1.257 5.56322 2.86805 0
M  V30 10 H 1.49 2.90518 0.631377 0
M  V30 11 H -0.977 1.52953 0.210867 0
M  V30 12 H 0.981 2.67203 3.11629 0
M  V30 13 H -0.358 1.57376 2.7183 0
M  V30 14 H -1.165 3.90944 3.18086 0
M  V30 15 H -1.563 3.418 1.51819 0
M  V30 16 H 0.729 5.58782 3.83104 0
M  V30 17 H 1.672 6.56266 2.65933 0
M  V30 18 H 2.08 4.83886 2.90714 0
M  V30 19 N 1.4781 -0.272755 1.55222 0
M  V30 20 C 2.7031 -1.02683 1.80197 0
M  V30 21 C 3.1281 -1.79142 0.573551 0
M  V30 22 O 2.4861 -1.74917 -0.476849 0
M  V30 23 C 2.5341 -1.9609 3.02624 0
M  V30 24 O 1.6381 -3.04863 2.77727 0
M  V30 25 H 0.9791 -0.293557 0.595584 0
M  V30 26 H 3.5091 -0.30159 2.02365 0
M  V30 27 H 3.5191 -2.38039 3.31363 0
M  V30 28 H 2.1941 -1.39851 3.91682 0
M  V30 29 H 0.7711 -2.67228 2.60084 0
M  V30 30 N 2.9562 -1.48159 -0.537278 0
M  V30 31 C 4.3722 -1.34118 -0.865129 0
M  V30 32 C 4.5722 -0.346678 -1.98495 0
M  V30 33 O 3.6282 0.234715 -2.51407 0
M  V30 34 C 4.9412 -2.73963 -1.23954 0
M  V30 35 C 6.4892 -2.82397 -1.34984 0
M  V30 36 C 6.9642 -4.22928 -1.75772 0
M  V30 37 N 8.4552 -4.25566 -1.82887 0
M  V30 38 C 9.1902 -5.31235 -2.15817 0
M  V30 39 N 8.6862 -6.47189 -2.47222 0
M  V30 40 N 10.4792 -5.18624 -2.16761 0
M  V30 41 H 2.6302 -2.1144 0.201715 0
M  V30 42 H 4.8932 -0.947598 0.0275949 0
M  V30 43 H 4.5992 -3.48264 -0.490381 0
M  V30 44 H 4.4732 -3.0702 -2.19132 0
M  V30 45 H 6.8602 -2.08356 -2.08978 0
M  V30 46 H 6.9412 -2.5297 -0.379448 0
M  V30 47 H 6.5852 -4.97482 -1.02341 0
M  V30 48 H 6.5152 -4.49794 -2.73848 0
M  V30 49 H 9.0062 -3.41924 -1.60924 0
M  V30 50 H 9.3192 -7.23564 -2.71433 0
M  V30 51 H 7.6642 -6.50476 -2.44757 0
M  V30 52 H 10.8552 -4.27056 -1.91679 0
M  V30 53 H 11.0282 -6.01078 -2.42093 0
M  V30 54 N 4.4343 0.785586 -1.36625 0
M  V30 55 C 5.8453 1.36101 -1.27803 0
M  V30 56 C 6.1963 1.96035 0.0804875 0
M  V30 57 O 5.3213 1.92834 0.982042 0
M  V30 58 C 5.9163 2.47442 -2.31426 0
M  V30 59 C 4.4753 3.00789 -2.26281 0
M  V30 60 C 3.6223 1.73896 -2.15999 0
M  V30 61 H 6.5733 0.586928 -1.47448 0
M  V30 62 H 6.5943 3.2656 -1.95291 0
M  V30 63 H 6.1063 2.03791 -3.30289 0
M  V30 64 H 4.2073 3.48851 -1.30896 0
M  V30 65 H 4.3203 3.57343 -3.19128 0
M  V30 66 H 2.6843 1.9628 -1.62316 0
M  V30 67 H 3.4673 1.32368 -3.16755 0
M  V30 68 N 5.9124 1.20967 1.01018 0
M  V30 69 C 7.3234 1.02319 1.56165 0
M  V30 70 C 7.6744 -0.418546 1.91684 0
M  V30 71 O 6.7994 -1.30096 1.72928 0
M  V30 72 C 7.3944 1.85109 2.8376 0
M  V30 73 C 5.9534 1.70809 3.35412 0
M  V30 74 C 5.1004 1.82643 2.08655 0
M  V30 75 H 8.0514 1.35065 0.833255 0
M  V30 76 H 8.0724 1.35827 3.55431 0
M  V30 77 H 7.5844 2.90035 2.57878 0
M  V30 78 H 5.6854 0.685464 3.66241 0
M  V30 79 H 5.7984 2.52467 4.07182 0
M  V30 80 H 4.1624 1.25896 2.21409 0
M  V30 81 H 4.9454 2.89066 1.85191 0
M  V30 82 N 7.3905 -1.2043 1.01659 0
M  V30 83 C 8.8015 -1.71517 0.737482 0
M  V30 84 C 9.1525 -1.81547 -0.743973 0
M  V30 85 O 8.2775 -1.47803 -1.58061 0
M  V30 86 C 8.8725 -3.11515 1.33206 0
M  V30 87 C 7.4315 -3.59912 1.10183 0
M  V30 88 C 6.5785 -2.37116 1.43776 0
M  V30 89 H 9.5295 -1.05444 1.18606 0
M  V30 90 H 9.5505 -3.73575 0.722636 0
M  V30 91 H 9.0625 -3.04182 2.41028 0
M  V30 92 H 7.1635 -3.72577 0.0412756 0
M  V30 93 H 7.2765 -4.44731 1.78188 0
M  V30 94 H 5.6405 -2.39857 0.856778 0
M  V30 95 H 6.4235 -2.32424 2.52654 0
M  V30 96 N 8.8686 -0.792821 -1.36206 0
M  V30 97 C 10.0966 -0.378825 -2.03402 0
M  V30 98 C 10.5116 1.00586 -1.59774 0
M  V30 99 O 9.8686 1.64574 -0.788764 0
M  V30 100 C 9.9196 -0.43683 -3.58851 0
M  V30 101 O 9.6406 -1.76691 -4.00889 0
M  V30 102 C 11.1416 -0.0138943 -4.43298 0
M  V30 103 H 8.3616 -0.155673 -0.652692 0
M  V30 104 H 10.9056 -1.07261 -1.74113 0
M  V30 105 H 9.0606 0.208575 -3.86838 0
M  V30 106 H 9.4746 -1.72011 -4.95492 0
M  V30 107 H 10.9486 -0.105615 -5.51899 0
M  V30 108 H 11.4256 1.03915 -4.2673 0
M  V30 109 H 12.0316 -0.63192 -4.20579 0
M  V30 110 N 10.3467 1.47872 -0.545128 0
M  V30 111 C 11.5947 2.02093 -0.016553 0
M  V30 112 C 11.9157 1.42305 1.3332 0
M  V30 113 O 11.1857 0.593853 1.86682 0
M  V30 114 H 9.7657 0.746993 -0.00313038 0
M  V30 115 H 12.4277 1.81414 -0.712397 0
M  V30 116 H 11.5237 3.11996 0.0805422 0
M  V30 117 N 11.8248 0.280983 1.55075 0
M  V30 118 C 12.7718 -0.603937 2.22758 0
M  V30 119 C 13.7418 -1.1452 1.20309 0
M  V30 120 O 14.9268 -1.19343 1.48869 0
M  V30 121 C 12.0668 -1.77947 2.95684 0
M  V30 122 C 11.1798 -1.2715 4.12864 0
M  V30 123 C 10.3148 -2.4093 4.7342 0
M  V30 124 C 9.3538 -1.87165 5.82783 0
M  V30 125 N 8.4908 -2.94441 6.37377 0
M  V30 126 H 13.3308 -0.020124 2.97993 0
M  V30 127 H 10.8678 0.00183425 1.471 0
M  V30 128 H 12.8258 -2.47055 3.36184 0
M  V30 129 H 11.4558 -2.33522 2.22861 0
M  V30 130 H 10.5078 -0.473331 3.77444 0
M  V30 131 H 11.8198 -0.837751 4.91715 0
M  V30 132 H 10.9738 -3.18021 5.1667 0
M  V30 133 H 9.7128 -2.87623 3.93859 0
M  V30 134 H 8.7178 -1.08556 5.38976 0
M  V30 135 H 9.9428 -1.41401 6.64216 0
M  V30 136 H 7.8888 -3.40505 5.60707 0
M  V30 137 H 7.8058 -2.55501 7.11516 0
M  V30 138 H 9.0738 -3.71489 6.85285 0
M  V30 139 N 13.3029 -1.57598 0.00835791 0
M  V30 140 C 14.2359 -2.04409 -1.01451 0
M  V30 141 C 15.2139 -0.935609 -1.32985 0
M  V30 142 O 16.3979 -1.20437 -1.45007 0
M  V30 143 C 13.5249 -2.44872 -2.33999 0
M  V30 144 C 12.5709 -3.66535 -2.18069 0
M  V30 145 S 13.4039 -5.14095 -1.4989 0
M  V30 146 C 14.5599 -5.57835 -2.8385 0
M  V30 147 H 14.7929 -2.90849 -0.615961 0
M  V30 148 H 12.3259 -1.53063 -0.202752 0
M  V30 149 H 14.2839 -2.68852 -3.10208 0
M  V30 150 H 12.9449 -1.58815 -2.70992 0
M  V30 151 H 12.1379 -3.92626 -3.16008 0
M  V30 152 H 11.7399 -3.426 -1.50004 0
M  V30 153 H 14.0319 -5.60806 -3.80136 0
M  V30 154 H 14.9749 -6.57667 -2.62449 0
M  V30 155 H 15.3829 -4.85421 -2.88144 0
M  V30 156 N 14.781 0.264519 -1.55364 0
M  V30 157 C 16.192 0.834936 -1.6699 0
M  V30 158 C 16.543 1.86718 -0.602552 0
M  V30 159 O 15.668 2.14899 0.254425 0
M  V30 160 C 16.263 1.5212 -3.02729 0
M  V30 161 C 14.822 2.03954 -3.16354 0
M  V30 162 C 13.969 0.884498 -2.62815 0
M  V30 163 H 16.92 0.0406869 -1.58648 0
M  V30 164 H 16.941 2.38853 -2.96191 0
M  V30 165 H 16.453 0.769668 -3.80392 0
M  V30 166 H 14.554 2.82041 -2.43482 0
M  V30 167 H 14.667 2.24902 -4.23032 0
M  V30 168 H 13.031 1.2802 -2.20188 0
M  V30 169 H 13.814 0.14634 -3.42988 0
M  V30 170 N 16.2591 1.48442 0.529413 0
M  V30 171 C 17.5071 1.56179 1.28267 0
M  V30 172 C 17.8281 0.237721 1.93546 0
M  V30 173 O 17.0981 -0.740779 1.81354 0
M  V30 174 H 15.6781 0.575367 0.476405 0
M  V30 175 H 18.3401 1.84909 0.61602 0
M  V30 176 H 17.4361 2.34312 2.06165 0
M  V30 177 N 17.7372 -0.778329 1.37039 0
M  V30 178 C 18.7002 -1.87301 1.32102 0
M  V30 179 C 19.7002 -1.59198 0.226405 0
M  V30 180 O 20.8902 -1.67403 0.481861 0
M  V30 181 C 18.0222 -3.24309 1.05055 0
M  V30 182 H 19.2152 -1.93093 2.29467 0
M  V30 183 H 16.7682 -0.977358 1.21973 0
M  V30 184 H 17.5032 -3.24196 0.0819373 0
M  V30 185 H 17.2882 -3.46098 1.84279 0
M  V30 186 H 18.7782 -4.04382 1.04234 0
M  V30 187 N 19.2153 -1.21501 -1.00376 0
M  V30 188 C 20.6263 -1.03146 -1.55621 0
M  V30 189 C 20.9773 0.408375 -1.91903 0
M  V30 190 O 20.1023 1.29177 -1.73616 0
M  V30 191 C 20.6973 -1.86612 -2.82775 0
M  V30 192 C 19.2563 -1.72586 -3.34501 0
M  V30 193 C 18.4033 -1.83747 -2.07683 0
M  V30 194 H 21.3543 -1.35505 -0.826081 0
M  V30 195 H 21.3753 -1.3771 -3.54706 0
M  V30 196 H 20.8873 -2.91399 -2.56336 0
M  V30 197 H 18.9883 -0.704877 -3.65872 0
M  V30 198 H 19.1013 -2.54623 -4.05837 0
M  V30 199 H 17.4653 -1.27069 -2.20739 0
M  V30 200 H 18.2483 -2.90044 -1.83655 0
M  V30 201 N 20.6934 1.19889 -1.02296 0
M  V30 202 C 21.6034 2.26571 -0.608508 0
M  V30 203 C 22.6194 1.70299 0.356964 0
M  V30 204 O 23.7954 2.00235 0.216326 0
M  V30 205 C 20.8604 3.46677 0.0402814 0
M  V30 206 C 19.9214 4.18153 -0.97194 0
M  V30 207 C 19.1544 5.32525 -0.354016 0
M  V30 208 O 19.3774 5.64112 0.844604 0
M  V30 209 O 18.3114 5.92242 -1.07391 0
M  V30 210 H 22.1374 2.64251 -1.49684 0
M  V30 211 H 19.7224 1.26629 -0.792809 0
M  V30 212 H 21.6044 4.19475 0.402324 0
M  V30 213 H 20.2794 3.10858 0.902707 0
M  V30 214 H 19.1864 3.47499 -1.38546 0
M  V30 215 H 20.5194 4.57927 -1.80454 0
M  V30 216 N 22.1715 0.800033 1.35784 0
M  V30 217 C 23.3995 0.389606 2.03199 0
M  V30 218 C 23.8145 -0.997375 1.60306 0
M  V30 219 O 23.1715 -1.64154 0.797481 0
M  V30 220 C 23.2225 0.455855 3.58614 0
M  V30 221 O 22.9435 1.78815 3.99946 0
M  V30 222 C 24.4445 0.0374032 4.43284 0
M  V30 223 H 21.6645 0.159132 0.651857 0
M  V30 224 H 24.2085 1.08183 1.73541 0
M  V30 225 H 22.3635 -0.188057 3.86943 0
M  V30 226 H 22.7775 1.74636 4.94573 0
M  V30 227 H 24.2515 0.134882 5.51835 0
M  V30 228 H 24.7285 -1.01651 4.27275 0
M  V30 229 H 25.3345 0.654215 4.20238 0
M  V30 230 N 23.6496 -1.47581 0.552962 0
M  V30 231 C 24.6126 -2.28439 -0.186605 0
M  V30 232 C 25.6126 -1.36706 -0.84665 0
M  V30 233 O 26.8026 -1.59378 -0.703164 0
M  V30 234 C 23.9346 -3.16264 -1.2724 0
M  V30 235 H 25.1276 -2.95294 0.523609 0
M  V30 236 H 22.6806 -1.532 0.309745 0
M  V30 237 H 23.4156 -2.54091 -2.01514 0
M  V30 238 H 23.2006 -3.83769 -0.803968 0
M  V30 239 H 24.6906 -3.77198 -1.79196 0
M  V30 240 N 25.1277 -0.289203 -1.54924 0
M  V30 241 C 26.5387 0.205791 -1.85562 0
M  V30 242 C 26.8897 1.54351 -1.2112 0
M  V30 243 O 26.0147 2.10435 -0.504601 0
M  V30 244 C 26.6097 0.380177 -3.3666 0
M  V30 245 C 25.1687 0.819395 -3.67373 0
M  V30 246 C 24.3157 -0.079159 -2.77187 0
M  V30 247 H 27.2667 -0.510577 -1.50262 0
M  V30 248 H 27.2877 1.21659 -3.60526 0
M  V30 249 H 26.7997 -0.593589 -3.83534 0
M  V30 250 H 24.9007 1.80413 -3.26009 0
M  V30 251 H 25.0137 0.646957 -4.74712 0
M  V30 252 H 23.3777 0.439565 -2.50878 0
M  V30 253 H 24.1607 -1.04906 -3.26878 0
M  V30 254 N 26.6058 1.57591 -0.0167156 0
M  V30 255 C 27.8538 1.90906 0.663285 0
M  V30 256 C 28.1748 0.892509 1.73376 0
M  V30 257 O 27.4448 -0.0677623 1.95783 0
M  V30 258 H 26.0248 0.704637 0.247983 0
M  V30 259 H 28.6868 1.94803 -0.0615909 0
M  V30 260 H 27.7828 2.9116 1.12393 0
M  V30 261 N 28.0839 -0.256276 1.55502 0
M  V30 262 C 29.3609 -1.00789 1.67633 0
M  V30 263 C 29.7409 -2.03706 0.553826 0
M  V30 264 O 29.0889 -2.24145 -0.443969 0
M  V30 265 C 29.2989 -1.64968 3.07549 0
M  V30 266 C 30.6469 -2.15505 3.65845 0
M  V30 267 O 31.6709 -1.74925 3.1029 0
M  V30 268 O 30.5299 -2.89986 4.63217 0
M  V30 269 H 27.6239 -0.468553 0.681459 0
M  V30 270 H 30.1699 -0.250806 1.67836 0
M  V30 271 H 28.9419 -0.904785 3.80696 0
M  V30 272 H 28.5649 -2.47321 3.11317 0
M  V30 273 N 29.562 -1.4872 -0.521534 0
M  V30 274 C 30.81 -1.56857 -1.27437 0
M  V30 275 C 31.131 -0.247982 -1.93417 0
M  V30 276 O 30.401 0.731151 -1.81744 0
M  V30 277 H 28.981 -0.577885 -0.473347 0
M  V30 278 H 31.643 -1.85233 -0.606205 0
M  V30 279 H 30.739 -2.35402 -2.0492 0
M  V30 280 N 31.0401 0.771051 -1.3745 0
M  V30 281 C 32.0031 1.86598 -1.33093 0
M  V30 282 C 33.0031 1.59076 -0.234845 0
M  V30 283 O 34.1931 1.67145 -0.490732 0
M  V30 284 C 31.3251 3.23747 -1.06773 0
M  V30 285 H 32.5181 1.91873 -2.30488 0
M  V30 286 H 30.0711 0.970876 -1.2249 0
M  V30 287 H 30.8061 3.24148 -0.099129 0
M  V30 288 H 30.5911 3.45115 -1.86112 0
M  V30 289 H 32.0811 4.03824 -1.06377 0
M  V30 290 N 32.5182 1.22032 0.997298 0
M  V30 291 C 33.7662 1.04016 1.73278 0
M  V30 292 C 34.0872 -0.426255 1.90284 0
M  V30 293 O 33.3572 -1.30694 1.45931 0
M  V30 294 H 31.9372 0.381897 0.642 0
M  V30 295 H 34.5992 1.5347 1.20137 0
M  V30 296 H 33.6952 1.51441 2.72896 0
M  V30 297 N 33.9963 -1.19345 1.0293 0
M  V30 298 C 34.9593 -2.20793 0.615069 0
M  V30 299 C 35.9593 -1.57553 -0.321533 0
M  V30 300 O 37.1493 -1.73862 -0.108483 0
M  V30 301 C 34.2813 -3.40754 -0.0999222 0
M  V30 302 H 35.4743 -2.58955 1.51269 0
M  V30 303 H 33.0273 -1.3303 0.820534 0
M  V30 304 H 33.7623 -3.0811 -1.01187 0
M  V30 305 H 33.5473 -3.87889 0.57309 0
M  V30 306 H 35.0373 -4.15898 -0.376645 0
M  V30 307 N 35.4744 -0.807222 -1.35358 0
M  V30 308 C 36.6994 -0.399309 -2.0352 0
M  V30 309 C 37.1244 0.981986 -1.60433 0
M  V30 310 O 36.4824 1.63601 -0.781299 0
M  V30 311 C 36.5304 -0.491552 -3.57234 0
M  V30 312 O 35.6344 0.494754 -4.09421 0
M  V30 313 H 34.9754 -0.166682 -0.642739 0
M  V30 314 H 37.5054 -1.09328 -1.72941 0
M  V30 315 H 37.5154 -0.361588 -4.06395 0
M  V30 316 H 36.1904 -1.49907 -3.87944 0
M  V30 317 H 34.7674 0.324977 -3.71481 0
M  V30 318 N 36.9525 1.47285 -0.560781 0
M  V30 319 C 38.3685 1.58065 -0.22081 0
M  V30 320 C 38.5685 1.55892 1.27671 0
M  V30 321 O 37.6245 1.46422 2.0571 0
M  V30 322 C 38.9375 2.88418 -0.850625 0
M  V30 323 C 40.4855 3.02009 -0.822184 0
M  V30 324 C 40.9605 4.35066 -1.43113 0
M  V30 325 N 42.4515 4.41711 -1.39448 0
M  V30 326 C 43.1865 5.43237 -1.83525 0
M  V30 327 N 42.6825 6.51555 -2.35474 0
M  V30 328 N 44.4755 5.34304 -1.74574 0
M  V30 329 H 36.6265 1.46941 -1.53369 0
M  V30 330 H 38.8895 0.699558 -0.639783 0
M  V30 331 H 38.5955 2.95755 -1.9032 0
M  V30 332 H 38.4695 3.75612 -0.345773 0
M  V30 333 H 40.8565 2.94266 0.221714 0
M  V30 334 H 40.9375 2.16347 -1.36483 0
M  V30 335 H 40.5815 4.43565 -2.47412 0
M  V30 336 H 40.5115 5.19465 -0.863899 0
M  V30 337 H 43.0025 3.64027 -1.01452 0
M  V30 338 H 43.3155 7.25203 -2.67021 0
M  V30 339 H 41.6605 6.52435 -2.39487 0
M  V30 340 H 44.8515 4.48581 -1.33763 0
M  V30 341 H 45.0245 6.13288 -2.09242 0
M  V30 342 N 38.4306 0.297415 1.54768 0
M  V30 343 C 39.3626 -0.613881 2.20826 0
M  V30 344 C 40.3756 -1.10032 1.19987 0
M  V30 345 O 41.5646 -1.01839 1.46598 0
M  V30 346 C 38.6646 -1.852 2.83821 0
M  V30 347 C 37.8376 -1.50865 4.10559 0
M  V30 348 C 36.8966 -2.60154 4.57391 0
M  V30 349 O 35.9226 -2.25398 5.2267 0
M  V30 350 N 37.1246 -3.90629 4.29406 0
M  V30 351 H 39.8896 -0.048389 2.99661 0
M  V30 352 H 37.4506 0.11946 1.61459 0
M  V30 353 H 39.4426 -2.57652 3.12086 0
M  V30 354 H 38.0126 -2.32597 2.08847 0
M  V30 355 H 37.2326 -0.616925 3.89343 0
M  V30 356 H 38.5206 -1.25458 4.9309 0
M  V30 357 H 37.9186 -4.21677 3.77101 0
M  V30 358 H 36.4756 -4.59391 4.62388 0
M  V30 359 N 39.9087 -1.5758 0.0250728 0
M  V30 360 C 41.3247 -1.56124 -0.331282 0
M  V30 361 C 41.5247 -1.03029 -1.73169 0
M  V30 362 O 40.5807 -0.675215 -2.43305 0
M  V30 363 C 41.8937 -3.00139 -0.183584 0
M  V30 364 C 43.4417 -3.11946 -0.256654 0
M  V30 365 C 43.9167 -4.57793 -0.137792 0
M  V30 366 N 45.4077 -4.6279 -0.194904 0
M  V30 367 C 46.1427 -5.7326 -0.126655 0
M  V30 368 N 45.6387 -6.928 -0.00755288 0
M  V30 369 N 47.4317 -5.61811 -0.180348 0
M  V30 370 H 39.5827 -1.90424 0.94087 0
M  V30 371 H 41.8457 -0.875761 0.362968 0
M  V30 372 H 41.5517 -3.4292 0.780927 0
M  V30 373 H 41.4257 -3.64899 -0.955448 0
M  V30 374 H 43.8127 -2.69079 -1.21162 0
M  V30 375 H 43.8937 -2.49915 0.545517 0
M  V30 376 H 43.5377 -5.01339 0.813739 0
M  V30 377 H 43.4677 -5.17798 -0.958775 0
M  V30 378 H 45.9587 -3.76807 -0.287267 0
M  V30 379 H 46.2717 -7.72791 0.0379428 0
M  V30 380 H 44.6167 -6.94995 0.0271731 0
M  V30 381 H 47.8077 -4.6731 -0.271767 0
M  V30 382 H 47.9807 -6.47882 -0.123697 0
M  V30 383 N 41.3868 0.248026 -1.55636 0
M  V30 384 C 42.3338 1.30707 -1.90222 0
M  V30 385 C 43.3038 1.47881 -0.756332 0
M  V30 386 O 44.4888 1.61883 -1.00988 0
M  V30 387 C 41.6288 2.65769 -2.20138 0
M  V30 388 C 40.7418 2.56612 -3.47526 0
M  V30 389 C 39.8768 3.8402 -3.67017 0
M  V30 390 C 38.9158 3.69476 -4.8801 0
M  V30 391 N 38.0528 4.88774 -5.04029 0
M  V30 392 H 42.8928 1.00512 -2.80538 0
M  V30 393 H 40.4298 0.485055 -1.38873 0
M  V30 394 H 42.3878 3.44386 -2.35487 0
M  V30 395 H 41.0178 2.94115 -1.33027 0
M  V30 396 H 40.0698 1.69571 -3.40514 0
M  V30 397 H 41.3818 2.41774 -4.36287 0
M  V30 398 H 40.5358 4.7108 -3.8232 0
M  V30 399 H 39.2748 4.01754 -2.76487 0
M  V30 400 H 38.2798 2.80799 -4.72686 0
M  V30 401 H 39.5048 3.53238 -5.8 0
M  V30 402 H 37.4508 5.0687 -4.16435 0
M  V30 403 H 37.3678 4.76562 -5.86877 0
M  V30 404 H 38.6358 5.77335 -5.23741 0
M  V30 405 N 42.8649 1.48995 0.513639 0
M  V30 406 C 43.7949 1.67636 1.62544 0
M  V30 407 C 44.7759 0.525087 1.61793 0
M  V30 408 O 45.9609 0.759502 1.78732 0
M  V30 409 C 43.0909 1.73114 3.01079 0
M  V30 410 C 42.0449 2.87905 3.16693 0
M  V30 411 C 41.3709 2.78486 4.56453 0
M  V30 412 C 42.6709 4.29005 2.97913 0
M  V30 413 H 44.3649 2.60716 1.47198 0
M  V30 414 H 41.9109 1.25465 0.706714 0
M  V30 415 H 43.8639 1.84742 3.78746 0
M  V30 416 H 42.5879 0.766241 3.17484 0
M  V30 417 H 41.2469 2.75859 2.41448 0
M  V30 418 H 40.8949 1.7993 4.69717 0
M  V30 419 H 40.5949 3.55523 4.67843 0
M  V30 420 H 42.1189 2.92104 5.36197 0
M  V30 421 H 43.5329 4.41798 3.65359 0
M  V30 422 H 41.9299 5.07166 3.20785 0
M  V30 423 H 42.9999 4.44329 1.94165 0
M  V30 424 N 44.343 -0.763751 1.37857 0
M  V30 425 C 45.253 -1.90817 1.36478 0
M  V30 426 C 46.269 -1.71997 0.263248 0
M  V30 427 O 47.445 -1.95095 0.499979 0
M  V30 428 C 44.51 -3.2605 1.17864 0
M  V30 429 C 43.571 -3.57467 2.3773 0
M  V30 430 C 42.804 -4.86249 2.19995 0
M  V30 431 O 43.027 -5.57884 1.18836 0
M  V30 432 O 41.961 -5.16911 3.08361 0
M  V30 433 H 45.787 -1.94933 2.32884 0
M  V30 434 H 43.372 -0.907619 1.1867 0
M  V30 435 H 45.254 -4.06924 1.09504 0
M  V30 436 H 43.929 -3.22769 0.245372 0
M  V30 437 H 42.836 -2.76796 2.51664 0
M  V30 438 H 44.169 -3.655 3.29652 0
M  V30 439 N 45.8211 -1.22559 -0.990812 0
M  V30 440 C 46.7841 -0.998863 -2.0629 0
M  V30 441 C 47.7841 0.0354834 -1.60761 0
M  V30 442 O 48.9741 -0.203231 -1.7301 0
M  V30 443 C 46.1061 -0.509203 -3.37076 0
M  V30 444 H 47.2991 -1.95014 -2.27837 0
M  V30 445 H 44.8521 -1.04456 -1.16269 0
M  V30 446 H 45.5871 0.446335 -3.21214 0
M  V30 447 H 45.3721 -1.25547 -3.71457 0
M  V30 448 H 46.8621 -0.370888 -4.1595 0
M  V30 449 N 47.2992 1.18797 -1.03562 0
M  V30 450 C 48.2292 2.24472 -0.643019 0
M  V30 451 C 49.2102 1.66433 0.351283 0
M  V30 452 O 50.3952 1.92803 0.232505 0
M  V30 453 C 47.5252 3.473 4.24935e-05 0
M  V30 454 C 46.4792 4.18055 -0.917257 0
M  V30 455 C 45.8052 5.34519 -0.138941 0
M  V30 456 C 47.1052 4.72109 -2.23407 0
M  V30 457 H 48.7992 2.57566 -1.52643 0
M  V30 458 H 46.3452 1.23806 -0.735394 0
M  V30 459 H 48.2982 4.20426 0.286383 0
M  V30 460 H 47.0222 3.13424 0.918299 0
M  V30 461 H 45.6812 3.46821 -1.1879 0
M  V30 462 H 45.3292 4.96891 0.781562 0
M  V30 463 H 45.0292 5.82794 -0.750005 0
M  V30 464 H 46.5532 6.10438 0.1405 0
M  V30 465 H 47.9672 5.36955 -2.00879 0
M  V30 466 H 46.3642 5.30897 -2.79765 0
M  V30 467 H 47.4342 3.89807 -2.88407 0
M  V30 468 N 48.7773 0.814389 1.34928 0
M  V30 469 C 50.0263 0.394871 1.97797 0
M  V30 470 C 50.3393 -1.04555 1.65311 0
M  V30 471 O 51.5453 -1.56856 2.21604 0
M  V30 472 C 50.0013 0.655103 3.53888 0
M  V30 473 C 49.6093 2.10858 3.95276 0
M  V30 474 C 51.3533 0.301329 4.23429 0
M  V30 475 C 49.2603 2.31415 5.44244 0
M  V30 476 H 48.1903 0.143913 0.740139 0
M  V30 477 H 50.8413 0.999544 1.53888 0
M  V30 478 H 49.2233 -0.0196253 3.95995 0
M  V30 479 H 50.3973 2.82176 3.64298 0
M  V30 480 H 48.7123 2.42297 3.38646 0
M  V30 481 H 51.3093 0.432869 5.32945 0
M  V30 482 H 51.6523 -0.75331 4.09428 0
M  V30 483 H 52.1853 0.930288 3.86769 0
M  V30 484 H 48.9243 3.35353 5.63222 0
M  V30 485 H 48.4443 1.6463 5.76764 0
M  V30 486 H 50.1233 2.13352 6.10811 0
M  V30 487 N 50.2554 -1.46986 0.568584 0
M  V30 488 C 51.6714 -1.57946 0.229189 0
M  V30 489 C 51.8714 -1.56567 -1.26843 0
M  V30 490 O 50.9274 -1.47511 -2.04931 0
M  V30 491 C 52.2404 -2.87963 0.865909 0
M  V30 492 C 53.7884 -3.01568 0.838188 0
M  V30 493 C 54.2634 -4.34301 1.45419 0
M  V30 494 N 55.7544 -4.40965 1.41788 0
M  V30 495 C 56.4894 -5.42256 1.86403 0
M  V30 496 N 55.9854 -6.50297 2.38926 0
M  V30 497 N 57.7784 -5.3337 1.77405 0
M  V30 498 H 49.9294 -1.46126 1.54146 0
M  V30 499 H 52.1924 -0.696156 0.643484 0
M  V30 500 H 51.8984 -2.94742 1.91886 0
M  V30 501 H 51.7724 -3.75423 0.365687 0
M  V30 502 H 54.1594 -2.94379 -0.206106 0
M  V30 503 H 54.2404 -2.1562 1.37629 0
M  V30 504 H 53.8844 -4.42247 2.49761 0
M  V30 505 H 53.8144 -5.19 0.891435 0
M  V30 506 H 56.3054 -3.63484 1.03381 0
M  V30 507 H 56.6184 -7.23777 2.70863 0
M  V30 508 H 54.9634 -6.51155 2.42944 0
M  V30 509 H 58.1544 -4.47865 1.3614 0
M  V30 510 H 58.3274 -6.12169 2.12492 0
M  V30 511 N 51.7335 -0.305618 -1.54608 0
M  V30 512 C 53.0105 0.355652 -1.92339 0
M  V30 513 C 53.3905 1.71324 -1.23335 0
M  V30 514 O 52.7385 2.25473 -0.370702 0
M  V30 515 C 52.9485 0.46572 -3.45879 0
M  V30 516 C 54.2965 0.734426 -4.182 0
M  V30 517 O 55.3205 0.54935 -3.51938 0
M  V30 518 O 54.1795 1.09024 -5.35515 0
M  V30 519 H 51.2735 0.199666 -0.802535 0
M  V30 520 H 53.8195 -0.354017 -1.65966 0
M  V30 521 H 52.5915 -0.488461 -3.88239 0
M  V30 522 H 52.2145 1.22367 -3.78301 0
M  V30 523 N 53.2116 1.57565 -0.0334293 0
M  V30 524 C 54.6226 1.79746 0.504798 0
M  V30 525 C 54.9736 0.944091 1.71992 0
M  V30 526 O 54.0986 0.155694 2.15839 0
M  V30 527 C 54.6936 3.25997 0.922567 0
M  V30 528 C 53.2526 3.49159 1.40588 0
M  V30 529 C 52.3996 2.74785 0.372633 0
M  V30 530 H 55.3506 1.56565 -0.259436 0
M  V30 531 H 55.3716 3.35945 1.78666 0
M  V30 532 H 54.8836 3.88081 0.0379825 0
M  V30 533 H 52.9846 2.92332 2.31025 0
M  V30 534 H 53.0976 4.57873 1.41028 0
M  V30 535 H 51.4616 2.40391 0.841672 0
M  V30 536 H 52.2446 3.39587 -0.503559 0
M  V30 537 N 54.6897 -0.239769 1.55765 0
M  V30 538 C 56.1057 -0.588624 1.48349 0
M  V30 539 C 56.3057 -1.88005 0.72502 0
M  V30 540 O 55.3617 -2.51186 0.257269 0
M  V30 541 C 56.6747 -0.68474 2.928 0
M  V30 542 C 58.2227 -0.77659 3.03213 0
M  V30 543 C 58.6977 -0.904207 4.48986 0
M  V30 544 N 60.1887 -0.968896 4.52953 0
M  V30 545 C 60.9237 -1.08703 5.63002 0
M  V30 546 N 60.4197 -1.17026 6.82845 0
M  V30 547 N 62.2127 -1.12074 5.50814 0
M  V30 548 H 54.3637 0.607911 2.03515 0
M  V30 549 H 56.6267 0.21083 0.924259 0
M  V30 550 H 56.3327 0.194284 3.51163 0
M  V30 551 H 56.2067 -1.55435 3.43686 0
M  V30 552 H 58.5937 -1.64606 2.44926 0
M  V30 553 H 58.6747 0.118315 2.55526 0
M  V30 554 H 58.3187 -0.0392633 5.07885 0
M  V30 555 H 58.2487 -1.81426 4.9436 0
M  V30 556 H 60.7397 -0.915633 3.6664 0
M  V30 557 H 61.0527 -1.25966 7.62465 0
M  V30 558 H 59.3977 -1.13971 6.85591 0
M  V30 559 H 62.5887 -1.05226 4.5612 0
M  V30 560 H 62.7617 -1.20936 6.36615 0
M  V30 561 N 56.1678 -1.49265 -0.50573 0
M  V30 562 C 57.3928 -1.62478 -1.28902 0
M  V30 563 C 57.8178 -0.294332 -1.85783 0
M  V30 564 O 57.1758 0.737412 -1.65626 0
M  V30 565 C 57.2238 -2.69268 -2.39848 0
M  V30 566 O 56.3278 -2.28113 -3.43567 0
M  V30 567 H 55.6688 -0.54399 -0.380751 0
M  V30 568 H 58.1988 -1.95421 -0.605952 0
M  V30 569 H 58.2088 -2.91291 -2.85681 0
M  V30 570 H 56.8838 -3.65846 -1.97812 0
M  V30 571 H 55.4608 -2.16401 -3.03685 0
M  V30 572 N 57.6459 0.756429 -1.3826 0
M  V30 573 C 59.0569 1.33359 -1.30661 0
M  V30 574 C 59.4079 1.96161 0.0388875 0
M  V30 575 O 58.5329 1.94874 0.940918 0
M  V30 576 C 59.1279 2.42477 -2.36622 0
M  V30 577 C 57.6869 2.95922 -2.3261 0
M  V30 578 C 56.8339 1.69275 -2.19639 0
M  V30 579 H 59.7849 0.55552 -1.4866 0
M  V30 580 H 59.8059 3.22345 -2.02174 0
M  V30 581 H 59.3179 1.96739 -3.34538 0
M  V30 582 H 57.4189 3.45996 -1.38267 0
M  V30 583 H 57.5319 3.50494 -3.26636 0
M  V30 584 H 55.8959 1.92793 -1.66442 0
M  V30 585 H 56.6789 1.25619 -3.19491 0
M  V30 586 N 59.124 1.23083 0.984299 0
M  V30 587 C 60.373 1.05466 1.71929 0
M  V30 588 C 60.686 -0.409211 1.91272 0
M  V30 589 O 61.892 -0.705226 2.62181 0
M  V30 590 C 60.348 1.83874 3.09384 0
M  V30 591 C 59.956 3.34566 2.97943 0
M  V30 592 C 61.7 1.74734 3.8687 0
M  V30 593 C 59.607 4.05381 4.30605 0
M  V30 594 H 58.537 0.391039 0.644674 0
M  V30 595 H 61.188 1.47013 1.09815 0
M  V30 596 H 59.57 1.35131 3.72231 0
M  V30 597 H 60.744 3.90767 2.44209 0
M  V30 598 H 59.059 3.44476 2.33934 0
M  V30 599 H 61.656 2.24957 4.85076 0
M  V30 600 H 61.999 0.709372 4.10212 0
M  V30 601 H 62.532 2.21067 3.30717 0
M  V30 602 H 59.271 5.09467 4.1246 0
M  V30 603 H 58.791 3.53967 4.84218 0
M  V30 604 H 60.47 4.11458 4.99311 0
M  V30 605 N 60.6021 -1.18246 1.0419 0
M  V30 606 C 61.5501 -2.23968 0.627792 0
M  V30 607 C 62.5441 -1.65828 -0.346019 0
M  V30 608 O 63.7501 -1.78733 -0.213175 0
M  V30 609 H 60.1251 -0.728939 0.184802 0
M  V30 610 H 62.0961 -2.56202 1.52981 0
M  V30 611 C 60.8451 -3.47699 0.00796591 0
M  V30 612 H 60.1681 -3.92734 0.748347 0
M  V30 613 H 61.6081 -4.23294 -0.24455 0
M  V30 614 C 60.0671 -3.13153 -1.24246 0
M  V30 615 O 60.5971 -3.27003 -2.33307 0
M  V30 616 N 58.8031 -2.67467 -1.13622 0
M  V30 617 H 58.3501 -2.56396 -0.248734 0
M  V30 618 H 58.3081 -2.44724 -1.97377 0
M  V30 619 N 62.0802 -0.821533 -1.34494 0
M  V30 620 C 63.3262 -0.409552 -1.98622 0
M  V30 621 C 63.6592 1.0244 -1.64984 0
M  V30 622 O 62.9342 1.71325 -0.920758 0
M  V30 623 C 63.2172 -0.610458 -3.54888 0
M  V30 624 C 63.0702 -2.09043 -3.98273 0
M  V30 625 C 64.3892 -0.0455379 -4.40076 0
M  V30 626 H 61.5082 -0.15028 -0.721516 0
M  V30 627 H 64.1502 -1.03384 -1.59411 0
M  V30 628 H 62.3002 -0.079044 -3.8842 0
M  V30 629 H 63.9722 -2.68537 -3.75081 0
M  V30 630 H 62.2152 -2.58139 -3.48635 0
M  V30 631 H 62.8862 -2.18182 -5.07051 0
M  V30 632 H 65.3622 -0.499557 -4.1309 0
M  V30 633 H 64.2382 -0.215922 -5.48475 0
M  V30 634 H 64.4992 1.04939 -4.29465 0
M  V30 635 N 63.5583 1.46682 -0.576371 0
M  V30 636 C 64.4683 2.34032 0.163141 0
M  V30 637 C 65.4843 1.49367 0.892501 0
M  V30 638 O 66.6603 1.82252 0.857106 0
M  V30 639 C 63.7253 3.26435 1.16795 0
M  V30 640 C 62.7863 4.26998 0.443944 0
M  V30 641 C 62.0193 5.14986 1.40088 0
M  V30 642 O 62.2423 5.05785 2.637 0
M  V30 643 O 61.1763 5.94906 0.914917 0
M  V30 644 H 65.0023 2.98607 -0.55388 0
M  V30 645 H 62.5873 1.45554 -0.336821 0
M  V30 646 H 64.4693 3.83459 1.74748 0
M  V30 647 H 63.1443 2.64465 1.86655 0
M  V30 648 H 62.0513 3.7368 -0.177271 0
M  V30 649 H 63.3843 4.91736 -0.213566 0
M  V30 650 N 65.0364 0.313813 1.54444 0
M  V30 651 C 66.2614 -0.296681 2.05267 0
M  V30 652 C 66.6864 -1.45757 1.18897 0
M  V30 653 O 66.0444 -1.80239 0.195886 0
M  V30 654 C 66.0924 -0.71831 3.53373 0
M  V30 655 O 65.1964 -1.82175 3.69981 0
M  V30 656 H 64.5374 -0.0554061 0.661684 0
M  V30 657 H 67.0674 0.459387 1.99376 0
M  V30 658 H 67.0774 -1.00364 3.95463 0
M  V30 659 H 65.7524 0.130821 4.15694 0
M  V30 660 H 64.3294 -1.53598 3.39797 0
M  V30 661 N 66.5145 -1.57545 0.0417849 0
M  V30 662 C 67.4445 -2.14009 -0.933929 0
M  V30 663 C 68.4255 -1.05938 -1.33083 0
M  V30 664 O 69.6105 -1.33833 -1.40721 0
M  V30 665 C 66.7405 -2.67747 -2.21199 0
M  V30 666 C 65.6945 -3.80718 -1.95544 0
M  V30 667 C 65.0205 -4.20935 -3.29724 0
M  V30 668 C 66.3205 -5.06258 -1.28452 0
M  V30 669 H 68.0145 -2.95788 -0.463645 0
M  V30 670 H 65.5605 -1.42285 -0.221573 0
M  V30 671 H 67.5135 -3.05886 -2.89848 0
M  V30 672 H 66.2375 -1.83147 -2.70416 0
M  V30 673 H 64.8965 -3.43037 -1.2931 0
M  V30 674 H 64.5445 -3.33298 -3.76724 0
M  V30 675 H 64.2445 -4.9707 -3.13361 0
M  V30 676 H 65.7685 -4.61666 -3.9962 0
M  V30 677 H 67.1825 -5.41903 -1.8712 0
M  V30 678 H 65.5795 -5.87475 -1.22445 0
M  V30 679 H 66.6495 -4.84207 -0.259219 0
M  V30 680 N 67.9926 0.231505 -1.5589 0
M  V30 681 C 68.9226 1.29022 -1.94617 0
M  V30 682 C 69.9036 1.4941 -0.813067 0
M  V30 683 O 71.0886 1.6176 -1.07459 0
M  V30 684 C 68.2186 2.64199 -2.25424 0
M  V30 685 C 67.1726 2.58484 -3.41131 0
M  V30 686 C 66.4986 3.97599 -3.57518 0
M  V30 687 C 67.7986 2.1413 -4.76388 0
M  V30 688 H 69.4926 0.968563 -2.83301 0
M  V30 689 H 67.0386 0.464479 -1.36303 0
M  V30 690 H 68.9916 3.38413 -2.51107 0
M  V30 691 H 67.7156 2.98032 -1.33583 0
M  V30 692 H 66.3746 1.86727 -3.15481 0
M  V30 693 H 66.0226 4.28723 -2.6307 0
M  V30 694 H 65.7226 3.94659 -4.35337 0
M  V30 695 H 67.2466 4.7349 -3.85538 0
M  V30 696 H 68.6606 2.78083 -5.01341 0
M  V30 697 H 67.0576 2.2227 -5.57419 0
M  V30 698 H 68.1276 1.09331 -4.72414 0
M  V30 699 N 69.4707 1.49531 0.497807 0
M  V30 700 C 70.7477 1.49682 1.25915 0
M  V30 701 C 71.1277 0.226339 2.09883 0
M  V30 702 O 70.4757 -0.791189 2.14365 0
M  V30 703 C 70.6857 2.77755 2.11313 0
M  V30 704 C 72.0337 3.27371 2.70395 0
M  V30 705 O 73.0577 2.78894 2.21578 0
M  V30 706 O 71.9167 4.11808 3.59272 0
M  V30 707 H 69.0107 0.599228 0.56996 0
M  V30 708 H 71.5567 1.61798 0.511816 0
M  V30 709 H 70.3287 3.61713 1.49264 0
M  V30 710 H 69.9517 2.68515 2.93233 0
M  V30 711 N 70.9488 -0.749086 1.3866 0
M  V30 712 C 72.1968 -1.50535 1.34847 0
M  V30 713 C 72.5178 -1.94909 -0.0595016 0
M  V30 714 O 71.7878 -1.67973 -1.00806 0
M  V30 715 H 70.3678 -0.558395 0.49619 0
M  V30 716 H 73.0298 -0.890165 1.73384 0
M  V30 717 H 72.1258 -2.39413 2.00219 0
M  V30 718 N 72.4269 -1.23603 -0.977757 0
M  V30 719 C 73.3569 -1.04401 -2.0886 0
M  V30 720 C 74.3379 0.0399052 -1.70053 0
M  V30 721 O 75.5229 -0.125246 -1.93796 0
M  V30 722 C 72.6529 -0.637269 -3.41403 0
M  V30 723 C 71.6069 -1.66883 -3.94124 0
M  V30 724 C 70.9329 -1.11745 -5.22893 0
M  V30 725 C 72.2329 -3.06247 -4.23096 0
M  V30 726 H 73.9269 -1.97316 -2.25182 0
M  V30 727 H 71.4729 -0.950096 -1.08209 0
M  V30 728 H 73.4259 -0.48998 -4.18542 0
M  V30 729 H 72.1499 0.327557 -3.24953 0
M  V30 730 H 70.8089 -1.80416 -3.19133 0
M  V30 731 H 70.4569 -0.143527 -5.02795 0
M  V30 732 H 70.1569 -1.80672 -5.59134 0
M  V30 733 H 71.6809 -0.982067 -6.02651 0
M  V30 734 H 73.0949 -2.96001 -4.90975 0
M  V30 735 H 71.4919 -3.72436 -4.70544 0
M  V30 736 H 72.5619 -3.55041 -3.30263 0
M  V30 737 N 73.905 1.17692 -1.04816 0
M  V30 738 C 74.853 2.23632 -0.63966 0
M  V30 739 C 75.847 1.6601 0.337219 0
M  V30 740 O 77.053 1.78844 0.203693 0
M  V30 741 H 73.428 0.727949 -0.188665 0
M  V30 742 H 75.399 2.55387 -1.54337 0
M  V30 743 C 74.148 3.4769 -0.0264051 0
M  V30 744 H 73.471 3.92331 -0.769164 0
M  V30 745 H 74.911 4.23418 0.222098 0
M  V30 746 C 73.37 3.13807 1.22584 0
M  V30 747 O 73.9 3.28236 2.31569 0
M  V30 748 N 72.106 2.68065 1.12202 0
M  V30 749 H 71.653 2.56525 0.235133 0
M  V30 750 H 71.611 2.45767 1.96076 0
M  V30 751 N 75.3831 0.828654 1.34056 0
M  V30 752 C 76.6081 0.431637 2.02859 0
M  V30 753 C 77.0331 -0.956339 1.61975 0
M  V30 754 O 76.3911 -1.62338 0.807228 0
M  V30 755 C 76.4391 0.548323 3.56407 0
M  V30 756 O 75.5431 -0.429556 4.10157 0
M  V30 757 H 74.8841 0.176886 0.640006 0
M  V30 758 H 77.4141 1.12066 1.71179 0
M  V30 759 H 77.4241 0.426196 4.05768 0
M  V30 760 H 76.0991 1.5606 3.8551 0
M  V30 761 H 74.6761 -0.265836 3.71951 0
M  V30 762 N 76.8612 -1.46375 0.584142 0
M  V30 763 C 77.7912 -2.33103 -0.136037 0
M  V30 764 C 78.7722 -1.45431 -0.882255 0
M  V30 765 O 79.9572 -1.74246 -0.857434 0
M  V30 766 C 77.0872 -3.27731 -1.14933 0
M  V30 767 C 76.0412 -4.24855 -0.517862 0
M  V30 768 C 75.3672 -5.09001 -1.63773 0
M  V30 769 C 76.6672 -5.19439 0.545886 0
M  V30 770 H 78.3612 -2.93568 0.588086 0
M  V30 771 H 75.9072 -1.41166 0.284259 0
M  V30 772 H 77.8602 -3.87261 -1.66153 0
M  V30 773 H 76.5842 -2.65377 -1.90375 0
M  V30 774 H 75.2432 -3.6659 -0.0267361 0
M  V30 775 H 74.8912 -4.43031 -2.38185 0
M  V30 776 H 74.5912 -5.74777 -1.22085 0
M  V30 777 H 76.1152 -5.71396 -2.15266 0
M  V30 778 H 77.5292 -5.73177 0.118704 0
M  V30 779 H 75.9262 -5.93566 0.88317 0
M  V30 780 H 76.9962 -4.63285 1.43162 0
M  V30 781 N 78.3393 -0.321999 -1.54275 0
M  V30 782 C 79.5853 0.281461 -2.00837 0
M  V30 783 C 79.9183 1.51909 -1.20985 0
M  V30 784 O 79.1933 1.923 -0.291733 0
M  V30 785 C 79.4763 0.617162 -3.54772 0
M  V30 786 C 79.3293 -0.631064 -4.45351 0
M  V30 787 C 80.6483 1.43542 -4.16033 0
M  V30 788 H 77.7673 0.100826 -0.730071 0
M  V30 789 H 80.4093 -0.438268 -1.84876 0
M  V30 790 H 78.5593 1.23034 -3.68504 0
M  V30 791 H 80.2313 -1.26934 -4.43492 0
M  V30 792 H 78.4743 -1.26025 -4.15091 0
M  V30 793 H 79.1453 -0.351735 -5.50878 0
M  V30 794 H 81.6213 0.917134 -4.05867 0
M  V30 795 H 80.4973 1.63907 -5.23856 0
M  V30 796 H 80.7583 2.43108 -3.69257 0
M  V30 797 N 79.8174 1.5752 -0.0501392 0
M  V30 798 C 80.7474 2.14502 0.922566 0
M  V30 799 C 81.7284 1.06642 1.3252 0
M  V30 800 O 82.9134 1.34577 1.4001 0
M  V30 801 C 80.0434 2.68916 2.19776 0
M  V30 802 C 78.9974 3.8175 1.93523 0
M  V30 803 C 78.3234 4.22677 3.27487 0
M  V30 804 C 79.6234 5.06932 1.25765 0
M  V30 805 H 81.3174 2.9603 0.447952 0
M  V30 806 H 78.8634 1.42401 0.214024 0
M  V30 807 H 80.8164 3.07419 2.88222 0
M  V30 808 H 79.5404 1.84578 2.69441 0
M  V30 809 H 78.1994 3.43718 1.27489 0
M  V30 810 H 77.8474 3.35291 3.74952 0
M  V30 811 H 77.5474 4.98725 3.1072 0
M  V30 812 H 79.0714 4.63779 3.97166 0
M  V30 813 H 80.4854 5.42888 1.84244 0
M  V30 814 H 78.8824 5.88116 1.19328 0
M  V30 815 H 79.9524 4.84337 0.233536 0
M  V30 816 N 81.2955 -0.223234 1.56011 0
M  V30 817 C 82.5725 -0.972108 1.69733 0
M  V30 818 C 82.9525 -2.02485 0.59691 0
M  V30 819 O 82.3005 -2.25037 -0.396324 0
M  V30 820 C 82.5105 -1.58407 3.10979 0
M  V30 821 C 83.8585 -2.07696 3.70334 0
M  V30 822 O 84.8825 -1.68304 3.1393 0
M  V30 823 O 83.7415 -2.80096 4.69264 0
M  V30 824 H 80.8355 -0.453993 0.691245 0
M  V30 825 H 83.3815 -0.215149 1.68331 0
M  V30 826 H 82.1535 -0.823831 3.82529 0
M  V30 827 H 81.7765 -2.40661 3.16493 0
M  V30 828 N 82.7736 -1.49793 -0.48987 0
M  V30 829 C 83.7036 -1.70201 -1.59856 0
M  V30 830 C 84.6846 -0.55076 -1.60937 0
M  V30 831 O 85.8696 -0.787841 -1.77501 0
M  V30 832 C 82.9996 -1.77882 -2.98287 0
M  V30 833 C 81.9536 -2.92907 -3.12073 0
M  V30 834 C 81.2796 -2.85712 -4.51965 0
M  V30 835 C 82.5796 -4.3369 -2.91051 0
M  V30 836 H 84.2736 -2.63025 -1.43032 0
M  V30 837 H 81.8196 -1.26574 -0.686664 0
M  V30 838 H 83.7726 -1.90744 -3.75759 0
M  V30 839 H 82.4966 -0.816653 -3.16225 0
M  V30 840 H 81.1556 -2.79665 -2.37029 0
M  V30 841 H 80.8036 -1.8738 -4.66795 0
M  V30 842 H 80.5036 -3.62921 -4.62128 0
M  V30 843 H 82.0276 -3.00598 -5.31482 0
M  V30 844 H 83.4416 -4.47555 -3.58284 0
M  V30 845 H 81.8386 -5.12205 -3.12675 0
M  V30 846 H 82.9086 -4.47362 -1.87071 0
M  V30 847 N 84.2517 0.741722 -1.39055 0
M  V30 848 C 85.5287 1.49252 -1.26425 0
M  V30 849 C 85.9087 2.10705 0.129144 0
M  V30 850 O 85.2567 1.98045 1.13976 0
M  V30 851 C 85.4667 2.54934 -2.38347 0
M  V30 852 C 86.8147 3.21506 -2.77343 0
M  V30 853 O 87.8387 2.65245 -2.37747 0
M  V30 854 O 86.6977 4.23294 -3.45665 0
M  V30 855 H 83.7917 0.662451 -0.495064 0
M  V30 856 H 86.3377 0.776121 -1.50912 0
M  V30 857 H 85.1097 2.07857 -3.31529 0
M  V30 858 H 84.7327 3.34141 -2.15489 0
M  V30 859 N 85.7298 1.2412 0.971189 0
M  V30 860 C 86.9768 1.07881 1.71371 0
M  V30 861 C 87.3048 -0.382901 1.90694 0
M  V30 862 O 86.5598 -1.29945 1.46331 0
M  V30 863 C 86.8588 1.75983 3.11071 0
M  V30 864 C 86.5248 3.25909 3.11599 0
M  V30 865 C 85.1868 3.66813 3.11451 0
M  V30 866 C 87.5388 4.21771 3.062 0
M  V30 867 C 84.8668 5.02021 3.03631 0
M  V30 868 C 87.2188 5.56982 2.99923 0
M  V30 869 C 85.8828 5.97237 2.98102 0
M  V30 870 H 85.1528 0.394764 0.62709 0
M  V30 871 H 87.7998 1.54176 1.13587 0
M  V30 872 H 86.1048 1.22072 3.72298 0
M  V30 873 H 87.8018 1.60887 3.6731 0
M  V30 874 H 84.3918 2.93353 3.12477 0
M  V30 875 H 88.5758 3.91172 3.05447 0
M  V30 876 H 83.8318 5.32411 3.0058 0
M  V30 877 H 88.0058 6.30969 2.94704 0
M  V30 878 H 85.6328 7.01967 2.91798 0
M  V30 879 N 87.2079 -1.17134 1.05439 0
M  V30 880 C 88.6189 -1.69084 0.791676 0
M  V30 881 C 88.9699 -1.83822 -0.685839 0
M  V30 882 O 88.0949 -1.52757 -1.53278 0
M  V30 883 C 88.6899 -3.07119 1.4305 0
M  V30 884 C 87.2489 -3.56225 1.21577 0
M  V30 885 C 86.3959 -2.32421 1.51247 0
M  V30 886 H 89.3469 -1.01617 1.219 0
M  V30 887 H 89.3679 -3.71087 0.84112 0
M  V30 888 H 88.8799 -2.9636 2.50584 0
M  V30 889 H 86.9809 -3.72257 0.159787 0
M  V30 890 H 87.0939 -4.38837 1.92246 0
M  V30 891 H 85.4579 -2.3701 0.932653 0
M  V30 892 H 86.2409 -2.24268 2.5992 0
M  V30 893 N 88.686 -0.835752 -1.33615 0
M  V30 894 C 89.649 -0.272 -2.2758 0
M  V30 895 C 90.649 0.557487 -1.50827 0
M  V30 896 O 91.839 0.37173 -1.70188 0
M  V30 897 C 88.971 0.617173 -3.35267 0
M  V30 898 H 90.164 -1.10111 -2.78954 0
M  V30 899 H 87.717 -0.608594 -1.43965 0
M  V30 900 H 88.452 1.46884 -2.89129 0
M  V30 901 H 88.237 0.0237066 -3.92093 0
M  V30 902 H 89.727 1.005 -4.05326 0
M  V30 903 N 90.1641 1.46063 -0.591896 0
M  V30 904 C 91.0941 2.33172 0.123673 0
M  V30 905 C 92.0751 1.45897 0.87453 0
M  V30 906 O 93.2601 1.74698 0.848181 0
M  V30 907 C 90.3901 3.28336 1.13194 0
M  V30 908 C 89.3441 4.25124 0.495324 0
M  V30 909 C 88.6701 5.09863 1.61071 0
M  V30 910 C 89.9701 5.19143 -0.573425 0
M  V30 911 H 91.6641 2.93252 -0.603646 0
M  V30 912 H 89.2101 1.41014 -0.291741 0
M  V30 913 H 91.1631 3.88137 1.64097 0
M  V30 914 H 89.8871 2.66383 1.88965 0
M  V30 915 H 88.5461 3.66599 0.00729452 0
M  V30 916 H 88.1941 4.44288 2.35832 0
M  V30 917 H 87.8941 5.75417 1.19035 0
M  V30 918 H 89.4181 5.72529 2.12233 0
M  V30 919 H 90.8321 5.73106 -0.1491 0
M  V30 920 H 89.2291 5.93089 -0.914636 0
M  V30 921 H 90.2991 4.62519 -1.45617 0
M  V30 922 N 91.6422 0.330177 1.54103 0
M  V30 923 C 93.0582 -0.0222371 1.59585 0
M  V30 924 C 93.2582 -1.49902 1.34654 0
M  V30 925 O 92.3142 -2.25592 1.13421 0
M  V30 926 C 93.6272 0.401932 2.98002 0
M  V30 927 C 95.1752 0.353145 3.11001 0
M  V30 928 C 95.6502 0.752576 4.51775 0
M  V30 929 N 97.1412 0.706239 4.57784 0
M  V30 930 C 97.8762 0.987417 5.64834 0
M  V30 931 N 97.3722 1.33607 6.79795 0
M  V30 932 N 99.1652 0.91254 5.54643 0
M  V30 933 H 91.3162 1.29228 1.68564 0
M  V30 934 H 93.5792 0.525906 0.78875 0
M  V30 935 H 93.2852 1.4311 3.21267 0
M  V30 936 H 93.1592 -0.229699 3.765 0
M  V30 937 H 95.5462 -0.666822 2.87467 0
M  V30 938 H 95.6272 1.0198 2.34593 0
M  V30 939 H 95.2712 1.77049 4.76042 0
M  V30 940 H 95.2012 0.0635409 5.26562 0
M  V30 941 H 97.6922 0.44889 3.75224 0
M  V30 942 H 98.0052 1.53582 7.57385 0
M  V30 943 H 96.3502 1.37439 6.81275 0
M  V30 944 H 99.5412 0.639601 4.6371 0
M  V30 945 H 99.7142 1.13503 6.37982 0
M  V30 946 N 93.1203 -1.57491 0.0584922 0
M  V30 947 C 94.0673 -2.11958 -0.913376 0
M  V30 948 C 95.0373 -1.02875 -1.30407 0
M  V30 949 O 96.2223 -1.30464 -1.39226 0
M  V30 950 C 93.3623 -2.67497 -2.18035 0
M  V30 951 C 92.4753 -3.90691 -1.84349 0
M  V30 952 C 91.6103 -4.3452 -3.05559 0
M  V30 953 C 90.6493 -5.50395 -2.67827 0
M  V30 954 N 89.7863 -5.89244 -3.81754 0
M  V30 955 H 94.6263 -2.94704 -0.442017 0
M  V30 956 H 92.1633 -1.45643 -0.206545 0
M  V30 957 H 94.1213 -2.978 -2.92183 0
M  V30 958 H 92.7513 -1.87537 -2.62735 0
M  V30 959 H 91.8033 -3.66934 -1.00319 0
M  V30 960 H 93.1153 -4.7489 -1.5258 0
M  V30 961 H 92.2693 -4.66414 -3.87998 0
M  V30 962 H 91.0083 -3.49147 -3.40511 0
M  V30 963 H 90.0133 -5.18165 -1.83806 0
M  V30 964 H 91.2383 -6.3749 -2.34059 0
M  V30 965 H 89.1843 -5.06823 -4.16493 0
M  V30 966 H 89.1013 -6.68151 -3.53708 0
M  V30 967 H 90.3693 -6.25756 -4.64811 0
M  V30 968 N 94.5984 0.214957 -1.56127 0
M  V30 969 C 95.5464 1.28601 -1.93816 0
M  V30 970 C 96.5404 1.48175 -0.821016 0
M  V30 971 O 97.7464 1.49271 -1.0059 0
M  V30 972 H 94.1214 0.431302 -0.616022 0
M  V30 973 H 96.0924 0.940991 -2.83175 0
M  V30 974 C 94.8414 2.62779 -2.27689 0
M  V30 975 H 94.1644 2.48527 -3.13168 0
M  V30 976 H 95.6044 3.36517 -2.57939 0
M  V30 977 C 94.0634 3.18285 -1.10436 0
M  V30 978 O 94.5934 4.00002 -0.368945 0
M  V30 979 N 92.7994 2.7675 -0.886433 0
M  V30 980 H 92.3464 2.10404 -1.48619 0
M  V30 981 H 92.3044 3.14229 -0.103656 0
M  V30 982 N 96.0765 1.50051 0.48192 0
M  V30 983 C 97.0235 1.68122 1.58125 0
M  V30 984 C 97.9935 0.522545 1.57666 0
M  V30 985 O 99.1785 0.751844 1.75362 0
M  V30 986 C 96.3185 1.77142 2.96167 0
M  V30 987 C 95.4315 3.0444 3.06497 0
M  V30 988 C 94.5665 3.04321 4.35387 0
M  V30 989 C 93.6055 4.26118 4.3942 0
M  V30 990 N 92.7425 4.238 5.59766 0
M  V30 991 H 97.5825 2.6198 1.42022 0
M  V30 992 H 95.1195 1.29877 0.690687 0
M  V30 993 H 97.0775 1.80352 3.76203 0
M  V30 994 H 95.7075 0.867329 3.1093 0
M  V30 995 H 94.7595 3.10752 2.19402 0
M  V30 996 H 96.0715 3.94426 3.05336 0
M  V30 997 H 95.2255 3.062 5.23762 0
M  V30 998 H 93.9645 2.12147 4.39141 0
M  V30 999 H 92.9695 4.24463 3.49444 0
M  V30 1000 H 94.1945 5.19507 4.37366 0
M  V30 1001 H 92.1405 3.34474 5.64326 0
M  V30 1002 H 92.0575 5.07542 5.60301 0
M  V30 1003 H 93.3255 4.2981 6.50295 0
M  V30 1004 N 97.5546 -0.734337 1.39446 0
M  V30 1005 C 98.5026 -1.86971 1.38364 0
M  V30 1006 C 99.4966 -1.67288 0.266687 0
M  V30 1007 O 100.703 -1.74621 0.436755 0
M  V30 1008 H 97.0776 -0.615474 0.432082 0
M  V30 1009 H 99.0486 -1.85 2.34132 0
M  V30 1010 C 97.7976 -3.2466 1.24465 0
M  V30 1011 H 97.1206 -3.40402 2.09682 0
M  V30 1012 H 98.5606 -4.04292 1.27764 0
M  V30 1013 C 97.0196 -3.36867 -0.0468674 0
M  V30 1014 O 97.5496 -3.88618 -1.01681 0
M  V30 1015 N 95.7556 -2.90391 -0.110145 0
M  V30 1016 H 95.3026 -2.48466 0.679868 0
M  V30 1017 H 95.2606 -2.98939 -0.973799 0
M  V30 1018 N 99.0327 -1.24633 -0.964593 0
M  V30 1019 C 100.282 -1.08188 -1.7023 0
M  V30 1020 C 100.595 0.37873 -1.91898 0
M  V30 1021 O 101.801 0.663427 -2.6327 0
M  V30 1022 C 100.257 -1.88773 -3.06419 0
M  V30 1023 C 99.8647 -3.39263 -2.92582 0
M  V30 1024 C 101.609 -1.80867 -3.84041 0
M  V30 1025 C 99.5157 -4.1218 -4.24101 0
M  V30 1026 H 98.4457 -0.401245 -0.638372 0
M  V30 1027 H 101.097 -1.48742 -1.07462 0
M  V30 1028 H 99.4787 -1.41035 -3.70034 0
M  V30 1029 H 100.653 -3.94603 -2.37961 0
M  V30 1030 H 98.9677 -3.48154 -2.28424 0
M  V30 1031 H 101.565 -2.32646 -4.81435 0
M  V30 1032 H 101.908 -0.774543 -4.09031 0
M  V30 1033 H 102.441 -2.26301 -3.27159 0
M  V30 1034 H 99.1797 -5.15965 -4.04303 0
M  V30 1035 H 98.6997 -3.61626 -4.78526 0
M  V30 1036 H 100.379 -4.19349 -4.92702 0
M  V30 1037 N 100.511 1.16574 -1.06058 0
M  V30 1038 C 101.788 1.83048 -0.689416 0
M  V30 1039 C 102.168 1.94122 0.829443 0
M  V30 1040 O 101.516 1.48249 1.7388 0
M  V30 1041 C 101.726 3.20186 -1.38859 0
M  V30 1042 C 103.074 3.95989 -1.53226 0
M  V30 1043 O 104.098 3.29696 -1.3483 0
M  V30 1044 O 102.957 5.14813 -1.83384 0
M  V30 1045 H 100.051 0.790258 -0.243764 0
M  V30 1046 H 102.597 1.23797 -1.16071 0
M  V30 1047 H 101.369 3.07146 -2.4244 0
M  V30 1048 H 100.992 3.87112 -0.907216 0
M  V30 1049 N 101.989 0.842826 1.3317 0
M  V30 1050 C 102.937 0.267495 2.31057 0
M  V30 1051 C 103.931 -0.602682 1.58316 0
M  V30 1052 O 105.137 -0.491803 1.73151 0
M  V30 1053 H 101.512 0.0677813 0.748939 0
M  V30 1054 H 103.483 1.10754 2.77085 0
M  V30 1055 C 102.232 -0.539331 3.43492 0
M  V30 1056 H 101.555 0.12095 3.99617 0
M  V30 1057 H 102.995 -0.90767 4.14171 0
M  V30 1058 C 101.454 -1.71981 2.89697 0
M  V30 1059 O 101.984 -2.81862 2.86211 0
M  V30 1060 N 100.19 -1.54299 2.46252 0
M  V30 1061 H 99.7369 -0.649143 2.49287 0
M  V30 1062 H 99.6949 -2.33431 2.10612 0
M  V30 1063 N 103.467 -1.45747 0.599634 0
M  V30 1064 C 104.714 -2.02292 0.0917284 0
M  V30 1065 C 105.042 -1.46906 -1.27472 0
M  V30 1066 O 104.297 -0.630652 -1.8526 0
M  V30 1067 C 104.596 -3.57399 -0.00602758 0
M  V30 1068 C 104.262 -4.31902 1.29503 0
M  V30 1069 C 102.924 -4.51974 1.65144 0
M  V30 1070 C 105.276 -4.74551 2.15525 0
M  V30 1071 C 102.604 -5.11949 2.86574 0
M  V30 1072 C 104.956 -5.35868 3.36196 0
M  V30 1073 C 103.62 -5.54165 3.72099 0
M  V30 1074 H 102.89 -0.740239 0.0335658 0
M  V30 1075 H 105.537 -1.7491 0.779661 0
M  V30 1076 H 103.842 -3.84014 -0.777183 0
M  V30 1077 H 105.539 -3.98846 -0.415038 0
M  V30 1078 H 102.129 -4.16588 1.00761 0
M  V30 1079 H 106.313 -4.58784 1.8929 0
M  V30 1080 H 101.569 -5.24305 3.14507 0
M  V30 1081 H 105.743 -5.6787 4.03109 0
M  V30 1082 H 103.37 -6.00406 4.6628 0
M  V30 1083 N 104.945 -0.338344 -1.53925 0
M  V30 1084 C 105.875 0.51328 -2.27789 0
M  V30 1085 C 106.856 1.107 -1.29149 0
M  V30 1086 O 108.041 1.12937 -1.57984 0
M  V30 1087 C 105.171 1.66697 -3.04679 0
M  V30 1088 C 104.125 1.20183 -4.1078 0
M  V30 1089 C 103.451 2.44363 -4.75595 0
M  V30 1090 C 104.751 0.30605 -5.21403 0
M  V30 1091 H 106.445 -0.102883 -2.99223 0
M  V30 1092 H 103.991 -0.0509219 -1.4391 0
M  V30 1093 H 105.944 2.26915 -3.55088 0
M  V30 1094 H 104.668 2.30995 -2.30887 0
M  V30 1095 H 103.327 0.622499 -3.61276 0
M  V30 1096 H 102.975 3.07057 -3.98403 0
M  V30 1097 H 102.675 2.13925 -5.47275 0
M  V30 1098 H 104.199 3.05317 -5.28786 0
M  V30 1099 H 105.613 0.814929 -5.67478 0
M  V30 1100 H 104.01 0.0937929 -6.00027 0
M  V30 1101 H 105.08 -0.65921 -4.80398 0
M  V30 1102 N 106.423 1.57458 -0.0668435 0
M  V30 1103 C 107.371 2.13639 0.919851 0
M  V30 1104 C 108.365 1.07204 1.31163 0
M  V30 1105 O 109.571 1.25591 1.28945 0
M  V30 1106 H 105.946 0.683048 0.314562 0
M  V30 1107 H 107.917 2.95415 0.421047 0
M  V30 1108 C 106.666 2.70892 2.17975 0
M  V30 1109 H 105.989 3.5246 1.88711 0
M  V30 1110 H 107.429 3.13803 2.85138 0
M  V30 1111 C 105.888 1.65414 2.93496 0
M  V30 1112 O 106.418 1.07619 3.87015 0
M  V30 1113 N 104.624 1.36564 2.56512 0
M  V30 1114 H 104.171 1.83751 1.80536 0
M  V30 1115 H 104.129 0.66223 3.07347 0
M  V30 1116 N 107.901 -0.206675 1.56239 0
M  V30 1117 C 109.317 -0.557025 1.49564 0
M  V30 1118 C 109.517 -1.86424 0.764735 0
M  V30 1119 O 108.573 -2.50584 0.310491 0
M  V30 1120 C 109.886 -0.622478 2.94186 0
M  V30 1121 C 111.434 -0.712099 3.04792 0
M  V30 1122 C 111.909 -0.808767 4.50803 0
M  V30 1123 N 113.4 -0.8726 4.54907 0
M  V30 1124 C 114.135 -0.967365 5.65181 0
M  V30 1125 N 113.631 -1.02515 6.85173 0
M  V30 1126 N 115.424 -1.00366 5.53067 0
M  V30 1127 H 107.575 0.650943 2.02179 0
M  V30 1128 H 109.838 0.230387 0.919579 0
M  V30 1129 H 109.544 0.268727 3.50672 0
M  V30 1130 H 109.418 -1.4811 3.46905 0
M  V30 1131 H 111.805 -1.59374 2.48363 0
M  V30 1132 H 111.886 0.172489 2.55218 0
M  V30 1133 H 111.53 0.0684754 5.07854 0
M  V30 1134 H 111.46 -1.70899 4.98098 0
M  V30 1135 H 113.951 -0.837657 3.68499 0
M  V30 1136 H 114.264 -1.09765 7.64965 0
M  V30 1137 H 112.609 -0.994026 6.87855 0
M  V30 1138 H 115.8 -0.95527 4.58249 0
M  V30 1139 H 115.973 -1.07405 6.39037 0
M  V30 1140 N 109.379 -1.50304 -0.473955 0
M  V30 1141 C 110.609 -1.64663 -1.24778 0
M  V30 1142 C 111.017 -0.328174 -1.86332 0
M  V30 1143 O 110.36 0.699536 -1.69859 0
M  V30 1144 C 110.422 -2.6778 -2.39863 0
M  V30 1145 C 110.086 -4.11413 -1.98969 0
M  V30 1146 C 111.083 -4.97372 -1.51385 0
M  V30 1147 C 108.768 -4.57312 -2.07777 0
M  V30 1148 C 110.762 -6.27277 -1.13148 0
M  V30 1149 C 108.449 -5.87223 -1.69152 0
M  V30 1150 C 109.447 -6.72031 -1.21915 0
M  V30 1151 O 109.135 -7.99518 -0.838237 0
M  V30 1152 H 108.867 -0.556602 -0.383627 0
M  V30 1153 H 111.421 -1.9726 -0.572491 0
M  V30 1154 H 109.651 -2.30419 -3.10554 0
M  V30 1155 H 111.34 -2.71388 -3.01833 0
M  V30 1156 H 112.106 -4.63128 -1.44004 0
M  V30 1157 H 107.985 -3.91449 -2.43493 0
M  V30 1158 H 111.529 -6.93425 -0.762077 0
M  V30 1159 H 107.426 -6.20989 -1.76191 0
M  V30 1160 H 108.194 -8.12764 -0.967339 0
M  V30 1161 N 110.857 0.726932 -1.39834 0
M  V30 1162 C 111.767 1.87131 -1.41489 0
M  V30 1163 C 112.783 1.71239 -0.308757 0
M  V30 1164 O 113.959 1.93701 -0.551529 0
M  V30 1165 C 111.024 3.22811 -1.26468 0
M  V30 1166 C 110.085 3.51039 -2.47124 0
M  V30 1167 C 109.318 4.80245 -2.3281 0
M  V30 1168 O 109.541 5.54537 -1.33585 0
M  V30 1169 O 108.475 5.08554 -3.21957 0
M  V30 1170 H 112.301 1.8869 -2.3797 0
M  V30 1171 H 109.886 0.875837 -1.21035 0
M  V30 1172 H 111.768 4.03877 -1.20255 0
M  V30 1173 H 110.443 3.22005 -0.330862 0
M  V30 1174 H 109.35 2.70027 -2.58914 0
M  V30 1175 H 110.683 3.56632 -3.39227 0
M  V30 1176 N 112.336 1.25143 0.95797 0
M  V30 1177 C 113.283 1.05235 2.05412 0
M  V30 1178 C 114.253 -0.0374561 1.66058 0
M  V30 1179 O 115.438 0.119073 1.90428 0
M  V30 1180 C 112.578 0.673589 3.38462 0
M  V30 1181 C 111.691 1.8379 3.90954 0
M  V30 1182 C 110.826 1.40381 5.12315 0
M  V30 1183 C 109.865 2.53746 5.57027 0
M  V30 1184 N 109.002 2.11136 6.69601 0
M  V30 1185 H 113.842 1.99048 2.21774 0
M  V30 1186 H 111.379 0.991277 1.08683 0
M  V30 1187 H 113.337 0.434964 4.14926 0
M  V30 1188 H 111.967 -0.227554 3.21997 0
M  V30 1189 H 111.019 2.18992 3.11041 0
M  V30 1190 H 112.331 2.68937 4.20089 0
M  V30 1191 H 111.485 1.12464 5.96185 0
M  V30 1192 H 110.224 0.523015 4.84887 0
M  V30 1193 H 109.229 2.82412 4.71724 0
M  V30 1194 H 110.454 3.42398 5.86464 0
M  V30 1195 H 108.4 1.25468 6.4389 0
M  V30 1196 H 108.317 2.89832 6.98236 0
M  V30 1197 H 109.585 1.86385 7.56889 0
M  V30 1198 N 113.814 -1.1601 1.06675 0
M  V30 1199 C 115.063 -1.85973 0.780818 0
M  V30 1200 C 115.376 -1.82819 -0.695444 0
M  V30 1201 O 116.582 -2.484 -1.09589 0
M  V30 1202 C 115.038 -3.33757 1.34665 0
M  V30 1203 C 114.646 -3.45374 2.85343 0
M  V30 1204 C 116.39 -4.0895 1.13843 0
M  V30 1205 C 114.297 -4.87266 3.35151 0
M  V30 1206 H 113.227 -0.696661 0.288407 0
M  V30 1207 H 115.878 -1.30903 1.28595 0
M  V30 1208 H 114.26 -3.88456 0.769274 0
M  V30 1209 H 115.434 -3.00816 3.49065 0
M  V30 1210 H 113.749 -2.83619 3.04876 0
M  V30 1211 H 116.346 -5.13654 1.4854 0
M  V30 1212 H 116.689 -4.16229 0.0770282 0
M  V30 1213 H 117.222 -3.605 1.68179 0
M  V30 1214 H 113.961 -4.85168 4.40786 0
M  V30 1215 H 113.481 -5.32433 2.76179 0
M  V30 1216 H 115.16 -5.56097 3.30704 0
M  V30 1217 N 115.292 -0.849877 -1.32721 0
M  V30 1218 C 116.538 -0.451591 -1.97708 0
M  V30 1219 C 116.871 0.989175 -1.6712 0
M  V30 1220 O 116.146 1.69334 -0.956891 0
M  V30 1221 C 116.429 -0.685598 -3.53513 0
M  V30 1222 C 116.282 -2.17444 -3.93749 0
M  V30 1223 C 117.601 -0.138874 -4.39881 0
M  V30 1224 H 114.72 -0.16555 -0.718166 0
M  V30 1225 H 117.362 -1.06742 -1.57182 0
M  V30 1226 H 115.512 -0.161416 -3.88165 0
M  V30 1227 H 117.184 -2.76433 -3.693 0
M  V30 1228 H 115.427 -2.65476 -3.43081 0
M  V30 1229 H 116.098 -2.28888 -5.02309 0
M  V30 1230 H 118.574 -0.587068 -4.11938 0
M  V30 1231 H 117.45 -0.332213 -5.47894 0
M  V30 1232 H 117.711 0.95806 -4.31594 0
M  V30 1233 N 116.77 1.45427 -0.607355 0
M  V30 1234 C 117.717 2.3053 0.111625 0
M  V30 1235 C 118.687 1.4209 0.860216 0
M  V30 1236 O 119.872 1.71019 0.845998 0
M  V30 1237 C 117.012 3.26992 1.10319 0
M  V30 1238 C 116.125 4.30535 0.355493 0
M  V30 1239 C 115.26 5.14105 1.33676 0
M  V30 1240 C 114.299 6.09376 0.576862 0
M  V30 1241 N 113.436 6.85727 1.5074 0
M  V30 1242 H 118.276 2.91477 -0.620093 0
M  V30 1243 H 115.813 1.43631 -0.317594 0
M  V30 1244 H 117.771 3.81385 1.6912 0
M  V30 1245 H 116.401 2.67799 1.80232 0
M  V30 1246 H 115.453 3.78805 -0.348023 0
M  V30 1247 H 116.765 4.98235 -0.237423 0
M  V30 1248 H 115.919 5.72897 1.99684 0
M  V30 1249 H 114.658 4.46423 1.9636 0
M  V30 1250 H 113.663 5.49715 -0.0968519 0
M  V30 1251 H 114.888 6.79085 -0.0449341 0
M  V30 1252 H 112.834 6.20735 2.12189 0
M  V30 1253 H 112.751 7.49778 0.967913 0
M  V30 1254 H 114.019 7.4906 2.15706 0
M  V30 1255 N 118.248 0.346503 1.53744 0
M  V30 1256 C 119.195 -0.508914 2.25119 0
M  V30 1257 C 120.165 -1.09315 1.25058 0
M  V30 1258 O 121.35 -1.12921 1.53797 0
M  V30 1259 C 118.49 -1.65246 3.02965 0
M  V30 1260 C 117.603 -1.09525 4.17886 0
M  V30 1261 C 116.738 -2.20634 4.83212 0
M  V30 1262 C 115.777 -1.62279 5.90196 0
M  V30 1263 N 114.914 -2.67143 6.49291 0
M  V30 1264 H 119.754 0.106283 2.9781 0
M  V30 1265 H 117.291 0.0642227 1.4696 0
M  V30 1266 H 119.249 -2.32574 3.4636 0
M  V30 1267 H 117.879 -2.2386 2.32565 0
M  V30 1268 H 116.931 -0.312818 3.79112 0
M  V30 1269 H 118.243 -0.628444 4.94825 0
M  V30 1270 H 117.397 -2.95821 5.29693 0
M  V30 1271 H 116.136 -2.70659 4.05703 0
M  V30 1272 H 115.141 -0.855989 5.43096 0
M  V30 1273 H 116.366 -1.13102 6.69615 0
M  V30 1274 H 114.312 -3.16417 5.74645 0
M  V30 1275 H 114.229 -2.25093 7.21713 0
M  V30 1276 H 115.497 -3.4209 7.00425 0
M  V30 1277 N 119.726 -1.57421 0.075193 0
M  V30 1278 C 120.975 -1.92794 -0.592731 0
M  V30 1279 C 121.288 -0.957478 -1.70563 0
M  V30 1280 O 122.494 -1.20417 -2.43335 0
M  V30 1281 C 120.95 -3.42495 -1.10569 0
M  V30 1282 C 120.558 -4.47994 -0.0236121 0
M  V30 1283 C 122.302 -3.86864 -1.74748 0
M  V30 1284 C 120.209 -5.88829 -0.550803 0
M  V30 1285 H 119.139 -0.719591 -0.225177 0
M  V30 1286 H 121.79 -1.82902 0.147978 0
M  V30 1287 H 120.172 -3.47471 -1.89947 0
M  V30 1288 H 121.346 -4.54637 0.751099 0
M  V30 1289 H 119.661 -4.13113 0.522159 0
M  V30 1290 H 122.258 -4.8947 -2.15229 0
M  V30 1291 H 122.601 -3.24417 -2.60882 0
M  V30 1292 H 123.134 -3.84504 -1.01986 0
M  V30 1293 H 119.873 -6.54929 0.273457 0
M  V30 1294 H 119.393 -5.85698 -1.29296 0
M  V30 1295 H 121.072 -6.38811 -1.02613 0
M  V30 1296 N 121.204 0.198386 -1.56346 0
M  V30 1297 C 122.62 0.549085 -1.49857 0
M  V30 1298 C 122.82 1.86016 -0.774611 0
M  V30 1299 O 121.876 2.50416 -0.323776 0
M  V30 1300 C 123.189 0.606868 -2.94512 0
M  V30 1301 C 124.737 0.695925 -3.05165 0
M  V30 1302 C 125.212 0.784848 -4.51225 0
M  V30 1303 N 126.703 0.848463 -4.55363 0
M  V30 1304 C 127.438 0.937378 -5.65686 0
M  V30 1305 N 126.934 0.9888 -6.85707 0
M  V30 1306 N 128.727 0.974312 -5.53592 0
M  V30 1307 H 120.878 -0.661655 -2.01831 0
M  V30 1308 H 123.141 -0.235261 -0.918344 0
M  V30 1309 H 122.847 -0.28732 -3.50524 0
M  V30 1310 H 122.721 1.46268 -3.47686 0
M  V30 1311 H 125.108 1.58055 -2.49204 0
M  V30 1312 H 125.189 -0.186022 -2.55123 0
M  V30 1313 H 124.833 -0.0954072 -5.0781 0
M  V30 1314 H 124.763 1.68255 -4.98997 0
M  V30 1315 H 127.254 0.818103 -3.68938 0
M  V30 1316 H 127.567 1.05707 -7.65536 0
M  V30 1317 H 125.912 0.957534 -6.88372 0
M  V30 1318 H 129.103 0.930954 -4.58749 0
M  V30 1319 H 129.276 1.04015 -6.39597 0
M  V30 1320 N 122.682 1.50554 0.465978 0
M  V30 1321 C 123.93 1.61479 1.21528 0
M  V30 1322 C 124.251 0.319596 1.92363 0
M  V30 1323 O 123.521 -0.663194 1.84333 0
M  V30 1324 H 122.101 0.595055 0.451573 0
M  V30 1325 H 124.763 1.87355 0.53704 0
M  V30 1326 H 123.859 2.42846 1.96042 0
M  V30 1327 N 124.16 -0.719506 1.40217 0
M  V30 1328 C 125.09 -1.8465 1.42922 0
M  V30 1329 C 126.071 -1.67599 0.29062 0
M  V30 1330 O 127.256 -1.87688 0.498677 0
M  V30 1331 C 124.386 -3.22565 1.28722 0
M  V30 1332 C 123.34 -3.54281 2.40144 0
M  V30 1333 C 122.666 -4.91298 2.11023 0
M  V30 1334 C 123.966 -3.55676 3.82481 0
M  V30 1335 H 125.66 -1.82644 2.37237 0
M  V30 1336 H 123.206 -0.877305 1.1419 0
M  V30 1337 H 125.159 -4.01095 1.29232 0
M  V30 1338 H 123.883 -3.25137 0.308811 0
M  V30 1339 H 122.542 -2.78088 2.38877 0
M  V30 1340 H 122.19 -4.90468 1.11582 0
M  V30 1341 H 121.89 -5.13485 2.8567 0
M  V30 1342 H 123.414 -5.72166 2.13209 0
M  V30 1343 H 124.828 -4.24254 3.85592 0
M  V30 1344 H 123.225 -3.89388 4.56614 0
M  V30 1345 H 124.295 -2.55144 4.12346 0
M  V30 1346 N 125.638 -1.25649 -0.95132 0
M  V30 1347 C 126.57 -1.02112 -2.05197 0
M  V30 1348 C 127.583 0.0150571 -1.62793 0
M  V30 1349 O 128.772 -0.223874 -1.77091 0
M  V30 1350 C 125.872 -0.522361 -3.3485 0
M  V30 1351 C 125.045 -1.62546 -4.06076 0
M  V30 1352 C 124.104 -1.12649 -5.14001 0
M  V30 1353 O 123.13 -1.82156 -5.39266 0
M  V30 1354 N 124.332 0.03047 -5.80492 0
M  V30 1355 H 127.097 -1.96885 -2.25957 0
M  V30 1356 H 124.658 -1.16899 -1.1201 0
M  V30 1357 H 126.65 -0.172961 -4.0433 0
M  V30 1358 H 125.22 0.33151 -3.10837 0
M  V30 1359 H 124.44 -2.14628 -3.30649 0
M  V30 1360 H 125.728 -2.36644 -4.50419 0
M  V30 1361 H 125.126 0.611169 -5.62389 0
M  V30 1362 H 123.683 0.320875 -6.5101 0
M  V30 1363 N 127.117 1.15442 -1.07289 0
M  V30 1364 C 128.05 2.19135 -0.636798 0
M  V30 1365 C 129.028 1.58884 0.34562 0
M  V30 1366 O 130.212 1.86805 0.252195 0
M  V30 1367 C 127.339 3.38638 0.0650014 0
M  V30 1368 C 126.385 4.17412 -0.87576 0
M  V30 1369 S 127.218 4.79882 -2.37642 0
M  V30 1370 C 128.374 6.02753 -1.6864 0
M  V30 1371 H 128.607 2.55787 -1.51526 0
M  V30 1372 H 126.14 1.26394 -0.886793 0
M  V30 1373 H 128.098 4.07873 0.463664 0
M  V30 1374 H 126.759 3.00331 0.919801 0
M  V30 1375 H 125.952 5.02909 -0.33143 0
M  V30 1376 H 125.554 3.53722 -1.21478 0
M  V30 1377 H 127.846 6.70113 -0.997753 0
M  V30 1378 H 128.789 6.61754 -2.51967 0
M  V30 1379 H 129.197 5.52355 -1.16465 0
M  V30 1380 N 128.595 0.856903 1.32268 0
M  V30 1381 C 129.542 0.301172 2.28827 0
M  V30 1382 C 130.512 -0.593104 1.5515 0
M  V30 1383 O 131.697 -0.527537 1.83362 0
M  V30 1384 C 128.837 -0.502523 3.41422 0
M  V30 1385 C 127.95 0.417797 4.29975 0
M  V30 1386 C 127.085 -0.398749 5.29701 0
M  V30 1387 C 126.124 0.518827 6.09897 0
M  V30 1388 N 125.261 -0.260674 7.01616 0
M  V30 1389 H 130.101 1.12983 2.75751 0
M  V30 1390 H 127.638 0.568582 1.35667 0
M  V30 1391 H 129.596 -0.984141 4.05426 0
M  V30 1392 H 128.226 -1.29599 2.95642 0
M  V30 1393 H 127.278 1.01781 3.66531 0
M  V30 1394 H 128.59 1.12191 4.86019 0
M  V30 1395 H 127.744 -0.943435 5.9932 0
M  V30 1396 H 126.483 -1.13622 4.7428 0
M  V30 1397 H 125.488 1.07538 5.39181 0
M  V30 1398 H 126.713 1.25495 6.67404 0
M  V30 1399 H 124.659 -0.981198 6.4862 0
M  V30 1400 H 124.576 0.384364 7.55022 0
M  V30 1401 H 125.844 -0.787014 7.75517 0
M  V30 1402 N 130.073 -1.45103 0.615059 0
M  V30 1403 C 131.036 -2.29025 -0.0895485 0
M  V30 1404 C 132.036 -1.40174 -0.787906 0
M  V30 1405 O 133.226 -1.62217 -0.634933 0
M  V30 1406 C 130.358 -3.21376 -1.13711 0
M  V30 1407 H 131.551 -2.92807 0.648382 0
M  V30 1408 H 129.104 -1.51749 0.374444 0
M  V30 1409 H 129.839 -2.6241 -1.90556 0
M  V30 1410 H 129.624 -3.86834 -0.640475 0
M  V30 1411 H 131.114 -3.84459 -1.63036 0
M  V30 1412 N 131.551 -0.354651 -1.53558 0
M  V30 1413 C 132.461 0.50515 -2.29097 0
M  V30 1414 C 133.477 1.10223 -1.34636 0
M  V30 1415 O 134.653 1.11553 -1.67684 0
M  V30 1416 C 131.718 1.63479 -3.05738 0
M  V30 1417 C 130.779 1.06636 -4.15845 0
M  V30 1418 C 130.012 2.14217 -4.88822 0
M  V30 1419 O 130.235 3.35137 -4.61562 0
M  V30 1420 O 129.169 1.77887 -5.75013 0
M  V30 1421 H 132.995 -0.109237 -3.03503 0
M  V30 1422 H 130.58 -0.119357 -1.48922 0
M  V30 1423 H 132.462 2.2918 -3.5363 0
M  V30 1424 H 131.137 2.23478 -2.34178 0
M  V30 1425 H 130.044 0.373565 -3.7223 0
M  V30 1426 H 131.377 0.511081 -4.89539 0
M  V30 1427 N 133.029 1.57378 -0.0835403 0
M  V30 1428 C 134.306 1.85363 0.624507 0
M  V30 1429 C 134.686 0.978239 1.87066 0
M  V30 1430 O 134.034 0.0475908 2.2845 0
M  V30 1431 C 134.244 3.35795 0.950947 0
M  V30 1432 C 135.592 4.03581 1.31939 0
M  V30 1433 O 136.616 3.40609 1.04232 0
M  V30 1434 O 135.475 5.14672 1.83779 0
M  V30 1435 H 132.569 0.766162 0.311329 0
M  V30 1436 H 135.115 1.69307 -0.115362 0
M  V30 1437 H 133.887 3.91244 0.0663899 0
M  V30 1438 H 133.51 3.57154 1.74719 0
M  V30 1439 N 134.507 -0.190092 1.56449 0
M  V30 1440 C 135.737 -0.92443 1.84764 0
M  V30 1441 C 136.145 -1.77146 0.664529 0
M  V30 1442 O 135.488 -1.79812 -0.375957 0
M  V30 1443 C 135.55 -1.86651 3.07248 0
M  V30 1444 C 135.214 -1.20094 4.40938 0
M  V30 1445 C 136.211 -0.575445 5.16706 0
M  V30 1446 C 133.896 -1.2033 4.87674 0
M  V30 1447 C 135.89 0.0388111 6.37388 0
M  V30 1448 C 133.577 -0.585214 6.08291 0
M  V30 1449 C 134.575 0.0347578 6.82991 0
M  V30 1450 O 134.263 0.643147 8.01323 0
M  V30 1451 H 133.995 -0.274974 0.617548 0
M  V30 1452 H 136.549 -0.200788 2.04416 0
M  V30 1453 H 134.779 -2.62998 2.83494 0
M  V30 1454 H 136.468 -2.46907 3.22167 0
M  V30 1455 H 137.234 -0.565728 4.81689 0
M  V30 1456 H 133.113 -1.67526 4.29484 0
M  V30 1457 H 136.657 0.523329 6.95634 0
M  V30 1458 H 132.554 -0.592451 6.42775 0
M  V30 1459 H 133.322 0.540545 8.16713 0
M  V30 1460 N 135.985 -1.50799 -0.457987 0
M  V30 1461 C 137.262 -1.52968 -1.21902 0
M  V30 1462 C 137.642 -0.281906 -2.09209 0
M  V30 1463 O 136.99 0.734076 -2.16388 0
M  V30 1464 C 137.2 -2.8326 -2.03875 0
M  V30 1465 C 138.548 -3.34425 -2.6162 0
M  V30 1466 O 139.572 -2.8467 -2.14106 0
M  V30 1467 O 138.431 -4.21188 -3.48228 0
M  V30 1468 H 135.525 -0.614129 -0.553873 0
M  V30 1469 H 138.071 -1.63098 -0.468739 0
M  V30 1470 H 136.843 -3.65543 -1.39621 0
M  V30 1471 H 136.466 -2.76195 -2.8601 0
M  V30 1472 N 137.463 0.71206 -1.40597 0
M  V30 1473 C 138.709 1.47416 -1.39271 0
M  V30 1474 C 139.042 1.942 0.00388791 0
M  V30 1475 O 138.317 1.68403 0.973179 0
M  V30 1476 C 138.6 2.69774 -2.38525 0
M  V30 1477 C 138.453 2.28861 -3.87224 0
M  V30 1478 C 139.772 3.71939 -2.35264 0
M  V30 1479 H 136.891 0.534713 -0.5072 0
M  V30 1480 H 139.533 0.812375 -1.71757 0
M  V30 1481 H 137.683 3.26238 -2.10953 0
M  V30 1482 H 139.355 1.77852 -4.25636 0
M  V30 1483 H 137.598 1.60824 -4.02887 0
M  V30 1484 H 138.269 3.16584 -4.52193 0
M  V30 1485 H 140.745 3.25113 -2.59694 0
M  V30 1486 H 139.621 4.55186 -3.06753 0
M  V30 1487 H 139.882 4.20484 -1.36549 0
M  V30 1488 N 138.941 1.26152 0.944643 0
M  V30 1489 C 140.187 1.11657 1.69294 0
M  V30 1490 C 140.52 -0.339926 1.91202 0
M  V30 1491 O 139.795 -1.24994 1.49019 0
M  V30 1492 C 140.078 1.88236 3.06984 0
M  V30 1493 C 139.931 3.41772 2.92424 0
M  V30 1494 C 141.25 1.67343 4.07043 0
M  V30 1495 H 138.369 0.407004 0.614424 0
M  V30 1496 H 141.011 1.55106 1.09737 0
M  V30 1497 H 139.161 1.51308 3.57824 0
M  V30 1498 H 140.833 3.88433 2.48832 0
M  V30 1499 H 139.076 3.68974 2.28124 0
M  V30 1500 H 139.747 3.90579 3.90067 0
M  V30 1501 H 142.223 1.99509 3.65151 0
M  V30 1502 H 141.099 2.23346 5.01406 0
M  V30 1503 H 141.36 0.617158 4.37771 0
M  V30 1504 N 140.419 -1.14872 1.07899 0
M  V30 1505 C 141.366 -2.19791 0.704319 0
M  V30 1506 C 142.336 -1.63238 -0.306987 0
M  V30 1507 O 143.521 -1.8983 -0.192171 0
M  V30 1508 C 140.661 -3.44911 0.114244 0
M  V30 1509 C 139.774 -4.15637 1.1777 0
M  V30 1510 C 138.909 -5.28324 0.552037 0
M  V30 1511 C 137.948 -5.90875 1.59789 0
M  V30 1512 N 137.085 -6.95022 0.994404 0
M  V30 1513 H 141.925 -2.5119 1.60336 0
M  V30 1514 H 139.462 -1.23356 0.801352 0
M  V30 1515 H 141.42 -4.16477 -0.245544 0
M  V30 1516 H 140.05 -3.14011 -0.74813 0
M  V30 1517 H 139.102 -3.42512 1.65499 0
M  V30 1518 H 140.414 -4.5823 1.97046 0
M  V30 1519 H 139.568 -6.06538 0.1402 0
M  V30 1520 H 138.307 -4.86939 -0.272431 0
M  V30 1521 H 137.312 -5.11369 2.01945 0
M  V30 1522 H 138.537 -6.34337 2.42474 0
M  V30 1523 H 136.483 -6.55722 0.190939 0
M  V30 1524 H 136.4 -7.36073 1.72432 0
M  V30 1525 H 137.668 -7.77123 0.608253 0
M  V30 1526 N 141.898 -0.863906 -1.31812 0
M  V30 1527 C 143.144 -0.472535 -1.97218 0
M  V30 1528 C 143.477 0.971394 -1.68159 0
M  V30 1529 O 142.752 1.68309 -0.974798 0
M  V30 1530 C 143.035 -0.723054 -3.52766 0
M  V30 1531 C 142.888 -2.21608 -3.91421 0
M  V30 1532 C 144.207 -0.185522 -4.39709 0
M  V30 1533 H 141.326 -0.173158 -0.71637 0
M  V30 1534 H 143.968 -1.08403 -1.56041 0
M  V30 1535 H 142.118 -0.202577 -3.87971 0
M  V30 1536 H 143.79 -2.80334 -3.66347 0
M  V30 1537 H 142.033 -2.691 -3.40246 0
M  V30 1538 H 142.704 -2.34203 -4.99853 0
M  V30 1539 H 145.18 -0.630726 -4.11292 0
M  V30 1540 H 144.056 -0.390306 -5.47511 0
M  V30 1541 H 144.317 0.912229 -4.32586 0
M  V30 1542 N 143.376 1.44774 -0.622745 0
M  V30 1543 C 144.625 2.01334 -0.121397 0
M  V30 1544 C 144.938 1.49505 1.26125 0
M  V30 1545 O 146.144 1.98139 1.85616 0
M  V30 1546 C 144.6 3.59516 -0.166298 0
M  V30 1547 C 144.208 4.20342 -1.54974 0
M  V30 1548 C 145.952 4.23582 0.279021 0
M  V30 1549 C 143.859 5.70721 -1.55021 0
M  V30 1550 H 142.789 0.752851 -0.0416172 0
M  V30 1551 H 145.44 1.66083 -0.780309 0
M  V30 1552 H 143.822 3.92027 0.559557 0
M  V30 1553 H 144.996 3.99381 -2.29851 0
M  V30 1554 H 143.311 3.68529 -1.93843 0
M  V30 1555 H 145.908 5.33868 0.298083 0
M  V30 1556 H 146.251 3.95327 1.30471 0
M  V30 1557 H 146.784 3.95843 -0.394063 0
M  V30 1558 H 143.523 6.03698 -2.55399 0
M  V30 1559 H 143.043 5.93829 -0.844245 0
M  V30 1560 H 144.722 6.34203 -1.28047 0
M  V30 1561 N 144.854 0.36279 1.53368 0
M  V30 1562 C 146.102 -0.227326 2.00817 0
M  V30 1563 C 146.423 -1.49511 1.25186 0
M  V30 1564 O 145.693 -1.92482 0.364348 0
M  V30 1565 H 144.273 -0.0869923 0.741917 0
M  V30 1566 H 146.935 0.488381 1.88682 0
M  V30 1567 H 146.031 -0.456273 3.08747 0
M  V30 1568 N 146.332 -1.57332 0.0918853 0
M  V30 1569 C 147.748 -1.57389 -0.264766 0
M  V30 1570 C 147.948 -1.10281 -1.68643 0
M  V30 1571 O 147.004 -0.777801 -2.40222 0
M  V30 1572 C 148.317 -3.00648 -0.0561195 0
M  V30 1573 C 149.865 -3.12754 -0.124116 0
M  V30 1574 C 150.34 -4.57965 0.0564972 0
M  V30 1575 N 151.831 -4.632 0.00155611 0
M  V30 1576 C 152.566 -5.73281 0.116598 0
M  V30 1577 N 152.062 -6.92208 0.286294 0
M  V30 1578 N 153.855 -5.6207 0.0580973 0
M  V30 1579 H 146.006 -1.86262 1.02079 0
M  V30 1580 H 148.269 -0.859579 0.399786 0
M  V30 1581 H 147.975 -3.393 0.925669 0
M  V30 1582 H 147.849 -3.68623 -0.799823 0
M  V30 1583 H 150.236 -2.73976 -1.09641 0
M  V30 1584 H 150.317 -2.47377 0.651024 0
M  V30 1585 H 149.961 -4.97436 1.02564 0
M  V30 1586 H 149.891 -5.21399 -0.738297 0
M  V30 1587 H 152.382 -3.77686 -0.127192 0
M  V30 1588 H 152.695 -7.71934 0.365676 0
M  V30 1589 H 151.04 -6.94254 0.32192 0
M  V30 1590 H 154.231 -4.68043 -0.0733204 0
M  V30 1591 H 154.404 -6.47824 0.151203 0
M  V30 1592 N 147.81 0.181792 -1.56548 0
M  V30 1593 C 149.058 0.89832 -1.81038 0
M  V30 1594 C 149.379 1.83232 -0.667164 0
M  V30 1595 O 148.649 1.93372 0.313673 0
M  V30 1596 H 147.229 0.33471 -0.667816 0
M  V30 1597 H 149.891 0.184116 -1.94028 0
M  V30 1598 H 148.987 1.4815 -2.74696 0
M  V30 1599 N 149.288 1.51039 0.449983 0
M  V30 1600 C 150.251 1.70863 1.5277 0
M  V30 1601 C 151.251 0.578846 1.5002 0
M  V30 1602 O 152.441 0.846213 1.52266 0
M  V30 1603 C 149.573 1.75341 2.9235 0
M  V30 1604 H 150.766 2.67034 1.36502 0
M  V30 1605 H 148.319 1.40838 0.677812 0
M  V30 1606 H 149.054 0.809383 3.14037 0
M  V30 1607 H 148.839 2.57436 2.95752 0
M  V30 1608 H 150.329 1.92559 3.70555 0
M  V30 1609 N 150.766 -0.704594 1.40972 0
M  V30 1610 C 152.013 -1.46458 1.39844 0
M  V30 1611 C 152.341 -1.94499 0.00447594 0
M  V30 1612 O 151.596 -1.69275 -0.982057 0
M  V30 1613 C 151.895 -2.698 2.34399 0
M  V30 1614 C 151.561 -2.40464 3.81429 0
M  V30 1615 C 150.223 -2.32174 4.21484 0
M  V30 1616 C 152.575 -2.16086 4.74296 0
M  V30 1617 C 149.903 -1.97589 5.52427 0
M  V30 1618 C 152.255 -1.83011 6.05549 0
M  V30 1619 C 150.919 -1.7321 6.44635 0
M  V30 1620 H 150.189 -0.535927 0.511725 0
M  V30 1621 H 152.836 -0.806124 1.73706 0
M  V30 1622 H 151.141 -3.40536 1.93759 0
M  V30 1623 H 152.838 -3.27919 2.30804 0
M  V30 1624 H 149.428 -2.47808 3.49699 0
M  V30 1625 H 153.612 -2.2144 4.4416 0
M  V30 1626 H 148.868 -1.88547 5.81601 0
M  V30 1627 H 153.042 -1.63164 6.77016 0
M  V30 1628 H 150.669 -1.46179 7.46013 0
M  V30 1629 N 152.244 -1.26651 -0.937939 0
M  V30 1630 C 153.492 -1.12165 -1.68118 0
M  V30 1631 C 153.813 0.334983 -1.92101 0
M  V30 1632 O 153.083 1.23583 -1.52 0
M  V30 1633 H 151.663 -0.412093 -0.623048 0
M  V30 1634 H 154.325 -1.59027 -1.12678 0
M  V30 1635 H 153.421 -1.64289 -2.6536 0
M  V30 1636 N 153.722 1.14298 -1.08507 0
M  V30 1637 C 154.632 2.23027 -0.727753 0
M  V30 1638 C 155.648 1.71952 0.26619 0
M  V30 1639 O 156.824 2.011 0.109882 0
M  V30 1640 C 153.889 3.46403 -0.143541 0
M  V30 1641 C 152.95 4.12413 -1.19223 0
M  V30 1642 C 152.183 5.29899 -0.635798 0
M  V30 1643 O 152.406 5.67796 0.544393 0
M  V30 1644 O 151.34 5.85717 -1.38634 0
M  V30 1645 H 155.166 2.55945 -1.63481 0
M  V30 1646 H 152.751 1.22248 -0.858817 0
M  V30 1647 H 154.633 4.21018 0.179404 0
M  V30 1648 H 153.308 3.15206 0.736659 0
M  V30 1649 H 152.215 3.39667 -1.56772 0
M  V30 1650 H 153.548 4.47718 -2.04474 0
M  V30 1651 N 155.201 0.870884 1.31352 0
M  V30 1652 C 156.447 0.482987 1.96965 0
M  V30 1653 C 156.78 -0.962462 1.68672 0
M  V30 1654 O 156.055 -1.6779 0.98371 0
M  V30 1655 C 156.338 0.741752 3.52378 0
M  V30 1656 C 156.191 2.2368 3.9024 0
M  V30 1657 C 157.51 0.208838 4.39604 0
M  V30 1658 H 154.629 0.176955 0.715441 0
M  V30 1659 H 157.271 1.09229 1.55464 0
M  V30 1660 H 155.421 0.223149 3.87859 0
M  V30 1661 H 157.093 2.82273 3.64856 0
M  V30 1662 H 155.336 2.70901 3.38814 0
M  V30 1663 H 156.007 2.3685 4.98604 0
M  V30 1664 H 158.483 0.652529 4.10952 0
M  V30 1665 H 157.359 0.419336 5.47296 0
M  V30 1666 H 157.62 -0.889275 4.33064 0
M  V30 1667 N 156.679 -1.44442 0.630414 0
M  V30 1668 C 157.611 -2.2892 -0.113347 0
M  V30 1669 C 158.624 -1.41243 -0.80959 0
M  V30 1670 O 159.813 -1.65402 -0.671156 0
M  V30 1671 C 156.913 -3.17594 -1.18266 0
M  V30 1672 C 156.086 -4.33682 -0.569073 0
M  V30 1673 C 155.145 -5.03397 -1.53226 0
M  V30 1674 O 154.171 -5.59438 -1.04967 0
M  V30 1675 N 155.373 -5.04783 -2.86661 0
M  V30 1676 H 158.138 -2.93392 0.611636 0
M  V30 1677 H 155.699 -1.54881 0.471523 0
M  V30 1678 H 157.691 -3.61097 -1.82732 0
M  V30 1679 H 156.261 -2.54876 -1.80988 0
M  V30 1680 H 155.481 -3.9338 0.254187 0
M  V30 1681 H 156.769 -5.08608 -0.139767 0
M  V30 1682 H 156.167 -4.60584 -3.28449 0
M  V30 1683 H 154.724 -5.52077 -3.46489 0
M  V30 1684 N 158.157 -0.370918 -1.53173 0
M  V30 1685 C 159.087 0.464847 -2.28826 0
M  V30 1686 C 160.068 1.07936 -1.31468 0
M  V30 1687 O 161.253 1.0956 -1.60344 0
M  V30 1688 C 158.383 1.60196 -3.08147 0
M  V30 1689 C 157.337 1.11443 -4.13237 0
M  V30 1690 C 156.663 2.3422 -4.80672 0
M  V30 1691 C 157.963 0.195384 -5.21934 0
M  V30 1692 H 159.657 -0.166329 -2.98938 0
M  V30 1693 H 157.203 -0.0814359 -1.4377 0
M  V30 1694 H 159.156 2.19332 -3.59822 0
M  V30 1695 H 157.88 2.26045 -2.35735 0
M  V30 1696 H 156.539 0.545727 -3.62515 0
M  V30 1697 H 156.187 2.98537 -4.04827 0
M  V30 1698 H 155.887 2.02269 -5.51689 0
M  V30 1699 H 157.411 2.94032 -5.35143 0
M  V30 1700 H 158.825 0.694375 -5.69079 0
M  V30 1701 H 157.222 -0.0335027 -6.00091 0
M  V30 1702 H 158.292 -0.760961 -4.78892 0
M  V30 1703 N 159.635 1.57281 -0.100228 0
M  V30 1704 C 160.881 1.94826 0.563101 0
M  V30 1705 C 161.214 0.982475 1.67514 0
M  V30 1706 O 160.489 0.0164069 1.94493 0
M  V30 1707 C 160.772 3.42453 1.11346 0
M  V30 1708 C 160.625 4.498 0.00612081 0
M  V30 1709 C 161.944 3.91506 2.01024 0
M  V30 1710 H 159.063 0.708428 0.203221 0
M  V30 1711 H 161.705 1.8922 -0.171979 0
M  V30 1712 H 159.855 3.47361 1.7399 0
M  V30 1713 H 161.527 4.57 -0.628357 0
M  V30 1714 H 159.77 4.28756 -0.659581 0
M  V30 1715 H 160.441 5.50306 0.432109 0
M  V30 1716 H 162.917 3.88784 1.48278 0
M  V30 1717 H 161.793 4.95358 2.36457 0
M  V30 1718 H 162.054 3.31099 2.92961 0
M  V30 1719 N 161.113 -0.173488 1.56642 0
M  V30 1720 C 162.529 -0.525174 1.50712 0
M  V30 1721 C 162.729 -1.8476 0.804107 0
M  V30 1722 O 161.785 -2.49869 0.363574 0
M  V30 1723 C 163.098 -0.559937 2.95441 0
M  V30 1724 C 164.646 -0.647288 3.06234 0
M  V30 1725 C 165.121 -0.712963 4.52417 0
M  V30 1726 N 166.612 -0.775911 4.56655 0
M  V30 1727 C 167.347 -0.847264 5.67106 0
M  V30 1728 N 166.843 -0.879585 6.87194 0
M  V30 1729 N 168.636 -0.886117 5.55071 0
M  V30 1730 H 160.787 0.693681 2.00753 0
M  V30 1731 H 163.05 0.249841 0.914485 0
M  V30 1732 H 162.756 0.343049 3.50023 0
M  V30 1733 H 162.63 -1.40718 3.49969 0
M  V30 1734 H 165.017 -1.5407 2.51687 0
M  V30 1735 H 165.098 0.226586 2.54794 0
M  V30 1736 H 164.742 0.176183 5.07594 0
M  V30 1737 H 164.672 -1.60295 5.0161 0
M  V30 1738 H 167.163 -0.759304 3.70193 0
M  V30 1739 H 167.476 -0.935144 7.67121 0
M  V30 1740 H 165.821 -0.847898 6.89808 0
M  V30 1741 H 169.012 -0.857853 4.60172 0
M  V30 1742 H 169.185 -0.938263 6.41171 0
M  V30 1743 N 162.591 -1.51276 -0.441967 0
M  V30 1744 C 163.541 -1.6864 -1.53442 0
M  V30 1745 C 164.525 -0.540444 -1.51552 0
M  V30 1746 O 165.717 -0.796157 -1.58083 0
M  V30 1747 C 162.846 -1.8106 -2.91672 0
M  V30 1748 C 161.932 -3.01424 -2.98336 0
M  V30 1749 N 162.323 -4.2467 -2.74752 0
M  V30 1750 C 160.621 -3.00584 -3.29493 0
M  V30 1751 C 161.322 -5.05891 -2.87139 0
M  V30 1752 N 160.298 -4.40442 -3.18609 0
M  V30 1753 H 164.1 -2.61598 -1.33954 0
M  V30 1754 H 161.614 -1.4886 -0.6492 0
M  V30 1755 H 163.611 -1.91609 -3.70259 0
M  V30 1756 H 162.271 -0.892795 -3.12185 0
M  V30 1757 H 163.282 -4.53691 -2.49769 0
M  V30 1758 H 159.959 -2.18417 -3.55809 0
M  V30 1759 H 161.349 -6.13983 -2.72899 0
M  V30 1760 N 164.069 0.697108 -1.41344 0
M  V30 1761 C 165.016 1.81106 -1.43071 0
M  V30 1762 C 165.986 1.63632 -0.285275 0
M  V30 1763 O 167.171 1.84504 -0.486091 0
M  V30 1764 C 164.311 3.18975 -1.31715 0
M  V30 1765 C 163.424 3.47892 -2.56115 0
M  V30 1766 C 162.559 4.75367 -2.37064 0
M  V30 1767 C 161.598 4.97247 -3.56948 0
M  V30 1768 N 160.735 6.15947 -3.36977 0
M  V30 1769 H 165.575 1.78965 -2.38276 0
M  V30 1770 H 163.112 0.873975 -1.18322 0
M  V30 1771 H 165.07 3.98615 -1.23133 0
M  V30 1772 H 163.7 3.20297 -0.401183 0
M  V30 1773 H 162.752 2.62669 -2.75153 0
M  V30 1774 H 164.064 3.59962 -3.45295 0
M  V30 1775 H 163.218 5.63059 -2.25941 0
M  V30 1776 H 161.957 4.65541 -1.45338 0
M  V30 1777 H 160.962 4.08004 -3.68527 0
M  V30 1778 H 162.187 5.08934 -4.49626 0
M  V30 1779 H 160.133 6.07336 -2.47949 0
M  V30 1780 H 160.05 6.28777 -4.19732 0
M  V30 1781 H 161.318 7.06377 -3.29623 0
M  V30 1782 N 165.547 1.27147 0.931209 0
M  V30 1783 C 166.51 1.09615 2.01289 0
M  V30 1784 C 167.51 0.0412581 1.60747 0
M  V30 1785 O 168.7 0.285545 1.71844 0
M  V30 1786 C 165.832 0.669447 3.34262 0
M  V30 1787 H 167.025 2.05662 2.18273 0
M  V30 1788 H 164.578 1.09885 1.11153 0
M  V30 1789 H 165.313 -0.292572 3.22978 0
M  V30 1790 H 165.098 1.43127 3.65044 0
M  V30 1791 H 166.588 0.568921 4.13706 0
M  V30 1792 N 167.025 -1.13721 1.09112 0
M  V30 1793 C 168.25 -1.89314 0.847053 0
M  V30 1794 C 168.675 -1.78416 -0.595774 0
M  V30 1795 O 168.033 -1.12942 -1.41823 0
M  V30 1796 C 168.081 -3.3701 1.28284 0
M  V30 1797 O 167.185 -4.10054 0.439267 0
M  V30 1798 H 166.526 -0.588745 0.307044 0
M  V30 1799 H 169.056 -1.43902 1.45442 0
M  V30 1800 H 169.066 -3.87834 1.26683 0
M  V30 1801 H 167.741 -3.4426 2.33363 0
M  V30 1802 H 166.318 -3.69266 0.519312 0
M  V30 1803 N 168.503 -0.877838 -1.30888 0
M  V30 1804 C 169.435 -0.296607 -2.27273 0
M  V30 1805 C 170.448 0.544799 -1.53414 0
M  V30 1806 O 171.637 0.365511 -1.74718 0
M  V30 1807 C 168.737 0.597481 -3.33592 0
M  V30 1808 C 167.91 -0.213251 -4.3688 0
M  V30 1809 C 166.969 0.610208 -5.2265 0
M  V30 1810 O 165.995 0.035441 -5.69189 0
M  V30 1811 N 167.197 1.92071 -5.47804 0
M  V30 1812 H 169.962 -1.12492 -2.77787 0
M  V30 1813 H 167.523 -0.740105 -1.43993 0
M  V30 1814 H 169.515 1.15425 -3.87891 0
M  V30 1815 H 168.085 1.32647 -2.83061 0
M  V30 1816 H 167.305 -0.951466 -3.82545 0
M  V30 1817 H 168.593 -0.769262 -5.02951 0
M  V30 1818 H 167.991 2.4107 -5.11763 0
M  V30 1819 H 166.548 2.42508 -6.05007 0
M  V30 1820 N 169.982 1.44106 -0.638065 0
M  V30 1821 C 170.929 2.30715 0.062701 0
M  V30 1822 C 171.899 1.43882 0.829883 0
M  V30 1823 O 173.084 1.72775 0.809532 0
M  V30 1824 C 170.224 3.29258 1.03358 0
M  V30 1825 C 169.337 4.31192 0.26409 0
M  V30 1826 C 168.472 5.16825 1.22741 0
M  V30 1827 C 167.511 6.10462 0.447475 0
M  V30 1828 N 166.648 6.8877 1.36161 0
M  V30 1829 H 171.488 2.90096 -0.681781 0
M  V30 1830 H 169.025 1.42925 -0.347988 0
M  V30 1831 H 170.983 3.84886 1.60992 0
M  V30 1832 H 169.613 2.71562 1.74511 0
M  V30 1833 H 168.665 3.77981 -0.428295 0
M  V30 1834 H 169.977 4.97619 -0.343052 0
M  V30 1835 H 169.131 5.77004 1.87487 0
M  V30 1836 H 167.87 4.50488 1.86847 0
M  V30 1837 H 166.875 5.49386 -0.213433 0
M  V30 1838 H 168.1 6.78837 -0.188968 0
M  V30 1839 H 166.046 6.25096 1.98975 0
M  V30 1840 H 165.963 7.51663 0.808656 0
M  V30 1841 H 167.231 7.53467 1.99769 0
M  V30 1842 N 171.46 0.379036 1.52974 0
M  V30 1843 C 172.706 -0.206727 2.01744 0
M  V30 1844 C 173.039 -1.47314 1.26539 0
M  V30 1845 O 172.314 -1.91084 0.362903 0
M  V30 1846 C 172.597 -0.485066 3.56818 0
M  V30 1847 C 172.45 0.795919 4.42702 0
M  V30 1848 C 173.769 -1.28003 4.21074 0
M  V30 1849 H 170.888 -0.0736607 0.73331 0
M  V30 1850 H 173.53 0.506581 1.83122 0
M  V30 1851 H 171.68 -1.09272 3.72816 0
M  V30 1852 H 173.352 1.43307 4.38476 0
M  V30 1853 H 171.595 1.41344 4.10127 0
M  V30 1854 H 172.266 0.555947 5.49193 0
M  V30 1855 H 174.742 -0.765867 4.08991 0
M  V30 1856 H 173.618 -1.44352 5.29579 0
M  V30 1857 H 173.879 -2.29236 3.78026 0
M  V30 1858 N 172.938 -1.57226 0.108567 0
M  V30 1859 C 174.168 -1.9889 -0.559142 0
M  V30 1860 C 174.576 -0.986889 -1.61422 0
M  V30 1861 O 173.919 0.0298705 -1.83676 0
M  V30 1862 C 173.981 -3.36952 -1.25315 0
M  V30 1863 C 173.645 -4.55679 -0.347248 0
M  V30 1864 C 174.642 -5.18281 0.409996 0
M  V30 1865 C 172.327 -5.0162 -0.261367 0
M  V30 1866 C 174.321 -6.25203 1.24096 0
M  V30 1867 C 172.008 -6.08405 0.573238 0
M  V30 1868 C 173.006 -6.70063 1.32304 0
M  V30 1869 O 172.694 -7.74788 2.14381 0
M  V30 1870 H 172.426 -0.658343 -0.153492 0
M  V30 1871 H 174.98 -2.04532 0.188584 0
M  V30 1872 H 173.21 -3.28032 -2.04773 0
M  V30 1873 H 174.899 -3.62974 -1.81673 0
M  V30 1874 H 175.665 -4.8371 0.353457 0
M  V30 1875 H 171.544 -4.53381 -0.834656 0
M  V30 1876 H 175.088 -6.73259 1.82669 0
M  V30 1877 H 170.985 -6.42406 0.631208 0
M  V30 1878 H 171.753 -7.91837 2.07209 0
M  V30 1879 N 174.416 0.165178 -1.56732 0
M  V30 1880 C 175.379 1.18822 -1.95995 0
M  V30 1881 C 176.379 1.3685 -0.84431 0
M  V30 1882 O 177.569 1.34152 -1.11126 0
M  V30 1883 C 174.701 2.5521 -2.26011 0
M  V30 1884 H 175.894 0.851825 -2.87548 0
M  V30 1885 H 173.447 0.407857 -1.50885 0
M  V30 1886 H 174.182 2.93852 -1.37191 0
M  V30 1887 H 173.967 2.43489 -3.07336 0
M  V30 1888 H 175.457 3.28927 -2.57288 0
M  V30 1889 N 175.894 1.51508 0.433938 0
M  V30 1890 C 176.827 1.67756 1.54704 0
M  V30 1891 C 177.805 0.525127 1.53887 0
M  V30 1892 O 178.989 0.749393 1.72963 0
M  V30 1893 C 176.116 1.69424 2.9328 0
M  V30 1894 C 175.162 2.90673 3.12108 0
M  V30 1895 S 175.995 4.51431 2.88046 0
M  V30 1896 C 177.151 4.55849 4.28897 0
M  V30 1897 H 177.384 2.61904 1.40689 0
M  V30 1898 H 174.917 1.41235 0.62386 0
M  V30 1899 H 176.875 1.7107 3.73156 0
M  V30 1900 H 175.536 0.764464 3.04655 0
M  V30 1901 H 174.729 2.88251 4.13434 0
M  V30 1902 H 174.331 2.86786 2.40062 0
M  V30 1903 H 176.623 4.31699 5.22152 0
M  V30 1904 H 177.566 5.57676 4.36351 0
M  V30 1905 H 177.974 3.85137 4.12711 0
M  V30 1906 N 177.372 -0.689602 1.41712 0
M  V30 1907 C 178.319 -1.80345 1.44029 0
M  V30 1908 C 179.289 -1.63478 0.293948 0
M  V30 1909 O 180.474 -1.84244 0.495869 0
M  V30 1910 C 177.614 -3.18272 1.33405 0
M  V30 1911 C 176.727 -3.46529 2.57956 0
M  V30 1912 C 175.862 -4.74103 2.39582 0
M  V30 1913 C 174.901 -4.95347 3.5958 0
M  V30 1914 N 174.038 -6.14151 3.40239 0
M  V30 1915 H 178.878 -1.77698 2.39222 0
M  V30 1916 H 176.415 -0.867688 1.18784 0
M  V30 1917 H 178.373 -3.97956 1.25246 0
M  V30 1918 H 177.003 -3.2008 0.418164 0
M  V30 1919 H 176.055 -2.61207 2.76542 0
M  V30 1920 H 177.367 -3.58126 3.47199 0
M  V30 1921 H 176.521 -5.61853 2.28924 0
M  V30 1922 H 175.26 -4.64763 1.47805 0
M  V30 1923 H 174.265 -4.06044 3.70686 0
M  V30 1924 H 175.49 -5.06542 4.52318 0
M  V30 1925 H 173.436 -6.06013 2.51167 0
M  V30 1926 H 173.353 -6.26543 4.23061 0
M  V30 1927 H 174.621 -7.04619 3.33365 0
M  V30 1928 N 178.85 -1.27639 -0.924453 0
M  V30 1929 C 179.78 -1.13166 -2.04244 0
M  V30 1930 C 180.761 -0.032256 -1.70069 0
M  V30 1931 O 181.946 -0.207328 -1.9309 0
M  V30 1932 C 179.076 -0.781496 -3.38393 0
M  V30 1933 C 178.03 -1.83449 -3.86692 0
M  V30 1934 C 177.356 -1.33822 -5.17683 0
M  V30 1935 C 178.656 -3.23917 -4.09726 0
M  V30 1936 H 180.35 -2.06689 -2.1661 0
M  V30 1937 H 177.896 -0.995136 -1.04082 0
M  V30 1938 H 179.849 -0.667057 -4.16087 0
M  V30 1939 H 178.573 0.189439 -3.2605 0
M  V30 1940 H 177.232 -1.93789 -3.11193 0
M  V30 1941 H 176.88 -0.35665 -5.01734 0
M  V30 1942 H 176.58 -2.04224 -5.50968 0
M  V30 1943 H 178.104 -1.23679 -5.97943 0
M  V30 1944 H 179.518 -3.16559 -4.77978 0
M  V30 1945 H 177.915 -3.92059 -4.54324 0
M  V30 1946 H 178.985 -3.68729 -3.14908 0
M  V30 1947 N 180.328 1.1314 -1.09713 0
M  V30 1948 C 181.258 2.20748 -0.761102 0
M  V30 1949 C 182.239 1.68061 0.262566 0
M  V30 1950 O 183.424 1.93765 0.129977 0
M  V30 1951 C 180.554 3.46812 -0.184054 0
M  V30 1952 C 179.508 4.12606 -1.13757 0
M  V30 1953 C 178.834 5.33031 -0.422083 0
M  V30 1954 C 180.134 4.59603 -2.48118 0
M  V30 1955 H 181.828 2.49113 -1.66082 0
M  V30 1956 H 179.374 1.19734 -0.799987 0
M  V30 1957 H 181.327 4.21353 0.0631215 0
M  V30 1958 H 180.051 3.17851 0.750868 0
M  V30 1959 H 178.71 3.40036 -1.37007 0
M  V30 1960 H 178.358 5.00335 0.517072 0
M  V30 1961 H 178.058 5.77999 -1.05788 0
M  V30 1962 H 179.582 6.10325 -0.183277 0
M  V30 1963 H 180.996 5.25552 -2.29059 0
M  V30 1964 H 179.393 5.15321 -3.07514 0
M  V30 1965 H 180.463 3.73971 -3.08665 0
M  V30 1966 N 181.806 0.884767 1.30421 0
M  V30 1967 C 183.031 0.517288 2.00845 0
M  V30 1968 C 183.456 -0.886779 1.65885 0
M  V30 1969 O 182.814 -1.58768 0.875354 0
M  V30 1970 C 182.862 0.698994 3.5376 0
M  V30 1971 O 181.966 -0.255208 4.1161 0
M  V30 1972 H 181.307 0.203872 0.631927 0
M  V30 1973 H 183.837 1.19225 1.66272 0
M  V30 1974 H 183.847 0.597912 4.03595 0
M  V30 1975 H 182.522 1.72271 3.78544 0
M  V30 1976 H 181.099 -0.10784 3.72744 0
M  V30 1977 N 183.284 -1.43765 0.645699 0
M  V30 1978 C 184.231 -2.30745 -0.0504648 0
M  V30 1979 C 185.201 -1.4432 -0.822241 0
M  V30 1980 O 186.386 -1.73202 -0.800358 0
M  V30 1981 C 183.526 -3.29802 -1.0161 0
M  V30 1982 C 182.639 -4.31326 -0.241219 0
M  V30 1983 C 181.774 -5.17469 -1.19998 0
M  V30 1984 C 180.813 -6.10691 -0.415094 0
M  V30 1985 N 179.95 -6.89483 -1.32506 0
M  V30 1986 H 184.79 -2.8973 0.697155 0
M  V30 1987 H 182.327 -1.42738 0.355563 0
M  V30 1988 H 184.285 -3.85734 -1.58949 0
M  V30 1989 H 182.915 -2.72483 -1.73069 0
M  V30 1990 H 181.967 -3.77749 0.448334 0
M  V30 1991 H 183.279 -4.9743 0.369437 0
M  V30 1992 H 182.433 -5.7799 -1.84424 0
M  V30 1993 H 181.172 -4.51473 -1.84455 0
M  V30 1994 H 180.177 -5.49265 0.242565 0
M  V30 1995 H 181.402 -6.78727 0.224966 0
M  V30 1996 H 179.348 -6.26142 -1.95657 0
M  V30 1997 H 179.265 -7.52081 -0.768783 0
M  V30 1998 H 180.533 -7.54516 -1.9577 0
M  V30 1999 N 184.763 -0.387143 -1.52771 0
M  V30 2000 C 186.01 0.195735 -2.01552 0
M  V30 2001 C 186.338 1.46995 -1.27369 0
M  V30 2002 O 185.593 1.92325 -0.361879 0
M  V30 2003 C 185.892 0.512209 -3.53711 0
M  V30 2004 C 185.558 -0.670202 -4.45891 0
M  V30 2005 C 184.22 -0.994586 -4.70809 0
M  V30 2006 C 186.572 -1.46134 -5.00294 0
M  V30 2007 C 183.9 -2.11169 -5.4738 0
M  V30 2008 C 186.252 -2.56903 -5.78086 0
M  V30 2009 C 184.916 -2.89852 -6.01284 0
M  V30 2010 H 184.186 0.0716246 -0.73753 0
M  V30 2011 H 186.833 -0.524046 -1.8419 0
M  V30 2012 H 185.138 1.31329 -3.69134 0
M  V30 2013 H 186.835 0.975804 -3.88946 0
M  V30 2014 H 183.425 -0.407366 -4.2666 0
M  V30 2015 H 187.609 -1.22397 -4.80971 0
M  V30 2016 H 182.865 -2.3707 -5.63567 0
M  V30 2017 H 187.039 -3.18608 -6.19243 0
M  V30 2018 H 184.666 -3.76533 -6.60399 0
M  V30 2019 N 186.241 1.57166 -0.116904 0
M  V30 2020 C 187.151 2.18745 0.847812 0
M  V30 2021 C 188.167 1.163 1.29423 0
M  V30 2022 O 189.343 1.48761 1.35765 0
M  V30 2023 C 186.408 2.77307 2.0809 0
M  V30 2024 C 185.469 3.94781 1.68661 0
M  V30 2025 C 184.702 4.50541 2.86091 0
M  V30 2026 O 184.925 4.05202 4.01456 0
M  V30 2027 O 183.859 5.41256 2.63298 0
M  V30 2028 H 187.685 3.01632 0.353778 0
M  V30 2029 H 185.27 1.49005 0.108599 0
M  V30 2030 H 187.152 3.14647 2.80313 0
M  V30 2031 H 185.827 1.97452 2.56504 0
M  V30 2032 H 184.734 3.62214 0.935518 0
M  V30 2033 H 186.067 4.76065 1.24991 0
M  V30 2034 N 187.719 -0.156864 1.56817 0
M  V30 2035 C 188.652 -1.22316 1.9265 0
M  V30 2036 C 189.63 -1.42059 0.791076 0
M  V30 2037 O 190.814 -1.56831 1.04576 0
M  V30 2038 C 187.941 -2.58375 2.18998 0
M  V30 2039 C 186.987 -2.55284 3.41661 0
M  V30 2040 S 187.82 -2.02946 4.95553 0
M  V30 2041 C 188.976 -3.40753 5.25013 0
M  V30 2042 H 189.209 -0.917403 2.82791 0
M  V30 2043 H 186.742 -0.362059 1.50095 0
M  V30 2044 H 188.7 -3.36677 2.34859 0
M  V30 2045 H 187.361 -2.86145 1.29538 0
M  V30 2046 H 186.554 -3.55418 3.57343 0
M  V30 2047 H 186.156 -1.85086 3.24991 0
M  V30 2048 H 188.448 -4.36819 5.17876 0
M  V30 2049 H 189.391 -3.29933 6.26538 0
M  V30 2050 H 189.799 -3.37433 4.52548 0
M  V30 2051 N 189.197 -1.51736 -0.425897 0
M  V30 2052 C 190.446 -1.64201 -1.17136 0
M  V30 2053 C 190.759 -0.369705 -1.92074 0
M  V30 2054 O 191.965 -0.373898 -2.68913 0
M  V30 2055 C 190.421 -2.90035 -2.13091 0
M  V30 2056 C 190.029 -4.24312 -1.43747 0
M  V30 2057 C 191.773 -3.1186 -2.87999 0
M  V30 2058 C 189.68 -5.41285 -2.38253 0
M  V30 2059 H 188.61 -0.611624 -0.440944 0
M  V30 2060 H 191.261 -1.78212 -0.437328 0
M  V30 2061 H 189.643 -2.69684 -2.89977 0
M  V30 2062 H 190.817 -4.55086 -0.723408 0
M  V30 2063 H 189.132 -4.08456 -0.809465 0
M  V30 2064 H 191.729 -3.96427 -3.58817 0
M  V30 2065 H 192.072 -2.25403 -3.49999 0
M  V30 2066 H 192.605 -3.32605 -2.18217 0
M  V30 2067 H 189.344 -6.30037 -1.80925 0
M  V30 2068 H 188.864 -5.14872 -3.0768 0
M  V30 2069 H 190.543 -5.73694 -2.99139 0
M  V30 2070 N 190.675 0.682077 -1.42076 0
M  V30 2071 C 191.622 1.79578 -1.44984 0
M  V30 2072 C 192.592 1.6332 -0.302614 0
M  V30 2073 O 193.777 1.83978 -0.505633 0
M  V30 2074 C 190.917 3.1756 -1.35091 0
M  V30 2075 C 190.03 3.45156 -2.59791 0
M  V30 2076 C 189.165 4.72826 -2.42093 0
M  V30 2077 C 188.204 4.93433 -3.62202 0
M  V30 2078 N 187.341 6.12338 -3.43491 0
M  V30 2079 H 192.181 1.76427 -2.40161 0
M  V30 2080 H 189.718 0.861376 -1.19242 0
M  V30 2081 H 191.676 3.97287 -1.27354 0
M  V30 2082 H 190.306 3.19854 -0.435133 0
M  V30 2083 H 189.358 2.59736 -2.77923 0
M  V30 2084 H 190.67 3.5628 -3.49094 0
M  V30 2085 H 189.824 5.60631 -2.319 0
M  V30 2086 H 188.563 4.63973 -1.50268 0
M  V30 2087 H 187.568 4.04073 -3.72834 0
M  V30 2088 H 188.793 5.04136 -4.54998 0
M  V30 2089 H 186.739 6.04672 -2.54377 0
M  V30 2090 H 186.656 6.2429 -4.26377 0
M  V30 2091 H 187.924 7.02841 -3.37097 0
M  V30 2092 N 192.153 1.28127 0.917671 0
M  V30 2093 C 193.569 1.05749 1.19538 0
M  V30 2094 C 193.769 -0.202633 2.00479 0
M  V30 2095 O 192.825 -0.905382 2.3571 0
M  V30 2096 C 194.138 2.30273 1.93378 0
M  V30 2097 C 195.686 2.35412 2.06277 0
M  V30 2098 C 196.161 3.59692 2.83524 0
M  V30 2099 N 197.652 3.60309 2.91087 0
M  V30 2100 C 198.387 4.53147 3.51348 0
M  V30 2101 N 197.883 5.563 4.12919 0
M  V30 2102 N 199.676 4.40751 3.48849 0
M  V30 2103 H 191.827 2.09024 0.377184 0
M  V30 2104 H 194.09 0.919798 0.22951 0
M  V30 2105 H 193.796 3.22055 1.41328 0
M  V30 2106 H 193.67 2.36378 2.93947 0
M  V30 2107 H 196.057 1.4413 2.57508 0
M  V30 2108 H 196.138 2.33304 1.04895 0
M  V30 2109 H 195.782 4.51316 2.32973 0
M  V30 2110 H 195.712 3.59054 3.85211 0
M  V30 2111 H 198.203 2.85714 2.47338 0
M  V30 2112 H 198.516 6.2329 4.56869 0
M  V30 2113 H 196.861 5.60131 4.11435 0
M  V30 2114 H 200.052 3.59367 2.99955 0
M  V30 2115 H 200.225 5.13291 3.9552 0
M  V30 2116 N 193.631 -1.12557 1.10312 0
M  V30 2117 C 194.856 -1.88405 0.867085 0
M  V30 2118 C 195.281 -1.79038 -0.576817 0
M  V30 2119 O 194.639 -1.14439 -1.40618 0
M  V30 2120 C 194.687 -3.3563 1.31851 0
M  V30 2121 O 193.791 -4.09565 0.482734 0
M  V30 2122 H 193.132 -0.585455 0.313271 0
M  V30 2123 H 195.662 -1.42352 1.4696 0
M  V30 2124 H 195.672 -3.86469 1.3079 0
M  V30 2125 H 194.347 -3.41765 2.37001 0
M  V30 2126 H 192.924 -3.68695 0.558448 0
M  V30 2127 N 195.109 -0.891671 -1.2995 0
M  V30 2128 C 196.386 -0.433307 -1.9074 0
M  V30 2129 C 196.766 1.08646 -1.80995 0
M  V30 2130 O 196.114 1.92476 -1.23147 0
M  V30 2131 C 196.324 -0.938895 -3.36134 0
M  V30 2132 C 197.672 -0.977829 -4.13187 0
M  V30 2133 O 198.696 -0.886015 -3.45005 0
M  V30 2134 O 197.555 -1.11453 -5.35015 0
M  V30 2135 H 194.649 -0.133699 -0.816121 0
M  V30 2136 H 197.195 -0.981011 -1.38471 0
M  V30 2137 H 195.967 -1.98281 -3.37343 0
M  V30 2138 H 195.59 -0.37074 -3.95868 0
M  V30 2139 N 196.587 1.43421 -0.653314 0
M  V30 2140 C 197.812 2.06678 -0.172846 0
M  V30 2141 C 198.237 1.48648 1.15262 0
M  V30 2142 O 197.595 0.596457 1.71208 0
M  V30 2143 C 197.643 3.60474 -0.0953184 0
M  V30 2144 O 196.747 4.01487 0.942442 0
M  V30 2145 H 196.088 0.657181 -0.0949155 0
M  V30 2146 H 198.618 1.83925 -0.896265 0
M  V30 2147 H 198.628 4.07905 0.0879728 0
M  V30 2148 H 197.303 4.02088 -1.06291 0
M  V30 2149 H 195.88 3.65646 0.731932 0
M  V30 2150 N 198.065 0.39524 1.52563 0
M  V30 2151 C 199.028 -0.425001 2.25225 0
M  V30 2152 C 200.028 -0.985266 1.27079 0
M  V30 2153 O 201.218 -0.866332 1.5113 0
M  V30 2154 C 198.35 -1.59686 3.01186 0
M  V30 2155 H 199.543 0.211233 2.99155 0
M  V30 2156 H 197.096 0.147472 1.55603 0
M  V30 2157 H 197.831 -2.27035 2.31572 0
M  V30 2158 H 197.616 -1.20176 3.73229 0
M  V30 2159 H 199.106 -2.17743 3.5634 0
M  V30 2160 N 199.544 -1.57102 0.125237 0
M  V30 2161 C 200.791 -1.95407 -0.531248 0
M  V30 2162 C 201.119 -1.0089 -1.66287 0
M  V30 2163 O 200.374 -0.0339431 -1.95671 0
M  V30 2164 C 200.673 -3.40096 -1.09862 0
M  V30 2165 C 200.339 -4.50815 -0.0876989 0
M  V30 2166 C 199.001 -4.80824 0.19026 0
M  V30 2167 C 201.353 -5.17724 0.600902 0
M  V30 2168 C 198.681 -5.75058 1.163 0
M  V30 2169 C 201.033 -6.13005 1.56231 0
M  V30 2170 C 199.697 -6.41403 1.8482 0
M  V30 2171 H 198.967 -0.715046 -0.194397 0
M  V30 2172 H 201.614 -1.90373 0.207463 0
M  V30 2173 H 199.919 -3.41855 -1.91422 0
M  V30 2174 H 201.616 -3.6705 -1.61478 0
M  V30 2175 H 198.206 -4.27444 -0.314528 0
M  V30 2176 H 202.39 -4.94691 0.399333 0
M  V30 2177 H 197.646 -5.95362 1.39117 0
M  V30 2178 H 201.82 -6.63934 2.10153 0
M  V30 2179 H 199.447 -7.14229 2.60349 0
M  V30 2180 N 201.022 0.148545 -1.56898 0
M  V30 2181 C 202.269 0.861418 -1.83264 0
M  V30 2182 C 202.597 1.81239 -0.705883 0
M  V30 2183 O 201.852 1.93305 0.305212 0
M  V30 2184 C 202.151 1.67064 -3.1595 0
M  V30 2185 C 201.817 0.866591 -4.42494 0
M  V30 2186 C 200.479 0.644762 -4.76861 0
M  V30 2187 C 202.831 0.30418 -5.20312 0
M  V30 2188 C 200.159 -0.15021 -5.86508 0
M  V30 2189 C 202.511 -0.477824 -6.30793 0
M  V30 2190 C 201.175 -0.710244 -6.63711 0
M  V30 2191 H 200.445 0.315215 -0.670612 0
M  V30 2192 H 203.092 0.125142 -1.91091 0
M  V30 2193 H 201.397 2.47698 -3.03567 0
M  V30 2194 H 203.094 2.22566 -3.33565 0
M  V30 2195 H 199.684 1.04955 -4.15551 0
M  V30 2196 H 203.868 0.462844 -4.94137 0
M  V30 2197 H 199.124 -0.339796 -6.10455 0
M  V30 2198 H 203.298 -0.92076 -6.90286 0
M  V30 2199 H 200.925 -1.3281 -7.48509 0
M  V30 2200 N 202.5 1.5196 0.417844 0
M  V30 2201 C 203.746 1.66793 1.16411 0
M  V30 2202 C 204.101 0.388758 1.88432 0
M  V30 2203 O 203.394 -0.616409 1.81414 0
M  V30 2204 C 203.588 2.82269 2.19223 0
M  V30 2205 C 203.417 4.21293 1.57297 0
M  V30 2206 C 202.187 4.86948 1.34944 0
M  V30 2207 C 204.385 5.03704 1.03858 0
M  V30 2208 N 202.367 6.1003 0.688195 0
M  V30 2209 C 203.738 6.1795 0.503742 0
M  V30 2210 C 205.793 4.89095 0.932203 0
M  V30 2211 C 204.496 7.19188 -0.127034 0
M  V30 2212 C 206.522 5.90559 0.315293 0
M  V30 2213 C 205.884 7.0409 -0.208906 0
M  V30 2214 H 201.983 0.66407 0.412959 0
M  V30 2215 H 204.567 1.89242 0.457772 0
M  V30 2216 H 202.738 2.61451 2.87225 0
M  V30 2217 H 204.47 2.86183 2.86149 0
M  V30 2218 H 201.225 4.45156 1.61657 0
M  V30 2219 H 201.649 6.75964 0.374449 0
M  V30 2220 H 206.291 4.01557 1.32332 0
M  V30 2221 H 204.009 8.06359 -0.530231 0
M  V30 2222 H 207.595 5.81327 0.234625 0
M  V30 2223 H 206.475 7.81257 -0.67875 0
M  V30 2224 N 203.978 -0.674533 1.42435 0
M  V30 2225 C 204.888 -1.81751 1.48337 0
M  V30 2226 C 205.904 -1.69975 0.372099 0
M  V30 2227 O 207.08 -1.91521 0.62304 0
M  V30 2228 C 204.145 -3.17895 1.38361 0
M  V30 2229 C 203.206 -3.41625 2.59982 0
M  V30 2230 C 202.439 -4.71274 2.50473 0
M  V30 2231 O 202.662 -5.49197 1.54075 0
M  V30 2232 O 201.596 -4.96254 3.4061 0
M  V30 2233 H 205.422 -1.79728 2.44809 0
M  V30 2234 H 203.007 -0.830312 1.24202 0
M  V30 2235 H 204.889 -3.99136 1.35161 0
M  V30 2236 H 203.564 -3.20555 0.450144 0
M  V30 2237 H 202.471 -2.60231 2.68757 0
M  V30 2238 H 203.804 -3.43796 3.52229 0
M  V30 2239 N 205.456 -1.28612 -0.910864 0
M  V30 2240 C 206.366 -1.14643 -2.0468 0
M  V30 2241 C 207.382 -0.0723121 -1.7385 0
M  V30 2242 O 208.558 -0.282178 -1.99413 0
M  V30 2243 C 205.623 -0.812561 -3.37044 0
M  V30 2244 C 204.684 -1.96935 -3.81465 0
M  V30 2245 C 203.917 -1.65131 -5.07511 0
M  V30 2246 O 204.14 -0.567013 -5.67575 0
M  V30 2247 O 203.074 -2.49585 -5.47714 0
M  V30 2248 H 206.9 -2.1001 -2.19384 0
M  V30 2249 H 204.485 -1.07958 -1.03274 0
M  V30 2250 H 206.367 -0.640441 -4.16505 0
M  V30 2251 H 205.042 0.111426 -3.23508 0
M  V30 2252 H 203.949 -2.19664 -3.02818 0
M  V30 2253 H 205.282 -2.87414 -3.99567 0
M  V30 2254 N 206.934 1.1197 -1.10907 0
M  V30 2255 C 208.35 1.35591 -0.841852 0
M  V30 2256 C 208.55 1.94233 0.536246 0
M  V30 2257 O 207.606 2.1717 1.28816 0
M  V30 2258 C 208.919 2.29284 -1.94549 0
M  V30 2259 C 210.467 2.42862 -1.97451 0
M  V30 2260 C 210.942 3.39873 -3.07002 0
M  V30 2261 N 212.433 3.47433 -3.06341 0
M  V30 2262 C 213.168 4.22421 -3.87748 0
M  V30 2263 N 212.664 5.00432 -4.79103 0
M  V30 2264 N 214.457 4.17876 -3.75946 0
M  V30 2265 H 206.608 0.722664 -1.99728 0
M  V30 2266 H 208.871 0.380635 -0.868229 0
M  V30 2267 H 208.577 1.93378 -2.93765 0
M  V30 2268 H 208.451 3.29452 -1.83688 0
M  V30 2269 H 210.838 2.78046 -0.988645 0
M  V30 2270 H 210.919 1.42566 -2.12388 0
M  V30 2271 H 210.563 3.05417 -4.05811 0
M  V30 2272 H 210.493 4.40011 -2.89306 0
M  V30 2273 H 212.984 2.91784 -2.40147 0
M  V30 2274 H 213.297 5.55002 -5.37766 0
M  V30 2275 H 211.642 4.99612 -4.83128 0
M  V30 2276 H 214.833 3.56016 -3.03924 0
M  V30 2277 H 215.006 4.76061 -4.39624 0
M  V30 2278 N 208.412 0.89855 1.29475 0
M  V30 2279 C 209.689 0.443416 1.90508 0
M  V30 2280 C 210.069 -1.07685 1.81569 0
M  V30 2281 O 209.417 -1.9182 1.24166 0
M  V30 2282 C 209.627 0.956708 3.35631 0
M  V30 2283 C 210.975 0.999728 4.12663 0
M  V30 2284 O 211.999 0.904299 3.4453 0
M  V30 2285 O 210.858 1.14289 5.34416 0
M  V30 2286 H 207.952 0.138025 0.815401 0
M  V30 2287 H 210.498 0.98834 1.37949 0
M  V30 2288 H 209.27 2.00067 3.36287 0
M  V30 2289 H 208.893 0.391728 3.95666 0
M  V30 2290 N 209.89 -1.43072 0.660911 0
M  V30 2291 C 211.139 -2.00942 0.174735 0
M  V30 2292 C 211.452 -1.52797 -1.22117 0
M  V30 2293 O 212.658 -2.02991 -1.80297 0
M  V30 2294 C 211.114 -3.58948 0.261559 0
M  V30 2295 C 210.722 -4.16085 1.66064 0
M  V30 2296 C 212.466 -4.24173 -0.166617 0
M  V30 2297 C 210.373 -5.6641 1.70098 0
M  V30 2298 H 209.303 -0.751483 0.0615631 0
M  V30 2299 H 211.954 -1.63955 0.824069 0
M  V30 2300 H 210.336 -3.93372 -0.455421 0
M  V30 2301 H 211.51 -3.93147 2.40359 0
M  V30 2302 H 209.825 -3.6326 2.03546 0
M  V30 2303 H 212.422 -5.34471 -0.156433 0
M  V30 2304 H 212.765 -3.98647 -1.19943 0
M  V30 2305 H 213.298 -3.94659 0.498875 0
M  V30 2306 H 210.037 -5.96715 2.71315 0
M  V30 2307 H 209.557 -5.91382 1.00139 0
M  V30 2308 H 211.236 -6.30585 1.44816 0
M  V30 2309 N 211.368 -0.403325 -1.52352 0
M  V30 2310 C 212.301 0.469463 -2.23319 0
M  V30 2311 C 213.279 1.05272 -1.23922 0
M  V30 2312 O 214.463 1.10169 -1.52954 0
M  V30 2313 C 211.59 1.6511 -2.9573 0
M  V30 2314 C 210.636 1.19178 -4.0951 0
M  V30 2315 S 211.469 0.161718 -5.35256 0
M  V30 2316 C 212.625 1.34882 -6.11194 0
M  V30 2317 H 212.858 -0.133134 -2.97002 0
M  V30 2318 H 210.391 -0.187588 -1.53256 0
M  V30 2319 H 212.349 2.3287 -3.38056 0
M  V30 2320 H 211.01 2.22503 -2.21701 0
M  V30 2321 H 210.203 2.07444 -4.59329 0
M  V30 2322 H 209.805 0.592911 -3.6927 0
M  V30 2323 H 212.097 2.27345 -6.38217 0
M  V30 2324 H 213.04 0.89128 -7.02468 0
M  V30 2325 H 213.448 1.57198 -5.42171 0
M  V30 2326 N 212.846 1.57033 -0.133567 0
M  V30 2327 C 213.809 2.14897 0.796995 0
M  V30 2328 C 214.809 1.0874 1.18458 0
M  V30 2329 O 215.999 1.34446 1.1077 0
M  V30 2330 C 213.131 2.70112 2.07973 0
M  V30 2331 H 214.324 2.98457 0.293873 0
M  V30 2332 H 211.877 1.55871 0.115787 0
M  V30 2333 H 212.612 1.9018 2.62682 0
M  V30 2334 H 212.397 3.47764 1.81115 0
M  V30 2335 H 213.887 3.14738 2.74462 0
M  V30 2336 N 214.325 -0.140222 1.56975 0
M  V30 2337 C 215.572 -0.851687 1.83719 0
M  V30 2338 C 215.9 -1.80862 0.715485 0
M  V30 2339 O 215.155 -1.93464 -0.294956 0
M  V30 2340 C 215.454 -1.65386 3.16832 0
M  V30 2341 C 215.12 -0.843112 4.42947 0
M  V30 2342 C 213.782 -0.619464 4.77196 0
M  V30 2343 C 216.134 -0.276582 5.20466 0
M  V30 2344 C 213.462 0.181312 5.8642 0
M  V30 2345 C 215.814 0.51127 6.30531 0
M  V30 2346 C 214.478 0.745432 6.63325 0
M  V30 2347 H 213.748 -0.311654 0.672274 0
M  V30 2348 H 216.395 -0.115006 1.91154 0
M  V30 2349 H 214.7 -2.46084 3.04877 0
M  V30 2350 H 216.397 -2.20793 3.34741 0
M  V30 2351 H 212.987 -1.0275 4.16101 0
M  V30 2352 H 217.171 -0.436632 4.94376 0
M  V30 2353 H 212.427 0.372165 6.10266 0
M  V30 2354 H 216.601 0.957354 6.89788 0
M  V30 2355 H 214.228 1.36778 7.47794 0
M  V30 2356 N 215.803 -1.52179 -0.40978 0
M  V30 2357 C 216.766 -1.74853 -1.48186 0
M  V30 2358 C 217.766 -0.618417 -1.48433 0
M  V30 2359 O 218.956 -0.886286 -1.49969 0
M  V30 2360 C 216.088 -1.8303 -2.87598 0
M  V30 2361 H 217.281 -2.70559 -1.29374 0
M  V30 2362 H 214.834 -1.42586 -0.640233 0
M  V30 2363 H 215.569 -0.89236 -3.11781 0
M  V30 2364 H 215.354 -2.65187 -2.88822 0
M  V30 2365 H 216.844 -2.02316 -3.65319 0
M  V30 2366 N 217.281 0.66697 -1.42791 0
M  V30 2367 C 218.229 1.80157 -1.47127 0
M  V30 2368 C 219.223 1.65825 -0.346199 0
M  V30 2369 O 220.429 1.72338 -0.519572 0
M  V30 2370 H 216.804 0.594158 -0.460956 0
M  V30 2371 H 218.775 1.73619 -2.42692 0
M  V30 2372 C 217.524 3.18351 -1.39813 0
M  V30 2373 H 216.847 3.3001 -2.25684 0
M  V30 2374 H 218.287 3.97736 -1.46908 0
M  V30 2375 C 216.746 3.36707 -0.11391 0
M  V30 2376 O 217.276 3.93027 0.830241 0
M  V30 2377 N 215.482 2.90586 -0.0285295 0
M  V30 2378 H 215.029 2.4494 -0.79764 0
M  V30 2379 H 214.987 3.03245 0.830063 0
M  V30 2380 N 218.759 1.29093 0.90403 0
M  V30 2381 C 219.984 1.19809 1.69294 0
M  V30 2382 C 220.409 -0.238481 1.86582 0
M  V30 2383 O 219.767 -1.1723 1.383 0
M  V30 2384 C 219.815 1.91202 3.05736 0
M  V30 2385 O 218.919 1.22611 3.93752 0
M  V30 2386 H 218.26 0.415385 0.518027 0
M  V30 2387 H 220.79 1.70586 1.12967 0
M  V30 2388 H 220.8 1.99487 3.55906 0
M  V30 2389 H 219.475 2.95692 2.92471 0
M  V30 2390 H 218.052 1.22554 3.52186 0
M  V30 2391 N 220.237 -1.11381 1.11499 0
M  V30 2392 C 221.648 -1.6465 0.880191 0
M  V30 2393 C 221.999 -1.87199 -0.587434 0
M  V30 2394 O 221.124 -1.60667 -1.44966 0
M  V30 2395 C 221.719 -2.99105 1.59128 0
M  V30 2396 C 220.278 -3.49279 1.40289 0
M  V30 2397 C 219.425 -2.24077 1.63354 0
M  V30 2398 H 222.376 -0.950123 1.27116 0
M  V30 2399 H 222.397 -3.66107 1.03664 0
M  V30 2400 H 221.909 -2.82661 2.65941 0
M  V30 2401 H 220.01 -3.70887 0.356888 0
M  V30 2402 H 220.123 -4.2803 2.15238 0
M  V30 2403 H 218.487 -2.31733 1.05698 0
M  V30 2404 H 219.27 -2.10175 2.71443 0
M  V30 2405 N 221.715 -0.905404 -1.28997 0
M  V30 2406 C 222.961 -0.544465 -1.95977 0
M  V30 2407 C 223.316 0.90041 -1.70031 0
M  V30 2408 O 222.609 1.63064 -1.00601 0
M  V30 2409 C 222.803 -0.779906 -3.48787 0
M  V30 2410 C 222.632 -2.24612 -3.89589 0
M  V30 2411 C 221.402 -2.89464 -4.14172 0
M  V30 2412 C 223.6 -3.22182 -4.00878 0
M  V30 2413 N 221.582 -4.26469 -4.41585 0
M  V30 2414 C 222.953 -4.44323 -4.32409 0
M  V30 2415 C 225.008 -3.17694 -3.83373 0
M  V30 2416 C 223.711 -5.62546 -4.48258 0
M  V30 2417 C 225.737 -4.35208 -4.00435 0
M  V30 2418 C 225.099 -5.56121 -4.3233 0
M  V30 2419 H 221.198 -0.248948 -0.741316 0
M  V30 2420 H 223.782 -1.1674 -1.5582 0
M  V30 2421 H 221.953 -0.186308 -3.87953 0
M  V30 2422 H 223.685 -0.383833 -4.02876 0
M  V30 2423 H 220.44 -2.40232 -4.08149 0
M  V30 2424 H 220.864 -4.97283 -4.5939 0
M  V30 2425 H 225.506 -2.25297 -3.57773 0
M  V30 2426 H 223.224 -6.55429 -4.72692 0
M  V30 2427 H 226.81 -4.33228 -3.88336 0
M  V30 2428 H 225.69 -6.45537 -4.45255 0
M  V30 2429 N 223.193 1.4272 -0.668489 0
M  V30 2430 C 224.439 2.01923 -0.188419 0
M  V30 2431 C 224.772 1.52704 1.19979 0
M  V30 2432 O 224.047 0.726566 1.8042 0
M  V30 2433 C 224.33 3.59451 -0.216085 0
M  V30 2434 C 224.183 4.18864 -1.6393 0
M  V30 2435 C 225.502 4.37903 0.439179 0
M  V30 2436 H 222.621 0.733674 -0.0699412 0
M  V30 2437 H 225.263 1.69822 -0.852076 0
M  V30 2438 H 223.413 3.86929 0.349012 0
M  V30 2439 H 225.085 4.02362 -2.25616 0
M  V30 2440 H 223.328 3.74933 -2.18193 0
M  V30 2441 H 223.999 5.27987 -1.61039 0
M  V30 2442 H 226.475 4.16079 -0.0417878 0
M  V30 2443 H 225.351 5.47519 0.389157 0
M  V30 2444 H 225.612 4.15303 1.51577 0
M  V30 2445 N 224.671 0.411399 1.52136 0
M  V30 2446 C 225.917 -0.163888 2.02137 0
M  V30 2447 C 226.25 -1.44597 1.29636 0
M  V30 2448 O 225.525 -1.90272 0.403353 0
M  V30 2449 C 225.808 -0.40927 3.57767 0
M  V30 2450 C 225.661 0.889643 4.40914 0
M  V30 2451 C 226.98 -1.19042 4.23694 0
M  V30 2452 H 224.099 -0.0580896 0.734707 0
M  V30 2453 H 226.741 0.54531 1.82007 0
M  V30 2454 H 224.891 -1.0134 3.7505 0
M  V30 2455 H 226.563 1.52575 4.35337 0
M  V30 2456 H 224.806 1.50011 4.07037 0
M  V30 2457 H 225.477 0.672314 5.4789 0
M  V30 2458 H 227.953 -0.678942 4.10524 0
M  V30 2459 H 226.829 -1.33086 5.32522 0
M  V30 2460 H 227.09 -2.21166 3.82803 0
M  V30 2461 N 226.149 -1.5696 0.141893 0
M  V30 2462 C 227.081 -2.13619 -0.830627 0
M  V30 2463 C 228.094 -1.08439 -1.21428 0
M  V30 2464 O 229.283 -1.35734 -1.15925 0
M  V30 2465 C 226.383 -2.63978 -2.12529 0
M  V30 2466 C 225.556 -3.93504 -1.9098 0
M  V30 2467 C 224.615 -4.29225 -3.04388 0
M  V30 2468 O 223.641 -4.97641 -2.76302 0
M  V30 2469 N 224.843 -3.88393 -4.31429 0
M  V30 2470 H 227.608 -2.97691 -0.34641 0
M  V30 2471 H 225.169 -1.61846 -0.0418375 0
M  V30 2472 H 227.161 -2.84891 -2.87436 0
M  V30 2473 H 225.731 -1.84659 -2.52229 0
M  V30 2474 H 224.951 -3.81269 -1.00139 0
M  V30 2475 H 226.239 -4.78154 -1.73914 0
M  V30 2476 H 225.637 -3.33257 -4.57117 0
M  V30 2477 H 224.194 -4.14368 -5.03133 0
M  V30 2478 N 227.627 0.131896 -1.57047 0
M  V30 2479 C 228.557 1.16384 -2.02428 0
M  V30 2480 C 229.538 1.43936 -0.90644 0
M  V30 2481 O 230.723 1.54599 -1.17528 0
M  V30 2482 C 227.853 2.49328 -2.4177 0
M  V30 2483 C 226.807 2.36266 -3.56879 0
M  V30 2484 C 226.133 3.74057 -3.8208 0
M  V30 2485 C 227.433 1.834 -4.89042 0
M  V30 2486 H 229.127 0.786433 -2.88887 0
M  V30 2487 H 226.673 0.376855 -1.38981 0
M  V30 2488 H 228.626 3.21759 -2.7212 0
M  V30 2489 H 227.35 2.88934 -1.52266 0
M  V30 2490 H 226.009 1.66286 -3.26718 0
M  V30 2491 H 225.657 4.11125 -2.89803 0
M  V30 2492 H 225.357 3.66174 -4.59554 0
M  V30 2493 H 226.881 4.48012 -4.1487 0
M  V30 2494 H 228.295 2.45636 -5.18011 0
M  V30 2495 H 226.692 1.8637 -5.70426 0
M  V30 2496 H 227.762 0.790662 -4.7841 0
M  V30 2497 N 229.106 1.52395 0.401703 0
M  V30 2498 C 230.353 1.66817 1.14796 0
M  V30 2499 C 230.681 0.401772 1.90305 0
M  V30 2500 O 229.936 -0.615487 1.85769 0
M  V30 2501 C 230.235 2.84578 2.16217 0
M  V30 2502 C 229.901 4.22513 1.5746 0
M  V30 2503 C 228.563 4.60029 1.41161 0
M  V30 2504 C 230.915 5.0844 1.14622 0
M  V30 2505 C 228.243 5.81144 0.80552 0
M  V30 2506 C 230.595 6.30167 0.55428 0
M  V30 2507 C 229.259 6.66426 0.378482 0
M  V30 2508 H 228.529 0.610428 0.420069 0
M  V30 2509 H 231.176 1.86512 0.434212 0
M  V30 2510 H 229.481 2.59248 2.93764 0
M  V30 2511 H 231.178 2.92933 2.73845 0
M  V30 2512 H 227.768 3.92953 1.71132 0
M  V30 2513 H 231.952 4.80034 1.26021 0
M  V30 2514 H 227.208 6.07855 0.657399 0
M  V30 2515 H 231.382 6.96071 0.213983 0
M  V30 2516 H 229.009 7.60143 -0.0932606 0
M  V30 2517 N 230.584 -0.659388 1.43143 0
M  V30 2518 C 231.814 -1.44513 1.47646 0
M  V30 2519 C 232.222 -1.88981 0.0910095 0
M  V30 2520 O 231.565 -1.59702 -0.907789 0
M  V30 2521 C 231.627 -2.71663 2.35456 0
M  V30 2522 C 231.291 -2.49175 3.83094 0
M  V30 2523 C 232.288 -2.1279 4.74359 0
M  V30 2524 C 229.973 -2.63691 4.27519 0
M  V30 2525 C 231.967 -1.9121 6.08044 0
M  V30 2526 C 229.654 -2.41726 5.61259 0
M  V30 2527 C 230.652 -2.0554 6.51339 0
M  V30 2528 O 230.34 -1.838 7.82606 0
M  V30 2529 H 230.072 -0.45064 0.503884 0
M  V30 2530 H 232.626 -0.816248 1.88485 0
M  V30 2531 H 230.856 -3.37089 1.89493 0
M  V30 2532 H 232.545 -3.33595 2.31235 0
M  V30 2533 H 233.311 -2.01157 4.41317 0
M  V30 2534 H 229.19 -2.90832 3.57684 0
M  V30 2535 H 232.734 -1.62889 6.78316 0
M  V30 2536 H 228.631 -2.52959 5.9387 0
M  V30 2537 H 229.399 -1.98275 7.94122 0
M  V30 2538 N 232.062 -1.29571 -0.897171 0
M  V30 2539 C 233.025 -1.14913 -1.98312 0
M  V30 2540 C 234.025 -0.0838629 -1.60581 0
M  V30 2541 O 235.215 -0.331006 -1.71026 0
M  V30 2542 C 232.347 -0.757835 -3.3237 0
M  V30 2543 H 233.54 -2.11377 -2.12743 0
M  V30 2544 H 231.093 -1.12793 -1.08201 0
M  V30 2545 H 231.828 0.206837 -3.2364 0
M  V30 2546 H 231.613 -1.52755 -3.61121 0
M  V30 2547 H 233.103 -0.678408 -4.12053 0
M  V30 2548 N 233.54 1.10788 -1.12088 0
M  V30 2549 C 234.787 1.82671 -0.873931 0
M  V30 2550 C 235.115 1.85004 0.600311 0
M  V30 2551 O 234.37 1.30365 1.45957 0
M  V30 2552 C 234.669 3.29294 -1.38926 0
M  V30 2553 C 234.335 3.47113 -2.87791 0
M  V30 2554 C 232.997 3.51684 -3.28439 0
M  V30 2555 C 235.349 3.52808 -3.83635 0
M  V30 2556 C 232.677 3.59513 -4.63646 0
M  V30 2557 C 235.029 3.62169 -5.18668 0
M  V30 2558 C 233.693 3.65003 -5.58864 0
M  V30 2559 H 232.963 0.668441 -0.319794 0
M  V30 2560 H 235.61 1.30613 -1.40045 0
M  V30 2561 H 233.915 3.83894 -0.783122 0
M  V30 2562 H 235.612 3.83416 -1.17443 0
M  V30 2563 H 232.202 3.4423 -2.5535 0
M  V30 2564 H 236.386 3.4853 -3.53328 0
M  V30 2565 H 231.642 3.59987 -4.94185 0
M  V30 2566 H 235.816 3.6552 -5.92763 0
M  V30 2567 H 233.443 3.70822 -6.63623 0
M  V30 2568 N 235.018 0.912232 1.28515 0
M  V30 2569 C 235.95 0.35676 2.26406 0
M  V30 2570 C 236.963 -0.503933 1.54804 0
M  V30 2571 O 238.152 -0.319059 1.75625 0
M  V30 2572 C 235.252 -0.508825 3.35058 0
M  V30 2573 C 234.425 0.329007 4.36161 0
M  V30 2574 C 233.484 -0.471422 5.24084 0
M  V30 2575 O 232.51 0.115482 5.69083 0
M  V30 2576 N 233.712 -1.77479 5.52704 0
M  V30 2577 H 236.477 1.19818 2.74707 0
M  V30 2578 H 234.038 0.778022 1.4198 0
M  V30 2579 H 236.03 -1.051 3.90815 0
M  V30 2580 H 234.6 -1.25095 2.86478 0
M  V30 2581 H 233.82 1.05256 3.79888 0
M  V30 2582 H 235.108 0.90234 5.00735 0
M  V30 2583 H 234.506 -2.27417 5.17975 0
M  V30 2584 H 233.063 -2.26382 6.11224 0
M  V30 2585 N 236.496 -1.42363 0.676048 0
M  V30 2586 C 237.773 -1.95183 0.127726 0
M  V30 2587 C 238.153 -1.61641 -1.35777 0
M  V30 2588 O 237.501 -0.913216 -2.09458 0
M  V30 2589 C 237.711 -3.46721 0.398199 0
M  V30 2590 C 239.059 -4.23427 0.315383 0
M  V30 2591 O 240.083 -3.54649 0.332016 0
M  V30 2592 O 238.942 -5.45888 0.25865 0
M  V30 2593 H 236.036 -0.826992 0.00359427 0
M  V30 2594 H 238.582 -1.52184 0.750864 0
M  V30 2595 H 237.354 -3.64344 1.4272 0
M  V30 2596 H 236.977 -3.96769 -0.256885 0
M  V30 2597 N 237.974 -0.419461 -1.51915 0
M  V30 2598 C 239.251 0.211999 -1.94448 0
M  V30 2599 C 239.631 1.61703 -1.35703 0
M  V30 2600 O 238.979 2.22102 -0.536931 0
M  V30 2601 C 239.189 0.207872 -3.4838 0
M  V30 2602 C 240.537 0.422192 -4.22496 0
M  V30 2603 O 241.561 0.286778 -3.55044 0
M  V30 2604 O 240.42 0.690009 -5.42126 0
M  V30 2605 H 237.514 0.139586 -0.815135 0
M  V30 2606 H 240.06 -0.476151 -1.62883 0
M  V30 2607 H 238.832 -0.775102 -3.83546 0
M  V30 2608 H 238.455 0.939688 -3.86336 0
M  V30 2609 N 239.452 1.56882 -0.150215 0
M  V30 2610 C 240.868 1.58263 0.20617 0
M  V30 2611 C 241.068 1.16464 1.64434 0
M  V30 2612 O 240.124 0.866422 2.3717 0
M  V30 2613 C 241.437 3.00649 -0.0555025 0
M  V30 2614 C 242.985 3.12999 0.00795388 0
M  V30 2615 C 243.46 4.5744 -0.226429 0
M  V30 2616 N 244.951 4.62875 -0.173469 0
M  V30 2617 C 245.686 5.72454 -0.329288 0
M  V30 2618 N 245.182 6.90669 -0.543005 0
M  V30 2619 N 246.975 5.61467 -0.266666 0
M  V30 2620 H 239.126 1.82345 -1.08922 0
M  V30 2621 H 241.389 0.844149 -0.431413 0
M  V30 2622 H 241.095 3.3563 -1.05096 0
M  V30 2623 H 240.969 3.71337 0.66246 0
M  V30 2624 H 243.356 2.77857 0.993966 0
M  V30 2625 H 243.437 2.4479 -0.742388 0
M  V30 2626 H 243.081 4.93287 -1.20956 0
M  V30 2627 H 243.011 5.2378 0.544274 0
M  V30 2628 H 245.502 3.77898 -0.0130709 0
M  V30 2629 H 245.815 7.70045 -0.651922 0
M  V30 2630 H 244.16 6.92581 -0.579366 0
M  V30 2631 H 247.351 4.67992 -0.100441 0
M  V30 2632 H 247.524 6.46816 -0.391535 0
M  V30 2633 N 240.93 -0.123565 1.57115 0
M  V30 2634 C 242.16 -0.845233 1.88519 0
M  V30 2635 C 242.568 -1.74168 0.739064 0
M  V30 2636 O 241.911 -1.81244 -0.299355 0
M  V30 2637 C 241.973 -1.73452 3.14888 0
M  V30 2638 C 241.637 -1.01285 4.45635 0
M  V30 2639 C 242.634 -0.355774 5.18681 0
M  V30 2640 C 240.319 -0.99538 4.92339 0
M  V30 2641 C 242.313 0.309114 6.3665 0
M  V30 2642 C 240 -0.32669 6.10226 0
M  V30 2643 C 240.998 0.324406 6.82229 0
M  V30 2644 O 240.686 0.982437 7.97874 0
M  V30 2645 H 240.418 -0.248534 0.628655 0
M  V30 2646 H 242.972 -0.113907 2.05084 0
M  V30 2647 H 241.202 -2.50737 2.94394 0
M  V30 2648 H 242.891 -2.33021 3.32349 0
M  V30 2649 H 243.657 -0.360918 4.83655 0
M  V30 2650 H 239.536 -1.49159 4.36202 0
M  V30 2651 H 243.08 0.8179 6.92789 0
M  V30 2652 H 238.977 -0.319294 6.4471 0
M  V30 2653 H 239.745 0.886454 8.13686 0
M  V30 2654 N 242.408 -1.52605 -0.393616 0
M  V30 2655 C 243.338 -1.80022 -1.48709 0
M  V30 2656 C 244.319 -0.651995 -1.57108 0
M  V30 2657 O 245.504 -0.89913 -1.72132 0
M  V30 2658 C 242.634 -1.96492 -2.86371 0
M  V30 2659 C 241.588 -3.12161 -2.92813 0
M  V30 2660 C 240.914 -3.13877 -4.3288 0
M  V30 2661 C 242.214 -4.51322 -2.6288 0
M  V30 2662 H 243.908 -2.71589 -1.26015 0
M  V30 2663 H 241.454 -1.30684 -0.604778 0
M  V30 2664 H 243.407 -2.14255 -3.62867 0
M  V30 2665 H 242.131 -1.01611 -3.10391 0
M  V30 2666 H 240.79 -2.94173 -2.18764 0
M  V30 2667 H 240.438 -2.16687 -4.53933 0
M  V30 2668 H 240.138 -3.91576 -4.38112 0
M  V30 2669 H 241.662 -3.33789 -5.1129 0
M  V30 2670 H 243.076 -4.69435 -3.29096 0
M  V30 2671 H 241.473 -5.31053 -2.79468 0
M  V30 2672 H 242.543 -4.58353 -1.58242 0
M  V30 2673 N 243.887 0.651787 -1.4349 0
M  V30 2674 C 245.117 1.43728 -1.48411 0
M  V30 2675 C 245.525 1.8893 -0.10103 0
M  V30 2676 O 244.868 1.60182 0.899307 0
M  V30 2677 C 244.93 2.70411 -2.36893 0
M  V30 2678 C 244.594 2.4714 -3.8441 0
M  V30 2679 C 245.591 2.10271 -4.75481 0
M  V30 2680 C 243.276 2.6142 -4.28912 0
M  V30 2681 C 245.27 1.87982 -6.0905 0
M  V30 2682 C 242.957 2.38746 -5.62533 0
M  V30 2683 C 243.955 2.02083 -6.5242 0
M  V30 2684 O 243.643 1.79647 -7.8357 0
M  V30 2685 H 243.375 0.447962 -0.506267 0
M  V30 2686 H 245.929 0.80624 -1.88915 0
M  V30 2687 H 244.159 3.36079 -1.91278 0
M  V30 2688 H 245.848 3.32364 -2.33 0
M  V30 2689 H 246.614 1.98814 -4.42378 0
M  V30 2690 H 242.493 2.88931 -3.59222 0
M  V30 2691 H 246.037 1.5929 -6.7917 0
M  V30 2692 H 241.934 2.49806 -5.95203 0
M  V30 2693 H 242.702 1.9406 -7.95162 0
M  V30 2694 N 245.365 1.30045 0.890287 0
M  V30 2695 C 246.298 1.10301 1.99772 0
M  V30 2696 C 247.276 0.0121631 1.62595 0
M  V30 2697 O 248.46 0.16469 1.87779 0
M  V30 2698 C 245.587 0.681125 3.31781 0
M  V30 2699 C 244.633 1.77206 3.87944 0
M  V30 2700 S 245.466 3.37335 4.15891 0
M  V30 2701 C 246.622 2.97036 5.50927 0
M  V30 2702 H 246.855 2.04057 2.16213 0
M  V30 2703 H 244.388 1.14299 1.03804 0
M  V30 2704 H 246.346 0.444439 4.08087 0
M  V30 2705 H 245.007 -0.236981 3.13205 0
M  V30 2706 H 244.2 1.42903 4.83316 0
M  V30 2707 H 243.802 1.96275 3.18358 0
M  V30 2708 H 246.094 2.44666 6.31779 0
M  V30 2709 H 247.037 3.91296 5.90164 0
M  V30 2710 H 247.445 2.35057 5.13233 0
M  V30 2711 N 246.843 -1.10192 1.12674 0
M  V30 2712 C 248.089 -1.82475 0.884915 0
M  V30 2713 C 248.422 -1.85093 -0.58773 0
M  V30 2714 O 247.697 -1.3134 -1.43457 0
M  V30 2715 C 247.98 -3.29018 1.46353 0
M  V30 2716 C 247.833 -3.34718 3.00473 0
M  V30 2717 C 249.152 -4.25473 1.12519 0
M  V30 2718 H 246.271 -0.662492 0.322915 0
M  V30 2719 H 248.913 -1.2913 1.39375 0
M  V30 2720 H 247.063 -3.74576 1.03077 0
M  V30 2721 H 248.735 -2.97622 3.52447 0
M  V30 2722 H 246.978 -2.74541 3.35872 0
M  V30 2723 H 247.649 -4.37918 3.36053 0
M  V30 2724 H 250.125 -3.88161 1.499 0
M  V30 2725 H 249.001 -5.26365 1.55663 0
M  V30 2726 H 249.262 -4.42084 0.0377407 0
M  V30 2727 N 248.321 -0.919034 -1.28029 0
M  V30 2728 C 249.254 -0.355887 -2.25408 0
M  V30 2729 C 250.232 0.542874 -1.5327 0
M  V30 2730 O 251.416 0.485338 -1.82145 0
M  V30 2731 C 248.543 0.490759 -3.35126 0
M  V30 2732 C 247.589 -0.343358 -4.25116 0
M  V30 2733 S 248.422 -1.75344 -5.05979 0
M  V30 2734 C 249.578 -0.914244 -6.19187 0
M  V30 2735 H 249.811 -1.18123 -2.72826 0
M  V30 2736 H 247.344 -0.720636 -1.36551 0
M  V30 2737 H 249.302 0.973404 -3.98792 0
M  V30 2738 H 247.963 1.29054 -2.86363 0
M  V30 2739 H 247.156 0.304266 -5.03081 0
M  V30 2740 H 246.758 -0.759851 -3.662 0
M  V30 2741 H 249.05 -0.146282 -6.77342 0
M  V30 2742 H 249.993 -1.66661 -6.88208 0
M  V30 2743 H 250.401 -0.460082 -5.62622 0
M  V30 2744 N 249.799 1.42003 -0.683588 0
M  V30 2745 C 250.709 2.34597 -0.0109075 0
M  V30 2746 C 251.725 1.55576 0.779245 0
M  V30 2747 O 252.901 1.88107 0.719555 0
M  V30 2748 C 249.966 3.34199 0.922588 0
M  V30 2749 C 249.027 4.29115 0.125984 0
M  V30 2750 C 248.26 5.23959 1.01502 0
M  V30 2751 O 248.483 5.23952 2.25456 0
M  V30 2752 O 247.417 6.00053 0.47111 0
M  V30 2753 H 251.243 2.93675 -0.773853 0
M  V30 2754 H 248.828 1.42654 -0.443861 0
M  V30 2755 H 250.71 3.95365 1.45823 0
M  V30 2756 H 249.385 2.77582 1.66523 0
M  V30 2757 H 248.292 3.71335 -0.453969 0
M  V30 2758 H 249.625 4.88798 -0.577736 0
M  V30 2759 N 251.277 0.427512 1.51691 0
M  V30 2760 C 252.507 -0.140986 2.06118 0
M  V30 2761 C 252.915 -1.37854 1.29588 0
M  V30 2762 O 252.258 -1.80411 0.346036 0
M  V30 2763 C 252.32 -0.538276 3.55447 0
M  V30 2764 C 251.984 0.591095 4.53161 0
M  V30 2765 C 252.981 1.46027 4.98971 0
M  V30 2766 C 250.666 0.769028 4.96378 0
M  V30 2767 C 252.66 2.49216 5.8666 0
M  V30 2768 C 250.347 1.80421 5.83859 0
M  V30 2769 C 251.345 2.66417 6.28897 0
M  V30 2770 O 251.033 3.68159 7.14643 0
M  V30 2771 H 250.765 -0.0157455 0.675817 0
M  V30 2772 H 253.319 0.602495 1.96365 0
M  V30 2773 H 251.549 -1.33432 3.6295 0
M  V30 2774 H 253.238 -1.0368 3.92435 0
M  V30 2775 H 254.004 1.33429 4.66285 0
M  V30 2776 H 249.883 0.109273 4.6087 0
M  V30 2777 H 253.427 3.16372 6.21735 0
M  V30 2778 H 249.324 1.93042 6.15959 0
M  V30 2779 H 250.092 3.64622 7.32798 0
M  V30 2780 N 252.755 -1.56801 0.158532 0
M  V30 2781 C 253.688 -2.13148 -0.815065 0
M  V30 2782 C 254.666 -1.0581 -1.23462 0
M  V30 2783 O 255.85 -1.3371 -1.32868 0
M  V30 2784 C 252.977 -2.6606 -2.09594 0
M  V30 2785 C 252.023 -3.85651 -1.82141 0
M  V30 2786 S 252.856 -5.26041 -1.00207 0
M  V30 2787 C 254.012 -5.8235 -2.29389 0
M  V30 2788 H 254.245 -2.95396 -0.335937 0
M  V30 2789 H 251.778 -1.54299 -0.0559391 0
M  V30 2790 H 253.736 -2.97195 -2.8317 0
M  V30 2791 H 252.397 -1.83921 -2.54621 0
M  V30 2792 H 251.59 -4.20958 -2.77147 0
M  V30 2793 H 251.192 -3.55338 -1.16667 0
M  V30 2794 H 253.484 -5.94485 -3.24952 0
M  V30 2795 H 254.427 -6.79688 -1.9857 0
M  V30 2796 H 254.835 -5.10675 -2.40564 0
M  V30 2797 N 254.233 0.115231 -1.57178 0
M  V30 2798 C 255.644 0.67197 -1.74188 0
M  V30 2799 C 255.995 1.80125 -0.777777 0
M  V30 2800 O 255.12 2.16346 0.0484376 0
M  V30 2801 C 255.715 1.22573 -3.1585 0
M  V30 2802 C 254.274 1.72872 -3.34353 0
M  V30 2803 C 253.421 0.629972 -2.70049 0
M  V30 2804 H 256.372 -0.110712 -1.58313 0
M  V30 2805 H 256.393 2.09535 -3.17609 0
M  V30 2806 H 255.905 0.403598 -3.85996 0
M  V30 2807 H 254.006 2.5755 -2.69256 0
M  V30 2808 H 254.119 1.83557 -4.42542 0
M  V30 2809 H 252.483 1.0645 -2.31388 0
M  V30 2810 H 253.266 -0.181241 -3.42821 0
M  V30 2811 N 255.711 1.52812 0.385517 0
M  V30 2812 C 256.959 1.67694 1.12797 0
M  V30 2813 C 257.28 0.421115 1.90399 0
M  V30 2814 O 256.55 -0.564551 1.87589 0
M  V30 2815 H 255.13 0.618155 0.419396 0
M  V30 2816 H 257.792 1.89938 0.436972 0
M  V30 2817 H 256.888 2.52896 1.82894 0
M  V30 2818 N 257.189 -0.644168 1.43834 0
M  V30 2819 C 258.437 -1.40117 1.45642 0
M  V30 2820 C 258.758 -1.94814 0.0852413 0
M  V30 2821 O 258.028 -1.74988 -0.880688 0
M  V30 2822 H 256.608 -0.52005 0.536243 0
M  V30 2823 H 259.27 -0.7591 1.7951 0
M  V30 2824 H 258.366 -2.23902 2.17427 0
M  V30 2825 N 258.668 -1.30515 -0.883378 0
M  V30 2826 C 259.945 -1.10086 -1.6168 0
M  V30 2827 C 260.325 0.349269 -2.08191 0
M  V30 2828 O 259.673 1.34105 -1.85008 0
M  V30 2829 C 259.883 -2.10315 -2.78511 0
M  V30 2830 C 261.231 -2.42119 -3.48803 0
M  V30 2831 O 262.255 -2.08638 -2.88702 0
M  V30 2832 O 261.114 -2.99396 -4.57192 0
M  V30 2833 H 258.208 -0.422907 -0.710689 0
M  V30 2834 H 260.754 -1.41947 -0.930015 0
M  V30 2835 H 259.526 -3.07917 -2.41459 0
M  V30 2836 H 259.149 -1.79282 -3.54886 0
M  V30 2837 N 260.146 1.09593 -1.13257 0
M  V30 2838 C 261.076 2.18214 -0.830946 0
M  V30 2839 C 262.057 1.68812 0.208966 0
M  V30 2840 O 263.242 1.9408 0.0682666 0
M  V30 2841 C 260.372 3.46051 -0.294296 0
M  V30 2842 C 259.326 4.08778 -1.26826 0
M  V30 2843 C 258.652 5.31419 -0.591449 0
M  V30 2844 C 259.952 4.51476 -2.62615 0
M  V30 2845 H 261.646 2.43703 -1.73923 0
M  V30 2846 H 259.192 1.17128 -0.837675 0
M  V30 2847 H 261.145 4.2134 -0.0709606 0
M  V30 2848 H 259.869 3.20079 0.649366 0
M  V30 2849 H 258.528 3.35505 -1.47756 0
M  V30 2850 H 258.176 5.01727 0.357633 0
M  V30 2851 H 257.876 5.74341 -1.24123 0
M  V30 2852 H 259.4 6.09433 -0.377355 0
M  V30 2853 H 260.814 5.17999 -2.45663 0
M  V30 2854 H 259.211 5.05277 -3.23752 0
M  V30 2855 H 260.281 3.63962 -3.20406 0
M  V30 2856 N 261.624 0.925811 1.2754 0
M  V30 2857 C 262.87 0.566092 1.94739 0
M  V30 2858 C 263.203 -0.890057 1.72603 0
M  V30 2859 O 262.478 -1.63467 1.05399 0
M  V30 2860 C 262.761 0.89054 3.48915 0
M  V30 2861 C 262.614 2.4003 3.80402 0
M  V30 2862 C 263.933 0.395101 4.38323 0
M  V30 2863 H 261.052 0.20714 0.707292 0
M  V30 2864 H 263.694 1.15725 1.50691 0
M  V30 2865 H 261.844 0.387452 3.86563 0
M  V30 2866 H 263.516 2.97494 3.52555 0
M  V30 2867 H 261.759 2.85028 3.2702 0
M  V30 2868 H 262.43 2.57785 4.8811 0
M  V30 2869 H 264.906 0.826241 4.07814 0
M  V30 2870 H 263.782 0.651086 5.45025 0
M  V30 2871 H 264.043 -0.704798 4.36446 0
M  V30 2872 N 263.102 -1.41638 0.69111 0
M  V30 2873 C 264.05 -2.32597 0.0115199 0
M  V30 2874 C 265.044 -1.5072 -0.773296 0
M  V30 2875 O 266.25 -1.66685 -0.67942 0
M  V30 2876 H 262.625 -0.751849 -0.0150746 0
M  V30 2877 H 264.596 -2.87593 0.795791 0
M  V30 2878 C 263.345 -3.35467 -0.914172 0
M  V30 2879 H 262.668 -3.9852 -0.319687 0
M  V30 2880 H 264.108 -4.01662 -1.35808 0
M  V30 2881 C 262.567 -2.69004 -2.02826 0
M  V30 2882 O 263.097 -2.53444 -3.11655 0
M  V30 2883 N 261.303 -2.2777 -1.80469 0
M  V30 2884 H 260.85 -2.40626 -0.919615 0
M  V30 2885 H 260.808 -1.83635 -2.55197 0
M  V30 2886 N 264.58 -0.43555 -1.51462 0
M  V30 2887 C 265.51 0.367376 -2.30592 0
M  V30 2888 C 266.491 1.02263 -1.35928 0
M  V30 2889 O 267.676 1.02661 -1.64847 0
M  V30 2890 C 264.806 1.46983 -3.14664 0
M  V30 2891 C 263.76 0.938161 -4.17591 0
M  V30 2892 C 263.086 2.13622 -4.90173 0
M  V30 2893 C 264.386 -0.0261621 -5.22293 0
M  V30 2894 H 266.08 -0.292969 -2.97963 0
M  V30 2895 H 263.626 -0.14234 -1.43295 0
M  V30 2896 H 265.579 2.03873 -3.688 0
M  V30 2897 H 264.303 2.15843 -2.4511 0
M  V30 2898 H 262.962 0.391481 -3.64504 0
M  V30 2899 H 262.61 2.81098 -4.17124 0
M  V30 2900 H 262.31 1.78688 -5.59772 0
M  V30 2901 H 263.834 2.7107 -5.47132 0
M  V30 2902 H 265.248 0.452384 -5.71512 0
M  V30 2903 H 263.645 -0.287992 -5.99409 0
M  V30 2904 H 264.715 -0.963391 -4.75233 0
M  V30 2905 N 266.058 1.56714 -0.166846 0
M  V30 2906 C 266.991 2.13577 0.80375 0
M  V30 2907 C 267.969 1.06464 1.22899 0
M  V30 2908 O 269.153 1.34413 1.32157 0
M  V30 2909 C 266.28 2.67168 2.0818 0
M  V30 2910 C 265.326 3.86612 1.80093 0
M  V30 2911 S 266.159 5.26565 0.97416 0
M  V30 2912 C 267.315 5.83558 2.26297 0
M  V30 2913 H 267.548 2.9557 0.320267 0
M  V30 2914 H 265.081 1.54326 0.0477555 0
M  V30 2915 H 267.039 2.98692 2.8159 0
M  V30 2916 H 265.7 1.85269 2.53642 0
M  V30 2917 H 264.893 4.22422 2.7491 0
M  V30 2918 H 264.495 3.55951 1.14781 0
M  V30 2919 H 266.787 5.962 3.21795 0
M  V30 2920 H 267.73 6.80731 1.94962 0
M  V30 2921 H 268.138 5.11944 2.37853 0
M  V30 2922 N 267.536 -0.106894 1.57237 0
M  V30 2923 C 268.761 -0.830287 1.90055 0
M  V30 2924 C 269.186 -1.72064 0.75998 0
M  V30 2925 O 268.544 -1.78982 -0.288991 0
M  V30 2926 C 268.592 -1.6295 3.21683 0
M  V30 2927 O 267.696 -2.73748 3.08441 0
M  V30 2928 H 267.037 -0.228855 0.623315 0
M  V30 2929 H 269.567 -0.085658 2.04421 0
M  V30 2930 H 269.577 -2.01621 3.54701 0
M  V30 2931 H 268.252 -0.975989 4.04286 0
M  V30 2932 H 266.829 -2.38192 2.86913 0
M  V30 2933 N 269.014 -1.53014 -0.377408 0
M  V30 2934 C 269.962 -1.7927 -1.48206 0
M  V30 2935 C 270.956 -0.661195 -1.55963 0
M  V30 2936 O 272.162 -0.843908 -1.58991 0
M  V30 2937 H 268.537 -0.567425 -0.493491 0
M  V30 2938 H 270.508 -2.71753 -1.2326 0
M  V30 2939 C 269.257 -1.98894 -2.85196 0
M  V30 2940 H 268.58 -2.85395 -2.79981 0
M  V30 2941 H 270.02 -2.21249 -3.61698 0
M  V30 2942 C 268.479 -0.764691 -3.28107 0
M  V30 2943 O 269.009 0.0523226 -4.01666 0
M  V30 2944 N 267.215 -0.591493 -2.84517 0
M  V30 2945 H 266.762 -1.25749 -2.24822 0
M  V30 2946 H 266.72 0.226253 -3.13585 0
M  V30 2947 N 270.492 0.636531 -1.44174 0
M  V30 2948 C 271.722 1.42146 -1.49927 0
M  V30 2949 C 272.13 1.88812 -0.121063 0
M  V30 2950 O 271.473 1.61126 0.882267 0
M  V30 2951 C 271.535 2.67883 -2.39748 0
M  V30 2952 C 271.199 2.43048 -3.8701 0
M  V30 2953 C 272.196 2.05216 -4.77684 0
M  V30 2954 C 269.881 2.56856 -4.3166 0
M  V30 2955 C 271.875 1.81512 -6.11009 0
M  V30 2956 C 269.562 2.32766 -5.65034 0
M  V30 2957 C 270.56 1.95152 -6.54526 0
M  V30 2958 O 270.248 1.71326 -7.85431 0
M  V30 2959 H 269.98 0.442567 -0.51099 0
M  V30 2960 H 272.534 0.786158 -1.8976 0
M  V30 2961 H 270.764 3.34032 -1.94832 0
M  V30 2962 H 272.453 3.29874 -2.36513 0
M  V30 2963 H 273.219 1.94111 -4.44462 0
M  V30 2964 H 269.098 2.85104 -3.62266 0
M  V30 2965 H 272.642 1.52077 -6.80822 0
M  V30 2966 H 268.539 2.43479 -5.97819 0
M  V30 2967 H 269.307 1.85616 -7.97176 0
M  V30 2968 N 271.97 1.30982 0.876444 0
M  V30 2969 C 273.247 1.10942 1.61094 0
M  V30 2970 C 273.627 -0.338223 2.08373 0
M  V30 2971 O 272.975 -1.33122 1.85717 0
M  V30 2972 C 273.185 2.11789 2.77392 0
M  V30 2973 C 274.533 2.43965 3.47514 0
M  V30 2974 O 275.557 2.10166 2.87591 0
M  V30 2975 O 274.416 3.01817 4.55597 0
M  V30 2976 H 271.51 0.42667 0.708436 0
M  V30 2977 H 274.056 1.42438 0.922474 0
M  V30 2978 H 272.828 3.09194 2.39823 0
M  V30 2979 H 272.451 1.81161 3.5393 0
M  V30 2980 N 273.449 -1.08991 1.13837 0
M  V30 2981 C 274.695 -1.81526 0.90422 0
M  V30 2982 C 275.028 -1.85706 -0.568066 0
M  V30 2983 O 274.303 -1.32855 -1.42056 0
M  V30 2984 C 274.586 -3.27447 1.49835 0
M  V30 2985 C 274.439 -3.31512 3.04006 0
M  V30 2986 C 275.758 -4.24256 1.17025 0
M  V30 2987 H 272.877 -0.659029 0.329923 0
M  V30 2988 H 275.519 -1.27644 1.40737 0
M  V30 2989 H 273.669 -3.73462 1.07044 0
M  V30 2990 H 275.341 -2.93867 3.55584 0
M  V30 2991 H 273.584 -2.70963 3.38765 0
M  V30 2992 H 274.255 -4.34329 3.40679 0
M  V30 2993 H 276.731 -3.86549 1.54009 0
M  V30 2994 H 275.607 -5.24684 1.61237 0
M  V30 2995 H 275.868 -4.42019 0.0846274 0
M  V30 2996 N 274.927 -0.932562 -1.27047 0
M  V30 2997 C 276.338 -0.619451 -1.76124 0
M  V30 2998 C 276.689 0.865397 -1.76083 0
M  V30 2999 O 275.814 1.67722 -1.36742 0
M  V30 3000 C 276.409 -1.11771 -3.19832 0
M  V30 3001 C 274.968 -0.855174 -3.66557 0
M  V30 3002 C 274.115 -1.27362 -2.46321 0
M  V30 3003 H 277.066 -1.11181 -1.13245 0
M  V30 3004 H 277.087 -0.46759 -3.77616 0
M  V30 3005 H 276.599 -2.19842 -3.1983 0
M  V30 3006 H 274.7 0.211524 -3.71999 0
M  V30 3007 H 274.813 -1.47613 -4.55793 0
M  V30 3008 H 273.177 -0.692119 -2.45116 0
M  V30 3009 H 273.96 -2.36307 -2.49025 0
M  V30 3010 N 276.405 1.4127 -0.698611 0
M  V30 3011 C 277.315 2.34573 -0.0357891 0
M  V30 3012 C 278.331 1.56393 0.762701 0
M  V30 3013 O 279.507 1.8886 0.699564 0
M  V30 3014 C 276.572 3.35159 0.887089 0
M  V30 3015 C 275.633 4.29225 0.0804634 0
M  V30 3016 C 274.866 5.25006 0.959387 0
M  V30 3017 O 275.089 5.26314 2.19886 0
M  V30 3018 O 274.023 6.00519 0.407439 0
M  V30 3019 H 277.849 2.92838 -0.804957 0
M  V30 3020 H 275.434 1.42175 -0.458966 0
M  V30 3021 H 277.316 3.9689 1.41621 0
M  V30 3022 H 275.991 2.79333 1.6357 0
M  V30 3023 H 274.898 3.70833 -0.493328 0
M  V30 3024 H 276.231 4.88157 -0.629547 0
M  V30 3025 N 277.883 0.443576 1.51229 0
M  V30 3026 C 278.83 -0.364716 2.279 0
M  V30 3027 C 279.8 -1.0114 1.31757 0
M  V30 3028 O 280.985 -1.02912 1.60667 0
M  V30 3029 C 278.125 -1.45644 3.12861 0
M  V30 3030 C 277.238 -0.827269 4.24005 0
M  V30 3031 C 276.373 -1.89456 4.96266 0
M  V30 3032 C 275.412 -1.24416 5.99322 0
M  V30 3033 N 274.549 -2.25309 6.64966 0
M  V30 3034 H 279.389 0.295464 2.96532 0
M  V30 3035 H 276.926 0.157554 1.46254 0
M  V30 3036 H 278.884 -2.10076 3.6045 0
M  V30 3037 H 277.514 -2.08616 2.46331 0
M  V30 3038 H 276.566 -0.0710839 3.80334 0
M  V30 3039 H 277.878 -0.312481 4.9782 0
M  V30 3040 H 277.032 -2.61535 5.47434 0
M  V30 3041 H 275.771 -2.4431 4.22095 0
M  V30 3042 H 274.776 -0.508868 5.4744 0
M  V30 3043 H 276.001 -0.702882 6.75453 0
M  V30 3044 H 273.947 -2.79231 5.93604 0
M  V30 3045 H 273.864 -1.78739 7.34567 0
M  V30 3046 H 275.132 -2.96853 7.20763 0
M  V30 3047 N 279.361 -1.56624 0.175154 0
M  V30 3048 C 280.607 -1.98061 -0.462976 0
M  V30 3049 C 280.962 -1.05949 -1.60601 0
M  V30 3050 O 280.255 -0.0999027 -1.91339 0
M  V30 3051 C 280.449 -3.43419 -0.989864 0
M  V30 3052 C 280.278 -4.49587 0.100583 0
M  V30 3053 C 279.048 -5.02281 0.551539 0
M  V30 3054 C 281.246 -5.06322 0.902369 0
M  V30 3055 N 279.228 -5.92088 1.62189 0
M  V30 3056 C 280.599 -5.92607 1.82256 0
M  V30 3057 C 282.654 -4.88811 0.947019 0
M  V30 3058 C 281.357 -6.63254 2.78364 0
M  V30 3059 C 283.383 -5.60182 1.89606 0
M  V30 3060 C 282.745 -6.46197 2.80372 0
M  V30 3061 H 278.844 -0.769833 -0.137409 0
M  V30 3062 H 281.428 -1.9273 0.276256 0
M  V30 3063 H 279.599 -3.49288 -1.6986 0
M  V30 3064 H 281.331 -3.7186 -1.59694 0
M  V30 3065 H 278.086 -4.73367 0.148537 0
M  V30 3066 H 278.51 -6.41696 2.15767 0
M  V30 3067 H 283.152 -4.22004 0.259304 0
M  V30 3068 H 280.87 -7.29271 3.48122 0
M  V30 3069 H 284.456 -5.48617 1.93676 0
M  V30 3070 H 283.336 -7.00453 3.52612 0
M  V30 3071 N 280.839 0.0985539 -1.57292 0
M  V30 3072 C 281.802 1.10402 -2.00858 0
M  V30 3073 C 282.802 1.33146 -0.901593 0
M  V30 3074 O 283.992 1.29318 -1.16716 0
M  V30 3075 C 281.124 2.45394 -2.36632 0
M  V30 3076 H 282.317 0.729099 -2.90902 0
M  V30 3077 H 279.87 0.343495 -1.52479 0
M  V30 3078 H 280.605 2.87769 -1.49531 0
M  V30 3079 H 280.39 2.30235 -3.17387 0
M  V30 3080 H 281.88 3.17718 -2.71007 0
M  V30 3081 N 282.317 1.53212 0.369288 0
M  V30 3082 C 283.264 1.79388 1.45219 0
M  V30 3083 C 284.234 0.638059 1.53356 0
M  V30 3084 O 285.419 0.879852 1.69302 0
M  V30 3085 C 282.559 1.98623 2.82211 0
M  V30 3086 C 281.672 3.26337 2.8307 0
M  V30 3087 C 280.807 3.35779 4.11614 0
M  V30 3088 C 279.846 4.5754 4.06601 0
M  V30 3089 N 278.983 4.64155 5.26787 0
M  V30 3090 H 283.823 2.71794 1.22198 0
M  V30 3091 H 281.36 1.34642 0.592444 0
M  V30 3092 H 283.318 2.07761 3.61789 0
M  V30 3093 H 281.948 1.09558 3.03639 0
M  V30 3094 H 281 3.26171 1.95747 0
M  V30 3095 H 282.312 4.15988 2.75237 0
M  V30 3096 H 281.466 3.44208 4.99606 0
M  V30 3097 H 280.205 2.44137 4.22195 0
M  V30 3098 H 279.21 4.49215 3.16996 0
M  V30 3099 H 280.435 5.50519 3.97625 0
M  V30 3100 H 278.381 3.75413 5.3796 0
M  V30 3101 H 278.298 5.47706 5.21109 0
M  V30 3102 H 279.566 4.76863 6.16621 0
M  V30 3103 N 283.795 -0.628877 1.44509 0
M  V30 3104 C 285.042 -1.38839 1.47411 0
M  V30 3105 C 285.37 -1.94202 0.10757 0
M  V30 3106 O 284.625 -1.74243 -0.890947 0
M  V30 3107 C 284.924 -2.56995 2.48371 0
M  V30 3108 C 284.59 -2.19908 3.93639 0
M  V30 3109 C 283.252 -2.09506 4.33198 0
M  V30 3110 C 285.604 -1.9064 4.85083 0
M  V30 3111 C 282.932 -1.68028 5.62124 0
M  V30 3112 C 285.284 -1.50655 6.14399 0
M  V30 3113 C 283.948 -1.38796 6.5291 0
M  V30 3114 H 283.218 -0.508048 0.539414 0
M  V30 3115 H 285.865 -0.712913 1.77735 0
M  V30 3116 H 284.17 -3.29786 2.11538 0
M  V30 3117 H 285.867 -3.15223 2.47861 0
M  V30 3118 H 282.457 -2.28922 3.62343 0
M  V30 3119 H 286.641 -1.97585 4.55273 0
M  V30 3120 H 281.897 -1.57452 5.90778 0
M  V30 3121 H 286.071 -1.27048 6.84713 0
M  V30 3122 H 283.698 -1.06429 7.52713 0
M  V30 3123 N 285.273 -1.31445 -0.869486 0
M  V30 3124 C 286.503 -1.23942 -1.65294 0
M  V30 3125 C 286.911 0.197561 -1.88166 0
M  V30 3126 O 286.254 1.14019 -1.44033 0
M  V30 3127 C 286.316 -1.91385 -3.04322 0
M  V30 3128 C 285.98 -3.40726 -3.04557 0
M  V30 3129 C 286.977 -4.36464 -2.82481 0
M  V30 3130 C 284.662 -3.82425 -3.25663 0
M  V30 3131 C 286.656 -5.71876 -2.8149 0
M  V30 3132 C 284.343 -5.1795 -3.243 0
M  V30 3133 C 285.341 -6.12486 -3.02241 0
M  V30 3134 O 285.029 -7.45534 -3.00724 0
M  V30 3135 H 284.761 -0.429459 -0.522054 0
M  V30 3136 H 287.315 -1.73873 -1.0935 0
M  V30 3137 H 285.545 -1.36004 -3.61994 0
M  V30 3138 H 287.234 -1.77791 -3.64891 0
M  V30 3139 H 288 -4.05576 -2.65956 0
M  V30 3140 H 283.879 -3.09274 -3.41863 0
M  V30 3141 H 287.423 -6.45638 -2.64191 0
M  V30 3142 H 283.32 -5.48473 -3.40365 0
M  V30 3143 H 284.088 -7.54713 -3.16782 0
M  V30 3144 N 286.751 1.08385 -1.14413 0
M  V30 3145 C 287.979 1.84517 -0.936001 0
M  V30 3146 C 288.394 1.81626 0.515503 0
M  V30 3147 O 287.751 1.22008 1.35721 0
M  V30 3148 C 287.802 3.32049 -1.42918 0
M  V30 3149 O 287.523 3.34951 -2.82381 0
M  V30 3150 C 289.024 4.24986 -1.26103 0
M  V30 3151 H 286.244 0.582491 -0.333084 0
M  V30 3152 H 288.788 1.36885 -1.5193 0
M  V30 3153 H 286.943 3.7707 -0.888641 0
M  V30 3154 H 287.357 4.27048 -3.04517 0
M  V30 3155 H 288.831 5.26615 -1.6547 0
M  V30 3156 H 289.308 4.38726 -0.20392 0
M  V30 3157 H 289.914 3.85791 -1.79012 0
M  V30 3158 N 288.23 0.939286 1.26551 0
M  V30 3159 C 289.193 0.451987 2.24699 0
M  V30 3160 C 290.193 -0.435869 1.5478 0
M  V30 3161 O 291.383 -0.235314 1.72603 0
M  V30 3162 C 288.515 -0.348801 3.39111 0
M  V30 3163 H 289.708 1.3193 2.69322 0
M  V30 3164 H 287.261 0.721072 1.38673 0
M  V30 3165 H 287.996 -1.23444 2.99887 0
M  V30 3166 H 287.781 0.287945 3.91041 0
M  V30 3167 H 289.271 -0.679726 4.12031 0
M  V30 3168 N 289.708 -1.40897 0.706093 0
M  V30 3169 C 290.618 -2.3455 0.0482286 0
M  V30 3170 C 291.634 -1.56796 -0.754396 0
M  V30 3171 O 292.81 -1.89228 -0.689538 0
M  V30 3172 C 289.875 -3.35625 -0.869303 0
M  V30 3173 C 288.936 -4.29261 -0.0576994 0
M  V30 3174 C 288.169 -5.25508 -0.931531 0
M  V30 3175 O 288.392 -5.27472 -2.17092 0
M  V30 3176 O 287.326 -6.00727 -0.375587 0
M  V30 3177 H 291.152 -2.92407 0.820476 0
M  V30 3178 H 288.737 -1.4193 0.4665 0
M  V30 3179 H 290.619 -3.97635 -1.39514 0
M  V30 3180 H 289.294 -2.80196 -1.62086 0
M  V30 3181 H 288.201 -3.70566 0.512988 0
M  V30 3182 H 289.534 -4.87817 0.655426 0
M  V30 3183 N 291.186 -0.45159 -1.50991 0
M  V30 3184 C 292.432 0.110237 -2.025 0
M  V30 3185 C 292.765 1.41109 -1.33424 0
M  V30 3186 O 292.04 1.89135 -0.453659 0
M  V30 3187 C 292.323 0.314271 -3.58726 0
M  V30 3188 C 292.176 -1.00623 -4.38401 0
M  V30 3189 C 293.495 1.07767 -4.26702 0
M  V30 3190 H 290.614 0.0385897 -0.735989 0
M  V30 3191 H 293.256 -0.593374 -1.80497 0
M  V30 3192 H 291.406 0.913601 -3.77605 0
M  V30 3193 H 293.078 -1.64064 -4.31139 0
M  V30 3194 H 291.321 -1.6075 -4.02917 0
M  V30 3195 H 291.992 -0.817341 -5.45915 0
M  V30 3196 H 294.468 0.56986 -4.12179 0
M  V30 3197 H 293.344 1.18921 -5.35863 0
M  V30 3198 H 293.605 2.10939 -3.88532 0
M  V30 3199 N 292.664 1.56529 -0.183458 0
M  V30 3200 C 293.91 1.97537 0.459036 0
M  V30 3201 C 294.243 1.06989 1.62071 0
M  V30 3202 O 293.518 0.11948 1.94133 0
M  V30 3203 C 293.801 3.47874 0.930368 0
M  V30 3204 C 293.654 4.492 -0.232317 0
M  V30 3205 C 294.973 4.01612 1.79989 0
M  V30 3206 H 292.092 0.718204 0.165383 0
M  V30 3207 H 294.734 1.88042 -0.272038 0
M  V30 3208 H 292.884 3.56095 1.55333 0
M  V30 3209 H 294.556 4.53027 -0.86972 0
M  V30 3210 H 292.799 4.24657 -0.885928 0
M  V30 3211 H 293.47 5.51823 0.139796 0
M  V30 3212 H 295.946 3.96097 1.27461 0
M  V30 3213 H 294.822 5.07195 2.09867 0
M  V30 3214 H 295.083 3.46163 2.74998 0
M  V30 3215 N 294.142 -0.090211 1.57342 0
M  V30 3216 C 295.072 -1.10976 2.05443 0
M  V30 3217 C 296.053 -1.41482 0.944284 0
M  V30 3218 O 297.238 -1.51428 1.21586 0
M  V30 3219 C 294.368 -2.42831 2.48295 0
M  V30 3220 C 293.322 -2.26721 3.63018 0
M  V30 3221 C 292.648 -3.63796 3.91863 0
M  V30 3222 C 293.948 -1.7037 4.93732 0
M  V30 3223 H 295.642 -0.709564 2.9087 0
M  V30 3224 H 293.188 -0.339874 1.39932 0
M  V30 3225 H 295.141 -3.14431 2.80555 0
M  V30 3226 H 293.865 -2.84795 1.59873 0
M  V30 3227 H 292.524 -1.57565 3.31012 0
M  V30 3228 H 292.172 -4.03297 3.00601 0
M  V30 3229 H 291.872 -3.53861 4.69101 0
M  V30 3230 H 293.396 -4.36855 4.26603 0
M  V30 3231 H 294.81 -2.31816 5.24342 0
M  V30 3232 H 293.207 -1.71181 5.75167 0
M  V30 3233 H 294.277 -0.663542 4.80339 0
M  V30 3234 N 295.62 -1.53406 -0.361157 0
M  V30 3235 C 296.583 -1.79479 -1.42548 0
M  V30 3236 C 297.583 -0.665327 -1.4639 0
M  V30 3237 O 298.773 -0.933549 -1.47073 0
M  V30 3238 C 295.905 -1.92087 -2.8163 0
M  V30 3239 H 297.098 -2.74538 -1.20701 0
M  V30 3240 H 294.651 -1.4455 -0.594546 0
M  V30 3241 H 295.386 -0.991099 -3.08784 0
M  V30 3242 H 295.171 -2.74241 -2.80239 0
M  V30 3243 H 296.661 -2.13836 -3.58697 0
M  V30 3244 N 297.098 0.621204 -1.44841 0
M  V30 3245 C 298.028 1.74366 -1.55303 0
M  V30 3246 C 299.009 1.65199 -0.405385 0
M  V30 3247 O 300.194 1.83807 -0.626787 0
M  V30 3248 C 297.324 3.12931 -1.50637 0
M  V30 3249 C 296.278 3.36896 -2.63979 0
M  V30 3250 C 295.604 4.75594 -2.44366 0
M  V30 3251 C 296.904 3.28483 -4.06074 0
M  V30 3252 H 298.598 1.65867 -2.49256 0
M  V30 3253 H 296.144 0.796558 -1.19962 0
M  V30 3254 H 298.097 3.9124 -1.56555 0
M  V30 3255 H 296.821 3.22237 -0.532057 0
M  V30 3256 H 295.48 2.60972 -2.57467 0
M  V30 3257 H 295.128 4.81616 -1.45105 0
M  V30 3258 H 294.828 4.92586 -3.20364 0
M  V30 3259 H 296.352 5.5612 -2.52117 0
M  V30 3260 H 297.766 3.96684 -4.13902 0
M  V30 3261 H 296.163 3.57008 -4.82354 0
M  V30 3262 H 297.233 2.26133 -4.28943 0
M  V30 3263 N 298.576 1.31904 0.862503 0
M  V30 3264 C 299.853 1.12644 1.59908 0
M  V30 3265 C 300.233 -0.316104 2.0872 0
M  V30 3266 O 299.581 -1.31145 1.87118 0
M  V30 3267 C 299.791 2.1472 2.7513 0
M  V30 3268 C 301.139 2.47637 3.44907 0
M  V30 3269 O 302.163 2.13205 2.85346 0
M  V30 3270 O 301.022 3.06632 4.52371 0
M  V30 3271 H 298.116 0.43416 0.703871 0
M  V30 3272 H 300.662 1.43408 0.907314 0
M  V30 3273 H 299.434 3.1172 2.3653 0
M  V30 3274 H 299.057 1.84905 3.51989 0
M  V30 3275 N 300.054 -1.07777 1.14986 0
M  V30 3276 C 301.017 -2.13041 0.845358 0
M  V30 3277 C 302.017 -1.60071 -0.152931 0
M  V30 3278 O 303.207 -1.74033 0.0761879 0
M  V30 3279 C 300.339 -3.39896 0.261383 0
M  V30 3280 H 301.532 -2.41485 1.77834 0
M  V30 3281 H 299.085 -1.23595 0.956757 0
M  V30 3282 H 299.82 -3.17091 -0.68 0
M  V30 3283 H 299.605 -3.79642 0.980514 0
M  V30 3284 H 301.095 -4.17548 0.0657687 0
M  V30 3285 N 301.532 -0.945985 -1.26051 0
M  V30 3286 C 302.781 -0.591836 -1.92822 0
M  V30 3287 C 303.094 0.873956 -1.7499 0
M  V30 3288 O 304.3 1.33769 -2.36259 0
M  V30 3289 C 302.756 -1.00776 -3.45503 0
M  V30 3290 C 302.364 -2.4955 -3.7206 0
M  V30 3291 C 304.108 -0.725735 -4.1825 0
M  V30 3292 C 302.015 -2.84988 -5.18205 0
M  V30 3293 H 300.945 -0.217635 -0.721908 0
M  V30 3294 H 303.596 -1.14927 -1.43052 0
M  V30 3295 H 301.978 -0.378812 -3.94184 0
M  V30 3296 H 303.152 -3.1739 -3.34066 0
M  V30 3297 H 301.467 -2.75133 -3.12555 0
M  V30 3298 H 304.064 -0.966771 -5.25887 0
M  V30 3299 H 304.407 0.337639 -4.14929 0
M  V30 3300 H 304.94 -1.31463 -3.7545 0
M  V30 3301 H 301.679 -3.90307 -5.26631 0
M  V30 3302 H 301.199 -2.21813 -5.57278 0
M  V30 3303 H 302.878 -2.73712 -5.86252 0
M  V30 3304 N 303.011 1.40521 -0.713556 0
M  V30 3305 C 303.961 2.27971 -0.036165 0
M  V30 3306 C 304.945 1.43151 0.734623 0
M  V30 3307 O 306.137 1.66261 0.607158 0
M  V30 3308 C 303.266 3.31661 0.886331 0
M  V30 3309 C 302.352 4.23955 0.110836 0
M  V30 3310 N 302.743 4.97641 -0.904847 0
M  V30 3311 C 301.041 4.44674 0.343692 0
M  V30 3312 C 301.742 5.65322 -1.37064 0
M  V30 3313 N 300.718 5.39162 -0.693168 0
M  V30 3314 H 304.52 2.82384 -0.814645 0
M  V30 3315 H 302.034 1.52948 -0.545963 0
M  V30 3316 H 304.031 3.93154 1.38692 0
M  V30 3317 H 302.691 2.78808 1.66421 0
M  V30 3318 H 303.702 5.01689 -1.28563 0
M  V30 3319 H 300.379 4.02801 1.09805 0
M  V30 3320 H 301.769 6.34359 -2.21447 0
M  V30 3321 N 304.489 0.459591 1.5075 0
M  V30 3322 C 305.714 -0.0996819 2.0716 0
M  V30 3323 C 306.139 -1.33761 1.32249 0
M  V30 3324 O 305.497 -1.77551 0.366786 0
M  V30 3325 C 305.545 -0.378226 3.58611 0
M  V30 3326 O 304.649 -1.46081 3.85661 0
M  V30 3327 H 303.99 0.00791392 0.663953 0
M  V30 3328 H 306.52 0.647329 1.9409 0
M  V30 3329 H 306.53 -0.622135 4.03229 0
M  V30 3330 H 305.205 0.526439 4.12555 0
M  V30 3331 H 303.782 -1.20511 3.5289 0
M  V30 3332 N 305.967 -1.56429 0.191757 0
M  V30 3333 C 306.9 -2.14829 -0.76967 0
M  V30 3334 C 307.878 -1.08405 -1.2119 0
M  V30 3335 O 309.062 -1.36498 -1.30002 0
M  V30 3336 C 306.189 -2.70446 -2.03903 0
M  V30 3337 C 305.235 -3.89428 -1.7392 0
M  V30 3338 S 306.068 -5.28048 -0.890265 0
M  V30 3339 C 307.224 -5.87085 -2.16984 0
M  V30 3340 H 307.457 -2.96042 -0.273204 0
M  V30 3341 H 304.99 -1.54383 -0.0231975 0
M  V30 3342 H 306.948 -3.03134 -2.76803 0
M  V30 3343 H 305.609 -1.89281 -2.50662 0
M  V30 3344 H 304.802 -4.26742 -2.68155 0
M  V30 3345 H 304.404 -3.57732 -1.09103 0
M  V30 3346 H 306.696 -6.01244 -3.12269 0
M  V30 3347 H 307.639 -6.83747 -1.84108 0
M  V30 3348 H 308.047 -5.15663 -2.29678 0
M  V30 3349 N 307.445 0.0818655 -1.57387 0
M  V30 3350 C 308.693 0.781368 -1.86384 0
M  V30 3351 C 309.014 1.78618 -0.782342 0
M  V30 3352 O 308.284 1.94976 0.190061 0
M  V30 3353 H 306.864 0.291562 -0.687751 0
M  V30 3354 H 309.526 0.060348 -1.94807 0
M  V30 3355 H 308.622 1.3038 -2.83562 0
M  V30 3356 N 308.923 1.53595 0.353017 0
M  V30 3357 C 309.853 1.83902 1.43883 0
M  V30 3358 C 310.834 0.693421 1.55324 0
M  V30 3359 O 312.019 0.944452 1.69687 0
M  V30 3360 C 309.149 2.04016 2.8106 0
M  V30 3361 C 308.103 3.19814 2.84434 0
M  V30 3362 C 307.429 3.25244 4.24406 0
M  V30 3363 C 308.729 4.58133 2.50822 0
M  V30 3364 H 310.423 2.74835 1.1877 0
M  V30 3365 H 307.969 1.32242 0.569917 0
M  V30 3366 H 309.922 2.238 3.57059 0
M  V30 3367 H 308.646 1.09804 3.07588 0
M  V30 3368 H 307.305 2.9987 2.10887 0
M  V30 3369 H 306.953 2.28646 4.48029 0
M  V30 3370 H 306.653 4.03054 4.27576 0
M  V30 3371 H 308.177 3.47228 5.0226 0
M  V30 3372 H 309.591 4.77995 3.16534 0
M  V30 3373 H 307.988 5.38276 2.6529 0
M  V30 3374 H 309.058 4.62387 1.46034 0
M  V30 3375 N 310.401 -0.613514 1.45168 0
M  V30 3376 C 311.65 -1.36874 1.4815 0
M  V30 3377 C 311.963 -1.952 0.124982 0
M  V30 3378 O 313.169 -2.71481 0.0324176 0
M  V30 3379 C 311.625 -2.47905 2.60904 0
M  V30 3380 C 311.233 -1.96016 4.02842 0
M  V30 3381 C 312.977 -3.24965 2.73126 0
M  V30 3382 C 310.884 -3.04494 5.06988 0
M  V30 3383 H 309.814 -0.514428 0.551253 0
M  V30 3384 H 312.465 -0.658182 1.7129 0
M  V30 3385 H 310.847 -3.21618 2.31037 0
M  V30 3386 H 312.021 -1.29051 4.4236 0
M  V30 3387 H 310.336 -1.31719 3.95018 0
M  V30 3388 H 312.933 -4.05865 3.48106 0
M  V30 3389 H 313.276 -3.75588 1.79553 0
M  V30 3390 H 313.809 -2.5835 3.0249 0
M  V30 3391 H 310.548 -2.58795 6.0225 0
M  V30 3392 H 310.068 -3.70044 4.72046 0
M  V30 3393 H 311.747 -3.68976 5.31475 0
M  V30 3394 N 311.879 -1.3236 -0.855495 0
M  V30 3395 C 312.829 -1.17809 -1.95205 0
M  V30 3396 C 313.813 -0.0852319 -1.60674 0
M  V30 3397 O 315.005 -0.311651 -1.74235 0
M  V30 3398 C 312.134 -0.902437 -3.31226 0
M  V30 3399 C 311.22 -2.03695 -3.7198 0
M  V30 3400 N 311.611 -3.28544 -3.84568 0
M  V30 3401 C 309.909 -1.93993 -4.016 0
M  V30 3402 C 310.61 -4.02847 -4.19629 0
M  V30 3403 N 309.586 -3.31138 -4.31102 0
M  V30 3404 H 313.388 -2.12462 -2.0307 0
M  V30 3405 H 310.902 -1.24127 -1.0472 0
M  V30 3406 H 312.899 -0.77915 -4.09554 0
M  V30 3407 H 311.559 0.0357267 -3.2468 0
M  V30 3408 H 312.57 -3.6349 -3.68911 0
M  V30 3409 H 309.247 -1.07733 -4.03361 0
M  V30 3410 H 310.637 -5.10506 -4.36845 0
M  V30 3411 N 313.357 1.07166 -1.15556 0
M  V30 3412 C 314.773 1.31899 -0.898603 0
M  V30 3413 C 314.973 1.96333 0.453383 0
M  V30 3414 O 314.029 2.22438 1.19489 0
M  V30 3415 C 315.342 2.20826 -2.04099 0
M  V30 3416 C 316.89 2.34269 -2.07574 0
M  V30 3417 C 317.365 3.26546 -3.21141 0
M  V30 3418 N 318.856 3.34127 -3.20801 0
M  V30 3419 C 319.591 4.05595 -4.05315 0
M  V30 3420 N 319.087 4.79661 -4.99897 0
M  V30 3421 N 320.88 4.01555 -3.93332 0
M  V30 3422 H 313.031 0.637302 -2.02613 0
M  V30 3423 H 315.294 0.343468 -0.883591 0
M  V30 3424 H 315 1.80744 -3.01703 0
M  V30 3425 H 314.874 3.21364 -1.97496 0
M  V30 3426 H 317.261 2.73603 -1.10568 0
M  V30 3427 H 317.342 1.33429 -2.18244 0
M  V30 3428 H 316.986 2.87931 -4.184 0
M  V30 3429 H 316.916 4.27345 -3.07708 0
M  V30 3430 H 319.407 2.81336 -2.52306 0
M  V30 3431 H 319.72 5.31694 -5.60822 0
M  V30 3432 H 318.065 4.78671 -5.03884 0
M  V30 3433 H 321.256 3.42806 -3.18751 0
M  V30 3434 H 321.429 4.56987 -4.5942 0
M  V30 3435 N 314.835 0.952656 1.25548 0
M  V30 3436 C 316.112 0.523818 1.88456 0
M  V30 3437 C 316.492 -0.998871 1.85973 0
M  V30 3438 O 315.84 -1.86381 1.3219 0
M  V30 3439 C 316.05 1.0982 3.31271 0
M  V30 3440 C 317.398 1.17385 4.08051 0
M  V30 3441 O 318.422 1.04961 3.40384 0
M  V30 3442 O 317.281 1.36852 5.29088 0
M  V30 3443 H 314.375 0.172485 0.808813 0
M  V30 3444 H 316.921 1.04596 1.33633 0
M  V30 3445 H 315.693 2.1415 3.27499 0
M  V30 3446 H 315.316 0.559191 3.93648 0
M  V30 3447 N 316.313 -1.40141 0.720998 0
M  V30 3448 C 317.559 -2.01084 0.263231 0
M  V30 3449 C 317.892 -1.57052 -1.14229 0
M  V30 3450 O 317.167 -0.793027 -1.77599 0
M  V30 3451 C 317.45 -3.58401 0.349344 0
M  V30 3452 C 317.303 -4.12491 1.79363 0
M  V30 3453 C 318.622 -4.39231 -0.276351 0
M  V30 3454 H 315.741 -0.730572 0.0971228 0
M  V30 3455 H 318.383 -1.66543 0.914518 0
M  V30 3456 H 316.533 -3.87958 -0.205165 0
M  V30 3457 H 318.205 -3.93711 2.40394 0
M  V30 3458 H 316.448 -3.66576 2.31958 0
M  V30 3459 H 317.119 -5.21646 1.80524 0
M  V30 3460 H 319.595 -4.15637 0.196184 0
M  V30 3461 H 318.471 -5.48586 -0.185681 0
M  V30 3462 H 318.732 -4.20643 -1.36059 0
M  V30 3463 N 317.792 -0.46758 -1.50504 0
M  V30 3464 C 318.739 0.328413 -2.28452 0
M  V30 3465 C 319.709 0.990313 -1.33349 0
M  V30 3466 O 320.894 1.00343 -1.62284 0
M  V30 3467 C 318.034 1.40648 -3.15138 0
M  V30 3468 C 317.147 0.759709 -4.25267 0
M  V30 3469 C 316.282 1.81537 -4.99217 0
M  V30 3470 C 315.321 1.14866 -6.01226 0
M  V30 3471 N 314.458 2.14702 -6.68467 0
M  V30 3472 H 319.298 -0.342603 -2.96024 0
M  V30 3473 H 316.835 -0.180801 -1.45985 0
M  V30 3474 H 318.793 2.04315 -3.63746 0
M  V30 3475 H 317.423 2.04671 -2.49619 0
M  V30 3476 H 316.475 0.0105671 -3.80399 0
M  V30 3477 H 317.787 0.233243 -4.98254 0
M  V30 3478 H 316.941 2.52793 -5.51526 0
M  V30 3479 H 315.68 2.37564 -4.25928 0
M  V30 3480 H 314.685 0.42171 -5.4818 0
M  V30 3481 H 315.91 0.595334 -6.76485 0
M  V30 3482 H 313.856 2.69752 -5.97972 0
M  V30 3483 H 313.773 1.6703 -7.37317 0
M  V30 3484 H 315.041 2.85348 -7.25394 0
M  V30 3485 N 319.27 1.56325 -0.20005 0
M  V30 3486 C 320.681 1.8408 0.31167 0
M  V30 3487 C 321.032 1.12087 1.61031 0
M  V30 3488 O 320.157 0.38332 2.12978 0
M  V30 3489 C 320.752 3.33932 0.57226 0
M  V30 3490 C 319.311 3.6208 1.02834 0
M  V30 3491 C 318.458 2.77186 0.079634 0
M  V30 3492 H 321.409 1.52939 -0.423729 0
M  V30 3493 H 321.43 3.52971 1.42096 0
M  V30 3494 H 320.942 3.86303 -0.37308 0
M  V30 3495 H 319.043 3.15147 1.98778 0
M  V30 3496 H 319.156 4.7023 0.917624 0
M  V30 3497 H 317.52 2.47951 0.582448 0
M  V30 3498 H 318.303 3.32347 -0.860238 0
M  V30 3499 N 320.748 -0.0735177 1.57428 0
M  V30 3500 C 322.025 -0.805903 1.78226 0
M  V30 3501 C 322.405 -1.95874 0.787189 0
M  V30 3502 O 321.753 -2.2779 -0.180029 0
M  V30 3503 C 321.963 -1.28045 3.24662 0
M  V30 3504 C 323.311 -1.71453 3.88444 0
M  V30 3505 O 324.335 -1.37616 3.28543 0
M  V30 3506 O 323.194 -2.34093 4.93825 0
M  V30 3507 H 320.288 -0.386041 0.73137 0
M  V30 3508 H 322.834 -0.0537269 1.69615 0
M  V30 3509 H 321.606 -0.455476 3.8864 0
M  V30 3510 H 321.229 -2.094 3.37991 0
M  V30 3511 N 322.226 -1.5378 -0.344866 0
M  V30 3512 C 323.174 -1.82373 -1.4437 0
M  V30 3513 C 324.168 -0.694128 -1.54526 0
M  V30 3514 O 325.374 -0.877442 -1.57165 0
M  V30 3515 H 321.749 -0.577765 -0.481344 0
M  V30 3516 H 323.72 -2.74306 -1.17468 0
M  V30 3517 C 322.469 -2.04898 -2.80913 0
M  V30 3518 H 321.792 -2.9127 -2.73865 0
M  V30 3519 H 323.232 -2.28871 -3.56923 0
M  V30 3520 C 321.691 -0.834116 -3.26411 0
M  V30 3521 O 322.221 -0.0328885 -4.01687 0
M  V30 3522 N 320.427 -0.65171 -2.83198 0
M  V30 3523 H 319.974 -1.30489 -2.22104 0
M  V30 3524 H 319.932 0.159686 -3.13994 0
M  V30 3525 N 323.704 0.605807 -1.45491 0
M  V30 3526 C 324.637 1.73022 -1.48791 0
M  V30 3527 C 325.615 1.58917 -0.344112 0
M  V30 3528 O 326.799 1.80453 -0.544876 0
M  V30 3529 C 323.926 3.10865 -1.34463 0
M  V30 3530 C 322.972 3.43554 -2.5273 0
M  V30 3531 S 323.805 3.38196 -4.15191 0
M  V30 3532 C 324.961 4.78616 -4.03333 0
M  V30 3533 H 325.194 1.69961 -2.43928 0
M  V30 3534 H 322.727 0.782611 -1.33096 0
M  V30 3535 H 324.685 3.90398 -1.26884 0
M  V30 3536 H 323.346 3.1144 -0.40794 0
M  V30 3537 H 322.539 4.43924 -2.38637 0
M  V30 3538 H 322.141 2.71541 -2.5718 0
M  V30 3539 H 324.433 5.68463 -3.68587 0
M  V30 3540 H 325.376 4.97767 -5.03621 0
M  V30 3541 H 325.784 4.54381 -3.34959 0
M  V30 3542 N 325.182 1.32811 0.848464 0
M  V30 3543 C 326.112 1.24882 1.97299 0
M  V30 3544 C 327.093 0.131357 1.69592 0
M  V30 3545 O 328.278 0.319553 1.91553 0
M  V30 3546 C 325.408 0.97746 3.33261 0
M  V30 3547 C 324.362 2.05682 3.75338 0
M  V30 3548 C 323.688 1.63777 5.09 0
M  V30 3549 C 324.988 3.47254 3.90144 0
M  V30 3550 H 326.682 2.18966 2.04191 0
M  V30 3551 H 324.228 1.05413 0.981029 0
M  V30 3552 H 326.181 0.908513 4.1149 0
M  V30 3553 H 324.905 0.000980011 3.266 0
M  V30 3554 H 323.564 2.11603 2.99366 0
M  V30 3555 H 323.212 0.648569 4.98801 0
M  V30 3556 H 322.912 2.36 5.38124 0
M  V30 3557 H 324.436 1.5833 5.89715 0
M  V30 3558 H 325.85 3.43888 4.58709 0
M  V30 3559 H 324.247 4.1788 4.30693 0
M  V30 3560 H 325.317 3.86462 2.92874 0
M  V30 3561 N 326.66 -1.06551 1.16123 0
M  V30 3562 C 327.59 -2.15935 0.88851 0
M  V30 3563 C 328.571 -1.69306 -0.164135 0
M  V30 3564 O 329.756 -1.94193 -0.0167857 0
M  V30 3565 C 326.886 -3.45149 0.385942 0
M  V30 3566 C 325.84 -4.05271 1.3762 0
M  V30 3567 C 325.166 -5.29664 0.732137 0
M  V30 3568 C 326.466 -4.44355 2.74493 0
M  V30 3569 H 328.16 -2.39006 1.80323 0
M  V30 3570 H 325.706 -1.14866 0.868435 0
M  V30 3571 H 327.659 -4.21004 0.182647 0
M  V30 3572 H 326.383 -3.21689 -0.564274 0
M  V30 3573 H 325.042 -3.3147 1.56599 0
M  V30 3574 H 324.69 -5.02499 -0.224483 0
M  V30 3575 H 324.39 -5.70848 1.39307 0
M  V30 3576 H 325.914 -6.08218 0.538802 0
M  V30 3577 H 327.328 -5.11303 2.59311 0
M  V30 3578 H 325.725 -4.96515 3.37035 0
M  V30 3579 H 326.795 -3.55339 3.29943 0
M  V30 3580 N 328.138 -0.959301 -1.25041 0
M  V30 3581 C 329.415 -0.533805 -1.88175 0
M  V30 3582 C 329.795 0.988994 -1.865 0
M  V30 3583 O 329.143 1.85677 -1.33177 0
M  V30 3584 C 329.353 -1.11575 -3.30684 0
M  V30 3585 C 330.701 -1.19548 -4.07423 0
M  V30 3586 O 331.725 -1.06765 -3.39823 0
M  V30 3587 O 330.584 -1.39656 -5.28354 0
M  V30 3588 H 327.678 -0.176772 -0.807887 0
M  V30 3589 H 330.224 -1.05303 -1.33076 0
M  V30 3590 H 328.996 -2.15884 -3.26358 0
M  V30 3591 H 328.619 -0.580059 -3.93346 0
M  V30 3592 N 329.616 1.39756 -0.72842 0
M  V30 3593 C 330.563 2.30647 -0.0841519 0
M  V30 3594 C 331.533 1.48869 0.7367 0
M  V30 3595 O 332.718 1.77574 0.698015 0
M  V30 3596 C 329.858 3.35165 0.822091 0
M  V30 3597 C 328.971 4.31999 -0.0106663 0
M  V30 3598 C 328.106 5.23585 0.896241 0
M  V30 3599 C 327.145 6.12072 0.0583381 0
M  V30 3600 N 326.282 6.96035 0.920818 0
M  V30 3601 H 331.122 2.85173 -0.864891 0
M  V30 3602 H 328.659 1.40422 -0.438179 0
M  V30 3603 H 330.617 3.94345 1.36189 0
M  V30 3604 H 329.247 2.8211 1.56888 0
M  V30 3605 H 328.299 3.74492 -0.66781 0
M  V30 3606 H 329.611 4.9443 -0.658825 0
M  V30 3607 H 328.765 5.87759 1.50412 0
M  V30 3608 H 327.504 4.61459 1.57819 0
M  V30 3609 H 326.509 5.46916 -0.562389 0
M  V30 3610 H 327.734 6.76261 -0.6203 0
M  V30 3611 H 325.68 6.36485 1.58818 0
M  V30 3612 H 325.597 7.55284 0.32899 0
M  V30 3613 H 326.865 7.64646 1.51447 0
M  V30 3614 N 331.094 0.475555 1.50254 0
M  V30 3615 C 332.044 -0.335025 2.25525 0
M  V30 3616 C 333.028 -0.957625 1.29299 0
M  V30 3617 O 334.22 -0.869436 1.54175 0
M  V30 3618 C 331.349 -1.41385 3.12834 0
M  V30 3619 C 330.435 -0.798762 4.1651 0
M  V30 3620 N 330.826 0.0835815 5.05731 0
M  V30 3621 C 329.124 -1.06221 4.33166 0
M  V30 3622 C 329.825 0.433113 5.80085 0
M  V30 3623 N 328.801 -0.1928 5.43258 0
M  V30 3624 H 332.603 0.344612 2.91873 0
M  V30 3625 H 330.117 0.289986 1.5979 0
M  V30 3626 H 332.114 -2.00777 3.65368 0
M  V30 3627 H 330.774 -2.09543 2.48036 0
M  V30 3628 H 331.785 0.452715 5.15918 0
M  V30 3629 H 328.462 -1.73844 3.79585 0
M  V30 3630 H 329.852 1.15346 6.61925 0
M  V30 3631 N 332.573 -1.56217 0.208337 0
M  V30 3632 C 333.821 -1.97558 -0.426076 0
M  V30 3633 C 334.142 -1.09683 -1.61229 0
M  V30 3634 O 333.412 -0.170956 -1.95153 0
M  V30 3635 H 331.992 -0.729575 -0.160405 0
M  V30 3636 H 334.654 -1.92606 0.298155 0
M  V30 3637 H 333.75 -3.02672 -0.761312 0
M  V30 3638 N 334.051 0.0651679 -1.57465 0
M  V30 3639 C 335.001 1.0838 -2.00594 0
M  V30 3640 C 335.985 1.34106 -0.889071 0
M  V30 3641 O 337.177 1.34295 -1.15299 0
M  V30 3642 C 334.306 2.39565 -2.45894 0
M  V30 3643 C 333.392 2.17085 -3.64328 0
M  V30 3644 N 333.783 1.64553 -4.78285 0
M  V30 3645 C 332.081 2.4753 -3.71006 0
M  V30 3646 C 332.782 1.57042 -5.60101 0
M  V30 3647 N 331.758 2.03328 -5.04141 0
M  V30 3648 H 335.56 0.671062 -2.86136 0
M  V30 3649 H 333.074 0.27213 -1.60104 0
M  V30 3650 H 335.071 3.13308 -2.75034 0
M  V30 3651 H 333.731 2.81549 -1.61741 0
M  V30 3652 H 334.742 1.33323 -5.00445 0
M  V30 3653 H 331.419 2.92835 -2.9758 0
M  V30 3654 H 332.809 1.17223 -6.61595 0
M  V30 3655 N 335.529 1.53961 0.336706 0
M  V30 3656 C 336.459 1.85417 1.41925 0
M  V30 3657 C 337.44 0.709856 1.5458 0
M  V30 3658 O 338.625 0.962396 1.68676 0
M  V30 3659 C 335.755 2.06985 2.78881 0
M  V30 3660 C 334.709 3.22813 2.81026 0
M  V30 3661 C 334.035 3.29727 4.20932 0
M  V30 3662 C 335.335 4.60767 2.45949 0
M  V30 3663 H 337.029 2.76079 1.15848 0
M  V30 3664 H 334.575 1.32839 0.555859 0
M  V30 3665 H 336.528 2.27575 3.54665 0
M  V30 3666 H 335.252 1.13061 3.06406 0
M  V30 3667 H 333.911 3.0209 2.07695 0
M  V30 3668 H 333.559 2.33385 4.45579 0
M  V30 3669 H 333.259 4.07566 4.23277 0
M  V30 3670 H 334.783 3.52536 4.98549 0
M  V30 3671 H 336.197 4.81325 3.11446 0
M  V30 3672 H 334.594 5.4106 2.59566 0
M  V30 3673 H 335.664 4.6391 1.41122 0
M  V30 3674 N 337.007 -0.598083 1.45811 0
M  V30 3675 C 337.954 -1.7082 1.55207 0
M  V30 3676 C 338.924 -1.61278 0.39732 0
M  V30 3677 O 340.109 -1.80717 0.612038 0
M  V30 3678 C 337.249 -3.09144 1.53376 0
M  V30 3679 C 336.362 -3.29423 2.79472 0
M  V30 3680 C 335.497 -4.57907 2.69248 0
M  V30 3681 C 334.536 -4.71476 3.90354 0
M  V30 3682 N 333.673 -5.9127 3.78608 0
M  V30 3683 H 338.513 -1.62125 2.50039 0
M  V30 3684 H 336.05 -0.790389 1.24062 0
M  V30 3685 H 338.008 -3.89186 1.50301 0
M  V30 3686 H 336.638 -3.16773 0.620876 0
M  V30 3687 H 335.69 -2.43091 2.92594 0
M  V30 3688 H 337.002 -3.3532 3.69272 0
M  V30 3689 H 336.156 -5.46157 2.64192 0
M  V30 3690 H 334.895 -4.54423 1.77063 0
M  V30 3691 H 333.9 -3.81648 3.95759 0
M  V30 3692 H 335.125 -4.76751 4.83617 0
M  V30 3693 H 333.071 -5.88813 2.89199 0
M  V30 3694 H 332.988 -5.98369 4.6205 0
M  V30 3695 H 334.256 -6.81992 3.77501 0
M  V30 3696 N 338.485 -1.33259 -0.841409 0
M  V30 3697 C 339.415 -1.25926 -1.96634 0
M  V30 3698 C 340.396 -0.140349 -1.6952 0
M  V30 3699 O 341.581 -0.329707 -1.91381 0
M  V30 3700 C 338.711 -0.99512 -3.32738 0
M  V30 3701 C 337.665 -2.0767 -3.74242 0
M  V30 3702 C 336.991 -1.66474 -5.08125 0
M  V30 3703 C 338.291 -3.49318 -3.88297 0
M  V30 3704 H 339.985 -2.20046 -2.03027 0
M  V30 3705 H 337.531 -1.05931 -0.975425 0
M  V30 3706 H 339.484 -0.930323 -4.11002 0
M  V30 3707 H 338.208 -0.0183004 -3.26595 0
M  V30 3708 H 336.867 -2.13187 -2.98239 0
M  V30 3709 H 336.515 -0.675012 -4.9845 0
M  V30 3710 H 336.215 -2.3885 -5.36865 0
M  V30 3711 H 337.739 -1.61455 -5.88867 0
M  V30 3712 H 339.153 -3.46316 -4.56879 0
M  V30 3713 H 337.55 -4.20158 -4.28471 0
M  V30 3714 H 338.62 -3.8801 -2.9082 0
M  V30 3715 N 339.963 1.05934 -1.16686 0
M  V30 3716 C 340.926 2.11669 -0.879144 0
M  V30 3717 C 341.926 1.60294 0.127445 0
M  V30 3718 O 343.116 1.7389 -0.103865 0
M  V30 3719 C 340.248 3.39438 -0.315425 0
M  V30 3720 H 341.441 2.38626 -1.81653 0
M  V30 3721 H 338.994 1.22058 -0.976299 0
M  V30 3722 H 339.729 3.18132 0.629468 0
M  V30 3723 H 339.514 3.78034 -1.04079 0
M  V30 3724 H 341.004 4.17391 -0.132189 0
M  V30 3725 N 341.441 0.965919 1.2453 0
M  V30 3726 C 342.718 0.543777 1.87889 0
M  V30 3727 C 343.098 -0.97909 1.87021 0
M  V30 3728 O 342.446 -1.84969 1.3416 0
M  V30 3729 C 342.656 1.13327 3.30088 0
M  V30 3730 C 344.004 1.21707 4.06783 0
M  V30 3731 O 345.028 1.08566 3.39252 0
M  V30 3732 O 343.887 1.42456 5.27606 0
M  V30 3733 H 340.981 0.181054 0.806938 0
M  V30 3734 H 343.527 1.06007 1.32516 0
M  V30 3735 H 342.299 2.17612 3.25209 0
M  V30 3736 H 341.922 0.600911 3.93033 0
M  V30 3737 N 342.919 -1.39368 0.735821 0
M  V30 3738 C 344.166 -2.00497 0.284123 0
M  V30 3739 C 344.494 -1.58387 -1.12889 0
M  V30 3740 O 343.749 -0.804359 -1.78406 0
M  V30 3741 C 344.048 -3.5583 0.334651 0
M  V30 3742 C 343.714 -4.17593 1.7008 0
M  V30 3743 C 342.376 -4.34176 2.07472 0
M  V30 3744 C 344.728 -4.51848 2.59775 0
M  V30 3745 C 342.056 -4.82304 3.34065 0
M  V30 3746 C 344.408 -5.01384 3.85741 0
M  V30 3747 C 343.072 -5.16175 4.23225 0
M  V30 3748 H 342.342 -0.73367 0.103968 0
M  V30 3749 H 344.989 -1.66683 0.942825 0
M  V30 3750 H 343.294 -3.89674 -0.407625 0
M  V30 3751 H 344.991 -4.00986 -0.0329927 0
M  V30 3752 H 341.581 -4.05087 1.40008 0
M  V30 3753 H 345.765 -4.38653 2.32157 0
M  V30 3754 H 341.021 -4.91941 3.63049 0
M  V30 3755 H 345.195 -5.26863 4.55399 0
M  V30 3756 H 342.822 -5.5323 5.21384 0
M  V30 3757 N 344.397 -0.483516 -1.5 0
M  V30 3758 C 345.645 0.067027 -2.01989 0
M  V30 3759 C 345.966 1.3909 -1.36671 0
M  V30 3760 O 345.236 1.88978 -0.516152 0
M  V30 3761 H 343.816 0.0277606 -0.746484 0
M  V30 3762 H 346.478 -0.636773 -1.84204 0
M  V30 3763 H 345.574 0.209484 -3.11396 0
M  V30 3764 N 345.875 1.56104 -0.216619 0
M  V30 3765 C 347.103 2.02563 0.421413 0
M  V30 3766 C 347.518 1.0965 1.53695 0
M  V30 3767 O 346.875 0.10521 1.82196 0
M  V30 3768 C 346.926 3.48584 0.957665 0
M  V30 3769 O 346.647 4.37953 -0.113389 0
M  V30 3770 C 348.148 4.10664 1.66943 0
M  V30 3771 H 345.368 0.662944 0.103665 0
M  V30 3772 H 347.912 2.01793 -0.331629 0
M  V30 3773 H 346.067 3.49985 1.661 0
M  V30 3774 H 346.481 5.23704 0.288932 0
M  V30 3775 H 347.955 5.14622 1.99671 0
M  V30 3776 H 348.432 3.55373 2.58083 0
M  V30 3777 H 349.038 4.13098 1.01142 0
M  V30 3778 N 347.353 -0.0568162 1.57498 0
M  V30 3779 C 348.593 -0.758273 1.89815 0
M  V30 3780 C 348.957 -1.73978 0.812132 0
M  V30 3781 O 350.158 -2.48744 1.01881 0
M  V30 3782 C 348.429 -1.43465 3.27342 0
M  V30 3783 S 349.988 -2.1691 3.81439 0
M  V30 3784 H 346.806 -0.251836 0.664906 0
M  V30 3785 H 349.408 -0.0137997 1.95495 0
M  V30 3786 H 348.112 -0.706693 4.0427 0
M  V30 3787 H 347.643 -2.21825 3.24896 0
M  V30 3788 H 349.658 -3.43658 3.5793 0
M  V30 3789 N 348.832 -1.54138 -0.328536 0
M  V30 3790 C 349.765 -1.78014 -1.4278 0
M  V30 3791 C 350.743 -0.629889 -1.49904 0
M  V30 3792 O 351.927 -0.866763 -1.6739 0
M  V30 3793 C 349.054 -1.89225 -2.80912 0
M  V30 3794 C 348.1 -3.11483 -2.91343 0
M  V30 3795 S 348.933 -4.70201 -2.56263 0
M  V30 3796 C 350.089 -4.84312 -3.96476 0
M  V30 3797 H 350.322 -2.70974 -1.22313 0
M  V30 3798 H 347.855 -1.45197 -0.525084 0
M  V30 3799 H 349.813 -1.9637 -3.60485 0
M  V30 3800 H 348.474 -0.972518 -2.98665 0
M  V30 3801 H 347.667 -3.16046 -3.92595 0
M  V30 3802 H 347.269 -3.02642 -2.19736 0
M  V30 3803 H 349.561 -4.66643 -4.91173 0
M  V30 3804 H 350.504 -5.86411 -3.96898 0
M  V30 3805 H 350.912 -4.12652 -3.85199 0
M  V30 3806 N 350.31 0.590341 -1.46126 0
M  V30 3807 C 351.257 1.69994 -1.56111 0
M  V30 3808 C 352.227 1.61065 -0.405867 0
M  V30 3809 O 353.412 1.8039 -0.621613 0
M  V30 3810 C 350.552 3.08326 -1.55013 0
M  V30 3811 C 349.665 3.27936 -2.81215 0
M  V30 3812 C 348.8 4.56473 -2.71673 0
M  V30 3813 C 347.839 4.694 -3.92849 0
M  V30 3814 N 346.976 5.89254 -3.81738 0
M  V30 3815 H 351.816 1.60797 -2.50895 0
M  V30 3816 H 349.353 0.783799 -1.24479 0
M  V30 3817 H 351.311 3.88383 -1.52362 0
M  V30 3818 H 349.941 3.16439 -0.637667 0
M  V30 3819 H 348.993 2.41536 -2.93879 0
M  V30 3820 H 350.305 3.33357 -3.71045 0
M  V30 3821 H 349.459 5.44748 -2.67085 0
M  V30 3822 H 348.198 4.53477 -1.7947 0
M  V30 3823 H 347.203 3.79544 -3.97777 0
M  V30 3824 H 348.428 4.7418 -4.86138 0
M  V30 3825 H 346.374 5.87271 -2.92317 0
M  V30 3826 H 346.291 5.95911 -4.65217 0
M  V30 3827 H 347.559 6.79981 -3.81112 0
M  V30 3828 N 351.788 1.33704 0.83433 0
M  V30 3829 C 352.721 1.18675 1.94914 0
M  V30 3830 C 353.699 0.0811145 1.62398 0
M  V30 3831 O 354.883 0.244186 1.86912 0
M  V30 3832 C 352.01 0.821231 3.28593 0
M  V30 3833 C 351.056 1.93501 3.80079 0
M  V30 3834 S 351.889 3.54671 4.01209 0
M  V30 3835 C 353.045 3.20136 5.37833 0
M  V30 3836 H 353.278 2.13043 2.07364 0
M  V30 3837 H 350.811 1.18598 0.988624 0
M  V30 3838 H 352.769 0.617123 4.05835 0
M  V30 3839 H 351.43 -0.103927 3.13928 0
M  V30 3840 H 350.623 1.63273 4.76821 0
M  V30 3841 H 350.225 2.09601 3.09747 0
M  V30 3842 H 352.517 2.71242 6.20833 0
M  V30 3843 H 353.46 4.15975 5.73036 0
M  V30 3844 H 353.868 2.56613 5.02802 0
M  V30 3845 N 353.266 -1.05314 1.17247 0
M  V30 3846 C 354.543 -1.75184 0.87005 0
M  V30 3847 C 354.923 -2.01481 -0.629965 0
M  V30 3848 O 354.271 -1.64988 -1.58086 0
M  V30 3849 C 354.481 -3.04594 1.70363 0
M  V30 3850 C 355.829 -3.78567 1.92281 0
M  V30 3851 O 356.853 -3.14461 1.67311 0
M  V30 3852 O 355.712 -4.93755 2.3424 0
M  V30 3853 H 352.806 -0.761729 0.322021 0
M  V30 3854 H 355.352 -1.11493 1.27935 0
M  V30 3855 H 354.124 -2.81201 2.72106 0
M  V30 3856 H 353.747 -3.76022 1.29202 0
M  V30 3857 N 354.744 -0.972509 -1.24016 0
M  V30 3858 C 355.654 -0.5143 -2.28893 0
M  V30 3859 C 356.67 0.427078 -1.68677 0
M  V30 3860 O 357.846 0.298939 -1.99169 0
M  V30 3861 C 354.911 0.183598 -3.46214 0
M  V30 3862 C 353.972 -0.798202 -4.21814 0
M  V30 3863 C 353.205 -0.133514 -5.33533 0
M  V30 3864 O 353.428 1.07714 -5.60137 0
M  V30 3865 O 352.362 -0.828103 -5.96176 0
M  V30 3866 H 356.188 -1.38629 -2.70214 0
M  V30 3867 H 353.773 -0.739769 -1.29799 0
M  V30 3868 H 355.655 0.575433 -4.17453 0
M  V30 3869 H 354.33 1.03048 -3.0686 0
M  V30 3870 H 353.237 -1.24059 -3.52931 0
M  V30 3871 H 354.57 -1.61364 -4.64997 0
M  V30 3872 N 356.222 1.38976 -0.743202 0
M  V30 3873 C 357.45 2.04636 -0.30525 0
M  V30 3874 C 357.865 1.56044 1.06281 0
M  V30 3875 O 357.222 0.728921 1.67311 0
M  V30 3876 C 357.273 3.60193 -0.307177 0
M  V30 3877 O 356.994 4.06998 -1.62124 0
M  V30 3878 C 358.495 4.4306 0.145928 0
M  V30 3879 H 355.715 0.65788 -0.132041 0
M  V30 3880 H 358.259 1.77866 -1.00915 0
M  V30 3881 H 356.414 3.85835 0.347898 0
M  V30 3882 H 356.828 5.01371 -1.54036 0
M  V30 3883 H 358.302 5.51921 0.0934183 0
M  V30 3884 H 358.779 4.22706 1.19231 0
M  V30 3885 H 359.385 4.22584 -0.479886 0
M  V30 3886 N 357.7 0.491464 1.49741 0
M  V30 3887 C 358.948 -0.0563141 2.02022 0
M  V30 3888 C 359.269 -1.38363 1.37407 0
M  V30 3889 O 358.539 -1.88702 0.526166 0
M  V30 3890 H 357.119 -0.0238014 0.746621 0
M  V30 3891 H 359.781 0.646533 1.83864 0
M  V30 3892 H 358.877 -0.192967 3.11503 0
M  V30 3893 N 359.178 -1.55987 0.224894 0
M  V30 3894 C 360.111 -2.16413 -0.723929 0
M  V30 3895 C 361.089 -1.10952 -1.18863 0
M  V30 3896 O 362.273 -1.39225 -1.27077 0
M  V30 3897 C 359.4 -2.74711 -1.98121 0
M  V30 3898 C 358.446 -3.9303 -1.6562 0
M  V30 3899 S 359.279 -5.29817 -0.778058 0
M  V30 3900 C 360.435 -5.91555 -2.04483 0
M  V30 3901 H 360.668 -2.96555 -0.210347 0
M  V30 3902 H 358.201 -1.54397 0.00955457 0
M  V30 3903 H 360.159 -3.08938 -2.70311 0
M  V30 3904 H 358.82 -1.94555 -2.46591 0
M  V30 3905 H 358.013 -4.32334 -2.59043 0
M  V30 3906 H 357.615 -3.59966 -1.01491 0
M  V30 3907 H 359.907 -6.07732 -2.99446 0
M  V30 3908 H 360.85 -6.87498 -1.69563 0
M  V30 3909 H 361.258 -5.20419 -2.18688 0
M  V30 3910 N 360.656 0.0484629 -1.57525 0
M  V30 3911 C 361.902 0.744226 -1.88651 0
M  V30 3912 C 362.235 1.76029 -0.820212 0
M  V30 3913 O 361.51 1.93782 0.166985 0
M  V30 3914 C 361.793 1.43128 -3.30434 0
M  V30 3915 C 361.646 0.43005 -4.47739 0
M  V30 3916 C 362.965 2.37031 -3.70816 0
M  V30 3917 H 360.084 0.269089 -0.68612 0
M  V30 3918 H 362.726 0.00713532 -1.89999 0
M  V30 3919 H 360.876 2.05956 -3.29415 0
M  V30 3920 H 362.548 -0.194816 -4.60888 0
M  V30 3921 H 360.791 -0.252522 -4.33064 0
M  V30 3922 H 361.462 0.948874 -5.43783 0
M  V30 3923 H 363.938 1.84263 -3.73077 0
M  V30 3924 H 362.814 2.82094 -4.70865 0
M  V30 3925 H 363.075 3.22864 -3.02012 0
M  V30 3926 N 362.134 1.5431 0.320358 0
M  V30 3927 C 363.084 1.803 1.39556 0
M  V30 3928 C 364.068 0.659166 1.46778 0
M  V30 3929 O 365.26 0.91926 1.51257 0
M  V30 3930 C 362.389 2.03665 2.76361 0
M  V30 3931 C 361.475 3.24178 2.73439 0
M  V30 3932 N 361.866 4.4516 2.40137 0
M  V30 3933 C 360.164 3.25816 3.04565 0
M  V30 3934 C 360.865 5.27109 2.4603 0
M  V30 3935 N 359.841 4.64368 2.82601 0
M  V30 3936 H 363.643 2.71416 1.12742 0
M  V30 3937 H 361.157 1.53548 0.528856 0
M  V30 3938 H 363.154 2.20425 3.53862 0
M  V30 3939 H 361.814 1.13805 3.04103 0
M  V30 3940 H 362.825 4.72104 2.12927 0
M  V30 3941 H 359.502 2.46001 3.37328 0
M  V30 3942 H 360.892 6.33728 2.23246 0
M  V30 3943 N 363.613 -0.582584 1.46437 0
M  V30 3944 C 364.853 -1.35184 1.53312 0
M  V30 3945 C 365.217 -1.9115 0.180508 0
M  V30 3946 O 366.418 -2.68514 0.124017 0
M  V30 3947 C 364.689 -2.45089 2.60127 0
M  V30 3948 S 366.248 -3.32439 2.86408 0
M  V30 3949 H 363.066 -0.460559 0.54167 0
M  V30 3950 H 365.668 -0.669709 1.83671 0
M  V30 3951 H 364.372 -2.02366 3.57038 0
M  V30 3952 H 363.903 -3.18074 2.315 0
M  V30 3953 H 365.918 -4.43924 2.21688 0
M  V30 3954 N 365.091 -1.34144 -0.827227 0
M  V30 3955 C 366.368 -1.16844 -1.56865 0
M  V30 3956 C 366.748 0.260654 -2.09485 0
M  V30 3957 O 366.096 1.26138 -1.9053 0
M  V30 3958 C 366.306 -2.21939 -2.6934 0
M  V30 3959 C 367.654 -2.56695 -3.3822 0
M  V30 3960 O 368.678 -2.20695 -2.79593 0
M  V30 3961 O 367.537 -3.18518 -4.44082 0
M  V30 3962 H 364.631 -0.452669 -0.692112 0
M  V30 3963 H 367.177 -1.45763 -0.868973 0
M  V30 3964 H 365.949 -3.17882 -2.28182 0
M  V30 3965 H 365.572 -1.94172 -3.46962 0
M  V30 3966 N 366.569 1.04691 -1.17803 0
M  V30 3967 C 367.797 1.81446 -0.99423 0
M  V30 3968 C 368.212 1.83174 0.457459 0
M  V30 3969 O 367.569 1.26265 1.31771 0
M  V30 3970 C 367.62 3.27334 -1.5341 0
M  V30 3971 O 367.341 3.25798 -2.92895 0
M  V30 3972 C 368.842 4.20759 -1.39559 0
M  V30 3973 H 366.062 0.571599 -0.351447 0
M  V30 3974 H 368.606 1.31982 -1.56208 0
M  V30 3975 H 366.761 3.74052 -1.00815 0
M  V30 3976 H 367.175 4.17144 -3.17949 0
M  V30 3977 H 368.649 5.21084 -1.82141 0
M  V30 3978 H 369.126 4.37856 -0.343394 0
M  V30 3979 H 369.732 3.79901 -1.91195 0
M  V30 3980 N 368.047 0.979072 1.23499 0
M  V30 3981 C 369.01 0.523244 2.23147 0
M  V30 3982 C 370.01 -0.386406 1.56088 0
M  V30 3983 O 371.2 -0.180283 1.73265 0
M  V30 3984 C 368.332 -0.240739 3.40049 0
M  V30 3985 H 369.525 1.40432 2.64989 0
M  V30 3986 H 367.078 0.764824 1.36309 0
M  V30 3987 H 367.813 -1.13841 3.03662 0
M  V30 3988 H 367.598 0.412207 3.89927 0
M  V30 3989 H 369.088 -0.548297 4.13985 0
M  V30 3990 N 369.525 -1.3858 0.750561 0
M  V30 3991 C 370.771 -2.00481 0.305825 0
M  V30 3992 C 371.104 -1.5944 -1.10872 0
M  V30 3993 O 370.379 -0.83052 -1.75877 0
M  V30 3994 C 370.662 -3.5758 0.425287 0
M  V30 3995 C 370.515 -4.08594 1.88072 0
M  V30 3996 C 371.834 -4.39719 -0.183122 0
M  V30 3997 H 368.953 -0.728348 0.112598 0
M  V30 3998 H 371.595 -1.64566 0.949638 0
M  V30 3999 H 369.745 -3.88306 -0.122828 0
M  V30 4000 H 371.417 -3.88523 2.48691 0
M  V30 4001 H 369.66 -3.61574 2.39681 0
M  V30 4002 H 370.331 -5.177 1.91548 0
M  V30 4003 H 372.807 -4.15128 0.284303 0
M  V30 4004 H 371.683 -5.48856 -0.0692757 0
M  V30 4005 H 371.944 -4.23434 -1.27106 0
M  V30 4006 N 371.003 -0.499398 -1.49478 0
M  V30 4007 C 372.251 0.0455996 -2.02049 0
M  V30 4008 C 372.572 1.37633 -1.38138 0
M  V30 4009 O 371.842 1.8842 -0.536166 0
M  V30 4010 H 370.422 0.0198416 -0.746736 0
M  V30 4011 H 373.084 -0.656274 -1.83519 0
M  V30 4012 H 372.18 0.176445 -3.11601 0
M  V30 4013 N 372.481 1.55866 -0.233164 0
M  V30 4014 C 373.709 2.02998 0.399905 0
M  V30 4015 C 374.124 1.11274 1.52524 0
M  V30 4016 O 373.481 0.124528 1.82075 0
M  V30 4017 C 373.532 3.4958 0.920639 0
M  V30 4018 O 373.253 4.37808 -0.159834 0
M  V30 4019 C 374.754 4.12411 1.62578 0
M  V30 4020 H 371.974 0.664006 0.0966281 0
M  V30 4021 H 374.518 2.0143 -0.353013 0
M  V30 4022 H 372.673 3.51727 1.62379 0
M  V30 4023 H 373.087 5.23981 0.23337 0
M  V30 4024 H 374.561 5.16711 1.94201 0
M  V30 4025 H 375.038 3.5809 2.54299 0
M  V30 4026 H 375.644 4.14148 0.967553 0
M  V30 4027 N 373.959 -0.0401083 1.57549 0
M  V30 4028 C 375.37 -0.588097 1.77196 0
M  V30 4029 C 375.721 -1.76209 0.862832 0
M  V30 4030 O 374.846 -2.16331 0.0548389 0
M  V30 4031 C 375.441 -1.07363 3.21339 0
M  V30 4032 C 374 -1.56723 3.42221 0
M  V30 4033 C 373.147 -0.50041 2.72747 0
M  V30 4034 H 376.098 0.186119 1.57605 0
M  V30 4035 H 376.119 -1.94143 3.27244 0
M  V30 4036 H 375.631 -0.218975 3.87482 0
M  V30 4037 H 373.732 -2.4441 2.81237 0
M  V30 4038 H 373.845 -1.62234 4.50796 0
M  V30 4039 H 372.209 -0.952894 2.36203 0
M  V30 4040 H 372.992 0.344599 3.41566 0
M  V30 4041 N 375.437 -1.54477 -0.31217 0
M  V30 4042 C 376.714 -1.63891 -1.06767 0
M  V30 4043 C 377.094 -0.480028 -2.0557 0
M  V30 4044 O 376.442 0.524487 -2.22399 0
M  V30 4045 C 376.652 -3.01402 -1.75948 0
M  V30 4046 C 378 -3.57838 -2.28554 0
M  V30 4047 O 379.024 -3.03782 -1.85998 0
M  V30 4048 O 377.883 -4.52462 -3.06497 0
M  V30 4049 H 374.977 -0.664125 -0.492816 0
M  V30 4050 H 377.523 -1.66823 -0.311149 0
M  V30 4051 H 376.295 -3.77187 -1.04144 0
M  V30 4052 H 375.918 -3.02199 -2.58383 0
M  V30 4053 N 376.915 0.57481 -1.46744 0
M  V30 4054 C 378.145 1.35659 -1.55821 0
M  V30 4055 C 378.553 1.88129 -0.201036 0
M  V30 4056 O 377.896 1.64723 0.813134 0
M  V30 4057 C 377.958 2.57473 -2.50894 0
M  V30 4058 C 377.622 2.26415 -3.9697 0
M  V30 4059 C 378.619 1.84771 -4.85958 0
M  V30 4060 C 376.304 2.38316 -4.42166 0
M  V30 4061 C 378.298 1.55434 -6.18158 0
M  V30 4062 C 375.985 2.08591 -5.74398 0
M  V30 4063 C 376.983 1.67216 -6.62214 0
M  V30 4064 O 376.671 1.37859 -7.91991 0
M  V30 4065 H 376.403 0.420496 -0.529301 0
M  V30 4066 H 378.957 0.704967 -1.92923 0
M  V30 4067 H 377.187 3.25468 -2.08824 0
M  V30 4068 H 378.876 3.19546 -2.50291 0
M  V30 4069 H 379.642 1.75085 -4.52295 0
M  V30 4070 H 375.521 2.69483 -3.74032 0
M  V30 4071 H 379.065 1.23065 -6.86659 0
M  V30 4072 H 374.962 2.17905 -6.07608 0
M  V30 4073 H 375.73 1.51638 -8.04331 0
M  V30 4074 N 378.394 1.34581 0.820102 0
M  V30 4075 C 379.643 1.26437 1.57151 0
M  V30 4076 C 379.956 -0.163111 1.94919 0
M  V30 4077 O 381.162 -0.366722 2.69012 0
M  V30 4078 C 379.618 2.21658 2.83541 0
M  V30 4079 C 379.226 3.69679 2.53065 0
M  V30 4080 C 380.97 2.22428 3.61561 0
M  V30 4081 C 378.877 4.56761 3.75664 0
M  V30 4082 H 377.807 0.469707 0.589823 0
M  V30 4083 H 380.458 1.59763 0.902656 0
M  V30 4084 H 378.84 1.81287 3.52067 0
M  V30 4085 H 380.014 4.18605 1.92631 0
M  V30 4086 H 378.329 3.71384 1.88316 0
M  V30 4087 H 380.926 2.8471 4.52597 0
M  V30 4088 H 381.269 1.22434 3.97889 0
M  V30 4089 H 381.802 2.61259 2.99981 0
M  V30 4090 H 378.541 5.57702 3.44454 0
M  V30 4091 H 378.061 4.12568 4.35371 0
M  V30 4092 H 379.74 4.71509 4.43044 0
M  V30 4093 N 379.872 -1.04064 1.18357 0
M  V30 4094 C 381.097 -1.81454 1.00445 0
M  V30 4095 C 381.522 -1.82823 -0.442423 0
M  V30 4096 O 380.88 -1.24555 -1.31741 0
M  V30 4097 C 380.928 -3.24925 1.56384 0
M  V30 4098 O 380.032 -4.04856 0.785209 0
M  V30 4099 H 379.373 -0.560604 0.355835 0
M  V30 4100 H 381.903 -1.31059 1.57114 0
M  V30 4101 H 381.913 -3.75702 1.59097 0
M  V30 4102 H 380.588 -3.23244 2.61699 0
M  V30 4103 H 379.165 -3.63537 0.830399 0
M  V30 4104 N 381.35 -0.985608 -1.22978 0
M  V30 4105 C 382.761 -0.693593 -1.73338 0
M  V30 4106 C 383.112 0.789935 -1.79595 0
M  V30 4107 O 382.237 1.61771 -1.43733 0
M  V30 4108 C 382.832 -1.25235 -3.14804 0
M  V30 4109 C 381.391 -1.00987 -3.626 0
M  V30 4110 C 380.538 -1.37695 -2.40698 0
M  V30 4111 H 383.489 -1.15884 -1.08428 0
M  V30 4112 H 383.51 -0.627329 -3.75293 0
M  V30 4113 H 383.022 -2.33209 -3.10218 0
M  V30 4114 H 381.123 0.0535565 -3.72562 0
M  V30 4115 H 381.236 -1.66812 -4.49122 0
M  V30 4116 H 379.6 -0.795459 -2.4196 0
M  V30 4117 H 380.383 -2.46657 -2.38779 0
M  V30 4118 N 382.828 1.3818 -0.7579 0
M  V30 4119 C 383.738 2.3421 -0.135247 0
M  V30 4120 C 384.754 1.59487 0.695683 0
M  V30 4121 O 385.93 1.91657 0.618832 0
M  V30 4122 C 382.995 3.3862 0.744139 0
M  V30 4123 C 382.056 4.2918 -0.101658 0
M  V30 4124 C 381.289 5.28603 0.735851 0
M  V30 4125 O 381.512 5.35166 1.97366 0
M  V30 4126 O 380.446 6.01707 0.152372 0
M  V30 4127 H 384.272 2.8916 -0.928436 0
M  V30 4128 H 381.857 1.40101 -0.518855 0
M  V30 4129 H 383.739 4.02539 1.2466 0
M  V30 4130 H 382.414 2.86019 1.51575 0
M  V30 4131 H 381.321 3.68407 -0.650167 0
M  V30 4132 H 382.654 4.85048 -0.836024 0
M  V30 4133 N 384.306 0.507319 1.49211 0
M  V30 4134 C 385.552 -0.0350047 2.0277 0
M  V30 4135 C 385.885 -1.3606 1.38569 0
M  V30 4136 O 385.16 -1.87321 0.523542 0
M  V30 4137 C 385.443 -0.180916 3.59645 0
M  V30 4138 C 385.296 1.16825 4.34364 0
M  V30 4139 C 386.615 -0.918558 4.30407 0
M  V30 4140 H 383.734 -0.0112473 0.736914 0
M  V30 4141 H 386.376 0.659956 1.7817 0
M  V30 4142 H 384.526 -0.772826 3.80736 0
M  V30 4143 H 386.198 1.79952 4.24753 0
M  V30 4144 H 384.441 1.75594 3.96673 0
M  V30 4145 H 385.112 1.01939 5.42506 0
M  V30 4146 H 387.588 -0.41649 4.1401 0
M  V30 4147 H 386.464 -0.989505 5.39907 0
M  V30 4148 H 386.725 -1.96373 3.96093 0
M  V30 4149 N 385.784 -1.5574 0.241426 0
M  V30 4150 C 386.714 -2.24133 -0.654722 0
M  V30 4151 C 387.695 -1.21974 -1.1856 0
M  V30 4152 O 388.88 -1.50612 -1.22595 0
M  V30 4153 C 386.01 -2.93659 -1.85423 0
M  V30 4154 C 384.964 -4.0246 -1.45636 0
M  V30 4155 C 384.29 -4.59383 -2.73626 0
M  V30 4156 C 385.59 -5.18468 -0.631506 0
M  V30 4157 H 387.284 -2.99281 -0.0844353 0
M  V30 4158 H 384.83 -1.43947 -0.0391707 0
M  V30 4159 H 386.783 -3.40203 -2.48676 0
M  V30 4160 H 385.507 -2.15991 -2.44981 0
M  V30 4161 H 384.166 -3.56676 -0.847202 0
M  V30 4162 H 383.814 -3.78422 -3.3137 0
M  V30 4163 H 383.514 -5.32826 -2.4773 0
M  V30 4164 H 385.038 -5.08658 -3.37786 0
M  V30 4165 H 386.452 -5.61272 -1.1682 0
M  V30 4166 H 384.849 -5.98266 -0.468831 0
M  V30 4167 H 385.919 -4.8358 0.357506 0
M  V30 4168 N 387.262 0.0317525 -1.57568 0
M  V30 4169 C 388.209 1.0332 -2.06382 0
M  V30 4170 C 389.179 1.36082 -0.952414 0
M  V30 4171 O 390.364 1.46466 -1.2228 0
M  V30 4172 C 387.504 2.32989 -2.54578 0
M  V30 4173 C 386.617 2.0641 -3.79498 0
M  V30 4174 C 385.752 3.2993 -4.16317 0
M  V30 4175 C 384.791 2.98893 -5.34162 0
M  V30 4176 N 383.928 4.14857 -5.66426 0
M  V30 4177 H 388.768 0.609982 -2.9169 0
M  V30 4178 H 386.305 0.289573 -1.44222 0
M  V30 4179 H 388.263 3.0875 -2.80587 0
M  V30 4180 H 386.893 2.73039 -1.7219 0
M  V30 4181 H 385.945 1.21158 -3.6059 0
M  V30 4182 H 387.257 1.79513 -4.65378 0
M  V30 4183 H 386.411 4.1406 -4.4344 0
M  V30 4184 H 385.15 3.59938 -3.29083 0
M  V30 4185 H 384.155 2.13164 -5.06795 0
M  V30 4186 H 385.38 2.70165 -6.23047 0
M  V30 4187 H 383.326 4.44821 -4.82151 0
M  V30 4188 H 383.243 3.91374 -6.4681 0
M  V30 4189 H 384.511 4.99868 -5.98124 0
M  V30 4190 N 388.74 1.54641 0.303973 0
M  V30 4191 C 389.965 1.78092 1.06292 0
M  V30 4192 C 390.39 0.537342 1.80262 0
M  V30 4193 O 389.748 -0.511993 1.7392 0
M  V30 4194 C 389.796 2.98612 2.02147 0
M  V30 4195 O 388.9 2.71528 3.10397 0
M  V30 4196 H 388.241 0.589548 0.305497 0
M  V30 4197 H 390.771 2.01716 0.3423 0
M  V30 4198 H 390.781 3.265 2.44667 0
M  V30 4199 H 389.456 3.88785 1.47714 0
M  V30 4200 H 388.033 2.54648 2.72413 0
M  V30 4201 N 390.218 -0.567019 1.47046 0
M  V30 4202 C 391.15 -1.68985 1.54844 0
M  V30 4203 C 392.163 -1.56869 0.435431 0
M  V30 4204 O 393.352 -1.64006 0.70457 0
M  V30 4205 C 390.452 -3.07373 1.42742 0
M  V30 4206 C 389.625 -3.45339 2.6844 0
M  V30 4207 C 388.684 -4.62849 2.50314 0
M  V30 4208 O 387.71 -4.67922 3.24095 0
M  V30 4209 N 388.912 -5.58726 1.57499 0
M  V30 4210 H 391.677 -1.62745 2.51663 0
M  V30 4211 H 389.238 -0.753411 1.43302 0
M  V30 4212 H 391.23 -3.83803 1.28365 0
M  V30 4213 H 389.8 -3.07893 0.540445 0
M  V30 4214 H 389.02 -2.58455 2.97648 0
M  V30 4215 H 390.308 -3.67476 3.51907 0
M  V30 4216 H 389.706 -5.57376 0.966876 0
M  V30 4217 H 388.263 -6.34523 1.49078 0
M  V30 4218 N 391.696 -1.35014 -0.812953 0
M  V30 4219 C 392.944 -1.27678 -1.56661 0
M  V30 4220 C 393.265 0.150359 -1.94419 0
M  V30 4221 O 392.535 1.08532 -1.63088 0
M  V30 4222 H 391.115 -0.469602 -0.580933 0
M  V30 4223 H 393.777 -1.69043 -0.970076 0
M  V30 4224 H 392.873 -1.88833 -2.48492 0
M  V30 4225 N 393.175 1.03435 -1.18907 0
M  V30 4226 C 394.423 1.76394 -0.986382 0
M  V30 4227 C 394.744 1.88883 0.484567 0
M  V30 4228 O 394.014 1.41843 1.3512 0
M  V30 4229 H 392.594 0.65344 -0.361975 0
M  V30 4230 H 395.256 1.248 -1.49703 0
M  V30 4231 H 394.352 2.77424 -1.42978 0
M  V30 4232 N 394.653 0.992116 1.22453 0
M  V30 4233 C 395.93 0.583508 1.86694 0
M  V30 4234 C 396.31 -0.9392 1.89056 0
M  V30 4235 O 395.658 -1.82081 1.38053 0
M  V30 4236 C 395.868 1.20304 3.2761 0
M  V30 4237 C 397.216 1.30308 4.0411 0
M  V30 4238 O 398.24 1.15737 3.36873 0
M  V30 4239 O 397.099 1.53615 5.24466 0
M  V30 4240 H 394.193 0.198129 0.802916 0
M  V30 4241 H 396.739 1.08794 1.30238 0
M  V30 4242 H 395.511 2.24461 3.2052 0
M  V30 4243 H 395.134 0.684144 3.9167 0
M  V30 4244 N 396.131 -1.37776 0.765217 0
M  V30 4245 C 397.379 -1.99454 0.325943 0
M  V30 4246 C 397.7 -1.61049 -1.09947 0
M  V30 4247 O 396.97 -0.872821 -1.75381 0
M  V30 4248 H 395.55 -0.737697 0.117525 0
M  V30 4249 H 398.212 -1.68359 0.981895 0
M  V30 4250 H 397.308 -3.09547 0.398353 0
M  V30 4251 N 397.609 -0.515225 -1.4894 0
M  V30 4252 C 398.856 0.024215 -2.02486 0
M  V30 4253 C 399.184 1.35671 -1.39368 0
M  V30 4254 O 398.439 1.88566 -0.523574 0
M  V30 4255 C 398.738 0.210595 -3.56779 0
M  V30 4256 C 398.404 -1.04569 -4.38607 0
M  V30 4257 C 397.066 -1.39002 -4.60686 0
M  V30 4258 C 399.418 -1.88008 -4.86109 0
M  V30 4259 C 396.746 -2.568 -5.27514 0
M  V30 4260 C 399.098 -3.04972 -5.54234 0
M  V30 4261 C 397.762 -3.39768 -5.74555 0
M  V30 4262 H 397.032 0.00886088 -0.740947 0
M  V30 4263 H 399.679 -0.678263 -1.79086 0
M  V30 4264 H 397.984 0.99572 -3.78936 0
M  V30 4265 H 399.681 0.642659 -3.95817 0
M  V30 4266 H 396.271 -0.767497 -4.21672 0
M  V30 4267 H 400.455 -1.62719 -4.68867 0
M  V30 4268 H 395.711 -2.8398 -5.41447 0
M  V30 4269 H 399.885 -3.69943 -5.90013 0
M  V30 4270 H 397.512 -4.31148 -6.26112 0
M  V30 4271 N 399.087 1.5561 -0.249682 0
M  V30 4272 C 400.317 2.03116 0.377803 0
M  V30 4273 C 400.725 1.12822 1.51881 0
M  V30 4274 O 400.068 0.13562 1.83199 0
M  V30 4275 C 400.13 3.46866 0.944693 0
M  V30 4276 C 399.794 4.56955 -0.0644259 0
M  V30 4277 C 400.791 5.12485 -0.874957 0
M  V30 4278 C 398.476 5.01936 -0.19132 0
M  V30 4279 C 400.47 6.11491 -1.79881 0
M  V30 4280 C 398.157 6.00773 -1.11868 0
M  V30 4281 C 399.155 6.5543 -1.92095 0
M  V30 4282 O 398.843 7.5234 -2.83267 0
M  V30 4283 H 398.575 0.669489 0.0935961 0
M  V30 4284 H 401.129 2.02004 -0.371966 0
M  V30 4285 H 399.359 3.45136 1.74407 0
M  V30 4286 H 401.048 3.77856 1.48255 0
M  V30 4287 H 401.814 4.78564 -0.787523 0
M  V30 4288 H 397.693 4.59055 0.423072 0
M  V30 4289 H 401.237 6.54078 -2.42543 0
M  V30 4290 H 397.134 6.34114 -1.20703 0
M  V30 4291 H 397.902 7.69966 -2.7766 0
M  V30 4292 N 400.565 -0.0233959 1.57583 0
M  V30 4293 C 401.813 -0.711654 1.89156 0
M  V30 4294 C 402.134 -1.75591 0.848096 0
M  V30 4295 O 401.404 -1.95547 -0.117566 0
M  V30 4296 H 399.984 -0.265835 0.698098 0
M  V30 4297 H 402.646 0.0119948 1.94896 0
M  V30 4298 H 401.742 -1.19766 2.88206 0
M  V30 4299 N 402.043 -1.548 -0.295768 0
M  V30 4300 C 403.459 -1.4613 -0.641722 0
M  V30 4301 C 403.659 -0.656771 -1.90496 0
M  V30 4302 O 402.715 -0.166547 -2.5195 0
M  V30 4303 C 404.028 -2.90141 -0.789852 0
M  V30 4304 C 405.576 -3.00216 -0.885396 0
M  V30 4305 C 406.051 -4.45434 -1.06548 0
M  V30 4306 N 407.542 -4.49166 -1.13156 0
M  V30 4307 C 408.277 -5.58717 -1.28929 0
M  V30 4308 N 407.773 -6.78182 -1.41567 0
M  V30 4309 N 409.566 -5.46415 -1.31859 0
M  V30 4310 H 401.717 -2.05574 0.534147 0
M  V30 4311 H 403.98 -0.931259 0.177372 0
M  V30 4312 H 403.686 -3.51635 0.0675598 0
M  V30 4313 H 403.56 -3.37859 -1.67724 0
M  V30 4314 H 405.947 -2.38833 -1.73329 0
M  V30 4315 H 406.028 -2.55787 0.0261185 0
M  V30 4316 H 405.672 -5.07413 -0.222335 0
M  V30 4317 H 405.602 -4.87499 -1.9913 0
M  V30 4318 H 408.093 -3.631 -1.04721 0
M  V30 4319 H 408.406 -7.57428 -1.53372 0
M  V30 4320 H 406.751 -6.81037 -1.38613 0
M  V30 4321 H 409.942 -4.5203 -1.21601 0
M  V30 4322 H 410.115 -6.31841 -1.43808 0
M  V30 4323 N 403.521 0.559213 -1.47345 0
M  V30 4324 C 404.431 1.69388 -1.62311 0
M  V30 4325 C 405.447 1.6648 -0.505993 0
M  V30 4326 O 406.623 1.85964 -0.773262 0
M  V30 4327 C 403.688 3.05894 -1.63185 0
M  V30 4328 C 402.749 3.19885 -2.86307 0
M  V30 4329 C 401.982 4.49879 -2.87131 0
M  V30 4330 O 402.205 5.35217 -1.97229 0
M  V30 4331 O 401.139 4.67618 -3.78968 0
M  V30 4332 H 404.965 1.59706 -2.58317 0
M  V30 4333 H 402.55 0.728989 -1.30407 0
M  V30 4334 H 404.432 3.87133 -1.66451 0
M  V30 4335 H 403.107 3.15964 -0.70345 0
M  V30 4336 H 402.014 2.38052 -2.88587 0
M  V30 4337 H 403.347 3.14718 -3.78435 0
M  V30 4338 N 404.999 1.35443 0.805782 0
M  V30 4339 C 406.239 1.30127 1.57627 0
M  V30 4340 C 406.603 -0.122567 1.91608 0
M  V30 4341 O 407.804 -0.300107 2.67119 0
M  V30 4342 C 406.075 2.18314 2.82973 0
M  V30 4343 S 407.634 2.30521 3.7337 0
M  V30 4344 H 404.452 0.462439 0.540066 0
M  V30 4345 H 407.054 1.70843 0.95042 0
M  V30 4346 H 405.758 3.20741 2.56034 0
M  V30 4347 H 405.289 1.78558 3.50543 0
M  V30 4348 H 407.304 1.49062 4.73281 0
M  V30 4349 N 406.477 -1.02803 1.19454 0
M  V30 4350 C 407.754 -1.73299 0.907013 0
M  V30 4351 C 408.134 -2.02772 -0.587086 0
M  V30 4352 O 407.482 -1.68304 -1.54551 0
M  V30 4353 C 407.692 -3.00912 1.76785 0
M  V30 4354 C 409.04 -3.74403 2.00268 0
M  V30 4355 O 410.064 -3.10841 1.73943 0
M  V30 4356 O 408.923 -4.88675 2.4466 0
M  V30 4357 H 406.017 -0.754727 0.338106 0
M  V30 4358 H 408.563 -1.08754 1.30271 0
M  V30 4359 H 407.335 -2.75366 2.7801 0
M  V30 4360 H 406.958 -3.73197 1.37149 0
M  V30 4361 N 407.956 -0.998596 -1.21925 0
M  V30 4362 C 409.202 -0.688337 -1.91399 0
M  V30 4363 C 409.557 0.771805 -1.76241 0
M  V30 4364 O 408.85 1.55153 -1.1242 0
M  V30 4365 C 409.044 -1.03648 -3.42041 0
M  V30 4366 C 408.873 -2.52892 -3.71855 0
M  V30 4367 C 407.643 -3.19389 -3.91559 0
M  V30 4368 C 409.841 -3.5103 -3.75875 0
M  V30 4369 N 407.823 -4.5805 -4.08734 0
M  V30 4370 C 409.194 -4.75174 -3.98259 0
M  V30 4371 C 411.249 -3.45257 -3.58751 0
M  V30 4372 C 409.952 -5.94247 -4.05294 0
M  V30 4373 C 411.978 -4.63712 -3.67049 0
M  V30 4374 C 411.34 -5.86658 -3.89887 0
M  V30 4375 H 407.439 -0.303251 -0.720807 0
M  V30 4376 H 410.023 -1.27977 -1.46731 0
M  V30 4377 H 408.194 -0.473569 -3.85502 0
M  V30 4378 H 409.926 -0.681619 -3.98919 0
M  V30 4379 H 406.681 -2.69846 -3.89205 0
M  V30 4380 H 407.105 -5.29989 -4.21237 0
M  V30 4381 H 411.747 -2.51215 -3.40075 0
M  V30 4382 H 409.465 -6.88687 -4.22772 0
M  V30 4383 H 413.051 -4.6084 -3.5513 0
M  V30 4384 H 411.931 -6.76786 -3.96144 0
M  V30 4385 N 409.434 1.37368 -0.772513 0
M  V30 4386 C 410.68 2.00423 -0.3467 0
M  V30 4387 C 411.035 1.60224 1.06518 0
M  V30 4388 O 410.328 0.838712 1.72268 0
M  V30 4389 C 410.522 3.54817 -0.428876 0
M  V30 4390 C 410.351 4.10011 -1.84719 0
M  V30 4391 C 409.121 4.40927 -2.46803 0
M  V30 4392 C 411.319 4.30955 -2.80681 0
M  V30 4393 N 409.301 4.8184 -3.80399 0
M  V30 4394 C 410.672 4.74486 -3.99078 0
M  V30 4395 C 412.727 4.1309 -2.77958 0
M  V30 4396 C 411.43 5.02023 -5.15136 0
M  V30 4397 C 413.456 4.41764 -3.9319 0
M  V30 4398 C 412.818 4.85535 -5.10328 0
M  V30 4399 H 408.917 0.762413 -0.173927 0
M  V30 4400 H 411.501 1.66666 -1.00651 0
M  V30 4401 H 409.672 3.87881 0.200757 0
M  V30 4402 H 411.404 4.04696 0.0190668 0
M  V30 4403 H 408.159 4.30033 -1.98415 0
M  V30 4404 H 408.583 5.06604 -4.49089 0
M  V30 4405 H 413.225 3.7842 -1.88568 0
M  V30 4406 H 410.943 5.35582 -6.05126 0
M  V30 4407 H 414.529 4.29528 -3.92425 0
M  V30 4408 H 413.409 5.07296 -5.98013 0
M  V30 4409 N 410.912 0.523116 1.48665 0
M  V30 4410 C 412.137 -0.0117284 2.07397 0
M  V30 4411 C 412.562 -1.28031 1.37803 0
M  V30 4412 O 411.92 -1.75836 0.441762 0
M  V30 4413 C 411.968 -0.225786 3.59892 0
M  V30 4414 O 411.072 -1.29592 3.91509 0
M  V30 4415 H 410.413 0.0360673 0.66302 0
M  V30 4416 H 412.943 0.729066 1.9117 0
M  V30 4417 H 412.953 -0.450552 4.05505 0
M  V30 4418 H 411.628 0.700944 4.09951 0
M  V30 4419 H 410.205 -1.05436 3.57684 0
M  V30 4420 N 412.39 -1.55475 0.257931 0
M  V30 4421 C 413.636 -1.99502 -0.364266 0
M  V30 4422 C 413.969 -1.146 -1.56782 0
M  V30 4423 O 413.244 -0.211968 -1.93342 0
M  V30 4424 C 413.527 -3.51917 -0.763333 0
M  V30 4425 C 413.38 -4.4758 0.446371 0
M  V30 4426 C 414.699 -4.09742 -1.60623 0
M  V30 4427 H 411.818 -0.725277 -0.130929 0
M  V30 4428 H 414.46 -1.8653 0.361446 0
M  V30 4429 H 412.61 -3.63101 -1.38166 0
M  V30 4430 H 414.282 -4.48362 1.08487 0
M  V30 4431 H 412.525 -4.19947 1.08753 0
M  V30 4432 H 413.196 -5.51862 0.123645 0
M  V30 4433 H 415.672 -4.01727 -1.08418 0
M  V30 4434 H 414.548 -5.16631 -1.85429 0
M  V30 4435 H 414.809 -3.58889 -2.58169 0
M  V30 4436 N 413.868 0.0150385 -1.57593 0
M  V30 4437 C 415.116 0.701613 -1.8953 0
M  V30 4438 C 415.437 1.75139 -0.857396 0
M  V30 4439 O 414.707 1.95607 0.107194 0
M  V30 4440 H 413.287 0.26213 -0.699498 0
M  V30 4441 H 415.949 -0.0223304 -1.94887 0
M  V30 4442 H 415.045 1.18236 -2.88837 0
M  V30 4443 N 415.346 1.54954 0.287554 0
M  V30 4444 C 416.592 1.75132 1.02257 0
M  V30 4445 C 416.925 0.542858 1.86458 0
M  V30 4446 O 416.2 -0.459856 1.88986 0
M  V30 4447 C 416.483 3.04812 1.91733 0
M  V30 4448 C 416.336 4.35985 1.10622 0
M  V30 4449 C 417.655 3.30438 2.90687 0
M  V30 4450 H 414.774 0.637194 0.370341 0
M  V30 4451 H 417.416 1.87678 0.296111 0
M  V30 4452 H 415.566 2.94247 2.53675 0
M  V30 4453 H 417.238 4.58487 0.508636 0
M  V30 4454 H 415.481 4.31865 0.409271 0
M  V30 4455 H 416.152 5.23017 1.76513 0
M  V30 4456 H 418.628 3.40701 2.38877 0
M  V30 4457 H 417.504 4.22467 3.50447 0
M  V30 4458 H 417.765 2.49377 3.65053 0
M  V30 4459 N 416.824 -0.551391 1.4764 0
M  V30 4460 C 418.071 -1.3083 1.54563 0
M  V30 4461 C 418.399 -1.93359 0.210361 0
M  V30 4462 O 417.654 -1.78721 -0.797332 0
M  V30 4463 C 417.953 -2.43469 2.61644 0
M  V30 4464 C 417.619 -1.98732 4.04742 0
M  V30 4465 C 416.281 -1.86248 4.43695 0
M  V30 4466 C 418.633 -1.64659 4.94507 0
M  V30 4467 C 415.961 -1.37995 5.70241 0
M  V30 4468 C 418.313 -1.17875 6.21521 0
M  V30 4469 C 416.977 -1.03992 6.5935 0
M  V30 4470 H 416.247 -0.478741 0.565587 0
M  V30 4471 H 418.894 -0.617697 1.81264 0
M  V30 4472 H 417.199 -3.18109 2.28722 0
M  V30 4473 H 418.896 -3.01642 2.64222 0
M  V30 4474 H 415.486 -2.09393 3.73968 0
M  V30 4475 H 419.67 -1.73174 4.65107 0
M  V30 4476 H 414.926 -1.25915 5.98294 0
M  V30 4477 H 419.1 -0.905739 6.90485 0
M  V30 4478 H 416.727 -0.663794 7.57296 0
M  V30 4479 N 418.302 -1.35869 -0.798587 0
M  V30 4480 C 419.232 -1.32118 -1.92528 0
M  V30 4481 C 420.213 -0.194209 -1.68988 0
M  V30 4482 O 421.398 -0.390426 -1.90235 0
M  V30 4483 C 418.528 -1.10047 -3.29404 0
M  V30 4484 C 417.482 -2.19471 -3.67446 0
M  V30 4485 C 416.808 -1.82555 -5.02571 0
M  V30 4486 C 418.108 -3.61495 -3.76987 0
M  V30 4487 H 419.802 -2.26394 -1.95924 0
M  V30 4488 H 417.348 -1.08981 -0.94123 0
M  V30 4489 H 419.301 -1.06061 -4.07835 0
M  V30 4490 H 418.025 -0.122195 -3.26371 0
M  V30 4491 H 416.684 -2.22568 -2.91306 0
M  V30 4492 H 416.332 -0.833249 -4.9605 0
M  V30 4493 H 416.032 -2.5581 -5.28995 0
M  V30 4494 H 417.556 -1.80108 -5.83432 0
M  V30 4495 H 418.97 -3.60676 -4.4563 0
M  V30 4496 H 417.367 -4.33577 -4.14887 0
M  V30 4497 H 418.437 -3.97065 -2.78329 0
M  V30 4498 N 419.78 1.02168 -1.19998 0
M  V30 4499 C 421.01 1.79036 -1.031 0
M  V30 4500 C 421.418 1.84409 0.423078 0
M  V30 4501 O 420.761 1.29228 1.30559 0
M  V30 4502 C 420.823 3.25185 -1.53281 0
M  V30 4503 C 420.487 3.43431 -3.01503 0
M  V30 4504 C 421.484 3.33063 -3.99206 0
M  V30 4505 C 419.169 3.69412 -3.40353 0
M  V30 4506 C 421.163 3.48413 -5.33748 0
M  V30 4507 C 418.85 3.84406 -4.75053 0
M  V30 4508 C 419.848 3.7391 -5.71559 0
M  V30 4509 O 419.536 3.88452 -7.03818 0
M  V30 4510 H 419.268 0.570043 -0.363355 0
M  V30 4511 H 421.822 1.29524 -1.59414 0
M  V30 4512 H 420.052 3.75756 -0.913483 0
M  V30 4513 H 421.741 3.83671 -1.32481 0
M  V30 4514 H 422.507 3.12934 -3.70537 0
M  V30 4515 H 418.386 3.76671 -2.65782 0
M  V30 4516 H 421.93 3.40137 -6.09059 0
M  V30 4517 H 417.827 4.04035 -5.03415 0
M  V30 4518 H 418.595 4.055 -7.10993 0
M  V30 4519 N 421.258 1.00505 1.21394 0
M  V30 4520 C 422.168 0.574806 2.27449 0
M  V30 4521 C 423.184 -0.382206 1.6975 0
M  V30 4522 O 424.36 -0.246027 1.99892 0
M  V30 4523 C 421.425 -0.0917414 3.46579 0
M  V30 4524 C 420.486 0.909758 4.1955 0
M  V30 4525 C 419.719 0.274924 5.32991 0
M  V30 4526 O 419.942 -0.928254 5.62796 0
M  V30 4527 O 418.876 0.985877 5.93771 0
M  V30 4528 H 422.702 1.45744 2.66444 0
M  V30 4529 H 420.287 0.773923 1.27792 0
M  V30 4530 H 422.169 -0.464551 4.18832 0
M  V30 4531 H 420.844 -0.948755 3.09484 0
M  V30 4532 H 419.751 1.33372 3.49518 0
M  V30 4533 H 421.084 1.73636 4.60555 0
M  V30 4534 N 422.737 -1.36956 0.779787 0
M  V30 4535 C 423.67 -2.27896 0.117681 0
M  V30 4536 C 424.648 -1.46736 -0.700523 0
M  V30 4537 O 425.832 -1.76055 -0.673568 0
M  V30 4538 C 422.959 -3.28136 -0.839296 0
M  V30 4539 C 422.005 -4.26373 -0.10409 0
M  V30 4540 S 422.838 -5.2157 1.21348 0
M  V30 4541 C 423.994 -6.25359 0.260249 0
M  V30 4542 H 424.227 -2.83704 0.888778 0
M  V30 4543 H 421.76 -1.43352 0.57355 0
M  V30 4544 H 423.718 -3.86394 -1.38601 0
M  V30 4545 H 422.379 -2.7126 -1.58356 0
M  V30 4546 H 421.572 -4.97121 -0.82986 0
M  V30 4547 H 421.174 -3.72147 0.371858 0
M  V30 4548 H 423.466 -6.75145 -0.564435 0
M  V30 4549 H 424.409 -7.01885 0.936135 0
M  V30 4550 H 424.817 -5.64345 -0.132127 0
M  V30 4551 N 424.215 -0.530993 -1.48385 0
M  V30 4552 C 425.145 0.219985 -2.32461 0
M  V30 4553 C 426.126 0.934111 -1.42156 0
M  V30 4554 O 427.311 0.919694 -1.71042 0
M  V30 4555 C 424.441 1.26674 -3.23375 0
M  V30 4556 C 423.395 0.67069 -4.22712 0
M  V30 4557 C 422.721 1.82017 -5.02766 0
M  V30 4558 C 424.021 -0.358268 -5.2107 0
M  V30 4559 H 425.715 -0.48187 -2.95497 0
M  V30 4560 H 423.261 -0.233182 -1.42099 0
M  V30 4561 H 425.214 1.80006 -3.81019 0
M  V30 4562 H 423.938 1.99818 -2.58341 0
M  V30 4563 H 422.597 0.158878 -3.66256 0
M  V30 4564 H 422.245 2.54002 -4.34157 0
M  V30 4565 H 421.945 1.42727 -5.70003 0
M  V30 4566 H 423.469 2.35725 -5.63264 0
M  V30 4567 H 424.883 0.0880081 -5.73232 0
M  V30 4568 H 423.28 -0.66861 -5.96364 0
M  V30 4569 H 424.35 -1.26367 -4.68145 0
M  V30 4570 N 425.693 1.55336 -0.266172 0
M  V30 4571 C 426.939 1.99692 0.353681 0
M  V30 4572 C 427.272 1.1543 1.56172 0
M  V30 4573 O 426.547 0.222218 1.93226 0
M  V30 4574 C 426.83 3.52316 0.74466 0
M  V30 4575 C 426.683 4.47337 -0.470101 0
M  V30 4576 C 428.002 4.10588 1.58447 0
M  V30 4577 H 425.121 0.725961 0.12708 0
M  V30 4578 H 427.763 1.86336 -0.371333 0
M  V30 4579 H 425.913 3.63829 1.36239 0
M  V30 4580 H 427.585 4.4778 -1.10864 0
M  V30 4581 H 425.828 4.19364 -1.10978 0
M  V30 4582 H 426.499 5.51788 -0.15291 0
M  V30 4583 H 428.975 4.02297 1.06286 0
M  V30 4584 H 427.851 5.17607 1.82686 0
M  V30 4585 H 428.112 3.60253 2.56262 0
M  V30 4586 N 427.171 -0.0066808 1.57599 0
M  V30 4587 C 428.419 -0.691552 1.899 0
M  V30 4588 C 428.74 -1.74682 0.866672 0
M  V30 4589 O 428.01 -1.95661 -0.0968189 0
M  V30 4590 H 426.59 -0.258416 0.700878 0
M  V30 4591 H 429.252 0.0326655 1.94873 0
M  V30 4592 H 428.348 -1.16702 2.8946 0
M  V30 4593 N 428.649 -1.55105 -0.279332 0
M  V30 4594 C 429.926 -1.66119 -1.03267 0
M  V30 4595 C 430.306 -0.523525 -2.04505 0
M  V30 4596 O 429.654 0.477194 -2.23462 0
M  V30 4597 C 429.864 -3.05067 -1.69515 0
M  V30 4598 C 431.212 -3.62606 -2.20912 0
M  V30 4599 O 432.236 -3.07659 -1.79512 0
M  V30 4600 O 431.095 -4.58861 -2.96831 0
M  V30 4601 H 428.189 -0.674429 -0.478618 0
M  V30 4602 H 430.735 -1.67446 -0.275694 0
M  V30 4603 H 429.507 -3.79311 -0.9612 0
M  V30 4604 H 429.13 -3.07611 -2.51915 0
M  V30 4605 N 430.127 0.543554 -1.4793 0
M  V30 4606 C 431.355 1.32516 -1.58894 0
M  V30 4607 C 431.77 1.87215 -0.244131 0
M  V30 4608 O 431.127 1.65709 0.764652 0
M  V30 4609 C 431.178 2.48554 -2.62494 0
M  V30 4610 O 430.899 1.96112 -3.91755 0
M  V30 4611 C 432.4 3.40572 -2.8377 0
M  V30 4612 H 429.62 0.403472 -0.536145 0
M  V30 4613 H 432.164 0.657106 -1.93655 0
M  V30 4614 H 430.319 3.1127 -2.30629 0
M  V30 4615 H 430.733 2.71967 -4.4848 0
M  V30 4616 H 432.207 4.18375 -3.60093 0
M  V30 4617 H 432.684 3.94965 -1.92092 0
M  V30 4618 H 433.29 2.8366 -3.16887 0
M  V30 4619 N 431.605 1.3629 0.791371 0
M  V30 4620 C 433.016 1.27225 1.36641 0
M  V30 4621 C 433.367 -0.0887968 1.95999 0
M  V30 4622 O 432.492 -0.990207 1.92416 0
M  V30 4623 C 433.087 2.30375 2.48421 0
M  V30 4624 C 431.646 2.25004 3.01746 0
M  V30 4625 C 430.793 2.15259 1.7481 0
M  V30 4626 H 433.744 1.47198 0.593173 0
M  V30 4627 H 433.765 1.93905 3.27385 0
M  V30 4628 H 433.277 3.29422 2.05189 0
M  V30 4629 H 431.378 1.29417 3.49403 0
M  V30 4630 H 431.491 3.1761 3.58693 0
M  V30 4631 H 429.855 1.61482 1.96966 0
M  V30 4632 H 430.638 3.16191 1.33709 0
M  V30 4633 N 433.083 -1.0153 1.20538 0
M  V30 4634 C 434.33 -1.75149 1.01633 0
M  V30 4635 C 434.658 -1.89189 -0.451399 0
M  V30 4636 O 433.913 -1.41551 -1.35136 0
M  V30 4637 C 434.212 -3.17213 1.64654 0
M  V30 4638 C 433.878 -3.23146 3.14464 0
M  V30 4639 C 432.54 -3.24472 3.55347 0
M  V30 4640 C 434.892 -3.21207 4.10458 0
M  V30 4641 C 432.22 -3.21532 4.90748 0
M  V30 4642 C 434.572 -3.19808 5.45807 0
M  V30 4643 C 433.236 -3.19439 5.86102 0
M  V30 4644 H 432.506 -0.640914 0.3719 0
M  V30 4645 H 435.153 -1.19071 1.49981 0
M  V30 4646 H 433.458 -3.76457 1.08571 0
M  V30 4647 H 435.155 -3.72871 1.4754 0
M  V30 4648 H 431.745 -3.2285 2.81897 0
M  V30 4649 H 435.929 -3.19351 3.79906 0
M  V30 4650 H 431.185 -3.19578 5.21229 0
M  V30 4651 H 435.359 -3.1726 6.19935 0
M  V30 4652 H 432.986 -3.16915 6.90991 0
M  V30 4653 N 434.561 -1.01147 -1.20859 0
M  V30 4654 C 435.791 -0.715872 -1.93801 0
M  V30 4655 C 436.199 0.726592 -1.74692 0
M  V30 4656 O 435.542 1.50397 -1.05482 0
M  V30 4657 C 435.604 -0.965269 -3.46299 0
M  V30 4658 C 435.268 -2.39584 -3.89164 0
M  V30 4659 C 436.265 -3.3764 -3.95342 0
M  V30 4660 C 433.95 -2.73522 -4.21297 0
M  V30 4661 C 435.944 -4.67698 -4.33056 0
M  V30 4662 C 433.631 -4.03794 -4.58687 0
M  V30 4663 C 434.629 -5.00693 -4.64538 0
M  V30 4664 O 434.317 -6.28635 -5.01072 0
M  V30 4665 H 434.049 -0.262524 -0.622942 0
M  V30 4666 H 436.603 -1.35413 -1.54443 0
M  V30 4667 H 434.833 -0.269847 -3.85757 0
M  V30 4668 H 436.522 -0.662051 -4.00464 0
M  V30 4669 H 437.288 -3.12757 -3.70686 0
M  V30 4670 H 433.167 -1.9879 -4.15937 0
M  V30 4671 H 436.711 -5.4333 -4.37537 0
M  V30 4672 H 432.608 -4.28459 -4.82797 0
M  V30 4673 H 433.376 -6.32847 -5.19083 0
M  V30 4674 N 436.039 1.36541 -0.78704 0
M  V30 4675 C 437.002 2.28413 -0.189778 0
M  V30 4676 C 438.002 1.48719 0.611499 0
M  V30 4677 O 439.192 1.68737 0.432842 0
M  V30 4678 C 436.324 3.32824 0.737638 0
M  V30 4679 H 437.517 2.82743 -0.999831 0
M  V30 4680 H 435.07 1.46065 -0.556298 0
M  V30 4681 H 435.805 2.83646 1.57212 0
M  V30 4682 H 435.59 3.91752 0.165044 0
M  V30 4683 H 437.08 4.0144 1.15047 0
M  V30 4684 N 437.518 0.538854 1.48102 0
M  V30 4685 C 438.795 -0.0568108 1.95517 0
M  V30 4686 C 439.175 -1.50408 1.48124 0
M  V30 4687 O 438.523 -2.17133 0.711727 0
M  V30 4688 C 438.733 0.0696262 3.48931 0
M  V30 4689 C 440.081 -0.0851202 4.24515 0
M  V30 4690 O 441.105 -0.0037347 3.562 0
M  V30 4691 O 439.964 -0.257025 5.45895 0
M  V30 4692 H 437.058 -0.0743695 0.823649 0
M  V30 4693 H 439.604 0.604081 1.58584 0
M  V30 4694 H 438.376 1.07744 3.76174 0
M  V30 4695 H 437.999 -0.629714 3.92582 0
M  V30 4696 N 438.996 -1.55193 0.274407 0
M  V30 4697 C 440.221 -2.04446 -0.348824 0
M  V30 4698 C 440.646 -1.15149 -1.48735 0
M  V30 4699 O 440.004 -0.149952 -1.80679 0
M  V30 4700 C 440.052 -3.51431 -0.808009 0
M  V30 4701 O 439.156 -3.65225 -1.91531 0
M  V30 4702 H 438.497 -0.66006 -0.0722276 0
M  V30 4703 H 441.027 -2.00481 0.408498 0
M  V30 4704 H 441.037 -3.92781 -1.10395 0
M  V30 4705 H 439.712 -4.15892 0.0249865 0
M  V30 4706 H 438.289 -3.35778 -1.62196 0
M  V30 4707 N 440.474 -0.00167713 -1.576 0
M  V30 4708 C 441.404 0.988091 -2.11563 0
M  V30 4709 C 442.385 1.35736 -1.02517 0
M  V30 4710 O 443.57 1.44082 -1.30208 0
M  V30 4711 C 440.7 2.27941 -2.62031 0
M  V30 4712 C 439.654 2.0517 -3.75619 0
M  V30 4713 C 438.98 3.4033 -4.12407 0
M  V30 4714 C 440.28 1.41294 -5.02825 0
M  V30 4715 H 441.974 0.538771 -2.94513 0
M  V30 4716 H 439.52 0.257712 -1.41675 0
M  V30 4717 H 441.473 2.97539 -2.9841 0
M  V30 4718 H 440.197 2.74989 -1.76205 0
M  V30 4719 H 438.856 1.37998 -3.39635 0
M  V30 4720 H 438.504 3.85085 -3.23603 0
M  V30 4721 H 438.204 3.25909 -4.88935 0
M  V30 4722 H 439.728 4.1124 -4.51347 0
M  V30 4723 H 441.142 2.00851 -5.36965 0
M  V30 4724 H 439.539 1.37356 -5.84169 0
M  V30 4725 H 440.609 0.382362 -4.8339 0
M  V30 4726 N 441.952 1.55251 0.271103 0
M  V30 4727 C 443.198 1.76207 1.00394 0
M  V30 4728 C 443.531 0.562604 1.85872 0
M  V30 4729 O 442.806 -0.439785 1.89463 0
M  V30 4730 C 443.089 3.06828 1.8849 0
M  V30 4731 C 442.942 4.37134 1.05992 0
M  V30 4732 C 444.261 3.33503 2.87165 0
M  V30 4733 H 441.38 0.641086 0.363562 0
M  V30 4734 H 444.022 1.87982 0.276189 0
M  V30 4735 H 442.172 2.96921 2.5054 0
M  V30 4736 H 443.844 4.59001 0.459978 0
M  V30 4737 H 442.087 4.32275 0.363443 0
M  V30 4738 H 442.758 5.2486 1.70955 0
M  V30 4739 H 445.234 3.43215 2.3525 0
M  V30 4740 H 444.11 4.2616 3.45946 0
M  V30 4741 H 444.371 2.53235 3.62387 0
M  V30 4742 N 443.43 -0.535701 1.48216 0
M  V30 4743 C 444.678 -1.28928 1.55634 0
M  V30 4744 C 444.999 -1.93645 0.229514 0
M  V30 4745 O 444.269 -1.81038 -0.74846 0
M  V30 4746 H 442.849 -0.47884 0.573342 0
M  V30 4747 H 445.511 -0.623853 1.84646 0
M  V30 4748 H 444.607 -2.07157 2.33436 0
M  V30 4749 N 444.908 -1.36708 -0.784132 0
M  V30 4750 C 446.136 -1.34398 -1.57305 0
M  V30 4751 C 446.551 0.0735577 -1.88657 0
M  V30 4752 O 445.908 1.03193 -1.50524 0
M  V30 4753 C 445.959 -2.17053 -2.89085 0
M  V30 4754 O 445.68 -3.53281 -2.59083 0
M  V30 4755 C 447.181 -2.22583 -3.83369 0
M  V30 4756 H 444.401 -0.460819 -0.487736 0
M  V30 4757 H 446.945 -1.79879 -0.972819 0
M  V30 4758 H 445.1 -1.75113 -3.45564 0
M  V30 4759 H 445.514 -3.9647 -3.43383 0
M  V30 4760 H 446.988 -2.84763 -4.72878 0
M  V30 4761 H 447.465 -1.23075 -4.21603 0
M  V30 4762 H 448.071 -2.64781 -3.32823 0
M  V30 4763 N 446.386 1.0089 -1.21074 0
M  V30 4764 C 447.616 1.77933 -1.04993 0
M  V30 4765 C 448.024 1.84847 0.403495 0
M  V30 4766 O 447.367 1.30606 1.29181 0
M  V30 4767 C 447.429 3.23541 -1.56722 0
M  V30 4768 C 447.093 3.40214 -3.05129 0
M  V30 4769 C 448.09 3.2881 -4.02716 0
M  V30 4770 C 445.775 3.65781 -3.44252 0
M  V30 4771 C 447.769 3.42732 -5.37414 0
M  V30 4772 C 445.456 3.79346 -4.79103 0
M  V30 4773 C 446.454 3.67827 -5.75493 0
M  V30 4774 O 446.142 3.80965 -7.07899 0
M  V30 4775 H 445.874 0.566157 -0.369381 0
M  V30 4776 H 448.428 1.27826 -1.60779 0
M  V30 4777 H 446.658 3.74766 -0.953285 0
M  V30 4778 H 448.347 3.82245 -1.36543 0
M  V30 4779 H 449.113 3.08986 -3.73835 0
M  V30 4780 H 444.992 3.73831 -2.69762 0
M  V30 4781 H 448.536 3.33658 -6.12632 0
M  V30 4782 H 444.433 3.98672 -5.07672 0
M  V30 4783 H 445.201 3.97937 -7.15254 0
M  V30 4784 N 447.864 1.01787 1.20321 0
M  V30 4785 C 449.089 0.727009 1.9424 0
M  V30 4786 C 449.514 -0.706179 1.74341 0
M  V30 4787 O 448.872 -1.48609 1.03852 0
M  V30 4788 C 448.92 1.06958 3.44372 0
M  V30 4789 O 448.024 0.181983 4.11998 0
M  V30 4790 H 447.365 0.269626 0.606793 0
M  V30 4791 H 449.895 1.36158 1.52716 0
M  V30 4792 H 449.905 1.02182 3.94997 0
M  V30 4793 H 448.58 2.11378 3.58179 0
M  V30 4794 H 447.157 0.287378 3.71791 0
M  V30 4795 N 449.342 -1.36122 0.79427 0
M  V30 4796 C 450.289 -2.29982 0.194101 0
M  V30 4797 C 451.259 -1.52214 -0.664833 0
M  V30 4798 O 452.444 -1.80702 -0.612498 0
M  V30 4799 C 449.584 -3.38706 -0.661244 0
M  V30 4800 C 448.697 -4.31456 0.216766 0
M  V30 4801 C 447.832 -5.27265 -0.645411 0
M  V30 4802 C 446.871 -6.11653 0.233756 0
M  V30 4803 N 446.008 -6.99636 -0.587682 0
M  V30 4804 H 450.848 -2.80722 0.999965 0
M  V30 4805 H 448.385 -1.38172 0.504677 0
M  V30 4806 H 450.343 -4.00394 -1.17219 0
M  V30 4807 H 448.973 -2.89274 -1.43249 0
M  V30 4808 H 448.025 -3.7088 0.845724 0
M  V30 4809 H 449.337 -4.90724 0.893973 0
M  V30 4810 H 448.491 -5.94266 -1.22198 0
M  V30 4811 H 447.23 -4.68463 -1.35623 0
M  V30 4812 H 446.235 -5.4361 0.82269 0
M  V30 4813 H 447.46 -6.72531 0.942247 0
M  V30 4814 H 445.406 -6.43337 -1.2827 0
M  V30 4815 H 445.323 -7.55993 0.0317402 0
M  V30 4816 H 446.591 -7.71001 -1.14792 0
M  V30 4817 N 450.82 -0.546701 -1.47814 0
M  V30 4818 C 452.069 -0.0166497 -2.01693 0
M  V30 4819 C 452.382 1.33721 -1.42752 0
M  V30 4820 O 453.588 1.95658 -1.8823 0
M  V30 4821 C 452.044 0.0206769 -3.59894 0
M  V30 4822 C 451.652 -1.3293 -4.27824 0
M  V30 4823 C 453.396 0.498674 -4.21561 0
M  V30 4824 C 451.303 -1.25165 -5.78003 0
M  V30 4825 H 450.233 -0.0024541 -0.753996 0
M  V30 4826 H 452.884 -0.692984 -1.69912 0
M  V30 4827 H 451.266 0.76244 -3.88591 0
M  V30 4828 H 452.44 -2.08795 -4.10781 0
M  V30 4829 H 450.755 -1.74438 -3.78101 0
M  V30 4830 H 453.352 0.575 -5.31599 0
M  V30 4831 H 453.695 1.5083 -3.88016 0
M  V30 4832 H 454.228 -0.18791 -3.97356 0
M  V30 4833 H 450.967 -2.23695 -6.1615 0
M  V30 4834 H 450.487 -0.53464 -5.97412 0
M  V30 4835 H 452.166 -0.949299 -6.39998 0
M  V30 4836 N 452.299 1.55045 -0.282633 0
M  V30 4837 C 453.232 2.18951 0.64311 0
M  V30 4838 C 454.21 1.15287 1.14664 0
M  V30 4839 O 455.394 1.43846 1.21822 0
M  V30 4840 C 452.521 2.81874 1.87789 0
M  V30 4841 C 451.567 3.98906 1.50919 0
M  V30 4842 S 452.4 5.3234 0.580884 0
M  V30 4843 C 453.556 5.98737 1.82387 0
M  V30 4844 H 453.789 2.97131 0.100138 0
M  V30 4845 H 451.322 1.54255 -0.0668514 0
M  V30 4846 H 453.28 3.18757 2.58658 0
M  V30 4847 H 451.941 2.03573 2.392 0
M  V30 4848 H 451.134 4.4165 2.42819 0
M  V30 4849 H 450.736 3.63485 0.88061 0
M  V30 4850 H 453.028 6.18427 2.76684 0
M  V30 4851 H 453.971 6.93318 1.4393 0
M  V30 4852 H 454.379 5.28177 1.99223 0
M  V30 4853 N 453.777 0.010035 1.57597 0
M  V30 4854 C 455.054 -0.710296 1.82248 0
M  V30 4855 C 455.434 -1.91426 0.889911 0
M  V30 4856 O 454.782 -2.28424 -0.0590292 0
M  V30 4857 C 454.992 -1.10655 3.30993 0
M  V30 4858 C 456.34 -1.50621 3.96987 0
M  V30 4859 O 457.364 -1.20007 3.35375 0
M  V30 4860 O 456.223 -2.07587 5.05539 0
M  V30 4861 H 453.317 -0.34673 0.750804 0
M  V30 4862 H 455.863 0.0362578 1.69661 0
M  V30 4863 H 454.635 -0.248826 3.90508 0
M  V30 4864 H 454.258 -1.91189 3.48615 0
M  V30 4865 N 455.255 -1.55392 -0.262866 0
M  V30 4866 C 456.205 -1.85355 -1.32768 0
M  V30 4867 C 457.189 -0.713188 -1.44231 0
M  V30 4868 O 458.381 -0.974765 -1.47741 0
M  V30 4869 C 455.51 -2.13781 -2.68612 0
M  V30 4870 C 454.596 -3.34104 -2.61219 0
M  V30 4871 N 454.987 -4.53766 -2.2345 0
M  V30 4872 C 453.285 -3.36895 -2.92263 0
M  V30 4873 C 453.986 -5.35877 -2.26298 0
M  V30 4874 N 452.962 -4.74536 -2.65172 0
M  V30 4875 H 456.764 -2.75413 -1.02591 0
M  V30 4876 H 454.278 -1.55405 -0.471503 0
M  V30 4877 H 456.275 -2.33407 -3.45437 0
M  V30 4878 H 454.935 -1.25013 -2.99669 0
M  V30 4879 H 455.946 -4.79682 -1.95258 0
M  V30 4880 H 452.623 -2.58351 -3.27965 0
M  V30 4881 H 454.013 -6.41577 -1.99572 0
M  V30 4882 N 456.733 0.527833 -1.48498 0
M  V30 4883 C 457.68 1.6322 -1.6318 0
M  V30 4884 C 458.65 1.59199 -0.473815 0
M  V30 4885 O 459.835 1.77591 -0.697563 0
M  V30 4886 C 456.975 3.01474 -1.67951 0
M  V30 4887 C 456.088 3.15713 -2.94871 0
M  V30 4888 C 455.223 4.44539 -2.90789 0
M  V30 4889 C 454.262 4.52315 -4.12404 0
M  V30 4890 N 453.399 5.72533 -4.06387 0
M  V30 4891 H 458.239 1.50011 -2.57489 0
M  V30 4892 H 455.776 0.730298 -1.27691 0
M  V30 4893 H 457.734 3.81572 -1.68698 0
M  V30 4894 H 456.364 3.1345 -0.771306 0
M  V30 4895 H 455.416 2.28854 -3.03859 0
M  V30 4896 H 456.728 3.1732 -3.8485 0
M  V30 4897 H 455.882 5.3293 -2.89949 0
M  V30 4898 H 454.621 4.45457 -1.98542 0
M  V30 4899 H 453.626 3.62331 -4.13517 0
M  V30 4900 H 454.851 4.53134 -5.05812 0
M  V30 4901 H 452.797 5.74344 -3.16962 0
M  V30 4902 H 452.714 5.75643 -4.90073 0
M  V30 4903 H 453.982 6.63204 -4.0961 0
M  V30 4904 N 458.211 1.37122 0.776871 0
M  V30 4905 C 459.159 1.32549 1.91138 0
M  V30 4906 C 460.153 0.215119 1.68029 0
M  V30 4907 O 461.359 0.382852 1.75881 0
M  V30 4908 H 457.734 0.412952 0.62847 0
M  V30 4909 H 459.705 2.28332 1.92112 0
M  V30 4910 C 458.454 1.14422 3.28333 0
M  V30 4911 H 457.777 1.99115 3.46689 0
M  V30 4912 H 459.217 1.15272 4.0803 0
M  V30 4913 C 457.676 -0.150434 3.36564 0
M  V30 4914 O 458.206 -1.13584 3.85307 0
M  V30 4915 N 456.412 -0.19939 2.89915 0
M  V30 4916 H 455.959 0.603142 2.5044 0
M  V30 4917 H 455.917 -1.06526 2.95803 0
M  V30 4918 N 459.689 -1.00246 1.21608 0
M  V30 4919 C 460.914 -1.78167 1.06167 0
M  V30 4920 C 461.339 -1.84138 -0.384035 0
M  V30 4921 O 460.697 -1.28683 -1.27712 0
M  V30 4922 C 460.745 -3.19786 1.66642 0
M  V30 4923 O 459.849 -4.02153 0.913613 0
M  V30 4924 H 459.19 -0.549 0.37349 0
M  V30 4925 H 461.72 -1.25994 1.61204 0
M  V30 4926 H 461.73 -3.70451 1.70969 0
M  V30 4927 H 460.405 -3.14754 2.7185 0
M  V30 4928 H 458.982 -3.60711 0.945635 0
M  V30 4929 N 461.167 -1.02423 -1.1978 0
M  V30 4930 C 462.097 -0.62157 -2.25075 0
M  V30 4931 C 463.078 0.367148 -1.6609 0
M  V30 4932 O 464.263 0.250892 -1.92573 0
M  V30 4933 C 461.393 0.0331826 -3.47284 0
M  V30 4934 C 460.347 -0.877323 -4.18912 0
M  V30 4935 C 459.673 -0.0879296 -5.34628 0
M  V30 4936 C 460.973 -2.18892 -4.74219 0
M  V30 4937 H 462.667 -1.50179 -2.59011 0
M  V30 4938 H 460.213 -0.723547 -1.24502 0
M  V30 4939 H 462.166 0.326488 -4.20133 0
M  V30 4940 H 460.89 0.948164 -3.12534 0
M  V30 4941 H 459.549 -1.15475 -3.47938 0
M  V30 4942 H 459.197 0.828941 -4.96123 0
M  V30 4943 H 458.897 -0.694359 -5.83483 0
M  V30 4944 H 460.421 0.198743 -6.10276 0
M  V30 4945 H 461.835 -1.95746 -5.38847 0
M  V30 4946 H 460.232 -2.74686 -5.33542 0
M  V30 4947 H 461.302 -2.84674 -3.92541 0
M  V30 4948 N 462.645 1.35699 -0.801477 0
M  V30 4949 C 463.885 2.00741 -0.385027 0
M  V30 4950 C 464.249 1.62213 1.02718 0
M  V30 4951 O 465.45 2.19936 1.54537 0
M  V30 4952 C 463.721 3.53032 -0.557057 0
M  V30 4953 S 465.28 4.38195 -0.230272 0
M  V30 4954 H 462.098 0.695748 -0.146477 0
M  V30 4955 H 464.7 1.65378 -1.04261 0
M  V30 4956 H 463.404 3.7856 -1.58494 0
M  V30 4957 H 462.935 3.93229 0.116029 0
M  V30 4958 H 464.95 4.86748 0.963895 0
M  V30 4959 N 464.123 0.554532 1.47522 0
M  V30 4960 C 465.37 0.029479 2.02479 0
M  V30 4961 C 465.698 -1.31929 1.42916 0
M  V30 4962 O 464.953 -1.87112 0.573385 0
M  V30 4963 C 465.252 -0.115927 3.57212 0
M  V30 4964 C 464.918 1.16161 4.3568 0
M  V30 4965 C 463.58 1.51168 4.56839 0
M  V30 4966 C 465.932 2.0083 4.80954 0
M  V30 4967 C 463.26 2.70696 5.2052 0
M  V30 4968 C 465.612 3.19559 5.45953 0
M  V30 4969 C 464.276 3.54882 5.65345 0
M  V30 4970 H 463.546 0.0107871 0.740921 0
M  V30 4971 H 466.193 0.725506 1.77225 0
M  V30 4972 H 464.498 -0.894902 3.81443 0
M  V30 4973 H 466.195 -0.53749 3.97381 0
M  V30 4974 H 462.785 0.879026 4.19489 0
M  V30 4975 H 466.969 1.75093 4.64388 0
M  V30 4976 H 462.225 2.98236 5.33728 0
M  V30 4977 H 466.399 3.85456 5.79997 0
M  V30 4978 H 464.026 4.47596 6.1446 0
M  V30 4979 N 465.601 -1.54893 0.290851 0
M  V30 4980 C 467.012 -1.85584 -0.203816 0
M  V30 4981 C 467.363 -1.21285 -1.54222 0
M  V30 4982 O 466.488 -0.506841 -2.10381 0
M  V30 4983 C 467.083 -3.367 -0.376595 0
M  V30 4984 C 465.642 -3.6746 -0.815485 0
M  V30 4985 C 464.789 -2.77178 0.0821087 0
M  V30 4986 H 467.74 -1.50208 0.512175 0
M  V30 4987 H 467.761 -3.60656 -1.21275 0
M  V30 4988 H 467.273 -3.8347 0.59767 0
M  V30 4989 H 465.374 -3.26201 -1.80066 0
M  V30 4990 H 465.487 -4.7478 -0.641905 0
M  V30 4991 H 463.851 -2.50925 -0.436895 0
M  V30 4992 H 464.634 -3.26767 1.05254 0
M  V30 4993 N 467.08 -0.0183926 -1.57589 0
M  V30 4994 C 467.99 0.982943 -2.13015 0
M  V30 4995 C 469.006 1.36443 -1.07979 0
M  V30 4996 O 470.182 1.44802 -1.3998 0
M  V30 4997 C 467.247 2.25024 -2.63752 0
M  V30 4998 C 466.308 1.93018 -3.83461 0
M  V30 4999 C 465.541 3.13706 -4.31769 0
M  V30 5000 O 465.764 4.2601 -3.79305 0
M  V30 5001 O 464.698 2.96629 -5.23732 0
M  V30 5002 H 468.524 0.541709 -2.9883 0
M  V30 5003 H 466.109 0.201565 -1.48034 0
M  V30 5004 H 467.991 2.99441 -2.96502 0
M  V30 5005 H 466.666 2.68349 -1.81026 0
M  V30 5006 H 465.573 1.16019 -3.55655 0
M  V30 5007 H 466.906 1.54516 -4.67317 0
M  V30 5008 N 468.558 1.5553 0.254621 0
M  V30 5009 C 469.835 1.6774 1.00611 0
M  V30 5010 C 470.215 0.555993 2.03647 0
M  V30 5011 O 469.563 -0.441583 2.24193 0
M  V30 5012 C 469.773 3.07725 1.6464 0
M  V30 5013 C 471.121 3.66074 2.15116 0
M  V30 5014 O 472.145 3.10476 1.74595 0
M  V30 5015 O 471.004 4.63526 2.89493 0
M  V30 5016 H 468.098 0.681958 0.467828 0
M  V30 5017 H 470.644 1.67863 0.24902 0
M  V30 5018 H 469.416 3.80792 0.900734 0
M  V30 5019 H 469.039 3.1158 2.46989 0
M  V30 5020 N 470.036 -0.519951 1.48776 0
M  V30 5021 C 470.999 -1.60574 1.6355 0
M  V30 5022 C 471.999 -1.52557 0.508234 0
M  V30 5023 O 473.189 -1.56047 0.774262 0
M  V30 5024 C 470.321 -3.00211 1.61512 0
M  V30 5025 H 471.514 -1.4881 2.60376 0
M  V30 5026 H 469.067 -0.742772 1.37523 0
M  V30 5027 H 469.802 -3.17471 0.662009 0
M  V30 5028 H 469.587 -3.07439 2.43359 0
M  V30 5029 H 471.077 -3.79134 1.75064 0
M  V30 5030 N 471.514 -1.37532 -0.769588 0
M  V30 5031 C 472.424 -1.35668 -1.91393 0
M  V30 5032 C 473.44 -0.255954 -1.72107 0
M  V30 5033 O 474.616 -0.491704 -1.95305 0
M  V30 5034 C 471.681 -1.16481 -3.26547 0
M  V30 5035 C 470.742 -2.36212 -3.58472 0
M  V30 5036 C 469.975 -2.17932 -4.87177 0
M  V30 5037 O 470.198 -1.1647 -5.58382 0
M  V30 5038 O 469.132 -3.06167 -5.18214 0
M  V30 5039 H 472.958 -2.32055 -1.95918 0
M  V30 5040 H 470.543 -1.18284 -0.912641 0
M  V30 5041 H 472.425 -1.07778 -4.07384 0
M  V30 5042 H 471.1 -0.231687 -3.2287 0
M  V30 5043 H 470.007 -2.50488 -2.77861 0
M  V30 5044 H 471.34 -3.281 -3.66894 0
M  V30 5045 N 472.992 0.995999 -1.22138 0
M  V30 5046 C 474.241 1.72928 -1.03821 0
M  V30 5047 C 474.554 1.90872 0.427444 0
M  V30 5048 O 475.76 2.61496 0.730212 0
M  V30 5049 C 474.216 3.11124 -1.80913 0
M  V30 5050 C 473.824 3.01122 -3.31707 0
M  V30 5051 C 475.568 3.8852 -1.71035 0
M  V30 5052 C 473.475 4.34453 -4.01253 0
M  V30 5053 H 472.405 0.648376 -0.384869 0
M  V30 5054 H 475.056 1.11213 -1.45959 0
M  V30 5055 H 473.438 3.73503 -1.31573 0
M  V30 5056 H 474.612 2.47926 -3.88419 0
M  V30 5057 H 472.927 2.3721 -3.42228 0
M  V30 5058 H 475.524 4.872 -2.20318 0
M  V30 5059 H 475.867 4.1087 -0.670196 0
M  V30 5060 H 476.4 3.32812 -2.17902 0
M  V30 5061 H 473.139 4.17303 -5.05508 0
M  V30 5062 H 472.659 4.87574 -3.49331 0
M  V30 5063 H 474.338 5.03215 -4.06674 0
M  V30 5064 N 474.47 1.03057 1.19235 0
M  V30 5065 C 475.695 0.74757 1.93458 0
M  V30 5066 C 476.12 -0.687648 1.7508 0
M  V30 5067 O 475.478 -1.47499 1.05422 0
M  V30 5068 C 475.526 1.10604 3.43219 0
M  V30 5069 O 474.63 0.225671 4.11782 0
M  V30 5070 H 473.971 0.276047 0.603899 0
M  V30 5071 H 476.501 1.3777 1.51263 0
M  V30 5072 H 476.511 1.06366 3.93891 0
M  V30 5073 H 475.186 2.15165 3.55917 0
M  V30 5074 H 473.763 0.326795 3.71465 0
M  V30 5075 N 475.948 -1.35272 0.808662 0
M  V30 5076 C 476.895 -2.29764 0.218482 0
M  V30 5077 C 477.865 -1.52911 -0.648652 0
M  V30 5078 O 479.05 -1.81341 -0.593297 0
M  V30 5079 C 476.19 -3.39388 -0.625282 0
M  V30 5080 C 475.303 -4.31202 0.262516 0
M  V30 5081 C 474.438 -5.27919 -0.589451 0
M  V30 5082 C 473.477 -6.11371 0.298617 0
M  V30 5083 N 472.614 -7.0022 -0.513443 0
M  V30 5084 H 477.454 -2.79645 1.02968 0
M  V30 5085 H 474.991 -1.37629 0.519303 0
M  V30 5086 H 476.949 -4.01615 -1.12966 0
M  V30 5087 H 475.579 -2.90777 -1.40173 0
M  V30 5088 H 474.631 -3.69962 0.885013 0
M  V30 5089 H 475.943 -4.89748 0.945971 0
M  V30 5090 H 475.097 -5.95529 -1.15888 0
M  V30 5091 H 473.836 -4.69875 -1.30647 0
M  V30 5092 H 472.841 -5.42707 0.880301 0
M  V30 5093 H 474.066 -6.71494 1.01352 0
M  V30 5094 H 472.012 -6.44662 -1.21439 0
M  V30 5095 H 471.929 -7.55917 0.111922 0
M  V30 5096 H 473.197 -7.72175 -1.06608 0
M  V30 5097 N 477.426 -0.562348 -1.47226 0
M  V30 5098 C 478.376 0.202967 -2.27095 0
M  V30 5099 C 479.36 0.880611 -1.34663 0
M  V30 5100 O 480.552 0.778069 -1.58981 0
M  V30 5101 C 477.681 1.22906 -3.20545 0
M  V30 5102 C 476.767 0.554566 -4.20459 0
M  V30 5103 N 477.158 -0.378295 -5.04383 0
M  V30 5104 C 475.456 0.807854 -4.38623 0
M  V30 5105 C 476.157 -0.770583 -5.76573 0
M  V30 5106 N 475.133 -0.124263 -5.43458 0
M  V30 5107 H 478.935 -0.514196 -2.89367 0
M  V30 5108 H 476.449 -0.382655 -1.57827 0
M  V30 5109 H 478.446 1.79134 -3.76453 0
M  V30 5110 H 477.106 1.94726 -2.59831 0
M  V30 5111 H 478.117 -0.75274 -5.124 0
M  V30 5112 H 474.794 1.51418 -3.89075 0
M  V30 5113 H 476.184 -1.53742 -6.54074 0
M  V30 5114 N 478.904 1.54736 -0.299062 0
M  V30 5115 C 479.867 2.22127 0.565012 0
M  V30 5116 C 480.867 1.20669 1.06281 0
M  V30 5117 O 482.057 1.45417 0.959145 0
M  V30 5118 C 479.189 2.90611 1.78208 0
M  V30 5119 H 480.382 2.99891 -0.0237448 0
M  V30 5120 H 477.935 1.5622 -0.0498788 0
M  V30 5121 H 478.67 2.16921 2.41072 0
M  V30 5122 H 478.455 3.64984 1.43281 0
M  V30 5123 H 479.945 3.42026 2.396 0
M  V30 5124 N 480.382 0.0267497 1.57577 0
M  V30 5125 C 481.329 -0.955894 2.10075 0
M  V30 5126 C 482.299 -1.32453 1.00226 0
M  V30 5127 O 483.484 -1.41826 1.27632 0
M  V30 5128 C 480.624 -2.2338 2.6305 0
M  V30 5129 C 479.737 -1.92183 3.86898 0
M  V30 5130 C 478.872 -3.14251 4.28275 0
M  V30 5131 C 477.911 -2.78862 5.44888 0
M  V30 5132 N 477.048 -3.93548 5.81433 0
M  V30 5133 H 481.888 -0.501303 2.93753 0
M  V30 5134 H 479.425 -0.235847 1.45197 0
M  V30 5135 H 481.383 -2.98124 2.91853 0
M  V30 5136 H 480.013 -2.6646 1.82205 0
M  V30 5137 H 479.065 -1.07692 3.64838 0
M  V30 5138 H 480.377 -1.62117 4.7172 0
M  V30 5139 H 479.531 -3.97317 4.58502 0
M  V30 5140 H 478.27 -3.47476 3.42215 0
M  V30 5141 H 477.275 -1.94208 5.14357 0
M  V30 5142 H 478.5 -2.46855 6.32645 0
M  V30 5143 H 476.446 -4.2662 4.98328 0
M  V30 5144 H 476.363 -3.67098 6.6089 0
M  V30 5145 H 477.631 -4.77325 6.16264 0
M  V30 5146 N 481.861 -1.55662 -0.24637 0
M  V30 5147 C 482.809 -1.91186 -1.3248 0
M  V30 5148 C 483.803 -0.790996 -1.49799 0
M  V30 5149 O 485.009 -0.975617 -1.51267 0
M  V30 5150 H 481.384 -0.607207 -0.443626 0
M  V30 5151 H 483.355 -2.81221 -0.997853 0
M  V30 5152 C 482.104 -2.22349 -2.67313 0
M  V30 5153 H 481.427 -3.08097 -2.54786 0
M  V30 5154 H 482.867 -2.51107 -3.41645 0
M  V30 5155 C 481.326 -1.04001 -3.20446 0
M  V30 5156 O 481.856 -0.28828 -4.00664 0
M  V30 5157 N 480.062 -0.830494 -2.7848 0
M  V30 5158 H 479.609 -1.4435 -2.13356 0
M  V30 5159 H 479.567 -0.0403258 -3.14374 0
M  V30 5160 N 483.339 0.512053 -1.4905 0
M  V30 5161 C 484.269 1.62365 -1.67809 0
M  V30 5162 C 485.25 1.61737 -0.526809 0
M  V30 5163 O 486.435 1.78651 -0.761404 0
M  V30 5164 C 483.565 3.00895 -1.73435 0
M  V30 5165 C 482.519 3.16387 -2.88242 0
M  V30 5166 C 481.845 4.56157 -2.78971 0
M  V30 5167 C 483.145 2.97457 -4.29321 0
M  V30 5168 H 484.839 1.46921 -2.60873 0
M  V30 5169 H 482.385 0.705379 -1.2554 0
M  V30 5170 H 484.338 3.78549 -1.85145 0
M  V30 5171 H 483.062 3.17403 -0.769619 0
M  V30 5172 H 481.721 2.41155 -2.76116 0
M  V30 5173 H 481.369 4.69525 -1.8043 0
M  V30 5174 H 481.069 4.67465 -3.5602 0
M  V30 5175 H 482.593 5.35886 -2.92675 0
M  V30 5176 H 484.007 3.64888 -4.42187 0
M  V30 5177 H 482.404 3.20245 -5.07507 0
M  V30 5178 H 483.474 1.93692 -4.44535 0
M  V30 5179 N 484.817 1.37938 0.762283 0
M  V30 5180 C 486.066 1.32989 1.51647 0
M  V30 5181 C 486.379 -0.0802922 1.95435 0
M  V30 5182 O 487.585 -0.252295 2.70325 0
M  V30 5183 C 486.041 2.33485 2.73885 0
M  V30 5184 C 485.649 3.80079 2.37157 0
M  V30 5185 C 487.393 2.37563 3.51801 0
M  V30 5186 C 485.3 4.72283 3.55954 0
M  V30 5187 H 484.23 0.494301 0.56937 0
M  V30 5188 H 486.881 1.63448 0.834083 0
M  V30 5189 H 485.263 1.96056 3.44061 0
M  V30 5190 H 486.437 4.26398 1.74704 0
M  V30 5191 H 484.752 3.79037 1.72395 0
M  V30 5192 H 487.349 3.0365 4.40114 0
M  V30 5193 H 487.692 1.39199 3.92338 0
M  V30 5194 H 488.225 2.73747 2.8863 0
M  V30 5195 H 484.964 5.7181 3.2049 0
M  V30 5196 H 484.484 4.30663 4.1748 0
M  V30 5197 H 486.163 4.89876 4.22647 0
M  V30 5198 N 486.295 -0.989507 1.22664 0
M  V30 5199 C 487.535 -1.7447 1.06488 0
M  V30 5200 C 487.899 -1.8794 -0.392737 0
M  V30 5201 O 489.1 -2.60175 -0.675446 0
M  V30 5202 C 487.371 -3.11043 1.76031 0
M  V30 5203 S 488.93 -4.02258 1.7531 0
M  V30 5204 H 485.748 -0.600123 0.381278 0
M  V30 5205 H 488.35 -1.18283 1.55658 0
M  V30 5206 H 487.054 -2.98884 2.81241 0
M  V30 5207 H 486.585 -3.72301 1.27105 0
M  V30 5208 H 488.6 -4.89623 0.805208 0
M  V30 5209 N 487.773 -1.03688 -1.18687 0
M  V30 5210 C 488.736 -0.629115 -2.20397 0
M  V30 5211 C 489.736 0.311495 -1.57754 0
M  V30 5212 O 490.926 0.0974107 -1.73927 0
M  V30 5213 C 488.058 0.0782231 -3.4081 0
M  V30 5214 H 489.251 -1.52915 -2.57987 0
M  V30 5215 H 486.804 -0.828988 -1.32505 0
M  V30 5216 H 487.539 0.992233 -3.08748 0
M  V30 5217 H 487.324 -0.597776 -3.87517 0
M  V30 5218 H 488.814 0.350156 -4.16129 0
M  V30 5219 N 489.251 1.34841 -0.815825 0
M  V30 5220 C 490.498 1.98499 -0.400535 0
M  V30 5221 C 490.826 1.64699 1.03463 0
M  V30 5222 O 490.081 0.907006 1.73412 0
M  V30 5223 C 490.38 3.53273 -0.541541 0
M  V30 5224 C 490.046 4.06966 -1.94138 0
M  V30 5225 C 488.708 4.21341 -2.32433 0
M  V30 5226 C 491.06 4.35933 -2.85677 0
M  V30 5227 C 488.388 4.62007 -3.61617 0
M  V30 5228 C 490.74 4.78042 -4.14317 0
M  V30 5229 C 489.404 4.90622 -4.52599 0
M  V30 5230 H 488.674 0.72636 -0.146566 0
M  V30 5231 H 491.321 1.60902 -1.0384 0
M  V30 5232 H 489.626 3.91387 0.179741 0
M  V30 5233 H 491.323 4.00497 -0.20085 0
M  V30 5234 H 487.913 3.96235 -1.63388 0
M  V30 5235 H 492.097 4.24372 -2.57337 0
M  V30 5236 H 487.353 4.69937 -3.91113 0
M  V30 5237 H 491.527 4.99415 -4.85342 0
M  V30 5238 H 489.154 5.2189 -5.52752 0
M  V30 5239 N 490.729 0.570148 1.46925 0
M  V30 5240 C 491.659 -0.158274 2.32963 0
M  V30 5241 C 492.64 -0.896093 1.44583 0
M  V30 5242 O 493.825 -0.874022 1.7342 0
M  V30 5243 C 490.955 -1.18055 3.26619 0
M  V30 5244 C 489.909 -0.558379 4.24342 0
M  V30 5245 C 489.235 -1.68623 5.07415 0
M  V30 5246 C 490.535 0.496295 5.19937 0
M  V30 5247 H 492.229 0.560046 2.94115 0
M  V30 5248 H 489.775 0.270775 1.41431 0
M  V30 5249 H 491.728 -1.69841 3.85658 0
M  V30 5250 H 490.452 -1.92899 2.63548 0
M  V30 5251 H 489.111 -0.0617157 3.66548 0
M  V30 5252 H 488.759 -2.42402 4.40738 0
M  V30 5253 H 488.459 -1.27564 5.73586 0
M  V30 5254 H 489.983 -2.20709 5.69315 0
M  V30 5255 H 491.397 0.0640052 5.73264 0
M  V30 5256 H 489.794 0.82649 5.94381 0
M  V30 5257 H 490.864 1.38735 4.6463 0
M  V30 5258 N 492.207 -1.54576 0.307264 0
M  V30 5259 C 493.435 -2.04675 -0.302597 0
M  V30 5260 C 493.85 -1.18425 -1.47041 0
M  V30 5261 O 493.207 -0.211257 -1.81273 0
M  V30 5262 C 493.258 -3.53575 -0.752801 0
M  V30 5263 O 492.979 -4.36547 0.368536 0
M  V30 5264 C 494.48 -4.19699 -1.42717 0
M  V30 5265 H 491.7 -0.66786 -0.0648374 0
M  V30 5266 H 494.244 -1.99516 0.448716 0
M  V30 5267 H 492.399 -3.59074 -1.45412 0
M  V30 5268 H 492.813 -5.24497 0.0168937 0
M  V30 5269 H 494.287 -5.25388 -1.69327 0
M  V30 5270 H 494.764 -3.69815 -2.36925 0
M  V30 5271 H 495.37 -4.18293 -0.768856 0
M  V30 5272 N 493.685 -0.035106 -1.57561 0
M  V30 5273 C 494.962 0.681212 -1.83354 0
M  V30 5274 C 495.342 1.89986 -0.920252 0
M  V30 5275 O 494.69 2.28489 0.0226815 0
M  V30 5276 C 494.9 1.05376 -3.32712 0
M  V30 5277 C 496.248 1.44286 -3.99333 0
M  V30 5278 O 497.272 1.14656 -3.37242 0
M  V30 5279 O 496.131 1.99518 -5.08778 0
M  V30 5280 H 493.225 0.334741 -0.756226 0
M  V30 5281 H 495.771 -0.0632448 -1.69582 0
M  V30 5282 H 494.543 0.186668 -3.90854 0
M  V30 5283 H 494.166 1.85619 -3.51613 0
M  V30 5284 N 495.163 1.55791 0.238111 0
M  V30 5285 C 496.579 1.48411 0.587045 0
M  V30 5286 C 496.779 0.72702 1.87927 0
M  V30 5287 O 495.835 0.259942 2.51158 0
M  V30 5288 C 497.148 2.92873 0.681623 0
M  V30 5289 C 498.696 3.03295 0.773363 0
M  V30 5290 C 499.171 4.49082 0.899428 0
M  V30 5291 N 500.662 4.53056 0.964075 0
M  V30 5292 C 501.397 5.63117 1.08104 0
M  V30 5293 N 500.893 6.82969 1.16299 0
M  V30 5294 N 502.686 5.50933 1.11488 0
M  V30 5295 H 494.837 2.0345 -0.610076 0
M  V30 5296 H 497.1 0.924034 -0.211813 0
M  V30 5297 H 496.806 3.51142 -0.19802 0
M  V30 5298 H 496.68 3.43851 1.55069 0
M  V30 5299 H 499.067 2.45101 1.64346 0
M  V30 5300 H 499.148 2.55513 -0.121034 0
M  V30 5301 H 498.792 5.07889 0.0338586 0
M  V30 5302 H 498.722 4.94553 1.809 0
M  V30 5303 H 501.213 3.66737 0.91173 0
M  V30 5304 H 501.526 7.62598 1.25155 0
M  V30 5305 H 499.871 6.85712 1.13241 0
M  V30 5306 H 503.062 4.56231 1.0474 0
M  V30 5307 H 503.235 6.36743 1.20259 0
M  V30 5308 N 496.642 -0.504142 1.49319 0
M  V30 5309 C 497.552 -1.63248 1.68486 0
M  V30 5310 C 498.568 -1.64488 0.567432 0
M  V30 5311 O 499.744 -1.82966 0.841749 0
M  V30 5312 C 496.809 -2.99627 1.74426 0
M  V30 5313 C 495.87 -3.09039 2.97982 0
M  V30 5314 C 495.103 -4.38913 3.0363 0
M  V30 5315 O 495.326 -5.27528 2.16958 0
M  V30 5316 O 494.26 -4.53231 3.96062 0
M  V30 5317 H 498.086 -1.50008 2.64067 0
M  V30 5318 H 495.671 -0.680086 1.33023 0
M  V30 5319 H 497.553 -3.80689 1.80705 0
M  V30 5320 H 496.228 -3.13136 0.820233 0
M  V30 5321 H 495.135 -2.27177 2.97223 0
M  V30 5322 H 496.468 -3.00456 3.89855 0
M  V30 5323 N 498.12 -1.38341 -0.754957 0
M  V30 5324 C 499.366 -1.34672 -1.51628 0
M  V30 5325 C 499.699 0.0636036 -1.94096 0
M  V30 5326 O 498.974 1.0245 -1.6533 0
M  V30 5327 C 499.257 -2.30116 -2.76981 0
M  V30 5328 C 499.11 -3.80003 -2.4066 0
M  V30 5329 C 500.429 -2.23715 -3.78998 0
M  V30 5330 H 497.548 -0.490517 -0.550056 0
M  V30 5331 H 500.19 -1.69178 -0.864807 0
M  V30 5332 H 498.34 -2.00821 -3.3257 0
M  V30 5333 H 500.012 -4.19966 -1.90856 0
M  V30 5334 H 498.255 -3.97751 -1.73137 0
M  V30 5335 H 498.926 -4.42244 -3.30339 0
M  V30 5336 H 501.402 -2.49574 -3.32945 0
M  V30 5337 H 500.278 -2.9261 -4.64403 0
M  V30 5338 H 500.539 -1.23554 -4.24484 0
M  V30 5339 N 499.598 0.982988 -1.23187 0
M  V30 5340 C 501.014 1.2487 -0.993967 0
M  V30 5341 C 501.214 1.99155 0.306498 0
M  V30 5342 O 500.27 2.30688 1.0266 0
M  V30 5343 C 501.583 2.05078 -2.19917 0
M  V30 5344 C 503.131 2.18227 -2.2438 0
M  V30 5345 C 503.606 3.01825 -3.44479 0
M  V30 5346 N 505.097 3.09411 -3.44702 0
M  V30 5347 C 505.832 3.74412 -4.34285 0
M  V30 5348 N 505.328 4.41259 -5.341 0
M  V30 5349 N 507.121 3.71273 -4.22035 0
M  V30 5350 H 499.272 0.485253 -2.06783 0
M  V30 5351 H 501.535 0.276979 -0.906635 0
M  V30 5352 H 501.241 1.57867 -3.14279 0
M  V30 5353 H 501.115 3.05829 -2.2079 0
M  V30 5354 H 503.502 2.64648 -1.30559 0
M  V30 5355 H 503.583 1.16873 -2.2754 0
M  V30 5356 H 503.227 2.56102 -4.38605 0
M  V30 5357 H 503.157 4.03342 -3.38559 0
M  V30 5358 H 505.648 2.61845 -2.7248 0
M  V30 5359 H 505.961 4.88629 -5.98717 0
M  V30 5360 H 504.306 4.39975 -5.38002 0
M  V30 5361 H 507.497 3.18217 -3.43301 0
M  V30 5362 H 507.67 4.21649 -4.92053 0
M  V30 5363 N 501.076 1.04316 1.18135 0
M  V30 5364 C 502.006 0.657299 2.24058 0
M  V30 5365 C 502.987 -0.340678 1.66654 0
M  V30 5366 O 504.172 -0.220223 1.92947 0
M  V30 5367 C 501.302 0.0220715 3.47293 0
M  V30 5368 C 500.256 0.943857 4.17463 0
M  V30 5369 C 499.582 0.172973 5.3442 0
M  V30 5370 C 500.882 2.26409 4.70677 0
M  V30 5371 H 502.576 1.5428 2.56589 0
M  V30 5372 H 500.122 0.743263 1.23335 0
M  V30 5373 H 502.075 -0.259607 4.206 0
M  V30 5374 H 500.799 -0.898323 3.14003 0
M  V30 5375 H 499.458 1.20996 3.46057 0
M  V30 5376 H 499.106 -0.749907 4.97379 0
M  V30 5377 H 498.806 0.787098 5.82304 0
M  V30 5378 H 500.33 -0.101628 6.10515 0
M  V30 5379 H 501.744 2.04294 5.35665 0
M  V30 5380 H 500.141 2.8314 5.29105 0
M  V30 5381 H 501.211 2.90883 3.87962 0
M  V30 5382 N 502.554 -1.34406 0.822964 0
M  V30 5383 C 503.802 -1.97892 0.410245 0
M  V30 5384 C 504.123 -1.65567 -1.03017 0
M  V30 5385 O 503.393 -0.94642 -1.71522 0
M  V30 5386 H 501.973 -0.732049 0.148707 0
M  V30 5387 H 504.635 -1.64043 1.05242 0
M  V30 5388 H 503.731 -3.07579 0.529284 0
M  V30 5389 N 504.032 -0.577932 -1.46621 0
M  V30 5390 C 505.448 -0.239242 -1.57797 0
M  V30 5391 C 505.648 1.25843 -1.57371 0
M  V30 5392 O 504.704 2.03988 -1.48813 0
M  V30 5393 C 506.017 -0.884227 -2.87405 0
M  V30 5394 C 507.565 -0.857373 -3.01028 0
M  V30 5395 C 508.04 -1.48181 -4.33366 0
M  V30 5396 N 509.531 -1.44593 -4.40053 0
M  V30 5397 C 510.266 -1.89852 -5.41058 0
M  V30 5398 N 509.762 -2.43062 -6.48762 0
M  V30 5399 N 511.555 -1.80797 -5.3223 0
M  V30 5400 H 503.706 -1.55073 -1.45142 0
M  V30 5401 H 505.969 -0.647903 -0.692044 0
M  V30 5402 H 505.675 -1.93759 -2.93514 0
M  V30 5403 H 505.549 -0.389585 -3.75183 0
M  V30 5404 H 507.936 0.187357 -2.94505 0
M  V30 5405 H 508.017 -1.38999 -2.14739 0
M  V30 5406 H 507.661 -2.52572 -4.40647 0
M  V30 5407 H 507.591 -0.924464 -5.18422 0
M  V30 5408 H 510.082 -1.05694 -3.62819 0
M  V30 5409 H 510.395 -2.75466 -7.22038 0
M  V30 5410 H 508.74 -2.47085 -6.49595 0
M  V30 5411 H 511.931 -1.38989 -4.46989 0
M  V30 5412 H 512.104 -2.16385 -6.10804 0
M  V30 5413 N 505.51 1.54411 -0.315457 0
M  V30 5414 C 506.458 2.25514 0.569771 0
M  V30 5415 C 507.452 1.2663 1.12522 0
M  V30 5416 O 508.658 1.44434 1.07419 0
M  V30 5417 H 505.033 0.724257 0.202376 0
M  V30 5418 H 507.004 2.98354 -0.0522895 0
M  V30 5419 C 505.753 3.02004 1.72305 0
M  V30 5420 H 505.076 3.77906 1.30488 0
M  V30 5421 H 506.516 3.55014 2.31821 0
M  V30 5422 C 504.975 2.09822 2.63583 0
M  V30 5423 O 505.505 1.67574 3.65078 0
M  V30 5424 N 503.711 1.75478 2.31637 0
M  V30 5425 H 503.258 2.10032 1.49145 0
M  V30 5426 H 503.216 1.14079 2.92973 0
M  V30 5427 N 506.988 0.0434614 1.5754 0
M  V30 5428 C 508.236 -0.630786 1.92004 0
M  V30 5429 C 508.557 -1.71836 0.921807 0
M  V30 5430 O 507.827 -1.9587 -0.034522 0
M  V30 5431 H 506.407 -0.235988 0.708745 0
M  V30 5432 H 509.069 0.0946462 1.9467 0
M  V30 5433 H 508.165 -1.07434 2.93026 0
M  V30 5434 N 508.466 -1.55915 -0.229846 0
M  V30 5435 C 509.712 -1.78807 -0.956868 0
M  V30 5436 C 510.045 -0.611687 -1.84315 0
M  V30 5437 O 509.32 0.389398 -1.90562 0
M  V30 5438 C 509.603 -3.11718 -1.80288 0
M  V30 5439 C 509.456 -4.3979 -0.943649 0
M  V30 5440 C 510.775 -3.40999 -2.78222 0
M  V30 5441 H 507.894 -0.6505 -0.346437 0
M  V30 5442 H 510.536 -1.88648 -0.226252 0
M  V30 5443 H 508.686 -3.03459 -2.42579 0
M  V30 5444 H 510.358 -4.60059 -0.338121 0
M  V30 5445 H 508.601 -4.33086 -0.248705 0
M  V30 5446 H 509.272 -5.29208 -1.5698 0
M  V30 5447 H 511.748 -3.49332 -2.26067 0
M  V30 5448 H 510.624 -4.35183 -3.34526 0
M  V30 5449 H 510.885 -2.62754 -3.55546 0
M  V30 5450 N 509.944 0.496216 -1.49584 0
M  V30 5451 C 510.854 1.62352 -1.69349 0
M  V30 5452 C 511.87 1.64184 -0.576147 0
M  V30 5453 O 513.046 1.82517 -0.85144 0
M  V30 5454 C 510.111 2.98698 -1.76013 0
M  V30 5455 C 509.172 3.07454 -2.99617 0
M  V30 5456 C 508.405 4.37296 -3.05953 0
M  V30 5457 O 508.628 5.2637 -2.19752 0
M  V30 5458 O 507.562 4.51124 -3.9846 0
M  V30 5459 H 511.388 1.48606 -2.64859 0
M  V30 5460 H 508.973 0.673022 -1.33382 0
M  V30 5461 H 510.855 3.79725 -1.82721 0
M  V30 5462 H 509.53 3.12696 -0.836828 0
M  V30 5463 H 508.437 2.25597 -2.98424 0
M  V30 5464 H 509.77 2.98385 -3.91443 0
M  V30 5465 N 511.423 1.38739 0.74761 0
M  V30 5466 C 512.333 1.38696 1.89211 0
M  V30 5467 C 513.349 0.283303 1.71678 0
M  V30 5468 O 514.525 0.522713 1.94498 0
M  V30 5469 C 511.59 1.21662 3.24653 0
M  V30 5470 C 510.651 2.41886 3.54669 0
M  V30 5471 C 509.884 2.25655 4.83648 0
M  V30 5472 O 510.107 1.25339 5.56459 0
M  V30 5473 O 509.041 3.14372 5.13277 0
M  V30 5474 H 512.867 2.35143 1.92202 0
M  V30 5475 H 510.452 1.19721 0.893708 0
M  V30 5476 H 512.334 1.14246 4.05618 0
M  V30 5477 H 511.009 0.283024 3.2246 0
M  V30 5478 H 509.916 2.54877 2.73841 0
M  V30 5479 H 511.249 3.33895 3.61628 0
M  V30 5480 N 512.901 -0.976442 1.23707 0
M  V30 5481 C 514.15 -1.71254 1.06559 0
M  V30 5482 C 514.463 -1.91528 -0.397024 0
M  V30 5483 O 515.669 -2.62625 -0.688518 0
M  V30 5484 C 514.125 -3.08207 1.8584 0
M  V30 5485 C 513.733 -2.95806 3.36456 0
M  V30 5486 C 515.477 -3.85749 1.77194 0
M  V30 5487 C 513.384 -4.28015 4.08114 0
M  V30 5488 H 512.314 -0.642171 0.395136 0
M  V30 5489 H 514.965 -1.08877 1.4771 0
M  V30 5490 H 513.347 -3.71363 1.37498 0
M  V30 5491 H 514.521 -2.41716 3.92314 0
M  V30 5492 H 512.836 -2.31736 3.45959 0
M  V30 5493 H 515.433 -4.83633 2.28041 0
M  V30 5494 H 515.776 -4.09752 0.735477 0
M  V30 5495 H 516.309 -3.29303 2.23169 0
M  V30 5496 H 513.048 -4.09208 5.12083 0
M  V30 5497 H 512.568 -4.81955 3.57043 0
M  V30 5498 H 514.247 -4.96681 4.14629 0
M  V30 5499 N 514.379 -1.04941 -1.1758 0
M  V30 5500 C 515.795 -0.770282 -1.39781 0
M  V30 5501 C 515.995 0.636417 -1.91186 0
M  V30 5502 O 515.051 1.39923 -2.10185 0
M  V30 5503 C 516.364 -1.82376 -2.3908 0
M  V30 5504 C 517.912 -1.84569 -2.52791 0
M  V30 5505 C 518.387 -2.88933 -3.55361 0
M  V30 5506 N 519.878 -2.8788 -3.62877 0
M  V30 5507 C 520.613 -3.65282 -4.41992 0
M  V30 5508 N 520.109 -4.52461 -5.24643 0
M  V30 5509 N 521.902 -3.53732 -4.36841 0
M  V30 5510 H 514.053 -1.95705 -0.825438 0
M  V30 5511 H 516.316 -0.847284 -0.425222 0
M  V30 5512 H 516.022 -2.83323 -2.08376 0
M  V30 5513 H 515.896 -1.66327 -3.38549 0
M  V30 5514 H 518.283 -0.842879 -2.82807 0
M  V30 5515 H 518.364 -2.04696 -1.53406 0
M  V30 5516 H 518.008 -3.89398 -3.26085 0
M  V30 5517 H 517.938 -2.66059 -4.54445 0
M  V30 5518 H 520.429 -2.24666 -3.03864 0
M  V30 5519 H 520.742 -5.08211 -5.82187 0
M  V30 5520 H 519.087 -4.56524 -5.24033 0
M  V30 5521 H 522.278 -2.85021 -3.71323 0
M  V30 5522 H 522.451 -4.14302 -4.98255 0
M  V30 5523 N 515.857 1.33968 -0.830081 0
M  V30 5524 C 516.789 2.28194 -0.21448 0
M  V30 5525 C 517.802 1.5135 0.599752 0
M  V30 5526 O 518.991 1.73286 0.42826 0
M  V30 5527 C 516.091 3.31221 0.717356 0
M  V30 5528 C 515.264 4.37365 -0.055613 0
M  V30 5529 C 514.323 5.2011 0.798231 0
M  V30 5530 O 513.349 5.68691 0.240616 0
M  V30 5531 N 514.551 5.40523 2.11695 0
M  V30 5532 H 517.316 2.81662 -1.02405 0
M  V30 5533 H 514.877 1.46568 -0.687713 0
M  V30 5534 H 516.869 3.83477 1.29334 0
M  V30 5535 H 515.439 2.78095 1.42765 0
M  V30 5536 H 514.659 3.85727 -0.812936 0
M  V30 5537 H 515.947 5.05397 -0.587444 0
M  V30 5538 H 515.345 5.0274 2.59363 0
M  V30 5539 H 513.902 5.95871 2.64162 0
M  V30 5540 N 517.335 0.585699 1.46312 0
M  V30 5541 C 518.285 -0.166813 2.27389 0
M  V30 5542 C 519.269 -0.859076 1.36047 0
M  V30 5543 O 520.461 -0.752678 1.60199 0
M  V30 5544 C 517.59 -1.17791 3.2246 0
M  V30 5545 C 516.676 -0.487605 4.21288 0
M  V30 5546 N 517.067 0.45849 5.03718 0
M  V30 5547 C 515.365 -0.737971 4.39852 0
M  V30 5548 C 516.066 0.862213 5.75275 0
M  V30 5549 N 515.042 0.210707 5.43191 0
M  V30 5550 H 518.844 0.560167 2.88512 0
M  V30 5551 H 516.358 0.407715 1.57199 0
M  V30 5552 H 518.355 -1.73122 3.79255 0
M  V30 5553 H 517.015 -1.90568 2.62896 0
M  V30 5554 H 518.026 0.834163 5.11138 0
M  V30 5555 H 514.703 -1.45209 3.91434 0
M  V30 5556 H 516.093 1.64128 6.51546 0
M  V30 5557 N 518.813 -1.54241 0.323641 0
M  V30 5558 C 520.224 -1.85975 -0.164405 0
M  V30 5559 C 520.575 -1.24529 -1.51615 0
M  V30 5560 O 519.7 -0.551351 -2.09258 0
M  V30 5561 C 520.295 -3.37424 -0.305091 0
M  V30 5562 C 518.854 -3.69107 -0.737358 0
M  V30 5563 C 518.001 -2.76942 0.140884 0
M  V30 5564 H 520.952 -1.49088 0.543922 0
M  V30 5565 H 520.973 -3.63147 -1.13598 0
M  V30 5566 H 520.485 -3.82116 0.678876 0
M  V30 5567 H 518.586 -3.29947 -1.73107 0
M  V30 5568 H 518.699 -4.76035 -0.541053 0
M  V30 5569 H 517.063 -2.51795 -0.383572 0
M  V30 5570 H 517.846 -3.24461 1.12162 0
M  V30 5571 N 520.291 -0.0518155 -1.57515 0
M  V30 5572 C 521.538 0.621823 -1.92716 0
M  V30 5573 C 521.866 1.70813 -0.930229 0
M  V30 5574 O 521.121 1.95616 0.0573708 0
M  V30 5575 C 521.42 1.25607 -3.34601 0
M  V30 5576 C 521.086 0.297901 -4.49915 0
M  V30 5577 C 519.748 0.034243 -4.81188 0
M  V30 5578 C 522.1 -0.358738 -5.19964 0
M  V30 5579 C 519.428 -0.893479 -5.79857 0
M  V30 5580 C 521.78 -1.27466 -6.19625 0
M  V30 5581 C 520.444 -1.54698 -6.49326 0
M  V30 5582 H 519.714 0.227541 -0.705199 0
M  V30 5583 H 522.361 -0.118432 -1.91133 0
M  V30 5584 H 520.666 2.07161 -3.32553 0
M  V30 5585 H 522.363 1.78424 -3.59118 0
M  V30 5586 H 518.953 0.513581 -4.25512 0
M  V30 5587 H 523.137 -0.168133 -4.96015 0
M  V30 5588 H 518.393 -1.11193 -6.01204 0
M  V30 5589 H 522.567 -1.78953 -6.73015 0
M  V30 5590 H 520.194 -2.26748 -7.25596 0
M  V30 5591 N 521.769 1.56035 0.221574 0
M  V30 5592 C 523.016 1.79047 0.94597 0
M  V30 5593 C 523.344 0.62057 1.84334 0
M  V30 5594 O 522.599 -0.395053 1.91671 0
M  V30 5595 C 522.898 3.07813 1.8162 0
M  V30 5596 C 522.564 4.3797 1.07206 0
M  V30 5597 C 521.226 4.73334 0.866508 0
M  V30 5598 C 523.578 5.18326 0.546565 0
M  V30 5599 C 520.906 5.8657 0.123549 0
M  V30 5600 C 523.258 6.32335 -0.18305 0
M  V30 5601 C 521.922 6.66301 -0.399861 0
M  V30 5602 H 521.192 0.655178 0.346155 0
M  V30 5603 H 523.839 1.90299 0.214146 0
M  V30 5604 H 522.144 2.91682 2.61589 0
M  V30 5605 H 523.841 3.2282 2.37884 0
M  V30 5606 H 520.431 4.10202 1.24226 0
M  V30 5607 H 524.615 4.9144 0.692847 0
M  V30 5608 H 519.871 6.11376 -0.0546591 0
M  V30 5609 H 524.045 6.9383 -0.59775 0
M  V30 5610 H 521.672 7.53889 -0.977489 0
M  V30 5611 N 523.247 -0.488276 1.49845 0
M  V30 5612 C 524.194 -1.58836 1.67451 0
M  V30 5613 C 525.164 -1.57886 0.515857 0
M  V30 5614 O 526.349 -1.75679 0.744403 0
M  V30 5615 C 523.489 -2.96915 1.75885 0
M  V30 5616 C 522.602 -3.07784 3.03138 0
M  V30 5617 C 521.737 -4.36673 3.02473 0
M  V30 5618 C 520.776 -4.41222 4.24252 0
M  V30 5619 N 519.913 -5.61557 4.21424 0
M  V30 5620 H 524.753 -1.43131 2.61376 0
M  V30 5621 H 522.29 -0.696186 1.29583 0
M  V30 5622 H 524.248 -3.76965 1.78755 0
M  V30 5623 H 522.878 -3.11295 0.85414 0
M  V30 5624 H 521.93 -2.20717 3.09819 0
M  V30 5625 H 523.242 -3.07005 3.93128 0
M  V30 5626 H 522.396 -5.25055 3.03977 0
M  V30 5627 H 521.135 -4.40037 2.10283 0
M  V30 5628 H 520.14 -3.5124 4.22978 0
M  V30 5629 H 521.365 -4.39564 5.17649 0
M  V30 5630 H 519.311 -5.65738 3.32078 0
M  V30 5631 H 519.228 -5.62447 5.05163 0
M  V30 5632 H 520.496 -6.52111 4.2705 0
M  V30 5633 N 524.725 -1.39134 -0.740242 0
M  V30 5634 C 525.673 -1.3757 -1.87556 0
M  V30 5635 C 526.667 -0.259593 -1.67399 0
M  V30 5636 O 527.873 -0.429349 -1.74804 0
M  V30 5637 H 524.248 -0.42947 -0.6173 0
M  V30 5638 H 526.219 -2.33345 -1.85991 0
M  V30 5639 C 524.968 -1.23087 -3.25184 0
M  V30 5640 H 524.291 -2.08237 -3.41288 0
M  V30 5641 H 525.731 -1.26049 -4.0483 0
M  V30 5642 C 524.19 0.0611471 -3.36845 0
M  V30 5643 O 524.72 1.03328 -3.88183 0
M  V30 5644 N 522.926 0.122454 -2.90342 0
M  V30 5645 H 522.473 -0.669329 -2.48752 0
M  V30 5646 H 522.431 0.986463 -2.98523 0
M  V30 5647 N 526.204 0.969867 -1.24223 0
M  V30 5648 C 527.481 1.68774 -0.988664 0
M  V30 5649 C 527.861 2.05342 0.489673 0
M  V30 5650 O 527.209 1.75486 1.46345 0
M  V30 5651 C 527.419 2.92135 -1.90941 0
M  V30 5652 C 528.767 3.64422 -2.17903 0
M  V30 5653 O 529.791 3.02188 -1.88576 0
M  V30 5654 O 528.65 4.76446 -2.67697 0
M  V30 5655 H 525.744 0.737736 -0.37373 0
M  V30 5656 H 528.29 1.02415 -1.35312 0
M  V30 5657 H 527.062 2.61788 -2.90831 0
M  V30 5658 H 526.685 3.66228 -1.54798 0
M  V30 5659 N 527.682 1.05563 1.17022 0
M  V30 5660 C 528.614 0.617888 2.20714 0
M  V30 5661 C 529.627 -0.320303 1.59618 0
M  V30 5662 O 530.816 -0.112449 1.78145 0
M  V30 5663 C 527.916 -0.115333 3.38704 0
M  V30 5664 C 527.089 0.834493 4.29366 0
M  V30 5665 C 526.148 0.141855 5.26009 0
M  V30 5666 O 525.174 0.777151 5.6387 0
M  V30 5667 N 526.376 -1.11934 5.69606 0
M  V30 5668 H 529.141 1.50981 2.58892 0
M  V30 5669 H 526.702 0.938008 1.31958 0
M  V30 5670 H 528.694 -0.588918 4.00392 0
M  V30 5671 H 527.264 -0.908967 2.99093 0
M  V30 5672 H 526.484 1.48762 3.65053 0
M  V30 5673 H 527.772 1.4791 4.86827 0
M  V30 5674 H 527.17 -1.65574 5.40927 0
M  V30 5675 H 525.727 -1.53692 6.33421 0
M  V30 5676 N 529.16 -1.33526 0.837174 0
M  V30 5677 C 530.406 -1.98541 0.44193 0
M  V30 5678 C 530.761 -1.65124 -0.987517 0
M  V30 5679 O 530.054 -0.919948 -1.6807 0
M  V30 5680 C 530.248 -3.52367 0.597675 0
M  V30 5681 C 530.077 -4.00731 2.04071 0
M  V30 5682 C 528.847 -4.28649 2.67559 0
M  V30 5683 C 531.045 -4.17073 3.00923 0
M  V30 5684 N 529.027 -4.63142 4.02955 0
M  V30 5685 C 530.398 -4.54905 4.21261 0
M  V30 5686 C 532.453 -3.99358 2.97351 0
M  V30 5687 C 531.156 -4.76874 5.38501 0
M  V30 5688 C 533.182 -4.22501 4.1382 0
M  V30 5689 C 532.544 -4.60634 5.32912 0
M  V30 5690 H 528.643 -0.753246 0.210105 0
M  V30 5691 H 531.227 -1.61674 1.08488 0
M  V30 5692 H 529.398 -3.88397 -0.0154658 0
M  V30 5693 H 531.13 -4.04326 0.17404 0
M  V30 5694 H 527.885 -4.20077 2.18706 0
M  V30 5695 H 528.309 -4.84601 4.72748 0
M  V30 5696 H 532.951 -3.68993 2.06408 0
M  V30 5697 H 530.669 -5.06101 6.2999 0
M  V30 5698 H 534.255 -4.10316 4.12471 0
M  V30 5699 H 533.135 -4.78187 6.21536 0
M  V30 5700 N 530.638 -0.59345 -1.46 0
M  V30 5701 C 531.588 0.154751 -2.27474 0
M  V30 5702 C 532.572 0.851849 -1.365 0
M  V30 5703 O 533.764 0.744171 -1.60596 0
M  V30 5704 C 530.893 1.16079 -3.2308 0
M  V30 5705 C 529.979 0.465256 -4.2154 0
M  V30 5706 N 530.37 -0.485197 -5.03467 0
M  V30 5707 C 528.668 0.714634 -4.40237 0
M  V30 5708 C 529.369 -0.892709 -5.74809 0
M  V30 5709 N 528.345 -0.239511 -5.43072 0
M  V30 5710 H 532.147 -0.57546 -2.88211 0
M  V30 5711 H 529.661 -0.416046 -1.5698 0
M  V30 5712 H 531.658 1.71108 -3.80168 0
M  V30 5713 H 530.318 1.89171 -2.63903 0
M  V30 5714 H 531.329 -0.861258 -5.10689 0
M  V30 5715 H 528.006 1.43131 -3.92199 0
M  V30 5716 H 529.396 -1.67581 -6.50666 0
M  V30 5717 N 532.116 1.54067 -0.331816 0
M  V30 5718 C 533.362 2.01713 0.261395 0
M  V30 5719 C 533.717 1.21566 1.49129 0
M  V30 5720 O 533.01 0.291867 1.89364 0
M  V30 5721 C 533.204 3.51634 0.639392 0
M  V30 5722 C 533.033 4.46295 -0.552321 0
M  V30 5723 C 531.803 4.94185 -1.05399 0
M  V30 5724 C 534.001 4.94677 -1.40711 0
M  V30 5725 N 531.983 5.7277 -2.20925 0
M  V30 5726 C 533.354 5.71267 -2.40943 0
M  V30 5727 C 535.409 4.76805 -1.43392 0
M  V30 5728 C 534.112 6.31889 -3.4367 0
M  V30 5729 C 536.138 5.38268 -2.44994 0
M  V30 5730 C 535.5 6.14716 -3.43952 0
M  V30 5731 H 531.599 0.77975 0.0592729 0
M  V30 5732 H 534.183 1.88974 -0.468726 0
M  V30 5733 H 532.354 3.64603 1.33863 0
M  V30 5734 H 534.086 3.86038 1.21478 0
M  V30 5735 H 530.841 4.69472 -0.623952 0
M  V30 5736 H 531.265 6.16737 -2.79222 0
M  V30 5737 H 535.907 4.17255 -0.682489 0
M  V30 5738 H 533.625 6.90554 -4.19715 0
M  V30 5739 H 537.211 5.26352 -2.4788 0
M  V30 5740 H 536.091 6.6143 -4.21283 0
M  V30 5741 N 533.594 0.0601682 1.57485 0
M  V30 5742 C 534.871 -0.651956 1.84415 0
M  V30 5743 C 535.251 -1.88498 0.950361 0
M  V30 5744 O 534.599 -2.28496 0.0136719 0
M  V30 5745 C 534.809 -1.00069 3.34346 0
M  V30 5746 C 536.157 -1.37915 4.01578 0
M  V30 5747 O 537.181 -1.09277 3.39024 0
M  V30 5748 O 536.04 -1.91399 5.11887 0
M  V30 5749 H 533.134 -0.322668 0.761455 0
M  V30 5750 H 535.68 0.0902159 1.6946 0
M  V30 5751 H 534.452 -0.124463 3.91102 0
M  V30 5752 H 534.075 -1.80001 3.54521 0
M  V30 5753 N 535.072 -1.5615 -0.213296 0
M  V30 5754 C 536.02 -1.93953 -1.28394 0
M  V30 5755 C 537.014 -0.822592 -1.48087 0
M  V30 5756 O 538.22 -1.00748 -1.49164 0
M  V30 5757 H 534.595 -0.61648 -0.430646 0
M  V30 5758 H 536.566 -2.83275 -0.937977 0
M  V30 5759 C 535.315 -2.27969 -2.62537 0
M  V30 5760 H 534.638 -3.13432 -2.48194 0
M  V30 5761 H 536.078 -2.58297 -3.36242 0
M  V30 5762 C 534.537 -1.10775 -3.18167 0
M  V30 5763 O 535.067 -0.373201 -3.99963 0
M  V30 5764 N 533.273 -0.889377 -2.76656 0
M  V30 5765 H 532.82 -1.48843 -2.10246 0
M  V30 5766 H 532.778 -0.107 -3.14218 0
M  V30 5767 N 536.55 0.480323 -1.50102 0
M  V30 5768 C 537.799 1.22979 -1.59872 0
M  V30 5769 C 538.112 1.93282 -0.30022 0
M  V30 5770 O 539.318 2.70086 -0.276709 0
M  V30 5771 C 537.774 2.23408 -2.82164 0
M  V30 5772 C 537.382 1.5895 -4.18854 0
M  V30 5773 C 539.126 2.99055 -3.01275 0
M  V30 5774 C 537.033 2.57611 -5.32344 0
M  V30 5775 H 535.963 0.462707 -0.59533 0
M  V30 5776 H 538.614 0.501291 -1.7652 0
M  V30 5777 H 536.996 2.99511 -2.59055 0
M  V30 5778 H 538.17 0.887 -4.52182 0
M  V30 5779 H 536.485 0.956191 -4.05273 0
M  V30 5780 H 539.082 3.72876 -3.83233 0
M  V30 5781 H 539.425 3.57897 -2.12639 0
M  V30 5782 H 539.958 2.30066 -3.24522 0
M  V30 5783 H 536.697 2.03521 -6.23105 0
M  V30 5784 H 536.217 3.26041 -5.03445 0
M  V30 5785 H 537.896 3.19627 -5.62537 0
M  V30 5786 N 538.028 1.39524 0.732853 0
M  V30 5787 C 539.444 1.21176 1.03868 0
M  V30 5788 C 539.644 0.0748448 2.01361 0
M  V30 5789 O 538.7 -0.57281 2.45917 0
M  V30 5790 C 540.013 2.54667 1.59892 0
M  V30 5791 C 541.561 2.6153 1.71962 0
M  V30 5792 C 542.036 3.95248 2.31394 0
M  V30 5793 N 543.527 3.96899 2.38801 0
M  V30 5794 C 544.262 4.97138 2.85729 0
M  V30 5795 N 543.758 6.07775 3.32537 0
M  V30 5796 N 545.551 4.84516 2.84957 0
M  V30 5797 H 537.702 2.12225 0.086304 0
M  V30 5798 H 539.965 0.942614 0.100907 0
M  V30 5799 H 539.671 3.38423 0.95721 0
M  V30 5800 H 539.545 2.74538 2.58668 0
M  V30 5801 H 541.932 1.78156 2.35254 0
M  V30 5802 H 542.013 2.45507 0.718327 0
M  V30 5803 H 541.657 4.79054 1.68729 0
M  V30 5804 H 541.587 4.08593 3.32204 0
M  V30 5805 H 544.078 3.16998 2.05719 0
M  V30 5806 H 544.391 6.8017 3.66862 0
M  V30 5807 H 542.736 6.11366 3.30541 0
M  V30 5808 H 545.927 3.97185 2.47713 0
M  V30 5809 H 546.1 5.62783 3.21215 0
M  V30 5810 N 539.506 -0.963266 1.24736 0
M  V30 5811 C 540.416 -2.09246 1.06082 0
M  V30 5812 C 541.432 -1.74 0.000363101 0
M  V30 5813 O 542.608 -2.0041 0.199479 0
M  V30 5814 C 539.673 -3.40115 0.672498 0
M  V30 5815 C 538.734 -3.89282 1.80993 0
M  V30 5816 C 537.967 -5.13905 1.44004 0
M  V30 5817 O 538.19 -5.69434 0.331835 0
M  V30 5818 O 537.124 -5.57566 2.26723 0
M  V30 5819 H 540.95 -2.27881 2.00759 0
M  V30 5820 H 538.535 -1.07649 1.03595 0
M  V30 5821 H 540.417 -4.18797 0.467668 0
M  V30 5822 H 539.092 -3.22771 -0.245102 0
M  V30 5823 H 537.999 -3.11642 2.06955 0
M  V30 5824 H 539.332 -4.1111 2.70646 0
M  V30 5825 N 540.985 -1.06182 -1.16461 0
M  V30 5826 C 542.213 -0.798583 -1.90867 0
M  V30 5827 C 542.628 0.646921 -1.77371 0
M  V30 5828 O 541.985 1.44279 -1.11758 0
M  V30 5829 C 542.036 -1.18258 -3.4161 0
M  V30 5830 O 541.757 -2.57135 -3.54701 0
M  V30 5831 C 543.258 -0.946917 -4.33069 0
M  V30 5832 H 540.478 -0.289603 -0.605286 0
M  V30 5833 H 543.022 -1.41515 -1.47627 0
M  V30 5834 H 541.177 -0.610562 -3.82558 0
M  V30 5835 H 541.591 -2.72477 -4.4817 0
M  V30 5836 H 543.065 -1.26523 -5.37304 0
M  V30 5837 H 543.542 0.117406 -4.39043 0
M  V30 5838 H 544.148 -1.50326 -3.97847 0
M  V30 5839 N 542.463 1.3308 -0.844243 0
M  V30 5840 C 543.426 2.27403 -0.286485 0
M  V30 5841 C 544.426 1.51179 0.547872 0
M  V30 5842 O 545.616 1.70421 0.360886 0
M  V30 5843 C 542.748 3.35653 0.595813 0
M  V30 5844 H 543.941 2.78248 -1.11885 0
M  V30 5845 H 541.494 1.43574 -0.617749 0
M  V30 5846 H 542.229 2.90058 1.4504 0
M  V30 5847 H 542.014 3.921 -0.00125994 0
M  V30 5848 H 543.504 4.05958 0.979168 0
M  V30 5849 N 543.941 0.601185 1.45683 0
M  V30 5850 C 544.904 -0.111398 2.28929 0
M  V30 5851 C 545.904 -0.801246 1.39416 0
M  V30 5852 O 547.094 -0.650383 1.61603 0
M  V30 5853 C 544.226 -1.16773 3.20276 0
M  V30 5854 H 545.419 0.620412 2.93413 0
M  V30 5855 H 542.972 0.359946 1.52099 0
M  V30 5856 H 543.707 -1.93051 2.60579 0
M  V30 5857 H 543.492 -0.677358 3.86205 0
M  V30 5858 H 544.982 -1.66698 3.82886 0
M  V30 5859 N 545.419 -1.53889 0.339982 0
M  V30 5860 C 546.83 -1.86139 -0.144671 0
M  V30 5861 C 547.181 -1.2613 -1.50285 0
M  V30 5862 O 546.306 -0.573515 -2.08662 0
M  V30 5863 C 546.901 -3.37728 -0.269285 0
M  V30 5864 C 545.46 -3.69868 -0.698168 0
M  V30 5865 C 544.607 -2.76777 0.170249 0
M  V30 5866 H 547.558 -1.48503 0.559704 0
M  V30 5867 H 547.579 -3.64331 -1.0974 0
M  V30 5868 H 547.091 -3.81375 0.719366 0
M  V30 5869 H 545.192 -3.31764 -1.69597 0
M  V30 5870 H 545.305 -4.76582 -0.490533 0
M  V30 5871 H 543.669 -2.52188 -0.356844 0
M  V30 5872 H 544.452 -3.23253 1.15597 0
M  V30 5873 N 546.897 -0.0685191 -1.57451 0
M  V30 5874 C 548.143 0.602239 -1.93652 0
M  V30 5875 C 548.476 1.6946 -0.948526 0
M  V30 5876 O 547.751 1.94487 0.022782 0
M  V30 5877 C 548.034 1.18223 -3.4014 0
M  V30 5878 C 547.887 0.0967431 -4.49696 0
M  V30 5879 C 549.206 2.08872 -3.87377 0
M  V30 5880 H 546.325 0.217453 -0.70419 0
M  V30 5881 H 548.967 -0.133821 -1.89528 0
M  V30 5882 H 547.117 1.80953 -3.43785 0
M  V30 5883 H 548.789 -0.536155 -4.58174 0
M  V30 5884 H 547.032 -0.573063 -4.29998 0
M  V30 5885 H 547.703 0.542894 -5.49324 0
M  V30 5886 H 550.179 1.56081 -3.85717 0
M  V30 5887 H 549.055 2.46389 -4.90493 0
M  V30 5888 H 549.316 2.99572 -3.25129 0
M  V30 5889 N 548.375 1.56261 0.205012 0
M  V30 5890 C 549.621 1.80306 0.9283 0
M  V30 5891 C 549.954 0.640932 1.83319 0
M  V30 5892 O 549.229 -0.359032 1.91158 0
M  V30 5893 C 549.512 3.14547 1.75306 0
M  V30 5894 C 549.365 4.41236 0.873562 0
M  V30 5895 C 550.684 3.45382 2.72762 0
M  V30 5896 H 547.803 0.655929 0.336044 0
M  V30 5897 H 550.445 1.88984 0.196211 0
M  V30 5898 H 548.595 3.0728 2.37721 0
M  V30 5899 H 550.267 4.60539 0.264887 0
M  V30 5900 H 548.51 4.33427 0.179773 0
M  V30 5901 H 549.181 5.31639 1.48541 0
M  V30 5902 H 551.657 3.52884 2.20481 0
M  V30 5903 H 550.533 4.40449 3.2756 0
M  V30 5904 H 550.794 2.68377 3.51321 0
M  V30 5905 N 549.853 -0.472356 1.50355 0
M  V30 5906 C 551.264 -1.05326 1.54154 0
M  V30 5907 C 551.615 -1.93155 0.344303 0
M  V30 5908 O 550.74 -2.09479 -0.542928 0
M  V30 5909 C 551.335 -1.91691 2.79356 0
M  V30 5910 C 549.894 -2.44892 2.8584 0
M  V30 5911 C 549.041 -1.23205 2.48426 0
M  V30 5912 H 551.992 -0.255027 1.56637 0
M  V30 5913 H 552.013 -2.76742 2.6114 0
M  V30 5914 H 551.525 -1.27741 3.66475 0
M  V30 5915 H 549.626 -3.12399 2.0307 0
M  V30 5916 H 549.739 -2.80086 3.88701 0
M  V30 5917 H 548.103 -1.56643 2.00836 0
M  V30 5918 H 548.886 -0.609194 3.37852 0
M  V30 5919 N 551.331 -1.39911 -0.725443 0
M  V30 5920 C 552.241 -1.41688 -1.8698 0
M  V30 5921 C 553.257 -0.310579 -1.71206 0
M  V30 5922 O 554.433 -0.55359 -1.93642 0
M  V30 5923 C 551.498 -1.26811 -3.22676 0
M  V30 5924 C 550.559 -2.47497 -3.50776 0
M  V30 5925 C 549.792 -2.3332 -4.79997 0
M  V30 5926 O 550.015 -1.34175 -5.54394 0
M  V30 5927 O 548.949 -3.22498 -5.08211 0
M  V30 5928 H 552.775 -2.38171 -1.88436 0
M  V30 5929 H 550.36 -1.21128 -0.874548 0
M  V30 5930 H 552.242 -1.20684 -4.03749 0
M  V30 5931 H 550.917 -0.334289 -3.21969 0
M  V30 5932 H 549.824 -2.59201 -2.69751 0
M  V30 5933 H 551.157 -3.39606 -3.5627 0
M  V30 5934 N 552.809 0.956637 -1.25245 0
M  V30 5935 C 553.739 2.07058 -1.07931 0
M  V30 5936 C 554.72 1.70096 0.0110361 0
M  V30 5937 O 555.905 1.93555 -0.158121 0
M  V30 5938 C 553.035 3.40272 -0.695124 0
M  V30 5939 C 551.989 3.91235 -1.73549 0
M  V30 5940 C 551.315 5.20921 -1.20604 0
M  V30 5941 C 552.615 4.17837 -3.13385 0
M  V30 5942 H 554.309 2.218 -2.01109 0
M  V30 5943 H 551.855 1.06581 -0.968326 0
M  V30 5944 H 553.808 4.1765 -0.560949 0
M  V30 5945 H 552.532 3.25462 0.272355 0
M  V30 5946 H 551.191 3.16025 -1.85807 0
M  V30 5947 H 550.839 5.02479 -0.228846 0
M  V30 5948 H 550.539 5.55987 -1.90136 0
M  V30 5949 H 552.063 6.00897 -1.08421 0
M  V30 5950 H 553.477 4.8588 -3.04292 0
M  V30 5951 H 551.874 4.64154 -3.80369 0
M  V30 5952 H 552.944 3.2419 -3.60595 0
M  V30 5953 N 554.287 1.06798 1.15896 0
M  V30 5954 C 555.512 0.808739 1.90982 0
M  V30 5955 C 555.937 -0.6316 1.77179 0
M  V30 5956 O 555.295 -1.4407 1.10061 0
M  V30 5957 C 555.343 1.21468 3.39526 0
M  V30 5958 O 554.447 0.356562 4.10856 0
M  V30 5959 H 553.788 0.29512 0.594811 0
M  V30 5960 H 556.318 1.42513 1.46804 0
M  V30 5961 H 556.328 1.18844 3.90308 0
M  V30 5962 H 555.003 2.26379 3.48891 0
M  V30 5963 H 553.58 0.444808 3.70238 0
M  V30 5964 N 555.766 -1.3263 0.851289 0
M  V30 5965 C 556.991 -2.02097 0.466006 0
M  V30 5966 C 557.416 -1.63574 -0.928709 0
M  V30 5967 O 556.774 -0.834665 -1.60944 0
M  V30 5968 C 556.822 -3.55425 0.608737 0
M  V30 5969 O 555.926 -4.10827 -0.359878 0
M  V30 5970 H 555.267 -0.636911 0.187724 0
M  V30 5971 H 557.797 -1.69253 1.14955 0
M  V30 5972 H 557.807 -4.04986 0.495006 0
M  V30 5973 H 556.482 -3.82806 1.62581 0
M  V30 5974 H 555.059 -3.72349 -0.202666 0
M  V30 5975 N 557.244 -0.608902 -1.45362 0
M  V30 5976 C 558.521 -0.0365378 -1.95566 0
M  V30 5977 C 558.901 1.43169 -1.55131 0
M  V30 5978 O 558.249 2.1349 -0.814513 0
M  V30 5979 C 558.459 -0.236026 -3.48201 0
M  V30 5980 C 559.807 -0.117518 -4.24437 0
M  V30 5981 O 560.831 -0.166217 -3.55812 0
M  V30 5982 O 559.69 -0.00372127 -5.465 0
M  V30 5983 H 556.784 0.0349874 -0.82626 0
M  V30 5984 H 559.33 -0.679055 -1.55521 0
M  V30 5985 H 558.102 -1.25569 -3.70605 0
M  V30 5986 H 557.725 0.441691 -3.95139 0
M  V30 5987 N 558.722 1.53707 -0.348139 0
M  V30 5988 C 559.971 2.0017 0.247992 0
M  V30 5989 C 560.284 1.23983 1.51286 0
M  V30 5990 O 561.49 1.60946 2.18652 0
M  V30 5991 C 559.946 3.56515 0.492459 0
M  V30 5992 C 559.554 4.41562 -0.756777 0
M  V30 5993 C 561.298 4.11381 1.0472 0
M  V30 5994 C 559.205 5.89426 -0.482856 0
M  V30 5995 H 558.135 0.747806 0.0964452 0
M  V30 5996 H 560.786 1.77532 -0.464179 0
M  V30 5997 H 559.168 3.75236 1.26545 0
M  V30 5998 H 560.342 4.34615 -1.53122 0
M  V30 5999 H 558.657 3.97711 -1.23348 0
M  V30 6000 H 561.254 5.19468 1.26717 0
M  V30 6001 H 561.597 3.64885 2.00411 0
M  V30 6002 H 562.13 3.96389 0.334801 0
M  V30 6003 H 558.869 6.40164 -1.40962 0
M  V30 6004 H 558.389 5.99264 0.253416 0
M  V30 6005 H 560.068 6.4692 -0.101816 0
M  V30 6006 N 560.2 0.0768682 1.57412 0
M  V30 6007 C 561.477 -0.632359 1.85096 0
M  V30 6008 C 561.857 -1.87479 0.9703 0
M  V30 6009 O 561.205 -2.28469 0.0379062 0
M  V30 6010 C 561.415 -0.965174 3.35388 0
M  V30 6011 C 562.763 -1.33648 4.03018 0
M  V30 6012 O 563.787 -1.05675 3.40164 0
M  V30 6013 O 562.646 -1.85959 5.13889 0
M  V30 6014 H 559.74 -0.314574 0.764835 0
M  V30 6015 H 562.286 0.108184 1.69355 0
M  V30 6016 H 561.058 -0.0829745 3.91212 0
M  V30 6017 H 560.681 -1.76231 3.5641 0
M  V30 6018 N 561.678 -1.56367 -0.196722 0
M  V30 6019 C 562.903 -1.84991 -0.937714 0
M  V30 6020 C 563.328 -0.660244 -1.76132 0
M  V30 6021 O 562.686 0.390967 -1.77034 0
M  V30 6022 C 562.734 -3.11828 -1.81096 0
M  V30 6023 O 561.838 -2.92266 -2.90955 0
M  V30 6024 H 561.179 -0.609193 -0.264159 0
M  V30 6025 H 563.709 -2.03595 -0.202529 0
M  V30 6026 H 563.719 -3.42579 -2.21594 0
M  V30 6027 H 562.394 -3.98037 -1.2058 0
M  V30 6028 H 560.971 -2.72809 -2.54224 0
M  V30 6029 N 563.156 0.464375 -1.50603 0
M  V30 6030 C 564.381 1.24372 -1.65971 0
M  V30 6031 C 564.806 1.84901 -0.345453 0
M  V30 6032 O 564.164 1.67596 0.691457 0
M  V30 6033 C 564.212 2.32331 -2.7578 0
M  V30 6034 O 563.316 3.37146 -2.375 0
M  V30 6035 H 562.657 0.365604 -0.554283 0
M  V30 6036 H 565.187 0.55183 -1.97018 0
M  V30 6037 H 565.197 2.77539 -2.99059 0
M  V30 6038 H 563.872 1.87648 -3.71162 0
M  V30 6039 H 562.449 2.97602 -2.24694 0
M  V30 6040 N 564.634 1.40294 0.718013 0
M  V30 6041 C 565.582 1.40536 1.85344 0
M  V30 6042 C 566.576 0.286192 1.66965 0
M  V30 6043 O 567.782 0.457105 1.74099 0
M  V30 6044 H 564.157 0.439236 0.61039 0
M  V30 6045 H 566.128 2.36275 1.82255 0
M  V30 6046 C 564.877 1.28245 3.23185 0
M  V30 6047 H 564.2 2.1364 3.37932 0
M  V30 6048 H 565.64 1.32474 4.02774 0
M  V30 6049 C 564.099 -0.0075503 3.36899 0
M  V30 6050 O 564.629 -0.971391 3.89778 0
M  V30 6051 N 562.835 -0.0762479 2.905 0
M  V30 6052 H 562.382 0.708819 2.47656 0
M  V30 6053 H 562.34 -0.938846 3.00055 0
M  V30 6054 N 566.112 -0.949982 1.2575 0
M  V30 6055 C 567.359 -1.69515 1.10774 0
M  V30 6056 C 567.687 -1.91316 -0.350479 0
M  V30 6057 O 566.942 -1.48515 -1.27443 0
M  V30 6058 C 567.241 -3.08039 1.81237 0
M  V30 6059 C 566.907 -3.06023 3.31151 0
M  V30 6060 C 565.569 -3.0518 3.72047 0
M  V30 6061 C 567.921 -2.98998 4.26907 0
M  V30 6062 C 565.249 -2.95067 5.07102 0
M  V30 6063 C 567.601 -2.90426 5.61992 0
M  V30 6064 C 566.265 -2.87922 6.0221 0
M  V30 6065 H 565.535 -0.6203 0.405351 0
M  V30 6066 H 568.182 -1.10953 1.56082 0
M  V30 6067 H 566.487 -3.70172 1.28373 0
M  V30 6068 H 568.184 -3.64526 1.67098 0
M  V30 6069 H 564.774 -3.07453 2.98614 0
M  V30 6070 H 568.958 -2.98764 3.963 0
M  V30 6071 H 564.214 -2.915 5.37436 0
M  V30 6072 H 568.388 -2.83952 6.35881 0
M  V30 6073 H 566.015 -2.79841 7.06819 0
M  V30 6074 N 567.59 -1.07411 -1.15328 0
M  V30 6075 C 568.867 -0.710732 -1.82231 0
M  V30 6076 C 569.247 0.806732 -1.95077 0
M  V30 6077 O 568.595 1.72139 -1.50268 0
M  V30 6078 C 568.805 -1.42586 -3.18544 0
M  V30 6079 C 570.153 -1.57836 -3.94174 0
M  V30 6080 O 571.177 -1.38669 -3.281 0
M  V30 6081 O 570.036 -1.8938 -5.12638 0
M  V30 6082 H 567.13 -0.25297 -0.78736 0
M  V30 6083 H 569.676 -1.17508 -1.22434 0
M  V30 6084 H 568.448 -2.46008 -3.04296 0
M  V30 6085 H 568.071 -0.952332 -3.86026 0
M  V30 6086 N 569.068 1.32177 -0.85831 0
M  V30 6087 C 570.345 1.91781 -0.384624 0
M  V30 6088 C 570.725 1.78171 1.13217 0
M  V30 6089 O 570.073 1.18209 1.95548 0
M  V30 6090 C 570.283 3.38414 -0.853047 0
M  V30 6091 C 571.631 4.15542 -0.872359 0
M  V30 6092 O 572.655 3.47148 -0.797926 0
M  V30 6093 O 571.514 5.37678 -0.978009 0
M  V30 6094 H 568.608 0.819259 -0.112886 0
M  V30 6095 H 571.154 1.40923 -0.945453 0
M  V30 6096 H 569.926 3.4228 -1.89632 0
M  V30 6097 H 569.549 3.96683 -0.269874 0
M  V30 6098 N 570.547 0.616602 1.45037 0
M  V30 6099 C 571.796 0.112861 2.01384 0
M  V30 6100 C 572.109 -1.26758 1.48969 0
M  V30 6101 O 573.315 -1.86454 1.9735 0
M  V30 6102 C 571.771 0.151057 3.59583 0
M  V30 6103 C 571.379 1.53191 4.20995 0
M  V30 6104 C 573.123 -0.296974 4.2346 0
M  V30 6105 C 571.03 1.526 5.71373 0
M  V30 6106 H 569.96 0.0384254 0.75302 0
M  V30 6107 H 572.611 0.773262 1.66412 0
M  V30 6108 H 570.993 -0.57617 3.91786 0
M  V30 6109 H 572.167 2.28156 4.00352 0
M  V30 6110 H 570.482 1.92279 3.69348 0
M  V30 6111 H 573.079 -0.320712 5.33737 0
M  V30 6112 H 573.422 -1.32145 3.9477 0
M  V30 6113 H 573.955 0.377279 3.96007 0
M  V30 6114 H 570.694 2.52837 6.04776 0
M  V30 6115 H 570.214 0.819064 5.94181 0
M  V30 6116 H 571.893 1.25357 6.3474 0
M  V30 6117 N 572.025 -1.5352 0.356285 0
M  V30 6118 C 572.935 -2.29151 -0.502712 0
M  V30 6119 C 573.951 -1.34753 -1.1008 0
M  V30 6120 O 575.127 -1.67803 -1.11374 0
M  V30 6121 C 572.192 -3.05911 -1.63154 0
M  V30 6122 C 571.253 -4.15958 -1.06194 0
M  V30 6123 C 570.486 -4.8905 -2.13696 0
M  V30 6124 O 570.709 -4.61919 -3.34645 0
M  V30 6125 O 569.643 -5.75202 -1.77275 0
M  V30 6126 H 573.469 -3.03492 0.112466 0
M  V30 6127 H 571.054 -1.4891 0.120942 0
M  V30 6128 H 572.936 -3.53874 -2.28804 0
M  V30 6129 H 571.611 -2.34415 -2.23229 0
M  V30 6130 H 570.518 -3.7227 -0.369603 0
M  V30 6131 H 571.851 -4.89593 -0.505872 0
M  V30 6132 N 573.503 -0.0852151 -1.57369 0
M  V30 6133 C 574.78 0.622534 -1.85429 0
M  V30 6134 C 575.16 1.86962 -0.980229 0
M  V30 6135 O 574.508 2.28445 -0.0500219 0
M  V30 6136 C 574.718 0.947374 -3.35896 0
M  V30 6137 C 576.066 1.31509 -4.03721 0
M  V30 6138 O 577.09 1.03869 -3.40719 0
M  V30 6139 O 575.949 1.83231 -5.14868 0
M  V30 6140 H 573.043 0.310513 -0.766492 0
M  V30 6141 H 575.589 -0.117164 -1.69295 0
M  V30 6142 H 574.361 0.0622264 -3.91251 0
M  V30 6143 H 573.984 1.74338 -3.5734 0
M  V30 6144 N 574.981 1.5647 0.188427 0
M  V30 6145 C 576.258 1.71857 0.934058 0
M  V30 6146 C 576.638 0.641867 2.01105 0
M  V30 6147 O 575.986 -0.346098 2.25864 0
M  V30 6148 C 576.196 3.14431 1.5144 0
M  V30 6149 C 577.544 3.74869 1.99396 0
M  V30 6150 O 578.568 3.17601 1.61269 0
M  V30 6151 O 577.427 4.75387 2.69573 0
M  V30 6152 H 574.521 0.701186 0.438483 0
M  V30 6153 H 577.067 1.68768 0.177599 0
M  V30 6154 H 575.839 3.8427 0.738416 0
M  V30 6155 H 575.462 3.21775 2.33552 0
M  V30 6156 N 576.459 -0.456382 1.50847 0
M  V30 6157 C 577.406 -1.55249 1.70782 0
M  V30 6158 C 578.376 -1.56757 0.549231 0
M  V30 6159 O 579.561 -1.74061 0.7815 0
M  V30 6160 C 576.701 -2.93118 1.82143 0
M  V30 6161 C 575.814 -3.01285 3.09598 0
M  V30 6162 C 574.949 -4.30159 3.11667 0
M  V30 6163 C 573.988 -4.32124 4.33515 0
M  V30 6164 N 573.125 -5.52492 4.3324 0
M  V30 6165 H 577.965 -1.37555 2.64353 0
M  V30 6166 H 575.502 -0.668543 1.3103 0
M  V30 6167 H 577.46 -3.73088 1.86711 0
M  V30 6168 H 576.09 -3.09413 0.919978 0
M  V30 6169 H 575.142 -2.14096 3.14431 0
M  V30 6170 H 576.454 -2.98597 3.99551 0
M  V30 6171 H 575.608 -5.18489 3.15046 0
M  V30 6172 H 574.347 -4.35477 2.1957 0
M  V30 6173 H 573.352 -3.42189 4.30333 0
M  V30 6174 H 574.577 -4.28485 5.26856 0
M  V30 6175 H 572.523 -5.58567 3.44004 0
M  V30 6176 H 572.44 -5.51605 5.16979 0
M  V30 6177 H 573.708 -6.42906 4.40786 0
M  V30 6178 N 577.937 -1.40673 -0.710563 0
M  V30 6179 C 579.185 -1.38947 -1.46759 0
M  V30 6180 C 579.506 0.00572879 -1.94999 0
M  V30 6181 O 578.776 0.961358 -1.70689 0
M  V30 6182 H 577.356 -0.5114 -0.544499 0
M  V30 6183 H 580.018 -1.75773 -0.842012 0
M  V30 6184 H 579.114 -2.06745 -2.33801 0
M  V30 6185 N 579.415 0.9433 -1.26252 0
M  V30 6186 C 580.692 1.66639 -1.02424 0
M  V30 6187 C 581.072 2.06335 0.446006 0
M  V30 6188 O 580.42 1.78551 1.42589 0
M  V30 6189 C 580.63 2.88019 -1.97094 0
M  V30 6190 C 581.978 3.59718 -2.25584 0
M  V30 6191 O 583.002 2.9812 -1.94943 0
M  V30 6192 O 581.861 4.7066 -2.77743 0
M  V30 6193 H 578.955 0.729643 -0.389294 0
M  V30 6194 H 581.501 0.995218 -1.37454 0
M  V30 6195 H 580.273 2.5556 -2.96319 0
M  V30 6196 H 579.896 3.62863 -1.62532 0
M  V30 6197 N 580.893 1.08022 1.14757 0
M  V30 6198 C 582.139 0.808705 1.85978 0
M  V30 6199 C 582.472 -0.663764 1.82504 0
M  V30 6200 O 581.747 -1.48765 1.25296 0
M  V30 6201 C 582.03 1.32623 3.34788 0
M  V30 6202 C 581.883 2.86375 3.46856 0
M  V30 6203 C 583.202 0.948291 4.29762 0
M  V30 6204 H 580.321 0.295244 0.675278 0
M  V30 6205 H 582.963 1.33917 1.34783 0
M  V30 6206 H 581.113 0.875002 3.78518 0
M  V30 6207 H 582.785 3.39839 3.11941 0
M  V30 6208 H 581.028 3.24232 2.88194 0
M  V30 6209 H 581.699 3.17658 4.51439 0
M  V30 6210 H 584.175 1.33722 3.94028 0
M  V30 6211 H 583.051 1.33765 5.32352 0
M  V30 6212 H 583.312 -0.145094 4.41862 0
M  V30 6213 N 582.371 -1.3172 0.865308 0
M  V30 6214 C 583.281 -2.32394 0.320935 0
M  V30 6215 C 584.297 -1.64511 -0.566746 0
M  V30 6216 O 585.473 -1.95969 -0.464575 0
M  V30 6217 C 582.538 -3.43462 -0.472701 0
M  V30 6218 C 581.599 -4.27015 0.442385 0
M  V30 6219 C 580.832 -5.32779 -0.313469 0
M  V30 6220 O 581.055 -5.49158 -1.54214 0
M  V30 6221 O 579.989 -6.01015 0.326257 0
M  V30 6222 H 583.815 -2.80868 1.15528 0
M  V30 6223 H 581.4 -1.35535 0.628545 0
M  V30 6224 H 583.282 -4.11172 -0.922781 0
M  V30 6225 H 581.957 -2.97159 -1.28367 0
M  V30 6226 H 580.864 -3.62075 0.940866 0
M  V30 6227 H 582.197 -4.76871 1.21882 0
M  V30 6228 N 583.85 -0.624285 -1.44708 0
M  V30 6229 C 585.077 -0.132919 -2.06473 0
M  V30 6230 C 585.493 1.18967 -1.46602 0
M  V30 6231 O 584.85 1.72824 -0.586341 0
M  V30 6232 C 584.901 -0.00465418 -3.615 0
M  V30 6233 O 584.622 -1.27494 -4.19138 0
M  V30 6234 C 586.123 0.516213 -4.40284 0
M  V30 6235 H 583.343 -0.0765201 -0.666623 0
M  V30 6236 H 585.887 -0.856751 -1.85688 0
M  V30 6237 H 584.042 0.669583 -3.8157 0
M  V30 6238 H 584.456 -1.11536 -5.12504 0
M  V30 6239 H 585.93 0.554994 -5.49203 0
M  V30 6240 H 586.407 1.5419 -4.11245 0
M  V30 6241 H 587.013 -0.124542 -4.25118 0
M  V30 6242 N 585.328 1.53329 -0.364422 0
M  V30 6243 C 586.575 2.01239 0.225634 0
M  V30 6244 C 586.903 1.25172 1.48869 0
M  V30 6245 O 586.158 0.333289 1.92841 0
M  V30 6246 C 586.457 3.52911 0.564661 0
M  V30 6247 C 586.123 4.46837 -0.603936 0
M  V30 6248 C 584.785 4.72234 -0.924585 0
M  V30 6249 C 587.137 5.02409 -1.38691 0
M  V30 6250 C 584.465 5.50454 -2.0302 0
M  V30 6251 C 586.817 5.81836 -2.48293 0
M  V30 6252 C 585.481 6.0552 -2.80894 0
M  V30 6253 H 584.751 0.736386 0.0825654 0
M  V30 6254 H 587.398 1.84948 -0.496645 0
M  V30 6255 H 585.703 3.67144 1.36794 0
M  V30 6256 H 587.4 3.87455 1.03344 0
M  V30 6257 H 583.99 4.27217 -0.343983 0
M  V30 6258 H 588.174 4.82735 -1.15243 0
M  V30 6259 H 583.43 5.67024 -2.28678 0
M  V30 6260 H 587.604 6.23905 -3.0938 0
M  V30 6261 H 585.231 6.65916 -3.66688 0
M  V30 6262 N 586.806 0.0935595 1.57322 0
M  V30 6263 C 588.217 -0.435807 1.81542 0
M  V30 6264 C 588.568 -1.68263 1.00907 0
M  V30 6265 O 587.693 -2.15087 0.237983 0
M  V30 6266 C 588.288 -0.797436 3.29282 0
M  V30 6267 C 586.847 -1.27155 3.54272 0
M  V30 6268 C 585.994 -0.267455 2.76007 0
M  V30 6269 H 588.945 0.31902 1.5546 0
M  V30 6270 H 588.966 -1.6571 3.42521 0
M  V30 6271 H 588.478 0.110206 3.87943 0
M  V30 6272 H 586.579 -2.19696 3.00939 0
M  V30 6273 H 586.692 -1.23445 4.62923 0
M  V30 6274 H 585.056 -0.749282 2.43429 0
M  V30 6275 H 585.839 0.632839 3.37417 0
M  V30 6276 N 588.284 -1.56567 -0.180126 0
M  V30 6277 C 589.533 -1.80685 -0.896426 0
M  V30 6278 C 589.846 -0.669335 -1.83791 0
M  V30 6279 O 591.052 -0.795209 -2.59593 0
M  V30 6280 C 589.508 -3.20132 -1.6445 0
M  V30 6281 C 589.116 -4.41727 -0.747088 0
M  V30 6282 C 590.86 -3.53549 -2.34955 0
M  V30 6283 C 588.767 -5.72195 -1.49489 0
M  V30 6284 H 587.697 -0.673758 -0.338477 0
M  V30 6285 H 590.348 -1.8289 -0.149467 0
M  V30 6286 H 588.73 -3.12218 -2.43589 0
M  V30 6287 H 589.904 -4.608 0.00671129 0
M  V30 6288 H 588.219 -4.16122 -0.152134 0
M  V30 6289 H 590.816 -4.48267 -2.91481 0
M  V30 6290 H 591.159 -2.78006 -3.09868 0
M  V30 6291 H 591.692 -3.62976 -1.62768 0
M  V30 6292 H 588.431 -6.50743 -0.788251 0
M  V30 6293 H 587.951 -5.57115 -2.22224 0
M  V30 6294 H 589.63 -6.1384 -2.04472 0
M  V30 6295 N 589.762 0.448376 -1.51087 0
M  V30 6296 C 591.173 1.0286 -1.5581 0
M  V30 6297 C 591.524 1.92583 -0.374989 0
M  V30 6298 O 590.649 2.10316 0.509533 0
M  V30 6299 C 591.244 1.87223 -2.8237 0
M  V30 6300 C 589.803 2.40314 -2.897 0
M  V30 6301 C 588.95 1.19238 -2.50355 0
M  V30 6302 H 591.901 0.230075 -1.57023 0
M  V30 6303 H 591.922 2.72553 -2.6551 0
M  V30 6304 H 591.434 1.21894 -3.68461 0
M  V30 6305 H 589.535 3.09129 -2.08014 0
M  V30 6306 H 589.648 2.73866 -3.93108 0
M  V30 6307 H 588.012 1.53428 -2.03303 0
M  V30 6308 H 588.795 0.555367 -3.38778 0
M  V30 6309 N 591.24 1.41047 0.703093 0
M  V30 6310 C 592.187 1.42302 1.81711 0
M  V30 6311 C 593.157 0.278336 1.63751 0
M  V30 6312 O 594.342 0.478266 1.84709 0
M  V30 6313 C 591.482 1.30362 3.19531 0
M  V30 6314 C 590.595 2.54638 3.48975 0
M  V30 6315 C 589.73 2.35047 4.76368 0
M  V30 6316 C 588.769 3.54837 4.98756 0
M  V30 6317 N 587.906 3.34363 6.1737 0
M  V30 6318 H 592.746 2.37516 1.79973 0
M  V30 6319 H 590.283 1.1795 0.878983 0
M  V30 6320 H 592.241 1.21443 3.99134 0
M  V30 6321 H 590.871 0.387602 3.20464 0
M  V30 6322 H 589.923 2.74037 2.63833 0
M  V30 6323 H 591.235 3.43766 3.61423 0
M  V30 6324 H 590.389 2.23552 5.64012 0
M  V30 6325 H 589.128 1.43363 4.66153 0
M  V30 6326 H 588.133 3.66795 4.09563 0
M  V30 6327 H 589.358 4.47464 5.10835 0
M  V30 6328 H 587.304 2.45373 6.08382 0
M  V30 6329 H 587.221 4.17063 6.30551 0
M  V30 6330 H 588.489 3.26626 7.07768 0
M  V30 6331 N 592.718 -0.936591 1.26751 0
M  V30 6332 C 593.681 -2.01752 1.08761 0
M  V30 6333 C 594.681 -1.60763 0.0344435 0
M  V30 6334 O 595.871 -1.71963 0.278258 0
M  V30 6335 C 593.003 -3.34543 0.655271 0
M  V30 6336 H 594.196 -2.19143 2.04735 0
M  V30 6337 H 591.749 -1.11618 1.09413 0
M  V30 6338 H 592.484 -3.22851 -0.30626 0
M  V30 6339 H 592.269 -3.65647 1.41578 0
M  V30 6340 H 593.759 -4.13944 0.551378 0
M  V30 6341 N 594.196 -1.08629 -1.14182 0
M  V30 6342 C 595.443 -0.817345 -1.85272 0
M  V30 6343 C 595.771 0.656917 -1.83071 0
M  V30 6344 O 595.026 1.49897 -1.25815 0
M  V30 6345 C 595.325 -1.28734 -3.3341 0
M  V30 6346 C 594.991 -2.76981 -3.55798 0
M  V30 6347 C 593.653 -3.17469 -3.61617 0
M  V30 6348 C 596.005 -3.72605 -3.64438 0
M  V30 6349 C 593.333 -4.52371 -3.736 0
M  V30 6350 C 595.685 -5.07286 -3.77947 0
M  V30 6351 C 594.349 -5.47376 -3.82016 0
M  V30 6352 H 593.619 -0.299088 -0.677958 0
M  V30 6353 H 596.266 -1.35962 -1.34857 0
M  V30 6354 H 594.571 -0.664702 -3.8612 0
M  V30 6355 H 596.268 -1.05598 -3.86846 0
M  V30 6356 H 592.858 -2.44644 -3.51919 0
M  V30 6357 H 597.042 -3.42443 -3.5923 0
M  V30 6358 H 592.298 -4.82882 -3.75013 0
M  V30 6359 H 596.472 -5.81243 -3.83575 0
M  V30 6360 H 594.099 -6.51906 -3.91054 0
M  V30 6361 N 595.674 1.31259 -0.872281 0
M  V30 6362 C 596.92 1.96913 -0.485083 0
M  V30 6363 C 597.253 1.68774 0.960667 0
M  V30 6364 O 596.528 0.985495 1.67685 0
M  V30 6365 C 596.811 3.52299 -0.745502 0
M  V30 6366 C 596.664 3.90002 -2.24095 0
M  V30 6367 C 597.983 4.39582 -0.213516 0
M  V30 6368 H 595.102 0.715252 -0.177716 0
M  V30 6369 H 597.744 1.55347 -1.09395 0
M  V30 6370 H 595.894 3.87835 -0.227276 0
M  V30 6371 H 597.566 3.64555 -2.82661 0
M  V30 6372 H 595.809 3.38526 -2.71261 0
M  V30 6373 H 596.48 4.98352 -2.37381 0
M  V30 6374 H 598.956 4.10882 -0.656902 0
M  V30 6375 H 597.832 5.47251 -0.42516 0
M  V30 6376 H 598.093 4.33158 0.884666 0
M  V30 6377 N 597.152 0.631951 1.44375 0
M  V30 6378 C 598.4 0.136497 2.01639 0
M  V30 6379 C 598.721 -1.24637 1.49969 0
M  V30 6380 O 597.991 -1.82827 0.70363 0
M  V30 6381 H 596.571 0.0474703 0.74549 0
M  V30 6382 H 599.233 0.818837 1.76865 0
M  V30 6383 H 598.329 0.104817 3.11924 0
M  V30 6384 N 598.631 -1.53133 0.372548 0
M  V30 6385 C 599.579 -2.27473 -0.485681 0
M  V30 6386 C 600.573 -1.30719 -1.07745 0
M  V30 6387 O 601.779 -1.48321 -1.01985 0
M  V30 6388 H 598.154 -0.731269 -0.175356 0
M  V30 6389 H 600.125 -2.97955 0.162986 0
M  V30 6390 C 598.874 -3.08191 -1.60978 0
M  V30 6391 H 598.197 -3.82488 -1.16373 0
M  V30 6392 H 599.637 -3.63373 -2.18485 0
M  V30 6393 C 598.096 -2.19461 -2.55614 0
M  V30 6394 O 598.626 -1.81008 -3.58607 0
M  V30 6395 N 596.832 -1.83955 -2.24965 0
M  V30 6396 H 596.379 -2.15423 -1.41247 0
M  V30 6397 H 596.337 -1.24874 -2.88538 0
M  V30 6398 N 600.109 -0.101901 -1.5727 0
M  V30 6399 C 601.041 0.884723 -2.11436 0
M  V30 6400 C 602.054 1.24149 -1.05314 0
M  V30 6401 O 603.243 1.19341 -1.3274 0
M  V30 6402 C 600.343 2.19179 -2.58484 0
M  V30 6403 C 599.516 2.00933 -3.88516 0
M  V30 6404 C 598.575 3.15213 -4.2134 0
M  V30 6405 O 597.601 2.88877 -4.90448 0
M  V30 6406 N 598.803 4.41174 -3.77288 0
M  V30 6407 H 601.568 0.422058 -2.96713 0
M  V30 6408 H 599.129 0.0830128 -1.61687 0
M  V30 6409 H 601.121 2.94593 -2.77484 0
M  V30 6410 H 599.691 2.56847 -1.7818 0
M  V30 6411 H 598.911 1.09809 -3.78597 0
M  V30 6412 H 600.199 1.86026 -4.73573 0
M  V30 6413 H 599.597 4.6545 -3.21516 0
M  V30 6414 H 598.154 5.13515 -4.01429 0
M  V30 6415 N 601.587 1.56661 0.17182 0
M  V30 6416 C 602.517 1.99401 1.21498 0
M  V30 6417 C 603.498 0.869516 1.46197 0
M  V30 6418 O 604.683 1.13556 1.57539 0
M  V30 6419 C 601.813 2.35346 2.55401 0
M  V30 6420 C 600.767 3.5075 2.45272 0
M  V30 6421 C 600.093 3.72437 3.8366 0
M  V30 6422 C 601.393 4.84216 1.95787 0
M  V30 6423 H 603.087 2.86792 0.859699 0
M  V30 6424 H 600.633 1.37977 0.412103 0
M  V30 6425 H 602.586 2.63843 3.2858 0
M  V30 6426 H 601.31 1.44864 2.92715 0
M  V30 6427 H 599.969 3.2238 1.74547 0
M  V30 6428 H 599.617 2.79246 4.18367 0
M  V30 6429 H 599.317 4.50087 3.77751 0
M  V30 6430 H 600.841 4.03334 4.58426 0
M  V30 6431 H 602.255 5.11592 2.5874 0
M  V30 6432 H 600.652 5.65498 2.00827 0
M  V30 6433 H 601.722 4.76243 0.912159 0
M  V30 6434 N 603.065 -0.440357 1.51323 0
M  V30 6435 C 604.476 -1.02032 1.56353 0
M  V30 6436 C 604.827 -1.92382 0.385197 0
M  V30 6437 O 603.952 -2.10583 -0.498373 0
M  V30 6438 C 604.547 -1.85723 2.83359 0
M  V30 6439 C 603.106 -2.38774 2.90971 0
M  V30 6440 C 602.253 -1.17908 2.50984 0
M  V30 6441 H 605.204 -0.221744 1.57143 0
M  V30 6442 H 605.225 -2.71141 2.66951 0
M  V30 6443 H 604.737 -1.19939 3.69102 0
M  V30 6444 H 602.838 -3.08021 2.09651 0
M  V30 6445 H 602.951 -2.71778 3.94555 0
M  V30 6446 H 601.315 -1.52347 2.04114 0
M  V30 6447 H 602.098 -0.537393 3.39068 0
M  V30 6448 N 604.543 -1.41418 -0.695603 0
M  V30 6449 C 605.79 -1.40774 -1.45564 0
M  V30 6450 C 606.118 -0.0168604 -1.94493 0
M  V30 6451 O 605.373 0.971259 -1.69897 0
M  V30 6452 C 605.672 -2.36112 -2.68302 0
M  V30 6453 C 605.338 -3.82952 -2.38031 0
M  V30 6454 C 604 -4.22954 -2.29486 0
M  V30 6455 C 606.352 -4.75662 -2.13061 0
M  V30 6456 C 603.68 -5.53674 -1.94067 0
M  V30 6457 C 606.032 -6.06702 -1.79151 0
M  V30 6458 C 604.696 -6.45725 -1.69102 0
M  V30 6459 H 603.966 -0.515128 -0.532658 0
M  V30 6460 H 606.613 -1.74216 -0.795047 0
M  V30 6461 H 604.918 -1.95924 -3.39295 0
M  V30 6462 H 606.615 -2.32887 -3.26442 0
M  V30 6463 H 603.205 -3.5127 -2.45576 0
M  V30 6464 H 607.389 -4.45561 -2.18608 0
M  V30 6465 H 602.645 -5.8279 -1.8484 0
M  V30 6466 H 606.819 -6.78041 -1.5885 0
M  V30 6467 H 604.446 -7.46929 -1.41426 0
M  V30 6468 N 606.021 0.929856 -1.27246 0
M  V30 6469 C 607.27 1.67182 -1.12842 0
M  V30 6470 C 607.583 1.9287 0.325666 0
M  V30 6471 O 608.789 2.64999 0.590572 0
M  V30 6472 C 607.245 3.01097 -1.97151 0
M  V30 6473 C 606.853 2.83115 -3.47203 0
M  V30 6474 C 608.597 3.78907 -1.91389 0
M  V30 6475 C 606.504 4.12573 -4.23719 0
M  V30 6476 H 605.434 0.627064 -0.418697 0
M  V30 6477 H 608.085 1.0332 -1.51649 0
M  V30 6478 H 606.467 3.66004 -1.51186 0
M  V30 6479 H 607.641 2.26989 -4.01015 0
M  V30 6480 H 605.956 2.18736 -3.54321 0
M  V30 6481 H 608.553 4.74837 -2.45834 0
M  V30 6482 H 608.896 4.0674 -0.887047 0
M  V30 6483 H 609.429 3.20794 -2.35237 0
M  V30 6484 H 606.168 3.8992 -5.26918 0
M  V30 6485 H 605.688 4.68371 -3.74685 0
M  V30 6486 H 607.367 4.8095 -4.32777 0
M  V30 6487 N 607.499 1.09233 1.13605 0
M  V30 6488 C 608.747 0.825525 1.84471 0
M  V30 6489 C 609.068 -0.650702 1.83823 0
M  V30 6490 O 608.338 -1.47204 1.29259 0
M  V30 6491 H 606.918 0.3024 0.683054 0
M  V30 6492 H 609.58 1.38006 1.37624 0
M  V30 6493 H 608.676 1.17727 2.89045 0
M  V30 6494 N 608.977 -1.30795 0.87923 0
M  V30 6495 C 610.224 -1.96362 0.494786 0
M  V30 6496 C 610.552 -1.69448 -0.954868 0
M  V30 6497 O 609.807 -0.988711 -1.68888 0
M  V30 6498 C 610.106 -3.50287 0.709476 0
M  V30 6499 C 609.772 -3.9724 2.13333 0
M  V30 6500 C 608.434 -4.09772 2.52271 0
M  V30 6501 C 610.786 -4.21807 3.06151 0
M  V30 6502 C 608.114 -4.44227 3.83248 0
M  V30 6503 C 610.466 -4.5773 4.36654 0
M  V30 6504 C 609.13 -4.68469 4.75492 0
M  V30 6505 H 608.4 -0.71854 0.181055 0
M  V30 6506 H 611.047 -1.55764 1.11399 0
M  V30 6507 H 609.352 -3.91799 0.0072 0
M  V30 6508 H 611.049 -3.99082 0.391703 0
M  V30 6509 H 607.639 -3.87988 1.82107 0
M  V30 6510 H 611.823 -4.11611 2.77291 0
M  V30 6511 H 607.079 -4.50741 4.13089 0
M  V30 6512 H 611.253 -4.7569 5.08617 0
M  V30 6513 H 608.88 -4.94923 5.77022 0
M  V30 6514 N 610.455 -0.639598 -1.44038 0
M  V30 6515 C 611.683 -0.154811 -2.0632 0
M  V30 6516 C 612.098 1.17406 -1.47856 0
M  V30 6517 O 611.455 1.72193 -0.604638 0
M  V30 6518 C 611.506 -0.0429958 -3.61474 0
M  V30 6519 O 611.227 -1.31932 -4.17763 0
M  V30 6520 C 612.728 0.469486 -4.40807 0
M  V30 6521 H 609.948 -0.0835862 -0.665773 0
M  V30 6522 H 612.492 -0.876397 -1.84769 0
M  V30 6523 H 610.647 0.629075 -3.82258 0
M  V30 6524 H 611.061 -1.16965 -5.11292 0
M  V30 6525 H 612.535 0.496712 -5.49761 0
M  V30 6526 H 613.012 1.49819 -4.12857 0
M  V30 6527 H 613.618 -0.169624 -4.24962 0
M  V30 6528 N 611.933 1.52934 -0.380664 0
M  V30 6529 C 613.163 2.05587 0.204302 0
M  V30 6530 C 613.571 1.25288 1.41773 0
M  V30 6531 O 612.914 0.290394 1.8139 0
M  V30 6532 C 612.976 3.53624 0.647324 0
M  V30 6533 C 612.64 4.54765 -0.451465 0
M  V30 6534 C 613.637 5.03226 -1.30614 0
M  V30 6535 C 611.322 4.98508 -0.616025 0
M  V30 6536 C 613.316 5.94046 -2.31058 0
M  V30 6537 C 611.003 5.89131 -1.62381 0
M  V30 6538 C 612.001 6.36792 -2.46952 0
M  V30 6539 O 611.689 7.25626 -3.46009 0
M  V30 6540 H 611.421 0.675013 0.0365198 0
M  V30 6541 H 613.975 1.98125 -0.541827 0
M  V30 6542 H 612.205 3.58676 1.44529 0
M  V30 6543 H 613.894 3.89061 1.15698 0
M  V30 6544 H 614.66 4.70167 -1.19027 0
M  V30 6545 H 610.539 4.60989 0.0324987 0
M  V30 6546 H 614.083 6.3117 -2.97104 0
M  V30 6547 H 609.98 6.21603 -1.7401 0
M  V30 6548 H 610.748 7.43664 -3.41916 0
M  V30 6549 N 613.412 0.11024 1.57214 0
M  V30 6550 C 614.642 -0.557025 1.98949 0
M  V30 6551 C 615.05 -1.61317 0.988606 0
M  V30 6552 O 614.393 -1.83679 -0.0279159 0
M  V30 6553 C 614.455 -1.24956 3.37085 0
M  V30 6554 C 614.119 -0.342398 4.55716 0
M  V30 6555 C 615.116 0.415511 5.18237 0
M  V30 6556 C 612.801 -0.256029 5.01647 0
M  V30 6557 C 614.795 1.24761 6.25071 0
M  V30 6558 C 612.482 0.579713 6.08344 0
M  V30 6559 C 613.48 1.33017 6.69922 0
M  V30 6560 O 613.168 2.15205 7.74559 0
M  V30 6561 H 612.9 -0.152792 0.658506 0
M  V30 6562 H 615.454 0.19076 2.04512 0
M  V30 6563 H 613.684 -2.04424 3.2825 0
M  V30 6564 H 615.373 -1.81286 3.63167 0
M  V30 6565 H 616.139 0.358605 4.83672 0
M  V30 6566 H 612.018 -0.829831 4.5347 0
M  V30 6567 H 615.562 1.83386 6.73064 0
M  V30 6568 H 611.459 0.638044 6.42339 0
M  V30 6569 H 612.227 2.08052 7.91617 0
M  V30 6570 N 614.89 -1.56749 -0.16351 0
M  V30 6571 C 616.306 -1.51043 -0.515567 0
M  V30 6572 C 616.506 -0.815855 -1.84245 0
M  V30 6573 O 615.562 -0.379477 -2.49632 0
M  V30 6574 C 616.875 -2.95791 -0.541114 0
M  V30 6575 C 618.423 -3.0664 -0.627776 0
M  V30 6576 C 618.898 -4.52861 -0.684141 0
M  V30 6577 N 620.389 -4.5714 -0.746818 0
M  V30 6578 C 621.124 -5.67634 -0.811137 0
M  V30 6579 N 620.62 -6.8774 -0.835811 0
M  V30 6580 N 622.413 -5.55624 -0.850756 0
M  V30 6581 H 614.564 -2.00307 0.70645 0
M  V30 6582 H 616.827 -0.912876 0.255659 0
M  V30 6583 H 616.533 -3.49797 0.365329 0
M  V30 6584 H 616.407 -3.50858 -1.38487 0
M  V30 6585 H 618.794 -2.52663 -1.52464 0
M  V30 6586 H 618.875 -2.54645 0.242805 0
M  V30 6587 H 618.519 -5.07472 0.2085 0
M  V30 6588 H 618.449 -5.02621 -1.57098 0
M  V30 6589 H 620.94 -3.70669 -0.735717 0
M  V30 6590 H 621.253 -7.67701 -0.886279 0
M  V30 6591 H 619.598 -6.90334 -0.803958 0
M  V30 6592 H 622.789 -4.60709 -0.828535 0
M  V30 6593 H 622.962 -6.41756 -0.897418 0
M  V30 6594 N 616.368 0.432326 -1.51554 0
M  V30 6595 C 617.278 1.55023 -1.76082 0
M  V30 6596 C 618.294 1.61593 -0.645265 0
M  V30 6597 O 619.47 1.78742 -0.928086 0
M  V30 6598 C 616.535 2.90964 -1.88523 0
M  V30 6599 C 615.596 2.9447 -3.12388 0
M  V30 6600 C 614.829 4.23926 -3.24225 0
M  V30 6601 O 615.052 5.16576 -2.4188 0
M  V30 6602 O 613.986 4.33818 -4.17235 0
M  V30 6603 H 617.812 1.37238 -2.70923 0
M  V30 6604 H 615.397 0.615845 -1.36117 0
M  V30 6605 H 617.279 3.71633 -1.98662 0
M  V30 6606 H 615.954 3.08865 -0.9687 0
M  V30 6607 H 614.861 2.12737 -3.07723 0
M  V30 6608 H 616.194 2.81514 -4.03746 0
M  V30 6609 N 617.846 1.41785 0.688094 0
M  V30 6610 C 618.794 1.44436 1.82321 0
M  V30 6611 C 619.788 0.321544 1.6632 0
M  V30 6612 O 620.994 0.493931 1.73091 0
M  V30 6613 H 617.369 0.452084 0.600936 0
M  V30 6614 H 619.34 2.40087 1.77202 0
M  V30 6615 C 618.089 1.35071 3.20392 0
M  V30 6616 H 617.412 2.2076 3.33324 0
M  V30 6617 H 618.852 1.40988 3.99873 0
M  V30 6618 C 617.311 0.0639127 3.36839 0
M  V30 6619 O 617.841 -0.888495 3.91751 0
M  V30 6620 N 616.047 -0.0146114 2.90596 0
M  V30 6621 H 615.594 0.761191 2.46097 0
M  V30 6622 H 615.552 -0.874988 3.01979 0
M  V30 6623 N 619.324 -0.923095 1.27737 0
M  V30 6624 C 620.254 -2.04124 1.13383 0
M  V30 6625 C 621.235 -1.70066 0.0340658 0
M  V30 6626 O 622.42 -1.93068 0.209383 0
M  V30 6627 C 619.55 -3.3831 0.785097 0
M  V30 6628 C 618.504 -3.86496 1.8386 0
M  V30 6629 C 617.83 -5.1754 1.34373 0
M  V30 6630 C 619.13 -4.09381 3.24353 0
M  V30 6631 H 620.824 -2.1639 2.06919 0
M  V30 6632 H 618.37 -1.03976 0.996243 0
M  V30 6633 H 620.323 -4.16016 0.671485 0
M  V30 6634 H 619.047 -3.2607 -0.185969 0
M  V30 6635 H 617.706 -3.10987 1.9412 0
M  V30 6636 H 617.354 -5.01696 0.361989 0
M  V30 6637 H 617.054 -5.50751 2.04811 0
M  V30 6638 H 618.578 -5.97811 1.24315 0
M  V30 6639 H 619.992 -4.77641 3.17067 0
M  V30 6640 H 618.389 -4.53906 3.92542 0
M  V30 6641 H 619.459 -3.14515 3.69064 0
M  V30 6642 N 620.802 -1.09834 -1.13024 0
M  V30 6643 C 621.732 -0.763451 -2.20666 0
M  V30 6644 C 622.713 0.260778 -1.68089 0
M  V30 6645 O 623.898 0.127915 -1.93778 0
M  V30 6646 C 621.028 -0.187744 -3.46792 0
M  V30 6647 C 619.982 -1.14196 -4.12484 0
M  V30 6648 C 619.308 -0.427755 -5.32986 0
M  V30 6649 C 620.608 -2.48607 -4.59338 0
M  V30 6650 H 622.302 -1.66347 -2.48936 0
M  V30 6651 H 619.848 -0.801261 -1.19649 0
M  V30 6652 H 621.801 0.0586375 -4.21359 0
M  V30 6653 H 620.525 0.747485 -3.17931 0
M  V30 6654 H 619.184 -1.37369 -3.3989 0
M  V30 6655 H 618.832 0.511747 -5.0039 0
M  V30 6656 H 618.532 -1.06403 -5.77886 0
M  V30 6657 H 620.056 -0.189772 -6.10305 0
M  V30 6658 H 621.47 -2.29618 -5.25308 0
M  V30 6659 H 619.867 -3.08062 -5.14993 0
M  V30 6660 H 620.937 -3.09062 -3.73642 0
M  V30 6661 N 622.28 1.30327 -0.886154 0
M  V30 6662 C 623.21 2.30549 -0.370028 0
M  V30 6663 C 624.191 1.61039 0.547751 0
M  V30 6664 O 625.376 1.8864 0.461353 0
M  V30 6665 C 622.506 3.44808 0.415275 0
M  V30 6666 C 621.46 4.26024 -0.41085 0
M  V30 6667 C 620.786 5.32347 0.501128 0
M  V30 6668 C 622.086 4.95433 -1.65359 0
M  V30 6669 H 623.78 2.73969 -1.20754 0
M  V30 6670 H 621.326 1.3171 -0.582097 0
M  V30 6671 H 623.279 4.13986 0.78699 0
M  V30 6672 H 622.003 3.00197 1.28644 0
M  V30 6673 H 620.662 3.58535 -0.764719 0
M  V30 6674 H 620.31 4.83982 1.37004 0
M  V30 6675 H 620.01 5.87581 -0.0478356 0
M  V30 6676 H 621.534 6.0438 0.869333 0
M  V30 6677 H 622.948 5.5712 -1.35239 0
M  V30 6678 H 621.345 5.60537 -2.14284 0
M  V30 6679 H 622.415 4.21493 -2.39733 0
M  V30 6680 N 623.758 0.647228 1.43697 0
M  V30 6681 C 624.983 0.164083 2.0675 0
M  V30 6682 C 625.408 -1.15892 1.48158 0
M  V30 6683 O 624.766 -1.71459 0.589194 0
M  V30 6684 C 624.814 0.0800368 3.60511 0
M  V30 6685 O 623.918 -0.959453 4.01084 0
M  V30 6686 H 623.259 0.0921288 0.657578 0
M  V30 6687 H 625.789 0.88846 1.84303 0
M  V30 6688 H 625.799 -0.105263 4.07864 0
M  V30 6689 H 624.474 1.04586 4.02535 0
M  V30 6690 H 623.051 -0.747425 3.65333 0
M  V30 6691 N 625.236 -1.5273 0.388769 0
M  V30 6692 C 626.513 -1.93981 -0.251133 0
M  V30 6693 C 626.893 -1.32418 -1.64404 0
M  V30 6694 O 626.241 -0.492074 -2.23139 0
M  V30 6695 C 626.451 -3.47891 -0.27802 0
M  V30 6696 C 627.799 -4.21559 -0.507229 0
M  V30 6697 O 628.823 -3.54394 -0.358252 0
M  V30 6698 O 627.682 -5.40626 -0.799094 0
M  V30 6699 H 624.776 -0.812157 -0.15598 0
M  V30 6700 H 627.322 -1.63809 0.443237 0
M  V30 6701 H 626.094 -3.8503 0.697669 0
M  V30 6702 H 625.717 -3.84364 -1.01733 0
M  V30 6703 N 626.714 -0.118576 -1.57153 0
M  V30 6704 C 627.939 0.550582 -1.99958 0
M  V30 6705 C 628.364 1.59458 -0.997736 0
M  V30 6706 O 627.722 1.81274 0.0306269 0
M  V30 6707 C 627.77 1.15379 -3.41643 0
M  V30 6708 O 626.874 2.26932 -3.44348 0
M  V30 6709 H 626.215 0.137567 -0.649593 0
M  V30 6710 H 628.745 -0.206926 -2.03551 0
M  V30 6711 H 628.755 1.48942 -3.79843 0
M  V30 6712 H 627.43 0.389087 -4.14076 0
M  V30 6713 H 626.007 1.94812 -3.17967 0
M  V30 6714 N 628.193 1.56834 0.155195 0
M  V30 6715 C 629.604 1.72421 0.716082 0
M  V30 6716 C 629.955 0.731685 1.82046 0
M  V30 6717 O 629.08 -0.103481 2.16152 0
M  V30 6718 C 629.675 3.12629 1.30571 0
M  V30 6719 C 628.234 3.29846 1.81325 0
M  V30 6720 C 627.381 2.68359 0.698494 0
M  V30 6721 H 630.332 1.58544 -0.0703861 0
M  V30 6722 H 630.353 3.12174 2.1755 0
M  V30 6723 H 629.865 3.84844 0.501701 0
M  V30 6724 H 627.966 2.62614 2.64319 0
M  V30 6725 H 628.079 4.37727 1.9476 0
M  V30 6726 H 626.443 2.28604 1.12305 0
M  V30 6727 H 627.226 3.43171 -0.0939366 0
M  V30 6728 N 629.671 -0.424282 1.51781 0
M  V30 6729 C 630.896 -1.19928 1.6921 0
M  V30 6730 C 631.321 -1.8392 0.394355 0
M  V30 6731 O 630.679 -1.69371 -0.646778 0
M  V30 6732 C 630.727 -2.24937 2.81843 0
M  V30 6733 O 629.831 -3.3073 2.46356 0
M  V30 6734 H 629.172 -0.35078 0.563781 0
M  V30 6735 H 631.702 -0.499401 1.98412 0
M  V30 6736 H 631.712 -2.69512 3.06312 0
M  V30 6737 H 630.387 -1.77742 3.76006 0
M  V30 6738 H 628.964 -2.9154 2.32505 0
M  V30 6739 N 631.149 -1.42148 -0.680565 0
M  V30 6740 C 632.389 -1.4379 -1.45271 0
M  V30 6741 C 632.753 -0.0504426 -1.91934 0
M  V30 6742 O 633.954 0.0583916 -2.68737 0
M  V30 6743 C 632.225 -2.42904 -2.62168 0
M  V30 6744 S 633.784 -2.63201 -3.51099 0
M  V30 6745 H 630.602 -0.509185 -0.496237 0
M  V30 6746 H 633.204 -1.78706 -0.792744 0
M  V30 6747 H 631.908 -3.4249 -2.26116 0
M  V30 6748 H 631.439 -2.09394 -3.33043 0
M  V30 6749 H 633.454 -1.91068 -4.57938 0
M  V30 6750 N 632.627 0.916307 -1.28225 0
M  V30 6751 C 634.043 1.19425 -1.05876 0
M  V30 6752 C 634.243 2.005 0.2005 0
M  V30 6753 O 633.299 2.35806 0.902873 0
M  V30 6754 C 634.612 1.93133 -2.30478 0
M  V30 6755 C 636.16 2.06026 -2.35632 0
M  V30 6756 C 636.635 2.83141 -3.59994 0
M  V30 6757 N 638.126 2.90704 -3.60618 0
M  V30 6758 C 638.861 3.50865 -4.53521 0
M  V30 6759 N 638.357 4.12327 -5.56739 0
M  V30 6760 N 640.15 3.48379 -4.41122 0
M  V30 6761 H 632.301 0.37496 -2.09064 0
M  V30 6762 H 634.564 0.228531 -0.920042 0
M  V30 6763 H 634.27 1.40985 -3.22205 0
M  V30 6764 H 634.144 2.93696 -2.36691 0
M  V30 6765 H 636.531 2.57355 -1.44404 0
M  V30 6766 H 636.612 1.04647 -2.33415 0
M  V30 6767 H 636.256 2.32492 -4.51564 0
M  V30 6768 H 636.186 3.84829 -3.59464 0
M  V30 6769 H 638.677 2.47034 -2.85977 0
M  V30 6770 H 638.99 4.56205 -6.23776 0
M  V30 6771 H 637.335 4.10839 -5.60568 0
M  V30 6772 H 640.526 2.99572 -3.59686 0
M  V30 6773 H 640.699 3.94974 -5.13712 0
M  V30 6774 N 634.105 1.10431 1.1244 0
M  V30 6775 C 635.015 0.765502 2.21759 0
M  V30 6776 C 636.031 -0.236966 1.72379 0
M  V30 6777 O 637.207 -0.0757329 2.01258 0
M  V30 6778 C 634.272 0.202316 3.46109 0
M  V30 6779 C 633.333 1.26205 4.1033 0
M  V30 6780 C 632.566 0.725648 5.28744 0
M  V30 6781 O 632.789 -0.447942 5.68638 0
M  V30 6782 O 631.723 1.48555 5.83279 0
M  V30 6783 H 635.549 1.67801 2.53133 0
M  V30 6784 H 633.134 0.879443 1.20773 0
M  V30 6785 H 635.016 -0.107918 4.21262 0
M  V30 6786 H 633.691 -0.683052 3.16411 0
M  V30 6787 H 632.598 1.62514 3.36957 0
M  V30 6788 H 633.931 2.12044 4.44183 0
M  V30 6789 N 635.583 -1.29855 0.893053 0
M  V30 6790 C 636.811 -1.99976 0.530788 0
M  V30 6791 C 637.226 -1.66889 -0.882799 0
M  V30 6792 O 636.583 -0.910352 -1.58173 0
M  V30 6793 C 636.634 -3.54547 0.705587 0
M  V30 6794 O 636.355 -3.86458 2.06353 0
M  V30 6795 C 637.856 -4.41937 0.347387 0
M  V30 6796 H 635.076 -0.639129 0.204339 0
M  V30 6797 H 637.62 -1.65549 1.20057 0
M  V30 6798 H 635.775 -3.87311 0.0830685 0
M  V30 6799 H 636.189 -4.81146 2.08803 0
M  V30 6800 H 637.663 -5.4954 0.520557 0
M  V30 6801 H 638.14 -4.33339 -0.715139 0
M  V30 6802 H 638.746 -4.14633 0.946567 0
M  V30 6803 N 637.061 -0.65484 -1.43351 0
M  V30 6804 C 638.338 -0.0987371 -1.95351 0
M  V30 6805 C 638.718 1.38161 -1.59608 0
M  V30 6806 O 638.066 2.10791 -0.882021 0
M  V30 6807 C 638.276 -0.346684 -3.47274 0
M  V30 6808 C 639.624 -0.25249 -4.23849 0
M  V30 6809 O 640.648 -0.279332 -3.55103 0
M  V30 6810 O 639.507 -0.177584 -5.46211 0
M  V30 6811 H 636.601 0.0086829 -0.826954 0
M  V30 6812 H 639.147 -0.728189 -1.53282 0
M  V30 6813 H 637.919 -1.37296 -3.66423 0
M  V30 6814 H 637.542 0.315757 -3.96344 0
M  V30 6815 N 638.539 1.52521 -0.396863 0
M  V30 6816 C 639.764 2.06571 0.185258 0
M  V30 6817 C 640.189 1.26605 1.39115 0
M  V30 6818 O 639.547 0.293055 1.78916 0
M  V30 6819 C 639.595 3.5674 0.526189 0
M  V30 6820 O 638.699 3.7929 1.61903 0
M  V30 6821 H 638.04 0.663712 0.0195474 0
M  V30 6822 H 640.57 1.966 -0.566519 0
M  V30 6823 H 640.58 4.00311 0.788338 0
M  V30 6824 H 639.255 4.14379 -0.355397 0
M  V30 6825 H 637.832 3.47605 1.35 0
M  V30 6826 N 640.017 0.126909 1.57088 0
M  V30 6827 C 641.266 -0.529024 1.94639 0
M  V30 6828 C 641.579 -1.67323 1.01304 0
M  V30 6829 O 642.785 -2.39245 1.28352 0
M  V30 6830 C 641.241 -0.992483 3.45945 0
M  V30 6831 C 640.849 0.123691 4.47829 0
M  V30 6832 C 642.593 -1.61934 3.924 0
M  V30 6833 C 640.5 -0.356911 5.90322 0
M  V30 6834 H 639.43 -0.201397 0.726605 0
M  V30 6835 H 642.081 0.208032 1.82317 0
M  V30 6836 H 640.463 -1.7842 3.53528 0
M  V30 6837 H 641.637 0.900168 4.51922 0
M  V30 6838 H 639.952 0.657699 4.11173 0
M  V30 6839 H 642.549 -1.9902 4.96281 0
M  V30 6840 H 642.892 -2.50075 3.32819 0
M  V30 6841 H 643.425 -0.892894 3.8765 0
M  V30 6842 H 640.164 0.488636 6.53676 0
M  V30 6843 H 639.684 -1.0997 5.89633 0
M  V30 6844 H 641.363 -0.815547 6.41839 0
M  V30 6845 N 641.495 -1.56914 -0.146875 0
M  V30 6846 C 642.427 -1.94878 -1.20645 0
M  V30 6847 C 643.44 -0.844633 -1.39175 0
M  V30 6848 O 644.629 -1.12304 -1.38744 0
M  V30 6849 C 641.729 -2.20769 -2.57127 0
M  V30 6850 C 640.902 -3.52053 -2.59572 0
M  V30 6851 C 639.961 -3.66482 -3.77594 0
M  V30 6852 O 638.987 -4.38873 -3.62462 0
M  V30 6853 N 640.189 -3.03156 -4.95052 0
M  V30 6854 H 642.954 -2.86374 -0.883757 0
M  V30 6855 H 640.515 -1.58366 -0.336436 0
M  V30 6856 H 642.507 -2.27664 -3.34591 0
M  V30 6857 H 641.077 -1.35538 -2.81688 0
M  V30 6858 H 640.297 -3.56598 -1.68023 0
M  V30 6859 H 641.585 -4.38396 -2.58238 0
M  V30 6860 H 640.983 -2.44258 -5.10249 0
M  V30 6861 H 639.54 -3.15611 -5.70292 0
M  V30 6862 N 642.974 0.416227 -1.52004 0
M  V30 6863 C 644.199 1.19029 -1.69843 0
M  V30 6864 C 644.624 1.83708 -0.404103 0
M  V30 6865 O 643.982 1.69711 0.637787 0
M  V30 6866 C 644.03 2.23439 -2.83032 0
M  V30 6867 O 643.134 3.29419 -2.48106 0
M  V30 6868 H 642.475 0.347785 -0.565634 0
M  V30 6869 H 645.005 0.488871 -1.98674 0
M  V30 6870 H 645.015 2.67884 -3.07737 0
M  V30 6871 H 643.69 1.75745 -3.76944 0
M  V30 6872 H 642.267 2.90303 -2.34048 0
M  V30 6873 N 644.452 1.42507 0.673017 0
M  V30 6874 C 645.868 1.25472 0.986355 0
M  V30 6875 C 646.068 0.160181 2.00862 0
M  V30 6876 O 645.124 -0.467993 2.48125 0
M  V30 6877 C 646.437 2.61219 1.48947 0
M  V30 6878 C 647.985 2.68589 1.60715 0
M  V30 6879 C 648.46 4.04707 2.14422 0
M  V30 6880 N 649.951 4.0667 2.21752 0
M  V30 6881 C 650.686 5.0881 2.64386 0
M  V30 6882 N 650.182 6.21332 3.0646 0
M  V30 6883 N 651.975 4.96166 2.64151 0
M  V30 6884 H 644.126 2.124 -0.00378532 0
M  V30 6885 H 646.389 0.946046 0.0608367 0
M  V30 6886 H 646.095 3.42179 0.812812 0
M  V30 6887 H 645.969 2.85261 2.46791 0
M  V30 6888 H 648.356 1.87974 2.27486 0
M  V30 6889 H 648.437 2.48333 0.613552 0
M  V30 6890 H 648.081 4.8578 1.48258 0
M  V30 6891 H 648.011 4.22315 3.14575 0
M  V30 6892 H 650.502 3.25438 1.92089 0
M  V30 6893 H 650.815 6.95118 3.37684 0
M  V30 6894 H 649.16 6.24835 3.04313 0
M  V30 6895 H 652.351 4.07334 2.30644 0
M  V30 6896 H 652.524 5.759 2.97057 0
M  V30 6897 N 645.93 -0.909495 1.28709 0
M  V30 6898 C 646.877 -2.01245 1.13 0
M  V30 6899 C 647.847 -1.6608 0.0259684 0
M  V30 6900 O 649.032 -1.89835 0.191687 0
M  V30 6901 C 646.172 -3.35644 0.802315 0
M  V30 6902 C 645.285 -3.83653 1.98582 0
M  V30 6903 C 644.42 -5.06582 1.59837 0
M  V30 6904 C 643.459 -5.46934 2.74827 0
M  V30 6905 N 642.596 -6.61053 2.36546 0
M  V30 6906 H 647.436 -2.14013 2.0737 0
M  V30 6907 H 644.973 -1.0482 1.03205 0
M  V30 6908 H 646.931 -4.12963 0.593057 0
M  V30 6909 H 645.561 -3.22631 -0.104457 0
M  V30 6910 H 644.613 -3.02454 2.30708 0
M  V30 6911 H 645.925 -4.09515 2.84779 0
M  V30 6912 H 645.079 -5.91457 1.35143 0
M  V30 6913 H 643.818 -4.82537 0.707753 0
M  V30 6914 H 642.823 -4.60599 3.00215 0
M  V30 6915 H 644.048 -5.72965 3.64538 0
M  V30 6916 H 641.994 -6.3863 1.49959 0
M  V30 6917 H 641.911 -6.86662 3.16277 0
M  V30 6918 H 643.179 -7.49221 2.15146 0
M  V30 6919 N 647.408 -1.11026 -1.11852 0
M  V30 6920 C 648.356 -0.759643 -2.19846 0
M  V30 6921 C 649.35 0.246964 -1.6759 0
M  V30 6922 O 650.556 0.106693 -1.79684 0
M  V30 6923 H 646.931 -0.22775 -0.716683 0
M  V30 6924 H 648.902 -1.6792 -2.46669 0
M  V30 6925 C 647.651 -0.214364 -3.47039 0
M  V30 6926 H 646.974 -0.980175 -3.87599 0
M  V30 6927 H 648.414 -0.00717047 -4.23999 0
M  V30 6928 C 646.873 1.05436 -3.19976 0
M  V30 6929 O 647.403 2.13483 -3.40276 0
M  V30 6930 N 645.609 0.975436 -2.7374 0
M  V30 6931 H 645.156 0.0960853 -2.57421 0
M  V30 6932 H 645.114 1.82501 -2.5601 0
M  V30 6933 N 648.886 1.2938 -0.899927 0
M  V30 6934 C 649.796 2.31462 -0.382437 0
M  V30 6935 C 650.812 1.65956 0.522929 0
M  V30 6936 O 651.988 1.97131 0.412454 0
M  V30 6937 C 649.053 3.44595 0.381472 0
M  V30 6938 C 648.114 4.25692 -0.555444 0
M  V30 6939 C 647.347 5.33422 0.172102 0
M  V30 6940 O 647.57 5.53053 1.396 0
M  V30 6941 O 646.504 5.99939 -0.485491 0
M  V30 6942 H 650.33 2.77706 -1.22934 0
M  V30 6943 H 647.915 1.33821 -0.664259 0
M  V30 6944 H 649.797 4.13474 0.813442 0
M  V30 6945 H 648.472 3.00458 1.20443 0
M  V30 6946 H 647.379 3.59453 -1.03653 0
M  V30 6947 H 648.712 4.73471 -1.34483 0
M  V30 6948 N 650.364 0.662433 1.43002 0
M  V30 6949 C 651.274 -0.0239199 2.34588 0
M  V30 6950 C 652.29 -0.802255 1.54402 0
M  V30 6951 O 653.466 -0.747401 1.87018 0
M  V30 6952 C 650.531 -0.972098 3.32793 0
M  V30 6953 C 649.592 -0.189673 4.28881 0
M  V30 6954 C 648.825 -1.09269 5.22395 0
M  V30 6955 O 649.048 -2.33209 5.20547 0
M  V30 6956 O 647.982 -0.560136 5.99288 0
M  V30 6957 H 651.808 0.730171 2.94792 0
M  V30 6958 H 649.393 0.422635 1.43297 0
M  V30 6959 H 651.275 -1.51676 3.93157 0
M  V30 6960 H 649.95 -1.70626 2.75079 0
M  V30 6961 H 648.857 0.398794 3.71968 0
M  V30 6962 H 650.19 0.50511 4.89601 0
M  V30 6963 N 651.842 -1.52309 0.404946 0
M  V30 6964 C 653.067 -2.06666 -0.1743 0
M  V30 6965 C 653.492 -1.27341 -1.38441 0
M  V30 6966 O 652.85 -0.302539 -1.78758 0
M  V30 6967 C 652.898 -3.57014 -0.507262 0
M  V30 6968 O 652.002 -3.80144 -1.59889 0
M  V30 6969 H 651.343 -0.663807 -0.0160273 0
M  V30 6970 H 653.873 -1.96297 0.576937 0
M  V30 6971 H 653.883 -4.00724 -0.767098 0
M  V30 6972 H 652.558 -4.14184 0.377368 0
M  V30 6973 H 651.135 -3.48316 -1.33155 0
M  V30 6974 N 653.32 -0.135238 -1.57019 0
M  V30 6975 C 654.252 0.839675 -2.13265 0
M  V30 6976 C 655.265 1.21887 -1.07923 0
M  V30 6977 O 656.454 1.16499 -1.35241 0
M  V30 6978 C 653.554 2.13647 -2.63075 0
M  V30 6979 C 652.727 1.92646 -3.92691 0
M  V30 6980 C 651.786 3.06205 -4.27931 0
M  V30 6981 O 650.812 2.78409 -4.96465 0
M  V30 6982 N 652.014 4.33072 -3.86561 0
M  V30 6983 H 654.779 0.359026 -2.97542 0
M  V30 6984 H 652.34 0.0486979 -1.61827 0
M  V30 6985 H 654.332 2.88641 -2.8367 0
M  V30 6986 H 652.902 2.5301 -1.83588 0
M  V30 6987 H 652.122 1.01754 -3.80841 0
M  V30 6988 H 653.41 1.75939 -4.77413 0
M  V30 6989 H 652.808 4.58526 -3.31316 0
M  V30 6990 H 651.365 5.04885 -4.12231 0
M  V30 6991 N 654.798 1.5699 0.138552 0
M  V30 6992 C 655.708 2.02174 1.19008 0
M  V30 6993 C 656.724 0.938622 1.46512 0
M  V30 6994 O 657.9 1.24872 1.58016 0
M  V30 6995 C 654.965 2.40045 2.50159 0
M  V30 6996 C 654.026 3.62346 2.30226 0
M  V30 6997 C 653.259 3.98401 3.55123 0
M  V30 6998 O 653.482 3.35019 4.61647 0
M  V30 6999 O 652.416 4.91606 3.47285 0
M  V30 7000 H 656.242 2.91954 0.836452 0
M  V30 7001 H 653.827 1.45293 0.347907 0
M  V30 7002 H 655.709 2.65225 3.27465 0
M  V30 7003 H 654.384 1.53417 2.85035 0
M  V30 7004 H 653.291 3.42341 1.50843 0
M  V30 7005 H 654.624 4.49617 2.00262 0
M  V30 7006 N 656.276 -0.40816 1.52223 0
M  V30 7007 C 657.525 -1.15212 1.65557 0
M  V30 7008 C 657.838 -1.9163 0.392096 0
M  V30 7009 O 659.044 -2.68458 0.405256 0
M  V30 7010 C 657.5 -2.09691 2.92502 0
M  V30 7011 C 657.108 -1.38785 4.25961 0
M  V30 7012 C 658.852 -2.8434 3.152 0
M  V30 7013 C 656.759 -2.31919 5.44029 0
M  V30 7014 H 655.689 -0.433776 0.616729 0
M  V30 7015 H 658.34 -0.4165 1.78711 0
M  V30 7016 H 656.722 -2.8681 2.7305 0
M  V30 7017 H 657.896 -0.670248 4.55899 0
M  V30 7018 H 656.211 -0.761741 4.09373 0
M  V30 7019 H 658.808 -3.54166 4.00587 0
M  V30 7020 H 659.151 -3.47344 2.29473 0
M  V30 7021 H 659.684 -2.14321 3.35129 0
M  V30 7022 H 656.423 -1.7356 6.32105 0
M  V30 7023 H 655.943 -3.0165 5.18428 0
M  V30 7024 H 657.622 -2.92424 5.77146 0
M  V30 7025 N 657.755 -1.42862 -0.66545 0
M  V30 7026 C 658.687 -1.43026 -1.79098 0
M  V30 7027 C 659.7 -0.32803 -1.59461 0
M  V30 7028 O 660.889 -0.591709 -1.68407 0
M  V30 7029 C 657.989 -1.21566 -3.16346 0
M  V30 7030 C 657.162 -2.44399 -3.62751 0
M  V30 7031 C 656.221 -2.18344 -4.78761 0
M  V30 7032 O 655.247 -2.91611 -4.88827 0
M  V30 7033 N 656.449 -1.1924 -5.68122 0
M  V30 7034 H 659.214 -2.40045 -1.79439 0
M  V30 7035 H 656.775 -1.37861 -0.848872 0
M  V30 7036 H 658.767 -1.02037 -3.91625 0
M  V30 7037 H 657.337 -0.330368 -3.10849 0
M  V30 7038 H 656.557 -2.79433 -2.78048 0
M  V30 7039 H 657.845 -3.26173 -3.90498 0
M  V30 7040 H 657.243 -0.586603 -5.6265 0
M  V30 7041 H 655.8 -1.05698 -6.43173 0
M  V30 7042 N 659.233 0.902656 -1.29189 0
M  V30 7043 C 660.18 2.00643 -1.14066 0
M  V30 7044 C 661.15 1.66064 -0.0347756 0
M  V30 7045 O 662.335 1.8973 -0.201752 0
M  V30 7046 C 659.475 3.35214 -0.820104 0
M  V30 7047 C 658.588 3.82594 -2.00614 0
M  V30 7048 C 657.723 5.05727 -1.62522 0
M  V30 7049 C 656.762 5.45469 -2.77724 0
M  V30 7050 N 655.899 6.59789 -2.40048 0
M  V30 7051 H 660.739 2.1291 -2.08502 0
M  V30 7052 H 658.276 1.04271 -1.03759 0
M  V30 7053 H 660.234 4.12643 -0.614949 0
M  V30 7054 H 658.864 3.22682 0.0873452 0
M  V30 7055 H 657.916 3.01226 -2.32308 0
M  V30 7056 H 659.228 4.07999 -2.86946 0
M  V30 7057 H 658.382 5.90732 -1.38277 0
M  V30 7058 H 657.121 4.82155 -0.733333 0
M  V30 7059 H 656.126 4.59 -3.02653 0
M  V30 7060 H 657.351 5.71024 -3.67572 0
M  V30 7061 H 655.297 6.37826 -1.53343 0
M  V30 7062 H 655.214 6.84975 -3.19914 0
M  V30 7063 H 656.482 7.4807 -2.19116 0
M  V30 7064 N 660.711 1.11618 1.11262 0
M  V30 7065 C 661.658 0.7762 2.17356 0
M  V30 7066 C 662.628 -0.253152 1.6416 0
M  V30 7067 O 663.813 -0.129655 1.90359 0
M  V30 7068 C 660.953 0.227581 3.44349 0
M  V30 7069 C 660.066 1.31372 4.1154 0
M  V30 7070 C 659.201 0.72544 5.26223 0
M  V30 7071 C 658.24 1.7913 5.85302 0
M  V30 7072 N 657.377 1.22237 6.91377 0
M  V30 7073 H 662.217 1.68508 2.45783 0
M  V30 7074 H 659.754 0.841475 1.20655 0
M  V30 7075 H 661.712 -0.108483 4.17059 0
M  V30 7076 H 660.342 -0.644486 3.16301 0
M  V30 7077 H 659.394 1.7667 3.36885 0
M  V30 7078 H 660.706 2.12005 4.51504 0
M  V30 7079 H 659.86 0.339541 6.05749 0
M  V30 7080 H 658.599 -0.112188 4.87571 0
M  V30 7081 H 657.604 2.18648 5.04453 0
M  V30 7082 H 658.829 2.63199 6.26022 0
M  V30 7083 H 656.775 0.406423 6.5474 0
M  V30 7084 H 656.692 1.9654 7.30006 0
M  V30 7085 H 657.96 0.863426 7.74703 0
M  V30 7086 N 662.189 -1.289 0.906776 0
M  V30 7087 C 663.119 -2.29932 0.406659 0
M  V30 7088 C 664.1 -1.6189 -0.522061 0
M  V30 7089 O 665.285 -1.8935 -0.431283 0
M  V30 7090 C 662.415 -3.45425 -0.360366 0
M  V30 7091 C 661.369 -4.25316 0.478574 0
M  V30 7092 C 660.695 -5.33076 -0.416373 0
M  V30 7093 C 661.995 -4.92739 1.7322 0
M  V30 7094 H 663.689 -2.72013 1.25097 0
M  V30 7095 H 661.235 -1.30768 0.602977 0
M  V30 7096 H 663.188 -4.15186 -0.721029 0
M  V30 7097 H 661.912 -3.02206 -1.23852 0
M  V30 7098 H 660.571 -3.57273 0.821662 0
M  V30 7099 H 660.219 -4.86101 -1.29287 0
M  V30 7100 H 659.919 -5.8743 0.141309 0
M  V30 7101 H 661.443 -6.05686 -0.773072 0
M  V30 7102 H 662.857 -5.54898 1.44086 0
M  V30 7103 H 661.254 -5.57057 2.23175 0
M  V30 7104 H 662.324 -4.17625 2.46408 0
M  V30 7105 N 663.667 -0.670007 -1.42649 0
M  V30 7106 C 664.897 -0.198252 -2.05647 0
M  V30 7107 C 665.305 1.14786 -1.50402 0
M  V30 7108 O 664.648 1.72316 -0.636634 0
M  V30 7109 C 664.71 -0.0507132 -3.59464 0
M  V30 7110 C 664.374 -1.32478 -4.37377 0
M  V30 7111 C 665.371 -2.2572 -4.68344 0
M  V30 7112 C 663.056 -1.57104 -4.77099 0
M  V30 7113 C 665.05 -3.4187 -5.37963 0
M  V30 7114 C 662.737 -2.73543 -5.46459 0
M  V30 7115 C 663.735 -3.65751 -5.76815 0
M  V30 7116 O 663.423 -4.80154 -6.44753 0
M  V30 7117 H 663.155 -0.0950721 -0.669281 0
M  V30 7118 H 665.709 -0.915745 -1.83857 0
M  V30 7119 H 663.939 0.722314 -3.79894 0
M  V30 7120 H 665.628 0.380552 -4.04112 0
M  V30 7121 H 666.394 -2.07943 -4.38161 0
M  V30 7122 H 662.273 -0.862069 -4.52868 0
M  V30 7123 H 665.817 -4.13861 -5.61574 0
M  V30 7124 H 661.714 -2.91248 -5.7606 0
M  V30 7125 H 662.482 -4.79637 -6.63243 0
M  V30 7126 N 665.145 1.52092 -0.413018 0
M  V30 7127 C 666.373 2.06274 0.160881 0
M  V30 7128 C 666.788 1.28273 1.38533 0
M  V30 7129 O 666.145 0.33563 1.79387 0
M  V30 7130 C 666.196 3.57921 0.507443 0
M  V30 7131 O 665.917 4.32971 -0.668388 0
M  V30 7132 C 667.418 4.28533 1.13465 0
M  V30 7133 H 664.638 0.67074 0.0186759 0
M  V30 7134 H 667.182 1.95951 -0.585092 0
M  V30 7135 H 665.337 3.68238 1.20331 0
M  V30 7136 H 665.751 5.23135 -0.378169 0
M  V30 7137 H 667.225 5.35804 1.32732 0
M  V30 7138 H 667.702 3.85258 2.10886 0
M  V30 7139 H 668.308 4.22595 0.478876 0
M  V30 7140 N 666.623 0.143563 1.56945 0
M  V30 7141 C 667.553 -0.7936 2.196 0
M  V30 7142 C 668.534 -1.25955 1.14321 0
M  V30 7143 O 669.719 -1.31773 1.42651 0
M  V30 7144 C 666.849 -2.03424 2.81489 0
M  V30 7145 C 665.803 -1.70519 3.92565 0
M  V30 7146 C 665.129 -3.01817 4.41373 0
M  V30 7147 C 666.429 -0.95449 5.13504 0
M  V30 7148 H 668.123 -0.271423 2.98167 0
M  V30 7149 H 665.669 -0.12911 1.4342 0
M  V30 7150 H 667.622 -2.69463 3.23987 0
M  V30 7151 H 666.346 -2.58008 2.00248 0
M  V30 7152 H 665.005 -1.06859 3.5068 0
M  V30 7153 H 664.653 -3.54386 3.56959 0
M  V30 7154 H 664.353 -2.80565 5.16292 0
M  V30 7155 H 665.877 -3.68934 4.86539 0
M  V30 7156 H 667.291 -1.5169 5.52868 0
M  V30 7157 H 665.688 -0.842035 5.94163 0
M  V30 7158 H 666.758 0.0544033 4.84869 0
M  V30 7159 N 668.101 -1.57061 -0.130224 0
M  V30 7160 C 669.011 -2.02802 -1.17934 0
M  V30 7161 C 670.027 -0.946378 -1.46013 0
M  V30 7162 O 671.203 -1.25708 -1.57351 0
M  V30 7163 C 668.268 -2.41368 -2.48882 0
M  V30 7164 C 667.329 -3.63561 -2.28301 0
M  V30 7165 C 666.562 -4.00279 -3.53005 0
M  V30 7166 O 666.785 -3.37463 -4.59864 0
M  V30 7167 O 665.719 -4.93441 -3.44673 0
M  V30 7168 H 669.545 -2.92394 -0.820958 0
M  V30 7169 H 667.13 -1.45475 -0.340197 0
M  V30 7170 H 669.012 -2.66958 -3.26054 0
M  V30 7171 H 667.687 -1.54926 -2.84217 0
M  V30 7172 H 666.594 -3.43136 -1.49025 0
M  V30 7173 H 667.927 -4.50673 -1.97875 0
M  V30 7174 N 669.579 0.400081 -1.52437 0
M  V30 7175 C 670.489 1.51253 -1.79331 0
M  V30 7176 C 671.505 1.60188 -0.679396 0
M  V30 7177 O 672.681 1.76733 -0.965791 0
M  V30 7178 C 669.746 2.869 -1.94652 0
M  V30 7179 C 668.807 2.87777 -3.18564 0
M  V30 7180 C 668.04 4.16954 -3.33145 0
M  V30 7181 O 668.263 5.11329 -2.52783 0
M  V30 7182 O 667.197 4.2487 -4.26343 0
M  V30 7183 H 671.023 1.31461 -2.73773 0
M  V30 7184 H 668.608 0.586834 -1.37392 0
M  V30 7185 H 670.49 3.67336 -2.065 0
M  V30 7186 H 669.165 3.06741 -1.034 0
M  V30 7187 H 668.072 2.06162 -3.12167 0
M  V30 7188 H 669.405 2.72886 -4.09627 0
M  V30 7189 N 671.057 1.43213 0.657864 0
M  V30 7190 C 672.007 1.44459 1.76396 0
M  V30 7191 C 672.991 0.313641 1.57814 0
M  V30 7192 O 674.183 0.557094 1.68004 0
M  V30 7193 C 671.312 1.36586 3.14959 0
M  V30 7194 C 670.398 2.54692 3.39106 0
M  V30 7195 N 670.789 3.80059 3.33749 0
M  V30 7196 C 669.087 2.49316 3.69807 0
M  V30 7197 C 669.788 4.58606 3.57849 0
M  V30 7198 N 668.764 3.89267 3.79437 0
M  V30 7199 H 672.566 2.39265 1.70673 0
M  V30 7200 H 670.08 1.378 0.859357 0
M  V30 7201 H 672.077 1.35561 3.94245 0
M  V30 7202 H 670.737 0.427956 3.21867 0
M  V30 7203 H 671.748 4.12414 3.13266 0
M  V30 7204 H 668.425 1.6419 3.83859 0
M  V30 7205 H 669.815 5.67619 3.59525 0
M  V30 7206 N 672.536 -0.895792 1.29666 0
M  V30 7207 C 673.466 -2.01673 1.17688 0
M  V30 7208 C 674.447 -1.69955 0.0701317 0
M  V30 7209 O 675.632 -1.9258 0.250289 0
M  V30 7210 C 672.762 -3.36568 0.856681 0
M  V30 7211 C 671.716 -3.82509 1.92017 0
M  V30 7212 C 671.042 -5.14574 1.4532 0
M  V30 7213 C 672.342 -4.02409 3.32963 0
M  V30 7214 H 674.036 -2.11953 2.11463 0
M  V30 7215 H 671.582 -1.01839 1.01807 0
M  V30 7216 H 673.535 -4.14498 0.759577 0
M  V30 7217 H 672.259 -3.26391 -0.116763 0
M  V30 7218 H 670.918 -3.068 2.00673 0
M  V30 7219 H 670.566 -5.00815 0.468325 0
M  V30 7220 H 670.266 -5.46283 2.16447 0
M  V30 7221 H 671.79 -5.9504 1.36968 0
M  V30 7222 H 673.204 -4.70808 3.27127 0
M  V30 7223 H 671.601 -4.45478 4.02082 0
M  V30 7224 H 672.671 -3.06616 3.75652 0
M  V30 7225 N 674.014 -1.12206 -1.10668 0
M  V30 7226 C 675.239 -0.898938 -1.86906 0
M  V30 7227 C 675.664 0.546346 -1.79991 0
M  V30 7228 O 675.022 1.38655 -1.1681 0
M  V30 7229 C 675.07 -1.37529 -3.33344 0
M  V30 7230 O 674.174 -0.55218 -4.08687 0
M  V30 7231 H 673.515 -0.323163 -0.580053 0
M  V30 7232 H 676.045 -1.49355 -1.39837 0
M  V30 7233 H 676.055 -1.3733 -3.84193 0
M  V30 7234 H 674.73 -2.42767 -3.37693 0
M  V30 7235 H 673.307 -0.620947 -3.67694 0
M  V30 7236 N 675.492 1.28418 -0.913599 0
M  V30 7237 C 676.44 2.29272 -0.392037 0
M  V30 7238 C 677.434 1.61344 0.516198 0
M  V30 7239 O 678.64 1.75557 0.39746 0
M  V30 7240 H 675.015 0.744178 -0.108178 0
M  V30 7241 H 676.986 2.70691 -1.25574 0
M  V30 7242 C 675.735 3.45905 0.352815 0
M  V30 7243 H 675.058 3.98378 -0.336848 0
M  V30 7244 H 676.498 4.18473 0.682398 0
M  V30 7245 C 674.957 2.98572 1.56065 0
M  V30 7246 O 675.487 3.01033 2.65974 0
M  V30 7247 N 673.693 2.54235 1.40759 0
M  V30 7248 H 673.24 2.52432 0.513403 0
M  V30 7249 H 673.198 2.22925 2.21702 0
M  V30 7250 N 676.97 0.677563 1.42291 0
M  V30 7251 C 677.88 0.000962654 2.346 0
M  V30 7252 C 678.896 -0.785833 1.55244 0
M  V30 7253 O 680.072 -0.727523 1.87801 0
M  V30 7254 C 677.137 -0.936746 3.33805 0
M  V30 7255 C 676.198 -0.144173 4.29058 0
M  V30 7256 C 675.431 -1.03722 5.23524 0
M  V30 7257 O 675.654 -2.27675 5.22992 0
M  V30 7258 O 674.588 -0.496542 5.99848 0
M  V30 7259 H 678.414 0.761397 2.94001 0
M  V30 7260 H 675.999 0.43781 1.42841 0
M  V30 7261 H 677.881 -1.47497 3.94744 0
M  V30 7262 H 676.556 -1.67698 2.76874 0
M  V30 7263 H 675.463 0.438224 3.71524 0
M  V30 7264 H 676.796 0.55701 4.89038 0
M  V30 7265 N 678.448 -1.51871 0.421078 0
M  V30 7266 C 679.381 -2.23851 -0.443369 0
M  V30 7267 C 680.359 -1.25142 -1.03818 0
M  V30 7268 O 681.543 -1.5423 -1.08377 0
M  V30 7269 C 678.67 -2.97637 -1.61648 0
M  V30 7270 C 677.716 -4.10873 -1.14391 0
M  V30 7271 S 678.549 -5.35408 -0.0992403 0
M  V30 7272 C 679.705 -6.12726 -1.27739 0
M  V30 7273 H 679.938 -2.96826 0.167786 0
M  V30 7274 H 677.471 -1.53027 0.205461 0
M  V30 7275 H 679.429 -3.40751 -2.28909 0
M  V30 7276 H 678.09 -2.24282 -2.199 0
M  V30 7277 H 677.283 -4.61718 -2.02069 0
M  V30 7278 H 676.885 -3.69937 -0.549775 0
M  V30 7279 H 679.177 -6.40827 -2.19881 0
M  V30 7280 H 680.12 -7.03461 -0.809239 0
M  V30 7281 H 680.528 -5.43968 -1.5086 0
M  V30 7282 N 679.926 -0.151884 -1.56866 0
M  V30 7283 C 680.858 0.817008 -2.14144 0
M  V30 7284 C 681.871 1.20735 -1.0921 0
M  V30 7285 O 683.06 1.15058 -1.36469 0
M  V30 7286 C 680.16 2.10844 -2.65326 0
M  V30 7287 C 679.333 1.88471 -3.94712 0
M  V30 7288 C 678.392 3.01649 -4.31155 0
M  V30 7289 O 677.418 2.73127 -4.9939 0
M  V30 7290 N 678.62 4.28947 -3.91132 0
M  V30 7291 H 681.385 0.327448 -2.97906 0
M  V30 7292 H 678.946 0.0315313 -1.61869 0
M  V30 7293 H 680.938 2.85616 -2.86715 0
M  V30 7294 H 679.508 2.51049 -1.86262 0
M  V30 7295 H 678.728 0.977088 -3.81899 0
M  V30 7296 H 680.016 1.70866 -4.79252 0
M  V30 7297 H 679.414 4.54986 -3.36161 0
M  V30 7298 H 677.971 5.00484 -4.17563 0
M  V30 7299 N 681.404 1.57128 0.121893 0
M  V30 7300 C 682.367 1.99197 1.13372 0
M  V30 7301 C 683.367 0.881728 1.3447 0
M  V30 7302 O 684.557 1.14783 1.31036 0
M  V30 7303 C 681.689 2.32963 2.4888 0
M  V30 7304 H 682.882 2.89788 0.772204 0
M  V30 7305 H 680.435 1.51952 0.366093 0
M  V30 7306 H 681.17 1.45243 2.89957 0
M  V30 7307 H 680.955 3.13934 2.34921 0
M  V30 7308 H 682.445 2.66261 3.21706 0
M  V30 7309 N 682.882 -0.391992 1.52647 0
M  V30 7310 C 683.829 -1.47866 1.77213 0
M  V30 7311 C 684.799 -1.54286 0.615223 0
M  V30 7312 O 685.984 -1.7059 0.854622 0
M  V30 7313 C 683.124 -2.85129 1.94411 0
M  V30 7314 C 682.237 -2.87883 3.22098 0
M  V30 7315 C 681.372 -4.16553 3.29631 0
M  V30 7316 C 680.411 -4.13348 4.51453 0
M  V30 7317 N 679.548 -5.33619 4.56284 0
M  V30 7318 H 684.388 -1.26219 2.6995 0
M  V30 7319 H 681.925 -0.612367 1.33748 0
M  V30 7320 H 683.883 -3.64833 2.02367 0
M  V30 7321 H 682.513 -3.05232 1.05038 0
M  V30 7322 H 681.565 -2.00567 3.23229 0
M  V30 7323 H 682.877 -2.81382 4.11856 0
M  V30 7324 H 682.031 -5.0466 3.36753 0
M  V30 7325 H 680.77 -4.25773 2.37842 0
M  V30 7326 H 679.775 -3.23629 4.44459 0
M  V30 7327 H 681 -4.05754 5.44555 0
M  V30 7328 H 678.946 -5.43474 3.67385 0
M  V30 7329 H 678.863 -5.29182 5.3991 0
M  V30 7330 H 680.131 -6.23632 4.67657 0
M  V30 7331 N 684.36 -1.4356 -0.65026 0
M  V30 7332 C 685.27 -1.514 -1.79207 0
M  V30 7333 C 686.286 -0.400895 -1.69319 0
M  V30 7334 O 687.462 -0.655458 -1.90436 0
M  V30 7335 C 684.527 -1.43737 -3.155 0
M  V30 7336 C 683.588 -2.65743 -3.37163 0
M  V30 7337 C 682.821 -2.58436 -4.66954 0
M  V30 7338 O 683.044 -1.63374 -5.46503 0
M  V30 7339 O 681.978 -3.48984 -4.90402 0
M  V30 7340 H 685.804 -2.47825 -1.75547 0
M  V30 7341 H 683.389 -1.25594 -0.809111 0
M  V30 7342 H 685.271 -1.41916 -3.96784 0
M  V30 7343 H 683.946 -0.504488 -3.19745 0
M  V30 7344 H 682.853 -2.73136 -2.55632 0
M  V30 7345 H 684.186 -3.58014 -3.37768 0
M  V30 7346 N 685.838 0.888903 -1.30139 0
M  V30 7347 C 686.748 2.02705 -1.18101 0
M  V30 7348 C 687.764 1.73702 -0.101809 0
M  V30 7349 O 688.94 1.98906 -0.315984 0
M  V30 7350 C 686.005 3.35616 -0.869651 0
M  V30 7351 C 685.066 3.78067 -2.03381 0
M  V30 7352 C 684.299 5.04635 -1.73721 0
M  V30 7353 O 684.522 5.66531 -0.663267 0
M  V30 7354 O 683.456 5.43399 -2.58845 0
M  V30 7355 H 687.282 2.15788 -2.13704 0
M  V30 7356 H 684.867 1.01426 -1.09695 0
M  V30 7357 H 686.749 4.15358 -0.711043 0
M  V30 7358 H 685.424 3.23651 0.0565002 0
M  V30 7359 H 684.331 2.99046 -2.24772 0
M  V30 7360 H 685.664 3.94631 -2.94155 0
M  V30 7361 N 687.317 1.12792 1.10072 0
M  V30 7362 C 688.247 0.821688 2.18565 0
M  V30 7363 C 689.228 -0.21612 1.68721 0
M  V30 7364 O 690.413 -0.0764932 1.94049 0
M  V30 7365 C 687.543 0.279624 3.46172 0
M  V30 7366 C 686.497 1.25092 4.09312 0
M  V30 7367 C 685.823 0.568916 5.31665 0
M  V30 7368 C 687.123 2.60699 4.52585 0
M  V30 7369 H 688.817 1.72888 2.44438 0
M  V30 7370 H 686.363 0.832702 1.17482 0
M  V30 7371 H 688.316 0.053099 4.21367 0
M  V30 7372 H 687.04 -0.662929 3.19801 0
M  V30 7373 H 685.699 1.46332 3.36129 0
M  V30 7374 H 685.347 -0.378898 5.01571 0
M  V30 7375 H 685.047 1.21687 5.74862 0
M  V30 7376 H 686.571 0.351517 6.09587 0
M  V30 7377 H 687.985 2.43465 5.19035 0
M  V30 7378 H 686.382 3.21608 5.06644 0
M  V30 7379 H 687.452 3.1886 3.65317 0
M  V30 7380 N 688.795 -1.27931 0.920396 0
M  V30 7381 C 689.705 -2.30824 0.419212 0
M  V30 7382 C 690.721 -1.66767 -0.496461 0
M  V30 7383 O 691.897 -1.97763 -0.38104 0
M  V30 7384 C 688.962 -3.45158 -0.326601 0
M  V30 7385 C 688.023 -4.24754 0.623098 0
M  V30 7386 C 687.256 -5.33629 -0.0872172 0
M  V30 7387 O 687.479 -5.55204 -1.30784 0
M  V30 7388 O 686.413 -5.99091 0.580875 0
M  V30 7389 H 690.239 -2.75716 1.27337 0
M  V30 7390 H 687.824 -1.32747 0.685465 0
M  V30 7391 H 689.706 -4.14716 -0.747559 0
M  V30 7392 H 688.381 -3.02336 -1.15648 0
M  V30 7393 H 687.288 -3.57759 1.09359 0
M  V30 7394 H 688.621 -4.71272 1.41998 0
M  V30 7395 N 690.273 -0.685099 -1.4193 0
M  V30 7396 C 691.205 0.0258679 -2.29185 0
M  V30 7397 C 692.218 0.755076 -1.44231 0
M  V30 7398 O 693.407 0.60752 -1.67844 0
M  V30 7399 C 690.507 1.06055 -3.21878 0
M  V30 7400 C 689.68 0.403088 -4.35539 0
M  V30 7401 C 688.739 1.33895 -5.0888 0
M  V30 7402 O 687.765 0.835326 -5.63037 0
M  V30 7403 N 688.967 2.6718 -5.15359 0
M  V30 7404 H 691.732 -0.723201 -2.90843 0
M  V30 7405 H 689.293 -0.53031 -1.52968 0
M  V30 7406 H 691.285 1.68813 -3.6781 0
M  V30 7407 H 689.855 1.71126 -2.616 0
M  V30 7408 H 689.075 -0.404185 -3.92122 0
M  V30 7409 H 690.363 -0.0545098 -5.08771 0
M  V30 7410 H 689.761 3.10626 -4.72788 0
M  V30 7411 H 688.318 3.25159 -5.64903 0
M  V30 7412 N 691.751 1.51645 -0.429126 0
M  V30 7413 C 692.698 2.27542 0.386446 0
M  V30 7414 C 693.668 1.30786 1.02393 0
M  V30 7415 O 694.853 1.59678 1.0444 0
M  V30 7416 C 691.993 3.11457 1.48623 0
M  V30 7417 C 691.106 4.23196 0.867691 0
M  V30 7418 C 690.241 4.94435 1.94183 0
M  V30 7419 C 689.28 5.98108 1.30129 0
M  V30 7420 N 688.417 6.62786 2.31644 0
M  V30 7421 H 693.257 2.968 -0.267155 0
M  V30 7422 H 690.794 1.46397 -0.143591 0
M  V30 7423 H 692.752 3.58429 2.13506 0
M  V30 7424 H 691.382 2.44329 2.10957 0
M  V30 7425 H 690.434 3.80248 0.107373 0
M  V30 7426 H 691.746 4.97499 0.35997 0
M  V30 7427 H 690.9 5.44914 2.66747 0
M  V30 7428 H 689.639 4.19744 2.48326 0
M  V30 7429 H 688.644 5.4693 0.561082 0
M  V30 7430 H 689.869 6.74751 0.767303 0
M  V30 7431 H 687.815 5.90913 2.84883 0
M  V30 7432 H 687.732 7.32828 1.85741 0
M  V30 7433 H 689 7.17897 3.03717 0
M  V30 7434 N 693.229 0.160201 1.56784 0
M  V30 7435 C 694.469 -0.490179 1.98435 0
M  V30 7436 C 694.833 -1.61164 1.04355 0
M  V30 7437 O 696.034 -2.3238 1.35103 0
M  V30 7438 C 694.305 -0.971106 3.43954 0
M  V30 7439 S 695.864 -1.62423 4.07632 0
M  V30 7440 H 692.682 -0.158056 0.693209 0
M  V30 7441 H 695.284 0.255036 1.93829 0
M  V30 7442 H 693.988 -0.144323 4.10146 0
M  V30 7443 H 693.519 -1.75063 3.52302 0
M  V30 7444 H 695.534 -2.91199 4.01768 0
M  V30 7445 N 694.707 -1.5719 -0.113559 0
M  V30 7446 C 695.654 -2.00736 -1.13901 0
M  V30 7447 C 696.624 -0.88044 -1.40846 0
M  V30 7448 O 697.809 -1.14507 -1.5262 0
M  V30 7449 C 694.949 -2.42132 -2.45899 0
M  V30 7450 C 694.062 -3.68264 -2.25844 0
M  V30 7451 C 693.197 -3.98617 -3.5111 0
M  V30 7452 C 692.236 -5.17915 -3.26236 0
M  V30 7453 N 691.373 -5.44111 -4.4372 0
M  V30 7454 H 696.213 -2.88128 -0.760677 0
M  V30 7455 H 693.75 -1.42523 -0.364099 0
M  V30 7456 H 695.708 -2.6417 -3.22908 0
M  V30 7457 H 694.338 -1.57775 -2.81615 0
M  V30 7458 H 693.39 -3.53809 -1.39726 0
M  V30 7459 H 694.702 -4.55425 -2.03444 0
M  V30 7460 H 693.856 -4.21333 -4.36536 0
M  V30 7461 H 692.595 -3.09942 -3.76546 0
M  V30 7462 H 691.6 -4.95038 -2.39202 0
M  V30 7463 H 692.825 -6.08172 -3.02165 0
M  V30 7464 H 690.771 -4.58394 -4.69266 0
M  V30 7465 H 690.688 -6.25606 -4.24444 0
M  V30 7466 H 691.956 -5.71351 -5.30263 0
M  V30 7467 N 696.185 0.383891 -1.52853 0
M  V30 7468 C 697.41 1.154 -1.7233 0
M  V30 7469 C 697.835 1.82809 -0.44298 0
M  V30 7470 O 697.193 1.71026 0.601645 0
M  V30 7471 C 697.241 2.17386 -2.87708 0
M  V30 7472 O 696.345 3.24082 -2.55038 0
M  V30 7473 H 695.686 0.335709 -0.572883 0
M  V30 7474 H 698.216 0.44662 -1.99666 0
M  V30 7475 H 698.226 2.61296 -3.1335 0
M  V30 7476 H 696.901 1.6771 -3.80587 0
M  V30 7477 H 695.478 2.85273 -2.40153 0
M  V30 7478 N 697.663 1.43903 0.642637 0
M  V30 7479 C 698.909 1.46296 1.40447 0
M  V30 7480 C 699.242 0.0908361 1.93987 0
M  V30 7481 O 698.517 -0.889884 1.72949 0
M  V30 7482 C 698.8 2.51399 2.57819 0
M  V30 7483 C 698.653 3.97926 2.09702 0
M  V30 7484 C 699.972 2.53125 3.60022 0
M  V30 7485 H 697.091 0.532676 0.509338 0
M  V30 7486 H 699.733 1.75515 0.727635 0
M  V30 7487 H 697.883 2.26614 3.1556 0
M  V30 7488 H 699.555 4.33804 1.5688 0
M  V30 7489 H 697.798 4.10252 1.40982 0
M  V30 7490 H 698.469 4.67096 2.94152 0
M  V30 7491 H 700.945 2.75242 3.12059 0
M  V30 7492 H 699.821 3.28589 4.39682 0
M  V30 7493 H 700.082 1.56895 4.13324 0
M  V30 7494 N 699.141 -0.881989 1.30609 0
M  V30 7495 C 700.089 -2.00942 1.17155 0
M  V30 7496 C 701.083 -1.69198 0.0827154 0
M  V30 7497 O 702.289 -1.78342 0.243775 0
M  V30 7498 H 698.664 -0.658913 0.362406 0
M  V30 7499 H 700.635 -2.09423 2.12567 0
M  V30 7500 C 699.384 -3.36294 0.883273 0
M  V30 7501 H 698.707 -3.61233 1.7132 0
M  V30 7502 H 700.147 -4.15812 0.829255 0
M  V30 7503 C 698.606 -3.34348 -0.413851 0
M  V30 7504 O 699.136 -3.75216 -1.43444 0
M  V30 7505 N 697.342 -2.87459 -0.426082 0
M  V30 7506 H 696.889 -2.54397 0.40493 0
M  V30 7507 H 696.847 -2.8654 -1.29391 0
M  V30 7508 N 700.619 -1.13374 -1.09472 0
M  V30 7509 C 701.847 -0.918351 -1.85402 0
M  V30 7510 C 702.262 0.53281 -1.81126 0
M  V30 7511 O 701.619 1.36879 -1.20708 0
M  V30 7512 C 701.67 -1.39743 -3.33398 0
M  V30 7513 O 701.391 -2.79172 -3.37631 0
M  V30 7514 C 702.892 -1.22042 -4.2617 0
M  V30 7515 H 700.112 -0.327511 -0.585643 0
M  V30 7516 H 702.656 -1.50617 -1.38328 0
M  V30 7517 H 700.811 -0.852619 -3.77901 0
M  V30 7518 H 701.225 -3.00428 -4.29934 0
M  V30 7519 H 702.699 -1.60438 -5.2817 0
M  V30 7520 H 703.176 -0.162047 -4.38901 0
M  V30 7521 H 703.782 -1.75323 -3.87482 0
M  V30 7522 N 702.098 1.27442 -0.927168 0
M  V30 7523 C 703.514 1.46754 -0.627329 0
M  V30 7524 C 703.714 1.83902 0.823549 0
M  V30 7525 O 702.77 1.95215 1.60148 0
M  V30 7526 C 704.083 2.56045 -1.57674 0
M  V30 7527 C 705.631 2.69906 -1.58491 0
M  V30 7528 C 706.106 3.82355 -2.52128 0
M  V30 7529 N 707.597 3.89728 -2.50332 0
M  V30 7530 C 708.332 4.76155 -3.19475 0
M  V30 7531 N 707.828 5.67073 -3.97995 0
M  V30 7532 N 709.621 4.6988 -3.08496 0
M  V30 7533 H 701.772 1.01613 -1.86517 0
M  V30 7534 H 704.035 0.507443 -0.800753 0
M  V30 7535 H 703.741 2.35542 -2.61176 0
M  V30 7536 H 703.615 3.53423 -1.31804 0
M  V30 7537 H 706.002 2.89792 -0.557208 0
M  V30 7538 H 706.083 1.73018 -1.8841 0
M  V30 7539 H 705.727 3.63224 -3.55008 0
M  V30 7540 H 705.657 4.7867 -2.19505 0
M  V30 7541 H 708.148 3.24717 -1.93306 0
M  V30 7542 H 708.461 6.2988 -4.4774 0
M  V30 7543 H 706.806 5.6687 -4.02098 0
M  V30 7544 H 709.997 3.97848 -2.46646 0
M  V30 7545 H 710.17 5.37017 -3.62652 0
M  V30 7546 N 703.576 0.692616 1.41565 0
M  V30 7547 C 704.506 0.0397325 2.33466 0
M  V30 7548 C 705.487 -0.770334 1.51657 0
M  V30 7549 O 706.672 -0.723903 1.80203 0
M  V30 7550 C 703.802 -0.899495 3.3545 0
M  V30 7551 C 702.756 -0.196738 4.27548 0
M  V30 7552 C 702.082 -1.25012 5.19881 0
M  V30 7553 C 703.382 0.935158 5.1386 0
M  V30 7554 H 705.076 0.807296 2.88311 0
M  V30 7555 H 702.622 0.389665 1.38628 0
M  V30 7556 H 704.575 -1.36545 3.98665 0
M  V30 7557 H 703.299 -1.69869 2.78948 0
M  V30 7558 H 701.958 0.249158 3.65752 0
M  V30 7559 H 701.606 -2.04177 4.59696 0
M  V30 7560 H 701.306 -0.784931 5.82334 0
M  V30 7561 H 702.83 -1.71665 5.85972 0
M  V30 7562 H 704.244 0.549619 5.70659 0
M  V30 7563 H 702.641 1.32726 5.85238 0
M  V30 7564 H 703.711 1.77613 4.512 0
M  V30 7565 N 705.054 -1.51416 0.437162 0
M  V30 7566 C 705.964 -2.31493 -0.380537 0
M  V30 7567 C 706.98 -1.40399 -1.02782 0
M  V30 7568 O 708.156 -1.73471 -1.02323 0
M  V30 7569 C 705.221 -3.1413 -1.46709 0
M  V30 7570 C 704.282 -4.21003 -0.839953 0
M  V30 7571 C 703.515 -4.9969 -1.87473 0
M  V30 7572 O 703.738 -4.79008 -3.09689 0
M  V30 7573 O 702.672 -5.8379 -1.46536 0
M  V30 7574 H 706.498 -3.02469 0.273183 0
M  V30 7575 H 704.083 -1.48059 0.199706 0
M  V30 7576 H 705.965 -3.65505 -2.09724 0
M  V30 7577 H 704.64 -2.45919 -2.10489 0
M  V30 7578 H 703.547 -3.73706 -0.171752 0
M  V30 7579 H 704.88 -4.91587 -0.245638 0
M  V30 7580 N 706.532 -0.168513 -1.56696 0
M  V30 7581 C 707.479 0.762875 -2.17828 0
M  V30 7582 C 708.449 1.22892 -1.11745 0
M  V30 7583 O 709.634 1.29759 -1.39883 0
M  V30 7584 C 706.774 1.9879 -2.82093 0
M  V30 7585 C 705.887 1.56568 -4.02629 0
M  V30 7586 C 705.022 2.74416 -4.54829 0
M  V30 7587 C 704.061 2.28671 -5.67782 0
M  V30 7588 N 703.198 3.39602 -6.14504 0
M  V30 7589 H 708.038 0.23479 -2.97074 0
M  V30 7590 H 705.575 0.104163 -1.46731 0
M  V30 7591 H 707.533 2.70636 -3.17509 0
M  V30 7592 H 706.163 2.48973 -2.05456 0
M  V30 7593 H 705.215 0.744067 -3.73052 0
M  V30 7594 H 706.527 1.18988 -4.844 0
M  V30 7595 H 705.681 3.54423 -4.92412 0
M  V30 7596 H 704.42 3.15254 -3.7211 0
M  V30 7597 H 703.425 1.4711 -5.29753 0
M  V30 7598 H 704.65 1.88894 -6.52301 0
M  V30 7599 H 702.596 3.80021 -5.34715 0
M  V30 7600 H 702.513 3.06105 -6.91257 0
M  V30 7601 H 703.781 4.19902 -6.56737 0
M  V30 7602 N 708.01 1.57248 0.105221 0
M  V30 7603 C 709.238 1.89768 0.82437 0
M  V30 7604 C 709.653 0.761192 1.72775 0
M  V30 7605 O 709.01 -0.267342 1.80531 0
M  V30 7606 C 709.061 3.2184 1.64625 0
M  V30 7607 O 708.782 4.31115 0.779217 0
M  V30 7608 C 710.283 3.68155 2.46935 0
M  V30 7609 H 707.503 0.628031 0.236259 0
M  V30 7610 H 710.047 2.04321 0.085485 0
M  V30 7611 H 708.202 3.08915 2.33775 0
M  V30 7612 H 708.616 5.06897 1.34745 0
M  V30 7613 H 710.09 4.6329 3.00111 0
M  V30 7614 H 710.567 2.95492 3.24932 0
M  V30 7615 H 711.173 3.83914 1.83002 0
M  V30 7616 N 709.488 -0.375779 1.53054 0
M  V30 7617 C 710.451 -1.44254 1.7811 0
M  V30 7618 C 711.451 -1.47018 0.651328 0
M  V30 7619 O 712.641 -1.47957 0.919472 0
M  V30 7620 C 709.773 -2.8345 1.89391 0
M  V30 7621 H 710.966 -1.23316 2.73374 0
M  V30 7622 H 708.519 -0.608312 1.43977 0
M  V30 7623 H 709.254 -3.09716 0.961589 0
M  V30 7624 H 709.039 -2.82844 2.71555 0
M  V30 7625 H 710.529 -3.60722 2.10404 0
M  V30 7626 N 710.966 -1.44241 -0.634997 0
M  V30 7627 C 711.913 -1.5081 -1.74714 0
M  V30 7628 C 712.883 -0.356147 -1.62237 0
M  V30 7629 O 714.068 -0.565848 -1.82216 0
M  V30 7630 C 711.208 -1.45458 -3.12947 0
M  V30 7631 C 710.321 -2.70998 -3.36428 0
M  V30 7632 C 709.456 -2.57507 -4.64611 0
M  V30 7633 C 708.495 -3.78229 -4.81258 0
M  V30 7634 N 707.632 -3.63438 -6.00714 0
M  V30 7635 H 712.472 -2.45832 -1.68436 0
M  V30 7636 H 710.009 -1.2201 -0.821706 0
M  V30 7637 H 711.967 -1.40347 -3.92885 0
M  V30 7638 H 710.597 -0.540058 -3.1825 0
M  V30 7639 H 709.649 -2.86312 -2.50458 0
M  V30 7640 H 710.961 -3.60619 -3.44609 0
M  V30 7641 H 710.115 -2.50207 -5.52703 0
M  V30 7642 H 708.854 -1.65441 -4.58782 0
M  V30 7643 H 707.859 -3.85918 -3.91596 0
M  V30 7644 H 709.084 -4.71327 -4.88904 0
M  V30 7645 H 707.03 -2.7412 -5.95982 0
M  V30 7646 H 706.947 -4.46672 -6.09934 0
M  V30 7647 H 708.215 -3.60022 -6.91378 0
M  V30 7648 N 712.444 0.87505 -1.31075 0
M  V30 7649 C 713.354 2.01441 -1.20244 0
M  V30 7650 C 714.37 1.73584 -0.120227 0
M  V30 7651 O 715.546 1.98559 -0.337063 0
M  V30 7652 C 712.611 3.34675 -0.905199 0
M  V30 7653 C 711.672 3.75889 -2.0738 0
M  V30 7654 C 710.905 5.02764 -1.79064 0
M  V30 7655 O 711.128 5.65795 -0.723318 0
M  V30 7656 O 710.062 5.40623 -2.64594 0
M  V30 7657 H 713.888 2.13509 -2.1598 0
M  V30 7658 H 711.473 1.00257 -1.10765 0
M  V30 7659 H 713.355 4.1458 -0.755057 0
M  V30 7660 H 712.03 3.23692 0.0221695 0
M  V30 7661 H 710.937 2.96645 -2.27931 0
M  V30 7662 H 712.27 3.91489 -2.98324 0
M  V30 7663 N 713.922 1.13953 1.08869 0
M  V30 7664 C 714.852 0.844824 2.17681 0
M  V30 7665 C 715.833 -0.198213 1.68941 0
M  V30 7666 O 717.018 -0.0559073 1.9412 0
M  V30 7667 C 714.148 0.316325 3.45856 0
M  V30 7668 C 713.102 1.29426 4.07962 0
M  V30 7669 C 712.428 0.625275 5.31031 0
M  V30 7670 C 713.728 2.65484 4.49795 0
M  V30 7671 H 715.422 1.75471 2.42591 0
M  V30 7672 H 712.968 0.845116 1.16592 0
M  V30 7673 H 714.921 0.0977876 4.21287 0
M  V30 7674 H 713.645 -0.628972 3.20486 0
M  V30 7675 H 712.304 1.49889 3.34558 0
M  V30 7676 H 711.952 -0.325678 5.01945 0
M  V30 7677 H 711.652 1.27777 5.73539 0
M  V30 7678 H 713.176 0.416152 6.0918 0
M  V30 7679 H 714.59 2.48957 5.16424 0
M  V30 7680 H 712.987 3.26963 5.03205 0
M  V30 7681 H 714.057 3.22717 3.61914 0
M  V30 7682 N 715.4 -1.26948 0.933913 0
M  V30 7683 C 716.31 -2.30366 0.443671 0
M  V30 7684 C 717.326 -1.67284 -0.478745 0
M  V30 7685 O 718.502 -1.98156 -0.360043 0
M  V30 7686 C 715.567 -3.45485 -0.289974 0
M  V30 7687 C 714.628 -4.24069 0.668114 0
M  V30 7688 C 713.861 -5.33691 -0.0306138 0
M  V30 7689 O 714.084 -5.5656 -1.24888 0
M  V30 7690 O 713.018 -5.98441 0.644384 0
M  V30 7691 H 716.844 -2.74349 1.30254 0
M  V30 7692 H 714.429 -1.32012 0.699506 0
M  V30 7693 H 716.311 -4.15486 -0.70353 0
M  V30 7694 H 714.986 -3.03546 -1.12435 0
M  V30 7695 H 713.893 -3.56579 1.13147 0
M  V30 7696 H 715.226 -4.69739 1.46989 0
M  V30 7697 N 716.879 -0.700114 -1.41195 0
M  V30 7698 C 717.789 -0.0382854 -2.34569 0
M  V30 7699 C 718.805 0.761036 -1.56474 0
M  V30 7700 O 719.981 0.697553 -1.88934 0
M  V30 7701 C 717.046 0.883522 -3.35253 0
M  V30 7702 C 716.107 0.0758957 -4.29233 0
M  V30 7703 C 715.34 0.9538 -5.25108 0
M  V30 7704 O 715.563 2.19326 -5.26547 0
M  V30 7705 O 714.497 0.401049 -6.00562 0
M  V30 7706 H 718.323 -0.808073 -2.92752 0
M  V30 7707 H 715.908 -0.460479 -1.42127 0
M  V30 7708 H 717.79 1.41199 -3.9704 0
M  V30 7709 H 716.465 1.63272 -2.79506 0
M  V30 7710 H 715.372 -0.497274 -3.7078 0
M  V30 7711 H 716.705 -0.634741 -4.8809 0
M  V30 7712 N 718.357 1.51182 -0.445186 0
M  V30 7713 C 719.267 2.31692 0.368255 0
M  V30 7714 C 720.283 1.40942 1.02036 0
M  V30 7715 O 721.459 1.74011 1.01401 0
M  V30 7716 C 718.524 3.14903 1.45041 0
M  V30 7717 C 717.585 4.21442 0.817615 0
M  V30 7718 C 716.818 5.00677 1.8482 0
M  V30 7719 O 717.041 4.80644 3.07145 0
M  V30 7720 O 715.975 5.84559 1.43438 0
M  V30 7721 H 719.801 3.0232 -0.289219 0
M  V30 7722 H 717.386 1.47951 -0.207555 0
M  V30 7723 H 719.268 3.66612 2.07783 0
M  V30 7724 H 717.943 2.47031 2.09182 0
M  V30 7725 H 716.85 3.73791 0.151931 0
M  V30 7726 H 718.183 4.9171 0.219564 0
M  V30 7727 N 719.835 0.176821 1.56605 0
M  V30 7728 C 721.084 -0.466833 1.96223 0
M  V30 7729 C 721.397 -1.64015 1.06576 0
M  V30 7730 O 722.603 -2.3504 1.35898 0
M  V30 7731 C 721.059 -0.881921 3.48927 0
M  V30 7732 C 720.667 0.266102 4.47209 0
M  V30 7733 C 722.411 -1.49368 3.97353 0
M  V30 7734 C 720.318 -0.168923 5.91159 0
M  V30 7735 H 719.248 -0.178178 0.732645 0
M  V30 7736 H 721.899 0.265929 1.81563 0
M  V30 7737 H 720.281 -1.67082 3.59026 0
M  V30 7738 H 721.455 1.04349 4.4883 0
M  V30 7739 H 719.77 0.788178 4.08872 0
M  V30 7740 H 722.367 -1.8313 5.02362 0
M  V30 7741 H 722.71 -2.3936 3.40606 0
M  V30 7742 H 723.243 -0.769114 3.90294 0
M  V30 7743 H 719.982 0.696351 6.51791 0
M  V30 7744 H 719.502 -0.911552 5.92833 0
M  V30 7745 H 721.181 -0.610938 6.44109 0
M  V30 7746 N 721.313 -1.57302 -0.09688 0
M  V30 7747 C 722.541 -1.90202 -0.814295 0
M  V30 7748 C 722.956 -0.770344 -1.72369 0
M  V30 7749 O 722.313 0.257764 -1.8067 0
M  V30 7750 C 722.364 -3.22708 -1.62916 0
M  V30 7751 O 722.085 -4.31522 -0.756343 0
M  V30 7752 C 723.586 -3.69459 -2.44979 0
M  V30 7753 H 720.806 -0.629275 -0.232925 0
M  V30 7754 H 723.35 -2.04364 -0.0746482 0
M  V30 7755 H 721.505 -3.1015 -2.32133 0
M  V30 7756 H 721.919 -5.07604 -1.32054 0
M  V30 7757 H 723.393 -4.64875 -2.9765 0
M  V30 7758 H 723.87 -2.97211 -3.23361 0
M  V30 7759 H 724.476 -3.84879 -1.80964 0
M  V30 7760 N 722.791 0.367657 -1.53252 0
M  V30 7761 C 723.721 1.45632 -1.8252 0
M  V30 7762 C 724.702 1.55979 -0.678568 0
M  V30 7763 O 725.887 1.70581 -0.928217 0
M  V30 7764 C 723.017 2.82994 -2.01325 0
M  V30 7765 C 721.971 2.87473 -3.17086 0
M  V30 7766 C 721.297 4.2749 -3.21179 0
M  V30 7767 C 722.597 2.55182 -4.55719 0
M  V30 7768 H 724.291 1.21387 -2.73689 0
M  V30 7769 H 721.837 0.58251 -1.31692 0
M  V30 7770 H 723.79 3.59179 -2.20383 0
M  V30 7771 H 722.514 3.08622 -1.06864 0
M  V30 7772 H 721.173 2.13739 -2.97844 0
M  V30 7773 H 720.821 4.5019 -2.24361 0
M  V30 7774 H 720.521 4.31403 -3.98955 0
M  V30 7775 H 722.045 5.0555 -3.42419 0
M  V30 7776 H 723.459 3.21081 -4.74953 0
M  V30 7777 H 721.856 2.70414 -5.3572 0
M  V30 7778 H 722.926 1.5044 -4.60973 0
M  V30 7779 N 724.269 1.44576 0.627338 0
M  V30 7780 C 725.685 1.28546 0.945938 0
M  V30 7781 C 725.885 0.224003 2.00251 0
M  V30 7782 O 724.941 -0.388817 2.49488 0
M  V30 7783 C 726.254 2.65825 1.40561 0
M  V30 7784 C 727.802 2.73566 1.52088 0
M  V30 7785 C 728.277 4.11323 2.01438 0
M  V30 7786 N 729.768 4.13519 2.08702 0
M  V30 7787 C 730.503 5.16964 2.48065 0
M  V30 7788 N 729.999 6.30768 2.86538 0
M  V30 7789 N 731.792 5.04319 2.48232 0
M  V30 7790 H 723.943 2.1228 -0.0713567 0
M  V30 7791 H 726.206 0.947503 0.0307081 0
M  V30 7792 H 725.912 3.44591 0.703539 0
M  V30 7793 H 725.786 2.92969 2.37591 0
M  V30 7794 H 728.173 1.95116 2.21391 0
M  V30 7795 H 728.254 2.50159 0.534237 0
M  V30 7796 H 727.898 4.9025 1.32729 0
M  V30 7797 H 727.828 4.32109 3.0098 0
M  V30 7798 H 730.319 3.31385 1.81638 0
M  V30 7799 H 730.632 7.0551 3.15398 0
M  V30 7800 H 728.977 6.342 2.84281 0
M  V30 7801 H 732.168 4.14465 2.17569 0
M  V30 7802 H 732.341 5.85059 2.78585 0
M  V30 7803 N 725.747 -0.868086 1.31537 0
M  V30 7804 C 726.694 -1.97548 1.19346 0
M  V30 7805 C 727.664 -1.65913 0.0787922 0
M  V30 7806 O 728.849 -1.89129 0.251985 0
M  V30 7807 C 725.989 -3.32922 0.908692 0
M  V30 7808 C 725.102 -3.77141 2.10687 0
M  V30 7809 C 724.237 -5.01241 1.75873 0
M  V30 7810 C 723.276 -5.37914 2.92088 0
M  V30 7811 N 722.413 -6.53192 2.57457 0
M  V30 7812 H 727.253 -2.07307 2.14074 0
M  V30 7813 H 724.79 -1.01483 1.06487 0
M  V30 7814 H 726.748 -4.10867 0.724138 0
M  V30 7815 H 725.378 -3.228 -0.0017611 0
M  V30 7816 H 724.43 -2.94961 2.40213 0
M  V30 7817 H 725.742 -4.00248 2.97663 0
M  V30 7818 H 724.896 -5.86858 1.53891 0
M  V30 7819 H 723.635 -4.80041 0.86091 0
M  V30 7820 H 722.64 -4.50814 3.14717 0
M  V30 7821 H 723.865 -5.61077 3.82582 0
M  V30 7822 H 721.811 -6.33536 1.702 0
M  V30 7823 H 721.728 -6.76252 3.37963 0
M  V30 7824 H 722.996 -7.41997 2.38873 0
M  V30 7825 N 727.225 -1.14528 -1.08264 0
M  V30 7826 C 728.45 -0.938381 -1.84957 0
M  V30 7827 C 728.875 0.508044 -1.81109 0
M  V30 7828 O 728.233 1.36146 -1.19724 0
M  V30 7829 C 728.281 -1.44568 -3.30352 0
M  V30 7830 O 727.385 -0.638745 -4.07423 0
M  V30 7831 H 726.726 -0.335394 -0.573068 0
M  V30 7832 H 729.256 -1.52287 -1.36637 0
M  V30 7833 H 729.266 -1.45449 -3.81194 0
M  V30 7834 H 727.941 -2.49876 -3.32468 0
M  V30 7835 H 726.518 -0.698801 -3.66294 0
M  V30 7836 N 728.703 1.26451 -0.940633 0
M  V30 7837 C 729.949 1.94065 -0.58878 0
M  V30 7838 C 730.282 1.7363 0.869853 0
M  V30 7839 O 729.557 1.073 1.62225 0
M  V30 7840 C 729.84 3.47852 -0.931199 0
M  V30 7841 C 729.693 3.77575 -2.44453 0
M  V30 7842 C 731.012 4.37832 -0.446229 0
M  V30 7843 H 728.131 0.704827 -0.21538 0
M  V30 7844 H 730.773 1.4933 -1.17475 0
M  V30 7845 H 728.923 3.86085 -0.432539 0
M  V30 7846 H 730.595 3.49059 -3.01588 0
M  V30 7847 H 728.838 3.23671 -2.88825 0
M  V30 7848 H 729.509 4.85068 -2.63464 0
M  V30 7849 H 731.985 4.06822 -0.873778 0
M  V30 7850 H 730.861 5.44228 -0.714648 0
M  V30 7851 H 731.122 4.37239 0.653815 0
M  V30 7852 N 730.181 0.707592 1.40822 0
M  V30 7853 C 731.091 0.0507246 2.34545 0
M  V30 7854 C 732.107 -0.752727 1.56876 0
M  V30 7855 O 733.283 -0.687524 1.89302 0
M  V30 7856 C 730.348 -0.865731 3.35717 0
M  V30 7857 C 729.409 -0.0531313 4.29267 0
M  V30 7858 C 728.642 -0.925939 5.25606 0
M  V30 7859 O 728.865 -2.16531 5.27703 0
M  V30 7860 O 727.799 -0.369194 6.00767 0
M  V30 7861 H 731.625 0.823587 2.9232 0
M  V30 7862 H 729.21 0.46801 1.4188 0
M  V30 7863 H 731.092 -1.39091 3.97783 0
M  V30 7864 H 729.767 -1.61788 2.80368 0
M  V30 7865 H 728.674 0.516931 3.70511 0
M  V30 7866 H 730.007 0.660617 4.87747 0
M  V30 7867 N 731.66 -1.50943 0.453197 0
M  V30 7868 C 732.885 -2.07116 -0.108463 0
M  V30 7869 C 733.31 -1.31681 -1.3432 0
M  V30 7870 O 732.668 -0.359256 -1.77705 0
M  V30 7871 C 732.716 -3.58447 -0.393424 0
M  V30 7872 O 731.82 -3.85038 -1.47714 0
M  V30 7873 H 731.161 -0.66398 0.0050993 0
M  V30 7874 H 733.691 -1.94362 0.639095 0
M  V30 7875 H 733.701 -4.02961 -0.639222 0
M  V30 7876 H 732.376 -4.12774 0.508946 0
M  V30 7877 H 730.953 -3.52376 -1.22006 0
M  V30 7878 N 733.138 -0.185124 -1.56509 0
M  V30 7879 C 734.101 0.72591 -2.17401 0
M  V30 7880 C 735.101 1.14819 -1.12575 0
M  V30 7881 O 736.291 1.0629 -1.38015 0
M  V30 7882 C 733.423 1.98979 -2.76803 0
M  V30 7883 H 734.616 0.195588 -2.99262 0
M  V30 7884 H 732.169 0.0644772 -1.56167 0
M  V30 7885 H 732.904 2.56287 -1.98714 0
M  V30 7886 H 732.689 1.69583 -3.53531 0
M  V30 7887 H 734.179 2.63966 -3.23592 0
M  V30 7888 N 734.616 1.57351 0.0885366 0
M  V30 7889 C 735.546 2.05561 1.10757 0
M  V30 7890 C 736.527 0.945789 1.41382 0
M  V30 7891 O 737.712 1.21747 1.51299 0
M  V30 7892 C 734.842 2.48554 2.42566 0
M  V30 7893 C 733.796 3.63259 2.26334 0
M  V30 7894 C 733.122 3.9225 3.63378 0
M  V30 7895 C 734.422 4.93913 1.69844 0
M  V30 7896 H 736.116 2.90946 0.706468 0
M  V30 7897 H 733.662 1.39968 0.338385 0
M  V30 7898 H 735.615 2.8089 3.14132 0
M  V30 7899 H 734.339 1.60176 2.84625 0
M  V30 7900 H 732.998 3.31179 1.57213 0
M  V30 7901 H 732.646 3.0103 4.02976 0
M  V30 7902 H 732.346 4.69478 3.53362 0
M  V30 7903 H 733.87 4.27067 4.36401 0
M  V30 7904 H 735.284 5.24588 2.31258 0
M  V30 7905 H 733.681 5.75349 1.70569 0
M  V30 7906 H 734.751 4.80409 0.65843 0
M  V30 7907 N 736.094 -0.359525 1.53444 0
M  V30 7908 C 737.51 -0.701599 1.43352 0
M  V30 7909 C 737.71 -1.93049 0.577439 0
M  V30 7910 O 736.766 -2.52423 0.0622224 0
M  V30 7911 C 738.079 -0.90915 2.86627 0
M  V30 7912 C 739.627 -1.00878 2.96298 0
M  V30 7913 C 740.102 -1.24876 4.40647 0
M  V30 7914 N 741.593 -1.31632 4.44103 0
M  V30 7915 C 742.328 -1.51922 5.52908 0
M  V30 7916 N 741.824 -1.69489 6.71748 0
M  V30 7917 N 743.617 -1.54341 5.40496 0
M  V30 7918 H 735.768 0.448685 2.07607 0
M  V30 7919 H 738.031 0.138713 0.937797 0
M  V30 7920 H 737.737 -0.0778997 3.51614 0
M  V30 7921 H 737.611 -1.81551 3.30634 0
M  V30 7922 H 739.998 -1.83057 2.31461 0
M  V30 7923 H 740.079 -0.0796721 2.55676 0
M  V30 7924 H 739.723 -0.431961 5.0606 0
M  V30 7925 H 739.653 -2.19118 4.78848 0
M  V30 7926 H 742.144 -1.19646 3.5846 0
M  V30 7927 H 742.457 -1.84561 7.50438 0
M  V30 7928 H 740.802 -1.66655 6.74723 0
M  V30 7929 H 743.993 -1.40188 4.46615 0
M  V30 7930 H 744.166 -1.69812 6.25354 0
M  V30 7931 N 737.572 -1.44907 -0.619662 0
M  V30 7932 C 738.504 -1.48652 -1.74457 0
M  V30 7933 C 739.517 -0.378596 -1.58337 0
M  V30 7934 O 740.706 -0.644987 -1.6644 0
M  V30 7935 C 737.806 -1.31568 -3.12319 0
M  V30 7936 C 736.979 -2.55816 -3.54792 0
M  V30 7937 C 736.038 -2.33465 -4.71573 0
M  V30 7938 O 735.064 -3.07015 -4.79302 0
M  V30 7939 N 736.266 -1.37254 -5.6404 0
M  V30 7940 H 739.031 -2.45632 -1.71712 0
M  V30 7941 H 736.592 -1.40492 -0.804582 0
M  V30 7942 H 738.584 -1.14445 -3.88181 0
M  V30 7943 H 737.154 -0.429095 -3.09641 0
M  V30 7944 H 736.374 -2.88137 -2.69018 0
M  V30 7945 H 737.662 -3.38431 -3.79924 0
M  V30 7946 H 737.06 -0.765309 -5.60499 0
M  V30 7947 H 735.617 -1.26106 -6.39485 0
M  V30 7948 N 739.05 0.861098 -1.31996 0
M  V30 7949 C 739.98 1.98482 -1.22993 0
M  V30 7950 C 740.961 1.6971 -0.115168 0
M  V30 7951 O 742.146 1.91849 -0.30126 0
M  V30 7952 C 739.276 3.34179 -0.945615 0
M  V30 7953 C 738.23 3.77284 -2.02091 0
M  V30 7954 C 737.556 5.1054 -1.58912 0
M  V30 7955 C 738.856 3.93439 -3.43515 0
M  V30 7956 H 740.55 2.06271 -2.17008 0
M  V30 7957 H 738.096 0.991043 -1.04472 0
M  V30 7958 H 740.049 4.12338 -0.869206 0
M  V30 7959 H 738.773 3.26586 0.0301849 0
M  V30 7960 H 737.432 3.01371 -2.08737 0
M  V30 7961 H 737.08 4.99397 -0.600942 0
M  V30 7962 H 736.78 5.40352 -2.30854 0
M  V30 7963 H 738.304 5.91199 -1.52696 0
M  V30 7964 H 739.718 4.6197 -3.39495 0
M  V30 7965 H 738.115 4.34661 -4.13751 0
M  V30 7966 H 739.185 2.96548 -3.8365 0
M  V30 7967 N 740.528 1.15101 1.07655 0
M  V30 7968 C 741.438 0.858869 2.18313 0
M  V30 7969 C 742.454 -0.163641 1.73229 0
M  V30 7970 O 743.63 0.00969541 2.01398 0
M  V30 7971 C 740.695 0.34893 3.4494 0
M  V30 7972 C 739.756 1.43495 4.04608 0
M  V30 7973 C 738.989 0.949253 5.2519 0
M  V30 7974 O 739.212 -0.20636 5.70027 0
M  V30 7975 O 738.146 1.73161 5.76454 0
M  V30 7976 H 741.972 1.78386 2.45788 0
M  V30 7977 H 739.557 0.929876 1.16934 0
M  V30 7978 H 741.439 0.070851 4.2134 0
M  V30 7979 H 740.114 -0.548237 3.19024 0
M  V30 7980 H 739.021 1.7666 3.29761 0
M  V30 7981 H 740.354 2.30692 4.3479 0
M  V30 7982 N 742.006 -1.2595 0.947325 0
M  V30 7983 C 743.422 -1.45737 0.650597 0
M  V30 7984 C 743.622 -1.85189 -0.794188 0
M  V30 7985 O 742.678 -1.97738 -1.57022 0
M  V30 7986 C 743.991 -2.53505 1.61728 0
M  V30 7987 C 745.539 -2.67351 1.62765 0
M  V30 7988 C 746.014 -3.78296 2.58179 0
M  V30 7989 N 747.505 -3.85696 2.56501 0
M  V30 7990 C 748.24 -4.71012 3.2701 0
M  V30 7991 N 747.736 -5.60669 4.06966 0
M  V30 7992 N 749.529 -4.64912 3.15932 0
M  V30 7993 H 741.68 -0.986327 1.8811 0
M  V30 7994 H 743.943 -0.494639 0.808725 0
M  V30 7995 H 743.649 -2.31357 2.6489 0
M  V30 7996 H 743.523 -3.51281 1.3741 0
M  V30 7997 H 745.91 -2.88869 0.603241 0
M  V30 7998 H 745.991 -1.69998 1.91139 0
M  V30 7999 H 745.635 -3.5753 3.60742 0
M  V30 8000 H 745.565 -4.75117 2.27093 0
M  V30 8001 H 748.056 -3.21601 1.98447 0
M  V30 8002 H 748.369 -6.22677 4.57704 0
M  V30 8003 H 746.714 -5.60402 4.11066 0
M  V30 8004 H 749.905 -3.93874 2.52945 0
M  V30 8005 H 750.078 -5.3118 3.71149 0
M  V30 8006 N 743.484 -0.715051 -1.40445 0
M  V30 8007 C 744.394 -0.0631624 -2.34515 0
M  V30 8008 C 745.41 0.744397 -1.57273 0
M  V30 8009 O 746.586 0.677475 -1.89663 0
M  V30 8010 C 743.651 0.847915 -3.36172 0
M  V30 8011 C 742.712 0.0303655 -4.29289 0
M  V30 8012 C 741.945 0.898051 -5.2609 0
M  V30 8013 O 742.168 2.13729 -5.28844 0
M  V30 8014 O 741.102 0.337328 -6.00954 0
M  V30 8015 H 744.928 -0.839078 -2.91879 0
M  V30 8016 H 742.513 -0.475527 -1.4163 0
M  V30 8017 H 744.395 1.3698 -3.98515 0
M  V30 8018 H 743.07 1.60299 -2.81222 0
M  V30 8019 H 741.977 -0.536573 -3.70232 0
M  V30 8020 H 743.31 -0.686474 -4.87389 0
M  V30 8021 N 744.962 1.50701 -0.461195 0
M  V30 8022 C 745.909 2.2831 0.338094 0
M  V30 8023 C 746.879 1.32928 0.995957 0
M  V30 8024 O 748.064 1.61857 1.0103 0
M  V30 8025 C 745.204 3.14539 1.41983 0
M  V30 8026 C 744.317 4.24942 0.77773 0
M  V30 8027 C 743.452 4.98443 1.83652 0
M  V30 8028 C 742.491 6.00733 1.17413 0
M  V30 8029 N 741.628 6.6755 2.17533 0
M  V30 8030 H 746.468 2.96167 -0.330051 0
M  V30 8031 H 744.005 1.4606 -0.174611 0
M  V30 8032 H 745.963 3.62877 2.05855 0
M  V30 8033 H 744.593 2.48749 2.05727 0
M  V30 8034 H 743.645 3.80391 0.0266924 0
M  V30 8035 H 744.957 4.98151 0.254362 0
M  V30 8036 H 744.111 5.50449 2.55129 0
M  V30 8037 H 742.85 4.24917 2.39367 0
M  V30 8038 H 741.855 5.47997 0.444944 0
M  V30 8039 H 743.08 6.76227 0.624006 0
M  V30 8040 H 741.026 5.96823 2.72284 0
M  V30 8041 H 740.943 7.36603 1.70154 0
M  V30 8042 H 742.211 7.24178 2.88421 0
M  V30 8043 N 746.441 0.193421 1.56409 0
M  V30 8044 C 747.404 -0.714371 2.17783 0
M  V30 8045 C 748.404 -1.1422 1.13183 0
M  V30 8046 O 749.594 -1.05557 1.38576 0
M  V30 8047 C 746.726 -1.97509 2.77855 0
M  V30 8048 H 747.919 -0.179714 2.99361 0
M  V30 8049 H 745.472 -0.0561944 1.56199 0
M  V30 8050 H 746.207 -2.5523 2.0007 0
M  V30 8051 H 745.992 -1.67706 3.54425 0
M  V30 8052 H 747.482 -2.62246 3.24987 0
M  V30 8053 N 747.919 -1.57396 -0.0801906 0
M  V30 8054 C 748.849 -2.06145 -1.09665 0
M  V30 8055 C 749.83 -0.953273 -1.40878 0
M  V30 8056 O 751.015 -1.22548 -1.50651 0
M  V30 8057 C 748.145 -2.49836 -2.41245 0
M  V30 8058 C 747.099 -3.64454 -2.24405 0
M  V30 8059 C 746.425 -3.94172 -3.61293 0
M  V30 8060 C 747.725 -4.94807 -1.67223 0
M  V30 8061 H 749.419 -2.91316 -0.691028 0
M  V30 8062 H 746.965 -1.40145 -0.330957 0
M  V30 8063 H 748.918 -2.82552 -3.12638 0
M  V30 8064 H 747.642 -1.61683 -2.83771 0
M  V30 8065 H 746.301 -3.32008 -1.55454 0
M  V30 8066 H 745.949 -3.03163 -4.01374 0
M  V30 8067 H 745.649 -4.71345 -3.50867 0
M  V30 8068 H 747.173 -4.29376 -4.3413 0
M  V30 8069 H 748.587 -5.25807 -2.28472 0
M  V30 8070 H 746.984 -5.76245 -1.67515 0
M  V30 8071 H 748.054 -4.80751 -0.632944 0
M  V30 8072 N 749.397 0.351382 -1.53633 0
M  V30 8073 C 750.327 1.43688 -1.84055 0
M  V30 8074 C 751.308 1.55251 -0.695073 0
M  V30 8075 O 752.493 1.69587 -0.946257 0
M  V30 8076 C 749.623 2.80843 -2.04315 0
M  V30 8077 C 748.577 2.84094 -3.20117 0
M  V30 8078 C 747.903 4.2406 -3.25696 0
M  V30 8079 C 749.203 2.50334 -4.58399 0
M  V30 8080 H 750.897 1.18478 -2.74961 0
M  V30 8081 H 748.443 0.568509 -1.32303 0
M  V30 8082 H 750.396 3.56821 -2.2418 0
M  V30 8083 H 749.12 3.07471 -1.10132 0
M  V30 8084 H 747.779 2.10568 -3.00094 0
M  V30 8085 H 747.427 4.47785 -2.29123 0
M  V30 8086 H 747.127 4.27147 -4.03509 0
M  V30 8087 H 748.651 5.0189 -3.47762 0
M  V30 8088 H 750.065 3.16025 -4.78332 0
M  V30 8089 H 748.462 2.64717 -5.38558 0
M  V30 8090 H 749.532 1.45542 -4.62543 0
M  V30 8091 N 750.875 1.45233 0.611969 0
M  V30 8092 C 751.807 1.49575 1.73666 0
M  V30 8093 C 752.82 0.386987 1.58134 0
M  V30 8094 O 754.009 0.653804 1.66095 0
M  V30 8095 C 751.109 1.33223 3.11617 0
M  V30 8096 C 750.282 2.57694 3.5343 0
M  V30 8097 C 749.341 2.35962 4.70328 0
M  V30 8098 O 748.367 3.09553 4.77667 0
M  V30 8099 N 749.569 1.40243 5.63305 0
M  V30 8100 H 752.334 2.46539 1.70407 0
M  V30 8101 H 749.895 1.40917 0.79712 0
M  V30 8102 H 751.887 1.16502 3.87569 0
M  V30 8103 H 750.457 0.44551 3.09409 0
M  V30 8104 H 749.677 2.8956 2.67486 0
M  V30 8105 H 750.965 3.40441 3.78124 0
M  V30 8106 H 750.363 0.795023 5.60086 0
M  V30 8107 H 748.92 1.29496 6.38807 0
M  V30 8108 N 752.353 -0.854086 1.3245 0
M  V30 8109 C 753.303 -1.9508 1.18016 0
M  V30 8110 C 754.287 -1.60665 0.0869417 0
M  V30 8111 O 755.479 -1.74201 0.313505 0
M  V30 8112 C 752.608 -3.3113 0.905961 0
M  V30 8113 C 751.694 -3.71763 2.04091 0
M  V30 8114 N 752.085 -3.84218 3.28953 0
M  V30 8115 C 750.383 -4.01393 1.94421 0
M  V30 8116 C 751.084 -4.192 4.03294 0
M  V30 8117 N 750.06 -4.30749 3.31596 0
M  V30 8118 H 753.862 -2.02843 2.12678 0
M  V30 8119 H 751.376 -1.04588 1.24238 0
M  V30 8120 H 753.373 -4.09471 0.783508 0
M  V30 8121 H 752.033 -3.24684 -0.0322715 0
M  V30 8122 H 753.044 -3.68524 3.63883 0
M  V30 8123 H 749.721 -4.03246 1.08162 0
M  V30 8124 H 751.111 -4.36301 5.1097 0
M  V30 8125 N 753.831 -1.1567 -1.07043 0
M  V30 8126 C 754.778 -0.856336 -2.14326 0
M  V30 8127 C 755.748 0.192051 -1.64986 0
M  V30 8128 O 756.933 0.0589148 -1.90709 0
M  V30 8129 C 754.073 -0.355227 -3.43267 0
M  V30 8130 C 753.186 -1.46555 -4.06381 0
M  V30 8131 C 752.321 -0.920245 -5.23168 0
M  V30 8132 C 751.36 -2.00729 -5.78251 0
M  V30 8133 N 750.497 -1.47813 -6.86364 0
M  V30 8134 H 755.337 -1.77514 -2.39359 0
M  V30 8135 H 752.874 -0.885676 -1.17449 0
M  V30 8136 H 754.832 -0.0463804 -4.17174 0
M  V30 8137 H 753.462 0.526649 -3.18475 0
M  V30 8138 H 752.514 -1.89052 -3.30096 0
M  V30 8139 H 753.826 -2.28616 -4.43324 0
M  V30 8140 H 752.98 -0.564127 -6.04072 0
M  V30 8141 H 751.719 -0.0688477 -4.87651 0
M  V30 8142 H 750.724 -2.3722 -4.95991 0
M  V30 8143 H 751.949 -2.86252 -6.15822 0
M  V30 8144 H 749.895 -0.649145 -6.5278 0
M  V30 8145 H 749.812 -2.23498 -7.22208 0
M  V30 8146 H 751.08 -1.15036 -7.70965 0
M  V30 8147 N 755.309 1.25446 -0.953992 0
M  V30 8148 C 756.257 2.27909 -0.46478 0
M  V30 8149 C 757.251 1.62904 0.464607 0
M  V30 8150 O 758.457 1.76733 0.341407 0
M  V30 8151 H 754.832 0.74036 -0.131798 0
M  V30 8152 H 756.803 2.66559 -1.34122 0
M  V30 8153 C 755.552 3.46853 0.242589 0
M  V30 8154 H 754.875 3.97105 -0.463418 0
M  V30 8155 H 756.315 4.20432 0.548919 0
M  V30 8156 C 754.774 3.03386 1.46487 0
M  V30 8157 O 755.304 3.09342 2.56262 0
M  V30 8158 N 753.51 2.58584 1.32599 0
M  V30 8159 H 753.057 2.53938 0.432834 0
M  V30 8160 H 753.015 2.29866 2.14497 0
M  V30 8161 N 756.787 0.722489 1.40064 0
M  V30 8162 C 757.75 0.0830209 2.2905 0
M  V30 8163 C 758.75 -0.680208 1.45705 0
M  V30 8164 O 759.94 -0.511084 1.66534 0
M  V30 8165 C 757.072 -0.892092 3.29021 0
M  V30 8166 H 758.265 0.866848 2.87099 0
M  V30 8167 H 755.818 0.487556 1.48501 0
M  V30 8168 H 756.553 -1.70273 2.76003 0
M  V30 8169 H 756.338 -0.34761 3.90556 0
M  V30 8170 H 757.828 -1.33648 3.95636 0
M  V30 8171 N 758.265 -1.50454 0.469181 0
M  V30 8172 C 759.175 -2.32248 -0.331349 0
M  V30 8173 C 760.191 -1.42548 -0.997807 0
M  V30 8174 O 761.367 -1.75602 -0.9862 0
M  V30 8175 C 758.432 -3.17171 -1.40012 0
M  V30 8176 C 757.493 -4.2269 -0.750463 0
M  V30 8177 C 756.726 -5.03554 -1.76831 0
M  V30 8178 O 756.949 -4.85469 -2.99459 0
M  V30 8179 O 755.883 -5.86767 -1.3412 0
M  V30 8180 H 759.709 -3.01821 0.337279 0
M  V30 8181 H 757.294 -1.47602 0.231066 0
M  V30 8182 H 759.176 -3.69871 -2.01924 0
M  V30 8183 H 757.851 -2.50328 -2.05226 0
M  V30 8184 H 756.758 -3.73986 -0.0924446 0
M  V30 8185 H 758.091 -4.91997 -0.14131 0
M  V30 8186 N 759.743 -0.201713 -1.56304 0
M  V30 8187 C 760.973 0.440084 -2.01858 0
M  V30 8188 C 761.381 1.55279 -1.08098 0
M  V30 8189 O 760.724 1.83529 -0.0792216 0
M  V30 8190 C 760.786 1.05091 -3.43797 0
M  V30 8191 C 760.45 0.0761208 -4.56937 0
M  V30 8192 C 761.447 -0.716951 -5.14933 0
M  V30 8193 C 759.132 -0.0368815 -5.02286 0
M  V30 8194 C 761.126 -1.60993 -6.16733 0
M  V30 8195 C 758.813 -0.933409 -6.03929 0
M  V30 8196 C 759.811 -1.71849 -6.61027 0
M  V30 8197 O 759.499 -2.59998 -7.60695 0
M  V30 8198 H 759.231 0.114139 -0.666294 0
M  V30 8199 H 761.785 -0.309672 -2.03052 0
M  V30 8200 H 760.015 1.84938 -3.3961 0
M  V30 8201 H 761.704 1.59804 -3.73118 0
M  V30 8202 H 762.47 -0.63999 -4.80759 0
M  V30 8203 H 758.349 0.564034 -4.57537 0
M  V30 8204 H 761.893 -2.22315 -6.61227 0
M  V30 8205 H 757.79 -1.01146 -6.37526 0
M  V30 8206 H 758.558 -2.53851 -7.7814 0
M  V30 8207 N 761.222 1.57436 0.0718424 0
M  V30 8208 C 762.154 2.00412 1.1121 0
M  V30 8209 C 763.167 0.910074 1.34987 0
M  V30 8210 O 764.356 1.18796 1.33228 0
M  V30 8211 C 761.456 2.32786 2.46301 0
M  V30 8212 C 760.629 3.64036 2.4248 0
M  V30 8213 C 759.688 3.8408 3.59679 0
M  V30 8214 O 758.714 4.55667 3.4111 0
M  V30 8215 N 759.916 3.2643 4.80025 0
M  V30 8216 H 762.681 2.90264 0.746118 0
M  V30 8217 H 760.242 1.59791 0.260495 0
M  V30 8218 H 762.234 2.43368 3.23348 0
M  V30 8219 H 760.804 1.48824 2.74901 0
M  V30 8220 H 760.024 3.64208 1.50818 0
M  V30 8221 H 761.312 4.50217 2.37027 0
M  V30 8222 H 760.71 2.68325 4.98014 0
M  V30 8223 H 759.267 3.42461 5.54584 0
M  V30 8224 N 762.7 -0.34323 1.53817 0
M  V30 8225 C 764.116 -0.686355 1.44088 0
M  V30 8226 C 764.316 -1.92426 0.597882 0
M  V30 8227 O 763.372 -2.52343 0.0889918 0
M  V30 8228 C 764.685 -0.878698 2.87575 0
M  V30 8229 C 766.233 -0.977296 2.97352 0
M  V30 8230 C 766.708 -1.20195 4.41947 0
M  V30 8231 N 768.199 -1.26915 4.45474 0
M  V30 8232 C 768.934 -1.46049 5.54488 0
M  V30 8233 N 768.43 -1.62354 6.73508 0
M  V30 8234 N 770.223 -1.48599 5.42102 0
M  V30 8235 H 762.374 0.470679 2.07119 0
M  V30 8236 H 764.637 0.148652 0.936273 0
M  V30 8237 H 764.343 -0.040602 3.51677 0
M  V30 8238 H 764.217 -1.78034 3.32541 0
M  V30 8239 H 766.604 -1.80591 2.3339 0
M  V30 8240 H 766.685 -0.0525498 2.55746 0
M  V30 8241 H 766.329 -0.378262 5.06489 0
M  V30 8242 H 766.259 -2.14027 4.81145 0
M  V30 8243 H 768.75 -1.15837 3.59708 0
M  V30 8244 H 769.063 -1.76591 7.52353 0
M  V30 8245 H 767.408 -1.5949 6.76453 0
M  V30 8246 H 770.599 -1.35443 4.48077 0
M  V30 8247 H 770.772 -1.6317 6.2712 0
M  V30 8248 N 764.178 -1.45556 -0.604258 0
M  V30 8249 C 765.125 -1.54482 -1.71476 0
M  V30 8250 C 766.095 -0.390479 -1.61445 0
M  V30 8251 O 767.28 -0.604371 -1.80975 0
M  V30 8252 C 764.42 -1.52064 -3.09791 0
M  V30 8253 C 763.533 -2.78073 -3.30604 0
M  V30 8254 C 762.668 -2.67304 -4.59044 0
M  V30 8255 C 761.707 -3.88352 -4.73127 0
M  V30 8256 N 760.844 -3.76098 -5.9287 0
M  V30 8257 H 765.684 -2.49349 -1.63184 0
M  V30 8258 H 763.221 -1.23725 -0.795641 0
M  V30 8259 H 765.179 -1.48649 -3.89819 0
M  V30 8260 H 763.809 -0.607442 -3.17033 0
M  V30 8261 H 762.861 -2.91561 -2.44329 0
M  V30 8262 H 764.173 -3.67847 -3.36883 0
M  V30 8263 H 763.327 -2.61875 -5.47272 0
M  V30 8264 H 762.066 -1.75135 -4.55169 0
M  V30 8265 H 761.071 -3.94137 -3.83322 0
M  V30 8266 H 762.296 -4.81591 -4.78797 0
M  V30 8267 H 760.242 -2.867 -5.90033 0
M  V30 8268 H 760.159 -4.59509 -6.00323 0
M  V30 8269 H 761.427 -3.74607 -6.83586 0
M  V30 8270 N 765.656 0.84705 -1.32902 0
M  V30 8271 C 766.619 1.9378 -1.224 0
M  V30 8272 C 767.619 1.60144 -0.145108 0
M  V30 8273 O 768.809 1.69638 -0.396058 0
M  V30 8274 C 765.941 3.29234 -0.884174 0
M  V30 8275 H 767.134 2.04518 -2.19345 0
M  V30 8276 H 764.687 1.03816 -1.16842 0
M  V30 8277 H 765.422 3.24193 0.0831277 0
M  V30 8278 H 765.207 3.55026 -1.6643 0
M  V30 8279 H 766.697 4.09162 -0.835226 0
M  V30 8280 N 767.134 1.16236 1.06428 0
M  V30 8281 C 768.411 0.853294 1.76006 0
M  V30 8282 C 768.791 -0.649162 2.00871 0
M  V30 8283 O 768.139 -1.59653 1.63472 0
M  V30 8284 C 768.349 1.67448 3.06206 0
M  V30 8285 C 769.697 1.8866 3.80385 0
M  V30 8286 O 770.721 1.64303 3.16043 0
M  V30 8287 O 769.58 2.29518 4.95968 0
M  V30 8288 H 766.674 0.314737 0.764767 0
M  V30 8289 H 769.22 1.26865 1.12709 0
M  V30 8290 H 767.992 2.69411 2.83784 0
M  V30 8291 H 767.615 1.25608 3.77238 0
M  V30 8292 N 768.612 -1.24939 0.960631 0
M  V30 8293 C 769.562 -2.23388 0.456266 0
M  V30 8294 C 770.546 -1.54249 -0.45782 0
M  V30 8295 O 771.738 -1.7461 -0.289894 0
M  V30 8296 C 768.867 -3.42321 -0.259024 0
M  V30 8297 C 767.953 -4.18718 0.673478 0
M  V30 8298 N 768.344 -4.72394 1.8077 0
M  V30 8299 C 766.642 -4.43378 0.482859 0
M  V30 8300 C 767.343 -5.30316 2.3904 0
M  V30 8301 N 766.319 -5.17109 1.67629 0
M  V30 8302 H 770.121 -2.62499 1.32179 0
M  V30 8303 H 767.635 -1.40245 0.818851 0
M  V30 8304 H 769.632 -4.11997 -0.637527 0
M  V30 8305 H 768.292 -3.04732 -1.12108 0
M  V30 8306 H 769.303 -4.69345 2.18942 0
M  V30 8307 H 765.98 -4.16147 -0.335821 0
M  V30 8308 H 767.37 -5.82594 3.34715 0
M  V30 8309 N 770.09 -0.729906 -1.39679 0
M  V30 8310 C 771 -0.0880322 -2.34435 0
M  V30 8311 C 772.016 0.727674 -1.58053 0
M  V30 8312 O 773.192 0.657321 -1.90371 0
M  V30 8313 C 770.257 0.812211 -3.37052 0
M  V30 8314 C 769.318 -0.0151681 -4.29297 0
M  V30 8315 C 768.551 0.842202 -5.27013 0
M  V30 8316 O 768.774 2.08108 -5.31081 0
M  V30 8317 O 767.708 0.27357 -6.01278 0
M  V30 8318 H 771.534 -0.869989 -2.90972 0
M  V30 8319 H 769.119 -0.490522 -1.41118 0
M  V30 8320 H 771.001 1.32745 -3.99946 0
M  V30 8321 H 769.676 1.57307 -2.82907 0
M  V30 8322 H 768.583 -0.575811 -3.69642 0
M  V30 8323 H 769.916 -0.738129 -4.86634 0
M  V30 8324 N 771.568 1.50203 -0.477153 0
M  V30 8325 C 772.531 2.27194 0.302599 0
M  V30 8326 C 773.531 1.32221 0.915112 0
M  V30 8327 O 774.721 1.55593 0.783348 0
M  V30 8328 C 771.853 3.0938 1.43167 0
M  V30 8329 H 773.046 2.97575 -0.372678 0
M  V30 8330 H 770.599 1.54578 -0.231392 0
M  V30 8331 H 771.334 2.43509 2.14182 0
M  V30 8332 H 771.119 3.79181 0.998197 0
M  V30 8333 H 772.609 3.67592 1.98157 0
M  V30 8334 N 773.046 0.209999 1.56195 0
M  V30 8335 C 774.323 -0.473214 1.89789 0
M  V30 8336 C 774.703 -1.78581 1.1257 0
M  V30 8337 O 774.051 -2.27325 0.231398 0
M  V30 8338 C 774.261 -0.677458 3.42362 0
M  V30 8339 C 775.609 -0.990114 4.12895 0
M  V30 8340 O 776.633 -0.764655 3.47896 0
M  V30 8341 O 775.492 -1.41737 5.278 0
M  V30 8342 H 772.586 -0.248622 0.788743 0
M  V30 8343 H 775.132 0.251324 1.67829 0
M  V30 8344 H 773.904 0.248878 3.90508 0
M  V30 8345 H 773.527 -1.45391 3.70064 0
M  V30 8346 N 774.524 -1.57472 -0.0634922 0
M  V30 8347 C 775.471 -2.04258 -1.07457 0
M  V30 8348 C 776.441 -0.924804 -1.37973 0
M  V30 8349 O 777.626 -1.19305 -1.48899 0
M  V30 8350 C 774.766 -2.49832 -2.38071 0
M  V30 8351 C 773.879 -3.75263 -2.14014 0
M  V30 8352 C 773.014 -4.09585 -3.38251 0
M  V30 8353 C 772.053 -5.28032 -3.09594 0
M  V30 8354 N 771.19 -5.57953 -4.26185 0
M  V30 8355 H 776.03 -2.90402 -0.668626 0
M  V30 8356 H 773.567 -1.43609 -0.318572 0
M  V30 8357 H 775.525 -2.7431 -3.14341 0
M  V30 8358 H 774.155 -1.66654 -2.76453 0
M  V30 8359 H 773.207 -3.58075 -1.28399 0
M  V30 8360 H 774.519 -4.61667 -1.88852 0
M  V30 8361 H 773.673 -4.35008 -4.2291 0
M  V30 8362 H 772.412 -3.21765 -3.66495 0
M  V30 8363 H 771.417 -5.02397 -2.23332 0
M  V30 8364 H 772.642 -6.17477 -2.82663 0
M  V30 8365 H 770.588 -4.73092 -4.54445 0
M  V30 8366 H 770.505 -6.38793 -4.04326 0
M  V30 8367 H 771.773 -5.87931 -5.11817 0
M  V30 8368 N 776.003 0.335068 -1.53997 0
M  V30 8369 C 776.95 1.41187 -1.82579 0
M  V30 8370 C 777.92 1.51897 -0.672061 0
M  V30 8371 O 779.105 1.673 -0.917346 0
M  V30 8372 C 776.245 2.77717 -2.0486 0
M  V30 8373 C 775.358 2.7573 -3.32561 0
M  V30 8374 C 774.493 4.04032 -3.44864 0
M  V30 8375 C 773.532 3.96308 -4.66483 0
M  V30 8376 N 772.669 5.16317 -4.75774 0
M  V30 8377 H 777.509 1.16113 -2.74448 0
M  V30 8378 H 775.046 0.562305 -1.35928 0
M  V30 8379 H 777.004 3.57071 -2.15768 0
M  V30 8380 H 775.634 3.01124 -1.16294 0
M  V30 8381 H 774.686 1.88432 -3.3045 0
M  V30 8382 H 775.998 2.65902 -4.22016 0
M  V30 8383 H 775.152 4.91814 -3.55251 0
M  V30 8384 H 773.891 4.16652 -2.53481 0
M  V30 8385 H 772.896 3.06911 -4.56164 0
M  V30 8386 H 774.121 3.85263 -5.5924 0
M  V30 8387 H 772.067 5.29464 -3.87303 0
M  V30 8388 H 771.984 5.08779 -5.59178 0
M  V30 8389 H 773.252 6.05846 -4.9048 0
M  V30 8390 N 777.481 1.45874 0.596531 0
M  V30 8391 C 778.897 1.30524 0.918459 0
M  V30 8392 C 779.097 0.266429 1.99731 0
M  V30 8393 O 778.153 -0.335809 2.50257 0
M  V30 8394 C 779.466 2.68747 1.3489 0
M  V30 8395 C 781.014 2.7673 1.46251 0
M  V30 8396 C 781.489 4.15504 1.92667 0
M  V30 8397 N 782.98 4.17853 1.99883 0
M  V30 8398 C 783.715 5.22109 2.37044 0
M  V30 8399 N 783.211 6.36704 2.73094 0
M  V30 8400 N 785.004 5.09471 2.37479 0
M  V30 8401 H 777.155 2.12081 -0.116368 0
M  V30 8402 H 779.418 0.947941 0.0106033 0
M  V30 8403 H 779.124 3.46006 0.630288 0
M  V30 8404 H 778.998 2.97942 2.31323 0
M  V30 8405 H 781.385 1.99768 2.17202 0
M  V30 8406 H 781.466 2.51236 0.481054 0
M  V30 8407 H 781.11 4.92956 1.223 0
M  V30 8408 H 781.04 4.38396 2.91747 0
M  V30 8409 H 783.531 3.35163 1.74568 0
M  V30 8410 H 783.844 7.12041 3.00362 0
M  V30 8411 H 782.189 6.40087 2.70764 0
M  V30 8412 H 785.38 4.18987 2.08728 0
M  V30 8413 H 785.553 5.90837 2.66112 0
M  V30 8414 N 778.959 -0.83999 1.33349 0
M  V30 8415 C 779.907 -1.97113 1.23488 0
M  V30 8416 C 780.901 -1.68849 0.136503 0
M  V30 8417 O 782.107 -1.77476 0.300389 0
M  V30 8418 H 778.482 -0.647049 0.383185 0
M  V30 8419 H 780.453 -2.02554 2.19122 0
M  V30 8420 C 779.202 -3.33314 0.989815 0
M  V30 8421 H 778.525 -3.556 1.82726 0
M  V30 8422 H 779.965 -4.12963 0.961123 0
M  V30 8423 C 778.424 -3.35496 -0.307272 0
M  V30 8424 O 778.954 -3.79589 -1.31434 0
M  V30 8425 N 777.16 -2.88669 -0.334414 0
M  V30 8426 H 776.707 -2.5298 0.485659 0
M  V30 8427 H 776.665 -2.90512 -1.20209 0
M  V30 8428 N 780.437 -1.16799 -1.0581 0
M  V30 8429 C 781.367 -0.902241 -2.15364 0
M  V30 8430 C 782.348 0.153351 -1.69407 0
M  V30 8431 O 783.533 0.00442032 -1.94199 0
M  V30 8432 C 780.663 -0.407911 -3.44896 0
M  V30 8433 C 779.617 -1.40197 -4.04387 0
M  V30 8434 C 778.943 -0.765848 -5.29187 0
M  V30 8435 C 780.243 -2.77316 -4.42598 0
M  V30 8436 H 781.937 -1.81841 -2.37853 0
M  V30 8437 H 779.483 -0.875731 -1.14311 0
M  V30 8438 H 781.436 -0.20945 -4.20879 0
M  V30 8439 H 780.16 0.54378 -3.22041 0
M  V30 8440 H 778.819 -1.58707 -3.30466 0
M  V30 8441 H 778.467 0.192482 -5.02632 0
M  V30 8442 H 778.167 -1.42939 -5.69949 0
M  V30 8443 H 779.691 -0.577519 -6.07863 0
M  V30 8444 H 781.105 -2.62561 -5.09642 0
M  V30 8445 H 779.502 -3.4019 -4.94359 0
M  V30 8446 H 780.572 -3.32199 -3.53231 0
M  V30 8447 N 781.915 1.24427 -0.967243 0
M  V30 8448 C 782.825 2.29109 -0.504592 0
M  V30 8449 C 783.841 1.68495 0.434224 0
M  V30 8450 O 785.017 1.99041 0.307379 0
M  V30 8451 C 782.082 3.46133 0.198273 0
M  V30 8452 C 781.143 4.22149 -0.780313 0
M  V30 8453 C 780.376 5.33585 -0.110896 0
M  V30 8454 O 780.599 5.59676 1.10088 0
M  V30 8455 O 779.533 5.96522 -0.802823 0
M  V30 8456 H 783.359 2.708 -1.37482 0
M  V30 8457 H 780.944 1.30111 -0.73426 0
M  V30 8458 H 782.826 4.17205 0.593124 0
M  V30 8459 H 781.501 3.0642 1.04347 0
M  V30 8460 H 780.408 3.53454 -1.22561 0
M  V30 8461 H 781.741 4.65677 -1.59392 0
M  V30 8462 N 783.393 0.737304 1.3929 0
M  V30 8463 C 784.341 0.0879867 2.32434 0
M  V30 8464 C 785.335 -0.723324 1.53181 0
M  V30 8465 O 786.541 -0.624251 1.68829 0
M  V30 8466 H 782.916 0.00965277 0.751938 0
M  V30 8467 H 784.887 0.889915 2.84821 0
M  V30 8468 C 783.636 -0.803384 3.38291 0
M  V30 8469 H 782.959 -0.18849 3.99355 0
M  V30 8470 H 784.399 -1.22528 4.0591 0
M  V30 8471 C 782.858 -1.93872 2.75527 0
M  V30 8472 O 783.388 -3.03154 2.63553 0
M  V30 8473 N 781.594 -1.72883 2.3358 0
M  V30 8474 H 781.141 -0.840005 2.43519 0
M  V30 8475 H 781.099 -2.49021 1.91927 0
M  V30 8476 N 784.871 -1.49948 0.485112 0
M  V30 8477 C 786.148 -1.95186 -0.12726 0
M  V30 8478 C 786.528 -1.42605 -1.5565 0
M  V30 8479 O 785.876 -0.632986 -2.19558 0
M  V30 8480 C 786.086 -3.48955 -0.0562117 0
M  V30 8481 C 787.434 -4.23932 -0.238106 0
M  V30 8482 O 788.458 -3.55955 -0.132145 0
M  V30 8483 O 787.317 -5.44614 -0.453658 0
M  V30 8484 H 784.411 -0.820433 -0.104014 0
M  V30 8485 H 786.957 -1.60659 0.546517 0
M  V30 8486 H 785.729 -3.79814 0.941122 0
M  V30 8487 H 785.352 -3.90056 -0.770834 0
M  V30 8488 N 786.349 -0.21828 -1.56081 0
M  V30 8489 C 787.595 0.414921 -1.9851 0
M  V30 8490 C 787.928 1.59648 -1.10573 0
M  V30 8491 O 787.203 1.93818 -0.162695 0
M  V30 8492 C 787.486 0.852647 -3.4986 0
M  V30 8493 C 787.339 -0.33232 -4.48571 0
M  V30 8494 C 788.658 1.70998 -4.05521 0
M  V30 8495 H 785.777 0.149344 -0.72171 0
M  V30 8496 H 788.419 -0.313858 -1.8739 0
M  V30 8497 H 786.569 1.47362 -3.59467 0
M  V30 8498 H 788.241 -0.970418 -4.50977 0
M  V30 8499 H 786.484 -0.980302 -4.22578 0
M  V30 8500 H 787.155 0.0168407 -5.51997 0
M  V30 8501 H 789.631 1.18606 -3.98838 0
M  V30 8502 H 788.507 1.98517 -5.11744 0
M  V30 8503 H 788.768 2.67219 -3.52202 0
M  V30 8504 N 787.827 1.57504 0.0551401 0
M  V30 8505 C 788.775 2.05884 1.08233 0
M  V30 8506 C 789.769 0.967383 1.39061 0
M  V30 8507 O 790.975 1.15242 1.38273 0
M  V30 8508 H 787.35 0.656673 0.366449 0
M  V30 8509 H 789.321 2.91273 0.648269 0
M  V30 8510 C 788.07 2.53221 2.38273 0
M  V30 8511 H 787.393 3.36809 2.15406 0
M  V30 8512 H 788.833 2.9081 3.08554 0
M  V30 8513 C 787.292 1.42218 3.05411 0
M  V30 8514 O 787.822 0.773638 3.9418 0
M  V30 8515 N 786.028 1.16316 2.66306 0
M  V30 8516 H 785.575 1.69237 1.94207 0
M  V30 8517 H 785.533 0.422534 3.11548 0
M  V30 8518 N 789.305 -0.326896 1.54172 0
M  V30 8519 C 790.53 -1.08924 1.76494 0
M  V30 8520 C 790.955 -1.81039 0.510523 0
M  V30 8521 O 790.313 -1.73141 -0.537756 0
M  V30 8522 C 790.361 -2.06558 2.95578 0
M  V30 8523 O 789.465 -3.14394 2.6689 0
M  V30 8524 H 788.806 -0.314216 0.584948 0
M  V30 8525 H 791.336 -0.372207 2.01186 0
M  V30 8526 H 791.346 -2.49487 3.22832 0
M  V30 8527 H 790.021 -1.53469 3.86549 0
M  V30 8528 H 788.598 -2.76164 2.50576 0
M  V30 8529 N 790.784 -1.46188 -0.588786 0
M  V30 8530 C 791.714 -1.59148 -1.70863 0
M  V30 8531 C 792.695 -0.442083 -1.64255 0
M  V30 8532 O 793.88 -0.667575 -1.82365 0
M  V30 8533 C 791.01 -1.5757 -3.09498 0
M  V30 8534 C 789.964 -2.71418 -3.30932 0
M  V30 8535 C 789.29 -2.549 -4.70032 0
M  V30 8536 C 790.59 -4.1329 -3.19356 0
M  V30 8537 H 792.284 -2.52889 -1.60274 0
M  V30 8538 H 789.83 -1.21707 -0.769638 0
M  V30 8539 H 791.783 -1.65231 -3.87655 0
M  V30 8540 H 790.507 -0.603705 -3.20972 0
M  V30 8541 H 789.166 -2.63216 -2.55172 0
M  V30 8542 H 788.814 -1.55797 -4.78264 0
M  V30 8543 H 788.514 -3.31257 -4.85327 0
M  V30 8544 H 790.038 -2.64443 -5.50366 0
M  V30 8545 H 791.452 -4.22636 -3.87365 0
M  V30 8546 H 789.849 -4.90187 -3.46175 0
M  V30 8547 H 790.919 -4.33874 -2.16522 0
M  V30 8548 N 792.262 0.832906 -1.33792 0
M  V30 8549 C 793.209 1.94314 -1.24541 0
M  V30 8550 C 794.179 1.65646 -0.122753 0
M  V30 8551 O 795.364 1.88394 -0.30204 0
M  V30 8552 C 792.504 3.30395 -0.996641 0
M  V30 8553 C 791.617 3.71422 -2.20612 0
M  V30 8554 C 790.752 4.96401 -1.89101 0
M  V30 8555 C 789.791 5.2998 -3.06247 0
M  V30 8556 N 788.928 6.46137 -2.74685 0
M  V30 8557 H 793.768 2.01559 -2.19495 0
M  V30 8558 H 791.305 0.986243 -1.09141 0
M  V30 8559 H 793.263 4.08803 -0.832817 0
M  V30 8560 H 791.893 3.22691 -0.0838242 0
M  V30 8561 H 790.945 2.88488 -2.47949 0
M  V30 8562 H 792.257 3.92215 -3.0817 0
M  V30 8563 H 791.411 5.82572 -1.69396 0
M  V30 8564 H 790.15 4.7759 -0.987882 0
M  V30 8565 H 789.155 4.42312 -3.26559 0
M  V30 8566 H 790.38 5.50737 -3.97323 0
M  V30 8567 H 788.326 6.28801 -1.86938 0
M  V30 8568 H 788.243 6.67054 -3.55774 0
M  V30 8569 H 789.511 7.35403 -2.58461 0
M  V30 8570 N 793.74 1.17359 1.05189 0
M  V30 8571 C 795.017 0.871914 1.75091 0
M  V30 8572 C 795.397 -0.627821 2.01548 0
M  V30 8573 O 794.745 -1.5791 1.65156 0
M  V30 8574 C 794.955 1.70687 3.04413 0
M  V30 8575 C 796.303 1.92684 3.78362 0
M  V30 8576 O 797.327 1.67645 3.14282 0
M  V30 8577 O 796.186 2.34765 4.93505 0
M  V30 8578 H 793.28 0.322831 0.761386 0
M  V30 8579 H 795.826 1.28054 1.11357 0
M  V30 8580 H 794.598 2.72405 2.80911 0
M  V30 8581 H 794.221 1.29602 3.75884 0
M  V30 8582 N 795.218 -1.23913 0.973828 0
M  V30 8583 C 796.15 -2.24397 0.466763 0
M  V30 8584 C 797.163 -1.57078 -0.427828 0
M  V30 8585 O 798.352 -1.76973 -0.233019 0
M  V30 8586 C 795.452 -3.37141 -0.344798 0
M  V30 8587 C 794.625 -4.34037 0.541349 0
M  V30 8588 C 793.684 -5.2576 -0.215243 0
M  V30 8589 O 792.71 -5.67842 0.39291 0
M  V30 8590 N 793.912 -5.60702 -1.5031 0
M  V30 8591 H 796.677 -2.68536 1.33074 0
M  V30 8592 H 794.238 -1.38017 0.846346 0
M  V30 8593 H 796.23 -3.95476 -0.859133 0
M  V30 8594 H 794.8 -2.92239 -1.10974 0
M  V30 8595 H 794.02 -3.74302 1.23659 0
M  V30 8596 H 795.308 -4.95738 1.1455 0
M  V30 8597 H 794.706 -5.28451 -2.01882 0
M  V30 8598 H 793.263 -6.21538 -1.96301 0
M  V30 8599 N 796.696 -0.74468 -1.38897 0
M  V30 8600 C 797.626 -0.126355 -2.33158 0
M  V30 8601 C 798.607 0.713517 -1.54412 0
M  V30 8602 O 799.792 0.656523 -1.82766 0
M  V30 8603 C 796.922 0.774375 -3.38557 0
M  V30 8604 C 795.876 0.0379214 -4.27983 0
M  V30 8605 C 795.202 1.05631 -5.24162 0
M  V30 8606 C 796.502 -1.12523 -5.10035 0
M  V30 8607 H 798.196 -0.913744 -2.85116 0
M  V30 8608 H 795.742 -0.440847 -1.37086 0
M  V30 8609 H 797.695 1.21655 -4.03458 0
M  V30 8610 H 796.419 1.59399 -2.85061 0
M  V30 8611 H 795.078 -0.384733 -3.64576 0
M  V30 8612 H 794.726 1.86975 -4.66958 0
M  V30 8613 H 794.426 0.568261 -5.84846 0
M  V30 8614 H 795.95 1.49799 -5.9194 0
M  V30 8615 H 797.364 -0.761037 -5.68226 0
M  V30 8616 H 795.761 -1.54355 -5.79909 0
M  V30 8617 H 796.831 -1.94237 -4.44297 0
M  V30 8618 N 798.174 1.49689 -0.493057 0
M  V30 8619 C 799.084 2.32746 0.294358 0
M  V30 8620 C 800.1 1.44117 0.975003 0
M  V30 8621 O 801.276 1.77149 0.958138 0
M  V30 8622 C 798.341 3.19358 1.34949 0
M  V30 8623 C 797.402 4.2383 0.683122 0
M  V30 8624 C 796.635 5.06303 1.68798 0
M  V30 8625 O 796.858 4.90172 2.91698 0
M  V30 8626 O 795.792 5.88826 1.24768 0
M  V30 8627 H 799.618 3.01247 -0.385254 0
M  V30 8628 H 797.203 1.47216 -0.254519 0
M  V30 8629 H 799.085 3.73037 1.96014 0
M  V30 8630 H 797.76 2.53561 2.01217 0
M  V30 8631 H 796.667 3.74086 0.0329351 0
M  V30 8632 H 798 4.9216 0.0630192 0
M  V30 8633 N 799.652 0.226554 1.55963 0
M  V30 8634 C 800.929 -0.453058 1.90281 0
M  V30 8635 C 801.309 -1.77377 1.14458 0
M  V30 8636 O 800.657 -2.27067 0.255496 0
M  V30 8637 C 800.867 -0.641108 3.43061 0
M  V30 8638 C 802.215 -0.946265 4.13921 0
M  V30 8639 O 803.239 -0.727713 3.48687 0
M  V30 8640 O 802.098 -1.36131 5.29274 0
M  V30 8641 H 799.192 -0.240242 0.791336 0
M  V30 8642 H 801.738 0.26911 1.67553 0
M  V30 8643 H 800.51 0.290283 3.90222 0
M  V30 8644 H 800.133 -1.41458 3.71585 0
M  V30 8645 N 801.13 -1.57531 -0.0467866 0
M  V30 8646 C 802.06 -2.08425 -1.05268 0
M  V30 8647 C 803.041 -0.982941 -1.38825 0
M  V30 8648 O 804.226 -1.25716 -1.48018 0
M  V30 8649 C 801.356 -2.54897 -2.35891 0
M  V30 8650 C 800.31 -3.69132 -2.16623 0
M  V30 8651 C 799.636 -4.01747 -3.52851 0
M  V30 8652 C 800.936 -4.98243 -1.56689 0
M  V30 8653 H 802.63 -2.92716 -0.62908 0
M  V30 8654 H 800.176 -1.40816 -0.301156 0
M  V30 8655 H 802.129 -2.8912 -3.06574 0
M  V30 8656 H 800.853 -1.67666 -2.80278 0
M  V30 8657 H 799.512 -3.35231 -1.48377 0
M  V30 8658 H 799.16 -3.11608 -3.94853 0
M  V30 8659 H 798.86 -4.78681 -3.4079 0
M  V30 8660 H 800.384 -4.38487 -4.24925 0
M  V30 8661 H 801.798 -5.30535 -2.17268 0
M  V30 8662 H 800.195 -5.79669 -1.55255 0
M  V30 8663 H 801.265 -4.81986 -0.530827 0
M  V30 8664 N 802.608 0.318715 -1.54344 0
M  V30 8665 C 803.555 1.39242 -1.84066 0
M  V30 8666 C 804.525 1.51175 -0.688134 0
M  V30 8667 O 805.71 1.66318 -0.935039 0
M  V30 8668 C 802.85 2.75528 -2.07794 0
M  V30 8669 C 801.963 2.72187 -3.35467 0
M  V30 8670 C 801.098 4.00352 -3.4913 0
M  V30 8671 C 800.137 3.91338 -4.7066 0
M  V30 8672 N 799.274 5.11242 -4.81224 0
M  V30 8673 H 804.114 1.13196 -2.75664 0
M  V30 8674 H 801.651 0.547857 -1.36517 0
M  V30 8675 H 803.609 3.54763 -2.19543 0
M  V30 8676 H 802.239 2.99873 -1.19482 0
M  V30 8677 H 801.291 1.84917 -3.3243 0
M  V30 8678 H 802.603 2.61411 -4.24812 0
M  V30 8679 H 801.757 4.88019 -3.60448 0
M  V30 8680 H 800.496 4.1394 -2.57886 0
M  V30 8681 H 799.501 3.02055 -4.59394 0
M  V30 8682 H 800.726 3.7931 -5.63294 0
M  V30 8683 H 798.672 5.25327 -3.92897 0
M  V30 8684 H 798.589 5.0282 -5.64543 0
M  V30 8685 H 799.857 6.0061 -4.96879 0
M  V30 8686 N 804.086 1.46499 0.581025 0
M  V30 8687 C 805.033 1.5719 1.68997 0
M  V30 8688 C 806.003 0.416114 1.60803 0
M  V30 8689 O 807.188 0.633086 1.79991 0
M  V30 8690 C 804.328 1.56973 3.07333 0
M  V30 8691 C 803.441 2.83298 3.26139 0
M  V30 8692 C 802.576 2.74574 4.54734 0
M  V30 8693 C 801.615 3.9583 4.66889 0
M  V30 8694 N 800.752 3.85482 5.86811 0
M  V30 8695 H 805.592 2.51914 1.59196 0
M  V30 8696 H 803.129 1.24975 0.775857 0
M  V30 8697 H 805.087 1.54832 3.87405 0
M  V30 8698 H 803.717 0.657803 3.16027 0
M  V30 8699 H 802.769 2.95411 2.3966 0
M  V30 8700 H 804.081 3.7316 3.30988 0
M  V30 8701 H 803.235 2.70548 5.43036 0
M  V30 8702 H 801.974 1.82354 4.52325 0
M  V30 8703 H 800.979 4.00186 3.77003 0
M  V30 8704 H 802.204 4.89148 4.71075 0
M  V30 8705 H 800.15 2.96051 5.85397 0
M  V30 8706 H 800.067 4.69002 5.92936 0
M  V30 8707 H 801.335 3.85434 6.7754 0
M  V30 8708 N 805.565 -0.825799 1.34232 0
M  V30 8709 C 806.981 -1.11848 1.13851 0
M  V30 8710 C 807.181 -2.01405 -0.0619031 0
M  V30 8711 O 806.237 -2.41465 -0.738287 0
M  V30 8712 C 807.55 -1.76797 2.43235 0
M  V30 8713 C 809.098 -1.89304 2.49265 0
M  V30 8714 C 809.573 -2.57669 3.78643 0
M  V30 8715 N 811.064 -2.65171 3.79788 0
M  V30 8716 C 811.799 -3.1879 4.76614 0
M  V30 8717 N 811.295 -3.72995 5.83821 0
M  V30 8718 N 813.088 -3.17164 4.64073 0
M  V30 8719 H 805.239 -0.230049 2.11151 0
M  V30 8720 H 807.502 -0.164609 0.9336 0
M  V30 8721 H 807.208 -1.18455 3.31152 0
M  V30 8722 H 807.082 -2.76693 2.56361 0
M  V30 8723 H 809.469 -2.46796 1.6179 0
M  V30 8724 H 809.55 -0.883191 2.4007 0
M  V30 8725 H 809.194 -2.00833 4.66507 0
M  V30 8726 H 809.124 -3.59152 3.8512 0
M  V30 8727 H 811.615 -2.26746 3.02315 0
M  V30 8728 H 811.928 -4.12151 6.53721 0
M  V30 8729 H 810.273 -3.71246 5.87538 0
M  V30 8730 H 813.464 -2.74082 3.79469 0
M  V30 8731 H 813.637 -3.58647 5.397 0
M  V30 8732 N 807.043 -1.17915 -1.04565 0
M  V30 8733 C 807.991 -0.897919 -2.1457 0
M  V30 8734 C 808.985 0.139883 -1.68821 0
M  V30 8735 O 810.191 -0.00779463 -1.79998 0
M  V30 8736 H 806.566 -0.272867 -0.700748 0
M  V30 8737 H 808.537 -1.83268 -2.3549 0
M  V30 8738 C 807.286 -0.434634 -3.44973 0
M  V30 8739 H 806.609 -1.22469 -3.8058 0
M  V30 8740 H 808.049 -0.276804 -4.23095 0
M  V30 8741 C 806.508 0.848738 -3.26034 0
M  V30 8742 O 807.038 1.9141 -3.53164 0
M  V30 8743 N 805.244 0.799373 -2.79389 0
M  V30 8744 H 804.791 -0.0678192 -2.57511 0
M  V30 8745 H 804.749 1.6585 -2.67098 0
M  V30 8746 N 808.521 1.23394 -0.980386 0
M  V30 8747 C 809.453 2.24146 -0.478657 0
M  V30 8748 C 810.466 1.57303 0.419492 0
M  V30 8749 O 811.655 1.77094 0.223631 0
M  V30 8750 C 808.755 3.3732 0.326913 0
M  V30 8751 C 807.928 4.33744 -0.56436 0
M  V30 8752 C 806.987 5.25866 0.187358 0
M  V30 8753 O 806.013 5.67626 -0.423019 0
M  V30 8754 N 807.215 5.61492 1.47335 0
M  V30 8755 H 809.98 2.67826 -1.34496 0
M  V30 8756 H 807.541 1.37566 -0.853653 0
M  V30 8757 H 809.533 3.95926 0.838148 0
M  V30 8758 H 808.103 2.92823 1.09422 0
M  V30 8759 H 807.323 3.73641 -1.25642 0
M  V30 8760 H 808.611 4.95123 -1.17177 0
M  V30 8761 H 808.009 5.29514 1.99077 0
M  V30 8762 H 806.566 6.2257 1.93002 0
M  V30 8763 N 809.999 0.752036 1.385 0
M  V30 8764 C 810.947 0.112634 2.32327 0
M  V30 8765 C 811.941 -0.707037 1.53939 0
M  V30 8766 O 813.147 -0.606309 1.69481 0
M  V30 8767 H 809.522 0.0176275 0.751793 0
M  V30 8768 H 811.493 0.920074 2.83861 0
M  V30 8769 C 810.242 -0.767458 3.39124 0
M  V30 8770 H 809.565 -0.146122 3.99533 0
M  V30 8771 H 811.005 -1.18216 4.07187 0
M  V30 8772 C 809.464 -1.90938 2.77568 0
M  V30 8773 O 809.994 -3.00342 2.66754 0
M  V30 8774 N 808.2 -1.70396 2.35401 0
M  V30 8775 H 807.747 -0.81413 2.44397 0
M  V30 8776 H 807.705 -2.46972 1.94557 0
M  V30 8777 N 811.477 -1.49425 0.500989 0
M  V30 8778 C 812.702 -2.07356 -0.0425154 0
M  V30 8779 C 813.127 -1.35887 -1.30063 0
M  V30 8780 O 812.485 -0.41561 -1.76472 0
M  V30 8781 C 812.533 -3.59518 -0.279188 0
M  V30 8782 O 811.637 -3.89542 -1.3539 0
M  V30 8783 H 810.978 -0.663482 0.0262207 0
M  V30 8784 H 813.508 -1.92231 0.700607 0
M  V30 8785 H 813.518 -4.04791 -0.5107 0
M  V30 8786 H 812.193 -4.10946 0.640009 0
M  V30 8787 H 810.77 -3.56079 -1.10734 0
M  V30 8788 N 812.955 -0.234822 -1.55841 0
M  V30 8789 C 813.887 0.702346 -2.18174 0
M  V30 8790 C 814.9 1.14776 -1.15457 0
M  V30 8791 O 816.089 1.07662 -1.42377 0
M  V30 8792 C 813.189 1.96483 -2.76129 0
M  V30 8793 C 812.362 1.67283 -4.04148 0
M  V30 8794 C 811.421 2.7837 -4.46539 0
M  V30 8795 O 810.447 2.46272 -5.13166 0
M  V30 8796 N 811.649 4.07611 -4.1332 0
M  V30 8797 H 814.414 0.169074 -2.99223 0
M  V30 8798 H 811.975 -0.0543164 -1.61809 0
M  V30 8799 H 813.967 2.70016 -3.01452 0
M  V30 8800 H 812.537 2.40822 -1.99307 0
M  V30 8801 H 811.757 0.773278 -3.86541 0
M  V30 8802 H 813.045 1.45222 -4.87635 0
M  V30 8803 H 812.443 4.36527 -3.59806 0
M  V30 8804 H 811 4.77646 -4.43506 0
M  V30 8805 N 814.433 1.57553 0.0384317 0
M  V30 8806 C 815.682 1.88022 0.730108 0
M  V30 8807 C 815.995 0.83209 1.77019 0
M  V30 8808 O 817.201 1.0257 2.51379 0
M  V30 8809 C 815.657 3.33637 1.3496 0
M  V30 8810 C 815.265 4.46659 0.346352 0
M  V30 8811 C 817.009 3.73266 2.02169 0
M  V30 8812 C 814.916 5.8333 0.973652 0
M  V30 8813 H 813.846 0.701496 0.276442 0
M  V30 8814 H 816.497 1.83493 -0.0158028 0
M  V30 8815 H 814.879 3.32882 2.1449 0
M  V30 8816 H 816.053 4.58868 -0.421558 0
M  V30 8817 H 814.368 4.15802 -0.223133 0
M  V30 8818 H 816.965 4.72689 2.49938 0
M  V30 8819 H 817.308 3.04776 2.8358 0
M  V30 8820 H 817.841 3.76156 1.29427 0
M  V30 8821 H 814.58 6.55197 0.199163 0
M  V30 8822 H 814.1 5.7486 1.71162 0
M  V30 8823 H 815.779 6.29757 1.48376 0
M  V30 8824 N 815.911 -0.310526 1.54511 0
M  V30 8825 C 817.136 -1.07046 1.7764 0
M  V30 8826 C 817.561 -1.80488 0.529696 0
M  V30 8827 O 816.919 -1.73702 -0.519361 0
M  V30 8828 C 816.967 -2.03411 2.97752 0
M  V30 8829 O 816.071 -3.11545 2.7021 0
M  V30 8830 H 815.412 -0.307994 0.588248 0
M  V30 8831 H 817.942 -0.350848 2.01569 0
M  V30 8832 H 817.952 -2.46048 3.2546 0
M  V30 8833 H 816.627 -1.49361 3.88155 0
M  V30 8834 H 815.204 -2.7349 2.53491 0
M  V30 8835 N 817.389 -1.46805 -0.573248 0
M  V30 8836 C 818.617 -1.56191 -1.3569 0
M  V30 8837 C 819.032 -0.206362 -1.87669 0
M  V30 8838 O 818.389 0.797883 -1.64134 0
M  V30 8839 C 818.44 -2.57433 -2.53792 0
M  V30 8840 O 818.161 -3.87724 -2.03965 0
M  V30 8841 C 819.662 -2.76851 -3.4622 0
M  V30 8842 H 816.882 -0.527907 -0.414192 0
M  V30 8843 H 819.426 -1.92292 -0.695989 0
M  V30 8844 H 817.581 -2.24311 -3.15854 0
M  V30 8845 H 817.995 -4.42909 -2.80948 0
M  V30 8846 H 819.469 -3.5159 -4.25545 0
M  V30 8847 H 819.946 -1.84095 -3.98755 0
M  V30 8848 H 820.552 -3.11107 -2.89987 0
M  V30 8849 N 818.867 0.818669 -1.34668 0
M  V30 8850 C 819.777 1.9616 -1.2868 0
M  V30 8851 C 820.793 1.72918 -0.193742 0
M  V30 8852 O 821.969 1.96951 -0.420975 0
M  V30 8853 C 819.034 3.30534 -1.04633 0
M  V30 8854 C 818.095 3.66755 -2.23136 0
M  V30 8855 C 817.328 4.94717 -2.00227 0
M  V30 8856 O 817.551 5.62218 -0.96264 0
M  V30 8857 O 816.485 5.28915 -2.87286 0
M  V30 8858 H 820.311 2.04157 -2.24842 0
M  V30 8859 H 817.896 0.954691 -1.14917 0
M  V30 8860 H 819.778 4.11005 -0.930216 0
M  V30 8861 H 818.453 3.23495 -0.115139 0
M  V30 8862 H 817.36 2.8671 -2.40308 0
M  V30 8863 H 818.693 3.78484 -3.1466 0
M  V30 8864 N 820.346 1.18468 1.03938 0
M  V30 8865 C 821.293 0.912859 2.1198 0
M  V30 8866 C 822.263 -0.14824 1.65437 0
M  V30 8867 O 823.448 -0.008331 1.90798 0
M  V30 8868 C 820.588 0.446114 3.42204 0
M  V30 8869 C 819.701 1.57278 4.02353 0
M  V30 8870 C 818.836 1.05863 5.20544 0
M  V30 8871 C 817.875 2.1599 5.72726 0
M  V30 8872 N 817.012 1.65959 6.82204 0
M  V30 8873 H 821.852 1.83798 2.34569 0
M  V30 8874 H 819.389 0.916504 1.15059 0
M  V30 8875 H 821.347 0.15697 4.16905 0
M  V30 8876 H 819.977 -0.442025 3.19759 0
M  V30 8877 H 819.029 1.97737 3.24968 0
M  V30 8878 H 820.341 2.40289 4.37107 0
M  V30 8879 H 819.495 0.724087 6.02364 0
M  V30 8880 H 818.234 0.198116 4.87297 0
M  V30 8881 H 817.239 2.50287 4.89527 0
M  V30 8882 H 818.464 3.02479 6.08016 0
M  V30 8883 H 816.41 0.82199 6.5083 0
M  V30 8884 H 816.327 2.42567 7.16029 0
M  V30 8885 H 817.595 1.35436 7.67644 0
M  V30 8886 N 821.824 -1.22873 0.986916 0
M  V30 8887 C 823.07 -1.91746 0.660401 0
M  V30 8888 C 823.403 -1.76738 -0.804812 0
M  V30 8889 O 822.678 -1.13246 -1.58131 0
M  V30 8890 C 822.961 -3.44156 1.05966 0
M  V30 8891 C 822.814 -3.68242 2.58298 0
M  V30 8892 C 824.133 -4.35874 0.60842 0
M  V30 8893 H 821.252 -0.696347 0.241391 0
M  V30 8894 H 823.894 -1.44867 1.22937 0
M  V30 8895 H 822.044 -3.84213 0.575534 0
M  V30 8896 H 823.716 -3.37626 3.14335 0
M  V30 8897 H 821.959 -3.12728 3.00638 0
M  V30 8898 H 822.63 -4.74956 2.81285 0
M  V30 8899 H 825.106 -4.03299 1.02417 0
M  V30 8900 H 823.982 -5.41201 0.916142 0
M  V30 8901 H 824.243 -4.39364 -0.491086 0
M  V30 8902 N 823.302 -0.75937 -1.38099 0
M  V30 8903 C 824.25 -0.124954 -2.32264 0
M  V30 8904 C 825.244 0.698863 -1.54312 0
M  V30 8905 O 826.45 0.597312 -1.698 0
M  V30 8906 H 822.825 -0.0216142 -0.751689 0
M  V30 8907 H 824.796 -0.935115 -2.83369 0
M  V30 8908 C 823.545 0.749463 -3.39527 0
M  V30 8909 H 822.868 0.124932 -3.99605 0
M  V30 8910 H 824.308 1.16055 -4.07808 0
M  V30 8911 C 822.767 1.89464 -2.78577 0
M  V30 8912 O 823.297 2.98923 -2.68343 0
M  V30 8913 N 821.503 1.69145 -2.36301 0
M  V30 8914 H 821.05 0.801157 -2.44825 0
M  V30 8915 H 821.008 2.45936 -1.95864 0
M  V30 8916 N 824.78 1.49157 -0.508906 0
M  V30 8917 C 825.712 2.272 0.302115 0
M  V30 8918 C 826.725 1.3407 0.923529 0
M  V30 8919 O 827.914 1.5929 0.805532 0
M  V30 8920 C 825.014 3.06736 1.44105 0
M  V30 8921 C 824.187 4.27497 0.925477 0
M  V30 8922 C 823.246 4.89014 1.94297 0
M  V30 8923 O 822.272 5.48851 1.50834 0
M  V30 8924 N 823.474 4.7937 3.2739 0
M  V30 8925 H 826.239 2.97443 -0.367115 0
M  V30 8926 H 823.8 1.58248 -0.341933 0
M  V30 8927 H 825.792 3.44763 2.11944 0
M  V30 8928 H 824.362 2.3905 2.0143 0
M  V30 8929 H 823.582 3.94135 0.0717301 0
M  V30 8930 H 824.87 5.05714 0.55955 0
M  V30 8931 H 824.268 4.31869 3.65384 0
M  V30 8932 H 822.825 5.21559 3.90922 0
M  V30 8933 N 826.258 0.243083 1.55714 0
M  V30 8934 C 827.188 -0.652336 2.24203 0
M  V30 8935 C 828.169 -1.1843 1.221 0
M  V30 8936 O 829.354 -1.22435 1.50743 0
M  V30 8937 C 826.484 -1.85111 2.93856 0
M  V30 8938 C 825.438 -1.45208 4.02615 0
M  V30 8939 C 824.764 -2.73137 4.59674 0
M  V30 8940 C 826.064 -0.625988 5.18535 0
M  V30 8941 H 827.758 -0.0812504 2.9929 0
M  V30 8942 H 825.304 -0.0376388 1.43951 0
M  V30 8943 H 827.257 -2.48314 3.40468 0
M  V30 8944 H 825.981 -2.44751 2.16251 0
M  V30 8945 H 824.64 -0.843406 3.56766 0
M  V30 8946 H 824.288 -3.30967 3.78774 0
M  V30 8947 H 823.988 -2.47163 5.33089 0
M  V30 8948 H 825.512 -3.37245 5.09017 0
M  V30 8949 H 826.926 -1.16223 5.61396 0
M  V30 8950 H 825.323 -0.462465 5.98315 0
M  V30 8951 H 826.393 0.362652 4.83542 0
M  V30 8952 N 827.736 -1.57571 -0.0300757 0
M  V30 8953 C 828.668 -2.0329 -1.05857 0
M  V30 8954 C 829.681 -0.945543 -1.32527 0
M  V30 8955 O 830.87 -1.22287 -1.30032 0
M  V30 8956 C 827.97 -2.39234 -2.40042 0
M  V30 8957 C 827.143 -3.70337 -2.32743 0
M  V30 8958 C 826.202 -3.93482 -3.49369 0
M  V30 8959 O 825.228 -4.64551 -3.28909 0
M  V30 8960 N 826.43 -3.39042 -4.71201 0
M  V30 8961 H 829.195 -2.9214 -0.668897 0
M  V30 8962 H 826.756 -1.60425 -0.218038 0
M  V30 8963 H 828.748 -2.51856 -3.16782 0
M  V30 8964 H 827.318 -1.5606 -2.70858 0
M  V30 8965 H 826.538 -3.68079 -1.41109 0
M  V30 8966 H 827.826 -4.56343 -2.25007 0
M  V30 8967 H 827.224 -2.81434 -4.90725 0
M  V30 8968 H 825.781 -3.57045 -5.45309 0
M  V30 8969 N 829.214 0.302327 -1.54673 0
M  V30 8970 C 830.63 0.647911 -1.45857 0
M  V30 8971 C 830.83 1.90773 -0.64869 0
M  V30 8972 O 829.886 2.52018 -0.155865 0
M  V30 8973 C 831.199 0.802144 -2.89804 0
M  V30 8974 C 832.747 0.898114 -2.99838 0
M  V30 8975 C 833.222 1.08436 -4.44978 0
M  V30 8976 N 834.713 1.15059 -4.48682 0
M  V30 8977 C 835.448 1.31296 -5.58166 0
M  V30 8978 N 834.944 1.4444 -6.77576 0
M  V30 8979 N 836.737 1.34174 -5.45851 0
M  V30 8980 H 828.888 -0.525428 -2.05798 0
M  V30 8981 H 831.151 -0.173423 -0.932002 0
M  V30 8982 H 830.857 -0.0526531 -3.51661 0
M  V30 8983 H 830.731 1.69155 -3.37145 0
M  V30 8984 H 833.118 1.7434 -2.38096 0
M  V30 8985 H 833.199 -0.0152752 -2.55795 0
M  V30 8986 H 832.843 0.243843 -5.07314 0
M  V30 8987 H 832.773 2.01195 -4.8665 0
M  V30 8988 H 835.264 1.0626 -3.62653 0
M  V30 8989 H 835.577 1.56582 -7.56771 0
M  V30 8990 H 833.922 1.41499 -6.80443 0
M  V30 8991 H 837.113 1.23516 -4.5151 0
M  V30 8992 H 837.286 1.46485 -6.31226 0
M  V30 8993 N 830.692 1.47107 0.565454 0
M  V30 8994 C 831.624 1.55024 1.6882 0
M  V30 8995 C 832.637 0.4371 1.56822 0
M  V30 8996 O 833.826 0.706315 1.63931 0
M  V30 8997 C 830.926 1.43069 3.0722 0
M  V30 8998 C 830.099 2.68807 3.45053 0
M  V30 8999 C 829.158 2.50806 4.62583 0
M  V30 9000 O 828.184 3.24593 4.67577 0
M  V30 9001 N 829.386 1.58093 5.58558 0
M  V30 9002 H 832.151 2.51836 1.62477 0
M  V30 9003 H 829.712 1.43382 0.751885 0
M  V30 9004 H 831.704 1.28773 3.83666 0
M  V30 9005 H 830.274 0.543721 3.07835 0
M  V30 9006 H 829.494 2.97923 2.58138 0
M  V30 9007 H 830.782 3.52298 3.67101 0
M  V30 9008 H 830.18 0.972807 5.57273 0
M  V30 9009 H 828.737 1.49753 6.34364 0
M  V30 9010 N 832.17 -0.811516 1.35101 0
M  V30 9011 C 833.1 -1.9378 1.30275 0
M  V30 9012 C 834.081 -1.69165 0.178075 0
M  V30 9013 O 835.266 -1.90599 0.372256 0
M  V30 9014 C 832.396 -3.30439 1.06899 0
M  V30 9015 C 831.35 -3.69523 2.15955 0
M  V30 9016 C 830.676 -5.0429 1.77751 0
M  V30 9017 C 831.976 -3.80419 3.57881 0
M  V30 9018 H 833.67 -1.98075 2.24514 0
M  V30 9019 H 831.216 -0.951586 1.08078 0
M  V30 9020 H 833.169 -4.08828 1.02164 0
M  V30 9021 H 831.893 -3.26473 0.0910462 0
M  V30 9022 H 830.552 -2.93416 2.19778 0
M  V30 9023 H 830.2 -4.96823 0.785876 0
M  V30 9024 H 829.9 -5.31411 2.5075 0
M  V30 9025 H 831.424 -5.85125 1.74533 0
M  V30 9026 H 832.838 -4.49051 3.56407 0
M  V30 9027 H 831.235 -4.19005 4.29598 0
M  V30 9028 H 832.305 -2.82105 3.94391 0
M  V30 9029 N 833.648 -1.19017 -1.03309 0
M  V30 9030 C 834.925 -0.899659 -1.73682 0
M  V30 9031 C 835.305 0.595677 -2.02521 0
M  V30 9032 O 834.653 1.55263 -1.67648 0
M  V30 9033 C 834.863 -1.75508 -3.01659 0
M  V30 9034 C 836.211 -1.98679 -3.75249 0
M  V30 9035 O 837.235 -1.72624 -3.11576 0
M  V30 9036 O 836.094 -2.42587 -4.89708 0
M  V30 9037 H 833.188 -0.334903 -0.756154 0
M  V30 9038 H 835.734 -1.29809 -1.09305 0
M  V30 9039 H 834.506 -2.7684 -2.76542 0
M  V30 9040 H 834.129 -1.35565 -3.73775 0
M  V30 9041 N 835.127 1.22348 -0.993418 0
M  V30 9042 C 836.037 2.27987 -0.553076 0
M  V30 9043 C 837.053 1.69378 0.398386 0
M  V30 9044 O 838.229 1.99648 0.26509 0
M  V30 9045 C 835.294 3.46475 0.124809 0
M  V30 9046 C 834.355 4.20399 -0.869682 0
M  V30 9047 C 833.588 5.33229 -0.224052 0
M  V30 9048 O 833.811 5.61885 0.981915 0
M  V30 9049 O 832.745 5.94685 -0.929174 0
M  V30 9050 H 836.571 2.67822 -1.43195 0
M  V30 9051 H 834.156 1.28525 -0.761694 0
M  V30 9052 H 836.038 4.18369 0.504496 0
M  V30 9053 H 834.713 3.08565 0.978243 0
M  V30 9054 H 833.62 3.50774 -1.30031 0
M  V30 9055 H 834.953 4.62191 -1.69233 0
M  V30 9056 N 836.605 0.766683 1.37694 0
M  V30 9057 C 837.833 0.339939 2.04088 0
M  V30 9058 C 838.248 -1.03617 1.57826 0
M  V30 9059 O 837.605 -1.6605 0.757214 0
M  V30 9060 C 837.656 0.368269 3.59619 0
M  V30 9061 O 837.377 1.69009 4.04188 0
M  V30 9062 C 838.878 -0.0707053 4.43244 0
M  V30 9063 H 836.098 0.143189 0.655544 0
M  V30 9064 H 838.642 1.03919 1.76128 0
M  V30 9065 H 836.797 -0.282359 3.8637 0
M  V30 9066 H 837.211 1.62523 4.98685 0
M  V30 9067 H 838.685 0.000273538 5.52 0
M  V30 9068 H 839.162 -1.1204 4.24669 0
M  V30 9069 H 839.768 0.551543 4.21709 0
M  V30 9070 N 838.083 -1.48885 0.516809 0
M  V30 9071 C 839.031 -2.31066 -0.266656 0
M  V30 9072 C 840.025 -1.40393 -0.94795 0
M  V30 9073 O 841.231 -1.57366 -0.873836 0
M  V30 9074 H 837.606 -0.744654 -0.104858 0
M  V30 9075 H 839.577 -2.95045 0.446236 0
M  V30 9076 C 838.326 -3.22131 -1.3087 0
M  V30 9077 H 837.649 -3.91839 -0.793865 0
M  V30 9078 H 839.089 -3.82544 -1.82856 0
M  V30 9079 C 837.548 -2.42825 -2.33533 0
M  V30 9080 O 838.078 -2.14364 -3.39722 0
M  V30 9081 N 836.284 -2.04559 -2.06407 0
M  V30 9082 H 835.831 -2.27905 -1.20071 0
M  V30 9083 H 835.789 -1.51807 -2.75322 0
M  V30 9084 N 839.561 -0.251338 -1.55583 0
M  V30 9085 C 840.524 0.63305 -2.20284 0
M  V30 9086 C 841.524 1.09941 -1.17344 0
M  V30 9087 O 842.714 1.00341 -1.42399 0
M  V30 9088 C 839.846 1.8706 -2.84993 0
M  V30 9089 H 841.039 0.0684846 -2.99822 0
M  V30 9090 H 838.592 -0.00181653 -1.563 0
M  V30 9091 H 839.327 2.47629 -2.09405 0
M  V30 9092 H 839.112 1.54436 -3.60405 0
M  V30 9093 H 840.602 2.50004 -3.34496 0
M  V30 9094 N 841.039 1.57585 0.0217189 0
M  V30 9095 C 841.969 2.10073 1.01939 0
M  V30 9096 C 842.95 1.0049 1.37243 0
M  V30 9097 O 844.135 1.28055 1.45999 0
M  V30 9098 C 841.265 2.58618 2.31806 0
M  V30 9099 C 840.219 3.72531 2.10724 0
M  V30 9100 C 839.545 4.07309 3.46415 0
M  V30 9101 C 840.845 5.00672 1.48743 0
M  V30 9102 H 842.539 2.9368 0.582432 0
M  V30 9103 H 840.085 1.41277 0.278715 0
M  V30 9104 H 842.038 2.9396 3.01936 0
M  V30 9105 H 840.762 1.72104 2.77575 0
M  V30 9106 H 839.421 3.37549 1.43025 0
M  V30 9107 H 839.069 3.17851 3.89846 0
M  V30 9108 H 838.769 4.84042 3.33132 0
M  V30 9109 H 840.293 4.45192 4.17895 0
M  V30 9110 H 841.707 5.33925 2.088 0
M  V30 9111 H 840.104 5.82065 1.46013 0
M  V30 9112 H 841.174 4.82769 0.45408 0
M  V30 9113 N 842.517 -0.29412 1.54831 0
M  V30 9114 C 843.447 -1.36757 1.89261 0
M  V30 9115 C 844.428 -1.52564 0.752214 0
M  V30 9116 O 845.613 -1.65958 1.00855 0
M  V30 9117 C 842.743 -2.73066 2.14597 0
M  V30 9118 C 841.697 -2.72017 3.3044 0
M  V30 9119 C 841.023 -4.11679 3.4121 0
M  V30 9120 C 842.323 -2.33149 4.67375 0
M  V30 9121 H 844.017 -1.08191 2.79169 0
M  V30 9122 H 841.563 -0.519014 1.34321 0
M  V30 9123 H 843.516 -3.48255 2.37269 0
M  V30 9124 H 842.24 -3.03172 1.21467 0
M  V30 9125 H 840.899 -1.99285 3.07703 0
M  V30 9126 H 840.547 -4.38973 2.45584 0
M  V30 9127 H 840.247 -4.11877 4.19084 0
M  V30 9128 H 841.771 -4.88637 3.6615 0
M  V30 9129 H 843.185 -2.98054 4.89731 0
M  V30 9130 H 841.582 -2.44546 5.48012 0
M  V30 9131 H 842.652 -1.28275 4.67626 0
M  V30 9132 N 843.995 -1.47404 -0.557645 0
M  V30 9133 C 845.411 -1.32913 -0.88353 0
M  V30 9134 C 845.611 -0.31929 -1.98954 0
M  V30 9135 O 844.667 0.26934 -2.51059 0
M  V30 9136 C 845.98 -2.72229 -1.27718 0
M  V30 9137 C 847.528 -2.8051 -1.38863 0
M  V30 9138 C 848.003 -4.20466 -1.81583 0
M  V30 9139 N 849.494 -4.23005 -1.88735 0
M  V30 9140 C 850.229 -5.2821 -2.23118 0
M  V30 9141 N 849.725 -6.4372 -2.56117 0
M  V30 9142 N 851.518 -5.15588 -2.23888 0
M  V30 9143 H 843.669 -2.11698 0.172557 0
M  V30 9144 H 845.932 -0.947889 0.0145334 0
M  V30 9145 H 845.638 -3.47556 -0.538329 0
M  V30 9146 H 845.512 -3.03971 -2.23342 0
M  V30 9147 H 847.899 -2.05457 -2.11829 0
M  V30 9148 H 847.98 -2.52423 -0.414274 0
M  V30 9149 H 847.624 -4.96025 -1.09187 0
M  V30 9150 H 847.554 -4.45977 -2.80021 0
M  V30 9151 H 850.045 -3.39674 -1.65621 0
M  V30 9152 H 850.358 -7.19754 -2.81378 0
M  V30 9153 H 848.703 -6.47041 -2.53698 0
M  V30 9154 H 851.894 -4.24374 -1.97546 0
M  V30 9155 H 852.067 -5.97685 -2.50353 0
M  V30 9156 N 845.473 0.80434 -1.35529 0
M  V30 9157 C 846.701 1.59283 -1.32048 0
M  V30 9158 C 847.116 1.88527 0.101556 0
M  V30 9159 O 846.473 1.48975 1.05417 0
M  V30 9160 C 846.524 2.92276 -2.12737 0
M  V30 9161 O 846.245 2.64299 -3.49396 0
M  V30 9162 C 847.746 3.86631 -2.16867 0
M  V30 9163 H 844.966 0.494523 -0.453528 0
M  V30 9164 H 847.51 0.999415 -1.78415 0
M  V30 9165 H 845.665 3.48125 -1.69964 0
M  V30 9166 H 846.079 3.4923 -3.91329 0
M  V30 9167 H 847.553 4.77053 -2.77712 0
M  V30 9168 H 848.03 4.23384 -1.16803 0
M  V30 9169 H 848.636 3.36717 -2.59811 0
M  V30 9170 N 846.951 1.19563 1.02676 0
M  V30 9171 C 847.861 0.950691 2.14474 0
M  V30 9172 C 848.877 -0.0900219 1.73767 0
M  V30 9173 O 850.053 0.0951063 2.01175 0
M  V30 9174 C 847.118 0.494917 3.43149 0
M  V30 9175 C 846.179 1.60527 3.98158 0
M  V30 9176 C 845.412 1.17115 5.20692 0
M  V30 9177 O 845.635 0.0355937 5.70389 0
M  V30 9178 O 844.569 1.97454 5.68591 0
M  V30 9179 H 848.395 1.88651 2.38001 0
M  V30 9180 H 845.98 0.978635 1.12885 0
M  V30 9181 H 847.862 0.249492 4.20661 0
M  V30 9182 H 846.537 -0.412434 3.21062 0
M  V30 9183 H 845.444 1.90487 3.21971 0
M  V30 9184 H 846.777 2.48925 4.24614 0
M  V30 9185 N 848.429 -1.21819 0.999893 0
M  V30 9186 C 849.654 -1.95298 0.698094 0
M  V30 9187 C 850.079 -1.73273 -0.731982 0
M  V30 9188 O 849.437 -1.01634 -1.50134 0
M  V30 9189 C 849.485 -3.45922 1.01834 0
M  V30 9190 O 848.589 -4.12223 0.120801 0
M  V30 9191 H 847.93 -0.610729 0.260588 0
M  V30 9192 H 850.46 -1.5472 1.33876 0
M  V30 9193 H 850.47 -3.96471 0.963074 0
M  V30 9194 H 849.145 -3.61278 2.06037 0
M  V30 9195 H 847.722 -3.72177 0.232153 0
M  V30 9196 N 849.908 -0.773975 -1.37286 0
M  V30 9197 C 851.185 -0.263942 -1.93811 0
M  V30 9198 C 851.565 1.24138 -1.70743 0
M  V30 9199 O 850.913 2.02557 -1.05749 0
M  V30 9200 C 851.123 -0.639753 -3.43086 0
M  V30 9201 C 852.471 -0.610796 -4.20184 0
M  V30 9202 O 853.495 -0.579278 -3.51458 0
M  V30 9203 O 852.354 -0.639862 -5.42741 0
M  V30 9204 H 849.448 -0.0614331 -0.824715 0
M  V30 9205 H 851.994 -0.855477 -1.46559 0
M  V30 9206 H 850.766 -1.67856 -3.53469 0
M  V30 9207 H 850.389 -0.0212827 -3.97594 0
M  V30 9208 N 851.386 1.48609 -0.524698 0
M  V30 9209 C 852.614 2.06899 0.00742946 0
M  V30 9210 C 853.029 1.38196 1.28637 0
M  V30 9211 O 852.386 0.467771 1.76403 0
M  V30 9212 C 852.437 3.60699 0.240548 0
M  V30 9213 O 852.158 4.26821 -0.987715 0
M  V30 9214 C 853.659 4.35769 0.813652 0
M  V30 9215 H 850.879 0.670278 -0.0311294 0
M  V30 9216 H 853.423 1.91071 -0.728832 0
M  V30 9217 H 851.578 3.76149 0.926845 0
M  V30 9218 H 851.992 5.18889 -0.765175 0
M  V30 9219 H 853.466 5.44174 0.926219 0
M  V30 9220 H 853.943 3.9984 1.81728 0
M  V30 9221 H 854.549 4.24983 0.164086 0
M  V30 9222 N 852.864 0.259585 1.55447 0
M  V30 9223 C 853.827 -0.621359 2.20617 0
M  V30 9224 C 854.827 -1.09317 1.17925 0
M  V30 9225 O 856.017 -0.995842 1.42929 0
M  V30 9226 C 853.149 -1.85546 2.85982 0
M  V30 9227 H 854.342 -0.0525833 2.99854 0
M  V30 9228 H 851.895 0.0101055 1.56297 0
M  V30 9229 H 852.63 -2.46515 2.10715 0
M  V30 9230 H 852.415 -1.52523 3.61219 0
M  V30 9231 H 853.905 -2.48227 3.35817 0
M  V30 9232 N 854.342 -1.57594 -0.0133615 0
M  V30 9233 C 855.305 -2.06534 -0.993799 0
M  V30 9234 C 856.305 -0.972267 -1.28077 0
M  V30 9235 O 857.495 -1.23537 -1.22818 0
M  V30 9236 C 854.627 -2.49554 -2.3224 0
M  V30 9237 H 855.82 -2.94419 -0.570741 0
M  V30 9238 H 853.373 -1.54113 -0.260546 0
M  V30 9239 H 854.108 -1.64872 -2.79263 0
M  V30 9240 H 853.893 -3.29371 -2.12737 0
M  V30 9241 H 855.383 -2.8779 -3.026 0
M  V30 9242 N 855.82 0.285905 -1.54985 0
M  V30 9243 C 857.236 0.632405 -1.46536 0
M  V30 9244 C 857.436 1.90074 -0.668888 0
M  V30 9245 O 856.492 2.51839 -0.182586 0
M  V30 9246 C 857.805 0.771361 -2.90638 0
M  V30 9247 C 859.353 0.866262 -3.00774 0
M  V30 9248 C 859.828 1.0371 -4.46103 0
M  V30 9249 N 861.319 1.10294 -4.49877 0
M  V30 9250 C 862.054 1.25369 -5.59527 0
M  V30 9251 N 861.55 1.37246 -6.7907 0
M  V30 9252 N 863.343 1.28377 -5.47244 0
M  V30 9253 H 855.494 -0.547226 -2.0523 0
M  V30 9254 H 857.757 -0.183298 -0.930111 0
M  V30 9255 H 857.463 -0.0899485 -3.51585 0
M  V30 9256 H 857.337 1.65569 -3.3892 0
M  V30 9257 H 859.724 1.71805 -2.39931 0
M  V30 9258 H 859.805 -0.0424049 -2.55765 0
M  V30 9259 H 859.449 0.190021 -5.07544 0
M  V30 9260 H 859.379 1.96022 -4.88757 0
M  V30 9261 H 861.87 1.02407 -3.6376 0
M  V30 9262 H 862.183 1.48546 -7.58389 0
M  V30 9263 H 860.528 1.34274 -6.81906 0
M  V30 9264 H 863.719 1.1872 -4.52795 0
M  V30 9265 H 863.892 1.39782 -6.32744 0
M  V30 9266 N 857.298 1.47698 0.54982 0
M  V30 9267 C 858.228 1.63622 1.66583 0
M  V30 9268 C 859.209 0.485477 1.63025 0
M  V30 9269 O 860.394 0.715692 1.80531 0
M  V30 9270 C 857.524 1.65721 3.05211 0
M  V30 9271 C 856.478 2.80097 3.2362 0
M  V30 9272 C 855.804 2.67272 4.63109 0
M  V30 9273 C 857.104 4.21612 3.08286 0
M  V30 9274 H 858.798 2.57049 1.53512 0
M  V30 9275 H 856.344 1.23705 0.737099 0
M  V30 9276 H 858.297 1.75451 3.83138 0
M  V30 9277 H 857.021 0.688593 3.19258 0
M  V30 9278 H 855.68 2.69889 2.48104 0
M  V30 9279 H 855.328 1.68422 4.73965 0
M  V30 9280 H 855.028 3.44008 4.76374 0
M  V30 9281 H 856.552 2.78942 5.43161 0
M  V30 9282 H 857.966 4.32758 3.76024 0
M  V30 9283 H 856.363 4.99193 3.33057 0
M  V30 9284 H 857.433 4.39462 2.04942 0
M  V30 9285 N 858.776 -0.797141 1.35954 0
M  V30 9286 C 860.192 -1.09408 1.16198 0
M  V30 9287 C 860.392 -2.01491 -0.0191682 0
M  V30 9288 O 859.448 -2.42977 -0.686902 0
M  V30 9289 C 860.761 -1.71597 2.46931 0
M  V30 9290 C 862.309 -1.83974 2.53224 0
M  V30 9291 C 862.784 -2.49579 3.84024 0
M  V30 9292 N 864.275 -2.57055 3.85327 0
M  V30 9293 C 865.01 -3.08608 4.83268 0
M  V30 9294 N 864.506 -3.60527 5.91601 0
M  V30 9295 N 866.299 -3.07249 4.70696 0
M  V30 9296 H 858.45 -0.185209 2.11591 0
M  V30 9297 H 860.713 -0.144768 0.936881 0
M  V30 9298 H 860.419 -1.11404 3.3359 0
M  V30 9299 H 860.293 -2.71193 2.62172 0
M  V30 9300 H 862.68 -2.43308 1.66988 0
M  V30 9301 H 862.761 -0.83207 2.41889 0
M  V30 9302 H 862.405 -1.90892 4.70662 0
M  V30 9303 H 862.335 -3.50902 3.92651 0
M  V30 9304 H 864.826 -2.20283 3.07057 0
M  V30 9305 H 865.139 -3.98192 6.62317 0
M  V30 9306 H 863.484 -3.587 5.95281 0
M  V30 9307 H 866.675 -2.65972 3.85197 0
M  V30 9308 H 866.848 -3.47119 5.47186 0
M  V30 9309 N 860.254 -1.20106 -1.0204 0
M  V30 9310 C 861.201 -0.946468 -2.10501 0
M  V30 9311 C 862.171 0.121902 -1.65652 0
M  V30 9312 O 863.356 -0.0220244 -1.90787 0
M  V30 9313 C 860.496 -0.500499 -3.41451 0
M  V30 9314 C 859.609 -1.63659 -3.998 0
M  V30 9315 C 858.744 -1.14131 -5.18794 0
M  V30 9316 C 857.783 -2.25074 -5.69217 0
M  V30 9317 N 856.92 -1.76791 -6.79477 0
M  V30 9318 H 861.76 -1.87506 -2.31615 0
M  V30 9319 H 859.297 -0.934693 -1.13587 0
M  V30 9320 H 861.255 -0.223276 -4.16602 0
M  V30 9321 H 859.885 0.391099 -3.20422 0
M  V30 9322 H 858.937 -2.02882 -3.21781 0
M  V30 9323 H 860.249 -2.47213 -4.33229 0
M  V30 9324 H 859.403 -0.819826 -6.01135 0
M  V30 9325 H 858.142 -0.275615 -4.86921 0
M  V30 9326 H 857.147 -2.58043 -4.85483 0
M  V30 9327 H 858.372 -3.12114 -6.03127 0
M  V30 9328 H 856.318 -0.925428 -6.4944 0
M  V30 9329 H 856.235 -2.53928 -7.12079 0
M  V30 9330 H 857.503 -1.47631 -7.65392 0
M  V30 9331 N 861.732 1.21287 -1.00634 0
M  V30 9332 C 862.96 1.94385 -0.708678 0
M  V30 9333 C 863.375 1.7416 0.728957 0
M  V30 9334 O 862.732 1.04906 1.49335 0
M  V30 9335 C 862.783 3.46755 -1.02193 0
M  V30 9336 O 862.504 3.6631 -2.40309 0
M  V30 9337 C 864.005 4.37014 -0.743867 0
M  V30 9338 H 861.225 0.618136 -0.261052 0
M  V30 9339 H 863.769 1.54067 -1.34475 0
M  V30 9340 H 861.924 3.8499 -0.431441 0
M  V30 9341 H 862.338 4.60393 -2.51274 0
M  V30 9342 H 863.812 5.42621 -1.01321 0
M  V30 9343 H 864.289 4.38017 0.322084 0
M  V30 9344 H 864.895 4.04426 -1.31603 0
M  V30 9345 N 863.21 0.781244 1.36873 0
M  V30 9346 C 864.142 0.132075 2.28819 0
M  V30 9347 C 865.155 -0.653925 1.49089 0
M  V30 9348 O 866.344 -0.490453 1.7163 0
M  V30 9349 C 863.444 -0.836297 3.28419 0
M  V30 9350 C 862.617 -0.102097 4.37281 0
M  V30 9351 C 861.676 -0.985217 5.16894 0
M  V30 9352 O 860.702 -0.445478 5.67454 0
M  V30 9353 N 861.904 -2.31043 5.3254 0
M  V30 9354 H 864.669 0.921838 2.85171 0
M  V30 9355 H 862.23 0.634427 1.48952 0
M  V30 9356 H 864.222 -1.43074 3.78566 0
M  V30 9357 H 862.792 -1.52698 2.72767 0
M  V30 9358 H 862.012 0.67335 3.88407 0
M  V30 9359 H 863.3 0.404862 5.07187 0
M  V30 9360 H 862.698 -2.77318 4.93063 0
M  V30 9361 H 861.255 -2.85472 5.8596 0
M  V30 9362 N 864.689 -1.48329 0.532571 0
M  V30 9363 C 865.652 -2.2816 -0.218069 0
M  V30 9364 C 866.652 -1.35526 -0.865409 0
M  V30 9365 O 867.842 -1.58394 -0.725061 0
M  V30 9366 C 864.974 -3.1448 -1.31586 0
M  V30 9367 H 866.167 -2.95987 0.482865 0
M  V30 9368 H 863.72 -1.53612 0.288603 0
M  V30 9369 H 864.455 -2.5129 -2.04997 0
M  V30 9370 H 864.24 -3.82625 -0.856779 0
M  V30 9371 H 865.73 -3.74693 -1.84377 0
M  V30 9372 N 866.167 -0.267825 -1.55308 0
M  V30 9373 C 867.077 0.633055 -2.25897 0
M  V30 9374 C 868.093 1.17613 -1.28231 0
M  V30 9375 O 869.269 1.20797 -1.61153 0
M  V30 9376 C 866.334 1.80397 -2.96071 0
M  V30 9377 C 865.395 1.29829 -4.09198 0
M  V30 9378 C 864.628 2.4134 -4.76016 0
M  V30 9379 O 864.851 3.60537 -4.42006 0
M  V30 9380 O 863.785 2.09909 -5.64111 0
M  V30 9381 H 867.611 0.0614381 -3.03638 0
M  V30 9382 H 865.196 -0.0355072 -1.49358 0
M  V30 9383 H 867.078 2.48685 -3.40197 0
M  V30 9384 H 865.753 2.36281 -2.21253 0
M  V30 9385 H 864.66 0.582086 -3.69544 0
M  V30 9386 H 865.993 0.785288 -4.85895 0
M  V30 9387 N 867.645 1.57599 0.00500368 0
M  V30 9388 C 868.87 1.95026 0.705663 0
M  V30 9389 C 869.295 0.869643 1.6679 0
M  V30 9390 O 868.653 -0.172659 1.80476 0
M  V30 9391 C 868.701 3.31545 1.4181 0
M  V30 9392 O 867.805 3.25495 2.53232 0
M  V30 9393 H 867.146 0.636808 0.188074 0
M  V30 9394 H 869.676 2.04547 -0.046696 0
M  V30 9395 H 869.686 3.66996 1.78265 0
M  V30 9396 H 868.361 4.09751 0.712543 0
M  V30 9397 H 866.938 3.01714 2.19142 0
M  V30 9398 N 869.123 -0.277682 1.55134 0
M  V30 9399 C 870.348 -1.03254 1.7987 0
M  V30 9400 C 870.773 -1.79324 0.567861 0
M  V30 9401 O 870.131 -1.74764 -0.4824 0
M  V30 9402 C 870.179 -1.9705 3.02 0
M  V30 9403 O 869.283 -3.05744 2.76757 0
M  V30 9404 H 868.624 -0.295447 0.594649 0
M  V30 9405 H 871.154 -0.308013 2.02268 0
M  V30 9406 H 871.164 -2.3909 3.30606 0
M  V30 9407 H 869.839 -1.41094 3.91236 0
M  V30 9408 H 868.416 -2.68052 2.59235 0
M  V30 9409 N 870.601 -1.47988 -0.541979 0
M  V30 9410 C 871.548 -1.61615 -1.6477 0
M  V30 9411 C 872.518 -0.458602 -1.59644 0
M  V30 9412 O 873.703 -0.680585 -1.78249 0
M  V30 9413 C 870.843 -1.65066 -3.03063 0
M  V30 9414 C 869.956 -2.91845 -3.18513 0
M  V30 9415 C 869.091 -2.86534 -4.47294 0
M  V30 9416 C 868.13 -4.0807 -4.5623 0
M  V30 9417 N 867.267 -4.00905 -5.76385 0
M  V30 9418 H 872.107 -2.56046 -1.52461 0
M  V30 9419 H 869.644 -1.26989 -0.742449 0
M  V30 9420 H 871.602 -1.65049 -3.83164 0
M  V30 9421 H 870.232 -0.74136 -3.14171 0
M  V30 9422 H 869.284 -3.01661 -2.31743 0
M  V30 9423 H 870.596 -3.81804 -3.20978 0
M  V30 9424 H 869.75 -2.84851 -5.35672 0
M  V30 9425 H 868.489 -1.94283 -4.47332 0
M  V30 9426 H 867.494 -4.10041 -3.66261 0
M  V30 9427 H 868.719 -5.01465 -4.5794 0
M  V30 9428 H 866.665 -3.11467 -5.77342 0
M  V30 9429 H 866.582 -4.84557 -5.80293 0
M  V30 9430 H 867.85 -4.03263 -6.67083 0
M  V30 9431 N 872.079 0.78992 -1.36375 0
M  V30 9432 C 873.011 1.91113 -1.26524 0
M  V30 9433 C 874.024 1.61747 -0.184851 0
M  V30 9434 O 875.213 1.73004 -0.439524 0
M  V30 9435 C 872.313 3.25908 -0.92937 0
M  V30 9436 C 871.486 3.83057 -2.11154 0
M  V30 9437 C 870.545 4.96289 -1.74881 0
M  V30 9438 O 869.571 5.12834 -2.46962 0
M  V30 9439 N 870.773 5.76478 -0.682193 0
M  V30 9440 H 873.538 2.00085 -2.23128 0
M  V30 9441 H 871.099 0.968165 -1.29762 0
M  V30 9442 H 873.091 3.99151 -0.667884 0
M  V30 9443 H 871.661 3.12556 -0.0524843 0
M  V30 9444 H 870.881 3.01808 -2.53586 0
M  V30 9445 H 872.169 4.1797 -2.90135 0
M  V30 9446 H 871.567 5.65638 -0.0836661 0
M  V30 9447 H 870.124 6.50026 -0.480529 0
M  V30 9448 N 873.557 1.20646 1.01402 0
M  V30 9449 C 874.806 1.01242 1.7445 0
M  V30 9450 C 875.119 -0.455732 1.90217 0
M  V30 9451 O 876.325 -0.768951 2.60383 0
M  V30 9452 C 874.781 1.76275 3.13776 0
M  V30 9453 C 874.389 3.27201 3.06013 0
M  V30 9454 C 876.133 1.65248 3.91016 0
M  V30 9455 C 874.04 3.9476 4.40362 0
M  V30 9456 H 872.97 0.375202 0.654018 0
M  V30 9457 H 875.621 1.44292 1.13367 0
M  V30 9458 H 874.003 1.26013 3.75415 0
M  V30 9459 H 875.177 3.84695 2.53665 0
M  V30 9460 H 873.492 3.38669 2.42265 0
M  V30 9461 H 876.089 2.13061 4.90417 0
M  V30 9462 H 876.432 0.609128 4.1182 0
M  V30 9463 H 876.965 2.12937 3.3601 0
M  V30 9464 H 873.704 4.99258 4.24761 0
M  V30 9465 H 873.224 3.42054 4.92706 0
M  V30 9466 H 874.903 3.99159 5.09196 0
M  V30 9467 N 875.035 -1.20752 1.01276 0
M  V30 9468 C 875.967 -2.22798 0.537917 0
M  V30 9469 C 876.98 -1.5836 -0.377638 0
M  V30 9470 O 878.169 -1.77624 -0.176599 0
M  V30 9471 C 875.269 -3.38068 -0.237364 0
M  V30 9472 C 874.442 -4.32095 0.679161 0
M  V30 9473 C 873.501 -5.26178 -0.0478676 0
M  V30 9474 O 872.527 -5.66305 0.573366 0
M  V30 9475 N 873.729 -5.65201 -1.32396 0
M  V30 9476 H 876.494 -2.64166 1.4155 0
M  V30 9477 H 874.055 -1.35254 0.889826 0
M  V30 9478 H 876.047 -3.98009 -0.73288 0
M  V30 9479 H 874.617 -2.95622 -1.0162 0
M  V30 9480 H 873.837 -3.70179 1.35505 0
M  V30 9481 H 875.125 -4.91842 1.30263 0
M  V30 9482 H 874.523 -5.34606 -1.84968 0
M  V30 9483 H 873.08 -6.27468 -1.76428 0
M  V30 9484 N 876.513 -0.788492 -1.36457 0
M  V30 9485 C 877.445 -0.144208 -2.28746 0
M  V30 9486 C 878.458 0.646009 -1.49434 0
M  V30 9487 O 879.647 0.481344 -1.71888 0
M  V30 9488 C 876.747 0.818869 -3.28858 0
M  V30 9489 C 875.92 0.0789055 -4.37329 0
M  V30 9490 C 874.979 0.957791 -5.1741 0
M  V30 9491 O 874.005 0.415378 -5.67682 0
M  V30 9492 N 875.207 2.28216 -5.33758 0
M  V30 9493 H 877.972 -0.936949 -2.84678 0
M  V30 9494 H 875.533 -0.642317 -1.48613 0
M  V30 9495 H 877.525 1.41065 -3.79319 0
M  V30 9496 H 876.095 1.51249 -2.73573 0
M  V30 9497 H 875.315 -0.693939 -3.88044 0
M  V30 9498 H 876.603 -0.431753 -5.06965 0
M  V30 9499 H 876.001 2.747 -4.94527 0
M  V30 9500 H 874.558 2.8236 -5.87466 0
M  V30 9501 N 877.991 1.48044 -0.54043 0
M  V30 9502 C 878.921 2.32597 0.205178 0
M  V30 9503 C 879.902 1.42748 0.925041 0
M  V30 9504 O 881.087 1.71624 0.908784 0
M  V30 9505 C 878.217 3.24175 1.24612 0
M  V30 9506 C 877.171 4.23131 0.64376 0
M  V30 9507 C 876.497 5.03915 1.78812 0
M  V30 9508 C 877.797 5.20831 -0.39144 0
M  V30 9509 H 879.491 2.95184 -0.500676 0
M  V30 9510 H 877.037 1.41948 -0.242225 0
M  V30 9511 H 878.99 3.82158 1.77576 0
M  V30 9512 H 877.714 2.59608 1.98169 0
M  V30 9513 H 876.373 3.66349 0.135554 0
M  V30 9514 H 876.021 4.35765 2.51232 0
M  V30 9515 H 875.721 5.709 1.39094 0
M  V30 9516 H 877.245 5.64753 2.32134 0
M  V30 9517 H 878.659 5.73277 0.0515064 0
M  V30 9518 H 877.056 5.95926 -0.706569 0
M  V30 9519 H 878.126 4.6733 -1.29345 0
M  V30 9520 N 879.47 0.276058 1.55163 0
M  V30 9521 C 880.38 -0.621066 2.2623 0
M  V30 9522 C 881.396 -1.16931 1.28853 0
M  V30 9523 O 882.572 -1.1994 1.61791 0
M  V30 9524 C 879.637 -1.78824 2.97023 0
M  V30 9525 C 878.698 -1.27657 4.09881 0
M  V30 9526 C 877.931 -2.38812 4.77289 0
M  V30 9527 O 878.154 -3.58188 4.43912 0
M  V30 9528 O 877.088 -2.06915 5.65217 0
M  V30 9529 H 880.914 -0.0453346 3.03666 0
M  V30 9530 H 878.499 0.0434275 1.49337 0
M  V30 9531 H 880.381 -2.46877 3.41511 0
M  V30 9532 H 879.056 -2.35104 2.22503 0
M  V30 9533 H 877.963 -0.56248 3.69847 0
M  V30 9534 H 879.296 -0.759509 4.86305 0
M  V30 9535 N 880.948 -1.576 0.00335426 0
M  V30 9536 C 882.173 -1.95398 -0.695311 0
M  V30 9537 C 882.598 -0.878476 -1.66326 0
M  V30 9538 O 881.956 0.163086 -1.80565 0
M  V30 9539 C 882.004 -3.32293 -1.40049 0
M  V30 9540 O 881.108 -3.26834 -2.51502 0
M  V30 9541 H 880.449 -0.637796 -0.184694 0
M  V30 9542 H 882.979 -2.04519 0.057543 0
M  V30 9543 H 882.989 -3.67936 -1.76316 0
M  V30 9544 H 881.664 -4.10123 -0.690803 0
M  V30 9545 H 880.241 -3.02872 -2.17539 0
M  V30 9546 N 882.426 0.269451 -1.5528 0
M  V30 9547 C 883.374 1.35303 -1.89198 0
M  V30 9548 C 884.368 1.50956 -0.768671 0
M  V30 9549 O 885.574 1.52699 -0.953054 0
M  V30 9550 H 881.949 0.452591 -0.600554 0
M  V30 9551 H 883.92 1.03949 -2.79709 0
M  V30 9552 C 882.669 2.70585 -2.18356 0
M  V30 9553 H 881.992 2.59332 -3.04281 0
M  V30 9554 H 883.432 3.45335 -2.46007 0
M  V30 9555 C 881.891 3.21954 -0.992327 0
M  V30 9556 O 882.421 4.01048 -0.228769 0
M  V30 9557 N 880.627 2.79682 -0.789062 0
M  V30 9558 H 880.174 2.15475 -1.41167 0
M  V30 9559 H 880.132 3.14399 0.00634776 0
M  V30 9560 N 883.904 1.48273 0.534124 0
M  V30 9561 C 884.852 1.62926 1.66005 0
M  V30 9562 C 885.846 0.495814 1.61982 0
M  V30 9563 O 887.052 0.6744 1.66889 0
M  V30 9564 H 883.427 0.513163 0.549698 0
M  V30 9565 H 885.398 2.57498 1.50789 0
M  V30 9566 C 884.147 1.68231 3.04292 0
M  V30 9567 H 883.47 2.54807 3.0808 0
M  V30 9568 H 884.91 1.82528 3.827 0
M  V30 9569 C 883.369 0.420154 3.3427 0
M  V30 9570 O 883.899 -0.468769 3.98955 0
M  V30 9571 N 882.105 0.293115 2.89118 0
M  V30 9572 H 881.652 1.01745 2.36655 0
M  V30 9573 H 881.61 -0.550376 3.09545 0
M  V30 9574 N 885.382 -0.782676 1.36792 0
M  V30 9575 C 886.798 -1.08169 1.17352 0
M  V30 9576 C 886.998 -2.015 0.0022037 0
M  V30 9577 O 886.054 -2.43692 -0.661093 0
M  V30 9578 C 887.367 -1.68969 2.48737 0
M  V30 9579 C 888.915 -1.81278 2.55161 0
M  V30 9580 C 889.39 -2.45492 3.86649 0
M  V30 9581 N 890.881 -2.52954 3.88032 0
M  V30 9582 C 891.616 -3.03465 4.86515 0
M  V30 9583 N 891.112 -3.54232 5.95392 0
M  V30 9584 N 892.905 -3.02239 4.73928 0
M  V30 9585 H 885.056 -0.162757 2.11775 0
M  V30 9586 H 887.319 -0.134823 0.938364 0
M  V30 9587 H 887.025 -1.07859 3.34753 0
M  V30 9588 H 886.899 -2.68397 2.65034 0
M  V30 9589 H 889.286 -2.41524 1.69559 0
M  V30 9590 H 889.367 -0.806367 2.42758 0
M  V30 9591 H 889.011 -1.85889 4.7266 0
M  V30 9592 H 888.941 -3.46718 3.96351 0
M  V30 9593 H 891.432 -2.17014 3.09376 0
M  V30 9594 H 891.745 -3.91145 6.66503 0
M  V30 9595 H 890.09 -3.52366 5.99052 0
M  V30 9596 H 893.281 -2.61871 3.87996 0
M  V30 9597 H 893.454 -3.41295 5.50837 0
M  V30 9598 N 886.86 -1.21182 -1.00761 0
M  V30 9599 C 888.137 -0.936297 -1.71735 0
M  V30 9600 C 888.517 0.552585 -2.03739 0
M  V30 9601 O 887.865 1.51672 -1.70903 0
M  V30 9602 C 888.075 -1.81867 -2.97868 0
M  V30 9603 C 889.423 -2.06594 -3.7095 0
M  V30 9604 O 890.447 -1.79194 -3.07844 0
M  V30 9605 O 889.306 -2.5292 -4.84452 0
M  V30 9606 H 886.4 -0.350867 -0.74888 0
M  V30 9607 H 888.946 -1.32098 -1.06527 0
M  V30 9608 H 887.718 -2.82643 -2.70607 0
M  V30 9609 H 887.341 -1.43463 -3.70815 0
M  V30 9610 N 888.338 1.20213 -1.01915 0
M  V30 9611 C 889.268 2.25336 -0.612023 0
M  V30 9612 C 890.249 1.65933 0.374186 0
M  V30 9613 O 891.434 1.92464 0.259053 0
M  V30 9614 C 888.564 3.47267 0.047904 0
M  V30 9615 C 887.518 4.1928 -0.859557 0
M  V30 9616 C 886.844 5.3466 -0.0652655 0
M  V30 9617 C 888.144 4.75143 -2.1688 0
M  V30 9618 H 889.838 2.59645 -1.49079 0
M  V30 9619 H 887.384 1.24808 -0.718263 0
M  V30 9620 H 889.337 4.19991 0.344294 0
M  V30 9621 H 888.061 3.12129 0.961404 0
M  V30 9622 H 886.72 3.48425 -1.13999 0
M  V30 9623 H 886.368 4.95767 0.849964 0
M  V30 9624 H 886.068 5.83772 -0.669618 0
M  V30 9625 H 887.592 6.10187 0.224612 0
M  V30 9626 H 889.006 5.39672 -1.9346 0
M  V30 9627 H 887.403 5.34702 -2.72422 0
M  V30 9628 H 888.473 3.93744 -2.83008 0
M  V30 9629 N 889.816 0.795718 1.36037 0
M  V30 9630 C 890.748 0.156336 2.28666 0
M  V30 9631 C 891.761 -0.638075 1.49775 0
M  V30 9632 O 892.95 -0.472222 1.7214 0
M  V30 9633 C 890.05 -0.801417 3.29288 0
M  V30 9634 C 889.223 -0.0557118 4.37365 0
M  V30 9635 C 888.282 -0.930338 5.1791 0
M  V30 9636 O 887.308 -0.385266 5.67895 0
M  V30 9637 N 888.51 -2.25382 5.34961 0
M  V30 9638 H 891.275 0.952033 2.84177 0
M  V30 9639 H 888.836 0.650189 1.48271 0
M  V30 9640 H 890.828 -1.39051 3.80062 0
M  V30 9641 H 889.398 -1.49796 2.74372 0
M  V30 9642 H 888.618 0.714508 3.87671 0
M  V30 9643 H 889.906 0.458633 5.06729 0
M  V30 9644 H 889.304 -2.72073 4.95977 0
M  V30 9645 H 887.861 -2.79241 5.88955 0
M  V30 9646 N 891.294 -1.47756 0.548274 0
M  V30 9647 C 892.571 -1.9555 -0.0443603 0
M  V30 9648 C 892.951 -1.49079 -1.49462 0
M  V30 9649 O 892.299 -0.725538 -2.16675 0
M  V30 9650 C 892.509 -3.48879 0.0918425 0
M  V30 9651 C 893.857 -4.2456 -0.0580879 0
M  V30 9652 O 894.881 -3.56195 0.018946 0
M  V30 9653 O 893.74 -5.46048 -0.222261 0
M  V30 9654 H 890.834 -0.824106 -0.0691235 0
M  V30 9655 H 893.38 -1.58196 0.614166 0
M  V30 9656 H 892.152 -3.7548 1.10137 0
M  V30 9657 H 891.775 -3.92975 -0.604704 0
M  V30 9658 N 892.772 -0.284283 -1.55015 0
M  V30 9659 C 893.719 0.599194 -2.22886 0
M  V30 9660 C 894.689 1.14264 -1.20553 0
M  V30 9661 O 895.874 1.19025 -1.49123 0
M  V30 9662 C 893.014 1.77317 -2.96062 0
M  V30 9663 C 892.127 1.26271 -4.13134 0
M  V30 9664 C 891.262 2.39922 -4.73931 0
M  V30 9665 C 890.301 1.85925 -5.8318 0
M  V30 9666 N 889.438 2.93084 -6.38002 0
M  V30 9667 H 894.278 0.0137816 -2.97997 0
M  V30 9668 H 891.815 -0.00496503 -1.47099 0
M  V30 9669 H 893.773 2.46339 -3.36709 0
M  V30 9670 H 892.403 2.33047 -2.23358 0
M  V30 9671 H 891.455 0.465296 -3.77544 0
M  V30 9672 H 892.767 0.827284 -4.91892 0
M  V30 9673 H 891.921 3.1692 -5.17346 0
M  V30 9674 H 890.66 2.86784 -3.9447 0
M  V30 9675 H 889.665 1.07409 -5.39206 0
M  V30 9676 H 890.89 1.39987 -6.64515 0
M  V30 9677 H 888.836 3.3931 -5.61431 0
M  V30 9678 H 888.753 2.53986 -7.12058 0
M  V30 9679 H 890.021 3.7003 -6.86075 0
M  V30 9680 N 894.251 1.57596 -0.0117121 0
M  V30 9681 C 895.199 2.1029 0.994035 0
M  V30 9682 C 896.193 1.02549 1.34833 0
M  V30 9683 O 897.399 1.21003 1.3326 0
M  V30 9684 H 893.774 0.671624 0.338268 0
M  V30 9685 H 895.745 2.93761 0.524147 0
M  V30 9686 C 894.494 2.63099 2.27319 0
M  V30 9687 H 893.817 3.45642 2.00927 0
M  V30 9688 H 895.257 3.03635 2.95942 0
M  V30 9689 C 893.716 1.55044 2.99104 0
M  V30 9690 O 894.246 0.940127 3.90544 0
M  V30 9691 N 892.452 1.27506 2.61133 0
M  V30 9692 H 891.999 1.77322 1.86855 0
M  V30 9693 H 891.957 0.554292 3.09475 0
M  V30 9694 N 895.729 -0.261212 1.5542 0
M  V30 9695 C 896.969 -0.998748 1.78338 0
M  V30 9696 C 897.333 -1.83064 0.578914 0
M  V30 9697 O 898.534 -2.59884 0.686575 0
M  V30 9698 C 896.805 -1.84828 3.05898 0
M  V30 9699 S 898.364 -2.64686 3.49981 0
M  V30 9700 H 895.182 -0.33619 0.626496 0
M  V30 9701 H 897.784 -0.26799 1.93655 0
M  V30 9702 H 896.488 -1.22658 3.91642 0
M  V30 9703 H 896.019 -2.62203 2.9328 0
M  V30 9704 H 898.034 -3.87299 3.10184 0
M  V30 9705 N 897.207 -1.48554 -0.526253 0
M  V30 9706 C 898.137 -1.66252 -1.63959 0
M  V30 9707 C 899.118 -0.511351 -1.62232 0
M  V30 9708 O 900.303 -0.744322 -1.7937 0
M  V30 9709 C 897.433 -1.70556 -3.02536 0
M  V30 9710 C 896.387 -2.8521 -3.19123 0
M  V30 9711 C 895.713 -2.74606 -4.58798 0
M  V30 9712 C 897.013 -4.26463 -3.0154 0
M  V30 9713 H 898.707 -2.59459 -1.49404 0
M  V30 9714 H 896.253 -1.24862 -0.717326 0
M  V30 9715 H 898.206 -1.81524 -3.80298 0
M  V30 9716 H 896.93 -0.739297 -3.18123 0
M  V30 9717 H 895.589 -2.73802 -2.43779 0
M  V30 9718 H 895.237 -1.75941 -4.71226 0
M  V30 9719 H 894.937 -3.51544 -4.70841 0
M  V30 9720 H 896.461 -2.87548 -5.38655 0
M  V30 9721 H 897.875 -4.38685 -3.69091 0
M  V30 9722 H 896.272 -5.04428 -3.25073 0
M  V30 9723 H 897.342 -4.42667 -1.97925 0
M  V30 9724 N 898.685 0.775411 -1.37205 0
M  V30 9725 C 899.615 1.90258 -1.35367 0
M  V30 9726 C 900.596 1.68634 -0.222864 0
M  V30 9727 O 901.781 1.89545 -0.422659 0
M  V30 9728 C 898.911 3.27488 -1.15623 0
M  V30 9729 C 897.865 3.63668 -2.25676 0
M  V30 9730 C 897.191 4.994 -1.91059 0
M  V30 9731 C 898.491 3.70797 -3.67841 0
M  V30 9732 H 900.185 1.92053 -2.29687 0
M  V30 9733 H 897.731 0.922597 -1.10563 0
M  V30 9734 H 899.684 4.05976 -1.12968 0
M  V30 9735 H 898.408 3.26117 -0.177573 0
M  V30 9736 H 897.067 2.87486 -2.2748 0
M  V30 9737 H 896.715 4.94565 -0.917324 0
M  V30 9738 H 896.415 5.24576 -2.64751 0
M  V30 9739 H 897.939 5.80291 -1.89985 0
M  V30 9740 H 899.353 4.39444 -3.68187 0
M  V30 9741 H 897.75 4.07468 -4.40556 0
M  V30 9742 H 898.82 2.71549 -4.01732 0
M  V30 9743 N 900.163 1.21714 1.00117 0
M  V30 9744 C 901.073 0.99597 2.12409 0
M  V30 9745 C 902.089 -0.0531431 1.73919 0
M  V30 9746 O 903.265 0.137757 2.00928 0
M  V30 9747 C 900.33 0.567593 3.42022 0
M  V30 9748 C 899.391 1.68936 3.94663 0
M  V30 9749 C 898.624 1.28133 5.1809 0
M  V30 9750 O 898.847 0.156574 5.70185 0
M  V30 9751 O 897.781 2.0947 5.64275 0
M  V30 9752 H 901.607 1.93657 2.33946 0
M  V30 9753 H 899.192 1.00236 1.10784 0
M  V30 9754 H 901.074 0.338664 4.20037 0
M  V30 9755 H 899.749 -0.34424 3.21864 0
M  V30 9756 H 898.656 1.97274 3.17858 0
M  V30 9757 H 899.989 2.57876 4.19238 0
M  V30 9758 N 901.641 -1.19671 1.02551 0
M  V30 9759 C 902.869 -1.93233 0.739513 0
M  V30 9760 C 903.284 -1.75298 -0.701158 0
M  V30 9761 O 902.641 -1.07269 -1.47647 0
M  V30 9762 C 902.692 -3.45085 1.07697 0
M  V30 9763 O 902.413 -3.62441 2.46106 0
M  V30 9764 C 903.914 -4.35776 0.813298 0
M  V30 9765 H 901.134 -0.613905 0.270853 0
M  V30 9766 H 903.678 -1.51909 1.36909 0
M  V30 9767 H 901.833 -3.84255 0.492635 0
M  V30 9768 H 902.247 -4.56337 2.58567 0
M  V30 9769 H 903.721 -5.40941 1.09941 0
M  V30 9770 H 904.198 -4.38474 -0.252359 0
M  V30 9771 H 904.804 -4.02282 1.38021 0
M  V30 9772 N 903.119 -0.802921 -1.35613 0
M  V30 9773 C 904.082 -0.216422 -2.28176 0
M  V30 9774 C 905.082 0.594101 -1.49422 0
M  V30 9775 O 906.272 0.41312 -1.6923 0
M  V30 9776 C 903.404 0.698746 -3.33662 0
M  V30 9777 H 904.597 -1.03276 -2.81557 0
M  V30 9778 H 902.15 -0.573307 -1.45406 0
M  V30 9779 H 902.885 1.53891 -2.85461 0
M  V30 9780 H 902.67 0.119314 -3.91918 0
M  V30 9781 H 904.16 1.10354 -4.02755 0
M  V30 9782 N 904.597 1.47463 -0.556102 0
M  V30 9783 C 905.544 2.29998 0.192213 0
M  V30 9784 C 906.514 1.38993 0.909403 0
M  V30 9785 O 907.699 1.67954 0.905316 0
M  V30 9786 C 904.839 3.22932 1.21692 0
M  V30 9787 C 903.952 4.29027 0.505908 0
M  V30 9788 C 903.087 5.09114 1.51581 0
M  V30 9789 C 902.126 6.06984 0.789714 0
M  V30 9790 N 901.263 6.80033 1.74639 0
M  V30 9791 H 906.103 2.93468 -0.517734 0
M  V30 9792 H 903.64 1.44654 -0.267147 0
M  V30 9793 H 905.598 3.75234 1.8236 0
M  V30 9794 H 904.228 2.61329 1.89491 0
M  V30 9795 H 903.28 3.7979 -0.215276 0
M  V30 9796 H 904.592 4.9876 -0.062958 0
M  V30 9797 H 903.746 5.6556 2.19606 0
M  V30 9798 H 902.485 4.3928 2.11859 0
M  V30 9799 H 901.49 5.49717 0.0955382 0
M  V30 9800 H 902.715 6.78827 0.192688 0
M  V30 9801 H 900.661 6.12931 2.33777 0
M  V30 9802 H 900.578 7.45933 1.22965 0
M  V30 9803 H 901.846 7.41054 2.41782 0
M  V30 9804 N 906.075 0.2925 1.54862 0
M  V30 9805 C 907.005 -0.580677 2.26165 0
M  V30 9806 C 907.986 -1.14485 1.25806 0
M  V30 9807 O 909.171 -1.17577 1.54562 0
M  V30 9808 C 906.301 -1.75668 2.99596 0
M  V30 9809 C 905.255 -1.32325 4.07031 0
M  V30 9810 C 904.581 -2.58374 4.68131 0
M  V30 9811 C 905.881 -0.460703 5.20264 0
M  V30 9812 H 907.575 0.0140075 2.99397 0
M  V30 9813 H 905.121 0.00817706 1.43998 0
M  V30 9814 H 907.074 -2.37356 3.48195 0
M  V30 9815 H 905.798 -2.37747 2.23928 0
M  V30 9816 H 904.457 -0.729477 3.59269 0
M  V30 9817 H 904.105 -3.18749 3.89112 0
M  V30 9818 H 903.805 -2.30078 5.40683 0
M  V30 9819 H 905.329 -3.2088 5.19489 0
M  V30 9820 H 906.743 -0.983037 5.64809 0
M  V30 9821 H 905.14 -0.271881 5.99484 0
M  V30 9822 H 906.21 0.516304 4.82143 0
M  V30 9823 N 907.553 -1.57587 0.0200696 0
M  V30 9824 C 908.5 -2.09667 -0.964791 0
M  V30 9825 C 909.47 -0.99664 -1.32877 0
M  V30 9826 O 910.655 -1.2703 -1.42366 0
M  V30 9827 C 907.795 -2.62101 -2.24493 0
M  V30 9828 C 906.908 -3.8608 -1.93821 0
M  V30 9829 C 906.043 -4.26939 -3.16064 0
M  V30 9830 C 905.082 -5.43701 -2.81169 0
M  V30 9831 N 904.219 -5.79759 -3.9601 0
M  V30 9832 H 909.059 -2.93538 -0.513751 0
M  V30 9833 H 906.596 -1.45096 -0.242 0
M  V30 9834 H 908.554 -2.90587 -2.99358 0
M  V30 9835 H 907.184 -1.81074 -2.6723 0
M  V30 9836 H 906.236 -3.64378 -1.09237 0
M  V30 9837 H 907.548 -4.71028 -1.64115 0
M  V30 9838 H 906.702 -4.56814 -3.99257 0
M  V30 9839 H 905.441 -3.40739 -3.48924 0
M  V30 9840 H 904.446 -5.13529 -1.96387 0
M  V30 9841 H 905.671 -6.31593 -2.49535 0
M  V30 9842 H 903.617 -4.96516 -4.28729 0
M  V30 9843 H 903.534 -6.59327 -3.69896 0
M  V30 9844 H 904.802 -6.14235 -4.79933 0
M  V30 9845 N 909.032 0.252966 -1.55557 0
M  V30 9846 C 909.962 1.31691 -1.9282 0
M  V30 9847 C 910.943 1.50516 -0.7924 0
M  V30 9848 O 912.128 1.63225 -1.05219 0
M  V30 9849 C 909.258 2.67281 -2.21762 0
M  V30 9850 C 908.212 2.6316 -3.37536 0
M  V30 9851 C 907.538 4.02488 -3.52005 0
M  V30 9852 C 908.838 2.20675 -4.73392 0
M  V30 9853 H 910.532 1.00751 -2.81939 0
M  V30 9854 H 908.078 0.483219 -1.3565 0
M  V30 9855 H 910.031 3.41842 -2.46419 0
M  V30 9856 H 908.755 2.99845 -1.29463 0
M  V30 9857 H 907.414 1.91057 -3.12878 0
M  V30 9858 H 907.062 4.32307 -2.57137 0
M  V30 9859 H 906.762 4.00621 -4.29857 0
M  V30 9860 H 908.286 4.78758 -3.78977 0
M  V30 9861 H 909.7 2.84965 -4.97461 0
M  V30 9862 H 908.097 2.29931 -5.54303 0
M  V30 9863 H 909.167 1.15831 -4.70862 0
M  V30 9864 N 910.51 1.48831 0.518367 0
M  V30 9865 C 911.42 1.6692 1.64848 0
M  V30 9866 C 912.436 0.551711 1.65022 0
M  V30 9867 O 913.612 0.824251 1.83761 0
M  V30 9868 C 910.677 1.71559 3.01278 0
M  V30 9869 C 909.738 2.9502 3.11868 0
M  V30 9870 C 908.971 2.99428 4.4179 0
M  V30 9871 O 909.194 2.11914 5.29574 0
M  V30 9872 O 908.128 3.91719 4.5699 0
M  V30 9873 H 911.954 2.62623 1.52521 0
M  V30 9874 H 909.539 1.32368 0.692749 0
M  V30 9875 H 911.421 1.77064 3.82396 0
M  V30 9876 H 910.096 0.790316 3.13904 0
M  V30 9877 H 909.003 2.95042 2.30003 0
M  V30 9878 H 910.336 3.8697 3.04163 0
M  V30 9879 N 911.988 -0.768124 1.37614 0
M  V30 9880 C 912.935 -1.88151 1.33671 0
M  V30 9881 C 913.905 -1.64871 0.201645 0
M  V30 9882 O 915.09 -1.86739 0.391582 0
M  V30 9883 C 912.23 -3.25264 1.15314 0
M  V30 9884 C 911.343 -3.60473 2.38082 0
M  V30 9885 C 910.478 -4.86814 2.12569 0
M  V30 9886 C 909.517 -5.14765 3.31184 0
M  V30 9887 N 908.654 -6.32295 3.052 0
M  V30 9888 H 913.494 -1.90857 2.28862 0
M  V30 9889 H 911.031 -0.933048 1.13722 0
M  V30 9890 H 912.989 -4.04364 1.02691 0
M  V30 9891 H 911.619 -3.21924 0.237689 0
M  V30 9892 H 910.671 -2.7633 2.61431 0
M  V30 9893 H 911.983 -3.77065 3.26532 0
M  V30 9894 H 911.137 -5.73826 1.96999 0
M  V30 9895 H 909.876 -4.72333 1.21462 0
M  V30 9896 H 908.881 -4.26227 3.4729 0
M  V30 9897 H 910.106 -5.31153 4.23147 0
M  V30 9898 H 908.052 -6.19166 2.16726 0
M  V30 9899 H 907.969 -6.4932 3.87195 0
M  V30 9900 H 909.237 -7.22234 2.93254 0
M  V30 9901 N 913.466 -1.22244 -0.994698 0
M  V30 9902 C 914.376 -1.00722 -2.11878 0
M  V30 9903 C 915.392 0.043919 -1.73945 0
M  V30 9904 O 916.568 -0.148411 -2.00852 0
M  V30 9905 C 913.633 -0.585723 -3.41717 0
M  V30 9906 C 912.694 -1.71027 -3.93762 0
M  V30 9907 C 911.927 -1.30879 -5.17403 0
M  V30 9908 O 912.15 -0.18681 -5.70094 0
M  V30 9909 O 911.084 -2.1246 -5.63156 0
M  V30 9910 H 914.91 -1.94894 -2.32916 0
M  V30 9911 H 912.495 -1.00822 -1.10251 0
M  V30 9912 H 914.377 -0.360935 -4.19851 0
M  V30 9913 H 913.052 0.327166 -3.22042 0
M  V30 9914 H 911.959 -1.98956 -3.16808 0
M  V30 9915 H 913.292 -2.60096 -4.17865 0
M  V30 9916 N 914.944 1.19125 -1.03184 0
M  V30 9917 C 916.191 1.88883 -0.730029 0
M  V30 9918 C 916.519 1.79807 0.741602 0
M  V30 9919 O 915.774 1.18686 1.55603 0
M  V30 9920 C 916.073 3.39052 -1.13041 0
M  V30 9921 C 915.739 3.68332 -2.60082 0
M  V30 9922 C 914.401 3.76033 -3.00254 0
M  V30 9923 C 916.753 3.81423 -3.55199 0
M  V30 9924 C 914.081 3.94296 -4.34451 0
M  V30 9925 C 916.433 4.012 -4.89103 0
M  V30 9926 C 915.097 4.07134 -5.28959 0
M  V30 9927 H 914.367 0.691172 -0.267137 0
M  V30 9928 H 917.014 1.41053 -1.29523 0
M  V30 9929 H 915.319 3.88801 -0.48386 0
M  V30 9930 H 917.016 3.91351 -0.874368 0
M  V30 9931 H 913.606 3.62948 -2.27961 0
M  V30 9932 H 917.79 3.74814 -3.25313 0
M  V30 9933 H 913.046 3.97131 -4.64863 0
M  V30 9934 H 917.22 4.10271 -5.62717 0
M  V30 9935 H 914.847 4.21038 -6.32954 0
M  V30 9936 N 916.422 0.810101 1.35185 0
M  V30 9937 C 917.671 0.388589 1.97921 0
M  V30 9938 C 917.984 -1.05079 1.64978 0
M  V30 9939 O 919.19 -1.57559 2.21105 0
M  V30 9940 C 917.646 0.643864 3.54094 0
M  V30 9941 C 917.254 2.09602 3.95943 0
M  V30 9942 C 918.998 0.287883 4.23523 0
M  V30 9943 C 916.905 2.29686 5.44976 0
M  V30 9944 H 915.835 0.141562 0.740592 0
M  V30 9945 H 918.486 0.994653 1.54204 0
M  V30 9946 H 916.868 -0.0321978 3.95987 0
M  V30 9947 H 918.042 2.81018 3.65192 0
M  V30 9948 H 916.357 2.4122 3.39414 0
M  V30 9949 H 918.954 0.415946 5.3308 0
M  V30 9950 H 919.297 -0.766305 4.09186 0
M  V30 9951 H 919.83 0.918004 3.87063 0
M  V30 9952 H 916.569 3.33563 5.64284 0
M  V30 9953 H 916.089 1.62798 5.77284 0
M  V30 9954 H 917.768 2.11411 6.11485 0
M  V30 9955 N 917.9 -1.47166 0.563914 0
M  V30 9956 C 918.848 -2.31798 -0.193009 0
M  V30 9957 C 919.842 -1.43338 -0.902805 0
M  V30 9958 O 921.048 -1.60067 -0.823328 0
M  V30 9959 H 917.423 -0.747613 -0.0811139 0
M  V30 9960 H 919.394 -2.93476 0.539876 0
M  V30 9961 C 918.143 -3.26131 -1.20555 0
M  V30 9962 H 917.466 -3.94166 -0.668803 0
M  V30 9963 H 918.906 -3.88167 -1.70593 0
M  V30 9964 C 917.365 -2.50132 -2.25689 0
M  V30 9965 O 917.895 -2.25064 -3.3273 0
M  V30 9966 N 916.101 -2.11022 -1.99795 0
M  V30 9967 H 915.648 -2.3161 -1.1276 0
M  V30 9968 H 915.606 -1.60489 -2.70353 0
M  V30 9969 N 919.378 -0.300708 -1.54705 0
M  V30 9970 C 920.308 0.568675 -2.26469 0
M  V30 9971 C 921.289 1.13817 -1.26411 0
M  V30 9972 O 922.474 1.16756 -1.55183 0
M  V30 9973 C 919.604 1.74077 -3.00524 0
M  V30 9974 C 918.558 1.30165 -4.07727 0
M  V30 9975 C 917.884 2.55888 -4.69495 0
M  V30 9976 C 919.184 0.433106 -5.20501 0
M  V30 9977 H 920.878 -0.0298851 -2.99385 0
M  V30 9978 H 918.424 -0.0158135 -1.43991 0
M  V30 9979 H 920.377 2.35506 -3.49449 0
M  V30 9980 H 919.101 2.36556 -2.25186 0
M  V30 9981 H 917.76 0.710414 -3.59651 0
M  V30 9982 H 917.408 3.16681 -3.90797 0
M  V30 9983 H 917.108 2.27207 -5.41895 0
M  V30 9984 H 918.632 3.18121 -5.21183 0
M  V30 9985 H 920.046 0.95307 -5.65322 0
M  V30 9986 H 918.443 0.240085 -5.9962 0
M  V30 9987 H 919.513 -0.541866 -4.81863 0
M  V30 9988 N 920.856 1.57574 -0.0284266 0
M  V30 9989 C 921.788 2.07079 0.982391 0
M  V30 9990 C 922.801 0.994078 1.28926 0
M  V30 9991 O 923.99 1.27028 1.25404 0
M  V30 9992 C 921.09 2.47978 2.30998 0
M  V30 9993 C 920.263 3.7872 2.18838 0
M  V30 9994 C 919.322 4.06177 3.34524 0
M  V30 9995 O 918.348 4.76438 3.11441 0
M  V30 9996 N 919.55 3.56297 4.58293 0
M  V30 9997 H 922.315 2.94421 0.560011 0
M  V30 9998 H 919.876 1.61124 0.158347 0
M  V30 9999 H 921.868 2.63439 3.07216 0
M  V30 10000 H 920.438 1.66005 2.64879 0
M  V30 10001 H 919.658 3.73062 1.27351 0
M  V30 10002 H 920.946 4.6438 2.07915 0
M  V30 10003 H 920.344 2.99453 4.79942 0
M  V30 10004 H 918.901 3.77038 5.31682 0
M  V30 10005 N 922.334 -0.244713 1.55689 0
M  V30 10006 C 923.559 -0.994157 1.8202 0
M  V30 10007 C 923.984 -1.78079 0.60577 0
M  V30 10008 O 923.342 -1.75748 -0.445221 0
M  V30 10009 C 923.39 -1.90599 3.06111 0
M  V30 10010 O 922.494 -2.99804 2.8318 0
M  V30 10011 H 921.835 -0.282767 0.600782 0
M  V30 10012 H 924.365 -0.26504 2.02876 0
M  V30 10013 H 924.375 -2.32023 3.35603 0
M  V30 10014 H 923.05 -1.32763 3.9414 0
M  V30 10015 H 921.627 -2.62493 2.64862 0
M  V30 10016 N 923.813 -1.49104 -0.510467 0
M  V30 10017 C 924.776 -1.64569 -1.59529 0
M  V30 10018 C 925.776 -0.517937 -1.5223 0
M  V30 10019 O 926.966 -0.784183 -1.55551 0
M  V30 10020 C 924.098 -1.6342 -2.99177 0
M  V30 10021 H 925.291 -2.61318 -1.4715 0
M  V30 10022 H 922.844 -1.37993 -0.734001 0
M  V30 10023 H 923.579 -0.68221 -3.17043 0
M  V30 10024 H 923.364 -2.45312 -3.05883 0
M  V30 10025 H 924.854 -1.77474 -3.78011 0
M  V30 10026 N 925.291 0.760815 -1.38019 0
M  V30 10027 C 926.221 1.88811 -1.37377 0
M  V30 10028 C 927.202 1.68388 -0.240737 0
M  V30 10029 O 928.387 1.89086 -0.442739 0
M  V30 10030 C 925.517 3.26244 -1.1909 0
M  V30 10031 C 924.471 3.61254 -2.29521 0
M  V30 10032 C 923.797 4.97346 -1.96345 0
M  V30 10033 C 925.097 3.66874 -3.71753 0
M  V30 10034 H 926.791 1.89606 -2.31711 0
M  V30 10035 H 924.337 0.910818 -1.11535 0
M  V30 10036 H 926.29 4.04755 -1.17267 0
M  V30 10037 H 925.014 3.2591 -0.212152 0
M  V30 10038 H 923.673 2.85057 -2.30517 0
M  V30 10039 H 923.321 4.93564 -0.969728 0
M  V30 10040 H 923.021 5.21739 -2.703 0
M  V30 10041 H 924.545 5.78244 -1.96129 0
M  V30 10042 H 925.959 4.35514 -3.72828 0
M  V30 10043 H 924.356 4.02772 -4.44853 0
M  V30 10044 H 925.426 2.67273 -4.0459 0
M  V30 10045 N 926.769 1.22769 0.988202 0
M  V30 10046 C 927.679 1.01844 2.11341 0
M  V30 10047 C 928.695 -0.0346937 1.73965 0
M  V30 10048 O 929.871 0.159061 2.00771 0
M  V30 10049 C 926.936 0.603837 3.41401 0
M  V30 10050 C 925.997 1.73113 3.92849 0
M  V30 10051 C 925.23 1.33621 5.16702 0
M  V30 10052 O 925.453 0.217041 5.69987 0
M  V30 10053 O 924.387 2.15444 5.62021 0
M  V30 10054 H 928.213 1.96127 2.31879 0
M  V30 10055 H 925.798 1.01405 1.09715 0
M  V30 10056 H 927.68 0.383196 4.19654 0
M  V30 10057 H 926.355 -0.310082 3.22211 0
M  V30 10058 H 925.262 2.00634 3.15748 0
M  V30 10059 H 926.595 2.62308 4.1648 0
M  V30 10060 N 928.247 -1.18576 1.03814 0
M  V30 10061 C 929.472 -1.92978 0.759873 0
M  V30 10062 C 929.897 -1.75514 -0.676486 0
M  V30 10063 O 929.255 -1.06359 -1.46824 0
M  V30 10064 C 929.303 -3.42507 1.12788 0
M  V30 10065 O 928.407 -4.1163 0.251886 0
M  V30 10066 H 927.748 -0.602129 0.279886 0
M  V30 10067 H 930.278 -1.50383 1.3873 0
M  V30 10068 H 930.288 -3.93206 1.08872 0
M  V30 10069 H 928.963 -3.5454 2.17427 0
M  V30 10070 H 927.54 -3.7125 0.350441 0
M  V30 10071 N 929.725 -0.817259 -1.34754 0
M  V30 10072 C 930.635 -0.236946 -2.334 0
M  V30 10073 C 931.651 0.625685 -1.62361 0
M  V30 10074 O 932.827 0.534921 -1.94166 0
M  V30 10075 C 929.892 0.596215 -3.41535 0
M  V30 10076 C 928.953 -0.288154 -4.28332 0
M  V30 10077 C 928.186 0.505337 -5.31302 0
M  V30 10078 O 928.409 1.73912 -5.43241 0
M  V30 10079 O 927.343 -0.109374 -6.01801 0
M  V30 10080 H 931.169 -1.05327 -2.84851 0
M  V30 10081 H 928.754 -0.579275 -1.37713 0
M  V30 10082 H 930.636 1.07041 -4.07578 0
M  V30 10083 H 929.311 1.38997 -2.92338 0
M  V30 10084 H 928.218 -0.809724 -3.65232 0
M  V30 10085 H 929.551 -1.04612 -4.80955 0
M  V30 10086 N 931.203 1.46865 -0.571711 0
M  V30 10087 C 932.619 1.57897 -0.23255 0
M  V30 10088 C 932.819 1.56836 1.26509 0
M  V30 10089 O 931.875 1.47947 2.04617 0
M  V30 10090 C 933.188 2.87778 -0.872036 0
M  V30 10091 C 934.736 3.01389 -0.844605 0
M  V30 10092 C 935.211 4.33991 -1.46343 0
M  V30 10093 N 936.702 4.40662 -1.42727 0
M  V30 10094 C 937.437 5.41858 -1.87557 0
M  V30 10095 N 936.933 6.49787 -2.4031 0
M  V30 10096 N 938.726 5.32992 -1.7854 0
M  V30 10097 H 930.877 1.45798 -1.54457 0
M  V30 10098 H 933.14 0.694785 -0.644964 0
M  V30 10099 H 932.846 2.94332 -1.92513 0
M  V30 10100 H 932.72 3.75345 -0.373677 0
M  V30 10101 H 935.107 2.94423 0.19984 0
M  V30 10102 H 935.188 2.15327 -1.38087 0
M  V30 10103 H 934.832 4.41714 -2.50701 0
M  V30 10104 H 934.762 5.18809 -0.902479 0
M  V30 10105 H 937.253 3.63263 -1.04155 0
M  V30 10106 H 937.566 7.23199 -2.72403 0
M  V30 10107 H 935.911 6.50637 -2.44329 0
M  V30 10108 H 939.102 4.47575 -1.37093 0
M  V30 10109 H 939.275 6.11716 -2.13794 0
M  V30 10110 N 932.681 0.308908 1.54543 0
M  V30 10111 C 934.097 -0.0442273 1.59539 0
M  V30 10112 C 934.297 -1.51743 1.32575 0
M  V30 10113 O 933.353 -2.27134 1.10302 0
M  V30 10114 C 934.666 0.360826 2.98527 0
M  V30 10115 C 936.214 0.310252 3.11459 0
M  V30 10116 C 936.689 0.690246 4.52769 0
M  V30 10117 N 938.18 0.643084 4.58714 0
M  V30 10118 C 938.915 0.909483 5.66141 0
M  V30 10119 N 938.411 1.24226 6.81572 0
M  V30 10120 N 940.204 0.836018 5.55848 0
M  V30 10121 H 932.355 1.26893 1.70329 0
M  V30 10122 H 934.618 0.514986 0.795923 0
M  V30 10123 H 934.324 1.38669 3.23209 0
M  V30 10124 H 934.198 -0.281563 3.76148 0
M  V30 10125 H 936.585 -0.706375 2.86521 0
M  V30 10126 H 936.666 0.987373 2.35976 0
M  V30 10127 H 936.31 1.70472 4.78437 0
M  V30 10128 H 936.24 -0.00903075 5.26599 0
M  V30 10129 H 938.731 0.397138 3.75807 0
M  V30 10130 H 939.044 1.4313 7.5943 0
M  V30 10131 H 937.389 1.28038 6.83104 0
M  V30 10132 H 940.58 0.575637 4.64547 0
M  V30 10133 H 940.753 1.047 6.39486 0
M  V30 10134 N 934.159 -1.57557 0.0367827 0
M  V30 10135 C 935.436 -1.83427 -0.679261 0
M  V30 10136 C 935.816 -0.922274 -1.89888 0
M  V30 10137 O 935.164 0.02025 -2.28491 0
M  V30 10138 C 935.374 -3.32823 -1.05022 0
M  V30 10139 C 936.722 -3.99486 -1.43861 0
M  V30 10140 O 937.746 -3.37364 -1.14297 0
M  V30 10141 O 936.605 -5.0899 -1.98977 0
M  V30 10142 H 933.699 -0.756581 -0.333936 0
M  V30 10143 H 936.245 -1.69575 0.0650494 0
M  V30 10144 H 935.017 -3.90874 -0.182509 0
M  V30 10145 H 934.64 -3.5181 -1.85244 0
M  V30 10146 N 935.637 0.236453 -1.55816 0
M  V30 10147 C 937.053 0.585465 -1.48474 0
M  V30 10148 C 937.253 1.8785 -0.72902 0
M  V30 10149 O 936.309 2.51131 -0.262614 0
M  V30 10150 C 937.622 0.678506 -2.92945 0
M  V30 10151 C 939.17 0.770135 -3.03378 0
M  V30 10152 C 939.645 0.894649 -4.49177 0
M  V30 10153 N 941.136 0.959253 -4.53158 0
M  V30 10154 C 941.871 1.07505 -5.63232 0
M  V30 10155 N 941.367 1.15572 -6.83092 0
M  V30 10156 N 943.16 1.10902 -5.51051 0
M  V30 10157 H 935.311 -0.612241 -2.03385 0
M  V30 10158 H 937.574 -0.212796 -0.923808 0
M  V30 10159 H 937.28 -0.201757 -3.51121 0
M  V30 10160 H 937.154 1.54703 -3.44016 0
M  V30 10161 H 939.541 1.64085 -2.45276 0
M  V30 10162 H 939.622 -0.123753 -2.555 0
M  V30 10163 H 939.266 0.0284537 -5.07892 0
M  V30 10164 H 939.196 1.80373 -4.94745 0
M  V30 10165 H 941.687 0.907827 -3.66834 0
M  V30 10166 H 942 1.24343 -7.62731 0
M  V30 10167 H 940.345 1.12511 -6.85833 0
M  V30 10168 H 943.536 1.04255 -4.56343 0
M  V30 10169 H 943.709 1.19581 -6.36871 0
M  V30 10170 N 937.115 1.49373 0.502552 0
M  V30 10171 C 938.343 1.62488 1.28084 0
M  V30 10172 C 938.758 0.295667 1.86471 0
M  V30 10173 O 938.115 -0.718664 1.67754 0
M  V30 10174 C 938.166 2.69249 2.4122 0
M  V30 10175 O 937.887 3.97014 1.85234 0
M  V30 10176 C 939.388 2.93054 3.32617 0
M  V30 10177 H 936.608 0.547068 0.388533 0
M  V30 10178 H 939.152 1.95394 0.603452 0
M  V30 10179 H 937.307 2.39125 3.04792 0
M  V30 10180 H 937.721 4.55809 2.59496 0
M  V30 10181 H 939.195 3.71493 4.08285 0
M  V30 10182 H 939.672 2.02911 3.89517 0
M  V30 10183 H 940.278 3.24589 2.74813 0
M  V30 10184 N 938.594 -0.753485 1.38421 0
M  V30 10185 C 939.544 -1.85788 1.32162 0
M  V30 10186 C 940.528 -1.59577 0.20588 0
M  V30 10187 O 941.72 -1.71396 0.44186 0
M  V30 10188 C 938.849 -3.23498 1.14909 0
M  V30 10189 C 937.935 -3.556 2.31105 0
M  V30 10190 N 938.326 -3.58759 3.56547 0
M  V30 10191 C 936.624 -3.85866 2.23659 0
M  V30 10192 C 937.325 -3.8813 4.33278 0
M  V30 10193 N 936.301 -4.04966 3.62635 0
M  V30 10194 H 940.103 -1.86509 2.27138 0
M  V30 10195 H 937.617 -0.950843 1.31654 0
M  V30 10196 H 939.614 -4.02531 1.08509 0
M  V30 10197 H 938.274 -3.24029 0.20866 0
M  V30 10198 H 939.285 -3.40517 3.90216 0
M  V30 10199 H 935.962 -3.94112 1.37776 0
M  V30 10200 H 937.352 -3.97197 5.41926 0
M  V30 10201 N 940.072 -1.23292 -0.981677 0
M  V30 10202 C 941.32 -1.06214 -1.71939 0
M  V30 10203 C 941.641 0.401989 -1.90812 0
M  V30 10204 O 940.911 1.28825 -1.47584 0
M  V30 10205 H 939.491 -0.390042 -0.637084 0
M  V30 10206 H 942.153 -1.54988 -1.18173 0
M  V30 10207 H 941.249 -1.54904 -2.70945 0
M  V30 10208 N 941.55 1.18024 -1.04442 0
M  V30 10209 C 942.775 1.92573 -0.770097 0
M  V30 10210 C 943.2 1.75871 0.667169 0
M  V30 10211 O 942.558 1.07136 1.46258 0
M  V30 10212 C 942.606 3.41904 -1.14602 0
M  V30 10213 O 941.71 4.11491 -0.273712 0
M  V30 10214 H 941.051 0.600636 -0.283076 0
M  V30 10215 H 943.581 1.49645 -1.39526 0
M  V30 10216 H 943.591 3.92623 -1.10956 0
M  V30 10217 H 942.266 3.53382 -2.19304 0
M  V30 10218 H 940.843 3.71059 -0.370124 0
M  V30 10219 N 943.028 0.824394 1.34319 0
M  V30 10220 C 943.938 0.24932 2.33271 0
M  V30 10221 C 944.954 -0.617066 1.62691 0
M  V30 10222 O 946.13 -0.524616 1.94447 0
M  V30 10223 C 943.195 -0.578094 3.41846 0
M  V30 10224 C 942.256 0.310866 4.28173 0
M  V30 10225 C 941.489 -0.477153 5.31563 0
M  V30 10226 O 941.712 -1.71028 5.44156 0
M  V30 10227 O 940.646 0.141287 6.01734 0
M  V30 10228 H 944.472 1.06837 2.84288 0
M  V30 10229 H 942.057 0.58657 1.37403 0
M  V30 10230 H 943.939 -1.04878 4.0814 0
M  V30 10231 H 942.614 -1.37444 2.93071 0
M  V30 10232 H 941.521 0.829081 3.64797 0
M  V30 10233 H 942.854 1.07161 4.80393 0
M  V30 10234 N 944.506 -1.46559 0.579492 0
M  V30 10235 C 945.755 -2.01606 0.0615735 0
M  V30 10236 C 946.068 -1.45695 -1.30508 0
M  V30 10237 O 947.274 -1.92541 -1.91416 0
M  V30 10238 C 945.73 -3.59851 0.059496 0
M  V30 10239 C 945.338 -4.24757 1.42427 0
M  V30 10240 C 947.082 -4.22567 -0.404646 0
M  V30 10241 C 944.989 -5.75072 1.38009 0
M  V30 10242 H 943.919 -0.753754 0.0192491 0
M  V30 10243 H 946.57 -1.68326 0.73066 0
M  V30 10244 H 944.952 -3.90193 -0.675691 0
M  V30 10245 H 946.126 -4.06029 2.17893 0
M  V30 10246 H 944.441 -3.74121 1.82817 0
M  V30 10247 H 947.038 -5.32748 -0.456441 0
M  V30 10248 H 947.381 -3.91279 -1.42149 0
M  V30 10249 H 947.914 -3.96839 0.276376 0
M  V30 10250 H 944.653 -6.11014 2.37364 0
M  V30 10251 H 944.173 -5.96073 0.667583 0
M  V30 10252 H 945.852 -6.37724 1.09163 0
M  V30 10253 N 945.984 -0.3171 -1.54377 0
M  V30 10254 C 947.233 0.288271 -1.99629 0
M  V30 10255 C 947.546 1.53754 -1.2091 0
M  V30 10256 O 948.752 2.2185 -1.56508 0
M  V30 10257 C 947.208 0.564188 -3.5545 0
M  V30 10258 C 946.816 -0.667659 -4.42997 0
M  V30 10259 C 948.56 1.12987 -4.09187 0
M  V30 10260 C 946.467 -0.364003 -5.90279 0
M  V30 10261 H 945.397 0.111492 -0.745711 0
M  V30 10262 H 948.048 -0.428317 -1.78431 0
M  V30 10263 H 946.43 1.34079 -3.72611 0
M  V30 10264 H 947.604 -1.44335 -4.37612 0
M  V30 10265 H 945.919 -1.1531 -4.00116 0
M  V30 10266 H 948.516 1.37157 -5.1681 0
M  V30 10267 H 948.859 2.07722 -3.60773 0
M  V30 10268 H 949.392 0.414595 -3.95634 0
M  V30 10269 H 946.131 -1.28035 -6.42874 0
M  V30 10270 H 945.651 0.374102 -5.98632 0
M  V30 10271 H 947.33 0.0285433 -6.46994 0
M  V30 10272 N 947.462 1.57535 -0.0451378 0
M  V30 10273 C 948.41 2.12351 0.949205 0
M  V30 10274 C 949.404 1.05386 1.32628 0
M  V30 10275 O 950.61 1.23802 1.30664 0
M  V30 10276 H 946.985 0.678648 0.323945 0
M  V30 10277 H 948.956 2.94806 0.461718 0
M  V30 10278 C 947.705 2.67862 2.21687 0
M  V30 10279 H 947.028 3.49826 1.93551 0
M  V30 10280 H 948.468 3.09844 2.89435 0
M  V30 10281 C 946.927 1.61353 2.95748 0
M  V30 10282 O 947.457 1.02276 3.88462 0
M  V30 10283 N 945.663 1.33017 2.5837 0
M  V30 10284 H 945.21 1.81246 1.83051 0
M  V30 10285 H 945.168 0.619812 3.0823 0
M  V30 10286 N 948.94 -0.228186 1.55939 0
M  V30 10287 C 950.217 -0.977492 1.69424 0
M  V30 10288 C 950.597 -2.02674 0.590479 0
M  V30 10289 O 949.945 -2.2491 -0.403467 0
M  V30 10290 C 950.155 -1.59394 3.10475 0
M  V30 10291 C 951.503 -2.08871 3.69673 0
M  V30 10292 O 952.527 -1.693 3.13394 0
M  V30 10293 O 951.386 -2.81584 4.68372 0
M  V30 10294 H 948.48 -0.456185 0.6898 0
M  V30 10295 H 951.026 -0.220492 1.68261 0
M  V30 10296 H 949.798 -0.835971 3.82266 0
M  V30 10297 H 949.421 -2.41665 3.15727 0
M  V30 10298 N 950.418 -1.49637 -0.494624 0
M  V30 10299 C 951.348 -1.69692 -1.60396 0
M  V30 10300 C 952.329 -0.545648 -1.61111 0
M  V30 10301 O 953.514 -0.782202 -1.77751 0
M  V30 10302 C 950.644 -1.76934 -2.9885 0
M  V30 10303 C 949.598 -2.91915 -3.13001 0
M  V30 10304 C 948.924 -2.84276 -4.5287 0
M  V30 10305 C 950.224 -4.32764 -2.92426 0
M  V30 10306 H 951.918 -2.6257 -1.43866 0
M  V30 10307 H 949.464 -1.26355 -0.690679 0
M  V30 10308 H 951.417 -1.8955 -3.76362 0
M  V30 10309 H 950.141 -0.806609 -3.16483 0
M  V30 10310 H 948.8 -2.78911 -2.37916 0
M  V30 10311 H 948.448 -1.85897 -4.67388 0
M  V30 10312 H 948.148 -3.61452 -4.63278 0
M  V30 10313 H 949.672 -2.98909 -5.32434 0
M  V30 10314 H 951.086 -4.46415 -3.59703 0
M  V30 10315 H 949.483 -5.1121 -3.143 0
M  V30 10316 H 950.553 -4.46765 -1.88491 0
M  V30 10317 N 951.896 0.746133 -1.38819 0
M  V30 10318 C 952.828 1.86991 -1.3254 0
M  V30 10319 C 953.841 1.61077 -0.236216 0
M  V30 10320 O 955.03 1.71518 -0.494341 0
M  V30 10321 C 952.13 3.22786 -1.03258 0
M  V30 10322 C 951.303 3.76145 -2.23234 0
M  V30 10323 C 950.362 4.90474 -1.90581 0
M  V30 10324 O 949.388 5.04717 -2.63153 0
M  V30 10325 N 950.59 5.74015 -0.86525 0
M  V30 10326 H 953.355 1.92885 -2.2938 0
M  V30 10327 H 950.916 0.926392 -1.32776 0
M  V30 10328 H 952.908 3.96824 -0.794533 0
M  V30 10329 H 951.478 3.12231 -0.151895 0
M  V30 10330 H 950.698 2.93587 -2.63059 0
M  V30 10331 H 951.986 4.08528 -3.03285 0
M  V30 10332 H 951.384 5.65086 -0.263577 0
M  V30 10333 H 949.941 6.48168 -0.687087 0
M  V30 10334 N 953.375 1.23811 0.975125 0
M  V30 10335 C 954.623 1.07124 1.71373 0
M  V30 10336 C 954.944 -0.391864 1.91022 0
M  V30 10337 O 954.214 -1.28041 1.48265 0
M  V30 10338 H 952.794 0.393415 0.635007 0
M  V30 10339 H 955.456 1.55612 1.17349 0
M  V30 10340 H 954.552 1.56338 2.7012 0
M  V30 10341 N 954.853 -1.17469 1.05066 0
M  V30 10342 C 956.269 -1.39699 0.771769 0
M  V30 10343 C 956.469 -1.91253 -0.634382 0
M  V30 10344 O 955.525 -2.10334 -1.39699 0
M  V30 10345 C 956.838 -2.38886 1.82631 0
M  V30 10346 C 958.386 -2.52595 1.84838 0
M  V30 10347 C 958.861 -3.55054 2.89311 0
M  V30 10348 N 960.352 -3.6257 2.88266 0
M  V30 10349 C 961.087 -4.41603 3.65752 0
M  V30 10350 N 960.583 -5.24162 4.53019 0
M  V30 10351 N 962.376 -4.36464 3.54197 0
M  V30 10352 H 954.527 -0.823355 1.95792 0
M  V30 10353 H 956.79 -0.42432 0.847736 0
M  V30 10354 H 956.496 -2.08075 2.83545 0
M  V30 10355 H 956.37 -3.38371 1.66687 0
M  V30 10356 H 958.757 -2.82717 0.845888 0
M  V30 10357 H 958.838 -1.53188 2.04859 0
M  V30 10358 H 958.482 -3.2567 3.89745 0
M  V30 10359 H 958.412 -4.54162 2.66542 0
M  V30 10360 H 960.903 -3.03625 2.24989 0
M  V30 10361 H 961.216 -5.81646 5.0883 0
M  V30 10362 H 959.561 -5.23547 4.57081 0
M  V30 10363 H 962.752 -3.7102 2.85416 0
M  V30 10364 H 962.925 -4.97814 4.14832 0
M  V30 10365 N 956.331 -0.831506 -1.3388 0
M  V30 10366 C 957.58 -0.420028 -1.97278 0
M  V30 10367 C 957.893 1.02441 -1.66629 0
M  V30 10368 O 959.099 1.54021 -2.23584 0
M  V30 10369 C 957.555 -0.700116 -3.53025 0
M  V30 10370 C 957.163 -2.15874 -3.92559 0
M  V30 10371 C 958.907 -0.355226 -4.23011 0
M  V30 10372 C 956.814 -2.38327 -5.41252 0
M  V30 10373 H 955.744 -0.153326 -0.738246 0
M  V30 10374 H 958.395 -1.01906 -1.52602 0
M  V30 10375 H 956.777 -0.0308044 -3.95988 0
M  V30 10376 H 957.951 -2.86792 -3.60675 0
M  V30 10377 H 956.266 -2.4659 -3.35533 0
M  V30 10378 H 958.863 -0.500701 -5.32351 0
M  V30 10379 H 959.206 0.70111 -4.10354 0
M  V30 10380 H 959.739 -0.979466 -3.85553 0
M  V30 10381 H 956.478 -3.42498 -5.58906 0
M  V30 10382 H 955.998 -1.71962 -5.74621 0
M  V30 10383 H 957.677 -2.21113 -6.08045 0
M  V30 10384 N 957.809 1.4625 -0.587256 0
M  V30 10385 C 959.049 2.04254 -0.0773169 0
M  V30 10386 C 959.413 1.44831 1.26047 0
M  V30 10387 O 960.614 1.94063 1.85992 0
M  V30 10388 C 958.885 3.57396 -0.0172813 0
M  V30 10389 S 960.444 4.36644 0.434422 0
M  V30 10390 H 957.262 0.709892 -0.0396783 0
M  V30 10391 H 959.864 1.79232 -0.780779 0
M  V30 10392 H 958.568 3.98161 -0.994795 0
M  V30 10393 H 958.099 3.86962 0.70881 0
M  V30 10394 H 960.114 4.66597 1.68824 0
M  V30 10395 N 959.287 0.325282 1.54207 0
M  V30 10396 C 960.535 -0.276229 2.00203 0
M  V30 10397 C 960.856 -1.52519 1.21503 0
M  V30 10398 O 960.126 -1.93313 0.317302 0
M  V30 10399 H 958.706 -0.105059 0.739575 0
M  V30 10400 H 961.368 0.442225 1.89817 0
M  V30 10401 H 960.464 -0.531427 3.07542 0
M  V30 10402 N 960.765 -1.57509 0.0534917 0
M  V30 10403 C 961.695 -2.14698 -0.917999 0
M  V30 10404 C 962.676 -1.06924 -1.32292 0
M  V30 10405 O 963.861 -1.34875 -1.39723 0
M  V30 10406 C 960.991 -2.69383 -2.19203 0
M  V30 10407 C 959.945 -3.82161 -1.9271 0
M  V30 10408 C 959.271 -4.23373 -3.26587 0
M  V30 10409 C 960.571 -5.07199 -1.24686 0
M  V30 10410 H 962.265 -2.96125 -0.44165 0
M  V30 10411 H 959.811 -1.42446 -0.210993 0
M  V30 10412 H 961.764 -3.08031 -2.87567 0
M  V30 10413 H 960.488 -1.85151 -2.69048 0
M  V30 10414 H 959.147 -3.43989 -1.26757 0
M  V30 10415 H 958.795 -3.36089 -3.74237 0
M  V30 10416 H 958.495 -4.99385 -3.09658 0
M  V30 10417 H 960.019 -4.64623 -3.96178 0
M  V30 10418 H 961.433 -5.43279 -1.83088 0
M  V30 10419 H 959.83 -5.88369 -1.18076 0
M  V30 10420 H 960.9 -4.84386 -0.223227 0
M  V30 10421 N 962.243 0.219913 -1.56058 0
M  V30 10422 C 963.153 1.29349 -1.95719 0
M  V30 10423 C 964.169 1.5119 -0.861248 0
M  V30 10424 O 965.345 1.64289 -1.16495 0
M  V30 10425 C 962.41 2.6229 -2.26726 0
M  V30 10426 C 961.471 2.48738 -3.49897 0
M  V30 10427 C 960.704 3.75339 -3.79416 0
M  V30 10428 O 960.927 4.78427 -3.10586 0
M  V30 10429 O 959.861 3.72352 -4.72903 0
M  V30 10430 H 963.687 0.986979 -2.87215 0
M  V30 10431 H 961.272 0.42291 -1.43289 0
M  V30 10432 H 963.154 3.408 -2.47857 0
M  V30 10433 H 961.829 2.92619 -1.38404 0
M  V30 10434 H 960.736 1.68422 -3.34043 0
M  V30 10435 H 962.069 2.23347 -4.38608 0
M  V30 10436 N 963.721 1.49897 0.486681 0
M  V30 10437 C 964.631 1.70379 1.6127 0
M  V30 10438 C 965.647 0.58659 1.63814 0
M  V30 10439 O 966.823 0.863044 1.81971 0
M  V30 10440 C 963.888 1.77911 2.97571 0
M  V30 10441 C 962.949 3.01569 3.0554 0
M  V30 10442 C 962.182 3.08732 4.35339 0
M  V30 10443 O 962.405 2.23099 5.2496 0
M  V30 10444 O 961.339 4.01325 4.48578 0
M  V30 10445 H 965.165 2.65799 1.46916 0
M  V30 10446 H 962.75 1.33808 0.664516 0
M  V30 10447 H 964.632 1.85135 3.78554 0
M  V30 10448 H 963.307 0.856722 3.12157 0
M  V30 10449 H 962.214 2.99854 2.23693 0
M  V30 10450 H 963.547 3.93335 2.95886 0
M  V30 10451 N 965.199 -0.738761 1.39212 0
M  V30 10452 C 966.476 -1.48982 1.26742 0
M  V30 10453 C 966.856 -2.10732 -0.12466 0
M  V30 10454 O 966.204 -1.98287 -1.13554 0
M  V30 10455 C 966.414 -2.54427 2.38889 0
M  V30 10456 C 967.762 -3.20915 2.78027 0
M  V30 10457 O 968.786 -2.64738 2.38311 0
M  V30 10458 O 967.645 -4.22558 3.46565 0
M  V30 10459 H 964.739 -0.661395 0.496473 0
M  V30 10460 H 967.285 -0.772907 1.51077 0
M  V30 10461 H 966.057 -2.07151 3.3197 0
M  V30 10462 H 965.68 -3.33682 2.162 0
M  V30 10463 N 966.677 -1.24326 -0.968545 0
M  V30 10464 C 967.607 -1.05951 -2.08079 0
M  V30 10465 C 968.588 0.0272666 -1.70078 0
M  V30 10466 O 969.773 -0.139644 -1.93697 0
M  V30 10467 C 966.903 -0.662623 -3.4092 0
M  V30 10468 C 965.857 -1.69807 -3.92873 0
M  V30 10469 C 965.183 -1.15628 -5.22048 0
M  V30 10470 C 966.483 -3.09383 -4.20808 0
M  V30 10471 H 968.177 -1.98984 -2.23709 0
M  V30 10472 H 965.723 -0.958112 -1.075 0
M  V30 10473 H 967.676 -0.521071 -4.18166 0
M  V30 10474 H 966.4 0.303399 -3.25188 0
M  V30 10475 H 965.059 -1.82783 -3.17783 0
M  V30 10476 H 964.707 -0.180888 -5.02675 0
M  V30 10477 H 964.407 -1.84822 -5.57776 0
M  V30 10478 H 965.931 -1.02683 -6.01904 0
M  V30 10479 H 967.345 -2.99642 -4.88761 0
M  V30 10480 H 965.742 -3.75923 -4.67763 0
M  V30 10481 H 966.812 -3.57486 -3.27616 0
M  V30 10482 N 968.156 1.1691 -1.05688 0
M  V30 10483 C 969.103 2.21095 -0.662246 0
M  V30 10484 C 970.073 1.62623 0.338083 0
M  V30 10485 O 971.258 1.89428 0.228362 0
M  V30 10486 C 968.398 3.45066 -0.0484018 0
M  V30 10487 C 967.511 4.17809 -1.09817 0
M  V30 10488 C 966.646 5.29281 -0.451114 0
M  V30 10489 C 965.685 5.93817 -1.48484 0
M  V30 10490 N 964.822 6.96793 -0.861588 0
M  V30 10491 H 969.662 2.54204 -1.55513 0
M  V30 10492 H 967.199 1.24863 -0.777665 0
M  V30 10493 H 969.157 4.15932 0.324978 0
M  V30 10494 H 967.787 3.12526 0.807918 0
M  V30 10495 H 966.839 3.45608 -1.58932 0
M  V30 10496 H 968.151 4.61907 -1.88265 0
M  V30 10497 H 967.305 6.06695 -0.0244251 0
M  V30 10498 H 966.044 4.8633 0.365306 0
M  V30 10499 H 965.049 5.1513 -1.92149 0
M  V30 10500 H 966.274 6.38848 -2.30325 0
M  V30 10501 H 964.22 6.55967 -0.0657688 0
M  V30 10502 H 964.137 7.39229 -1.58354 0
M  V30 10503 H 965.405 7.78142 -0.45984 0
M  V30 10504 N 969.634 0.838594 1.33437 0
M  V30 10505 C 970.582 0.260158 2.31141 0
M  V30 10506 C 971.576 -0.607706 1.58124 0
M  V30 10507 O 972.782 -0.497298 1.72994 0
M  V30 10508 H 969.157 0.0654031 0.74915 0
M  V30 10509 H 971.128 1.09874 2.77435 0
M  V30 10510 C 969.877 -0.550234 3.43319 0
M  V30 10511 H 969.2 0.108262 3.99653 0
M  V30 10512 H 970.64 -0.920815 4.1388 0
M  V30 10513 C 969.099 -1.729 2.89149 0
M  V30 10514 O 969.629 -2.82769 2.85315 0
M  V30 10515 N 967.835 -1.5508 2.45761 0
M  V30 10516 H 967.382 -0.657055 2.49079 0
M  V30 10517 H 967.34 -2.34099 2.0987 0
M  V30 10518 N 971.112 -1.45937 0.595003 0
M  V30 10519 C 972.36 -2.01921 0.0851368 0
M  V30 10520 C 972.681 -1.46748 -1.28413 0
M  V30 10521 O 971.951 -0.656873 -1.84559 0
M  V30 10522 H 970.531 -0.746457 0.0284826 0
M  V30 10523 H 973.193 -1.78891 0.773561 0
M  V30 10524 H 972.289 -3.1209 0.0254002 0
M  V30 10525 N 972.59 -0.333456 -1.54032 0
M  V30 10526 C 973.537 0.527981 -2.2468 0
M  V30 10527 C 974.507 1.10371 -1.24127 0
M  V30 10528 O 975.692 1.14221 -1.52834 0
M  V30 10529 C 972.832 1.67808 -3.01553 0
M  V30 10530 C 971.945 1.13064 -4.16942 0
M  V30 10531 C 971.08 2.24722 -4.81325 0
M  V30 10532 C 970.119 1.67277 -5.88799 0
M  V30 10533 N 969.256 2.72638 -6.47003 0
M  V30 10534 H 974.096 -0.0810308 -2.9789 0
M  V30 10535 H 971.633 -0.051761 -1.47009 0
M  V30 10536 H 973.591 2.35502 -3.44376 0
M  V30 10537 H 972.221 2.25823 -2.30659 0
M  V30 10538 H 971.273 0.344948 -3.78833 0
M  V30 10539 H 972.585 0.670373 -4.94275 0
M  V30 10540 H 971.739 3.00301 -5.27166 0
M  V30 10541 H 970.478 2.74089 -4.03394 0
M  V30 10542 H 969.483 0.902002 -5.4235 0
M  V30 10543 H 970.708 1.18775 -6.68632 0
M  V30 10544 H 968.654 3.21277 -5.71941 0
M  V30 10545 H 968.571 2.31204 -7.19778 0
M  V30 10546 H 969.839 3.48015 -6.97499 0
M  V30 10547 N 974.068 1.57479 -0.061844 0
M  V30 10548 C 975.317 1.92285 0.609055 0
M  V30 10549 C 975.63 0.942983 1.71369 0
M  V30 10550 O 976.836 1.18349 2.44348 0
M  V30 10551 C 975.292 3.41545 1.13468 0
M  V30 10552 C 974.9 4.47958 0.0615926 0
M  V30 10553 C 976.644 3.85368 1.78022 0
M  V30 10554 C 974.551 5.88341 0.600705 0
M  V30 10555 H 973.481 0.717656 0.23127 0
M  V30 10556 H 976.132 1.83021 -0.132466 0
M  V30 10557 H 974.514 3.45848 1.92886 0
M  V30 10558 H 975.688 4.55258 -0.712527 0
M  V30 10559 H 974.003 4.13541 -0.487116 0
M  V30 10560 H 976.6 4.87627 2.19371 0
M  V30 10561 H 976.943 3.22193 2.63623 0
M  V30 10562 H 977.476 3.83626 1.05242 0
M  V30 10563 H 974.215 6.55138 -0.217922 0
M  V30 10564 H 973.735 5.84581 1.34257 0
M  V30 10565 H 975.414 6.37918 1.08025 0
M  V30 10566 N 975.546 -0.211634 1.56173 0
M  V30 10567 C 976.476 -1.26533 1.96244 0
M  V30 10568 C 977.457 -1.48362 0.832028 0
M  V30 10569 O 978.642 -1.60378 1.0951 0
M  V30 10570 C 975.772 -2.61307 2.2877 0
M  V30 10571 C 974.726 -2.54119 3.44395 0
M  V30 10572 C 974.052 -3.93014 3.62552 0
M  V30 10573 C 975.352 -2.08046 4.79076 0
M  V30 10574 H 977.046 -0.932407 2.84511 0
M  V30 10575 H 974.592 -0.447084 1.36884 0
M  V30 10576 H 976.545 -3.35188 2.55396 0
M  V30 10577 H 975.269 -2.96307 1.37367 0
M  V30 10578 H 973.928 -1.82694 3.17834 0
M  V30 10579 H 973.576 -4.25338 2.68508 0
M  V30 10580 H 973.276 -3.89083 4.40327 0
M  V30 10581 H 974.8 -4.68542 3.91537 0
M  V30 10582 H 976.214 -2.71676 5.04842 0
M  V30 10583 H 974.611 -2.15154 5.60204 0
M  V30 10584 H 975.681 -1.03306 4.73768 0
M  V30 10585 N 977.024 -1.50153 -0.478725 0
M  V30 10586 C 977.954 -1.71384 -1.58587 0
M  V30 10587 C 978.935 -0.562705 -1.60523 0
M  V30 10588 O 980.12 -0.80101 -1.76911 0
M  V30 10589 C 977.25 -1.80094 -2.96957 0
M  V30 10590 C 976.204 -2.95218 -3.09888 0
M  V30 10591 C 975.53 -2.89063 -4.49829 0
M  V30 10592 C 976.83 -4.35841 -2.8782 0
M  V30 10593 H 978.524 -2.64081 -1.41073 0
M  V30 10594 H 976.07 -1.27081 -0.677239 0
M  V30 10595 H 978.023 -1.93531 -3.74331 0
M  V30 10596 H 976.747 -0.840131 -3.1561 0
M  V30 10597 H 975.406 -2.81419 -2.34944 0
M  V30 10598 H 975.054 -1.90844 -4.6539 0
M  V30 10599 H 974.754 -3.66345 -4.59418 0
M  V30 10600 H 976.278 -3.04539 -5.29234 0
M  V30 10601 H 977.692 -4.50205 -3.54948 0
M  V30 10602 H 976.089 -5.14515 -3.0886 0
M  V30 10603 H 977.159 -4.48739 -1.83742 0
M  V30 10604 N 978.502 0.731368 -1.39602 0
M  V30 10605 C 979.465 1.8271 -1.38383 0
M  V30 10606 C 980.465 1.58338 -0.280309 0
M  V30 10607 O 981.655 1.65671 -0.538402 0
M  V30 10608 C 978.787 3.20556 -1.16002 0
M  V30 10609 H 979.98 1.85193 -2.35889 0
M  V30 10610 H 977.533 0.935396 -1.2522 0
M  V30 10611 H 978.268 3.23732 -0.191927 0
M  V30 10612 H 978.053 3.39643 -1.9592 0
M  V30 10613 H 979.543 4.00612 -1.17899 0
M  V30 10614 N 979.98 1.24838 0.961938 0
M  V30 10615 C 980.927 1.04582 2.05745 0
M  V30 10616 C 981.897 -0.0427281 1.66045 0
M  V30 10617 O 983.082 0.113026 1.90465 0
M  V30 10618 C 980.222 0.66284 3.38675 0
M  V30 10619 C 979.335 1.82548 3.91536 0
M  V30 10620 C 978.47 1.38753 5.12758 0
M  V30 10621 C 977.509 2.51976 5.5783 0
M  V30 10622 N 976.646 2.09009 6.70268 0
M  V30 10623 H 981.486 1.98343 2.22405 0
M  V30 10624 H 979.023 0.987822 1.08998 0
M  V30 10625 H 980.981 0.421788 4.15062 0
M  V30 10626 H 979.611 -0.237776 3.21923 0
M  V30 10627 H 978.663 2.18004 3.11735 0
M  V30 10628 H 979.975 2.67601 4.20941 0
M  V30 10629 H 979.129 1.1057 5.96539 0
M  V30 10630 H 977.868 0.507618 4.85051 0
M  V30 10631 H 976.873 2.80912 4.72619 0
M  V30 10632 H 978.098 3.40534 5.87549 0
M  V30 10633 H 976.044 1.23423 6.44285 0
M  V30 10634 H 975.961 2.87613 6.99153 0
M  V30 10635 H 977.229 1.83981 7.57477 0
M  V30 10636 N 981.458 -1.16348 1.06306 0
M  V30 10637 C 982.704 -1.87158 0.781007 0
M  V30 10638 C 983.037 -1.81499 -0.690784 0
M  V30 10639 O 982.312 -1.23074 -1.50609 0
M  V30 10640 C 982.595 -3.3672 1.27639 0
M  V30 10641 C 982.448 -3.51069 2.81194 0
M  V30 10642 C 983.767 -4.31122 0.884388 0
M  V30 10643 H 980.886 -0.679586 0.285187 0
M  V30 10644 H 983.528 -1.36756 1.31901 0
M  V30 10645 H 981.678 -3.79775 0.818715 0
M  V30 10646 H 983.35 -3.16952 3.35171 0
M  V30 10647 H 981.593 -2.92976 3.19918 0
M  V30 10648 H 982.264 -4.56105 3.10921 0
M  V30 10649 H 984.74 -3.95969 1.27858 0
M  V30 10650 H 983.616 -5.34279 1.25847 0
M  V30 10651 H 983.877 -4.41598 -0.210673 0
M  V30 10652 N 982.937 -0.845659 -1.3299 0
M  V30 10653 C 983.847 -0.2864 -2.32845 0
M  V30 10654 C 984.863 0.591105 -1.63652 0
M  V30 10655 O 986.039 0.493615 -1.95257 0
M  V30 10656 C 983.104 0.523636 -3.42723 0
M  V30 10657 C 982.165 -0.378945 -4.27624 0
M  V30 10658 C 981.398 0.392526 -5.32255 0
M  V30 10659 O 981.621 1.6235 -5.46808 0
M  V30 10660 O 980.555 -0.237 -6.01433 0
M  V30 10661 H 984.381 -1.11346 -2.82552 0
M  V30 10662 H 981.966 -0.608356 -1.36453 0
M  V30 10663 H 983.848 0.983718 -4.09757 0
M  V30 10664 H 982.523 1.32764 -2.95221 0
M  V30 10665 H 981.43 -0.887012 -3.63432 0
M  V30 10666 H 982.763 -1.1479 -4.78627 0
M  V30 10667 N 984.415 1.45619 -0.602734 0
M  V30 10668 C 985.345 2.33258 0.106342 0
M  V30 10669 C 986.326 1.46543 0.863664 0
M  V30 10670 O 987.511 1.75324 0.835175 0
M  V30 10671 C 984.641 3.29168 1.10751 0
M  V30 10672 C 983.595 4.25481 0.463717 0
M  V30 10673 C 982.921 5.11046 1.57278 0
M  V30 10674 C 984.221 5.18702 -0.61199 0
M  V30 10675 H 985.915 2.92795 -0.625423 0
M  V30 10676 H 983.461 1.40793 -0.302213 0
M  V30 10677 H 985.414 3.89346 1.61208 0
M  V30 10678 H 984.138 2.6778 1.8698 0
M  V30 10679 H 982.797 3.66595 -0.0199496 0
M  V30 10680 H 982.445 4.46029 2.32524 0
M  V30 10681 H 982.145 5.76286 1.14755 0
M  V30 10682 H 983.669 5.74091 2.07972 0
M  V30 10683 H 985.083 5.72979 -0.191686 0
M  V30 10684 H 983.48 5.92393 -0.958686 0
M  V30 10685 H 984.55 4.61424 -1.4905 0
M  V30 10686 N 985.893 0.34162 1.53853 0
M  V30 10687 C 986.803 -0.524555 2.2866 0
M  V30 10688 C 987.819 -1.1136 1.33697 0
M  V30 10689 O 988.995 -1.1297 1.66732 0
M  V30 10690 C 986.06 -1.66065 3.04341 0
M  V30 10691 C 985.121 -1.10158 4.14926 0
M  V30 10692 C 984.354 -2.18353 4.86988 0
M  V30 10693 O 984.577 -3.39038 4.58704 0
M  V30 10694 O 983.511 -1.82756 5.73484 0
M  V30 10695 H 987.337 0.0835014 3.03585 0
M  V30 10696 H 984.922 0.106727 1.49018 0
M  V30 10697 H 986.804 -2.3217 3.51674 0
M  V30 10698 H 985.479 -2.25456 2.32275 0
M  V30 10699 H 984.386 -0.405109 3.719 0
M  V30 10700 H 985.719 -0.552567 4.89088 0
M  V30 10701 N 987.371 -1.57444 0.0701946 0
M  V30 10702 C 988.318 -2.12631 -0.897599 0
M  V30 10703 C 989.288 -1.03841 -1.29639 0
M  V30 10704 O 990.473 -1.31495 -1.38253 0
M  V30 10705 C 987.613 -2.6911 -2.16041 0
M  V30 10706 C 986.726 -3.9205 -1.8144 0
M  V30 10707 C 985.861 -4.36778 -3.02321 0
M  V30 10708 C 984.9 -5.52371 -2.63729 0
M  V30 10709 N 984.037 -5.92065 -3.77364 0
M  V30 10710 H 988.877 -2.95024 -0.420104 0
M  V30 10711 H 986.414 -1.45792 -0.195716 0
M  V30 10712 H 988.372 -2.99963 -2.89962 0
M  V30 10713 H 987.002 -1.89484 -2.61334 0
M  V30 10714 H 986.054 -3.67669 -0.975896 0
M  V30 10715 H 987.366 -4.76011 -1.49046 0
M  V30 10716 H 986.52 -4.69285 -3.84521 0
M  V30 10717 H 985.259 -3.51668 -3.37907 0
M  V30 10718 H 984.264 -5.19517 -1.7995 0
M  V30 10719 H 985.489 -6.39212 -2.29315 0
M  V30 10720 H 983.435 -5.09904 -4.12715 0
M  V30 10721 H 983.352 -6.70762 -3.48733 0
M  V30 10722 H 984.62 -6.29193 -4.60148 0
M  V30 10723 N 988.849 0.203349 -1.56283 0
M  V30 10724 C 990.265 0.55384 -1.49682 0
M  V30 10725 C 990.465 1.86261 -0.768701 0
M  V30 10726 O 989.521 2.50517 -0.315824 0
M  V30 10727 C 990.834 0.616216 -2.94318 0
M  V30 10728 C 992.382 0.705611 -3.04943 0
M  V30 10729 C 992.857 0.79917 -4.50974 0
M  V30 10730 N 994.348 0.862916 -4.55091 0
M  V30 10731 C 995.083 0.955334 -5.65386 0
M  V30 10732 N 994.579 1.01057 -6.8539 0
M  V30 10733 N 996.372 0.991884 -5.53279 0
M  V30 10734 H 988.523 -0.655244 -2.0204 0
M  V30 10735 H 990.786 -0.232344 -0.919087 0
M  V30 10736 H 990.492 -0.27619 -3.50614 0
M  V30 10737 H 990.366 1.47371 -3.4722 0
M  V30 10738 H 992.753 1.58845 -2.48701 0
M  V30 10739 H 992.834 -0.177921 -2.5518 0
M  V30 10740 H 992.478 -0.0792841 -5.07838 0
M  V30 10741 H 992.408 1.69838 -4.9846 0
M  V30 10742 H 994.899 0.829812 -3.68677 0
M  V30 10743 H 995.212 1.08137 -7.65197 0
M  V30 10744 H 993.557 0.979384 -6.88065 0
M  V30 10745 H 996.748 0.945514 -4.58451 0
M  V30 10746 H 996.921 1.06045 -6.39264 0
M  V30 10747 N 990.327 1.50405 0.470755 0
M  V30 10748 C 991.259 1.65447 1.58619 0
M  V30 10749 C 992.272 0.535949 1.53725 0
M  V30 10750 O 993.461 0.80914 1.59107 0
M  V30 10751 C 990.561 1.62318 2.975 0
M  V30 10752 C 989.734 2.90207 3.27259 0
M  V30 10753 C 988.793 2.79717 4.45696 0
M  V30 10754 O 987.819 3.53672 4.45987 0
M  V30 10755 N 989.021 1.93296 5.47373 0
M  V30 10756 H 991.786 2.61659 1.46132 0
M  V30 10757 H 989.347 1.47873 0.659178 0
M  V30 10758 H 991.339 1.52912 3.747 0
M  V30 10759 H 989.909 0.738392 3.03754 0
M  V30 10760 H 989.129 3.13737 2.38669 0
M  V30 10761 H 990.417 3.74931 3.43953 0
M  V30 10762 H 989.815 1.32524 5.49958 0
M  V30 10763 H 988.372 1.89793 6.23556 0
M  V30 10764 N 991.805 -0.723954 1.39988 0
M  V30 10765 C 992.735 -1.85103 1.42335 0
M  V30 10766 C 993.716 -1.6769 0.285297 0
M  V30 10767 O 994.901 -1.87846 0.492716 0
M  V30 10768 C 992.031 -3.22972 1.27697 0
M  V30 10769 C 990.985 -3.55041 2.39018 0
M  V30 10770 C 990.311 -4.91965 2.09462 0
M  V30 10771 C 991.611 -3.56889 3.8135 0
M  V30 10772 H 993.305 -1.83396 2.36656 0
M  V30 10773 H 990.851 -0.880926 1.13911 0
M  V30 10774 H 992.804 -4.01503 1.27958 0
M  V30 10775 H 991.528 -3.25233 0.298487 0
M  V30 10776 H 990.187 -2.78845 2.37993 0
M  V30 10777 H 989.835 -4.90819 1.10025 0
M  V30 10778 H 989.535 -5.14389 2.84038 0
M  V30 10779 H 991.059 -5.7284 2.11391 0
M  V30 10780 H 992.473 -4.25476 3.84243 0
M  V30 10781 H 990.87 -3.90836 4.55376 0
M  V30 10782 H 991.94 -2.56452 4.11534 0
M  V30 10783 N 993.283 -1.25346 -0.955304 0
M  V30 10784 C 994.215 -1.0146 -2.0552 0
M  V30 10785 C 995.228 0.0202256 -1.62787 0
M  V30 10786 O 996.417 -0.218251 -1.77161 0
M  V30 10787 C 993.517 -0.511727 -3.35014 0
M  V30 10788 C 992.69 -1.61256 -4.0659 0
M  V30 10789 C 991.749 -1.11017 -5.14356 0
M  V30 10790 O 990.775 -1.80443 -5.39842 0
M  V30 10791 N 991.977 0.0489001 -5.80479 0
M  V30 10792 H 994.742 -1.96166 -2.26581 0
M  V30 10793 H 992.303 -1.16543 -1.12381 0
M  V30 10794 H 994.295 -0.160123 -4.04383 0
M  V30 10795 H 992.865 0.341377 -3.1073 0
M  V30 10796 H 992.085 -2.13577 -3.31328 0
M  V30 10797 H 993.373 -2.35213 -4.51168 0
M  V30 10798 H 992.771 0.629021 -5.62192 0
M  V30 10799 H 991.328 0.341542 -6.50905 0
M  V30 10800 N 994.761 1.15782 -1.06922 0
M  V30 10801 C 995.671 2.24008 -0.696948 0
M  V30 10802 C 996.687 1.71569 0.289862 0
M  V30 10803 O 997.863 2.00929 0.137585 0
M  V30 10804 C 994.928 3.46568 -0.0957895 0
M  V30 10805 C 993.989 4.14017 -1.13528 0
M  V30 10806 C 993.222 5.30725 -0.562713 0
M  V30 10807 O 993.445 5.66992 0.62259 0
M  V30 10808 O 992.379 5.87572 -1.30549 0
M  V30 10809 H 996.205 2.58174 -1.59938 0
M  V30 10810 H 993.79 1.2342 -0.841889 0
M  V30 10811 H 995.672 4.20731 0.237407 0
M  V30 10812 H 994.347 3.14161 0.780027 0
M  V30 10813 H 993.254 3.41795 -1.52076 0
M  V30 10814 H 994.587 4.50493 -1.98285 0
M  V30 10815 N 996.239 0.8527 1.3254 0
M  V30 10816 C 997.655 0.542298 1.50104 0
M  V30 10817 C 997.855 -0.927465 1.78886 0
M  V30 10818 O 996.911 -1.7106 1.85728 0
M  V30 10819 C 998.224 1.4276 2.64651 0
M  V30 10820 C 999.772 1.42782 2.78536 0
M  V30 10821 C 1000.25 2.29828 3.9616 0
M  V30 10822 N 1001.74 2.27613 4.03418 0
M  V30 10823 C 1002.47 2.91696 4.93661 0
M  V30 10824 N 1001.97 3.64883 5.88925 0
M  V30 10825 N 1003.76 2.81094 4.86768 0
M  V30 10826 H 995.913 1.80395 1.12123 0
M  V30 10827 H 998.176 0.770394 0.552446 0
M  V30 10828 H 997.882 2.47266 2.50105 0
M  V30 10829 H 997.756 1.11358 3.60388 0
M  V30 10830 H 1000.14 0.390417 2.92506 0
M  V30 10831 H 1000.22 1.78198 1.83519 0
M  V30 10832 H 999.868 3.33635 3.82949 0
M  V30 10833 H 999.798 1.91746 4.9045 0
M  V30 10834 H 1002.29 1.74402 3.3525 0
M  V30 10835 H 1002.6 4.10952 6.54476 0
M  V30 10836 H 1000.95 3.68991 5.88957 0
M  V30 10837 H 1004.14 2.23469 4.11314 0
M  V30 10838 H 1004.31 3.31318 5.56895 0
M  V30 10839 N 997.718 -1.45297 0.610449 0
M  V30 10840 C 998.965 -2.02218 0.106759 0
M  V30 10841 C 999.293 -1.47849 -1.26376 0
M  V30 10842 O 998.548 -0.644402 -1.84786 0
M  V30 10843 C 998.847 -3.57394 0.0205329 0
M  V30 10844 C 998.513 -4.30928 1.32709 0
M  V30 10845 C 997.175 -4.50735 1.68498 0
M  V30 10846 C 999.527 -4.72936 2.19046 0
M  V30 10847 C 996.855 -5.09806 2.90371 0
M  V30 10848 C 999.207 -5.33355 3.40169 0
M  V30 10849 C 997.871 -5.51384 3.76207 0
M  V30 10850 H 997.141 -0.739969 0.039066 0
M  V30 10851 H 999.788 -1.74326 0.792638 0
M  V30 10852 H 998.093 -3.84581 -0.748623 0
M  V30 10853 H 999.79 -3.99144 -0.385386 0
M  V30 10854 H 996.38 -4.15827 1.03854 0
M  V30 10855 H 1000.56 -4.57365 1.92695 0
M  V30 10856 H 995.82 -5.21953 3.18395 0
M  V30 10857 H 999.994 -5.64859 4.07318 0
M  V30 10858 H 997.621 -5.96924 4.70729 0
M  V30 10859 N 999.196 -0.349774 -1.5367 0
M  V30 10860 C 1000.42 0.246038 -2.05432 0
M  V30 10861 C 1000.84 1.43719 -1.22435 0
M  V30 10862 O 1000.2 1.80622 -0.261166 0
M  V30 10863 C 1000.25 0.65501 -3.55516 0
M  V30 10864 O 999.968 -0.488782 -4.35365 0
M  V30 10865 C 1001.47 1.31088 -4.23475 0
M  V30 10866 H 998.689 0.0463952 -0.669394 0
M  V30 10867 H 1001.23 -0.503566 -1.98203 0
M  V30 10868 H 999.388 1.35455 -3.62947 0
M  V30 10869 H 999.802 -0.161528 -5.24251 0
M  V30 10870 H 1001.28 1.54774 -5.29857 0
M  V30 10871 H 1001.75 2.26636 -3.76208 0
M  V30 10872 H 1002.36 0.653211 -4.20254 0
M  V30 10873 N 1000.67 1.57404 -0.0785433 0
M  V30 10874 C 1001.95 1.85163 0.630389 0
M  V30 10875 C 1002.33 0.972295 1.87376 0
M  V30 10876 O 1001.68 0.0403375 2.28464 0
M  V30 10877 C 1001.89 3.35491 0.961604 0
M  V30 10878 C 1003.24 4.0316 1.33219 0
M  V30 10879 O 1004.26 3.40276 1.05313 0
M  V30 10880 O 1003.12 5.14086 1.85412 0
M  V30 10881 H 1000.21 0.765169 0.31376 0
M  V30 10882 H 1002.76 1.69343 -0.109986 0
M  V30 10883 H 1001.53 3.91221 0.0788113 0
M  V30 10884 H 1001.15 3.56598 1.75852 0
M  V30 10885 N 1002.15 -0.195058 1.56388 0
M  V30 10886 C 1003.08 -1.24444 1.97575 0
M  V30 10887 C 1004.06 -1.47471 0.847717 0
M  V30 10888 O 1005.25 -1.59208 1.11205 0
M  V30 10889 C 1002.38 -2.58866 2.31529 0
M  V30 10890 C 1001.33 -2.50451 3.47071 0
M  V30 10891 C 1000.66 -3.89146 3.667 0
M  V30 10892 C 1001.96 -2.02953 4.81256 0
M  V30 10893 H 1003.65 -0.902178 2.85484 0
M  V30 10894 H 1001.2 -0.43254 1.3735 0
M  V30 10895 H 1003.15 -3.3246 2.58936 0
M  V30 10896 H 1001.87 -2.94833 1.40502 0
M  V30 10897 H 1000.53 -1.79313 3.19754 0
M  V30 10898 H 1000.18 -4.22466 2.73004 0
M  V30 10899 H 999.882 -3.84391 4.44429 0
M  V30 10900 H 1001.41 -4.64363 3.96484 0
M  V30 10901 H 1002.82 -2.66306 5.07695 0
M  V30 10902 H 1001.22 -2.092 5.62455 0
M  V30 10903 H 1002.29 -0.982757 4.74837 0
M  V30 10904 N 1003.63 -1.50653 -0.462772 0
M  V30 10905 C 1004.54 -1.72923 -1.58539 0
M  V30 10906 C 1005.56 -0.612577 -1.6286 0
M  V30 10907 O 1006.73 -0.891885 -1.80575 0
M  V30 10908 C 1003.8 -1.82623 -2.94703 0
M  V30 10909 C 1002.86 -3.06392 -3.00704 0
M  V30 10910 C 1002.09 -3.15618 -4.30373 0
M  V30 10911 O 1002.31 -2.31423 -5.21344 0
M  V30 10912 O 1001.25 -4.0841 -4.42136 0
M  V30 10913 H 1005.07 -2.68103 -1.42669 0
M  V30 10914 H 1002.66 -1.34848 -0.643144 0
M  V30 10915 H 1004.54 -1.91134 -3.7556 0
M  V30 10916 H 1003.22 -0.906275 -3.10754 0
M  V30 10917 H 1002.12 -3.03375 -2.18894 0
M  V30 10918 H 1003.46 -3.97992 -2.89591 0
M  V30 10919 N 1005.11 0.71652 -1.4037 0
M  V30 10920 C 1006.06 1.8306 -1.40562 0
M  V30 10921 C 1007.03 1.64009 -0.262697 0
M  V30 10922 O 1008.21 1.85157 -0.460619 0
M  V30 10923 C 1005.35 3.2076 -1.27307 0
M  V30 10924 C 1004.46 3.51389 -2.51296 0
M  V30 10925 C 1003.6 4.78589 -2.30491 0
M  V30 10926 C 1002.64 5.02119 -3.50061 0
M  V30 10927 N 1001.77 6.20533 -3.28457 0
M  V30 10928 H 1006.61 1.82231 -2.35788 0
M  V30 10929 H 1004.15 0.890198 -1.17106 0
M  V30 10930 H 1006.11 4.00274 -1.17628 0
M  V30 10931 H 1004.74 3.2082 -0.357005 0
M  V30 10932 H 1003.79 2.66436 -2.71507 0
M  V30 10933 H 1005.1 3.64686 -3.40302 0
M  V30 10934 H 1004.26 5.66119 -2.1816 0
M  V30 10935 H 1003 4.67499 -1.38909 0
M  V30 10936 H 1002 4.13044 -3.6287 0
M  V30 10937 H 1003.23 5.15082 -4.42569 0
M  V30 10938 H 1001.17 6.10695 -2.39556 0
M  V30 10939 H 1001.09 6.34502 -4.11027 0
M  V30 10940 H 1002.36 7.10853 -3.19857 0
M  V30 10941 N 1006.59 1.25851 0.948643 0
M  V30 10942 C 1007.5 1.08516 2.07994 0
M  V30 10943 C 1008.51 0.0206696 1.73988 0
M  V30 10944 O 1009.69 0.222854 2.00163 0
M  V30 10945 C 1006.75 0.712145 3.39307 0
M  V30 10946 C 1005.81 1.85523 3.87143 0
M  V30 10947 C 1005.05 1.49992 5.1219 0
M  V30 10948 O 1005.27 0.398268 5.69008 0
M  V30 10949 O 1004.2 2.33215 5.54882 0
M  V30 10950 H 1008.03 2.03405 2.25522 0
M  V30 10951 H 1005.62 1.04844 1.06433 0
M  V30 10952 H 1007.5 0.516512 4.18223 0
M  V30 10953 H 1006.17 -0.207416 3.23035 0
M  V30 10954 H 1005.08 2.10578 3.09205 0
M  V30 10955 H 1006.41 2.75425 4.07924 0
M  V30 10956 N 1008.06 -1.15214 1.07534 0
M  V30 10957 C 1009.01 -2.20013 0.697337 0
M  V30 10958 C 1009.98 -1.6314 -0.312168 0
M  V30 10959 O 1011.17 -1.89768 -0.198196 0
M  V30 10960 C 1008.31 -3.44945 0.103293 0
M  V30 10961 C 1007.42 -4.16009 1.1645 0
M  V30 10962 C 1006.55 -5.28496 0.535261 0
M  V30 10963 C 1005.59 -5.9138 1.57912 0
M  V30 10964 N 1004.73 -6.95335 0.972332 0
M  V30 10965 H 1009.57 -2.51698 1.59538 0
M  V30 10966 H 1007.11 -1.2361 0.797431 0
M  V30 10967 H 1009.07 -4.16397 -0.258766 0
M  V30 10968 H 1007.7 -3.13772 -0.758096 0
M  V30 10969 H 1006.75 -3.43035 1.64411 0
M  V30 10970 H 1008.06 -4.58853 1.9559 0
M  V30 10971 H 1007.21 -6.06579 0.120942 0
M  V30 10972 H 1005.95 -4.8685 -0.287889 0
M  V30 10973 H 1004.96 -5.12008 2.0032 0
M  V30 10974 H 1006.18 -6.35103 2.40459 0
M  V30 10975 H 1004.13 -6.55779 0.170119 0
M  V30 10976 H 1004.05 -7.36616 1.70095 0
M  V30 10977 H 1005.31 -7.77312 0.583577 0
M  V30 10978 N 1009.54 -0.859717 -1.32086 0
M  V30 10979 C 1010.77 -0.478865 -2.01796 0
M  V30 10980 C 1011.19 0.918274 -1.64163 0
M  V30 10981 O 1010.55 1.60409 -0.844896 0
M  V30 10982 C 1010.6 -0.631356 -3.5503 0
M  V30 10983 O 1009.7 0.333712 -4.11048 0
M  V30 10984 H 1009.04 -0.191775 -0.635703 0
M  V30 10985 H 1011.57 -1.16031 -1.68517 0
M  V30 10986 H 1011.58 -0.520783 -4.04663 0
M  V30 10987 H 1010.26 -1.65015 -3.81763 0
M  V30 10988 H 1008.84 0.178953 -3.7247 0
M  V30 10989 N 1011.02 1.44971 -0.618145 0
M  V30 10990 C 1011.97 2.32354 0.106846 0
M  V30 10991 C 1012.96 1.4659 0.848984 0
M  V30 10992 O 1014.17 1.63012 0.763354 0
M  V30 10993 H 1010.54 0.750108 0.0533109 0
M  V30 10994 H 1012.51 2.9127 -0.648426 0
M  V30 10995 C 1011.26 3.30381 1.08368 0
M  V30 10996 H 1010.59 3.96377 0.52205 0
M  V30 10997 H 1012.03 3.94231 1.56069 0
M  V30 10998 C 1010.49 2.58336 2.1625 0
M  V30 10999 O 1011.02 2.37258 3.24148 0
M  V30 11000 N 1009.22 2.18292 1.91825 0
M  V30 11001 H 1008.77 2.35635 1.04086 0
M  V30 11002 H 1008.73 1.70413 2.6421 0
M  V30 11003 N 1012.5 0.357919 1.53482 0
M  V30 11004 C 1013.43 -0.535553 2.21827 0
M  V30 11005 C 1014.41 -1.08904 1.20742 0
M  V30 11006 O 1015.59 -1.14661 1.49616 0
M  V30 11007 C 1012.72 -1.73817 2.90698 0
M  V30 11008 C 1011.77 -1.31283 4.05792 0
M  V30 11009 S 1012.6 -0.320548 5.3454 0
M  V30 11010 C 1013.76 -1.52967 6.0692 0
M  V30 11011 H 1013.99 0.0449045 2.97266 0
M  V30 11012 H 1011.52 0.142009 1.53746 0
M  V30 11013 H 1013.48 -2.42803 3.30994 0
M  V30 11014 H 1012.14 -2.28987 2.14998 0
M  V30 11015 H 1011.33 -2.20989 4.52968 0
M  V30 11016 H 1010.94 -0.702275 3.67347 0
M  V30 11017 H 1013.23 -2.46191 6.31186 0
M  V30 11018 H 1014.17 -1.09943 6.99513 0
M  V30 11019 H 1014.58 -1.73224 5.37265 0
M  V30 11020 N 1013.98 -1.5736 0.0868897 0
M  V30 11021 C 1014.89 -2.17087 -0.889402 0
M  V30 11022 C 1015.9 -1.13809 -1.31619 0
M  V30 11023 O 1017.08 -1.46143 -1.38579 0
M  V30 11024 C 1014.14 -2.73286 -2.13344 0
M  V30 11025 C 1013.2 -3.91491 -1.76164 0
M  V30 11026 C 1012.44 -4.45 -2.94637 0
M  V30 11027 O 1012.66 -3.97467 -4.09116 0
M  V30 11028 O 1011.59 -5.36133 -2.73579 0
M  V30 11029 H 1015.42 -3.00902 -0.411275 0
M  V30 11030 H 1013.01 -1.4877 -0.137015 0
M  V30 11031 H 1014.89 -3.0924 -2.86266 0
M  V30 11032 H 1013.56 -1.92521 -2.60225 0
M  V30 11033 H 1012.47 -3.60363 -1.00447 0
M  V30 11034 H 1013.8 -4.73593 -1.34053 0
M  V30 11035 N 1015.45 0.186762 -1.56489 0
M  V30 11036 C 1016.7 0.904077 -1.80303 0
M  V30 11037 C 1017.02 1.84073 -0.661538 0
M  V30 11038 O 1018.22 2.59928 -0.784197 0
M  V30 11039 C 1016.68 1.65806 -3.19432 0
M  V30 11040 C 1016.29 0.765807 -4.41406 0
M  V30 11041 C 1018.03 2.36451 -3.52549 0
M  V30 11042 C 1015.94 1.51913 -5.71556 0
M  V30 11043 H 1014.87 0.34133 -0.672317 0
M  V30 11044 H 1017.52 0.157218 -1.82825 0
M  V30 11045 H 1015.9 2.44911 -3.11183 0
M  V30 11046 H 1017.07 0.0128225 -4.60798 0
M  V30 11047 H 1015.39 0.169772 -4.16054 0
M  V30 11048 H 1017.99 2.93378 -4.47027 0
M  V30 11049 H 1018.33 3.11044 -2.7669 0
M  V30 11050 H 1018.86 1.64305 -3.62283 0
M  V30 11051 H 1015.6 0.815829 -6.50403 0
M  V30 11052 H 1015.12 2.24583 -5.56168 0
M  V30 11053 H 1016.8 2.07073 -6.12968 0
M  V30 11054 N 1016.93 1.50896 0.454776 0
M  V30 11055 C 1018.21 1.53227 1.21576 0
M  V30 11056 C 1018.59 0.286358 2.09149 0
M  V30 11057 O 1017.94 -0.729469 2.16543 0
M  V30 11058 C 1018.15 2.83693 2.03271 0
M  V30 11059 C 1019.5 3.34981 2.60908 0
M  V30 11060 O 1020.52 2.85126 2.13499 0
M  V30 11061 O 1019.38 4.21929 3.4733 0
M  V30 11062 H 1016.47 0.615306 0.552564 0
M  V30 11063 H 1019.02 1.63197 0.465266 0
M  V30 11064 H 1017.79 3.65839 1.38843 0
M  V30 11065 H 1017.41 2.76803 2.85422 0
M  V30 11066 N 1018.41 -0.709066 1.40748 0
M  V30 11067 C 1019.34 -1.83293 1.35937 0
M  V30 11068 C 1020.32 -1.60983 0.22871 0
M  V30 11069 O 1021.51 -1.8391 0.413435 0
M  V30 11070 C 1018.63 -3.19746 1.11714 0
M  V30 11071 C 1017.68 -3.60872 2.27319 0
M  V30 11072 S 1018.51 -3.67233 3.89743 0
M  V30 11073 C 1019.67 -5.06434 3.67797 0
M  V30 11074 H 1019.9 -1.87095 2.31047 0
M  V30 11075 H 1017.43 -0.876479 1.27111 0
M  V30 11076 H 1019.39 -3.98526 0.984245 0
M  V30 11077 H 1018.05 -3.1357 0.182472 0
M  V30 11078 H 1017.25 -4.59965 2.06029 0
M  V30 11079 H 1016.85 -2.89366 2.36946 0
M  V30 11080 H 1019.14 -5.93544 3.26668 0
M  V30 11081 H 1020.08 -5.32761 4.66445 0
M  V30 11082 H 1020.49 -4.77336 3.01348 0
M  V30 11083 N 1019.89 -1.26353 -0.941956 0
M  V30 11084 C 1021.12 -1.14626 -1.72245 0
M  V30 11085 C 1021.53 0.298588 -1.86424 0
M  V30 11086 O 1020.89 1.2045 -1.37106 0
M  V30 11087 C 1020.94 -1.80933 -3.12963 0
M  V30 11088 O 1020.66 -3.19771 -2.99463 0
M  V30 11089 C 1022.16 -1.7515 -4.07231 0
M  V30 11090 H 1019.38 -0.3992 -0.539333 0
M  V30 11091 H 1021.93 -1.66958 -1.1809 0
M  V30 11092 H 1020.08 -1.32541 -3.64021 0
M  V30 11093 H 1020.5 -3.52571 -3.88322 0
M  V30 11094 H 1021.97 -2.26183 -5.03533 0
M  V30 11095 H 1022.45 -0.717855 -4.33294 0
M  V30 11096 H 1023.05 -2.2309 -3.62093 0
M  V30 11097 N 1021.37 1.14642 -1.08144 0
M  V30 11098 C 1022.6 1.89209 -0.82966 0
M  V30 11099 C 1023.01 1.78697 0.621604 0
M  V30 11100 O 1022.35 1.14224 1.4387 0
M  V30 11101 C 1022.41 3.39958 -1.16915 0
M  V30 11102 C 1022.07 3.74254 -2.62264 0
M  V30 11103 C 1023.07 3.746 -3.60514 0
M  V30 11104 C 1020.76 4.04316 -2.9805 0
M  V30 11105 C 1022.75 4.04527 -4.92582 0
M  V30 11106 C 1020.44 4.33906 -4.30312 0
M  V30 11107 C 1021.44 4.33995 -5.27388 0
M  V30 11108 O 1021.12 4.62869 -6.57273 0
M  V30 11109 H 1020.86 0.606259 -0.299042 0
M  V30 11110 H 1023.41 1.46132 -1.44342 0
M  V30 11111 H 1021.64 3.83475 -0.498377 0
M  V30 11112 H 1023.33 3.95828 -0.89862 0
M  V30 11113 H 1024.09 3.51466 -3.34211 0
M  V30 11114 H 1019.97 4.03402 -2.23132 0
M  V30 11115 H 1023.52 4.04511 -5.68346 0
M  V30 11116 H 1019.41 4.5651 -4.56365 0
M  V30 11117 H 1020.18 4.80598 -6.62546 0
M  V30 11118 N 1022.85 0.866709 1.31628 0
M  V30 11119 C 1023.78 0.277328 2.27516 0
M  V30 11120 C 1024.79 -0.557786 1.52946 0
M  V30 11121 O 1025.98 -0.38031 1.74402 0
M  V30 11122 C 1023.08 -0.625742 3.33073 0
M  V30 11123 C 1022.25 0.176204 4.37045 0
M  V30 11124 C 1021.31 -0.654497 5.22114 0
M  V30 11125 O 1020.34 -0.0836961 5.69138 0
M  V30 11126 N 1021.54 -1.96708 5.46156 0
M  V30 11127 H 1024.3 1.10133 2.78731 0
M  V30 11128 H 1021.87 0.72787 1.44616 0
M  V30 11129 H 1023.86 -1.18709 3.86898 0
M  V30 11130 H 1022.43 -1.35042 2.81926 0
M  V30 11131 H 1021.65 0.918999 3.83338 0
M  V30 11132 H 1022.94 0.726594 5.03585 0
M  V30 11133 H 1022.33 -2.454 5.09701 0
M  V30 11134 H 1020.89 -2.47629 6.02929 0
M  V30 11135 N 1024.32 -1.44642 0.625825 0
M  V30 11136 C 1025.25 -2.33397 -0.0692188 0
M  V30 11137 C 1026.23 -1.47898 -0.840241 0
M  V30 11138 O 1027.42 -1.7663 -0.807176 0
M  V30 11139 C 1024.55 -3.30888 -1.055 0
M  V30 11140 C 1023.5 -4.26164 -0.395968 0
M  V30 11141 C 1022.83 -5.13483 -1.49128 0
M  V30 11142 C 1024.13 -5.17663 0.694433 0
M  V30 11143 H 1025.82 -2.91763 0.671925 0
M  V30 11144 H 1023.37 -1.40294 0.324573 0
M  V30 11145 H 1025.32 -3.91861 -1.54993 0
M  V30 11146 H 1024.05 -2.7072 -1.82696 0
M  V30 11147 H 1022.71 -3.66516 0.0782691 0
M  V30 11148 H 1022.35 -4.49672 -2.25399 0
M  V30 11149 H 1022.05 -5.78038 -1.05573 0
M  V30 11150 H 1023.58 -5.77327 -1.98813 0
M  V30 11151 H 1024.99 -5.72602 0.282818 0
M  V30 11152 H 1023.39 -5.90793 1.05281 0
M  V30 11153 H 1024.46 -4.58994 1.56372 0
M  V30 11154 N 1025.8 -0.366053 -1.5329 0
M  V30 11155 C 1026.75 0.480205 -2.25749 0
M  V30 11156 C 1027.72 1.07713 -1.2644 0
M  V30 11157 O 1028.9 1.10953 -1.55222 0
M  V30 11158 C 1026.04 1.61374 -3.05045 0
M  V30 11159 C 1025.16 1.04194 -4.19246 0
M  V30 11160 C 1024.29 2.14462 -4.85983 0
M  V30 11161 C 1023.33 1.5475 -5.92215 0
M  V30 11162 N 1022.47 2.58852 -6.52641 0
M  V30 11163 H 1027.31 -0.144199 -2.97651 0
M  V30 11164 H 1024.84 -0.0829321 -1.46866 0
M  V30 11165 H 1026.8 2.28144 -3.49294 0
M  V30 11166 H 1025.43 2.2088 -2.35397 0
M  V30 11167 H 1024.48 0.264514 -3.79479 0
M  V30 11168 H 1025.8 0.565379 -4.95585 0
M  V30 11169 H 1024.95 2.89051 -5.33418 0
M  V30 11170 H 1023.69 2.6547 -4.09117 0
M  V30 11171 H 1022.69 0.786759 -5.44142 0
M  V30 11172 H 1023.92 1.04566 -6.71001 0
M  V30 11173 H 1021.87 3.09073 -5.78627 0
M  V30 11174 H 1021.78 2.15884 -7.24521 0
M  V30 11175 H 1023.05 3.33142 -7.04724 0
M  V30 11176 N 1027.28 1.57312 -0.0952337 0
M  V30 11177 C 1028.53 1.94646 0.569284 0
M  V30 11178 C 1028.86 0.977152 1.67825 0
M  V30 11179 O 1028.13 0.0102318 1.94497 0
M  V30 11180 C 1028.42 3.42098 1.12433 0
M  V30 11181 C 1028.27 4.49795 0.0204016 0
M  V30 11182 C 1029.59 3.90866 2.02266 0
M  V30 11183 H 1026.71 0.707779 0.205469 0
M  V30 11184 H 1029.35 1.89274 -0.16597 0
M  V30 11185 H 1027.5 3.46807 1.75092 0
M  V30 11186 H 1029.17 4.57198 -0.613845 0
M  V30 11187 H 1027.41 4.28964 -0.645965 0
M  V30 11188 H 1028.09 5.50166 0.449579 0
M  V30 11189 H 1030.56 3.88311 1.49512 0
M  V30 11190 H 1029.44 4.94604 2.38029 0
M  V30 11191 H 1029.7 3.30167 2.9401 0
M  V30 11192 N 1028.76 -0.17846 1.56586 0
M  V30 11193 C 1030.01 -0.894502 1.8078 0
M  V30 11194 C 1030.32 -1.8372 0.67129 0
M  V30 11195 O 1031.53 -2.59509 0.797971 0
M  V30 11196 C 1029.98 -1.64109 3.20306 0
M  V30 11197 C 1029.59 -0.742387 4.41806 0
M  V30 11198 C 1031.33 -2.34578 3.53798 0
M  V30 11199 C 1029.24 -1.4888 5.72354 0
M  V30 11200 H 1028.17 -0.33776 0.674117 0
M  V30 11201 H 1030.82 -0.14752 1.82906 0
M  V30 11202 H 1029.2 -2.43257 3.12477 0
M  V30 11203 H 1030.38 0.011615 4.60799 0
M  V30 11204 H 1028.69 -0.147705 4.16138 0
M  V30 11205 H 1031.29 -2.91004 4.48577 0
M  V30 11206 H 1031.63 -3.09572 2.78336 0
M  V30 11207 H 1032.17 -1.62381 3.63149 0
M  V30 11208 H 1028.9 -0.781325 6.50827 0
M  V30 11209 H 1028.42 -2.21631 5.57351 0
M  V30 11210 H 1030.1 -2.03819 6.14058 0
M  V30 11211 N 1030.24 -1.51135 -0.446768 0
M  V30 11212 C 1031.17 -1.67949 -1.55967 0
M  V30 11213 C 1032.18 -0.560337 -1.52853 0
M  V30 11214 O 1033.37 -0.83435 -1.578 0
M  V30 11215 C 1030.47 -1.6703 -2.9488 0
M  V30 11216 C 1029.64 -2.95377 -3.22601 0
M  V30 11217 C 1028.7 -2.86772 -4.4119 0
M  V30 11218 O 1027.73 -3.60722 -4.40304 0
M  V30 11219 N 1028.93 -2.01979 -5.44228 0
M  V30 11220 H 1031.69 -2.63951 -1.41951 0
M  V30 11221 H 1029.26 -1.48903 -0.635569 0
M  V30 11222 H 1031.25 -1.58854 -3.7222 0
M  V30 11223 H 1029.82 -0.786623 -3.02541 0
M  V30 11224 H 1029.04 -3.17494 -2.33647 0
M  V30 11225 H 1030.33 -3.80356 -3.37945 0
M  V30 11226 H 1029.72 -1.41257 -5.4778 0
M  V30 11227 H 1028.28 -1.99689 -6.20457 0
M  V30 11228 N 1031.71 0.701592 -1.41122 0
M  V30 11229 C 1032.65 1.8268 -1.38422 0
M  V30 11230 C 1033.66 1.60244 -0.287342 0
M  V30 11231 O 1034.85 1.69859 -0.548658 0
M  V30 11232 C 1031.95 3.19338 -1.13475 0
M  V30 11233 C 1031.12 3.68853 -2.35088 0
M  V30 11234 C 1030.18 4.84163 -2.06089 0
M  V30 11235 O 1029.21 4.9609 -2.79077 0
M  V30 11236 N 1030.41 5.70972 -1.04743 0
M  V30 11237 H 1033.17 1.8549 -2.35401 0
M  V30 11238 H 1030.73 0.883682 -1.35656 0
M  V30 11239 H 1032.73 3.94095 -0.920377 0
M  V30 11240 H 1031.3 3.11589 -0.251152 0
M  V30 11241 H 1030.52 2.8507 -2.72266 0
M  V30 11242 H 1031.8 3.98673 -3.16129 0
M  V30 11243 H 1031.2 5.63961 -0.443221 0
M  V30 11244 H 1029.76 6.45654 -0.892949 0
M  V30 11245 N 1033.19 1.2685 0.935242 0
M  V30 11246 C 1034.42 1.15645 1.72165 0
M  V30 11247 C 1034.84 -0.283909 1.85945 0
M  V30 11248 O 1034.2 -1.20567 1.354 0
M  V30 11249 C 1034.25 1.83689 3.10307 0
M  V30 11250 O 1033.35 1.12972 3.96625 0
M  V30 11251 H 1032.69 0.402629 0.528002 0
M  V30 11252 H 1035.22 1.67781 1.17093 0
M  V30 11253 H 1035.23 1.90749 3.60664 0
M  V30 11254 H 1033.91 2.88472 2.99595 0
M  V30 11255 H 1032.48 1.13929 3.5507 0
M  V30 11256 N 1034.67 -1.14067 1.0875 0
M  V30 11257 C 1035.6 -2.21385 0.74236 0
M  V30 11258 C 1036.58 -1.67833 -0.276805 0
M  V30 11259 O 1037.77 -1.93647 -0.1464 0
M  V30 11260 C 1034.9 -3.46956 0.154644 0
M  V30 11261 C 1033.85 -4.13555 1.10255 0
M  V30 11262 C 1033.18 -5.3337 0.376877 0
M  V30 11263 C 1034.48 -4.6169 2.44213 0
M  V30 11264 H 1036.17 -2.50512 1.63964 0
M  V30 11265 H 1033.72 -1.20408 0.789807 0
M  V30 11266 H 1035.67 -4.21284 -0.0988419 0
M  V30 11267 H 1034.39 -3.17203 -0.777789 0
M  V30 11268 H 1033.05 -3.41186 1.34119 0
M  V30 11269 H 1032.7 -4.99879 -0.559472 0
M  V30 11270 H 1032.4 -5.78875 1.00884 0
M  V30 11271 H 1033.92 -6.10458 0.131527 0
M  V30 11272 H 1035.34 -5.27475 2.24595 0
M  V30 11273 H 1033.74 -5.17909 3.03134 0
M  V30 11274 H 1034.81 -3.76574 3.05483 0
M  V30 11275 N 1036.15 -0.873678 -1.31166 0
M  V30 11276 C 1037.06 -0.335726 -2.32185 0
M  V30 11277 C 1038.07 0.556259 -1.64869 0
M  V30 11278 O 1039.25 0.452087 -1.9626 0
M  V30 11279 C 1036.32 0.450822 -3.43756 0
M  V30 11280 C 1035.38 -0.469565 -4.26724 0
M  V30 11281 C 1034.61 0.279538 -5.32967 0
M  V30 11282 O 1034.83 1.50715 -5.50128 0
M  V30 11283 O 1033.77 -0.36452 -6.00795 0
M  V30 11284 H 1037.59 -1.17314 -2.80127 0
M  V30 11285 H 1035.18 -0.637163 -1.35132 0
M  V30 11286 H 1037.06 0.896582 -4.11752 0
M  V30 11287 H 1035.73 1.26472 -2.9797 0
M  V30 11288 H 1034.64 -0.963902 -3.61469 0
M  V30 11289 H 1035.97 -1.24916 -4.76085 0
M  V30 11290 N 1037.63 1.44308 -0.633487 0
M  V30 11291 C 1038.56 2.28943 0.108474 0
M  V30 11292 C 1039.57 1.41415 0.806582 0
M  V30 11293 O 1040.76 1.65544 0.667634 0
M  V30 11294 C 1037.86 3.17845 1.1759 0
M  V30 11295 C 1037.03 4.33802 0.559842 0
M  V30 11296 C 1036.09 5.03722 1.52154 0
M  V30 11297 O 1035.12 5.5966 1.03776 0
M  V30 11298 N 1036.32 5.05392 2.85586 0
M  V30 11299 H 1039.09 2.93262 -0.617879 0
M  V30 11300 H 1036.65 1.54781 -0.474819 0
M  V30 11301 H 1038.64 3.61485 1.81963 0
M  V30 11302 H 1037.21 2.55261 1.80445 0
M  V30 11303 H 1036.43 3.93325 -0.262559 0
M  V30 11304 H 1037.72 5.08637 0.128942 0
M  V30 11305 H 1037.11 4.61282 3.27468 0
M  V30 11306 H 1035.67 5.52813 3.45313 0
M  V30 11307 N 1039.1 0.374177 1.53094 0
M  V30 11308 C 1040.01 -0.475935 2.29722 0
M  V30 11309 C 1041.03 -1.085 1.36029 0
M  V30 11310 O 1042.21 -1.09408 1.69091 0
M  V30 11311 C 1039.27 -1.59572 3.07795 0
M  V30 11312 C 1038.33 -1.01332 4.17169 0
M  V30 11313 C 1037.57 -2.07975 4.9151 0
M  V30 11314 O 1037.79 -3.29232 4.65793 0
M  V30 11315 O 1036.72 -1.7055 5.77232 0
M  V30 11316 H 1040.55 0.147877 3.0334 0
M  V30 11317 H 1038.13 0.138312 1.48758 0
M  V30 11318 H 1040.02 -2.24658 3.5652 0
M  V30 11319 H 1038.69 -2.20478 2.37005 0
M  V30 11320 H 1037.6 -0.326133 3.72676 0
M  V30 11321 H 1038.93 -0.4487 4.90151 0
M  V30 11322 N 1040.58 -1.57259 0.103575 0
M  V30 11323 C 1041.49 -2.18018 -0.866327 0
M  V30 11324 C 1042.51 -1.15198 -1.30404 0
M  V30 11325 O 1043.68 -1.47605 -1.37021 0
M  V30 11326 C 1040.75 -2.75533 -2.10434 0
M  V30 11327 C 1039.81 -3.93337 -1.72002 0
M  V30 11328 C 1039.04 -4.481 -2.89901 0
M  V30 11329 O 1039.27 -4.01784 -4.04877 0
M  V30 11330 O 1038.2 -5.39004 -2.67877 0
M  V30 11331 H 1042.03 -3.01322 -0.379338 0
M  V30 11332 H 1039.61 -1.48907 -0.121228 0
M  V30 11333 H 1041.49 -3.12259 -2.8297 0
M  V30 11334 H 1040.17 -1.9527 -2.58169 0
M  V30 11335 H 1039.08 -3.61408 -0.966193 0
M  V30 11336 H 1040.41 -4.74989 -1.29022 0
M  V30 11337 N 1042.06 0.170153 -1.56679 0
M  V30 11338 C 1043.02 1.19443 -1.95617 0
M  V30 11339 C 1044.02 1.37118 -0.83996 0
M  V30 11340 O 1045.21 1.34504 -1.10699 0
M  V30 11341 C 1042.35 2.55926 -2.25199 0
M  V30 11342 H 1043.54 0.86095 -2.87276 0
M  V30 11343 H 1041.09 0.412646 -1.50755 0
M  V30 11344 H 1041.83 2.94286 -1.36257 0
M  V30 11345 H 1041.61 2.44464 -3.06562 0
M  V30 11346 H 1043.1 3.29742 -2.56242 0
M  V30 11347 N 1043.54 1.5137 0.438746 0
M  V30 11348 C 1044.45 1.75424 1.55768 0
M  V30 11349 C 1045.46 0.638409 1.61865 0
M  V30 11350 O 1046.64 0.9205 1.79133 0
M  V30 11351 C 1043.71 1.87288 2.9176 0
M  V30 11352 C 1042.77 3.11137 2.95791 0
M  V30 11353 C 1042 3.22425 4.25297 0
M  V30 11354 O 1042.22 2.39688 5.17596 0
M  V30 11355 O 1041.16 4.15393 4.35583 0
M  V30 11356 H 1044.98 2.70339 1.38386 0
M  V30 11357 H 1042.57 1.35854 0.621609 0
M  V30 11358 H 1044.45 1.97085 3.72472 0
M  V30 11359 H 1043.12 0.955599 3.09273 0
M  V30 11360 H 1042.03 3.06819 2.1404 0
M  V30 11361 H 1043.36 4.02549 2.83223 0
M  V30 11362 N 1045.02 -0.694098 1.41492 0
M  V30 11363 C 1045.97 -1.80016 1.39923 0
M  V30 11364 C 1046.95 -1.58561 0.273377 0
M  V30 11365 O 1048.14 -1.69368 0.514157 0
M  V30 11366 C 1045.27 -3.18333 1.28526 0
M  V30 11367 C 1044.36 -3.45478 2.45979 0
M  V30 11368 N 1044.75 -3.43313 3.71443 0
M  V30 11369 C 1043.05 -3.76033 2.39824 0
M  V30 11370 C 1043.75 -3.69404 4.4935 0
M  V30 11371 N 1042.72 -3.89221 3.79484 0
M  V30 11372 H 1046.53 -1.76707 2.34844 0
M  V30 11373 H 1044.04 -0.894148 1.35568 0
M  V30 11374 H 1046.04 -3.97567 1.25484 0
M  V30 11375 H 1044.7 -3.22852 0.345904 0
M  V30 11376 H 1045.71 -3.2366 4.04308 0
M  V30 11377 H 1042.38 -3.87913 1.54368 0
M  V30 11378 H 1043.77 -3.73854 5.58285 0
M  V30 11379 N 1046.49 -1.27344 -0.928501 0
M  V30 11380 C 1047.44 -1.10001 -2.029 0
M  V30 11381 C 1048.41 -0.00131084 -1.661 0
M  V30 11382 O 1049.6 -0.163485 -1.90098 0
M  V30 11383 C 1046.74 -0.7524 -3.36798 0
M  V30 11384 C 1045.85 -1.92865 -3.86558 0
M  V30 11385 C 1044.98 -1.52299 -5.08899 0
M  V30 11386 C 1044.02 -2.66677 -5.50953 0
M  V30 11387 N 1043.16 -2.26706 -6.64491 0
M  V30 11388 H 1048 -2.0417 -2.17068 0
M  V30 11389 H 1045.54 -1.01637 -1.0634 0
M  V30 11390 H 1047.5 -0.531687 -4.13798 0
M  V30 11391 H 1046.13 0.15234 -3.2244 0
M  V30 11392 H 1045.18 -2.26192 -3.05845 0
M  V30 11393 H 1046.49 -2.78668 -4.13698 0
M  V30 11394 H 1045.64 -1.26348 -5.93398 0
M  V30 11395 H 1044.38 -0.636042 -4.83535 0
M  V30 11396 H 1043.39 -2.93344 -4.65004 0
M  V30 11397 H 1044.61 -3.55992 -5.78313 0
M  V30 11398 H 1042.56 -1.40462 -6.40786 0
M  V30 11399 H 1042.48 -3.06049 -6.91281 0
M  V30 11400 H 1043.74 -2.04 -7.52333 0
M  V30 11401 N 1047.97 1.13488 -1.09353 0
M  V30 11402 C 1048.94 2.17066 -0.735863 0
M  V30 11403 C 1049.94 1.59086 0.234181 0
M  V30 11404 O 1051.13 1.74196 0.012463 0
M  V30 11405 C 1048.26 3.40786 -0.0880975 0
M  V30 11406 H 1049.45 2.50221 -1.65316 0
M  V30 11407 H 1047 1.28304 -0.89263 0
M  V30 11408 H 1047.74 3.1322 0.840462 0
M  V30 11409 H 1047.52 3.8414 -0.786073 0
M  V30 11410 H 1049.01 4.17342 0.146775 0
M  V30 11411 N 1049.45 0.880621 1.30701 0
M  V30 11412 C 1050.68 0.511682 2.00473 0
M  V30 11413 C 1051.09 -0.898684 1.6604 0
M  V30 11414 O 1050.45 -1.59035 0.895218 0
M  V30 11415 C 1050.5 0.671723 3.55204 0
M  V30 11416 O 1050.22 2.02656 3.8841 0
M  V30 11417 C 1051.72 0.3052 4.42248 0
M  V30 11418 H 1048.94 0.198231 0.64105 0
M  V30 11419 H 1051.49 1.18472 1.66687 0
M  V30 11420 H 1049.64 0.0461066 3.87373 0
M  V30 11421 H 1050.06 2.04202 4.83117 0
M  V30 11422 H 1051.53 0.468095 5.50012 0
M  V30 11423 H 1052.01 -0.756456 4.32637 0
M  V30 11424 H 1052.61 0.906959 4.15517 0
M  V30 11425 N 1050.93 -1.4397 0.641131 0
M  V30 11426 C 1051.88 -2.30728 -0.0577905 0
M  V30 11427 C 1052.85 -1.44059 -0.826819 0
M  V30 11428 O 1054.03 -1.72947 -0.805853 0
M  V30 11429 C 1051.17 -3.29478 -1.02657 0
M  V30 11430 C 1050.28 -4.31247 -0.254913 0
M  V30 11431 C 1049.42 -5.17085 -1.2164 0
M  V30 11432 C 1048.46 -6.10556 -0.434481 0
M  V30 11433 N 1047.6 -6.89059 -1.34694 0
M  V30 11434 H 1052.44 -2.8995 0.687953 0
M  V30 11435 H 1049.97 -1.4285 0.351029 0
M  V30 11436 H 1051.93 -3.85228 -1.60173 0
M  V30 11437 H 1050.56 -2.71932 -1.73933 0
M  V30 11438 H 1049.61 -3.77889 0.436338 0
M  V30 11439 H 1050.92 -4.97545 0.353642 0
M  V30 11440 H 1050.08 -5.77402 -1.86258 0
M  V30 11441 H 1048.82 -4.50885 -1.85888 0
M  V30 11442 H 1047.82 -5.49339 0.225125 0
M  V30 11443 H 1049.05 -6.78795 0.203415 0
M  V30 11444 H 1046.99 -6.25518 -1.97644 0
M  V30 11445 H 1046.91 -7.51833 -0.792657 0
M  V30 11446 H 1048.18 -7.5389 -1.98165 0
M  V30 11447 N 1052.41 -0.382291 -1.52893 0
M  V30 11448 C 1053.37 0.44408 -2.24857 0
M  V30 11449 C 1054.37 0.996004 -1.26239 0
M  V30 11450 O 1055.56 0.879114 -1.5039 0
M  V30 11451 C 1052.69 1.62234 -2.99822 0
M  V30 11452 H 1053.89 -0.185862 -2.99324 0
M  V30 11453 H 1051.44 -0.134275 -1.55722 0
M  V30 11454 H 1052.17 2.28991 -2.29638 0
M  V30 11455 H 1051.96 1.23336 -3.72197 0
M  V30 11456 H 1053.45 2.20756 -3.54481 0
M  V30 11457 N 1053.89 1.57202 -0.111913 0
M  V30 11458 C 1055.3 1.57713 0.244702 0
M  V30 11459 C 1055.5 1.12419 1.67225 0
M  V30 11460 O 1054.56 0.808329 2.39212 0
M  V30 11461 C 1055.87 3.00695 0.0178289 0
M  V30 11462 C 1057.42 3.12887 0.0842781 0
M  V30 11463 C 1057.89 4.57856 -0.114812 0
M  V30 11464 N 1059.38 4.6316 -0.0605423 0
M  V30 11465 C 1060.12 5.73086 -0.189594 0
M  V30 11466 N 1059.62 6.91787 -0.37442 0
M  V30 11467 N 1061.41 5.6195 -0.12967 0
M  V30 11468 H 1053.56 1.84947 -1.04443 0
M  V30 11469 H 1055.82 0.854418 -0.4107 0
M  V30 11470 H 1055.53 3.38093 -0.968802 0
M  V30 11471 H 1055.4 3.69611 0.752815 0
M  V30 11472 H 1057.79 2.7535 1.06143 0
M  V30 11473 H 1057.87 2.46528 -0.682474 0
M  V30 11474 H 1057.51 4.9609 -1.0889 0
M  V30 11475 H 1057.44 5.22297 0.671839 0
M  V30 11476 H 1059.94 3.77817 0.0790856 0
M  V30 11477 H 1060.25 7.71406 -0.463948 0
M  V30 11478 H 1058.59 6.93788 -0.410303 0
M  V30 11479 H 1061.78 4.68098 0.0137115 0
M  V30 11480 H 1061.96 6.47578 -0.233688 0
M  V30 11481 N 1055.36 -0.161842 1.56767 0
M  V30 11482 C 1056.29 -1.20226 2.0017 0
M  V30 11483 C 1057.27 -1.4564 0.878807 0
M  V30 11484 O 1058.46 -1.56813 1.14557 0
M  V30 11485 C 1055.59 -2.53897 2.36968 0
M  V30 11486 C 1054.54 -2.43033 3.52305 0
M  V30 11487 C 1053.87 -3.81281 3.74872 0
M  V30 11488 C 1055.17 -1.927 4.85453 0
M  V30 11489 H 1056.86 -0.84142 2.87333 0
M  V30 11490 H 1054.41 -0.403309 1.38237 0
M  V30 11491 H 1056.36 -3.26893 2.6593 0
M  V30 11492 H 1055.09 -2.91787 1.46724 0
M  V30 11493 H 1053.75 -1.7249 3.23485 0
M  V30 11494 H 1053.39 -4.1658 2.81904 0
M  V30 11495 H 1053.09 -3.74877 4.52483 0
M  V30 11496 H 1054.62 -4.55848 4.06245 0
M  V30 11497 H 1056.03 -2.55477 5.13229 0
M  V30 11498 H 1054.43 -1.97222 5.66766 0
M  V30 11499 H 1055.5 -0.881816 4.76814 0
M  V30 11500 N 1056.84 -1.516 -0.430713 0
M  V30 11501 C 1057.8 -1.72794 -1.50582 0
M  V30 11502 C 1058.8 -0.597903 -1.49271 0
M  V30 11503 O 1059.99 -0.865535 -1.51176 0
M  V30 11504 C 1057.13 -1.79049 -2.90093 0
M  V30 11505 H 1058.32 -2.68751 -1.33091 0
M  V30 11506 H 1055.87 -1.4169 -0.659822 0
M  V30 11507 H 1056.61 -0.849309 -3.12981 0
M  V30 11508 H 1056.39 -2.61181 -2.92449 0
M  V30 11509 H 1057.88 -1.97262 -3.68072 0
M  V30 11510 N 1058.32 0.686584 -1.41858 0
M  V30 11511 C 1059.6 1.44176 -1.32185 0
M  V30 11512 C 1059.98 2.11049 0.046362 0
M  V30 11513 O 1059.32 2.02365 1.06117 0
M  V30 11514 C 1059.53 2.45385 -2.48168 0
M  V30 11515 C 1060.88 3.10375 -2.89746 0
M  V30 11516 O 1061.91 2.55711 -2.47973 0
M  V30 11517 O 1060.77 4.09404 -3.62009 0
M  V30 11518 H 1057.86 0.642513 -0.520678 0
M  V30 11519 H 1060.41 0.716303 -1.53841 0
M  V30 11520 H 1059.18 1.94687 -3.3943 0
M  V30 11521 H 1058.8 3.25428 -2.28435 0
M  V30 11522 N 1059.8 1.27835 0.921735 0
M  V30 11523 C 1060.74 1.11075 2.02314 0
M  V30 11524 C 1061.71 0.0101195 1.66097 0
M  V30 11525 O 1062.9 0.173564 1.90009 0
M  V30 11526 C 1060.04 0.770251 3.36394 0
M  V30 11527 C 1059.15 1.94912 3.8553 0
M  V30 11528 C 1058.29 1.54996 5.08084 0
M  V30 11529 C 1057.33 2.69595 5.49531 0
M  V30 11530 N 1056.46 2.30227 6.6328 0
M  V30 11531 H 1061.3 2.05319 2.15982 0
M  V30 11532 H 1058.84 1.022 1.058 0
M  V30 11533 H 1060.8 0.553624 4.1351 0
M  V30 11534 H 1059.43 -0.135238 3.22517 0
M  V30 11535 H 1058.48 2.27811 3.04641 0
M  V30 11536 H 1059.79 2.80858 4.12214 0
M  V30 11537 H 1058.95 1.29493 5.9272 0
M  V30 11538 H 1057.69 0.661676 4.83191 0
M  V30 11539 H 1056.69 2.95806 4.63442 0
M  V30 11540 H 1057.92 3.59054 5.76417 0
M  V30 11541 H 1055.86 1.43858 6.40032 0
M  V30 11542 H 1055.78 3.09711 6.89649 0
M  V30 11543 H 1057.05 2.07987 7.5124 0
M  V30 11544 N 1061.28 -1.12907 1.09954 0
M  V30 11545 C 1062.22 -2.20561 0.73863 0
M  V30 11546 C 1063.22 -1.67347 -0.262944 0
M  V30 11547 O 1064.42 -1.79574 -0.123834 0
M  V30 11548 H 1060.8 -0.718823 0.220901 0
M  V30 11549 H 1062.77 -2.4826 1.65559 0
M  V30 11550 C 1061.52 -3.47227 0.181239 0
M  V30 11551 H 1060.84 -3.88516 0.943144 0
M  V30 11552 H 1062.28 -4.23987 -0.0332888 0
M  V30 11553 C 1060.74 -3.18956 -1.08485 0
M  V30 11554 O 1061.27 -3.38224 -2.1672 0
M  V30 11555 N 1059.48 -2.72797 -1.00151 0
M  V30 11556 H 1059.02 -2.57317 -0.120645 0
M  V30 11557 H 1058.98 -2.54256 -1.84935 0
M  V30 11558 N 1062.75 -0.88754 -1.30232 0
M  V30 11559 C 1063.7 -0.354497 -2.28061 0
M  V30 11560 C 1064.67 0.556732 -1.56492 0
M  V30 11561 O 1065.86 0.484597 -1.84543 0
M  V30 11562 C 1063 0.422701 -3.42501 0
M  V30 11563 C 1062.11 -0.518036 -4.28883 0
M  V30 11564 C 1061.24 0.275011 -5.30488 0
M  V30 11565 C 1060.28 -0.661032 -6.0852 0
M  V30 11566 N 1059.42 0.0968509 -7.02033 0
M  V30 11567 H 1064.26 -1.19388 -2.73039 0
M  V30 11568 H 1061.8 -0.600091 -1.34303 0
M  V30 11569 H 1063.75 0.889249 -4.07613 0
M  V30 11570 H 1062.38 1.22664 -2.98586 0
M  V30 11571 H 1061.44 -1.10308 -3.64055 0
M  V30 11572 H 1062.75 -1.23504 -4.83268 0
M  V30 11573 H 1061.9 0.803301 -6.01358 0
M  V30 11574 H 1060.64 1.02522 -4.76802 0
M  V30 11575 H 1059.65 -1.20093 -5.36524 0
M  V30 11576 H 1060.87 -1.41037 -6.64293 0
M  V30 11577 H 1058.82 0.829548 -6.50734 0
M  V30 11578 H 1058.73 -0.560476 -7.5392 0
M  V30 11579 H 1060 0.6058 -7.77142 0
M  V30 11580 N 1064.23 1.43628 -0.648757 0
M  V30 11581 C 1065.48 2.01083 -0.157692 0
M  V30 11582 C 1065.79 1.51756 1.23408 0
M  V30 11583 O 1067 2.01455 1.82012 0
M  V30 11584 C 1065.46 3.59157 -0.231118 0
M  V30 11585 C 1065.06 4.17478 -1.6253 0
M  V30 11586 C 1066.81 4.24016 0.202573 0
M  V30 11587 C 1064.72 5.67832 -1.6529 0
M  V30 11588 H 1063.65 0.751977 -0.0551897 0
M  V30 11589 H 1066.3 1.64648 -0.810139 0
M  V30 11590 H 1064.68 3.92972 0.488755 0
M  V30 11591 H 1065.85 3.9517 -2.37017 0
M  V30 11592 H 1064.17 3.64973 -2.00459 0
M  V30 11593 H 1066.76 5.34319 0.20174 0
M  V30 11594 H 1067.11 3.97616 1.23319 0
M  V30 11595 H 1067.64 3.95068 -0.465398 0
M  V30 11596 H 1064.38 5.98994 -2.66246 0
M  V30 11597 H 1063.9 5.92209 -0.951217 0
M  V30 11598 H 1065.58 6.3179 -1.39465 0
M  V30 11599 N 1065.71 0.390394 1.52688 0
M  V30 11600 C 1066.94 -0.191207 2.05713 0
M  V30 11601 C 1067.35 -1.40973 1.26188 0
M  V30 11602 O 1066.69 -1.81202 0.301938 0
M  V30 11603 C 1066.75 -0.624794 3.54029 0
M  V30 11604 C 1066.42 0.480413 4.54468 0
M  V30 11605 C 1067.41 1.33816 5.02384 0
M  V30 11606 C 1065.1 0.647754 4.98106 0
M  V30 11607 C 1067.09 2.34836 5.92563 0
M  V30 11608 C 1064.78 1.66129 5.88085 0
M  V30 11609 C 1065.78 2.51001 6.35206 0
M  V30 11610 O 1065.47 3.50622 7.23408 0
M  V30 11611 H 1065.2 -0.032221 0.675232 0
M  V30 11612 H 1067.75 0.554431 1.97776 0
M  V30 11613 H 1065.98 -1.42243 3.59589 0
M  V30 11614 H 1067.67 -1.13219 3.8979 0
M  V30 11615 H 1068.44 1.22019 4.694 0
M  V30 11616 H 1064.32 -0.00314511 4.61 0
M  V30 11617 H 1067.86 3.01117 6.29265 0
M  V30 11618 H 1063.76 1.77964 6.20483 0
M  V30 11619 H 1064.53 3.46644 7.41472 0
M  V30 11620 N 1067.19 -1.57141 0.120249 0
M  V30 11621 C 1068.1 -2.18925 -0.843155 0
M  V30 11622 C 1069.11 -1.16575 -1.29175 0
M  V30 11623 O 1070.29 -1.4905 -1.35448 0
M  V30 11624 C 1067.36 -2.7775 -2.075 0
M  V30 11625 C 1066.42 -3.95139 -1.6782 0
M  V30 11626 C 1065.65 -4.51149 -2.85132 0
M  V30 11627 O 1065.87 -4.06056 -4.00593 0
M  V30 11628 O 1064.81 -5.41815 -2.62145 0
M  V30 11629 H 1068.63 -3.01707 -0.347357 0
M  V30 11630 H 1066.22 -1.49028 -0.105427 0
M  V30 11631 H 1068.1 -3.15243 -2.79643 0
M  V30 11632 H 1066.77 -1.97998 -2.56083 0
M  V30 11633 H 1065.68 -3.62412 -0.927807 0
M  V30 11634 H 1067.01 -4.7633 -1.23977 0
M  V30 11635 N 1068.67 0.153526 -1.5685 0
M  V30 11636 C 1069.89 0.886343 -1.87507 0
M  V30 11637 C 1070.32 1.74244 -0.708565 0
M  V30 11638 O 1069.67 1.78045 0.341997 0
M  V30 11639 C 1069.72 1.72428 -3.16703 0
M  V30 11640 O 1068.83 2.82784 -3.00178 0
M  V30 11641 H 1068.17 0.247259 -0.616246 0
M  V30 11642 H 1070.7 0.146306 -2.04076 0
M  V30 11643 H 1070.71 2.12062 -3.4856 0
M  V30 11644 H 1069.38 1.09558 -4.01211 0
M  V30 11645 H 1067.96 2.46604 -2.79716 0
M  V30 11646 N 1070.14 1.51827 0.422667 0
M  V30 11647 C 1071.39 1.6445 1.16786 0
M  V30 11648 C 1071.71 0.373792 1.91995 0
M  V30 11649 O 1072.91 0.379621 2.68833 0
M  V30 11650 C 1071.37 2.90488 2.12473 0
M  V30 11651 C 1070.98 4.24617 1.42844 0
M  V30 11652 C 1072.72 3.12472 2.87335 0
M  V30 11653 C 1070.63 5.41791 2.371 0
M  V30 11654 H 1069.56 0.612561 0.439641 0
M  V30 11655 H 1072.21 1.78305 0.433534 0
M  V30 11656 H 1070.59 2.703 2.89402 0
M  V30 11657 H 1071.76 4.55239 0.71372 0
M  V30 11658 H 1070.08 4.08628 0.800769 0
M  V30 11659 H 1072.68 3.9719 3.57973 0
M  V30 11660 H 1073.02 2.26148 3.49518 0
M  V30 11661 H 1073.55 3.33069 2.17509 0
M  V30 11662 H 1070.29 6.3042 1.79584 0
M  V30 11663 H 1069.81 5.15526 3.06583 0
M  V30 11664 H 1071.49 5.74329 2.97918 0
M  V30 11665 N 1071.62 -0.679052 1.4222 0
M  V30 11666 C 1072.53 -1.82221 1.47759 0
M  V30 11667 C 1073.55 -1.70092 0.3667 0
M  V30 11668 O 1074.72 -1.91718 0.616957 0
M  V30 11669 C 1071.79 -3.18332 1.37351 0
M  V30 11670 C 1070.85 -3.42449 2.58896 0
M  V30 11671 C 1070.08 -4.72067 2.48976 0
M  V30 11672 O 1070.31 -5.49683 1.5233 0
M  V30 11673 O 1069.24 -4.97333 3.39033 0
M  V30 11674 H 1073.07 -1.80504 2.44238 0
M  V30 11675 H 1070.65 -0.834251 1.23938 0
M  V30 11676 H 1072.53 -3.99563 1.33893 0
M  V30 11677 H 1071.21 -3.20696 0.439965 0
M  V30 11678 H 1070.12 -2.61083 2.6793 0
M  V30 11679 H 1071.45 -3.44912 3.51136 0
M  V30 11680 N 1073.1 -1.28322 -0.914942 0
M  V30 11681 C 1074.01 -1.13993 -2.05043 0
M  V30 11682 C 1075.03 -0.0667921 -1.73872 0
M  V30 11683 O 1076.2 -0.275845 -1.99502 0
M  V30 11684 C 1073.27 -0.801856 -3.373 0
M  V30 11685 C 1072.33 -1.95723 -3.82088 0
M  V30 11686 C 1071.56 -1.63519 -5.08033 0
M  V30 11687 O 1071.78 -0.54899 -5.67752 0
M  V30 11688 O 1070.72 -2.47844 -5.48504 0
M  V30 11689 H 1074.54 -2.09313 -2.2005 0
M  V30 11690 H 1072.13 -1.0763 -1.03616 0
M  V30 11691 H 1074.01 -0.627214 -4.16706 0
M  V30 11692 H 1072.69 0.121696 -3.23471 0
M  V30 11693 H 1071.59 -2.18702 -3.03514 0
M  V30 11694 H 1072.93 -2.86144 -4.00478 0
M  V30 11695 N 1074.58 1.12322 -1.10551 0
M  V30 11696 C 1075.54 2.16273 -0.758844 0
M  V30 11697 C 1076.54 1.59325 0.217294 0
M  V30 11698 O 1077.73 1.74199 -0.00601346 0
M  V30 11699 C 1074.86 3.40674 -0.124238 0
M  V30 11700 H 1076.06 2.48454 -1.6796 0
M  V30 11701 H 1073.61 1.2735 -0.906188 0
M  V30 11702 H 1074.34 3.14094 0.807194 0
M  V30 11703 H 1074.13 3.83284 -0.826772 0
M  V30 11704 H 1075.62 4.17474 0.102502 0
M  V30 11705 N 1076.06 0.894434 1.2976 0
M  V30 11706 C 1077 0.366586 2.2787 0
M  V30 11707 C 1077.97 -0.548425 1.56785 0
M  V30 11708 O 1079.16 -0.474804 1.84798 0
M  V30 11709 C 1076.3 -0.404531 3.42721 0
M  V30 11710 C 1075.41 0.540774 4.28602 0
M  V30 11711 C 1074.55 -0.246875 5.30626 0
M  V30 11712 C 1073.59 0.693294 6.08161 0
M  V30 11713 N 1072.72 -0.059619 7.02075 0
M  V30 11714 H 1077.56 1.20834 2.72402 0
M  V30 11715 H 1075.1 0.607205 1.33983 0
M  V30 11716 H 1077.06 -0.86762 4.08079 0
M  V30 11717 H 1075.69 -1.21078 2.99232 0
M  V30 11718 H 1074.74 1.12237 3.63465 0
M  V30 11719 H 1076.05 1.26065 4.82606 0
M  V30 11720 H 1075.21 -0.771398 6.01776 0
M  V30 11721 H 1073.94 -0.999918 4.77339 0
M  V30 11722 H 1072.95 1.22936 5.35879 0
M  V30 11723 H 1074.17 1.44558 6.63536 0
M  V30 11724 H 1072.12 -0.795026 6.51165 0
M  V30 11725 H 1072.04 0.60045 7.53612 0
M  V30 11726 H 1073.31 -0.564577 7.77453 0
M  V30 11727 N 1077.53 -1.43282 0.656365 0
M  V30 11728 C 1078.76 -2.06641 0.177245 0
M  V30 11729 C 1079.18 -1.48893 -1.14946 0
M  V30 11730 O 1078.54 -0.600099 -1.7108 0
M  V30 11731 C 1078.59 -3.60453 0.10299 0
M  V30 11732 O 1077.69 -4.01687 -0.933895 0
M  V30 11733 H 1077.04 -0.656978 0.096314 0
M  V30 11734 H 1079.57 -1.83733 0.900178 0
M  V30 11735 H 1079.58 -4.07923 -0.079291 0
M  V30 11736 H 1078.25 -4.01861 1.07147 0
M  V30 11737 H 1076.83 -3.65801 -0.724148 0
M  V30 11738 N 1079.01 -0.398486 -1.52479 0
M  V30 11739 C 1079.92 0.439328 -2.3045 0
M  V30 11740 C 1080.94 1.06322 -1.37738 0
M  V30 11741 O 1082.12 1.06704 -1.7081 0
M  V30 11742 C 1079.18 1.54655 -3.10294 0
M  V30 11743 C 1078.24 0.946824 -4.18729 0
M  V30 11744 C 1077.47 2.00129 -4.94757 0
M  V30 11745 O 1077.7 3.2178 -4.70971 0
M  V30 11746 O 1076.63 1.61345 -5.79872 0
M  V30 11747 H 1080.46 -0.196118 -3.03066 0
M  V30 11748 H 1078.04 -0.161961 -1.4852 0
M  V30 11749 H 1079.92 2.18958 -3.60049 0
M  V30 11750 H 1078.6 2.1668 -2.40482 0
M  V30 11751 H 1077.51 0.266802 -3.73147 0
M  V30 11752 H 1078.84 0.370664 -4.90802 0
M  V30 11753 N 1080.49 1.57075 -0.12858 0
M  V30 11754 C 1081.45 2.14643 0.803813 0
M  V30 11755 C 1082.45 1.08363 1.18803 0
M  V30 11756 O 1083.64 1.34093 1.11197 0
M  V30 11757 C 1080.78 2.6945 2.08829 0
M  V30 11758 H 1081.97 2.98362 0.303347 0
M  V30 11759 H 1079.52 1.55833 0.120735 0
M  V30 11760 H 1080.26 1.89345 2.63285 0
M  V30 11761 H 1080.04 3.47187 1.82218 0
M  V30 11762 H 1081.53 3.13865 2.7546 0
M  V30 11763 N 1081.97 -0.145205 1.5693 0
M  V30 11764 C 1082.9 -1.20881 1.93553 0
M  V30 11765 C 1083.88 -1.41467 0.801612 0
M  V30 11766 O 1085.06 -1.5605 1.05739 0
M  V30 11767 C 1082.19 -2.5674 2.20912 0
M  V30 11768 C 1081.24 -2.52738 3.43549 0
M  V30 11769 S 1082.07 -1.99257 4.97048 0
M  V30 11770 C 1083.23 -3.36842 5.27531 0
M  V30 11771 H 1083.46 -0.896362 2.83465 0
M  V30 11772 H 1080.99 -0.350894 1.5036 0
M  V30 11773 H 1082.95 -3.34923 2.37354 0
M  V30 11774 H 1081.61 -2.85174 1.31661 0
M  V30 11775 H 1080.8 -3.52753 3.59974 0
M  V30 11776 H 1080.41 -1.82665 3.26358 0
M  V30 11777 H 1082.7 -4.32958 5.21108 0
M  V30 11778 H 1083.64 -3.25268 6.28973 0
M  V30 11779 H 1084.05 -3.3406 4.55043 0
M  V30 11780 N 1083.45 -1.52049 -0.414609 0
M  V30 11781 C 1084.39 -1.74998 -1.5048 0
M  V30 11782 C 1085.36 -0.592251 -1.55182 0
M  V30 11783 O 1086.55 -0.829203 -1.7184 0
M  V30 11784 C 1083.69 -1.90157 -2.87983 0
M  V30 11785 C 1082.8 -3.17789 -2.92633 0
M  V30 11786 C 1081.94 -3.23411 -4.21401 0
M  V30 11787 C 1080.98 -4.45267 -4.20004 0
M  V30 11788 N 1080.11 -4.48312 -5.40334 0
M  V30 11789 H 1084.95 -2.68046 -1.30212 0
M  V30 11790 H 1082.49 -1.32824 -0.632154 0
M  V30 11791 H 1084.45 -1.96929 -3.67797 0
M  V30 11792 H 1083.08 -1.00496 -3.06758 0
M  V30 11793 H 1082.13 -3.20216 -2.05343 0
M  V30 11794 H 1083.44 -4.07634 -2.87465 0
M  V30 11795 H 1082.6 -3.29224 -5.09604 0
M  V30 11796 H 1081.34 -2.31495 -4.29257 0
M  V30 11797 H 1080.34 -4.39606 -3.30192 0
M  V30 11798 H 1081.57 -5.38472 -4.13793 0
M  V30 11799 H 1079.51 -3.59277 -5.48868 0
M  V30 11800 H 1079.43 -5.31994 -5.37139 0
M  V30 11801 H 1080.7 -4.58347 -6.30506 0
M  V30 11802 N 1084.93 0.6715 -1.42579 0
M  V30 11803 C 1085.84 1.81435 -1.48723 0
M  V30 11804 C 1086.85 1.69895 -0.375716 0
M  V30 11805 O 1088.03 1.91388 -0.627115 0
M  V30 11806 C 1085.09 3.17599 -1.39038 0
M  V30 11807 C 1084.15 3.41071 -2.60709 0
M  V30 11808 C 1083.39 4.7074 -2.51476 0
M  V30 11809 O 1083.61 5.48868 -1.55243 0
M  V30 11810 O 1082.54 4.95528 -3.41666 0
M  V30 11811 H 1086.37 1.79206 -2.45191 0
M  V30 11812 H 1083.95 0.827666 -1.24379 0
M  V30 11813 H 1085.84 3.98847 -1.3601 0
M  V30 11814 H 1084.51 3.20458 -0.456966 0
M  V30 11815 H 1083.42 2.59659 -2.69311 0
M  V30 11816 H 1084.75 3.43045 -3.5296 0
M  V30 11817 N 1086.4 1.28806 0.908124 0
M  V30 11818 C 1087.34 1.07538 2.01273 0
M  V30 11819 C 1088.31 -0.0102454 1.62597 0
M  V30 11820 O 1089.5 0.138797 1.87988 0
M  V30 11821 C 1086.63 0.635337 3.32688 0
M  V30 11822 C 1085.67 1.71843 3.90349 0
M  V30 11823 S 1086.5 3.31571 4.20501 0
M  V30 11824 C 1087.66 2.89416 5.54968 0
M  V30 11825 H 1087.89 2.01058 2.19005 0
M  V30 11826 H 1085.43 1.12857 1.05369 0
M  V30 11827 H 1087.38 0.388159 4.08661 0
M  V30 11828 H 1086.05 -0.280122 3.12848 0
M  V30 11829 H 1085.24 1.36228 4.8524 0
M  V30 11830 H 1084.84 1.91869 3.21033 0
M  V30 11831 H 1087.13 2.35936 6.35091 0
M  V30 11832 H 1088.08 3.83126 5.955 0
M  V30 11833 H 1088.48 2.27962 5.16424 0
M  V30 11834 N 1087.88 -1.11734 1.11145 0
M  V30 11835 C 1088.79 -2.21267 0.779607 0
M  V30 11836 C 1089.81 -1.72526 -0.225986 0
M  V30 11837 O 1090.98 -2.01302 -0.0629166 0
M  V30 11838 C 1088.05 -3.45973 0.22435 0
M  V30 11839 C 1087.11 -4.09518 1.28816 0
M  V30 11840 C 1086.34 -5.28271 0.7593 0
M  V30 11841 O 1086.57 -5.68912 -0.411725 0
M  V30 11842 O 1085.5 -5.82322 1.52266 0
M  V30 11843 H 1089.33 -2.5206 1.6941 0
M  V30 11844 H 1086.91 -1.20211 0.887115 0
M  V30 11845 H 1088.79 -4.21322 -0.0810921 0
M  V30 11846 H 1087.47 -3.1684 -0.662891 0
M  V30 11847 H 1086.37 -3.35915 1.64657 0
M  V30 11848 H 1087.71 -4.42824 2.14868 0
M  V30 11849 N 1089.36 -0.901303 -1.29284 0
M  V30 11850 C 1090.31 -0.378666 -2.27672 0
M  V30 11851 C 1091.28 0.540102 -1.57074 0
M  V30 11852 O 1092.46 0.464997 -1.85047 0
M  V30 11853 C 1089.6 0.38635 -3.42931 0
M  V30 11854 C 1088.71 -0.563496 -4.28309 0
M  V30 11855 C 1087.85 0.218731 -5.30749 0
M  V30 11856 C 1086.89 -0.725536 -6.07785 0
M  V30 11857 N 1086.03 0.0223854 -7.02096 0
M  V30 11858 H 1090.87 -1.22277 -2.71758 0
M  V30 11859 H 1088.4 -0.614302 -1.33659 0
M  V30 11860 H 1090.36 0.845967 -4.08533 0
M  V30 11861 H 1088.99 1.1949 -2.9987 0
M  V30 11862 H 1088.04 -1.14163 -3.62865 0
M  V30 11863 H 1089.35 -1.28623 -4.81931 0
M  V30 11864 H 1088.51 0.739473 -6.02177 0
M  V30 11865 H 1087.25 0.97459 -4.77863 0
M  V30 11866 H 1086.25 -1.25776 -5.3522 0
M  V30 11867 H 1087.48 -1.48075 -6.6276 0
M  V30 11868 H 1085.42 0.760482 -6.51577 0
M  V30 11869 H 1085.34 -0.640408 -7.53283 0
M  V30 11870 H 1086.61 0.523339 -7.77741 0
M  V30 11871 N 1090.84 1.42931 -0.663954 0
M  V30 11872 C 1091.78 2.3079 0.0210764 0
M  V30 11873 C 1092.75 1.45356 0.803796 0
M  V30 11874 O 1093.94 1.74207 0.778237 0
M  V30 11875 C 1091.08 3.31069 0.974023 0
M  V30 11876 C 1090.19 4.31598 0.186273 0
M  V30 11877 C 1089.33 5.18955 1.13399 0
M  V30 11878 C 1088.37 6.1117 0.337292 0
M  V30 11879 N 1087.5 6.91114 1.23715 0
M  V30 11880 H 1092.34 2.88819 -0.733995 0
M  V30 11881 H 1089.88 1.42274 -0.373711 0
M  V30 11882 H 1091.84 3.87727 1.54024 0
M  V30 11883 H 1090.47 2.74665 1.69585 0
M  V30 11884 H 1089.52 3.77147 -0.496402 0
M  V30 11885 H 1090.83 4.96919 -0.432753 0
M  V30 11886 H 1089.99 5.80292 1.77049 0
M  V30 11887 H 1088.73 4.53785 1.78691 0
M  V30 11888 H 1087.73 5.48911 -0.312492 0
M  V30 11889 H 1088.96 6.78386 -0.31138 0
M  V30 11890 H 1086.9 6.28583 1.87668 0
M  V30 11891 H 1086.82 7.52999 0.672946 0
M  V30 11892 H 1088.09 7.56948 1.86146 0
M  V30 11893 N 1092.32 0.406567 1.52266 0
M  V30 11894 C 1093.25 -0.411314 2.29849 0
M  V30 11895 C 1094.23 -1.04838 1.33952 0
M  V30 11896 O 1095.41 -1.05788 1.62857 0
M  V30 11897 C 1092.54 -1.52961 3.11802 0
M  V30 11898 C 1091.5 -1.01768 4.15725 0
M  V30 11899 C 1090.82 -2.22938 4.86007 0
M  V30 11900 C 1092.12 -0.073515 5.22248 0
M  V30 11901 H 1093.82 0.236054 2.98468 0
M  V30 11902 H 1091.36 0.114968 1.4354 0
M  V30 11903 H 1093.31 -2.10874 3.64843 0
M  V30 11904 H 1092.04 -2.20482 2.40947 0
M  V30 11905 H 1090.7 -0.46097 3.6369 0
M  V30 11906 H 1090.35 -2.89007 4.11684 0
M  V30 11907 H 1090.05 -1.89338 5.5626 0
M  V30 11908 H 1091.57 -2.81462 5.41859 0
M  V30 11909 H 1092.98 -0.561367 5.70545 0
M  V30 11910 H 1091.38 0.173551 5.99849 0
M  V30 11911 H 1092.45 0.872524 4.76985 0
M  V30 11912 N 1093.79 -1.57004 0.136909 0
M  V30 11913 C 1094.72 -2.19262 -0.802902 0
M  V30 11914 C 1095.71 -1.13786 -1.26439 0
M  V30 11915 O 1096.89 -1.42091 -1.32377 0
M  V30 11916 C 1094.02 -2.80624 -2.04615 0
M  V30 11917 C 1092.97 -3.91839 -1.72181 0
M  V30 11918 C 1092.3 -4.4009 -3.03686 0
M  V30 11919 C 1093.6 -5.13095 -0.976249 0
M  V30 11920 H 1095.29 -2.98049 -0.28406 0
M  V30 11921 H 1092.84 -1.43364 -0.135189 0
M  V30 11922 H 1094.79 -3.22842 -2.70834 0
M  V30 11923 H 1093.52 -1.99153 -2.58855 0
M  V30 11924 H 1092.18 -3.50224 -1.08344 0
M  V30 11925 H 1091.82 -3.55454 -3.55896 0
M  V30 11926 H 1091.52 -5.15098 -2.82751 0
M  V30 11927 H 1093.05 -4.84971 -3.70993 0
M  V30 11928 H 1094.46 -5.5222 -1.54033 0
M  V30 11929 H 1092.86 -5.93801 -0.867214 0
M  V30 11930 H 1093.93 -4.84888 0.0338488 0
M  V30 11931 N 1095.27 0.136881 -1.57004 0
M  V30 11932 C 1096.18 1.18793 -2.023 0
M  V30 11933 C 1097.2 1.46412 -0.94018 0
M  V30 11934 O 1098.37 1.57883 -1.2504 0
M  V30 11935 C 1095.44 2.49903 -2.40311 0
M  V30 11936 C 1094.5 2.29841 -3.6259 0
M  V30 11937 C 1093.73 3.54699 -3.98779 0
M  V30 11938 O 1093.96 4.61291 -3.3551 0
M  V30 11939 O 1092.89 3.46761 -4.91976 0
M  V30 11940 H 1096.72 0.833345 -2.92043 0
M  V30 11941 H 1094.3 0.346361 -1.4533 0
M  V30 11942 H 1096.18 3.27183 -2.65574 0
M  V30 11943 H 1094.86 2.84872 -1.5372 0
M  V30 11944 H 1093.77 1.50478 -3.42501 0
M  V30 11945 H 1095.1 1.99784 -4.4983 0
M  V30 11946 N 1096.75 1.52266 0.40654 0
M  V30 11947 C 1097.66 1.78688 1.52012 0
M  V30 11948 C 1098.68 0.6726 1.60475 0
M  V30 11949 O 1099.85 0.95829 1.77141 0
M  V30 11950 C 1096.92 1.93434 2.87722 0
M  V30 11951 C 1095.98 3.17341 2.89125 0
M  V30 11952 C 1095.21 3.31374 4.18362 0
M  V30 11953 O 1095.43 2.50613 5.12396 0
M  V30 11954 O 1094.37 4.24539 4.26674 0
M  V30 11955 H 1098.19 2.73213 1.3262 0
M  V30 11956 H 1095.78 1.37142 0.592653 0
M  V30 11957 H 1097.66 2.04941 3.68208 0
M  V30 11958 H 1096.34 1.02099 3.07177 0
M  V30 11959 H 1095.24 3.1129 2.07483 0
M  V30 11960 H 1096.58 4.08466 2.7462 0
M  V30 11961 N 1098.23 -0.663929 1.42933 0
M  V30 11962 C 1099.64 -0.978346 1.26097 0
M  V30 11963 C 1099.84 -2.00756 0.172968 0
M  V30 11964 O 1098.9 -2.48418 -0.452184 0
M  V30 11965 C 1100.21 -1.4728 2.62162 0
M  V30 11966 C 1101.76 -1.59001 2.69606 0
M  V30 11967 C 1102.24 -2.1184 4.06064 0
M  V30 11968 N 1103.73 -2.19158 4.08074 0
M  V30 11969 C 1104.46 -2.61141 5.10483 0
M  V30 11970 N 1103.96 -3.02498 6.23271 0
M  V30 11971 N 1105.75 -2.60986 4.97838 0
M  V30 11972 H 1097.9 0.0173096 2.12393 0
M  V30 11973 H 1100.17 -0.0548116 0.946414 0
M  V30 11974 H 1099.87 -0.791008 3.42689 0
M  V30 11975 H 1099.75 -2.4497 2.86827 0
M  V30 11976 H 1102.13 -2.26284 1.89418 0
M  V30 11977 H 1102.21 -0.597728 2.48718 0
M  V30 11978 H 1101.86 -1.45162 4.86714 0
M  V30 11979 H 1101.79 -3.1188 4.2431 0
M  V30 11980 H 1104.28 -1.90013 3.26655 0
M  V30 11981 H 1104.59 -3.33251 6.97254 0
M  V30 11982 H 1102.94 -3.00328 6.2676 0
M  V30 11983 H 1106.13 -2.28046 4.08794 0
M  V30 11984 H 1106.3 -2.93384 5.7778 0
M  V30 11985 N 1099.71 -1.29285 -0.901281 0
M  V30 11986 C 1100.93 -1.20048 -1.68511 0
M  V30 11987 C 1101.35 0.239128 -1.8728 0
M  V30 11988 O 1100.71 1.16027 -1.40869 0
M  V30 11989 C 1100.76 -1.90798 -3.07048 0
M  V30 11990 O 1100.48 -3.29137 -2.89138 0
M  V30 11991 C 1101.98 -1.88017 -4.01453 0
M  V30 11992 H 1099.2 -0.416157 -0.52636 0
M  V30 11993 H 1101.74 -1.7063 -1.12719 0
M  V30 11994 H 1099.9 -1.44055 -3.5962 0
M  V30 11995 H 1100.31 -3.64747 -3.76908 0
M  V30 11996 H 1101.79 -2.42088 -4.96082 0
M  V30 11997 H 1102.26 -0.855341 -4.30791 0
M  V30 11998 H 1102.87 -2.34497 -3.54812 0
M  V30 11999 N 1101.18 1.11143 -1.11736 0
M  V30 12000 C 1102.11 2.19339 -0.800795 0
M  V30 12001 C 1103.1 1.68508 0.23221 0
M  V30 12002 O 1104.28 1.93967 0.0950063 0
M  V30 12003 C 1101.41 3.46424 -0.246579 0
M  V30 12004 C 1100.36 4.10487 -1.21181 0
M  V30 12005 C 1099.69 5.32183 -0.518158 0
M  V30 12006 C 1100.99 4.55052 -2.56368 0
M  V30 12007 H 1102.68 2.46077 -1.70548 0
M  V30 12008 H 1100.23 1.18271 -0.821454 0
M  V30 12009 H 1102.18 4.21398 -0.0128889 0
M  V30 12010 H 1100.91 3.19154 0.693415 0
M  V30 12011 H 1099.57 3.3751 -1.43118 0
M  V30 12012 H 1099.21 5.01187 0.426742 0
M  V30 12013 H 1098.91 5.75997 -1.16196 0
M  V30 12014 H 1100.44 6.09895 -0.293333 0
M  V30 12015 H 1101.85 5.21335 -2.38501 0
M  V30 12016 H 1100.25 5.0969 -3.16758 0
M  V30 12017 H 1101.32 3.68343 -3.1536 0
M  V30 12018 N 1102.66 0.908147 1.28804 0
M  V30 12019 C 1103.61 0.390734 2.27468 0
M  V30 12020 C 1104.58 -0.531765 1.57358 0
M  V30 12021 O 1105.76 -0.455177 1.85291 0
M  V30 12022 C 1102.9 -0.368159 3.43131 0
M  V30 12023 C 1102.02 0.586202 4.28004 0
M  V30 12024 C 1101.15 -0.190581 5.30858 0
M  V30 12025 C 1100.19 0.757758 6.07391 0
M  V30 12026 N 1099.33 0.0148488 7.02098 0
M  V30 12027 H 1104.17 1.23717 2.71105 0
M  V30 12028 H 1101.71 0.621382 1.33331 0
M  V30 12029 H 1103.66 -0.824289 4.08976 0
M  V30 12030 H 1102.29 -1.17898 3.00499 0
M  V30 12031 H 1101.35 1.16086 3.62254 0
M  V30 12032 H 1102.66 1.31177 4.81242 0
M  V30 12033 H 1101.81 -0.707528 6.0256 0
M  V30 12034 H 1100.55 -0.949234 4.78373 0
M  V30 12035 H 1099.56 1.28613 5.34545 0
M  V30 12036 H 1100.78 1.51588 6.61965 0
M  V30 12037 H 1098.73 -0.725916 6.51971 0
M  V30 12038 H 1098.64 0.680347 7.52932 0
M  V30 12039 H 1099.91 -0.482086 7.78008 0
M  V30 12040 N 1104.14 -1.42577 0.671525 0
M  V30 12041 C 1105.07 -2.2915 -0.0477361 0
M  V30 12042 C 1106.09 -1.43503 -0.768805 0
M  V30 12043 O 1107.27 -1.67256 -0.623509 0
M  V30 12044 C 1104.37 -3.20851 -1.09122 0
M  V30 12045 C 1103.55 -4.35134 -0.44463 0
M  V30 12046 C 1102.61 -5.07579 -1.38745 0
M  V30 12047 O 1101.63 -5.62215 -0.889015 0
M  V30 12048 N 1102.83 -5.12786 -2.72086 0
M  V30 12049 H 1105.6 -2.9152 0.695415 0
M  V30 12050 H 1103.16 -1.53467 0.515689 0
M  V30 12051 H 1105.15 -3.66183 -1.72315 0
M  V30 12052 H 1103.72 -2.59956 -1.73614 0
M  V30 12053 H 1102.94 -3.9249 0.36675 0
M  V30 12054 H 1104.23 -5.088 0.00595927 0
M  V30 12055 H 1103.63 -4.69802 -3.15123 0
M  V30 12056 H 1102.19 -5.61774 -3.30535 0
M  V30 12057 N 1105.62 -0.414636 -1.52048 0
M  V30 12058 C 1106.57 0.408141 -2.27163 0
M  V30 12059 C 1107.54 1.03636 -1.29803 0
M  V30 12060 O 1108.72 1.05959 -1.58674 0
M  V30 12061 C 1105.86 1.51588 -3.10024 0
M  V30 12062 C 1104.97 0.908034 -4.22349 0
M  V30 12063 C 1104.11 1.98893 -4.9256 0
M  V30 12064 C 1103.15 1.35831 -5.96839 0
M  V30 12065 N 1102.28 2.37958 -6.60545 0
M  V30 12066 H 1107.12 -0.238822 -2.97041 0
M  V30 12067 H 1104.66 -0.129614 -1.46528 0
M  V30 12068 H 1106.62 2.16916 -3.56375 0
M  V30 12069 H 1105.25 2.13279 -2.42305 0
M  V30 12070 H 1104.3 0.143652 -3.80129 0
M  V30 12071 H 1105.61 0.407426 -4.97133 0
M  V30 12072 H 1104.77 2.71935 -5.42343 0
M  V30 12073 H 1103.51 2.5232 -4.17356 0
M  V30 12074 H 1102.51 0.613246 -5.46369 0
M  V30 12075 H 1103.74 0.831655 -6.73988 0
M  V30 12076 H 1101.68 2.90508 -5.88167 0
M  V30 12077 H 1101.6 1.92725 -7.31022 0
M  V30 12078 H 1102.87 3.10553 -7.14966 0
M  V30 12079 N 1107.1 1.56929 -0.145233 0
M  V30 12080 C 1108.34 1.96358 0.50707 0
M  V30 12081 C 1108.68 1.03005 1.64632 0
M  V30 12082 O 1107.95 0.0721045 1.94366 0
M  V30 12083 C 1108.23 3.45502 1.01492 0
M  V30 12084 C 1108.09 4.49633 -0.122708 0
M  V30 12085 C 1109.41 3.97103 1.89729 0
M  V30 12086 H 1106.52 0.713958 0.182848 0
M  V30 12087 H 1109.17 1.8865 -0.226102 0
M  V30 12088 H 1107.32 3.52202 1.6397 0
M  V30 12089 H 1108.99 4.55013 -0.758988 0
M  V30 12090 H 1107.23 4.26691 -0.782109 0
M  V30 12091 H 1107.9 5.51318 0.27432 0
M  V30 12092 H 1110.38 3.92871 1.37082 0
M  V30 12093 H 1109.25 5.01927 2.22173 0
M  V30 12094 H 1109.52 3.39354 2.83357 0
M  V30 12095 N 1108.58 -0.128553 1.57075 0
M  V30 12096 C 1109.49 -1.17718 2.02927 0
M  V30 12097 C 1110.5 -1.45912 0.947932 0
M  V30 12098 O 1111.68 -1.57217 1.25876 0
M  V30 12099 C 1108.74 -2.48625 2.41633 0
M  V30 12100 C 1107.8 -2.27914 3.63804 0
M  V30 12101 C 1107.04 -3.52579 4.00654 0
M  V30 12102 O 1107.26 -4.59505 3.37952 0
M  V30 12103 O 1106.19 -3.44147 4.93808 0
M  V30 12104 H 1110.02 -0.817846 2.92481 0
M  V30 12105 H 1107.6 -0.338649 1.45511 0
M  V30 12106 H 1109.49 -3.2577 2.67305 0
M  V30 12107 H 1108.16 -2.84052 1.55229 0
M  V30 12108 H 1107.07 -1.4866 3.43294 0
M  V30 12109 H 1108.4 -1.97395 4.50883 0
M  V30 12110 N 1110.05 -1.5248 -0.398459 0
M  V30 12111 C 1111 -1.77211 -1.50662 0
M  V30 12112 C 1112 -0.639638 -1.5686 0
M  V30 12113 O 1113.2 -0.821917 -1.60139 0
M  V30 12114 H 1109.58 -0.56057 -0.501264 0
M  V30 12115 H 1111.55 -2.70028 -1.26993 0
M  V30 12116 C 1110.3 -1.94944 -2.8791 0
M  V30 12117 H 1109.62 -2.8151 -2.83888 0
M  V30 12118 H 1111.06 -2.16243 -3.64712 0
M  V30 12119 C 1109.52 -0.719402 -3.29129 0
M  V30 12120 O 1110.05 0.107671 -4.01556 0
M  V30 12121 N 1108.25 -0.552228 -2.85305 0
M  V30 12122 H 1107.8 -1.22638 -2.26534 0
M  V30 12123 H 1107.76 0.269447 -3.13243 0
M  V30 12124 N 1111.53 0.65634 -1.43283 0
M  V30 12125 C 1112.46 1.78101 -1.51004 0
M  V30 12126 C 1113.44 1.66138 -0.36498 0
M  V30 12127 O 1114.63 1.85281 -0.581778 0
M  V30 12128 C 1111.76 3.16511 -1.42961 0
M  V30 12129 C 1110.71 3.43233 -2.55685 0
M  V30 12130 C 1110.04 4.81411 -2.32696 0
M  V30 12131 C 1111.34 3.38288 -3.97943 0
M  V30 12132 H 1113.03 1.71896 -2.45137 0
M  V30 12133 H 1110.58 0.825575 -1.17984 0
M  V30 12134 H 1112.53 3.94941 -1.46968 0
M  V30 12135 H 1111.25 3.23439 -0.45332 0
M  V30 12136 H 1109.91 2.67173 -2.51026 0
M  V30 12137 H 1109.56 4.85011 -1.33317 0
M  V30 12138 H 1109.26 5.00251 -3.08257 0
M  V30 12139 H 1110.79 5.62102 -2.38481 0
M  V30 12140 H 1112.2 4.06659 -4.04106 0
M  V30 12141 H 1110.6 3.68664 -4.73505 0
M  V30 12142 H 1111.67 2.36525 -4.23301 0
M  V30 12143 N 1113.01 1.29761 0.894412 0
M  V30 12144 C 1113.94 1.17902 2.01547 0
M  V30 12145 C 1114.92 0.0719402 1.69948 0
M  V30 12146 O 1116.11 0.252338 1.92554 0
M  V30 12147 C 1113.24 0.860262 3.36477 0
M  V30 12148 C 1112.19 1.92424 3.82305 0
M  V30 12149 C 1111.52 1.45868 5.14419 0
M  V30 12150 C 1112.82 3.33391 4.02054 0
M  V30 12151 H 1114.51 2.11688 2.11727 0
M  V30 12152 H 1112.06 1.01916 1.01731 0
M  V30 12153 H 1114.01 0.763987 4.14417 0
M  V30 12154 H 1112.73 -0.113289 3.26403 0
M  V30 12155 H 1111.39 2.00999 3.06586 0
M  V30 12156 H 1111.04 0.473654 5.00765 0
M  V30 12157 H 1110.74 2.17028 5.46052 0
M  V30 12158 H 1112.26 1.37601 5.94894 0
M  V30 12159 H 1113.68 3.27628 4.7046 0
M  V30 12160 H 1112.07 4.02555 4.4505 0
M  V30 12161 H 1113.14 3.75978 3.06216 0
M  V30 12162 N 1114.49 -1.10549 1.12324 0
M  V30 12163 C 1115.42 -2.18911 0.812416 0
M  V30 12164 C 1116.4 -1.68628 -0.22327 0
M  V30 12165 O 1117.58 -1.94015 -0.0847184 0
M  V30 12166 C 1114.71 -3.46288 0.264947 0
M  V30 12167 C 1113.67 -4.09838 1.23356 0
M  V30 12168 C 1112.99 -5.31901 0.546374 0
M  V30 12169 C 1114.29 -4.53686 2.58778 0
M  V30 12170 H 1115.99 -2.45169 1.71851 0
M  V30 12171 H 1113.53 -1.17834 0.827715 0
M  V30 12172 H 1115.49 -4.21385 0.0352364 0
M  V30 12173 H 1114.21 -3.19517 -0.676479 0
M  V30 12174 H 1112.87 -3.36746 1.44906 0
M  V30 12175 H 1112.52 -5.01406 -0.400157 0
M  V30 12176 H 1112.22 -5.75372 1.19249 0
M  V30 12177 H 1113.74 -6.09731 0.325673 0
M  V30 12178 H 1115.16 -5.20063 2.41263 0
M  V30 12179 H 1113.55 -5.08003 3.19457 0
M  V30 12180 H 1114.62 -3.66665 3.17309 0
M  V30 12181 N 1115.97 -0.914965 -1.28321 0
M  V30 12182 C 1116.88 -0.409424 -2.31 0
M  V30 12183 C 1117.89 0.503526 -1.66555 0
M  V30 12184 O 1119.07 0.38942 -1.97599 0
M  V30 12185 C 1116.13 0.34123 -3.45017 0
M  V30 12186 C 1115.19 -0.605087 -4.25014 0
M  V30 12187 C 1114.43 0.109837 -5.33587 0
M  V30 12188 O 1114.65 1.33136 -5.54645 0
M  V30 12189 O 1113.58 -0.555474 -5.99331 0
M  V30 12190 H 1117.41 -1.26167 -2.76253 0
M  V30 12191 H 1114.99 -0.679831 -1.33036 0
M  V30 12192 H 1116.88 0.765132 -4.14396 0
M  V30 12193 H 1115.55 1.16929 -3.01843 0
M  V30 12194 H 1114.46 -1.07841 -3.58219 0
M  V30 12195 H 1115.79 -1.39999 -4.7187 0
M  V30 12196 N 1117.44 1.42219 -0.679077 0
M  V30 12197 C 1118.41 2.29197 -0.0125475 0
M  V30 12198 C 1119.41 1.43544 0.724691 0
M  V30 12199 O 1120.6 1.64884 0.562052 0
M  V30 12200 C 1117.73 3.26122 0.992846 0
M  V30 12201 H 1118.92 2.89629 -0.778154 0
M  V30 12202 H 1116.47 1.4993 -0.44166 0
M  V30 12203 H 1117.21 2.70637 1.78679 0
M  V30 12204 H 1116.99 3.89302 0.467544 0
M  V30 12205 H 1118.48 3.91339 1.45751 0
M  V30 12206 N 1118.92 0.422693 1.51826 0
M  V30 12207 C 1119.83 -0.40261 2.31119 0
M  V30 12208 C 1120.85 -1.04117 1.39412 0
M  V30 12209 O 1122.02 -1.03973 1.72486 0
M  V30 12210 C 1119.09 -1.49699 3.12716 0
M  V30 12211 C 1118.15 -0.880088 4.20182 0
M  V30 12212 C 1117.38 -1.92232 4.97878 0
M  V30 12213 O 1117.61 -3.14246 4.76031 0
M  V30 12214 O 1116.54 -1.521 5.82365 0
M  V30 12215 H 1120.37 0.244308 3.02716 0
M  V30 12216 H 1117.95 0.185569 1.48243 0
M  V30 12217 H 1119.83 -2.13202 3.63487 0
M  V30 12218 H 1118.51 -2.12826 2.43899 0
M  V30 12219 H 1117.41 -0.207404 3.73525 0
M  V30 12220 H 1118.75 -0.292535 4.9133 0
M  V30 12221 N 1120.4 -1.5685 0.153553 0
M  V30 12222 C 1121.35 -2.1709 -0.783626 0
M  V30 12223 C 1122.32 -1.10567 -1.23952 0
M  V30 12224 O 1123.5 -1.38638 -1.31088 0
M  V30 12225 C 1120.64 -2.80183 -2.01473 0
M  V30 12226 C 1119.75 -4.01117 -1.60403 0
M  V30 12227 C 1118.89 -4.5219 -2.78743 0
M  V30 12228 C 1117.93 -5.65574 -2.34079 0
M  V30 12229 N 1117.07 -6.11235 -3.4545 0
M  V30 12230 H 1121.91 -2.96836 -0.263127 0
M  V30 12231 H 1119.44 -1.46625 -0.11816 0
M  V30 12232 H 1121.4 -3.14912 -2.73654 0
M  V30 12233 H 1120.03 -2.03071 -2.50923 0
M  V30 12234 H 1119.08 -3.72325 -0.779631 0
M  V30 12235 H 1120.39 -4.83243 -1.23605 0
M  V30 12236 H 1119.55 -4.89008 -3.59105 0
M  V30 12237 H 1118.29 -3.69085 -3.18791 0
M  V30 12238 H 1117.29 -5.28326 -1.52158 0
M  V30 12239 H 1118.52 -6.50468 -1.95109 0
M  V30 12240 H 1116.46 -5.31064 -3.85106 0
M  V30 12241 H 1116.38 -6.88304 -3.12687 0
M  V30 12242 H 1117.65 -6.527 -4.26149 0
M  V30 12243 N 1121.88 0.120221 -1.57141 0
M  V30 12244 C 1123.29 0.473718 -1.52408 0
M  V30 12245 C 1123.49 1.81925 -0.866354 0
M  V30 12246 O 1122.55 2.48491 -0.448173 0
M  V30 12247 C 1123.86 0.459338 -2.97171 0
M  V30 12248 C 1125.41 0.542975 -3.08254 0
M  V30 12249 C 1125.89 0.558996 -4.54576 0
M  V30 12250 N 1127.38 0.620469 -4.59026 0
M  V30 12251 C 1128.11 0.654292 -5.69655 0
M  V30 12252 N 1127.61 0.645835 -6.89783 0
M  V30 12253 N 1129.4 0.697208 -5.57759 0
M  V30 12254 H 1121.55 -0.76142 -1.98283 0
M  V30 12255 H 1123.81 -0.280736 -0.905479 0
M  V30 12256 H 1123.52 -0.461654 -3.48657 0
M  V30 12257 H 1123.39 1.28759 -3.54543 0
M  V30 12258 H 1125.78 1.45439 -2.56772 0
M  V30 12259 H 1125.86 -0.312936 -2.53879 0
M  V30 12260 H 1125.51 -0.348367 -5.06704 0
M  V30 12261 H 1125.44 1.43177 -5.06762 0
M  V30 12262 H 1127.93 0.633218 -3.72557 0
M  V30 12263 H 1128.24 0.674233 -7.69853 0
M  V30 12264 H 1126.59 0.613279 -6.92289 0
M  V30 12265 H 1129.78 0.70117 -4.62819 0
M  V30 12266 H 1129.95 0.7201 -6.43986 0
M  V30 12267 N 1123.36 1.52689 0.390367 0
M  V30 12268 C 1124.6 1.69354 1.1445 0
M  V30 12269 C 1124.96 0.423677 1.87267 0
M  V30 12270 O 1126.16 0.466669 2.64718 0
M  V30 12271 C 1124.43 2.89356 2.0978 0
M  V30 12272 S 1125.99 3.26602 2.93047 0
M  V30 12273 H 1122.81 0.596162 0.387442 0
M  V30 12274 H 1125.41 1.90732 0.429119 0
M  V30 12275 H 1124.12 3.80003 1.55004 0
M  V30 12276 H 1123.65 2.70307 2.85828 0
M  V30 12277 H 1125.66 2.76683 4.11899 0
M  V30 12278 N 1124.83 -0.648732 1.43629 0
M  V30 12279 C 1126.06 -1.44117 1.49148 0
M  V30 12280 C 1126.48 -1.87767 0.111952 0
M  V30 12281 O 1125.84 -1.57655 -0.895249 0
M  V30 12282 C 1125.89 -2.64938 2.44623 0
M  V30 12283 O 1124.99 -3.64155 1.93559 0
M  V30 12284 H 1124.34 -0.431933 0.504312 0
M  V30 12285 H 1126.87 -0.793439 1.88589 0
M  V30 12286 H 1126.88 -3.12698 2.62076 0
M  V30 12287 H 1125.55 -2.3251 3.44836 0
M  V30 12288 H 1124.13 -3.23322 1.85789 0
M  V30 12289 N 1126.31 -1.30234 -0.887518 0
M  V30 12290 C 1127.24 -1.18969 -2.00919 0
M  V30 12291 C 1128.22 -0.080952 -1.69907 0
M  V30 12292 O 1129.41 -0.262546 -1.92417 0
M  V30 12293 C 1126.54 -0.878094 -3.36016 0
M  V30 12294 C 1125.49 -1.94449 -3.81279 0
M  V30 12295 C 1124.82 -1.48594 -5.13638 0
M  V30 12296 C 1126.12 -3.35519 -4.00281 0
M  V30 12297 H 1127.81 -2.12808 -2.10602 0
M  V30 12298 H 1125.36 -1.02454 -1.01189 0
M  V30 12299 H 1127.31 -0.785954 -4.14006 0
M  V30 12300 H 1126.04 0.0959779 -3.26459 0
M  V30 12301 H 1124.69 -2.02622 -3.05516 0
M  V30 12302 H 1124.34 -0.500204 -5.00507 0
M  V30 12303 H 1124.04 -2.19921 -5.44893 0
M  V30 12304 H 1125.57 -1.40754 -5.94156 0
M  V30 12305 H 1126.98 -3.30119 -4.68716 0
M  V30 12306 H 1125.38 -4.0491 -4.42909 0
M  V30 12307 H 1126.45 -3.77597 -3.04218 0
M  V30 12308 N 1127.79 1.09952 -1.12909 0
M  V30 12309 C 1128.72 2.18477 -0.824014 0
M  V30 12310 C 1129.7 1.68744 0.214324 0
M  V30 12311 O 1130.89 1.94057 0.0744281 0
M  V30 12312 C 1128.02 3.46143 -0.283308 0
M  V30 12313 C 1126.97 4.09178 -1.25528 0
M  V30 12314 C 1126.3 5.31604 -0.574574 0
M  V30 12315 C 1127.6 4.52308 -2.6118 0
M  V30 12316 H 1129.29 2.44254 -1.73148 0
M  V30 12317 H 1126.84 1.17394 -0.833952 0
M  V30 12318 H 1128.79 4.21361 -0.057583 0
M  V30 12319 H 1127.51 3.19872 0.659525 0
M  V30 12320 H 1126.17 3.35973 -1.4669 0
M  V30 12321 H 1125.82 5.01611 0.37356 0
M  V30 12322 H 1125.52 5.74732 -1.22299 0
M  V30 12323 H 1127.04 6.0955 -0.358004 0
M  V30 12324 H 1128.46 5.18776 -2.44017 0
M  V30 12325 H 1126.86 5.06302 -3.22147 0
M  V30 12326 H 1127.93 3.64977 -3.19249 0
M  V30 12327 N 1129.27 0.921757 1.27833 0
M  V30 12328 C 1130.55 0.477706 1.89677 0
M  V30 12329 C 1130.93 -1.04392 1.83481 0
M  V30 12330 O 1130.27 -1.89549 1.27606 0
M  V30 12331 C 1130.48 1.01709 3.33851 0
M  V30 12332 C 1131.83 1.074 4.10792 0
M  V30 12333 O 1132.86 0.966295 3.42843 0
M  V30 12334 O 1131.71 1.23909 5.32268 0
M  V30 12335 H 1128.81 0.15271 0.812778 0
M  V30 12336 H 1131.35 1.01306 1.36144 0
M  V30 12337 H 1130.13 2.061 3.32623 0
M  V30 12338 H 1129.75 0.463031 3.94895 0
M  V30 12339 N 1130.75 -1.41857 0.686609 0
M  V30 12340 C 1131.99 -2.03236 0.217839 0
M  V30 12341 C 1132.35 -1.5317 -1.15771 0
M  V30 12342 O 1133.55 -2.06415 -1.72181 0
M  V30 12343 C 1131.82 -3.56428 0.263443 0
M  V30 12344 S 1133.38 -4.386 -0.132595 0
M  V30 12345 H 1130.2 -0.705472 0.088487 0
M  V30 12346 H 1132.8 -1.73428 0.902393 0
M  V30 12347 H 1131.51 -3.90362 1.26672 0
M  V30 12348 H 1131.04 -3.90925 -0.440556 0
M  V30 12349 H 1133.05 -4.77119 -1.3628 0
M  V30 12350 N 1132.22 -0.430739 -1.51599 0
M  V30 12351 C 1133.5 0.197543 -1.946 0
M  V30 12352 C 1133.88 1.6069 -1.36901 0
M  V30 12353 O 1133.23 2.21697 -0.553422 0
M  V30 12354 C 1133.44 0.181976 -3.48525 0
M  V30 12355 C 1134.79 0.390783 -4.22798 0
M  V30 12356 O 1135.81 0.260384 -3.55247 0
M  V30 12357 O 1134.67 0.649701 -5.42624 0
M  V30 12358 H 1131.76 0.133524 -0.81615 0
M  V30 12359 H 1134.31 -0.488243 -1.62525 0
M  V30 12360 H 1133.08 -0.803584 -3.8296 0
M  V30 12361 H 1132.71 0.910952 -3.87024 0
M  V30 12362 N 1133.7 1.56767 -0.161869 0
M  V30 12363 C 1134.63 2.20511 0.767918 0
M  V30 12364 C 1135.61 1.15783 1.24612 0
M  V30 12365 O 1136.8 1.44179 1.301 0
M  V30 12366 C 1133.93 2.83844 2.00125 0
M  V30 12367 C 1132.88 3.94528 1.65926 0
M  V30 12368 C 1132.21 4.44866 2.96646 0
M  V30 12369 C 1133.51 5.14583 0.894497 0
M  V30 12370 H 1135.2 2.98464 0.236607 0
M  V30 12371 H 1132.75 1.43561 0.112363 0
M  V30 12372 H 1134.7 3.27109 2.65664 0
M  V30 12373 H 1133.43 2.03246 2.55654 0
M  V30 12374 H 1132.08 3.51904 1.02759 0
M  V30 12375 H 1131.73 3.61071 3.50196 0
M  V30 12376 H 1131.43 5.19531 2.74521 0
M  V30 12377 H 1132.96 4.90812 3.6323 0
M  V30 12378 H 1134.37 5.54601 1.45228 0
M  V30 12379 H 1132.77 5.95105 0.772636 0
M  V30 12380 H 1133.84 4.84773 -0.110986 0
M  V30 12381 N 1135.18 -0.111886 1.57202 0
M  V30 12382 C 1136.13 -1.13688 2.00858 0
M  V30 12383 C 1137.1 -1.40752 0.881939 0
M  V30 12384 O 1138.28 -1.52498 1.14669 0
M  V30 12385 C 1135.42 -2.45641 2.42393 0
M  V30 12386 C 1134.54 -2.25452 3.68504 0
M  V30 12387 C 1133.67 -3.50686 3.9899 0
M  V30 12388 C 1132.71 -3.25685 5.18262 0
M  V30 12389 N 1131.85 -4.4314 5.44583 0
M  V30 12390 H 1136.69 -0.757611 2.88209 0
M  V30 12391 H 1134.22 -0.362582 1.42561 0
M  V30 12392 H 1136.18 -3.22627 2.64514 0
M  V30 12393 H 1134.81 -2.81447 1.58074 0
M  V30 12394 H 1133.86 -1.39349 3.53958 0
M  V30 12395 H 1135.18 -2.0296 4.55641 0
M  V30 12396 H 1134.33 -4.36087 4.21797 0
M  V30 12397 H 1133.07 -3.76216 3.10343 0
M  V30 12398 H 1132.07 -2.38675 4.95292 0
M  V30 12399 H 1133.3 -3.01518 6.08493 0
M  V30 12400 H 1131.24 -4.68778 4.58893 0
M  V30 12401 H 1131.16 -4.23778 6.26058 0
M  V30 12402 H 1132.43 -5.29654 5.71915 0
M  V30 12403 N 1136.66 -1.52894 -0.382264 0
M  V30 12404 C 1137.59 -1.74413 -1.48703 0
M  V30 12405 C 1138.6 -0.624663 -1.50339 0
M  V30 12406 O 1139.79 -0.900527 -1.54119 0
M  V30 12407 C 1136.89 -1.79387 -2.8753 0
M  V30 12408 C 1136.07 -3.08794 -3.09783 0
M  V30 12409 C 1135.12 -3.05226 -4.2863 0
M  V30 12410 O 1134.15 -3.79073 -4.24609 0
M  V30 12411 N 1135.35 -2.2488 -5.35172 0
M  V30 12412 H 1138.12 -2.69734 -1.30628 0
M  V30 12413 H 1135.68 -1.51465 -0.571842 0
M  V30 12414 H 1137.67 -1.74498 -3.65147 0
M  V30 12415 H 1136.24 -0.914233 -2.98932 0
M  V30 12416 H 1135.46 -3.27118 -2.19971 0
M  V30 12417 H 1136.75 -3.94347 -3.21509 0
M  V30 12418 H 1136.15 -1.64363 -5.41296 0
M  V30 12419 H 1134.7 -2.25825 -6.1143 0
M  V30 12420 N 1138.14 0.641106 -1.43971 0
M  V30 12421 C 1139.36 1.43324 -1.4991 0
M  V30 12422 C 1139.79 1.87705 -0.121908 0
M  V30 12423 O 1139.15 1.58127 0.886875 0
M  V30 12424 C 1139.19 2.63637 -2.46025 0
M  V30 12425 O 1138.3 3.63123 -1.95488 0
M  V30 12426 H 1137.64 0.429252 -0.506595 0
M  V30 12427 H 1140.17 0.783427 -1.89007 0
M  V30 12428 H 1140.18 3.11304 -2.63731 0
M  V30 12429 H 1138.85 2.30678 -3.46064 0
M  V30 12430 H 1137.43 3.22332 -1.87501 0
M  V30 12431 N 1139.62 1.30703 0.880598 0
M  V30 12432 C 1140.55 1.1327 1.99255 0
M  V30 12433 C 1141.56 0.0747186 1.62628 0
M  V30 12434 O 1142.75 0.321169 1.75587 0
M  V30 12435 C 1139.85 0.706179 3.31461 0
M  V30 12436 C 1139.02 1.84687 3.96497 0
M  V30 12437 C 1138.08 1.40817 5.07008 0
M  V30 12438 O 1137.11 2.1161 5.28403 0
M  V30 12439 N 1138.31 0.289619 5.79777 0
M  V30 12440 H 1141.07 2.09043 2.14759 0
M  V30 12441 H 1138.64 1.22896 1.05395 0
M  V30 12442 H 1140.63 0.395617 4.02762 0
M  V30 12443 H 1139.2 -0.159631 3.12192 0
M  V30 12444 H 1138.42 2.32531 3.18312 0
M  V30 12445 H 1139.71 2.61117 4.36687 0
M  V30 12446 H 1139.1 -0.300177 5.64903 0
M  V30 12447 H 1137.66 0.0385346 6.51789 0
M  V30 12448 N 1141.09 -1.09351 1.1349 0
M  V30 12449 C 1142.03 -2.15852 0.770763 0
M  V30 12450 C 1143.04 -1.61468 -0.207866 0
M  V30 12451 O 1144.23 -1.78496 0.0124385 0
M  V30 12452 C 1141.33 -3.38681 0.121871 0
M  V30 12453 C 1140.5 -4.22477 1.13279 0
M  V30 12454 C 1139.56 -5.23728 0.509448 0
M  V30 12455 O 1138.59 -5.57052 1.16967 0
M  V30 12456 N 1139.79 -5.76041 -0.718159 0
M  V30 12457 H 1142.55 -2.47696 1.6872 0
M  V30 12458 H 1140.11 -1.25074 1.02801 0
M  V30 12459 H 1142.11 -4.03531 -0.307404 0
M  V30 12460 H 1140.68 -3.04718 -0.697527 0
M  V30 12461 H 1139.9 -3.53753 1.73933 0
M  V30 12462 H 1141.18 -4.75288 1.81601 0
M  V30 12463 H 1140.58 -5.51183 -1.27331 0
M  V30 12464 H 1139.14 -6.4262 -1.09008 0
M  V30 12465 N 1142.57 -0.928524 -1.27343 0
M  V30 12466 C 1143.52 -0.426873 -2.26818 0
M  V30 12467 C 1144.49 0.506663 -1.58184 0
M  V30 12468 O 1145.67 0.425641 -1.85992 0
M  V30 12469 C 1142.81 0.313523 -3.43673 0
M  V30 12470 C 1141.93 -0.65422 -4.27018 0
M  V30 12471 C 1141.06 0.106102 -5.31094 0
M  V30 12472 C 1140.1 -0.854293 -6.06109 0
M  V30 12473 N 1139.24 -0.126545 -7.01986 0
M  V30 12474 H 1144.08 -1.28014 -2.69103 0
M  V30 12475 H 1141.61 -0.642515 -1.32326 0
M  V30 12476 H 1143.57 0.75912 -4.10236 0
M  V30 12477 H 1142.2 1.13102 -3.02337 0
M  V30 12478 H 1141.25 -1.21834 -3.60362 0
M  V30 12479 H 1142.57 -1.38817 -4.79094 0
M  V30 12480 H 1141.72 0.611577 -6.0361 0
M  V30 12481 H 1140.46 0.873009 -4.79823 0
M  V30 12482 H 1139.46 -1.37101 -5.32432 0
M  V30 12483 H 1140.69 -1.621 -6.5947 0
M  V30 12484 H 1138.64 0.622102 -6.53044 0
M  V30 12485 H 1138.55 -0.800046 -7.51755 0
M  V30 12486 H 1139.82 0.358251 -7.78676 0
M  V30 12487 N 1144.05 1.41491 -0.694123 0
M  V30 12488 C 1145.3 2.00479 -0.221585 0
M  V30 12489 C 1145.61 1.55605 1.18518 0
M  V30 12490 O 1146.82 2.07143 1.7551 0
M  V30 12491 C 1145.27 3.5824 -0.345264 0
M  V30 12492 C 1144.88 4.12096 -1.7573 0
M  V30 12493 C 1146.63 4.24446 0.0675731 0
M  V30 12494 C 1144.53 5.62286 -1.83271 0
M  V30 12495 H 1143.46 0.749841 -0.0790854 0
M  V30 12496 H 1146.11 1.61987 -0.86211 0
M  V30 12497 H 1144.5 3.94328 0.363487 0
M  V30 12498 H 1145.67 3.8743 -2.49469 0
M  V30 12499 H 1143.98 3.58411 -2.11969 0
M  V30 12500 H 1146.58 5.34691 0.0316485 0
M  V30 12501 H 1146.92 4.01338 1.10606 0
M  V30 12502 H 1147.46 3.93388 -0.59085 0
M  V30 12503 H 1144.2 5.9022 -2.85168 0
M  V30 12504 H 1143.72 5.88883 -1.13914 0
M  V30 12505 H 1145.4 6.27033 -1.59494 0
M  V30 12506 N 1145.53 0.438773 1.51369 0
M  V30 12507 C 1146.48 -0.386324 2.29369 0
M  V30 12508 C 1147.47 -1.0196 1.3528 0
M  V30 12509 O 1148.68 -0.9544 1.52615 0
M  V30 12510 H 1145.05 -0.143397 0.738201 0
M  V30 12511 H 1147.02 0.292372 2.96964 0
M  V30 12512 C 1145.77 -1.47426 3.14898 0
M  V30 12513 H 1145.09 -0.996335 3.87186 0
M  V30 12514 H 1146.53 -2.02481 3.72529 0
M  V30 12515 C 1144.99 -2.45831 2.30366 0
M  V30 12516 O 1145.52 -3.50398 1.96428 0
M  V30 12517 N 1143.73 -2.16754 1.93561 0
M  V30 12518 H 1143.28 -1.31748 2.2136 0
M  V30 12519 H 1143.23 -2.82836 1.373 0
M  V30 12520 N 1147.01 -1.56678 0.170181 0
M  V30 12521 C 1147.92 -2.21496 -0.773079 0
M  V30 12522 C 1148.93 -1.20626 -1.25401 0
M  V30 12523 O 1150.11 -1.53283 -1.30638 0
M  V30 12524 C 1147.17 -2.8421 -1.98558 0
M  V30 12525 C 1146.23 -4.00278 -1.55164 0
M  V30 12526 C 1145.47 -4.59992 -2.70634 0
M  V30 12527 O 1145.69 -4.18595 -3.87472 0
M  V30 12528 O 1144.62 -5.49881 -2.44775 0
M  V30 12529 H 1148.45 -3.02659 -0.251195 0
M  V30 12530 H 1146.03 -1.49288 -0.0579621 0
M  V30 12531 H 1147.92 -3.2398 -2.69472 0
M  V30 12532 H 1146.59 -2.06045 -2.49654 0
M  V30 12533 H 1145.5 -3.6518 -0.812038 0
M  V30 12534 H 1146.83 -4.80033 -1.0876 0
M  V30 12535 N 1148.48 0.103547 -1.57259 0
M  V30 12536 C 1149.41 1.12714 -2.04494 0
M  V30 12537 C 1150.39 1.42278 -0.932255 0
M  V30 12538 O 1151.58 1.52453 -1.20298 0
M  V30 12539 C 1148.71 2.44927 -2.46228 0
M  V30 12540 C 1147.66 2.2979 -3.61082 0
M  V30 12541 C 1146.99 3.67105 -3.88765 0
M  V30 12542 C 1148.29 1.7455 -4.9227 0
M  V30 12543 H 1149.98 0.734198 -2.90258 0
M  V30 12544 H 1147.53 0.351725 -1.39638 0
M  V30 12545 H 1149.48 3.16798 -2.77879 0
M  V30 12546 H 1148.21 2.8614 -1.57453 0
M  V30 12547 H 1146.87 1.60366 -3.29664 0
M  V30 12548 H 1146.51 4.05831 -2.97171 0
M  V30 12549 H 1146.21 3.57825 -4.66084 0
M  V30 12550 H 1147.74 4.40456 -4.22884 0
M  V30 12551 H 1149.15 2.36253 -5.22358 0
M  V30 12552 H 1147.55 1.76051 -5.73695 0
M  V30 12553 H 1148.62 0.704242 -4.79759 0
M  V30 12554 N 1149.96 1.53094 0.37415 0
M  V30 12555 C 1150.89 1.81901 1.46404 0
M  V30 12556 C 1151.87 0.671949 1.56265 0
M  V30 12557 O 1153.06 0.920978 1.70973 0
M  V30 12558 C 1150.19 2.00123 2.83845 0
M  V30 12559 C 1149.14 3.15864 2.88814 0
M  V30 12560 C 1148.47 3.19364 4.28848 0
M  V30 12561 C 1149.77 4.54633 2.57112 0
M  V30 12562 H 1151.46 2.73172 1.22546 0
M  V30 12563 H 1149.01 1.31444 0.588087 0
M  V30 12564 H 1150.96 2.18859 3.6011 0
M  V30 12565 H 1149.68 1.05555 3.09072 0
M  V30 12566 H 1148.34 2.96935 2.15 0
M  V30 12567 H 1147.99 2.2245 4.51137 0
M  V30 12568 H 1147.69 3.97123 4.3309 0
M  V30 12569 H 1149.22 3.40273 5.06997 0
M  V30 12570 H 1150.63 4.73587 3.23091 0
M  V30 12571 H 1149.03 5.34569 2.72683 0
M  V30 12572 H 1150.1 4.60331 1.52392 0
M  V30 12573 N 1151.44 -0.633461 1.44309 0
M  V30 12574 C 1152.39 -1.74554 1.50995 0
M  V30 12575 C 1153.36 -1.62199 0.357873 0
M  V30 12576 O 1154.54 -1.82156 0.567787 0
M  V30 12577 C 1151.68 -3.12792 1.45791 0
M  V30 12578 C 1150.79 -3.3614 2.71356 0
M  V30 12579 C 1149.93 -4.64337 2.58002 0
M  V30 12580 C 1148.97 -4.80855 3.78741 0
M  V30 12581 N 1148.11 -6.00327 3.64077 0
M  V30 12582 H 1152.95 -1.68174 2.46011 0
M  V30 12583 H 1150.48 -0.820407 1.22097 0
M  V30 12584 H 1152.44 -3.92735 1.40765 0
M  V30 12585 H 1151.07 -3.18193 0.543445 0
M  V30 12586 H 1150.12 -2.50154 2.86579 0
M  V30 12587 H 1151.43 -3.44226 3.60985 0
M  V30 12588 H 1150.59 -5.52437 2.50795 0
M  V30 12589 H 1149.33 -4.58605 1.65929 0
M  V30 12590 H 1148.33 -3.91185 3.86334 0
M  V30 12591 H 1149.56 -4.88403 4.71847 0
M  V30 12592 H 1147.5 -5.9569 2.74754 0
M  V30 12593 H 1147.42 -6.09459 4.47321 0
M  V30 12594 H 1148.69 -6.90995 3.60758 0
M  V30 12595 N 1152.92 -1.31168 -0.873655 0
M  V30 12596 C 1153.85 -1.14325 -1.98651 0
M  V30 12597 C 1154.86 -0.0833421 -1.62587 0
M  V30 12598 O 1156.05 -0.330477 -1.75414 0
M  V30 12599 C 1153.15 -0.723747 -3.31082 0
M  V30 12600 C 1152.33 -1.86787 -3.95512 0
M  V30 12601 C 1151.38 -1.43503 -5.06254 0
M  V30 12602 O 1150.41 -2.14409 -5.27273 0
M  V30 12603 N 1151.61 -0.320362 -5.79615 0
M  V30 12604 H 1154.38 -2.10179 -2.13647 0
M  V30 12605 H 1151.94 -1.23454 -1.04742 0
M  V30 12606 H 1153.93 -0.416971 -4.02546 0
M  V30 12607 H 1152.5 0.143073 -3.12272 0
M  V30 12608 H 1151.72 -2.34216 -3.17075 0
M  V30 12609 H 1153.01 -2.6343 -4.35296 0
M  V30 12610 H 1152.41 0.270215 -5.65054 0
M  V30 12611 H 1150.96 -0.0731 -6.51759 0
M  V30 12612 N 1154.4 1.08748 -1.14068 0
M  V30 12613 C 1155.34 2.15573 -0.824425 0
M  V30 12614 C 1156.31 1.64683 0.216522 0
M  V30 12615 O 1157.5 1.90601 0.0872193 0
M  V30 12616 C 1154.64 3.43756 -0.30423 0
M  V30 12617 C 1153.75 4.08512 -1.40506 0
M  V30 12618 C 1152.89 5.24477 -0.842479 0
M  V30 12619 C 1151.93 5.81167 -1.92123 0
M  V30 12620 N 1151.06 6.88483 -1.37608 0
M  V30 12621 H 1155.9 2.41968 -1.73941 0
M  V30 12622 H 1153.44 1.18751 -0.868143 0
M  V30 12623 H 1155.4 4.17197 0.0155546 0
M  V30 12624 H 1154.03 3.17658 0.573868 0
M  V30 12625 H 1153.08 3.32866 -1.84131 0
M  V30 12626 H 1154.39 4.46669 -2.2201 0
M  V30 12627 H 1153.55 6.04842 -0.474389 0
M  V30 12628 H 1152.28 4.877 0.00355212 0
M  V30 12629 H 1151.29 4.99458 -2.29831 0
M  V30 12630 H 1152.51 6.20003 -2.77079 0
M  V30 12631 H 1150.46 6.53672 -0.552168 0
M  V30 12632 H 1150.38 7.25446 -2.12752 0
M  V30 12633 H 1151.65 7.72588 -1.03578 0
M  V30 12634 N 1155.87 0.935264 1.26849 0
M  V30 12635 C 1157.15 0.497797 1.8916 0
M  V30 12636 C 1157.53 -1.02441 1.84578 0
M  V30 12637 O 1156.88 -1.88185 1.29609 0
M  V30 12638 C 1157.09 1.05244 3.32753 0
M  V30 12639 C 1158.44 1.11751 4.0963 0
M  V30 12640 O 1159.46 1.0026 3.41799 0
M  V30 12641 O 1158.32 1.29548 5.30923 0
M  V30 12642 H 1155.41 0.161322 0.811113 0
M  V30 12643 H 1157.96 1.02744 1.35062 0
M  V30 12644 H 1156.73 2.09617 3.30419 0
M  V30 12645 H 1156.36 0.504889 3.94381 0
M  V30 12646 N 1157.35 -1.41121 0.701616 0
M  V30 12647 C 1158.6 -2.01428 0.235495 0
M  V30 12648 C 1158.93 -1.55463 -1.16382 0
M  V30 12649 O 1158.21 -0.768477 -1.78675 0
M  V30 12650 C 1158.49 -3.58849 0.299919 0
M  V30 12651 C 1158.34 -4.14924 1.73661 0
M  V30 12652 C 1159.66 -4.38809 -0.336856 0
M  V30 12653 H 1156.78 -0.731842 0.0870456 0
M  V30 12654 H 1159.42 -1.67787 0.891479 0
M  V30 12655 H 1157.57 -3.87638 -0.258611 0
M  V30 12656 H 1159.24 -3.96987 2.34945 0
M  V30 12657 H 1157.49 -3.69738 2.26884 0
M  V30 12658 H 1158.16 -5.24085 1.73318 0
M  V30 12659 H 1160.63 -4.15868 0.138886 0
M  V30 12660 H 1159.51 -5.48278 -0.261264 0
M  V30 12661 H 1159.77 -4.18728 -1.41843 0
M  V30 12662 N 1158.83 -0.446794 -1.51134 0
M  V30 12663 C 1159.76 0.350229 -2.30858 0
M  V30 12664 C 1160.74 1.0125 -1.36684 0
M  V30 12665 O 1161.93 1.01433 -1.65605 0
M  V30 12666 C 1159.06 1.4464 -3.15748 0
M  V30 12667 C 1158.01 0.907102 -4.18277 0
M  V30 12668 C 1157.34 2.09974 -4.91747 0
M  V30 12669 C 1158.64 -0.0649758 -5.2226 0
M  V30 12670 H 1160.33 -0.315105 -2.97737 0
M  V30 12671 H 1157.88 -0.152985 -1.43185 0
M  V30 12672 H 1159.83 2.01127 -3.70305 0
M  V30 12673 H 1158.55 2.14016 -2.46708 0
M  V30 12674 H 1157.21 0.364382 -3.64785 0
M  V30 12675 H 1156.86 2.77991 -4.19202 0
M  V30 12676 H 1156.56 1.74523 -5.61084 0
M  V30 12677 H 1158.08 2.66996 -5.49131 0
M  V30 12678 H 1159.5 0.4099 -5.71833 0
M  V30 12679 H 1157.9 -0.332529 -5.99178 0
M  V30 12680 H 1158.97 -0.998681 -4.74504 0
M  V30 12681 N 1160.31 1.56586 -0.178487 0
M  V30 12682 C 1161.26 2.19631 0.765822 0
M  V30 12683 C 1162.25 1.16247 1.23219 0
M  V30 12684 O 1163.46 1.34431 1.19701 0
M  V30 12685 H 1159.83 0.703661 0.265264 0
M  V30 12686 H 1161.8 2.97659 0.210207 0
M  V30 12687 C 1160.55 2.85686 1.98188 0
M  V30 12688 H 1159.87 3.64971 1.63206 0
M  V30 12689 H 1161.31 3.33259 2.62134 0
M  V30 12690 C 1159.77 1.85837 2.81009 0
M  V30 12691 O 1160.3 1.3483 3.78396 0
M  V30 12692 N 1158.51 1.54435 2.46167 0
M  V30 12693 H 1158.06 1.96107 1.67032 0
M  V30 12694 H 1158.01 0.878808 3.01868 0
M  V30 12695 N 1161.79 -0.095206 1.57312 0
M  V30 12696 C 1162.7 -1.13388 2.05379 0
M  V30 12697 C 1163.71 -1.43868 0.978668 0
M  V30 12698 O 1164.89 -1.54512 1.29182 0
M  V30 12699 C 1161.95 -2.43444 2.46852 0
M  V30 12700 C 1161.01 -2.20146 3.68557 0
M  V30 12701 C 1160.25 -3.44001 4.08043 0
M  V30 12702 O 1160.47 -4.52233 3.47623 0
M  V30 12703 O 1159.4 -3.33596 5.00997 0
M  V30 12704 H 1163.23 -0.755622 2.9415 0
M  V30 12705 H 1160.82 -0.307707 1.46197 0
M  V30 12706 H 1162.7 -3.20027 2.74155 0
M  V30 12707 H 1161.37 -2.80696 1.61219 0
M  V30 12708 H 1160.28 -1.41345 3.46371 0
M  V30 12709 H 1161.61 -1.87787 4.54969 0
M  V30 12710 N 1163.26 -1.53291 -0.366026 0
M  V30 12711 C 1164.54 -1.60055 -1.12436 0
M  V30 12712 C 1164.92 -0.407811 -2.07123 0
M  V30 12713 O 1164.27 0.601977 -2.20428 0
M  V30 12714 C 1164.48 -2.95062 -1.86385 0
M  V30 12715 C 1165.83 -3.49623 -2.40934 0
M  V30 12716 O 1166.85 -2.97088 -1.96512 0
M  V30 12717 O 1165.71 -4.41461 -3.2214 0
M  V30 12718 H 1162.8 -0.646476 -0.51575 0
M  V30 12719 H 1165.35 -1.65632 -0.369326 0
M  V30 12720 H 1164.12 -3.73312 -1.17277 0
M  V30 12721 H 1163.75 -2.92973 -2.68798 0
M  V30 12722 N 1164.74 0.6258 -1.44643 0
M  V30 12723 C 1165.99 1.3873 -1.47925 0
M  V30 12724 C 1166.32 1.93868 -0.113469 0
M  V30 12725 O 1165.6 1.73976 0.869639 0
M  V30 12726 C 1165.88 2.54867 -2.54391 0
M  V30 12727 C 1165.73 2.05044 -4.00346 0
M  V30 12728 C 1167.05 3.57043 -2.57309 0
M  V30 12729 H 1164.17 0.503087 -0.538584 0
M  V30 12730 H 1166.81 0.707102 -1.76352 0
M  V30 12731 H 1164.96 3.12894 -2.30281 0
M  V30 12732 H 1166.63 1.51807 -4.35606 0
M  V30 12733 H 1164.88 1.36185 -4.11869 0
M  V30 12734 H 1165.55 2.88681 -4.70497 0
M  V30 12735 H 1168.02 3.08826 -2.78865 0
M  V30 12736 H 1166.9 4.35818 -3.33698 0
M  V30 12737 H 1167.16 4.11464 -1.61708 0
M  V30 12738 N 1166.22 1.31629 0.866686 0
M  V30 12739 C 1167.64 1.10358 1.15296 0
M  V30 12740 C 1167.84 -0.123807 2.01119 0
M  V30 12741 O 1166.89 -0.81219 2.39081 0
M  V30 12742 C 1168.21 2.37684 1.84193 0
M  V30 12743 C 1169.75 2.43326 1.9688 0
M  V30 12744 C 1170.23 3.70541 2.69191 0
M  V30 12745 N 1171.72 3.71454 2.76724 0
M  V30 12746 C 1172.45 4.66585 3.33295 0
M  V30 12747 N 1171.95 5.72075 3.90771 0
M  V30 12748 N 1173.74 4.541 3.31284 0
M  V30 12749 H 1165.89 2.10343 0.29487 0
M  V30 12750 H 1168.16 0.928096 0.193239 0
M  V30 12751 H 1167.86 3.27352 1.28582 0
M  V30 12752 H 1167.74 2.47731 2.84445 0
M  V30 12753 H 1170.12 1.54124 2.51654 0
M  V30 12754 H 1170.21 2.3724 0.956596 0
M  V30 12755 H 1169.85 4.60111 2.15083 0
M  V30 12756 H 1169.78 3.73894 3.70825 0
M  V30 12757 H 1172.27 2.952 2.35936 0
M  V30 12758 H 1172.58 6.40738 4.32058 0
M  V30 12759 H 1170.93 5.75844 3.89138 0
M  V30 12760 H 1174.12 3.70861 2.85622 0
M  V30 12761 H 1174.29 5.28416 3.75074 0
M  V30 12762 N 1167.7 -1.08142 1.14644 0
M  V30 12763 C 1168.65 -2.17229 0.831513 0
M  V30 12764 C 1169.64 -1.68311 -0.19173 0
M  V30 12765 O 1170.85 -1.79937 -0.0475596 0
M  V30 12766 H 1167.22 -0.708807 0.25119 0
M  V30 12767 H 1169.19 -2.41014 1.75939 0
M  V30 12768 C 1167.94 -3.46146 0.328347 0
M  V30 12769 H 1167.27 -3.84166 1.10708 0
M  V30 12770 H 1168.71 -4.23747 0.146568 0
M  V30 12771 C 1167.16 -3.2327 -0.948594 0
M  V30 12772 O 1167.69 -3.47111 -2.0218 0
M  V30 12773 N 1165.9 -2.76799 -0.884909 0
M  V30 12774 H 1165.45 -2.57597 -0.011399 0
M  V30 12775 H 1165.41 -2.61871 -1.73985 0
M  V30 12776 N 1169.18 -0.941978 -1.26351 0
M  V30 12777 C 1170.11 -0.469913 -2.28723 0
M  V30 12778 C 1171.09 0.477218 -1.63269 0
M  V30 12779 O 1172.27 0.378902 -1.90468 0
M  V30 12780 C 1169.4 0.264971 -3.46288 0
M  V30 12781 C 1168.36 -0.595682 -4.23834 0
M  V30 12782 C 1167.68 0.269208 -5.34022 0
M  V30 12783 C 1168.98 -1.86743 -4.87775 0
M  V30 12784 H 1170.68 -1.32551 -2.6846 0
M  V30 12785 H 1168.22 -0.638809 -1.29055 0
M  V30 12786 H 1170.18 0.606259 -4.17016 0
M  V30 12787 H 1168.9 1.15471 -3.05506 0
M  V30 12788 H 1167.56 -0.919875 -3.54872 0
M  V30 12789 H 1167.21 1.15832 -4.89481 0
M  V30 12790 H 1166.91 -0.30325 -5.86817 0
M  V30 12791 H 1168.43 0.605748 -6.07588 0
M  V30 12792 H 1169.85 -1.59333 -5.50714 0
M  V30 12793 H 1168.24 -2.38452 -5.50691 0
M  V30 12794 H 1169.31 -2.57831 -4.10671 0
M  V30 12795 N 1170.66 1.40747 -0.709091 0
M  V30 12796 C 1171.88 2.05319 -0.255258 0
M  V30 12797 C 1172.3 1.53406 1.10054 0
M  V30 12798 O 1171.66 0.687905 1.69039 0
M  V30 12799 C 1171.71 3.60835 -0.219251 0
M  V30 12800 O 1171.43 4.1083 -1.52151 0
M  V30 12801 C 1172.93 4.42572 0.253927 0
M  V30 12802 H 1170.15 0.660904 -0.115959 0
M  V30 12803 H 1172.69 1.80274 -0.965474 0
M  V30 12804 H 1170.85 3.84872 0.441882 0
M  V30 12805 H 1171.26 5.04979 -1.41764 0
M  V30 12806 H 1172.74 5.51529 0.22798 0
M  V30 12807 H 1173.21 4.19673 1.29504 0
M  V30 12808 H 1173.82 4.23629 -0.376694 0
M  V30 12809 N 1172.13 0.454803 1.50895 0
M  V30 12810 C 1173.06 -0.337982 2.31041 0
M  V30 12811 C 1174.04 -1.00523 1.37219 0
M  V30 12812 O 1175.23 -1.00553 1.66141 0
M  V30 12813 C 1172.36 -1.42964 3.1651 0
M  V30 12814 C 1171.31 -0.884907 4.18752 0
M  V30 12815 C 1170.64 -2.07363 4.92854 0
M  V30 12816 C 1171.94 0.0926716 5.22218 0
M  V30 12817 H 1173.63 0.33089 2.97566 0
M  V30 12818 H 1171.18 0.160577 1.43102 0
M  V30 12819 H 1173.13 -1.9916 3.71367 0
M  V30 12820 H 1171.86 -2.12705 2.47839 0
M  V30 12821 H 1170.52 -0.345031 3.64973 0
M  V30 12822 H 1170.16 -2.75764 4.2067 0
M  V30 12823 H 1169.86 -1.71545 5.62002 0
M  V30 12824 H 1171.39 -2.6408 5.5054 0
M  V30 12825 H 1172.8 -0.379568 5.72042 0
M  V30 12826 H 1171.2 0.3643 5.98993 0
M  V30 12827 H 1172.27 1.02383 4.73968 0
M  V30 12828 N 1173.61 -1.56489 0.186789 0
M  V30 12829 C 1174.56 -2.18703 -0.737402 0
M  V30 12830 C 1175.53 -1.13171 -1.21579 0
M  V30 12831 O 1176.71 -1.41388 -1.28118 0
M  V30 12832 C 1173.85 -2.84394 -1.95484 0
M  V30 12833 C 1172.97 -4.04429 -1.51859 0
M  V30 12834 C 1172.1 -4.58001 -2.69089 0
M  V30 12835 C 1171.14 -5.70412 -2.22029 0
M  V30 12836 N 1170.28 -6.18425 -3.32407 0
M  V30 12837 H 1175.12 -2.97327 -0.200105 0
M  V30 12838 H 1172.65 -1.46842 -0.087032 0
M  V30 12839 H 1174.61 -3.20646 -2.66912 0
M  V30 12840 H 1173.24 -2.08347 -2.46559 0
M  V30 12841 H 1172.29 -3.73895 -0.70048 0
M  V30 12842 H 1173.61 -4.85756 -1.13327 0
M  V30 12843 H 1172.76 -4.96515 -3.48652 0
M  V30 12844 H 1171.5 -3.75764 -3.1089 0
M  V30 12845 H 1170.5 -5.31434 -1.40918 0
M  V30 12846 H 1171.73 -6.54461 -1.81268 0
M  V30 12847 H 1169.68 -5.39113 -3.73755 0
M  V30 12848 H 1169.59 -6.94782 -2.98017 0
M  V30 12849 H 1170.86 -6.61592 -4.12209 0
M  V30 12850 N 1175.09 0.086862 -1.5736 0
M  V30 12851 C 1176.34 0.787581 -1.85688 0
M  V30 12852 C 1176.65 1.79494 -0.777263 0
M  V30 12853 O 1177.86 2.54415 -0.947914 0
M  V30 12854 C 1176.31 1.45155 -3.2933 0
M  V30 12855 C 1175.92 0.483539 -4.45383 0
M  V30 12856 C 1177.67 2.13552 -3.66873 0
M  V30 12857 C 1175.57 1.15257 -5.8006 0
M  V30 12858 H 1174.5 0.297882 -0.692663 0
M  V30 12859 H 1177.15 0.0406299 -1.83455 0
M  V30 12860 H 1175.54 2.24625 -3.26128 0
M  V30 12861 H 1176.71 -0.280254 -4.59947 0
M  V30 12862 H 1175.02 -0.0951664 -4.16291 0
M  V30 12863 H 1177.62 2.64355 -4.6478 0
M  V30 12864 H 1177.96 2.92818 -2.95911 0
M  V30 12865 H 1178.5 1.40932 -3.71999 0
M  V30 12866 H 1175.24 0.400546 -6.54275 0
M  V30 12867 H 1174.76 1.88759 -5.69324 0
M  V30 12868 H 1176.44 1.67671 -6.24896 0
M  V30 12869 N 1176.57 1.53483 0.357892 0
M  V30 12870 C 1177.48 1.83434 1.4625 0
M  V30 12871 C 1178.49 0.723313 1.58254 0
M  V30 12872 O 1179.67 1.01416 1.74002 0
M  V30 12873 C 1176.73 2.0249 2.81423 0
M  V30 12874 C 1175.8 3.26378 2.78883 0
M  V30 12875 C 1175.03 3.44516 4.07608 0
M  V30 12876 O 1175.25 2.66787 5.04163 0
M  V30 12877 O 1174.19 4.37898 4.12952 0
M  V30 12878 H 1178.01 2.77294 1.23861 0
M  V30 12879 H 1175.6 1.38958 0.548722 0
M  V30 12880 H 1177.48 2.16552 3.61501 0
M  V30 12881 H 1176.15 1.11819 3.03773 0
M  V30 12882 H 1175.06 3.17733 1.97475 0
M  V30 12883 H 1176.39 4.16996 2.61486 0
M  V30 12884 N 1178.05 -0.61812 1.44973 0
M  V30 12885 C 1178.98 -1.74299 1.48837 0
M  V30 12886 C 1179.99 -1.58296 0.38028 0
M  V30 12887 O 1181.18 -1.66371 0.646757 0
M  V30 12888 C 1178.28 -3.12179 1.31901 0
M  V30 12889 C 1177.45 -3.54519 2.56193 0
M  V30 12890 C 1176.51 -4.71324 2.33966 0
M  V30 12891 O 1175.54 -4.78975 3.07525 0
M  V30 12892 N 1176.74 -5.63894 1.37854 0
M  V30 12893 H 1179.5 -1.7145 2.45815 0
M  V30 12894 H 1177.07 -0.803087 1.40578 0
M  V30 12895 H 1179.06 -3.88059 1.14858 0
M  V30 12896 H 1177.63 -3.09595 0.43239 0
M  V30 12897 H 1176.85 -2.68711 2.88423 0
M  V30 12898 H 1178.14 -3.79563 3.38835 0
M  V30 12899 H 1177.53 -5.60418 0.771273 0
M  V30 12900 H 1176.09 -6.3935 1.26787 0
M  V30 12901 N 1179.52 -1.32087 -0.859693 0
M  V30 12902 C 1180.43 -1.22587 -2.00024 0
M  V30 12903 C 1181.45 -0.140477 -1.73432 0
M  V30 12904 O 1182.63 -0.360213 -1.98153 0
M  V30 12905 C 1179.69 -0.944195 -3.33595 0
M  V30 12906 C 1178.75 -2.11752 -3.73443 0
M  V30 12907 C 1177.98 -1.84919 -5.0064 0
M  V30 12908 O 1178.21 -0.789299 -5.64913 0
M  V30 12909 O 1177.14 -2.70885 -5.37499 0
M  V30 12910 H 1180.97 -2.18457 -2.10974 0
M  V30 12911 H 1178.55 -1.11927 -0.989577 0
M  V30 12912 H 1180.43 -0.803389 -4.13671 0
M  V30 12913 H 1179.11 -0.0156083 -3.23696 0
M  V30 12914 H 1178.02 -2.31378 -2.93965 0
M  V30 12915 H 1179.35 -3.02872 -3.87981 0
M  V30 12916 N 1181 1.07532 -1.15215 0
M  V30 12917 C 1182.23 1.83817 -0.949687 0
M  V30 12918 C 1182.64 1.82004 0.501991 0
M  V30 12919 O 1182 1.23014 1.34811 0
M  V30 12920 C 1182.05 3.30978 -1.45382 0
M  V30 12921 O 1181.77 3.32844 -2.84863 0
M  V30 12922 C 1183.27 4.24037 -1.29257 0
M  V30 12923 H 1180.49 0.58 -0.337404 0
M  V30 12924 H 1183.04 1.35752 -1.52944 0
M  V30 12925 H 1181.19 3.76399 -0.916638 0
M  V30 12926 H 1181.61 4.24773 -3.07682 0
M  V30 12927 H 1183.08 5.25371 -1.69379 0
M  V30 12928 H 1183.56 4.38563 -0.236519 0
M  V30 12929 H 1184.16 3.8445 -1.81874 0
M  V30 12930 N 1182.48 0.948665 1.2585 0
M  V30 12931 C 1183.41 0.421458 2.25292 0
M  V30 12932 C 1184.43 -0.459389 1.56184 0
M  V30 12933 O 1185.61 -0.268627 1.76467 0
M  V30 12934 C 1182.71 -0.412653 3.36378 0
M  V30 12935 C 1181.89 0.453792 4.3504 0
M  V30 12936 C 1180.95 -0.321127 5.25219 0
M  V30 12937 O 1179.97 0.278424 5.68519 0
M  V30 12938 N 1181.17 -1.61576 5.5756 0
M  V30 12939 H 1183.94 1.27636 2.71162 0
M  V30 12940 H 1181.5 0.818367 1.39694 0
M  V30 12941 H 1183.49 -0.938637 3.93664 0
M  V30 12942 H 1182.06 -1.16839 2.89944 0
M  V30 12943 H 1181.28 1.16093 3.76718 0
M  V30 12944 H 1182.57 1.04538 4.97945 0
M  V30 12945 H 1181.97 -2.12488 5.24276 0
M  V30 12946 H 1180.53 -2.08783 6.17457 0
M  V30 12947 N 1183.96 -1.40369 0.716545 0
M  V30 12948 C 1184.91 -2.3071 0.0645944 0
M  V30 12949 C 1185.88 -1.48239 -0.749294 0
M  V30 12950 O 1187.06 -1.76975 -0.713045 0
M  V30 12951 C 1184.2 -3.34456 -0.850478 0
M  V30 12952 C 1183.31 -4.31992 -0.0259594 0
M  V30 12953 C 1182.45 -5.22806 -0.940599 0
M  V30 12954 C 1181.49 -6.12001 -0.110228 0
M  V30 12955 N 1180.62 -6.9523 -0.979796 0
M  V30 12956 H 1185.46 -2.85896 0.840682 0
M  V30 12957 H 1183 -1.40789 0.426258 0
M  V30 12958 H 1184.96 -3.93177 -1.39528 0
M  V30 12959 H 1183.59 -2.8077 -1.59274 0
M  V30 12960 H 1182.64 -3.75045 0.636036 0
M  V30 12961 H 1183.95 -4.94971 0.616883 0
M  V30 12962 H 1183.11 -5.86463 -1.5539 0
M  V30 12963 H 1181.85 -4.60104 -1.61726 0
M  V30 12964 H 1180.85 -5.47373 0.516001 0
M  V30 12965 H 1182.08 -6.76763 0.562944 0
M  V30 12966 H 1180.02 -6.35115 -1.64209 0
M  V30 12967 H 1179.94 -7.54978 -0.393012 0
M  V30 12968 H 1181.21 -7.63335 -1.57924 0
M  V30 12969 N 1185.44 -0.462799 -1.50652 0
M  V30 12970 C 1186.85 -0.11648 -1.59174 0
M  V30 12971 C 1187.05 1.37638 -1.47167 0
M  V30 12972 O 1186.11 2.14886 -1.3259 0
M  V30 12973 C 1187.42 -0.659289 -2.93383 0
M  V30 12974 C 1188.97 -0.62198 -3.06758 0
M  V30 12975 C 1189.44 -1.14219 -4.43529 0
M  V30 12976 N 1190.94 -1.10125 -4.49919 0
M  V30 12977 C 1191.67 -1.47436 -5.54121 0
M  V30 12978 N 1191.17 -1.92156 -6.65618 0
M  V30 12979 N 1192.96 -1.39091 -5.44619 0
M  V30 12980 H 1185.11 -1.43383 -1.56701 0
M  V30 12981 H 1187.37 -0.592438 -0.740082 0
M  V30 12982 H 1187.08 -1.70477 -3.07621 0
M  V30 12983 H 1186.95 -0.0982388 -3.77072 0
M  V30 12984 H 1189.34 0.414576 -2.92173 0
M  V30 12985 H 1189.42 -1.21974 -2.24847 0
M  V30 12986 H 1189.07 -2.17734 -4.58862 0
M  V30 12987 H 1189 -0.52073 -5.24019 0
M  V30 12988 H 1191.49 -0.773154 -3.69906 0
M  V30 12989 H 1191.8 -2.18796 -7.4118 0
M  V30 12990 H 1190.14 -1.96103 -6.6676 0
M  V30 12991 H 1193.34 -1.04001 -4.564 0
M  V30 12992 H 1193.51 -1.68496 -6.2571 0
M  V30 12993 N 1186.91 1.56388 -0.195085 0
M  V30 12994 C 1188.15 1.99478 0.445855 0
M  V30 12995 C 1188.52 1.0792 1.588 0
M  V30 12996 O 1189.72 1.40246 2.29313 0
M  V30 12997 C 1187.99 3.46032 0.894248 0
M  V30 12998 S 1189.55 4.11149 1.53303 0
M  V30 12999 H 1186.37 0.696558 0.142575 0
M  V30 13000 H 1188.97 1.93213 -0.298149 0
M  V30 13001 H 1187.67 4.10366 0.0529258 0
M  V30 13002 H 1187.2 3.56114 1.67172 0
M  V30 13003 H 1189.22 4.08155 2.82177 0
M  V30 13004 N 1188.39 -0.0785156 1.57404 0
M  V30 13005 C 1189.32 -1.09446 2.06262 0
M  V30 13006 C 1190.3 -1.40777 0.954772 0
M  V30 13007 O 1191.49 -1.5052 1.22708 0
M  V30 13008 C 1188.62 -2.40979 2.50093 0
M  V30 13009 C 1187.57 -2.24017 3.64692 0
M  V30 13010 C 1186.9 -3.60873 3.94556 0
M  V30 13011 C 1188.2 -1.66696 4.94985 0
M  V30 13012 H 1189.89 -0.687928 2.9139 0
M  V30 13013 H 1187.44 -0.329466 1.4018 0
M  V30 13014 H 1189.39 -3.12337 2.82884 0
M  V30 13015 H 1188.12 -2.83599 1.61985 0
M  V30 13016 H 1186.77 -1.55101 3.32174 0
M  V30 13017 H 1186.42 -4.01051 3.0359 0
M  V30 13018 H 1186.12 -3.50365 4.71718 0
M  V30 13019 H 1187.65 -4.33673 4.29837 0
M  V30 13020 H 1189.06 -2.27913 5.2605 0
M  V30 13021 H 1187.46 -1.66902 5.76423 0
M  V30 13022 H 1188.53 -0.627827 4.80818 0
M  V30 13023 N 1189.87 -1.5367 -0.349747 0
M  V30 13024 C 1191.1 -1.74547 -1.11089 0
M  V30 13025 C 1191.51 -0.481741 -1.82551 0
M  V30 13026 O 1190.87 0.546272 -1.74132 0
M  V30 13027 C 1190.92 -2.92148 -2.12913 0
M  V30 13028 O 1190.64 -4.13633 -1.44358 0
M  V30 13029 C 1192.14 -3.25027 -3.01451 0
M  V30 13030 H 1189.36 -0.583376 -0.331532 0
M  V30 13031 H 1191.91 -2.00473 -0.403841 0
M  V30 13032 H 1190.06 -2.68572 -2.79192 0
M  V30 13033 H 1190.48 -4.79601 -2.12329 0
M  V30 13034 H 1191.95 -4.10679 -3.68845 0
M  V30 13035 H 1192.43 -2.41064 -3.67131 0
M  V30 13036 H 1193.03 -3.50586 -2.40768 0
M  V30 13037 N 1191.35 0.610423 -1.45298 0
M  V30 13038 C 1192.28 1.73507 -1.4976 0
M  V30 13039 C 1193.29 1.58092 -0.38867 0
M  V30 13040 O 1194.48 1.66026 -0.655571 0
M  V30 13041 C 1191.58 3.11475 -1.33554 0
M  V30 13042 C 1190.76 3.53156 -2.5807 0
M  V30 13043 C 1189.81 4.70076 -2.36463 0
M  V30 13044 O 1188.84 4.77337 -3.10061 0
M  V30 13045 N 1190.04 5.63155 -1.40843 0
M  V30 13046 H 1192.81 1.70144 -2.46721 0
M  V30 13047 H 1190.37 0.79562 -1.41002 0
M  V30 13048 H 1192.36 3.87444 -1.16914 0
M  V30 13049 H 1190.93 3.09361 -0.448803 0
M  V30 13050 H 1190.15 2.67178 -2.89844 0
M  V30 13051 H 1191.44 3.77761 -3.40843 0
M  V30 13052 H 1190.84 5.60001 -0.800982 0
M  V30 13053 H 1189.39 6.38669 -1.30175 0
M  V30 13054 N 1192.83 1.32541 0.852676 0
M  V30 13055 C 1193.77 1.21602 1.98282 0
M  V30 13056 C 1194.77 0.120384 1.68972 0
M  V30 13057 O 1195.97 0.283441 1.77754 0
M  V30 13058 H 1192.35 0.376994 0.650676 0
M  V30 13059 H 1194.32 2.17179 2.04636 0
M  V30 13060 C 1193.07 0.957965 3.34243 0
M  V30 13061 H 1192.39 1.79324 3.57327 0
M  V30 13062 H 1193.83 0.921673 4.13861 0
M  V30 13063 C 1192.29 -0.339271 3.35187 0
M  V30 13064 O 1192.82 -1.3505 3.78318 0
M  V30 13065 N 1191.03 -0.361944 2.88337 0
M  V30 13066 H 1190.57 0.461497 2.53432 0
M  V30 13067 H 1190.53 -1.22976 2.89352 0
M  V30 13068 N 1194.3 -1.0692 1.15784 0
M  V30 13069 C 1195.58 -1.76367 0.845825 0
M  V30 13070 C 1195.96 -2.00594 -0.657672 0
M  V30 13071 O 1195.31 -1.62794 -1.60345 0
M  V30 13072 C 1195.52 -3.06913 1.66149 0
M  V30 13073 C 1196.87 -3.81181 1.87046 0
M  V30 13074 O 1197.89 -3.16737 1.62961 0
M  V30 13075 O 1196.75 -4.96936 2.27413 0
M  V30 13076 H 1193.84 -0.766095 0.311493 0
M  V30 13077 H 1196.39 -1.13246 1.26386 0
M  V30 13078 H 1195.16 -2.84924 2.68205 0
M  V30 13079 H 1194.79 -3.77767 1.24007 0
M  V30 13080 N 1195.78 -0.955326 -1.25345 0
M  V30 13081 C 1196.71 -0.494145 -2.28211 0
M  V30 13082 C 1197.69 0.459875 -1.63766 0
M  V30 13083 O 1198.88 0.358679 -1.90859 0
M  V30 13084 C 1196.01 0.228228 -3.46549 0
M  V30 13085 C 1194.96 -0.640601 -4.23179 0
M  V30 13086 C 1194.29 0.212553 -5.34277 0
M  V30 13087 C 1195.59 -1.91906 -4.85767 0
M  V30 13088 H 1197.28 -1.35391 -2.67039 0
M  V30 13089 H 1194.83 -0.652462 -1.2837 0
M  V30 13090 H 1196.78 0.561995 -4.17636 0
M  V30 13091 H 1195.51 1.12224 -3.06714 0
M  V30 13092 H 1194.16 -0.957462 -3.53876 0
M  V30 13093 H 1193.81 1.10634 -4.90682 0
M  V30 13094 H 1193.51 -0.365473 -5.86462 0
M  V30 13095 H 1195.04 0.541271 -6.08196 0
M  V30 13096 H 1196.45 -1.65165 -5.48993 0
M  V30 13097 H 1194.85 -2.44279 -5.48131 0
M  V30 13098 H 1195.92 -2.62173 -4.07914 0
M  V30 13099 N 1197.26 1.39987 -0.723979 0
M  V30 13100 C 1198.21 2.30672 -0.0768286 0
M  V30 13101 C 1199.18 1.48634 0.741422 0
M  V30 13102 O 1200.36 1.77351 0.703649 0
M  V30 13103 C 1197.5 3.34902 0.832729 0
M  V30 13104 C 1196.62 4.32 0.00304942 0
M  V30 13105 C 1195.75 5.23298 0.91286 0
M  V30 13106 C 1194.79 6.12051 0.0777706 0
M  V30 13107 N 1193.93 6.9574 0.942912 0
M  V30 13108 H 1198.77 2.85446 -0.855832 0
M  V30 13109 H 1196.3 1.40561 -0.433718 0
M  V30 13110 H 1198.26 3.93911 1.37441 0
M  V30 13111 H 1196.89 2.81611 1.57782 0
M  V30 13112 H 1195.94 3.74702 -0.655916 0
M  V30 13113 H 1197.26 4.94637 -0.643124 0
M  V30 13114 H 1196.41 5.87279 1.52277 0
M  V30 13115 H 1195.15 4.60956 1.59284 0
M  V30 13116 H 1194.15 5.47092 -0.545022 0
M  V30 13117 H 1195.38 6.76455 -0.598827 0
M  V30 13118 H 1193.33 6.35977 1.60838 0
M  V30 13119 H 1193.24 7.55176 0.352968 0
M  V30 13120 H 1194.51 7.64162 1.53874 0
M  V30 13121 N 1198.74 0.470782 1.50404 0
M  V30 13122 C 1199.67 -0.369532 2.25188 0
M  V30 13123 C 1200.65 -0.996478 1.28488 0
M  V30 13124 O 1201.83 -1.03247 1.57709 0
M  V30 13125 C 1198.96 -1.51775 3.02791 0
M  V30 13126 C 1198.01 -1.00821 4.14412 0
M  V30 13127 S 1198.84 0.076844 5.35445 0
M  V30 13128 C 1200 -1.07525 6.16595 0
M  V30 13129 H 1200.23 0.265286 2.96114 0
M  V30 13130 H 1197.76 0.255662 1.52269 0
M  V30 13131 H 1199.72 -2.17582 3.48092 0
M  V30 13132 H 1198.38 -2.12408 2.31391 0
M  V30 13133 H 1197.57 -1.8678 4.68112 0
M  V30 13134 H 1197.18 -0.427851 3.71545 0
M  V30 13135 H 1199.47 -1.98693 6.47709 0
M  V30 13136 H 1200.41 -0.577518 7.05741 0
M  V30 13137 H 1200.82 -1.32894 5.48634 0
M  V30 13138 N 1200.22 -1.56282 0.203376 0
M  V30 13139 C 1201.15 -2.16714 -0.74616 0
M  V30 13140 C 1202.16 -1.13121 -1.17079 0
M  V30 13141 O 1203.35 -1.40179 -1.10509 0
M  V30 13142 C 1200.45 -2.72115 -2.02007 0
M  V30 13143 C 1199.62 -4.00695 -1.75391 0
M  V30 13144 C 1198.68 -4.40839 -2.8731 0
M  V30 13145 O 1197.71 -5.081 -2.56561 0
M  V30 13146 N 1198.91 -4.05024 -4.15856 0
M  V30 13147 H 1201.68 -2.98821 -0.229326 0
M  V30 13148 H 1199.24 -1.61885 0.0217049 0
M  V30 13149 H 1201.23 -2.95951 -2.76035 0
M  V30 13150 H 1199.8 -1.94415 -2.44789 0
M  V30 13151 H 1199.02 -3.84905 -0.851 0
M  V30 13152 H 1200.31 -4.8461 -1.55017 0
M  V30 13153 H 1199.71 -3.50938 -4.43688 0
M  V30 13154 H 1198.26 -4.33792 -4.86485 0
M  V30 13155 N 1201.7 0.070167 -1.57444 0
M  V30 13156 C 1202.92 0.781894 -1.91557 0
M  V30 13157 C 1203.34 1.71037 -0.799489 0
M  V30 13158 O 1202.7 1.81082 0.227062 0
M  V30 13159 C 1202.75 1.57415 -3.25427 0
M  V30 13160 O 1202.47 0.682991 -4.32743 0
M  V30 13161 C 1203.97 2.38673 -3.73564 0
M  V30 13162 H 1201.19 0.222211 -0.633138 0
M  V30 13163 H 1203.73 0.0399504 -2.04461 0
M  V30 13164 H 1201.89 2.26835 -3.14045 0
M  V30 13165 H 1202.3 1.2342 -5.09772 0
M  V30 13166 H 1203.78 2.89716 -4.6986 0
M  V30 13167 H 1204.25 3.18269 -3.02657 0
M  V30 13168 H 1204.86 1.74405 -3.87896 0
M  V30 13169 N 1203.17 1.53854 0.341593 0
M  V30 13170 C 1204.11 1.78295 1.44027 0
M  V30 13171 C 1205.12 0.664303 1.4863 0
M  V30 13172 O 1206.31 0.941073 1.51678 0
M  V30 13173 C 1203.41 1.86947 2.82673 0
M  V30 13174 C 1202.58 3.16898 3.01487 0
M  V30 13175 C 1201.64 3.16483 4.20386 0
M  V30 13176 O 1200.67 3.90197 4.14409 0
M  V30 13177 N 1201.87 2.3899 5.29022 0
M  V30 13178 H 1204.63 2.73102 1.23431 0
M  V30 13179 H 1202.19 1.52928 0.531483 0
M  V30 13180 H 1204.19 1.84118 3.60392 0
M  V30 13181 H 1202.76 0.993169 2.96403 0
M  V30 13182 H 1201.98 3.32835 2.11221 0
M  V30 13183 H 1203.26 4.02733 3.1094 0
M  V30 13184 H 1202.66 1.78657 5.36748 0
M  V30 13185 H 1201.22 2.41957 6.05227 0
M  V30 13186 N 1204.65 -0.602709 1.4562 0
M  V30 13187 C 1205.58 -1.7271 1.50678 0
M  V30 13188 C 1206.6 -1.57884 0.397048 0
M  V30 13189 O 1207.79 -1.65676 0.664367 0
M  V30 13190 C 1204.89 -3.10762 1.35204 0
M  V30 13191 C 1204.06 -3.51782 2.59939 0
M  V30 13192 C 1203.12 -4.68816 2.38952 0
M  V30 13193 O 1202.14 -4.75686 3.12588 0
M  V30 13194 N 1203.35 -5.624 1.43827 0
M  V30 13195 H 1206.11 -1.68833 2.47619 0
M  V30 13196 H 1203.67 -0.788131 1.41422 0
M  V30 13197 H 1205.66 -3.86819 1.18967 0
M  V30 13198 H 1204.23 -3.09119 0.465203 0
M  V30 13199 H 1203.45 -2.65637 2.91257 0
M  V30 13200 H 1204.74 -3.75948 3.42842 0
M  V30 13201 H 1204.14 -5.59568 0.830669 0
M  V30 13202 H 1202.7 -6.37969 1.33561 0
M  V30 13203 N 1206.13 -1.32992 -0.845635 0
M  V30 13204 C 1207.38 -1.24249 -1.60281 0
M  V30 13205 C 1207.71 0.193049 -1.93238 0
M  V30 13206 O 1206.98 1.1326 -1.58122 0
M  V30 13207 C 1207.27 -2.1111 -2.91727 0
M  V30 13208 C 1207.12 -3.63088 -2.65494 0
M  V30 13209 C 1208.44 -1.97913 -3.93089 0
M  V30 13210 H 1205.56 -0.452698 -0.581578 0
M  V30 13211 H 1208.2 -1.63026 -0.975828 0
M  V30 13212 H 1206.35 -1.78169 -3.45236 0
M  V30 13213 H 1208.02 -4.06287 -2.18469 0
M  V30 13214 H 1206.26 -3.85304 -1.99306 0
M  V30 13215 H 1206.94 -4.19202 -3.59129 0
M  V30 13216 H 1209.41 -2.26788 -3.48864 0
M  V30 13217 H 1208.29 -2.60952 -4.82903 0
M  V30 13218 H 1208.55 -0.949378 -4.31786 0
M  V30 13219 N 1207.61 1.06304 -1.1635 0
M  V30 13220 C 1208.56 2.15879 -0.865967 0
M  V30 13221 C 1209.55 1.68595 0.164929 0
M  V30 13222 O 1210.76 1.7999 0.0189271 0
M  V30 13223 H 1207.13 0.704721 -0.262435 0
M  V30 13224 H 1209.1 2.38185 -1.79751 0
M  V30 13225 C 1207.85 3.4558 -0.383374 0
M  V30 13226 H 1207.17 3.82356 -1.16806 0
M  V30 13227 H 1208.61 4.2346 -0.213964 0
M  V30 13228 C 1207.07 3.24738 0.897044 0
M  V30 13229 O 1207.6 3.50284 1.96632 0
M  V30 13230 N 1205.81 2.78172 0.840761 0
M  V30 13231 H 1205.36 2.57583 -0.029584 0
M  V30 13232 H 1205.31 2.64606 1.69797 0
M  V30 13233 N 1209.09 0.96196 1.24836 0
M  V30 13234 C 1210.31 0.63814 1.96813 0
M  V30 13235 C 1210.73 -0.79127 1.71419 0
M  V30 13236 O 1210.09 -1.5302 0.994546 0
M  V30 13237 C 1210.14 0.89626 3.50213 0
M  V30 13238 O 1209.86 2.26947 3.74735 0
M  V30 13239 C 1211.36 0.585836 4.39412 0
M  V30 13240 H 1208.58 0.238598 0.627146 0
M  V30 13241 H 1211.12 1.28833 1.58815 0
M  V30 13242 H 1209.28 0.292368 3.86295 0
M  V30 13243 H 1209.69 2.34514 4.69152 0
M  V30 13244 H 1211.17 0.816935 5.45921 0
M  V30 13245 H 1211.64 -0.479784 4.36572 0
M  V30 13246 H 1212.25 1.16938 4.08908 0
M  V30 13247 N 1210.56 -1.39601 0.731392 0
M  V30 13248 C 1211.49 -2.33268 0.1041 0
M  V30 13249 C 1212.47 -1.53724 -0.728219 0
M  V30 13250 O 1213.66 -1.82131 -0.673933 0
M  V30 13251 C 1210.79 -3.37802 -0.806646 0
M  V30 13252 C 1209.74 -4.27928 -0.0787588 0
M  V30 13253 C 1209.07 -5.23131 -1.10628 0
M  V30 13254 C 1210.37 -5.11086 1.07651 0
M  V30 13255 H 1212.06 -2.85975 0.886496 0
M  V30 13256 H 1209.61 -1.375 0.427746 0
M  V30 13257 H 1211.56 -4.02278 -1.25499 0
M  V30 13258 H 1210.29 -2.83527 -1.62112 0
M  V30 13259 H 1208.95 -3.64926 0.349926 0
M  V30 13260 H 1208.59 -4.65152 -1.91422 0
M  V30 13261 H 1208.29 -5.84277 -0.624043 0
M  V30 13262 H 1209.82 -5.90483 -1.5544 0
M  V30 13263 H 1211.23 -5.68927 0.706781 0
M  V30 13264 H 1209.63 -5.81356 1.48814 0
M  V30 13265 H 1210.7 -4.46131 1.89988 0
M  V30 13266 N 1212.04 -0.478751 -1.50152 0
M  V30 13267 C 1212.99 0.311426 -2.28689 0
M  V30 13268 C 1213.96 0.980375 -1.34082 0
M  V30 13269 O 1215.14 0.991337 -1.63025 0
M  V30 13270 C 1212.28 1.38302 -3.16175 0
M  V30 13271 C 1211.4 0.728084 -4.2582 0
M  V30 13272 C 1210.53 1.77822 -5.00552 0
M  V30 13273 C 1209.57 1.10395 -6.02063 0
M  V30 13274 N 1208.71 2.09728 -6.70044 0
M  V30 13275 H 1213.55 -0.364592 -2.95761 0
M  V30 13276 H 1211.09 -0.191645 -1.45846 0
M  V30 13277 H 1213.04 2.01606 -3.65255 0
M  V30 13278 H 1211.67 2.0281 -2.51133 0
M  V30 13279 H 1210.73 -0.0177026 -3.80396 0
M  V30 13280 H 1212.04 0.196209 -4.98414 0
M  V30 13281 H 1211.19 2.48687 -5.53389 0
M  V30 13282 H 1209.93 2.34392 -4.27682 0
M  V30 13283 H 1208.94 0.38096 -5.48479 0
M  V30 13284 H 1210.16 0.545045 -6.76909 0
M  V30 13285 H 1208.11 2.65301 -5.9996 0
M  V30 13286 H 1208.02 1.61546 -7.38538 0
M  V30 13287 H 1209.29 2.7995 -7.27495 0
M  V30 13288 N 1213.52 1.56172 -0.211661 0
M  V30 13289 C 1214.45 2.15791 0.74225 0
M  V30 13290 C 1215.43 1.0994 1.198 0
M  V30 13291 O 1216.62 1.38143 1.28253 0
M  V30 13292 C 1213.74 2.73021 2.00443 0
M  V30 13293 C 1212.79 3.91611 1.68946 0
M  V30 13294 S 1213.62 5.29139 0.822949 0
M  V30 13295 C 1214.78 5.898 2.09491 0
M  V30 13296 H 1215.01 2.96366 0.235482 0
M  V30 13297 H 1212.54 1.544 0.0035357 0
M  V30 13298 H 1214.5 3.06635 2.7292 0
M  V30 13299 H 1213.16 1.92457 2.48232 0
M  V30 13300 H 1212.36 4.30122 2.62699 0
M  V30 13301 H 1211.96 3.59093 1.04539 0
M  V30 13302 H 1214.25 6.05172 3.04587 0
M  V30 13303 H 1215.19 6.86036 1.75386 0
M  V30 13304 H 1215.6 5.18546 2.23093 0
M  V30 13305 N 1215 -0.0618163 1.57479 0
M  V30 13306 C 1216.22 -0.775513 1.92355 0
M  V30 13307 C 1216.65 -1.69816 0.808949 0
M  V30 13308 O 1216.01 -1.79736 -0.23761 0
M  V30 13309 C 1216.05 -1.5367 3.26218 0
M  V30 13310 O 1215.16 -2.64802 3.16155 0
M  V30 13311 H 1214.5 -0.210909 0.629614 0
M  V30 13312 H 1217.03 -0.0270752 2.04582 0
M  V30 13313 H 1217.04 -1.91379 3.6033 0
M  V30 13314 H 1215.71 -0.859798 4.06916 0
M  V30 13315 H 1214.29 -2.29876 2.93618 0
M  V30 13316 N 1216.48 -1.54033 -0.333429 0
M  V30 13317 C 1217.39 -1.85737 -1.43314 0
M  V30 13318 C 1218.4 -0.748398 -1.57083 0
M  V30 13319 O 1219.58 -1.04171 -1.72367 0
M  V30 13320 C 1216.64 -2.06942 -2.78165 0
M  V30 13321 C 1215.7 -3.30774 -2.73655 0
M  V30 13322 C 1214.94 -3.50957 -4.02075 0
M  V30 13323 O 1215.16 -2.74774 -4.99855 0
M  V30 13324 O 1214.09 -4.44412 -4.05933 0
M  V30 13325 H 1217.92 -2.7923 -1.19434 0
M  V30 13326 H 1215.51 -1.39814 -0.526546 0
M  V30 13327 H 1217.39 -2.22276 -3.58011 0
M  V30 13328 H 1216.06 -1.16638 -3.01956 0
M  V30 13329 H 1214.97 -3.20835 -1.92395 0
M  V30 13330 H 1216.3 -4.21103 -2.54819 0
M  V30 13331 N 1217.95 0.594978 -1.45938 0
M  V30 13332 C 1218.9 1.70489 -1.5557 0
M  V30 13333 C 1219.87 1.61193 -0.400751 0
M  V30 13334 O 1221.06 1.80587 -0.615882 0
M  V30 13335 C 1218.2 3.08817 -1.54033 0
M  V30 13336 C 1217.31 3.28827 -2.80173 0
M  V30 13337 C 1216.44 4.57333 -2.70222 0
M  V30 13338 C 1215.48 4.70644 -3.91357 0
M  V30 13339 N 1214.62 5.90463 -3.79865 0
M  V30 13340 H 1219.46 1.61593 -2.50383 0
M  V30 13341 H 1217 0.787747 -1.24229 0
M  V30 13342 H 1218.96 3.88865 -1.51129 0
M  V30 13343 H 1217.59 3.1664 -0.627617 0
M  V30 13344 H 1216.64 2.42467 -2.9311 0
M  V30 13345 H 1217.95 3.34534 -3.69985 0
M  V30 13346 H 1217.1 5.45593 -2.65354 0
M  V30 13347 H 1215.84 4.54045 -1.7803 0
M  V30 13348 H 1214.85 3.80805 -3.9657 0
M  V30 13349 H 1216.07 4.75721 -4.8463 0
M  V30 13350 H 1214.02 5.88196 -2.90451 0
M  V30 13351 H 1213.94 5.97385 -4.63322 0
M  V30 13352 H 1215.2 6.81187 -3.78952 0
M  V30 13353 N 1219.43 1.33438 0.838571 0
M  V30 13354 C 1220.36 1.19552 1.9555 0
M  V30 13355 C 1221.38 0.12642 1.62308 0
M  V30 13356 O 1222.57 0.376868 1.74476 0
M  V30 13357 C 1219.67 0.811273 3.29046 0
M  V30 13358 C 1218.84 1.97207 3.9042 0
M  V30 13359 C 1217.9 1.56875 5.02271 0
M  V30 13360 O 1216.92 2.28314 5.21403 0
M  V30 13361 N 1218.13 0.473924 5.78562 0
M  V30 13362 H 1220.89 2.15769 2.07999 0
M  V30 13363 H 1218.45 1.26187 1.01432 0
M  V30 13364 H 1220.44 0.523553 4.01299 0
M  V30 13365 H 1219.01 -0.0602291 3.12542 0
M  V30 13366 H 1218.23 2.4254 3.10754 0
M  V30 13367 H 1219.52 2.74878 4.28158 0
M  V30 13368 H 1218.92 -0.120306 5.65572 0
M  V30 13369 H 1217.48 0.245877 6.51336 0
M  V30 13370 N 1220.91 -1.05686 1.16912 0
M  V30 13371 C 1221.84 -2.15268 0.904532 0
M  V30 13372 C 1222.82 -1.69424 -0.151548 0
M  V30 13373 O 1224.01 -1.942 -0.00235371 0
M  V30 13374 C 1221.14 -3.44853 0.411581 0
M  V30 13375 C 1220.09 -4.04237 1.40628 0
M  V30 13376 C 1219.42 -5.29105 0.771479 0
M  V30 13377 C 1220.72 -4.42303 2.77787 0
M  V30 13378 H 1222.41 -2.37659 1.82094 0
M  V30 13379 H 1219.96 -1.14217 0.876947 0
M  V30 13380 H 1221.91 -4.20857 0.213929 0
M  V30 13381 H 1220.63 -3.22099 -0.540352 0
M  V30 13382 H 1219.29 -3.30297 1.59058 0
M  V30 13383 H 1218.94 -5.02652 -0.187133 0
M  V30 13384 H 1218.64 -5.69797 1.43545 0
M  V30 13385 H 1220.16 -6.07801 0.583988 0
M  V30 13386 H 1221.58 -5.09362 2.63103 0
M  V30 13387 H 1219.98 -4.93997 3.40716 0
M  V30 13388 H 1221.05 -3.52877 3.32575 0
M  V30 13389 N 1222.39 -0.968567 -1.24324 0
M  V30 13390 C 1223.34 -0.498817 -2.25345 0
M  V30 13391 C 1224.31 0.456082 -1.59716 0
M  V30 13392 O 1225.49 0.366254 -1.87252 0
M  V30 13393 C 1222.63 0.204027 -3.44496 0
M  V30 13394 C 1221.74 -0.789741 -4.2472 0
M  V30 13395 C 1220.88 -0.0629156 -5.31163 0
M  V30 13396 C 1219.92 -1.04669 -6.03084 0
M  V30 13397 N 1219.05 -0.349812 -7.01228 0
M  V30 13398 H 1223.89 -1.36511 -2.64894 0
M  V30 13399 H 1221.43 -0.684288 -1.30215 0
M  V30 13400 H 1223.39 0.628223 -4.12443 0
M  V30 13401 H 1222.02 1.03426 -3.05782 0
M  V30 13402 H 1221.07 -1.33237 -3.56303 0
M  V30 13403 H 1222.38 -1.53988 -4.74436 0
M  V30 13404 H 1221.54 0.419233 -6.0525 0
M  V30 13405 H 1220.28 0.719915 -4.82357 0
M  V30 13406 H 1219.28 -1.53971 -5.278 0
M  V30 13407 H 1220.51 -1.82998 -6.53979 0
M  V30 13408 H 1218.45 0.414026 -6.54692 0
M  V30 13409 H 1218.37 -1.03881 -7.48829 0
M  V30 13410 H 1219.64 0.11034 -7.79422 0
M  V30 13411 N 1223.87 1.39211 -0.738786 0
M  V30 13412 C 1224.8 2.29117 -0.0616489 0
M  V30 13413 C 1225.81 1.47008 0.699462 0
M  V30 13414 O 1227 1.70041 0.542998 0
M  V30 13415 C 1224.1 3.25692 0.936893 0
M  V30 13416 C 1223.27 4.3676 0.236515 0
M  V30 13417 C 1222.33 5.1362 1.1437 0
M  V30 13418 O 1221.36 5.65816 0.619762 0
M  V30 13419 N 1222.56 5.25184 2.4731 0
M  V30 13420 H 1225.33 2.8787 -0.833711 0
M  V30 13421 H 1222.89 1.50832 -0.588323 0
M  V30 13422 H 1224.88 3.73987 1.54648 0
M  V30 13423 H 1223.45 2.67943 1.61014 0
M  V30 13424 H 1222.67 3.90293 -0.553594 0
M  V30 13425 H 1223.96 5.08192 -0.248707 0
M  V30 13426 H 1223.35 4.84302 2.92349 0
M  V30 13427 H 1221.91 5.76905 3.03355 0
M  V30 13428 N 1225.34 0.486708 1.49896 0
M  V30 13429 C 1226.25 -0.304222 2.32619 0
M  V30 13430 C 1227.27 -0.981103 1.43702 0
M  V30 13431 O 1228.45 -0.965639 1.76741 0
M  V30 13432 C 1225.51 -1.36301 3.18783 0
M  V30 13433 C 1224.57 -0.701082 4.23537 0
M  V30 13434 C 1223.81 -1.70943 5.05583 0
M  V30 13435 O 1224.03 -2.93773 4.88931 0
M  V30 13436 O 1222.96 -1.27263 5.88292 0
M  V30 13437 H 1226.79 0.37248 3.01407 0
M  V30 13438 H 1224.37 0.248277 1.47323 0
M  V30 13439 H 1226.26 -1.97594 3.72202 0
M  V30 13440 H 1224.93 -2.0229 2.52706 0
M  V30 13441 H 1223.84 -0.0487926 3.74068 0
M  V30 13442 H 1225.17 -0.0838817 4.92129 0
M  V30 13443 N 1226.82 -1.56058 0.219941 0
M  V30 13444 C 1227.77 -2.21585 -0.707321 0
M  V30 13445 C 1228.77 -1.19473 -1.20094 0
M  V30 13446 O 1229.97 -1.37557 -1.16095 0
M  V30 13447 H 1226.35 -0.710447 -0.246515 0
M  V30 13448 H 1228.32 -2.98111 -0.131214 0
M  V30 13449 C 1227.07 -2.90841 -1.90544 0
M  V30 13450 H 1226.39 -3.6917 -1.53472 0
M  V30 13451 H 1227.83 -3.40092 -2.53206 0
M  V30 13452 C 1226.29 -1.93223 -2.75983 0
M  V30 13453 O 1226.82 -1.44815 -3.74689 0
M  V30 13454 N 1225.02 -1.60907 -2.41986 0
M  V30 13455 H 1224.57 -2.00467 -1.61774 0
M  V30 13456 H 1224.53 -0.958534 -2.99432 0
M  V30 13457 N 1228.3 0.053464 -1.57509 0
M  V30 13458 C 1229.25 1.08014 -2.05999 0
M  V30 13459 C 1230.24 1.38958 -0.968862 0
M  V30 13460 O 1231.45 1.3815 -1.15389 0
M  V30 13461 H 1227.82 0.36575 -0.657062 0
M  V30 13462 H 1229.8 0.645169 -2.91342 0
M  V30 13463 C 1228.54 2.38004 -2.53475 0
M  V30 13464 H 1227.87 2.15048 -3.37038 0
M  V30 13465 H 1229.31 3.08244 -2.91138 0
M  V30 13466 C 1227.77 3.05259 -1.42543 0
M  V30 13467 O 1228.3 3.94097 -0.777832 0
M  V30 13468 N 1226.5 2.66182 -1.16599 0
M  V30 13469 H 1226.05 1.94027 -1.69444 0
M  V30 13470 H 1226.01 3.11503 -0.42585 0
M  V30 13471 N 1229.78 1.54207 0.325255 0
M  V30 13472 C 1230.73 1.79856 1.40128 0
M  V30 13473 C 1231.71 0.654503 1.46987 0
M  V30 13474 O 1232.91 0.914453 1.51548 0
M  V30 13475 C 1230.03 2.02786 2.77007 0
M  V30 13476 C 1229.12 3.23309 2.74467 0
M  V30 13477 N 1229.51 4.44396 2.41549 0
M  V30 13478 C 1227.81 3.24848 3.05598 0
M  V30 13479 C 1228.51 5.26325 2.47703 0
M  V30 13480 N 1227.49 4.63468 2.84074 0
M  V30 13481 H 1231.29 2.71056 1.13603 0
M  V30 13482 H 1228.8 1.53379 0.533728 0
M  V30 13483 H 1230.8 2.19301 3.5456 0
M  V30 13484 H 1229.46 1.12839 3.04463 0
M  V30 13485 H 1230.47 4.71426 2.14425 0
M  V30 13486 H 1227.15 2.44929 3.38107 0
M  V30 13487 H 1228.54 6.33016 2.25257 0
M  V30 13488 N 1231.26 -0.58723 1.46251 0
M  V30 13489 C 1232.19 -1.70694 1.5933 0
M  V30 13490 C 1233.17 -1.64208 0.443831 0
M  V30 13491 O 1234.35 -1.82294 0.669516 0
M  V30 13492 C 1231.48 -3.0933 1.579 0
M  V30 13493 C 1230.44 -3.30643 2.7177 0
M  V30 13494 C 1229.76 -4.69761 2.554 0
M  V30 13495 C 1231.06 -3.18916 4.1363 0
M  V30 13496 H 1232.76 -1.60004 2.53059 0
M  V30 13497 H 1230.3 -0.768343 1.21789 0
M  V30 13498 H 1232.26 -3.87479 1.65644 0
M  V30 13499 H 1230.98 -3.20907 0.60712 0
M  V30 13500 H 1229.64 -2.54892 2.63488 0
M  V30 13501 H 1229.29 -4.78098 1.56306 0
M  V30 13502 H 1228.99 -4.84974 3.31774 0
M  V30 13503 H 1230.51 -5.50084 2.65028 0
M  V30 13504 H 1231.93 -3.86915 4.23048 0
M  V30 13505 H 1230.32 -3.45653 4.90555 0
M  V30 13506 H 1231.39 -2.1606 4.34104 0
M  V30 13507 N 1232.74 -1.33881 -0.831482 0
M  V30 13508 C 1233.67 -1.19089 -1.94661 0
M  V30 13509 C 1234.65 -0.0845706 -1.6238 0
M  V30 13510 O 1235.83 -0.248163 -1.86859 0
M  V30 13511 C 1232.96 -0.828223 -3.28418 0
M  V30 13512 C 1232 -1.94309 -3.79666 0
M  V30 13513 S 1232.84 -3.55524 -4.00454 0
M  V30 13514 C 1233.99 -3.21279 -5.3715 0
M  V30 13515 H 1234.23 -2.13484 -2.0691 0
M  V30 13516 H 1231.76 -1.18809 -0.986098 0
M  V30 13517 H 1233.72 -0.625759 -4.05702 0
M  V30 13518 H 1232.38 0.0972457 -3.13949 0
M  V30 13519 H 1231.57 -1.64288 -4.76472 0
M  V30 13520 H 1231.17 -2.1026 -3.093 0
M  V30 13521 H 1233.46 -2.72563 -6.20255 0
M  V30 13522 H 1234.41 -4.17193 -5.7215 0
M  V30 13523 H 1234.82 -2.57683 -5.02255 0
M  V30 13524 N 1234.21 1.05064 -1.1747 0
M  V30 13525 C 1235.12 2.16346 -0.907286 0
M  V30 13526 C 1236.14 1.7355 0.125013 0
M  V30 13527 O 1237.32 2.01326 -0.0545551 0
M  V30 13528 C 1234.38 3.44077 -0.425681 0
M  V30 13529 C 1233.44 4.01311 -1.52473 0
M  V30 13530 C 1232.67 5.22946 -1.06601 0
M  V30 13531 O 1232.9 5.70345 0.0793329 0
M  V30 13532 O 1231.83 5.72454 -1.85958 0
M  V30 13533 H 1235.66 2.41754 -1.83817 0
M  V30 13534 H 1233.24 1.14834 -0.955693 0
M  V30 13535 H 1235.12 4.21078 -0.164689 0
M  V30 13536 H 1233.8 3.20166 0.477037 0
M  V30 13537 H 1232.71 3.25744 -1.83961 0
M  V30 13538 H 1234.04 4.29543 -2.4032 0
M  V30 13539 N 1235.69 0.975146 1.23809 0
M  V30 13540 C 1236.62 0.45593 2.23599 0
M  V30 13541 C 1237.6 -0.474069 1.55536 0
M  V30 13542 O 1238.79 -0.40373 1.84126 0
M  V30 13543 C 1235.91 -0.341008 3.36979 0
M  V30 13544 C 1234.96 0.532362 4.23164 0
M  V30 13545 S 1235.79 1.97706 4.97667 0
M  V30 13546 C 1236.95 1.18912 6.145 0
M  V30 13547 H 1237.18 1.30157 2.67295 0
M  V30 13548 H 1234.71 0.78074 1.33206 0
M  V30 13549 H 1236.67 -0.794817 4.02732 0
M  V30 13550 H 1235.33 -1.16171 2.91827 0
M  V30 13551 H 1234.53 -0.0798928 5.03937 0
M  V30 13552 H 1234.13 0.922202 3.62452 0
M  V30 13553 H 1236.42 0.447823 6.76018 0
M  V30 13554 H 1237.36 1.97148 6.80102 0
M  V30 13555 H 1237.77 0.710216 5.60014 0
M  V30 13556 N 1237.17 -1.38817 0.746158 0
M  V30 13557 C 1238.12 -2.30521 0.113517 0
M  V30 13558 C 1239.09 -1.49795 -0.717682 0
M  V30 13559 O 1240.27 -1.78448 -0.675345 0
M  V30 13560 C 1237.41 -3.36185 -0.779343 0
M  V30 13561 C 1236.52 -4.3195 0.0656784 0
M  V30 13562 C 1235.66 -5.24684 -0.829492 0
M  V30 13563 C 1234.7 -6.12097 0.0196112 0
M  V30 13564 N 1233.84 -6.97152 -0.832107 0
M  V30 13565 H 1238.68 -2.84048 0.901136 0
M  V30 13566 H 1236.21 -1.39853 0.456025 0
M  V30 13567 H 1238.17 -3.96048 -1.31156 0
M  V30 13568 H 1236.8 -2.84085 -1.53282 0
M  V30 13569 H 1235.85 -3.73611 0.715445 0
M  V30 13570 H 1237.16 -4.93551 0.721735 0
M  V30 13571 H 1236.32 -5.89627 -1.42915 0
M  V30 13572 H 1235.06 -4.63431 -1.5193 0
M  V30 13573 H 1234.06 -5.46156 0.631991 0
M  V30 13574 H 1235.29 -6.75416 0.706369 0
M  V30 13575 H 1233.23 -6.38456 -1.507 0
M  V30 13576 H 1233.15 -7.55642 -0.232782 0
M  V30 13577 H 1234.42 -7.66513 -1.41697 0
M  V30 13578 N 1238.65 -0.49465 -1.49636 0
M  V30 13579 C 1239.58 0.33366 -2.25748 0
M  V30 13580 C 1240.56 0.97591 -1.30057 0
M  V30 13581 O 1241.74 1.00725 -1.59332 0
M  V30 13582 C 1238.87 1.46938 -3.05167 0
M  V30 13583 C 1237.92 0.942149 -4.15964 0
M  V30 13584 S 1238.75 -0.162019 -5.35255 0
M  V30 13585 C 1239.9 0.977022 -6.18227 0
M  V30 13586 H 1240.14 -0.312361 -2.95655 0
M  V30 13587 H 1237.67 -0.279854 -1.51843 0
M  V30 13588 H 1239.63 2.12017 -3.5151 0
M  V30 13589 H 1238.29 2.087 -2.34741 0
M  V30 13590 H 1237.48 1.79309 -4.71025 0
M  V30 13591 H 1237.08 0.368687 -3.72178 0
M  V30 13592 H 1239.38 1.88363 -6.50788 0
M  V30 13593 H 1240.32 0.465168 -7.0657 0
M  V30 13594 H 1240.73 1.24149 -5.50679 0
M  V30 13595 N 1240.13 1.55939 -0.228214 0
M  V30 13596 C 1241.07 2.21957 0.69556 0
M  V30 13597 C 1242.07 1.20109 1.19458 0
M  V30 13598 O 1243.27 1.38171 1.15364 0
M  V30 13599 H 1239.65 0.711744 0.242744 0
M  V30 13600 H 1241.62 2.98177 0.115403 0
M  V30 13601 C 1240.37 2.91847 1.88999 0
M  V30 13602 H 1239.69 3.69978 1.51512 0
M  V30 13603 H 1241.13 3.4143 2.51399 0
M  V30 13604 C 1239.59 1.94683 2.74954 0
M  V30 13605 O 1240.12 1.468 3.73915 0
M  V30 13606 N 1238.33 1.62188 2.41129 0
M  V30 13607 H 1237.87 2.01322 1.60709 0
M  V30 13608 H 1237.83 0.9744 2.98919 0
M  V30 13609 N 1241.6 -0.0451101 1.57535 0
M  V30 13610 C 1242.53 -1.05046 2.08537 0
M  V30 13611 C 1243.52 -1.3872 0.984418 0
M  V30 13612 O 1244.7 -1.47884 1.25873 0
M  V30 13613 C 1241.83 -2.3562 2.55148 0
M  V30 13614 C 1240.78 -2.16231 3.69362 0
M  V30 13615 C 1240.11 -3.52423 4.02122 0
M  V30 13616 C 1241.41 -1.56159 4.98409 0
M  V30 13617 H 1243.1 -0.625965 2.92783 0
M  V30 13618 H 1240.65 -0.299657 1.40848 0
M  V30 13619 H 1242.6 -3.06266 2.89446 0
M  V30 13620 H 1241.33 -2.80099 1.67964 0
M  V30 13621 H 1239.99 -1.4802 3.35389 0
M  V30 13622 H 1239.63 -3.94522 3.12028 0
M  V30 13623 H 1239.33 -3.4028 4.79044 0
M  V30 13624 H 1240.86 -4.24458 4.38939 0
M  V30 13625 H 1242.27 -2.16703 5.30766 0
M  V30 13626 H 1240.67 -1.54638 5.79834 0
M  V30 13627 H 1241.74 -0.525698 4.82042 0
M  V30 13628 N 1243.08 -1.54377 -0.317073 0
M  V30 13629 C 1243.99 -1.87247 -1.41335 0
M  V30 13630 C 1245.01 -0.765017 -1.5628 0
M  V30 13631 O 1246.18 -1.05994 -1.71252 0
M  V30 13632 C 1243.25 -2.0988 -2.75955 0
M  V30 13633 C 1242.31 -3.33658 -2.70131 0
M  V30 13634 C 1241.54 -3.55202 -3.9833 0
M  V30 13635 O 1241.77 -2.80061 -4.96913 0
M  V30 13636 O 1240.7 -4.48693 -4.01196 0
M  V30 13637 H 1244.53 -2.80481 -1.16465 0
M  V30 13638 H 1242.11 -1.40364 -0.511687 0
M  V30 13639 H 1243.99 -2.2606 -3.55633 0
M  V30 13640 H 1242.67 -1.19834 -3.00702 0
M  V30 13641 H 1241.58 -3.22857 -1.88981 0
M  V30 13642 H 1242.91 -4.23782 -2.50338 0
M  V30 13643 N 1244.56 0.579466 -1.4656 0
M  V30 13644 C 1245.51 1.68829 -1.5737 0
M  V30 13645 C 1246.48 1.60759 -0.417825 0
M  V30 13646 O 1247.66 1.79923 -0.635001 0
M  V30 13647 C 1244.8 3.07166 -1.573 0
M  V30 13648 C 1243.92 3.25837 -2.83645 0
M  V30 13649 C 1243.05 4.54441 -2.75057 0
M  V30 13650 C 1242.09 4.66467 -3.96327 0
M  V30 13651 N 1241.23 5.86401 -3.86107 0
M  V30 13652 H 1246.07 1.58928 -2.52083 0
M  V30 13653 H 1243.6 0.774526 -1.25058 0
M  V30 13654 H 1245.56 3.8724 -1.55245 0
M  V30 13655 H 1244.19 3.15956 -0.661166 0
M  V30 13656 H 1243.24 2.39345 -2.95666 0
M  V30 13657 H 1244.56 3.30591 -3.73512 0
M  V30 13658 H 1243.71 5.42748 -2.71126 0
M  V30 13659 H 1242.45 4.52131 -1.82836 0
M  V30 13660 H 1241.45 3.76577 -4.00587 0
M  V30 13661 H 1242.68 4.70554 -4.89649 0
M  V30 13662 H 1240.62 5.85082 -2.96673 0
M  V30 13663 H 1240.54 5.92437 -4.69632 0
M  V30 13664 H 1241.81 6.7713 -3.86155 0
M  V30 13665 N 1246.04 1.3432 0.824371 0
M  V30 13666 C 1246.97 1.21619 1.94271 0
M  V30 13667 C 1247.98 0.143628 1.62165 0
M  V30 13668 O 1249.17 0.395353 1.74067 0
M  V30 13669 C 1246.27 0.846128 3.28167 0
M  V30 13670 C 1245.45 2.01337 3.88307 0
M  V30 13671 C 1244.5 1.62194 5.00579 0
M  V30 13672 O 1243.53 2.33831 5.18953 0
M  V30 13673 N 1244.73 0.535262 5.78027 0
M  V30 13674 H 1247.5 2.17963 2.05699 0
M  V30 13675 H 1245.06 1.27256 1.00088 0
M  V30 13676 H 1247.05 0.566086 4.00721 0
M  V30 13677 H 1245.62 -0.0270764 3.12588 0
M  V30 13678 H 1244.84 2.45823 3.08164 0
M  V30 13679 H 1246.13 2.79404 4.25219 0
M  V30 13680 H 1245.53 -0.0603126 5.65668 0
M  V30 13681 H 1244.08 0.314946 6.51039 0
M  V30 13682 N 1247.52 -1.0444 1.18026 0
M  V30 13683 C 1248.46 -2.14474 0.900202 0
M  V30 13684 C 1249.46 -1.68836 -0.138086 0
M  V30 13685 O 1250.66 -1.79997 0.00971011 0
M  V30 13686 H 1247.04 -0.700457 0.273613 0
M  V30 13687 H 1249.01 -2.35295 1.83518 0
M  V30 13688 C 1247.76 -3.44926 0.438305 0
M  V30 13689 H 1247.08 -3.8045 1.22874 0
M  V30 13690 H 1248.52 -4.23066 0.281306 0
M  V30 13691 C 1246.98 -3.26124 -0.845268 0
M  V30 13692 O 1247.51 -3.53368 -1.91034 0
M  V30 13693 N 1245.72 -2.79474 -0.7964 0
M  V30 13694 H 1245.26 -2.57503 0.0705595 0
M  V30 13695 H 1245.22 -2.67274 -1.65566 0
M  V30 13696 N 1248.99 -0.981699 -1.2329 0
M  V30 13697 C 1249.96 -0.527992 -2.23036 0
M  V30 13698 C 1250.96 0.383083 -1.5617 0
M  V30 13699 O 1252.15 0.176595 -1.73303 0
M  V30 13700 C 1249.28 0.233501 -3.40099 0
M  V30 13701 H 1250.47 -1.40995 -2.64689 0
M  V30 13702 H 1248.03 -0.767724 -1.36146 0
M  V30 13703 H 1248.76 1.13194 -3.03904 0
M  V30 13704 H 1248.55 -0.420505 -3.89839 0
M  V30 13705 H 1250.04 0.539485 -4.14101 0
M  V30 13706 N 1250.47 1.3842 -0.753509 0
M  V30 13707 C 1251.38 2.34252 -0.127811 0
M  V30 13708 C 1252.4 1.59266 0.700743 0
M  V30 13709 O 1253.57 1.9146 0.624914 0
M  V30 13710 C 1250.64 3.38382 0.754886 0
M  V30 13711 C 1249.7 4.2921 -0.0880312 0
M  V30 13712 C 1248.93 5.28367 0.75263 0
M  V30 13713 O 1249.16 5.34537 1.99064 0
M  V30 13714 O 1248.09 6.01656 0.171475 0
M  V30 13715 H 1251.92 2.89454 -0.91925 0
M  V30 13716 H 1249.5 1.40265 -0.514404 0
M  V30 13717 H 1251.38 4.02141 1.25938 0
M  V30 13718 H 1250.06 2.85536 1.52482 0
M  V30 13719 H 1248.97 3.68611 -0.638468 0
M  V30 13720 H 1250.3 4.85311 -0.82062 0
M  V30 13721 N 1251.95 0.502579 1.49372 0
M  V30 13722 C 1252.88 -0.264307 2.31999 0
M  V30 13723 C 1253.86 -0.96107 1.40348 0
M  V30 13724 O 1255.05 -0.952167 1.69255 0
M  V30 13725 C 1252.18 -1.32822 3.20898 0
M  V30 13726 C 1251.13 -0.751236 4.21355 0
M  V30 13727 C 1250.46 -1.91578 4.99201 0
M  V30 13728 C 1251.76 0.258764 5.21659 0
M  V30 13729 H 1253.45 0.425391 2.96363 0
M  V30 13730 H 1251 0.206022 1.42519 0
M  V30 13731 H 1252.95 -1.87245 3.77515 0
M  V30 13732 H 1251.67 -2.04712 2.54481 0
M  V30 13733 H 1250.33 -0.228743 3.65886 0
M  V30 13734 H 1249.98 -2.62241 4.2923 0
M  V30 13735 H 1249.68 -1.53578 5.67175 0
M  V30 13736 H 1251.2 -2.46432 5.58663 0
M  V30 13737 H 1252.62 -0.197385 5.7296 0
M  V30 13738 H 1251.02 0.554681 5.97531 0
M  V30 13739 H 1252.09 1.1741 4.70471 0
M  V30 13740 N 1253.43 -1.55816 0.23648 0
M  V30 13741 C 1254.84 -1.59159 -0.118601 0
M  V30 13742 C 1255.04 -1.25352 -1.57763 0
M  V30 13743 O 1254.1 -0.995863 -2.32032 0
M  V30 13744 C 1255.41 -2.99885 0.221175 0
M  V30 13745 C 1256.96 -3.12567 0.164624 0
M  V30 13746 C 1257.44 -4.55496 0.478285 0
M  V30 13747 N 1258.93 -4.61215 0.428402 0
M  V30 13748 C 1259.66 -5.69768 0.644398 0
M  V30 13749 N 1259.16 -6.86624 0.922966 0
M  V30 13750 N 1260.95 -5.59143 0.575814 0
M  V30 13751 H 1253.1 -1.76063 1.18809 0
M  V30 13752 H 1255.37 -0.819079 0.477297 0
M  V30 13753 H 1255.07 -3.29326 1.2344 0
M  V30 13754 H 1254.95 -3.74425 -0.456723 0
M  V30 13755 H 1257.33 -2.82914 -0.839263 0
M  V30 13756 H 1257.41 -2.40325 0.876219 0
M  V30 13757 H 1257.06 -4.85868 1.47968 0
M  V30 13758 H 1256.99 -5.25984 -0.254671 0
M  V30 13759 H 1259.48 -3.77251 0.221398 0
M  V30 13760 H 1259.79 -7.6528 1.07548 0
M  V30 13761 H 1258.14 -6.88333 0.960325 0
M  V30 13762 H 1261.33 -4.66727 0.358307 0
M  V30 13763 H 1261.5 -6.43674 0.747548 0
M  V30 13764 N 1254.91 0.036755 -1.57557 0
M  V30 13765 C 1255.85 1.03975 -2.06053 0
M  V30 13766 C 1256.82 1.36384 -0.948089 0
M  V30 13767 O 1258.01 1.46853 -1.21815 0
M  V30 13768 C 1255.15 2.33796 -2.53837 0
M  V30 13769 C 1254.26 2.07614 -3.78841 0
M  V30 13770 C 1253.4 3.3125 -4.15267 0
M  V30 13771 C 1252.44 3.00587 -5.33211 0
M  V30 13772 N 1251.57 4.16653 -5.65106 0
M  V30 13773 H 1256.41 0.61924 -2.91495 0
M  V30 13774 H 1253.95 0.294151 -1.44129 0
M  V30 13775 H 1255.91 3.09639 -2.79606 0
M  V30 13776 H 1254.54 2.73584 -1.71323 0
M  V30 13777 H 1253.59 1.22302 -3.60203 0
M  V30 13778 H 1254.9 1.80989 -4.64806 0
M  V30 13779 H 1254.06 4.15466 -4.42123 0
M  V30 13780 H 1252.79 3.60981 -3.27939 0
M  V30 13781 H 1251.8 2.14772 -5.06115 0
M  V30 13782 H 1253.02 2.72142 -6.22186 0
M  V30 13783 H 1250.97 4.4635 -4.80737 0
M  V30 13784 H 1250.89 3.93425 -6.45564 0
M  V30 13785 H 1252.16 5.01764 -5.96534 0
M  V30 13786 N 1256.39 1.54543 0.308881 0
M  V30 13787 C 1257.3 1.87994 1.4034 0
M  V30 13788 C 1258.31 0.773294 1.55872 0
M  V30 13789 O 1259.49 1.069 1.70688 0
M  V30 13790 C 1256.55 2.11341 2.74838 0
M  V30 13791 C 1255.61 3.35086 2.68358 0
M  V30 13792 C 1254.85 3.5731 3.96441 0
M  V30 13793 O 1255.07 2.82692 4.9542 0
M  V30 13794 O 1254 4.50814 3.98811 0
M  V30 13795 H 1257.83 2.81094 1.14976 0
M  V30 13796 H 1255.41 1.40634 0.504236 0
M  V30 13797 H 1257.3 2.27943 3.54429 0
M  V30 13798 H 1255.97 1.21427 3.00062 0
M  V30 13799 H 1254.88 3.23855 1.87267 0
M  V30 13800 H 1256.21 4.25104 2.48087 0
M  V30 13801 N 1257.86 -0.571685 1.46866 0
M  V30 13802 C 1259.28 -0.896172 1.32064 0
M  V30 13803 C 1259.48 -1.9925 0.300291 0
M  V30 13804 O 1258.54 -2.50791 -0.293284 0
M  V30 13805 C 1259.85 -1.3031 2.70998 0
M  V30 13806 C 1261.4 -1.41533 2.79173 0
M  V30 13807 C 1261.87 -1.85587 4.18714 0
M  V30 13808 N 1263.36 -1.92762 4.21185 0
M  V30 13809 C 1264.1 -2.28148 5.26057 0
M  V30 13810 N 1263.59 -2.62248 6.41247 0
M  V30 13811 N 1265.39 -2.28797 5.13428 0
M  V30 13812 H 1257.54 0.152349 2.11853 0
M  V30 13813 H 1259.8 0.00548777 0.947984 0
M  V30 13814 H 1259.51 -0.571469 3.47026 0
M  V30 13815 H 1259.38 -2.26233 3.01826 0
M  V30 13816 H 1261.77 -2.1378 2.03426 0
M  V30 13817 H 1261.85 -0.438342 2.52016 0
M  V30 13818 H 1261.49 -1.13915 4.9496 0
M  V30 13819 H 1261.42 -2.84264 4.43285 0
M  V30 13820 H 1263.91 -1.68854 3.38078 0
M  V30 13821 H 1264.23 -2.88234 7.17036 0
M  V30 13822 H 1262.57 -2.59861 6.44591 0
M  V30 13823 H 1265.76 -2.01587 4.22469 0
M  V30 13824 H 1265.94 -2.56045 5.95269 0
M  V30 13825 N 1259.34 -1.34755 -0.817236 0
M  V30 13826 C 1260.27 -1.22648 -1.93624 0
M  V30 13827 C 1261.29 -0.152226 -1.62087 0
M  V30 13828 O 1262.48 -0.404578 -1.73855 0
M  V30 13829 C 1259.58 -0.863519 -3.27714 0
M  V30 13830 C 1258.75 -2.03394 -3.87233 0
M  V30 13831 C 1257.81 -1.64846 -4.99712 0
M  V30 13832 O 1256.83 -2.3658 -5.17705 0
M  V30 13833 N 1258.04 -0.565909 -5.77735 0
M  V30 13834 H 1260.8 -2.19051 -2.0454 0
M  V30 13835 H 1258.36 -1.27785 -0.994113 0
M  V30 13836 H 1260.35 -0.58733 -4.00415 0
M  V30 13837 H 1258.92 0.0104987 -3.12598 0
M  V30 13838 H 1258.14 -2.47454 -3.06856 0
M  V30 13839 H 1259.43 -2.81655 -4.23731 0
M  V30 13840 H 1258.83 0.030313 -5.65692 0
M  V30 13841 H 1257.39 -0.349467 -6.50862 0
M  V30 13842 N 1260.82 1.03812 -1.18578 0
M  V30 13843 C 1262.1 1.74062 -0.892288 0
M  V30 13844 C 1262.48 2.02267 0.604256 0
M  V30 13845 O 1261.82 1.66988 1.55972 0
M  V30 13846 C 1262.03 3.024 -1.74228 0
M  V30 13847 C 1263.38 3.76088 -1.97087 0
M  V30 13848 O 1264.41 3.12305 -1.71302 0
M  V30 13849 O 1263.27 4.90732 -2.40509 0
M  V30 13850 H 1260.36 0.757567 -0.331695 0
M  V30 13851 H 1262.91 1.09855 -1.29345 0
M  V30 13852 H 1261.68 2.77713 -2.75665 0
M  V30 13853 H 1261.3 3.74346 -1.3398 0
M  V30 13854 N 1262.3 0.988223 1.22768 0
M  V30 13855 C 1263.26 0.539813 2.22752 0
M  V30 13856 C 1264.26 -0.374796 1.56371 0
M  V30 13857 O 1265.45 -0.167402 1.73394 0
M  V30 13858 C 1262.58 -0.215461 3.40218 0
M  V30 13859 H 1263.78 1.42397 2.63938 0
M  V30 13860 H 1261.33 0.774933 1.35737 0
M  V30 13861 H 1262.06 -1.11581 3.045 0
M  V30 13862 H 1261.85 0.441173 3.8961 0
M  V30 13863 H 1263.34 -0.517517 4.14381 0
M  V30 13864 N 1263.78 -1.38018 0.760839 0
M  V30 13865 C 1265.05 -1.94054 0.245437 0
M  V30 13866 C 1265.43 -1.6955 -1.25761 0
M  V30 13867 O 1264.78 -1.03812 -2.03557 0
M  V30 13868 C 1264.99 -3.43681 0.606986 0
M  V30 13869 C 1266.34 -4.20748 0.570673 0
M  V30 13870 O 1267.36 -3.51995 0.545715 0
M  V30 13871 O 1266.22 -5.43327 0.588043 0
M  V30 13872 H 1263.32 -0.825264 0.0535607 0
M  V30 13873 H 1265.86 -1.47369 0.841453 0
M  V30 13874 H 1264.63 -3.55054 1.64476 0
M  V30 13875 H 1264.26 -3.97597 -0.0166576 0
M  V30 13876 N 1265.25 -0.510493 -1.49103 0
M  V30 13877 C 1266.5 0.0305831 -2.02077 0
M  V30 13878 C 1266.82 1.36602 -1.39157 0
M  V30 13879 O 1266.09 1.88016 -0.550154 0
M  V30 13880 H 1264.67 0.0142916 -0.746863 0
M  V30 13881 H 1267.33 -0.669895 -1.83026 0
M  V30 13882 H 1266.43 0.153283 -3.11723 0
M  V30 13883 N 1266.73 1.55688 -0.24474 0
M  V30 13884 C 1267.66 2.18616 0.68844 0
M  V30 13885 C 1268.68 1.16185 1.14039 0
M  V30 13886 O 1269.87 1.43059 1.06754 0
M  V30 13887 C 1266.97 2.77375 1.94721 0
M  V30 13888 C 1266.14 4.05204 1.64706 0
M  V30 13889 C 1265.2 4.48302 2.75521 0
M  V30 13890 O 1264.22 5.14723 2.42999 0
M  V30 13891 N 1265.43 4.15907 4.04971 0
M  V30 13892 H 1268.19 2.99324 0.150018 0
M  V30 13893 H 1265.75 1.61771 -0.0646183 0
M  V30 13894 H 1267.74 3.03165 2.68091 0
M  V30 13895 H 1266.31 2.00837 2.39548 0
M  V30 13896 H 1265.53 3.87026 0.74865 0
M  V30 13897 H 1266.82 4.8855 1.42114 0
M  V30 13898 H 1266.22 3.62579 4.34227 0
M  V30 13899 H 1264.78 4.46538 4.74813 0
M  V30 13900 N 1268.21 -0.0283989 1.57574 0
M  V30 13901 C 1269.14 -1.06191 2.01987 0
M  V30 13902 C 1270.12 -1.35131 0.90434 0
M  V30 13903 O 1271.3 -1.47777 1.17023 0
M  V30 13904 C 1268.43 -2.39646 2.39348 0
M  V30 13905 C 1267.48 -2.26558 3.6135 0
M  V30 13906 S 1268.31 -1.61839 5.10459 0
M  V30 13907 C 1269.47 -2.96783 5.51063 0
M  V30 13908 H 1269.7 -0.683625 2.89333 0
M  V30 13909 H 1267.23 -0.238394 1.52548 0
M  V30 13910 H 1269.19 -3.16394 2.61544 0
M  V30 13911 H 1267.85 -2.74622 1.52452 0
M  V30 13912 H 1267.04 -3.25079 3.85149 0
M  V30 13913 H 1266.65 -1.57954 3.39008 0
M  V30 13914 H 1268.94 -3.93111 5.51788 0
M  V30 13915 H 1269.88 -2.77716 6.51367 0
M  V30 13916 H 1270.29 -2.99386 4.78569 0
M  V30 13917 N 1269.69 -1.54705 -0.300681 0
M  V30 13918 C 1270.63 -1.85678 -1.37084 0
M  V30 13919 C 1271.6 -0.70573 -1.50362 0
M  V30 13920 O 1272.79 -0.954385 -1.65215 0
M  V30 13921 C 1269.93 -2.10995 -2.73084 0
M  V30 13922 C 1269.04 -3.38621 -2.68254 0
M  V30 13923 C 1268.18 -3.53779 -3.9625 0
M  V30 13924 C 1267.22 -4.75195 -3.85818 0
M  V30 13925 N 1266.35 -4.87157 -5.05591 0
M  V30 13926 H 1271.19 -2.76967 -1.09971 0
M  V30 13927 H 1268.73 -1.37147 -0.531887 0
M  V30 13928 H 1270.69 -2.23669 -3.52176 0
M  V30 13929 H 1269.32 -1.22973 -2.98458 0
M  V30 13930 H 1268.37 -3.34566 -1.81025 0
M  V30 13931 H 1269.68 -4.27834 -2.56436 0
M  V30 13932 H 1268.84 -3.66119 -4.83779 0
M  V30 13933 H 1267.58 -2.62699 -4.10902 0
M  V30 13934 H 1266.58 -4.62888 -2.96673 0
M  V30 13935 H 1267.81 -5.67683 -3.72711 0
M  V30 13936 H 1265.75 -3.99001 -5.20706 0
M  V30 13937 H 1265.67 -5.70372 -4.96197 0
M  V30 13938 H 1266.94 -5.03854 -5.9477 0
M  V30 13939 N 1271.17 0.563888 -1.47167 0
M  V30 13940 C 1272.08 1.69903 -1.61772 0
M  V30 13941 C 1273.09 1.6664 -0.500705 0
M  V30 13942 O 1274.27 1.86209 -0.767354 0
M  V30 13943 C 1271.33 3.06411 -1.62213 0
M  V30 13944 C 1270.39 3.20793 -2.8529 0
M  V30 13945 C 1269.63 4.50789 -2.85701 0
M  V30 13946 O 1269.85 5.3584 -1.95529 0
M  V30 13947 O 1268.78 4.68819 -3.77481 0
M  V30 13948 H 1272.61 1.60525 -2.57809 0
M  V30 13949 H 1270.2 0.733125 -1.30175 0
M  V30 13950 H 1272.08 3.87659 -1.65221 0
M  V30 13951 H 1270.75 3.16186 -0.693415 0
M  V30 13952 H 1269.66 2.38967 -2.87829 0
M  V30 13953 H 1270.99 3.15918 -3.77434 0
M  V30 13954 N 1272.64 1.35187 0.810078 0
M  V30 13955 C 1273.57 1.30481 1.93641 0
M  V30 13956 C 1274.56 0.179875 1.69146 0
M  V30 13957 O 1275.74 0.374284 1.90559 0
M  V30 13958 C 1272.87 1.07251 3.30325 0
M  V30 13959 C 1271.82 2.16348 3.69293 0
M  V30 13960 C 1271.15 1.78288 5.04101 0
M  V30 13961 C 1272.45 3.58285 3.80038 0
M  V30 13962 H 1274.14 2.24725 1.97836 0
M  V30 13963 H 1271.69 1.08179 0.950436 0
M  V30 13964 H 1273.64 1.02599 4.08719 0
M  V30 13965 H 1272.37 0.0945203 3.26463 0
M  V30 13966 H 1271.03 2.2009 2.93182 0
M  V30 13967 H 1270.67 0.791163 4.96739 0
M  V30 13968 H 1270.37 2.51315 5.31144 0
M  V30 13969 H 1271.9 1.75155 5.84938 0
M  V30 13970 H 1273.31 3.56884 4.48672 0
M  V30 13971 H 1271.71 4.30044 4.18548 0
M  V30 13972 H 1272.78 3.94691 2.81685 0
M  V30 13973 N 1274.12 -1.03182 1.19127 0
M  V30 13974 C 1275.05 -2.11462 0.884098 0
M  V30 13975 C 1276.07 -1.62342 -0.121984 0
M  V30 13976 O 1277.26 -1.78179 0.107038 0
M  V30 13977 C 1274.36 -3.37559 0.301227 0
M  V30 13978 C 1273.53 -4.15878 1.35514 0
M  V30 13979 C 1272.59 -5.20291 0.786349 0
M  V30 13980 O 1271.61 -5.50069 1.46331 0
M  V30 13981 N 1272.82 -5.79038 -0.411803 0
M  V30 13982 H 1275.58 -2.38405 1.81613 0
M  V30 13983 H 1273.14 -1.19449 1.09287 0
M  V30 13984 H 1275.13 -4.04593 -0.0930685 0
M  V30 13985 H 1273.7 -3.07987 -0.535022 0
M  V30 13986 H 1272.92 -3.44036 1.9244 0
M  V30 13987 H 1274.21 -4.64993 2.06539 0
M  V30 13988 H 1273.61 -5.57158 -0.979353 0
M  V30 13989 H 1272.17 -6.47495 -0.747912 0
M  V30 13990 N 1275.6 -0.99472 -1.22242 0
M  V30 13991 C 1276.88 -0.587481 -1.86569 0
M  V30 13992 C 1277.26 0.935174 -1.89256 0
M  V30 13993 O 1276.61 1.81787 -1.3844 0
M  V30 13994 C 1276.82 -1.21001 -3.27353 0
M  V30 13995 C 1278.16 -1.31167 -4.03832 0
M  V30 13996 O 1279.19 -1.16454 -3.36626 0
M  V30 13997 O 1278.05 -1.54731 -5.24138 0
M  V30 13998 H 1275.14 -0.199838 -0.802492 0
M  V30 13999 H 1277.69 -1.09071 -1.30006 0
M  V30 14000 H 1276.46 -2.25143 -3.20041 0
M  V30 14001 H 1276.08 -0.692479 -3.91523 0
M  V30 14002 N 1277.08 1.37613 -0.768148 0
M  V30 14003 C 1278.01 2.28935 -0.110234 0
M  V30 14004 C 1279.02 1.48459 0.668122 0
M  V30 14005 O 1280.21 1.71154 0.506808 0
M  V30 14006 C 1277.31 3.27606 0.867598 0
M  V30 14007 C 1276.49 4.37163 0.143819 0
M  V30 14008 C 1275.54 5.15931 1.03449 0
M  V30 14009 O 1274.57 5.67003 0.499605 0
M  V30 14010 N 1275.77 5.30311 2.36114 0
M  V30 14011 H 1278.54 2.86037 -0.894585 0
M  V30 14012 H 1276.1 1.4955 -0.620185 0
M  V30 14013 H 1278.09 3.77183 1.4668 0
M  V30 14014 H 1276.66 2.71298 1.55294 0
M  V30 14015 H 1275.88 3.89031 -0.636257 0
M  V30 14016 H 1277.17 5.0755 -0.356446 0
M  V30 14017 H 1276.57 4.90394 2.82011 0
M  V30 14018 H 1275.12 5.83209 2.9105 0
M  V30 14019 N 1278.56 0.518393 1.4883 0
M  V30 14020 C 1279.49 -0.239685 2.32267 0
M  V30 14021 C 1280.47 -0.94613 1.41359 0
M  V30 14022 O 1281.65 -0.934162 1.70256 0
M  V30 14023 C 1278.78 -1.29411 3.22289 0
M  V30 14024 C 1277.74 -0.706504 4.22129 0
M  V30 14025 C 1277.06 -1.86273 5.01205 0
M  V30 14026 C 1278.36 0.314079 5.21355 0
M  V30 14027 H 1280.06 0.4568 2.95895 0
M  V30 14028 H 1277.6 0.221126 1.42292 0
M  V30 14029 H 1279.56 -1.8323 3.7948 0
M  V30 14030 H 1278.28 -2.02001 2.56638 0
M  V30 14031 H 1276.94 -0.189924 3.66108 0
M  V30 14032 H 1276.59 -2.57674 4.31988 0
M  V30 14033 H 1276.29 -1.47554 5.68772 0
M  V30 14034 H 1277.81 -2.40492 5.61245 0
M  V30 14035 H 1279.22 -0.136604 5.73137 0
M  V30 14036 H 1277.62 0.618026 5.96909 0
M  V30 14037 H 1278.69 1.22394 4.69199 0
M  V30 14038 N 1280.03 -1.55556 0.252993 0
M  V30 14039 C 1280.94 -2.25283 -0.654581 0
M  V30 14040 C 1281.96 -1.27103 -1.18831 0
M  V30 14041 O 1283.14 -1.59993 -1.22329 0
M  V30 14042 C 1280.2 -2.94336 -1.83214 0
M  V30 14043 C 1279.26 -4.0794 -1.33728 0
M  V30 14044 C 1278.5 -4.73691 -2.45871 0
M  V30 14045 O 1278.72 -4.38545 -3.64738 0
M  V30 14046 O 1277.65 -5.62083 -2.15283 0
M  V30 14047 H 1281.48 -3.03565 -0.0904091 0
M  V30 14048 H 1279.06 -1.49385 0.0212535 0
M  V30 14049 H 1280.95 -3.37808 -2.5192 0
M  V30 14050 H 1279.62 -2.18989 -2.38381 0
M  V30 14051 H 1278.53 -3.68971 -0.617323 0
M  V30 14052 H 1279.86 -4.85124 -0.831617 0
M  V30 14053 N 1281.51 0.0200419 -1.57587 0
M  V30 14054 C 1282.48 1.00255 -2.06111 0
M  V30 14055 C 1283.48 1.28488 -0.966829 0
M  V30 14056 O 1284.67 1.2334 -1.23015 0
M  V30 14057 C 1281.8 2.33296 -2.48567 0
M  V30 14058 H 1282.99 0.583216 -2.94174 0
M  V30 14059 H 1280.54 0.267077 -1.54001 0
M  V30 14060 H 1281.28 2.79959 -1.63687 0
M  V30 14061 H 1281.06 2.14131 -3.28467 0
M  V30 14062 H 1282.55 3.03817 -2.86505 0
M  V30 14063 N 1282.99 1.54862 0.292472 0
M  V30 14064 C 1283.9 1.89472 1.38339 0
M  V30 14065 C 1284.92 0.789783 1.55043 0
M  V30 14066 O 1286.09 1.08705 1.69544 0
M  V30 14067 C 1283.16 2.14244 2.72581 0
M  V30 14068 C 1282.22 3.37913 2.64789 0
M  V30 14069 C 1281.45 3.61494 3.92629 0
M  V30 14070 O 1281.67 2.87931 4.92394 0
M  V30 14071 O 1280.61 4.55019 3.94007 0
M  V30 14072 H 1284.43 2.82298 1.11989 0
M  V30 14073 H 1282.02 1.41161 0.489291 0
M  V30 14074 H 1283.9 2.31689 3.51991 0
M  V30 14075 H 1282.58 1.24603 2.98757 0
M  V30 14076 H 1281.48 3.25823 1.83821 0
M  V30 14077 H 1282.82 4.27711 2.43565 0
M  V30 14078 N 1284.47 -0.556076 1.47464 0
M  V30 14079 C 1285.4 -1.67829 1.56096 0
M  V30 14080 C 1286.41 -1.56541 0.447077 0
M  V30 14081 O 1287.6 -1.63478 0.716739 0
M  V30 14082 C 1284.7 -3.06303 1.45023 0
M  V30 14083 C 1283.88 -3.43334 2.70999 0
M  V30 14084 C 1282.93 -4.60976 2.53746 0
M  V30 14085 O 1281.96 -4.65501 3.27564 0
M  V30 14086 N 1283.16 -5.5754 1.61647 0
M  V30 14087 H 1285.93 -1.6087 2.52865 0
M  V30 14088 H 1283.49 -0.74274 1.43857 0
M  V30 14089 H 1285.48 -3.82838 1.31214 0
M  V30 14090 H 1284.05 -3.07483 0.563311 0
M  V30 14091 H 1283.27 -2.56236 2.99561 0
M  V30 14092 H 1284.56 -3.64851 3.54629 0
M  V30 14093 H 1283.96 -5.56642 1.00827 0
M  V30 14094 H 1282.51 -6.33397 1.53789 0
M  V30 14095 N 1285.95 -1.35615 -0.802897 0
M  V30 14096 C 1287.18 -1.32025 -1.58911 0
M  V30 14097 C 1287.59 0.103539 -1.88916 0
M  V30 14098 O 1286.93 1.06699 -1.49536 0
M  V30 14099 C 1286.99 -2.06313 -2.94406 0
M  V30 14100 C 1286.65 -3.5548 -2.87198 0
M  V30 14101 C 1287.65 -4.5 -2.60377 0
M  V30 14102 C 1285.34 -3.9818 -3.06199 0
M  V30 14103 C 1287.33 -5.85194 -2.5264 0
M  V30 14104 C 1285.02 -5.33469 -2.98084 0
M  V30 14105 C 1286.02 -6.26788 -2.71341 0
M  V30 14106 O 1285.7 -7.59594 -2.63195 0
M  V30 14107 H 1285.44 -0.454943 -0.500003 0
M  V30 14108 H 1287.99 -1.79106 -1.00549 0
M  V30 14109 H 1286.22 -1.53875 -3.54766 0
M  V30 14110 H 1287.91 -1.95755 -3.55577 0
M  V30 14111 H 1288.67 -4.18327 -2.45413 0
M  V30 14112 H 1284.55 -3.25927 -3.26025 0
M  V30 14113 H 1288.1 -6.58003 -2.31686 0
M  V30 14114 H 1283.99 -5.64754 -3.12607 0
M  V30 14115 H 1284.76 -7.69562 -2.78776 0
M  V30 14116 N 1287.43 1.02549 -1.19673 0
M  V30 14117 C 1288.67 1.76004 -1.00144 0
M  V30 14118 C 1289 1.888 0.467423 0
M  V30 14119 O 1288.26 1.404 1.36331 0
M  V30 14120 C 1288.55 3.18597 -1.61959 0
M  V30 14121 C 1288.22 3.258 -3.11713 0
M  V30 14122 C 1286.88 3.27473 -3.52583 0
M  V30 14123 C 1289.23 3.24675 -4.0772 0
M  V30 14124 C 1286.56 3.25681 -4.88005 0
M  V30 14125 C 1288.91 3.24424 -5.43076 0
M  V30 14126 C 1287.58 3.24396 -5.83372 0
M  V30 14127 H 1286.85 0.644044 -0.366453 0
M  V30 14128 H 1289.5 1.20338 -1.48966 0
M  V30 14129 H 1287.8 3.77364 -1.05375 0
M  V30 14130 H 1289.5 3.74109 -1.44374 0
M  V30 14131 H 1286.09 3.25228 -2.7915 0
M  V30 14132 H 1290.27 3.2256 -3.77185 0
M  V30 14133 H 1285.53 3.23986 -5.18501 0
M  V30 14134 H 1289.7 3.22504 -6.17223 0
M  V30 14135 H 1287.33 3.22762 -6.8828 0
M  V30 14136 N 1288.9 1.00119 1.21713 0
M  V30 14137 C 1290.13 0.700172 1.95224 0
M  V30 14138 C 1290.55 -0.730138 1.73351 0
M  V30 14139 O 1289.91 -1.50026 1.01794 0
M  V30 14140 C 1289.96 1.02202 3.45814 0
M  V30 14141 O 1289.06 0.125188 4.1221 0
M  V30 14142 H 1288.4 0.261238 0.610451 0
M  V30 14143 H 1290.93 1.34041 1.54578 0
M  V30 14144 H 1290.94 0.967293 3.96368 0
M  V30 14145 H 1289.62 2.06422 3.61058 0
M  V30 14146 H 1288.2 0.236114 3.72152 0
M  V30 14147 N 1290.38 -1.37203 0.775435 0
M  V30 14148 C 1291.61 -2.03868 0.352927 0
M  V30 14149 C 1292.02 -1.58482 -1.0261 0
M  V30 14150 O 1291.38 -0.767772 -1.65564 0
M  V30 14151 C 1291.43 -3.59378 0.39116 0
M  V30 14152 O 1291.15 -4.03103 1.71579 0
M  V30 14153 C 1292.65 -4.4328 -0.0424808 0
M  V30 14154 H 1289.87 -0.654619 0.14736 0
M  V30 14155 H 1292.42 -1.75463 1.05039 0
M  V30 14156 H 1290.57 -3.86542 -0.257752 0
M  V30 14157 H 1290.99 -4.9764 1.65695 0
M  V30 14158 H 1292.46 -5.51989 0.0354215 0
M  V30 14159 H 1292.94 -4.25374 -1.09333 0
M  V30 14160 H 1293.54 -4.21349 0.578384 0
M  V30 14161 N 1291.86 -0.526279 -1.48553 0
M  V30 14162 C 1292.79 0.227364 -2.3239 0
M  V30 14163 C 1293.77 0.93862 -1.41859 0
M  V30 14164 O 1294.96 0.925119 -1.70749 0
M  V30 14165 C 1292.09 1.277 -3.22971 0
M  V30 14166 C 1291.04 0.684107 -4.22497 0
M  V30 14167 C 1290.37 1.83612 -5.02186 0
M  V30 14168 C 1291.67 -0.341723 -5.21181 0
M  V30 14169 H 1293.36 -0.472486 -2.95648 0
M  V30 14170 H 1290.91 -0.228669 -1.42173 0
M  V30 14171 H 1292.86 1.81215 -3.80446 0
M  V30 14172 H 1291.58 2.00638 -2.57705 0
M  V30 14173 H 1290.24 0.170505 -3.66203 0
M  V30 14174 H 1289.89 2.55379 -4.33348 0
M  V30 14175 H 1289.59 1.44536 -5.69547 0
M  V30 14176 H 1291.11 2.37513 -5.62512 0
M  V30 14177 H 1292.53 0.106207 -5.73202 0
M  V30 14178 H 1290.92 -0.649673 -5.96573 0
M  V30 14179 H 1291.99 -1.2488 -4.68543 0
M  V30 14180 N 1293.34 1.5542 -0.261239 0
M  V30 14181 C 1294.57 2.03391 0.362698 0
M  V30 14182 C 1294.98 1.13947 1.51039 0
M  V30 14183 O 1294.32 0.149231 1.83093 0
M  V30 14184 C 1294.38 3.47558 0.918889 0
M  V30 14185 C 1294.04 4.56894 -0.0983829 0
M  V30 14186 C 1295.04 5.1182 -0.913018 0
M  V30 14187 C 1292.73 5.01779 -0.228616 0
M  V30 14188 C 1294.72 6.10138 -1.84421 0
M  V30 14189 C 1292.41 5.99926 -1.16329 0
M  V30 14190 C 1293.41 6.53984 -1.9696 0
M  V30 14191 O 1293.09 7.50214 -2.8885 0
M  V30 14192 H 1292.83 0.670166 0.0886182 0
M  V30 14193 H 1295.38 2.01722 -0.386967 0
M  V30 14194 H 1293.61 3.46423 1.71838 0
M  V30 14195 H 1295.3 3.78947 1.45443 0
M  V30 14196 H 1296.06 4.77965 -0.823066 0
M  V30 14197 H 1291.94 4.59356 0.388945 0
M  V30 14198 H 1295.49 6.52258 -2.47397 0
M  V30 14199 H 1291.38 6.332 -1.25412 0
M  V30 14200 H 1292.15 7.67881 -2.83374 0
M  V30 14201 N 1294.82 -0.0116844 1.57596 0
M  V30 14202 C 1295.76 -1.00684 2.07681 0
M  V30 14203 C 1296.73 -1.34858 0.969666 0
M  V30 14204 O 1297.92 -1.44896 1.24136 0
M  V30 14205 C 1295.06 -2.29729 2.57524 0
M  V30 14206 C 1294.17 -2.0156 3.82096 0
M  V30 14207 C 1293.31 -3.24601 4.20485 0
M  V30 14208 C 1292.34 -2.92066 5.37925 0
M  V30 14209 N 1291.48 -4.0761 5.71663 0
M  V30 14210 H 1296.32 -0.572787 2.92443 0
M  V30 14211 H 1293.86 -0.271184 1.44579 0
M  V30 14212 H 1295.82 -3.05152 2.84496 0
M  V30 14213 H 1294.45 -2.70824 1.75653 0
M  V30 14214 H 1293.5 -1.16556 3.62103 0
M  V30 14215 H 1294.81 -1.73572 4.67626 0
M  V30 14216 H 1293.96 -4.08379 4.48677 0
M  V30 14217 H 1292.7 -3.55718 3.3364 0
M  V30 14218 H 1291.71 -2.06693 5.09468 0
M  V30 14219 H 1292.93 -2.62209 6.26437 0
M  V30 14220 H 1290.88 -4.38645 4.87777 0
M  V30 14221 H 1290.8 -3.83105 6.51741 0
M  V30 14222 H 1292.06 -4.92211 6.04441 0
M  V30 14223 N 1296.29 -1.55015 -0.284256 0
M  V30 14224 C 1297.52 -1.79102 -1.03586 0
M  V30 14225 C 1297.94 -0.558733 -1.80343 0
M  V30 14226 O 1297.29 0.471925 -1.76293 0
M  V30 14227 C 1297.34 -3.00915 -2.0033 0
M  V30 14228 O 1297.07 -4.19384 -1.26685 0
M  V30 14229 C 1298.57 -3.3752 -2.87394 0
M  V30 14230 H 1295.79 -0.596912 -0.306491 0
M  V30 14231 H 1298.33 -2.02005 -0.31845 0
M  V30 14232 H 1296.49 -2.80171 -2.67549 0
M  V30 14233 H 1296.9 -4.88175 -1.91796 0
M  V30 14234 H 1298.37 -4.25953 -3.51095 0
M  V30 14235 H 1298.85 -2.56418 -3.56576 0
M  V30 14236 H 1299.46 -3.60483 -2.25682 0
M  V30 14237 N 1297.77 0.548248 -1.47757 0
M  V30 14238 C 1298.7 1.66999 -1.56984 0
M  V30 14239 C 1299.72 1.56302 -0.455372 0
M  V30 14240 O 1300.91 1.63096 -0.725399 0
M  V30 14241 C 1298.01 3.0553 -1.46645 0
M  V30 14242 C 1297.18 3.41892 -2.72816 0
M  V30 14243 C 1296.24 4.59624 -2.56187 0
M  V30 14244 O 1295.26 4.63757 -3.30028 0
M  V30 14245 N 1296.47 5.56675 -1.64601 0
M  V30 14246 H 1299.23 1.59527 -2.53715 0
M  V30 14247 H 1296.79 0.735101 -1.44249 0
M  V30 14248 H 1298.78 3.82137 -1.33242 0
M  V30 14249 H 1297.35 3.0718 -0.57961 0
M  V30 14250 H 1296.57 2.54644 -3.00916 0
M  V30 14251 H 1297.86 3.62965 -3.56559 0
M  V30 14252 H 1297.26 5.561 -1.03778 0
M  V30 14253 H 1295.82 6.32573 -1.57146 0
M  V30 14254 N 1299.25 1.36039 0.795694 0
M  V30 14255 C 1300.5 1.30112 1.5556 0
M  V30 14256 C 1300.83 -0.121197 1.93821 0
M  V30 14257 O 1300.1 -1.07313 1.62216 0
M  V30 14258 C 1300.39 2.21792 2.8369 0
M  V30 14259 C 1300.24 3.72691 2.51836 0
M  V30 14260 C 1301.56 2.12365 3.85472 0
M  V30 14261 H 1298.68 0.473971 0.564376 0
M  V30 14262 H 1301.32 1.66536 0.91465 0
M  V30 14263 H 1299.47 1.9086 3.38386 0
M  V30 14264 H 1301.14 4.14115 2.0324 0
M  V30 14265 H 1299.38 3.92436 1.84869 0
M  V30 14266 H 1300.06 4.32242 3.43323 0
M  V30 14267 H 1302.53 2.3958 3.40207 0
M  V30 14268 H 1301.41 2.78695 4.72885 0
M  V30 14269 H 1301.67 1.10898 4.27965 0
M  V30 14270 N 1300.73 -1.01913 1.20215 0
M  V30 14271 C 1302.14 -1.27766 0.956459 0
M  V30 14272 C 1302.34 -1.98158 -0.365486 0
M  V30 14273 O 1301.4 -2.27539 -1.09463 0
M  V30 14274 C 1302.71 -2.11516 2.13732 0
M  V30 14275 C 1304.26 -2.24792 2.17802 0
M  V30 14276 C 1304.74 -3.11919 3.35367 0
M  V30 14277 N 1306.23 -3.19507 3.35364 0
M  V30 14278 C 1306.96 -3.8714 4.22978 0
M  V30 14279 N 1306.46 -4.5692 5.20765 0
M  V30 14280 N 1308.25 -3.83638 4.10827 0
M  V30 14281 H 1300.4 -0.546426 2.05251 0
M  V30 14282 H 1302.67 -0.303772 0.898012 0
M  V30 14283 H 1302.37 -1.67127 3.09453 0
M  V30 14284 H 1302.25 -3.12249 2.11614 0
M  V30 14285 H 1304.63 -2.68407 1.22645 0
M  V30 14286 H 1304.71 -1.23576 2.2397 0
M  V30 14287 H 1304.36 -2.6901 4.30809 0
M  V30 14288 H 1304.29 -4.13215 3.26436 0
M  V30 14289 H 1306.78 -2.69819 2.64587 0
M  V30 14290 H 1307.09 -5.06188 5.83947 0
M  V30 14291 H 1305.44 -4.55753 5.24704 0
M  V30 14292 H 1308.63 -3.28268 3.33703 0
M  V30 14293 H 1308.8 -4.36071 4.79318 0
M  V30 14294 N 1302.21 -1.00763 -1.2118 0
M  V30 14295 C 1303.12 -0.579646 -2.27326 0
M  V30 14296 C 1304.13 0.378592 -1.69831 0
M  V30 14297 O 1305.31 0.241772 -1.99944 0
M  V30 14298 C 1302.37 0.0843648 -3.46597 0
M  V30 14299 C 1301.43 -0.918685 -4.19355 0
M  V30 14300 C 1300.67 -0.286267 -5.32932 0
M  V30 14301 O 1300.89 0.916274 -5.62993 0
M  V30 14302 O 1299.82 -0.998513 -5.9356 0
M  V30 14303 H 1303.65 -1.46311 -2.66133 0
M  V30 14304 H 1301.24 -0.776641 -1.27627 0
M  V30 14305 H 1303.12 0.455636 -4.18929 0
M  V30 14306 H 1301.79 0.942166 -3.09685 0
M  V30 14307 H 1300.7 -1.34116 -3.49233 0
M  V30 14308 H 1302.03 -1.74616 -4.60185 0
M  V30 14309 N 1303.68 1.3679 -0.7827 0
M  V30 14310 C 1304.61 2.32721 -0.190604 0
M  V30 14311 C 1305.6 1.56321 0.670663 0
M  V30 14312 O 1306.78 1.84507 0.605871 0
M  V30 14313 C 1303.91 3.40564 0.680717 0
M  V30 14314 C 1302.86 4.27925 -0.080118 0
M  V30 14315 C 1302.19 5.26876 0.911361 0
M  V30 14316 C 1303.49 5.06738 -1.26545 0
M  V30 14317 H 1305.18 2.82488 -0.992023 0
M  V30 14318 H 1302.73 1.35818 -0.478484 0
M  V30 14319 H 1304.68 4.06659 1.10482 0
M  V30 14320 H 1303.41 2.89348 1.51477 0
M  V30 14321 H 1302.07 3.63376 -0.485125 0
M  V30 14322 H 1301.71 4.71936 1.74026 0
M  V30 14323 H 1301.41 5.8619 0.406762 0
M  V30 14324 H 1302.94 5.95846 1.33418 0
M  V30 14325 H 1304.35 5.65911 -0.917448 0
M  V30 14326 H 1302.75 5.75432 -1.70289 0
M  V30 14327 H 1303.82 4.38772 -2.06415 0
M  V30 14328 N 1305.16 0.53415 1.48272 0
M  V30 14329 C 1306.11 -0.226335 2.29688 0
M  V30 14330 C 1307.08 -0.929937 1.37628 0
M  V30 14331 O 1308.26 -0.930149 1.66592 0
M  V30 14332 C 1305.4 -1.26472 3.2109 0
M  V30 14333 C 1304.52 -0.569542 4.28229 0
M  V30 14334 C 1303.65 -1.59122 5.06807 0
M  V30 14335 C 1302.69 -0.879734 6.05745 0
M  V30 14336 N 1301.83 -1.84715 6.77366 0
M  V30 14337 H 1306.67 0.474111 2.94204 0
M  V30 14338 H 1304.21 0.245643 1.45034 0
M  V30 14339 H 1306.16 -1.87911 3.72485 0
M  V30 14340 H 1304.79 -1.9335 2.58487 0
M  V30 14341 H 1303.85 0.158872 3.80068 0
M  V30 14342 H 1305.16 -0.0110904 4.98799 0
M  V30 14343 H 1304.31 -2.27977 5.62238 0
M  V30 14344 H 1303.05 -2.18357 4.36086 0
M  V30 14345 H 1302.06 -0.177134 5.49515 0
M  V30 14346 H 1303.28 -0.293439 6.78466 0
M  V30 14347 H 1301.23 -2.42851 6.09393 0
M  V30 14348 H 1301.14 -1.34025 7.44025 0
M  V30 14349 H 1302.41 -2.52756 7.37384 0
M  V30 14350 N 1306.64 -1.55279 0.269478 0
M  V30 14351 C 1307.55 -2.25965 -0.63065 0
M  V30 14352 C 1308.57 -1.28357 -1.17476 0
M  V30 14353 O 1309.74 -1.61281 -1.20625 0
M  V30 14354 C 1306.81 -2.96263 -1.80081 0
M  V30 14355 C 1305.87 -4.09336 -1.29394 0
M  V30 14356 C 1305.1 -4.76272 -2.40833 0
M  V30 14357 O 1305.32 -4.42389 -3.60066 0
M  V30 14358 O 1304.26 -5.64334 -2.09309 0
M  V30 14359 H 1308.08 -3.03644 -0.0582069 0
M  V30 14360 H 1305.67 -1.49354 0.0370966 0
M  V30 14361 H 1307.55 -3.40461 -2.48322 0
M  V30 14362 H 1306.23 -2.21505 -2.36045 0
M  V30 14363 H 1305.13 -3.69605 -0.578154 0
M  V30 14364 H 1306.47 -4.85978 -0.780117 0
M  V30 14365 N 1308.12 0.00332656 -1.576 0
M  V30 14366 C 1309.03 1.01221 -2.1164 0
M  V30 14367 C 1310.04 1.37918 -1.06088 0
M  V30 14368 O 1311.22 1.46717 -1.37971 0
M  V30 14369 C 1308.29 2.28638 -2.60626 0
M  V30 14370 C 1307.35 1.98284 -3.80765 0
M  V30 14371 C 1306.58 3.19626 -4.27405 0
M  V30 14372 O 1306.8 4.31196 -3.73398 0
M  V30 14373 O 1305.74 3.03819 -5.19594 0
M  V30 14374 H 1309.56 0.582839 -2.98055 0
M  V30 14375 H 1307.15 0.221947 -1.47742 0
M  V30 14376 H 1309.03 3.03498 -2.92347 0
M  V30 14377 H 1307.7 2.70819 -1.7731 0
M  V30 14378 H 1306.61 1.2091 -3.54022 0
M  V30 14379 H 1307.94 1.60942 -4.65144 0
M  V30 14380 N 1309.6 1.55164 0.276031 0
M  V30 14381 C 1310.84 1.77377 1.01572 0
M  V30 14382 C 1311.2 0.56142 1.83608 0
M  V30 14383 O 1312.4 0.661745 2.60527 0
M  V30 14384 C 1310.67 3.0412 1.87738 0
M  V30 14385 S 1312.23 3.4744 2.68013 0
M  V30 14386 H 1309.05 0.62326 0.342153 0
M  V30 14387 H 1311.65 1.9339 0.286456 0
M  V30 14388 H 1310.36 3.90453 1.26389 0
M  V30 14389 H 1309.89 2.90764 2.6499 0
M  V30 14390 H 1311.9 3.06474 3.90241 0
M  V30 14391 N 1311.07 -0.540404 1.48045 0
M  V30 14392 C 1311.98 -1.67308 1.64455 0
M  V30 14393 C 1313 -1.65823 0.527152 0
M  V30 14394 O 1314.18 -1.84964 0.796881 0
M  V30 14395 C 1311.24 -3.03792 1.67068 0
M  V30 14396 C 1310.3 -3.16213 2.90358 0
M  V30 14397 C 1309.54 -4.46187 2.92837 0
M  V30 14398 O 1309.76 -5.32662 2.04029 0
M  V30 14399 O 1308.69 -4.62754 3.84892 0
M  V30 14400 H 1312.52 -1.56403 2.6033 0
M  V30 14401 H 1310.1 -0.712323 1.31325 0
M  V30 14402 H 1311.99 -3.84982 1.71368 0
M  V30 14403 H 1310.66 -3.15043 0.74363 0
M  V30 14404 H 1309.57 -2.34357 2.91595 0
M  V30 14405 H 1310.9 -3.09874 3.82412 0
M  V30 14406 N 1312.55 -1.36459 -0.788468 0
M  V30 14407 C 1313.46 -1.33017 -1.93245 0
M  V30 14408 C 1314.48 -0.232212 -1.72444 0
M  V30 14409 O 1315.65 -0.464743 -1.95965 0
M  V30 14410 C 1312.72 -1.1197 -3.28121 0
M  V30 14411 C 1311.78 -2.3125 -3.61693 0
M  V30 14412 C 1311.01 -2.11197 -4.90134 0
M  V30 14413 O 1311.24 -1.08764 -5.59934 0
M  V30 14414 O 1310.17 -2.98996 -5.22384 0
M  V30 14415 H 1314 -2.29333 -1.99098 0
M  V30 14416 H 1311.58 -1.17016 -0.928856 0
M  V30 14417 H 1313.46 -1.02154 -4.08831 0
M  V30 14418 H 1312.14 -0.187171 -3.23158 0
M  V30 14419 H 1311.05 -2.46635 -2.81286 0
M  V30 14420 H 1312.38 -3.23012 -3.71381 0
M  V30 14421 N 1314.03 1.01274 -1.20754 0
M  V30 14422 C 1314.98 2.09894 -0.959852 0
M  V30 14423 C 1315.95 1.65726 0.111351 0
M  V30 14424 O 1317.13 1.90769 -0.0341721 0
M  V30 14425 C 1314.27 3.41126 -0.52223 0
M  V30 14426 C 1313.39 3.98749 -1.66202 0
M  V30 14427 C 1312.52 5.18057 -1.17432 0
M  V30 14428 C 1311.56 5.67772 -2.28694 0
M  V30 14429 N 1310.7 6.78338 -1.81114 0
M  V30 14430 H 1315.54 2.30416 -1.88977 0
M  V30 14431 H 1313.07 1.12989 -0.941906 0
M  V30 14432 H 1315.03 4.16451 -0.249799 0
M  V30 14433 H 1313.66 3.20665 0.370688 0
M  V30 14434 H 1312.71 3.20483 -2.04927 0
M  V30 14435 H 1314.03 4.31646 -2.49967 0
M  V30 14436 H 1313.18 6.00601 -0.858086 0
M  V30 14437 H 1311.92 4.86735 -0.306614 0
M  V30 14438 H 1310.92 4.8383 -2.61129 0
M  V30 14439 H 1312.15 6.01127 -3.15948 0
M  V30 14440 H 1310.09 6.48837 -0.966761 0
M  V30 14441 H 1310.01 7.10448 -2.58457 0
M  V30 14442 H 1311.28 7.64437 -1.52502 0
M  V30 14443 N 1315.51 1.01404 1.20644 0
M  V30 14444 C 1316.74 0.72104 1.93929 0
M  V30 14445 C 1317.15 -0.717853 1.7462 0
M  V30 14446 O 1316.51 -1.48664 1.05855 0
M  V30 14447 C 1316.56 1.04399 3.46097 0
M  V30 14448 O 1316.28 2.42637 3.64773 0
M  V30 14449 C 1317.78 0.771678 4.36532 0
M  V30 14450 H 1315 0.264983 0.616462 0
M  V30 14451 H 1317.55 1.35453 1.53208 0
M  V30 14452 H 1315.7 0.455946 3.84708 0
M  V30 14453 H 1316.12 2.54201 4.58783 0
M  V30 14454 H 1317.59 1.04774 5.41965 0
M  V30 14455 H 1318.07 -0.294188 4.38214 0
M  V30 14456 H 1318.67 1.34176 4.0358 0
M  V30 14457 N 1316.99 -1.36373 0.789944 0
M  V30 14458 C 1317.93 -2.30043 0.186798 0
M  V30 14459 C 1318.9 -1.52002 -0.669663 0
M  V30 14460 O 1320.09 -1.80506 -0.618232 0
M  V30 14461 C 1317.23 -3.38494 -0.671994 0
M  V30 14462 C 1316.34 -4.31522 0.203067 0
M  V30 14463 C 1315.48 -5.27057 -0.662148 0
M  V30 14464 C 1314.52 -6.11725 0.214335 0
M  V30 14465 N 1313.65 -6.99446 -0.609892 0
M  V30 14466 H 1318.49 -2.81038 0.991048 0
M  V30 14467 H 1316.03 -1.38331 0.500288 0
M  V30 14468 H 1317.99 -4.0002 -1.1849 0
M  V30 14469 H 1316.62 -2.88818 -1.44167 0
M  V30 14470 H 1315.67 -3.71146 0.833945 0
M  V30 14471 H 1316.98 -4.91005 0.878389 0
M  V30 14472 H 1316.14 -5.93875 -1.24084 0
M  V30 14473 H 1314.88 -4.6803 -1.37109 0
M  V30 14474 H 1313.88 -5.43868 0.805426 0
M  V30 14475 H 1315.11 -6.72827 0.92089 0
M  V30 14476 H 1313.05 -6.42927 -1.30312 0
M  V30 14477 H 1312.97 -7.56 0.00773786 0
M  V30 14478 H 1314.24 -7.70633 -1.1724 0
M  V30 14479 N 1318.47 -0.542005 -1.47987 0
M  V30 14480 C 1319.4 0.202703 -2.32618 0
M  V30 14481 C 1320.38 0.923521 -1.42846 0
M  V30 14482 O 1321.56 0.906957 -1.7172 0
M  V30 14483 C 1318.69 1.24267 -3.24307 0
M  V30 14484 C 1317.65 0.639257 -4.23199 0
M  V30 14485 C 1316.97 1.78275 -5.04105 0
M  V30 14486 C 1318.27 -0.396982 -5.20789 0
M  V30 14487 H 1319.97 -0.503817 -2.95131 0
M  V30 14488 H 1317.51 -0.243736 -1.41922 0
M  V30 14489 H 1319.46 1.7717 -3.82347 0
M  V30 14490 H 1318.19 1.97893 -2.59819 0
M  V30 14491 H 1316.85 0.131655 -3.66364 0
M  V30 14492 H 1316.5 2.50768 -4.36032 0
M  V30 14493 H 1316.2 1.38487 -5.71047 0
M  V30 14494 H 1317.72 2.31533 -5.65 0
M  V30 14495 H 1319.13 0.0454057 -5.73282 0
M  V30 14496 H 1317.53 -0.712911 -5.9585 0
M  V30 14497 H 1318.6 -1.29843 -4.67193 0
M  V30 14498 N 1319.94 1.55134 -0.277709 0
M  V30 14499 C 1321.19 1.99259 0.337662 0
M  V30 14500 C 1321.51 1.16755 1.56183 0
M  V30 14501 O 1320.78 0.257707 1.94198 0
M  V30 14502 H 1319.36 0.735995 0.127751 0
M  V30 14503 H 1322.02 1.91087 -0.383646 0
M  V30 14504 H 1321.12 3.05763 0.625747 0
M  V30 14505 N 1321.42 0.00503138 1.57599 0
M  V30 14506 C 1322.37 -0.984754 2.08737 0
M  V30 14507 C 1323.34 -1.33822 0.983915 0
M  V30 14508 O 1324.52 -1.43572 1.25665 0
M  V30 14509 C 1321.66 -2.26984 2.59946 0
M  V30 14510 C 1320.78 -1.97496 3.84212 0
M  V30 14511 C 1319.91 -3.20123 4.23904 0
M  V30 14512 C 1318.95 -2.86344 5.40993 0
M  V30 14513 N 1318.09 -4.01524 5.75954 0
M  V30 14514 H 1322.93 -0.541737 2.93034 0
M  V30 14515 H 1320.46 -0.255834 1.44858 0
M  V30 14516 H 1322.42 -3.02117 2.87717 0
M  V30 14517 H 1321.05 -2.68946 1.78516 0
M  V30 14518 H 1320.1 -1.12709 3.63319 0
M  V30 14519 H 1321.42 -1.68602 4.69441 0
M  V30 14520 H 1320.57 -4.03598 4.52983 0
M  V30 14521 H 1319.31 -3.5216 3.37394 0
M  V30 14522 H 1318.31 -2.01278 5.11632 0
M  V30 14523 H 1319.54 -2.5555 6.29183 0
M  V30 14524 H 1317.49 -4.33447 4.92402 0
M  V30 14525 H 1317.4 -3.76171 6.55768 0
M  V30 14526 H 1318.67 -4.85772 6.09628 0
M  V30 14527 N 1322.9 -1.55308 -0.267798 0
M  V30 14528 C 1323.81 -1.91649 -1.35307 0
M  V30 14529 C 1324.83 -0.814349 -1.53767 0
M  V30 14530 O 1326 -1.11388 -1.67793 0
M  V30 14531 C 1323.07 -2.18553 -2.69138 0
M  V30 14532 C 1322.13 -3.42083 -2.5938 0
M  V30 14533 C 1321.36 -3.67695 -3.86828 0
M  V30 14534 O 1321.58 -2.95728 -4.87751 0
M  V30 14535 O 1320.52 -4.61229 -3.86718 0
M  V30 14536 H 1324.34 -2.84044 -1.07483 0
M  V30 14537 H 1321.93 -1.41921 -0.466772 0
M  V30 14538 H 1323.81 -2.3726 -3.48261 0
M  V30 14539 H 1322.49 -1.2934 -2.96737 0
M  V30 14540 H 1321.39 -3.28706 -1.78614 0
M  V30 14541 H 1322.73 -4.31532 -2.36729 0
M  V30 14542 N 1324.38 0.532545 -1.4833 0
M  V30 14543 C 1325.31 1.64662 -1.65555 0
M  V30 14544 C 1326.29 1.62447 -0.50447 0
M  V30 14545 O 1327.47 1.79684 -0.736712 0
M  V30 14546 C 1324.6 3.03256 -1.69272 0
M  V30 14547 C 1323.56 3.20329 -2.83854 0
M  V30 14548 C 1322.88 4.59958 -2.72659 0
M  V30 14549 C 1324.18 3.03345 -4.25181 0
M  V30 14550 H 1325.88 1.50502 -2.58823 0
M  V30 14551 H 1323.42 0.722612 -1.24556 0
M  V30 14552 H 1325.38 3.81064 -1.79911 0
M  V30 14553 H 1324.1 3.18433 -0.725805 0
M  V30 14554 H 1322.76 2.44937 -2.72766 0
M  V30 14555 H 1322.41 4.71967 -1.73942 0
M  V30 14556 H 1322.11 4.72327 -3.49544 0
M  V30 14557 H 1323.63 5.39869 -2.85262 0
M  V30 14558 H 1325.05 3.70948 -4.37116 0
M  V30 14559 H 1323.44 3.27208 -5.03045 0
M  V30 14560 H 1324.51 1.998 -4.41824 0
M  V30 14561 N 1325.86 1.36875 0.78122 0
M  V30 14562 C 1326.79 1.27738 1.90304 0
M  V30 14563 C 1327.8 0.195147 1.61626 0
M  V30 14564 O 1328.99 0.450531 1.72721 0
M  V30 14565 C 1326.09 0.950103 3.25309 0
M  V30 14566 C 1325.26 2.13589 3.81705 0
M  V30 14567 C 1324.32 1.78037 4.95166 0
M  V30 14568 O 1323.35 2.50223 5.11251 0
M  V30 14569 N 1324.55 0.718886 5.76031 0
M  V30 14570 H 1327.31 2.24397 1.98661 0
M  V30 14571 H 1324.88 1.30376 0.959883 0
M  V30 14572 H 1326.87 0.693286 3.98717 0
M  V30 14573 H 1325.44 0.0723849 3.12516 0
M  V30 14574 H 1324.66 2.55502 3.00187 0
M  V30 14575 H 1325.95 2.9279 4.16114 0
M  V30 14576 H 1325.34 0.119681 5.65573 0
M  V30 14577 H 1323.9 0.521909 6.49707 0
M  V30 14578 N 1327.33 -1.00632 1.21289 0
M  V30 14579 C 1328.27 -2.0954 0.928753 0
M  V30 14580 C 1329.28 -1.62565 -0.0875212 0
M  V30 14581 O 1330.47 -1.77912 0.144808 0
M  V30 14582 C 1327.57 -3.36844 0.37276 0
M  V30 14583 C 1326.74 -4.1291 1.44305 0
M  V30 14584 C 1325.8 -5.18506 0.896534 0
M  V30 14585 O 1324.83 -5.46841 1.57966 0
M  V30 14586 N 1326.03 -5.79781 -0.288888 0
M  V30 14587 H 1328.79 -2.34499 1.86629 0
M  V30 14588 H 1326.35 -1.17104 1.11796 0
M  V30 14589 H 1328.35 -4.04699 -0.00722737 0
M  V30 14590 H 1326.92 -3.09053 -0.469572 0
M  V30 14591 H 1326.14 -3.39876 1.99694 0
M  V30 14592 H 1327.42 -4.60508 2.16356 0
M  V30 14593 H 1326.82 -5.5911 -0.860951 0
M  V30 14594 H 1325.38 -6.48936 -0.6104 0
M  V30 14595 N 1328.81 -1.02043 -1.20104 0
M  V30 14596 C 1329.76 -0.593945 -2.23027 0
M  V30 14597 C 1330.73 0.387931 -1.61506 0
M  V30 14598 O 1331.91 0.286504 -1.88637 0
M  V30 14599 C 1329.05 0.0577309 -3.45052 0
M  V30 14600 C 1328.17 -0.969169 -4.20988 0
M  V30 14601 C 1327.3 -0.288143 -5.30418 0
M  V30 14602 C 1326.34 -1.30154 -5.98102 0
M  V30 14603 N 1325.48 -0.646912 -6.99113 0
M  V30 14604 H 1330.32 -1.47623 -2.58866 0
M  V30 14605 H 1327.85 -0.738901 -1.27195 0
M  V30 14606 H 1329.81 0.452726 -4.14736 0
M  V30 14607 H 1328.44 0.90364 -3.09894 0
M  V30 14608 H 1327.49 -1.48229 -3.50332 0
M  V30 14609 H 1328.81 -1.73972 -4.67477 0
M  V30 14610 H 1327.96 0.162149 -6.06483 0
M  V30 14611 H 1326.7 0.514683 -4.84977 0
M  V30 14612 H 1325.7 -1.76218 -5.20795 0
M  V30 14613 H 1326.93 -2.10571 -6.45629 0
M  V30 14614 H 1324.88 0.135976 -6.55859 0
M  V30 14615 H 1324.79 -1.35548 -7.43749 0
M  V30 14616 H 1326.06 -0.220339 -7.79189 0
M  V30 14617 N 1330.29 1.35952 -0.797165 0
M  V30 14618 C 1331.24 2.29941 -0.198995 0
M  V30 14619 C 1332.21 1.52355 0.661592 0
M  V30 14620 O 1333.39 1.80832 0.60865 0
M  V30 14621 C 1330.53 3.38846 0.654033 0
M  V30 14622 C 1329.65 4.31409 -0.225949 0
M  V30 14623 C 1328.78 5.27401 0.634188 0
M  V30 14624 C 1327.82 6.11602 -0.246773 0
M  V30 14625 N 1326.96 6.9976 0.57279 0
M  V30 14626 H 1331.8 2.80508 -1.00594 0
M  V30 14627 H 1329.33 1.38064 -0.507617 0
M  V30 14628 H 1331.29 4.00643 1.16367 0
M  V30 14629 H 1329.92 2.89578 1.42633 0
M  V30 14630 H 1328.97 3.70699 -0.853616 0
M  V30 14631 H 1330.29 4.90532 -0.904416 0
M  V30 14632 H 1329.44 5.94525 1.20933 0
M  V30 14633 H 1328.18 4.68751 1.34625 0
M  V30 14634 H 1327.18 5.43434 -0.834258 0
M  V30 14635 H 1328.41 6.72329 -0.956559 0
M  V30 14636 H 1326.35 6.43609 1.26901 0
M  V30 14637 H 1326.27 7.55985 -0.0478303 0
M  V30 14638 H 1327.54 7.71244 1.13151 0
M  V30 14639 N 1331.77 0.549846 1.47697 0
M  V30 14640 C 1332.7 -0.239345 2.27947 0
M  V30 14641 C 1333.71 -0.886206 1.36566 0
M  V30 14642 O 1334.9 -0.761298 1.61451 0
M  V30 14643 C 1332 -1.35591 3.10593 0
M  V30 14644 C 1331.18 -0.807234 4.29887 0
M  V30 14645 C 1330.23 -1.80738 4.94187 0
M  V30 14646 O 1329.26 -1.35641 5.52802 0
M  V30 14647 N 1330.46 -3.14046 4.88216 0
M  V30 14648 H 1333.23 0.449001 2.96318 0
M  V30 14649 H 1330.79 0.385443 1.57245 0
M  V30 14650 H 1332.78 -2.02356 3.50477 0
M  V30 14651 H 1331.35 -1.94761 2.44514 0
M  V30 14652 H 1330.57 0.0369877 3.94183 0
M  V30 14653 H 1331.86 -0.419877 5.07065 0
M  V30 14654 H 1331.26 -3.53335 4.41781 0
M  V30 14655 H 1329.81 -3.7639 5.32141 0
M  V30 14656 N 1333.25 -1.54984 0.285932 0
M  V30 14657 C 1334.16 -2.26621 -0.606648 0
M  V30 14658 C 1335.17 -1.29595 -1.16108 0
M  V30 14659 O 1336.35 -1.62551 -1.18908 0
M  V30 14660 C 1333.41 -2.98156 -1.76929 0
M  V30 14661 C 1332.47 -4.10685 -1.25045 0
M  V30 14662 C 1331.71 -4.788 -2.35768 0
M  V30 14663 O 1331.93 -4.46183 -3.55354 0
M  V30 14664 O 1330.86 -5.66523 -2.03312 0
M  V30 14665 H 1334.69 -3.03689 -0.0259981 0
M  V30 14666 H 1332.28 -1.49306 0.0529355 0
M  V30 14667 H 1334.16 -3.43076 -2.44697 0
M  V30 14668 H 1332.83 -2.23996 -2.33683 0
M  V30 14669 H 1331.74 -3.70198 -0.538919 0
M  V30 14670 H 1333.07 -4.86778 -0.728528 0
M  V30 14671 N 1334.72 -0.0133892 -1.57594 0
M  V30 14672 C 1335.65 0.972341 -2.12292 0
M  V30 14673 C 1336.64 1.34971 -1.03522 0
M  V30 14674 O 1337.82 1.4311 -1.31275 0
M  V30 14675 C 1334.95 2.25988 -2.63717 0
M  V30 14676 C 1333.9 2.02373 -3.77133 0
M  V30 14677 C 1333.23 3.37256 -4.14925 0
M  V30 14678 C 1334.53 1.37553 -5.03861 0
M  V30 14679 H 1336.22 0.516869 -2.94905 0
M  V30 14680 H 1333.77 0.247176 -1.41863 0
M  V30 14681 H 1335.72 2.95313 -3.00613 0
M  V30 14682 H 1334.45 2.73672 -1.78244 0
M  V30 14683 H 1333.11 1.3547 -3.40651 0
M  V30 14684 H 1332.75 3.82669 -3.26456 0
M  V30 14685 H 1332.45 3.22267 -4.91343 0
M  V30 14686 H 1333.98 4.07875 -4.5439 0
M  V30 14687 H 1335.39 1.96855 -5.38443 0
M  V30 14688 H 1333.79 1.33011 -5.85174 0
M  V30 14689 H 1334.86 0.346429 -4.83661 0
M  V30 14690 N 1336.2 1.55448 0.259558 0
M  V30 14691 C 1337.13 1.85678 1.34373 0
M  V30 14692 C 1338.15 0.742155 1.449 0
M  V30 14693 O 1339.34 1.02015 1.46476 0
M  V30 14694 C 1336.44 2.01668 2.72366 0
M  V30 14695 C 1335.61 3.32434 2.84265 0
M  V30 14696 C 1334.67 3.38322 4.03019 0
M  V30 14697 O 1333.69 4.11616 3.93143 0
M  V30 14698 N 1334.9 2.66697 5.1561 0
M  V30 14699 H 1337.66 2.79261 1.08781 0
M  V30 14700 H 1335.22 1.5553 0.449672 0
M  V30 14701 H 1337.21 2.02963 3.50126 0
M  V30 14702 H 1335.78 1.14889 2.90722 0
M  V30 14703 H 1335 3.43564 1.93281 0
M  V30 14704 H 1336.29 4.18649 2.89155 0
M  V30 14705 H 1335.69 2.06857 5.26523 0
M  V30 14706 H 1334.25 2.73699 5.91551 0
M  V30 14707 N 1337.68 -0.524672 1.4861 0
M  V30 14708 C 1338.96 -1.28592 1.47389 0
M  V30 14709 C 1339.34 -2.10257 0.188482 0
M  V30 14710 O 1338.69 -2.12905 -0.829689 0
M  V30 14711 C 1338.9 -2.16284 2.73902 0
M  V30 14712 C 1340.24 -2.7625 3.22445 0
M  V30 14713 O 1341.27 -2.26567 2.74856 0
M  V30 14714 O 1340.13 -3.66635 4.05267 0
M  V30 14715 H 1337.22 -0.580666 0.58886 0
M  V30 14716 H 1339.77 -0.540888 1.60849 0
M  V30 14717 H 1338.54 -1.55757 3.58964 0
M  V30 14718 H 1338.16 -2.98024 2.63188 0
M  V30 14719 N 1339.16 -1.37287 -0.77395 0
M  V30 14720 C 1340.07 -1.35059 -1.91823 0
M  V30 14721 C 1341.08 -0.250489 -1.72188 0
M  V30 14722 O 1342.26 -0.485501 -1.95461 0
M  V30 14723 C 1339.33 -1.15444 -3.26915 0
M  V30 14724 C 1338.39 -2.35073 -3.5922 0
M  V30 14725 C 1337.62 -2.16384 -4.87867 0
M  V30 14726 O 1337.84 -1.14696 -5.58749 0
M  V30 14727 O 1336.78 -3.0452 -5.19183 0
M  V30 14728 H 1340.6 -2.31432 -1.96654 0
M  V30 14729 H 1338.19 -1.17994 -0.916392 0
M  V30 14730 H 1340.07 -1.06484 -4.07724 0
M  V30 14731 H 1338.74 -0.221435 -3.22942 0
M  V30 14732 H 1337.65 -2.49604 -2.78655 0
M  V30 14733 H 1338.98 -3.26933 -3.67934 0
M  V30 14734 N 1340.64 0.999871 -1.21821 0
M  V30 14735 C 1342.05 1.26228 -0.976664 0
M  V30 14736 C 1342.25 1.98714 0.333915 0
M  V30 14737 O 1341.31 2.29252 1.05829 0
M  V30 14738 C 1342.62 2.08089 -2.1707 0
M  V30 14739 C 1344.17 2.21298 -2.21351 0
M  V30 14740 C 1344.64 3.06544 -3.40287 0
M  V30 14741 N 1346.14 3.14131 -3.40405 0
M  V30 14742 C 1346.87 3.80362 -4.29083 0
M  V30 14743 N 1346.37 4.48577 -5.27968 0
M  V30 14744 N 1348.16 3.77053 -4.16878 0
M  V30 14745 H 1340.31 0.513704 -2.06094 0
M  V30 14746 H 1342.57 0.289447 -0.902732 0
M  V30 14747 H 1342.28 1.62183 -3.12073 0
M  V30 14748 H 1342.15 3.08843 -2.16554 0
M  V30 14749 H 1344.54 2.66422 -1.269 0
M  V30 14750 H 1344.62 1.19997 -2.25908 0
M  V30 14751 H 1344.27 2.62122 -4.35034 0
M  V30 14752 H 1344.2 4.0797 -3.32969 0
M  V30 14753 H 1346.69 2.65576 -2.68846 0
M  V30 14754 H 1347 4.96833 -5.91926 0
M  V30 14755 H 1345.34 4.47348 -5.31888 0
M  V30 14756 H 1348.54 3.22918 -3.38883 0
M  V30 14757 H 1348.71 4.2839 -4.86195 0
M  V30 14758 N 1342.11 1.02678 1.19562 0
M  V30 14759 C 1343.39 0.63674 1.84946 0
M  V30 14760 C 1343.77 -0.884667 1.91669 0
M  V30 14761 O 1343.12 -1.78053 1.43211 0
M  V30 14762 C 1343.33 1.29637 3.2403 0
M  V30 14763 C 1344.68 1.41828 4.00212 0
M  V30 14764 O 1345.7 1.25338 3.3342 0
M  V30 14765 O 1344.56 1.68573 5.19851 0
M  V30 14766 H 1341.65 0.221044 0.796912 0
M  V30 14767 H 1344.2 1.1248 1.27068 0
M  V30 14768 H 1342.97 2.33549 3.1396 0
M  V30 14769 H 1342.6 0.796041 3.8955 0
M  V30 14770 N 1343.59 -1.35528 0.804364 0
M  V30 14771 C 1344.82 -2.03604 0.395013 0
M  V30 14772 C 1345.24 -1.60225 -0.985371 0
M  V30 14773 O 1344.6 -0.777844 -1.63766 0
M  V30 14774 C 1344.65 -3.57337 0.484011 0
M  V30 14775 O 1343.75 -4.09316 -0.503395 0
M  V30 14776 H 1343.09 -0.643089 0.165325 0
M  V30 14777 H 1345.62 -1.73171 1.08963 0
M  V30 14778 H 1345.63 -4.0647 0.353009 0
M  V30 14779 H 1344.31 -3.8826 1.49088 0
M  V30 14780 H 1342.89 -3.71412 -0.332817 0
M  V30 14781 N 1345.07 -0.557671 -1.47404 0
M  V30 14782 C 1346 0.178019 -2.3282 0
M  V30 14783 C 1346.98 0.908318 -1.43818 0
M  V30 14784 O 1348.17 0.888693 -1.72673 0
M  V30 14785 C 1345.3 1.2082 -3.25607 0
M  V30 14786 C 1344.25 0.594335 -4.23853 0
M  V30 14787 C 1343.58 1.72919 -5.05968 0
M  V30 14788 C 1344.88 -0.452196 -5.20339 0
M  V30 14789 H 1346.57 -0.535091 -2.9458 0
M  V30 14790 H 1344.12 -0.258775 -1.41656 0
M  V30 14791 H 1346.07 1.73104 -3.84204 0
M  V30 14792 H 1344.79 1.95126 -2.61903 0
M  V30 14793 H 1343.45 0.0927898 -3.66483 0
M  V30 14794 H 1343.1 2.4613 -4.38668 0
M  V30 14795 H 1342.8 1.32422 -5.72484 0
M  V30 14796 H 1344.33 2.25527 -5.67424 0
M  V30 14797 H 1345.74 -0.0154011 -5.73298 0
M  V30 14798 H 1344.14 -0.776068 -5.95061 0
M  V30 14799 H 1345.21 -1.34791 -4.65789 0
M  V30 14800 N 1346.55 1.54831 -0.294147 0
M  V30 14801 C 1347.51 2.21946 0.572061 0
M  V30 14802 C 1348.51 1.20331 1.06663 0
M  V30 14803 O 1349.7 1.45112 0.963757 0
M  V30 14804 C 1346.83 2.90044 1.7913 0
M  V30 14805 H 1348.03 2.99897 -0.0142234 0
M  V30 14806 H 1345.58 1.56235 -0.0449187 0
M  V30 14807 H 1346.32 2.16154 2.4176 0
M  V30 14808 H 1346.1 3.64527 1.44439 0
M  V30 14809 H 1347.59 3.41263 2.40684 0
M  V30 14810 N 1348.03 0.0217466 1.57585 0
M  V30 14811 C 1348.99 -0.947546 2.08696 0
M  V30 14812 C 1349.99 -1.25879 1.00055 0
M  V30 14813 O 1351.18 -1.20035 1.26242 0
M  V30 14814 C 1348.31 -2.26624 2.54665 0
M  V30 14815 H 1349.51 -0.505016 2.95617 0
M  V30 14816 H 1347.06 -0.226152 1.54655 0
M  V30 14817 H 1347.79 -2.75521 1.71052 0
M  V30 14818 H 1347.58 -2.05347 3.34028 0
M  V30 14819 H 1349.07 -2.96114 2.94459 0
M  V30 14820 N 1349.51 -1.55583 -0.251311 0
M  V30 14821 C 1350.44 -1.86388 -1.33387 0
M  V30 14822 C 1351.45 -0.749829 -1.44504 0
M  V30 14823 O 1352.64 -1.0279 -1.45933 0
M  V30 14824 C 1349.74 -2.0311 -2.71293 0
M  V30 14825 C 1348.91 -3.33937 -2.82498 0
M  V30 14826 C 1347.97 -3.40455 -4.01219 0
M  V30 14827 O 1347 -4.13695 -3.90954 0
M  V30 14828 N 1348.2 -2.69427 -5.14188 0
M  V30 14829 H 1350.96 -2.79834 -1.07298 0
M  V30 14830 H 1348.53 -1.55766 -0.441418 0
M  V30 14831 H 1350.52 -2.04817 -3.49045 0
M  V30 14832 H 1349.09 -1.16429 -2.90109 0
M  V30 14833 H 1348.31 -3.44584 -1.91456 0
M  V30 14834 H 1349.6 -4.20176 -2.86931 0
M  V30 14835 H 1348.99 -2.09647 -5.25419 0
M  V30 14836 H 1347.55 -2.76832 -5.90091 0
M  V30 14837 N 1350.98 0.516783 -1.48886 0
M  V30 14838 C 1351.91 1.62897 -1.67292 0
M  V30 14839 C 1352.89 1.61903 -0.521671 0
M  V30 14840 O 1354.08 1.78892 -0.755728 0
M  V30 14841 C 1351.21 3.01444 -1.72478 0
M  V30 14842 C 1350.16 3.173 -2.87236 0
M  V30 14843 C 1349.49 4.5704 -2.77522 0
M  V30 14844 C 1350.79 2.98818 -4.28375 0
M  V30 14845 H 1352.48 1.47748 -2.60405 0
M  V30 14846 H 1350.03 0.709361 -1.25316 0
M  V30 14847 H 1351.98 3.79135 -1.83942 0
M  V30 14848 H 1350.71 3.17645 -0.759538 0
M  V30 14849 H 1349.37 2.4203 -2.75349 0
M  V30 14850 H 1349.01 4.70096 -1.78938 0
M  V30 14851 H 1348.71 4.68593 -3.54534 0
M  V30 14852 H 1350.24 5.36813 -2.90972 0
M  V30 14853 H 1351.65 3.66291 -4.41026 0
M  V30 14854 H 1350.05 3.21854 -5.06488 0
M  V30 14855 H 1351.12 1.95102 -4.43918 0
M  V30 14856 N 1352.46 1.37696 0.766659 0
M  V30 14857 C 1353.37 1.36075 1.91104 0
M  V30 14858 C 1354.39 0.259617 1.72052 0
M  V30 14859 O 1355.56 0.49586 1.952 0
M  V30 14860 C 1352.63 1.17176 3.26298 0
M  V30 14861 C 1351.69 2.36975 3.57968 0
M  V30 14862 C 1350.92 2.18968 4.86712 0
M  V30 14863 O 1351.15 1.17658 5.58133 0
M  V30 14864 O 1350.08 3.07269 5.17561 0
M  V30 14865 H 1353.91 2.32472 1.95424 0
M  V30 14866 H 1351.49 1.18478 0.910122 0
M  V30 14867 H 1353.37 1.08645 4.07154 0
M  V30 14868 H 1352.05 0.238559 3.2282 0
M  V30 14869 H 1350.95 2.51079 2.77327 0
M  V30 14870 H 1352.29 3.2888 3.66195 0
M  V30 14871 N 1353.94 -0.993397 1.22349 0
M  V30 14872 C 1355.19 -1.72707 1.04189 0
M  V30 14873 C 1355.5 -1.90963 -0.423381 0
M  V30 14874 O 1356.71 -2.61651 -0.724645 0
M  V30 14875 C 1355.16 -3.10739 1.81575 0
M  V30 14876 C 1354.77 -3.00415 3.32347 0
M  V30 14877 C 1356.52 -3.88155 1.71861 0
M  V30 14878 C 1354.42 -4.33598 4.02177 0
M  V30 14879 H 1353.35 -0.647556 0.386248 0
M  V30 14880 H 1356 -1.10902 1.46195 0
M  V30 14881 H 1354.39 -3.73222 1.32367 0
M  V30 14882 H 1355.56 -2.47099 3.88946 0
M  V30 14883 H 1353.87 -2.36482 3.42732 0
M  V30 14884 H 1356.47 -4.8673 2.21354 0
M  V30 14885 H 1356.81 -4.10726 0.678939 0
M  V30 14886 H 1357.35 -3.32347 2.18609 0
M  V30 14887 H 1354.09 -4.16226 5.06395 0
M  V30 14888 H 1353.61 -4.86829 3.50367 0
M  V30 14889 H 1355.29 -5.02348 4.07744 0
M  V30 14890 N 1355.42 -1.03311 -1.19015 0
M  V30 14891 C 1356.65 -0.751802 -1.92758 0
M  V30 14892 C 1357.06 0.689982 -1.7574 0
M  V30 14893 O 1356.42 1.46961 -1.08207 0
M  V30 14894 C 1356.47 -1.09892 -3.44392 0
M  V30 14895 O 1356.19 -2.48409 -3.60866 0
M  V30 14896 C 1357.69 -0.841029 -4.35249 0
M  V30 14897 H 1354.91 -0.274757 -0.612168 0
M  V30 14898 H 1357.45 -1.37873 -1.51034 0
M  V30 14899 H 1355.61 -0.517092 -3.83933 0
M  V30 14900 H 1356.02 -2.61468 -4.54681 0
M  V30 14901 H 1357.5 -1.13383 -5.4023 0
M  V30 14902 H 1357.97 0.224434 -4.38626 0
M  V30 14903 H 1358.58 -1.40579 -4.01395 0
M  V30 14904 N 1356.9 1.35099 -0.81154 0
M  V30 14905 C 1357.83 2.32264 -0.239925 0
M  V30 14906 C 1358.81 1.57708 0.637354 0
M  V30 14907 O 1359.99 1.85751 0.566598 0
M  V30 14908 C 1357.12 3.41931 0.608325 0
M  V30 14909 C 1356.08 4.27659 -0.170869 0
M  V30 14910 C 1355.4 5.28691 0.799398 0
M  V30 14911 C 1356.7 5.0394 -1.37266 0
M  V30 14912 H 1358.4 2.8032 -1.05172 0
M  V30 14913 H 1355.94 1.34773 -0.507185 0
M  V30 14914 H 1357.89 4.08911 1.01832 0
M  V30 14915 H 1356.62 2.92496 1.45306 0
M  V30 14916 H 1355.28 3.62265 -0.562094 0
M  V30 14917 H 1354.93 4.75521 1.63977 0
M  V30 14918 H 1354.63 5.86921 0.282331 0
M  V30 14919 H 1356.15 5.98542 1.20749 0
M  V30 14920 H 1357.56 5.63838 -1.03728 0
M  V30 14921 H 1355.96 5.7169 -1.82456 0
M  V30 14922 H 1357.03 4.34295 -2.15676 0
M  V30 14923 N 1358.37 0.56548 1.47106 0
M  V30 14924 C 1359.6 0.0496298 2.0684 0
M  V30 14925 C 1360.02 -1.24777 1.4169 0
M  V30 14926 O 1359.37 -1.75046 0.516239 0
M  V30 14927 C 1359.42 -0.140987 3.61225 0
M  V30 14928 O 1359.15 1.10504 4.23934 0
M  V30 14929 C 1360.65 -0.693171 4.37847 0
M  V30 14930 H 1357.87 0.0496018 0.669164 0
M  V30 14931 H 1360.41 0.781247 1.88989 0
M  V30 14932 H 1358.57 -0.822762 3.78562 0
M  V30 14933 H 1358.98 0.907978 5.16581 0
M  V30 14934 H 1360.45 -0.7758 5.46521 0
M  V30 14935 H 1360.93 -1.70632 4.04699 0
M  V30 14936 H 1361.54 -0.046826 4.25274 0
M  V30 14937 N 1359.85 -1.54672 0.302354 0
M  V30 14938 C 1360.8 -2.2357 -0.573141 0
M  V30 14939 C 1361.77 -1.21878 -1.12849 0
M  V30 14940 O 1362.95 -1.50502 -1.17277 0
M  V30 14941 C 1360.09 -2.98111 -1.7385 0
M  V30 14942 C 1359.21 -4.14579 -1.21441 0
M  V30 14943 C 1358.34 -4.76699 -2.34374 0
M  V30 14944 C 1357.38 -5.8531 -1.79106 0
M  V30 14945 N 1356.52 -6.41379 -2.85618 0
M  V30 14946 H 1361.36 -2.97993 0.0209969 0
M  V30 14947 H 1358.9 -1.47083 0.0221318 0
M  V30 14948 H 1360.85 -3.39561 -2.42392 0
M  V30 14949 H 1359.48 -2.26063 -2.30425 0
M  V30 14950 H 1358.54 -3.78061 -0.421204 0
M  V30 14951 H 1359.85 -4.92824 -0.769821 0
M  V30 14952 H 1359 -5.21009 -3.10861 0
M  V30 14953 H 1357.74 -3.9779 -2.8216 0
M  V30 14954 H 1356.75 -5.40423 -1.01109 0
M  V30 14955 H 1357.97 -6.66104 -1.32222 0
M  V30 14956 H 1355.92 -5.65352 -3.32735 0
M  V30 14957 H 1355.83 -7.14974 -2.45659 0
M  V30 14958 H 1357.1 -6.90346 -3.61998 0
M  V30 14959 N 1361.33 -0.0301034 -1.57571 0
M  V30 14960 C 1362.29 0.936465 -2.09196 0
M  V30 14961 C 1363.29 1.25347 -1.00722 0
M  V30 14962 O 1364.48 1.19364 -1.26877 0
M  V30 14963 C 1361.62 2.2527 -2.55864 0
M  V30 14964 H 1362.81 0.489332 -2.95881 0
M  V30 14965 H 1360.36 0.217948 -1.54773 0
M  V30 14966 H 1361.1 2.7461 -1.72511 0
M  V30 14967 H 1360.88 2.03573 -3.35113 0
M  V30 14968 H 1362.37 2.94549 -2.96025 0
M  V30 14969 N 1362.81 1.55714 0.243056 0
M  V30 14970 C 1364.09 1.68483 0.993614 0
M  V30 14971 C 1364.47 0.571112 2.03228 0
M  V30 14972 O 1363.81 -0.42491 2.24515 0
M  V30 14973 C 1364.02 3.0894 1.62349 0
M  V30 14974 C 1365.37 3.67663 2.12389 0
M  V30 14975 O 1366.4 3.11764 1.72283 0
M  V30 14976 O 1365.25 4.65664 2.8604 0
M  V30 14977 H 1362.35 0.685415 0.462747 0
M  V30 14978 H 1364.89 1.68043 0.236538 0
M  V30 14979 H 1363.67 3.81451 0.87241 0
M  V30 14980 H 1363.29 3.13407 2.44667 0
M  V30 14981 N 1364.29 -0.50888 1.49158 0
M  V30 14982 C 1365.51 -1.29245 1.62205 0
M  V30 14983 C 1365.94 -1.85845 0.29041 0
M  V30 14984 O 1365.29 -1.6547 -0.740906 0
M  V30 14985 C 1365.34 -2.40415 2.68762 0
M  V30 14986 O 1364.45 -3.44048 2.27387 0
M  V30 14987 H 1363.79 -0.381898 0.543185 0
M  V30 14988 H 1366.32 -0.610076 1.95293 0
M  V30 14989 H 1366.33 -2.86295 2.90688 0
M  V30 14990 H 1365 -1.98584 3.65427 0
M  V30 14991 H 1363.58 -3.04141 2.1576 0
M  V30 14992 N 1365.76 -1.381 -0.759346 0
M  V30 14993 C 1366.67 -1.37086 -1.9038 0
M  V30 14994 C 1367.69 -0.268738 -1.71912 0
M  V30 14995 O 1368.87 -0.506205 -1.94935 0
M  V30 14996 C 1365.93 -1.18905 -3.25672 0
M  V30 14997 C 1364.99 -2.3887 -3.56707 0
M  V30 14998 C 1364.23 -2.21546 -4.85544 0
M  V30 14999 O 1364.45 -1.20616 -5.57501 0
M  V30 15000 O 1363.38 -3.10009 -5.15924 0
M  V30 15001 H 1367.21 -2.33505 -1.94188 0
M  V30 15002 H 1364.79 -1.18959 -0.903826 0
M  V30 15003 H 1366.68 -1.10803 -4.06572 0
M  V30 15004 H 1365.35 -0.255675 -3.22689 0
M  V30 15005 H 1364.26 -2.52546 -2.75992 0
M  V30 15006 H 1365.59 -3.30817 -3.64446 0
M  V30 15007 N 1367.24 0.986894 -1.22875 0
M  V30 15008 C 1368.17 2.08035 -0.961971 0
M  V30 15009 C 1369.19 1.62683 0.0616475 0
M  V30 15010 O 1370.38 1.77659 -0.173094 0
M  V30 15011 C 1367.48 3.36208 -0.426302 0
M  V30 15012 C 1366.65 4.10562 -1.50856 0
M  V30 15013 C 1365.71 5.17014 -0.97891 0
M  V30 15014 O 1364.73 5.44259 -1.66645 0
M  V30 15015 N 1365.94 5.80167 0.196613 0
M  V30 15016 H 1368.7 2.315 -1.90336 0
M  V30 15017 H 1366.26 1.1531 -1.13645 0
M  V30 15018 H 1368.25 4.0466 -0.0571577 0
M  V30 15019 H 1366.82 3.09761 0.420345 0
M  V30 15020 H 1366.04 3.36656 -2.05076 0
M  V30 15021 H 1367.33 4.57007 -2.23655 0
M  V30 15022 H 1366.73 5.60409 0.771892 0
M  V30 15023 H 1365.29 6.49825 0.507083 0
M  V30 15024 N 1368.72 1.0394 1.18466 0
M  V30 15025 C 1369.65 0.650182 2.24265 0
M  V30 15026 C 1370.63 -0.345968 1.66545 0
M  V30 15027 O 1371.82 -0.226348 1.92876 0
M  V30 15028 C 1368.95 0.0110451 3.47298 0
M  V30 15029 C 1367.9 0.930599 4.17761 0
M  V30 15030 C 1367.23 0.156005 5.34472 0
M  V30 15031 C 1368.53 2.24913 4.71393 0
M  V30 15032 H 1370.22 1.53465 2.57078 0
M  V30 15033 H 1367.77 0.739343 1.23571 0
M  V30 15034 H 1369.72 -0.272959 4.20515 0
M  V30 15035 H 1368.44 -0.908288 3.13716 0
M  V30 15036 H 1367.1 1.19897 3.4644 0
M  V30 15037 H 1366.75 -0.765695 4.97138 0
M  V30 15038 H 1366.45 0.768606 5.82551 0
M  V30 15039 H 1367.97 -0.121011 6.1048 0
M  V30 15040 H 1369.39 2.02592 5.36311 0
M  V30 15041 H 1367.79 2.81459 5.30001 0
M  V30 15042 H 1368.86 2.8965 3.88884 0
M  V30 15043 N 1370.2 -1.34667 0.818693 0
M  V30 15044 C 1371.16 -2.27908 0.243037 0
M  V30 15045 C 1372.16 -1.50106 -0.576622 0
M  V30 15046 O 1373.35 -1.69701 -0.393342 0
M  V30 15047 C 1370.48 -3.34455 -0.659759 0
M  V30 15048 H 1371.68 -2.80332 1.06555 0
M  V30 15049 H 1369.23 -1.44727 0.590237 0
M  V30 15050 H 1369.96 -2.87238 -1.50549 0
M  V30 15051 H 1369.75 -3.92031 -0.073567 0
M  V30 15052 H 1371.24 -4.04016 -1.05646 0
M  V30 15053 N 1371.68 -0.573274 -1.46804 0
M  V30 15054 C 1373.09 -0.23423 -1.57872 0
M  V30 15055 C 1373.29 1.26342 -1.56971 0
M  V30 15056 O 1372.35 2.04459 -1.48165 0
M  V30 15057 C 1373.66 -0.875097 -2.87685 0
M  V30 15058 C 1375.21 -0.847812 -3.01299 0
M  V30 15059 C 1375.68 -1.46804 -4.33835 0
M  V30 15060 N 1377.18 -1.43196 -4.4051 0
M  V30 15061 C 1377.91 -1.88133 -5.41658 0
M  V30 15062 N 1377.41 -2.41001 -6.49531 0
M  V30 15063 N 1379.2 -1.79107 -5.32801 0
M  V30 15064 H 1371.35 -1.54612 -1.45633 0
M  V30 15065 H 1373.61 -0.645703 -0.694098 0
M  V30 15066 H 1373.32 -1.92826 -2.94127 0
M  V30 15067 H 1373.19 -0.377671 -3.75305 0
M  V30 15068 H 1375.58 0.196707 -2.94444 0
M  V30 15069 H 1375.66 -1.38316 -2.1518 0
M  V30 15070 H 1375.31 -2.51171 -4.41447 0
M  V30 15071 H 1375.24 -0.908 -5.18713 0
M  V30 15072 H 1377.73 -1.04541 -3.63152 0
M  V30 15073 H 1378.04 -2.73172 -7.22908 0
M  V30 15074 H 1376.38 -2.45021 -6.50377 0
M  V30 15075 H 1379.58 -1.37569 -4.47429 0
M  V30 15076 H 1379.75 -2.14445 -6.11488 0
M  V30 15077 N 1373.15 1.5451 -0.310553 0
M  V30 15078 C 1374.38 2.05204 0.301013 0
M  V30 15079 C 1374.8 1.1859 1.46007 0
M  V30 15080 O 1374.16 0.192081 1.8028 0
M  V30 15081 C 1374.21 3.53221 0.725767 0
M  V30 15082 O 1373.31 3.69596 1.82955 0
M  V30 15083 H 1372.66 0.661566 0.0568026 0
M  V30 15084 H 1375.19 1.99473 -0.455178 0
M  V30 15085 H 1375.2 3.9525 1.01198 0
M  V30 15086 H 1373.87 4.15721 -0.122046 0
M  V30 15087 H 1372.45 3.39472 1.54315 0
M  V30 15088 N 1374.63 0.0384594 1.57553 0
M  V30 15089 C 1375.88 -0.637533 1.91359 0
M  V30 15090 C 1376.2 -1.7275 0.91744 0
M  V30 15091 O 1377.4 -2.46078 1.14709 0
M  V30 15092 C 1375.86 -1.18526 3.39823 0
M  V30 15093 C 1375.47 -0.128086 4.47817 0
M  V30 15094 C 1377.21 -1.83723 3.82683 0
M  V30 15095 C 1375.12 -0.687978 5.87385 0
M  V30 15096 H 1374.05 -0.241898 0.714144 0
M  V30 15097 H 1376.7 0.105281 1.83198 0
M  V30 15098 H 1375.08 -1.97999 3.42947 0
M  V30 15099 H 1376.25 0.644865 4.56265 0
M  V30 15100 H 1374.57 0.425672 4.14219 0
M  V30 15101 H 1377.17 -2.26585 4.84317 0
M  V30 15102 H 1377.51 -2.68377 3.18244 0
M  V30 15103 H 1378.04 -1.10926 3.82021 0
M  V30 15104 H 1374.78 0.120642 6.55389 0
M  V30 15105 H 1374.3 -1.4292 5.82524 0
M  V30 15106 H 1375.98 -1.17483 6.36244 0
M  V30 15107 N 1376.11 -1.55841 -0.234795 0
M  V30 15108 C 1377.07 -1.9051 -1.2743 0
M  V30 15109 C 1378.07 -0.782543 -1.40474 0
M  V30 15110 O 1379.26 -1.05043 -1.38966 0
M  V30 15111 C 1376.4 -2.14424 -2.65019 0
M  V30 15112 H 1377.59 -2.83471 -0.979003 0
M  V30 15113 H 1375.14 -1.48919 -0.47463 0
M  V30 15114 H 1375.88 -1.23972 -2.99669 0
M  V30 15115 H 1375.66 -2.96191 -2.56931 0
M  V30 15116 H 1377.15 -2.42388 -3.40056 0
M  V30 15117 N 1377.59 0.500963 -1.49426 0
M  V30 15118 C 1378.5 1.62889 -1.68833 0
M  V30 15119 C 1379.52 1.64367 -0.570932 0
M  V30 15120 O 1380.69 1.82786 -0.845641 0
M  V30 15121 C 1377.76 2.99255 -1.75063 0
M  V30 15122 C 1376.82 3.08404 -2.9864 0
M  V30 15123 C 1376.05 4.38266 -3.04564 0
M  V30 15124 O 1376.27 5.27065 -2.1808 0
M  V30 15125 O 1375.21 4.52387 -3.97026 0
M  V30 15126 H 1379.03 1.49446 -2.64385 0
M  V30 15127 H 1376.62 0.677254 -1.33168 0
M  V30 15128 H 1378.5 3.80303 -1.81515 0
M  V30 15129 H 1377.18 3.1296 -0.826896 0
M  V30 15130 H 1376.08 2.26544 -2.97706 0
M  V30 15131 H 1377.42 2.99626 -3.90494 0
M  V30 15132 N 1379.07 1.38501 0.752011 0
M  V30 15133 C 1379.98 1.38094 1.8965 0
M  V30 15134 C 1380.99 0.277851 1.71767 0
M  V30 15135 O 1382.17 0.516536 1.94663 0
M  V30 15136 C 1379.23 1.2063 3.25037 0
M  V30 15137 C 1378.3 2.40758 3.55435 0
M  V30 15138 C 1377.53 2.24118 4.84362 0
M  V30 15139 O 1377.75 1.23571 5.56854 0
M  V30 15140 O 1376.69 3.12741 5.14273 0
M  V30 15141 H 1380.51 2.34532 1.92947 0
M  V30 15142 H 1378.1 1.19437 0.897504 0
M  V30 15143 H 1379.98 1.12957 4.05979 0
M  V30 15144 H 1378.65 0.272785 3.22549 0
M  V30 15145 H 1377.56 2.54006 2.74648 0
M  V30 15146 H 1378.89 3.32745 3.62686 0
M  V30 15147 N 1380.55 -0.980364 1.23396 0
M  V30 15148 C 1381.48 -2.07522 0.972991 0
M  V30 15149 C 1382.49 -1.62714 -0.0530191 0
M  V30 15150 O 1383.68 -1.77564 0.182513 0
M  V30 15151 C 1380.78 -3.35977 0.444126 0
M  V30 15152 C 1379.95 -4.09756 1.53031 0
M  V30 15153 C 1379.01 -5.16488 1.00631 0
M  V30 15154 O 1378.04 -5.43368 1.69529 0
M  V30 15155 N 1379.24 -5.80263 -0.165842 0
M  V30 15156 H 1382 -2.30487 1.91561 0
M  V30 15157 H 1379.57 -1.14706 1.14255 0
M  V30 15158 H 1381.56 -4.04624 0.078617 0
M  V30 15159 H 1380.13 -3.0998 -0.403912 0
M  V30 15160 H 1379.35 -3.35564 2.06858 0
M  V30 15161 H 1380.64 -4.55815 2.26076 0
M  V30 15162 H 1380.03 -5.60811 -0.742162 0
M  V30 15163 H 1378.59 -6.50084 -0.472614 0
M  V30 15164 N 1382.02 -1.04567 -1.17913 0
M  V30 15165 C 1383.25 -0.771084 -1.91671 0
M  V30 15166 C 1383.66 0.676261 -1.76701 0
M  V30 15167 O 1383 1.47314 -1.09746 0
M  V30 15168 C 1383.07 -1.06406 -3.43392 0
M  V30 15169 C 1382.73 -2.50632 -3.82142 0
M  V30 15170 C 1383.73 -3.48825 -3.85509 0
M  V30 15171 C 1381.41 -2.85476 -4.1329 0
M  V30 15172 C 1383.41 -4.79909 -4.19483 0
M  V30 15173 C 1381.09 -4.16766 -4.46934 0
M  V30 15174 C 1382.09 -5.13793 -4.50007 0
M  V30 15175 O 1381.78 -6.42728 -4.82862 0
M  V30 15176 H 1381.51 -0.280258 -0.615168 0
M  V30 15177 H 1384.07 -1.39781 -1.50501 0
M  V30 15178 H 1382.3 -0.380221 -3.84826 0
M  V30 15179 H 1383.98 -0.776475 -3.98404 0
M  V30 15180 H 1384.75 -3.23245 -3.61577 0
M  V30 15181 H 1380.63 -2.10621 -4.10073 0
M  V30 15182 H 1384.17 -5.55638 -4.21796 0
M  V30 15183 H 1380.07 -4.42111 -4.70328 0
M  V30 15184 H 1380.84 -6.47454 -5.00744 0
M  V30 15185 N 1383.5 1.34231 -0.825823 0
M  V30 15186 C 1384.73 2.02949 -0.427354 0
M  V30 15187 C 1385.15 1.61772 0.959755 0
M  V30 15188 O 1384.51 0.803799 1.62508 0
M  V30 15189 C 1384.56 3.56522 -0.540799 0
M  V30 15190 O 1383.66 4.10065 0.438213 0
M  V30 15191 H 1383 0.640378 -0.175535 0
M  V30 15192 H 1385.53 1.71416 -1.11704 0
M  V30 15193 H 1385.54 4.05857 -0.41763 0
M  V30 15194 H 1384.22 3.85839 -1.55246 0
M  V30 15195 H 1382.79 3.71894 0.273687 0
M  V30 15196 N 1384.98 0.581051 1.46498 0
M  V30 15197 C 1386.26 -0.000789846 1.956 0
M  V30 15198 C 1386.64 -1.46104 1.52371 0
M  V30 15199 O 1385.98 -2.15005 0.773623 0
M  V30 15200 C 1386.19 0.169534 3.48588 0
M  V30 15201 C 1387.54 0.036499 4.24584 0
M  V30 15202 O 1388.57 0.0982852 3.56064 0
M  V30 15203 O 1387.43 -0.100571 5.46407 0
M  V30 15204 H 1384.52 -0.050749 0.825441 0
M  V30 15205 H 1387.07 0.649252 1.56789 0
M  V30 15206 H 1385.84 1.18473 3.72934 0
M  V30 15207 H 1385.46 -0.517017 3.94224 0
M  V30 15208 N 1386.46 -1.54343 0.318742 0
M  V30 15209 C 1387.39 -2.27118 -0.542206 0
M  V30 15210 C 1388.37 -1.27731 -1.12334 0
M  V30 15211 O 1389.55 -1.56535 -1.14937 0
M  V30 15212 C 1386.68 -3.02535 -1.70558 0
M  V30 15213 C 1385.64 -4.09218 -1.25398 0
M  V30 15214 C 1384.96 -4.72449 -2.50391 0
M  V30 15215 C 1386.26 -5.20971 -0.372332 0
M  V30 15216 H 1387.96 -2.9933 0.0648226 0
M  V30 15217 H 1385.5 -1.43963 0.0326168 0
M  V30 15218 H 1387.46 -3.52174 -2.31412 0
M  V30 15219 H 1386.18 -2.27931 -2.33912 0
M  V30 15220 H 1384.84 -3.60455 -0.668392 0
M  V30 15221 H 1384.49 -3.94466 -3.12099 0
M  V30 15222 H 1384.19 -5.4451 -2.20868 0
M  V30 15223 H 1385.71 -5.2486 -3.12016 0
M  V30 15224 H 1387.13 -5.66396 -0.887029 0
M  V30 15225 H 1385.52 -5.99859 -0.17009 0
M  V30 15226 H 1386.59 -4.81198 0.598064 0
M  V30 15227 N 1387.94 -0.0468143 -1.5753 0
M  V30 15228 C 1388.85 0.944362 -2.14753 0
M  V30 15229 C 1389.86 1.34473 -1.10422 0
M  V30 15230 O 1391.04 1.42254 -1.42569 0
M  V30 15231 C 1388.1 2.2023 -2.67768 0
M  V30 15232 C 1387.16 1.8607 -3.8688 0
M  V30 15233 C 1386.4 3.05867 -4.37357 0
M  V30 15234 O 1386.62 4.19099 -3.86927 0
M  V30 15235 O 1385.55 2.87134 -5.28997 0
M  V30 15236 H 1389.38 0.48772 -2.99758 0
M  V30 15237 H 1386.96 0.174831 -1.48374 0
M  V30 15238 H 1388.85 2.94044 -3.01855 0
M  V30 15239 H 1387.52 2.65041 -1.85836 0
M  V30 15240 H 1386.43 1.09586 -3.5769 0
M  V30 15241 H 1387.76 1.46062 -4.70028 0
M  V30 15242 N 1389.41 1.55964 0.226527 0
M  V30 15243 C 1390.36 1.92007 1.28069 0
M  V30 15244 C 1391.33 0.776666 1.46823 0
M  V30 15245 O 1392.52 1.03213 1.60474 0
M  V30 15246 C 1389.66 2.23784 2.62707 0
M  V30 15247 C 1388.77 3.51034 2.51792 0
M  V30 15248 C 1387.9 3.72281 3.7892 0
M  V30 15249 C 1386.94 4.93062 3.62707 0
M  V30 15250 N 1386.08 5.10725 4.81772 0
M  V30 15251 H 1390.92 2.81898 0.96631 0
M  V30 15252 H 1388.46 1.39529 0.465847 0
M  V30 15253 H 1390.42 2.40217 3.41104 0
M  V30 15254 H 1389.05 1.37073 2.92251 0
M  V30 15255 H 1388.1 3.42822 1.64856 0
M  V30 15256 H 1389.41 4.39582 2.35731 0
M  V30 15257 H 1388.56 3.88783 4.6576 0
M  V30 15258 H 1387.3 2.82004 3.97901 0
M  V30 15259 H 1386.31 4.76515 2.7425 0
M  V30 15260 H 1387.53 5.84819 3.45201 0
M  V30 15261 H 1385.48 4.2339 5.01076 0
M  V30 15262 H 1385.4 5.93397 4.68419 0
M  V30 15263 H 1386.66 5.31658 5.70053 0
M  V30 15264 N 1390.89 -0.493031 1.4969 0
M  V30 15265 C 1391.8 -1.61991 1.69694 0
M  V30 15266 C 1392.82 -1.64061 0.579641 0
M  V30 15267 O 1393.99 -1.82335 0.855323 0
M  V30 15268 C 1391.06 -2.98323 1.76648 0
M  V30 15269 C 1390.12 -3.06816 3.00271 0
M  V30 15270 C 1389.35 -4.36644 3.06883 0
M  V30 15271 O 1389.58 -5.25901 2.20872 0
M  V30 15272 O 1388.51 -4.50275 3.99419 0
M  V30 15273 H 1392.34 -1.48042 2.65174 0
M  V30 15274 H 1389.92 -0.670182 1.33525 0
M  V30 15275 H 1391.8 -3.79335 1.83529 0
M  V30 15276 H 1390.48 -3.12517 0.843482 0
M  V30 15277 H 1389.39 -2.24962 2.98903 0
M  V30 15278 H 1390.72 -2.97551 3.92077 0
M  V30 15279 N 1392.37 -1.38898 -0.744656 0
M  V30 15280 C 1393.32 -1.36845 -1.85855 0
M  V30 15281 C 1394.29 -0.2296 -1.64505 0
M  V30 15282 O 1395.47 -0.423221 -1.86047 0
M  V30 15283 C 1392.61 -1.20818 -3.2326 0
M  V30 15284 C 1391.73 -2.44166 -3.5638 0
M  V30 15285 C 1390.86 -2.20801 -4.83136 0
M  V30 15286 C 1389.9 -3.39874 -5.0907 0
M  V30 15287 N 1389.04 -3.15888 -6.27024 0
M  V30 15288 H 1393.88 -2.32068 -1.86945 0
M  V30 15289 H 1391.41 -1.15289 -0.913611 0
M  V30 15290 H 1393.37 -1.0954 -4.02563 0
M  V30 15291 H 1392 -0.292295 -3.21474 0
M  V30 15292 H 1391.05 -2.66083 -2.71852 0
M  V30 15293 H 1392.37 -3.32885 -3.71469 0
M  V30 15294 H 1391.52 -2.0671 -5.704 0
M  V30 15295 H 1390.26 -1.29462 -4.70203 0
M  V30 15296 H 1389.26 -3.54474 -4.20271 0
M  V30 15297 H 1390.49 -4.32102 -5.23894 0
M  V30 15298 H 1388.43 -2.27204 -6.15398 0
M  V30 15299 H 1388.35 -3.9816 -6.42655 0
M  V30 15300 H 1389.62 -3.0547 -7.17153 0
M  V30 15301 N 1393.85 0.973806 -1.23914 0
M  V30 15302 C 1395.1 1.71027 -1.06923 0
M  V30 15303 C 1395.41 1.91612 0.392947 0
M  V30 15304 O 1396.62 2.62771 0.682927 0
M  V30 15305 C 1395.07 3.07811 -1.86496 0
M  V30 15306 C 1394.68 2.9509 -3.37085 0
M  V30 15307 C 1396.42 3.85371 -1.78015 0
M  V30 15308 C 1394.33 4.27145 -4.09024 0
M  V30 15309 H 1393.26 0.641329 -0.396501 0
M  V30 15310 H 1395.91 1.08562 -1.47941 0
M  V30 15311 H 1394.29 3.71069 -1.38288 0
M  V30 15312 H 1395.47 2.4088 -3.92827 0
M  V30 15313 H 1393.78 2.30999 -3.46451 0
M  V30 15314 H 1396.38 4.83147 -2.2907 0
M  V30 15315 H 1396.72 4.09594 -0.744196 0
M  V30 15316 H 1397.26 3.28827 -2.23869 0
M  V30 15317 H 1394 4.08117 -5.12953 0
M  V30 15318 H 1393.52 4.81194 -3.58068 0
M  V30 15319 H 1395.19 4.95798 -4.15685 0
M  V30 15320 N 1395.33 1.05191 1.17357 0
M  V30 15321 C 1396.26 0.597207 2.20247 0
M  V30 15322 C 1397.24 -0.374194 1.58236 0
M  V30 15323 O 1398.42 -0.285815 1.86321 0
M  V30 15324 C 1395.55 -0.126012 3.38466 0
M  V30 15325 C 1394.59 0.800401 4.18922 0
M  V30 15326 S 1395.43 2.28956 4.84086 0
M  V30 15327 C 1396.58 1.57751 6.05694 0
M  V30 15328 H 1396.82 1.46893 2.58476 0
M  V30 15329 H 1394.35 0.863874 1.27971 0
M  V30 15330 H 1396.31 -0.537086 4.06971 0
M  V30 15331 H 1394.97 -0.97377 2.98624 0
M  V30 15332 H 1394.16 0.240754 5.03425 0
M  V30 15333 H 1393.76 1.15084 3.55853 0
M  V30 15334 H 1396.06 0.876839 6.71802 0
M  V30 15335 H 1397 2.40001 6.66187 0
M  V30 15336 H 1397.41 1.06493 5.54364 0
M  V30 15337 N 1396.8 -1.33791 0.83293 0
M  V30 15338 C 1397.75 -2.29332 0.25989 0
M  V30 15339 C 1398.72 -1.54056 -0.620965 0
M  V30 15340 O 1399.91 -1.82382 -0.560492 0
M  V30 15341 C 1397.05 -3.40461 -0.563964 0
M  V30 15342 C 1396.16 -4.30658 0.34025 0
M  V30 15343 C 1395.29 -5.28897 -0.494134 0
M  V30 15344 C 1394.33 -6.10733 0.408842 0
M  V30 15345 N 1393.47 -7.01032 -0.38706 0
M  V30 15346 H 1398.31 -2.77743 1.07996 0
M  V30 15347 H 1395.85 -1.3667 0.544043 0
M  V30 15348 H 1397.81 -4.03587 -1.05704 0
M  V30 15349 H 1396.44 -2.93258 -1.34905 0
M  V30 15350 H 1395.49 -3.68305 0.9516 0
M  V30 15351 H 1396.8 -4.87962 1.03415 0
M  V30 15352 H 1395.95 -5.97522 -1.05128 0
M  V30 15353 H 1394.69 -4.72155 -1.2215 0
M  V30 15354 H 1393.7 -5.41031 0.978046 0
M  V30 15355 H 1394.92 -6.69557 1.13448 0
M  V30 15356 H 1392.87 -6.46747 -1.09792 0
M  V30 15357 H 1392.79 -7.55592 0.248249 0
M  V30 15358 H 1394.05 -7.73973 -0.926631 0
M  V30 15359 N 1398.28 -0.588812 -1.46187 0
M  V30 15360 C 1399.19 0.143253 -2.34162 0
M  V30 15361 C 1400.21 0.879779 -1.5012 0
M  V30 15362 O 1401.38 0.841592 -1.82973 0
M  V30 15363 C 1398.45 1.14017 -3.27416 0
M  V30 15364 C 1397.51 0.407651 -4.2736 0
M  V30 15365 C 1396.74 1.35708 -5.16158 0
M  V30 15366 O 1396.97 2.59394 -5.08007 0
M  V30 15367 O 1395.9 0.864343 -5.95662 0
M  V30 15368 H 1399.73 -0.579228 -2.98125 0
M  V30 15369 H 1397.31 -0.349174 -1.45262 0
M  V30 15370 H 1399.19 1.71484 -3.8493 0
M  V30 15371 H 1397.87 1.84401 -2.66041 0
M  V30 15372 H 1396.78 -0.209011 -3.73516 0
M  V30 15373 H 1398.11 -0.255334 -4.91537 0
M  V30 15374 N 1399.76 1.54172 -0.326923 0
M  V30 15375 C 1400.69 2.27402 0.530154 0
M  V30 15376 C 1401.67 1.28325 1.11655 0
M  V30 15377 O 1402.86 1.57142 1.14105 0
M  V30 15378 C 1399.99 3.03435 1.68951 0
M  V30 15379 C 1398.94 4.09877 1.23226 0
M  V30 15380 C 1398.27 4.7377 2.47882 0
M  V30 15381 C 1399.57 5.21161 0.344698 0
M  V30 15382 H 1401.26 2.99291 -0.0806959 0
M  V30 15383 H 1398.81 1.43944 -0.0402511 0
M  V30 15384 H 1400.76 3.53396 2.29541 0
M  V30 15385 H 1399.48 2.29169 2.327 0
M  V30 15386 H 1398.14 3.60805 0.649267 0
M  V30 15387 H 1397.79 3.96116 3.10002 0
M  V30 15388 H 1397.49 5.45674 2.17977 0
M  V30 15389 H 1399.01 5.26507 3.09229 0
M  V30 15390 H 1400.43 5.66859 0.856979 0
M  V30 15391 H 1398.83 5.99941 0.138276 0
M  V30 15392 H 1399.9 4.80874 -0.623575 0
M  V30 15393 N 1401.24 0.0551678 1.57503 0
M  V30 15394 C 1402.15 -0.932959 2.15251 0
M  V30 15395 C 1403.16 -1.33885 1.11134 0
M  V30 15396 O 1404.34 -1.41495 1.43321 0
M  V30 15397 C 1401.41 -2.18807 2.68932 0
M  V30 15398 C 1400.47 -1.84016 3.87862 0
M  V30 15399 C 1399.7 -3.03543 4.38973 0
M  V30 15400 O 1399.92 -4.17041 3.89144 0
M  V30 15401 O 1398.86 -2.84325 5.30512 0
M  V30 15402 H 1402.68 -0.471816 3.00013 0
M  V30 15403 H 1400.27 -0.16696 1.48464 0
M  V30 15404 H 1402.15 -2.92439 3.0341 0
M  V30 15405 H 1400.82 -2.64051 1.87239 0
M  V30 15406 H 1399.73 -1.07687 3.58266 0
M  V30 15407 H 1401.06 -1.43567 4.70796 0
M  V30 15408 N 1402.72 -1.56081 -0.218252 0
M  V30 15409 C 1403.97 -1.78445 -0.94022 0
M  V30 15410 C 1404.28 -0.624317 -1.85369 0
M  V30 15411 O 1405.48 -0.731669 -2.61455 0
M  V30 15412 C 1403.94 -3.16026 -1.72208 0
M  V30 15413 C 1403.55 -4.39774 -0.854584 0
M  V30 15414 C 1405.29 -3.47714 -2.43506 0
M  V30 15415 C 1403.2 -5.68379 -1.63398 0
M  V30 15416 H 1402.13 -0.665303 -0.354806 0
M  V30 15417 H 1404.78 -1.82471 -0.194021 0
M  V30 15418 H 1403.16 -3.06185 -2.5113 0
M  V30 15419 H 1404.34 -4.60679 -0.105659 0
M  V30 15420 H 1402.65 -4.15627 -0.253562 0
M  V30 15421 H 1405.25 -4.41026 -3.02325 0
M  V30 15422 H 1405.59 -2.70367 -3.16555 0
M  V30 15423 H 1406.12 -3.58899 -1.71571 0
M  V30 15424 H 1402.86 -6.48628 -0.946704 0
M  V30 15425 H 1402.38 -5.5153 -2.35743 0
M  V30 15426 H 1404.06 -6.08672 -2.1938 0
M  V30 15427 N 1404.2 0.485086 -1.49949 0
M  V30 15428 C 1405.14 1.5848 -1.67788 0
M  V30 15429 C 1406.11 1.57776 -0.519216 0
M  V30 15430 O 1407.3 1.75521 -0.748141 0
M  V30 15431 C 1404.44 2.9654 -1.76516 0
M  V30 15432 C 1403.55 3.07139 -3.03792 0
M  V30 15433 C 1402.69 4.36029 -3.03401 0
M  V30 15434 C 1401.72 4.40318 -4.2519 0
M  V30 15435 N 1400.86 5.60659 -4.22618 0
M  V30 15436 H 1405.7 1.42575 -2.6168 0
M  V30 15437 H 1403.24 0.693426 -1.29731 0
M  V30 15438 H 1405.2 3.76583 -1.79557 0
M  V30 15439 H 1403.83 3.11112 -0.860764 0
M  V30 15440 H 1402.88 2.20057 -3.10289 0
M  V30 15441 H 1404.19 3.06167 -3.9378 0
M  V30 15442 H 1403.34 5.24407 -3.05094 0
M  V30 15443 H 1402.08 4.39588 -2.11219 0
M  V30 15444 H 1401.09 3.50339 -4.23725 0
M  V30 15445 H 1402.31 4.38461 -5.18583 0
M  V30 15446 H 1400.26 5.6503 -3.33282 0
M  V30 15447 H 1400.18 5.61371 -5.06359 0
M  V30 15448 H 1401.44 6.51201 -4.28436 0
M  V30 15449 N 1405.67 1.39291 0.737279 0
M  V30 15450 C 1406.58 1.40098 1.88175 0
M  V30 15451 C 1407.6 0.296053 1.71463 0
M  V30 15452 O 1408.78 0.537153 1.94105 0
M  V30 15453 C 1405.84 1.24071 3.2374 0
M  V30 15454 C 1404.9 2.44515 3.52861 0
M  V30 15455 C 1404.13 2.29243 4.81958 0
M  V30 15456 O 1404.36 1.2947 5.55512 0
M  V30 15457 O 1403.29 3.18178 5.10927 0
M  V30 15458 H 1407.12 2.36565 1.90449 0
M  V30 15459 H 1404.7 1.20382 0.884786 0
M  V30 15460 H 1406.58 1.17257 4.04758 0
M  V30 15461 H 1405.26 0.30698 3.22241 0
M  V30 15462 H 1404.17 2.56905 2.71939 0
M  V30 15463 H 1405.5 3.36573 3.59137 0
M  V30 15464 N 1407.15 -0.967221 1.24429 0
M  V30 15465 C 1408.08 -2.06071 0.980314 0
M  V30 15466 C 1409.06 -1.62372 -0.0860829 0
M  V30 15467 O 1410.25 -1.88431 0.0509524 0
M  V30 15468 C 1407.37 -3.35289 0.479452 0
M  V30 15469 C 1406.42 -3.9794 1.53447 0
M  V30 15470 S 1407.25 -4.3551 3.11595 0
M  V30 15471 C 1408.41 -5.67865 2.63212 0
M  V30 15472 H 1408.64 -2.28145 1.90623 0
M  V30 15473 H 1406.17 -1.10519 1.07819 0
M  V30 15474 H 1408.13 -4.10027 0.197103 0
M  V30 15475 H 1406.79 -3.11201 -0.425755 0
M  V30 15476 H 1405.99 -4.91067 1.13445 0
M  V30 15477 H 1405.59 -3.29634 1.76685 0
M  V30 15478 H 1407.88 -6.45405 2.06054 0
M  V30 15479 H 1408.82 -6.12724 3.5493 0
M  V30 15480 H 1409.23 -5.26496 2.03623 0
M  V30 15481 N 1408.63 -1.05812 -1.16797 0
M  V30 15482 C 1409.56 -0.608879 -2.19927 0
M  V30 15483 C 1410.54 0.365798 -1.58432 0
M  V30 15484 O 1411.72 0.27593 -1.8647 0
M  V30 15485 C 1408.85 0.108061 -3.38528 0
M  V30 15486 C 1407.9 -0.822607 -4.18492 0
M  V30 15487 S 1408.73 -2.3152 -4.82865 0
M  V30 15488 C 1409.89 -1.60961 -6.04849 0
M  V30 15489 H 1410.12 -1.48261 -2.57693 0
M  V30 15490 H 1407.65 -0.870648 -1.27511 0
M  V30 15491 H 1409.61 0.515496 -4.0725 0
M  V30 15492 H 1408.27 0.95792 -2.99137 0
M  V30 15493 H 1407.46 -0.267448 -5.0329 0
M  V30 15494 H 1407.07 -1.1697 -3.55238 0
M  V30 15495 H 1409.36 -0.912454 -6.71327 0
M  V30 15496 H 1410.3 -2.43531 -6.64905 0
M  V30 15497 H 1410.71 -1.09431 -5.53792 0
M  V30 15498 N 1410.11 1.33347 -0.840014 0
M  V30 15499 C 1411.07 2.27492 -0.279264 0
M  V30 15500 C 1412.07 1.51004 0.552669 0
M  V30 15501 O 1413.26 1.70305 0.366295 0
M  V30 15502 C 1410.39 3.35462 0.606466 0
M  V30 15503 H 1411.59 2.78601 -1.11001 0
M  V30 15504 H 1409.14 1.4377 -0.613187 0
M  V30 15505 H 1409.87 2.89596 1.45961 0
M  V30 15506 H 1409.66 3.92098 0.0111889 0
M  V30 15507 H 1411.15 4.05645 0.992052 0
M  V30 15508 N 1411.59 0.596556 1.45873 0
M  V30 15509 C 1413 0.259317 1.57479 0
M  V30 15510 C 1413.2 -1.23829 1.58961 0
M  V30 15511 O 1412.26 -2.02076 1.51399 0
M  V30 15512 C 1413.57 0.920755 2.86256 0
M  V30 15513 C 1415.12 0.895638 2.99912 0
M  V30 15514 C 1415.59 1.53688 4.31444 0
M  V30 15515 N 1417.08 1.50186 4.38176 0
M  V30 15516 C 1417.82 1.96727 5.38596 0
M  V30 15517 N 1417.32 2.51304 6.45615 0
M  V30 15518 N 1419.11 1.87561 5.29884 0
M  V30 15519 H 1411.26 1.56909 1.43155 0
M  V30 15520 H 1413.52 0.656664 0.683737 0
M  V30 15521 H 1413.23 1.97481 2.91023 0
M  V30 15522 H 1413.1 0.437331 3.74656 0
M  V30 15523 H 1415.49 -0.149838 2.94719 0
M  V30 15524 H 1415.57 1.41722 2.12952 0
M  V30 15525 H 1415.21 2.58163 4.37395 0
M  V30 15526 H 1415.14 0.990408 5.17203 0
M  V30 15527 H 1417.64 1.10305 3.61443 0
M  V30 15528 H 1417.95 2.84639 7.18471 0
M  V30 15529 H 1416.29 2.55337 6.46396 0
M  V30 15530 H 1419.48 1.4467 4.45183 0
M  V30 15531 H 1419.66 2.24146 6.07999 0
M  V30 15532 N 1413.06 -1.53996 0.335095 0
M  V30 15533 C 1414.01 -2.21479 -0.541388 0
M  V30 15534 C 1415 -1.19926 -1.07268 0
M  V30 15535 O 1416.19 -1.45508 -1.00779 0
M  V30 15536 C 1413.32 -2.98477 -1.69607 0
M  V30 15537 C 1412.4 -4.07379 -1.17912 0
M  V30 15538 N 1412.8 -5.0435 -0.382732 0
M  V30 15539 C 1411.09 -4.21537 -1.45679 0
M  V30 15540 C 1411.79 -5.81608 -0.103194 0
M  V30 15541 N 1410.77 -5.39171 -0.692513 0
M  V30 15542 H 1414.57 -2.93806 0.0742285 0
M  V30 15543 H 1412.09 -1.61782 0.141529 0
M  V30 15544 H 1414.08 -3.45316 -2.33587 0
M  V30 15545 H 1412.74 -2.27674 -2.31505 0
M  V30 15546 H 1413.75 -5.17894 -0.0245533 0
M  V30 15547 H 1410.43 -3.61953 -2.08078 0
M  V30 15548 H 1411.82 -6.69737 0.538682 0
M  V30 15549 N 1414.54 -0.0635198 -1.57472 0
M  V30 15550 C 1415.49 0.906604 -2.12248 0
M  V30 15551 C 1416.46 1.30078 -1.0329 0
M  V30 15552 O 1417.64 1.38809 -1.30907 0
M  V30 15553 C 1414.78 2.1718 -2.68192 0
M  V30 15554 C 1413.9 1.831 -3.91278 0
M  V30 15555 C 1413.03 3.0417 -4.35493 0
M  V30 15556 C 1412.07 2.66069 -5.51248 0
M  V30 15557 N 1411.21 3.79871 -5.9046 0
M  V30 15558 H 1416.05 0.432606 -2.94843 0
M  V30 15559 H 1413.58 0.201895 -1.45708 0
M  V30 15560 H 1415.54 2.91231 -2.98732 0
M  V30 15561 H 1414.17 2.62135 -1.88375 0
M  V30 15562 H 1413.22 0.991473 -3.67252 0
M  V30 15563 H 1414.54 1.51063 -4.75375 0
M  V30 15564 H 1413.69 3.86507 -4.6765 0
M  V30 15565 H 1412.43 3.39395 -3.50232 0
M  V30 15566 H 1411.43 1.82151 -5.1875 0
M  V30 15567 H 1412.66 2.32023 -6.38234 0
M  V30 15568 H 1410.61 4.14873 -5.0815 0
M  V30 15569 H 1410.52 3.51573 -6.69277 0
M  V30 15570 H 1411.79 4.62811 -6.27237 0
M  V30 15571 N 1416.02 1.56195 0.209972 0
M  V30 15572 C 1416.95 1.89859 1.28398 0
M  V30 15573 C 1417.96 0.787878 1.42465 0
M  V30 15574 O 1419.15 1.06623 1.43156 0
M  V30 15575 C 1416.25 2.10231 2.65812 0
M  V30 15576 C 1415.43 3.41309 2.73545 0
M  V30 15577 C 1414.49 3.50973 3.92052 0
M  V30 15578 O 1413.51 4.23915 3.79849 0
M  V30 15579 N 1414.71 2.82965 5.06864 0
M  V30 15580 H 1417.48 2.82581 0.998411 0
M  V30 15581 H 1415.04 1.56882 0.399964 0
M  V30 15582 H 1417.03 2.13999 3.43492 0
M  V30 15583 H 1415.6 1.2408 2.8692 0
M  V30 15584 H 1414.82 3.49539 1.82253 0
M  V30 15585 H 1416.11 4.27636 2.7569 0
M  V30 15586 H 1415.51 2.23504 5.19676 0
M  V30 15587 H 1414.06 2.9238 5.82544 0
M  V30 15588 N 1417.5 -0.477127 1.50204 0
M  V30 15589 C 1418.41 -1.60182 1.71403 0
M  V30 15590 C 1419.42 -1.63437 0.597009 0
M  V30 15591 O 1420.6 -1.81418 0.874614 0
M  V30 15592 C 1417.66 -2.96432 1.79802 0
M  V30 15593 C 1416.73 -3.03614 3.03508 0
M  V30 15594 C 1415.96 -4.33365 3.11497 0
M  V30 15595 O 1416.18 -5.23529 2.26438 0
M  V30 15596 O 1415.12 -4.46013 4.04173 0
M  V30 15597 H 1418.94 -1.45221 2.66729 0
M  V30 15598 H 1416.53 -0.655982 1.34228 0
M  V30 15599 H 1418.41 -3.77367 1.87542 0
M  V30 15600 H 1417.08 -3.11605 0.876581 0
M  V30 15601 H 1415.99 -2.21779 3.01272 0
M  V30 15602 H 1417.32 -2.93376 3.95211 0
M  V30 15603 N 1418.98 -1.3968 -0.729882 0
M  V30 15604 C 1419.91 -1.41549 -1.85704 0
M  V30 15605 C 1420.89 -0.278186 -1.6781 0
M  V30 15606 O 1422.07 -0.484749 -1.88053 0
M  V30 15607 C 1419.2 -1.26327 -3.2351 0
M  V30 15608 C 1418.16 -2.37511 -3.56051 0
M  V30 15609 C 1417.48 -2.07375 -4.92849 0
M  V30 15610 C 1418.78 -3.79833 -3.58502 0
M  V30 15611 H 1420.48 -2.35877 -1.84398 0
M  V30 15612 H 1418.02 -1.13536 -0.885747 0
M  V30 15613 H 1419.98 -1.26254 -4.02042 0
M  V30 15614 H 1418.7 -0.284697 -3.25357 0
M  V30 15615 H 1417.36 -2.36809 -2.79852 0
M  V30 15616 H 1417.01 -1.07943 -4.91281 0
M  V30 15617 H 1416.71 -2.81855 -5.15588 0
M  V30 15618 H 1418.23 -2.08961 -5.73731 0
M  V30 15619 H 1419.64 -3.82436 -4.27101 0
M  V30 15620 H 1418.04 -4.53715 -3.92763 0
M  V30 15621 H 1419.11 -4.10443 -2.58195 0
M  V30 15622 N 1420.45 0.960609 -1.2494 0
M  V30 15623 C 1421.68 1.73928 -1.12057 0
M  V30 15624 C 1422.1 1.8596 0.32623 0
M  V30 15625 O 1421.45 1.35303 1.22472 0
M  V30 15626 C 1421.51 3.15614 -1.76267 0
M  V30 15627 O 1421.23 3.04177 -3.15291 0
M  V30 15628 C 1422.73 4.09786 -1.69086 0
M  V30 15629 H 1419.95 0.5452 -0.39115 0
M  V30 15630 H 1422.49 1.20556 -1.65186 0
M  V30 15631 H 1420.65 3.65949 -1.27123 0
M  V30 15632 H 1421.06 3.93513 -3.46768 0
M  V30 15633 H 1422.53 5.06835 -2.18683 0
M  V30 15634 H 1423.01 4.34312 -0.653453 0
M  V30 15635 H 1423.62 3.65365 -2.1769 0
M  V30 15636 N 1421.93 1.0643 1.16234 0
M  V30 15637 C 1422.84 0.687446 2.24302 0
M  V30 15638 C 1423.86 -0.297132 1.71444 0
M  V30 15639 O 1425.03 -0.146101 2.00869 0
M  V30 15640 C 1422.1 0.0810973 3.46605 0
M  V30 15641 C 1421.16 1.11772 4.14494 0
M  V30 15642 C 1420.39 0.54021 5.30959 0
M  V30 15643 O 1420.62 -0.646619 5.66723 0
M  V30 15644 O 1419.55 1.28057 5.8812 0
M  V30 15645 H 1423.38 1.58842 2.58849 0
M  V30 15646 H 1420.96 0.836649 1.23776 0
M  V30 15647 H 1422.84 -0.25524 4.20626 0
M  V30 15648 H 1421.52 -0.793338 3.13828 0
M  V30 15649 H 1420.43 1.50626 3.42436 0
M  V30 15650 H 1421.76 1.96373 4.5133 0
M  V30 15651 N 1423.41 -1.329 0.847073 0
M  V30 15652 C 1424.36 -2.29044 0.284199 0
M  V30 15653 C 1425.33 -1.54706 -0.604591 0
M  V30 15654 O 1426.51 -1.82966 -0.541116 0
M  V30 15655 C 1423.65 -3.4104 -0.527822 0
M  V30 15656 C 1422.77 -4.30273 0.385907 0
M  V30 15657 C 1421.9 -5.29391 -0.438009 0
M  V30 15658 C 1420.94 -6.10265 0.473596 0
M  V30 15659 N 1420.08 -7.01403 -0.312684 0
M  V30 15660 H 1424.92 -2.76582 1.10935 0
M  V30 15661 H 1422.45 -1.36085 0.558508 0
M  V30 15662 H 1424.41 -4.04686 -1.01417 0
M  V30 15663 H 1423.04 -2.94673 -1.31787 0
M  V30 15664 H 1422.09 -3.67275 0.99061 0
M  V30 15665 H 1423.41 -4.86837 1.08585 0
M  V30 15666 H 1422.56 -5.98604 -0.987842 0
M  V30 15667 H 1421.3 -4.73424 -1.17135 0
M  V30 15668 H 1420.3 -5.39963 1.03537 0
M  V30 15669 H 1421.53 -6.68316 1.20543 0
M  V30 15670 H 1419.47 -6.47875 -1.02926 0
M  V30 15671 H 1419.39 -7.55286 0.328376 0
M  V30 15672 H 1420.66 -7.74912 -0.844489 0
M  V30 15673 N 1424.89 -0.604284 -1.45555 0
M  V30 15674 C 1426.17 -0.0303285 -1.95576 0
M  V30 15675 C 1426.55 1.43661 -1.54676 0
M  V30 15676 O 1425.89 2.13747 -0.807731 0
M  V30 15677 C 1426.1 -0.22497 -3.48274 0
M  V30 15678 C 1427.45 -0.104042 -4.24473 0
M  V30 15679 O 1428.48 -0.154919 -3.55863 0
M  V30 15680 O 1427.33 0.0136297 -5.46498 0
M  V30 15681 H 1424.43 0.0376106 -0.826144 0
M  V30 15682 H 1426.97 -0.674114 -1.55736 0
M  V30 15683 H 1425.75 -1.24391 -3.71002 0
M  V30 15684 H 1425.37 0.454234 -3.94997 0
M  V30 15685 N 1426.37 1.53816 -0.343257 0
M  V30 15686 C 1427.33 2.23654 0.501161 0
M  V30 15687 C 1428.33 1.23664 1.02781 0
M  V30 15688 O 1429.52 1.48104 0.917103 0
M  V30 15689 C 1426.65 2.95596 1.69812 0
M  V30 15690 H 1427.84 2.997 -0.109626 0
M  V30 15691 H 1425.4 1.56013 -0.0946011 0
M  V30 15692 H 1426.13 2.23736 2.34761 0
M  V30 15693 H 1425.92 3.68938 1.32768 0
M  V30 15694 H 1427.41 3.48748 2.29706 0
M  V30 15695 N 1427.84 0.0718701 1.57436 0
M  V30 15696 C 1429.07 -0.606253 1.97819 0
M  V30 15697 C 1429.49 -1.63144 0.950233 0
M  V30 15698 O 1428.84 -1.82391 -0.0631051 0
M  V30 15699 C 1428.9 -1.27476 3.38278 0
M  V30 15700 O 1428.62 -0.290603 4.37135 0
M  V30 15701 C 1430.12 -2.0407 3.93536 0
M  V30 15702 H 1427.34 -0.164305 0.650573 0
M  V30 15703 H 1429.88 0.144295 2.0399 0
M  V30 15704 H 1428.04 -1.97639 3.33193 0
M  V30 15705 H 1428.45 -0.77022 5.18814 0
M  V30 15706 H 1429.92 -2.46237 4.94036 0
M  V30 15707 H 1430.4 -2.89728 3.30083 0
M  V30 15708 H 1431.01 -1.38773 4.02022 0
M  V30 15709 N 1429.32 -1.56304 -0.201686 0
M  V30 15710 C 1430.57 -1.79433 -0.921241 0
M  V30 15711 C 1430.88 -0.643943 -1.84696 0
M  V30 15712 O 1432.09 -0.759359 -2.60665 0
M  V30 15713 C 1430.55 -3.17835 -1.68846 0
M  V30 15714 C 1430.15 -4.40655 -0.807892 0
M  V30 15715 C 1431.9 -3.50277 -2.39805 0
M  V30 15716 C 1429.81 -5.7008 -1.5736 0
M  V30 15717 H 1428.74 -0.669029 -0.34773 0
M  V30 15718 H 1431.39 -1.82667 -0.174657 0
M  V30 15719 H 1429.77 -3.08832 -2.47869 0
M  V30 15720 H 1430.94 -4.60765 -0.0567923 0
M  V30 15721 H 1429.26 -4.15873 -0.209465 0
M  V30 15722 H 1431.85 -4.44207 -2.97631 0
M  V30 15723 H 1432.2 -2.7371 -3.1367 0
M  V30 15724 H 1432.73 -3.60698 -1.67754 0
M  V30 15725 H 1429.47 -6.49595 -0.877855 0
M  V30 15726 H 1428.99 -5.53999 -2.2988 0
M  V30 15727 H 1430.67 -6.10964 -2.12912 0
M  V30 15728 N 1430.8 0.469154 -1.50455 0
M  V30 15729 C 1431.76 1.5493 -1.68906 0
M  V30 15730 C 1432.76 1.50744 -0.559721 0
M  V30 15731 O 1433.95 1.5333 -0.826781 0
M  V30 15732 C 1431.09 2.94556 -1.71609 0
M  V30 15733 H 1432.28 1.39887 -2.65276 0
M  V30 15734 H 1429.83 0.695667 -1.39965 0
M  V30 15735 H 1430.57 3.15041 -0.769382 0
M  V30 15736 H 1430.35 2.99002 -2.53654 0
M  V30 15737 H 1431.84 3.72973 -1.87831 0
M  V30 15738 N 1432.28 1.40065 0.722464 0
M  V30 15739 C 1433.5 1.4146 1.5167 0
M  V30 15740 C 1433.93 0.0142653 1.88095 0
M  V30 15741 O 1433.29 -0.975934 1.52791 0
M  V30 15742 C 1433.33 2.30531 2.77287 0
M  V30 15743 O 1432.44 1.74382 3.73717 0
M  V30 15744 H 1431.78 0.481194 0.457546 0
M  V30 15745 H 1434.31 1.84213 0.890331 0
M  V30 15746 H 1434.32 2.45479 3.25889 0
M  V30 15747 H 1432.99 3.32292 2.50109 0
M  V30 15748 H 1431.57 1.68743 3.32536 0
M  V30 15749 N 1433.76 -0.95397 1.25448 0
M  V30 15750 C 1434.69 -2.06828 1.08372 0
M  V30 15751 C 1435.67 -1.70098 -0.00741585 0
M  V30 15752 O 1436.85 -1.93521 0.16224 0
M  V30 15753 C 1433.98 -3.40124 0.702365 0
M  V30 15754 C 1432.94 -3.90865 1.74381 0
M  V30 15755 C 1432.26 -5.20663 1.21712 0
M  V30 15756 C 1433.56 -4.17169 3.14273 0
M  V30 15757 H 1435.26 -2.21372 2.01581 0
M  V30 15758 H 1432.8 -1.06374 0.970592 0
M  V30 15759 H 1434.76 -4.17529 0.569837 0
M  V30 15760 H 1433.48 -3.2552 -0.265428 0
M  V30 15761 H 1432.14 -3.15628 1.86479 0
M  V30 15762 H 1431.79 -5.02429 0.23954 0
M  V30 15763 H 1431.49 -5.55581 1.91319 0
M  V30 15764 H 1433.01 -6.00665 1.097 0
M  V30 15765 H 1434.43 -4.85231 3.05325 0
M  V30 15766 H 1432.82 -4.63344 3.81356 0
M  V30 15767 H 1433.89 -3.23421 3.61285 0
M  V30 15768 N 1435.24 -1.07045 -1.15668 0
M  V30 15769 C 1436.15 -0.699332 -2.23934 0
M  V30 15770 C 1437.16 0.288036 -1.71599 0
M  V30 15771 O 1438.34 0.135447 -2.00944 0
M  V30 15772 C 1435.4 -0.0994775 -3.46557 0
M  V30 15773 C 1434.46 -1.13968 -4.13896 0
M  V30 15774 C 1433.7 -0.56836 -5.30665 0
M  V30 15775 O 1433.92 0.616556 -5.67058 0
M  V30 15776 O 1432.85 -1.31174 -5.87432 0
M  V30 15777 H 1436.68 -1.60212 -2.58003 0
M  V30 15778 H 1434.26 -0.843202 -1.23331 0
M  V30 15779 H 1436.15 0.23293 -4.20756 0
M  V30 15780 H 1434.82 0.776684 -3.14244 0
M  V30 15781 H 1433.73 -1.5244 -3.41633 0
M  V30 15782 H 1435.06 -1.98764 -4.50282 0
M  V30 15783 N 1436.71 1.32449 -0.85411 0
M  V30 15784 C 1437.62 2.32658 -0.301221 0
M  V30 15785 C 1438.64 1.64025 0.580673 0
M  V30 15786 O 1439.82 1.95568 0.481172 0
M  V30 15787 C 1436.88 3.43049 0.501803 0
M  V30 15788 C 1435.94 4.27374 -0.406166 0
M  V30 15789 C 1435.17 5.32494 0.358627 0
M  V30 15790 O 1435.4 5.4783 1.58865 0
M  V30 15791 O 1434.33 6.0127 -0.275291 0
M  V30 15792 H 1438.16 2.81838 -1.13143 0
M  V30 15793 H 1435.74 1.36063 -0.617032 0
M  V30 15794 H 1437.62 4.10375 0.957608 0
M  V30 15795 H 1436.3 2.9606 1.30882 0
M  V30 15796 H 1435.21 3.6286 -0.910136 0
M  V30 15797 H 1436.54 4.77887 -1.17835 0
M  V30 15798 N 1438.19 0.611994 1.45232 0
M  V30 15799 C 1439.42 0.115409 2.06578 0
M  V30 15800 C 1439.83 -1.20206 1.45588 0
M  V30 15801 O 1439.19 -1.73315 0.571668 0
M  V30 15802 C 1439.24 -0.0259943 3.61491 0
M  V30 15803 O 1438.96 1.23936 4.20204 0
M  V30 15804 C 1440.46 -0.553522 4.39831 0
M  V30 15805 H 1437.68 0.0708656 0.667247 0
M  V30 15806 H 1440.23 0.840977 1.86408 0
M  V30 15807 H 1438.38 -0.701909 3.80988 0
M  V30 15808 H 1438.8 1.07187 5.13431 0
M  V30 15809 H 1440.27 -0.601536 5.48713 0
M  V30 15810 H 1440.75 -1.57671 4.09923 0
M  V30 15811 H 1441.35 0.0884954 4.25208 0
M  V30 15812 N 1439.67 -1.53632 0.351409 0
M  V30 15813 C 1440.62 -2.26782 -0.516983 0
M  V30 15814 C 1441.61 -1.29222 -1.09536 0
M  V30 15815 O 1442.82 -1.46901 -1.04019 0
M  V30 15816 H 1439.19 -0.728783 -0.185417 0
M  V30 15817 H 1441.16 -2.98151 0.121909 0
M  V30 15818 C 1439.91 -3.05943 -1.6521 0
M  V30 15819 H 1439.24 -3.80848 -1.21633 0
M  V30 15820 H 1440.68 -3.60328 -2.23472 0
M  V30 15821 C 1439.13 -2.15917 -2.58614 0
M  V30 15822 O 1439.66 -1.76049 -3.61067 0
M  V30 15823 N 1437.87 -1.80837 -2.27478 0
M  V30 15824 H 1437.42 -2.13456 -1.44202 0
M  V30 15825 H 1437.38 -1.20886 -2.90231 0
M  V30 15826 N 1441.15 -0.0802183 -1.57396 0
M  V30 15827 C 1442.56 0.276428 -1.57188 0
M  V30 15828 C 1442.76 1.69456 -1.09027 0
M  V30 15829 O 1441.82 2.40792 -0.75997 0
M  V30 15830 C 1443.13 0.0784079 -3.00598 0
M  V30 15831 C 1444.68 0.1473 -3.12653 0
M  V30 15832 C 1445.16 -0.0225423 -4.57994 0
M  V30 15833 N 1446.65 0.0327854 -4.63188 0
M  V30 15834 C 1447.38 -0.0740922 -5.73352 0
M  V30 15835 N 1446.88 -0.234966 -6.92401 0
M  V30 15836 N 1448.67 -0.0164241 -5.62098 0
M  V30 15837 H 1440.82 -1.00695 -1.87014 0
M  V30 15838 H 1443.08 -0.393402 -0.862519 0
M  V30 15839 H 1442.79 -0.900488 -3.39977 0
M  V30 15840 H 1442.66 0.82713 -3.6802 0
M  V30 15841 H 1445.05 1.11669 -2.73156 0
M  V30 15842 H 1445.13 -0.632666 -2.47853 0
M  V30 15843 H 1444.78 -0.988733 -4.98183 0
M  V30 15844 H 1444.71 0.776933 -5.20837 0
M  V30 15845 H 1447.2 0.15519 -3.77581 0
M  V30 15846 H 1447.51 -0.308435 -7.72184 0
M  V30 15847 H 1445.86 -0.270439 -6.94474 0
M  V30 15848 H 1449.05 0.108019 -4.67975 0
M  V30 15849 H 1449.22 -0.10317 -6.47918 0
M  V30 15850 N 1442.63 1.56409 0.193394 0
M  V30 15851 C 1443.85 1.84837 0.929676 0
M  V30 15852 C 1444.27 0.662928 1.76779 0
M  V30 15853 O 1443.63 -0.368339 1.78744 0
M  V30 15854 C 1443.68 3.12083 1.82445 0
M  V30 15855 O 1443.4 4.26056 1.02018 0
M  V30 15856 C 1444.9 3.53701 2.67227 0
M  V30 15857 H 1442.12 0.613766 0.271168 0
M  V30 15858 H 1444.66 2.03518 0.200134 0
M  V30 15859 H 1442.82 2.95294 2.5076 0
M  V30 15860 H 1443.23 4.98526 1.63008 0
M  V30 15861 H 1444.71 4.45699 3.25663 0
M  V30 15862 H 1445.18 2.76771 3.41019 0
M  V30 15863 H 1445.79 3.73027 2.04281 0
M  V30 15864 N 1444.1 -0.461169 1.50702 0
M  V30 15865 C 1445.03 -1.56576 1.73223 0
M  V30 15866 C 1446.01 -1.59855 0.581401 0
M  V30 15867 O 1447.2 -1.75964 0.821602 0
M  V30 15868 C 1444.33 -2.94835 1.83548 0
M  V30 15869 C 1443.28 -3.06421 2.98815 0
M  V30 15870 C 1442.61 -4.46425 2.94293 0
M  V30 15871 C 1443.91 -2.82714 4.3917 0
M  V30 15872 H 1445.6 -1.37982 2.65709 0
M  V30 15873 H 1443.15 -0.662362 1.27862 0
M  V30 15874 H 1445.1 -3.72047 1.97887 0
M  V30 15875 H 1443.83 -3.14608 0.876906 0
M  V30 15876 H 1442.49 -2.31644 2.84142 0
M  V30 15877 H 1442.13 -4.63131 1.96262 0
M  V30 15878 H 1441.83 -4.55111 3.71682 0
M  V30 15879 H 1443.36 -5.25644 3.10695 0
M  V30 15880 H 1444.77 -3.4967 4.54317 0
M  V30 15881 H 1443.17 -3.02835 5.18084 0
M  V30 15882 H 1444.24 -1.78492 4.50853 0
M  V30 15883 N 1445.58 -1.40446 -0.715026 0
M  V30 15884 C 1446.81 -1.4207 -1.50412 0
M  V30 15885 C 1447.22 -0.0205547 -1.88789 0
M  V30 15886 O 1446.58 0.955635 -1.55479 0
M  V30 15887 C 1446.63 -2.3119 -2.77909 0
M  V30 15888 O 1446.35 -3.65754 -2.41154 0
M  V30 15889 C 1447.85 -2.41412 -3.718 0
M  V30 15890 H 1445.07 -0.484554 -0.464164 0
M  V30 15891 H 1447.62 -1.84504 -0.881964 0
M  V30 15892 H 1445.77 -1.92117 -3.36407 0
M  V30 15893 H 1446.19 -4.13091 -3.23197 0
M  V30 15894 H 1447.66 -3.07976 -4.58099 0
M  V30 15895 H 1448.14 -1.43934 -4.14945 0
M  V30 15896 H 1448.74 -2.81039 -3.19213 0
M  V30 15897 N 1447.06 0.947303 -1.25952 0
M  V30 15898 C 1448.28 1.73261 -1.13997 0
M  V30 15899 C 1448.71 1.85666 0.301639 0
M  V30 15900 O 1448.07 1.34244 1.21854 0
M  V30 15901 C 1448.12 3.12046 -1.8072 0
M  V30 15902 O 1447.22 3.97684 -1.09182 0
M  V30 15903 H 1446.56 0.53182 -0.397572 0
M  V30 15904 H 1449.09 1.18689 -1.66656 0
M  V30 15905 H 1449.1 3.62468 -1.87299 0
M  V30 15906 H 1447.78 3.02334 -2.856 0
M  V30 15907 H 1446.35 3.56141 -1.10536 0
M  V30 15908 N 1448.54 1.07657 1.15099 0
M  V30 15909 C 1449.82 0.714608 1.82079 0
M  V30 15910 C 1450.2 -0.802578 1.95248 0
M  V30 15911 O 1449.54 -1.71818 1.50634 0
M  V30 15912 C 1449.75 1.43264 3.1824 0
M  V30 15913 C 1451.1 1.58675 3.93837 0
M  V30 15914 O 1452.13 1.39367 3.27804 0
M  V30 15915 O 1450.98 1.9047 5.12234 0
M  V30 15916 H 1448.08 0.254645 0.786819 0
M  V30 15917 H 1450.62 1.17768 1.22183 0
M  V30 15918 H 1449.4 2.46655 3.03772 0
M  V30 15919 H 1449.02 0.960546 3.85823 0
M  V30 15920 N 1450.02 -1.31994 0.861122 0
M  V30 15921 C 1451.26 -1.97317 0.468371 0
M  V30 15922 C 1451.6 -1.67954 -0.974941 0
M  V30 15923 O 1450.87 -0.971243 -1.68514 0
M  V30 15924 C 1451.15 -3.52918 0.715607 0
M  V30 15925 C 1451.01 -3.91888 2.20781 0
M  V30 15926 C 1452.33 -4.39747 0.17624 0
M  V30 15927 H 1449.44 -0.716733 0.171646 0
M  V30 15928 H 1452.09 -1.56269 1.08074 0
M  V30 15929 H 1450.24 -3.88013 0.194387 0
M  V30 15930 H 1451.91 -3.66938 2.7956 0
M  V30 15931 H 1450.15 -3.40813 2.68382 0
M  V30 15932 H 1450.82 -5.00346 2.33147 0
M  V30 15933 H 1453.3 -4.11424 0.622043 0
M  V30 15934 H 1452.17 -5.47592 0.378748 0
M  V30 15935 H 1452.44 -4.32393 -0.921358 0
M  V30 15936 N 1451.49 -0.619688 -1.44906 0
M  V30 15937 C 1452.46 0.0822364 -2.29052 0
M  V30 15938 C 1453.46 0.783427 -1.40425 0
M  V30 15939 O 1454.65 0.629751 -1.62419 0
M  V30 15940 C 1451.78 1.12685 -3.21737 0
M  V30 15941 H 1452.97 -0.657726 -2.92599 0
M  V30 15942 H 1450.53 -0.379286 -1.51628 0
M  V30 15943 H 1451.26 1.89717 -2.63017 0
M  V30 15944 H 1451.05 0.628122 -3.87036 0
M  V30 15945 H 1452.54 1.61808 -3.84978 0
M  V30 15946 N 1452.97 1.53444 -0.359552 0
M  V30 15947 C 1453.92 2.27053 0.504949 0
M  V30 15948 C 1454.91 1.29801 1.08849 0
M  V30 15949 O 1456.12 1.47451 1.03239 0
M  V30 15950 H 1452.5 0.729756 0.181549 0
M  V30 15951 H 1454.47 2.98082 -0.137719 0
M  V30 15952 C 1453.22 3.06815 1.63585 0
M  V30 15953 H 1452.54 3.81488 1.19611 0
M  V30 15954 H 1453.98 3.61508 2.21558 0
M  V30 15955 C 1452.44 2.17286 2.57466 0
M  V30 15956 O 1452.97 1.77961 3.60129 0
M  V30 15957 N 1451.17 1.82041 2.26516 0
M  V30 15958 H 1450.72 2.14218 1.43068 0
M  V30 15959 H 1450.68 1.22423 2.89586 0
M  V30 15960 N 1454.45 0.0885642 1.57351 0
M  V30 15961 C 1455.38 -0.869946 2.16689 0
M  V30 15962 C 1456.36 -1.29878 1.09844 0
M  V30 15963 O 1457.55 -1.36684 1.37954 0
M  V30 15964 C 1454.68 -2.13148 2.74199 0
M  V30 15965 C 1453.63 -1.84149 3.86359 0
M  V30 15966 C 1452.96 -3.17075 4.30543 0
M  V30 15967 C 1454.26 -1.13357 5.09851 0
M  V30 15968 H 1455.95 -0.375578 2.97035 0
M  V30 15969 H 1453.5 -0.17921 1.42881 0
M  V30 15970 H 1455.45 -2.80634 3.14361 0
M  V30 15971 H 1454.17 -2.64856 1.91098 0
M  V30 15972 H 1452.83 -1.19063 3.46727 0
M  V30 15973 H 1452.48 -3.66658 3.44342 0
M  V30 15974 H 1452.18 -2.98457 5.06159 0
M  V30 15975 H 1453.7 -3.85731 4.73333 0
M  V30 15976 H 1455.12 -1.70941 5.47222 0
M  V30 15977 H 1453.52 -1.0494 5.90853 0
M  V30 15978 H 1454.59 -0.115273 4.84763 0
M  V30 15979 N 1455.93 -1.56509 -0.185096 0
M  V30 15980 C 1456.89 -1.94468 -1.21305 0
M  V30 15981 C 1457.89 -0.826838 -1.37913 0
M  V30 15982 O 1459.08 -1.09411 -1.35554 0
M  V30 15983 C 1456.21 -2.22747 -2.58063 0
M  V30 15984 H 1457.41 -2.86442 -0.888323 0
M  V30 15985 H 1454.96 -1.50354 -0.427012 0
M  V30 15986 H 1455.69 -1.33443 -2.95573 0
M  V30 15987 H 1455.48 -3.04215 -2.47378 0
M  V30 15988 H 1456.97 -2.53084 -3.32172 0
M  V30 15989 N 1457.41 0.45317 -1.50944 0
M  V30 15990 C 1458.35 1.56953 -1.71664 0
M  V30 15991 C 1459.35 1.59064 -0.582673 0
M  V30 15992 O 1460.55 1.62998 -0.763651 0
M  V30 15993 H 1456.93 0.521147 -0.542135 0
M  V30 15994 H 1458.9 1.36645 -2.65275 0
M  V30 15995 C 1457.65 2.9475 -1.84438 0
M  V30 15996 H 1456.97 2.93852 -2.71093 0
M  V30 15997 H 1458.41 3.72271 -2.02954 0
M  V30 15998 C 1456.87 3.31509 -0.600281 0
M  V30 15999 O 1457.4 4.00906 0.252366 0
M  V30 16000 N 1455.61 2.8711 -0.449014 0
M  V30 16001 H 1455.15 2.30808 -1.14392 0
M  V30 16002 H 1455.11 3.12068 0.382199 0
M  V30 16003 N 1458.88 1.40823 0.707568 0
M  V30 16004 C 1459.79 1.44058 1.85161 0
M  V30 16005 C 1460.81 0.332357 1.70796 0
M  V30 16006 O 1461.99 0.578205 1.92922 0
M  V30 16007 C 1459.05 1.3091 3.21035 0
M  V30 16008 C 1458.11 2.51944 3.47595 0
M  V30 16009 C 1457.35 2.39414 4.76987 0
M  V30 16010 O 1457.57 1.41224 5.52641 0
M  V30 16011 O 1456.5 3.28944 5.04063 0
M  V30 16012 H 1460.33 2.40551 1.85388 0
M  V30 16013 H 1457.91 1.22232 0.859052 0
M  V30 16014 H 1459.8 1.25816 4.02179 0
M  V30 16015 H 1458.47 0.375263 3.21517 0
M  V30 16016 H 1457.38 2.62615 2.66428 0
M  V30 16017 H 1458.71 3.44115 3.51917 0
M  V30 16018 N 1460.36 -0.94061 1.26453 0
M  V30 16019 C 1461.31 -2.03941 1.08059 0
M  V30 16020 C 1462.28 -1.66094 -0.0145388 0
M  V30 16021 O 1463.46 -1.90246 0.145338 0
M  V30 16022 C 1460.6 -3.37501 0.720228 0
M  V30 16023 C 1459.72 -3.88381 1.89167 0
M  V30 16024 C 1458.85 -5.10329 1.47437 0
M  V30 16025 C 1457.89 -5.53473 2.61408 0
M  V30 16026 N 1457.03 -6.66624 2.20355 0
M  V30 16027 H 1461.87 -2.19006 2.0209 0
M  V30 16028 H 1459.41 -1.07305 1.00618 0
M  V30 16029 H 1461.36 -4.14287 0.492177 0
M  V30 16030 H 1459.99 -3.2228 -0.183101 0
M  V30 16031 H 1459.05 -3.0799 2.23264 0
M  V30 16032 H 1460.36 -4.16338 2.74708 0
M  V30 16033 H 1459.51 -5.94577 1.20679 0
M  V30 16034 H 1458.25 -4.8412 0.589873 0
M  V30 16035 H 1457.26 -4.67782 2.88894 0
M  V30 16036 H 1458.48 -5.81684 3.50458 0
M  V30 16037 H 1456.43 -6.42097 1.34341 0
M  V30 16038 H 1456.34 -6.9417 2.99439 0
M  V30 16039 H 1457.61 -7.54245 1.96811 0
M  V30 16040 N 1461.84 -1.08266 -1.14527 0
M  V30 16041 C 1462.75 -0.723043 -2.2318 0
M  V30 16042 C 1463.77 0.269819 -1.71895 0
M  V30 16043 O 1464.94 0.114126 -2.01076 0
M  V30 16044 C 1462.01 -0.136229 -3.46432 0
M  V30 16045 C 1461.07 -1.18352 -4.12664 0
M  V30 16046 C 1460.3 -0.624612 -5.30032 0
M  V30 16047 O 1460.52 0.556377 -5.6768 0
M  V30 16048 O 1459.46 -1.37397 -5.86008 0
M  V30 16049 H 1463.28 -1.6294 -2.56289 0
M  V30 16050 H 1460.87 -0.856235 -1.22429 0
M  V30 16051 H 1462.75 0.18829 -4.20979 0
M  V30 16052 H 1461.43 0.74331 -3.1505 0
M  V30 16053 H 1460.33 -1.56054 -3.39997 0
M  V30 16054 H 1461.67 -2.03528 -4.48148 0
M  V30 16055 N 1463.32 1.31536 -0.86811 0
M  V30 16056 C 1464.23 2.32326 -0.32588 0
M  V30 16057 C 1465.25 1.64632 0.563243 0
M  V30 16058 O 1466.42 1.96067 0.460403 0
M  V30 16059 C 1463.49 3.43562 0.46539 0
M  V30 16060 C 1462.55 4.26919 -0.451472 0
M  V30 16061 C 1461.78 5.32844 0.302129 0
M  V30 16062 O 1462 5.49485 1.53045 0
M  V30 16063 O 1460.94 6.00944 -0.339048 0
M  V30 16064 H 1464.76 2.80622 -1.16126 0
M  V30 16065 H 1462.35 1.35401 -0.631428 0
M  V30 16066 H 1464.23 4.11368 0.914028 0
M  V30 16067 H 1462.91 2.97432 1.27734 0
M  V30 16068 H 1461.81 3.61874 -0.948571 0
M  V30 16069 H 1463.15 4.7661 -1.22897 0
M  V30 16070 N 1464.8 0.627364 1.44575 0
M  V30 16071 C 1465.73 -0.066735 2.33405 0
M  V30 16072 C 1466.71 -0.838666 1.47988 0
M  V30 16073 O 1467.89 -0.805296 1.76716 0
M  V30 16074 C 1465.02 -1.05148 3.31 0
M  V30 16075 C 1463.98 -0.391433 4.26206 0
M  V30 16076 C 1463.3 -1.48581 5.13642 0
M  V30 16077 C 1464.6 0.699942 5.17589 0
M  V30 16078 H 1466.3 0.675029 2.91691 0
M  V30 16079 H 1463.84 0.326066 1.4026 0
M  V30 16080 H 1465.8 -1.54576 3.92026 0
M  V30 16081 H 1464.52 -1.82408 2.70915 0
M  V30 16082 H 1463.18 0.0821694 3.66508 0
M  V30 16083 H 1462.83 -2.2492 4.49911 0
M  V30 16084 H 1462.53 -1.04957 5.7815 0
M  V30 16085 H 1464.05 -1.98198 5.77538 0
M  V30 16086 H 1465.47 0.288911 5.72572 0
M  V30 16087 H 1463.86 1.0591 5.9068 0
M  V30 16088 H 1464.93 1.5686 4.58828 0
M  V30 16089 N 1466.28 -1.53251 0.367684 0
M  V30 16090 C 1467.22 -2.27318 -0.4929 0
M  V30 16091 C 1468.22 -1.30376 -1.08159 0
M  V30 16092 O 1469.42 -1.47996 -1.02455 0
M  V30 16093 H 1465.8 -0.730709 -0.177677 0
M  V30 16094 H 1467.77 -2.98005 0.153525 0
M  V30 16095 C 1466.52 -3.07678 -1.61955 0
M  V30 16096 H 1465.84 -3.82117 -1.17587 0
M  V30 16097 H 1467.28 -3.62678 -2.19638 0
M  V30 16098 C 1465.74 -2.18648 -2.5631 0
M  V30 16099 O 1466.27 -1.79869 -3.5918 0
M  V30 16100 N 1464.48 -1.83239 -2.25548 0
M  V30 16101 H 1464.02 -2.14973 -1.4193 0
M  V30 16102 H 1463.98 -1.23957 -2.88933 0
M  V30 16103 N 1467.75 -0.0969077 -1.57302 0
M  V30 16104 C 1468.7 0.878876 -2.15357 0
M  V30 16105 C 1469.7 1.29091 -1.0969 0
M  V30 16106 O 1470.9 1.26523 -1.28031 0
M  V30 16107 H 1467.28 0.301458 -0.688932 0
M  V30 16108 H 1469.25 0.364542 -2.96165 0
M  V30 16109 C 1468 2.12761 -2.75006 0
M  V30 16110 H 1467.32 1.81944 -3.56 0
M  V30 16111 H 1468.76 2.79092 -3.19193 0
M  V30 16112 C 1467.22 2.90283 -1.70989 0
M  V30 16113 O 1467.75 3.84889 -1.14992 0
M  V30 16114 N 1465.95 2.53857 -1.41439 0
M  V30 16115 H 1465.5 1.76993 -1.87166 0
M  V30 16116 H 1465.46 3.06025 -0.720816 0
M  V30 16117 N 1469.23 1.56605 0.176793 0
M  V30 16118 C 1470.18 1.95985 1.21896 0
M  V30 16119 C 1471.15 0.822983 1.44278 0
M  V30 16120 O 1472.33 1.08266 1.57109 0
M  V30 16121 C 1469.47 2.32029 2.55454 0
M  V30 16122 C 1468.59 3.58867 2.40497 0
M  V30 16123 C 1467.72 3.84148 3.66884 0
M  V30 16124 C 1466.76 5.04352 3.46837 0
M  V30 16125 N 1465.9 5.25794 4.6528 0
M  V30 16126 H 1470.74 2.84829 0.876137 0
M  V30 16127 H 1468.27 1.4094 0.421221 0
M  V30 16128 H 1470.23 2.50947 3.33289 0
M  V30 16129 H 1468.86 1.46301 2.87743 0
M  V30 16130 H 1467.91 3.47893 1.53866 0
M  V30 16131 H 1469.23 4.46859 2.21627 0
M  V30 16132 H 1468.38 4.03404 4.53155 0
M  V30 16133 H 1467.12 2.9452 3.88727 0
M  V30 16134 H 1466.12 4.84999 2.58952 0
M  V30 16135 H 1467.35 5.95505 3.26421 0
M  V30 16136 H 1465.3 4.39117 4.87352 0
M  V30 16137 H 1465.21 6.07999 4.49303 0
M  V30 16138 H 1466.48 5.49524 5.5285 0
M  V30 16139 N 1470.71 -0.445159 1.51182 0
M  V30 16140 C 1471.64 -1.5473 1.74874 0
M  V30 16141 C 1472.62 -1.5923 0.598323 0
M  V30 16142 O 1473.81 -1.75083 0.840219 0
M  V30 16143 C 1470.94 -2.92872 1.86664 0
M  V30 16144 C 1469.89 -3.03235 3.02048 0
M  V30 16145 C 1469.22 -4.43279 2.99012 0
M  V30 16146 C 1470.52 -2.7804 4.42144 0
M  V30 16147 H 1472.21 -1.35156 2.67158 0
M  V30 16148 H 1469.76 -0.648763 1.28558 0
M  V30 16149 H 1471.71 -3.69927 2.01822 0
M  V30 16150 H 1470.43 -3.1366 0.910225 0
M  V30 16151 H 1469.09 -2.28617 2.86583 0
M  V30 16152 H 1468.74 -4.61023 2.01163 0
M  V30 16153 H 1468.44 -4.51144 3.76488 0
M  V30 16154 H 1469.96 -5.22319 3.16252 0
M  V30 16155 H 1471.38 -3.44831 4.58 0
M  V30 16156 H 1469.77 -2.97323 5.21267 0
M  V30 16157 H 1470.84 -1.737 4.52721 0
M  V30 16158 N 1472.19 -1.41197 -0.700089 0
M  V30 16159 C 1473.13 -1.42688 -1.81407 0
M  V30 16160 C 1474.1 -0.28182 -1.63692 0
M  V30 16161 O 1475.29 -0.482196 -1.84606 0
M  V30 16162 C 1472.43 -1.31041 -3.19252 0
M  V30 16163 C 1471.54 -2.5538 -3.48432 0
M  V30 16164 C 1470.68 -2.3606 -4.75867 0
M  V30 16165 C 1469.72 -3.55898 -4.97999 0
M  V30 16166 N 1468.85 -3.35676 -6.16657 0
M  V30 16167 H 1473.69 -2.37898 -1.79467 0
M  V30 16168 H 1471.23 -1.18137 -0.87647 0
M  V30 16169 H 1473.19 -1.22292 -3.98874 0
M  V30 16170 H 1471.82 -0.394422 -3.20381 0
M  V30 16171 H 1470.87 -2.74598 -2.6325 0
M  V30 16172 H 1472.18 -3.44535 -3.6069 0
M  V30 16173 H 1471.34 -2.24752 -5.63535 0
M  V30 16174 H 1470.08 -1.44355 -4.65846 0
M  V30 16175 H 1469.08 -3.67665 -4.08781 0
M  V30 16176 H 1470.31 -4.4855 -5.09882 0
M  V30 16177 H 1468.25 -2.46667 -6.07858 0
M  V30 16178 H 1468.17 -4.18404 -6.29662 0
M  V30 16179 H 1469.44 -3.28132 -7.07071 0
M  V30 16180 N 1473.67 0.933891 -1.2695 0
M  V30 16181 C 1474.94 1.65874 -1.0366 0
M  V30 16182 C 1475.32 2.0666 0.43066 0
M  V30 16183 O 1474.67 1.79606 1.41259 0
M  V30 16184 C 1474.88 2.86546 -1.99229 0
M  V30 16185 C 1476.23 3.58031 -2.28251 0
M  V30 16186 O 1477.25 2.96663 -1.97154 0
M  V30 16187 O 1476.11 4.68583 -2.81233 0
M  V30 16188 H 1473.21 0.72673 -0.394706 0
M  V30 16189 H 1475.75 0.984975 -1.38189 0
M  V30 16190 H 1474.52 2.53351 -2.9821 0
M  V30 16191 H 1474.15 3.61645 -1.65224 0
M  V30 16192 N 1475.14 1.08871 1.13951 0
M  V30 16193 C 1476.39 0.822504 1.85372 0
M  V30 16194 C 1476.72 -0.650183 1.82993 0
M  V30 16195 O 1476 -1.4783 1.26398 0
M  V30 16196 C 1476.28 1.35107 3.33793 0
M  V30 16197 C 1476.13 2.88945 3.44719 0
M  V30 16198 C 1477.45 0.980203 4.29045 0
M  V30 16199 H 1474.57 0.300255 0.673065 0
M  V30 16200 H 1477.21 1.34914 1.33784 0
M  V30 16201 H 1475.36 0.903108 3.77857 0
M  V30 16202 H 1477.04 3.42148 3.09407 0
M  V30 16203 H 1475.28 3.26365 2.85777 0
M  V30 16204 H 1475.95 3.21004 4.49066 0
M  V30 16205 H 1478.43 1.36646 3.93023 0
M  V30 16206 H 1477.3 1.37717 5.31343 0
M  V30 16207 H 1477.56 -0.112253 4.41957 0
M  V30 16208 N 1476.62 -1.31073 0.875073 0
M  V30 16209 C 1477.55 -2.27335 0.291809 0
M  V30 16210 C 1478.57 -1.53298 -0.548036 0
M  V30 16211 O 1479.76 -1.7464 -0.369198 0
M  V30 16212 C 1476.86 -3.33465 -0.604521 0
M  V30 16213 C 1476.03 -4.36924 0.204029 0
M  V30 16214 C 1475.09 -5.2252 -0.621238 0
M  V30 16215 O 1474.11 -5.6918 -0.0474551 0
M  V30 16216 N 1475.32 -5.47397 -1.93227 0
M  V30 16217 H 1478.08 -2.78024 1.11906 0
M  V30 16218 H 1475.64 -1.44149 0.737064 0
M  V30 16219 H 1477.63 -3.87646 -1.16243 0
M  V30 16220 H 1476.2 -2.8278 -1.33244 0
M  V30 16221 H 1475.42 -3.82745 0.943389 0
M  V30 16222 H 1476.71 -5.03112 0.758644 0
M  V30 16223 H 1476.11 -5.11253 -2.4215 0
M  V30 16224 H 1474.67 -6.04493 -2.43785 0
M  V30 16225 N 1478.1 -0.635022 -1.4424 0
M  V30 16226 C 1479.01 0.0686832 -2.34499 0
M  V30 16227 C 1480.03 0.831574 -1.52843 0
M  V30 16228 O 1481.2 0.782954 -1.85558 0
M  V30 16229 C 1478.27 1.03543 -3.30877 0
M  V30 16230 C 1477.33 0.271484 -4.28441 0
M  V30 16231 C 1476.56 1.19218 -5.20214 0
M  V30 16232 O 1476.78 2.43101 -5.16002 0
M  V30 16233 O 1475.72 0.6744 -5.9811 0
M  V30 16234 H 1479.54 -0.673781 -2.96132 0
M  V30 16235 H 1477.13 -0.395211 -1.44078 0
M  V30 16236 H 1479.01 1.59151 -3.90191 0
M  V30 16237 H 1477.69 1.75844 -2.71773 0
M  V30 16238 H 1476.59 -0.327736 -3.72662 0
M  V30 16239 H 1477.93 -0.411584 -4.90476 0
M  V30 16240 N 1479.58 1.53054 -0.375806 0
M  V30 16241 C 1480.51 2.23664 0.500685 0
M  V30 16242 C 1481.52 1.25432 1.03782 0
M  V30 16243 O 1482.71 1.51592 0.942451 0
M  V30 16244 C 1479.81 2.9288 1.70513 0
M  V30 16245 C 1478.99 4.17706 1.29772 0
M  V30 16246 C 1478.04 4.7004 2.36536 0
M  V30 16247 O 1477.07 5.33466 1.98502 0
M  V30 16248 N 1478.27 4.48732 3.68266 0
M  V30 16249 H 1481.04 2.99519 -0.104201 0
M  V30 16250 H 1478.6 1.60641 -0.201488 0
M  V30 16251 H 1480.59 3.24795 2.41433 0
M  V30 16252 H 1479.16 2.20416 2.21665 0
M  V30 16253 H 1478.38 3.91978 0.41795 0
M  V30 16254 H 1479.67 4.98837 1.00197 0
M  V30 16255 H 1479.07 3.98075 4.01936 0
M  V30 16256 H 1477.62 4.85172 4.3526 0
M  V30 16257 N 1481.06 0.105248 1.57248 0
M  V30 16258 C 1481.99 -0.846915 2.176 0
M  V30 16259 C 1482.97 -1.28706 1.11216 0
M  V30 16260 O 1484.15 -1.35213 1.39396 0
M  V30 16261 C 1481.28 -2.10228 2.76445 0
M  V30 16262 C 1480.24 -1.80041 3.8829 0
M  V30 16263 C 1479.56 -3.12491 4.33882 0
M  V30 16264 C 1480.86 -1.07943 5.11024 0
M  V30 16265 H 1482.56 -0.344052 2.97417 0
M  V30 16266 H 1480.1 -0.164045 1.43063 0
M  V30 16267 H 1482.06 -2.77284 3.17319 0
M  V30 16268 H 1480.78 -2.62815 1.93897 0
M  V30 16269 H 1479.44 -1.15379 3.4797 0
M  V30 16270 H 1479.09 -3.62985 3.48211 0
M  V30 16271 H 1478.79 -2.93072 5.09296 0
M  V30 16272 H 1480.31 -3.80688 4.77398 0
M  V30 16273 H 1481.72 -1.65127 5.49004 0
M  V30 16274 H 1480.12 -0.986674 5.91933 0
M  V30 16275 H 1481.19 -0.0638511 4.84858 0
M  V30 16276 N 1482.53 -1.56697 -0.168486 0
M  V30 16277 C 1483.76 -1.86652 -0.904195 0
M  V30 16278 C 1484.18 -0.691906 -1.74912 0
M  V30 16279 O 1483.54 0.358971 -1.77711 0
M  V30 16280 C 1483.59 -3.15043 -1.75442 0
M  V30 16281 O 1482.69 -2.97466 -2.85636 0
M  V30 16282 H 1482.04 -0.613859 -0.253128 0
M  V30 16283 H 1484.57 -2.03927 -0.165773 0
M  V30 16284 H 1484.58 -3.4652 -2.15378 0
M  V30 16285 H 1483.25 -4.00147 -1.13381 0
M  V30 16286 H 1481.83 -2.7735 -2.49262 0
M  V30 16287 N 1484.01 0.437135 -1.51416 0
M  V30 16288 C 1485.43 0.773631 -1.39596 0
M  V30 16289 C 1485.63 1.95737 -0.478463 0
M  V30 16290 O 1484.68 2.52413 0.0662971 0
M  V30 16291 C 1486 1.05381 -2.8163 0
M  V30 16292 C 1487.55 1.15824 -2.90782 0
M  V30 16293 C 1488.02 1.47135 -4.33722 0
M  V30 16294 N 1489.51 1.54059 -4.3683 0
M  V30 16295 C 1490.25 1.79858 -5.44462 0
M  V30 16296 N 1489.74 2.03449 -6.62254 0
M  V30 16297 N 1491.54 1.81642 -5.31942 0
M  V30 16298 H 1483.69 -0.342468 -2.09621 0
M  V30 16299 H 1485.95 -0.0908158 -0.94364 0
M  V30 16300 H 1485.66 0.256708 -3.50762 0
M  V30 16301 H 1485.53 1.98139 -3.20968 0
M  V30 16302 H 1487.92 1.94597 -2.21847 0
M  V30 16303 H 1488 0.209663 -2.54939 0
M  V30 16304 H 1487.64 0.688897 -5.03206 0
M  V30 16305 H 1487.57 2.43199 -4.67078 0
M  V30 16306 H 1490.06 1.3773 -3.51907 0
M  V30 16307 H 1490.38 2.22506 -7.40075 0
M  V30 16308 H 1488.72 2.00771 -6.65369 0
M  V30 16309 H 1491.91 1.62731 -4.38903 0
M  V30 16310 H 1492.08 2.01411 -6.15904 0
M  V30 16311 N 1485.49 1.41566 0.692592 0
M  V30 16312 C 1486.42 1.46423 1.81886 0
M  V30 16313 C 1487.4 0.32258 1.67013 0
M  V30 16314 O 1488.59 0.534437 1.86701 0
M  V30 16315 C 1485.72 1.3486 3.20047 0
M  V30 16316 C 1484.67 2.46867 3.49629 0
M  V30 16317 C 1484 2.20369 4.87177 0
M  V30 16318 C 1485.3 3.89205 3.48306 0
M  V30 16319 H 1486.99 2.40683 1.78079 0
M  V30 16320 H 1484.54 1.15845 0.855334 0
M  V30 16321 H 1486.49 1.36869 3.98553 0
M  V30 16322 H 1485.21 0.370859 3.24488 0
M  V30 16323 H 1483.87 2.44146 2.73475 0
M  V30 16324 H 1483.52 1.20931 4.88247 0
M  V30 16325 H 1483.22 2.95426 5.07934 0
M  V30 16326 H 1484.74 2.24099 5.6799 0
M  V30 16327 H 1486.16 3.93626 4.16811 0
M  V30 16328 H 1484.56 4.63969 3.80595 0
M  V30 16329 H 1485.63 4.17144 2.47222 0
M  V30 16330 N 1486.97 -0.927146 1.27443 0
M  V30 16331 C 1487.92 -2.02783 1.10216 0
M  V30 16332 C 1488.89 -1.661 0.00307842 0
M  V30 16333 O 1490.07 -1.90081 0.165508 0
M  V30 16334 C 1487.21 -3.36718 0.755984 0
M  V30 16335 C 1486.32 -3.86353 1.93276 0
M  V30 16336 C 1485.46 -5.08737 1.52841 0
M  V30 16337 C 1484.5 -5.50669 2.67263 0
M  V30 16338 N 1483.63 -6.6425 2.27413 0
M  V30 16339 H 1488.47 -2.16851 2.04401 0
M  V30 16340 H 1486.01 -1.06232 1.0175 0
M  V30 16341 H 1487.97 -4.13741 0.53609 0
M  V30 16342 H 1486.6 -3.22456 -0.148909 0
M  V30 16343 H 1485.65 -3.05604 2.26518 0
M  V30 16344 H 1486.96 -4.13401 2.79108 0
M  V30 16345 H 1486.12 -5.93263 1.26979 0
M  V30 16346 H 1484.86 -4.83467 0.641187 0
M  V30 16347 H 1483.86 -4.64692 2.93839 0
M  V30 16348 H 1485.09 -5.77934 3.56607 0
M  V30 16349 H 1483.03 -6.40636 1.41143 0
M  V30 16350 H 1482.95 -6.90955 3.06784 0
M  V30 16351 H 1484.22 -7.52115 2.048 0
M  V30 16352 N 1488.45 -1.09474 -1.13372 0
M  V30 16353 C 1489.72 -0.743485 -1.80919 0
M  V30 16354 C 1490.1 0.771414 -1.965 0
M  V30 16355 O 1489.45 1.694 -1.53349 0
M  V30 16356 C 1489.66 -1.48309 -3.1592 0
M  V30 16357 C 1491.01 -1.64921 -3.91263 0
M  V30 16358 O 1492.03 -1.44564 -3.25545 0
M  V30 16359 O 1490.89 -1.98595 -5.09139 0
M  V30 16360 H 1487.99 -0.26713 -0.782669 0
M  V30 16361 H 1490.53 -1.19697 -1.20294 0
M  V30 16362 H 1489.3 -2.51456 -2.99809 0
M  V30 16363 H 1488.93 -1.02181 -3.84246 0
M  V30 16364 N 1489.92 1.30607 -0.882012 0
M  V30 16365 C 1490.83 2.31967 -0.350503 0
M  V30 16366 C 1491.85 1.6522 0.54575 0
M  V30 16367 O 1493.03 1.96544 0.439581 0
M  V30 16368 C 1490.09 3.44037 0.428924 0
M  V30 16369 C 1489.15 4.26417 -0.496727 0
M  V30 16370 C 1488.39 5.33135 0.245597 0
M  V30 16371 O 1488.61 5.51077 1.47209 0
M  V30 16372 O 1487.54 6.00551 -0.402767 0
M  V30 16373 H 1491.37 2.79374 -1.19095 0
M  V30 16374 H 1488.95 1.34723 -0.645754 0
M  V30 16375 H 1490.84 4.12314 0.870346 0
M  V30 16376 H 1489.51 2.9877 1.24573 0
M  V30 16377 H 1488.42 3.60848 -0.986899 0
M  V30 16378 H 1489.75 4.7528 -1.27945 0
M  V30 16379 N 1491.4 0.642663 1.43901 0
M  V30 16380 C 1492.31 -0.0562462 2.34533 0
M  V30 16381 C 1493.33 -0.823457 1.53281 0
M  V30 16382 O 1494.5 -0.773103 1.85971 0
M  V30 16383 C 1491.57 -1.01787 3.31422 0
M  V30 16384 C 1490.63 -0.248759 4.28579 0
M  V30 16385 C 1489.86 -1.16458 5.20839 0
M  V30 16386 O 1490.09 -2.40361 5.17284 0
M  V30 16387 O 1489.02 -0.642671 5.98459 0
M  V30 16388 H 1492.85 0.689476 2.9577 0
M  V30 16389 H 1490.43 0.402847 1.43866 0
M  V30 16390 H 1492.31 -1.5708 3.91029 0
M  V30 16391 H 1490.99 -1.744 2.72702 0
M  V30 16392 H 1489.9 0.347495 3.72483 0
M  V30 16393 H 1491.23 0.437589 4.90251 0
M  V30 16394 N 1492.88 -1.52852 0.383918 0
M  V30 16395 C 1494.13 -2.00694 -0.201206 0
M  V30 16396 C 1494.44 -1.2748 -1.48352 0
M  V30 16397 O 1495.65 -1.66005 -2.14836 0
M  V30 16398 C 1494.11 -3.57567 -0.409117 0
M  V30 16399 C 1493.71 -4.39675 0.859628 0
M  V30 16400 C 1495.46 -4.13713 -0.950899 0
M  V30 16401 C 1493.36 -5.88138 0.620292 0
M  V30 16402 H 1492.29 -0.749854 -0.0789656 0
M  V30 16403 H 1494.95 -1.764 0.505488 0
M  V30 16404 H 1493.33 -3.78088 -1.17753 0
M  V30 16405 H 1494.5 -4.30923 1.63224 0
M  V30 16406 H 1492.82 -3.94724 1.32597 0
M  V30 16407 H 1495.41 -5.22284 -1.14558 0
M  V30 16408 H 1495.76 -3.69463 -1.9184 0
M  V30 16409 H 1496.29 -3.97062 -0.242195 0
M  V30 16410 H 1493.03 -6.367 1.55864 0
M  V30 16411 H 1492.55 -5.99693 -0.113483 0
M  V30 16412 H 1494.23 -6.46506 0.252775 0
M  V30 16413 N 1494.36 -0.113586 -1.5719 0
M  V30 16414 C 1495.58 0.556928 -1.99783 0
M  V30 16415 C 1496.01 1.59774 -0.992669 0
M  V30 16416 O 1495.37 1.81263 0.0363821 0
M  V30 16417 C 1495.42 1.16463 -3.41275 0
M  V30 16418 O 1494.52 2.28024 -3.43626 0
M  V30 16419 H 1493.86 0.139628 -0.649153 0
M  V30 16420 H 1496.39 -0.200462 -2.03616 0
M  V30 16421 H 1496.4 1.50147 -3.79368 0
M  V30 16422 H 1495.08 0.402232 -4.1395 0
M  V30 16423 H 1493.65 1.9582 -3.17347 0
M  V30 16424 N 1495.84 1.56784 0.160173 0
M  V30 16425 C 1496.8 1.96373 1.18195 0
M  V30 16426 C 1497.8 0.848674 1.3658 0
M  V30 16427 O 1498.99 1.11553 1.33796 0
M  V30 16428 C 1496.12 2.26824 2.54487 0
M  V30 16429 H 1497.32 2.87819 0.842641 0
M  V30 16430 H 1494.87 1.51014 0.403038 0
M  V30 16431 H 1495.6 1.38129 2.93413 0
M  V30 16432 H 1495.39 3.08112 2.42507 0
M  V30 16433 H 1496.88 2.58337 3.28104 0
M  V30 16434 N 1497.32 -0.429099 1.51646 0
M  V30 16435 C 1498.28 -1.50398 1.72954 0
M  V30 16436 C 1499.28 -1.49207 0.599491 0
M  V30 16437 O 1500.47 -1.51084 0.867143 0
M  V30 16438 C 1497.6 -2.89903 1.79358 0
M  V30 16439 H 1498.79 -1.32805 2.68892 0
M  V30 16440 H 1496.35 -0.658313 1.4176 0
M  V30 16441 H 1497.08 -3.12891 0.852639 0
M  V30 16442 H 1496.87 -2.92171 2.61492 0
M  V30 16443 H 1498.36 -3.67862 1.97654 0
M  V30 16444 N 1498.79 -1.41931 -0.685074 0
M  V30 16445 C 1499.76 -1.44315 -1.78061 0
M  V30 16446 C 1500.76 -0.332215 -1.57331 0
M  V30 16447 O 1501.95 -0.59258 -1.63811 0
M  V30 16448 C 1499.08 -1.26479 -3.16569 0
M  V30 16449 H 1500.27 -2.4185 -1.77337 0
M  V30 16450 H 1497.82 -1.28228 -0.893721 0
M  V30 16451 H 1498.56 -0.298259 -3.22926 0
M  V30 16452 H 1498.34 -2.06981 -3.33018 0
M  V30 16453 H 1499.83 -1.31006 -3.96519 0
M  V30 16454 N 1500.27 0.920374 -1.27933 0
M  V30 16455 C 1501.52 1.66338 -1.14081 0
M  V30 16456 C 1501.83 1.93107 0.311324 0
M  V30 16457 O 1503.04 2.65431 0.570862 0
M  V30 16458 C 1501.5 2.99624 -1.99383 0
M  V30 16459 C 1501.1 2.80527 -3.49297 0
M  V30 16460 C 1502.85 3.77474 -1.94199 0
M  V30 16461 C 1500.75 4.09413 -4.26773 0
M  V30 16462 H 1499.68 0.623935 -0.423346 0
M  V30 16463 H 1502.34 1.0219 -1.52412 0
M  V30 16464 H 1500.72 3.6487 -1.53902 0
M  V30 16465 H 1501.89 2.24002 -4.02691 0
M  V30 16466 H 1500.21 2.16097 -3.55937 0
M  V30 16467 H 1502.8 4.72997 -2.49356 0
M  V30 16468 H 1503.15 4.06069 -0.917249 0
M  V30 16469 H 1503.68 3.19036 -2.37614 0
M  V30 16470 H 1500.42 3.85994 -5.29801 0
M  V30 16471 H 1499.94 4.65574 -3.78155 0
M  V30 16472 H 1501.62 4.77721 -4.36339 0
M  V30 16473 N 1501.75 1.10074 1.1279 0
M  V30 16474 C 1502.7 0.746173 2.18405 0
M  V30 16475 C 1503.67 -0.275751 1.63795 0
M  V30 16476 O 1504.85 -0.155876 1.90162 0
M  V30 16477 C 1501.99 0.180105 3.4463 0
M  V30 16478 C 1501.1 1.25688 4.13312 0
M  V30 16479 C 1500.24 0.652852 5.27173 0
M  V30 16480 C 1499.28 1.71046 5.87716 0
M  V30 16481 N 1498.42 1.12698 6.92996 0
M  V30 16482 H 1503.26 1.65105 2.48081 0
M  V30 16483 H 1500.79 0.824768 1.21803 0
M  V30 16484 H 1502.75 -0.165948 4.1687 0
M  V30 16485 H 1501.38 -0.688014 3.15383 0
M  V30 16486 H 1500.43 1.72011 3.39288 0
M  V30 16487 H 1501.74 2.05762 4.54382 0
M  V30 16488 H 1500.9 0.25603 6.0616 0
M  V30 16489 H 1499.64 -0.17937 4.8737 0
M  V30 16490 H 1498.64 2.11676 5.07418 0
M  V30 16491 H 1499.87 2.54547 6.29589 0
M  V30 16492 H 1497.81 0.316154 6.55238 0
M  V30 16493 H 1497.73 1.86461 7.32645 0
M  V30 16494 H 1499 0.756582 7.7582 0
M  V30 16495 N 1503.23 -1.30138 0.888926 0
M  V30 16496 C 1504.19 -2.26299 0.363504 0
M  V30 16497 C 1505.19 -1.52951 -0.496244 0
M  V30 16498 O 1506.38 -1.71548 -0.302834 0
M  V30 16499 C 1503.51 -3.37482 -0.481544 0
M  V30 16500 H 1504.71 -2.7429 1.21265 0
M  V30 16501 H 1502.26 -1.41395 0.666124 0
M  V30 16502 H 1502.99 -2.94814 -1.35112 0
M  V30 16503 H 1502.78 -3.9187 0.134344 0
M  V30 16504 H 1504.27 -4.09048 -0.840816 0
M  V30 16505 N 1504.71 -0.650285 -1.43559 0
M  V30 16506 C 1505.64 0.0817484 -2.29054 0
M  V30 16507 C 1506.65 0.790023 -1.42346 0
M  V30 16508 O 1507.84 0.648269 -1.66312 0
M  V30 16509 C 1504.94 1.13873 -3.19196 0
M  V30 16510 C 1504.11 0.509177 -4.34426 0
M  V30 16511 C 1503.17 1.46265 -5.05463 0
M  V30 16512 O 1502.2 0.972378 -5.60833 0
M  V30 16513 N 1503.4 2.79668 -5.08691 0
M  V30 16514 H 1506.16 -0.652062 -2.92521 0
M  V30 16515 H 1503.73 -0.49285 -1.54216 0
M  V30 16516 H 1505.72 1.77732 -3.63584 0
M  V30 16517 H 1504.29 1.77454 -2.5735 0
M  V30 16518 H 1503.51 -0.308444 -3.92991 0
M  V30 16519 H 1504.8 0.0695732 -5.08752 0
M  V30 16520 H 1504.19 3.22062 -4.65072 0
M  V30 16521 H 1502.75 3.38838 -5.56805 0
M  V30 16522 N 1506.18 1.52647 -0.392018 0
M  V30 16523 C 1507.43 2.01613 0.1893 0
M  V30 16524 C 1507.76 1.27837 1.46588 0
M  V30 16525 O 1507.01 0.368018 1.92209 0
M  V30 16526 C 1507.31 3.53872 0.500914 0
M  V30 16527 C 1506.98 4.45675 -0.684434 0
M  V30 16528 C 1505.64 4.70489 -1.00961 0
M  V30 16529 C 1507.99 4.99825 -1.4773 0
M  V30 16530 C 1505.32 5.46703 -2.12915 0
M  V30 16531 C 1507.67 5.77263 -2.58747 0
M  V30 16532 C 1506.34 6.00355 -2.9177 0
M  V30 16533 H 1505.61 0.737755 0.0692697 0
M  V30 16534 H 1508.25 1.84022 -0.529924 0
M  V30 16535 H 1506.56 3.69551 1.3015 0
M  V30 16536 H 1508.26 3.89256 0.963382 0
M  V30 16537 H 1504.85 4.26527 -0.420985 0
M  V30 16538 H 1509.03 4.80577 -1.23932 0
M  V30 16539 H 1504.29 5.62807 -2.38868 0
M  V30 16540 H 1508.46 6.18223 -3.20583 0
M  V30 16541 H 1506.09 6.59194 -3.7864 0
M  V30 16542 N 1507.66 0.121921 1.57128 0
M  V30 16543 C 1508.57 -0.840825 2.19014 0
M  V30 16544 C 1509.59 -1.29051 1.16712 0
M  V30 16545 O 1510.76 -1.35289 1.49194 0
M  V30 16546 C 1507.83 -2.07204 2.7797 0
M  V30 16547 C 1506.89 -1.67399 3.95318 0
M  V30 16548 C 1506.12 -2.84652 4.51452 0
M  V30 16549 O 1506.35 -4.00161 4.06482 0
M  V30 16550 O 1505.28 -2.61568 5.42094 0
M  V30 16551 H 1509.11 -0.344146 3.01744 0
M  V30 16552 H 1506.69 -0.103841 1.49039 0
M  V30 16553 H 1508.57 -2.79307 3.1554 0
M  V30 16554 H 1507.25 -2.55872 1.9827 0
M  V30 16555 H 1506.16 -0.92395 3.62511 0
M  V30 16556 H 1507.49 -1.2347 4.76462 0
M  V30 16557 N 1509.14 -1.56867 -0.151857 0
M  V30 16558 C 1510.09 -1.97899 -1.18763 0
M  V30 16559 C 1511.06 -0.845833 -1.42951 0
M  V30 16560 O 1512.24 -1.10751 -1.55367 0
M  V30 16561 C 1509.38 -2.36063 -2.5173 0
M  V30 16562 C 1508.5 -3.62647 -2.34757 0
M  V30 16563 C 1507.63 -3.89936 -3.60726 0
M  V30 16564 C 1506.67 -5.09806 -3.38769 0
M  V30 16565 N 1505.81 -5.33129 -4.56856 0
M  V30 16566 H 1510.65 -2.86187 -0.830713 0
M  V30 16567 H 1508.18 -1.41592 -0.398745 0
M  V30 16568 H 1510.14 -2.56218 -3.29254 0
M  V30 16569 H 1508.77 -1.50861 -2.85379 0
M  V30 16570 H 1507.82 -3.50297 -1.48312 0
M  V30 16571 H 1509.14 -4.50328 -2.1449 0
M  V30 16572 H 1508.29 -4.10563 -4.4668 0
M  V30 16573 H 1507.03 -3.00668 -3.83993 0
M  V30 16574 H 1506.03 -4.89057 -2.51203 0
M  V30 16575 H 1507.26 -6.00623 -3.16906 0
M  V30 16576 H 1505.2 -4.46815 -4.80305 0
M  V30 16577 H 1505.12 -6.1507 -4.39574 0
M  V30 16578 H 1506.39 -5.5825 -5.44038 0
M  V30 16579 N 1510.62 0.421051 -1.51871 0
M  V30 16580 C 1511.55 1.53094 -1.70572 0
M  V30 16581 C 1512.56 1.5188 -0.586201 0
M  V30 16582 O 1513.75 1.56361 -0.861013 0
M  V30 16583 C 1510.85 2.92002 -1.72011 0
M  V30 16584 C 1510.03 3.17541 -3.0081 0
M  V30 16585 C 1509.08 4.36259 -2.94219 0
M  V30 16586 O 1508.11 4.34118 -3.68144 0
M  V30 16587 N 1509.31 5.40722 -2.11188 0
M  V30 16588 H 1512.08 1.3745 -2.66322 0
M  V30 16589 H 1509.64 0.610204 -1.4996 0
M  V30 16590 H 1511.63 3.6947 -1.65149 0
M  V30 16591 H 1510.2 3.01162 -0.837861 0
M  V30 16592 H 1509.42 2.28225 -3.21414 0
M  V30 16593 H 1510.71 3.3144 -3.86037 0
M  V30 16594 H 1510.11 5.45304 -1.50534 0
M  V30 16595 H 1508.66 6.16979 -2.10192 0
M  V30 16596 N 1512.1 1.42293 0.677538 0
M  V30 16597 C 1513.03 1.48344 1.80323 0
M  V30 16598 C 1514.01 0.340276 1.66662 0
M  V30 16599 O 1515.19 0.554209 1.86124 0
M  V30 16600 C 1512.32 1.38247 3.18599 0
M  V30 16601 C 1511.28 2.50562 3.46991 0
M  V30 16602 C 1510.6 2.25524 4.84812 0
M  V30 16603 C 1511.9 3.92877 3.44158 0
M  V30 16604 H 1513.6 2.42558 1.75516 0
M  V30 16605 H 1511.14 1.16746 0.842999 0
M  V30 16606 H 1513.1 1.41089 3.97079 0
M  V30 16607 H 1511.82 0.405255 3.24076 0
M  V30 16608 H 1510.48 2.47032 2.7087 0
M  V30 16609 H 1510.13 1.26102 4.86937 0
M  V30 16610 H 1509.83 3.00797 5.04772 0
M  V30 16611 H 1511.35 2.3011 5.65581 0
M  V30 16612 H 1512.76 3.98024 4.12613 0
M  V30 16613 H 1511.16 4.6798 3.75653 0
M  V30 16614 H 1512.23 4.19743 2.42783 0
M  V30 16615 N 1513.57 -0.913576 1.28419 0
M  V30 16616 C 1514.5 -2.03275 1.14897 0
M  V30 16617 C 1515.49 -1.70036 0.0467034 0
M  V30 16618 O 1516.67 -1.92907 0.223725 0
M  V30 16619 C 1513.8 -3.37717 0.810217 0
M  V30 16620 C 1512.75 -3.85119 1.86728 0
M  V30 16621 C 1512.08 -5.16527 1.38215 0
M  V30 16622 C 1513.38 -4.06959 3.27386 0
M  V30 16623 H 1515.07 -2.14847 2.08522 0
M  V30 16624 H 1512.62 -1.03233 1.00394 0
M  V30 16625 H 1514.57 -4.15505 0.702382 0
M  V30 16626 H 1513.3 -3.26199 -0.161732 0
M  V30 16627 H 1511.96 -3.09536 1.96426 0
M  V30 16628 H 1511.6 -5.01413 0.399263 0
M  V30 16629 H 1511.3 -5.49213 2.08898 0
M  V30 16630 H 1512.83 -5.96871 1.28754 0
M  V30 16631 H 1514.24 -4.75272 3.20608 0
M  V30 16632 H 1512.64 -4.50977 3.95904 0
M  V30 16633 H 1513.71 -3.11764 3.71391 0
M  V30 16634 N 1515.05 -1.1067 -1.12204 0
M  V30 16635 C 1516.28 -0.872867 -1.87586 0
M  V30 16636 C 1516.7 0.57682 -1.79773 0
M  V30 16637 O 1516.05 1.39782 -1.17334 0
M  V30 16638 C 1516.1 -1.31572 -3.36706 0
M  V30 16639 O 1515.82 -2.70856 -3.44338 0
M  V30 16640 C 1517.33 -1.11613 -4.29019 0
M  V30 16641 H 1514.55 -0.313132 -0.593455 0
M  V30 16642 H 1517.09 -1.47199 -1.4196 0
M  V30 16643 H 1515.24 -0.760212 -3.79868 0
M  V30 16644 H 1515.66 -2.89854 -4.37132 0
M  V30 16645 H 1517.13 -1.4751 -5.31925 0
M  V30 16646 H 1517.61 -0.0549698 -4.39166 0
M  V30 16647 H 1518.22 -1.65822 -3.91642 0
M  V30 16648 N 1516.53 1.29665 -0.895815 0
M  V30 16649 C 1517.44 2.31582 -0.375086 0
M  V30 16650 C 1518.46 1.65789 0.528196 0
M  V30 16651 O 1519.63 1.96999 0.41871 0
M  V30 16652 C 1516.7 3.44472 0.39241 0
M  V30 16653 C 1515.76 4.25866 -0.541926 0
M  V30 16654 C 1514.99 5.33365 0.189037 0
M  V30 16655 O 1515.21 5.52607 1.41355 0
M  V30 16656 O 1514.15 6.0009 -0.466441 0
M  V30 16657 H 1517.97 2.78095 -1.22052 0
M  V30 16658 H 1515.56 1.34031 -0.660007 0
M  V30 16659 H 1517.44 4.13214 0.826565 0
M  V30 16660 H 1516.12 3.00074 1.21397 0
M  V30 16661 H 1515.02 3.59781 -1.02512 0
M  V30 16662 H 1516.36 4.73896 -1.32979 0
M  V30 16663 N 1518.01 0.657889 1.43212 0
M  V30 16664 C 1519.42 0.325876 1.56238 0
M  V30 16665 C 1519.62 -1.16975 1.6407 0
M  V30 16666 O 1518.68 -1.95473 1.59833 0
M  V30 16667 C 1519.99 1.04134 2.82093 0
M  V30 16668 C 1521.54 1.02204 2.95844 0
M  V30 16669 C 1522.02 1.71849 4.24537 0
M  V30 16670 N 1523.51 1.68635 4.31412 0
M  V30 16671 C 1524.24 2.19393 5.29768 0
M  V30 16672 N 1523.74 2.7846 6.34375 0
M  V30 16673 N 1525.53 2.09866 5.21452 0
M  V30 16674 H 1517.68 1.62839 1.36371 0
M  V30 16675 H 1519.95 0.685072 0.655271 0
M  V30 16676 H 1519.65 2.09647 2.82385 0
M  V30 16677 H 1519.53 0.595842 3.72464 0
M  V30 16678 H 1521.91 -0.0247029 2.9509 0
M  V30 16679 H 1521.99 1.50627 2.06749 0
M  V30 16680 H 1521.64 2.76482 4.26052 0
M  V30 16681 H 1521.57 1.20888 5.12536 0
M  V30 16682 H 1524.06 1.25536 3.56439 0
M  V30 16683 H 1524.37 3.14855 7.05752 0
M  V30 16684 H 1522.72 2.82523 6.34985 0
M  V30 16685 H 1525.91 1.63422 4.38647 0
M  V30 16686 H 1526.08 2.49732 5.97945 0
M  V30 16687 N 1519.49 -1.52437 0.400108 0
M  V30 16688 C 1520.71 -2.0613 -0.178364 0
M  V30 16689 C 1521.13 -1.27094 -1.39616 0
M  V30 16690 O 1520.49 -0.320409 -1.79665 0
M  V30 16691 C 1520.54 -3.57478 -0.53777 0
M  V30 16692 O 1520.26 -4.33522 0.631657 0
M  V30 16693 C 1521.76 -4.27556 -1.17094 0
M  V30 16694 H 1518.98 -0.670558 -0.0243619 0
M  V30 16695 H 1521.52 -1.9644 0.568459 0
M  V30 16696 H 1519.68 -3.67205 -1.23449 0
M  V30 16697 H 1520.09 -5.23437 0.333803 0
M  V30 16698 H 1521.57 -5.3466 -1.3727 0
M  V30 16699 H 1522.04 -3.83456 -2.14145 0
M  V30 16700 H 1522.65 -4.22174 -0.514687 0
M  V30 16701 N 1520.96 -0.130252 -1.57061 0
M  V30 16702 C 1521.89 0.812189 -2.18919 0
M  V30 16703 C 1522.88 1.2692 -1.13249 0
M  V30 16704 O 1524.06 1.32978 -1.41529 0
M  V30 16705 C 1521.19 2.05803 -2.79754 0
M  V30 16706 C 1520.14 1.73841 -3.91105 0
M  V30 16707 C 1519.47 3.05549 -4.38799 0
M  V30 16708 C 1520.77 0.997991 -5.12677 0
M  V30 16709 H 1522.46 0.296692 -2.97926 0
M  V30 16710 H 1520.01 0.141265 -1.43305 0
M  V30 16711 H 1521.96 2.72201 -3.21691 0
M  V30 16712 H 1520.69 2.59697 -1.98053 0
M  V30 16713 H 1519.35 1.09828 -3.49762 0
M  V30 16714 H 1518.99 3.57399 -3.53942 0
M  V30 16715 H 1518.69 2.84932 -5.13894 0
M  V30 16716 H 1520.22 3.73045 -4.83394 0
M  V30 16717 H 1521.63 1.56372 -5.51562 0
M  V30 16718 H 1520.03 0.892378 -5.93428 0
M  V30 16719 H 1521.1 -0.0132936 -4.84898 0
M  V30 16720 N 1522.44 1.56945 0.143535 0
M  V30 16721 C 1523.39 1.98526 1.17711 0
M  V30 16722 C 1524.36 0.853402 1.425 0
M  V30 16723 O 1525.55 1.11574 1.54777 0
M  V30 16724 C 1522.69 2.37395 2.50475 0
M  V30 16725 C 1521.8 3.63887 2.32831 0
M  V30 16726 C 1520.93 3.91844 3.58653 0
M  V30 16727 C 1519.97 5.11595 3.36061 0
M  V30 16728 N 1519.11 5.35545 4.54022 0
M  V30 16729 H 1523.95 2.86624 0.815524 0
M  V30 16730 H 1521.49 1.41802 0.391231 0
M  V30 16731 H 1523.44 2.5796 3.27891 0
M  V30 16732 H 1522.07 1.52372 2.84575 0
M  V30 16733 H 1521.13 3.51078 1.46452 0
M  V30 16734 H 1522.44 4.51459 2.12098 0
M  V30 16735 H 1521.59 4.12926 4.44497 0
M  V30 16736 H 1520.33 3.027 3.82393 0
M  V30 16737 H 1519.34 4.90383 2.48606 0
M  V30 16738 H 1520.56 6.02295 3.13716 0
M  V30 16739 H 1518.51 4.49355 4.77929 0
M  V30 16740 H 1518.42 6.17393 4.36305 0
M  V30 16741 H 1519.69 5.61127 5.4107 0
M  V30 16742 N 1523.92 -0.412991 1.52093 0
M  V30 16743 C 1525.15 -1.18212 1.69805 0
M  V30 16744 C 1525.56 -1.84386 0.405844 0
M  V30 16745 O 1524.92 -1.71725 -0.617809 0
M  V30 16746 C 1524.97 -2.24811 2.83094 0
M  V30 16747 O 1524.69 -1.61338 4.0731 0
M  V30 16748 C 1526.19 -3.14633 3.12283 0
M  V30 16749 H 1523.41 -0.355371 0.569168 0
M  V30 16750 H 1525.96 -0.486392 1.98632 0
M  V30 16751 H 1524.11 -2.90058 2.56797 0
M  V30 16752 H 1524.53 -2.31979 4.7041 0
M  V30 16753 H 1526 -3.85511 3.95076 0
M  V30 16754 H 1526.48 -3.76785 2.25677 0
M  V30 16755 H 1527.08 -2.55059 3.40331 0
M  V30 16756 N 1525.4 -1.4265 -0.669982 0
M  V30 16757 C 1526.33 -1.42457 -1.79551 0
M  V30 16758 C 1527.34 -0.322966 -1.59564 0
M  V30 16759 O 1528.53 -0.586359 -1.68594 0
M  V30 16760 C 1525.63 -1.20561 -3.16731 0
M  V30 16761 C 1524.81 -2.43246 -3.63525 0
M  V30 16762 C 1523.87 -2.16823 -4.79452 0
M  V30 16763 O 1522.89 -2.90058 -4.8975 0
M  V30 16764 N 1524.09 -1.17436 -5.68497 0
M  V30 16765 H 1526.86 -2.39474 -1.80201 0
M  V30 16766 H 1524.42 -1.37591 -0.853244 0
M  V30 16767 H 1526.41 -1.00794 -3.91947 0
M  V30 16768 H 1524.98 -0.320497 -3.10953 0
M  V30 16769 H 1524.2 -2.78549 -2.78934 0
M  V30 16770 H 1525.49 -3.24931 -3.91532 0
M  V30 16771 H 1524.89 -0.568736 -5.62834 0
M  V30 16772 H 1523.44 -1.03655 -6.43505 0
M  V30 16773 N 1526.88 0.906753 -1.28902 0
M  V30 16774 C 1527.84 1.99158 -1.1344 0
M  V30 16775 C 1528.84 1.60639 -0.0719551 0
M  V30 16776 O 1530.03 1.71267 -0.318317 0
M  V30 16777 C 1527.16 3.32923 -0.733172 0
M  V30 16778 H 1528.36 2.14305 -2.09794 0
M  V30 16779 H 1525.91 1.09034 -1.11988 0
M  V30 16780 H 1526.64 3.23477 0.230826 0
M  V30 16781 H 1526.43 3.62244 -1.50073 0
M  V30 16782 H 1527.92 4.12544 -0.64784 0
M  V30 16783 N 1528.36 1.11264 1.11616 0
M  V30 16784 C 1529.6 0.861639 1.83585 0
M  V30 16785 C 1529.93 -0.611221 1.8433 0
M  V30 16786 O 1529.21 -1.45116 1.29505 0
M  V30 16787 C 1529.49 1.42157 3.30852 0
M  V30 16788 C 1529.35 2.96192 3.38512 0
M  V30 16789 C 1530.66 1.07099 4.2687 0
M  V30 16790 H 1527.78 0.314464 0.666545 0
M  V30 16791 H 1530.43 1.37722 1.30892 0
M  V30 16792 H 1528.58 0.983054 3.75857 0
M  V30 16793 H 1530.25 3.48634 3.0208 0
M  V30 16794 H 1528.49 3.32353 2.7879 0
M  V30 16795 H 1529.16 3.30457 4.42156 0
M  V30 16796 H 1531.64 1.44952 3.90036 0
M  V30 16797 H 1530.51 1.48957 5.28302 0
M  V30 16798 H 1530.77 -0.018482 4.42096 0
M  V30 16799 N 1529.83 -1.29188 0.902679 0
M  V30 16800 C 1530.78 -2.29597 0.372585 0
M  V30 16801 C 1531.78 -1.609 -0.529858 0
M  V30 16802 O 1532.98 -1.75214 -0.41233 0
M  V30 16803 H 1529.36 -0.745069 0.101864 0
M  V30 16804 H 1531.33 -2.71746 1.23275 0
M  V30 16805 C 1530.08 -3.45594 -0.382128 0
M  V30 16806 H 1529.4 -3.9865 0.303061 0
M  V30 16807 H 1530.84 -4.17879 -0.717852 0
M  V30 16808 C 1529.3 -2.97238 -1.58591 0
M  V30 16809 O 1529.83 -2.98767 -2.68517 0
M  V30 16810 N 1528.03 -2.53032 -1.42909 0
M  V30 16811 H 1527.58 -2.51988 -0.534786 0
M  V30 16812 H 1527.54 -2.21038 -2.23584 0
M  V30 16813 N 1531.31 -0.665475 -1.42861 0
M  V30 16814 C 1532.26 0.0186204 -2.30792 0
M  V30 16815 C 1533.23 0.802249 -1.45441 0
M  V30 16816 O 1534.41 0.776383 -1.7429 0
M  V30 16817 C 1531.55 0.970499 -3.31173 0
M  V30 16818 C 1530.67 0.18168 -4.31618 0
M  V30 16819 C 1529.8 1.12846 -5.19075 0
M  V30 16820 C 1528.84 0.330788 -6.11206 0
M  V30 16821 N 1527.98 1.2298 -6.91246 0
M  V30 16822 H 1532.82 -0.737068 -2.88741 0
M  V30 16823 H 1530.35 -0.375225 -1.42234 0
M  V30 16824 H 1532.31 1.53611 -3.87891 0
M  V30 16825 H 1530.94 1.69292 -2.74845 0
M  V30 16826 H 1529.99 -0.500415 -3.77094 0
M  V30 16827 H 1531.31 -0.438041 -4.96873 0
M  V30 16828 H 1530.46 1.76431 -5.8048 0
M  V30 16829 H 1529.2 1.78208 -4.53975 0
M  V30 16830 H 1528.2 -0.318333 -5.48878 0
M  V30 16831 H 1529.43 -0.318599 -6.78352 0
M  V30 16832 H 1527.38 1.86999 -6.28783 0
M  V30 16833 H 1527.29 0.664933 -7.5307 0
M  V30 16834 H 1528.56 1.85341 -7.57145 0
M  V30 16835 N 1532.79 1.52222 -0.408187 0
M  V30 16836 C 1533.72 2.29892 0.408868 0
M  V30 16837 C 1534.7 1.34063 1.04695 0
M  V30 16838 O 1535.89 1.6297 1.05615 0
M  V30 16839 C 1533.02 3.11964 1.52629 0
M  V30 16840 C 1531.97 4.15833 1.01326 0
M  V30 16841 C 1531.3 4.86244 2.2242 0
M  V30 16842 C 1532.6 5.22256 0.0679573 0
M  V30 16843 H 1534.29 2.98443 -0.23923 0
M  V30 16844 H 1531.84 1.43528 -0.116496 0
M  V30 16845 H 1533.79 3.65067 2.10486 0
M  V30 16846 H 1532.51 2.41181 2.20225 0
M  V30 16847 H 1531.17 3.63739 0.4571 0
M  V30 16848 H 1530.82 4.11991 2.88569 0
M  V30 16849 H 1530.52 5.56461 1.88746 0
M  V30 16850 H 1532.04 5.42159 2.80885 0
M  V30 16851 H 1533.46 5.70604 0.555295 0
M  V30 16852 H 1531.85 5.9983 -0.179934 0
M  V30 16853 H 1532.92 4.76892 -0.877599 0
M  V30 16854 N 1534.27 0.138579 1.5699 0
M  V30 16855 C 1535.23 -0.79013 2.1515 0
M  V30 16856 C 1536.23 -1.1811 1.09117 0
M  V30 16857 O 1537.42 -1.1034 1.34798 0
M  V30 16858 C 1534.55 -2.07109 2.70774 0
M  V30 16859 H 1535.75 -0.284343 2.98549 0
M  V30 16860 H 1533.3 -0.11081 1.55907 0
M  V30 16861 H 1534.03 -2.62074 1.91018 0
M  V30 16862 H 1533.82 -1.80004 3.4834 0
M  V30 16863 H 1535.31 -2.73456 3.15613 0
M  V30 16864 N 1535.75 -1.57019 -0.13521 0
M  V30 16865 C 1536.66 -2.02427 -1.18578 0
M  V30 16866 C 1537.67 -0.941738 -1.46312 0
M  V30 16867 O 1538.85 -1.25208 -1.57749 0
M  V30 16868 C 1535.91 -2.40577 -2.49647 0
M  V30 16869 C 1534.97 -3.62835 -2.29455 0
M  V30 16870 C 1534.21 -3.99156 -3.54274 0
M  V30 16871 O 1534.43 -3.36001 -4.60933 0
M  V30 16872 O 1533.36 -4.92345 -3.46238 0
M  V30 16873 H 1537.19 -2.92131 -0.830237 0
M  V30 16874 H 1534.77 -1.45366 -0.344814 0
M  V30 16875 H 1536.66 -2.65922 -3.269 0
M  V30 16876 H 1535.33 -1.54023 -2.84708 0
M  V30 16877 H 1534.24 -3.42661 -1.50114 0
M  V30 16878 H 1535.57 -4.50043 -1.99305 0
M  V30 16879 N 1537.22 0.404919 -1.52309 0
M  V30 16880 C 1538.47 1.14859 -1.65802 0
M  V30 16881 C 1538.79 1.91546 -0.396174 0
M  V30 16882 O 1539.99 2.68372 -0.410969 0
M  V30 16883 C 1538.45 2.09068 -2.92948 0
M  V30 16884 C 1538.06 1.37878 -4.26255 0
M  V30 16885 C 1539.8 2.83669 -3.15804 0
M  V30 16886 C 1537.71 2.30761 -5.44521 0
M  V30 16887 H 1536.64 0.432463 -0.61765 0
M  V30 16888 H 1539.29 0.412695 -1.78799 0
M  V30 16889 H 1537.67 2.86228 -2.7366 0
M  V30 16890 H 1538.84 0.660543 -4.56041 0
M  V30 16891 H 1537.16 0.753026 -4.09534 0
M  V30 16892 H 1539.76 3.53313 -4.0134 0
M  V30 16893 H 1540.1 3.46855 -2.30212 0
M  V30 16894 H 1540.63 2.13607 -3.35584 0
M  V30 16895 H 1537.37 1.72214 -6.32473 0
M  V30 16896 H 1536.89 3.00546 -5.19069 0
M  V30 16897 H 1538.57 2.91195 -5.77767 0
M  V30 16898 N 1538.7 1.43003 0.662408 0
M  V30 16899 C 1539.64 1.4189 1.78725 0
M  V30 16900 C 1540.61 0.281515 1.60144 0
M  V30 16901 O 1541.8 0.473677 1.82452 0
M  V30 16902 C 1538.92 1.22166 3.159 0
M  V30 16903 C 1537.97 2.39061 3.53203 0
M  V30 16904 S 1538.8 4.01607 3.54221 0
M  V30 16905 C 1539.96 3.84249 4.94068 0
M  V30 16906 H 1540.19 2.37073 1.79398 0
M  V30 16907 H 1537.73 1.29924 0.834214 0
M  V30 16908 H 1539.68 1.11474 3.95074 0
M  V30 16909 H 1538.34 0.285468 3.128 0
M  V30 16910 H 1537.54 2.21041 4.52943 0
M  V30 16911 H 1537.14 2.46331 2.81419 0
M  V30 16912 H 1539.43 3.46006 5.82483 0
M  V30 16913 H 1540.37 4.83709 5.17138 0
M  V30 16914 H 1540.78 3.16879 4.6717 0
M  V30 16915 N 1540.18 -0.899904 1.29381 0
M  V30 16916 C 1541.13 -2.02537 1.14375 0
M  V30 16917 C 1542.12 -1.69296 0.0593904 0
M  V30 16918 O 1543.33 -1.78661 0.219174 0
M  V30 16919 H 1539.7 -0.663844 0.353291 0
M  V30 16920 H 1541.67 -2.12332 2.0966 0
M  V30 16921 C 1540.42 -3.37479 0.836845 0
M  V30 16922 H 1539.75 -3.6356 1.66326 0
M  V30 16923 H 1541.19 -4.16915 0.771873 0
M  V30 16924 C 1539.65 -3.33746 -0.459889 0
M  V30 16925 O 1540.18 -3.73203 -1.48601 0
M  V30 16926 N 1538.38 -2.86845 -0.465657 0
M  V30 16927 H 1537.93 -2.54931 0.369833 0
M  V30 16928 H 1537.89 -2.8473 -1.33327 0
M  V30 16929 N 1541.66 -1.11854 -1.11024 0
M  V30 16930 C 1543.07 -0.853341 -1.34871 0
M  V30 16931 C 1543.27 0.519725 -1.94682 0
M  V30 16932 O 1542.33 1.26966 -2.18256 0
M  V30 16933 C 1543.64 -1.9649 -2.27623 0
M  V30 16934 C 1545.19 -1.99507 -2.41176 0
M  V30 16935 C 1545.67 -3.09879 -3.37253 0
M  V30 16936 N 1547.16 -3.09281 -3.44818 0
M  V30 16937 C 1547.89 -3.91322 -4.19111 0
M  V30 16938 N 1547.39 -4.83337 -4.96344 0
M  V30 16939 N 1549.18 -3.79483 -4.14667 0
M  V30 16940 H 1541.33 -2.00335 -0.70567 0
M  V30 16941 H 1543.6 -0.871431 -0.373245 0
M  V30 16942 H 1543.3 -2.95397 -1.90875 0
M  V30 16943 H 1543.18 -1.86481 -3.27879 0
M  V30 16944 H 1545.56 -1.01223 -2.77196 0
M  V30 16945 H 1545.64 -2.13592 -1.40756 0
M  V30 16946 H 1545.29 -4.08391 -3.01959 0
M  V30 16947 H 1545.22 -2.93033 -4.37537 0
M  V30 16948 H 1547.71 -2.42617 -2.89733 0
M  V30 16949 H 1548.02 -5.42462 -5.50413 0
M  V30 16950 H 1546.37 -4.87356 -4.95489 0
M  V30 16951 H 1549.56 -3.06938 -3.53421 0
M  V30 16952 H 1549.73 -4.43653 -4.72309 0
M  V30 16953 N 1543.14 1.28707 -0.909517 0
M  V30 16954 C 1544.08 2.27427 -0.393155 0
M  V30 16955 C 1545.05 1.57414 0.53009 0
M  V30 16956 O 1546.24 1.85339 0.453205 0
M  V30 16957 C 1543.38 3.4317 0.364507 0
M  V30 16958 C 1542.49 4.27942 -0.590757 0
M  V30 16959 C 1541.63 5.30878 0.184931 0
M  V30 16960 C 1540.67 6.07311 -0.764222 0
M  V30 16961 N 1539.8 7.02096 -0.0223203 0
M  V30 16962 H 1544.64 2.70974 -1.24005 0
M  V30 16963 H 1542.18 1.33265 -0.6228 0
M  V30 16964 H 1544.14 4.09063 0.819937 0
M  V30 16965 H 1542.77 3.00625 1.17578 0
M  V30 16966 H 1541.82 3.62131 -1.16471 0
M  V30 16967 H 1543.13 4.81102 -1.31689 0
M  V30 16968 H 1542.29 6.02635 0.701116 0
M  V30 16969 H 1541.02 4.78474 0.944143 0
M  V30 16970 H 1540.03 5.34408 -1.29182 0
M  V30 16971 H 1541.25 6.61804 -1.52292 0
M  V30 16972 H 1539.2 6.52048 0.718978 0
M  V30 16973 H 1539.12 7.5286 -0.688359 0
M  V30 16974 H 1540.39 7.78059 0.473807 0
M  V30 16975 N 1544.61 0.673042 1.42506 0
M  V30 16976 C 1545.52 -0.00648572 2.34599 0
M  V30 16977 C 1546.54 -0.790758 1.54994 0
M  V30 16978 O 1547.72 -0.733482 1.87569 0
M  V30 16979 C 1544.78 -0.94734 3.33506 0
M  V30 16980 C 1543.84 -0.157795 4.2901 0
M  V30 16981 C 1543.08 -1.05384 5.23192 0
M  V30 16982 O 1543.3 -2.29334 5.22266 0
M  V30 16983 O 1542.23 -0.515584 5.99688 0
M  V30 16984 H 1546.06 0.752059 2.94241 0
M  V30 16985 H 1543.64 0.433272 1.42979 0
M  V30 16986 H 1545.53 -1.4875 3.94273 0
M  V30 16987 H 1544.2 -1.68577 2.7634 0
M  V30 16988 H 1543.11 0.426426 3.71662 0
M  V30 16989 H 1544.44 0.54148 4.89212 0
M  V30 16990 N 1546.09 -1.52004 0.416254 0
M  V30 16991 C 1547.5 -1.86628 -0.0517247 0
M  V30 16992 C 1547.85 -1.33463 -1.43813 0
M  V30 16993 O 1546.98 -0.676793 -2.05544 0
M  V30 16994 C 1547.57 -3.38651 -0.100637 0
M  V30 16995 C 1546.13 -3.72888 -0.512969 0
M  V30 16996 C 1545.28 -2.75584 0.307975 0
M  V30 16997 H 1548.23 -1.45529 0.633018 0
M  V30 16998 H 1548.25 -3.69348 -0.914465 0
M  V30 16999 H 1547.76 -3.77316 0.908538 0
M  V30 17000 H 1545.87 -3.39804 -1.52852 0
M  V30 17001 H 1545.98 -4.78435 -0.252408 0
M  V30 17002 H 1544.34 -2.53653 -0.230717 0
M  V30 17003 H 1545.13 -3.1709 1.31563 0
M  V30 17004 N 1547.57 -0.146903 -1.56914 0
M  V30 17005 C 1548.82 0.504981 -1.96412 0
M  V30 17006 C 1549.15 1.64522 -1.0318 0
M  V30 17007 O 1548.42 1.94359 -0.0741728 0
M  V30 17008 C 1548.71 1.01125 -3.45609 0
M  V30 17009 C 1548.56 -0.127493 -4.49619 0
M  V30 17010 C 1549.88 1.89306 -3.97305 0
M  V30 17011 H 1547 0.182088 -0.714152 0
M  V30 17012 H 1549.64 -0.22811 -1.88626 0
M  V30 17013 H 1547.79 1.63595 -3.52376 0
M  V30 17014 H 1549.46 -0.763829 -4.54932 0
M  V30 17015 H 1547.71 -0.786649 -4.26608 0
M  V30 17016 H 1548.38 0.268453 -5.51347 0
M  V30 17017 H 1550.85 1.36664 -3.93017 0
M  V30 17018 H 1549.73 2.21638 -5.02163 0
M  V30 17019 H 1549.99 2.82996 -3.39655 0
M  V30 17020 N 1549.05 1.57088 0.126881 0
M  V30 17021 C 1550 1.99764 1.15599 0
M  V30 17022 C 1550.97 0.868468 1.41587 0
M  V30 17023 O 1552.15 1.13209 1.53585 0
M  V30 17024 C 1549.29 2.40038 2.47943 0
M  V30 17025 C 1548.4 3.66336 2.28958 0
M  V30 17026 C 1547.54 3.95626 3.54477 0
M  V30 17027 C 1546.58 5.15131 3.30616 0
M  V30 17028 N 1545.71 5.4033 4.48317 0
M  V30 17029 H 1550.55 2.87473 0.785078 0
M  V30 17030 H 1548.09 1.42209 0.376169 0
M  V30 17031 H 1550.05 2.61423 3.25136 0
M  V30 17032 H 1548.68 1.55382 2.82942 0
M  V30 17033 H 1547.73 3.52612 1.4272 0
M  V30 17034 H 1549.04 4.53684 2.07298 0
M  V30 17035 H 1548.2 4.17617 4.40092 0
M  V30 17036 H 1546.94 3.06738 3.79161 0
M  V30 17037 H 1545.94 4.92992 2.43391 0
M  V30 17038 H 1547.17 6.05588 3.0731 0
M  V30 17039 H 1545.11 4.54399 4.73136 0
M  V30 17040 H 1545.03 6.21985 4.29733 0
M  V30 17041 H 1546.3 5.66835 5.35088 0
M  V30 17042 N 1550.53 -0.396836 1.52522 0
M  V30 17043 C 1551.94 -0.736347 1.41598 0
M  V30 17044 C 1552.14 -1.944 0.530191 0
M  V30 17045 O 1551.2 -2.525 0.000649033 0
M  V30 17046 C 1552.51 -0.978775 2.84325 0
M  V30 17047 C 1554.06 -1.08073 2.9375 0
M  V30 17048 C 1554.53 -1.35584 4.37471 0
M  V30 17049 N 1556.03 -1.42423 4.40761 0
M  V30 17050 C 1556.76 -1.6536 5.49039 0
M  V30 17051 N 1556.26 -1.85819 6.67415 0
M  V30 17052 N 1558.05 -1.67475 5.36571 0
M  V30 17053 H 1550.2 0.397925 2.08639 0
M  V30 17054 H 1552.46 0.115803 0.9409 0
M  V30 17055 H 1552.17 -0.16362 3.51319 0
M  V30 17056 H 1552.04 -1.8956 3.26109 0
M  V30 17057 H 1554.43 -1.88646 2.26928 0
M  V30 17058 H 1554.51 -0.141996 2.55406 0
M  V30 17059 H 1554.16 -0.555238 5.04856 0
M  V30 17060 H 1554.09 -2.3073 4.73362 0
M  V30 17061 H 1556.58 -1.28352 3.55435 0
M  V30 17062 H 1556.89 -2.02806 7.45714 0
M  V30 17063 H 1555.23 -1.83059 6.70458 0
M  V30 17064 H 1558.43 -1.51038 4.43064 0
M  V30 17065 H 1558.6 -1.85011 6.21027 0
M  V30 17066 N 1552.01 -1.43353 -0.654814 0
M  V30 17067 C 1553.25 -1.44599 -1.41193 0
M  V30 17068 C 1553.57 -0.0707955 -1.94871 0
M  V30 17069 O 1552.84 0.893637 -1.7433 0
M  V30 17070 H 1551.42 -0.532373 -0.524011 0
M  V30 17071 H 1554.09 -1.78942 -0.772388 0
M  V30 17072 H 1553.18 -2.15761 -2.25508 0
M  V30 17073 N 1553.48 0.89303 -1.29857 0
M  V30 17074 C 1554.43 2.01928 -1.15447 0
M  V30 17075 C 1555.43 1.69262 -0.0683677 0
M  V30 17076 O 1556.63 1.78542 -0.228646 0
M  V30 17077 H 1553.01 0.661961 -0.356807 0
M  V30 17078 H 1554.98 2.11218 -2.10784 0
M  V30 17079 C 1553.73 3.37031 -0.85473 0
M  V30 17080 H 1553.05 3.62673 -1.68251 0
M  V30 17081 H 1554.49 4.165 -0.793973 0
M  V30 17082 C 1552.95 3.33986 0.442183 0
M  V30 17083 O 1553.48 3.73986 1.4662 0
M  V30 17084 N 1551.68 2.87088 0.450438 0
M  V30 17085 H 1551.23 2.54732 -0.383347 0
M  V30 17086 H 1551.19 2.85433 1.31815 0
M  V30 17087 N 1554.96 1.12442 1.10429 0
M  V30 17088 C 1556.24 0.791191 1.78884 0
M  V30 17089 C 1556.62 -0.719044 1.98477 0
M  V30 17090 O 1555.97 -1.65275 1.57786 0
M  V30 17091 C 1556.18 1.56632 3.11877 0
M  V30 17092 C 1557.52 1.75236 3.86752 0
M  V30 17093 O 1558.55 1.53145 3.21598 0
M  V30 17094 O 1557.41 2.12025 5.03694 0
M  V30 17095 H 1554.5 0.287788 0.775311 0
M  V30 17096 H 1557.05 1.22844 1.17078 0
M  V30 17097 H 1555.82 2.59317 2.93037 0
M  V30 17098 H 1555.44 1.12332 3.81402 0
M  V30 17099 N 1556.44 -1.28223 0.91633 0
M  V30 17100 C 1557.67 -1.98986 0.566772 0
M  V30 17101 C 1558.08 -1.68455 -0.852553 0
M  V30 17102 O 1557.44 -0.938734 -1.56506 0
M  V30 17103 C 1557.49 -3.53217 0.769423 0
M  V30 17104 O 1557.21 -3.82674 2.1329 0
M  V30 17105 C 1558.71 -4.41238 0.427043 0
M  V30 17106 H 1555.93 -0.63534 0.215834 0
M  V30 17107 H 1558.48 -1.63357 1.23024 0
M  V30 17108 H 1556.63 -3.87098 0.152915 0
M  V30 17109 H 1557.05 -4.77302 2.17448 0
M  V30 17110 H 1558.52 -5.48512 0.619594 0
M  V30 17111 H 1559 -4.34558 -0.63686 0
M  V30 17112 H 1559.6 -4.12858 1.0212 0
M  V30 17113 N 1557.92 -0.68059 -1.42147 0
M  V30 17114 C 1559.19 -0.133957 -1.95141 0
M  V30 17115 C 1559.57 1.3526 -1.62074 0
M  V30 17116 O 1558.92 2.09165 -0.919898 0
M  V30 17117 C 1559.13 -0.409266 -3.46592 0
M  V30 17118 C 1560.48 -0.328899 -4.23324 0
M  V30 17119 O 1561.5 -0.343337 -3.54541 0
M  V30 17120 O 1560.36 -0.276076 -5.45802 0
M  V30 17121 H 1557.46 -0.00623443 -0.826977 0
M  V30 17122 H 1560 -0.755719 -1.51944 0
M  V30 17123 H 1558.78 -1.43883 -3.63887 0
M  V30 17124 H 1558.4 0.244216 -3.96849 0
M  V30 17125 N 1559.4 1.51781 -0.424309 0
M  V30 17126 C 1560.64 2.02269 0.146709 0
M  V30 17127 C 1560.97 1.30859 1.4349 0
M  V30 17128 O 1560.25 0.419504 1.89922 0
M  V30 17129 C 1560.53 3.58101 0.378861 0
M  V30 17130 C 1560.39 4.40143 -0.92707 0
M  V30 17131 C 1561.7 4.2469 1.15438 0
M  V30 17132 H 1558.82 0.735174 0.0518456 0
M  V30 17133 H 1561.47 1.81537 -0.560753 0
M  V30 17134 H 1559.62 3.75897 0.981496 0
M  V30 17135 H 1561.29 4.34025 -1.56268 0
M  V30 17136 H 1559.53 4.05748 -1.53464 0
M  V30 17137 H 1560.2 5.47299 -0.718837 0
M  V30 17138 H 1562.68 4.11086 0.644041 0
M  V30 17139 H 1561.55 5.33633 1.28557 0
M  V30 17140 H 1561.81 3.84668 2.17905 0
M  V30 17141 N 1560.87 0.155222 1.56834 0
M  V30 17142 C 1562.29 -0.201116 1.58328 0
M  V30 17143 C 1562.49 -1.64061 1.16988 0
M  V30 17144 O 1561.55 -2.36892 0.873989 0
M  V30 17145 C 1562.86 0.0651005 3.0063 0
M  V30 17146 C 1564.41 0.00203866 3.13 0
M  V30 17147 C 1564.88 0.241032 4.57365 0
M  V30 17148 N 1566.37 0.188245 4.62817 0
M  V30 17149 C 1567.11 0.347562 5.72346 0
M  V30 17150 N 1566.6 0.565052 6.90492 0
M  V30 17151 N 1568.4 0.284589 5.61379 0
M  V30 17152 H 1560.55 1.09503 1.81997 0
M  V30 17153 H 1562.81 0.434106 0.842767 0
M  V30 17154 H 1562.52 1.06167 3.35293 0
M  V30 17155 H 1562.39 -0.650601 3.71547 0
M  V30 17156 H 1564.78 -0.98509 2.78173 0
M  V30 17157 H 1564.86 0.750199 2.44552 0
M  V30 17158 H 1564.5 1.2253 4.92898 0
M  V30 17159 H 1564.43 -0.52755 5.23951 0
M  V30 17160 H 1566.92 0.0251352 3.77892 0
M  V30 17161 H 1567.24 0.676502 7.69833 0
M  V30 17162 H 1565.58 0.601473 6.92392 0
M  V30 17163 H 1568.77 0.115381 4.67958 0
M  V30 17164 H 1568.95 0.412182 6.46688 0
M  V30 17165 N 1562.35 -1.57153 -0.118549 0
M  V30 17166 C 1563.77 -1.52458 -0.472096 0
M  V30 17167 C 1563.97 -0.868289 -1.81832 0
M  V30 17168 O 1563.02 -0.450817 -2.48443 0
M  V30 17169 C 1564.34 -2.9722 -0.456175 0
M  V30 17170 C 1565.88 -3.08312 -0.539694 0
M  V30 17171 C 1566.36 -4.54635 -0.554158 0
M  V30 17172 N 1567.85 -4.59091 -0.615584 0
M  V30 17173 C 1568.59 -5.69724 -0.64823 0
M  V30 17174 N 1568.08 -6.89852 -0.638494 0
M  V30 17175 N 1569.87 -5.57833 -0.691272 0
M  V30 17176 H 1562.03 -1.98202 0.76353 0
M  V30 17177 H 1564.29 -0.905179 0.281699 0
M  V30 17178 H 1563.99 -3.48608 0.465364 0
M  V30 17179 H 1563.87 -3.5468 -1.28381 0
M  V30 17180 H 1566.26 -2.56926 -1.45165 0
M  V30 17181 H 1566.34 -2.53845 0.315638 0
M  V30 17182 H 1565.98 -5.06667 0.353759 0
M  V30 17183 H 1565.91 -5.06914 -1.42638 0
M  V30 17184 H 1568.4 -3.72624 -0.629253 0
M  V30 17185 H 1568.71 -7.69925 -0.66604 0
M  V30 17186 H 1567.06 -6.92354 -0.605912 0
M  V30 17187 H 1570.25 -4.62893 -0.696244 0
M  V30 17188 H 1570.42 -6.44063 -0.713246 0
M  V30 17189 N 1563.83 0.388742 -1.5273 0
M  V30 17190 C 1564.78 1.47488 -1.77527 0
M  V30 17191 C 1565.75 1.54155 -0.618505 0
M  V30 17192 O 1566.93 1.70407 -0.858251 0
M  V30 17193 C 1564.07 2.84714 -1.95018 0
M  V30 17194 C 1563.18 2.87197 -3.2271 0
M  V30 17195 C 1562.32 4.15851 -3.30517 0
M  V30 17196 C 1561.36 4.12386 -4.52332 0
M  V30 17197 N 1560.5 5.32647 -4.57418 0
M  V30 17198 H 1565.34 1.25644 -2.70218 0
M  V30 17199 H 1562.87 0.609519 -1.33878 0
M  V30 17200 H 1564.83 3.64402 -2.03143 0
M  V30 17201 H 1563.46 3.05008 -1.05688 0
M  V30 17202 H 1562.51 1.99879 -3.23655 0
M  V30 17203 H 1563.82 2.80505 -4.12454 0
M  V30 17204 H 1562.98 5.03943 -3.37827 0
M  V30 17205 H 1561.72 4.25265 -2.38748 0
M  V30 17206 H 1560.72 3.22683 -4.45147 0
M  V30 17207 H 1561.95 4.04594 -5.45418 0
M  V30 17208 H 1559.89 5.42691 -3.68541 0
M  V30 17209 H 1559.81 5.28032 -5.41035 0
M  V30 17210 H 1561.08 6.22636 -4.68983 0
M  V30 17211 N 1565.31 1.43698 0.647203 0
M  V30 17212 C 1566.22 1.51781 1.78884 0
M  V30 17213 C 1567.23 0.404498 1.69233 0
M  V30 17214 O 1568.41 0.659509 1.90296 0
M  V30 17215 C 1565.47 1.44408 3.15194 0
M  V30 17216 C 1564.54 2.6646 3.36597 0
M  V30 17217 C 1563.77 2.59429 4.66403 0
M  V30 17218 O 1563.99 1.64537 5.46154 0
M  V30 17219 O 1562.93 3.50027 4.89658 0
M  V30 17220 H 1566.75 2.48198 1.75019 0
M  V30 17221 H 1564.34 1.25766 0.806436 0
M  V30 17222 H 1566.22 1.42761 3.96481 0
M  V30 17223 H 1564.89 0.511292 3.19637 0
M  V30 17224 H 1563.8 2.73679 2.5505 0
M  V30 17225 H 1565.13 3.58732 3.37005 0
M  V30 17226 N 1566.79 -0.886131 1.30328 0
M  V30 17227 C 1567.73 -1.99174 1.16612 0
M  V30 17228 C 1568.7 -1.66006 0.0559202 0
M  V30 17229 O 1569.89 -1.89458 0.225897 0
M  V30 17230 C 1567.03 -3.34142 0.862726 0
M  V30 17231 C 1566.14 -3.80008 2.05469 0
M  V30 17232 C 1565.28 -5.03617 1.68949 0
M  V30 17233 C 1564.32 -5.41888 2.84647 0
M  V30 17234 N 1563.45 -6.56678 2.48431 0
M  V30 17235 H 1568.29 -2.10238 2.11197 0
M  V30 17236 H 1565.83 -1.02941 1.05079 0
M  V30 17237 H 1567.79 -4.11826 0.667447 0
M  V30 17238 H 1566.42 -3.22767 -0.0462461 0
M  V30 17239 H 1565.47 -2.98243 2.36126 0
M  V30 17240 H 1566.78 -4.04312 2.92119 0
M  V30 17241 H 1565.94 -5.88923 1.45789 0
M  V30 17242 H 1564.67 -4.81182 0.794674 0
M  V30 17243 H 1563.68 -4.55109 3.08474 0
M  V30 17244 H 1564.9 -5.66296 3.74813 0
M  V30 17245 H 1562.85 -6.35821 1.61453 0
M  V30 17246 H 1562.77 -6.80846 3.28611 0
M  V30 17247 H 1564.04 -7.45219 2.28624 0
M  V30 17248 N 1568.26 -1.13026 -1.09832 0
M  V30 17249 C 1569.17 -0.817051 -2.19912 0
M  V30 17250 C 1570.19 0.19667 -1.72885 0
M  V30 17251 O 1571.37 0.0287402 -2.01379 0
M  V30 17252 C 1568.43 -0.28304 -3.45543 0
M  V30 17253 C 1567.49 -1.35748 -4.07273 0
M  V30 17254 C 1566.73 -0.848855 -5.26906 0
M  V30 17255 O 1566.95 0.315104 -5.69529 0
M  V30 17256 O 1565.88 -1.62128 -5.79653 0
M  V30 17257 H 1569.71 -1.73663 -2.49148 0
M  V30 17258 H 1567.29 -0.907391 -1.18688 0
M  V30 17259 H 1569.18 0.00956876 -4.21399 0
M  V30 17260 H 1567.85 0.609018 -3.17919 0
M  V30 17261 H 1566.76 -1.70334 -3.33072 0
M  V30 17262 H 1568.09 -2.22353 -4.39113 0
M  V30 17263 N 1569.74 1.27735 -0.923117 0
M  V30 17264 C 1570.69 2.28975 -0.409065 0
M  V30 17265 C 1571.68 1.61723 0.504194 0
M  V30 17266 O 1572.89 1.75848 0.384402 0
M  V30 17267 H 1569.27 0.743354 -0.113705 0
M  V30 17268 H 1571.24 2.69751 -1.27582 0
M  V30 17269 C 1569.99 3.46158 0.327099 0
M  V30 17270 H 1569.31 3.98117 -0.366444 0
M  V30 17271 H 1570.75 4.18968 0.65128 0
M  V30 17272 C 1569.21 2.99724 1.53842 0
M  V30 17273 O 1569.74 3.03001 2.6373 0
M  V30 17274 N 1567.94 2.55274 1.38865 0
M  V30 17275 H 1567.49 2.52807 0.494629 0
M  V30 17276 H 1567.45 2.24567 2.20039 0
M  V30 17277 N 1571.22 0.688118 1.41784 0
M  V30 17278 C 1572.64 0.358943 1.55511 0
M  V30 17279 C 1572.84 -1.13469 1.66514 0
M  V30 17280 O 1571.89 -1.92039 1.63943 0
M  V30 17281 C 1573.21 1.10094 2.79821 0
M  V30 17282 C 1574.75 1.08456 2.93609 0
M  V30 17283 C 1575.23 1.80815 4.20797 0
M  V30 17284 N 1576.72 1.77748 4.27738 0
M  V30 17285 C 1577.45 2.30581 5.24995 0
M  V30 17286 N 1576.95 2.91854 6.28326 0
M  V30 17287 N 1578.74 2.2088 5.16884 0
M  V30 17288 H 1570.89 1.65695 1.32886 0
M  V30 17289 H 1573.16 0.698818 0.640592 0
M  V30 17290 H 1572.86 2.15589 2.77874 0
M  V30 17291 H 1572.74 0.674713 3.71117 0
M  V30 17292 H 1575.12 0.0378955 2.95076 0
M  V30 17293 H 1575.21 1.54978 2.03508 0
M  V30 17294 H 1574.85 2.85457 4.20092 0
M  V30 17295 H 1574.78 1.31732 5.09857 0
M  V30 17296 H 1577.27 1.33069 3.53696 0
M  V30 17297 H 1577.58 3.29755 6.98915 0
M  V30 17298 H 1575.93 2.95929 6.28849 0
M  V30 17299 H 1579.12 1.72689 4.35082 0
M  V30 17300 H 1579.29 2.62359 5.92513 0
M  V30 17301 N 1572.7 -1.51554 0.432352 0
M  V30 17302 C 1573.65 -2.27623 -0.381602 0
M  V30 17303 C 1574.62 -1.31003 -1.02114 0
M  V30 17304 O 1575.8 -1.59899 -1.041 0
M  V30 17305 C 1572.94 -3.11772 -1.47959 0
M  V30 17306 C 1572.05 -4.2338 -0.858682 0
M  V30 17307 C 1571.19 -4.94847 -1.93131 0
M  V30 17308 C 1570.23 -5.98383 -1.28856 0
M  V30 17309 N 1569.36 -6.63278 -2.30233 0
M  V30 17310 H 1574.2 -2.96743 0.273472 0
M  V30 17311 H 1571.74 -1.46367 0.146706 0
M  V30 17312 H 1573.7 -3.58882 -2.12742 0
M  V30 17313 H 1572.33 -2.44778 -2.10437 0
M  V30 17314 H 1571.38 -3.8027 -0.0992797 0
M  V30 17315 H 1572.69 -4.97575 -0.349381 0
M  V30 17316 H 1571.85 -5.4548 -2.65587 0
M  V30 17317 H 1570.59 -4.20272 -2.47432 0
M  V30 17318 H 1569.59 -5.47048 -0.549441 0
M  V30 17319 H 1570.82 -6.74913 -0.752941 0
M  V30 17320 H 1568.76 -5.91518 -2.83624 0
M  V30 17321 H 1568.68 -7.33221 -1.84181 0
M  V30 17322 H 1569.95 -7.18542 -3.02188 0
M  V30 17323 N 1574.18 -0.163538 -1.56749 0
M  V30 17324 C 1575.11 0.765571 -2.20593 0
M  V30 17325 C 1576.09 1.24489 -1.15916 0
M  V30 17326 O 1577.27 1.29946 -1.44318 0
M  V30 17327 C 1574.4 1.99823 -2.84057 0
M  V30 17328 C 1573.36 1.65506 -3.94705 0
M  V30 17329 C 1572.68 2.96172 -4.45181 0
M  V30 17330 C 1573.98 0.88902 -5.14678 0
M  V30 17331 H 1575.68 0.233431 -2.98489 0
M  V30 17332 H 1573.22 0.110836 -1.43573 0
M  V30 17333 H 1575.18 2.65316 -3.27392 0
M  V30 17334 H 1573.9 2.55437 -2.03517 0
M  V30 17335 H 1572.56 1.02384 -3.52013 0
M  V30 17336 H 1572.21 3.49811 -3.61443 0
M  V30 17337 H 1571.91 2.73968 -5.19823 0
M  V30 17338 H 1573.43 3.62708 -4.91198 0
M  V30 17339 H 1574.84 1.44637 -5.54755 0
M  V30 17340 H 1573.24 0.766302 -5.95187 0
M  V30 17341 H 1574.31 -0.116145 -4.84761 0
M  V30 17342 N 1575.65 1.57214 0.110213 0
M  V30 17343 C 1576.6 1.97409 1.14077 0
M  V30 17344 C 1577.59 0.850322 1.36596 0
M  V30 17345 O 1578.78 1.11407 1.3754 0
M  V30 17346 C 1575.91 2.38936 2.46505 0
M  V30 17347 C 1575 3.57965 2.27424 0
M  V30 17348 N 1575.39 4.73379 1.78175 0
M  V30 17349 C 1573.68 3.63768 2.58048 0
M  V30 17350 C 1574.39 5.55376 1.73009 0
M  V30 17351 N 1573.36 4.98115 2.17675 0
M  V30 17352 H 1577.16 2.84098 0.752688 0
M  V30 17353 H 1574.68 1.59259 0.317845 0
M  V30 17354 H 1576.67 2.65953 3.21052 0
M  V30 17355 H 1575.33 1.53616 2.86063 0
M  V30 17356 H 1576.35 4.96424 1.47593 0
M  V30 17357 H 1573.02 2.89076 3.01233 0
M  V30 17358 H 1574.41 6.57969 1.36112 0
M  V30 17359 N 1577.13 -0.380637 1.52934 0
M  V30 17360 C 1578.07 -1.48737 1.73068 0
M  V30 17361 C 1579.04 -1.51954 0.578673 0
M  V30 17362 O 1580.23 -1.70234 0.809479 0
M  V30 17363 C 1577.35 -2.8717 1.79587 0
M  V30 17364 C 1576.4 -3.01742 3.0142 0
M  V30 17365 S 1577.23 -2.72067 4.61237 0
M  V30 17366 C 1578.39 -4.12677 4.70583 0
M  V30 17367 H 1578.62 -1.31435 2.66669 0
M  V30 17368 H 1576.16 -0.574038 1.43332 0
M  V30 17369 H 1578.11 -3.66939 1.84028 0
M  V30 17370 H 1576.77 -3.01792 0.87064 0
M  V30 17371 H 1575.97 -4.0309 3.02546 0
M  V30 17372 H 1575.57 -2.29876 2.95013 0
M  V30 17373 H 1577.86 -5.0672 4.49712 0
M  V30 17374 H 1578.8 -4.16563 5.72609 0
M  V30 17375 H 1579.21 -3.98976 3.99348 0
M  V30 17376 N 1578.61 -1.44039 -0.639573 0
M  V30 17377 C 1579.52 -1.52728 -1.78077 0
M  V30 17378 C 1580.54 -0.413467 -1.69016 0
M  V30 17379 O 1581.71 -0.669592 -1.89943 0
M  V30 17380 C 1578.78 -1.46078 -3.14424 0
M  V30 17381 C 1577.84 -2.68242 -3.35179 0
M  V30 17382 C 1577.07 -2.61899 -4.65021 0
M  V30 17383 O 1577.29 -1.67431 -5.45273 0
M  V30 17384 O 1576.23 -3.52619 -4.87795 0
M  V30 17385 H 1580.05 -2.49122 -1.737 0
M  V30 17386 H 1577.64 -1.26191 -0.799755 0
M  V30 17387 H 1579.52 -1.44861 -3.95719 0
M  V30 17388 H 1578.2 -0.528236 -3.19361 0
M  V30 17389 H 1577.1 -2.75028 -2.53595 0
M  V30 17390 H 1578.44 -3.60514 -3.35098 0
M  V30 17391 N 1580.09 0.879207 -1.30796 0
M  V30 17392 C 1581.02 2.00158 -1.20246 0
M  V30 17393 C 1582 1.69852 -0.091769 0
M  V30 17394 O 1583.18 1.92246 -0.274792 0
M  V30 17395 C 1580.31 3.3545 -0.899472 0
M  V30 17396 C 1579.27 3.80033 -1.96873 0
M  V30 17397 C 1578.59 5.12681 -1.51861 0
M  V30 17398 C 1579.89 3.98136 -3.38061 0
M  V30 17399 H 1581.59 2.09242 -2.14145 0
M  V30 17400 H 1579.13 1.00535 -1.03096 0
M  V30 17401 H 1581.09 4.13497 -0.812299 0
M  V30 17402 H 1579.81 3.26513 0.075189 0
M  V30 17403 H 1578.47 3.04219 -2.04564 0
M  V30 17404 H 1578.12 5.00178 -0.532063 0
M  V30 17405 H 1577.82 5.43482 -2.23386 0
M  V30 17406 H 1579.34 5.93247 -1.44534 0
M  V30 17407 H 1580.76 4.66604 -3.33096 0
M  V30 17408 H 1579.15 4.40321 -4.07722 0
M  V30 17409 H 1580.22 3.01807 -3.79526 0
M  V30 17410 N 1581.57 1.13606 1.09231 0
M  V30 17411 C 1582.51 0.815279 2.15921 0
M  V30 17412 C 1583.48 -0.223501 1.64589 0
M  V30 17413 O 1584.67 -0.0952982 1.90562 0
M  V30 17414 C 1581.81 0.289655 3.43882 0
M  V30 17415 C 1580.92 1.38773 4.09104 0
M  V30 17416 C 1580.06 0.820238 5.24829 0
M  V30 17417 C 1579.1 1.89658 5.81976 0
M  V30 17418 N 1578.23 1.34688 6.8906 0
M  V30 17419 H 1583.07 1.72914 2.42703 0
M  V30 17420 H 1580.61 0.863101 1.19117 0
M  V30 17421 H 1582.57 -0.0332398 4.17187 0
M  V30 17422 H 1581.2 -0.587329 3.17412 0
M  V30 17423 H 1580.25 1.82718 3.33644 0
M  V30 17424 H 1581.56 2.20114 4.47606 0
M  V30 17425 H 1580.72 0.448745 6.05038 0
M  V30 17426 H 1579.46 -0.0242261 4.87694 0
M  V30 17427 H 1578.46 2.27712 5.00427 0
M  V30 17428 H 1579.69 2.74448 6.21172 0
M  V30 17429 H 1577.63 0.524453 6.539 0
M  V30 17430 H 1577.55 2.09675 7.26342 0
M  V30 17431 H 1578.82 1.00302 7.7302 0
M  V30 17432 N 1583.05 -1.27244 0.929878 0
M  V30 17433 C 1584.27 -1.98912 0.587277 0
M  V30 17434 C 1584.7 -1.68888 -0.828168 0
M  V30 17435 O 1584.05 -0.930394 -1.55606 0
M  V30 17436 C 1584.1 -3.51097 0.822399 0
M  V30 17437 O 1583.21 -4.12251 -0.110968 0
M  V30 17438 H 1582.55 -0.624404 0.225867 0
M  V30 17439 H 1585.08 -1.61997 1.24973 0
M  V30 17440 H 1585.09 -4.01255 0.738824 0
M  V30 17441 H 1583.76 -3.72282 1.85416 0
M  V30 17442 H 1582.34 -3.72893 0.0227053 0
M  V30 17443 N 1584.52 -0.695628 -1.41417 0
M  V30 17444 C 1585.43 -0.0308378 -2.3458 0
M  V30 17445 C 1586.45 0.766 -1.56232 0
M  V30 17446 O 1587.63 0.703548 -1.88712 0
M  V30 17447 C 1584.69 0.894162 -3.34971 0
M  V30 17448 C 1583.75 0.0895231 -4.29207 0
M  V30 17449 C 1582.98 0.970467 -5.24802 0
M  V30 17450 O 1583.21 2.20997 -5.25848 0
M  V30 17451 O 1582.14 0.420114 -6.00432 0
M  V30 17452 H 1585.97 -0.798775 -2.93007 0
M  V30 17453 H 1583.55 -0.455964 -1.42272 0
M  V30 17454 H 1585.43 1.42458 -3.9659 0
M  V30 17455 H 1584.11 1.64159 -2.78987 0
M  V30 17456 H 1583.02 -0.4855 -3.70936 0
M  V30 17457 H 1584.35 -0.619241 -4.88289 0
M  V30 17458 N 1586 1.51322 -0.440383 0
M  V30 17459 C 1587.42 1.5933 -0.0928372 0
M  V30 17460 C 1587.62 1.45107 1.39807 0
M  V30 17461 O 1586.67 1.29385 2.16831 0
M  V30 17462 C 1587.99 2.9433 -0.615663 0
M  V30 17463 C 1589.53 3.07647 -0.576373 0
M  V30 17464 C 1590.01 4.45176 -1.07622 0
M  V30 17465 N 1591.5 4.51504 -1.03434 0
M  V30 17466 C 1592.24 5.56249 -1.39194 0
M  V30 17467 N 1591.73 6.68398 -1.82254 0
M  V30 17468 N 1593.52 5.46624 -1.30991 0
M  V30 17469 H 1585.68 1.58812 -1.41041 0
M  V30 17470 H 1587.94 0.748795 -0.581386 0
M  V30 17471 H 1587.64 3.10117 -1.65892 0
M  V30 17472 H 1587.52 3.77176 -0.0422513 0
M  V30 17473 H 1589.91 2.91526 0.457904 0
M  V30 17474 H 1589.99 2.26633 -1.18622 0
M  V30 17475 H 1589.63 4.62044 -2.10898 0
M  V30 17476 H 1589.56 5.24734 -0.442882 0
M  V30 17477 H 1592.05 3.71013 -0.718156 0
M  V30 17478 H 1592.36 7.44347 -2.07769 0
M  V30 17479 H 1590.71 6.69598 -1.86183 0
M  V30 17480 H 1593.9 4.57894 -0.972145 0
M  V30 17481 H 1594.07 6.28143 -1.59188 0
M  V30 17482 N 1587.48 0.171848 1.5666 0
M  V30 17483 C 1588.39 -0.770721 2.21579 0
M  V30 17484 C 1589.41 -1.25273 1.20759 0
M  V30 17485 O 1590.58 -1.30474 1.53422 0
M  V30 17486 C 1587.65 -1.98256 2.84422 0
M  V30 17487 C 1586.71 -1.54738 4.00443 0
M  V30 17488 C 1585.94 -2.70145 4.6028 0
M  V30 17489 O 1586.16 -3.87026 4.19007 0
M  V30 17490 O 1585.1 -2.44189 5.50141 0
M  V30 17491 H 1588.92 -0.247974 3.02686 0
M  V30 17492 H 1586.51 -0.0563734 1.49294 0
M  V30 17493 H 1588.39 -2.69127 3.24266 0
M  V30 17494 H 1587.07 -2.49435 2.0631 0
M  V30 17495 H 1585.97 -0.808152 3.65267 0
M  V30 17496 H 1587.31 -1.08249 4.80149 0
M  V30 17497 N 1588.96 -1.5727 -0.101874 0
M  V30 17498 C 1589.9 -2.01577 -1.12406 0
M  V30 17499 C 1590.87 -0.890883 -1.40187 0
M  V30 17500 O 1592.06 -1.15638 -1.51764 0
M  V30 17501 C 1589.2 -2.43952 -2.44093 0
M  V30 17502 C 1588.31 -3.69932 -2.23101 0
M  V30 17503 C 1587.45 -4.01215 -3.48138 0
M  V30 17504 C 1586.49 -5.20325 -3.22379 0
M  V30 17505 N 1585.62 -5.47394 -4.39664 0
M  V30 17506 H 1590.46 -2.88685 -0.739244 0
M  V30 17507 H 1588 -1.42789 -0.353497 0
M  V30 17508 H 1589.96 -2.66563 -3.20936 0
M  V30 17509 H 1588.59 -1.59863 -2.80435 0
M  V30 17510 H 1587.64 -3.54838 -1.37092 0
M  V30 17511 H 1588.95 -4.56924 -2.00054 0
M  V30 17512 H 1588.11 -4.24566 -4.33392 0
M  V30 17513 H 1586.85 -3.12732 -3.74233 0
M  V30 17514 H 1585.85 -4.96802 -2.35517 0
M  V30 17515 H 1587.08 -6.10401 -2.97637 0
M  V30 17516 H 1585.02 -4.61869 -4.65847 0
M  V30 17517 H 1584.94 -6.28743 -4.19783 0
M  V30 17518 H 1586.21 -5.75276 -5.26002 0
M  V30 17519 N 1590.44 0.372521 -1.53134 0
M  V30 17520 C 1591.37 1.4621 -1.82057 0
M  V30 17521 C 1592.35 1.56194 -0.673612 0
M  V30 17522 O 1593.53 1.70875 -0.922797 0
M  V30 17523 C 1590.66 2.83632 -2.00425 0
M  V30 17524 C 1589.62 2.88478 -3.16171 0
M  V30 17525 C 1588.94 4.28508 -3.19821 0
M  V30 17526 C 1590.24 2.56628 -4.54906 0
M  V30 17527 H 1591.94 1.22256 -2.73302 0
M  V30 17528 H 1589.48 0.586688 -1.31507 0
M  V30 17529 H 1591.43 3.59876 -2.19242 0
M  V30 17530 H 1590.16 3.0896 -1.05884 0
M  V30 17531 H 1588.82 2.14684 -2.97164 0
M  V30 17532 H 1588.47 4.509 -2.2293 0
M  V30 17533 H 1588.17 4.32667 -3.97584 0
M  V30 17534 H 1589.69 5.06635 -3.40813 0
M  V30 17535 H 1591.1 3.22587 -4.73931 0
M  V30 17536 H 1589.5 2.72114 -5.34859 0
M  V30 17537 H 1590.57 1.51902 -4.60493 0
M  V30 17538 N 1591.91 1.44376 0.631925 0
M  V30 17539 C 1593.14 1.50598 1.41873 0
M  V30 17540 C 1593.56 0.130589 1.88348 0
M  V30 17541 O 1592.91 -0.86336 1.60787 0
M  V30 17542 C 1592.96 2.47 2.63957 0
M  V30 17543 O 1592.69 3.79192 2.1942 0
M  V30 17544 C 1594.19 2.62678 3.57092 0
M  V30 17545 H 1591.41 0.510792 0.435124 0
M  V30 17546 H 1593.95 1.89332 0.772893 0
M  V30 17547 H 1592.11 2.11404 3.24634 0
M  V30 17548 H 1592.52 4.31231 2.98563 0
M  V30 17549 H 1593.99 3.34161 4.39364 0
M  V30 17550 H 1594.47 1.67881 4.05848 0
M  V30 17551 H 1595.08 2.99172 3.02285 0
M  V30 17552 N 1593.39 -0.872258 1.31261 0
M  V30 17553 C 1594.32 -1.9853 1.14537 0
M  V30 17554 C 1595.34 -1.62578 0.0850723 0
M  V30 17555 O 1596.53 -1.75379 0.332343 0
M  V30 17556 C 1593.63 -3.31005 0.72727 0
M  V30 17557 C 1592.8 -3.95313 1.87208 0
M  V30 17558 C 1591.86 -5.06101 1.44042 0
M  V30 17559 O 1590.88 -5.27045 2.1497 0
M  V30 17560 N 1592.09 -5.79581 0.32653 0
M  V30 17561 H 1594.85 -2.13423 2.10406 0
M  V30 17562 H 1592.41 -1.0461 1.23565 0
M  V30 17563 H 1594.4 -4.02502 0.421255 0
M  V30 17564 H 1592.97 -3.12287 -0.13975 0
M  V30 17565 H 1592.19 -3.16825 2.34553 0
M  V30 17566 H 1593.48 -4.35015 2.63893 0
M  V30 17567 H 1592.88 -5.65083 -0.264202 0
M  V30 17568 H 1591.44 -6.51751 0.0800358 0
M  V30 17569 N 1594.87 -1.14184 -1.08627 0
M  V30 17570 C 1595.8 -0.784492 -2.15356 0
M  V30 17571 C 1596.81 0.197581 -1.61597 0
M  V30 17572 O 1598 -0.0238037 -1.78484 0
M  V30 17573 C 1595.1 -0.143433 -3.38596 0
M  V30 17574 C 1594.28 -1.15967 -4.21747 0
M  V30 17575 C 1593.34 -0.542786 -5.23393 0
M  V30 17576 O 1592.36 -1.20512 -5.56296 0
M  V30 17577 N 1593.56 0.681466 -5.76486 0
M  V30 17578 H 1596.33 -1.70294 -2.46617 0
M  V30 17579 H 1593.89 -1.03596 -1.24417 0
M  V30 17580 H 1595.88 0.281703 -4.03718 0
M  V30 17581 H 1594.45 0.67811 -3.05156 0
M  V30 17582 H 1593.67 -1.76182 -3.52638 0
M  V30 17583 H 1594.96 -1.84623 -4.74122 0
M  V30 17584 H 1594.36 1.23819 -5.51983 0
M  V30 17585 H 1592.91 1.04914 -6.43301 0
M  V30 17586 N 1596.35 1.26749 -0.936613 0
M  V30 17587 C 1597.28 2.24895 -0.386956 0
M  V30 17588 C 1598.26 1.54004 0.521673 0
M  V30 17589 O 1599.44 1.82797 0.460158 0
M  V30 17590 C 1596.57 3.35771 0.44447 0
M  V30 17591 C 1595.62 4.24601 -0.401985 0
M  V30 17592 S 1596.45 5.03511 -1.82309 0
M  V30 17593 C 1597.61 6.17866 -0.999596 0
M  V30 17594 H 1597.84 2.71171 -1.21876 0
M  V30 17595 H 1595.37 1.35544 -0.739409 0
M  V30 17596 H 1597.33 4.00097 0.918284 0
M  V30 17597 H 1595.99 2.88117 1.2509 0
M  V30 17598 H 1595.18 5.03453 0.234819 0
M  V30 17599 H 1594.79 3.65116 -0.810309 0
M  V30 17600 H 1597.08 6.77076 -0.239732 0
M  V30 17601 H 1598.02 6.85842 -1.76142 0
M  V30 17602 H 1598.43 5.61934 -0.537672 0
M  V30 17603 N 1597.83 0.703118 1.41046 0
M  V30 17604 C 1599.08 0.234346 2.00334 0
M  V30 17605 C 1599.39 -1.17524 1.56357 0
M  V30 17606 O 1600.59 -1.74188 2.08257 0
M  V30 17607 C 1599.05 0.368067 3.58013 0
M  V30 17608 C 1598.66 1.7835 4.10969 0
M  V30 17609 C 1600.4 -0.0405456 4.24481 0
M  V30 17610 C 1598.31 1.86848 5.61108 0
M  V30 17611 H 1597.24 0.0838583 0.749322 0
M  V30 17612 H 1599.89 0.872407 1.61435 0
M  V30 17613 H 1598.27 -0.338371 3.94552 0
M  V30 17614 H 1599.45 2.51931 3.85833 0
M  V30 17615 H 1597.76 2.14246 3.57054 0
M  V30 17616 H 1600.36 0.00239803 5.347 0
M  V30 17617 H 1600.7 -1.08049 4.02034 0
M  V30 17618 H 1601.23 0.615887 3.93003 0
M  V30 17619 H 1597.97 2.8892 5.88392 0
M  V30 17620 H 1597.49 1.17662 5.88146 0
M  V30 17621 H 1599.17 1.63484 6.26005 0
M  V30 17622 N 1599.3 -1.51086 0.448402 0
M  V30 17623 C 1600.25 -2.28015 -0.357438 0
M  V30 17624 C 1601.22 -1.32079 -1.00719 0
M  V30 17625 O 1602.41 -1.60995 -1.02398 0
M  V30 17626 C 1599.55 -3.13324 -1.44644 0
M  V30 17627 C 1598.66 -4.24267 -0.813729 0
M  V30 17628 C 1597.79 -4.96868 -1.87871 0
M  V30 17629 C 1596.83 -5.99716 -1.22502 0
M  V30 17630 N 1595.97 -6.65682 -2.23185 0
M  V30 17631 H 1600.81 -2.96436 0.30493 0
M  V30 17632 H 1598.35 -1.46203 0.162222 0
M  V30 17633 H 1600.31 -3.61119 -2.08924 0
M  V30 17634 H 1598.94 -2.46996 -2.07829 0
M  V30 17635 H 1597.99 -3.80354 -0.0589414 0
M  V30 17636 H 1599.3 -4.97917 -0.296587 0
M  V30 17637 H 1598.45 -5.48266 -2.59786 0
M  V30 17638 H 1597.19 -4.22873 -2.42961 0
M  V30 17639 H 1596.2 -5.476 -0.491388 0
M  V30 17640 H 1597.42 -6.75674 -0.681315 0
M  V30 17641 H 1595.37 -5.94493 -2.77334 0
M  V30 17642 H 1595.29 -7.35134 -1.76393 0
M  V30 17643 H 1596.55 -7.21707 -2.9455 0
M  V30 17644 N 1600.78 -0.180154 -1.56567 0
M  V30 17645 C 1602.01 0.467861 -2.01233 0
M  V30 17646 C 1602.42 1.56754 -1.05948 0
M  V30 17647 O 1601.76 1.83621 -0.0539219 0
M  V30 17648 C 1601.83 1.09819 -3.42316 0
M  V30 17649 C 1601.49 0.139084 -4.56788 0
M  V30 17650 C 1602.49 -0.64592 -5.15872 0
M  V30 17651 C 1600.17 0.0323422 -5.0229 0
M  V30 17652 C 1602.17 -1.52478 -6.18894 0
M  V30 17653 C 1599.85 -0.850092 -6.05158 0
M  V30 17654 C 1600.85 -1.62723 -6.63333 0
M  V30 17655 O 1600.54 -2.4949 -7.64205 0
M  V30 17656 H 1600.27 0.12331 -0.664658 0
M  V30 17657 H 1602.82 -0.28166 -2.0346 0
M  V30 17658 H 1601.05 1.89601 -3.37029 0
M  V30 17659 H 1602.74 1.64931 -3.70881 0
M  V30 17660 H 1603.51 -0.573675 -4.81595 0
M  V30 17661 H 1599.39 0.627034 -4.56716 0
M  V30 17662 H 1602.93 -2.13182 -6.64228 0
M  V30 17663 H 1598.83 -0.923507 -6.3886 0
M  V30 17664 H 1599.6 -2.43104 -7.81564 0
M  V30 17665 N 1602.26 1.57322 0.0935319 0
M  V30 17666 C 1603.19 1.98861 1.13961 0
M  V30 17667 C 1604.21 0.891385 1.36228 0
M  V30 17668 O 1605.39 1.16949 1.34853 0
M  V30 17669 C 1602.49 2.29369 2.49485 0
M  V30 17670 C 1601.67 3.6066 2.47473 0
M  V30 17671 C 1600.73 3.79087 3.64937 0
M  V30 17672 O 1599.75 4.50923 3.47357 0
M  V30 17673 N 1600.95 3.19784 4.84478 0
M  V30 17674 H 1603.72 2.89208 0.786048 0
M  V30 17675 H 1601.28 1.59416 0.282491 0
M  V30 17676 H 1603.27 2.38889 3.26671 0
M  V30 17677 H 1601.84 1.45021 2.76925 0
M  V30 17678 H 1601.06 3.62095 1.55823 0
M  V30 17679 H 1602.35 4.46908 2.43209 0
M  V30 17680 H 1601.75 2.61436 5.01665 0
M  V30 17681 H 1600.31 3.34786 5.59251 0
M  V30 17682 N 1603.74 -0.364395 1.53329 0
M  V30 17683 C 1604.69 -1.44645 1.79851 0
M  V30 17684 C 1605.66 -1.53151 0.642951 0
M  V30 17685 O 1606.84 -1.6902 0.885252 0
M  V30 17686 C 1603.98 -2.81575 1.99523 0
M  V30 17687 C 1603.09 -2.82026 3.27239 0
M  V30 17688 C 1602.23 -4.1054 3.37091 0
M  V30 17689 C 1601.27 -4.05138 4.58835 0
M  V30 17690 N 1600.4 -5.25303 4.65834 0
M  V30 17691 H 1605.24 -1.21329 2.72182 0
M  V30 17692 H 1602.78 -0.588143 1.34831 0
M  V30 17693 H 1604.74 -3.61124 2.08915 0
M  V30 17694 H 1603.37 -3.03288 1.10527 0
M  V30 17695 H 1602.42 -1.94704 3.26794 0
M  V30 17696 H 1603.73 -2.73907 4.16865 0
M  V30 17697 H 1602.89 -4.98504 3.45801 0
M  V30 17698 H 1601.63 -4.21413 2.45483 0
M  V30 17699 H 1600.63 -3.1556 4.50224 0
M  V30 17700 H 1601.86 -3.95866 5.51785 0
M  V30 17701 H 1599.8 -5.36759 3.77128 0
M  V30 17702 H 1599.72 -5.19358 5.49367 0
M  V30 17703 H 1600.99 -6.15096 4.78829 0
M  V30 17704 N 1605.22 -1.44709 -0.62426 0
M  V30 17705 C 1606.13 -1.54608 -1.76447 0
M  V30 17706 C 1607.14 -0.43137 -1.68568 0
M  V30 17707 O 1608.32 -0.6897 -1.89222 0
M  V30 17708 C 1605.38 -1.49404 -3.12857 0
M  V30 17709 C 1604.44 -2.71782 -3.32315 0
M  V30 17710 C 1603.68 -2.66817 -4.62217 0
M  V30 17711 O 1603.9 -1.73205 -5.43467 0
M  V30 17712 O 1602.83 -3.57773 -4.84027 0
M  V30 17713 H 1606.66 -2.50951 -1.71048 0
M  V30 17714 H 1604.25 -1.27033 -0.786326 0
M  V30 17715 H 1606.13 -1.4905 -3.9416 0
M  V30 17716 H 1604.8 -0.562078 -3.18783 0
M  V30 17717 H 1603.71 -2.77702 -2.50664 0
M  V30 17718 H 1605.04 -3.64048 -3.31255 0
M  V30 17719 N 1606.69 0.865285 -1.31722 0
M  V30 17720 C 1607.62 1.98871 -1.22362 0
M  V30 17721 C 1608.61 1.69745 -0.109779 0
M  V30 17722 O 1609.79 1.91944 -0.295167 0
M  V30 17723 C 1606.92 3.34477 -0.935 0
M  V30 17724 C 1605.87 3.77924 -2.00892 0
M  V30 17725 C 1605.2 5.11042 -1.57291 0
M  V30 17726 C 1606.5 3.94528 -3.42264 0
M  V30 17727 H 1608.19 2.06959 -2.16352 0
M  V30 17728 H 1605.74 0.994355 -1.04157 0
M  V30 17729 H 1607.69 4.12612 -0.856111 0
M  V30 17730 H 1606.42 3.26575 0.0405536 0
M  V30 17731 H 1605.08 3.02032 -2.07779 0
M  V30 17732 H 1604.72 4.99586 -0.585084 0
M  V30 17733 H 1604.42 5.41082 -2.29138 0
M  V30 17734 H 1605.95 5.91681 -1.50818 0
M  V30 17735 H 1607.36 4.63045 -3.38027 0
M  V30 17736 H 1605.76 4.35972 -4.12369 0
M  V30 17737 H 1606.83 2.97765 -3.82706 0
M  V30 17738 N 1608.17 1.14759 1.0802 0
M  V30 17739 C 1609.12 0.833824 2.17141 0
M  V30 17740 C 1610.11 -0.189939 1.68332 0
M  V30 17741 O 1611.32 -0.0456447 1.79942 0
M  V30 17742 H 1607.7 0.251944 0.70854 0
M  V30 17743 H 1609.67 1.76196 2.40827 0
M  V30 17744 C 1608.42 0.33203 3.46111 0
M  V30 17745 H 1607.74 1.11117 3.84048 0
M  V30 17746 H 1609.18 0.151078 4.23731 0
M  V30 17747 C 1607.64 -0.945153 3.2337 0
M  V30 17748 O 1608.17 -2.0181 3.47326 0
M  V30 17749 N 1606.37 -0.881963 2.76893 0
M  V30 17750 H 1605.92 -0.00865768 2.57599 0
M  V30 17751 H 1605.88 -1.73706 2.62056 0
M  V30 17752 N 1609.65 -1.26251 0.943322 0
M  V30 17753 C 1610.56 -2.3003 0.460778 0
M  V30 17754 C 1611.58 -1.67635 -0.4663 0
M  V30 17755 O 1612.75 -1.98418 -0.345307 0
M  V30 17756 C 1609.82 -3.45691 -0.264291 0
M  V30 17757 C 1608.88 -4.23561 0.69961 0
M  V30 17758 C 1608.11 -5.33699 0.00904846 0
M  V30 17759 O 1608.33 -5.57473 -1.20748 0
M  V30 17760 O 1607.27 -5.97945 0.688839 0
M  V30 17761 H 1611.09 -2.73374 1.32289 0
M  V30 17762 H 1608.68 -1.31489 0.709297 0
M  V30 17763 H 1610.56 -4.15997 -0.672634 0
M  V30 17764 H 1609.24 -3.04373 -1.10176 0
M  V30 17765 H 1608.14 -3.55728 1.15794 0
M  V30 17766 H 1609.48 -4.68634 1.50476 0
M  V30 17767 N 1611.13 -0.710588 -1.40671 0
M  V30 17768 C 1612.06 -0.00399749 -2.282 0
M  V30 17769 C 1613.04 0.772757 -1.43064 0
M  V30 17770 O 1614.22 0.760441 -1.72481 0
M  V30 17771 C 1611.35 1.00173 -3.23548 0
M  V30 17772 C 1610.4 0.316378 -4.25325 0
M  V30 17773 S 1611.23 -0.952126 -5.26968 0
M  V30 17774 C 1612.39 0.0516252 -6.25879 0
M  V30 17775 H 1612.62 -0.746334 -2.8778 0
M  V30 17776 H 1610.15 -0.50142 -1.46031 0
M  V30 17777 H 1612.11 1.57679 -3.79009 0
M  V30 17778 H 1610.77 1.71674 -2.63034 0
M  V30 17779 H 1609.96 1.07649 -4.92369 0
M  V30 17780 H 1609.57 -0.185995 -3.73537 0
M  V30 17781 H 1611.86 0.900088 -6.71494 0
M  V30 17782 H 1612.8 -0.585297 -7.05677 0
M  V30 17783 H 1613.21 0.413117 -5.62986 0
M  V30 17784 N 1612.61 1.50847 -0.456408 0
M  V30 17785 C 1613.54 2.26004 0.381421 0
M  V30 17786 C 1614.55 1.30757 0.969872 0
M  V30 17787 O 1615.74 1.56375 0.86077 0
M  V30 17788 C 1612.84 3.01506 1.54748 0
M  V30 17789 C 1612.01 4.23997 1.07448 0
M  V30 17790 C 1611.07 4.81917 2.11288 0
M  V30 17791 O 1610.1 5.43238 1.69945 0
M  V30 17792 N 1611.3 4.67622 3.43962 0
M  V30 17793 H 1614.07 2.98545 -0.262823 0
M  V30 17794 H 1611.63 1.59347 -0.286357 0
M  V30 17795 H 1613.62 3.37137 2.23877 0
M  V30 17796 H 1612.19 2.31856 2.0967 0
M  V30 17797 H 1611.41 3.93642 0.209584 0
M  V30 17798 H 1612.7 5.03446 0.736144 0
M  V30 17799 H 1612.1 4.18821 3.8027 0
M  V30 17800 H 1610.65 5.07562 4.0893 0
M  V30 17801 N 1614.09 0.188454 1.56469 0
M  V30 17802 C 1615.05 -0.721282 2.17555 0
M  V30 17803 C 1616.05 -1.14579 1.1282 0
M  V30 17804 O 1617.24 -1.05996 1.38241 0
M  V30 17805 C 1614.37 -1.9839 2.77226 0
M  V30 17806 H 1615.56 -0.189218 2.99302 0
M  V30 17807 H 1613.12 -0.0611533 1.5618 0
M  V30 17808 H 1613.85 -2.55864 1.99259 0
M  V30 17809 H 1613.64 -1.68831 3.53891 0
M  V30 17810 H 1615.13 -2.63277 3.24153 0
M  V30 17811 N 1615.56 -1.5737 -0.0851874 0
M  V30 17812 C 1616.5 -1.99462 -1.12905 0
M  V30 17813 C 1617.51 -0.898597 -1.35754 0
M  V30 17814 O 1618.7 -1.17662 -1.34231 0
M  V30 17815 C 1615.8 -2.30689 -2.48266 0
M  V30 17816 C 1614.97 -3.61967 -2.45557 0
M  V30 17817 C 1614.03 -3.81017 -3.62922 0
M  V30 17818 O 1613.06 -4.52759 -3.44961 0
M  V30 17819 N 1614.26 -3.22348 -4.82775 0
M  V30 17820 H 1617.02 -2.89621 -0.7707 0
M  V30 17821 H 1614.58 -1.59564 -0.274033 0
M  V30 17822 H 1616.58 -2.40618 -3.254 0
M  V30 17823 H 1615.15 -1.46488 -2.76152 0
M  V30 17824 H 1614.37 -3.62916 -1.539 0
M  V30 17825 H 1615.65 -4.48191 -2.40836 0
M  V30 17826 H 1615.05 -2.64093 -5.00271 0
M  V30 17827 H 1613.61 -3.37747 -5.57468 0
M  V30 17828 N 1617.04 0.356258 -1.53521 0
M  V30 17829 C 1618.29 1.09526 -1.69372 0
M  V30 17830 C 1618.6 1.90189 -0.456912 0
M  V30 17831 O 1619.81 2.66928 -0.496141 0
M  V30 17832 C 1618.27 1.99643 -2.99451 0
M  V30 17833 C 1617.87 1.24248 -4.30426 0
M  V30 17834 C 1619.62 2.73478 -3.24669 0
M  V30 17835 C 1617.52 2.13321 -5.51587 0
M  V30 17836 H 1616.45 0.412594 -0.631096 0
M  V30 17837 H 1619.11 0.355603 -1.80021 0
M  V30 17838 H 1617.49 2.77377 -2.82627 0
M  V30 17839 H 1618.66 0.515123 -4.57912 0
M  V30 17840 H 1616.98 0.622355 -4.11723 0
M  V30 17841 H 1619.57 3.40366 -4.12377 0
M  V30 17842 H 1619.92 3.39355 -2.4113 0
M  V30 17843 H 1620.45 2.02823 -3.4221 0
M  V30 17844 H 1617.19 1.52006 -6.37632 0
M  V30 17845 H 1616.71 2.8388 -5.28368 0
M  V30 17846 H 1618.39 2.72666 -5.86739 0
M  V30 17847 N 1618.52 1.45038 0.616577 0
M  V30 17848 C 1619.48 1.52647 1.70973 0
M  V30 17849 C 1620.48 0.406902 1.55567 0
M  V30 17850 O 1621.67 0.670062 1.60797 0
M  V30 17851 C 1618.8 1.41438 3.10174 0
M  V30 17852 H 1620 2.50036 1.65596 0
M  V30 17853 H 1617.55 1.32346 0.831524 0
M  V30 17854 H 1618.29 0.451991 3.21135 0
M  V30 17855 H 1618.07 2.22634 3.22764 0
M  V30 17856 H 1619.56 1.49776 3.89817 0
M  V30 17857 N 1620 -0.858287 1.32179 0
M  V30 17858 C 1620.91 -1.99894 1.228 0
M  V30 17859 C 1621.92 -1.73417 0.142323 0
M  V30 17860 O 1623.1 -1.98114 0.362321 0
M  V30 17861 C 1620.16 -3.33495 0.947745 0
M  V30 17862 C 1619.23 -3.73217 2.12149 0
M  V30 17863 C 1618.46 -5.00443 1.85452 0
M  V30 17864 O 1618.68 -5.64828 0.79531 0
M  V30 17865 O 1617.62 -5.3721 2.71457 0
M  V30 17866 H 1621.44 -2.10742 2.18682 0
M  V30 17867 H 1619.03 -0.988385 1.12033 0
M  V30 17868 H 1620.91 -4.13585 0.807791 0
M  V30 17869 H 1619.58 -3.23694 0.019053 0
M  V30 17870 H 1618.49 -2.93718 2.3169 0
M  V30 17871 H 1619.82 -3.87659 3.03285 0
M  V30 17872 N 1621.48 -1.1533 -1.07409 0
M  V30 17873 C 1622.39 -0.863514 -2.1813 0
M  V30 17874 C 1623.4 0.159954 -1.73263 0
M  V30 17875 O 1624.58 -0.0139818 -2.01395 0
M  V30 17876 C 1621.64 -0.356271 -3.44865 0
M  V30 17877 C 1620.7 -1.44356 -4.04302 0
M  V30 17878 C 1619.94 -0.960429 -5.24987 0
M  V30 17879 O 1620.16 0.194227 -5.70069 0
M  V30 17880 O 1619.09 -1.74387 -5.76084 0
M  V30 17881 H 1622.92 -1.78909 -2.45408 0
M  V30 17882 H 1620.5 -0.932362 -1.16736 0
M  V30 17883 H 1622.39 -0.0798183 -4.21324 0
M  V30 17884 H 1621.06 0.541445 -3.1914 0
M  V30 17885 H 1619.97 -1.77361 -3.29384 0
M  V30 17886 H 1621.3 -2.31617 -4.34298 0
M  V30 17887 N 1622.95 1.25748 -0.950004 0
M  V30 17888 C 1624.18 1.97952 -0.618848 0
M  V30 17889 C 1624.6 1.70184 0.801194 0
M  V30 17890 O 1623.96 0.955032 1.54107 0
M  V30 17891 C 1624.01 3.49744 -0.878151 0
M  V30 17892 O 1623.11 4.12375 0.0453685 0
M  V30 17893 H 1622.45 0.620731 -0.235773 0
M  V30 17894 H 1624.98 1.59988 -1.27534 0
M  V30 17895 H 1624.99 4.00029 -0.802567 0
M  V30 17896 H 1623.67 3.69285 -1.91315 0
M  V30 17897 H 1622.25 3.7281 -0.0820265 0
M  V30 17898 N 1624.43 0.718038 1.40292 0
M  V30 17899 C 1625.36 0.0276294 2.29183 0
M  V30 17900 C 1626.38 -0.721208 1.45954 0
M  V30 17901 O 1627.57 -0.568181 1.69216 0
M  V30 17902 C 1624.67 -0.985139 3.24266 0
M  V30 17903 C 1623.84 -0.301327 4.36361 0
M  V30 17904 C 1622.9 -1.21982 5.11866 0
M  V30 17905 O 1621.92 -0.70369 5.64833 0
M  V30 17906 N 1623.13 -2.55079 5.21455 0
M  V30 17907 H 1625.89 0.790884 2.89076 0
M  V30 17908 H 1623.45 0.565867 1.51689 0
M  V30 17909 H 1625.44 -1.60183 3.7165 0
M  V30 17910 H 1624.01 -1.64973 2.65523 0
M  V30 17911 H 1623.23 0.495594 3.91072 0
M  V30 17912 H 1624.52 0.173238 5.08505 0
M  V30 17913 H 1623.92 -2.99506 4.79909 0
M  V30 17914 H 1622.48 -3.11886 5.72338 0
M  V30 17915 N 1625.91 -1.50602 0.464402 0
M  V30 17916 C 1627.16 -2.01478 -0.0945398 0
M  V30 17917 C 1627.47 -1.35165 -1.41386 0
M  V30 17918 O 1628.68 -1.7716 -2.05735 0
M  V30 17919 C 1627.13 -3.59233 -0.219003 0
M  V30 17920 C 1626.74 -4.345 1.09148 0
M  V30 17921 C 1628.49 -4.18172 -0.730262 0
M  V30 17922 C 1626.39 -5.84023 0.931179 0
M  V30 17923 H 1625.32 -0.752985 -0.0391065 0
M  V30 17924 H 1627.97 -1.73473 0.598283 0
M  V30 17925 H 1626.36 -3.83798 -0.975455 0
M  V30 17926 H 1627.53 -4.21665 1.85837 0
M  V30 17927 H 1625.85 -3.8714 1.53334 0
M  V30 17928 H 1628.44 -5.27622 -0.867119 0
M  V30 17929 H 1628.79 -3.79113 -1.71986 0
M  V30 17930 H 1629.32 -3.97788 -0.0313808 0
M  V30 17931 H 1626.06 -6.27543 1.89395 0
M  V30 17932 H 1625.58 -5.99451 0.20456 0
M  V30 17933 H 1627.26 -6.44257 0.595118 0
M  V30 17934 N 1627.39 -0.19675 -1.56367 0
M  V30 17935 C 1628.8 0.159068 -1.58805 0
M  V30 17936 C 1629 1.60902 -1.21297 0
M  V30 17937 O 1628.06 2.34491 -0.93649 0
M  V30 17938 C 1629.37 -0.144784 -3.00351 0
M  V30 17939 C 1630.92 -0.0850243 -3.12884 0
M  V30 17940 C 1631.4 -0.362209 -4.56565 0
M  V30 17941 N 1632.89 -0.310887 -4.62156 0
M  V30 17942 C 1633.62 -0.499187 -5.71223 0
M  V30 17943 N 1633.12 -0.747925 -6.88751 0
M  V30 17944 N 1634.91 -0.433329 -5.60427 0
M  V30 17945 H 1627.06 -1.1429 -1.79029 0
M  V30 17946 H 1629.33 -0.456298 -0.830961 0
M  V30 17947 H 1629.03 -1.15019 -3.3236 0
M  V30 17948 H 1628.91 0.551864 -3.73141 0
M  V30 17949 H 1631.29 0.910992 -2.80687 0
M  V30 17950 H 1631.37 -0.814774 -2.42477 0
M  V30 17951 H 1631.02 -1.35555 -4.89477 0
M  V30 17952 H 1630.95 0.388448 -5.25165 0
M  V30 17953 H 1633.44 -0.125318 -3.77692 0
M  V30 17954 H 1633.75 -0.880372 -7.67769 0
M  V30 17955 H 1632.1 -0.784838 -6.90554 0
M  V30 17956 H 1635.29 -0.239411 -4.67487 0
M  V30 17957 H 1635.46 -0.583495 -6.45368 0
M  V30 17958 N 1628.87 1.57413 0.0768405 0
M  V30 17959 C 1630.12 1.86186 0.775741 0
M  V30 17960 C 1630.43 0.788676 1.78995 0
M  V30 17961 O 1631.63 0.964095 2.53806 0
M  V30 17962 C 1630.09 3.30247 1.43055 0
M  V30 17963 C 1629.7 4.45682 0.45517 0
M  V30 17964 C 1631.44 3.68225 2.11211 0
M  V30 17965 C 1629.35 5.80782 1.11561 0
M  V30 17966 H 1628.28 0.694546 0.293466 0
M  V30 17967 H 1630.93 1.83477 0.0289478 0
M  V30 17968 H 1629.31 3.27552 2.22544 0
M  V30 17969 H 1630.49 4.59759 -0.309535 0
M  V30 17970 H 1628.8 4.16222 -0.121671 0
M  V30 17971 H 1631.4 4.66454 2.6139 0
M  V30 17972 H 1631.74 2.9777 2.90928 0
M  V30 17973 H 1632.27 3.72888 1.38561 0
M  V30 17974 H 1629.01 6.54517 0.358877 0
M  V30 17975 H 1628.53 5.70515 1.8513 0
M  V30 17976 H 1630.21 6.25951 1.63689 0
M  V30 17977 N 1630.34 -0.348112 1.53707 0
M  V30 17978 C 1631.25 -1.45079 1.84361 0
M  V30 17979 C 1632.27 -1.5779 0.733375 0
M  V30 17980 O 1633.45 -1.73353 1.02522 0
M  V30 17981 C 1630.51 -2.80127 2.04278 0
M  V30 17982 C 1629.57 -2.76799 3.28148 0
M  V30 17983 C 1628.81 -4.05406 3.47105 0
M  V30 17984 O 1629.03 -5.02454 2.69992 0
M  V30 17985 O 1627.96 -4.10155 4.40519 0
M  V30 17986 H 1631.79 -1.22093 2.78077 0
M  V30 17987 H 1629.37 -0.539863 1.39305 0
M  V30 17988 H 1631.26 -3.60115 2.18849 0
M  V30 17989 H 1629.93 -3.03055 1.13751 0
M  V30 17990 H 1628.84 -1.95448 3.18984 0
M  V30 17991 H 1630.17 -2.58826 4.18653 0
M  V30 17992 N 1631.82 -1.45363 -0.608876 0
M  V30 17993 C 1632.75 -1.56778 -1.7304 0
M  V30 17994 C 1633.73 -0.419405 -1.64848 0
M  V30 17995 O 1634.92 -0.64238 -1.83268 0
M  V30 17996 C 1632.05 -1.5329 -3.1164 0
M  V30 17997 C 1631 -2.66832 -3.34641 0
M  V30 17998 C 1630.33 -2.48398 -4.735 0
M  V30 17999 C 1631.63 -4.0885 -3.25021 0
M  V30 18000 H 1633.32 -2.50656 -1.63743 0
M  V30 18001 H 1630.87 -1.20635 -0.786338 0
M  V30 18002 H 1632.82 -1.59873 -3.89895 0
M  V30 18003 H 1631.55 -0.559414 -3.21773 0
M  V30 18004 H 1630.2 -2.59675 -2.58775 0
M  V30 18005 H 1629.85 -1.49191 -4.80366 0
M  V30 18006 H 1629.55 -3.24537 -4.89846 0
M  V30 18007 H 1631.08 -2.56833 -5.53958 0
M  V30 18008 H 1632.49 -4.17257 -3.93153 0
M  V30 18009 H 1630.89 -4.85369 -3.52897 0
M  V30 18010 H 1631.96 -4.30849 -2.2248 0
M  V30 18011 N 1633.3 0.851265 -1.32632 0
M  V30 18012 C 1634.23 1.96682 -1.17681 0
M  V30 18013 C 1635.25 1.62422 -0.110926 0
M  V30 18014 O 1636.43 1.74828 -0.360202 0
M  V30 18015 C 1633.53 3.29806 -0.779838 0
M  V30 18016 C 1632.71 3.92284 -1.93473 0
M  V30 18017 C 1631.77 5.03745 -1.52075 0
M  V30 18018 O 1630.79 5.23558 -2.23328 0
M  V30 18019 N 1631.99 5.78988 -0.418695 0
M  V30 18020 H 1634.76 2.10049 -2.13775 0
M  V30 18021 H 1632.32 1.02631 -1.25214 0
M  V30 18022 H 1634.31 4.0178 -0.485236 0
M  V30 18023 H 1632.88 3.1247 0.0900498 0
M  V30 18024 H 1632.1 3.13054 -2.39564 0
M  V30 18025 H 1633.39 4.30762 -2.7078 0
M  V30 18026 H 1632.79 5.65432 0.174269 0
M  V30 18027 H 1631.35 6.51541 -0.183714 0
M  V30 18028 N 1634.78 1.15898 1.06796 0
M  V30 18029 C 1635.71 0.804414 2.13552 0
M  V30 18030 C 1636.69 -0.22167 1.61082 0
M  V30 18031 O 1637.87 -0.106925 1.88196 0
M  V30 18032 C 1635 0.197166 3.38126 0
M  V30 18033 C 1634.05 1.19605 4.09386 0
M  V30 18034 S 1634.88 2.74054 4.6006 0
M  V30 18035 C 1636.04 2.14764 5.87901 0
M  V30 18036 H 1636.27 1.7086 2.43298 0
M  V30 18037 H 1633.8 0.981915 1.19154 0
M  V30 18038 H 1635.76 -0.14674 4.10238 0
M  V30 18039 H 1634.42 -0.684706 3.06546 0
M  V30 18040 H 1633.61 0.719491 4.98838 0
M  V30 18041 H 1633.22 1.48478 3.43264 0
M  V30 18042 H 1635.51 1.51317 6.60386 0
M  V30 18043 H 1636.45 3.02406 6.40278 0
M  V30 18044 H 1636.86 1.58846 5.4169 0
M  V30 18045 N 1636.26 -1.25243 0.956659 0
M  V30 18046 C 1637.48 -1.97082 0.629791 0
M  V30 18047 C 1637.9 -1.71082 -0.798529 0
M  V30 18048 O 1637.26 -0.98805 -1.5344 0
M  V30 18049 C 1637.31 -3.5059 0.881406 0
M  V30 18050 O 1637.03 -3.75694 2.25356 0
M  V30 18051 C 1638.53 -4.39656 0.567203 0
M  V30 18052 H 1635.75 -0.628152 0.235938 0
M  V30 18053 H 1638.29 -1.5936 1.28159 0
M  V30 18054 H 1636.45 -3.86416 0.27599 0
M  V30 18055 H 1636.86 -4.70142 2.32523 0
M  V30 18056 H 1638.34 -5.46263 0.793785 0
M  V30 18057 H 1638.81 -4.36364 -0.498287 0
M  V30 18058 H 1639.42 -4.094 1.15203 0
M  V30 18059 N 1637.73 -0.725468 -1.3991 0
M  V30 18060 C 1638.66 -0.094211 -2.3331 0
M  V30 18061 C 1639.65 0.734728 -1.53414 0
M  V30 18062 O 1640.83 0.681647 -1.81844 0
M  V30 18063 C 1637.96 0.820958 -3.37457 0
M  V30 18064 C 1636.91 0.0968983 -4.2789 0
M  V30 18065 C 1636.24 1.12845 -5.22657 0
M  V30 18066 C 1637.54 -1.05483 -5.11537 0
M  V30 18067 H 1639.23 -0.874365 -2.86348 0
M  V30 18068 H 1636.78 -0.421913 -1.3768 0
M  V30 18069 H 1638.73 1.27203 -4.01743 0
M  V30 18070 H 1637.46 1.63312 -2.82837 0
M  V30 18071 H 1636.12 -0.334454 -3.65071 0
M  V30 18072 H 1635.76 1.93392 -4.64337 0
M  V30 18073 H 1635.46 0.648805 -5.84007 0
M  V30 18074 H 1636.99 1.57942 -5.89819 0
M  V30 18075 H 1638.4 -0.682657 -5.69221 0
M  V30 18076 H 1636.8 -1.46349 -5.81981 0
M  V30 18077 H 1637.87 -1.88095 -4.46932 0
M  V30 18078 N 1639.21 1.50354 -0.472382 0
M  V30 18079 C 1640.49 1.95071 0.143803 0
M  V30 18080 C 1640.87 1.41281 1.56853 0
M  V30 18081 O 1640.22 0.614349 2.20086 0
M  V30 18082 C 1640.43 3.48895 0.0857944 0
M  V30 18083 C 1641.78 4.23715 0.274039 0
M  V30 18084 O 1642.8 3.5583 0.162319 0
M  V30 18085 O 1641.66 5.4421 0.499815 0
M  V30 18086 H 1638.75 0.819521 0.110966 0
M  V30 18087 H 1641.3 1.61116 -0.532876 0
M  V30 18088 H 1640.07 3.80598 -0.908887 0
M  V30 18089 H 1639.69 3.89389 0.803875 0
M  V30 18090 N 1640.69 0.205039 1.56261 0
M  V30 18091 C 1641.92 -0.439502 2.0269 0
M  V30 18092 C 1642.34 -1.53715 1.08413 0
M  V30 18093 O 1641.7 -1.81167 0.0693616 0
M  V30 18094 C 1641.75 -0.963672 3.47485 0
M  V30 18095 O 1640.85 -2.07602 3.56336 0
M  V30 18096 H 1640.19 -0.101543 0.65619 0
M  V30 18097 H 1642.72 0.318835 2.021 0
M  V30 18098 H 1642.73 -1.27773 3.87476 0
M  V30 18099 H 1641.41 -0.160203 4.15591 0
M  V30 18100 H 1639.98 -1.76985 3.28224 0
M  V30 18101 N 1642.17 -1.57451 -0.0684915 0
M  V30 18102 C 1643.12 -2.03916 -1.08105 0
M  V30 18103 C 1644.09 -0.920418 -1.38266 0
M  V30 18104 O 1645.27 -1.18831 -1.49277 0
M  V30 18105 C 1642.41 -2.49075 -2.38863 0
M  V30 18106 C 1641.52 -3.74581 -2.15204 0
M  V30 18107 C 1640.66 -4.08509 -3.39549 0
M  V30 18108 C 1639.7 -5.27046 -3.11269 0
M  V30 18109 N 1638.84 -5.56597 -4.27954 0
M  V30 18110 H 1643.68 -2.90188 -0.677843 0
M  V30 18111 H 1641.21 -1.43507 -0.32313 0
M  V30 18112 H 1643.17 -2.7331 -3.1521 0
M  V30 18113 H 1641.8 -1.65776 -2.76981 0
M  V30 18114 H 1640.85 -3.57666 -1.29535 0
M  V30 18115 H 1642.16 -4.61065 -1.90317 0
M  V30 18116 H 1641.32 -4.33663 -4.24289 0
M  V30 18117 H 1640.06 -3.20599 -3.67515 0
M  V30 18118 H 1639.06 -5.01686 -2.24926 0
M  V30 18119 H 1640.29 -6.16577 -2.84622 0
M  V30 18120 H 1638.23 -4.71646 -4.55945 0
M  V30 18121 H 1638.15 -6.37506 -4.06352 0
M  V30 18122 H 1639.42 -5.86303 -5.13681 0
M  V30 18123 N 1643.65 0.339955 -1.5389 0
M  V30 18124 C 1644.92 1.09703 -1.6194 0
M  V30 18125 C 1645.3 2.06401 -0.442907 0
M  V30 18126 O 1644.65 2.21418 0.564477 0
M  V30 18127 C 1644.86 1.8135 -2.98183 0
M  V30 18128 C 1646.21 2.34965 -3.53662 0
M  V30 18129 O 1647.23 1.91442 -3.00381 0
M  V30 18130 O 1646.09 3.14601 -4.46865 0
M  V30 18131 H 1643.19 0.504703 -0.655136 0
M  V30 18132 H 1645.73 0.34116 -1.66235 0
M  V30 18133 H 1644.51 1.10924 -3.75249 0
M  V30 18134 H 1644.13 2.63787 -2.97494 0
M  V30 18135 N 1645.13 1.45684 0.601159 0
M  V30 18136 C 1646.35 1.53806 1.39135 0
M  V30 18137 C 1646.78 0.173625 1.87297 0
M  V30 18138 O 1646.13 -0.842931 1.60513 0
M  V30 18139 C 1646.18 2.53201 2.56752 0
M  V30 18140 O 1645.29 2.05427 3.57594 0
M  V30 18141 H 1644.63 0.51824 0.415118 0
M  V30 18142 H 1647.16 1.91095 0.731006 0
M  V30 18143 H 1647.17 2.72215 3.03912 0
M  V30 18144 H 1645.84 3.52294 2.21047 0
M  V30 18145 H 1644.42 1.96318 3.17039 0
M  V30 18146 N 1646.6 -0.84422 1.33082 0
M  V30 18147 C 1647.88 -1.58339 1.1484 0
M  V30 18148 C 1648.26 -2.09136 -0.287273 0
M  V30 18149 O 1647.61 -1.8891 -1.2855 0
M  V30 18150 C 1647.82 -2.72141 2.18496 0
M  V30 18151 C 1649.17 -3.41457 2.52373 0
M  V30 18152 O 1650.19 -2.82377 2.17122 0
M  V30 18153 O 1649.05 -4.48096 3.12845 0
M  V30 18154 H 1646.14 -0.697813 0.443831 0
M  V30 18155 H 1648.69 -0.88744 1.44646 0
M  V30 18156 H 1647.46 -2.32206 3.14954 0
M  V30 18157 H 1647.08 -3.49404 1.89744 0
M  V30 18158 N 1648.08 -1.16463 -1.0618 0
M  V30 18159 C 1649.33 -0.941322 -1.78387 0
M  V30 18160 C 1649.64 0.531995 -1.88226 0
M  V30 18161 O 1650.85 0.873227 -2.57074 0
M  V30 18162 C 1649.31 -1.63491 -3.20623 0
M  V30 18163 C 1648.91 -3.14607 -3.18946 0
M  V30 18164 C 1650.66 -1.49361 -3.97356 0
M  V30 18165 C 1648.56 -3.76698 -4.55908 0
M  V30 18166 H 1647.49 -0.348549 -0.668603 0
M  V30 18167 H 1650.15 -1.39607 -1.19088 0
M  V30 18168 H 1648.53 -1.10787 -3.80187 0
M  V30 18169 H 1649.7 -3.74164 -2.68957 0
M  V30 18170 H 1648.02 -3.28634 -2.55712 0
M  V30 18171 H 1650.61 -1.93131 -4.98603 0
M  V30 18172 H 1650.96 -0.442724 -4.13939 0
M  V30 18173 H 1651.49 -1.99227 -3.44316 0
M  V30 18174 H 1648.23 -4.8174 -4.4453 0
M  V30 18175 H 1647.75 -3.21927 -5.06086 0
M  V30 18176 H 1649.43 -3.78321 -5.24864 0
M  V30 18177 N 1649.56 1.24734 -0.963288 0
M  V30 18178 C 1650.47 2.29268 -0.497316 0
M  V30 18179 C 1651.49 1.68356 0.439572 0
M  V30 18180 O 1652.66 1.98942 0.313697 0
M  V30 18181 C 1649.73 3.46068 0.209261 0
M  V30 18182 C 1648.79 4.22394 -0.766907 0
M  V30 18183 C 1648.02 5.33617 -0.0939542 0
M  V30 18184 O 1648.24 5.59323 1.11864 0
M  V30 18185 O 1647.18 5.96774 -0.78388 0
M  V30 18186 H 1651 2.71235 -1.36622 0
M  V30 18187 H 1648.59 1.30344 -0.730126 0
M  V30 18188 H 1650.47 4.17015 0.606367 0
M  V30 18189 H 1649.15 3.06087 1.0532 0
M  V30 18190 H 1648.05 3.53841 -1.21439 0
M  V30 18191 H 1649.39 4.66181 -1.57912 0
M  V30 18192 N 1651.04 0.732878 1.39523 0
M  V30 18193 C 1651.97 0.0519358 2.29141 0
M  V30 18194 C 1652.98 -0.705687 1.4671 0
M  V30 18195 O 1654.17 -0.550202 1.69809 0
M  V30 18196 C 1651.27 -0.950691 3.25292 0
M  V30 18197 C 1650.44 -0.255028 4.36656 0
M  V30 18198 C 1649.5 -1.16546 5.13131 0
M  V30 18199 O 1648.53 -0.643742 5.65548 0
M  V30 18200 N 1649.73 -2.49534 5.24131 0
M  V30 18201 H 1652.5 0.8215 2.88221 0
M  V30 18202 H 1650.06 0.581924 1.5108 0
M  V30 18203 H 1652.05 -1.56232 3.73328 0
M  V30 18204 H 1650.62 -1.62148 2.67258 0
M  V30 18205 H 1649.84 0.537045 3.90525 0
M  V30 18206 H 1651.13 0.227162 5.08293 0
M  V30 18207 H 1650.53 -2.944 4.83058 0
M  V30 18208 H 1649.08 -3.05798 5.75613 0
M  V30 18209 N 1652.52 -1.50101 0.480349 0
M  V30 18210 C 1653.45 -2.31581 -0.298718 0
M  V30 18211 C 1654.43 -1.38905 -0.981798 0
M  V30 18212 O 1655.61 -1.67823 -0.977188 0
M  V30 18213 C 1652.74 -3.18891 -1.37571 0
M  V30 18214 C 1651.7 -4.20194 -0.813704 0
M  V30 18215 C 1651.02 -4.96302 -1.98968 0
M  V30 18216 C 1652.32 -5.21985 0.181295 0
M  V30 18217 H 1654.02 -2.96961 0.381349 0
M  V30 18218 H 1651.56 -1.42809 0.184842 0
M  V30 18219 H 1653.51 -3.74694 -1.92828 0
M  V30 18220 H 1652.24 -2.51414 -2.08467 0
M  V30 18221 H 1650.9 -3.65506 -0.283034 0
M  V30 18222 H 1650.55 -4.2529 -2.68584 0
M  V30 18223 H 1650.25 -5.64833 -1.61981 0
M  V30 18224 H 1651.77 -5.54943 -2.54698 0
M  V30 18225 H 1653.18 -5.72604 -0.28242 0
M  V30 18226 H 1651.58 -5.98289 0.465916 0
M  V30 18227 H 1652.65 -4.72162 1.10413 0
M  V30 18228 N 1653.99 -0.213323 -1.5615 0
M  V30 18229 C 1655.41 0.142215 -1.58965 0
M  V30 18230 C 1655.61 1.59606 -1.22996 0
M  V30 18231 O 1654.67 2.33485 -0.961308 0
M  V30 18232 C 1655.98 -0.176632 -3.00181 0
M  V30 18233 C 1657.53 -0.118205 -3.12777 0
M  V30 18234 C 1658 -0.410614 -4.56156 0
M  V30 18235 N 1659.49 -0.359887 -4.618 0
M  V30 18236 C 1660.23 -0.559744 -5.70661 0
M  V30 18237 N 1659.72 -0.820934 -6.87919 0
M  V30 18238 N 1661.52 -0.492746 -5.59936 0
M  V30 18239 H 1653.67 -1.16182 -1.77807 0
M  V30 18240 H 1655.93 -0.465086 -0.826075 0
M  V30 18241 H 1655.64 -1.18538 -3.31122 0
M  V30 18242 H 1655.51 0.512256 -3.73705 0
M  V30 18243 H 1657.9 0.88117 -2.81637 0
M  V30 18244 H 1657.98 -0.840446 -2.41599 0
M  V30 18245 H 1657.62 -1.40739 -4.88011 0
M  V30 18246 H 1657.55 0.332725 -5.25548 0
M  V30 18247 H 1660.04 -0.16537 -3.77538 0
M  V30 18248 H 1660.36 -0.961755 -7.66792 0
M  V30 18249 H 1658.7 -0.858036 -6.89683 0
M  V30 18250 H 1661.89 -0.288981 -4.67207 0
M  V30 18251 H 1662.07 -0.651912 -6.44712 0
M  V30 18252 N 1655.47 1.57485 0.0601405 0
M  V30 18253 C 1656.7 1.92438 0.773466 0
M  V30 18254 C 1657.12 0.810755 1.6973 0
M  V30 18255 O 1656.48 -0.235697 1.79761 0
M  V30 18256 C 1656.53 3.26381 1.53323 0
M  V30 18257 O 1655.63 3.16436 2.64465 0
M  V30 18258 H 1654.97 0.629838 0.210239 0
M  V30 18259 H 1657.5 2.04585 0.0248981 0
M  V30 18260 H 1657.51 3.60534 1.90996 0
M  V30 18261 H 1656.19 4.07007 0.855468 0
M  V30 18262 H 1654.77 2.93862 2.29564 0
M  V30 18263 N 1656.95 -0.331789 1.54068 0
M  V30 18264 C 1657.88 -1.42889 1.79208 0
M  V30 18265 C 1658.9 -1.48204 0.673754 0
M  V30 18266 O 1660.08 -1.51075 0.950712 0
M  V30 18267 C 1657.18 -2.81477 1.88743 0
M  V30 18268 C 1656.36 -2.99463 3.18812 0
M  V30 18269 C 1655.42 -4.18363 3.19154 0
M  V30 18270 O 1654.44 -4.11916 3.92828 0
M  V30 18271 N 1655.64 -5.27489 2.42354 0
M  V30 18272 H 1658.41 -1.21689 2.73883 0
M  V30 18273 H 1655.97 -0.521735 1.53263 0
M  V30 18274 H 1657.96 -3.59213 1.86409 0
M  V30 18275 H 1656.53 -2.95765 1.01202 0
M  V30 18276 H 1655.75 -2.09097 3.34174 0
M  V30 18277 H 1657.04 -3.0837 4.04704 0
M  V30 18278 H 1656.44 -5.35599 1.82071 0
M  V30 18279 H 1655 -6.03674 2.45806 0
M  V30 18280 N 1658.43 -1.46001 -0.593424 0
M  V30 18281 C 1659.36 -1.58605 -1.71367 0
M  V30 18282 C 1660.34 -0.436866 -1.64394 0
M  V30 18283 O 1661.52 -0.661782 -1.82576 0
M  V30 18284 C 1658.65 -1.56587 -3.09996 0
M  V30 18285 C 1657.61 -2.70366 -3.31792 0
M  V30 18286 C 1656.93 -2.53406 -4.70839 0
M  V30 18287 C 1658.23 -4.12274 -3.20667 0
M  V30 18288 H 1659.93 -2.52379 -1.61076 0
M  V30 18289 H 1657.47 -1.21462 -0.773499 0
M  V30 18290 H 1659.43 -1.64 -3.88178 0
M  V30 18291 H 1658.15 -0.593511 -3.21162 0
M  V30 18292 H 1656.81 -2.62405 -2.56006 0
M  V30 18293 H 1656.46 -1.54278 -4.78756 0
M  V30 18294 H 1656.16 -3.29715 -4.86376 0
M  V30 18295 H 1657.68 -2.62694 -5.51203 0
M  V30 18296 H 1659.1 -4.21404 -3.88705 0
M  V30 18297 H 1657.49 -4.89085 -3.47729 0
M  V30 18298 H 1658.56 -4.33184 -2.17898 0
M  V30 18299 N 1659.91 0.83715 -1.33527 0
M  V30 18300 C 1660.84 1.95423 -1.1976 0
M  V30 18301 C 1661.85 1.62295 -0.128147 0
M  V30 18302 O 1663.04 1.74436 -0.378725 0
M  V30 18303 C 1660.14 3.2896 -0.814775 0
M  V30 18304 C 1659.31 3.9021 -1.97623 0
M  V30 18305 C 1658.37 5.02104 -1.5741 0
M  V30 18306 O 1657.4 5.2116 -2.28868 0
M  V30 18307 N 1658.6 5.78511 -0.480081 0
M  V30 18308 H 1661.37 2.0777 -2.15991 0
M  V30 18309 H 1658.93 1.01297 -1.26295 0
M  V30 18310 H 1660.92 4.01243 -0.527823 0
M  V30 18311 H 1659.49 3.12548 0.0569031 0
M  V30 18312 H 1658.71 3.10495 -2.42871 0
M  V30 18313 H 1660 4.27865 -2.75334 0
M  V30 18314 H 1659.39 5.65585 0.114287 0
M  V30 18315 H 1657.95 6.5131 -0.252808 0
M  V30 18316 N 1661.38 1.17024 1.05561 0
M  V30 18317 C 1662.35 0.885897 2.11387 0
M  V30 18318 C 1663.35 -0.122327 1.60334 0
M  V30 18319 O 1664.54 0.109416 1.73856 0
M  V30 18320 C 1661.67 0.32626 3.39335 0
M  V30 18321 H 1662.86 1.82414 2.38045 0
M  V30 18322 H 1660.42 0.980191 1.21745 0
M  V30 18323 H 1661.15 -0.619308 3.18332 0
M  V30 18324 H 1660.94 1.05285 3.777 0
M  V30 18325 H 1662.43 0.145513 4.17346 0
M  V30 18326 N 1662.86 -1.24221 0.969889 0
M  V30 18327 C 1663.79 -2.27619 0.520745 0
M  V30 18328 C 1664.77 -1.64291 -0.440731 0
M  V30 18329 O 1665.96 -1.91265 -0.336381 0
M  V30 18330 C 1663.09 -3.46792 -0.187768 0
M  V30 18331 C 1662.04 -4.22402 0.689945 0
M  V30 18332 C 1661.37 -5.34489 -0.150186 0
M  V30 18333 C 1662.67 -4.83494 1.97562 0
M  V30 18334 H 1664.36 -2.65441 1.38498 0
M  V30 18335 H 1661.91 -1.276 0.667398 0
M  V30 18336 H 1663.86 -4.18263 -0.513216 0
M  V30 18337 H 1662.59 -3.08002 -1.08637 0
M  V30 18338 H 1661.24 -3.52734 0.998696 0
M  V30 18339 H 1660.89 -4.9194 -1.049 0
M  V30 18340 H 1660.59 -5.85996 0.433891 0
M  V30 18341 H 1662.12 -6.08786 -0.470255 0
M  V30 18342 H 1663.53 -5.47028 1.71561 0
M  V30 18343 H 1661.93 -5.45243 2.5066 0
M  V30 18344 H 1663 -4.04826 2.66915 0
M  V30 18345 N 1664.34 -0.740267 -1.39132 0
M  V30 18346 C 1665.29 -0.0797035 -2.27861 0
M  V30 18347 C 1666.27 0.707146 -1.44528 0
M  V30 18348 O 1667.47 0.575289 -1.6739 0
M  V30 18349 C 1664.6 0.822818 -3.33294 0
M  V30 18350 C 1663.68 0.029836 -4.2409 0
M  V30 18351 N 1664.07 -0.999737 -4.95821 0
M  V30 18352 C 1662.37 0.258692 -4.45249 0
M  V30 18353 C 1663.07 -1.47837 -5.626 0
M  V30 18354 N 1662.05 -0.796028 -5.3774 0
M  V30 18355 H 1665.85 -0.868435 -2.80776 0
M  V30 18356 H 1663.36 -0.575079 -1.51877 0
M  V30 18357 H 1665.36 1.31157 -3.95732 0
M  V30 18358 H 1664.02 1.61065 -2.81936 0
M  V30 18359 H 1665.03 -1.38123 -4.99142 0
M  V30 18360 H 1661.71 1.02091 -4.04825 0
M  V30 18361 H 1663.1 -2.33524 -6.30013 0
M  V30 18362 N 1665.82 1.49844 -0.488302 0
M  V30 18363 C 1667.07 2.01603 0.0624744 0
M  V30 18364 C 1667.38 1.37397 1.39217 0
M  V30 18365 O 1668.59 1.8041 2.0289 0
M  V30 18366 C 1667.04 3.59536 0.161824 0
M  V30 18367 C 1666.65 4.32709 -1.16047 0
M  V30 18368 C 1668.39 4.1928 0.663642 0
M  V30 18369 C 1666.3 5.82468 -1.02397 0
M  V30 18370 H 1665.23 0.753512 0.0271222 0
M  V30 18371 H 1667.88 1.72499 -0.625805 0
M  V30 18372 H 1666.26 3.85301 0.914273 0
M  V30 18373 H 1667.44 4.18655 -1.92522 0
M  V30 18374 H 1665.75 3.84652 -1.59473 0
M  V30 18375 H 1668.35 5.28935 0.783069 0
M  V30 18376 H 1668.69 3.81801 1.65933 0
M  V30 18377 H 1669.23 3.97787 -0.0319078 0
M  V30 18378 H 1665.97 6.2445 -1.99355 0
M  V30 18379 H 1665.49 5.9905 -0.299902 0
M  V30 18380 H 1667.16 6.43229 -0.697538 0
M  V30 18381 N 1667.3 0.221601 1.56034 0
M  V30 18382 C 1668.54 -0.409277 1.97912 0
M  V30 18383 C 1668.87 -1.60291 1.11049 0
M  V30 18384 O 1668.14 -1.95 0.187529 0
M  V30 18385 H 1666.72 -0.154201 0.730911 0
M  V30 18386 H 1669.38 0.314508 1.92346 0
M  V30 18387 H 1668.47 -0.73557 3.03308 0
M  V30 18388 N 1668.77 -1.57515 -0.0517878 0
M  V30 18389 C 1669.7 -2.0809 -1.05929 0
M  V30 18390 C 1670.69 -0.978529 -1.39136 0
M  V30 18391 O 1671.87 -1.25245 -1.48416 0
M  V30 18392 C 1669 -2.54147 -2.36699 0
M  V30 18393 C 1667.95 -3.68442 -2.17794 0
M  V30 18394 C 1667.28 -4.00624 -3.54125 0
M  V30 18395 C 1668.58 -4.97743 -1.5827 0
M  V30 18396 H 1670.27 -2.92515 -0.638371 0
M  V30 18397 H 1667.82 -1.40719 -0.305625 0
M  V30 18398 H 1669.77 -2.88145 -3.07491 0
M  V30 18399 H 1668.5 -1.66775 -2.80809 0
M  V30 18400 H 1667.16 -3.34758 -1.4944 0
M  V30 18401 H 1666.8 -3.10353 -3.95841 0
M  V30 18402 H 1666.5 -4.77597 -3.42308 0
M  V30 18403 H 1668.03 -4.37136 -4.26315 0
M  V30 18404 H 1669.44 -5.29843 -2.18951 0
M  V30 18405 H 1667.84 -5.79173 -1.57094 0
M  V30 18406 H 1668.91 -4.81815 -0.546127 0
M  V30 18407 N 1670.25 0.323614 -1.54242 0
M  V30 18408 C 1671.53 1.07979 -1.63095 0
M  V30 18409 C 1671.91 2.0592 -0.464774 0
M  V30 18410 O 1671.26 2.22004 0.540961 0
M  V30 18411 C 1671.47 1.78178 -3.0009 0
M  V30 18412 C 1672.82 2.31201 -3.56134 0
M  V30 18413 O 1673.84 1.88245 -3.02394 0
M  V30 18414 O 1672.7 3.09843 -4.50177 0
M  V30 18415 H 1669.79 0.497726 -0.660453 0
M  V30 18416 H 1672.34 0.323509 -1.66588 0
M  V30 18417 H 1671.11 1.06938 -3.76404 0
M  V30 18418 H 1670.73 2.60616 -3.00275 0
M  V30 18419 N 1671.73 1.46313 0.585673 0
M  V30 18420 C 1672.96 1.55273 1.37496 0
M  V30 18421 C 1673.38 0.193481 1.87102 0
M  V30 18422 O 1672.74 -0.825859 1.61398 0
M  V30 18423 C 1672.79 2.5591 2.54052 0
M  V30 18424 O 1671.89 2.09208 3.55395 0
M  V30 18425 H 1671.23 0.522614 0.409598 0
M  V30 18426 H 1673.76 1.9186 0.710697 0
M  V30 18427 H 1673.77 2.75424 3.01008 0
M  V30 18428 H 1672.45 3.54619 2.17298 0
M  V30 18429 H 1671.02 1.9967 3.14939 0
M  V30 18430 N 1673.21 -0.830057 1.33969 0
M  V30 18431 C 1674.43 -1.62294 1.29133 0
M  V30 18432 C 1674.86 -1.87627 -0.133253 0
M  V30 18433 O 1674.22 -1.44669 -1.09272 0
M  V30 18434 C 1674.27 -2.94508 2.0808 0
M  V30 18435 O 1673.37 -3.86239 1.44544 0
M  V30 18436 H 1672.71 -0.493865 0.443839 0
M  V30 18437 H 1675.24 -1.03202 1.76665 0
M  V30 18438 H 1675.25 -3.44133 2.19173 0
M  V30 18439 H 1673.93 -2.75392 3.1166 0
M  V30 18440 H 1672.5 -3.44743 1.42151 0
M  V30 18441 N 1674.69 -1.17582 -1.04939 0
M  V30 18442 C 1675.91 -0.99097 -1.82194 0
M  V30 18443 C 1676.34 0.455965 -1.8249 0
M  V30 18444 O 1675.7 1.32661 -1.23575 0
M  V30 18445 C 1675.74 -1.53971 -3.26076 0
M  V30 18446 O 1674.85 -0.755172 -4.05427 0
M  V30 18447 H 1674.19 -0.351669 -0.563227 0
M  V30 18448 H 1676.72 -1.56138 -1.3222 0
M  V30 18449 H 1676.73 -1.56307 -3.76872 0
M  V30 18450 H 1675.4 -2.59295 -3.25175 0
M  V30 18451 H 1673.98 -0.803423 -3.64142 0
M  V30 18452 N 1676.17 1.23705 -0.976463 0
M  V30 18453 C 1677.41 1.9132 -0.638714 0
M  V30 18454 C 1677.73 1.7707 0.830993 0
M  V30 18455 O 1678.93 2.39453 1.27964 0
M  V30 18456 C 1677.39 3.42941 -1.09178 0
M  V30 18457 C 1677 3.6586 -2.58555 0
M  V30 18458 C 1678.74 4.16355 -0.827585 0
M  V30 18459 C 1676.65 5.11096 -2.97549 0
M  V30 18460 H 1675.58 0.716382 -0.235187 0
M  V30 18461 H 1678.23 1.40205 -1.18384 0
M  V30 18462 H 1676.61 3.93142 -0.474893 0
M  V30 18463 H 1677.79 3.26221 -3.25448 0
M  V30 18464 H 1676.1 3.05748 -2.82678 0
M  V30 18465 H 1678.7 5.23372 -1.09482 0
M  V30 18466 H 1679.04 4.15629 0.236282 0
M  V30 18467 H 1679.57 3.7213 -1.40586 0
M  V30 18468 H 1676.31 5.1695 -4.03042 0
M  V30 18469 H 1675.83 5.51699 -2.35346 0
M  V30 18470 H 1677.51 5.79397 -2.87937 0
M  V30 18471 N 1677.64 0.747635 1.38738 0
M  V30 18472 C 1678.89 0.300552 1.99853 0
M  V30 18473 C 1679.21 -1.11986 1.59638 0
M  V30 18474 O 1678.48 -1.76477 0.850447 0
M  V30 18475 H 1677.06 0.108134 0.739132 0
M  V30 18476 H 1679.72 0.960405 1.69594 0
M  V30 18477 H 1678.82 0.358956 3.10029 0
M  V30 18478 N 1679.12 -1.49583 0.496242 0
M  V30 18479 C 1680.35 -2.07342 -0.0490986 0
M  V30 18480 C 1680.77 -1.35474 -1.30493 0
M  V30 18481 O 1680.13 -0.410005 -1.76603 0
M  V30 18482 C 1680.18 -3.59427 -0.290601 0
M  V30 18483 O 1679.28 -3.89111 -1.36626 0
M  V30 18484 H 1678.62 -0.663562 0.0241141 0
M  V30 18485 H 1681.15 -1.92452 0.6945 0
M  V30 18486 H 1681.16 -4.04627 -0.523549 0
M  V30 18487 H 1679.84 -4.11147 0.626959 0
M  V30 18488 H 1678.41 -3.55726 -1.11864 0
M  V30 18489 N 1680.6 -0.229873 -1.55915 0
M  V30 18490 C 1681.85 0.398775 -1.98127 0
M  V30 18491 C 1682.17 1.597 -1.11897 0
M  V30 18492 O 1681.44 1.94898 -0.197868 0
M  V30 18493 H 1680.02 0.150323 -0.731719 0
M  V30 18494 H 1682.68 -0.324704 -1.92176 0
M  V30 18495 H 1681.78 0.719475 -3.03694 0
M  V30 18496 N 1682.08 1.5754 0.0434337 0
M  V30 18497 C 1683.49 1.77071 0.591836 0
M  V30 18498 C 1683.84 0.85911 1.76391 0
M  V30 18499 O 1682.96 0.0502725 2.16342 0
M  V30 18500 C 1683.56 3.21111 1.08041 0
M  V30 18501 C 1682.12 3.41889 1.57445 0
M  V30 18502 C 1681.27 2.72641 0.506166 0
M  V30 18503 H 1684.22 1.57644 -0.182792 0
M  V30 18504 H 1684.24 3.26834 1.94833 0
M  V30 18505 H 1683.75 3.87435 0.227153 0
M  V30 18506 H 1681.85 2.80721 2.45003 0
M  V30 18507 H 1681.96 4.50452 1.63185 0
M  V30 18508 H 1680.33 2.36002 0.957878 0
M  V30 18509 H 1681.11 3.41638 -0.337389 0
M  V30 18510 N 1683.56 -0.31543 1.54411 0
M  V30 18511 C 1684.8 -1.05033 1.72663 0
M  V30 18512 C 1685.12 -1.8828 0.507504 0
M  V30 18513 O 1684.39 -1.89968 -0.478418 0
M  V30 18514 H 1682.97 -0.39077 0.636638 0
M  V30 18515 H 1685.64 -0.3499 1.91733 0
M  V30 18516 H 1684.73 -1.71171 2.60973 0
M  V30 18517 N 1685.03 -1.46622 -0.577906 0
M  V30 18518 C 1686.31 -1.42657 -1.33822 0
M  V30 18519 C 1686.69 -0.11256 -2.108 0
M  V30 18520 O 1686.04 0.905903 -2.09775 0
M  V30 18521 C 1686.25 -2.65927 -2.26018 0
M  V30 18522 C 1687.6 -3.12277 -2.87695 0
M  V30 18523 O 1688.62 -2.66509 -2.36329 0
M  V30 18524 O 1687.48 -3.91786 -3.81007 0
M  V30 18525 H 1684.57 -0.567544 -0.601517 0
M  V30 18526 H 1687.12 -1.58795 -0.598524 0
M  V30 18527 H 1685.89 -3.53116 -1.68597 0
M  V30 18528 H 1685.52 -2.52272 -3.07318 0
M  V30 18529 N 1686.51 0.822941 -1.34408 0
M  V30 18530 C 1687.48 1.91541 -1.25876 0
M  V30 18531 C 1688.48 1.59856 -0.17397 0
M  V30 18532 O 1689.67 1.68896 -0.426592 0
M  V30 18533 C 1686.8 3.27586 -0.943415 0
M  V30 18534 H 1687.99 2.00529 -2.22998 0
M  V30 18535 H 1685.54 1.01691 -1.18695 0
M  V30 18536 H 1686.28 3.24291 0.0246389 0
M  V30 18537 H 1686.06 3.51966 -1.72807 0
M  V30 18538 H 1687.55 4.07589 -0.908891 0
M  V30 18539 N 1687.99 1.18137 1.04314 0
M  V30 18540 C 1688.9 0.921044 2.15764 0
M  V30 18541 C 1689.92 -0.11396 1.73626 0
M  V30 18542 O 1691.09 0.0673733 2.01287 0
M  V30 18543 C 1688.16 0.447581 3.43799 0
M  V30 18544 C 1687.22 1.55025 4.00332 0
M  V30 18545 C 1686.45 1.09928 5.22256 0
M  V30 18546 O 1686.67 -0.0430152 5.70384 0
M  V30 18547 O 1685.61 1.896 5.71258 0
M  V30 18548 H 1689.43 1.85353 2.40579 0
M  V30 18549 H 1687.02 0.962985 1.14223 0
M  V30 18550 H 1688.9 0.191497 4.20965 0
M  V30 18551 H 1687.58 -0.456641 3.20463 0
M  V30 18552 H 1686.48 1.86032 3.24566 0
M  V30 18553 H 1687.82 2.4305 4.28004 0
M  V30 18554 N 1689.47 -1.23186 0.98301 0
M  V30 18555 C 1690.43 -2.22979 0.530366 0
M  V30 18556 C 1691.43 -1.56211 -0.381421 0
M  V30 18557 O 1692.62 -1.73321 -0.17475 0
M  V30 18558 C 1689.75 -3.40124 -0.229882 0
M  V30 18559 H 1690.95 -2.64539 1.41277 0
M  V30 18560 H 1688.5 -1.36064 0.769172 0
M  V30 18561 H 1689.23 -3.04024 -1.12871 0
M  V30 18562 H 1689.02 -3.89794 0.424653 0
M  V30 18563 H 1690.51 -4.14158 -0.535078 0
M  V30 18564 N 1690.95 -0.754982 -1.38339 0
M  V30 18565 C 1692.22 -0.237208 -1.94156 0
M  V30 18566 C 1692.6 1.26479 -1.69016 0
M  V30 18567 O 1691.95 2.03995 -1.02948 0
M  V30 18568 C 1692.16 -0.592412 -3.43935 0
M  V30 18569 C 1693.51 -0.552832 -4.20986 0
M  V30 18570 O 1694.53 -0.530789 -3.52223 0
M  V30 18571 O 1693.39 -0.565006 -5.43571 0
M  V30 18572 H 1690.49 -0.0500619 -0.825483 0
M  V30 18573 H 1693.03 -0.835199 -1.47724 0
M  V30 18574 H 1691.8 -1.62969 -3.55748 0
M  V30 18575 H 1691.43 0.0335119 -3.97586 0
M  V30 18576 N 1692.42 1.49318 -0.504168 0
M  V30 18577 C 1693.7 1.95332 0.102393 0
M  V30 18578 C 1694.08 1.44576 1.53821 0
M  V30 18579 O 1693.43 0.660894 2.18734 0
M  V30 18580 C 1693.64 3.48998 0.0117694 0
M  V30 18581 C 1694.99 4.24201 0.184101 0
M  V30 18582 O 1696.01 3.56094 0.0868056 0
M  V30 18583 O 1694.87 5.45147 0.384267 0
M  V30 18584 H 1691.96 0.821691 0.0935582 0
M  V30 18585 H 1694.51 1.5995 -0.566932 0
M  V30 18586 H 1693.28 3.78585 -0.989413 0
M  V30 18587 H 1692.91 3.91006 0.7211 0
M  V30 18588 N 1693.9 0.238138 1.5579 0
M  V30 18589 C 1695.15 -0.388263 1.98335 0
M  V30 18590 C 1695.47 -1.59104 1.12743 0
M  V30 18591 O 1694.74 -1.9479 0.208201 0
M  V30 18592 H 1693.32 -0.14644 0.732505 0
M  V30 18593 H 1695.98 0.334891 1.92001 0
M  V30 18594 H 1695.08 -0.703359 3.04071 0
M  V30 18595 N 1695.38 -1.57561 -0.0350783 0
M  V30 18596 C 1696.63 -1.88996 -0.727095 0
M  V30 18597 C 1696.96 -0.834671 -1.7568 0
M  V30 18598 O 1696.21 0.165098 -1.95002 0
M  V30 18599 C 1696.51 -3.27169 -1.43858 0
M  V30 18600 C 1696.18 -4.47589 -0.545421 0
M  V30 18601 C 1694.84 -4.80268 -0.2994 0
M  V30 18602 C 1697.19 -5.21151 0.0716124 0
M  V30 18603 C 1694.52 -5.839 0.57253 0
M  V30 18604 C 1696.87 -6.25709 0.931209 0
M  V30 18605 C 1695.53 -6.56866 1.18675 0
M  V30 18606 H 1694.8 -0.691586 -0.266063 0
M  V30 18607 H 1697.45 -1.91496 0.0129076 0
M  V30 18608 H 1695.76 -3.2063 -2.25175 0
M  V30 18609 H 1697.45 -3.48738 -1.97946 0
M  V30 18610 H 1694.04 -4.22034 -0.747323 0
M  V30 18611 H 1698.23 -4.96188 -0.105504 0
M  V30 18612 H 1693.48 -6.06418 0.778882 0
M  V30 18613 H 1697.66 -6.81855 1.41587 0
M  V30 18614 H 1695.28 -7.3699 1.86412 0
M  V30 18615 N 1696.86 0.307236 -1.54576 0
M  V30 18616 C 1698.27 0.88064 -1.64626 0
M  V30 18617 C 1698.62 1.88308 -0.550865 0
M  V30 18618 O 1697.75 2.14116 0.313553 0
M  V30 18619 C 1698.34 1.60405 -2.98422 0
M  V30 18620 C 1696.9 2.12595 -3.10613 0
M  V30 18621 C 1696.05 0.956593 -2.60278 0
M  V30 18622 H 1699 0.0843939 -1.58475 0
M  V30 18623 H 1699.02 2.46925 -2.89496 0
M  V30 18624 H 1698.53 0.874209 -3.78126 0
M  V30 18625 H 1696.63 2.88644 -2.35617 0
M  V30 18626 H 1696.74 2.36475 -4.16673 0
M  V30 18627 H 1695.11 1.3404 -2.16576 0
M  V30 18628 H 1695.89 0.24081 -3.42454 0
M  V30 18629 N 1698.34 1.46926 0.570122 0
M  V30 18630 C 1699.25 1.6105 1.70587 0
M  V30 18631 C 1700.26 0.493636 1.66851 0
M  V30 18632 O 1701.44 0.759454 1.86532 0
M  V30 18633 C 1698.5 1.60913 3.07096 0
M  V30 18634 C 1697.56 2.83928 3.21999 0
M  V30 18635 C 1696.8 2.83788 4.51996 0
M  V30 18636 O 1697.02 1.93256 5.36664 0
M  V30 18637 O 1695.95 3.75491 4.70415 0
M  V30 18638 H 1699.78 2.57126 1.61616 0
M  V30 18639 H 1697.37 1.29863 0.738637 0
M  V30 18640 H 1699.25 1.63576 3.88356 0
M  V30 18641 H 1697.92 0.680005 3.16477 0
M  V30 18642 H 1696.83 2.86814 2.40185 0
M  V30 18643 H 1698.16 3.76091 3.17516 0
M  V30 18644 N 1699.82 -0.815801 1.34842 0
M  V30 18645 C 1701.04 -1.60915 1.30848 0
M  V30 18646 C 1701.47 -1.87758 -0.113345 0
M  V30 18647 O 1700.82 -1.4582 -1.07732 0
M  V30 18648 C 1700.87 -2.92284 2.11192 0
M  V30 18649 O 1699.98 -3.84685 1.48632 0
M  V30 18650 H 1699.32 -0.48913 0.449052 0
M  V30 18651 H 1701.85 -1.01322 1.7775 0
M  V30 18652 H 1701.86 -3.41789 2.2281 0
M  V30 18653 H 1700.53 -2.72071 3.14563 0
M  V30 18654 H 1699.11 -3.43215 1.458 0
M  V30 18655 N 1701.29 -1.18689 -1.03686 0
M  V30 18656 C 1702.71 -0.937386 -1.29171 0
M  V30 18657 C 1702.91 0.394863 -1.97593 0
M  V30 18658 O 1701.97 1.12829 -2.25889 0
M  V30 18659 C 1703.28 -2.10568 -2.14666 0
M  V30 18660 C 1704.83 -2.14441 -2.28 0
M  V30 18661 C 1705.3 -3.30699 -3.16863 0
M  V30 18662 N 1706.79 -3.30584 -3.24451 0
M  V30 18663 C 1707.53 -4.17184 -3.93376 0
M  V30 18664 N 1707.02 -5.13924 -4.646 0
M  V30 18665 N 1708.82 -4.05086 -3.89694 0
M  V30 18666 H 1700.97 -2.04417 -0.576836 0
M  V30 18667 H 1703.23 -0.893404 -0.31707 0
M  V30 18668 H 1702.94 -3.06938 -1.71702 0
M  V30 18669 H 1702.81 -2.06955 -3.15356 0
M  V30 18670 H 1705.2 -1.18647 -2.70198 0
M  V30 18671 H 1705.28 -2.22111 -1.26888 0
M  V30 18672 H 1704.92 -4.26768 -2.75375 0
M  V30 18673 H 1704.85 -3.20266 -4.18016 0
M  V30 18674 H 1707.34 -2.60552 -2.73717 0
M  V30 18675 H 1707.66 -5.76368 -5.14801 0
M  V30 18676 H 1706 -5.1788 -4.63492 0
M  V30 18677 H 1709.19 -3.28793 -3.33186 0
M  V30 18678 H 1709.37 -4.72792 -4.43139 0
M  V30 18679 N 1702.77 1.22662 -0.989529 0
M  V30 18680 C 1703.7 2.26762 -0.556891 0
M  V30 18681 C 1704.68 1.64971 0.414538 0
M  V30 18682 O 1705.87 1.91775 0.305909 0
M  V30 18683 C 1703 3.47047 0.132573 0
M  V30 18684 C 1701.95 4.21251 -0.757058 0
M  V30 18685 C 1701.28 5.3466 0.065134 0
M  V30 18686 C 1702.58 4.8029 -2.05229 0
M  V30 18687 H 1704.27 2.63204 -1.42703 0
M  V30 18688 H 1701.82 1.26522 -0.687614 0
M  V30 18689 H 1703.77 4.19027 0.446609 0
M  V30 18690 H 1702.49 3.09692 1.03723 0
M  V30 18691 H 1701.15 3.51101 -1.05469 0
M  V30 18692 H 1700.8 4.93547 0.970607 0
M  V30 18693 H 1700.5 5.85231 -0.527063 0
M  V30 18694 H 1702.03 6.09458 0.373342 0
M  V30 18695 H 1703.44 5.44229 -1.80242 0
M  V30 18696 H 1701.84 5.41186 -2.59302 0
M  V30 18697 H 1702.91 4.00529 -2.73322 0
M  V30 18698 N 1704.25 0.762308 1.37937 0
M  V30 18699 C 1705.16 0.142724 2.34165 0
M  V30 18700 C 1706.18 -0.690588 1.59709 0
M  V30 18701 O 1707.35 -0.61271 1.91854 0
M  V30 18702 C 1704.42 -0.733325 3.38856 0
M  V30 18703 C 1703.48 0.115359 4.29145 0
M  V30 18704 C 1702.71 -0.718972 5.28835 0
M  V30 18705 O 1702.93 -1.95656 5.35794 0
M  V30 18706 O 1701.87 -0.133162 6.01753 0
M  V30 18707 H 1705.69 0.937662 2.88863 0
M  V30 18708 H 1703.28 0.523325 1.39935 0
M  V30 18709 H 1705.16 -1.23374 4.02935 0
M  V30 18710 H 1703.84 -1.50661 2.86501 0
M  V30 18711 H 1702.74 0.661926 3.68197 0
M  V30 18712 H 1704.08 0.851505 4.84779 0
M  V30 18713 N 1705.73 -1.49049 0.51208 0
M  V30 18714 C 1706.98 -2.0208 -0.0284326 0
M  V30 18715 C 1707.3 -1.39303 -1.36454 0
M  V30 18716 O 1706.57 -0.552155 -1.87958 0
M  V30 18717 H 1705.15 -0.746878 -0.0134968 0
M  V30 18718 H 1707.81 -1.82954 0.671842 0
M  V30 18719 H 1706.9 -3.11739 -0.149966 0
M  V30 18720 N 1707.21 -0.246397 -1.55662 0
M  V30 18721 C 1708.45 0.372173 -1.99966 0
M  V30 18722 C 1708.81 1.55602 -1.13162 0
M  V30 18723 O 1708.1 1.90685 -0.187055 0
M  V30 18724 C 1708.29 0.832225 -3.47576 0
M  V30 18725 C 1708.12 -0.305503 -4.48661 0
M  V30 18726 C 1706.89 -0.780019 -4.99243 0
M  V30 18727 C 1709.09 -1.13233 -5.0168 0
M  V30 18728 N 1707.07 -1.89021 -5.84076 0
M  V30 18729 C 1708.44 -2.09091 -5.83679 0
M  V30 18730 C 1710.5 -1.16895 -4.83984 0
M  V30 18731 C 1709.2 -3.08321 -6.4987 0
M  V30 18732 C 1711.23 -2.14955 -5.50952 0
M  V30 18733 C 1710.59 -3.09549 -6.32739 0
M  V30 18734 H 1706.69 0.102159 -0.775298 0
M  V30 18735 H 1709.27 -0.363859 -1.9127 0
M  V30 18736 H 1707.44 1.53755 -3.56671 0
M  V30 18737 H 1709.18 1.4257 -3.78756 0
M  V30 18738 H 1705.93 -0.364252 -4.72197 0
M  V30 18739 H 1706.35 -2.44806 -6.31189 0
M  V30 18740 H 1711 -0.45148 -4.20383 0
M  V30 18741 H 1708.71 -3.81017 -7.12637 0
M  V30 18742 H 1712.3 -2.18493 -5.39214 0
M  V30 18743 H 1711.18 -3.84188 -6.83644 0
M  V30 18744 N 1708.68 1.57577 0.026722 0
M  V30 18745 C 1709.61 2.09748 1.02605 0
M  V30 18746 C 1710.59 1.00054 1.37562 0
M  V30 18747 O 1711.78 1.2759 1.46405 0
M  V30 18748 C 1708.91 2.57881 2.32626 0
M  V30 18749 C 1707.86 3.7186 2.11905 0
M  V30 18750 C 1707.19 4.06208 3.47706 0
M  V30 18751 C 1708.49 5.00198 1.50332 0
M  V30 18752 H 1710.18 2.93494 0.591753 0
M  V30 18753 H 1707.73 1.41188 0.283199 0
M  V30 18754 H 1709.68 2.93 3.02868 0
M  V30 18755 H 1708.41 1.71222 2.7812 0
M  V30 18756 H 1707.07 3.37094 1.44096 0
M  V30 18757 H 1706.71 3.16611 3.90853 0
M  V30 18758 H 1706.41 4.82982 3.34667 0
M  V30 18759 H 1707.94 4.43863 4.19306 0
M  V30 18760 H 1709.35 5.33259 2.10494 0
M  V30 18761 H 1707.75 5.81599 1.4786 0
M  V30 18762 H 1708.82 4.82623 0.469405 0
M  V30 18763 N 1710.16 -0.299034 1.54737 0
M  V30 18764 C 1711.39 -1.05723 1.7843 0
M  V30 18765 C 1711.81 -1.80089 0.543094 0
M  V30 18766 O 1711.17 -1.74083 -0.506438 0
M  V30 18767 C 1711.22 -2.01193 2.99255 0
M  V30 18768 O 1710.32 -3.09528 2.72518 0
M  V30 18769 H 1709.66 -0.303614 0.590521 0
M  V30 18770 H 1712.19 -0.335859 2.01825 0
M  V30 18771 H 1712.2 -2.43623 3.27279 0
M  V30 18772 H 1710.88 -1.46472 3.89254 0
M  V30 18773 H 1709.45 -2.71599 2.55516 0
M  V30 18774 N 1711.64 -1.47227 -0.562322 0
M  V30 18775 C 1712.57 -1.62204 -1.67965 0
M  V30 18776 C 1713.55 -0.471638 -1.63431 0
M  V30 18777 O 1714.74 -0.70036 -1.81131 0
M  V30 18778 C 1711.87 -1.63127 -3.06605 0
M  V30 18779 C 1710.82 -2.77343 -3.25983 0
M  V30 18780 C 1710.15 -2.63336 -4.65358 0
M  V30 18781 C 1711.45 -4.18983 -3.1185 0
M  V30 18782 H 1713.14 -2.55739 -1.55686 0
M  V30 18783 H 1710.69 -1.23075 -0.747561 0
M  V30 18784 H 1712.64 -1.72197 -3.84612 0
M  V30 18785 H 1711.36 -0.661501 -3.19831 0
M  V30 18786 H 1710.02 -2.67776 -2.50383 0
M  V30 18787 H 1709.67 -1.64398 -4.75376 0
M  V30 18788 H 1709.37 -3.39957 -4.79273 0
M  V30 18789 H 1710.89 -2.74327 -5.45506 0
M  V30 18790 H 1712.31 -4.29554 -3.79679 0
M  V30 18791 H 1710.7 -4.96351 -3.37277 0
M  V30 18792 H 1711.77 -4.37709 -2.08661 0
M  V30 18793 N 1713.12 0.808639 -1.35273 0
M  V30 18794 C 1714.53 1.38248 -1.25477 0
M  V30 18795 C 1714.88 1.9587 0.113715 0
M  V30 18796 O 1714 1.91141 1.0146 0
M  V30 18797 C 1714.6 2.5133 -2.27197 0
M  V30 18798 C 1713.16 3.04582 -2.21148 0
M  V30 18799 C 1712.31 1.77534 -2.13019 0
M  V30 18800 H 1715.26 0.611844 -1.46431 0
M  V30 18801 H 1715.28 3.29825 -1.89726 0
M  V30 18802 H 1714.79 2.09362 -3.26786 0
M  V30 18803 H 1712.89 3.5102 -1.24963 0
M  V30 18804 H 1713 3.62703 -3.13023 0
M  V30 18805 H 1711.37 1.99004 -1.58964 0
M  V30 18806 H 1712.15 1.3772 -3.14465 0
M  V30 18807 N 1714.6 1.19237 1.03055 0
M  V30 18808 C 1715.84 0.995444 1.76688 0
M  V30 18809 C 1716.18 -0.472805 1.88357 0
M  V30 18810 O 1715.45 -1.3511 1.39913 0
M  V30 18811 C 1715.73 1.66308 3.19396 0
M  V30 18812 C 1715.59 3.20486 3.15609 0
M  V30 18813 C 1716.91 1.38468 4.17749 0
M  V30 18814 H 1714.02 0.36304 0.641382 0
M  V30 18815 H 1716.67 1.47052 1.20315 0
M  V30 18816 H 1714.82 1.25915 3.67529 0
M  V30 18817 H 1716.49 3.70081 2.75387 0
M  V30 18818 H 1714.73 3.52118 2.53369 0
M  V30 18819 H 1715.4 3.62345 4.16426 0
M  V30 18820 H 1717.88 1.73485 3.78209 0
M  V30 18821 H 1716.75 1.87735 5.15797 0
M  V30 18822 H 1717.02 0.309505 4.41015 0
M  V30 18823 N 1716.07 -1.22136 0.99602 0
M  V30 18824 C 1717.49 -1.43072 0.707285 0
M  V30 18825 C 1717.69 -1.88163 -0.720906 0
M  V30 18826 O 1716.75 -2.03747 -1.49142 0
M  V30 18827 C 1718.06 -2.46963 1.71551 0
M  V30 18828 C 1719.61 -2.60758 1.73131 0
M  V30 18829 C 1720.08 -3.67873 2.72825 0
M  V30 18830 N 1721.57 -3.75334 2.71438 0
M  V30 18831 C 1722.31 -4.57817 3.45241 0
M  V30 18832 N 1721.8 -5.44268 4.28654 0
M  V30 18833 N 1723.6 -4.52157 3.33932 0
M  V30 18834 H 1715.75 -0.911751 1.91836 0
M  V30 18835 H 1718.01 -0.462523 0.827512 0
M  V30 18836 H 1717.72 -2.20784 2.73765 0
M  V30 18837 H 1717.59 -3.45618 1.51089 0
M  V30 18838 H 1719.98 -2.86279 0.716132 0
M  V30 18839 H 1720.06 -1.62367 1.97663 0
M  V30 18840 H 1719.7 -3.43098 3.74494 0
M  V30 18841 H 1719.63 -4.6584 2.45562 0
M  V30 18842 H 1722.12 -3.13566 2.10915 0
M  V30 18843 H 1722.44 -6.04236 4.81786 0
M  V30 18844 H 1720.78 -5.43839 4.3274 0
M  V30 18845 H 1723.97 -3.83645 2.68206 0
M  V30 18846 H 1724.15 -5.16207 3.91707 0
M  V30 18847 N 1717.55 -0.769612 -1.37531 0
M  V30 18848 C 1718.5 -0.142211 -2.32165 0
M  V30 18849 C 1719.49 0.687376 -1.54827 0
M  V30 18850 O 1720.7 0.584677 -1.7024 0
M  V30 18851 H 1717.08 -0.0271998 -0.751508 0
M  V30 18852 H 1719.05 -0.956148 -2.82667 0
M  V30 18853 C 1717.8 0.72421 -3.40074 0
M  V30 18854 H 1717.12 0.0952318 -3.99687 0
M  V30 18855 H 1718.56 1.13021 -4.08659 0
M  V30 18856 C 1717.02 1.87388 -2.79977 0
M  V30 18857 O 1717.55 2.96921 -2.70557 0
M  V30 18858 N 1715.75 1.67384 -2.37552 0
M  V30 18859 H 1715.3 0.782941 -2.45414 0
M  V30 18860 H 1715.26 2.44474 -1.97686 0
M  V30 18861 N 1719.03 1.48775 -0.519977 0
M  V30 18862 C 1719.98 2.31123 0.261738 0
M  V30 18863 C 1720.97 1.40595 0.94496 0
M  V30 18864 O 1722.18 1.57552 0.870484 0
M  V30 18865 H 1718.55 0.744875 0.103272 0
M  V30 18866 H 1720.52 2.94949 -0.452514 0
M  V30 18867 C 1719.27 3.22409 1.30184 0
M  V30 18868 H 1718.6 3.92007 0.785524 0
M  V30 18869 H 1720.04 3.82932 1.82042 0
M  V30 18870 C 1718.5 2.43321 2.33016 0
M  V30 18871 O 1719.03 2.15087 3.39265 0
M  V30 18872 N 1717.23 2.04998 2.05971 0
M  V30 18873 H 1716.78 2.2816 1.19586 0
M  V30 18874 H 1716.74 1.52393 2.74998 0
M  V30 18875 N 1720.51 0.254649 1.55529 0
M  V30 18876 C 1721.74 -0.371856 2.03531 0
M  V30 18877 C 1722.15 -1.50974 1.13368 0
M  V30 18878 O 1721.51 -1.81885 0.14964 0
M  V30 18879 C 1721.56 -0.872314 3.50818 0
M  V30 18880 O 1721.28 0.22023 4.37546 0
M  V30 18881 C 1722.78 -1.56872 4.14616 0
M  V30 18882 H 1720 -0.0874565 0.665276 0
M  V30 18883 H 1722.55 0.380774 2.00924 0
M  V30 18884 H 1720.7 -1.5751 3.53934 0
M  V30 18885 H 1721.11 -0.161046 5.24253 0
M  V30 18886 H 1722.59 -1.87053 5.19341 0
M  V30 18887 H 1723.07 -2.49334 3.61565 0
M  V30 18888 H 1723.67 -0.910314 4.15444 0
M  V30 18889 N 1721.99 -1.57589 -0.0183649 0
M  V30 18890 C 1722.93 -2.07252 -1.01563 0
M  V30 18891 C 1723.9 -0.963941 -1.35268 0
M  V30 18892 O 1725.09 -1.2352 -1.45421 0
M  V30 18893 C 1722.23 -2.56548 -2.30818 0
M  V30 18894 C 1721.34 -3.81238 -2.03178 0
M  V30 18895 C 1720.48 -4.19105 -3.26381 0
M  V30 18896 C 1719.52 -5.36682 -2.94344 0
M  V30 18897 N 1718.65 -5.6993 -4.1003 0
M  V30 18898 H 1723.49 -2.92198 -0.585179 0
M  V30 18899 H 1721.03 -1.44462 -0.27731 0
M  V30 18900 H 1722.99 -2.832 -3.06355 0
M  V30 18901 H 1721.62 -1.74504 -2.71566 0
M  V30 18902 H 1720.67 -3.61606 -1.1809 0
M  V30 18903 H 1721.98 -4.66886 -1.75552 0
M  V30 18904 H 1721.14 -4.46942 -4.10278 0
M  V30 18905 H 1719.87 -3.32129 -3.57129 0
M  V30 18906 H 1718.88 -5.08587 -2.08851 0
M  V30 18907 H 1720.1 -6.2532 -2.64862 0
M  V30 18908 H 1718.05 -4.85913 -4.40709 0
M  V30 18909 H 1717.97 -6.50111 -3.85865 0
M  V30 18910 H 1719.24 -6.02349 -4.94768 0
M  V30 18911 N 1723.46 0.290824 -1.54893 0
M  V30 18912 C 1724.41 1.35899 -1.86548 0
M  V30 18913 C 1725.38 1.49909 -0.71529 0
M  V30 18914 O 1726.57 1.64604 -0.964886 0
M  V30 18915 C 1723.71 2.71735 -2.1273 0
M  V30 18916 C 1722.82 2.66092 -3.40322 0
M  V30 18917 C 1721.95 3.93989 -3.56295 0
M  V30 18918 C 1720.99 3.82785 -4.77642 0
M  V30 18919 N 1720.13 5.02479 -4.90367 0
M  V30 18920 H 1724.97 1.08205 -2.77661 0
M  V30 18921 H 1722.51 0.523144 -1.37483 0
M  V30 18922 H 1724.47 3.50745 -2.25907 0
M  V30 18923 H 1723.1 2.97669 -1.24871 0
M  V30 18924 H 1722.15 1.78891 -3.35712 0
M  V30 18925 H 1723.46 2.53706 -4.29458 0
M  V30 18926 H 1722.61 4.81438 -3.69192 0
M  V30 18927 H 1721.35 4.09221 -2.6531 0
M  V30 18928 H 1720.36 2.9372 -4.64767 0
M  V30 18929 H 1721.58 3.69088 -5.70044 0
M  V30 18930 H 1719.53 5.18155 -4.02308 0
M  V30 18931 H 1719.45 4.92555 -5.7352 0
M  V30 18932 H 1720.71 5.9155 -5.07631 0
M  V30 18933 N 1724.94 1.47523 0.554506 0
M  V30 18934 C 1726.19 1.54287 1.31156 0
M  V30 18935 C 1726.52 0.206279 1.93403 0
M  V30 18936 O 1725.77 -0.801103 1.78552 0
M  V30 18937 C 1726.07 2.6113 2.4402 0
M  V30 18938 C 1725.74 4.04322 1.99586 0
M  V30 18939 C 1724.4 4.43301 1.87184 0
M  V30 18940 C 1726.75 4.94158 1.65703 0
M  V30 18941 C 1724.08 5.69948 1.39198 0
M  V30 18942 C 1726.43 6.21271 1.19187 0
M  V30 18943 C 1725.1 6.59129 1.05383 0
M  V30 18944 H 1724.37 0.564575 0.479934 0
M  V30 18945 H 1727.01 1.81134 0.621521 0
M  V30 18946 H 1725.32 2.2805 3.18591 0
M  V30 18947 H 1727.01 2.63585 3.02199 0
M  V30 18948 H 1723.6 3.73526 2.10182 0
M  V30 18949 H 1727.79 4.6474 1.74156 0
M  V30 18950 H 1723.04 5.98027 1.27178 0
M  V30 18951 H 1727.22 6.90292 0.920312 0
M  V30 18952 H 1724.85 7.57155 0.679777 0
M  V30 18953 N 1726.42 -0.801453 1.357 0
M  V30 18954 C 1727.67 -1.55571 1.29004 0
M  V30 18955 C 1727.99 -1.9454 -0.133836 0
M  V30 18956 O 1727.26 -1.64004 -1.07143 0
M  V30 18957 H 1725.84 -0.576922 0.47452 0
M  V30 18958 H 1728.5 -0.95568 1.69861 0
M  V30 18959 H 1727.6 -2.46879 1.90937 0
M  V30 18960 N 1727.9 -1.19782 -1.02421 0
M  V30 18961 C 1729.14 -1.01483 -1.76275 0
M  V30 18962 C 1729.5 0.449171 -1.87083 0
M  V30 18963 O 1728.79 1.32915 -1.38 0
M  V30 18964 C 1728.99 -1.62297 -3.18425 0
M  V30 18965 C 1728.82 -3.14459 -3.21474 0
M  V30 18966 C 1727.59 -3.83389 -3.29152 0
M  V30 18967 C 1729.78 -4.11771 -3.08138 0
M  V30 18968 N 1727.77 -5.22906 -3.21625 0
M  V30 18969 C 1729.14 -5.37916 -3.08296 0
M  V30 18970 C 1731.19 -4.0307 -2.92299 0
M  V30 18971 C 1729.89 -6.56365 -2.9424 0
M  V30 18972 C 1731.92 -5.21134 -2.79594 0
M  V30 18973 C 1731.28 -6.4618 -2.80411 0
M  V30 18974 H 1727.38 -0.425521 -0.656092 0
M  V30 18975 H 1729.97 -1.5183 -1.21884 0
M  V30 18976 H 1728.14 -1.14546 -3.71125 0
M  V30 18977 H 1729.87 -1.37389 -3.80666 0
M  V30 18978 H 1726.62 -3.34205 -3.35565 0
M  V30 18979 H 1727.05 -5.95923 -3.21256 0
M  V30 18980 H 1731.69 -3.07209 -2.90487 0
M  V30 18981 H 1729.41 -7.52408 -2.94802 0
M  V30 18982 H 1732.99 -5.16207 -2.68368 0
M  V30 18983 H 1731.87 -7.36001 -2.70688 0
M  V30 18984 N 1729.38 1.21606 -1.00248 0
M  V30 18985 C 1730.62 1.9089 -0.684765 0
M  V30 18986 C 1730.96 1.77749 0.78224 0
M  V30 18987 O 1730.23 1.15251 1.56676 0
M  V30 18988 C 1730.51 3.42778 -1.1034 0
M  V30 18989 C 1730.37 3.64923 -2.62967 0
M  V30 18990 C 1731.69 4.35064 -0.663877 0
M  V30 18991 H 1728.81 0.693217 -0.250239 0
M  V30 18992 H 1731.45 1.4329 -1.24772 0
M  V30 18993 H 1729.6 3.83449 -0.624415 0
M  V30 18994 H 1731.27 3.33595 -3.18609 0
M  V30 18995 H 1729.51 3.08874 -3.04596 0
M  V30 18996 H 1730.18 4.71335 -2.87311 0
M  V30 18997 H 1732.66 4.01962 -1.07544 0
M  V30 18998 H 1731.54 5.3999 -0.984987 0
M  V30 18999 H 1731.8 4.39954 0.435095 0
M  V30 19000 N 1730.86 0.776895 1.37121 0
M  V30 19001 C 1731.8 0.164838 2.30211 0
M  V30 19002 C 1732.77 -0.684137 1.51356 0
M  V30 19003 O 1733.96 -0.635428 1.79908 0
M  V30 19004 C 1731.1 -0.704263 3.37837 0
M  V30 19005 C 1730.21 0.161881 4.31697 0
M  V30 19006 C 1729.35 -0.712411 5.26401 0
M  V30 19007 C 1728.38 0.155953 6.11901 0
M  V30 19008 N 1727.52 -0.676607 6.98832 0
M  V30 19009 H 1732.36 0.964185 2.81971 0
M  V30 19010 H 1729.9 0.487065 1.38802 0
M  V30 19011 H 1731.86 -1.22302 3.98871 0
M  V30 19012 H 1730.49 -1.46916 2.87429 0
M  V30 19013 H 1729.54 0.798491 3.71925 0
M  V30 19014 H 1730.85 0.831496 4.91821 0
M  V30 19015 H 1730 -1.29745 5.92664 0
M  V30 19016 H 1728.74 -1.41569 4.66701 0
M  V30 19017 H 1727.75 0.753493 5.44612 0
M  V30 19018 H 1728.97 0.856645 6.73675 0
M  V30 19019 H 1726.92 -1.36441 6.41654 0
M  V30 19020 H 1726.84 -0.0644017 7.55973 0
M  V30 19021 H 1728.1 -1.24588 7.69479 0
M  V30 19022 N 1732.33 -1.48497 0.527859 0
M  V30 19023 C 1733.28 -2.2959 -0.23607 0
M  V30 19024 C 1734.25 -1.37232 -0.935762 0
M  V30 19025 O 1735.44 -1.66196 -0.937202 0
M  V30 19026 C 1732.58 -3.20551 -1.27832 0
M  V30 19027 C 1731.69 -4.27984 -0.58769 0
M  V30 19028 C 1730.82 -5.06128 -1.61269 0
M  V30 19029 C 1729.86 -6.05367 -0.905404 0
M  V30 19030 N 1729 -6.76577 -1.87585 0
M  V30 19031 H 1733.84 -2.94403 0.461635 0
M  V30 19032 H 1731.38 -1.45137 0.239493 0
M  V30 19033 H 1733.33 -3.71686 -1.89488 0
M  V30 19034 H 1731.96 -2.57665 -1.94444 0
M  V30 19035 H 1731.02 -3.80132 0.142759 0
M  V30 19036 H 1732.33 -4.9879 -0.0322348 0
M  V30 19037 H 1731.48 -5.61266 -2.30359 0
M  V30 19038 H 1730.22 -4.35157 -2.20204 0
M  V30 19039 H 1729.23 -5.49435 -0.200426 0
M  V30 19040 H 1730.45 -6.78335 -0.322197 0
M  V30 19041 H 1728.4 -6.08358 -2.45432 0
M  V30 19042 H 1728.31 -7.4345 -1.37178 0
M  V30 19043 H 1729.58 -7.36305 -2.5588 0
M  V30 19044 N 1733.81 -0.262893 -1.55392 0
M  V30 19045 C 1735.04 0.360534 -2.0343 0
M  V30 19046 C 1735.45 1.50917 -1.14108 0
M  V30 19047 O 1734.79 1.83077 -0.15118 0
M  V30 19048 C 1734.85 0.91519 -3.47656 0
M  V30 19049 C 1734.52 -0.103245 -4.56883 0
M  V30 19050 C 1735.52 -0.918464 -5.11723 0
M  V30 19051 C 1733.2 -0.233956 -5.01755 0
M  V30 19052 C 1735.19 -1.8507 -6.09941 0
M  V30 19053 C 1732.88 -1.16968 -5.99801 0
M  V30 19054 C 1733.88 -1.97656 -6.53774 0
M  V30 19055 O 1733.57 -2.89648 -7.49906 0
M  V30 19056 H 1733.3 0.0879049 -0.67026 0
M  V30 19057 H 1735.85 -0.389114 -2.01681 0
M  V30 19058 H 1734.08 1.71469 -3.46605 0
M  V30 19059 H 1735.77 1.4504 -3.79102 0
M  V30 19060 H 1736.54 -0.828152 -4.77877 0
M  V30 19061 H 1732.42 0.384057 -4.59397 0
M  V30 19062 H 1735.96 -2.48091 -6.51994 0
M  V30 19063 H 1731.86 -1.26085 -6.33066 0
M  V30 19064 H 1732.63 -2.84191 -7.67579 0
M  V30 19065 N 1735.29 1.57597 0.0100073 0
M  V30 19066 C 1736.54 1.90411 0.697968 0
M  V30 19067 C 1736.87 0.862924 1.73975 0
M  V30 19068 O 1736.14 -0.119646 1.94132 0
M  V30 19069 C 1736.43 3.33828 1.35022 0
M  V30 19070 C 1736.28 4.48656 0.320659 0
M  V30 19071 C 1737.6 3.7649 2.27911 0
M  V30 19072 H 1734.72 0.692482 0.252266 0
M  V30 19073 H 1737.36 1.89959 -0.0392325 0
M  V30 19074 H 1735.51 3.34343 1.97856 0
M  V30 19075 H 1737.18 4.60276 -0.30723 0
M  V30 19076 H 1735.42 4.32319 -0.358128 0
M  V30 19077 H 1736.1 5.45937 0.815891 0
M  V30 19078 H 1738.57 3.77463 1.75104 0
M  V30 19079 H 1737.45 4.77609 2.70519 0
M  V30 19080 H 1737.71 3.09801 3.15398 0
M  V30 19081 N 1736.77 -0.282606 1.55045 0
M  V30 19082 C 1738.02 -1.0132 1.74405 0
M  V30 19083 C 1738.33 -1.87792 0.547133 0
M  V30 19084 O 1739.54 -2.64257 0.622931 0
M  V30 19085 C 1737.99 -1.85128 3.08635 0
M  V30 19086 C 1737.6 -1.0357 4.35864 0
M  V30 19087 C 1739.34 -2.57676 3.37347 0
M  V30 19088 C 1737.25 -1.86761 5.61137 0
M  V30 19089 H 1736.18 -0.382013 0.650063 0
M  V30 19090 H 1738.83 -0.269307 1.81513 0
M  V30 19091 H 1737.21 -2.63576 2.95539 0
M  V30 19092 H 1738.39 -0.296061 4.59848 0
M  V30 19093 H 1736.7 -0.425208 4.14223 0
M  V30 19094 H 1739.3 -3.20303 4.28147 0
M  V30 19095 H 1739.64 -3.27464 2.57046 0
M  V30 19096 H 1740.18 -1.86264 3.51497 0
M  V30 19097 H 1736.91 -1.2141 6.44158 0
M  V30 19098 H 1736.43 -2.58348 5.4131 0
M  V30 19099 H 1738.11 -2.44361 5.9908 0
M  V30 19100 N 1738.25 -1.47815 -0.546675 0
M  V30 19101 C 1739.49 -1.5521 -1.30529 0
M  V30 19102 C 1739.82 -0.218129 -1.92971 0
M  V30 19103 O 1739.1 0.774298 -1.78423 0
M  V30 19104 C 1739.38 -2.67799 -2.40739 0
M  V30 19105 C 1739.24 -4.10847 -1.83097 0
M  V30 19106 C 1740.55 -2.76238 -3.42608 0
M  V30 19107 H 1737.67 -0.564998 -0.473229 0
M  V30 19108 H 1740.32 -1.79917 -0.610713 0
M  V30 19109 H 1738.47 -2.46863 -2.99985 0
M  V30 19110 H 1740.14 -4.43177 -1.28031 0
M  V30 19111 H 1738.38 -4.1863 -1.13716 0
M  V30 19112 H 1739.05 -4.85418 -2.62818 0
M  V30 19113 H 1741.53 -2.95156 -2.93296 0
M  V30 19114 H 1740.4 -3.56774 -4.17137 0
M  V30 19115 H 1740.66 -1.83719 -4.02119 0
M  V30 19116 N 1739.72 0.794246 -1.36123 0
M  V30 19117 C 1740.95 1.58813 -1.33391 0
M  V30 19118 C 1741.37 1.87915 0.0834599 0
M  V30 19119 O 1740.73 1.47516 1.05398 0
M  V30 19120 C 1740.78 2.88887 -2.15816 0
M  V30 19121 O 1739.88 3.82271 -1.54734 0
M  V30 19122 H 1739.22 0.481924 -0.456777 0
M  V30 19123 H 1741.75 0.984818 -1.79339 0
M  V30 19124 H 1741.76 3.38201 -2.2822 0
M  V30 19125 H 1740.44 2.67032 -3.18852 0
M  V30 19126 H 1739.02 3.40852 -1.51242 0
M  V30 19127 N 1741.2 1.20323 1.01785 0
M  V30 19128 C 1742.43 1.03893 1.79502 0
M  V30 19129 C 1742.85 -0.407421 1.83635 0
M  V30 19130 O 1742.21 -1.29338 1.27049 0
M  V30 19131 C 1742.26 1.62562 3.21879 0
M  V30 19132 O 1741.36 0.862398 4.03282 0
M  V30 19133 H 1740.7 0.366479 0.553705 0
M  V30 19134 H 1743.23 1.59589 1.28034 0
M  V30 19135 H 1743.24 1.66244 3.72595 0
M  V30 19136 H 1741.92 2.67826 3.18186 0
M  V30 19137 H 1740.49 0.899687 3.61884 0
M  V30 19138 N 1742.68 -1.21073 1.00892 0
M  V30 19139 C 1743.63 -2.23583 0.572636 0
M  V30 19140 C 1744.6 -1.61129 -0.403324 0
M  V30 19141 O 1745.78 -1.88355 -0.304491 0
M  V30 19142 C 1742.92 -3.44981 -0.0906539 0
M  V30 19143 C 1742.03 -4.21894 0.928953 0
M  V30 19144 C 1741.17 -5.30669 0.237516 0
M  V30 19145 C 1740.21 -5.99317 1.24441 0
M  V30 19146 N 1739.35 -6.99699 0.580172 0
M  V30 19147 H 1744.19 -2.60263 1.45146 0
M  V30 19148 H 1741.72 -1.27895 0.72673 0
M  V30 19149 H 1743.68 -4.14285 -0.492281 0
M  V30 19150 H 1742.31 -3.09017 -0.933169 0
M  V30 19151 H 1741.36 -3.5173 1.4488 0
M  V30 19152 H 1742.67 -4.69116 1.69503 0
M  V30 19153 H 1741.83 -6.06301 -0.220013 0
M  V30 19154 H 1740.57 -4.84463 -0.560937 0
M  V30 19155 H 1739.57 -5.22453 1.7124 0
M  V30 19156 H 1740.8 -6.47609 2.04401 0
M  V30 19157 H 1738.74 -6.55699 -0.198553 0
M  V30 19158 H 1738.66 -7.45009 1.28444 0
M  V30 19159 H 1739.93 -7.79363 0.145977 0
M  V30 19160 N 1744.16 -0.784156 -1.36707 0
M  V30 19161 C 1745.11 -0.177044 -2.3012 0
M  V30 19162 C 1746.08 0.6761 -1.51717 0
M  V30 19163 O 1747.26 0.625878 -1.80243 0
M  V30 19164 C 1744.4 0.686337 -3.38206 0
M  V30 19165 C 1743.51 -0.184772 -4.31605 0
M  V30 19166 C 1742.65 0.684485 -5.26772 0
M  V30 19167 C 1741.69 -0.188402 -6.1181 0
M  V30 19168 N 1740.82 0.639537 -6.99181 0
M  V30 19169 H 1745.66 -0.979125 -2.81455 0
M  V30 19170 H 1743.2 -0.494419 -1.38542 0
M  V30 19171 H 1745.16 1.20185 -3.99514 0
M  V30 19172 H 1743.79 1.4539 -2.88204 0
M  V30 19173 H 1742.84 -0.818204 -3.71496 0
M  V30 19174 H 1744.15 -0.857567 -4.91373 0
M  V30 19175 H 1743.31 1.26601 -5.93344 0
M  V30 19176 H 1742.05 1.39092 -4.67445 0
M  V30 19177 H 1741.05 -0.782364 -5.44205 0
M  V30 19178 H 1742.28 -0.89236 -6.73212 0
M  V30 19179 H 1740.22 1.33036 -6.42369 0
M  V30 19180 H 1740.14 0.0243097 -7.55996 0
M  V30 19181 H 1741.41 1.20505 -7.70129 0
M  V30 19182 N 1745.64 1.48215 -0.535727 0
M  V30 19183 C 1746.89 2.017 -0.0016958 0
M  V30 19184 C 1747.2 1.41756 1.34776 0
M  V30 19185 O 1748.4 1.86774 1.97048 0
M  V30 19186 C 1746.86 3.59869 0.0473588 0
M  V30 19187 C 1746.47 4.28798 -1.29754 0
M  V30 19188 C 1748.21 4.21179 0.529915 0
M  V30 19189 C 1746.12 5.78915 -1.20876 0
M  V30 19190 H 1745.05 0.753993 0.00313606 0
M  V30 19191 H 1747.7 1.70421 -0.680368 0
M  V30 19192 H 1746.08 3.88015 0.791229 0
M  V30 19193 H 1747.26 4.12318 -2.05743 0
M  V30 19194 H 1745.57 3.79384 -1.7163 0
M  V30 19195 H 1748.17 5.31158 0.614396 0
M  V30 19196 H 1748.51 3.86887 1.53702 0
M  V30 19197 H 1749.04 3.97484 -0.158445 0
M  V30 19198 H 1745.78 6.17792 -2.1912 0
M  V30 19199 H 1745.3 5.97792 -0.490333 0
M  V30 19200 H 1746.98 6.40684 -0.901824 0
M  V30 19201 N 1747.11 0.27113 1.5525 0
M  V30 19202 C 1748.04 -0.61179 2.25343 0
M  V30 19203 C 1749.03 -1.16208 1.24216 0
M  V30 19204 O 1750.21 -1.19696 1.52927 0
M  V30 19205 C 1747.34 -1.7978 2.97147 0
M  V30 19206 C 1746.29 -1.37922 4.05169 0
M  V30 19207 C 1745.62 -2.64801 4.64526 0
M  V30 19208 C 1746.92 -0.532357 5.1958 0
M  V30 19209 H 1748.61 -0.0272538 2.99388 0
M  V30 19210 H 1746.16 -0.0116681 1.43995 0
M  V30 19211 H 1748.11 -2.42132 3.44891 0
M  V30 19212 H 1746.84 -2.40811 2.20631 0
M  V30 19213 H 1745.5 -0.778918 3.5823 0
M  V30 19214 H 1745.14 -3.24081 3.84682 0
M  V30 19215 H 1744.84 -2.37507 5.37461 0
M  V30 19216 H 1746.37 -3.28009 5.15017 0
M  V30 19217 H 1747.78 -1.06078 5.63401 0
M  V30 19218 H 1746.18 -0.35447 5.99052 0
M  V30 19219 H 1747.25 0.44981 4.82809 0
M  V30 19220 N 1748.59 -1.576 -0.00164943 0
M  V30 19221 C 1749.84 -1.90496 -0.686842 0
M  V30 19222 C 1750.17 -0.871747 -1.7387 0
M  V30 19223 O 1749.42 0.123698 -1.95309 0
M  V30 19224 C 1749.72 -3.30147 -1.36886 0
M  V30 19225 C 1749.39 -4.48645 -0.450358 0
M  V30 19226 C 1748.05 -4.80795 -0.197461 0
M  V30 19227 C 1750.4 -5.20882 0.18214 0
M  V30 19228 C 1747.73 -5.82554 0.696255 0
M  V30 19229 C 1750.08 -6.23593 1.06372 0
M  V30 19230 C 1748.75 -6.54201 1.32581 0
M  V30 19231 H 1748.02 -0.697074 -0.251333 0
M  V30 19232 H 1750.66 -1.91425 0.0535238 0
M  V30 19233 H 1748.97 -3.25334 -2.18323 0
M  V30 19234 H 1750.66 -3.52859 -1.90504 0
M  V30 19235 H 1747.25 -4.23525 -0.657635 0
M  V30 19236 H 1751.44 -4.963 -0.000231234 0
M  V30 19237 H 1746.69 -6.0463 0.907337 0
M  V30 19238 H 1750.87 -6.78698 1.56018 0
M  V30 19239 H 1748.5 -7.3287 2.02002 0
M  V30 19240 N 1750.07 0.274379 -1.55193 0
M  V30 19241 C 1751.3 1.02295 -1.79497 0
M  V30 19242 C 1751.71 1.80479 -0.567805 0
M  V30 19243 O 1751.05 1.77517 0.472601 0
M  V30 19244 C 1751.11 2.02986 -2.9671 0
M  V30 19245 C 1750.78 1.43753 -4.33802 0
M  V30 19246 C 1751.77 0.853898 -5.1284 0
M  V30 19247 C 1749.46 1.46514 -4.80457 0
M  V30 19248 C 1751.45 0.305773 -6.36666 0
M  V30 19249 C 1749.14 0.913158 -6.04239 0
M  V30 19250 C 1750.14 0.33447 -6.82181 0
M  V30 19251 O 1749.83 -0.209069 -8.03628 0
M  V30 19252 H 1749.56 0.307952 -0.601782 0
M  V30 19253 H 1752.11 0.310987 -2.03032 0
M  V30 19254 H 1750.34 2.77937 -2.68864 0
M  V30 19255 H 1752.03 2.6396 -3.0835 0
M  V30 19256 H 1752.8 0.825268 -4.77927 0
M  V30 19257 H 1748.68 1.90496 -4.198 0
M  V30 19258 H 1752.22 -0.146553 -6.97446 0
M  V30 19259 H 1748.12 0.939023 -6.38633 0
M  V30 19260 H 1748.89 -0.0982973 -8.18441 0
M  V30 19261 N 1751.55 1.48103 0.538828 0
M  V30 19262 C 1752.83 1.46155 1.29992 0
M  V30 19263 C 1753.21 0.16841 2.10427 0
M  V30 19264 O 1752.55 -0.849967 2.12103 0
M  V30 19265 C 1752.76 2.71826 2.18888 0
M  V30 19266 C 1754.11 3.19794 2.79315 0
M  V30 19267 O 1755.14 2.72681 2.2918 0
M  V30 19268 O 1753.99 4.0175 3.70485 0
M  V30 19269 H 1751.09 0.583293 0.586258 0
M  V30 19270 H 1753.63 1.60326 0.556212 0
M  V30 19271 H 1752.41 3.57462 1.59176 0
M  V30 19272 H 1752.03 2.60332 3.00521 0
M  V30 19273 N 1753.03 -0.787016 1.36542 0
M  V30 19274 C 1754.25 -1.58103 1.34231 0
M  V30 19275 C 1754.68 -1.87956 -0.0734932 0
M  V30 19276 O 1754.03 -1.48073 -1.04615 0
M  V30 19277 C 1754.08 -2.87739 2.17345 0
M  V30 19278 O 1753.19 -3.81445 1.56759 0
M  V30 19279 H 1752.53 -0.479495 0.459326 0
M  V30 19280 H 1755.06 -0.975294 1.79859 0
M  V30 19281 H 1755.07 -3.36986 2.3001 0
M  V30 19282 H 1753.74 -2.65338 3.20264 0
M  V30 19283 H 1752.32 -3.40046 1.53047 0
M  V30 19284 N 1754.5 -1.20861 -1.01145 0
M  V30 19285 C 1755.41 -0.977926 -2.13246 0
M  V30 19286 C 1756.43 0.0678862 -1.73868 0
M  V30 19287 O 1757.61 -0.120717 -2.01038 0
M  V30 19288 C 1754.67 -0.538575 -3.42491 0
M  V30 19289 C 1753.73 -1.65584 -3.96081 0
M  V30 19290 C 1752.97 -1.23736 -5.19158 0
M  V30 19291 O 1753.19 -0.108227 -5.70297 0
M  V30 19292 O 1752.12 -2.04679 -5.6603 0
M  V30 19293 H 1755.95 -1.91666 -2.3558 0
M  V30 19294 H 1753.53 -0.992931 -1.1163 0
M  V30 19295 H 1755.42 -0.303041 -4.20309 0
M  V30 19296 H 1754.09 0.371515 -3.21561 0
M  V30 19297 H 1753 -1.94572 -3.19519 0
M  V30 19298 H 1754.33 -2.54313 -4.21409 0
M  V30 19299 N 1755.98 1.20536 -1.01532 0
M  V30 19300 C 1756.91 2.22683 -0.542658 0
M  V30 19301 C 1757.93 1.5844 0.374267 0
M  V30 19302 O 1759.12 1.77661 0.172818 0
M  V30 19303 C 1756.22 3.38117 0.230168 0
M  V30 19304 C 1755.39 4.3195 -0.688356 0
M  V30 19305 C 1754.45 5.26187 0.0366686 0
M  V30 19306 O 1753.47 5.66182 -0.585418 0
M  V30 19307 N 1754.68 5.65481 1.31193 0
M  V30 19308 H 1757.44 2.63864 -1.42111 0
M  V30 19309 H 1755 1.35065 -0.892703 0
M  V30 19310 H 1756.99 3.98164 0.724408 0
M  V30 19311 H 1755.56 2.95837 1.00991 0
M  V30 19312 H 1754.78 3.69889 -1.36292 0
M  V30 19313 H 1756.07 4.91564 -1.3131 0
M  V30 19314 H 1755.47 5.34998 1.83829 0
M  V30 19315 H 1754.03 6.27842 1.75092 0
M  V30 19316 N 1757.46 0.791395 1.36289 0
M  V30 19317 C 1758.74 0.288602 1.93459 0
M  V30 19318 C 1759.12 -1.21953 1.7231 0
M  V30 19319 O 1758.47 -2.01194 1.0832 0
M  V30 19320 C 1758.68 0.683392 3.42244 0
M  V30 19321 C 1760.02 0.664255 4.19372 0
M  V30 19322 O 1761.05 0.623988 3.50692 0
M  V30 19323 O 1759.91 0.708926 5.41882 0
M  V30 19324 H 1757 0.0719305 0.823866 0
M  V30 19325 H 1759.55 0.874071 1.45458 0
M  V30 19326 H 1758.32 1.72344 3.51302 0
M  V30 19327 H 1757.94 0.0719128 3.97535 0
M  V30 19328 N 1758.94 -1.47929 0.54358 0
M  V30 19329 C 1759.89 -2.29827 -0.211706 0
M  V30 19330 C 1760.86 -1.38217 -0.921154 0
M  V30 19331 O 1762.04 -1.67181 -0.919522 0
M  V30 19332 C 1759.18 -3.21889 -1.24425 0
M  V30 19333 C 1758.29 -4.28583 -0.542264 0
M  V30 19334 C 1757.43 -5.0781 -1.55892 0
M  V30 19335 C 1756.47 -6.06293 -0.841146 0
M  V30 19336 N 1755.61 -6.78528 -1.80399 0
M  V30 19337 H 1760.45 -2.93896 0.492835 0
M  V30 19338 H 1757.98 -1.44875 0.254873 0
M  V30 19339 H 1759.94 -3.73674 -1.85535 0
M  V30 19340 H 1758.57 -2.59713 -1.917 0
M  V30 19341 H 1757.62 -3.79959 0.183069 0
M  V30 19342 H 1758.93 -4.98796 0.0206703 0
M  V30 19343 H 1758.09 -5.63678 -2.24393 0
M  V30 19344 H 1756.83 -4.37468 -2.15576 0
M  V30 19345 H 1755.83 -5.49616 -0.14214 0
M  V30 19346 H 1757.06 -6.78639 -0.250232 0
M  V30 19347 H 1755 -6.10927 -2.38965 0
M  V30 19348 H 1754.92 -7.44863 -1.29285 0
M  V30 19349 H 1756.19 -7.38978 -2.48056 0
M  V30 19350 N 1760.42 -0.27936 -1.55104 0
M  V30 19351 C 1761.33 0.616249 -2.26361 0
M  V30 19352 C 1762.34 1.16656 -1.29102 0
M  V30 19353 O 1763.52 1.19596 -1.62046 0
M  V30 19354 C 1760.58 1.78191 -2.97403 0
M  V30 19355 C 1759.65 1.26785 -4.10151 0
M  V30 19356 C 1758.88 2.37795 -4.77796 0
M  V30 19357 O 1759.1 3.57242 -4.44673 0
M  V30 19358 O 1758.04 2.05711 -5.65656 0
M  V30 19359 H 1761.86 0.0388715 -3.03675 0
M  V30 19360 H 1759.45 -0.0466058 -1.49327 0
M  V30 19361 H 1761.33 2.4615 -3.42036 0
M  V30 19362 H 1760 2.3463 -2.23003 0
M  V30 19363 H 1758.91 0.554608 -3.69966 0
M  V30 19364 H 1760.24 0.749157 -4.86465 0
M  V30 19365 N 1761.9 1.57599 -0.0067085 0
M  V30 19366 C 1762.83 2.05706 1.01084 0
M  V30 19367 C 1763.84 0.976216 1.30284 0
M  V30 19368 O 1765.03 1.25288 1.27142 0
M  V30 19369 C 1762.13 2.44771 2.34393 0
M  V30 19370 C 1761.3 3.75668 2.24036 0
M  V30 19371 C 1760.36 4.01528 3.4009 0
M  V30 19372 O 1759.39 4.72101 3.17977 0
M  V30 19373 N 1760.59 3.49947 4.6316 0
M  V30 19374 H 1763.35 2.93622 0.600532 0
M  V30 19375 H 1760.92 1.6089 0.180536 0
M  V30 19376 H 1762.91 2.5918 3.10818 0
M  V30 19377 H 1761.48 1.62339 2.67142 0
M  V30 19378 H 1760.7 3.71272 1.3248 0
M  V30 19379 H 1761.99 4.6147 2.14295 0
M  V30 19380 H 1761.38 2.92811 4.84023 0
M  V30 19381 H 1759.94 3.69675 5.36828 0
M  V30 19382 N 1763.37 -0.266145 1.55336 0
M  V30 19383 C 1764.6 -1.01915 1.80633 0
M  V30 19384 C 1765.02 -1.78897 0.581172 0
M  V30 19385 O 1764.38 -1.75118 -0.469399 0
M  V30 19386 C 1764.43 -1.948 3.03456 0
M  V30 19387 O 1763.53 -3.03678 2.79022 0
M  V30 19388 H 1762.87 -0.29102 0.596828 0
M  V30 19389 H 1765.4 -0.292973 2.02492 0
M  V30 19390 H 1765.41 -2.36626 3.32373 0
M  V30 19391 H 1764.09 -1.38182 3.92273 0
M  V30 19392 H 1762.67 -2.66118 2.61219 0
M  V30 19393 N 1764.85 -1.48386 -0.530967 0
M  V30 19394 C 1765.8 -1.63279 -1.65658 0
M  V30 19395 C 1766.79 -0.499261 -1.61876 0
M  V30 19396 O 1768 -0.677951 -1.66745 0
M  V30 19397 H 1764.37 -0.514332 -0.548605 0
M  V30 19398 H 1766.35 -2.57818 -1.50241 0
M  V30 19399 C 1765.09 -1.68878 -3.03933 0
M  V30 19400 H 1764.42 -2.55462 -3.07537 0
M  V30 19401 H 1765.86 -1.83343 -3.82311 0
M  V30 19402 C 1764.32 -0.427267 -3.3418 0
M  V30 19403 O 1764.85 0.460276 -3.99054 0
M  V30 19404 N 1763.05 -0.299268 -2.89055 0
M  V30 19405 H 1762.6 -1.02248 -2.36438 0
M  V30 19406 H 1762.56 0.543787 -3.09662 0
M  V30 19407 N 1766.33 0.779763 -1.36958 0
M  V30 19408 C 1767.74 1.35555 -1.28381 0
M  V30 19409 C 1768.09 1.96067 0.0721422 0
M  V30 19410 O 1767.22 1.9325 0.973824 0
M  V30 19411 C 1767.81 2.46454 -2.32477 0
M  V30 19412 C 1766.37 2.99823 -2.27559 0
M  V30 19413 C 1765.52 1.72975 -2.16737 0
M  V30 19414 H 1768.47 0.580646 -1.47696 0
M  V30 19415 H 1768.49 3.25726 -1.96679 0
M  V30 19416 H 1768 2.02383 -3.31154 0
M  V30 19417 H 1766.1 3.4829 -1.3238 0
M  V30 19418 H 1766.22 3.55982 -3.20646 0
M  V30 19419 H 1764.58 1.95587 -1.6315 0
M  V30 19420 H 1765.36 1.31018 -3.17315 0
M  V30 19421 N 1767.81 1.21396 1.00503 0
M  V30 19422 C 1769.04 1.0556 1.77597 0
M  V30 19423 C 1769.45 -0.397591 1.84975 0
M  V30 19424 O 1768.79 -1.28764 1.31018 0
M  V30 19425 C 1768.85 1.57754 3.23039 0
M  V30 19426 C 1768.51 3.06214 3.39238 0
M  V30 19427 C 1769.51 4.03763 3.27523 0
M  V30 19428 C 1767.2 3.45418 3.6468 0
M  V30 19429 C 1769.19 5.38505 3.41015 0
M  V30 19430 C 1766.88 4.80312 3.77814 0
M  V30 19431 C 1767.88 5.76665 3.65988 0
M  V30 19432 O 1767.56 7.09111 3.78704 0
M  V30 19433 H 1767.3 0.371187 0.564975 0
M  V30 19434 H 1769.85 1.61186 1.27312 0
M  V30 19435 H 1768.08 0.965245 3.74459 0
M  V30 19436 H 1769.77 1.37762 3.81807 0
M  V30 19437 H 1770.53 3.74819 3.07791 0
M  V30 19438 H 1766.41 2.70954 3.72968 0
M  V30 19439 H 1769.96 6.13694 3.317 0
M  V30 19440 H 1765.85 5.08942 3.9705 0
M  V30 19441 H 1766.62 7.16521 3.95651 0
M  V30 19442 N 1769.29 -1.19996 1.0217 0
M  V30 19443 C 1770.22 -2.21695 0.540962 0
M  V30 19444 C 1771.2 -1.57232 -0.414343 0
M  V30 19445 O 1772.38 -1.85533 -0.33314 0
M  V30 19446 C 1769.51 -3.38035 -0.212109 0
M  V30 19447 C 1768.55 -4.20824 0.693529 0
M  V30 19448 S 1769.39 -4.89756 2.16562 0
M  V30 19449 C 1770.54 -6.09513 1.42286 0
M  V30 19450 H 1770.78 -2.62131 1.40267 0
M  V30 19451 H 1768.31 -1.30128 0.831026 0
M  V30 19452 H 1770.27 -4.05473 -0.640484 0
M  V30 19453 H 1768.93 -2.96049 -1.04945 0
M  V30 19454 H 1768.12 -5.03874 0.112557 0
M  V30 19455 H 1767.72 -3.58667 1.05991 0
M  V30 19456 H 1770.01 -6.73816 0.705585 0
M  V30 19457 H 1770.96 -6.72079 2.22969 0
M  V30 19458 H 1771.37 -5.56895 0.923499 0
M  V30 19459 N 1770.76 -0.798611 -1.35867 0
M  V30 19460 C 1772.01 -0.375816 -1.99287 0
M  V30 19461 C 1772.34 1.05223 -1.63223 0
M  V30 19462 O 1771.62 1.72862 -0.891576 0
M  V30 19463 C 1771.9 -0.550197 -3.55872 0
M  V30 19464 C 1771.75 -2.0226 -4.0176 0
M  V30 19465 C 1773.07 0.0290862 -4.4009 0
M  V30 19466 H 1770.19 -0.138024 -0.72396 0
M  V30 19467 H 1772.83 -1.00666 -1.61141 0
M  V30 19468 H 1770.98 -0.0131739 -3.88498 0
M  V30 19469 H 1772.66 -2.62139 -3.7958 0
M  V30 19470 H 1770.9 -2.52191 -3.52962 0
M  V30 19471 H 1771.57 -2.09553 -5.10678 0
M  V30 19472 H 1774.05 -0.429444 -4.13878 0
M  V30 19473 H 1772.92 -0.122894 -5.48762 0
M  V30 19474 H 1773.18 1.12206 -4.27624 0
M  V30 19475 N 1772.24 1.47639 -0.551417 0
M  V30 19476 C 1773.17 2.32743 0.187887 0
M  V30 19477 C 1774.15 1.43432 0.914407 0
M  V30 19478 O 1775.34 1.72295 0.896005 0
M  V30 19479 C 1772.47 3.25092 1.22199 0
M  V30 19480 C 1771.42 4.23598 0.612298 0
M  V30 19481 C 1770.75 5.0523 1.75062 0
M  V30 19482 C 1772.05 5.20526 -0.430135 0
M  V30 19483 H 1773.74 2.94804 -0.522598 0
M  V30 19484 H 1771.29 1.41764 -0.252768 0
M  V30 19485 H 1773.24 3.83467 1.74731 0
M  V30 19486 H 1771.96 2.61074 1.96235 0
M  V30 19487 H 1770.62 3.6644 0.108324 0
M  V30 19488 H 1770.27 4.3762 2.47987 0
M  V30 19489 H 1769.97 5.71918 1.34848 0
M  V30 19490 H 1771.5 5.66463 2.27931 0
M  V30 19491 H 1772.91 5.73299 0.00890168 0
M  V30 19492 H 1771.31 5.95384 -0.750836 0
M  V30 19493 H 1772.38 4.66356 -1.32815 0
M  V30 19494 N 1773.72 0.287581 1.54954 0
M  V30 19495 C 1775 -0.378041 1.91912 0
M  V30 19496 C 1775.38 -1.72749 1.2133 0
M  V30 19497 O 1774.73 -2.2589 0.344403 0
M  V30 19498 C 1774.94 -0.505993 3.45312 0
M  V30 19499 C 1776.28 -0.783109 4.17316 0
M  V30 19500 O 1777.31 -0.590324 3.51274 0
M  V30 19501 O 1776.17 -1.15257 5.34208 0
M  V30 19502 H 1773.26 -0.209004 0.800154 0
M  V30 19503 H 1775.81 0.334653 1.66368 0
M  V30 19504 H 1774.58 0.443187 3.88782 0
M  V30 19505 H 1774.2 -1.26767 3.7685 0
M  V30 19506 N 1775.2 -1.57593 0.0150662 0
M  V30 19507 C 1776.45 -1.90392 -0.66587 0
M  V30 19508 C 1776.76 -0.891694 -1.74092 0
M  V30 19509 O 1777.97 -1.11043 -2.47753 0
M  V30 19510 C 1776.42 -3.38026 -1.23558 0
M  V30 19511 C 1776.03 -4.47577 -0.19455 0
M  V30 19512 C 1777.77 -3.79913 -1.89384 0
M  V30 19513 C 1775.68 -5.86299 -0.7751 0
M  V30 19514 H 1774.61 -0.710474 -0.252473 0
M  V30 19515 H 1777.26 -1.83334 0.0780739 0
M  V30 19516 H 1775.64 -3.3997 -2.03068 0
M  V30 19517 H 1776.82 -4.57172 0.577061 0
M  V30 19518 H 1775.13 -4.14805 0.364134 0
M  V30 19519 H 1777.73 -4.809 -2.3375 0
M  V30 19520 H 1778.07 -3.14225 -2.73072 0
M  V30 19521 H 1778.61 -3.80333 -1.16585 0
M  V30 19522 H 1775.35 -6.55496 0.0233354 0
M  V30 19523 H 1774.87 -5.80338 -1.51552 0
M  V30 19524 H 1776.54 -6.3443 -1.26915 0
M  V30 19525 N 1776.68 0.257904 -1.55475 0
M  V30 19526 C 1777.95 1.00965 -1.67528 0
M  V30 19527 C 1778.33 2.03763 -0.551694 0
M  V30 19528 O 1777.68 2.24099 0.446314 0
M  V30 19529 C 1777.89 1.65289 -3.07377 0
M  V30 19530 C 1779.24 2.15888 -3.65619 0
M  V30 19531 O 1780.26 1.7525 -3.10106 0
M  V30 19532 O 1779.12 2.90471 -4.62913 0
M  V30 19533 H 1776.22 0.469266 -0.680969 0
M  V30 19534 H 1778.76 0.252562 -1.6781 0
M  V30 19535 H 1777.53 0.908769 -3.80601 0
M  V30 19536 H 1777.16 2.47646 -3.11058 0
M  V30 19537 N 1778.15 1.48666 0.52309 0
M  V30 19538 C 1779.1 1.63701 1.62698 0
M  V30 19539 C 1780.07 0.478895 1.59047 0
M  V30 19540 O 1781.26 0.703229 1.77368 0
M  V30 19541 C 1778.4 1.68912 3.00936 0
M  V30 19542 C 1777.51 2.95878 3.1477 0
M  V30 19543 C 1776.64 2.92206 4.43609 0
M  V30 19544 C 1775.68 4.13846 4.50996 0
M  V30 19545 N 1774.82 4.08213 5.71233 0
M  V30 19546 H 1779.66 2.57967 1.49188 0
M  V30 19547 H 1777.2 1.27924 0.726217 0
M  V30 19548 H 1779.16 1.69915 3.81031 0
M  V30 19549 H 1777.79 0.781309 3.13202 0
M  V30 19550 H 1776.84 3.04588 2.27883 0
M  V30 19551 H 1778.15 3.85861 3.1609 0
M  V30 19552 H 1777.3 2.91649 5.32002 0
M  V30 19553 H 1776.04 1.99964 4.44821 0
M  V30 19554 H 1775.05 4.14671 3.61009 0
M  V30 19555 H 1776.27 5.07256 4.51517 0
M  V30 19556 H 1774.22 3.18794 5.73329 0
M  V30 19557 H 1774.14 4.91908 5.74075 0
M  V30 19558 H 1775.4 4.11725 6.61893 0
M  V30 19559 N 1779.63 -0.772489 1.37369 0
M  V30 19560 C 1780.56 -1.89969 1.35772 0
M  V30 19561 C 1781.54 -1.68586 0.226452 0
M  V30 19562 O 1782.73 -1.89454 0.426692 0
M  V30 19563 C 1779.86 -3.27242 1.16319 0
M  V30 19564 C 1778.81 -3.63187 2.2645 0
M  V30 19565 C 1778.14 -4.98992 1.92121 0
M  V30 19566 C 1779.44 -3.70013 3.6863 0
M  V30 19567 H 1781.13 -1.91564 2.30095 0
M  V30 19568 H 1778.68 -0.920241 1.10759 0
M  V30 19569 H 1780.63 -4.05734 1.13832 0
M  V30 19570 H 1779.36 -3.26078 0.184513 0
M  V30 19571 H 1778.01 -2.87001 2.28091 0
M  V30 19572 H 1777.66 -4.94368 0.927848 0
M  V30 19573 H 1777.36 -5.24012 2.65867 0
M  V30 19574 H 1778.89 -5.79886 1.91219 0
M  V30 19575 H 1780.3 -4.38659 3.69122 0
M  V30 19576 H 1778.7 -4.06529 4.41423 0
M  V30 19577 H 1779.77 -2.70694 4.02309 0
M  V30 19578 N 1781.11 -1.21927 -0.998575 0
M  V30 19579 C 1782.36 -1.0404 -1.7373 0
M  V30 19580 C 1782.69 0.425251 -1.89794 0
M  V30 19581 O 1781.94 1.3317 -1.43402 0
M  V30 19582 C 1782.24 -1.69015 -3.1491 0
M  V30 19583 C 1781.91 -3.18893 -3.18776 0
M  V30 19584 C 1780.57 -3.5979 -3.19538 0
M  V30 19585 C 1782.92 -4.14851 -3.15512 0
M  V30 19586 C 1780.25 -4.95138 -3.1473 0
M  V30 19587 C 1782.6 -5.50168 -3.12246 0
M  V30 19588 C 1781.26 -5.90454 -3.11321 0
M  V30 19589 H 1780.53 -0.380709 -0.635721 0
M  V30 19590 H 1783.18 -1.5161 -1.1699 0
M  V30 19591 H 1781.49 -1.13755 -3.74923 0
M  V30 19592 H 1783.18 -1.52671 -3.708 0
M  V30 19593 H 1779.77 -2.86325 -3.18929 0
M  V30 19594 H 1783.96 -3.84277 -3.14078 0
M  V30 19595 H 1779.21 -5.25589 -3.12356 0
M  V30 19596 H 1783.39 -6.24254 -3.08675 0
M  V30 19597 H 1781.01 -6.95299 -3.0735 0
M  V30 19598 N 1782.59 1.19452 -1.02805 0
M  V30 19599 C 1783.54 2.20533 -0.578732 0
M  V30 19600 C 1784.52 1.56539 0.372081 0
M  V30 19601 O 1785.71 1.75943 0.193185 0
M  V30 19602 C 1782.84 3.43229 0.0698982 0
M  V30 19603 C 1781.93 4.14368 -0.903306 0
M  V30 19604 N 1782.32 4.61709 -2.0654 0
M  V30 19605 C 1780.62 4.40042 -0.726572 0
M  V30 19606 C 1781.32 5.1633 -2.67914 0
M  V30 19607 N 1780.3 5.0708 -1.95884 0
M  V30 19608 H 1784.1 2.54813 -1.46451 0
M  V30 19609 H 1781.61 1.35517 -0.894927 0
M  V30 19610 H 1783.61 4.14885 0.409411 0
M  V30 19611 H 1782.27 3.1045 0.951368 0
M  V30 19612 H 1783.28 4.5656 -2.44485 0
M  V30 19613 H 1779.96 4.17366 0.105875 0
M  V30 19614 H 1781.35 5.63254 -3.66326 0
M  V30 19615 N 1784.07 0.805805 1.35442 0
M  V30 19616 C 1785.31 0.386379 1.99085 0
M  V30 19617 C 1785.65 -1.04356 1.63779 0
M  V30 19618 O 1784.92 -1.72386 0.900731 0
M  V30 19619 C 1785.2 0.569062 3.55575 0
M  V30 19620 C 1785.06 2.04387 4.00682 0
M  V30 19621 C 1786.38 -0.00574668 4.401 0
M  V30 19622 H 1783.49 0.141862 0.723218 0
M  V30 19623 H 1786.14 1.01519 1.60605 0
M  V30 19624 H 1784.29 0.0337767 3.88485 0
M  V30 19625 H 1785.96 2.64148 3.78184 0
M  V30 19626 H 1784.2 2.54059 3.5162 0
M  V30 19627 H 1784.87 2.12258 5.09559 0
M  V30 19628 H 1787.35 0.451387 4.13644 0
M  V30 19629 H 1786.22 0.151994 5.4869 0
M  V30 19630 H 1786.49 -1.09937 4.28213 0
M  V30 19631 N 1785.54 -1.47344 0.559239 0
M  V30 19632 C 1786.96 -1.58088 0.219155 0
M  V30 19633 C 1787.16 -1.55758 -1.27834 0
M  V30 19634 O 1786.22 -1.46207 -2.05864 0
M  V30 19635 C 1787.53 -2.88507 0.847606 0
M  V30 19636 C 1789.08 -3.02094 0.819022 0
M  V30 19637 C 1789.55 -4.35216 1.42658 0
M  V30 19638 N 1791.04 -4.41857 1.38986 0
M  V30 19639 C 1791.78 -5.43429 1.82956 0
M  V30 19640 N 1791.27 -6.51801 2.34792 0
M  V30 19641 N 1793.07 -5.34486 1.74015 0
M  V30 19642 H 1785.22 -1.47102 1.53215 0
M  V30 19643 H 1787.48 -0.700228 0.63905 0
M  V30 19644 H 1787.19 -2.95954 1.90011 0
M  V30 19645 H 1787.06 -3.75648 0.341841 0
M  V30 19646 H 1789.45 -2.94243 -0.224794 0
M  V30 19647 H 1789.53 -2.1649 1.36257 0
M  V30 19648 H 1789.17 -4.43824 2.46947 0
M  V30 19649 H 1789.1 -5.19556 0.858462 0
M  V30 19650 H 1791.59 -3.64133 1.01071 0
M  V30 19651 H 1791.91 -7.25482 2.66262 0
M  V30 19652 H 1790.25 -6.52685 2.38804 0
M  V30 19653 H 1793.44 -4.48721 1.33294 0
M  V30 19654 H 1793.62 -6.13506 2.086 0
M  V30 19655 N 1787.02 -0.295795 -1.54799 0
M  V30 19656 C 1788.43 0.19789 -1.85648 0
M  V30 19657 C 1788.78 1.53834 -1.21776 0
M  V30 19658 O 1787.91 2.10218 -0.513554 0
M  V30 19659 C 1788.5 0.365844 -3.36819 0
M  V30 19660 C 1787.06 0.80375 -3.67718 0
M  V30 19661 C 1786.21 -0.0909572 -2.77151 0
M  V30 19662 H 1789.16 -0.516968 -1.50044 0
M  V30 19663 H 1789.18 1.20123 -3.61041 0
M  V30 19664 H 1788.69 -0.60991 -3.83278 0
M  V30 19665 H 1786.8 1.79024 -3.26774 0
M  V30 19666 H 1786.91 0.626745 -4.74983 0
M  V30 19667 H 1785.27 0.428882 -2.51063 0
M  V30 19668 H 1786.06 -1.06297 -3.26429 0
M  V30 19669 N 1788.5 1.57583 -0.0234236 0
M  V30 19670 C 1789.75 1.91848 0.657422 0
M  V30 19671 C 1790.08 0.899633 1.72105 0
M  V30 19672 O 1789.36 -0.0784409 1.94342 0
M  V30 19673 C 1789.64 3.36617 1.2791 0
M  V30 19674 C 1789.49 4.49235 0.225421 0
M  V30 19675 C 1790.81 3.81239 2.19874 0
M  V30 19676 H 1787.93 0.697677 0.23752 0
M  V30 19677 H 1790.57 1.89834 -0.0795169 0
M  V30 19678 H 1788.72 3.38465 1.90719 0
M  V30 19679 H 1790.39 4.59521 -0.404792 0
M  V30 19680 H 1788.64 4.31462 -0.449749 0
M  V30 19681 H 1789.31 5.47545 0.699906 0
M  V30 19682 H 1791.78 3.81092 1.67058 0
M  V30 19683 H 1790.66 4.8324 2.60328 0
M  V30 19684 H 1790.92 3.16421 3.08755 0
M  V30 19685 N 1789.98 -0.249655 1.5561 0
M  V30 19686 C 1791.21 -0.995707 1.81365 0
M  V30 19687 C 1791.62 -1.79054 0.598767 0
M  V30 19688 O 1790.98 -1.773 -0.432538 0
M  V30 19689 C 1791.03 -1.93577 3.05303 0
M  V30 19690 O 1790.75 -1.17311 4.22102 0
M  V30 19691 C 1792.25 -2.79804 3.43838 0
M  V30 19692 H 1789.47 -0.293118 0.603591 0
M  V30 19693 H 1792.02 -0.273374 2.02665 0
M  V30 19694 H 1790.17 -2.61242 2.86062 0
M  V30 19695 H 1790.59 -1.80875 4.92326 0
M  V30 19696 H 1792.06 -3.4152 4.33668 0
M  V30 19697 H 1792.54 -3.50776 2.64298 0
M  V30 19698 H 1793.14 -2.17596 3.6542 0
M  V30 19699 N 1791.46 -1.48941 -0.515198 0
M  V30 19700 C 1792.39 -1.60665 -1.63461 0
M  V30 19701 C 1793.4 -0.490076 -1.55248 0
M  V30 19702 O 1794.59 -0.761549 -1.61439 0
M  V30 19703 C 1791.69 -1.53414 -3.02187 0
M  V30 19704 C 1790.86 -2.80364 -3.3573 0
M  V30 19705 C 1789.92 -2.66362 -4.53804 0
M  V30 19706 O 1788.95 -3.40276 -4.5629 0
M  V30 19707 N 1790.15 -1.76961 -5.5287 0
M  V30 19708 H 1792.92 -2.57206 -1.53836 0
M  V30 19709 H 1790.48 -1.45851 -0.702786 0
M  V30 19710 H 1792.47 -1.41721 -3.79074 0
M  V30 19711 H 1791.04 -0.647891 -3.05812 0
M  V30 19712 H 1790.26 -3.06513 -2.47878 0
M  V30 19713 H 1791.55 -3.64555 -3.54932 0
M  V30 19714 H 1790.95 -1.16139 -5.5365 0
M  V30 19715 H 1789.5 -1.71198 -6.28915 0
M  V30 19716 N 1792.94 0.765193 -1.37777 0
M  V30 19717 C 1794.16 1.55436 -1.36556 0
M  V30 19718 C 1794.58 1.8874 0.0475187 0
M  V30 19719 O 1793.94 1.51933 1.01107 0
M  V30 19720 C 1793.99 2.86063 -2.21021 0
M  V30 19721 O 1793.71 2.54183 -3.56823 0
M  V30 19722 C 1795.21 3.80261 -2.27851 0
M  V30 19723 H 1792.43 0.481331 -0.467506 0
M  V30 19724 H 1794.97 0.947906 -1.81204 0
M  V30 19725 H 1793.13 3.43114 -1.79864 0
M  V30 19726 H 1793.54 3.37879 -4.01171 0
M  V30 19727 H 1795.02 4.68904 -2.91261 0
M  V30 19728 H 1795.49 4.19865 -1.28881 0
M  V30 19729 H 1796.1 3.29137 -2.69349 0
M  V30 19730 N 1794.41 1.22455 0.992094 0
M  V30 19731 C 1795.69 0.958091 1.70529 0
M  V30 19732 C 1796.07 -0.526595 2.04426 0
M  V30 19733 O 1795.42 -1.49483 1.72821 0
M  V30 19734 C 1795.63 1.85646 2.95528 0
M  V30 19735 C 1796.98 2.11301 3.68289 0
M  V30 19736 O 1798 1.831 3.05537 0
M  V30 19737 O 1796.86 2.59068 4.81192 0
M  V30 19738 H 1793.95 0.360375 0.744351 0
M  V30 19739 H 1796.5 1.33444 1.04837 0
M  V30 19740 H 1795.27 2.86067 2.66986 0
M  V30 19741 H 1794.89 1.48174 3.68958 0
M  V30 19742 N 1795.89 -1.18905 1.03437 0
M  V30 19743 C 1797.14 -1.89007 0.735135 0
M  V30 19744 C 1797.47 -1.7976 -0.734838 0
M  V30 19745 O 1796.75 -1.19365 -1.53565 0
M  V30 19746 C 1797.03 -3.39732 1.1939 0
M  V30 19747 C 1796.88 -3.57822 2.7255 0
M  V30 19748 C 1798.2 -4.33151 0.778993 0
M  V30 19749 H 1795.32 -0.686338 0.26853 0
M  V30 19750 H 1797.96 -1.39932 1.28527 0
M  V30 19751 H 1796.11 -3.81659 0.725861 0
M  V30 19752 H 1797.78 -3.25031 3.27342 0
M  V30 19753 H 1796.03 -3.0069 3.12679 0
M  V30 19754 H 1796.7 -4.63552 2.99706 0
M  V30 19755 H 1799.17 -3.98969 1.18164 0
M  V30 19756 H 1798.05 -5.37189 1.12781 0
M  V30 19757 H 1798.31 -4.40953 -0.318296 0
M  V30 19758 N 1797.37 -0.812977 -1.35013 0
M  V30 19759 C 1798.6 -0.408421 -2.02523 0
M  V30 19760 C 1799.01 0.987315 -1.61396 0
M  V30 19761 O 1798.35 1.64865 -0.810251 0
M  V30 19762 C 1798.41 -0.419647 -3.57042 0
M  V30 19763 C 1798.08 -1.767 -4.21457 0
M  V30 19764 C 1799.07 -2.7263 -4.42684 0
M  V30 19765 C 1796.76 -2.05275 -4.5844 0
M  V30 19766 C 1798.75 -3.95315 -5.00004 0
M  V30 19767 C 1796.44 -3.28223 -5.15473 0
M  V30 19768 C 1797.44 -4.23061 -5.36198 0
M  V30 19769 O 1797.13 -5.43837 -5.92027 0
M  V30 19770 H 1796.86 -0.163311 -0.655977 0
M  V30 19771 H 1799.41 -1.09974 -1.73479 0
M  V30 19772 H 1797.64 0.328309 -3.85304 0
M  V30 19773 H 1799.33 -0.0365204 -4.05884 0
M  V30 19774 H 1800.1 -2.51846 -4.14486 0
M  V30 19775 H 1795.98 -1.32265 -4.41619 0
M  V30 19776 H 1799.52 -4.69351 -5.16097 0
M  V30 19777 H 1795.42 -3.48874 -5.43099 0
M  V30 19778 H 1796.18 -5.45221 -6.10472 0
M  V30 19779 N 1798.85 1.47045 -0.567045 0
M  V30 19780 C 1800.26 1.5797 -0.227536 0
M  V30 19781 C 1800.46 1.56434 1.27006 0
M  V30 19782 O 1799.52 1.47297 2.05085 0
M  V30 19783 C 1800.83 2.88053 -0.862894 0
M  V30 19784 C 1802.38 3.01656 -0.835032 0
M  V30 19785 C 1802.86 4.34453 -1.44964 0
M  V30 19786 N 1804.35 4.41113 -1.41327 0
M  V30 19787 C 1805.08 5.42451 -1.85835 0
M  V30 19788 N 1804.58 6.50547 -2.38245 0
M  V30 19789 N 1806.37 5.33556 -1.76847 0
M  V30 19790 H 1798.52 1.46287 -1.53993 0
M  V30 19791 H 1800.78 0.696829 -0.642755 0
M  V30 19792 H 1800.49 2.94942 -1.91578 0
M  V30 19793 H 1800.36 3.75461 -0.361758 0
M  V30 19794 H 1802.75 2.94358 0.209187 0
M  V30 19795 H 1802.83 2.15764 -1.37403 0
M  V30 19796 H 1802.48 4.42508 -2.49298 0
M  V30 19797 H 1802.41 5.19093 -0.886003 0
M  V30 19798 H 1804.9 3.63592 -1.03001 0
M  V30 19799 H 1805.21 7.2406 -2.70105 0
M  V30 19800 H 1803.56 6.51409 -2.42262 0
M  V30 19801 H 1806.75 4.48008 -1.35671 0
M  V30 19802 H 1806.92 6.12391 -2.11851 0
M  V30 19803 N 1800.33 0.304 1.5464 0
M  V30 19804 C 1801.29 -0.557917 2.22306 0
M  V30 19805 C 1802.29 -1.05895 1.21008 0
M  V30 19806 O 1803.48 -0.954497 1.45722 0
M  V30 19807 C 1800.61 -1.77279 2.91178 0
M  V30 19808 H 1801.8 0.0333187 2.99881 0
M  V30 19809 H 1799.36 0.0548659 1.56204 0
M  V30 19810 H 1800.09 -2.40378 2.17689 0
M  V30 19811 H 1799.88 -1.42115 3.65439 0
M  V30 19812 H 1801.37 -2.38507 3.42789 0
M  V30 19813 N 1801.8 -1.57568 0.0317802 0
M  V30 19814 C 1803.08 -1.8321 -0.685081 0
M  V30 19815 C 1803.46 -0.91624 -1.9018 0
M  V30 19816 O 1802.81 0.0275043 -2.28483 0
M  V30 19817 C 1803.02 -3.32488 -1.06078 0
M  V30 19818 C 1804.37 -3.99027 -1.45129 0
M  V30 19819 O 1805.39 -3.36999 -1.15368 0
M  V30 19820 O 1804.25 -5.08355 -2.00592 0
M  V30 19821 H 1801.34 -0.755517 -0.336337 0
M  V30 19822 H 1803.89 -1.69595 0.0596652 0
M  V30 19823 H 1802.66 -3.90814 -0.194918 0
M  V30 19824 H 1802.28 -3.5122 -1.8636 0
M  V30 19825 N 1803.28 0.241399 -1.5574 0
M  V30 19826 C 1804.25 1.28236 -1.89969 0
M  V30 19827 C 1805.25 1.40804 -0.776582 0
M  V30 19828 O 1806.44 1.3941 -1.04453 0
M  V30 19829 C 1803.57 2.65926 -2.13299 0
M  V30 19830 H 1804.76 0.991011 -2.83053 0
M  V30 19831 H 1802.31 0.480939 -1.48717 0
M  V30 19832 H 1803.05 3.00192 -1.22701 0
M  V30 19833 H 1802.83 2.58184 -2.95099 0
M  V30 19834 H 1804.32 3.4108 -2.40944 0
M  V30 19835 N 1804.76 1.49212 0.507292 0
M  V30 19836 C 1805.71 1.65417 1.60953 0
M  V30 19837 C 1806.68 0.495737 1.5853 0
M  V30 19838 O 1807.86 0.722002 1.76612 0
M  V30 19839 C 1805 1.72095 2.99128 0
M  V30 19840 C 1804.12 2.99199 3.11615 0
M  V30 19841 C 1803.25 2.96895 4.40485 0
M  V30 19842 C 1802.29 4.18607 4.46581 0
M  V30 19843 N 1801.43 4.14248 5.66871 0
M  V30 19844 H 1806.27 2.59535 1.46444 0
M  V30 19845 H 1803.8 1.28687 0.712609 0
M  V30 19846 H 1805.76 1.73947 3.79207 0
M  V30 19847 H 1804.39 0.814484 3.12356 0
M  V30 19848 H 1803.44 3.06988 2.24639 0
M  V30 19849 H 1804.76 3.89192 3.11979 0
M  V30 19850 H 1803.91 2.97275 5.28878 0
M  V30 19851 H 1802.65 2.0467 4.42675 0
M  V30 19852 H 1801.65 4.18477 3.56591 0
M  V30 19853 H 1802.88 5.12017 4.46112 0
M  V30 19854 H 1800.82 3.24857 5.69916 0
M  V30 19855 H 1800.74 4.97969 5.68826 0
M  V30 19856 H 1802.01 4.18722 6.57489 0
M  V30 19857 N 1806.24 -0.757876 1.38181 0
M  V30 19858 C 1807.15 -1.90234 1.37289 0
M  V30 19859 C 1808.16 -1.71883 0.270567 0
M  V30 19860 O 1809.34 -1.94881 0.508279 0
M  V30 19861 C 1806.41 -3.25546 1.19251 0
M  V30 19862 C 1805.47 -3.56452 2.39249 0
M  V30 19863 C 1804.7 -4.85308 2.22063 0
M  V30 19864 O 1804.92 -5.57373 1.2121 0
M  V30 19865 O 1803.86 -5.15594 3.10558 0
M  V30 19866 H 1807.68 -1.9394 2.33711 0
M  V30 19867 H 1805.27 -0.902559 1.19056 0
M  V30 19868 H 1807.15 -4.06454 1.11235 0
M  V30 19869 H 1805.82 -3.22661 0.259109 0
M  V30 19870 H 1804.73 -2.75723 2.52839 0
M  V30 19871 H 1806.06 -3.64094 3.31205 0
M  V30 19872 N 1807.72 -1.22979 -0.985586 0
M  V30 19873 C 1808.97 -1.05286 -1.7204 0
M  V30 19874 C 1809.28 0.411213 -1.91229 0
M  V30 19875 O 1810.48 0.70797 -2.62107 0
M  V30 19876 C 1808.94 -1.8355 -3.09576 0
M  V30 19877 C 1808.55 -3.34254 -2.98293 0
M  V30 19878 C 1810.29 -1.74329 -3.87052 0
M  V30 19879 C 1808.2 -4.0493 -4.31029 0
M  V30 19880 H 1807.13 -0.390364 -0.645083 0
M  V30 19881 H 1809.78 -1.46898 -1.09969 0
M  V30 19882 H 1808.16 -1.34741 -3.72372 0
M  V30 19883 H 1809.34 -3.90511 -2.44618 0
M  V30 19884 H 1807.65 -3.44231 -2.34294 0
M  V30 19885 H 1810.25 -2.24449 -4.85311 0
M  V30 19886 H 1810.59 -0.705078 -4.10286 0
M  V30 19887 H 1811.12 -2.20721 -3.30949 0
M  V30 19888 H 1807.86 -5.09035 -4.12993 0
M  V30 19889 H 1807.38 -3.5346 -4.84588 0
M  V30 19890 H 1809.06 -4.10935 -4.99742 0
M  V30 19891 N 1809.19 1.18355 -1.04066 0
M  V30 19892 C 1810.61 1.69995 -0.771919 0
M  V30 19893 C 1810.96 1.83011 0.707213 0
M  V30 19894 O 1810.08 1.5096 1.55048 0
M  V30 19895 C 1810.68 3.08765 -1.39461 0
M  V30 19896 C 1809.24 3.57617 -1.17418 0
M  V30 19897 C 1808.38 2.34168 -1.48528 0
M  V30 19898 H 1811.33 1.0303 -1.20708 0
M  V30 19899 H 1811.35 3.72042 -0.79782 0
M  V30 19900 H 1810.87 2.9926 -2.47113 0
M  V30 19901 H 1808.97 3.72418 -0.116398 0
M  V30 19902 H 1809.08 4.41048 -1.87119 0
M  V30 19903 H 1807.44 2.38081 -0.904972 0
M  V30 19904 H 1808.23 2.27282 -2.57289 0
M  V30 19905 N 1810.67 0.820125 1.3458 0
M  V30 19906 C 1812.09 0.505533 1.51382 0
M  V30 19907 C 1812.29 -0.970812 1.76571 0
M  V30 19908 O 1811.34 -1.75538 1.81501 0
M  V30 19909 C 1812.66 1.36264 2.68054 0
M  V30 19910 C 1814.21 1.35947 2.81935 0
M  V30 19911 C 1814.68 2.201 4.01647 0
M  V30 19912 N 1816.17 2.17708 4.08849 0
M  V30 19913 C 1816.91 2.79571 5.00627 0
M  V30 19914 N 1816.4 3.50413 5.97647 0
M  V30 19915 N 1818.2 2.6914 4.93477 0
M  V30 19916 H 1810.35 1.77607 1.16488 0
M  V30 19917 H 1812.61 0.756693 0.571068 0
M  V30 19918 H 1812.32 2.41093 2.56061 0
M  V30 19919 H 1812.19 1.02537 3.62996 0
M  V30 19920 H 1814.58 0.318971 2.93371 0
M  V30 19921 H 1814.66 1.7367 1.8781 0
M  V30 19922 H 1814.3 3.24198 3.90971 0
M  V30 19923 H 1814.23 1.79729 4.9498 0
M  V30 19924 H 1816.72 1.66175 3.39403 0
M  V30 19925 H 1817.04 3.9487 6.64303 0
M  V30 19926 H 1815.38 3.54519 5.9778 0
M  V30 19927 H 1818.57 2.13372 4.16641 0
M  V30 19928 H 1818.74 3.17639 5.64809 0
M  V30 19929 N 1812.15 -1.46743 0.574835 0
M  V30 19930 C 1813.4 -2.01625 0.0551724 0
M  V30 19931 C 1813.71 -1.4528 -1.3097 0
M  V30 19932 O 1814.92 -1.91932 -1.92026 0
M  V30 19933 C 1813.37 -3.59868 0.0480708 0
M  V30 19934 C 1812.98 -4.25207 1.41078 0
M  V30 19935 C 1814.73 -4.22436 -0.41806 0
M  V30 19936 C 1812.63 -5.75507 1.36183 0
M  V30 19937 H 1811.56 -0.753812 0.0168558 0
M  V30 19938 H 1814.21 -1.68557 0.725313 0
M  V30 19939 H 1812.6 -3.89976 -0.688076 0
M  V30 19940 H 1813.77 -4.06718 2.16603 0
M  V30 19941 H 1812.09 -3.747 1.81628 0
M  V30 19942 H 1814.68 -5.32601 -0.473353 0
M  V30 19943 H 1815.03 -3.90826 -1.43391 0
M  V30 19944 H 1815.56 -3.96925 0.263775 0
M  V30 19945 H 1812.3 -6.11765 2.35423 0
M  V30 19946 H 1811.82 -5.96282 0.648655 0
M  V30 19947 H 1813.5 -6.38068 1.07137 0
M  V30 19948 N 1813.63 -0.312197 -1.54477 0
M  V30 19949 C 1814.88 0.293772 -2.00358 0
M  V30 19950 C 1815.2 1.5303 -1.2005 0
M  V30 19951 O 1814.46 1.93861 -0.267678 0
M  V30 19952 C 1814.76 0.684057 -3.50793 0
M  V30 19953 C 1814.42 -0.452004 -4.48629 0
M  V30 19954 C 1813.09 -0.763853 -4.75099 0
M  V30 19955 C 1815.44 -1.21567 -5.06824 0
M  V30 19956 C 1812.77 -1.84229 -5.57025 0
M  V30 19957 C 1815.12 -2.28412 -5.89924 0
M  V30 19958 C 1813.78 -2.60191 -6.14701 0
M  V30 19959 H 1813.05 0.107499 -0.733161 0
M  V30 19960 H 1815.7 -0.433618 -1.86526 0
M  V30 19961 H 1814 1.4917 -3.62292 0
M  V30 19962 H 1815.7 1.16428 -3.83726 0
M  V30 19963 H 1812.29 -0.198857 -4.28138 0
M  V30 19964 H 1816.47 -0.988007 -4.86366 0
M  V30 19965 H 1811.73 -2.09311 -5.74455 0
M  V30 19966 H 1815.9 -2.88037 -6.34041 0
M  V30 19967 H 1813.53 -3.43887 -6.77972 0
M  V30 19968 N 1815.11 1.57549 -0.040136 0
M  V30 19969 C 1816.04 2.07803 0.966975 0
M  V30 19970 C 1817.05 1.00363 1.28184 0
M  V30 19971 O 1818.24 1.27957 1.24456 0
M  V30 19972 C 1815.34 2.49688 2.29149 0
M  V30 19973 C 1814.51 3.80336 2.16017 0
M  V30 19974 C 1813.57 4.08652 3.31497 0
M  V30 19975 O 1812.6 4.78739 3.07892 0
M  V30 19976 N 1813.8 3.59693 4.55633 0
M  V30 19977 H 1816.57 2.94829 0.538115 0
M  V30 19978 H 1814.13 1.61237 0.146368 0
M  V30 19979 H 1816.12 2.65715 3.0525 0
M  V30 19980 H 1814.69 1.67969 2.63638 0
M  V30 19981 H 1813.91 3.73998 1.24575 0
M  V30 19982 H 1815.2 4.65912 2.04458 0
M  V30 19983 H 1814.59 3.03012 4.77703 0
M  V30 19984 H 1813.15 3.80978 5.28866 0
M  V30 19985 N 1816.58 -0.233136 1.55866 0
M  V30 19986 C 1817.83 -0.957205 1.7754 0
M  V30 19987 C 1818.15 -1.85956 0.606601 0
M  V30 19988 O 1819.35 -2.62142 0.706687 0
M  V30 19989 C 1817.81 -1.75215 3.14369 0
M  V30 19990 C 1817.42 -0.896509 4.38938 0
M  V30 19991 C 1819.16 -2.46813 3.45374 0
M  V30 19992 C 1817.07 -1.68814 5.66794 0
M  V30 19993 H 1816 -0.361139 0.661887 0
M  V30 19994 H 1818.65 -0.211424 1.82278 0
M  V30 19995 H 1817.03 -2.54041 3.03775 0
M  V30 19996 H 1818.2 -0.149614 4.60557 0
M  V30 19997 H 1816.52 -0.293211 4.15366 0
M  V30 19998 H 1819.12 -3.0652 4.38121 0
M  V30 19999 H 1819.46 -3.19121 2.67334 0
M  V30 20000 H 1819.99 -1.74987 3.57245 0
M  V30 20001 H 1816.73 -1.00855 6.47695 0
M  V30 20002 H 1816.25 -2.40995 5.49255 0
M  V30 20003 H 1817.93 -2.25178 6.06551 0
M  V30 20004 N 1818.06 -1.49479 -0.499372 0
M  V30 20005 C 1818.99 -1.69182 -1.60934 0
M  V30 20006 C 1819.97 -0.54053 -1.61283 0
M  V30 20007 O 1821.16 -0.776554 -1.77998 0
M  V30 20008 C 1818.29 -1.75985 -2.99411 0
M  V30 20009 C 1817.24 -2.9092 -3.13926 0
M  V30 20010 C 1816.57 -2.82837 -4.5377 0
M  V30 20011 C 1817.87 -4.31833 -2.93799 0
M  V30 20012 H 1819.56 -2.62112 -1.44699 0
M  V30 20013 H 1817.11 -1.26135 -0.694688 0
M  V30 20014 H 1819.06 -1.88354 -3.76962 0
M  V30 20015 H 1817.79 -0.796557 -3.16737 0
M  V30 20016 H 1816.45 -2.78155 -2.388 0
M  V30 20017 H 1816.09 -1.84412 -4.67976 0
M  V30 20018 H 1815.79 -3.59979 -4.64423 0
M  V30 20019 H 1817.32 -2.97217 -5.3338 0
M  V30 20020 H 1818.73 -4.45271 -3.61119 0
M  V30 20021 H 1817.13 -5.10209 -3.15922 0
M  V30 20022 H 1818.2 -4.46165 -1.89908 0
M  V30 20023 N 1819.54 0.750537 -1.38581 0
M  V30 20024 C 1820.77 1.53755 -1.37996 0
M  V30 20025 C 1821.18 1.89174 0.0313394 0
M  V30 20026 O 1820.52 1.535 1.00912 0
M  V30 20027 C 1820.58 2.86315 -2.17403 0
M  V30 20028 C 1820.25 2.73417 -3.66186 0
M  V30 20029 C 1821.25 2.43008 -4.59612 0
M  V30 20030 C 1818.93 2.90774 -4.0958 0
M  V30 20031 C 1820.92 2.30114 -5.94413 0
M  V30 20032 C 1818.61 2.775 -5.4446 0
M  V30 20033 C 1819.61 2.47213 -6.3669 0
M  V30 20034 O 1819.3 2.34004 -7.69089 0
M  V30 20035 H 1819.03 0.482269 -0.473701 0
M  V30 20036 H 1821.58 0.936379 -1.82814 0
M  V30 20037 H 1819.81 3.48633 -1.67307 0
M  V30 20038 H 1821.5 3.47844 -2.09187 0
M  V30 20039 H 1822.27 2.29263 -4.27391 0
M  V30 20040 H 1818.15 3.13344 -3.38137 0
M  V30 20041 H 1821.69 2.06396 -6.66368 0
M  V30 20042 H 1817.59 2.90818 -5.76277 0
M  V30 20043 H 1818.36 2.49193 -7.79644 0
M  V30 20044 N 1821.02 1.235 0.979051 0
M  V30 20045 C 1821.98 1.01854 2.05325 0
M  V30 20046 C 1822.98 -0.0201133 1.60787 0
M  V30 20047 O 1824.17 0.219761 1.72808 0
M  V30 20048 C 1821.3 0.541404 3.36573 0
M  V30 20049 H 1822.5 1.97183 2.25962 0
M  V30 20050 H 1820.05 1.05563 1.15265 0
M  V30 20051 H 1820.79 -0.415607 3.21626 0
M  V30 20052 H 1820.57 1.29092 3.7024 0
M  V30 20053 H 1822.06 0.410635 4.15576 0
M  V30 20054 N 1822.5 -1.17802 1.04693 0
M  V30 20055 C 1823.45 -2.23698 0.637319 0
M  V30 20056 C 1824.44 -1.65974 -0.338957 0
M  V30 20057 O 1825.65 -1.78822 -0.205565 0
M  V30 20058 H 1822.02 -0.728146 0.187903 0
M  V30 20059 H 1823.99 -2.55549 1.5407 0
M  V30 20060 C 1822.74 -3.47693 0.0227662 0
M  V30 20061 H 1822.06 -3.92412 0.765058 0
M  V30 20062 H 1823.5 -4.23394 -0.22653 0
M  V30 20063 C 1821.96 -3.13679 -1.22912 0
M  V30 20064 O 1822.49 -3.27993 -2.31913 0
M  V30 20065 N 1820.7 -2.67948 -1.12483 0
M  V30 20066 H 1820.25 -2.565 -0.237818 0
M  V30 20067 H 1820.2 -2.45562 -1.96333 0
M  V30 20068 N 1823.98 -0.827251 -1.34143 0
M  V30 20069 C 1824.89 -0.254285 -2.33218 0
M  V30 20070 C 1825.9 0.613602 -1.62822 0
M  V30 20071 O 1827.08 0.520477 -1.94558 0
M  V30 20072 C 1824.14 0.570817 -3.41969 0
M  V30 20073 C 1823.2 -0.319978 -4.28106 0
M  V30 20074 C 1822.44 0.465839 -5.31663 0
M  V30 20075 O 1822.66 1.6987 -5.44518 0
M  V30 20076 O 1821.59 -0.154094 -6.01703 0
M  V30 20077 H 1825.42 -1.07441 -2.8406 0
M  V30 20078 H 1823 -0.589493 -1.37278 0
M  V30 20079 H 1824.89 1.04009 -4.08363 0
M  V30 20080 H 1823.56 1.3682 -2.93363 0
M  V30 20081 H 1822.47 -0.836843 -3.6462 0
M  V30 20082 H 1823.8 -1.08183 -4.80164 0
M  V30 20083 N 1825.45 1.46436 -0.582609 0
M  V30 20084 C 1826.7 2.01986 -0.0680147 0
M  V30 20085 C 1827.02 1.45654 1.29653 0
M  V30 20086 O 1826.29 0.641203 1.85109 0
M  V30 20087 H 1824.87 0.746671 -0.022153 0
M  V30 20088 H 1827.53 1.79541 -0.758367 0
M  V30 20089 H 1826.63 3.121 0.00106001 0
M  V30 20090 N 1826.93 0.320385 1.54309 0
M  V30 20091 C 1827.84 -0.556017 2.27916 0
M  V30 20092 C 1828.86 -1.13192 1.32149 0
M  V30 20093 O 1830.03 -1.15257 1.6516 0
M  V30 20094 C 1827.1 -1.70244 3.02023 0
M  V30 20095 C 1826.16 -1.15866 4.13369 0
M  V30 20096 C 1825.39 -2.25044 4.83933 0
M  V30 20097 O 1825.62 -3.45327 4.53988 0
M  V30 20098 O 1824.55 -1.90642 5.70911 0
M  V30 20099 H 1828.38 0.0416563 3.03671 0
M  V30 20100 H 1825.96 0.0861809 1.49151 0
M  V30 20101 H 1827.84 -2.36995 3.48442 0
M  V30 20102 H 1826.52 -2.28635 2.29146 0
M  V30 20103 H 1825.42 -0.456323 3.71306 0
M  V30 20104 H 1826.76 -0.619916 4.88281 0
M  V30 20105 N 1828.41 -1.57525 0.0484906 0
M  V30 20106 C 1829.63 -1.97309 -0.639062 0
M  V30 20107 C 1830.06 -0.925753 -1.63742 0
M  V30 20108 O 1829.42 0.111304 -1.80958 0
M  V30 20109 C 1829.47 -3.36168 -1.30475 0
M  V30 20110 O 1828.57 -3.33903 -2.42038 0
M  V30 20111 H 1827.91 -0.642824 -0.166351 0
M  V30 20112 H 1830.44 -2.0427 0.116095 0
M  V30 20113 H 1830.45 -3.72835 -1.65705 0
M  V30 20114 H 1829.13 -4.11933 -0.573057 0
M  V30 20115 H 1827.7 -3.08978 -2.08775 0
M  V30 20116 N 1829.89 0.224867 -1.55988 0
M  V30 20117 C 1830.83 1.27865 -1.92144 0
M  V30 20118 C 1831.8 1.46741 -0.778228 0
M  V30 20119 O 1832.99 1.60364 -1.03383 0
M  V30 20120 C 1830.13 2.62468 -2.24063 0
M  V30 20121 C 1829.24 2.51419 -3.51301 0
M  V30 20122 C 1828.38 3.78523 -3.72684 0
M  V30 20123 C 1827.42 3.62182 -4.93448 0
M  V30 20124 N 1826.55 4.81228 -5.11237 0
M  V30 20125 H 1831.39 0.96331 -2.82001 0
M  V30 20126 H 1828.93 0.464362 -1.39578 0
M  V30 20127 H 1830.89 3.40848 -2.4058 0
M  V30 20128 H 1829.52 2.92105 -1.37384 0
M  V30 20129 H 1828.57 1.64491 -3.42997 0
M  V30 20130 H 1829.88 2.35263 -4.39833 0
M  V30 20131 H 1829.04 4.65346 -3.89279 0
M  V30 20132 H 1827.78 3.976 -2.82428 0
M  V30 20133 H 1826.78 2.73743 -4.76807 0
M  V30 20134 H 1828.01 3.44579 -5.85186 0
M  V30 20135 H 1825.95 5.00625 -4.23923 0
M  V30 20136 H 1825.87 4.67787 -5.93895 0
M  V30 20137 H 1827.14 5.69487 -5.32264 0
M  V30 20138 N 1831.37 1.49742 0.491438 0
M  V30 20139 C 1832.31 1.67115 1.59189 0
M  V30 20140 C 1833.28 0.512523 1.57995 0
M  V30 20141 O 1834.47 0.740693 1.75836 0
M  V30 20142 C 1831.61 1.75258 2.97286 0
M  V30 20143 C 1830.72 3.02488 3.08424 0
M  V30 20144 C 1829.86 3.0155 4.37311 0
M  V30 20145 C 1828.89 4.2332 4.42116 0
M  V30 20146 N 1828.03 4.20238 5.62445 0
M  V30 20147 H 1832.87 2.61073 1.43683 0
M  V30 20148 H 1830.41 1.29435 0.69892 0
M  V30 20149 H 1832.37 1.77959 3.77341 0
M  V30 20150 H 1831 0.847568 3.11474 0
M  V30 20151 H 1830.05 3.09353 2.21371 0
M  V30 20152 H 1831.36 3.92479 3.07834 0
M  V30 20153 H 1830.51 3.02868 5.25695 0
M  V30 20154 H 1829.25 2.09354 4.4048 0
M  V30 20155 H 1828.26 4.22236 3.52132 0
M  V30 20156 H 1829.48 5.1672 4.40656 0
M  V30 20157 H 1827.43 3.30884 5.66438 0
M  V30 20158 H 1827.35 5.03974 5.63512 0
M  V30 20159 H 1828.61 4.25672 6.53011 0
M  V30 20160 N 1832.84 -0.743177 1.38977 0
M  V30 20161 C 1833.75 -1.88767 1.39299 0
M  V30 20162 C 1834.77 -1.71587 0.288782 0
M  V30 20163 O 1835.95 -1.94331 0.52892 0
M  V30 20164 C 1833.01 -3.24263 1.22697 0
M  V30 20165 C 1832.07 -3.53895 2.43017 0
M  V30 20166 C 1831.31 -4.82925 2.27198 0
M  V30 20167 O 1831.53 -5.56056 1.27114 0
M  V30 20168 O 1830.46 -5.12271 3.16009 0
M  V30 20169 H 1834.29 -1.9145 2.35755 0
M  V30 20170 H 1831.87 -0.889881 1.20006 0
M  V30 20171 H 1833.76 -4.05251 1.1554 0
M  V30 20172 H 1832.43 -3.22368 0.293317 0
M  V30 20173 H 1831.34 -2.73026 2.5575 0
M  V30 20174 H 1832.67 -3.6056 3.35048 0
M  V30 20175 N 1834.32 -1.24018 -0.972487 0
M  V30 20176 C 1835.25 -0.986185 -2.06899 0
M  V30 20177 C 1836.27 0.0426574 -1.62744 0
M  V30 20178 O 1837.46 -0.193816 -1.77445 0
M  V30 20179 C 1834.56 -0.46551 -3.35688 0
M  V30 20180 C 1833.73 -1.55637 -4.08774 0
M  V30 20181 C 1832.79 -1.03918 -5.15837 0
M  V30 20182 O 1831.81 -1.72986 -5.42277 0
M  V30 20183 N 1833.02 0.128891 -5.80357 0
M  V30 20184 H 1835.78 -1.93025 -2.29263 0
M  V30 20185 H 1833.34 -1.14983 -1.13976 0
M  V30 20186 H 1835.33 -0.104379 -4.04565 0
M  V30 20187 H 1833.9 0.384166 -3.1023 0
M  V30 20188 H 1833.12 -2.08991 -3.3424 0
M  V30 20189 H 1834.41 -2.28973 -4.54366 0
M  V30 20190 H 1833.81 0.706438 -5.61272 0
M  V30 20191 H 1832.37 0.431211 -6.50372 0
M  V30 20192 N 1835.8 1.17245 -1.05316 0
M  V30 20193 C 1836.71 2.24948 -0.666011 0
M  V30 20194 C 1837.73 1.71153 0.313478 0
M  V30 20195 O 1838.9 2.00721 0.165262 0
M  V30 20196 C 1835.97 3.46667 -0.0480198 0
M  V30 20197 C 1835.03 4.15542 -1.07812 0
M  V30 20198 C 1834.26 5.3145 -0.48952 0
M  V30 20199 O 1834.48 5.6608 0.700668 0
M  V30 20200 O 1833.42 5.89315 -1.22439 0
M  V30 20201 H 1837.24 2.60353 -1.56365 0
M  V30 20202 H 1834.83 1.24569 -0.8248 0
M  V30 20203 H 1836.71 4.20364 0.295366 0
M  V30 20204 H 1835.39 3.13056 0.823248 0
M  V30 20205 H 1834.29 3.43858 -1.47351 0
M  V30 20206 H 1835.63 4.53183 -1.92057 0
M  V30 20207 N 1837.28 0.834353 1.33702 0
M  V30 20208 C 1838.53 0.427887 1.97928 0
M  V30 20209 C 1838.85 -1.0118 1.66111 0
M  V30 20210 O 1838.11 -1.72144 0.930848 0
M  V30 20211 C 1838.41 0.590236 3.52493 0
M  V30 20212 C 1838.07 1.99735 4.04249 0
M  V30 20213 C 1836.74 2.38224 4.18094 0
M  V30 20214 C 1839.09 2.91665 4.3195 0
M  V30 20215 C 1836.42 3.67957 4.56973 0
M  V30 20216 C 1838.77 4.20874 4.72279 0
M  V30 20217 C 1837.43 4.59326 4.8433 0
M  V30 20218 H 1836.7 0.156575 0.724269 0
M  V30 20219 H 1839.35 1.06051 1.59454 0
M  V30 20220 H 1837.65 -0.125718 3.91598 0
M  V30 20221 H 1839.35 0.256094 4.00181 0
M  V30 20222 H 1835.94 1.6884 3.93943 0
M  V30 20223 H 1840.12 2.63168 4.20781 0
M  V30 20224 H 1835.38 3.9756 4.64495 0
M  V30 20225 H 1839.55 4.92187 4.92671 0
M  V30 20226 H 1837.18 5.59901 5.14213 0
M  V30 20227 N 1838.76 -1.46125 0.590367 0
M  V30 20228 C 1840.17 -1.85962 0.165876 0
M  V30 20229 C 1840.52 -1.49296 -1.27299 0
M  V30 20230 O 1839.64 -0.911461 -1.96269 0
M  V30 20231 C 1840.24 -3.3752 0.294262 0
M  V30 20232 C 1838.8 -3.76324 -0.0754118 0
M  V30 20233 C 1837.94 -2.70126 0.626682 0
M  V30 20234 H 1840.9 -1.3717 0.79812 0
M  V30 20235 H 1840.92 -3.77482 -0.4783 0
M  V30 20236 H 1840.43 -3.64175 1.34159 0
M  V30 20237 H 1838.53 -3.55287 -1.12258 0
M  V30 20238 H 1838.64 -4.7812 0.306241 0
M  V30 20239 H 1837.01 -2.54614 0.0661219 0
M  V30 20240 H 1837.79 -2.99619 1.6758 0
M  V30 20241 N 1840.23 -0.328564 -1.54137 0
M  V30 20242 C 1841.48 0.272909 -2.00955 0
M  V30 20243 C 1841.81 1.51393 -1.2163 0
M  V30 20244 O 1841.09 1.92174 -0.299916 0
M  V30 20245 C 1841.37 0.602055 -3.55031 0
M  V30 20246 C 1841.22 -0.650016 -4.45078 0
M  V30 20247 C 1842.54 1.4177 -4.1664 0
M  V30 20248 H 1839.66 0.0977177 -0.730493 0
M  V30 20249 H 1842.3 -0.446133 -1.84688 0
M  V30 20250 H 1840.45 1.21464 -3.69024 0
M  V30 20251 H 1842.13 -1.28821 -4.42948 0
M  V30 20252 H 1840.37 -1.2779 -4.1455 0
M  V30 20253 H 1841.04 -0.375181 -5.50724 0
M  V30 20254 H 1843.52 0.899849 -4.06254 0
M  V30 20255 H 1842.39 1.61676 -5.24549 0
M  V30 20256 H 1842.65 2.41534 -3.70289 0
M  V30 20257 N 1841.71 1.57497 -0.0568439 0
M  V30 20258 C 1842.62 2.1535 0.930668 0
M  V30 20259 C 1843.64 1.11276 1.33767 0
M  V30 20260 O 1844.81 1.43472 1.41343 0
M  V30 20261 C 1841.88 2.69165 2.18521 0
M  V30 20262 C 1840.94 3.88057 1.83603 0
M  V30 20263 C 1840.17 4.39296 3.03076 0
M  V30 20264 O 1840.4 3.89588 4.16627 0
M  V30 20265 O 1839.33 5.30814 2.8376 0
M  V30 20266 H 1843.16 3.00063 0.468623 0
M  V30 20267 H 1840.74 1.48482 0.16538 0
M  V30 20268 H 1842.62 3.03721 2.92116 0
M  V30 20269 H 1841.3 1.8752 2.63852 0
M  V30 20270 H 1840.21 3.5838 1.07306 0
M  V30 20271 H 1841.54 4.70949 1.43066 0
M  V30 20272 N 1843.19 -0.216591 1.56105 0
M  V30 20273 C 1844.6 -0.783161 1.6948 0
M  V30 20274 C 1844.95 -1.84776 0.659716 0
M  V30 20275 O 1844.08 -2.1558 -0.188184 0
M  V30 20276 C 1844.67 -1.42733 3.07267 0
M  V30 20277 C 1843.23 -1.94123 3.2248 0
M  V30 20278 C 1842.38 -0.803216 2.65412 0
M  V30 20279 H 1845.33 0.00814542 1.58698 0
M  V30 20280 H 1845.35 -2.29627 3.034 0
M  V30 20281 H 1844.86 -0.652264 3.8258 0
M  V30 20282 H 1842.96 -2.74416 2.52045 0
M  V30 20283 H 1843.08 -2.1178 4.29751 0
M  V30 20284 H 1841.44 -1.21185 2.24023 0
M  V30 20285 H 1842.22 -0.0407398 3.43276 0
M  V30 20286 N 1844.67 -1.5 -0.48349 0
M  V30 20287 C 1845.91 -1.60606 -1.23829 0
M  V30 20288 C 1846.25 -0.299778 -1.91872 0
M  V30 20289 O 1845.52 0.697925 -1.81547 0
M  V30 20290 C 1845.81 -2.77769 -2.29165 0
M  V30 20291 C 1845.66 -4.18243 -1.65507 0
M  V30 20292 C 1846.98 -2.90521 -3.30584 0
M  V30 20293 H 1844.1 -0.584561 -0.44884 0
M  V30 20294 H 1846.74 -1.82346 -0.533855 0
M  V30 20295 H 1844.89 -2.59364 -2.89245 0
M  V30 20296 H 1846.56 -4.48208 -1.09119 0
M  V30 20297 H 1844.8 -4.23077 -0.958577 0
M  V30 20298 H 1845.47 -4.96128 -2.41994 0
M  V30 20299 H 1847.95 -3.0733 -2.80513 0
M  V30 20300 H 1846.83 -3.74146 -4.0163 0
M  V30 20301 H 1847.09 -2.00609 -3.93965 0
M  V30 20302 N 1846.15 0.735796 -1.39369 0
M  V30 20303 C 1847.39 1.49239 -1.3628 0
M  V30 20304 C 1847.72 1.94957 0.0408659 0
M  V30 20305 O 1846.99 1.68929 0.991959 0
M  V30 20306 H 1845.57 0.553626 -0.501506 0
M  V30 20307 H 1848.23 0.873549 -1.74227 0
M  V30 20308 H 1847.32 2.37488 -2.02499 0
M  V30 20309 N 1847.63 1.24532 0.965897 0
M  V30 20310 C 1848.54 1.0564 2.09469 0
M  V30 20311 C 1849.55 -0.00330962 1.74 0
M  V30 20312 O 1850.73 0.195248 2.00451 0
M  V30 20313 C 1847.79 0.665318 3.40256 0
M  V30 20314 C 1846.85 1.80171 3.89663 0
M  V30 20315 C 1846.09 1.42919 5.14208 0
M  V30 20316 O 1846.31 0.319815 5.69503 0
M  V30 20317 O 1845.24 2.25546 5.58044 0
M  V30 20318 H 1849.07 2.00277 2.28304 0
M  V30 20319 H 1846.65 1.03368 1.07868 0
M  V30 20320 H 1848.54 0.458827 4.18895 0
M  V30 20321 H 1847.21 -0.251914 3.22718 0
M  V30 20322 H 1846.12 2.06296 3.12078 0
M  V30 20323 H 1847.45 2.69778 4.11681 0
M  V30 20324 N 1849.1 -1.16685 1.05936 0
M  V30 20325 C 1850.05 -2.20953 0.66695 0
M  V30 20326 C 1851.02 -1.62694 -0.334621 0
M  V30 20327 O 1852.21 -1.89477 -0.22433 0
M  V30 20328 C 1849.35 -3.45055 0.0557459 0
M  V30 20329 C 1848.46 -4.17574 1.10706 0
M  V30 20330 C 1847.59 -5.29184 0.462377 0
M  V30 20331 C 1846.63 -5.935 1.49748 0
M  V30 20332 N 1845.77 -6.96608 0.876416 0
M  V30 20333 H 1850.61 -2.53872 1.56054 0
M  V30 20334 H 1848.15 -1.24697 0.780321 0
M  V30 20335 H 1850.1 -4.16001 -0.316125 0
M  V30 20336 H 1848.73 -3.12697 -0.801265 0
M  V30 20337 H 1847.79 -3.45269 1.59668 0
M  V30 20338 H 1849.1 -4.61505 1.89248 0
M  V30 20339 H 1848.25 -6.06689 0.0373376 0
M  V30 20340 H 1846.99 -4.86407 -0.354955 0
M  V30 20341 H 1846 -5.1472 1.93245 0
M  V30 20342 H 1847.22 -6.38357 2.31684 0
M  V30 20343 H 1845.17 -6.55952 0.0797299 0
M  V30 20344 H 1845.08 -7.38891 1.59927 0
M  V30 20345 H 1846.35 -7.78043 0.4764 0
M  V30 20346 N 1850.58 -0.841432 -1.33258 0
M  V30 20347 C 1851.81 -0.45101 -2.02437 0
M  V30 20348 C 1852.23 0.940811 -1.62881 0
M  V30 20349 O 1851.59 1.61559 -0.82271 0
M  V30 20350 C 1851.64 -0.58237 -3.55866 0
M  V30 20351 O 1850.74 0.390326 -4.10549 0
M  V30 20352 H 1850.08 -0.182996 -0.638285 0
M  V30 20353 H 1852.61 -1.13697 -1.701 0
M  V30 20354 H 1852.62 -0.464967 -4.05342 0
M  V30 20355 H 1851.3 -1.59739 -3.84 0
M  V30 20356 H 1849.87 0.230266 -3.72188 0
M  V30 20357 N 1852.06 1.4581 -0.598108 0
M  V30 20358 C 1853.01 2.32185 0.138857 0
M  V30 20359 C 1854 1.45406 0.869105 0
M  V30 20360 O 1855.21 1.61945 0.785746 0
M  V30 20361 H 1851.58 0.749302 0.0636431 0
M  V30 20362 H 1853.55 2.92136 -0.608224 0
M  V30 20363 C 1852.3 3.28856 1.12911 0
M  V30 20364 H 1851.63 3.9562 0.576625 0
M  V30 20365 H 1853.07 3.92043 1.61487 0
M  V30 20366 C 1851.52 2.55331 2.1979 0
M  V30 20367 O 1852.05 2.32768 3.27386 0
M  V30 20368 N 1850.26 2.15628 1.94815 0
M  V30 20369 H 1849.81 2.34178 1.07323 0
M  V30 20370 H 1849.77 1.66755 2.66533 0
M  V30 20371 N 1853.54 0.336733 1.53961 0
M  V30 20372 C 1854.77 -0.263064 2.04918 0
M  V30 20373 C 1855.18 -1.45301 1.21178 0
M  V30 20374 O 1854.52 -1.82147 0.238356 0
M  V30 20375 C 1854.58 -0.748277 3.51626 0
M  V30 20376 C 1854.24 0.321112 4.5587 0
M  V30 20377 C 1855.24 1.16157 5.06758 0
M  V30 20378 C 1852.93 0.473083 5.00067 0
M  V30 20379 C 1854.92 2.1396 6.00416 0
M  V30 20380 C 1852.61 1.45452 5.93538 0
M  V30 20381 C 1853.61 2.28624 6.43599 0
M  V30 20382 O 1853.29 3.25098 7.35232 0
M  V30 20383 H 1853.03 -0.0558258 0.673691 0
M  V30 20384 H 1855.58 0.484895 1.99594 0
M  V30 20385 H 1853.81 -1.54737 3.54392 0
M  V30 20386 H 1855.5 -1.26787 3.8559 0
M  V30 20387 H 1856.26 1.05521 4.73382 0
M  V30 20388 H 1852.14 -0.164435 4.60707 0
M  V30 20389 H 1855.69 2.78916 6.39415 0
M  V30 20390 H 1851.58 1.56146 6.26329 0
M  V30 20391 H 1852.35 3.2049 7.53146 0
M  V30 20392 N 1855.02 -1.57465 0.0651956 0
M  V30 20393 C 1856.26 -1.92414 -0.604961 0
M  V30 20394 C 1856.58 -0.946628 -1.71167 0
M  V30 20395 O 1857.78 -1.18869 -2.44095 0
M  V30 20396 C 1856.24 -3.41786 -1.12741 0
M  V30 20397 C 1855.85 -4.4797 -0.0520584 0
M  V30 20398 C 1857.59 -3.85746 -1.77201 0
M  V30 20399 C 1855.5 -5.88468 -0.588181 0
M  V30 20400 H 1854.43 -0.718147 -0.229742 0
M  V30 20401 H 1857.08 -1.82993 0.136361 0
M  V30 20402 H 1855.46 -3.46258 -1.92149 0
M  V30 20403 H 1856.64 -4.55105 0.722215 0
M  V30 20404 H 1854.95 -4.13436 0.495917 0
M  V30 20405 H 1857.55 -4.88093 -2.18332 0
M  V30 20406 H 1857.89 -3.22754 -2.62937 0
M  V30 20407 H 1858.42 -3.83849 -1.04426 0
M  V30 20408 H 1855.16 -6.5509 0.231865 0
M  V30 20409 H 1854.68 -5.84866 -1.33012 0
M  V30 20410 H 1856.36 -6.38147 -1.06667 0
M  V30 20411 N 1856.49 0.20831 -1.56217 0
M  V30 20412 C 1857.73 0.937642 -1.81625 0
M  V30 20413 C 1858.1 1.80994 -0.640716 0
M  V30 20414 O 1859.3 2.57404 -0.774387 0
M  V30 20415 C 1857.57 1.74339 -3.11995 0
M  V30 20416 S 1859.13 2.52655 -3.58763 0
M  V30 20417 H 1855.95 0.314732 -0.637546 0
M  V30 20418 H 1858.55 0.202106 -1.94453 0
M  V30 20419 H 1857.25 1.09294 -3.95579 0
M  V30 20420 H 1856.78 2.52098 -3.0201 0
M  V30 20421 H 1858.8 3.76547 -3.23151 0
M  V30 20422 N 1857.97 1.50255 0.475528 0
M  V30 20423 C 1858.92 1.65183 1.57158 0
M  V30 20424 C 1859.91 0.506578 1.52717 0
M  V30 20425 O 1861.1 0.760774 1.59816 0
M  V30 20426 C 1858.23 1.74523 2.95629 0
M  V30 20427 C 1857.31 2.94709 3.04971 0
M  V30 20428 N 1857.7 4.1845 2.84137 0
M  V30 20429 C 1856 2.93175 3.36102 0
M  V30 20430 C 1856.7 4.99375 2.98328 0
M  V30 20431 N 1855.68 4.33242 3.28333 0
M  V30 20432 H 1859.48 2.58552 1.39743 0
M  V30 20433 H 1856.99 1.47378 0.682172 0
M  V30 20434 H 1858.99 1.8332 3.74432 0
M  V30 20435 H 1857.65 0.823089 3.14094 0
M  V30 20436 H 1858.66 4.48019 2.59806 0
M  V30 20437 H 1855.34 2.10443 3.60583 0
M  V30 20438 H 1856.73 6.07757 2.86497 0
M  V30 20439 N 1859.45 -0.728395 1.39758 0
M  V30 20440 C 1860.4 -1.84245 1.39005 0
M  V30 20441 C 1861.37 -1.64226 0.248783 0
M  V30 20442 O 1862.55 -1.8554 0.444904 0
M  V30 20443 C 1859.69 -3.21828 1.24583 0
M  V30 20444 C 1858.8 -3.53507 2.48308 0
M  V30 20445 C 1857.94 -4.80526 2.26425 0
M  V30 20446 C 1856.98 -5.05069 3.45792 0
M  V30 20447 N 1856.12 -6.23295 3.23184 0
M  V30 20448 H 1860.96 -1.84224 2.34234 0
M  V30 20449 H 1858.49 -0.900094 1.16347 0
M  V30 20450 H 1860.45 -4.01257 1.14231 0
M  V30 20451 H 1859.08 -3.21111 0.329793 0
M  V30 20452 H 1858.13 -2.68729 2.69238 0
M  V30 20453 H 1859.44 -3.67558 3.37198 0
M  V30 20454 H 1858.6 -5.67949 2.13353 0
M  V30 20455 H 1857.34 -4.6866 1.3494 0
M  V30 20456 H 1856.34 -4.16106 3.59355 0
M  V30 20457 H 1857.57 -5.18815 4.38186 0
M  V30 20458 H 1855.51 -6.12704 2.3437 0
M  V30 20459 H 1855.43 -6.37964 4.05633 0
M  V30 20460 H 1856.7 -7.13539 3.13819 0
M  V30 20461 N 1860.93 -1.25042 -0.959279 0
M  V30 20462 C 1862.18 -1.09298 -1.69995 0
M  V30 20463 C 1862.5 0.367507 -1.91506 0
M  V30 20464 O 1861.77 1.26142 -1.49883 0
M  V30 20465 H 1860.35 -0.401469 -0.629945 0
M  V30 20466 H 1863.01 -1.57094 -1.15358 0
M  V30 20467 H 1862.1 -1.59766 -2.68107 0
M  V30 20468 N 1862.41 1.16121 -1.06553 0
M  V30 20469 C 1863.36 2.1858 -0.6486 0
M  V30 20470 C 1864.34 1.57643 0.322091 0
M  V30 20471 O 1865.53 1.76468 0.137113 0
M  V30 20472 C 1862.66 3.43277 -0.0393328 0
M  V30 20473 C 1861.75 4.11285 -1.03468 0
M  V30 20474 N 1862.14 4.54904 -2.21124 0
M  V30 20475 C 1860.44 4.37508 -0.8662 0
M  V30 20476 C 1861.14 5.07546 -2.84205 0
M  V30 20477 N 1860.11 5.00592 -2.11917 0
M  V30 20478 H 1863.92 2.50024 -1.54483 0
M  V30 20479 H 1861.43 1.32601 -0.937587 0
M  V30 20480 H 1863.43 4.15977 0.277211 0
M  V30 20481 H 1862.09 3.13319 0.852119 0
M  V30 20482 H 1863.1 4.48551 -2.58887 0
M  V30 20483 H 1859.77 4.17491 -0.0269599 0
M  V30 20484 H 1861.16 5.51315 -3.8406 0
M  V30 20485 N 1863.88 0.848487 1.3281 0
M  V30 20486 C 1864.79 0.291355 2.32784 0
M  V30 20487 C 1865.81 -0.587621 1.63777 0
M  V30 20488 O 1866.99 -0.489458 1.95362 0
M  V30 20489 C 1864.05 -0.51634 3.42834 0
M  V30 20490 C 1863.11 0.388046 4.27543 0
M  V30 20491 C 1862.35 -0.381197 5.32337 0
M  V30 20492 O 1862.57 -1.61186 5.47152 0
M  V30 20493 O 1861.5 0.2498 6.01381 0
M  V30 20494 H 1865.33 1.11947 2.82315 0
M  V30 20495 H 1862.91 0.611259 1.36323 0
M  V30 20496 H 1864.8 -0.974995 4.09966 0
M  V30 20497 H 1863.47 -1.32136 2.95503 0
M  V30 20498 H 1862.38 0.894745 3.63243 0
M  V30 20499 H 1863.71 1.15808 4.78382 0
M  V30 20500 N 1865.36 -1.4549 0.605832 0
M  V30 20501 C 1866.61 -2.02251 0.100338 0
M  V30 20502 C 1866.94 -1.47447 -1.26845 0
M  V30 20503 O 1866.19 -0.638532 -1.8499 0
M  V30 20504 C 1866.49 -3.57399 0.00918576 0
M  V30 20505 C 1866.16 -4.31347 1.31341 0
M  V30 20506 C 1864.82 -4.51267 1.67067 0
M  V30 20507 C 1867.17 -4.73629 2.17543 0
M  V30 20508 C 1864.5 -5.10725 2.88751 0
M  V30 20509 C 1866.85 -5.34432 3.38474 0
M  V30 20510 C 1865.52 -5.52576 3.74455 0
M  V30 20511 H 1864.79 -0.74009 0.0367165 0
M  V30 20512 H 1867.43 -1.74577 0.787099 0
M  V30 20513 H 1865.74 -3.84342 -0.760829 0
M  V30 20514 H 1867.43 -3.99019 -0.398057 0
M  V30 20515 H 1864.02 -4.16155 1.02533 0
M  V30 20516 H 1868.21 -4.57974 1.91241 0
M  V30 20517 H 1863.46 -5.22961 3.16736 0
M  V30 20518 H 1867.64 -5.66149 4.05522 0
M  V30 20519 H 1865.27 -5.98416 4.68831 0
M  V30 20520 N 1866.84 -0.344893 -1.5378 0
M  V30 20521 C 1868.09 0.252216 -2.00117 0
M  V30 20522 C 1868.4 1.51548 -1.23663 0
M  V30 20523 O 1869.61 2.18991 -1.60484 0
M  V30 20524 C 1868.06 0.499983 -3.5641 0
M  V30 20525 C 1867.67 -0.747455 -4.41721 0
M  V30 20526 C 1869.42 1.05588 -4.11159 0
M  V30 20527 C 1867.32 -0.470414 -5.89526 0
M  V30 20528 H 1866.25 0.0980234 -0.747601 0
M  V30 20529 H 1868.9 -0.460431 -1.7763 0
M  V30 20530 H 1867.29 1.27337 -3.74969 0
M  V30 20531 H 1868.46 -1.52204 -4.34937 0
M  V30 20532 H 1866.78 -1.22508 -3.97971 0
M  V30 20533 H 1869.37 1.27813 -5.19199 0
M  V30 20534 H 1869.72 2.01181 -3.64461 0
M  V30 20535 H 1870.25 0.343167 -3.96317 0
M  V30 20536 H 1866.99 -1.3961 -6.4046 0
M  V30 20537 H 1866.51 0.266065 -5.9921 0
M  V30 20538 H 1868.19 -0.0881607 -6.4694 0
M  V30 20539 N 1868.32 1.57428 -0.0735454 0
M  V30 20540 C 1869.73 1.80973 0.458858 0
M  V30 20541 C 1870.08 0.987586 1.69532 0
M  V30 20542 O 1869.21 0.210611 2.15373 0
M  V30 20543 C 1869.8 3.28241 0.839246 0
M  V30 20544 C 1868.36 3.52626 1.3165 0
M  V30 20545 C 1867.51 2.75645 0.302533 0
M  V30 20546 H 1870.46 1.55854 -0.299225 0
M  V30 20547 H 1870.48 3.40386 1.70052 0
M  V30 20548 H 1869.99 3.88052 -0.0608625 0
M  V30 20549 H 1868.09 2.98121 2.23505 0
M  V30 20550 H 1868.2 4.61316 1.29322 0
M  V30 20551 H 1866.57 2.42457 0.780179 0
M  V30 20552 H 1867.35 3.38194 -0.589878 0
M  V30 20553 N 1869.8 -0.200022 1.56326 0
M  V30 20554 C 1871.02 -0.937503 1.84441 0
M  V30 20555 C 1871.44 -1.77058 0.655428 0
M  V30 20556 O 1870.8 -1.78587 -0.375913 0
M  V30 20557 C 1870.85 -1.83766 3.11307 0
M  V30 20558 O 1870.57 -1.03823 4.2562 0
M  V30 20559 C 1872.07 -2.68724 3.52565 0
M  V30 20560 H 1869.29 -0.273767 0.612611 0
M  V30 20561 H 1871.83 -0.208759 2.03432 0
M  V30 20562 H 1869.99 -2.52009 2.94228 0
M  V30 20563 H 1870.4 -1.6512 4.97831 0
M  V30 20564 H 1871.88 -3.2755 4.44314 0
M  V30 20565 H 1872.35 -3.4219 2.75323 0
M  V30 20566 H 1872.96 -2.0586 3.72158 0
M  V30 20567 N 1871.27 -1.50505 -0.467553 0
M  V30 20568 C 1872.2 -1.72558 -1.57309 0
M  V30 20569 C 1873.19 -0.574619 -1.601 0
M  V30 20570 O 1874.37 -0.814135 -1.76311 0
M  V30 20571 C 1871.5 -1.82296 -2.9561 0
M  V30 20572 C 1870.45 -2.97513 -3.07685 0
M  V30 20573 C 1869.78 -2.92398 -4.47669 0
M  V30 20574 C 1871.08 -4.37968 -2.84573 0
M  V30 20575 H 1872.77 -2.65122 -1.39107 0
M  V30 20576 H 1870.32 -1.2758 -0.667776 0
M  V30 20577 H 1872.27 -1.96308 -3.72882 0
M  V30 20578 H 1871 -0.863562 -3.14976 0
M  V30 20579 H 1869.66 -2.83157 -2.32847 0
M  V30 20580 H 1869.3 -1.94297 -4.63959 0
M  V30 20581 H 1869 -3.69749 -4.56683 0
M  V30 20582 H 1870.53 -3.08464 -5.26956 0
M  V30 20583 H 1871.94 -4.52831 -3.51593 0
M  V30 20584 H 1870.34 -5.16796 -3.05028 0
M  V30 20585 H 1871.41 -4.50093 -1.80402 0
M  V30 20586 N 1872.75 0.720973 -1.40142 0
M  V30 20587 C 1873.98 1.50793 -1.41226 0
M  V30 20588 C 1874.39 1.89198 -0.00879422 0
M  V30 20589 O 1873.73 1.55606 0.976337 0
M  V30 20590 C 1873.8 2.81639 -2.23427 0
M  V30 20591 C 1873.46 2.65588 -3.71903 0
M  V30 20592 C 1874.46 2.33204 -4.64663 0
M  V30 20593 C 1872.14 2.82021 -4.15655 0
M  V30 20594 C 1874.14 2.17454 -5.9916 0
M  V30 20595 C 1871.82 2.65889 -5.50224 0
M  V30 20596 C 1872.82 2.33653 -6.41791 0
M  V30 20597 O 1872.51 2.17637 -7.73879 0
M  V30 20598 H 1872.24 0.472113 -0.483824 0
M  V30 20599 H 1874.79 0.89739 -1.84759 0
M  V30 20600 H 1873.02 3.45006 -1.74665 0
M  V30 20601 H 1874.71 3.43329 -2.16518 0
M  V30 20602 H 1875.48 2.20146 -4.32158 0
M  V30 20603 H 1871.36 3.06101 -3.44707 0
M  V30 20604 H 1874.9 1.92215 -6.70596 0
M  V30 20605 H 1870.8 2.78529 -5.82316 0
M  V30 20606 H 1871.57 2.32599 -7.84755 0
M  V30 20607 N 1874.23 1.25549 0.952634 0
M  V30 20608 C 1875.18 1.02791 2.03514 0
M  V30 20609 C 1876.16 -0.0358706 1.6086 0
M  V30 20610 O 1877.36 0.179707 1.76085 0
M  V30 20611 C 1874.49 0.650727 3.37076 0
M  V30 20612 C 1873.57 1.75137 3.86248 0
M  V30 20613 N 1873.96 2.98686 4.08192 0
M  V30 20614 C 1872.26 1.63235 4.15055 0
M  V30 20615 C 1872.96 3.70141 4.48743 0
M  V30 20616 N 1871.94 2.97771 4.54789 0
M  V30 20617 H 1875.74 1.96585 2.18476 0
M  V30 20618 H 1873.25 1.15898 1.13761 0
M  V30 20619 H 1875.25 0.468871 4.14255 0
M  V30 20620 H 1873.91 -0.279854 3.23492 0
M  V30 20621 H 1874.92 3.3471 3.95208 0
M  V30 20622 H 1871.6 0.770867 4.10322 0
M  V30 20623 H 1872.99 4.762 4.74008 0
M  V30 20624 N 1875.71 -1.15554 1.07168 0
M  V30 20625 C 1876.96 -1.86296 0.793718 0
M  V30 20626 C 1877.28 -1.8222 -0.680145 0
M  V30 20627 O 1876.54 -1.23899 -1.51485 0
M  V30 20628 C 1876.84 -3.3502 1.24484 0
M  V30 20629 C 1876.5 -3.59292 2.72434 0
M  V30 20630 C 1875.17 -3.65625 3.12844 0
M  V30 20631 C 1877.52 -3.69147 3.6794 0
M  V30 20632 C 1874.85 -3.79323 4.47584 0
M  V30 20633 C 1877.2 -3.84368 5.02438 0
M  V30 20634 C 1875.86 -3.88946 5.42473 0
M  V30 20635 H 1875.13 -0.681707 0.290442 0
M  V30 20636 H 1877.78 -1.36575 1.34236 0
M  V30 20637 H 1876.08 -3.86934 0.615546 0
M  V30 20638 H 1877.78 -3.88158 1.00669 0
M  V30 20639 H 1874.37 -3.55002 2.40149 0
M  V30 20640 H 1878.55 -3.63556 3.37847 0
M  V30 20641 H 1873.81 -3.81124 4.78074 0
M  V30 20642 H 1877.98 -3.90935 5.76318 0
M  V30 20643 H 1875.61 -3.99312 6.4688 0
M  V30 20644 N 1877.19 -0.855519 -1.32358 0
M  V30 20645 C 1878.6 -0.513833 -1.7949 0
M  V30 20646 C 1878.95 0.968373 -1.70637 0
M  V30 20647 O 1878.07 1.75541 -1.26547 0
M  V30 20648 C 1878.67 -0.925925 -3.25902 0
M  V30 20649 C 1877.23 -0.636124 -3.70986 0
M  V30 20650 C 1876.38 -1.12519 -2.53446 0
M  V30 20651 H 1879.33 -1.04264 -1.19644 0
M  V30 20652 H 1879.35 -0.242659 -3.79725 0
M  V30 20653 H 1878.86 -2.00473 -3.32313 0
M  V30 20654 H 1876.96 0.431924 -3.70088 0
M  V30 20655 H 1877.07 -1.20302 -4.6375 0
M  V30 20656 H 1875.44 -0.545429 -2.48791 0
M  V30 20657 H 1876.22 -2.21112 -2.62611 0
M  V30 20658 N 1878.67 1.45167 -0.61354 0
M  V30 20659 C 1879.89 2.06565 -0.117608 0
M  V30 20660 C 1880.31 1.45716 1.20051 0
M  V30 20661 O 1879.67 0.573512 1.73254 0
M  V30 20662 C 1879.72 3.61493 0.0221474 0
M  V30 20663 O 1879.44 4.20072 -1.24383 0
M  V30 20664 C 1880.94 4.39889 0.548841 0
M  V30 20665 H 1878.16 0.667172 -0.0715756 0
M  V30 20666 H 1880.7 1.86318 -0.84296 0
M  V30 20667 H 1878.86 3.81063 0.697854 0
M  V30 20668 H 1879.27 5.13317 -1.07733 0
M  V30 20669 H 1880.75 5.48776 0.595696 0
M  V30 20670 H 1881.22 4.1009 1.57234 0
M  V30 20671 H 1881.83 4.25198 -0.0930203 0
M  V30 20672 N 1880.14 0.353044 1.53595 0
M  V30 20673 C 1881.09 -0.514569 2.26837 0
M  V30 20674 C 1882.09 -1.09398 1.29338 0
M  V30 20675 O 1883.29 -1.03863 1.47012 0
M  V30 20676 H 1879.67 -0.184641 0.72898 0
M  V30 20677 H 1881.64 0.125082 2.98138 0
M  V30 20678 C 1880.39 -1.64884 3.06119 0
M  V30 20679 H 1879.71 -1.21227 3.80978 0
M  V30 20680 H 1881.15 -2.23089 3.60565 0
M  V30 20681 C 1879.61 -2.58385 2.16192 0
M  V30 20682 O 1880.14 -3.6088 1.76433 0
M  V30 20683 N 1878.34 -2.27286 1.81079 0
M  V30 20684 H 1877.89 -1.43975 2.13609 0
M  V30 20685 H 1877.85 -2.90102 1.21194 0
M  V30 20686 N 1881.62 -1.57387 0.0818932 0
M  V30 20687 C 1882.86 -1.95747 -0.58843 0
M  V30 20688 C 1883.23 -0.961967 -1.66163 0
M  V30 20689 O 1884.43 -1.23358 -2.38822 0
M  V30 20690 C 1882.7 -3.38689 -1.14126 0
M  V30 20691 S 1884.26 -3.99034 -1.8253 0
M  V30 20692 H 1881.07 -0.684474 -0.192395 0
M  V30 20693 H 1883.68 -1.94859 0.158155 0
M  V30 20694 H 1882.38 -4.08918 -0.348477 0
M  V30 20695 H 1881.91 -3.43143 -1.92397 0
M  V30 20696 H 1883.93 -3.86762 -3.10854 0
M  V30 20697 N 1883.1 0.191729 -1.56429 0
M  V30 20698 C 1884.01 1.25798 -1.9802 0
M  V30 20699 C 1885.03 1.49612 -0.888379 0
M  V30 20700 O 1886.2 1.62161 -1.1944 0
M  V30 20701 C 1883.27 2.58158 -2.3142 0
M  V30 20702 C 1882.33 2.42386 -3.54327 0
M  V30 20703 C 1881.56 3.68434 -3.86124 0
M  V30 20704 O 1881.78 4.72747 -3.19165 0
M  V30 20705 O 1880.72 3.63762 -4.79542 0
M  V30 20706 H 1884.54 0.935013 -2.88948 0
M  V30 20707 H 1882.13 0.396996 -1.44029 0
M  V30 20708 H 1884.01 3.36274 -2.53964 0
M  V30 20709 H 1882.69 2.90075 -1.43659 0
M  V30 20710 H 1881.59 1.62369 -3.37027 0
M  V30 20711 H 1882.93 2.154 -4.42565 0
M  V30 20712 N 1884.58 1.50751 0.459565 0
M  V30 20713 C 1885.54 1.69889 1.53852 0
M  V30 20714 C 1886.54 0.569308 1.50385 0
M  V30 20715 O 1887.73 0.836527 1.528 0
M  V30 20716 C 1884.86 1.73481 2.93457 0
M  V30 20717 H 1886.06 2.66162 1.38195 0
M  V30 20718 H 1883.61 1.40405 0.686741 0
M  V30 20719 H 1884.34 0.789426 3.14545 0
M  V30 20720 H 1884.13 2.55553 2.97381 0
M  V30 20721 H 1885.62 1.90202 3.7177 0
M  V30 20722 N 1886.06 -0.713531 1.40522 0
M  V30 20723 C 1887.3 -1.48585 1.40363 0
M  V30 20724 C 1887.66 -1.91999 0.00566667 0
M  V30 20725 O 1888.86 -2.68527 -0.12105 0
M  V30 20726 C 1887.13 -2.67762 2.36724 0
M  V30 20727 S 1888.69 -3.57142 2.54941 0
M  V30 20728 H 1885.51 -0.507978 0.497473 0
M  V30 20729 H 1888.11 -0.834206 1.76809 0
M  V30 20730 H 1886.81 -2.34042 3.37124 0
M  V30 20731 H 1886.35 -3.37836 2.01569 0
M  V30 20732 H 1888.36 -4.6227 1.80336 0
M  V30 20733 N 1887.53 -1.26053 -0.945962 0
M  V30 20734 C 1888.47 -1.01515 -2.04377 0
M  V30 20735 C 1889.44 0.0585108 -1.62495 0
M  V30 20736 O 1890.63 -0.0829278 -1.88317 0
M  V30 20737 C 1887.76 -0.536293 -3.34427 0
M  V30 20738 C 1886.8 -1.60179 -3.95278 0
M  V30 20739 S 1887.63 -3.18942 -4.30159 0
M  V30 20740 C 1888.79 -2.72813 -5.63315 0
M  V30 20741 H 1889.02 -1.94467 -2.24877 0
M  V30 20742 H 1886.56 -1.09679 -1.08673 0
M  V30 20743 H 1888.51 -0.266669 -4.09633 0
M  V30 20744 H 1887.18 0.372873 -3.11879 0
M  V30 20745 H 1886.37 -1.21763 -4.8907 0
M  V30 20746 H 1885.97 -1.82254 -3.26587 0
M  V30 20747 H 1888.26 -2.16979 -6.41815 0
M  V30 20748 H 1889.21 -3.65278 -6.06611 0
M  V30 20749 H 1889.61 -2.1253 -5.22964 0
M  V30 20750 N 1889.01 1.14984 -1.07779 0
M  V30 20751 C 1889.96 2.19864 -0.702018 0
M  V30 20752 C 1890.93 1.63206 0.308695 0
M  V30 20753 O 1892.11 1.8981 0.194157 0
M  V30 20754 C 1889.25 3.44923 -0.110634 0
M  V30 20755 C 1888.37 4.1576 -1.17335 0
M  V30 20756 C 1887.5 5.28381 -0.546508 0
M  V30 20757 C 1886.54 5.91042 -1.59171 0
M  V30 20758 N 1885.68 6.95126 -0.987129 0
M  V30 20759 H 1890.52 2.51358 -1.60073 0
M  V30 20760 H 1888.05 1.2344 -0.80006 0
M  V30 20761 H 1890.01 4.16451 0.249903 0
M  V30 20762 H 1888.64 3.13932 0.751416 0
M  V30 20763 H 1887.69 3.42685 -1.6514 0
M  V30 20764 H 1889.01 4.58436 -1.96566 0
M  V30 20765 H 1888.16 6.06552 -0.133852 0
M  V30 20766 H 1886.9 4.8691 0.277527 0
M  V30 20767 H 1885.9 5.1158 -2.01409 0
M  V30 20768 H 1887.13 6.3459 -2.4181 0
M  V30 20769 H 1885.08 6.55742 -0.184076 0
M  V30 20770 H 1884.99 7.36253 -1.71662 0
M  V30 20771 H 1886.26 7.77186 -0.60012 0
M  V30 20772 N 1890.49 0.862526 1.31902 0
M  V30 20773 C 1891.9 0.523345 1.79215 0
M  V30 20774 C 1892.25 -0.95931 1.71148 0
M  V30 20775 O 1891.38 -1.74868 1.27476 0
M  V30 20776 C 1891.97 0.943195 3.25406 0
M  V30 20777 C 1890.53 0.655789 3.70643 0
M  V30 20778 C 1889.68 1.13861 2.52846 0
M  V30 20779 H 1892.63 1.04897 1.19089 0
M  V30 20780 H 1892.65 0.262794 3.79591 0
M  V30 20781 H 1892.16 2.02233 3.31245 0
M  V30 20782 H 1890.26 -0.412291 3.70312 0
M  V30 20783 H 1890.38 1.2276 4.63106 0
M  V30 20784 H 1888.74 0.558615 2.48499 0
M  V30 20785 H 1889.52 2.22501 2.61434 0
M  V30 20786 N 1891.97 -1.4484 0.62123 0
M  V30 20787 C 1892.9 -2.33374 -0.0766286 0
M  V30 20788 C 1893.88 -1.47631 -0.844932 0
M  V30 20789 O 1895.06 -1.76373 -0.81278 0
M  V30 20790 C 1892.19 -3.30552 -1.0655 0
M  V30 20791 C 1891.15 -4.26037 -0.409496 0
M  V30 20792 C 1890.47 -5.13007 -1.50757 0
M  V30 20793 C 1891.77 -5.17881 0.677994 0
M  V30 20794 H 1893.47 -2.91975 0.662658 0
M  V30 20795 H 1891.01 -1.40397 0.320117 0
M  V30 20796 H 1892.97 -3.91367 -1.56237 0
M  V30 20797 H 1891.69 -2.70139 -1.83555 0
M  V30 20798 H 1890.35 -3.66539 0.0666321 0
M  V30 20799 H 1890 -4.48954 -2.26825 0
M  V30 20800 H 1889.7 -5.777 -1.07407 0
M  V30 20801 H 1891.22 -5.76692 -2.00645 0
M  V30 20802 H 1892.64 -5.72689 0.264637 0
M  V30 20803 H 1891.03 -5.91124 1.03405 0
M  V30 20804 H 1892.1 -4.59488 1.54914 0
M  V30 20805 N 1893.45 -0.361184 -1.53405 0
M  V30 20806 C 1894.69 0.222818 -2.02176 0
M  V30 20807 C 1895.05 1.46779 -1.24393 0
M  V30 20808 O 1894.34 1.88772 -0.327985 0
M  V30 20809 C 1894.53 0.572109 -3.52791 0
M  V30 20810 C 1894.36 -0.637467 -4.45159 0
M  V30 20811 C 1893.13 -1.1482 -4.92082 0
M  V30 20812 C 1895.33 -1.50134 -4.91899 0
M  V30 20813 N 1893.31 -2.31826 -5.68445 0
M  V30 20814 C 1894.68 -2.51811 -5.66561 0
M  V30 20815 C 1896.74 -1.52473 -4.73979 0
M  V30 20816 C 1895.44 -3.55677 -6.25209 0
M  V30 20817 C 1897.47 -2.55231 -5.3349 0
M  V30 20818 C 1896.83 -3.55631 -6.08034 0
M  V30 20819 H 1892.93 0.0443679 -0.78074 0
M  V30 20820 H 1895.51 -0.504736 -1.88044 0
M  V30 20821 H 1893.68 1.26875 -3.67093 0
M  V30 20822 H 1895.42 1.14082 -3.88288 0
M  V30 20823 H 1892.17 -0.713513 -4.68194 0
M  V30 20824 H 1892.6 -2.90951 -6.11291 0
M  V30 20825 H 1897.24 -0.762065 -4.15875 0
M  V30 20826 H 1894.96 -4.32829 -6.82411 0
M  V30 20827 H 1898.54 -2.57889 -5.21521 0
M  V30 20828 H 1897.42 -4.33841 -6.53263 0
M  V30 20829 N 1894.92 1.57341 -0.0902386 0
M  V30 20830 C 1895.87 2.10293 0.880961 0
M  V30 20831 C 1896.86 1.01683 1.24697 0
M  V30 20832 O 1898.05 1.27965 1.22286 0
M  V30 20833 C 1895.18 2.68293 2.14182 0
M  V30 20834 C 1894.27 3.83938 1.80146 0
M  V30 20835 N 1894.66 4.92166 1.16646 0
M  V30 20836 C 1892.95 3.93581 2.09785 0
M  V30 20837 C 1893.66 5.72845 1.01113 0
M  V30 20838 N 1892.63 5.21716 1.52686 0
M  V30 20839 H 1896.43 2.91354 0.385979 0
M  V30 20840 H 1893.95 1.62006 0.113118 0
M  V30 20841 H 1895.94 3.04555 2.84697 0
M  V30 20842 H 1894.6 1.88685 2.6425 0
M  V30 20843 H 1895.62 5.11143 0.833854 0
M  V30 20844 H 1892.29 3.24975 2.62102 0
M  V30 20845 H 1893.68 6.69924 0.514913 0
M  V30 20846 N 1896.4 -0.183431 1.56529 0
M  V30 20847 C 1897.34 -1.25565 1.90548 0
M  V30 20848 C 1898.31 -1.4338 0.766876 0
M  V30 20849 O 1899.5 -1.58582 1.01902 0
M  V30 20850 C 1896.62 -2.62051 2.14586 0
M  V30 20851 C 1895.67 -2.61041 3.37283 0
M  V30 20852 S 1896.5 -2.11319 4.92041 0
M  V30 20853 C 1897.66 -3.49606 5.1916 0
M  V30 20854 H 1897.89 -0.96522 2.81195 0
M  V30 20855 H 1895.43 -0.387456 1.49459 0
M  V30 20856 H 1897.38 -3.40611 2.29116 0
M  V30 20857 H 1896.04 -2.883 1.24668 0
M  V30 20858 H 1895.24 -3.61426 3.51265 0
M  V30 20859 H 1894.84 -1.90569 3.21806 0
M  V30 20860 H 1897.13 -4.45537 5.10395 0
M  V30 20861 H 1898.07 -3.40509 6.20854 0
M  V30 20862 H 1898.48 -3.45057 4.46761 0
M  V30 20863 N 1897.88 -1.50992 -0.451564 0
M  V30 20864 C 1899.13 -1.62955 -1.20216 0
M  V30 20865 C 1899.46 -0.33902 -1.91523 0
M  V30 20866 O 1898.71 0.676199 -1.83647 0
M  V30 20867 C 1899.01 -2.7732 -2.25452 0
M  V30 20868 C 1898.68 -4.1711 -1.71259 0
M  V30 20869 C 1897.34 -4.55142 -1.56202 0
M  V30 20870 C 1899.69 -5.04399 -1.31268 0
M  V30 20871 C 1897.02 -5.78183 -0.996051 0
M  V30 20872 C 1899.37 -6.28005 -0.761055 0
M  V30 20873 C 1898.03 -6.64823 -0.597267 0
M  V30 20874 H 1897.3 -0.596295 -0.439901 0
M  V30 20875 H 1899.95 -1.84985 -0.495266 0
M  V30 20876 H 1898.26 -2.49455 -3.02125 0
M  V30 20877 H 1899.95 -2.83777 -2.83323 0
M  V30 20878 H 1896.54 -3.87117 -1.83952 0
M  V30 20879 H 1900.73 -4.75633 -1.41727 0
M  V30 20880 H 1895.98 -6.05367 -0.856787 0
M  V30 20881 H 1900.16 -6.94992 -0.442598 0
M  V30 20882 H 1897.78 -7.60039 -0.156575 0
M  V30 20883 N 1899.36 0.706069 -1.40899 0
M  V30 20884 C 1900.31 1.82011 -1.41918 0
M  V30 20885 C 1901.28 1.6381 -0.274879 0
M  V30 20886 O 1902.46 1.84809 -0.474366 0
M  V30 20887 C 1899.6 3.19805 -1.29687 0
M  V30 20888 C 1898.71 3.49512 -2.53901 0
M  V30 20889 C 1897.85 4.76863 -2.34041 0
M  V30 20890 C 1896.89 4.99504 -3.53783 0
M  V30 20891 N 1896.02 6.18074 -3.33059 0
M  V30 20892 H 1900.86 1.80474 -2.37135 0
M  V30 20893 H 1898.4 0.881471 -1.17765 0
M  V30 20894 H 1900.36 3.99389 -1.206 0
M  V30 20895 H 1898.99 3.20546 -0.380837 0
M  V30 20896 H 1898.04 2.64411 -2.73479 0
M  V30 20897 H 1899.35 3.62147 -3.43002 0
M  V30 20898 H 1898.51 5.64482 -2.22361 0
M  V30 20899 H 1897.25 4.66454 -1.42379 0
M  V30 20900 H 1896.25 4.10336 -3.65929 0
M  V30 20901 H 1897.48 5.11779 -4.46385 0
M  V30 20902 H 1895.42 6.08898 -2.44088 0
M  V30 20903 H 1895.34 6.3143 -4.15731 0
M  V30 20904 H 1896.61 7.08456 -3.25131 0
M  V30 20905 N 1900.84 1.26553 0.939264 0
M  V30 20906 C 1902.25 1.11093 1.50051 0
M  V30 20907 C 1902.6 -0.308105 1.93766 0
M  V30 20908 O 1901.72 -1.19981 1.80093 0
M  V30 20909 C 1902.32 2.01053 2.72696 0
M  V30 20910 C 1900.88 1.89734 3.25082 0
M  V30 20911 C 1900.02 1.94291 1.97854 0
M  V30 20912 H 1902.98 1.39614 0.754553 0
M  V30 20913 H 1903 1.55955 3.47071 0
M  V30 20914 H 1902.51 3.04325 2.40848 0
M  V30 20915 H 1900.61 0.894042 3.61715 0
M  V30 20916 H 1900.72 2.75368 3.92058 0
M  V30 20917 H 1899.09 1.38367 2.13838 0
M  V30 20918 H 1899.87 2.99196 1.68335 0
M  V30 20919 N 1902.31 -1.14411 1.08387 0
M  V30 20920 C 1903.73 -1.67013 0.83448 0
M  V30 20921 C 1904.08 -1.85509 -0.638802 0
M  V30 20922 O 1903.2 -1.56611 -1.49338 0
M  V30 20923 C 1903.8 -3.03377 1.50825 0
M  V30 20924 C 1902.36 -3.53013 1.3061 0
M  V30 20925 C 1901.5 -2.28494 1.57117 0
M  V30 20926 H 1904.45 -0.984794 1.24449 0
M  V30 20927 H 1904.47 -3.68824 0.935352 0
M  V30 20928 H 1903.99 -2.89883 2.5805 0
M  V30 20929 H 1902.09 -3.7173 0.254538 0
M  V30 20930 H 1902.2 -4.33799 2.0336 0
M  V30 20931 H 1900.56 -2.34558 0.99271 0
M  V30 20932 H 1901.35 -2.17576 2.65547 0
M  V30 20933 N 1903.79 -0.869509 -1.31443 0
M  V30 20934 C 1905.2 -0.532842 -1.78935 0
M  V30 20935 C 1905.55 0.95022 -1.71654 0
M  V30 20936 O 1904.68 1.74189 -1.28402 0
M  V30 20937 C 1905.27 -0.960439 -3.24902 0
M  V30 20938 C 1903.83 -0.675436 -3.7029 0
M  V30 20939 C 1902.98 -1.15201 -2.52238 0
M  V30 20940 H 1905.93 -1.05527 -1.18531 0
M  V30 20941 H 1905.95 -0.282921 -3.79447 0
M  V30 20942 H 1905.46 -2.03986 -3.30168 0
M  V30 20943 H 1903.57 0.392647 -3.70525 0
M  V30 20944 H 1903.68 -1.25214 -4.62448 0
M  V30 20945 H 1902.04 -0.571786 -2.48199 0
M  V30 20946 H 1902.83 -2.23885 -2.60251 0
M  V30 20947 N 1905.27 1.44508 -0.628902 0
M  V30 20948 C 1906.23 2.291 0.0676501 0
M  V30 20949 C 1907.23 1.40921 0.77447 0
M  V30 20950 O 1908.42 1.62816 0.619397 0
M  V30 20951 C 1905.56 3.22448 1.10634 0
M  V30 20952 H 1906.75 2.92174 -0.676344 0
M  V30 20953 H 1904.3 1.51384 -0.388933 0
M  V30 20954 H 1905.04 2.64219 1.88039 0
M  V30 20955 H 1904.82 3.87428 0.603465 0
M  V30 20956 H 1906.31 3.86 1.59354 0
M  V30 20957 N 1906.75 0.369315 1.53212 0
M  V30 20958 C 1907.68 -0.467242 2.28777 0
M  V30 20959 C 1908.66 -1.08073 1.31355 0
M  V30 20960 O 1909.85 -1.09728 1.60229 0
M  V30 20961 C 1906.98 -1.60519 3.07979 0
M  V30 20962 C 1905.93 -1.11876 4.1312 0
M  V30 20963 C 1905.26 -2.34723 4.80426 0
M  V30 20964 C 1906.56 -0.200846 5.21914 0
M  V30 20965 H 1908.25 0.163201 2.98955 0
M  V30 20966 H 1905.8 0.0799312 1.43778 0
M  V30 20967 H 1907.75 -2.19708 3.59592 0
M  V30 20968 H 1906.47 -2.26292 2.35499 0
M  V30 20969 H 1905.13 -0.549521 3.62458 0
M  V30 20970 H 1904.78 -2.98961 4.04514 0
M  V30 20971 H 1904.48 -2.02846 5.51477 0
M  V30 20972 H 1906 -2.94592 5.34835 0
M  V30 20973 H 1907.42 -0.700331 5.69006 0
M  V30 20974 H 1905.81 0.0272222 6.00094 0
M  V30 20975 H 1906.88 0.755948 4.78971 0
M  V30 20976 N 1908.23 -1.57291 0.0985816 0
M  V30 20977 C 1909.14 -2.17742 -0.873245 0
M  V30 20978 C 1910.15 -1.14784 -1.3077 0
M  V30 20979 O 1911.33 -1.47169 -1.37489 0
M  V30 20980 C 1908.39 -2.74864 -2.11308 0
M  V30 20981 C 1907.46 -3.92789 -1.73249 0
M  V30 20982 C 1906.69 -4.47177 -2.91322 0
M  V30 20983 O 1906.91 -4.00497 -4.06151 0
M  V30 20984 O 1905.85 -5.38151 -2.69587 0
M  V30 20985 H 1909.67 -3.012 -0.388902 0
M  V30 20986 H 1907.26 -1.48868 -0.125955 0
M  V30 20987 H 1909.14 -3.11359 -2.8396 0
M  V30 20988 H 1907.81 -1.9445 -2.58787 0
M  V30 20989 H 1906.72 -3.61099 -0.977663 0
M  V30 20990 H 1908.05 -4.74577 -1.3053 0
M  V30 20991 N 1909.71 0.175127 -1.56624 0
M  V30 20992 C 1910.95 0.898905 -1.83573 0
M  V30 20993 C 1911.31 1.79594 -0.678963 0
M  V30 20994 O 1912.51 2.55703 -0.828812 0
M  V30 20995 C 1910.78 1.67681 -3.15623 0
M  V30 20996 S 1912.34 2.44988 -3.64042 0
M  V30 20997 H 1909.16 0.301138 -0.644078 0
M  V30 20998 H 1911.76 0.160814 -1.94837 0
M  V30 20999 H 1910.46 1.00879 -3.97809 0
M  V30 21000 H 1910 2.45635 -3.0729 0
M  V30 21001 H 1912.01 3.69608 -3.31065 0
M  V30 21002 N 1911.18 1.5123 0.44355 0
M  V30 21003 C 1912.6 1.39267 0.779541 0
M  V30 21004 C 1912.8 0.470162 1.95938 0
M  V30 21005 O 1911.86 -0.0769965 2.52383 0
M  V30 21006 C 1913.17 2.8118 1.06574 0
M  V30 21007 C 1914.72 2.90288 1.17055 0
M  V30 21008 C 1915.19 4.33095 1.48973 0
M  V30 21009 N 1916.68 4.36173 1.55909 0
M  V30 21010 C 1917.42 5.43694 1.82165 0
M  V30 21011 N 1916.91 6.61386 2.06255 0
M  V30 21012 N 1918.71 5.31167 1.83896 0
M  V30 21013 H 1910.86 2.09764 -0.333579 0
M  V30 21014 H 1913.12 0.944017 -0.0868148 0
M  V30 21015 H 1912.83 3.5065 0.271575 0
M  V30 21016 H 1912.7 3.20125 1.99498 0
M  V30 21017 H 1915.09 2.2102 1.95535 0
M  V30 21018 H 1915.17 2.54848 0.220468 0
M  V30 21019 H 1914.81 5.0291 0.710222 0
M  V30 21020 H 1914.74 4.66043 2.45177 0
M  V30 21021 H 1917.23 3.5132 1.39221 0
M  V30 21022 H 1917.55 7.39125 2.25641 0
M  V30 21023 H 1915.89 6.64512 2.0359 0
M  V30 21024 H 1919.08 4.38209 1.64591 0
M  V30 21025 H 1919.26 6.15044 2.0402 0
M  V30 21026 N 1912.66 -0.698586 1.41271 0
M  V30 21027 C 1914.08 -1.0088 1.23674 0
M  V30 21028 C 1914.28 -2.01118 0.123961 0
M  V30 21029 O 1913.33 -2.47242 -0.512628 0
M  V30 21030 C 1914.65 -1.53629 2.58493 0
M  V30 21031 C 1916.19 -1.65528 2.65649 0
M  V30 21032 C 1916.67 -2.21679 4.00777 0
M  V30 21033 N 1918.16 -2.29044 4.02608 0
M  V30 21034 C 1918.9 -2.73512 5.03963 0
M  V30 21035 N 1918.39 -3.17607 6.15709 0
M  V30 21036 N 1920.18 -2.73049 4.91326 0
M  V30 21037 H 1912.34 -0.0344888 2.12372 0
M  V30 21038 H 1914.6 -0.0778742 0.944796 0
M  V30 21039 H 1914.3 -0.874339 3.40658 0
M  V30 21040 H 1914.18 -2.51891 2.80768 0
M  V30 21041 H 1916.57 -2.30836 1.83844 0
M  V30 21042 H 1916.65 -0.658201 2.47187 0
M  V30 21043 H 1916.29 -1.56988 4.83029 0
M  V30 21044 H 1916.22 -3.22134 4.16578 0
M  V30 21045 H 1918.71 -1.97922 3.21924 0
M  V30 21046 H 1919.02 -3.50155 6.88921 0
M  V30 21047 H 1917.37 -3.15523 6.1925 0
M  V30 21048 H 1920.56 -2.37947 4.03112 0
M  V30 21049 H 1920.73 -3.07386 5.70454 0
M  V30 21050 N 1914.14 -1.27049 -0.93254 0
M  V30 21051 C 1915.38 -1.14333 -1.69432 0
M  V30 21052 C 1915.74 0.306622 -1.89536 0
M  V30 21053 O 1916.94 0.556096 -2.62985 0
M  V30 21054 C 1915.22 -1.90032 -3.02692 0
M  V30 21055 S 1916.77 -1.93472 -3.93845 0
M  V30 21056 H 1913.59 -0.408249 -0.582111 0
M  V30 21057 H 1916.19 -1.6089 -1.11061 0
M  V30 21058 H 1914.9 -2.94579 -2.85748 0
M  V30 21059 H 1914.43 -1.4395 -3.66117 0
M  V30 21060 H 1916.44 -1.02765 -4.85442 0
M  V30 21061 N 1915.62 1.13835 -1.08993 0
M  V30 21062 C 1916.57 2.17155 -0.694818 0
M  V30 21063 C 1917.55 1.58291 0.28858 0
M  V30 21064 O 1918.74 1.76719 0.0996503 0
M  V30 21065 C 1915.87 3.43117 -0.112138 0
M  V30 21066 C 1914.96 4.08998 -1.12168 0
M  V30 21067 N 1915.35 4.50111 -2.30724 0
M  V30 21068 C 1913.65 4.35572 -0.958807 0
M  V30 21069 C 1914.35 5.01403 -2.94907 0
M  V30 21070 N 1913.32 4.95984 -2.22487 0
M  V30 21071 H 1917.13 2.46691 -1.59752 0
M  V30 21072 H 1914.64 1.30583 -0.965503 0
M  V30 21073 H 1916.64 4.16472 0.188914 0
M  V30 21074 H 1915.3 3.15056 0.785468 0
M  V30 21075 H 1916.31 4.42959 -2.68343 0
M  V30 21076 H 1912.99 4.1734 -0.11551 0
M  V30 21077 H 1914.38 5.43044 -3.95667 0
M  V30 21078 N 1917.1 0.876467 1.3098 0
M  V30 21079 C 1918.34 0.486745 1.95739 0
M  V30 21080 C 1918.66 -0.967265 1.7001 0
M  V30 21081 O 1919.86 -1.46344 2.28683 0
M  V30 21082 C 1918.32 0.819534 3.50445 0
M  V30 21083 C 1917.93 2.29074 3.85005 0
M  V30 21084 C 1919.67 0.498597 4.21562 0
M  V30 21085 C 1917.58 2.5656 5.32851 0
M  V30 21086 H 1916.51 0.178295 0.732616 0
M  V30 21087 H 1919.16 1.07027 1.49055 0
M  V30 21088 H 1917.54 0.165191 3.95655 0
M  V30 21089 H 1918.72 2.98869 3.50733 0
M  V30 21090 H 1917.03 2.57836 3.2697 0
M  V30 21091 H 1919.63 0.6811 5.30344 0
M  V30 21092 H 1919.97 -0.561426 4.12497 0
M  V30 21093 H 1920.5 1.10976 3.82007 0
M  V30 21094 H 1917.24 3.61271 5.46959 0
M  V30 21095 H 1916.76 1.91366 5.68453 0
M  V30 21096 H 1918.44 2.41623 6.00189 0
M  V30 21097 N 1918.57 -1.44173 0.636557 0
M  V30 21098 C 1919.52 -2.30708 -0.0651156 0
M  V30 21099 C 1920.49 -1.43795 -0.831389 0
M  V30 21100 O 1921.68 -1.7269 -0.81134 0
M  V30 21101 C 1918.82 -3.2915 -1.03703 0
M  V30 21102 C 1917.93 -4.31164 -0.268603 0
M  V30 21103 C 1917.06 -5.16696 -1.23282 0
M  V30 21104 C 1916.1 -6.10415 -0.453864 0
M  V30 21105 N 1915.24 -6.88628 -1.36881 0
M  V30 21106 H 1920.08 -2.90167 0.678744 0
M  V30 21107 H 1917.62 -1.42961 0.346492 0
M  V30 21108 H 1919.57 -3.84717 -1.61395 0
M  V30 21109 H 1918.2 -2.71379 -1.74795 0
M  V30 21110 H 1917.26 -3.78026 0.424338 0
M  V30 21111 H 1918.57 -4.97655 0.337844 0
M  V30 21112 H 1917.72 -5.76807 -1.88091 0
M  V30 21113 H 1916.46 -4.50292 -1.87318 0
M  V30 21114 H 1915.47 -5.49408 0.207683 0
M  V30 21115 H 1916.69 -6.78856 0.181863 0
M  V30 21116 H 1914.64 -6.24887 -1.99629 0
M  V30 21117 H 1914.55 -7.51578 -0.816523 0
M  V30 21118 H 1915.82 -7.53258 -2.00558 0
M  V30 21119 N 1920.05 -0.377435 -1.53014 0
M  V30 21120 C 1921.29 0.208453 -2.03334 0
M  V30 21121 C 1921.66 1.45024 -1.25826 0
M  V30 21122 O 1922.86 2.11252 -1.66211 0
M  V30 21123 C 1921.13 0.481594 -3.5414 0
M  V30 21124 S 1922.69 1.03946 -4.26311 0
M  V30 21125 H 1919.5 0.0597675 -0.708483 0
M  V30 21126 H 1922.11 -0.523042 -1.88373 0
M  V30 21127 H 1920.81 -0.429474 -4.08147 0
M  V30 21128 H 1920.34 1.24184 -3.73285 0
M  V30 21129 H 1922.36 2.3228 -4.38475 0
M  V30 21130 N 1921.53 1.57237 -0.106922 0
M  V30 21131 C 1922.48 2.11215 0.858607 0
M  V30 21132 C 1923.46 1.03 1.23612 0
M  V30 21133 O 1924.66 1.29255 1.20922 0
M  V30 21134 C 1921.79 2.7055 2.11324 0
M  V30 21135 C 1920.87 3.85827 1.76064 0
M  V30 21136 N 1921.26 4.93376 1.11419 0
M  V30 21137 C 1919.56 3.95784 2.05599 0
M  V30 21138 C 1920.26 5.73885 0.950315 0
M  V30 21139 N 1919.24 5.23306 1.47144 0
M  V30 21140 H 1923.04 2.91747 0.355056 0
M  V30 21141 H 1920.55 1.62116 0.0959292 0
M  V30 21142 H 1922.55 3.07557 2.8145 0
M  V30 21143 H 1921.21 1.91477 2.62234 0
M  V30 21144 H 1922.22 5.11999 0.779594 0
M  V30 21145 H 1918.9 3.27736 2.58641 0
M  V30 21146 H 1920.29 6.70433 0.44383 0
M  V30 21147 N 1923.01 -0.166818 1.56715 0
M  V30 21148 C 1923.96 -1.20646 1.96757 0
M  V30 21149 C 1924.93 -1.43751 0.832153 0
M  V30 21150 O 1926.11 -1.56416 1.09264 0
M  V30 21151 C 1923.25 -2.53971 2.3365 0
M  V30 21152 C 1922.36 -2.38207 3.60391 0
M  V30 21153 C 1921.5 -3.6443 3.86476 0
M  V30 21154 C 1920.54 -3.43618 5.0655 0
M  V30 21155 N 1919.67 -4.61923 5.28746 0
M  V30 21156 H 1924.51 -0.857983 2.85382 0
M  V30 21157 H 1922.05 -0.412238 1.41206 0
M  V30 21158 H 1924.01 -3.31684 2.53064 0
M  V30 21159 H 1922.64 -2.86805 1.48131 0
M  V30 21160 H 1921.69 -1.51648 3.48866 0
M  V30 21161 H 1923 -2.18777 4.48261 0
M  V30 21162 H 1922.16 -4.50578 4.06282 0
M  V30 21163 H 1920.9 -3.86844 2.9699 0
M  V30 21164 H 1919.9 -2.55858 4.86638 0
M  V30 21165 H 1921.13 -3.22623 5.97571 0
M  V30 21166 H 1919.07 -4.84547 4.42211 0
M  V30 21167 H 1918.99 -4.45423 6.10848 0
M  V30 21168 H 1920.26 -5.4934 5.53033 0
M  V30 21169 N 1924.49 -1.51463 -0.435524 0
M  V30 21170 C 1925.76 -1.54763 -1.19615 0
M  V30 21171 C 1926.14 -0.312969 -2.08767 0
M  V30 21172 O 1925.49 0.701834 -2.17455 0
M  V30 21173 C 1925.7 -2.86259 -1.99642 0
M  V30 21174 C 1927.05 -3.38276 -2.56621 0
M  V30 21175 O 1928.07 -2.87821 -2.09851 0
M  V30 21176 O 1926.93 -4.26318 -3.41929 0
M  V30 21177 H 1924.03 -0.622293 -0.544684 0
M  V30 21178 H 1926.57 -1.63777 -0.444446 0
M  V30 21179 H 1925.34 -3.67578 -1.34173 0
M  V30 21180 H 1924.97 -2.80416 -2.81874 0
M  V30 21181 N 1925.96 0.691085 -1.4164 0
M  V30 21182 C 1926.91 1.79718 -1.40305 0
M  V30 21183 C 1927.9 1.58502 -0.276751 0
M  V30 21184 O 1929.09 1.69258 -0.517761 0
M  V30 21185 C 1926.22 3.18059 -1.29203 0
M  V30 21186 C 1925.31 3.44954 -2.46714 0
M  V30 21187 N 1925.7 3.42522 -3.72172 0
M  V30 21188 C 1923.99 3.75521 -2.40624 0
M  V30 21189 C 1924.7 3.68447 -4.50135 0
M  V30 21190 N 1923.67 3.88412 -3.80312 0
M  V30 21191 H 1927.47 1.76207 -2.3522 0
M  V30 21192 H 1924.99 0.891261 -1.35758 0
M  V30 21193 H 1926.98 3.97299 -1.26329 0
M  V30 21194 H 1925.64 3.22778 -0.352775 0
M  V30 21195 H 1926.66 3.22799 -4.04996 0
M  V30 21196 H 1923.33 3.87584 -1.55193 0
M  V30 21197 H 1924.72 3.72665 -5.5908 0
M  V30 21198 N 1927.44 1.27542 0.925789 0
M  V30 21199 C 1928.38 1.04754 2.02736 0
M  V30 21200 C 1929.35 -0.0326519 1.62567 0
M  V30 21201 O 1930.54 0.112877 1.88162 0
M  V30 21202 C 1927.66 0.589429 3.33532 0
M  V30 21203 C 1926.71 1.66447 3.9268 0
M  V30 21204 S 1927.54 3.25745 4.2503 0
M  V30 21205 C 1928.7 2.8174 5.58904 0
M  V30 21206 H 1928.93 1.9802 2.21755 0
M  V30 21207 H 1926.47 1.11394 1.06914 0
M  V30 21208 H 1928.42 0.331804 4.09157 0
M  V30 21209 H 1927.08 -0.323209 3.12433 0
M  V30 21210 H 1926.28 1.29528 4.87071 0
M  V30 21211 H 1925.88 1.87427 3.23647 0
M  V30 21212 H 1928.17 2.27162 6.38282 0
M  V30 21213 H 1929.11 3.74883 6.00723 0
M  V30 21214 H 1929.52 2.20823 5.19516 0
M  V30 21215 N 1928.92 -1.13255 1.09595 0
M  V30 21216 C 1930.2 -1.8084 0.74541 0
M  V30 21217 C 1930.58 -1.96582 -0.769323 0
M  V30 21218 O 1929.93 -1.53529 -1.69237 0
M  V30 21219 C 1930.14 -3.15762 1.48645 0
M  V30 21220 C 1931.48 -3.91087 1.65337 0
M  V30 21221 O 1932.51 -3.25391 1.4491 0
M  V30 21222 O 1931.37 -5.08927 1.99137 0
M  V30 21223 H 1928.46 -0.782384 0.267963 0
M  V30 21224 H 1931.01 -1.20167 1.19825 0
M  V30 21225 H 1929.78 -2.99541 2.51775 0
M  V30 21226 H 1929.4 -3.84137 1.02589 0
M  V30 21227 N 1930.4 -0.883401 -1.30514 0
M  V30 21228 C 1931.35 -0.347254 -2.28173 0
M  V30 21229 C 1932.32 0.561698 -1.56314 0
M  V30 21230 O 1933.5 0.490454 -1.84389 0
M  V30 21231 C 1930.64 0.433573 -3.42366 0
M  V30 21232 C 1929.75 -0.504417 -4.29045 0
M  V30 21233 C 1928.89 0.291853 -5.30398 0
M  V30 21234 C 1927.93 -0.641708 -6.08727 0
M  V30 21235 N 1927.06 0.119139 -7.01999 0
M  V30 21236 H 1931.9 -1.1852 -2.73417 0
M  V30 21237 H 1929.44 -0.595824 -1.34493 0
M  V30 21238 H 1931.4 0.902186 -4.07328 0
M  V30 21239 H 1930.03 1.23611 -2.98195 0
M  V30 21240 H 1929.08 -1.09152 -3.64404 0
M  V30 21241 H 1930.39 -1.21969 -4.83658 0
M  V30 21242 H 1929.55 0.822389 -6.011 0
M  V30 21243 H 1928.29 1.04035 -4.76475 0
M  V30 21244 H 1927.29 -1.18389 -5.36902 0
M  V30 21245 H 1928.52 -1.38927 -6.64738 0
M  V30 21246 H 1926.46 0.850204 -6.50467 0
M  V30 21247 H 1926.38 -0.536537 -7.54094 0
M  V30 21248 H 1927.65 0.63047 -7.76946 0
M  V30 21249 N 1931.88 1.43833 -0.644194 0
M  V30 21250 C 1932.82 2.30739 0.0528797 0
M  V30 21251 C 1933.79 1.44234 0.823751 0
M  V30 21252 O 1934.98 1.73118 0.802171 0
M  V30 21253 C 1932.12 3.29695 1.01956 0
M  V30 21254 C 1931.23 4.31301 0.245734 0
M  V30 21255 C 1930.37 5.17343 1.2054 0
M  V30 21256 C 1929.41 6.10647 0.421486 0
M  V30 21257 N 1928.54 6.89344 1.33228 0
M  V30 21258 H 1933.38 2.89803 -0.694123 0
M  V30 21259 H 1930.92 1.42775 -0.354069 0
M  V30 21260 H 1932.88 3.85568 1.59353 0
M  V30 21261 H 1931.51 2.72302 1.73354 0
M  V30 21262 H 1930.56 3.77795 -0.44438 0
M  V30 21263 H 1931.87 4.97468 -0.364231 0
M  V30 21264 H 1931.03 5.77797 1.85029 0
M  V30 21265 H 1929.76 4.51279 1.84928 0
M  V30 21266 H 1928.77 5.4929 -0.236816 0
M  V30 21267 H 1929.99 6.7875 -0.217862 0
M  V30 21268 H 1927.94 6.25937 1.96312 0
M  V30 21269 H 1927.86 7.52 0.776653 0
M  V30 21270 H 1929.13 7.54311 1.9656 0
M  V30 21271 N 1933.35 0.385544 1.52811 0
M  V30 21272 C 1934.26 -0.45885 2.30069 0
M  V30 21273 C 1935.28 -1.07486 1.36831 0
M  V30 21274 O 1936.46 -1.08148 1.699 0
M  V30 21275 C 1933.52 -1.57281 3.08972 0
M  V30 21276 C 1932.58 -0.98229 4.17911 0
M  V30 21277 C 1931.82 -2.04316 4.93042 0
M  V30 21278 O 1932.04 -3.25761 4.68226 0
M  V30 21279 O 1930.97 -1.66256 5.78483 0
M  V30 21280 H 1934.8 0.170416 3.03221 0
M  V30 21281 H 1932.38 0.149363 1.48651 0
M  V30 21282 H 1934.27 -2.22003 3.5818 0
M  V30 21283 H 1932.94 -2.18711 2.38637 0
M  V30 21284 H 1931.85 -0.298428 3.72908 0
M  V30 21285 H 1933.18 -0.412261 4.9047 0
M  V30 21286 N 1934.83 -1.57178 0.115259 0
M  V30 21287 C 1935.74 -2.18656 -0.850101 0
M  V30 21288 C 1936.76 -1.16164 -1.29545 0
M  V30 21289 O 1937.93 -1.48619 -1.35921 0
M  V30 21290 C 1935 -2.77089 -2.0838 0
M  V30 21291 C 1934.06 -3.94604 -1.69074 0
M  V30 21292 C 1933.29 -4.50242 -2.86563 0
M  V30 21293 O 1933.52 -4.04782 -4.0188 0
M  V30 21294 O 1932.45 -5.4098 -2.63864 0
M  V30 21295 H 1936.28 -3.01595 -0.356934 0
M  V30 21296 H 1933.86 -1.48993 -0.110158 0
M  V30 21297 H 1935.74 -3.14353 -2.80642 0
M  V30 21298 H 1934.42 -1.97184 -2.56711 0
M  V30 21299 H 1933.33 -3.62116 -0.939308 0
M  V30 21300 H 1934.66 -4.75934 -1.25489 0
M  V30 21301 N 1936.31 0.158505 -1.56801 0
M  V30 21302 C 1937.56 0.871408 -1.81905 0
M  V30 21303 C 1937.87 1.8285 -0.694632 0
M  V30 21304 O 1939.08 2.58471 -0.830953 0
M  V30 21305 C 1937.54 1.60017 -3.2237 0
M  V30 21306 C 1937.14 0.686065 -4.42716 0
M  V30 21307 C 1938.89 2.30054 -3.56757 0
M  V30 21308 C 1936.79 1.41579 -5.74203 0
M  V30 21309 H 1935.72 0.329148 -0.678364 0
M  V30 21310 H 1938.38 0.124216 -1.83079 0
M  V30 21311 H 1936.76 2.39258 -3.1555 0
M  V30 21312 H 1937.93 -0.0702946 -4.60746 0
M  V30 21313 H 1936.25 0.0947 -4.16292 0
M  V30 21314 H 1938.84 2.85268 -4.52246 0
M  V30 21315 H 1939.19 3.06002 -2.82256 0
M  V30 21316 H 1939.72 1.57744 -3.65187 0
M  V30 21317 H 1936.46 0.698382 -6.51769 0
M  V30 21318 H 1935.98 2.14515 -5.60128 0
M  V30 21319 H 1937.66 1.95983 -6.16603 0
M  V30 21320 N 1937.79 1.51692 0.427485 0
M  V30 21321 C 1939.04 1.64079 1.17308 0
M  V30 21322 C 1939.35 0.367695 1.92113 0
M  V30 21323 O 1940.56 0.371083 2.68952 0
M  V30 21324 C 1939.01 2.89812 2.13394 0
M  V30 21325 C 1938.62 4.24161 1.44191 0
M  V30 21326 C 1940.37 3.11559 2.88325 0
M  V30 21327 C 1938.27 5.41036 2.38819 0
M  V30 21328 H 1937.2 0.611162 0.441584 0
M  V30 21329 H 1939.85 1.78167 0.439193 0
M  V30 21330 H 1938.24 2.6938 2.90259 0
M  V30 21331 H 1939.41 4.5501 0.72817 0
M  V30 21332 H 1937.72 4.08371 0.813739 0
M  V30 21333 H 1940.32 3.96051 3.59232 0
M  V30 21334 H 1940.66 2.25037 3.50234 0
M  V30 21335 H 1941.2 3.32376 2.18565 0
M  V30 21336 H 1937.94 6.29847 1.81585 0
M  V30 21337 H 1937.46 5.1455 3.08218 0
M  V30 21338 H 1939.14 5.73381 2.9974 0
M  V30 21339 N 1939.27 -0.683564 1.42004 0
M  V30 21340 C 1940.23 -1.77907 1.44505 0
M  V30 21341 C 1941.23 -1.57295 0.333889 0
M  V30 21342 O 1942.42 -1.63748 0.594323 0
M  V30 21343 C 1939.55 -3.16434 1.26815 0
M  V30 21344 H 1940.75 -1.7708 2.42039 0
M  V30 21345 H 1938.3 -0.892355 1.28323 0
M  V30 21346 H 1939.03 -3.22894 0.301695 0
M  V30 21347 H 1938.82 -3.32798 2.07335 0
M  V30 21348 H 1940.31 -3.96379 1.31428 0
M  V30 21349 N 1940.75 -1.28031 -0.919012 0
M  V30 21350 C 1942.16 -1.13466 -1.48264 0
M  V30 21351 C 1942.51 0.27724 -1.94231 0
M  V30 21352 O 1941.63 1.171 -1.81979 0
M  V30 21353 C 1942.23 -2.05366 -2.69463 0
M  V30 21354 C 1940.79 -1.94882 -3.22022 0
M  V30 21355 C 1939.93 -1.97414 -1.94738 0
M  V30 21356 H 1942.88 -1.40797 -0.732246 0
M  V30 21357 H 1942.91 -1.61457 -3.44546 0
M  V30 21358 H 1942.42 -3.08118 -2.35976 0
M  V30 21359 H 1940.52 -0.951474 -3.60247 0
M  V30 21360 H 1940.63 -2.8157 -3.87628 0
M  V30 21361 H 1939 -1.41752 -2.11609 0
M  V30 21362 H 1939.78 -3.01836 -1.63554 0
M  V30 21363 N 1942.22 1.12672 -1.10194 0
M  V30 21364 C 1943.46 1.85769 -0.852599 0
M  V30 21365 C 1943.83 1.82027 0.610749 0
M  V30 21366 O 1945.03 2.50442 0.976339 0
M  V30 21367 C 1943.3 3.29565 -1.38281 0
M  V30 21368 S 1944.86 4.20064 -1.26853 0
M  V30 21369 H 1941.68 0.64075 -0.308157 0
M  V30 21370 H 1944.28 1.35746 -1.40689 0
M  V30 21371 H 1942.98 3.29846 -2.44192 0
M  V30 21372 H 1942.51 3.84652 -0.824994 0
M  V30 21373 H 1944.53 4.95691 -0.224588 0
M  V30 21374 N 1943.7 0.89031 1.30043 0
M  V30 21375 C 1944.65 0.35935 2.27985 0
M  V30 21376 C 1945.62 -0.5534 1.5661 0
M  V30 21377 O 1946.8 -0.480669 1.84646 0
M  V30 21378 C 1943.94 -0.41541 3.42591 0
M  V30 21379 C 1943.06 0.527163 4.28771 0
M  V30 21380 C 1942.19 -0.26372 5.30545 0
M  V30 21381 C 1941.23 0.673982 6.08378 0
M  V30 21382 N 1940.37 -0.081909 7.02052 0
M  V30 21383 H 1945.21 1.19969 2.72785 0
M  V30 21384 H 1942.74 0.602948 1.34175 0
M  V30 21385 H 1944.7 -0.880572 4.07801 0
M  V30 21386 H 1943.33 -1.22028 2.98846 0
M  V30 21387 H 1942.38 1.11083 3.6382 0
M  V30 21388 H 1943.7 1.24532 4.83004 0
M  V30 21389 H 1942.85 -0.7905 6.01528 0
M  V30 21390 H 1941.59 -1.01507 4.7702 0
M  V30 21391 H 1940.59 1.21234 5.36267 0
M  V30 21392 H 1941.82 1.42451 6.63991 0
M  V30 21393 H 1939.77 -0.815696 6.50909 0
M  V30 21394 H 1939.68 0.576521 7.53799 0
M  V30 21395 H 1940.95 -0.589258 7.7727 0
M  V30 21396 N 1945.18 -1.43489 0.651812 0
M  V30 21397 C 1946.43 -2.02129 0.164876 0
M  V30 21398 C 1946.76 -1.51296 -1.2175 0
M  V30 21399 O 1946.03 -0.705492 -1.81254 0
M  V30 21400 C 1946.32 -3.59678 0.174184 0
M  V30 21401 C 1946.17 -4.20746 1.59038 0
M  V30 21402 C 1947.49 -4.37362 -0.490177 0
M  V30 21403 H 1944.61 -0.734439 0.0613871 0
M  V30 21404 H 1947.25 -1.70804 0.832229 0
M  V30 21405 H 1945.4 -3.86496 -0.394077 0
M  V30 21406 H 1947.07 -4.04964 2.20912 0
M  V30 21407 H 1945.31 -3.7745 2.13809 0
M  V30 21408 H 1945.99 -5.29828 1.54876 0
M  V30 21409 H 1948.46 -4.16099 -0.00670015 0
M  V30 21410 H 1947.34 -5.47028 -0.452932 0
M  V30 21411 H 1947.6 -4.13509 -1.56406 0
M  V30 21412 N 1946.66 -0.393643 -1.52605 0
M  V30 21413 C 1947.89 0.186829 -2.05754 0
M  V30 21414 C 1948.3 1.40704 -1.26488 0
M  V30 21415 O 1947.64 1.81137 -0.305794 0
M  V30 21416 C 1947.7 0.617257 -3.54161 0
M  V30 21417 C 1947.36 -0.490084 -4.54365 0
M  V30 21418 C 1948.36 -1.34885 -5.02098 0
M  V30 21419 C 1946.05 -0.658354 -4.97967 0
M  V30 21420 C 1948.04 -2.36097 -5.92062 0
M  V30 21421 C 1945.73 -1.6738 -5.8773 0
M  V30 21422 C 1946.73 -2.52353 -6.34671 0
M  V30 21423 O 1946.41 -3.52161 -7.2266 0
M  V30 21424 H 1946.15 0.0307838 -0.675299 0
M  V30 21425 H 1948.7 -0.558639 -1.97657 0
M  V30 21426 H 1946.93 1.41477 -3.5989 0
M  V30 21427 H 1948.62 1.12389 -3.9003 0
M  V30 21428 H 1949.38 -1.23018 -4.69139 0
M  V30 21429 H 1945.26 -0.00666652 -4.61 0
M  V30 21430 H 1948.81 -3.02456 -6.28623 0
M  V30 21431 H 1944.7 -1.79284 -6.20103 0
M  V30 21432 H 1945.47 -3.48221 -7.40732 0
M  V30 21433 N 1948.14 1.57115 -0.123593 0
M  V30 21434 C 1949.37 1.99415 0.540103 0
M  V30 21435 C 1949.77 1.00228 1.60471 0
M  V30 21436 O 1949.12 -0.0123101 1.83696 0
M  V30 21437 C 1949.18 3.38134 1.22088 0
M  V30 21438 C 1948.84 4.5599 0.30367 0
M  V30 21439 C 1949.84 5.17865 -0.459524 0
M  V30 21440 C 1947.52 5.01846 0.213401 0
M  V30 21441 C 1949.52 6.23988 -1.30067 0
M  V30 21442 C 1947.21 6.0783 -0.631375 0
M  V30 21443 C 1948.2 6.68768 -1.38704 0
M  V30 21444 O 1947.89 7.72703 -2.21778 0
M  V30 21445 H 1947.62 0.659781 0.147192 0
M  V30 21446 H 1950.18 2.04343 -0.208128 0
M  V30 21447 H 1948.41 3.29975 2.01628 0
M  V30 21448 H 1950.1 3.64694 1.78195 0
M  V30 21449 H 1950.86 4.8335 -0.399683 0
M  V30 21450 H 1946.74 4.54158 0.791276 0
M  V30 21451 H 1950.29 6.71482 -1.89097 0
M  V30 21452 H 1946.18 6.41774 -0.692592 0
M  V30 21453 H 1946.95 7.8982 -2.1477 0
M  V30 21454 N 1949.61 -0.150187 1.56883 0
M  V30 21455 C 1950.89 -0.891842 1.74085 0
M  V30 21456 C 1951.27 -1.99479 0.690751 0
M  V30 21457 O 1950.62 -2.26641 -0.290877 0
M  V30 21458 C 1950.83 -1.43722 3.18033 0
M  V30 21459 C 1952.18 -1.90188 3.79623 0
M  V30 21460 O 1953.2 -1.53471 3.21442 0
M  V30 21461 O 1952.06 -2.57892 4.81824 0
M  V30 21462 H 1949.15 -0.421241 0.711678 0
M  V30 21463 H 1951.7 -0.136362 1.69151 0
M  V30 21464 H 1950.47 -0.644422 3.85957 0
M  V30 21465 H 1950.09 -2.2563 3.27379 0
M  V30 21466 N 1951.09 -1.51916 -0.419434 0
M  V30 21467 C 1952.34 -1.64698 -1.16436 0
M  V30 21468 C 1952.65 -0.377878 -1.91915 0
M  V30 21469 O 1953.86 -0.385341 -2.68752 0
M  V30 21470 C 1952.32 -2.90939 -2.11854 0
M  V30 21471 C 1951.92 -4.2492 -1.4194 0
M  V30 21472 C 1953.67 -3.13083 -2.86669 0
M  V30 21473 C 1951.58 -5.42294 -2.35946 0
M  V30 21474 H 1950.51 -0.613496 -0.438337 0
M  V30 21475 H 1953.16 -1.78397 -0.429738 0
M  V30 21476 H 1951.54 -2.70916 -2.88826 0
M  V30 21477 H 1952.71 -4.5539 -0.70403 0
M  V30 21478 H 1951.03 -4.08797 -0.792071 0
M  V30 21479 H 1953.62 -3.97951 -3.57127 0
M  V30 21480 H 1953.97 -2.26891 -3.49036 0
M  V30 21481 H 1954.5 -3.33531 -2.168 0
M  V30 21482 H 1951.24 -6.30801 -1.78242 0
M  V30 21483 H 1950.76 -5.16177 -3.05485 0
M  V30 21484 H 1952.44 -5.74962 -2.96695 0
M  V30 21485 N 1952.57 0.676023 -1.42365 0
M  V30 21486 C 1953.8 1.46937 -1.46371 0
M  V30 21487 C 1954.22 1.87946 -0.076099 0
M  V30 21488 O 1953.58 1.55917 0.925172 0
M  V30 21489 C 1953.63 2.69558 -2.39523 0
M  V30 21490 O 1952.73 3.67782 -1.86575 0
M  V30 21491 H 1952.07 0.441478 -0.495977 0
M  V30 21492 H 1954.6 0.829284 -1.8704 0
M  V30 21493 H 1954.61 3.17642 -2.56061 0
M  V30 21494 H 1953.29 2.39049 -3.40336 0
M  V30 21495 H 1951.86 3.26808 -1.79585 0
M  V30 21496 N 1954.05 1.28517 0.912209 0
M  V30 21497 C 1955.28 1.18615 1.69523 0
M  V30 21498 C 1955.69 -0.254997 1.8707 0
M  V30 21499 O 1955.05 -1.17217 1.3988 0
M  V30 21500 C 1955.1 1.88188 3.08655 0
M  V30 21501 O 1954.82 3.26673 2.91918 0
M  V30 21502 C 1956.32 1.84607 4.03032 0
M  V30 21503 H 1953.54 0.411679 0.529869 0
M  V30 21504 H 1956.09 1.69668 1.14162 0
M  V30 21505 H 1954.24 1.41001 3.60829 0
M  V30 21506 H 1954.65 3.61538 3.79987 0
M  V30 21507 H 1956.13 2.37874 4.98116 0
M  V30 21508 H 1956.61 0.818787 4.315 0
M  V30 21509 H 1957.21 2.3148 3.56787 0
M  V30 21510 N 1955.53 -1.12086 1.1079 0
M  V30 21511 C 1956.49 -2.16111 0.763446 0
M  V30 21512 C 1957.49 -1.59371 -0.213903 0
M  V30 21513 O 1958.68 -1.74197 0.00972099 0
M  V30 21514 C 1955.81 -3.40646 0.131488 0
M  V30 21515 H 1957 -2.48096 1.68489 0
M  V30 21516 H 1954.56 -1.27156 0.908896 0
M  V30 21517 H 1955.29 -3.14265 -0.800507 0
M  V30 21518 H 1955.08 -3.83108 0.834928 0
M  V30 21519 H 1956.57 -4.17495 -0.0936165 0
M  V30 21520 N 1957 -0.897194 -1.29569 0
M  V30 21521 C 1957.95 -0.371435 -2.27792 0
M  V30 21522 C 1958.92 0.545087 -1.56901 0
M  V30 21523 O 1960.11 0.47087 -1.84899 0
M  V30 21524 C 1957.25 0.397236 -3.42806 0
M  V30 21525 C 1956.36 -0.549895 -4.28486 0
M  V30 21526 C 1955.49 0.23558 -5.30677 0
M  V30 21527 C 1954.53 -0.706236 -6.08012 0
M  V30 21528 N 1953.67 0.0446763 -7.02086 0
M  V30 21529 H 1958.51 -1.21414 -2.72145 0
M  V30 21530 H 1956.05 -0.610055 -1.33853 0
M  V30 21531 H 1958.01 0.858933 -4.08262 0
M  V30 21532 H 1956.64 1.20441 -2.99489 0
M  V30 21533 H 1955.69 -1.13011 -3.63226 0
M  V30 21534 H 1957 -1.27092 -4.82337 0
M  V30 21535 H 1956.15 0.758588 -6.01939 0
M  V30 21536 H 1954.89 0.989757 -4.77551 0
M  V30 21537 H 1953.9 -1.24077 -5.35617 0
M  V30 21538 H 1955.12 -1.4597 -6.63227 0
M  V30 21539 H 1953.07 0.781165 -6.51332 0
M  V30 21540 H 1952.99 -0.616488 -7.53482 0
M  V30 21541 H 1954.25 0.548029 -7.77571 0
M  V30 21542 N 1958.48 1.43142 -0.659413 0
M  V30 21543 C 1959.43 2.32565 0.040254 0
M  V30 21544 C 1960.42 1.48961 0.806651 0
M  V30 21545 O 1961.63 1.65131 0.716353 0
M  V30 21546 H 1958.01 0.751327 0.0318053 0
M  V30 21547 H 1959.98 2.89293 -0.731581 0
M  V30 21548 C 1958.73 3.33349 0.988614 0
M  V30 21549 H 1958.05 3.9771 0.40831 0
M  V30 21550 H 1959.49 3.9854 1.44714 0
M  V30 21551 C 1957.95 2.64423 2.08763 0
M  V30 21552 O 1958.48 2.46444 3.17219 0
M  V30 21553 N 1956.68 2.23697 1.85494 0
M  V30 21554 H 1956.23 2.38519 0.972945 0
M  V30 21555 H 1956.19 1.7791 2.59221 0
M  V30 21556 N 1959.96 0.40173 1.52394 0
M  V30 21557 C 1960.89 -0.41861 2.29717 0
M  V30 21558 C 1961.87 -1.05263 1.33618 0
M  V30 21559 O 1963.06 -1.06304 1.62521 0
M  V30 21560 C 1960.19 -1.5395 3.11314 0
M  V30 21561 C 1959.14 -1.03088 4.154 0
M  V30 21562 C 1958.47 -2.2448 4.85297 0
M  V30 21563 C 1959.77 -0.0900956 5.22222 0
M  V30 21564 H 1961.46 0.226577 2.98541 0
M  V30 21565 H 1959.01 0.110411 1.43576 0
M  V30 21566 H 1960.96 -2.12031 3.64171 0
M  V30 21567 H 1959.68 -2.21246 2.40246 0
M  V30 21568 H 1958.34 -0.472515 3.63542 0
M  V30 21569 H 1957.99 -2.90313 4.10764 0
M  V30 21570 H 1957.69 -1.91103 5.55656 0
M  V30 21571 H 1959.21 -2.83181 5.40963 0
M  V30 21572 H 1960.63 -0.579479 5.70364 0
M  V30 21573 H 1959.03 0.154505 5.99901 0
M  V30 21574 H 1960.1 0.857375 4.7726 0
M  V30 21575 N 1961.44 -1.57047 0.131923 0
M  V30 21576 C 1962.37 -2.19006 -0.809859 0
M  V30 21577 C 1963.35 -1.13384 -1.26799 0
M  V30 21578 O 1964.53 -1.4167 -1.32827 0
M  V30 21579 C 1961.66 -2.79973 -2.05505 0
M  V30 21580 C 1960.62 -3.9129 -1.73424 0
M  V30 21581 C 1959.94 -4.39123 -3.05081 0
M  V30 21582 C 1961.24 -5.12783 -0.992535 0
M  V30 21583 H 1962.94 -2.97958 -0.293522 0
M  V30 21584 H 1960.48 -1.4332 -0.13974 0
M  V30 21585 H 1962.44 -3.2198 -2.71858 0
M  V30 21586 H 1961.16 -1.9833 -2.59486 0
M  V30 21587 H 1959.82 -3.49879 -1.09456 0
M  V30 21588 H 1959.47 -3.54322 -3.57022 0
M  V30 21589 H 1959.17 -5.14197 -2.84385 0
M  V30 21590 H 1960.69 -4.8379 -3.72531 0
M  V30 21591 H 1962.11 -5.51728 -1.55785 0
M  V30 21592 H 1960.5 -5.93522 -0.886062 0
M  V30 21593 H 1961.57 -4.84896 0.0184538 0
M  V30 21594 N 1962.92 0.141865 -1.5696 0
M  V30 21595 C 1963.85 1.17667 -2.01685 0
M  V30 21596 C 1964.83 1.44509 -0.897282 0
M  V30 21597 O 1966.01 1.55342 -1.16544 0
M  V30 21598 C 1963.14 2.50859 -2.40182 0
M  V30 21599 C 1962.1 2.38527 -3.55371 0
M  V30 21600 C 1961.42 3.76476 -3.79697 0
M  V30 21601 C 1962.72 1.86502 -4.87867 0
M  V30 21602 H 1964.42 0.804761 -2.88382 0
M  V30 21603 H 1961.96 0.385672 -1.38739 0
M  V30 21604 H 1963.92 3.2348 -2.70071 0
M  V30 21605 H 1962.64 2.89895 -1.50428 0
M  V30 21606 H 1961.3 1.68357 -3.25656 0
M  V30 21607 H 1960.95 4.12957 -2.87186 0
M  V30 21608 H 1960.65 3.69085 -4.5722 0
M  V30 21609 H 1962.17 4.50638 -4.12017 0
M  V30 21610 H 1963.58 2.48921 -5.16441 0
M  V30 21611 H 1961.98 1.89989 -5.69231 0
M  V30 21612 H 1963.05 0.821025 -4.77899 0
M  V30 21613 N 1964.39 1.52136 0.411372 0
M  V30 21614 C 1965.32 1.78277 1.50796 0
M  V30 21615 C 1966.31 0.633643 1.57857 0
M  V30 21616 O 1967.49 0.879011 1.73168 0
M  V30 21617 C 1964.62 1.93142 2.88641 0
M  V30 21618 C 1963.57 3.08727 2.96431 0
M  V30 21619 C 1962.9 3.08812 4.36508 0
M  V30 21620 C 1964.2 4.48228 2.68122 0
M  V30 21621 H 1965.89 2.70102 1.29171 0
M  V30 21622 H 1963.44 1.29971 0.619965 0
M  V30 21623 H 1965.39 2.10012 3.65339 0
M  V30 21624 H 1964.12 0.979869 3.11554 0
M  V30 21625 H 1962.78 2.91604 2.22177 0
M  V30 21626 H 1962.42 2.11383 4.56428 0
M  V30 21627 H 1962.12 3.86444 4.42645 0
M  V30 21628 H 1963.65 3.27809 5.15144 0
M  V30 21629 H 1965.06 4.65568 3.34544 0
M  V30 21630 H 1963.46 5.27761 2.85638 0
M  V30 21631 H 1964.53 4.56478 1.63572 0
M  V30 21632 N 1965.87 -0.668464 1.42721 0
M  V30 21633 C 1966.84 -1.76365 1.46384 0
M  V30 21634 C 1967.84 -1.56932 0.350554 0
M  V30 21635 O 1969.03 -1.63109 0.611658 0
M  V30 21636 C 1966.16 -3.15071 1.30164 0
M  V30 21637 H 1967.35 -1.74503 2.43903 0
M  V30 21638 H 1964.9 -0.878695 1.29262 0
M  V30 21639 H 1965.64 -3.22555 0.335926 0
M  V30 21640 H 1965.42 -3.3058 2.10853 0
M  V30 21641 H 1966.91 -3.94963 1.35625 0
M  V30 21642 N 1967.35 -1.28999 -0.905381 0
M  V30 21643 C 1968.3 -1.13515 -2.0302 0
M  V30 21644 C 1969.29 -0.0522132 -1.6932 0
M  V30 21645 O 1970.5 -0.211599 -1.78752 0
M  V30 21646 H 1966.87 -0.350474 -0.665336 0
M  V30 21647 H 1968.85 -2.08758 -2.13219 0
M  V30 21648 C 1967.59 -0.822531 -3.37831 0
M  V30 21649 H 1966.92 -1.64783 -3.64262 0
M  V30 21650 H 1968.36 -0.754193 -4.17238 0
M  V30 21651 C 1966.82 0.474033 -3.33548 0
M  V30 21652 O 1967.35 1.50182 -3.7257 0
M  V30 21653 N 1965.55 0.477812 -2.86645 0
M  V30 21654 H 1965.1 -0.359023 -2.55086 0
M  V30 21655 H 1965.06 1.34533 -2.84162 0
M  V30 21656 N 1968.83 1.11497 -1.11383 0
M  V30 21657 C 1970.05 1.87567 -0.885056 0
M  V30 21658 C 1970.48 1.79581 0.559675 0
M  V30 21659 O 1969.84 1.15779 1.39517 0
M  V30 21660 C 1969.89 3.34354 -1.35053 0
M  V30 21661 O 1968.99 4.09085 -0.521865 0
M  V30 21662 H 1968.33 0.582433 -0.318853 0
M  V30 21663 H 1970.86 1.4094 -1.48314 0
M  V30 21664 H 1970.87 3.85201 -1.34478 0
M  V30 21665 H 1969.55 3.39484 -2.40257 0
M  V30 21666 H 1968.12 3.68144 -0.593669 0
M  V30 21667 N 1970.31 0.904053 1.29092 0
M  V30 21668 C 1971.54 0.547758 1.99517 0
M  V30 21669 C 1971.95 -0.868589 1.67633 0
M  V30 21670 O 1971.31 -1.57394 0.923758 0
M  V30 21671 C 1971.36 0.735683 3.53935 0
M  V30 21672 O 1971.08 2.09629 3.84691 0
M  V30 21673 C 1972.58 0.38492 4.41626 0
M  V30 21674 H 1969.8 0.209762 0.63737 0
M  V30 21675 H 1972.34 1.2146 1.64523 0
M  V30 21676 H 1970.5 0.11597 3.87226 0
M  V30 21677 H 1970.91 2.12883 4.79355 0
M  V30 21678 H 1972.39 0.567226 5.49078 0
M  V30 21679 H 1972.86 -0.678298 4.33931 0
M  V30 21680 H 1973.47 0.981759 4.13813 0
M  V30 21681 N 1971.79 -1.4279 0.666995 0
M  V30 21682 C 1972.7 -2.34594 -0.0164305 0
M  V30 21683 C 1973.71 -1.54657 -0.797322 0
M  V30 21684 O 1974.89 -1.87256 -0.741426 0
M  V30 21685 C 1971.95 -3.33102 -0.961469 0
M  V30 21686 C 1971.01 -4.28939 -0.17598 0
M  V30 21687 C 1970.25 -5.22741 -1.076 0
M  V30 21688 O 1970.47 -5.21289 -2.31546 0
M  V30 21689 O 1969.4 -5.99464 -0.541001 0
M  V30 21690 H 1973.23 -2.94557 0.739579 0
M  V30 21691 H 1970.81 -1.43162 0.427207 0
M  V30 21692 H 1972.7 -3.93639 -1.5042 0
M  V30 21693 H 1971.37 -2.75623 -1.69746 0
M  V30 21694 H 1970.28 -3.71839 0.410667 0
M  V30 21695 H 1971.61 -4.89438 0.520737 0
M  V30 21696 N 1973.26 -0.409806 -1.52179 0
M  V30 21697 C 1974.17 0.42219 -2.3077 0
M  V30 21698 C 1975.19 1.05295 -1.38524 0
M  V30 21699 O 1976.37 1.05432 -1.71599 0
M  V30 21700 C 1973.43 1.52345 -3.11435 0
M  V30 21701 C 1972.49 0.91568 -4.19421 0
M  V30 21702 C 1971.72 1.96446 -4.9623 0
M  V30 21703 O 1971.95 3.18271 -4.7335 0
M  V30 21704 O 1970.88 1.57032 -5.81055 0
M  V30 21705 H 1974.71 -0.218635 -3.02912 0
M  V30 21706 H 1972.29 -0.172994 -1.48395 0
M  V30 21707 H 1974.17 2.16276 -3.61666 0
M  V30 21708 H 1972.85 2.14886 -2.42086 0
M  V30 21709 H 1971.76 0.239064 -3.73335 0
M  V30 21710 H 1973.09 0.33418 -4.91064 0
M  V30 21711 N 1974.74 1.56975 -0.14025 0
M  V30 21712 C 1975.67 2.13532 0.832862 0
M  V30 21713 C 1976.69 1.08312 1.21542 0
M  V30 21714 O 1977.88 1.35613 1.16067 0
M  V30 21715 C 1974.98 2.63756 2.12806 0
M  V30 21716 C 1974.15 3.93304 1.91392 0
M  V30 21717 C 1973.21 4.28907 3.04837 0
M  V30 21718 O 1972.23 4.97351 2.76822 0
M  V30 21719 N 1973.44 3.87941 4.31835 0
M  V30 21720 H 1976.2 2.97655 0.349525 0
M  V30 21721 H 1973.76 1.61841 0.0435313 0
M  V30 21722 H 1975.75 2.8459 2.87734 0
M  V30 21723 H 1974.32 1.84395 2.52423 0
M  V30 21724 H 1973.54 3.81164 1.00538 0
M  V30 21725 H 1974.83 4.77972 1.74414 0
M  V30 21726 H 1974.23 3.32779 4.57466 0
M  V30 21727 H 1972.79 4.13841 5.03566 0
M  V30 21728 N 1976.22 -0.133539 1.57033 0
M  V30 21729 C 1977.15 -1.18985 1.95896 0
M  V30 21730 C 1978.16 -1.38453 0.856426 0
M  V30 21731 O 1979.35 -1.37785 1.13479 0
M  V30 21732 C 1976.45 -2.55242 2.22946 0
M  V30 21733 C 1975.63 -2.56572 3.54245 0
M  V30 21734 C 1974.69 -3.74467 3.69677 0
M  V30 21735 O 1973.71 -3.5872 4.41937 0
M  V30 21736 N 1974.91 -4.92459 3.0735 0
M  V30 21737 H 1977.68 -0.859396 2.87114 0
M  V30 21738 H 1975.24 -0.32297 1.58646 0
M  V30 21739 H 1977.23 -3.32645 2.30498 0
M  V30 21740 H 1975.8 -2.80526 1.37926 0
M  V30 21741 H 1975.02 -1.64988 3.58012 0
M  V30 21742 H 1976.31 -2.54504 4.40574 0
M  V30 21743 H 1975.71 -5.08156 2.48584 0
M  V30 21744 H 1974.26 -5.6759 3.20445 0
M  V30 21745 N 1977.7 -1.52352 -0.403298 0
M  V30 21746 C 1978.64 -1.76112 -1.49175 0
M  V30 21747 C 1979.61 -0.603767 -1.54738 0
M  V30 21748 O 1980.8 -0.841951 -1.71219 0
M  V30 21749 C 1977.94 -1.92292 -2.86562 0
M  V30 21750 C 1977.05 -3.19955 -2.90263 0
M  V30 21751 C 1976.19 -3.26534 -4.18986 0
M  V30 21752 C 1975.23 -4.48376 -4.16684 0
M  V30 21753 N 1974.36 -4.52315 -5.36988 0
M  V30 21754 H 1979.2 -2.69006 -1.28217 0
M  V30 21755 H 1976.74 -1.3329 -0.622266 0
M  V30 21756 H 1978.7 -1.99657 -3.66324 0
M  V30 21757 H 1977.33 -1.02772 -3.06003 0
M  V30 21758 H 1976.38 -3.21733 -2.02958 0
M  V30 21759 H 1977.69 -4.09759 -2.84428 0
M  V30 21760 H 1976.85 -3.33003 -5.07143 0
M  V30 21761 H 1975.59 -2.34679 -4.27524 0
M  V30 21762 H 1974.59 -4.42048 -3.26916 0
M  V30 21763 H 1975.82 -5.41532 -4.0978 0
M  V30 21764 H 1973.76 -3.63346 -5.46183 0
M  V30 21765 H 1973.68 -5.35971 -5.3317 0
M  V30 21766 H 1974.95 -4.6302 -6.27082 0
M  V30 21767 N 1979.18 0.660885 -1.43074 0
M  V30 21768 C 1980.42 1.42136 -1.45495 0
M  V30 21769 C 1980.78 1.92253 -0.0751598 0
M  V30 21770 O 1980.07 1.68881 0.904973 0
M  V30 21771 C 1980.26 2.6246 -2.42589 0
M  V30 21772 C 1980.09 2.24119 -3.89873 0
M  V30 21773 C 1978.86 2.12811 -4.58301 0
M  V30 21774 C 1981.06 1.84886 -4.79918 0
M  V30 21775 N 1979.04 1.6772 -5.90545 0
M  V30 21776 C 1980.41 1.50819 -6.01376 0
M  V30 21777 C 1982.47 1.72001 -4.67247 0
M  V30 21778 C 1981.17 1.05159 -7.11572 0
M  V30 21779 C 1983.2 1.27746 -5.77438 0
M  V30 21780 C 1982.56 0.946114 -6.98017 0
M  V30 21781 H 1978.66 0.516063 -0.58754 0
M  V30 21782 H 1981.24 0.761285 -1.792 0
M  V30 21783 H 1979.41 3.26138 -2.10924 0
M  V30 21784 H 1981.15 3.29124 -2.35499 0
M  V30 21785 H 1977.9 2.32325 -4.12701 0
M  V30 21786 H 1978.32 1.47558 -6.60724 0
M  V30 21787 H 1982.97 1.9626 -3.74489 0
M  V30 21788 H 1980.68 0.796478 -8.04165 0
M  V30 21789 H 1984.27 1.18277 -5.69651 0
M  V30 21790 H 1983.15 0.608883 -7.81833 0
M  V30 21791 N 1980.65 1.29477 0.898527 0
M  V30 21792 C 1981.9 1.1769 1.65157 0
M  V30 21793 C 1982.23 -0.270742 1.92303 0
M  V30 21794 O 1981.51 -1.19538 1.5343 0
M  V30 21795 C 1981.79 1.99186 2.99995 0
M  V30 21796 C 1981.64 3.52097 2.79906 0
M  V30 21797 C 1982.96 1.81916 4.00743 0
M  V30 21798 H 1980.08 0.428901 0.599344 0
M  V30 21799 H 1982.72 1.58963 1.04071 0
M  V30 21800 H 1980.87 1.64116 3.52134 0
M  V30 21801 H 1982.55 3.97155 2.3466 0
M  V30 21802 H 1980.79 3.76962 2.14667 0
M  V30 21803 H 1981.46 4.04394 3.75725 0
M  V30 21804 H 1983.94 2.12549 3.57718 0
M  V30 21805 H 1982.81 2.41285 4.93024 0
M  V30 21806 H 1983.07 0.774654 4.3526 0
M  V30 21807 N 1982.13 -1.10905 1.11972 0
M  V30 21808 C 1983.36 -1.87095 0.894991 0
M  V30 21809 C 1983.78 -1.79875 -0.550144 0
M  V30 21810 O 1983.14 -1.16517 -1.38901 0
M  V30 21811 C 1983.19 -3.33634 1.36825 0
M  V30 21812 O 1982.29 -4.08802 0.543553 0
M  V30 21813 H 1981.63 -0.580734 0.321938 0
M  V30 21814 H 1984.16 -1.40152 1.49059 0
M  V30 21815 H 1984.17 -3.84482 1.36519 0
M  V30 21816 H 1982.85 -3.38205 2.42054 0
M  V30 21817 H 1981.43 -3.67824 0.613185 0
M  V30 21818 N 1983.61 -0.910886 -1.2861 0
M  V30 21819 C 1985.03 -0.608615 -1.4754 0
M  V30 21820 C 1985.23 0.846869 -1.8284 0
M  V30 21821 O 1984.28 1.62618 -1.93162 0
M  V30 21822 C 1985.6 -1.54405 -2.5803 0
M  V30 21823 C 1987.14 -1.55046 -2.719 0
M  V30 21824 C 1987.62 -2.47245 -3.85531 0
M  V30 21825 N 1989.11 -2.45356 -3.9288 0
M  V30 21826 C 1989.84 -3.13394 -4.80179 0
M  V30 21827 N 1989.34 -3.90751 -5.72088 0
M  V30 21828 N 1991.13 -3.02495 -4.73765 0
M  V30 21829 H 1983.28 -1.8521 -1.03977 0
M  V30 21830 H 1985.55 -0.794235 -0.517585 0
M  V30 21831 H 1985.25 -2.5816 -2.38844 0
M  V30 21832 H 1985.13 -1.27299 -3.5507 0
M  V30 21833 H 1987.51 -0.520311 -2.90477 0
M  V30 21834 H 1987.6 -1.86195 -1.754 0
M  V30 21835 H 1987.24 -3.50361 -3.67709 0
M  V30 21836 H 1987.17 -2.134 -4.81423 0
M  V30 21837 H 1989.66 -1.89161 -3.27149 0
M  V30 21838 H 1989.97 -4.39694 -6.35523 0
M  V30 21839 H 1988.32 -3.94857 -5.71938 0
M  V30 21840 H 1991.51 -2.41567 -4.00953 0
M  V30 21841 H 1991.68 -3.55793 -5.41586 0
M  V30 21842 N 1985.09 1.42434 -0.674558 0
M  V30 21843 C 1986.02 2.33498 -0.0100395 0
M  V30 21844 C 1987 1.50665 0.789558 0
M  V30 21845 O 1988.18 1.79268 0.74676 0
M  V30 21846 C 1985.31 3.34279 0.942081 0
M  V30 21847 C 1984.27 4.27263 0.251094 0
M  V30 21848 C 1983.59 5.18249 1.31614 0
M  V30 21849 C 1984.89 5.15008 -0.869735 0
M  V30 21850 H 1986.59 2.89314 -0.770566 0
M  V30 21851 H 1984.13 1.39112 -0.372004 0
M  V30 21852 H 1986.09 3.96896 1.41604 0
M  V30 21853 H 1984.81 2.76765 1.73403 0
M  V30 21854 H 1983.47 3.6604 -0.202625 0
M  V30 21855 H 1983.12 4.57063 2.10006 0
M  V30 21856 H 1982.82 5.81288 0.858923 0
M  V30 21857 H 1984.34 5.83742 1.79103 0
M  V30 21858 H 1985.76 5.71312 -0.477004 0
M  V30 21859 H 1984.15 5.86879 -1.25273 0
M  V30 21860 H 1985.22 4.53422 -1.71861 0
M  V30 21861 N 1986.57 0.417871 1.51959 0
M  V30 21862 C 1987.81 -0.155282 2.02205 0
M  V30 21863 C 1988.15 -1.44044 1.3025 0
M  V30 21864 O 1987.42 -1.90098 0.411449 0
M  V30 21865 C 1987.7 -0.394038 3.57938 0
M  V30 21866 C 1987.56 0.908404 4.40532 0
M  V30 21867 C 1988.88 -1.17238 4.24197 0
M  V30 21868 H 1985.99 -0.0549616 0.734948 0
M  V30 21869 H 1988.64 0.553053 1.81773 0
M  V30 21870 H 1986.79 -0.997422 3.75478 0
M  V30 21871 H 1988.46 1.54427 4.34684 0
M  V30 21872 H 1986.7 1.51743 4.06395 0
M  V30 21873 H 1987.37 0.69563 5.47599 0
M  V30 21874 H 1989.85 -0.661461 4.10809 0
M  V30 21875 H 1988.72 -1.30818 5.33083 0
M  V30 21876 H 1988.99 -2.19534 3.83741 0
M  V30 21877 N 1988.04 -1.56898 0.148573 0
M  V30 21878 C 1988.99 -2.1684 -0.790514 0
M  V30 21879 C 1989.96 -1.10173 -1.24303 0
M  V30 21880 O 1991.15 -1.38221 -1.31527 0
M  V30 21881 C 1988.29 -2.79542 -2.02361 0
M  V30 21882 C 1987.4 -4.00606 -1.61676 0
M  V30 21883 C 1986.53 -4.51303 -2.80178 0
M  V30 21884 C 1985.57 -5.64828 -2.35873 0
M  V30 21885 N 1984.71 -6.10136 -3.47389 0
M  V30 21886 H 1989.55 -2.96751 -0.27255 0
M  V30 21887 H 1987.09 -1.46586 -0.122814 0
M  V30 21888 H 1989.05 -3.14042 -2.74652 0
M  V30 21889 H 1987.68 -2.02273 -2.51566 0
M  V30 21890 H 1986.73 -3.72076 -0.791448 0
M  V30 21891 H 1988.04 -4.82848 -1.25138 0
M  V30 21892 H 1987.19 -4.87865 -3.60656 0
M  V30 21893 H 1985.93 -3.68071 -3.19961 0
M  V30 21894 H 1984.94 -5.2784 -1.53835 0
M  V30 21895 H 1986.16 -6.49846 -1.97174 0
M  V30 21896 H 1984.11 -5.29839 -3.8679 0
M  V30 21897 H 1984.03 -6.87308 -3.14871 0
M  V30 21898 H 1985.29 -6.51344 -4.28219 0
M  V30 21899 N 1989.52 0.125209 -1.57102 0
M  V30 21900 C 1990.47 1.15387 -1.99886 0
M  V30 21901 C 1991.44 1.41494 -0.869974 0
M  V30 21902 O 1992.62 1.53464 -1.13372 0
M  V30 21903 C 1989.76 2.47687 -2.40302 0
M  V30 21904 C 1988.88 2.28568 -3.6658 0
M  V30 21905 C 1988.01 3.54056 -3.96003 0
M  V30 21906 C 1987.05 3.30067 -5.15482 0
M  V30 21907 N 1986.19 4.47741 -5.40807 0
M  V30 21908 H 1991.03 0.782018 -2.87556 0
M  V30 21909 H 1988.57 0.374655 -1.42249 0
M  V30 21910 H 1990.52 3.24858 -2.61769 0
M  V30 21911 H 1989.15 2.82777 -1.55683 0
M  V30 21912 H 1988.21 1.42345 -3.52764 0
M  V30 21913 H 1989.52 2.06815 -4.53904 0
M  V30 21914 H 1988.67 4.39647 -4.18085 0
M  V30 21915 H 1987.41 3.78834 -3.07142 0
M  V30 21916 H 1986.42 2.42866 -4.93251 0
M  V30 21917 H 1987.64 3.06666 -6.05915 0
M  V30 21918 H 1985.59 4.72652 -4.54902 0
M  V30 21919 H 1985.5 4.2907 -6.22442 0
M  V30 21920 H 1986.77 5.34484 -5.67404 0
M  V30 21921 N 1991 1.52564 0.395213 0
M  V30 21922 C 1992.25 1.6653 1.13801 0
M  V30 21923 C 1992.56 0.408362 1.9129 0
M  V30 21924 O 1993.77 0.428049 2.68104 0
M  V30 21925 C 1992.22 2.94273 2.07199 0
M  V30 21926 C 1991.83 4.27125 1.35162 0
M  V30 21927 C 1993.58 3.17604 2.81652 0
M  V30 21928 C 1991.48 5.4598 2.27289 0
M  V30 21929 H 1990.41 0.620392 0.428521 0
M  V30 21930 H 1993.06 1.79058 0.401302 0
M  V30 21931 H 1991.45 2.75477 2.8448 0
M  V30 21932 H 1992.62 4.56452 0.631492 0
M  V30 21933 H 1990.94 4.10006 0.726934 0
M  V30 21934 H 1993.53 4.03582 3.5075 0
M  V30 21935 H 1993.88 2.32415 3.45382 0
M  V30 21936 H 1994.41 3.36938 2.11466 0
M  V30 21937 H 1991.15 6.33557 1.68184 0
M  V30 21938 H 1990.67 5.20972 2.97235 0
M  V30 21939 H 1992.35 5.79609 2.8751 0
M  V30 21940 N 1992.48 -0.653289 1.43422 0
M  V30 21941 C 1993.89 -1.23446 1.40064 0
M  V30 21942 C 1994.24 -1.95921 0.104677 0
M  V30 21943 O 1993.37 -2.01233 -0.79588 0
M  V30 21944 C 1993.96 -2.24523 2.53722 0
M  V30 21945 C 1992.52 -2.78117 2.53629 0
M  V30 21946 C 1991.67 -1.52759 2.3143 0
M  V30 21947 H 1994.62 -0.445312 1.52324 0
M  V30 21948 H 1994.64 -3.06696 2.25207 0
M  V30 21949 H 1994.15 -1.71746 3.4803 0
M  V30 21950 H 1992.25 -3.34957 1.632 0
M  V30 21951 H 1992.36 -3.25667 3.51394 0
M  V30 21952 H 1990.73 -1.80104 1.80096 0
M  V30 21953 H 1991.51 -1.01917 3.27823 0
M  V30 21954 N 1993.96 -1.29952 -0.891648 0
M  V30 21955 C 1994.9 -1.15767 -1.99667 0
M  V30 21956 C 1995.87 -0.0488826 -1.66028 0
M  V30 21957 O 1997.06 -0.217864 -1.89552 0
M  V30 21958 C 1994.2 -0.848553 -3.34505 0
M  V30 21959 C 1993.31 -2.03857 -3.80876 0
M  V30 21960 C 1992.45 -1.66812 -5.04328 0
M  V30 21961 C 1991.49 -2.82348 -5.4309 0
M  V30 21962 N 1990.62 -2.45645 -6.57726 0
M  V30 21963 H 1995.46 -2.10304 -2.11131 0
M  V30 21964 H 1993 -1.04641 -1.03386 0
M  V30 21965 H 1994.96 -0.649983 -4.12106 0
M  V30 21966 H 1993.59 0.059928 -3.22744 0
M  V30 21967 H 1992.64 -2.34859 -2.99241 0
M  V30 21968 H 1993.95 -2.90402 -4.05547 0
M  V30 21969 H 1993.11 -1.43291 -5.89536 0
M  V30 21970 H 1991.84 -0.774269 -4.81515 0
M  V30 21971 H 1990.85 -3.06542 -4.56412 0
M  V30 21972 H 1992.07 -3.72409 -5.6788 0
M  V30 21973 H 1990.02 -1.58757 -6.365 0
M  V30 21974 H 1989.94 -3.25722 -6.82232 0
M  V30 21975 H 1991.21 -2.25463 -7.46181 0
M  V30 21976 N 1995.44 1.1031 -1.12559 0
M  V30 21977 C 1996.38 2.16689 -0.794638 0
M  V30 21978 C 1997.35 1.64369 0.239196 0
M  V30 21979 O 1998.54 1.90462 0.113478 0
M  V30 21980 C 1995.68 3.44143 -0.256828 0
M  V30 21981 C 1994.79 4.10409 -1.34863 0
M  V30 21982 C 1993.93 5.25588 -0.77012 0
M  V30 21983 C 1992.96 5.8376 -1.84096 0
M  V30 21984 N 1992.1 6.90314 -1.28107 0
M  V30 21985 H 1996.94 2.44342 -1.7059 0
M  V30 21986 H 1994.48 1.19936 -0.851695 0
M  V30 21987 H 1996.44 4.17136 0.0730472 0
M  V30 21988 H 1995.07 3.16837 0.61759 0
M  V30 21989 H 1994.12 3.35372 -1.79526 0
M  V30 21990 H 1995.43 4.49686 -2.15833 0
M  V30 21991 H 1994.58 6.05439 -0.390991 0
M  V30 21992 H 1993.32 4.87649 0.0707618 0
M  V30 21993 H 1992.33 5.02577 -2.22926 0
M  V30 21994 H 1993.55 6.23763 -2.68508 0
M  V30 21995 H 1991.5 6.54371 -0.462033 0
M  V30 21996 H 1991.42 7.28309 -2.02735 0
M  V30 21997 H 1992.68 7.73942 -0.929211 0
M  V30 21998 N 1996.91 0.917694 1.28125 0
M  V30 21999 C 1998.32 0.598885 1.76834 0
M  V30 22000 C 1998.68 -0.885857 1.75063 0
M  V30 22001 O 1997.8 -1.69304 1.34778 0
M  V30 22002 C 1998.4 1.08036 3.21113 0
M  V30 22003 C 1996.95 0.812402 3.67528 0
M  V30 22004 C 1996.1 1.24483 2.47789 0
M  V30 22005 H 1999.05 1.09854 1.14533 0
M  V30 22006 H 1999.07 0.423555 3.78135 0
M  V30 22007 H 1998.59 2.161 3.2237 0
M  V30 22008 H 1996.69 -0.254859 3.71727 0
M  V30 22009 H 1996.8 1.42291 4.57482 0
M  V30 22010 H 1995.16 0.663509 2.45906 0
M  V30 22011 H 1995.95 2.3339 2.51762 0
M  V30 22012 N 1998.39 -1.42074 0.682102 0
M  V30 22013 C 1999.8 -1.8453 0.283805 0
M  V30 22014 C 2000.15 -1.5709 -1.17547 0
M  V30 22015 O 1999.28 -1.03444 -1.90075 0
M  V30 22016 C 1999.87 -3.34965 0.508316 0
M  V30 22017 C 1998.43 -3.76042 0.164069 0
M  V30 22018 C 1997.58 -2.65594 0.797204 0
M  V30 22019 H 2000.53 -1.31817 0.88374 0
M  V30 22020 H 2000.55 -3.7976 -0.237267 0
M  V30 22021 H 2000.06 -3.54905 1.57047 0
M  V30 22022 H 1998.16 -3.61707 -0.894353 0
M  V30 22023 H 1998.28 -4.75205 0.609688 0
M  V30 22024 H 1996.64 -2.53678 0.227913 0
M  V30 22025 H 1997.42 -2.88355 1.86296 0
M  V30 22026 N 1999.87 -0.425924 -1.51735 0
M  V30 22027 C 2000.83 0.379497 -2.26036 0
M  V30 22028 C 2001.83 0.95944 -1.2904 0
M  V30 22029 O 2003.02 0.83568 -1.52846 0
M  V30 22030 C 2000.15 1.5358 -3.04345 0
M  V30 22031 H 2001.35 -0.271515 -2.98668 0
M  V30 22032 H 1998.9 -0.17882 -1.55274 0
M  V30 22033 H 1999.64 2.2232 -2.36103 0
M  V30 22034 H 1999.42 1.12626 -3.75577 0
M  V30 22035 H 2000.91 2.10513 -3.60658 0
M  V30 22036 N 2001.35 1.56817 -0.156891 0
M  V30 22037 C 2002.76 1.83151 0.362283 0
M  V30 22038 C 2003.11 1.07606 1.64059 0
M  V30 22039 O 2002.23 0.324479 2.13953 0
M  V30 22040 C 2002.83 3.32228 0.664072 0
M  V30 22041 C 2001.39 3.59109 1.12773 0
M  V30 22042 C 2000.54 2.76861 0.155995 0
M  V30 22043 H 2003.49 1.54048 -0.381419 0
M  V30 22044 H 2003.51 3.48921 1.5177 0
M  V30 22045 H 2003.02 3.87184 -0.266475 0
M  V30 22046 H 2001.12 3.0955 2.07388 0
M  V30 22047 H 2001.23 4.67523 1.04687 0
M  V30 22048 H 1999.6 2.46251 0.650561 0
M  V30 22049 H 2000.38 3.34592 -0.768318 0
M  V30 22050 N 2002.83 -0.116876 1.57166 0
M  V30 22051 C 2004.1 -0.854715 1.75937 0
M  V30 22052 C 2004.48 -1.97969 0.732908 0
M  V30 22053 O 2003.83 -2.27207 -0.242738 0
M  V30 22054 C 2004.04 -1.36944 3.2101 0
M  V30 22055 C 2005.39 -1.82093 3.83572 0
M  V30 22056 O 2006.41 -1.46618 3.24625 0
M  V30 22057 O 2005.27 -2.47614 4.87186 0
M  V30 22058 H 2002.37 -0.40605 0.720453 0
M  V30 22059 H 2004.91 -0.100451 1.69402 0
M  V30 22060 H 2003.68 -0.56241 3.87237 0
M  V30 22061 H 2003.31 -2.18635 3.32091 0
M  V30 22062 N 2004.3 -1.52772 -0.387116 0
M  V30 22063 C 2005.71 -1.59829 -0.964966 0
M  V30 22064 C 2006.07 -0.452304 -1.90915 0
M  V30 22065 O 2005.19 0.424353 -2.12199 0
M  V30 22066 C 2005.79 -2.89687 -1.7569 0
M  V30 22067 C 2004.34 -2.99151 -2.28442 0
M  V30 22068 C 2003.49 -2.54957 -1.0905 0
M  V30 22069 H 2006.44 -1.57823 -0.1666 0
M  V30 22070 H 2006.46 -2.76279 -2.6163 0
M  V30 22071 H 2005.98 -3.73074 -1.06945 0
M  V30 22072 H 2004.08 -2.20305 -3.00494 0
M  V30 22073 H 2004.19 -4.03827 -2.578 0
M  V30 22074 H 2002.55 -2.09321 -1.45109 0
M  V30 22075 H 2003.34 -3.40741 -0.418373 0
M  V30 22076 N 2005.78 0.645673 -1.43767 0
M  V30 22077 C 2007.03 1.40547 -1.45783 0
M  V30 22078 C 2007.36 1.94314 -0.0849322 0
M  V30 22079 O 2006.61 1.73193 0.911191 0
M  V30 22080 C 2006.91 2.59872 -2.45359 0
M  V30 22081 C 2006.58 2.2448 -3.91049 0
M  V30 22082 C 2005.24 2.1454 -4.30728 0
M  V30 22083 C 2007.59 1.9628 -4.82829 0
M  V30 22084 C 2004.92 1.74567 -5.60128 0
M  V30 22085 C 2007.27 1.57804 -6.12602 0
M  V30 22086 C 2005.93 1.46395 -6.51249 0
M  V30 22087 H 2005.2 0.5143 -0.533458 0
M  V30 22088 H 2007.85 0.733575 -1.76892 0
M  V30 22089 H 2006.16 3.32229 -2.07681 0
M  V30 22090 H 2007.85 3.1809 -2.44171 0
M  V30 22091 H 2004.44 2.33129 -3.59651 0
M  V30 22092 H 2008.63 2.02877 -4.5294 0
M  V30 22093 H 2003.88 1.64326 -5.88903 0
M  V30 22094 H 2008.06 1.35018 -6.83186 0
M  V30 22095 H 2005.68 1.15193 -7.51422 0
M  V30 22096 N 2007.26 1.30423 0.884744 0
M  V30 22097 C 2008.22 1.16804 1.97204 0
M  V30 22098 C 2009.22 0.0992103 1.60494 0
M  V30 22099 O 2010.41 0.34734 1.70702 0
M  V30 22100 C 2007.54 0.789574 3.3163 0
M  V30 22101 H 2008.74 2.13401 2.10713 0
M  V30 22102 H 2006.29 1.13823 1.07117 0
M  V30 22103 H 2007.03 -0.175888 3.23823 0
M  V30 22104 H 2006.81 1.562 3.59644 0
M  V30 22105 H 2008.3 0.717768 4.11385 0
M  V30 22106 N 2008.74 -1.09711 1.13142 0
M  V30 22107 C 2010.15 -1.33866 0.869023 0
M  V30 22108 C 2010.35 -1.95275 -0.49697 0
M  V30 22109 O 2009.41 -2.19723 -1.2441 0
M  V30 22110 C 2010.72 -2.25314 1.99133 0
M  V30 22111 C 2012.27 -2.38831 2.02308 0
M  V30 22112 C 2012.75 -3.33613 3.13793 0
M  V30 22113 N 2014.24 -3.41185 3.13284 0
M  V30 22114 C 2014.97 -4.14516 3.96187 0
M  V30 22115 N 2014.47 -4.90669 4.89097 0
M  V30 22116 N 2016.26 -4.1021 3.84297 0
M  V30 22117 H 2008.41 -0.682242 2.01145 0
M  V30 22118 H 2010.67 -0.36305 0.875728 0
M  V30 22119 H 2010.38 -1.87415 2.97605 0
M  V30 22120 H 2010.25 -3.25681 1.90294 0
M  V30 22121 H 2012.64 -2.75996 1.04451 0
M  V30 22122 H 2012.72 -1.38254 2.1522 0
M  V30 22123 H 2012.37 -2.97172 4.11887 0
M  V30 22124 H 2012.3 -4.34088 2.9812 0
M  V30 22125 H 2014.79 -2.86882 2.45982 0
M  V30 22126 H 2015.1 -5.44045 5.48849 0
M  V30 22127 H 2013.45 -4.89768 4.93105 0
M  V30 22128 H 2016.64 -3.49815 3.11042 0
M  V30 22129 H 2016.81 -4.671 4.49135 0
M  V30 22130 N 2010.22 -0.924476 -1.27637 0
M  V30 22131 C 2011.44 -0.57884 -1.99159 0
M  V30 22132 C 2011.87 0.83532 -1.68535 0
M  V30 22133 O 2011.22 1.55999 -0.92379 0
M  V30 22134 C 2011.27 -0.807508 -3.51442 0
M  V30 22135 O 2010.38 0.128443 -4.122 0
M  V30 22136 H 2009.72 -0.223218 -0.625356 0
M  V30 22137 H 2012.25 -1.24285 -1.62525 0
M  V30 22138 H 2012.26 -0.721808 -4.01564 0
M  V30 22139 H 2010.93 -1.83836 -3.73064 0
M  V30 22140 H 2009.51 -0.00689785 -3.72899 0
M  V30 22141 N 2011.69 1.41711 -0.689627 0
M  V30 22142 C 2012.92 2.06171 -0.225425 0
M  V30 22143 C 2013.34 1.51535 1.11439 0
M  V30 22144 O 2012.7 0.639865 1.69633 0
M  V30 22145 C 2012.75 3.60114 -0.187089 0
M  V30 22146 O 2011.85 4.03757 0.83989 0
M  V30 22147 H 2011.2 0.654551 -0.111621 0
M  V30 22148 H 2013.73 1.81582 -0.942814 0
M  V30 22149 H 2013.74 4.07997 -0.0159369 0
M  V30 22150 H 2012.41 3.99251 -1.16497 0
M  V30 22151 H 2010.99 3.67392 0.638575 0
M  V30 22152 N 2013.17 0.433965 1.51507 0
M  V30 22153 C 2014.58 -0.0299408 1.86676 0
M  V30 22154 C 2014.93 -1.42245 1.35132 0
M  V30 22155 O 2014.06 -2.0474 0.700735 0
M  V30 22156 C 2014.65 -0.0611079 3.38745 0
M  V30 22157 C 2013.21 -0.469416 3.73461 0
M  V30 22158 C 2012.36 0.340116 2.75206 0
M  V30 22159 H 2015.31 0.649958 1.4478 0
M  V30 22160 H 2015.33 -0.871298 3.7039 0
M  V30 22161 H 2014.84 0.952511 3.7623 0
M  V30 22162 H 2012.95 -1.48876 3.41565 0
M  V30 22163 H 2013.06 -0.196556 4.78697 0
M  V30 22164 H 2011.42 -0.201099 2.53905 0
M  V30 22165 H 2012.21 1.35255 3.15533 0
M  V30 22166 N 2014.65 -1.56732 0.165206 0
M  V30 22167 C 2016.07 -1.58453 -0.191031 0
M  V30 22168 C 2016.27 -1.1803 -1.63313 0
M  V30 22169 O 2015.32 -0.889055 -2.3633 0
M  V30 22170 C 2016.64 -3.00582 0.0842414 0
M  V30 22171 C 2018.18 -3.12992 0.0219686 0
M  V30 22172 C 2018.66 -4.57203 0.270149 0
M  V30 22173 N 2020.15 -4.62688 0.217711 0
M  V30 22174 C 2020.88 -5.72113 0.383998 0
M  V30 22175 N 2020.38 -6.90118 0.609007 0
M  V30 22176 N 2022.17 -5.61187 0.320329 0
M  V30 22177 H 2014.32 -1.81296 1.1066 0
M  V30 22178 H 2016.59 -0.839986 0.439463 0
M  V30 22179 H 2016.29 -3.3461 1.083 0
M  V30 22180 H 2016.17 -3.71954 -0.62693 0
M  V30 22181 H 2018.55 -2.78794 -0.967358 0
M  V30 22182 H 2018.64 -2.44069 0.765755 0
M  V30 22183 H 2018.28 -4.92108 1.25666 0
M  V30 22184 H 2018.21 -5.24276 -0.494177 0
M  V30 22185 H 2020.7 -3.77868 0.0491965 0
M  V30 22186 H 2021.01 -7.69387 0.725507 0
M  V30 22187 H 2019.36 -6.91995 0.645549 0
M  V30 22188 H 2022.55 -4.67875 0.145176 0
M  V30 22189 H 2022.72 -6.46412 0.453351 0
M  V30 22190 N 2016.13 0.10854 -1.57226 0
M  V30 22191 C 2017.36 0.828374 -1.89593 0
M  V30 22192 C 2017.77 1.72936 -0.757543 0
M  V30 22193 O 2017.13 1.80474 0.271152 0
M  V30 22194 C 2017.18 1.65304 -3.21492 0
M  V30 22195 O 2016.9 0.788315 -4.30949 0
M  V30 22196 C 2018.4 2.47711 -3.67633 0
M  V30 22197 H 2015.62 0.237584 -0.627531 0
M  V30 22198 H 2018.17 0.0897975 -2.04303 0
M  V30 22199 H 2016.32 2.34426 -3.0842 0
M  V30 22200 H 2016.73 1.35814 -5.06611 0
M  V30 22201 H 2018.21 3.01088 -4.62655 0
M  V30 22202 H 2018.69 3.25555 -2.94806 0
M  V30 22203 H 2019.29 1.83812 -3.83527 0
M  V30 22204 N 2017.61 1.52975 0.379009 0
M  V30 22205 C 2018.83 1.72698 1.14849 0
M  V30 22206 C 2019.26 0.448814 1.82667 0
M  V30 22207 O 2018.61 -0.596182 1.71217 0
M  V30 22208 C 2018.66 2.884 2.16466 0
M  V30 22209 O 2017.77 2.56071 3.23267 0
M  V30 22210 H 2017.11 0.573952 0.333878 0
M  V30 22211 H 2019.64 1.99807 0.440243 0
M  V30 22212 H 2019.65 3.14183 2.60295 0
M  V30 22213 H 2018.32 3.8112 1.66494 0
M  V30 22214 H 2016.9 2.41063 2.84505 0
M  V30 22215 N 2019.08 -0.63804 1.44107 0
M  V30 22216 C 2020.02 -1.76291 1.44903 0
M  V30 22217 C 2021 -1.59644 0.308656 0
M  V30 22218 O 2022.18 -1.81621 0.504576 0
M  V30 22219 C 2019.31 -3.13781 1.27511 0
M  V30 22220 C 2018.35 -3.49094 2.45021 0
M  V30 22221 S 2019.19 -3.47353 4.07561 0
M  V30 22222 C 2020.34 -4.87475 3.9258 0
M  V30 22223 H 2020.57 -1.75348 2.40084 0
M  V30 22224 H 2018.11 -0.812041 1.31321 0
M  V30 22225 H 2020.07 -3.93125 1.18164 0
M  V30 22226 H 2018.73 -3.1227 0.338519 0
M  V30 22227 H 2017.92 -4.49126 2.28697 0
M  V30 22228 H 2017.52 -2.77198 2.51073 0
M  V30 22229 H 2019.81 -5.76526 3.55843 0
M  V30 22230 H 2020.76 -5.08853 4.92417 0
M  V30 22231 H 2021.16 -4.61724 3.24763 0
M  V30 22232 N 2020.56 -1.3089 -0.877815 0
M  V30 22233 C 2021.51 -1.17878 -1.98427 0
M  V30 22234 C 2022.48 -0.0664893 -1.65967 0
M  V30 22235 O 2023.66 -0.237956 -1.8931 0
M  V30 22236 C 2020.8 -0.883984 -3.33586 0
M  V30 22237 C 2019.92 -2.07885 -3.78692 0
M  V30 22238 C 2019.05 -1.72152 -5.02531 0
M  V30 22239 C 2018.09 -2.88092 -5.40064 0
M  V30 22240 N 2017.23 -2.52607 -6.55083 0
M  V30 22241 H 2022.07 -2.12531 -2.08889 0
M  V30 22242 H 2019.61 -1.05732 -1.0227 0
M  V30 22243 H 2021.56 -0.693656 -4.11393 0
M  V30 22244 H 2020.19 0.0256933 -3.2279 0
M  V30 22245 H 2019.25 -2.3802 -2.96733 0
M  V30 22246 H 2020.56 -2.94687 -4.02444 0
M  V30 22247 H 2019.71 -1.49536 -5.87983 0
M  V30 22248 H 2018.45 -0.825297 -4.80666 0
M  V30 22249 H 2017.46 -3.11366 -4.53135 0
M  V30 22250 H 2018.68 -3.78412 -5.63898 0
M  V30 22251 H 2016.63 -1.65499 -6.3478 0
M  V30 22252 H 2016.54 -3.3294 -6.78739 0
M  V30 22253 H 2017.81 -2.33365 -7.43748 0
M  V30 22254 N 2022.04 1.0911 -1.13723 0
M  V30 22255 C 2023.29 1.80725 -0.895618 0
M  V30 22256 C 2023.6 1.86812 0.579725 0
M  V30 22257 O 2024.81 2.54768 0.938368 0
M  V30 22258 C 2023.26 3.24679 -1.55278 0
M  V30 22259 C 2022.87 3.26849 -3.06388 0
M  V30 22260 C 2024.62 4.01028 -1.392 0
M  V30 22261 C 2022.52 4.65347 -3.64974 0
M  V30 22262 H 2021.45 0.677257 -0.33142 0
M  V30 22263 H 2024.1 1.22603 -1.36531 0
M  V30 22264 H 2022.49 3.82883 -1.01075 0
M  V30 22265 H 2023.66 2.78393 -3.67198 0
M  V30 22266 H 2021.98 2.63993 -3.2202 0
M  V30 22267 H 2024.57 5.03356 -1.80379 0
M  V30 22268 H 2024.92 4.14932 -0.337236 0
M  V30 22269 H 2025.45 3.49274 -1.904 0
M  V30 22270 H 2022.19 4.56646 -4.70271 0
M  V30 22271 H 2021.71 5.14115 -3.08943 0
M  V30 22272 H 2023.39 5.34322 -3.64841 0
M  V30 22273 N 2023.52 0.931232 1.27145 0
M  V30 22274 C 2024.45 0.39037 2.25851 0
M  V30 22275 C 2025.46 -0.480869 1.55536 0
M  V30 22276 O 2026.65 -0.292921 1.7608 0
M  V30 22277 C 2023.75 -0.458971 3.35778 0
M  V30 22278 C 2022.93 0.393796 4.35624 0
M  V30 22279 C 2021.98 -0.393477 5.24727 0
M  V30 22280 O 2021.01 0.20005 5.68848 0
M  V30 22281 N 2022.21 -1.69245 5.55281 0
M  V30 22282 H 2024.98 1.23887 2.72896 0
M  V30 22283 H 2022.54 0.799038 1.40808 0
M  V30 22284 H 2024.53 -0.992799 3.92334 0
M  V30 22285 H 2023.1 -1.20824 2.88306 0
M  V30 22286 H 2022.32 1.1089 3.78282 0
M  V30 22287 H 2023.61 0.976663 4.99338 0
M  V30 22288 H 2023.01 -2.19693 5.21298 0
M  V30 22289 H 2021.56 -2.17273 6.14521 0
M  V30 22290 N 2025 -1.41343 0.697132 0
M  V30 22291 C 2025.93 -2.29199 -0.00639609 0
M  V30 22292 C 2026.94 -1.44867 -0.742796 0
M  V30 22293 O 2028.13 -1.68354 -0.593239 0
M  V30 22294 C 2025.23 -3.22767 -1.03317 0
M  V30 22295 C 2024.4 -4.35865 -0.366071 0
M  V30 22296 C 2023.46 -5.09999 -1.29567 0
M  V30 22297 O 2022.49 -5.63727 -0.787462 0
M  V30 22298 N 2023.69 -5.1761 -2.62792 0
M  V30 22299 H 2026.46 -2.90219 0.747884 0
M  V30 22300 H 2024.02 -1.52512 0.543287 0
M  V30 22301 H 2026.01 -3.69231 -1.65682 0
M  V30 22302 H 2024.58 -2.63045 -1.68897 0
M  V30 22303 H 2023.8 -3.91765 0.437484 0
M  V30 22304 H 2025.09 -5.08706 0.0977313 0
M  V30 22305 H 2024.49 -4.7541 -3.06598 0
M  V30 22306 H 2023.04 -5.67645 -3.20348 0
M  V30 22307 N 2026.48 -0.441993 -1.51275 0
M  V30 22308 C 2027.42 0.381441 -2.29451 0
M  V30 22309 C 2028.42 1.01672 -1.35496 0
M  V30 22310 O 2029.62 0.95115 -1.52817 0
M  V30 22311 H 2026 0.141826 -0.738505 0
M  V30 22312 H 2027.97 -0.298692 -2.96901 0
M  V30 22313 C 2026.72 1.46756 -3.15211 0
M  V30 22314 H 2026.04 0.988092 -3.87397 0
M  V30 22315 H 2027.48 2.01687 -3.72959 0
M  V30 22316 C 2025.94 2.4534 -2.30889 0
M  V30 22317 O 2026.47 3.49979 -1.97173 0
M  V30 22318 N 2024.68 2.16342 -1.94022 0
M  V30 22319 H 2024.22 1.31276 -2.2164 0
M  V30 22320 H 2024.18 2.82543 -1.37902 0
M  V30 22321 N 2027.95 1.56642 -0.173515 0
M  V30 22322 C 2028.89 2.15251 0.787381 0
M  V30 22323 C 2029.9 1.10866 1.19217 0
M  V30 22324 O 2031.09 1.38044 1.13164 0
M  V30 22325 C 2028.19 2.6821 2.07163 0
M  V30 22326 C 2027.36 3.97275 1.83006 0
M  V30 22327 C 2026.42 4.35276 2.95671 0
M  V30 22328 O 2025.45 5.03111 2.6621 0
M  V30 22329 N 2026.65 3.97014 4.23509 0
M  V30 22330 H 2029.41 2.98329 0.28631 0
M  V30 22331 H 2026.97 1.61897 0.00919258 0
M  V30 22332 H 2028.97 2.90629 2.81632 0
M  V30 22333 H 2027.54 1.89708 2.48454 0
M  V30 22334 H 2026.76 3.83211 0.924298 0
M  V30 22335 H 2028.04 4.81564 1.64237 0
M  V30 22336 H 2027.44 3.42407 4.50304 0
M  V30 22337 H 2026 4.24429 4.94675 0
M  V30 22338 N 2029.43 -0.1002 1.57281 0
M  V30 22339 C 2030.66 -0.82219 1.90407 0
M  V30 22340 C 2031.08 -1.71739 0.767297 0
M  V30 22341 O 2030.44 -1.79103 -0.281369 0
M  V30 22342 C 2030.49 -1.61579 3.22373 0
M  V30 22343 O 2029.59 -2.72433 3.09603 0
M  V30 22344 H 2028.93 -0.2262 0.624283 0
M  V30 22345 H 2031.46 -0.0769557 2.04455 0
M  V30 22346 H 2031.47 -2.00109 3.55556 0
M  V30 22347 H 2030.15 -0.958772 4.04698 0
M  V30 22348 H 2028.72 -2.36968 2.87925 0
M  V30 22349 N 2030.91 -1.53174 -0.370891 0
M  V30 22350 C 2032.16 -1.68319 -1.11137 0
M  V30 22351 C 2032.47 -0.438743 -1.90616 0
M  V30 22352 O 2033.68 -0.470648 -2.6739 0
M  V30 22353 C 2032.13 -2.97532 -2.02491 0
M  V30 22354 C 2031.74 -4.29221 -1.28349 0
M  V30 22355 C 2033.49 -3.22045 -2.76563 0
M  V30 22356 C 2031.39 -5.49526 -2.18574 0
M  V30 22357 H 2030.32 -0.62713 -0.418597 0
M  V30 22358 H 2032.97 -1.79674 -0.372765 0
M  V30 22359 H 2031.36 -2.79967 -2.80061 0
M  V30 22360 H 2032.53 -4.57399 -0.558794 0
M  V30 22361 H 2030.84 -4.1111 -0.661614 0
M  V30 22362 H 2033.44 -4.09111 -3.44285 0
M  V30 22363 H 2033.78 -2.37881 -3.41641 0
M  V30 22364 H 2034.32 -3.40259 -2.06079 0
M  V30 22365 H 2031.06 -6.36152 -1.58083 0
M  V30 22366 H 2030.58 -5.25635 -2.88909 0
M  V30 22367 H 2032.26 -5.8411 -2.78252 0
M  V30 22368 N 2032.39 0.630389 -1.44443 0
M  V30 22369 C 2033.8 0.948649 -1.28346 0
M  V30 22370 C 2034 2.00298 -0.219776 0
M  V30 22371 O 2033.06 2.49406 0.394082 0
M  V30 22372 C 2034.37 1.41121 -2.65528 0
M  V30 22373 C 2035.92 1.52665 -2.73244 0
M  V30 22374 C 2036.4 2.02305 -4.10897 0
M  V30 22375 N 2037.89 2.09574 -4.13077 0
M  V30 22376 C 2038.62 2.49156 -5.16439 0
M  V30 22377 N 2038.12 2.87869 -6.30161 0
M  V30 22378 N 2039.91 2.49296 -5.03794 0
M  V30 22379 H 2032.06 -0.0668759 -2.12295 0
M  V30 22380 H 2034.32 0.032708 -0.947436 0
M  V30 22381 H 2034.03 0.710811 -3.44442 0
M  V30 22382 H 2033.9 2.38208 -2.92466 0
M  V30 22383 H 2036.29 2.21802 -1.94648 0
M  V30 22384 H 2036.37 0.539516 -2.50046 0
M  V30 22385 H 2036.02 1.33763 -4.89969 0
M  V30 22386 H 2035.95 3.01892 -4.31473 0
M  V30 22387 H 2038.44 1.82338 -3.31001 0
M  V30 22388 H 2038.75 3.16887 -7.04842 0
M  V30 22389 H 2037.1 2.85619 -6.33598 0
M  V30 22390 H 2040.29 2.18443 -4.14005 0
M  V30 22391 H 2040.46 2.79819 -5.8447 0
M  V30 22392 N 2033.87 1.31354 0.870861 0
M  V30 22393 C 2035.28 1.09992 1.15646 0
M  V30 22394 C 2035.48 -0.130192 2.01079 0
M  V30 22395 O 2034.54 -0.819776 2.38822 0
M  V30 22396 C 2035.85 2.37098 1.84946 0
M  V30 22397 C 2037.4 2.42699 1.97651 0
M  V30 22398 C 2037.87 3.69684 2.70366 0
M  V30 22399 N 2039.36 3.70573 2.77902 0
M  V30 22400 C 2040.1 4.65525 3.34775 0
M  V30 22401 N 2039.6 5.70831 3.92586 0
M  V30 22402 N 2041.39 4.53046 3.32724 0
M  V30 22403 H 2033.54 2.10249 0.301547 0
M  V30 22404 H 2035.8 0.927478 0.196185 0
M  V30 22405 H 2035.51 3.26943 1.2962 0
M  V30 22406 H 2035.38 2.46827 2.8523 0
M  V30 22407 H 2037.77 1.53324 2.52142 0
M  V30 22408 H 2037.85 2.36935 0.964123 0
M  V30 22409 H 2037.49 4.59425 2.16543 0
M  V30 22410 H 2037.42 3.72714 3.7201 0
M  V30 22411 H 2039.92 2.94449 2.36872 0
M  V30 22412 H 2040.23 6.39363 4.3409 0
M  V30 22413 H 2038.57 5.74606 3.90964 0
M  V30 22414 H 2041.76 3.69952 2.86798 0
M  V30 22415 H 2041.94 5.27223 3.76749 0
M  V30 22416 N 2035.34 -1.08505 1.143 0
M  V30 22417 C 2036.75 -1.62355 0.921836 0
M  V30 22418 C 2037.11 -1.88635 -0.539569 0
M  V30 22419 O 2036.23 -1.64307 -1.40827 0
M  V30 22420 C 2036.83 -2.94955 1.66694 0
M  V30 22421 C 2035.38 -3.45593 1.49139 0
M  V30 22422 C 2034.53 -2.19845 1.69008 0
M  V30 22423 H 2037.48 -0.917442 1.29494 0
M  V30 22424 H 2037.5 -3.63348 1.12954 0
M  V30 22425 H 2037.02 -2.75796 2.73053 0
M  V30 22426 H 2035.12 -3.69858 0.451226 0
M  V30 22427 H 2035.23 -4.2241 2.26068 0
M  V30 22428 H 2033.59 -2.28966 1.11565 0
M  V30 22429 H 2034.38 -2.03194 2.76707 0
M  V30 22430 N 2036.82 -0.937962 -1.26649 0
M  V30 22431 C 2038.05 -0.59993 -1.98534 0
M  V30 22432 C 2038.47 0.817397 -1.69411 0
M  V30 22433 O 2037.83 1.55011 -0.940284 0
M  V30 22434 C 2037.88 -0.844738 -3.50566 0
M  V30 22435 O 2036.98 0.0847162 -4.12313 0
M  V30 22436 H 2036.32 -0.229839 -0.622953 0
M  V30 22437 H 2038.85 -1.26002 -1.61198 0
M  V30 22438 H 2038.86 -0.764359 -4.00776 0
M  V30 22439 H 2037.54 -1.87783 -3.71094 0
M  V30 22440 H 2036.11 -0.0464484 -3.72871 0
M  V30 22441 N 2038.3 1.40971 -0.704618 0
M  V30 22442 C 2039.72 1.55082 -0.377067 0
M  V30 22443 C 2039.92 1.67827 1.11518 0
M  V30 22444 O 2038.97 1.66173 1.90112 0
M  V30 22445 C 2040.28 2.78517 -1.13352 0
M  V30 22446 C 2041.83 2.92323 -1.11875 0
M  V30 22447 C 2042.31 4.18658 -1.85714 0
M  V30 22448 N 2043.8 4.25635 -1.82728 0
M  V30 22449 C 2044.53 5.22268 -2.36693 0
M  V30 22450 N 2044.03 6.24877 -2.99167 0
M  V30 22451 N 2045.82 5.14271 -2.26897 0
M  V30 22452 H 2037.97 1.30944 -1.67235 0
M  V30 22453 H 2040.24 0.632393 -0.706246 0
M  V30 22454 H 2039.94 2.75339 -2.18818 0
M  V30 22455 H 2039.82 3.70304 -0.717978 0
M  V30 22456 H 2042.2 2.95011 -0.0723296 0
M  V30 22457 H 2042.28 2.01685 -1.57343 0
M  V30 22458 H 2041.93 4.16732 -2.9034 0
M  V30 22459 H 2041.86 5.08285 -1.37674 0
M  V30 22460 H 2044.35 3.52119 -1.37187 0
M  V30 22461 H 2044.66 6.95019 -3.37889 0
M  V30 22462 H 2043.01 6.25353 -3.03247 0
M  V30 22463 H 2046.2 4.33037 -1.77755 0
M  V30 22464 H 2046.37 5.89411 -2.69256 0
M  V30 22465 N 2039.78 0.45001 1.51039 0
M  V30 22466 C 2040.71 -0.390998 2.2584 0
M  V30 22467 C 2041.72 -0.975406 1.30344 0
M  V30 22468 O 2042.91 -0.867391 1.56008 0
M  V30 22469 C 2040.01 -1.56025 3.00848 0
M  V30 22470 C 2039.19 -1.09244 4.23538 0
M  V30 22471 C 2038.24 -2.13329 4.81017 0
M  V30 22472 O 2037.27 -1.72246 5.42513 0
M  V30 22473 N 2038.47 -3.45941 4.6616 0
M  V30 22474 H 2041.24 0.250165 2.98654 0
M  V30 22475 H 2038.8 0.279599 1.59467 0
M  V30 22476 H 2040.79 -2.25304 3.36185 0
M  V30 22477 H 2039.36 -2.10651 2.30965 0
M  V30 22478 H 2038.58 -0.226269 3.9355 0
M  V30 22479 H 2039.87 -0.757479 5.0313 0
M  V30 22480 H 2039.27 -3.82042 4.17205 0
M  V30 22481 H 2037.82 -4.11078 5.05824 0
M  V30 22482 N 2041.26 -1.56548 0.18182 0
M  V30 22483 C 2042.19 -2.21471 -0.739774 0
M  V30 22484 C 2043.17 -1.17361 -1.23128 0
M  V30 22485 O 2044.35 -1.45825 -1.28253 0
M  V30 22486 C 2041.48 -2.86369 -1.96494 0
M  V30 22487 C 2040.44 -3.96609 -1.60888 0
M  V30 22488 C 2039.76 -4.48607 -2.90957 0
M  V30 22489 C 2041.06 -5.15681 -0.828895 0
M  V30 22490 H 2042.76 -2.98741 -0.19858 0
M  V30 22491 H 2040.3 -1.43692 -0.0940725 0
M  V30 22492 H 2042.26 -3.30466 -2.61477 0
M  V30 22493 H 2040.98 -2.06485 -2.53045 0
M  V30 22494 H 2039.64 -3.53184 -0.982694 0
M  V30 22495 H 2039.29 -3.65501 -3.45569 0
M  V30 22496 H 2038.99 -5.22984 -2.67882 0
M  V30 22497 H 2040.51 -4.95397 -3.56951 0
M  V30 22498 H 2041.92 -5.56405 -1.38153 0
M  V30 22499 H 2040.32 -5.96041 -0.696789 0
M  V30 22500 H 2041.39 -4.84592 0.172711 0
M  V30 22501 N 2042.73 0.0918577 -1.57332 0
M  V30 22502 C 2043.7 1.09546 -2.01326 0
M  V30 22503 C 2044.7 1.32761 -0.907252 0
M  V30 22504 O 2045.89 1.2882 -1.17265 0
M  V30 22505 C 2043.02 2.44385 -2.37674 0
M  V30 22506 H 2044.21 0.71671 -2.9121 0
M  V30 22507 H 2041.77 0.337001 -1.52624 0
M  V30 22508 H 2042.5 2.8713 -1.50755 0
M  V30 22509 H 2042.29 2.28882 -3.18364 0
M  V30 22510 H 2043.78 3.16562 -2.72357 0
M  V30 22511 N 2044.21 1.53368 0.362763 0
M  V30 22512 C 2045.62 1.61344 0.939417 0
M  V30 22513 C 2045.97 0.48262 1.90172 0
M  V30 22514 O 2045.1 -0.39054 2.12847 0
M  V30 22515 C 2045.69 2.92445 1.71059 0
M  V30 22516 C 2044.25 3.02747 2.23654 0
M  V30 22517 C 2043.4 2.5666 1.0498 0
M  V30 22518 H 2046.35 1.58068 0.141471 0
M  V30 22519 H 2046.37 2.80406 2.57201 0
M  V30 22520 H 2045.88 3.74728 1.00996 0
M  V30 22521 H 2043.99 2.25057 2.96951 0
M  V30 22522 H 2044.1 4.07877 2.51343 0
M  V30 22523 H 2042.46 2.11603 1.41761 0
M  V30 22524 H 2043.25 3.41364 0.364111 0
M  V30 22525 N 2045.69 -0.62272 1.44776 0
M  V30 22526 C 2046.64 -1.75545 1.526 0
M  V30 22527 C 2047.63 -1.64681 0.397056 0
M  V30 22528 O 2048.84 -1.70658 0.572351 0
M  V30 22529 H 2045.21 -0.579694 0.479018 0
M  V30 22530 H 2047.18 -1.66069 2.47919 0
M  V30 22531 C 2045.93 -3.13899 1.49542 0
M  V30 22532 H 2045.26 -3.2291 2.35731 0
M  V30 22533 H 2046.7 -3.93028 1.59076 0
M  V30 22534 C 2045.16 -3.36197 0.217454 0
M  V30 22535 O 2045.69 -3.95395 -0.708921 0
M  V30 22536 N 2043.89 -2.90361 0.117924 0
M  V30 22537 H 2043.44 -2.4237 0.872626 0
M  V30 22538 H 2043.4 -3.05655 -0.736367 0
M  V30 22539 N 2047.17 -1.31814 -0.863883 0
M  V30 22540 C 2048.12 -1.19976 -1.97166 0
M  V30 22541 C 2049.09 -0.0840886 -1.65887 0
M  V30 22542 O 2050.27 -0.258021 -1.89047 0
M  V30 22543 C 2047.41 -0.919316 -3.3263 0
M  V30 22544 C 2046.52 -2.1189 -3.76466 0
M  V30 22545 C 2045.66 -1.77472 -5.00677 0
M  V30 22546 C 2044.7 -2.93804 -5.36978 0
M  V30 22547 N 2043.83 -2.59541 -6.52367 0
M  V30 22548 H 2048.67 -2.14735 -2.06623 0
M  V30 22549 H 2046.21 -1.06811 -1.01143 0
M  V30 22550 H 2048.17 -0.737251 -4.10634 0
M  V30 22551 H 2046.8 -0.0085443 -3.22799 0
M  V30 22552 H 2045.85 -2.41154 -2.94192 0
M  V30 22553 H 2047.16 -2.98939 -3.99295 0
M  V30 22554 H 2046.32 -1.55764 -5.86364 0
M  V30 22555 H 2045.06 -0.876231 -4.79764 0
M  V30 22556 H 2044.06 -3.16154 -4.49807 0
M  V30 22557 H 2045.29 -3.84371 -5.59853 0
M  V30 22558 H 2043.23 -1.72222 -6.32989 0
M  V30 22559 H 2043.15 -3.4012 -6.7517 0
M  V30 22560 H 2044.42 -2.4124 -7.41231 0
M  V30 22561 N 2048.65 1.07897 -1.14873 0
M  V30 22562 C 2050.06 1.61864 -0.930434 0
M  V30 22563 C 2050.41 1.88918 0.529558 0
M  V30 22564 O 2049.53 1.65051 1.39954 0
M  V30 22565 C 2050.13 2.94067 -1.68256 0
M  V30 22566 C 2048.69 3.44797 -1.50969 0
M  V30 22567 C 2047.83 2.18945 -1.70171 0
M  V30 22568 H 2050.79 0.910562 -1.29979 0
M  V30 22569 H 2050.81 3.62744 -1.1488 0
M  V30 22570 H 2050.32 2.74344 -2.74512 0
M  V30 22571 H 2048.42 3.69613 -0.470834 0
M  V30 22572 H 2048.53 4.21205 -2.28305 0
M  V30 22573 H 2046.9 2.28371 -1.12778 0
M  V30 22574 H 2047.68 2.01724 -2.77781 0
M  V30 22575 N 2050.12 0.944665 1.2615 0
M  V30 22576 C 2051.35 0.610451 1.98213 0
M  V30 22577 C 2051.77 -0.808401 1.69843 0
M  V30 22578 O 2051.13 -1.5451 0.948491 0
M  V30 22579 C 2051.18 0.863318 3.50113 0
M  V30 22580 O 2050.28 -0.062849 4.12352 0
M  V30 22581 H 2049.63 0.233139 0.621725 0
M  V30 22582 H 2052.16 1.26855 1.60527 0
M  V30 22583 H 2052.17 0.785602 4.00365 0
M  V30 22584 H 2050.84 1.89748 3.70092 0
M  V30 22585 H 2049.42 0.066222 3.72841 0
M  V30 22586 O 2051.64 -1.37297 0.850404 0
M  V30 22587 H 2052.33 -1.88575 0.442641 0
M  V30 END ATOM
M  V30 BEGIN BOND
M  V30 END BOND
M  V30 END CTAB
M  END
$$$$
