drugbank_target|P43681 Neuronal acetylcholine receptor subunit alpha-4 (DB00184; DB00241; DB00306; DB00312; DB00333; DB00418; DB00463; DB00514; DB00564; DB00572; DB00599; DB00657; DB00747; DB00753; DB00783; DB00794; DB00849; DB00898; DB00915; DB00981; DB01174; DB01245; DB01273; DB01351; DB01352; DB01353; DB01354; DB01355; DB01483; DB01496; DB05458; DB05740; DB07720; DB09028; DB13952; DB13953; DB13954; DB13955; DB13956)
 OpenBabel12092119413D

  0  0  0     0  0            999 V3000
M  V30 BEGIN CTAB
M  V30 COUNTS 9880 10025 0 0 0
M  V30 BEGIN ATOM
M  V30 1 H -0.908 1.98254 -0.117106 0
M  V30 2 N 0 1.576 0 0
M  V30 3 C 0.933 2.03868 1.02534 0
M  V30 4 C 1.911 0.928543 1.3348 0
M  V30 5 O 3.095 1.19667 1.45644 0
M  V30 6 C 0.222 2.43627 2.35294 0
M  V30 7 C -0.732 3.65373 2.2001 0
M  V30 8 S 0.101 5.13292 1.52614 0
M  V30 9 C 1.257 5.56322 2.86805 0
M  V30 10 H 1.49 2.90518 0.631377 0
M  V30 11 H -0.977 1.52953 0.210867 0
M  V30 12 H 0.981 2.67203 3.11629 0
M  V30 13 H -0.358 1.57376 2.7183 0
M  V30 14 H -1.165 3.90944 3.18086 0
M  V30 15 H -1.563 3.418 1.51819 0
M  V30 16 H 0.729 5.58782 3.83104 0
M  V30 17 H 1.672 6.56266 2.65933 0
M  V30 18 H 2.08 4.83886 2.90714 0
M  V30 19 N 1.4781 -0.272755 1.55222 0
M  V30 20 C 2.3881 -1.35918 1.91216 0
M  V30 21 C 3.4041 -1.54026 0.809436 0
M  V30 22 O 4.5801 -1.68148 1.10852 0
M  V30 23 C 1.6451 -2.69834 2.17693 0
M  V30 24 C 0.7061 -2.6047 3.41253 0
M  V30 25 C -0.0609 -3.88 3.66458 0
M  V30 26 O 0.1621 -4.88693 2.94169 0
M  V30 27 O -0.9039 -3.88189 4.59992 0
M  V30 28 H 2.9221 -1.0839 2.83699 0
M  V30 29 H 0.5071 -0.471301 1.41771 0
M  V30 30 H 2.3891 -3.49017 2.36147 0
M  V30 31 H 1.0641 -2.97148 1.28392 0
M  V30 32 H -0.0289 -1.79663 3.28134 0
M  V30 33 H 1.3041 -2.38106 4.30774 0
M  V30 34 N 2.9562 -1.48159 -0.537278 0
M  V30 35 C 3.8862 -1.65029 -1.6519 0
M  V30 36 C 4.8672 -0.499281 -1.62607 0
M  V30 37 O 6.0522 -0.730972 -1.79918 0
M  V30 38 C 3.1822 -1.68303 -3.03795 0
M  V30 39 C 2.1362 -2.8283 -3.21234 0
M  V30 40 C 1.4622 -2.71189 -4.60826 0
M  V30 41 C 2.7622 -4.24211 -3.04701 0
M  V30 42 H 4.4562 -2.58341 -1.51328 0
M  V30 43 H 2.0022 -1.24325 -0.726585 0
M  V30 44 H 3.9552 -1.78693 -3.81637 0
M  V30 45 H 2.6792 -0.715635 -3.18663 0
M  V30 46 H 1.3382 -2.71983 -2.45807 0
M  V30 47 H 0.9862 -1.72435 -4.7252 0
M  V30 48 H 0.6862 -3.48035 -4.7344 0
M  V30 49 H 2.2102 -2.83537 -5.40777 0
M  V30 50 H 3.6242 -4.3593 -3.72341 0
M  V30 51 H 2.0212 -5.01998 -3.28813 0
M  V30 52 H 3.0912 -4.41184 -2.01209 0
M  V30 53 N 4.4343 0.785586 -1.36625 0
M  V30 54 C 5.6823 1.54057 -1.30808 0
M  V30 55 C 6.0033 1.94683 0.111157 0
M  V30 56 O 5.2733 1.65241 1.05224 0
M  V30 57 H 3.8533 0.571354 -0.481211 0
M  V30 58 H 6.5153 0.935821 -1.70963 0
M  V30 59 H 5.6113 2.44637 -1.93801 0
M  V30 60 N 5.9124 1.20967 1.01018 0
M  V30 61 C 7.1604 1.02172 1.74371 0
M  V30 62 C 7.4814 -0.446414 1.89821 0
M  V30 63 O 6.7514 -1.32234 1.44537 0
M  V30 64 H 5.3314 0.375066 0.646014 0
M  V30 65 H 7.9934 1.52187 1.21758 0
M  V30 66 H 7.0894 1.48538 2.74487 0
M  V30 67 N 7.3905 -1.2043 1.01659 0
M  V30 68 C 8.8015 -1.71517 0.737482 0
M  V30 69 C 9.1525 -1.81547 -0.743973 0
M  V30 70 O 8.2775 -1.47803 -1.58061 0
M  V30 71 C 8.8725 -3.11515 1.33206 0
M  V30 72 C 7.4315 -3.59912 1.10183 0
M  V30 73 C 6.5785 -2.37116 1.43776 0
M  V30 74 H 9.5295 -1.05444 1.18606 0
M  V30 75 H 9.5505 -3.73575 0.722636 0
M  V30 76 H 9.0625 -3.04182 2.41028 0
M  V30 77 H 7.1635 -3.72577 0.0412756 0
M  V30 78 H 7.2765 -4.44731 1.78188 0
M  V30 79 H 5.6405 -2.39857 0.856778 0
M  V30 80 H 6.4235 -2.32424 2.52654 0
M  V30 81 N 8.8686 -0.792821 -1.36206 0
M  V30 82 C 10.1166 -0.366062 -1.98757 0
M  V30 83 C 10.4376 1.0668 -1.63231 0
M  V30 84 O 9.7076 1.73587 -0.907978 0
M  V30 85 H 8.2876 -0.132364 -0.735179 0
M  V30 86 H 10.9496 -1.01562 -1.66347 0
M  V30 87 H 10.0456 -0.460638 -3.08682 0
M  V30 88 N 10.3467 1.47872 -0.545128 0
M  V30 89 C 11.3097 2.28337 0.198717 0
M  V30 90 C 12.3097 1.36255 0.853888 0
M  V30 91 O 13.4997 1.59003 0.711606 0
M  V30 92 C 10.6317 3.15585 1.28915 0
M  V30 93 H 11.8247 2.95567 -0.507941 0
M  V30 94 H 9.3777 1.53362 -0.301616 0
M  V30 95 H 10.1127 2.53019 2.02859 0
M  V30 96 H 9.8977 3.83337 0.824309 0
M  V30 97 H 11.3877 3.76243 1.81194 0
M  V30 98 N 11.8248 0.280983 1.55075 0
M  V30 99 C 13.2358 -0.215629 1.85451 0
M  V30 100 C 13.5868 -1.54991 1.203 0
M  V30 101 O 12.7118 -2.10699 0.493435 0
M  V30 102 C 13.3068 -0.398026 3.36454 0
M  V30 103 C 11.8658 -0.838866 3.66933 0
M  V30 104 C 11.0128 0.064458 2.77225 0
M  V30 105 H 13.9638 0.502601 1.50531 0
M  V30 106 H 13.9848 -1.23569 3.59876 0
M  V30 107 H 13.4968 0.573241 3.83843 0
M  V30 108 H 11.5978 -1.8214 3.25048 0
M  V30 109 H 11.7108 -0.672123 4.74362 0
M  V30 110 H 10.0748 -0.452863 2.50642 0
M  V30 111 H 10.8578 1.03172 3.2743 0
M  V30 112 N 13.3029 -1.57598 0.00835791 0
M  V30 113 C 14.7189 -1.55764 -0.347822 0
M  V30 114 C 14.9189 -1.01186 -1.74252 0
M  V30 115 O 13.9749 -0.649371 -2.44007 0
M  V30 116 C 15.2879 -2.99927 -0.215407 0
M  V30 117 C 16.8359 -3.11656 -0.289725 0
M  V30 118 C 17.3109 -4.57621 -0.18634 0
M  V30 119 N 18.8019 -4.62557 -0.243978 0
M  V30 120 C 19.5369 -5.73094 -0.18745 0
M  V30 121 N 19.0329 -6.92753 -0.0810331 0
M  V30 122 N 20.8259 -5.61588 -0.239925 0
M  V30 123 H 12.9769 -1.91411 0.92062 0
M  V30 124 H 15.2399 -0.879562 0.353659 0
M  V30 125 H 14.9459 -3.43729 0.744512 0
M  V30 126 H 14.8199 -3.63865 -0.994097 0
M  V30 127 H 17.2069 -2.67779 -1.24009 0
M  V30 128 H 17.2879 -2.5048 0.51898 0
M  V30 129 H 16.9319 -5.02174 0.760519 0
M  V30 130 H 16.8619 -5.16752 -1.01364 0
M  V30 131 H 19.3529 -3.76481 -0.327217 0
M  V30 132 H 19.6659 -7.72787 -0.0440241 0
M  V30 133 H 18.0109 -6.94984 -0.0465419 0
M  V30 134 H 21.2019 -4.66996 -0.321317 0
M  V30 135 H 21.3749 -6.47714 -0.192407 0
M  V30 136 N 14.781 0.264519 -1.55364 0
M  V30 137 C 15.711 1.33121 -1.91836 0
M  V30 138 C 16.692 1.51101 -0.781192 0
M  V30 139 O 17.877 1.64003 -1.04003 0
M  V30 140 C 15.007 2.68921 -2.19769 0
M  V30 141 C 13.961 2.65661 -3.35571 0
M  V30 142 C 13.287 4.05093 -3.49004 0
M  V30 143 C 14.587 2.24187 -4.71739 0
M  V30 144 H 16.281 1.02844 -2.81182 0
M  V30 145 H 13.827 0.493286 -1.35287 0
M  V30 146 H 15.78 3.43663 -2.43872 0
M  V30 147 H 14.504 3.00799 -1.27231 0
M  V30 148 H 13.163 1.93377 -3.1145 0
M  V30 149 H 12.811 4.34206 -2.53917 0
M  V30 150 H 12.511 4.03804 -4.26868 0
M  V30 151 H 14.035 4.81561 -3.75408 0
M  V30 152 H 15.449 2.88654 -4.9533 0
M  V30 153 H 13.846 2.34044 -5.52579 0
M  V30 154 H 14.916 1.19327 -4.69988 0
M  V30 155 N 16.2591 1.48442 0.529413 0
M  V30 156 C 17.1891 1.65902 1.64313 0
M  V30 157 C 18.1701 0.507897 1.6234 0
M  V30 158 O 19.3551 0.740503 1.79528 0
M  V30 159 C 16.4851 1.69911 3.02898 0
M  V30 160 C 15.4391 2.8453 3.19729 0
M  V30 161 C 14.7651 2.73629 4.59381 0
M  V30 162 C 16.0651 4.25821 3.02447 0
M  V30 163 H 17.7591 2.5914 1.49955 0
M  V30 164 H 15.3051 1.24709 0.719982 0
M  V30 165 H 17.2581 1.80715 3.80684 0
M  V30 166 H 15.9821 0.732524 3.18279 0
M  V30 167 H 14.6411 2.73283 2.44361 0
M  V30 168 H 14.2891 1.74938 4.71599 0
M  V30 169 H 13.9891 3.50541 4.71588 0
M  V30 170 H 15.5131 2.86401 5.39265 0
M  V30 171 H 16.9271 4.37898 3.70024 0
M  V30 172 H 15.3241 5.03735 3.26146 0
M  V30 173 H 16.3941 4.42244 1.98867 0
M  V30 174 N 17.7372 -0.778329 1.37039 0
M  V30 175 C 19.1482 -1.35421 1.28523 0
M  V30 176 C 19.4992 -1.96075 -0.0700901 0
M  V30 177 O 18.6242 -1.93352 -0.971801 0
M  V30 178 C 19.2192 -2.46211 2.32735 0
M  V30 179 C 17.7782 -2.99585 2.27873 0
M  V30 180 C 16.9252 -1.72748 2.16918 0
M  V30 181 H 19.8762 -0.5791 1.47757 0
M  V30 182 H 19.8972 -3.2552 1.9702 0
M  V30 183 H 19.4092 -2.02036 3.31365 0
M  V30 184 H 17.5102 -3.48152 1.32745 0
M  V30 185 H 17.6232 -3.55646 3.21018 0
M  V30 186 H 15.9872 -1.95416 1.63354 0
M  V30 187 H 16.7702 -1.30686 3.17452 0
M  V30 188 N 19.2153 -1.21501 -1.00376 0
M  V30 189 C 20.6263 -1.03146 -1.55621 0
M  V30 190 C 20.9773 0.408375 -1.91903 0
M  V30 191 O 20.1023 1.29177 -1.73616 0
M  V30 192 C 20.6973 -1.86612 -2.82775 0
M  V30 193 C 19.2563 -1.72586 -3.34501 0
M  V30 194 C 18.4033 -1.83747 -2.07683 0
M  V30 195 H 21.3543 -1.35505 -0.826081 0
M  V30 196 H 21.3753 -1.3771 -3.54706 0
M  V30 197 H 20.8873 -2.91399 -2.56336 0
M  V30 198 H 18.9883 -0.704877 -3.65872 0
M  V30 199 H 19.1013 -2.54623 -4.05837 0
M  V30 200 H 17.4653 -1.27069 -2.20739 0
M  V30 201 H 18.2483 -2.90044 -1.83655 0
M  V30 202 N 20.6934 1.19889 -1.02296 0
M  V30 203 C 21.6234 2.25141 -0.619174 0
M  V30 204 C 22.6044 1.66051 0.368915 0
M  V30 205 O 23.7894 1.92546 0.252941 0
M  V30 206 C 20.9194 3.4728 0.0368783 0
M  V30 207 C 19.8734 4.19005 -0.872865 0
M  V30 208 C 19.1994 5.34637 -0.0822402 0
M  V30 209 C 20.4994 4.74452 -2.18387 0
M  V30 210 H 22.1934 2.59171 -1.49903 0
M  V30 211 H 19.7394 1.24579 -0.722222 0
M  V30 212 H 21.6924 4.20098 0.330958 0
M  V30 213 H 20.4164 3.12433 0.95149 0
M  V30 214 H 19.0754 3.48061 -1.15105 0
M  V30 215 H 18.7234 4.96034 0.83422 0
M  V30 216 H 18.4234 5.83557 -0.688149 0
M  V30 217 H 19.9474 6.10255 0.205238 0
M  V30 218 H 21.3614 5.39055 -1.95172 0
M  V30 219 H 19.7584 5.33834 -2.74119 0
M  V30 220 H 20.8284 3.92844 -2.84257 0
M  V30 221 N 22.1715 0.800033 1.35784 0
M  V30 222 C 23.1015 0.220184 2.3246 0
M  V30 223 C 24.0825 -0.65073 1.57161 0
M  V30 224 O 25.2675 -0.582359 1.85263 0
M  V30 225 C 22.3975 -0.637353 3.41402 0
M  V30 226 C 21.3515 0.134531 4.27789 0
M  V30 227 C 20.6775 -0.844285 5.27992 0
M  V30 228 C 21.9775 1.32979 5.05088 0
M  V30 229 H 23.6715 1.02787 2.81203 0
M  V30 230 H 21.2175 0.495717 1.35199 0
M  V30 231 H 23.1705 -1.05302 4.08031 0
M  V30 232 H 21.8945 -1.47785 2.91251 0
M  V30 233 H 20.5535 0.531296 3.6273 0
M  V30 234 H 20.2015 -1.68011 4.74111 0
M  V30 235 H 19.9015 -0.332184 5.8666 0
M  V30 236 H 21.4255 -1.2583 5.97494 0
M  V30 237 H 22.8395 0.98934 5.64699 0
M  V30 238 H 21.2365 1.77593 5.7322 0
M  V30 239 H 22.3065 2.11978 4.36111 0
M  V30 240 N 23.6496 -1.47581 0.552962 0
M  V30 241 C 24.5796 -2.32762 -0.185451 0
M  V30 242 C 25.5606 -1.43527 -0.912905 0
M  V30 243 O 26.7456 -1.72388 -0.894201 0
M  V30 244 C 23.8756 -3.25219 -1.21859 0
M  V30 245 C 22.8296 -4.23661 -0.607864 0
M  V30 246 C 22.1556 -5.05413 -1.74533 0
M  V30 247 C 23.4556 -5.20481 0.435582 0
M  V30 248 H 25.1496 -2.94749 0.525684 0
M  V30 249 H 22.6956 -1.41738 0.254251 0
M  V30 250 H 24.6486 -3.8365 -1.7433 0
M  V30 251 H 23.3726 -2.61279 -1.95961 0
M  V30 252 H 22.0316 -3.66451 -0.104489 0
M  V30 253 H 21.6796 -4.3788 -2.47529 0
M  V30 254 H 21.3796 -5.72059 -1.34249 0
M  V30 255 H 22.9036 -5.66701 -2.27338 0
M  V30 256 H 24.3176 -5.733 -0.00290157 0
M  V30 257 H 22.7146 -5.95305 0.757067 0
M  V30 258 H 23.7846 -4.66217 1.33303 0
M  V30 259 N 25.1277 -0.289203 -1.54924 0
M  V30 260 C 26.0577 0.58549 -2.2604 0
M  V30 261 C 27.0387 1.14753 -1.25562 0
M  V30 262 O 28.2237 1.17906 -1.54311 0
M  V30 263 C 25.3537 1.76305 -2.99222 0
M  V30 264 C 24.3077 1.33191 -4.06748 0
M  V30 265 C 23.6337 2.5937 -4.6758 0
M  V30 266 C 24.9337 0.471775 -5.20165 0
M  V30 267 H 26.6277 -0.00763532 -2.99399 0
M  V30 268 H 24.1737 -0.00511229 -1.43999 0
M  V30 269 H 26.1267 2.38097 -3.47689 0
M  V30 270 H 24.8507 2.38223 -2.23422 0
M  V30 271 H 23.5097 0.737121 -3.59113 0
M  V30 272 H 23.1577 3.19576 -3.88433 0
M  V30 273 H 22.8577 2.31228 -5.40192 0
M  V30 274 H 24.3817 3.21985 -5.18804 0
M  V30 275 H 25.7957 0.995056 -5.64599 0
M  V30 276 H 24.1927 0.284639 -5.99425 0
M  V30 277 H 25.2627 -0.506041 -4.82252 0
M  V30 278 N 26.6058 1.57591 -0.0167156 0
M  V30 279 C 27.5358 2.12496 0.967858 0
M  V30 280 C 28.5168 1.03807 1.34752 0
M  V30 281 O 29.7018 1.31577 1.42833 0
M  V30 282 C 26.8318 2.64194 2.25431 0
M  V30 283 C 25.7858 3.77559 2.01576 0
M  V30 284 C 25.1118 4.15636 3.36379 0
M  V30 285 C 26.4118 5.04151 1.36489 0
M  V30 286 H 28.1058 2.95013 0.510643 0
M  V30 287 H 25.6518 1.41915 0.244181 0
M  V30 288 H 27.6048 3.01236 2.94678 0
M  V30 289 H 26.3288 1.78821 2.73296 0
M  V30 290 H 24.9878 3.40937 1.34751 0
M  V30 291 H 24.6358 3.27263 3.81979 0
M  V30 292 H 24.3358 4.92022 3.21229 0
M  V30 293 H 25.8598 4.5525 4.06915 0
M  V30 294 H 27.2738 5.38857 1.95718 0
M  V30 295 H 25.6708 5.85453 1.31776 0
M  V30 296 H 26.7408 4.83733 0.336219 0
M  V30 297 N 28.0839 -0.256276 1.55502 0
M  V30 298 C 29.3319 -0.983672 1.76545 0
M  V30 299 C 29.6529 -1.86206 0.578982 0
M  V30 300 O 28.9229 -1.91656 -0.405577 0
M  V30 301 H 27.5029 -0.366191 0.651086 0
M  V30 302 H 30.1649 -0.276479 1.92929 0
M  V30 303 H 29.2609 -1.61087 2.67315 0
M  V30 304 N 29.562 -1.4872 -0.521534 0
M  V30 305 C 30.79 -1.60843 -1.30142 0
M  V30 306 C 31.205 -0.271897 -1.86832 0
M  V30 307 O 30.562 0.739969 -1.66825 0
M  V30 308 C 30.613 -2.66155 -2.4463 0
M  V30 309 O 30.334 -3.94623 -1.90275 0
M  V30 310 C 31.835 -2.88795 -3.36322 0
M  V30 311 H 29.055 -0.542075 -0.395468 0
M  V30 312 H 31.599 -1.94609 -0.628285 0
M  V30 313 H 29.754 -2.35224 -3.07812 0
M  V30 314 H 30.168 -4.52468 -2.65279 0
M  V30 315 H 31.642 -3.66264 -4.12983 0
M  V30 316 H 32.119 -1.97934 -3.9207 0
M  V30 317 H 32.725 -3.21063 -2.78924 0
M  V30 318 N 31.0401 0.771051 -1.3745 0
M  V30 319 C 32.2881 1.52661 -1.32435 0
M  V30 320 C 32.6091 1.9479 0.0905024 0
M  V30 321 O 31.8791 1.66348 1.03466 0
M  V30 322 H 30.4591 0.566218 -0.487244 0
M  V30 323 H 33.1211 0.917636 -1.71946 0
M  V30 324 H 32.2171 2.42568 -1.96385 0
M  V30 325 N 32.5182 1.22032 0.997298 0
M  V30 326 C 33.4482 1.01065 2.10495 0
M  V30 327 C 34.4292 -0.0669542 1.69968 0
M  V30 328 O 35.6142 0.0943987 1.9397 0
M  V30 329 C 32.7442 0.582874 3.42374 0
M  V30 330 C 31.6982 1.60592 3.96729 0
M  V30 331 C 31.0242 1.03412 5.24605 0
M  V30 332 C 32.3242 2.99478 4.27914 0
M  V30 333 H 34.0182 1.93708 2.28292 0
M  V30 334 H 31.5642 0.932761 1.09707 0
M  V30 335 H 33.5172 0.423332 4.19268 0
M  V30 336 H 32.2412 -0.379213 3.24391 0
M  V30 337 H 30.9002 1.75316 3.21963 0
M  V30 338 H 30.5482 0.063518 5.0296 0
M  V30 339 H 30.2482 1.71754 5.61938 0
M  V30 340 H 31.7722 0.886066 6.04137 0
M  V30 341 H 33.1862 2.88153 4.95622 0
M  V30 342 H 31.5832 3.64903 4.76409 0
M  V30 343 H 32.6532 3.49742 3.3587 0
M  V30 344 N 33.9963 -1.19345 1.0293 0
M  V30 345 C 34.9263 -2.2481 0.631105 0
M  V30 346 C 35.9073 -1.66245 -0.360104 0
M  V30 347 O 37.0923 -1.92677 -0.242726 0
M  V30 348 C 34.2223 -3.47295 -0.0184607 0
M  V30 349 C 33.1763 -4.18536 0.895073 0
M  V30 350 C 32.5023 -5.34586 0.110592 0
M  V30 351 C 33.8023 -4.73287 2.209 0
M  V30 352 H 35.4963 -2.58372 1.51275 0
M  V30 353 H 33.0423 -1.24194 0.728818 0
M  V30 354 H 34.9953 -4.20268 -0.308675 0
M  V30 355 H 33.7193 -3.12933 -0.934907 0
M  V30 356 H 32.3783 -3.47446 1.16949 0
M  V30 357 H 32.0263 -4.96469 -0.807902 0
M  V30 358 H 31.7263 -5.83183 0.719087 0
M  V30 359 H 33.2503 -6.10355 -0.172871 0
M  V30 360 H 34.6643 -5.38013 1.98028 0
M  V30 361 H 33.0613 -5.32373 2.76946 0
M  V30 362 H 34.1313 -3.91331 2.86336 0
M  V30 363 N 35.4744 -0.807222 -1.35358 0
M  V30 364 C 36.8904 -0.491038 -1.51858 0
M  V30 365 C 37.0904 0.987648 -1.75635 0
M  V30 366 O 36.1464 1.77265 -1.79815 0
M  V30 367 C 37.4594 -1.33695 -2.69344 0
M  V30 368 C 39.0074 -1.33246 -2.83222 0
M  V30 369 C 39.4824 -2.1625 -4.03733 0
M  V30 370 N 40.9734 -2.1379 -4.10911 0
M  V30 371 C 41.7084 -2.74772 -5.03277 0
M  V30 372 N 41.2044 -3.44684 -6.0097 0
M  V30 373 N 42.9974 -2.6441 -4.96028 0
M  V30 374 H 35.1484 -1.76485 -1.18181 0
M  V30 375 H 37.4114 -0.751199 -0.578276 0
M  V30 376 H 37.1174 -2.38634 -2.58354 0
M  V30 377 H 36.9914 -0.990618 -3.6396 0
M  V30 378 H 39.3784 -0.290911 -2.93663 0
M  V30 379 H 39.4594 -1.71866 -1.89461 0
M  V30 380 H 39.1034 -3.20445 -3.94052 0
M  V30 381 H 39.0334 -1.74989 -4.96675 0
M  V30 382 H 41.5244 -1.62923 -3.40976 0
M  V30 383 H 41.8374 -3.88501 -6.68047 0
M  V30 384 H 40.1824 -3.48788 -6.01142 0
M  V30 385 H 43.3734 -2.0938 -4.18662 0
M  V30 386 H 43.5464 -3.12225 -5.6782 0
M  V30 387 N 36.9525 1.47285 -0.560781 0
M  V30 388 C 37.9155 2.28535 0.174488 0
M  V30 389 C 38.9155 1.37153 0.839388 0
M  V30 390 O 40.1055 1.59748 0.694702 0
M  V30 391 C 37.2375 3.16934 1.25561 0
M  V30 392 H 38.4305 2.95012 -0.539262 0
M  V30 393 H 35.9835 1.53034 -0.317865 0
M  V30 394 H 36.7185 2.55157 2.00164 0
M  V30 395 H 36.5035 3.8419 0.783604 0
M  V30 396 H 37.9935 3.78143 1.77193 0
M  V30 397 N 38.4306 0.297415 1.54768 0
M  V30 398 C 39.6556 -0.318435 2.04941 0
M  V30 399 C 40.0806 -1.4701 1.17345 0
M  V30 400 O 39.4386 -1.80436 0.176758 0
M  V30 401 C 39.4866 -0.755749 3.52592 0
M  V30 402 O 38.5906 -1.86088 3.68028 0
M  V30 403 H 37.9316 -0.062421 0.661059 0
M  V30 404 H 40.4616 0.438215 1.99852 0
M  V30 405 H 40.4716 -1.04552 3.94376 0
M  V30 406 H 39.1466 0.0867233 4.1581 0
M  V30 407 H 37.7236 -1.57193 3.38149 0
M  V30 408 N 39.9087 -1.5758 0.0250728 0
M  V30 409 C 41.1337 -1.96337 -0.668317 0
M  V30 410 C 41.5587 -0.901314 -1.651 0
M  V30 411 O 40.9167 0.138187 -1.80773 0
M  V30 412 C 40.9647 -3.34191 -1.35457 0
M  V30 413 O 40.0687 -3.30269 -2.46974 0
M  V30 414 H 39.4097 -0.640281 -0.175887 0
M  V30 415 H 41.9397 -2.0442 0.0857224 0
M  V30 416 H 41.9497 -3.70331 -1.71228 0
M  V30 417 H 40.6247 -4.11036 -0.634218 0
M  V30 418 H 39.2017 -3.05841 -2.13344 0
M  V30 419 N 41.3868 0.248026 -1.55636 0
M  V30 420 C 42.3368 1.30994 -1.86614 0
M  V30 421 C 43.3208 1.43543 -0.726918 0
M  V30 422 O 44.5128 1.46804 -0.988818 0
M  V30 423 C 41.6418 2.6656 -2.16335 0
M  V30 424 C 40.7278 2.58019 -3.36581 0
M  V30 425 N 41.1188 2.1911 -4.55878 0
M  V30 426 C 39.4168 2.89035 -3.39669 0
M  V30 427 C 40.1178 2.21174 -5.38012 0
M  V30 428 N 39.0938 2.60632 -4.77045 0
M  V30 429 H 42.8958 0.999583 -2.76379 0
M  V30 430 H 40.4098 0.456652 -1.55848 0
M  V30 431 H 42.4068 3.43194 -2.36692 0
M  V30 432 H 41.0668 2.98463 -1.27867 0
M  V30 433 H 42.0778 1.90672 -4.81523 0
M  V30 434 H 38.7548 3.25485 -2.61469 0
M  V30 435 H 40.1448 1.9344 -6.43452 0
M  V30 436 N 42.8649 1.48995 0.513639 0
M  V30 437 C 44.1109 1.58076 1.27042 0
M  V30 438 C 44.4439 0.261026 1.92438 0
M  V30 439 O 43.7189 -0.734393 1.80103 0
M  V30 440 C 44.0019 2.73091 2.34719 0
M  V30 441 C 43.8549 4.14821 1.73907 0
M  V30 442 C 45.1739 2.83796 3.36375 0
M  V30 443 H 42.2929 0.575391 0.460536 0
M  V30 444 H 44.9349 1.81232 0.570516 0
M  V30 445 H 43.0849 2.53479 2.94416 0
M  V30 446 H 44.7569 4.45917 1.18135 0
M  V30 447 H 42.9999 4.21058 1.0437 0
M  V30 448 H 43.6709 4.91147 2.51949 0
M  V30 449 H 46.1469 3.01611 2.86653 0
M  V30 450 H 45.0229 3.65971 4.09093 0
M  V30 451 H 45.2839 1.92624 3.9793 0
M  V30 452 N 44.343 -0.763751 1.37857 0
M  V30 453 C 45.253 -1.90817 1.36478 0
M  V30 454 C 46.269 -1.71997 0.263248 0
M  V30 455 O 47.445 -1.95095 0.499979 0
M  V30 456 C 44.51 -3.2605 1.17864 0
M  V30 457 C 43.571 -3.57467 2.3773 0
M  V30 458 C 42.804 -4.86249 2.19995 0
M  V30 459 O 43.027 -5.57884 1.18836 0
M  V30 460 O 41.961 -5.16911 3.08361 0
M  V30 461 H 45.787 -1.94933 2.32884 0
M  V30 462 H 43.372 -0.907619 1.1867 0
M  V30 463 H 45.254 -4.06924 1.09504 0
M  V30 464 H 43.929 -3.22769 0.245372 0
M  V30 465 H 42.836 -2.76796 2.51664 0
M  V30 466 H 44.169 -3.655 3.29652 0
M  V30 467 N 45.8211 -1.22559 -0.990812 0
M  V30 468 C 47.0491 -1.07779 -1.76611 0
M  V30 469 C 47.4641 0.371513 -1.85109 0
M  V30 470 O 46.8211 1.25737 -1.32274 0
M  V30 471 C 46.8721 -1.68512 -3.19822 0
M  V30 472 O 46.5931 -3.07774 -3.1178 0
M  V30 473 C 48.0941 -1.59035 -4.13791 0
M  V30 474 H 45.3141 -0.377729 -0.554583 0
M  V30 475 H 47.8581 -1.62195 -1.24551 0
M  V30 476 H 46.0131 -1.18154 -3.68942 0
M  V30 477 H 46.4271 -3.37062 -4.01858 0
M  V30 478 H 47.9011 -2.0625 -5.1202 0
M  V30 479 H 48.3781 -0.547273 -4.35777 0
M  V30 480 H 48.9841 -2.08709 -3.70568 0
M  V30 481 N 47.2992 1.18797 -1.03562 0
M  V30 482 C 48.7152 1.40671 -0.753917 0
M  V30 483 C 48.9152 1.9043 0.658686 0
M  V30 484 O 47.9712 2.08538 1.42366 0
M  V30 485 C 49.2842 2.41192 -1.79574 0
M  V30 486 C 50.8322 2.54928 -1.81606 0
M  V30 487 C 51.3072 3.58709 -2.84766 0
M  V30 488 N 52.7982 3.66212 -2.83625 0
M  V30 489 C 53.5332 4.46225 -3.60098 0
M  V30 490 N 53.0292 5.29888 -4.46308 0
M  V30 491 N 54.8222 4.40939 -3.4861 0
M  V30 492 H 46.9732 0.848221 -1.94728 0
M  V30 493 H 49.2362 0.435081 -0.842264 0
M  V30 494 H 48.9422 2.11669 -2.80872 0
M  V30 495 H 48.8162 3.40467 -1.62365 0
M  V30 496 H 51.2032 2.83771 -0.809817 0
M  V30 497 H 51.2842 1.55784 -2.02891 0
M  V30 498 H 50.9282 3.30607 -3.85566 0
M  V30 499 H 50.8582 4.57519 -2.60737 0
M  V30 500 H 53.3492 3.06466 -2.21105 0
M  V30 501 H 53.6622 5.88078 -5.01382 0
M  V30 502 H 52.0072 5.29326 -4.50377 0
M  V30 503 H 55.1982 3.74624 -2.80668 0
M  V30 504 H 55.3712 5.03056 -4.08459 0
M  V30 505 N 48.7773 0.814389 1.34928 0
M  V30 506 C 49.7403 0.235759 2.27984 0
M  V30 507 C 50.7403 -0.581412 1.49921 0
M  V30 508 O 51.9303 -0.398758 1.69575 0
M  V30 509 C 49.0623 -0.670433 3.34242 0
M  V30 510 H 50.2553 1.05659 2.80671 0
M  V30 511 H 47.8083 0.585614 1.44915 0
M  V30 512 H 48.5433 -1.51466 2.86755 0
M  V30 513 H 48.3283 -0.0860822 3.92005 0
M  V30 514 H 49.8183 -1.06935 4.03676 0
M  V30 515 N 50.2554 -1.46986 0.568584 0
M  V30 516 C 51.2054 -2.27179 -0.193339 0
M  V30 517 C 52.1894 -1.35035 -0.874895 0
M  V30 518 O 53.3814 -1.5931 -0.771322 0
M  V30 519 C 50.5104 -3.21063 -1.21546 0
M  V30 520 C 49.5964 -4.2069 -0.536738 0
M  V30 521 N 49.9874 -5.04218 0.399673 0
M  V30 522 C 48.2854 -4.38961 -0.789254 0
M  V30 523 C 48.9864 -5.76242 0.795017 0
M  V30 524 N 47.9624 -5.434 0.1473 0
M  V30 525 H 51.7644 -2.89146 0.526458 0
M  V30 526 H 49.2784 -1.57664 0.389342 0
M  V30 527 H 51.2754 -3.77209 -1.77536 0
M  V30 528 H 49.9354 -2.60654 -1.93623 0
M  V30 529 H 50.9464 -5.12077 0.774454 0
M  V30 530 H 47.6234 -3.89713 -1.49767 0
M  V30 531 H 49.0134 -6.53417 1.56513 0
M  V30 532 N 51.7335 -0.305618 -1.54608 0
M  V30 533 C 52.6965 0.555591 -2.22364 0
M  V30 534 C 53.6965 1.05768 -1.21119 0
M  V30 535 O 54.8865 0.952972 -1.45822 0
M  V30 536 C 52.0185 1.76974 -2.91364 0
M  V30 537 H 53.2115 -0.0364572 -2.99878 0
M  V30 538 H 50.7645 -0.0565007 -1.56198 0
M  V30 539 H 51.4995 2.40151 -2.17941 0
M  V30 540 H 51.2845 1.41732 -3.65588 0
M  V30 541 H 52.7745 2.38148 -3.43038 0
M  V30 542 N 53.2116 1.57565 -0.0334293 0
M  V30 543 C 54.1216 2.13943 0.962572 0
M  V30 544 C 55.1376 1.09276 1.35406 0
M  V30 545 O 56.3136 1.41355 1.4346 0
M  V30 546 C 53.3786 2.65887 2.22497 0
M  V30 547 C 52.4396 3.85286 1.8935 0
M  V30 548 C 51.6726 4.34743 3.09571 0
M  V30 549 O 51.8956 3.83352 4.22371 0
M  V30 550 O 50.8296 5.26538 2.91618 0
M  V30 551 H 54.6556 2.99333 0.513169 0
M  V30 552 H 52.2406 1.4822 0.18743 0
M  V30 553 H 54.1226 2.99346 2.96598 0
M  V30 554 H 52.7976 1.83578 2.6661 0
M  V30 555 H 51.7046 3.56746 1.1262 0
M  V30 556 H 53.0376 4.68771 1.5005 0
M  V30 557 N 54.6897 -0.239769 1.55765 0
M  V30 558 C 55.5997 -1.31831 1.94056 0
M  V30 559 C 56.6157 -1.52275 0.841925 0
M  V30 560 O 57.7917 -1.65759 1.14394 0
M  V30 561 C 54.8567 -2.65156 2.23368 0
M  V30 562 C 53.9177 -2.53173 3.46701 0
M  V30 563 C 53.1507 -3.8014 3.74606 0
M  V30 564 O 53.3737 -4.82343 3.04469 0
M  V30 565 O 52.3077 -3.78344 4.68123 0
M  V30 566 H 56.1337 -1.02347 2.85935 0
M  V30 567 H 53.7187 -0.441123 1.42739 0
M  V30 568 H 55.6007 -3.43929 2.43497 0
M  V30 569 H 54.2757 -2.94358 1.34666 0
M  V30 570 H 53.1827 -1.72662 3.31871 0
M  V30 571 H 54.5157 -2.28915 4.35728 0
M  V30 572 N 56.1678 -1.49265 -0.50573 0
M  V30 573 C 57.5838 -1.35923 -0.836486 0
M  V30 574 C 57.7838 -0.388704 -1.97715 0
M  V30 575 O 56.8398 0.181336 -2.51848 0
M  V30 576 C 58.1528 -2.76531 -1.18115 0
M  V30 577 C 59.7008 -2.85197 -1.28964 0
M  V30 578 C 60.1758 -4.26561 -1.66761 0
M  V30 579 N 61.6668 -4.2935 -1.73819 0
M  V30 580 C 62.4018 -5.35693 -2.045 0
M  V30 581 N 61.8978 -6.52287 -2.33438 0
M  V30 582 N 63.6908 -5.23105 -2.05711 0
M  V30 583 H 55.8418 -2.10965 0.246519 0
M  V30 584 H 58.1048 -0.9468 0.0476887 0
M  V30 585 H 57.8108 -3.49226 -0.416398 0
M  V30 586 H 57.6848 -3.11599 -2.1257 0
M  V30 587 H 60.0718 -2.12742 -2.04511 0
M  V30 588 H 60.1528 -2.53718 -0.325704 0
M  V30 589 H 59.7968 -4.99541 -0.917656 0
M  V30 590 H 59.7268 -4.55502 -2.64246 0
M  V30 591 H 62.2178 -3.4526 -1.53635 0
M  V30 592 H 62.5308 -7.29158 -2.56024 0
M  V30 593 H 60.8758 -6.55521 -2.30905 0
M  V30 594 H 64.0668 -4.31026 -1.82577 0
M  V30 595 H 64.2398 -6.06078 -2.29289 0
M  V30 596 N 57.6459 0.756429 -1.3826 0
M  V30 597 C 58.5759 1.88374 -1.37976 0
M  V30 598 C 59.5569 1.68311 -0.246082 0
M  V30 599 O 60.7419 1.88944 -0.44874 0
M  V30 600 C 57.8719 3.25864 -1.20125 0
M  V30 601 C 56.8259 3.60523 -2.30666 0
M  V30 602 C 56.1519 4.9672 -1.97923 0
M  V30 603 C 57.4519 3.65692 -3.72916 0
M  V30 604 H 59.1459 1.88869 -2.32312 0
M  V30 605 H 56.6919 0.907272 -1.11824 0
M  V30 606 H 58.6449 4.0438 -1.18552 0
M  V30 607 H 57.3689 3.25841 -0.222498 0
M  V30 608 H 56.0279 2.84324 -2.3142 0
M  V30 609 H 55.6759 4.93253 -0.985393 0
M  V30 610 H 55.3759 5.20878 -2.71955 0
M  V30 611 H 56.8999 5.77618 -1.97964 0
M  V30 612 H 58.3139 4.34328 -3.74208 0
M  V30 613 H 56.7109 4.01358 -4.4613 0
M  V30 614 H 57.7809 2.65987 -4.05436 0
M  V30 615 N 59.124 1.23083 0.984299 0
M  V30 616 C 60.054 1.03292 2.09411 0
M  V30 617 C 61.035 -0.048923 1.7003 0
M  V30 618 O 62.22 0.114967 1.93859 0
M  V30 619 C 59.35 0.619155 3.41736 0
M  V30 620 C 58.304 1.64791 3.95004 0
M  V30 621 C 57.63 1.0897 5.23478 0
M  V30 622 C 58.93 3.03999 4.24714 0
M  V30 623 H 60.624 1.96119 2.26225 0
M  V30 624 H 58.17 0.944344 1.08711 0
M  V30 625 H 60.123 0.467777 4.18796 0
M  V30 626 H 58.847 -0.344786 3.24775 0
M  V30 627 H 57.506 1.78721 3.20085 0
M  V30 628 H 57.154 0.11686 5.02864 0
M  V30 629 H 56.854 1.77704 5.60085 0
M  V30 630 H 58.378 0.950093 6.03163 0
M  V30 631 H 59.792 2.93393 4.92538 0
M  V30 632 H 58.189 3.69936 4.72512 0
M  V30 633 H 59.259 3.53285 3.32142 0
M  V30 634 N 60.6021 -1.18246 1.0419 0
M  V30 635 C 61.5491 -2.2192 0.634037 0
M  V30 636 C 62.5191 -1.62179 -0.358765 0
M  V30 637 O 63.7041 -1.89122 -0.252466 0
M  V30 638 C 60.8441 -3.451 0.00445535 0
M  V30 639 C 59.9571 -4.19174 1.04487 0
M  V30 640 C 59.0921 -5.29813 0.383676 0
M  V30 641 C 58.1311 -5.9566 1.4091 0
M  V30 642 N 57.2681 -6.97834 0.772784 0
M  V30 643 H 62.1081 -2.56164 1.52263 0
M  V30 644 H 59.6451 -1.25843 0.761701 0
M  V30 645 H 61.6031 -4.15485 -0.377919 0
M  V30 646 H 60.2331 -3.11472 -0.847652 0
M  V30 647 H 59.2851 -3.47604 1.54518 0
M  V30 648 H 60.5971 -4.64267 1.82368 0
M  V30 649 H 59.7511 -6.06677 -0.0528366 0
M  V30 650 H 58.4901 -4.85825 -0.427208 0
M  V30 651 H 57.4951 -5.17535 1.85574 0
M  V30 652 H 58.7201 -6.4173 2.22171 0
M  V30 653 H 56.6661 -6.55998 -0.0177708 0
M  V30 654 H 56.5831 -7.41186 1.48928 0
M  V30 655 H 57.8511 -7.78665 0.36071 0
M  V30 656 N 62.0802 -0.821533 -1.34494 0
M  V30 657 C 63.0272 -0.240397 -2.29545 0
M  V30 658 C 63.9972 0.634031 -1.53523 0
M  V30 659 O 65.1822 0.575966 -1.81899 0
M  V30 660 C 62.3222 0.592869 -3.39969 0
M  V30 661 C 61.4352 -0.30365 -4.30932 0
M  V30 662 C 60.5702 0.539049 -5.28458 0
M  V30 663 C 59.6092 -0.356942 -6.11058 0
M  V30 664 N 58.7462 0.446603 -7.00678 0
M  V30 665 H 63.5862 -1.05632 -2.7865 0
M  V30 666 H 61.1232 -0.532413 -1.37127 0
M  V30 667 H 63.0812 1.09129 -4.02675 0
M  V30 668 H 61.7112 1.37392 -2.92102 0
M  V30 669 H 60.7632 -0.920276 -3.691 0
M  V30 670 H 62.0752 -0.992661 -4.88823 0
M  V30 671 H 61.2292 1.102 -5.96608 0
M  V30 672 H 59.9682 1.26157 -4.71101 0
M  V30 673 H 58.9732 -0.932047 -5.41842 0
M  V30 674 H 60.1982 -1.07755 -6.70497 0
M  V30 675 H 58.1442 1.15282 -6.45791 0
M  V30 676 H 58.0612 -0.184048 -7.55776 0
M  V30 677 H 59.3292 0.992352 -7.73158 0
M  V30 678 N 63.5583 1.46682 -0.576371 0
M  V30 679 C 64.4883 2.33028 0.148397 0
M  V30 680 C 65.4693 1.44961 0.889956 0
M  V30 681 O 66.6543 1.73789 0.866662 0
M  V30 682 C 63.7843 3.27117 1.1667 0
M  V30 683 C 62.7383 4.24575 0.540386 0
M  V30 684 C 62.0643 5.08126 1.6647 0
M  V30 685 C 63.3643 5.19722 -0.518331 0
M  V30 686 H 65.0583 2.93875 -0.572509 0
M  V30 687 H 62.6043 1.41315 -0.276768 0
M  V30 688 H 64.5573 3.86374 1.68204 0
M  V30 689 H 63.2813 2.64364 1.9178 0
M  V30 690 H 61.9403 3.66571 0.0461769 0
M  V30 691 H 61.5883 4.41762 2.40531 0
M  V30 692 H 61.2883 5.74122 1.25131 0
M  V30 693 H 62.8123 5.70246 2.18293 0
M  V30 694 H 64.2263 5.73232 -0.0883058 0
M  V30 695 H 62.6233 5.94026 -0.851679 0
M  V30 696 H 63.6933 4.64037 -1.40703 0
M  V30 697 N 65.0364 0.313813 1.54444 0
M  V30 698 C 66.2834 -0.291675 2.00388 0
M  V30 699 C 66.6114 -1.52904 1.2021 0
M  V30 700 O 65.8664 -1.93833 0.269707 0
M  V30 701 C 66.1654 -0.680386 3.50864 0
M  V30 702 C 65.8314 0.456699 4.48581 0
M  V30 703 C 64.4934 0.768824 4.75018 0
M  V30 704 C 66.8454 1.22098 5.06697 0
M  V30 705 C 64.1734 1.84812 5.56831 0
M  V30 706 C 66.5254 2.29029 5.89685 0
M  V30 707 C 65.1894 2.60834 6.14428 0
M  V30 708 H 64.4594 -0.106732 0.733273 0
M  V30 709 H 67.1064 0.43557 1.86481 0
M  V30 710 H 65.4114 -1.48791 3.62448 0
M  V30 711 H 67.1084 -1.16026 3.83847 0
M  V30 712 H 63.6984 0.203337 4.28117 0
M  V30 713 H 67.8824 0.993096 4.86263 0
M  V30 714 H 63.1384 2.09912 5.74236 0
M  V30 715 H 67.3124 2.887 6.33739 0
M  V30 716 H 64.9394 3.44596 6.77612 0
M  V30 717 N 66.5145 -1.57545 0.0417849 0
M  V30 718 C 67.7395 -1.97035 -0.647455 0
M  V30 719 C 68.1645 -0.918775 -1.64135 0
M  V30 720 O 67.5225 0.119006 -1.80909 0
M  V30 721 C 67.5705 -3.35609 -1.31905 0
M  V30 722 O 66.6745 -3.3287 -2.43457 0
M  V30 723 H 66.0155 -0.64211 -0.169086 0
M  V30 724 H 68.5455 -2.04318 0.107399 0
M  V30 725 H 68.5555 -3.72126 -1.67291 0
M  V30 726 H 67.2305 -4.11685 -0.590586 0
M  V30 727 H 65.8075 -3.08087 -2.10088 0
M  V30 728 N 67.9926 0.231505 -1.5589 0
M  V30 729 C 69.2406 0.955461 -1.78088 0
M  V30 730 C 69.5616 1.85262 -0.608533 0
M  V30 731 O 68.8316 1.92277 0.375035 0
M  V30 732 H 67.4116 0.355787 -0.656829 0
M  V30 733 H 70.0736 0.245751 -1.93344 0
M  V30 734 H 69.1696 1.56814 -2.69844 0
M  V30 735 N 69.4707 1.49531 0.497807 0
M  V30 736 C 70.7007 1.62657 1.27382 0
M  V30 737 C 71.1087 0.298488 1.86831 0
M  V30 738 O 70.4517 -0.72647 1.68725 0
M  V30 739 C 70.5137 2.6393 2.44093 0
M  V30 740 C 70.1777 4.08195 2.05489 0
M  V30 741 C 71.1747 4.949 1.59279 0
M  V30 742 C 68.8597 4.53948 2.15026 0
M  V30 743 C 70.8537 6.25397 1.23113 0
M  V30 744 C 68.5407 5.84458 1.78473 0
M  V30 745 C 69.5387 6.70006 1.32591 0
M  V30 746 O 69.2267 7.98083 0.965327 0
M  V30 747 H 68.9587 0.550429 0.392434 0
M  V30 748 H 71.5127 1.96325 0.603801 0
M  V30 749 H 69.7427 2.25449 3.14181 0
M  V30 750 H 71.4317 2.66552 3.06113 0
M  V30 751 H 72.1977 4.60779 1.51354 0
M  V30 752 H 68.0767 3.87525 2.4969 0
M  V30 753 H 71.6207 6.92125 0.872299 0
M  V30 754 H 67.5177 6.18107 1.86048 0
M  V30 755 H 68.2857 8.11122 1.09652 0
M  V30 756 N 70.9488 -0.749086 1.3866 0
M  V30 757 C 71.8968 -1.88428 1.36373 0
M  V30 758 C 72.8908 -1.67561 0.248929 0
M  V30 759 O 74.0968 -1.75074 0.41821 0
M  V30 760 H 70.4718 -0.620023 0.42553 0
M  V30 761 H 72.4428 -1.87473 2.32156 0
M  V30 762 C 71.1918 -3.25961 1.21014 0
M  V30 763 H 70.5148 -3.42607 2.06059 0
M  V30 764 H 71.9548 -4.05625 1.23469 0
M  V30 765 C 70.4138 -3.36799 -0.0825941 0
M  V30 766 O 70.9438 -3.87517 -1.05797 0
M  V30 767 N 69.1498 -2.90258 -0.140939 0
M  V30 768 H 68.6968 -2.49174 0.653477 0
M  V30 769 H 68.6548 -2.97889 -1.00545 0
M  V30 770 N 72.4269 -1.23603 -0.977757 0
M  V30 771 C 73.3739 -1.01954 -2.07061 0
M  V30 772 C 74.3439 0.0638697 -1.65977 0
M  V30 773 O 75.5289 -0.0887624 -1.90593 0
M  V30 774 C 72.6689 -0.619658 -3.39491 0
M  V30 775 C 71.7819 -1.77547 -3.93829 0
M  V30 776 C 70.9169 -1.32212 -5.14484 0
M  V30 777 C 69.9559 -2.44852 -5.60994 0
M  V30 778 N 69.0929 -2.00456 -6.72876 0
M  V30 779 H 73.9329 -1.95495 -2.24913 0
M  V30 780 H 71.4699 -0.973861 -1.10247 0
M  V30 781 H 73.4279 -0.368898 -4.15566 0
M  V30 782 H 72.0579 0.278752 -3.21594 0
M  V30 783 H 71.1099 -2.14016 -3.14486 0
M  V30 784 H 72.4219 -2.62219 -4.24314 0
M  V30 785 H 71.5759 -1.02965 -5.97899 0
M  V30 786 H 70.3149 -0.445808 -4.85658 0
M  V30 787 H 69.3199 -2.74871 -4.76157 0
M  V30 788 H 70.5449 -3.33024 -5.91837 0
M  V30 789 H 68.4909 -1.15208 -6.45804 0
M  V30 790 H 68.4079 -2.78687 -7.02759 0
M  V30 791 H 69.6759 -1.7432 -7.59758 0
M  V30 792 N 73.905 1.17692 -1.04816 0
M  V30 793 C 75.151 1.88389 -0.766892 0
M  V30 794 C 75.506 1.79282 0.698269 0
M  V30 795 O 74.799 1.18739 1.50372 0
M  V30 796 C 74.993 3.37462 -1.17703 0
M  V30 797 C 74.822 3.6108 -2.68051 0
M  V30 798 C 73.592 3.78018 -3.35307 0
M  V30 799 C 75.79 3.61039 -3.66273 0
M  V30 800 N 73.772 3.89444 -4.74559 0
M  V30 801 C 75.143 3.78269 -4.91235 0
M  V30 802 C 77.198 3.44168 -3.59796 0
M  V30 803 C 75.901 3.80376 -6.10497 0
M  V30 804 C 77.927 3.4756 -4.78493 0
M  V30 805 C 77.289 3.65295 -6.02278 0
M  V30 806 H 73.388 0.707651 -0.332798 0
M  V30 807 H 75.972 1.41314 -1.33934 0
M  V30 808 H 74.143 3.83214 -0.63257 0
M  V30 809 H 75.875 3.95759 -0.845989 0
M  V30 810 H 72.63 3.77714 -2.85708 0
M  V30 811 H 73.054 3.98962 -5.46954 0
M  V30 812 H 77.696 3.29396 -2.65062 0
M  V30 813 H 75.414 3.93933 -7.05579 0
M  V30 814 H 79 3.3577 -4.75131 0
M  V30 815 H 77.88 3.6782 -6.92588 0
M  V30 816 N 75.3831 0.828654 1.34056 0
M  V30 817 C 76.6081 0.431637 2.02859 0
M  V30 818 C 77.0331 -0.956339 1.61975 0
M  V30 819 O 76.3911 -1.62338 0.807228 0
M  V30 820 C 76.4391 0.548323 3.56407 0
M  V30 821 O 75.5431 -0.429556 4.10157 0
M  V30 822 H 74.8841 0.176886 0.640006 0
M  V30 823 H 77.4141 1.12066 1.71179 0
M  V30 824 H 77.4241 0.426196 4.05768 0
M  V30 825 H 76.0991 1.5606 3.8551 0
M  V30 826 H 74.6761 -0.265836 3.71951 0
M  V30 827 N 76.8612 -1.46375 0.584142 0
M  V30 828 C 78.2772 -1.57694 0.245929 0
M  V30 829 C 78.4772 -1.57903 -1.25175 0
M  V30 830 O 77.5332 -1.49676 -2.03355 0
M  V30 831 C 78.8462 -2.87028 0.896402 0
M  V30 832 C 80.3942 -3.00662 0.870127 0
M  V30 833 C 80.8692 -4.32734 1.50017 0
M  V30 834 N 82.3602 -4.39436 1.46458 0
M  V30 835 C 83.0952 -5.40248 1.92144 0
M  V30 836 N 82.5912 -6.47726 2.4581 0
M  V30 837 N 84.3842 -5.31459 1.83052 0
M  V30 838 H 76.5352 -1.44483 1.55687 0
M  V30 839 H 78.7982 -0.689291 0.650831 0
M  V30 840 H 78.5042 -2.9269 1.95002 0
M  V30 841 H 78.3782 -3.75014 0.405486 0
M  V30 842 H 80.7652 -2.94581 -0.174871 0
M  V30 843 H 80.8462 -2.14148 1.39908 0
M  V30 844 H 80.4902 -4.39573 2.54437 0
M  V30 845 H 80.4202 -5.18025 0.946432 0
M  V30 846 H 82.9112 -3.62367 1.07231 0
M  V30 847 H 83.2242 -7.20863 2.78525 0
M  V30 848 H 81.5692 -6.48542 2.49836 0
M  V30 849 H 84.7602 -4.46396 1.40883 0
M  V30 850 H 84.9332 -6.09881 2.18973 0
M  V30 851 N 78.3393 -0.321999 -1.54275 0
M  V30 852 C 79.7503 0.166384 -1.85957 0
M  V30 853 C 80.1013 1.51747 -1.24367 0
M  V30 854 O 79.2263 2.09317 -0.549124 0
M  V30 855 C 79.8213 0.308681 -3.37391 0
M  V30 856 C 78.3803 0.741286 -3.69028 0
M  V30 857 C 77.5273 -0.137937 -2.76957 0
M  V30 858 H 80.4783 -0.542335 -1.49146 0
M  V30 859 H 80.4993 1.13984 -3.63026 0
M  V30 860 H 80.0113 -0.674809 -3.82188 0
M  V30 861 H 78.1123 1.73458 -3.29762 0
M  V30 862 H 78.2253 0.546118 -4.75977 0
M  V30 863 H 76.5893 0.386251 -2.51754 0
M  V30 864 H 77.3723 -1.11816 -3.2458 0
M  V30 865 N 79.8174 1.5752 -0.0501392 0
M  V30 866 C 81.0634 1.92936 0.624798 0
M  V30 867 C 81.3964 0.928685 1.70555 0
M  V30 868 O 80.6714 -0.0454779 1.94447 0
M  V30 869 C 80.9544 3.38737 1.22185 0
M  V30 870 C 80.8074 4.49552 0.149218 0
M  V30 871 C 82.1264 3.84913 2.13378 0
M  V30 872 H 79.2454 0.701604 0.225657 0
M  V30 873 H 81.8874 1.89671 -0.111693 0
M  V30 874 H 80.0374 3.4165 1.84953 0
M  V30 875 H 81.7094 4.58768 -0.482648 0
M  V30 876 H 79.9524 4.30638 -0.522841 0
M  V30 877 H 80.6234 5.48653 0.606966 0
M  V30 878 H 83.0994 3.8387 1.60572 0
M  V30 879 H 81.9754 4.87584 2.52097 0
M  V30 880 H 82.2364 3.21611 3.03346 0
M  V30 881 N 81.2955 -0.223234 1.56011 0
M  V30 882 C 82.2585 -1.26014 1.9145 0
M  V30 883 C 83.2585 -1.3989 0.792937 0
M  V30 884 O 84.4485 -1.38184 1.0607 0
M  V30 885 C 81.5805 -2.63422 2.16383 0
M  V30 886 H 82.7735 -0.95796 2.84189 0
M  V30 887 H 80.3265 -0.463576 1.49267 0
M  V30 888 H 81.0615 -2.98741 1.2619 0
M  V30 889 H 80.8465 -2.54728 2.98088 0
M  V30 890 H 82.3365 -3.38249 2.44903 0
M  V30 891 N 82.7736 -1.49793 -0.48987 0
M  V30 892 C 83.7216 -1.67783 -1.61095 0
M  V30 893 C 84.7156 -0.543683 -1.60438 0
M  V30 894 O 85.9216 -0.723647 -1.64813 0
M  V30 895 H 82.2966 -0.529255 -0.534222 0
M  V30 896 H 84.2676 -2.61861 -1.43078 0
M  V30 897 C 83.0166 -1.77191 -2.99164 0
M  V30 898 H 82.3396 -2.63841 -3.0038 0
M  V30 899 H 83.7796 -1.93809 -3.77113 0
M  V30 900 C 82.2386 -0.519203 -3.32875 0
M  V30 901 O 82.7686 0.350124 -4.00171 0
M  V30 902 N 80.9746 -0.378816 -2.8812 0
M  V30 903 H 80.5216 -1.08725 -2.33531 0
M  V30 904 H 80.4796 0.458239 -3.11043 0
M  V30 905 N 84.2517 0.741722 -1.39055 0
M  V30 906 C 85.5007 1.49656 -1.35225 0
M  V30 907 C 85.8137 1.95533 0.0512708 0
M  V30 908 O 87.0197 2.7067 0.212138 0
M  V30 909 C 85.4757 2.70389 -2.37525 0
M  V30 910 C 85.0837 2.31489 -3.83558 0
M  V30 911 C 86.8277 3.48236 -2.42759 0
M  V30 912 C 84.7347 3.48903 -4.77515 0
M  V30 913 H 83.6647 0.56197 -0.502699 0
M  V30 914 H 86.3157 0.809727 -1.64668 0
M  V30 915 H 84.6977 3.41113 -2.01142 0
M  V30 916 H 85.8717 1.68354 -4.28945 0
M  V30 917 H 84.1867 1.66749 -3.81554 0
M  V30 918 H 86.7837 4.35558 -3.1015 0
M  V30 919 H 87.1267 3.90229 -1.45008 0
M  V30 920 H 87.6597 2.84535 -2.78002 0
M  V30 921 H 84.3987 3.11966 -5.76504 0
M  V30 922 H 83.9187 4.11041 -4.36813 0
M  V30 923 H 85.5977 4.15328 -4.96096 0
M  V30 924 N 85.7298 1.2412 0.971189 0
M  V30 925 C 86.9548 1.10667 1.75407 0
M  V30 926 C 87.3798 -0.337048 1.85056 0
M  V30 927 O 86.7378 -1.24396 1.31892 0
M  V30 928 C 86.7858 1.74726 3.15441 0
M  V30 929 O 85.8898 1.01566 3.99697 0
M  V30 930 H 85.2308 0.387341 0.539317 0
M  V30 931 H 87.7608 1.64358 1.2185 0
M  V30 932 H 87.7708 1.80341 3.6598 0
M  V30 933 H 86.4458 2.79773 3.07734 0
M  V30 934 H 85.0228 1.03713 3.58187 0
M  V30 935 N 87.2079 -1.17134 1.05439 0
M  V30 936 C 88.4849 -1.83411 0.679699 0
M  V30 937 C 88.8649 -1.9368 -0.839726 0
M  V30 938 O 88.2129 -1.47325 -1.74664 0
M  V30 939 C 88.4229 -3.20918 1.37159 0
M  V30 940 C 89.7709 -3.96796 1.51123 0
M  V30 941 O 90.7949 -3.30406 1.3308 0
M  V30 942 O 89.6539 -5.15778 1.80651 0
M  V30 943 H 86.7479 -0.79154 0.239569 0
M  V30 944 H 89.2939 -1.24411 1.15413 0
M  V30 945 H 88.0659 -3.08428 2.40807 0
M  V30 946 H 87.6889 -3.87587 0.886674 0
M  V30 947 N 88.686 -0.835752 -1.33615 0
M  V30 948 C 89.932 -0.430596 -1.98176 0
M  V30 949 C 90.265 1.00684 -1.66061 0
M  V30 950 O 89.54 1.70339 -0.938877 0
M  V30 951 C 89.823 -0.648065 -3.5422 0
M  V30 952 C 89.676 -2.13255 -3.96033 0
M  V30 953 C 90.995 -0.0922113 -4.40003 0
M  V30 954 H 88.114 -0.157924 -0.719881 0
M  V30 955 H 90.756 -1.05069 -1.58305 0
M  V30 956 H 88.906 -0.120237 -3.88314 0
M  V30 957 H 90.578 -2.725 -3.72211 0
M  V30 958 H 88.821 -2.61823 -3.45878 0
M  V30 959 H 89.492 -2.23547 -5.04708 0
M  V30 960 H 91.968 -0.543343 -4.12537 0
M  V30 961 H 90.844 -0.274083 -5.48215 0
M  V30 962 H 91.105 1.00378 -4.30554 0
M  V30 963 N 90.1641 1.46063 -0.591896 0
M  V30 964 C 91.4101 2.02638 -0.0811191 0
M  V30 965 C 91.7431 1.4613 1.27905 0
M  V30 966 O 91.0181 0.629908 1.84017 0
M  V30 967 C 91.3011 3.60091 -0.0252436 0
M  V30 968 C 91.1541 4.26965 -1.41496 0
M  V30 969 C 92.4731 4.3496 0.670685 0
M  V30 970 H 89.5921 0.73635 -0.0309524 0
M  V30 971 H 92.2341 1.741 -0.760859 0
M  V30 972 H 90.3841 3.84535 0.553624 0
M  V30 973 H 92.0561 4.13756 -2.0397 0
M  V30 974 H 90.2991 3.85971 -1.98011 0
M  V30 975 H 90.9701 5.35781 -1.32825 0
M  V30 976 H 93.4461 4.15716 0.178825 0
M  V30 977 H 92.3221 5.44686 0.678837 0
M  V30 978 H 92.5831 4.06685 1.73379 0
M  V30 979 N 91.6422 0.330177 1.54103 0
M  V30 980 C 92.5722 -0.525353 2.27513 0
M  V30 981 C 93.5532 -1.11383 1.2856 0
M  V30 982 O 94.7382 -1.13773 1.57383 0
M  V30 983 C 91.8682 -1.6831 3.03791 0
M  V30 984 C 90.8222 -1.2236 4.10137 0
M  V30 985 C 90.1482 -2.46882 4.74293 0
M  V30 986 C 91.4482 -0.333697 5.21233 0
M  V30 987 H 93.1422 0.087013 2.99274 0
M  V30 988 H 90.6882 0.0432893 1.43935 0
M  V30 989 H 92.6412 -2.28795 3.5388 0
M  V30 990 H 91.3652 -2.32216 2.29659 0
M  V30 991 H 90.0242 -0.64165 3.60941 0
M  V30 992 H 89.6722 -3.09165 3.96769 0
M  V30 993 H 89.3722 -2.16825 5.46133 0
M  V30 994 H 90.8962 -3.08117 5.27159 0
M  V30 995 H 92.3102 -0.845013 5.67038 0
M  V30 996 H 90.7072 -0.125612 5.99969 0
M  V30 997 H 91.7772 0.633724 4.80741 0
M  V30 998 N 93.1203 -1.57491 0.0584922 0
M  V30 999 C 94.3663 -1.93264 -0.614558 0
M  V30 1000 C 94.6993 -0.937717 -1.7006 0
M  V30 1001 O 93.9743 0.0351652 -1.94468 0
M  V30 1002 C 94.2573 -3.3938 -1.20386 0
M  V30 1003 C 94.1103 -4.49625 -0.125375 0
M  V30 1004 C 95.4293 -3.86039 -2.11334 0
M  V30 1005 H 92.5483 -0.702791 -0.221933 0
M  V30 1006 H 95.1903 -1.8961 0.12175 0
M  V30 1007 H 93.3403 -3.42626 -1.83139 0
M  V30 1008 H 95.0123 -4.58506 0.506971 0
M  V30 1009 H 93.2553 -4.30354 0.545672 0
M  V30 1010 H 93.9263 -5.48967 -0.577861 0
M  V30 1011 H 96.4023 -3.84716 -1.58534 0
M  V30 1012 H 95.2783 -4.88914 -2.49507 0
M  V30 1013 H 95.5393 -3.23215 -3.01636 0
M  V30 1014 N 94.5984 0.214957 -1.56127 0
M  V30 1015 C 96.0144 0.564948 -1.49267 0
M  V30 1016 C 96.2144 1.86827 -0.754838 0
M  V30 1017 O 95.2704 2.50745 -0.297198 0
M  V30 1018 C 96.5834 0.638071 -2.93852 0
M  V30 1019 C 98.1314 0.728253 -3.0441 0
M  V30 1020 C 98.6064 0.832663 -4.50367 0
M  V30 1021 N 100.097 0.896712 -4.54437 0
M  V30 1022 C 100.832 0.997324 -5.6466 0
M  V30 1023 N 100.328 1.06147 -6.8462 0
M  V30 1024 N 102.121 1.03297 -5.52527 0
M  V30 1025 H 94.2724 -0.640211 -2.02522 0
M  V30 1026 H 96.5354 -0.225507 -0.920788 0
M  V30 1027 H 96.2414 -0.250126 -3.50809 0
M  V30 1028 H 96.1154 1.49947 -3.46115 0
M  V30 1029 H 98.5024 1.60689 -2.47514 0
M  V30 1030 H 98.5834 -0.158952 -2.55306 0
M  V30 1031 H 98.2274 -0.0415417 -5.07883 0
M  V30 1032 H 98.1574 1.73538 -4.97184 0
M  V30 1033 H 100.648 0.857188 -3.6805 0
M  V30 1034 H 100.961 1.1382 -7.64372 0
M  V30 1035 H 99.3064 1.03049 -6.87318 0
M  V30 1036 H 102.497 0.979558 -4.57736 0
M  V30 1037 H 102.67 1.10793 -6.38458 0
M  V30 1038 N 96.0765 1.50051 0.48192 0
M  V30 1039 C 97.3235 1.60498 1.23477 0
M  V30 1040 C 97.6515 0.300331 1.92167 0
M  V30 1041 O 96.9065 -0.713094 1.82246 0
M  V30 1042 C 97.2055 2.72717 2.30998 0
M  V30 1043 C 96.8715 4.13572 1.79636 0
M  V30 1044 C 95.5335 4.519 1.65348 0
M  V30 1045 C 97.8855 5.01649 1.41412 0
M  V30 1046 C 95.2135 5.76057 1.11244 0
M  V30 1047 C 97.5655 6.26343 0.887538 0
M  V30 1048 C 96.2295 6.63483 0.731207 0
M  V30 1049 H 95.4995 0.587303 0.451836 0
M  V30 1050 H 98.1465 1.83948 0.532468 0
M  V30 1051 H 96.4515 2.43312 3.07094 0
M  V30 1052 H 98.1485 2.78006 2.88988 0
M  V30 1053 H 94.7385 3.83329 1.91721 0
M  V30 1054 H 98.9225 4.72679 1.51289 0
M  V30 1055 H 94.1785 6.03516 0.978686 0
M  V30 1056 H 98.3525 6.93958 0.582654 0
M  V30 1057 H 95.9795 7.59568 0.309806 0
M  V30 1058 N 97.5546 -0.734337 1.39446 0
M  V30 1059 C 98.8026 -1.49096 1.36436 0
M  V30 1060 C 99.1236 -1.94961 -0.0388255 0
M  V30 1061 O 98.3936 -1.69033 -0.990191 0
M  V30 1062 H 96.9736 -0.5531 0.502085 0
M  V30 1063 H 99.6356 -0.871725 1.74319 0
M  V30 1064 H 98.7316 -2.37276 2.02747 0
M  V30 1065 N 99.0327 -1.24633 -0.964593 0
M  V30 1066 C 99.9627 -1.06611 -2.07741 0
M  V30 1067 C 100.944 0.0218666 -1.70086 0
M  V30 1068 O 102.129 -0.145793 -1.93652 0
M  V30 1069 C 99.2587 -0.673444 -3.40708 0
M  V30 1070 C 98.2127 -1.71054 -3.92332 0
M  V30 1071 C 97.5387 -1.17285 -5.21678 0
M  V30 1072 C 98.8387 -3.10718 -4.19824 0
M  V30 1073 H 100.533 -1.99693 -2.23076 0
M  V30 1074 H 98.0787 -0.96152 -1.07195 0
M  V30 1075 H 100.032 -0.534345 -4.17998 0
M  V30 1076 H 98.7557 0.293073 -3.25282 0
M  V30 1077 H 97.4147 -1.83791 -3.17201 0
M  V30 1078 H 97.0627 -0.196847 -5.02615 0
M  V30 1079 H 96.7627 -1.86592 -5.57187 0
M  V30 1080 H 98.2867 -1.04593 -6.01575 0
M  V30 1081 H 99.7007 -3.01192 -4.87808 0
M  V30 1082 H 98.0977 -3.77406 -4.66567 0
M  V30 1083 H 99.1677 -3.58524 -3.26479 0
M  V30 1084 N 100.511 1.16574 -1.06058 0
M  V30 1085 C 101.736 1.91493 -0.796562 0
M  V30 1086 C 102.161 1.76773 0.642868 0
M  V30 1087 O 101.519 1.09142 1.44768 0
M  V30 1088 C 101.567 3.40293 -1.19303 0
M  V30 1089 O 100.671 4.11074 -0.330394 0
M  V30 1090 H 100.012 0.596678 -0.291326 0
M  V30 1091 H 102.542 1.47708 -1.41575 0
M  V30 1092 H 102.552 3.91057 -1.16356 0
M  V30 1093 H 101.227 3.50326 -2.24153 0
M  V30 1094 H 99.8038 3.70513 -0.421225 0
M  V30 1095 N 101.989 0.842826 1.3317 0
M  V30 1096 C 103.238 0.436738 1.96915 0
M  V30 1097 C 103.551 -1.01025 1.67491 0
M  V30 1098 O 104.757 -1.5212 2.24881 0
M  V30 1099 C 103.213 0.730021 3.52418 0
M  V30 1100 C 102.821 2.19195 3.90714 0
M  V30 1101 C 104.565 0.391076 4.22695 0
M  V30 1102 C 102.472 2.42907 5.39212 0
M  V30 1103 H 101.402 0.15958 0.736919 0
M  V30 1104 H 104.053 1.03196 1.51733 0
M  V30 1105 H 102.435 0.0643755 3.95948 0
M  V30 1106 H 103.609 2.8984 3.58231 0
M  V30 1107 H 101.924 2.49425 3.33431 0
M  V30 1108 H 104.521 0.545817 5.31907 0
M  V30 1109 H 104.864 -0.666294 4.10933 0
M  V30 1110 H 105.397 1.01212 3.84709 0
M  V30 1111 H 102.136 3.47224 5.55982 0
M  V30 1112 H 101.656 1.76827 5.73142 0
M  V30 1113 H 103.335 2.2626 6.06148 0
M  V30 1114 N 103.467 -1.45747 0.599634 0
M  V30 1115 C 104.43 -2.28917 -0.113835 0
M  V30 1116 C 105.43 -1.3933 -0.802729 0
M  V30 1117 O 106.62 -1.61534 -0.652103 0
M  V30 1118 C 103.752 -3.20152 -1.17114 0
M  V30 1119 H 104.945 -2.93478 0.617289 0
M  V30 1120 H 102.498 -1.52137 0.358327 0
M  V30 1121 H 103.233 -2.60374 -1.93329 0
M  V30 1122 H 103.018 -3.86133 -0.681468 0
M  V30 1123 H 104.508 -3.82708 -1.67105 0
M  V30 1124 N 104.945 -0.338344 -1.53925 0
M  V30 1125 C 105.877 0.555117 -2.22376 0
M  V30 1126 C 106.89 1.06812 -1.22862 0
M  V30 1127 O 108.079 0.979163 -1.49247 0
M  V30 1128 C 105.179 1.77609 -2.88631 0
M  V30 1129 C 104.352 1.39927 -4.14414 0
M  V30 1130 C 103.411 2.47936 -4.64127 0
M  V30 1131 O 102.437 2.11461 -5.28463 0
M  V30 1132 N 103.639 3.79107 -4.39612 0
M  V30 1133 H 106.404 -0.0310778 -2.99684 0
M  V30 1134 H 103.965 -0.162226 -1.61085 0
M  V30 1135 H 105.957 2.49287 -3.18807 0
M  V30 1136 H 104.527 2.26978 -2.14941 0
M  V30 1137 H 103.747 0.513481 -3.90841 0
M  V30 1138 H 105.035 1.12341 -4.96243 0
M  V30 1139 H 104.433 4.11531 -3.88148 0
M  V30 1140 H 102.99 4.4697 -4.74406 0
M  V30 1141 N 106.423 1.57458 -0.0668435 0
M  V30 1142 C 107.353 2.15468 0.899764 0
M  V30 1143 C 108.334 1.08042 1.31381 0
M  V30 1144 O 109.519 1.36054 1.38574 0
M  V30 1145 C 106.649 2.71232 2.16911 0
M  V30 1146 C 105.603 3.83781 1.89463 0
M  V30 1147 C 104.929 4.26127 3.22986 0
M  V30 1148 C 106.229 5.08238 1.20381 0
M  V30 1149 H 107.923 2.96488 0.416529 0
M  V30 1150 H 105.469 1.4262 0.198908 0
M  V30 1151 H 107.422 3.10458 2.84945 0
M  V30 1152 H 106.146 1.87426 2.67468 0
M  V30 1153 H 104.805 3.45051 1.23836 0
M  V30 1154 H 104.453 3.39249 3.71374 0
M  V30 1155 H 104.153 5.01993 3.05413 0
M  V30 1156 H 105.677 4.67966 3.92225 0
M  V30 1157 H 107.091 5.44811 1.78475 0
M  V30 1158 H 105.488 5.89349 1.13083 0
M  V30 1159 H 106.558 4.84558 0.182153 0
M  V30 1160 N 107.901 -0.206675 1.56239 0
M  V30 1161 C 109.15 -0.926964 1.79138 0
M  V30 1162 C 109.463 -1.84901 0.638043 0
M  V30 1163 O 110.669 -2.60906 0.751033 0
M  V30 1164 C 109.125 -1.6986 3.17294 0
M  V30 1165 C 108.733 -0.821956 4.40395 0
M  V30 1166 C 110.477 -2.40922 3.4951 0
M  V30 1167 C 108.384 -1.59179 5.69575 0
M  V30 1168 H 107.314 -0.349864 0.667915 0
M  V30 1169 H 109.965 -0.180487 1.8261 0
M  V30 1170 H 108.347 -2.48853 3.08039 0
M  V30 1171 H 109.521 -0.0715019 4.60745 0
M  V30 1172 H 107.836 -0.222741 4.15804 0
M  V30 1173 H 110.433 -2.99047 4.43255 0
M  V30 1174 H 110.776 -3.14542 2.72707 0
M  V30 1175 H 111.309 -1.68905 3.60161 0
M  V30 1176 H 108.048 -0.898589 6.49312 0
M  V30 1177 H 107.568 -2.31648 5.53262 0
M  V30 1178 H 109.247 -2.14862 6.10281 0
M  V30 1179 N 109.379 -1.50304 -0.473955 0
M  V30 1180 C 110.656 -1.51667 -1.23518 0
M  V30 1181 C 111.036 -0.259701 -2.09496 0
M  V30 1182 O 110.384 0.756986 -2.15597 0
M  V30 1183 C 110.594 -2.81082 -2.06868 0
M  V30 1184 C 111.942 -3.31631 -2.65153 0
M  V30 1185 O 112.966 -2.82384 -2.17113 0
M  V30 1186 O 111.825 -4.17471 -3.52675 0
M  V30 1187 H 108.919 -0.60822 -0.560355 0
M  V30 1188 H 111.465 -1.62592 -0.486011 0
M  V30 1189 H 110.237 -3.64041 -1.4349 0
M  V30 1190 H 109.86 -2.73146 -2.88924 0
M  V30 1191 N 110.857 0.726932 -1.39834 0
M  V30 1192 C 112.103 1.48884 -1.377 0
M  V30 1193 C 112.436 1.94185 0.0244852 0
M  V30 1194 O 111.711 1.67361 0.990986 0
M  V30 1195 C 111.994 2.72288 -2.3565 0
M  V30 1196 C 111.847 2.32956 -3.84775 0
M  V30 1197 C 113.166 3.74414 -2.31306 0
M  V30 1198 H 110.285 0.540062 -0.5015 0
M  V30 1199 H 112.927 0.830547 -1.70886 0
M  V30 1200 H 111.077 3.28457 -2.07481 0
M  V30 1201 H 112.749 1.82356 -4.23726 0
M  V30 1202 H 110.992 1.65088 -4.01159 0
M  V30 1203 H 111.663 3.21362 -4.4881 0
M  V30 1204 H 114.139 3.27849 -2.56231 0
M  V30 1205 H 113.015 4.58414 -3.01907 0
M  V30 1206 H 113.276 4.21909 -1.32081 0
M  V30 1207 N 112.336 1.25143 0.95797 0
M  V30 1208 C 113.613 1.00472 1.67823 0
M  V30 1209 C 113.993 -0.470056 2.058 0
M  V30 1210 O 113.341 -1.44663 1.76875 0
M  V30 1211 C 113.551 1.9372 2.90299 0
M  V30 1212 C 114.899 2.21371 3.62326 0
M  V30 1213 O 115.923 1.91451 3.00375 0
M  V30 1214 O 114.782 2.72231 4.7387 0
M  V30 1215 H 111.876 0.380752 0.734137 0
M  V30 1216 H 114.422 1.36283 1.01119 0
M  V30 1217 H 113.194 2.93316 2.59001 0
M  V30 1218 H 112.817 1.58286 3.64735 0
M  V30 1219 N 113.814 -1.1601 1.06675 0
M  V30 1220 C 114.724 -2.24156 0.692179 0
M  V30 1221 C 115.74 -1.71507 -0.293513 0
M  V30 1222 O 116.916 -2.009 -0.141861 0
M  V30 1223 C 113.981 -3.46587 0.0884131 0
M  V30 1224 C 113.042 -4.14257 1.12646 0
M  V30 1225 C 112.275 -5.30844 0.551416 0
M  V30 1226 O 112.498 -5.66858 -0.634656 0
M  V30 1227 O 111.432 -5.87848 1.29298 0
M  V30 1228 H 115.258 -2.58513 1.59388 0
M  V30 1229 H 112.843 -1.23599 0.83926 0
M  V30 1230 H 114.725 -4.20679 -0.246361 0
M  V30 1231 H 113.4 -3.13994 -0.786712 0
M  V30 1232 H 112.307 -3.42118 1.51348 0
M  V30 1233 H 113.64 -4.50914 1.97325 0
M  V30 1234 N 115.292 -0.849877 -1.32721 0
M  V30 1235 C 116.239 -0.289033 -2.28983 0
M  V30 1236 C 117.209 0.601324 -1.54833 0
M  V30 1237 O 118.394 0.537253 -1.8308 0
M  V30 1238 C 115.534 0.520623 -3.4115 0
M  V30 1239 C 114.647 -0.394989 -4.3019 0
M  V30 1240 C 113.782 0.426834 -5.29482 0
M  V30 1241 C 112.821 -0.486476 -6.10164 0
M  V30 1242 N 111.958 0.297879 -7.01468 0
M  V30 1243 H 116.798 -1.11519 -2.76347 0
M  V30 1244 H 114.335 -0.56138 -1.35967 0
M  V30 1245 H 116.293 1.00563 -4.04899 0
M  V30 1246 H 114.923 1.31165 -2.9495 0
M  V30 1247 H 113.975 -0.99836 -3.67065 0
M  V30 1248 H 115.287 -1.09612 -4.86607 0
M  V30 1249 H 114.441 0.975205 -5.98811 0
M  V30 1250 H 113.18 1.16136 -4.73671 0
M  V30 1251 H 112.185 -1.04677 -5.39743 0
M  V30 1252 H 113.41 -1.21953 -6.6806 0
M  V30 1253 H 111.356 1.01558 -6.48091 0
M  V30 1254 H 111.273 -0.344318 -7.55216 0
M  V30 1255 H 112.541 0.828131 -7.75089 0
M  V30 1256 N 116.77 1.45427 -0.607355 0
M  V30 1257 C 117.718 2.32269 0.12411 0
M  V30 1258 C 118.712 1.45955 0.859854 0
M  V30 1259 O 119.918 1.6244 0.775447 0
M  V30 1260 H 116.293 0.749691 0.0588839 0
M  V30 1261 H 118.264 2.91743 -0.626762 0
M  V30 1262 C 117.013 3.29567 1.1082 0
M  V30 1263 H 116.336 3.95978 0.551492 0
M  V30 1264 H 117.776 3.93061 1.58995 0
M  V30 1265 C 116.235 2.56722 2.18164 0
M  V30 1266 O 116.765 2.34842 3.25902 0
M  V30 1267 N 114.971 2.16861 1.93442 0
M  V30 1268 H 114.518 2.34855 1.05834 0
M  V30 1269 H 114.476 1.68444 2.65469 0
M  V30 1270 N 118.248 0.346503 1.53744 0
M  V30 1271 C 119.18 -0.543316 2.22667 0
M  V30 1272 C 120.193 -1.06159 1.23427 0
M  V30 1273 O 121.382 -0.971235 1.49764 0
M  V30 1274 C 118.482 -1.76076 2.89569 0
M  V30 1275 C 117.655 -1.37727 4.15151 0
M  V30 1276 C 116.714 -2.45471 4.65436 0
M  V30 1277 O 115.74 -2.08655 5.29577 0
M  V30 1278 N 116.942 -3.7677 4.41616 0
M  V30 1279 H 119.707 0.0469703 2.99663 0
M  V30 1280 H 117.268 0.170766 1.60997 0
M  V30 1281 H 119.26 -2.47593 3.20125 0
M  V30 1282 H 117.83 -2.25835 2.16142 0
M  V30 1283 H 117.05 -0.492746 3.91108 0
M  V30 1284 H 118.338 -1.09708 4.96832 0
M  V30 1285 H 117.736 -4.09467 3.90325 0
M  V30 1286 H 116.293 -4.44448 4.7677 0
M  V30 1287 N 119.726 -1.57421 0.075193 0
M  V30 1288 C 120.659 -2.08528 -0.926904 0
M  V30 1289 C 121.637 -0.991171 -1.28898 0
M  V30 1290 O 122.821 -1.26479 -1.39769 0
M  V30 1291 C 119.948 -2.54576 -2.23402 0
M  V30 1292 C 118.994 -3.75454 -2.02327 0
M  V30 1293 S 119.827 -5.19989 -1.27951 0
M  V30 1294 C 120.983 -5.69372 -2.59935 0
M  V30 1295 H 121.216 -2.932 -0.492048 0
M  V30 1296 H 118.749 -1.53785 -0.137651 0
M  V30 1297 H 120.707 -2.81767 -2.98526 0
M  V30 1298 H 119.368 -1.70166 -2.64012 0
M  V30 1299 H 118.561 -4.05675 -2.99071 0
M  V30 1300 H 118.163 -3.48654 -1.35339 0
M  V30 1301 H 120.455 -5.76424 -3.56008 0
M  V30 1302 H 121.398 -6.68207 -2.34319 0
M  V30 1303 H 121.806 -4.97205 -2.67296 0
M  V30 1304 N 121.204 0.198386 -1.56346 0
M  V30 1305 C 122.137 1.27381 -1.89339 0
M  V30 1306 C 123.115 1.44106 -0.753134 0
M  V30 1307 O 124.299 1.59549 -1.00381 0
M  V30 1308 C 121.426 2.6409 -2.12071 0
M  V30 1309 C 120.472 2.64253 -3.34772 0
M  V30 1310 S 121.305 2.16013 -4.89999 0
M  V30 1311 C 122.461 3.54553 -5.15794 0
M  V30 1312 H 122.694 0.992058 -2.8026 0
M  V30 1313 H 120.227 0.401726 -1.49082 0
M  V30 1314 H 122.185 3.42786 -2.2585 0
M  V30 1315 H 120.846 2.89478 -1.21906 0
M  V30 1316 H 120.039 3.64768 -3.47794 0
M  V30 1317 H 119.641 1.93637 -3.1997 0
M  V30 1318 H 121.933 4.50396 -5.06112 0
M  V30 1319 H 122.876 3.46428 -6.1757 0
M  V30 1320 H 123.284 3.49313 -4.43442 0
M  V30 1321 N 122.682 1.50554 0.465978 0
M  V30 1322 C 123.91 1.65563 1.24083 0
M  V30 1323 C 124.325 0.341051 1.85694 0
M  V30 1324 O 123.682 -0.677543 1.69457 0
M  V30 1325 C 123.733 2.75051 2.34583 0
M  V30 1326 O 123.454 4.01413 1.75497 0
M  V30 1327 C 124.955 3.01078 3.25372 0
M  V30 1328 H 122.175 0.55638 0.375077 0
M  V30 1329 H 124.719 1.96807 0.555624 0
M  V30 1330 H 122.874 2.46486 2.9887 0
M  V30 1331 H 123.288 4.62002 2.48303 0
M  V30 1332 H 124.762 3.81339 3.99105 0
M  V30 1333 H 125.239 2.12349 3.84453 0
M  V30 1334 H 125.845 3.31194 2.66816 0
M  V30 1335 N 124.16 -0.719506 1.40217 0
M  V30 1336 C 125.388 -1.50864 1.41589 0
M  V30 1337 C 125.803 -1.88794 0.0145275 0
M  V30 1338 O 125.16 -1.55174 -0.960594 0
M  V30 1339 C 125.211 -2.78646 2.30302 0
M  V30 1340 O 124.932 -2.42321 3.64983 0
M  V30 1341 C 126.433 -3.72569 2.40224 0
M  V30 1342 H 123.653 -0.465709 0.48307 0
M  V30 1343 H 126.197 -0.88785 1.84221 0
M  V30 1344 H 124.352 -3.37019 1.91042 0
M  V30 1345 H 124.766 -3.24514 4.12057 0
M  V30 1346 H 126.24 -4.5908 3.06512 0
M  V30 1347 H 126.717 -4.15403 1.42608 0
M  V30 1348 H 127.323 -3.20109 2.80019 0
M  V30 1349 N 125.638 -1.25649 -0.95132 0
M  V30 1350 C 126.586 -1.06118 -2.06982 0
M  V30 1351 C 127.58 0.00889169 -1.69398 0
M  V30 1352 O 128.786 -0.146988 -1.79399 0
M  V30 1353 H 125.161 -0.326248 -0.677544 0
M  V30 1354 H 127.132 -2.00932 -2.2061 0
M  V30 1355 C 125.881 -0.700145 -3.40578 0
M  V30 1356 H 125.204 -1.51537 -3.69968 0
M  V30 1357 H 126.644 -0.603211 -4.19687 0
M  V30 1358 C 125.103 0.59403 -3.31622 0
M  V30 1359 O 125.633 1.63522 -3.66911 0
M  V30 1360 N 123.839 0.58089 -2.84735 0
M  V30 1361 H 123.386 -0.266783 -2.56215 0
M  V30 1362 H 123.344 1.44695 -2.79125 0
M  V30 1363 N 127.117 1.15442 -1.07289 0
M  V30 1364 C 128.363 1.86489 -0.796846 0
M  V30 1365 C 128.696 1.82078 0.675371 0
M  V30 1366 O 127.971 1.24346 1.4956 0
M  V30 1367 C 128.254 3.35626 -1.30489 0
M  V30 1368 C 128.107 3.48673 -2.84161 0
M  V30 1369 C 129.426 4.30357 -0.920907 0
M  V30 1370 H 126.545 0.677144 -0.290939 0
M  V30 1371 H 129.187 1.35633 -1.33056 0
M  V30 1372 H 127.337 3.79068 -0.850883 0
M  V30 1373 H 129.009 3.14099 -3.37846 0
M  V30 1374 H 127.252 2.90253 -3.22391 0
M  V30 1375 H 127.923 4.53453 -3.14777 0
M  V30 1376 H 130.399 3.94871 -1.3121 0
M  V30 1377 H 129.275 5.33193 -1.30372 0
M  V30 1378 H 129.536 4.4176 0.173226 0
M  V30 1379 N 128.595 0.856903 1.32268 0
M  V30 1380 C 129.841 0.471355 1.97863 0
M  V30 1381 C 130.196 -0.962896 1.66572 0
M  V30 1382 O 129.489 -1.66686 0.944797 0
M  V30 1383 C 129.683 0.649919 3.51441 0
M  V30 1384 C 129.512 2.09997 3.97657 0
M  V30 1385 C 128.282 2.73893 4.2463 0
M  V30 1386 C 130.48 3.07081 4.1256 0
M  V30 1387 N 128.462 4.09786 4.57109 0
M  V30 1388 C 129.833 4.27968 4.48602 0
M  V30 1389 C 131.888 3.03247 3.949 0
M  V30 1390 C 130.591 5.45521 4.68827 0
M  V30 1391 C 132.617 4.20046 4.16311 0
M  V30 1392 C 131.979 5.39692 4.52672 0
M  V30 1393 H 128.078 0.221263 0.750044 0
M  V30 1394 H 130.662 1.10876 1.60045 0
M  V30 1395 H 128.833 0.0421938 3.88377 0
M  V30 1396 H 130.565 0.234044 4.04023 0
M  V30 1397 H 127.32 2.24918 4.16784 0
M  V30 1398 H 127.744 4.7989 4.7753 0
M  V30 1399 H 132.386 2.11863 3.65888 0
M  V30 1400 H 130.104 6.37434 4.96693 0
M  V30 1401 H 133.69 4.18517 4.04147 0
M  V30 1402 H 132.57 6.28566 4.68907 0
M  V30 1403 N 130.073 -1.45103 0.615059 0
M  V30 1404 C 131.319 -2.02483 0.113347 0
M  V30 1405 C 131.652 -1.48146 -1.25564 0
M  V30 1406 O 130.927 -0.659104 -1.82992 0
M  V30 1407 C 131.21 -3.60005 0.0825278 0
M  V30 1408 C 131.063 -4.2466 1.48271 0
M  V30 1409 C 132.382 -4.35972 -0.601401 0
M  V30 1410 H 129.501 -0.735764 0.0426632 0
M  V30 1411 H 132.143 -1.72868 0.788461 0
M  V30 1412 H 130.293 -3.85367 -0.492378 0
M  V30 1413 H 131.965 -4.10458 2.10527 0
M  V30 1414 H 130.208 -3.82772 2.04127 0
M  V30 1415 H 130.879 -5.336 1.41332 0
M  V30 1416 H 133.355 -4.15947 -0.112666 0
M  V30 1417 H 132.231 -5.45697 -0.592097 0
M  V30 1418 H 132.492 -4.09391 -1.66887 0
M  V30 1419 N 131.551 -0.354651 -1.53558 0
M  V30 1420 C 132.498 0.496968 -2.25386 0
M  V30 1421 C 133.468 1.0865 -1.25636 0
M  V30 1422 O 134.653 1.12104 -1.54394 0
M  V30 1423 C 131.793 1.63637 -3.03837 0
M  V30 1424 C 130.906 1.07307 -4.18461 0
M  V30 1425 C 130.041 2.18068 -4.84376 0
M  V30 1426 C 129.08 1.59147 -5.91049 0
M  V30 1427 N 128.217 2.63695 -6.50699 0
M  V30 1428 H 133.057 -0.122075 -2.9775 0
M  V30 1429 H 130.594 -0.0720154 -1.46924 0
M  V30 1430 H 132.552 2.30734 -3.47589 0
M  V30 1431 H 131.182 2.22623 -2.33749 0
M  V30 1432 H 130.234 0.292708 -3.79272 0
M  V30 1433 H 131.546 0.602193 -4.95152 0
M  V30 1434 H 130.7 2.93007 -5.31255 0
M  V30 1435 H 129.439 2.68504 -4.07133 0
M  V30 1436 H 128.444 0.827175 -5.43542 0
M  V30 1437 H 129.669 1.09549 -6.70206 0
M  V30 1438 H 127.615 3.13365 -5.76315 0
M  V30 1439 H 127.532 2.21263 -7.22896 0
M  V30 1440 H 128.8 3.3837 -7.02229 0
M  V30 1441 N 133.029 1.57378 -0.0835403 0
M  V30 1442 C 133.961 2.10389 0.909338 0
M  V30 1443 C 134.974 1.03858 1.25369 0
M  V30 1444 O 136.163 1.31338 1.20882 0
M  V30 1445 C 133.263 2.55908 2.2218 0
M  V30 1446 C 132.436 3.86145 2.05453 0
M  V30 1447 C 131.495 4.17633 3.20108 0
M  V30 1448 O 130.521 4.87043 2.94581 0
M  V30 1449 N 131.723 3.72113 4.45547 0
M  V30 1450 H 134.488 2.962 0.456657 0
M  V30 1451 H 132.049 1.61579 0.101877 0
M  V30 1452 H 134.041 2.74027 2.97811 0
M  V30 1453 H 132.611 1.75171 2.58909 0
M  V30 1454 H 131.831 3.7729 1.1422 0
M  V30 1455 H 133.119 4.7137 1.91541 0
M  V30 1456 H 132.517 3.16062 4.69171 0
M  V30 1457 H 131.074 3.95409 5.18165 0
M  V30 1458 N 134.507 -0.190092 1.56449 0
M  V30 1459 C 135.417 -1.25591 1.98152 0
M  V30 1460 C 136.433 -1.49519 0.889944 0
M  V30 1461 O 137.609 -1.62036 1.19609 0
M  V30 1462 C 134.674 -2.57916 2.3169 0
M  V30 1463 C 133.735 -2.42015 3.5458 0
M  V30 1464 C 132.968 -3.6803 3.8651 0
M  V30 1465 O 133.191 -4.72413 3.1966 0
M  V30 1466 O 132.125 -3.6326 4.79923 0
M  V30 1467 H 135.951 -0.931988 2.89046 0
M  V30 1468 H 133.536 -0.395488 1.4407 0
M  V30 1469 H 135.418 -3.36008 2.54316 0
M  V30 1470 H 134.093 -2.89925 1.43963 0
M  V30 1471 H 133 -1.62017 3.37196 0
M  V30 1472 H 134.333 -2.14937 4.4279 0
M  V30 1473 N 135.985 -1.50799 -0.457987 0
M  V30 1474 C 137.231 -1.63648 -1.20792 0
M  V30 1475 C 137.586 -0.338662 -1.89396 0
M  V30 1476 O 136.879 0.664291 -1.79716 0
M  V30 1477 C 137.073 -2.76358 -2.2663 0
M  V30 1478 C 136.902 -4.16974 -1.68411 0
M  V30 1479 C 135.672 -4.83199 -1.47807 0
M  V30 1480 C 137.87 -5.00774 -1.17176 0
M  V30 1481 N 135.852 -6.07991 -0.849692 0
M  V30 1482 C 137.223 -6.16397 -0.667403 0
M  V30 1483 C 139.278 -4.86452 -1.06155 0
M  V30 1484 C 137.981 -7.19272 -0.0636908 0
M  V30 1485 C 140.007 -5.89515 -0.471759 0
M  V30 1486 C 139.369 -7.04397 0.0221557 0
M  V30 1487 H 135.468 -0.652888 -0.43042 0
M  V30 1488 H 138.052 -1.87962 -0.507785 0
M  V30 1489 H 136.223 -2.53744 -2.94056 0
M  V30 1490 H 137.955 -2.78496 -2.93636 0
M  V30 1491 H 134.71 -4.40714 -1.73403 0
M  V30 1492 H 135.134 -6.74733 -0.553537 0
M  V30 1493 H 139.776 -3.97907 -1.42932 0
M  V30 1494 H 137.494 -8.07481 0.316253 0
M  V30 1495 H 141.08 -5.805 -0.388671 0
M  V30 1496 H 139.96 -7.82782 0.471375 0
M  V30 1497 N 137.463 0.71206 -1.40597 0
M  V30 1498 C 138.413 1.81783 -1.37619 0
M  V30 1499 C 139.397 1.58896 -0.253162 0
M  V30 1500 O 140.589 1.70009 -0.492547 0
M  V30 1501 C 137.718 3.19944 -1.24462 0
M  V30 1502 C 136.804 3.48582 -2.4156 0
M  V30 1503 N 137.195 3.48016 -3.67041 0
M  V30 1504 C 135.493 3.79056 -2.35016 0
M  V30 1505 C 136.194 3.75096 -4.44609 0
M  V30 1506 N 135.17 3.94022 -3.74497 0
M  V30 1507 H 138.972 1.79683 -2.32575 0
M  V30 1508 H 136.486 0.91134 -1.34419 0
M  V30 1509 H 138.483 3.99133 -1.20411 0
M  V30 1510 H 137.143 3.23267 -0.304762 0
M  V30 1511 H 138.154 3.28782 -4.00153 0
M  V30 1512 H 134.831 3.89848 -1.49415 0
M  V30 1513 H 136.221 3.80934 -5.53479 0
M  V30 1514 N 138.941 1.26152 0.944643 0
M  V30 1515 C 140.218 1.02247 1.66748 0
M  V30 1516 C 140.598 -0.448202 2.06287 0
M  V30 1517 O 139.946 -1.42779 1.78399 0
M  V30 1518 C 140.156 1.96788 2.88228 0
M  V30 1519 C 141.504 2.25201 3.59958 0
M  V30 1520 O 142.528 1.94626 2.98327 0
M  V30 1521 O 141.387 2.77242 4.70956 0
M  V30 1522 H 138.481 0.388517 0.730057 0
M  V30 1523 H 141.027 1.37348 0.99668 0
M  V30 1524 H 139.799 2.96047 2.55875 0
M  V30 1525 H 139.422 1.62145 3.63035 0
M  V30 1526 N 140.419 -1.14872 1.07899 0
M  V30 1527 C 141.649 -1.89386 0.825631 0
M  V30 1528 C 142.057 -1.78565 -0.625406 0
M  V30 1529 O 141.4 -1.13918 -1.44113 0
M  V30 1530 C 141.462 -3.40206 1.16191 0
M  V30 1531 C 141.126 -3.74812 2.61467 0
M  V30 1532 C 142.123 -3.75367 3.59716 0
M  V30 1533 C 139.808 -4.0495 2.97189 0
M  V30 1534 C 141.802 -4.05574 4.9172 0
M  V30 1535 C 139.489 -4.34821 4.29388 0
M  V30 1536 C 140.487 -4.35116 5.26463 0
M  V30 1537 O 140.175 -4.64267 6.56286 0
M  V30 1538 H 139.907 -0.606894 0.297751 0
M  V30 1539 H 142.461 -1.46438 1.44031 0
M  V30 1540 H 140.691 -3.8358 0.490214 0
M  V30 1541 H 142.38 -3.96018 0.890193 0
M  V30 1542 H 143.146 -3.52176 3.33462 0
M  V30 1543 H 139.025 -4.03876 2.22273 0
M  V30 1544 H 142.569 -4.05719 5.67484 0
M  V30 1545 H 138.466 -4.5748 4.55392 0
M  V30 1546 H 139.234 -4.82007 6.61522 0
M  V30 1547 N 141.898 -0.863906 -1.31812 0
M  V30 1548 C 142.845 -0.313303 -2.28664 0
M  V30 1549 C 143.815 0.584868 -1.55462 0
M  V30 1550 O 145 0.517805 -1.83639 0
M  V30 1551 C 142.14 0.48441 -3.41683 0
M  V30 1552 C 141.253 -0.440594 -4.29747 0
M  V30 1553 C 140.388 0.370652 -5.29905 0
M  V30 1554 C 139.427 -0.551164 -6.09613 0
M  V30 1555 N 138.564 0.223462 -7.01744 0
M  V30 1556 H 143.404 -1.14444 -2.75148 0
M  V30 1557 H 140.941 -0.575769 -1.35364 0
M  V30 1558 H 142.899 0.962627 -4.05943 0
M  V30 1559 H 141.529 1.28029 -2.96325 0
M  V30 1560 H 140.581 -1.03724 -3.65986 0
M  V30 1561 H 141.893 -1.14767 -4.85417 0
M  V30 1562 H 141.047 0.911638 -5.99812 0
M  V30 1563 H 139.786 1.11105 -4.74876 0
M  V30 1564 H 138.791 -1.10396 -5.38603 0
M  V30 1565 H 140.016 -1.29032 -6.66729 0
M  V30 1566 H 137.962 0.946787 -6.49132 0
M  V30 1567 H 137.879 -0.424399 -7.54808 0
M  V30 1568 H 139.147 0.745876 -7.75923 0
M  V30 1569 N 143.376 1.44774 -0.622745 0
M  V30 1570 C 144.306 2.33382 0.0741861 0
M  V30 1571 C 145.287 1.47719 0.843387 0
M  V30 1572 O 146.472 1.76458 0.810934 0
M  V30 1573 C 143.602 3.30663 1.06204 0
M  V30 1574 C 142.556 4.26079 0.405037 0
M  V30 1575 C 141.882 5.13165 1.5022 0
M  V30 1576 C 143.182 5.1781 -0.683414 0
M  V30 1577 H 144.876 2.91905 -0.665713 0
M  V30 1578 H 142.422 1.40363 -0.321587 0
M  V30 1579 H 144.375 3.9153 1.55827 0
M  V30 1580 H 143.099 2.70331 1.83272 0
M  V30 1581 H 141.758 3.66532 -0.0704683 0
M  V30 1582 H 141.406 4.49191 2.26355 0
M  V30 1583 H 141.106 5.77812 1.06803 0
M  V30 1584 H 142.63 5.76902 2.00041 0
M  V30 1585 H 144.044 5.72661 -0.270631 0
M  V30 1586 H 142.441 5.91015 -1.04023 0
M  V30 1587 H 143.511 4.59326 -1.55395 0
M  V30 1588 N 144.854 0.36279 1.53368 0
M  V30 1589 C 146.27 0.0116182 1.59596 0
M  V30 1590 C 146.47 -1.47012 1.37803 0
M  V30 1591 O 145.526 -2.23136 1.18181 0
M  V30 1592 C 146.839 0.465052 2.97082 0
M  V30 1593 C 148.387 0.419033 3.10182 0
M  V30 1594 C 148.862 0.848235 4.50077 0
M  V30 1595 N 150.353 0.803183 4.56183 0
M  V30 1596 C 151.088 1.107 5.62613 0
M  V30 1597 N 150.584 1.47996 6.76808 0
M  V30 1598 N 152.377 1.02998 5.52583 0
M  V30 1599 H 144.528 1.32775 1.65785 0
M  V30 1600 H 146.791 0.542518 0.777417 0
M  V30 1601 H 146.497 1.49892 3.18159 0
M  V30 1602 H 146.371 -0.149786 3.76902 0
M  V30 1603 H 148.758 -0.605696 2.88817 0
M  V30 1604 H 148.839 1.06933 2.32377 0
M  V30 1605 H 148.483 1.87107 4.7218 0
M  V30 1606 H 148.413 0.175218 5.26308 0
M  V30 1607 H 150.904 0.52838 3.74188 0
M  V30 1608 H 151.217 1.69613 7.53957 0
M  V30 1609 H 149.562 1.51859 6.78206 0
M  V30 1610 H 152.753 0.737817 4.62249 0
M  V30 1611 H 152.926 1.2701 6.35431 0
M  V30 1612 N 146.332 -1.57332 0.0918853 0
M  V30 1613 C 147.578 -1.95328 -0.567313 0
M  V30 1614 C 147.933 -0.972866 -1.65991 0
M  V30 1615 O 147.226 0.00166256 -1.916 0
M  V30 1616 C 147.42 -3.37689 -1.17051 0
M  V30 1617 C 147.249 -4.49489 -0.137875 0
M  V30 1618 C 146.019 -5.04498 0.284515 0
M  V30 1619 C 148.217 -5.10393 0.63271 0
M  V30 1620 N 146.199 -5.99853 1.30576 0
M  V30 1621 C 147.57 -6.01435 1.50587 0
M  V30 1622 C 149.625 -4.93143 0.68658 0
M  V30 1623 C 148.328 -6.77077 2.42815 0
M  V30 1624 C 150.354 -5.69445 1.59645 0
M  V30 1625 C 149.716 -6.60151 2.45725 0
M  V30 1626 H 145.815 -0.761467 -0.178023 0
M  V30 1627 H 148.399 -1.93924 0.173706 0
M  V30 1628 H 146.57 -3.39793 -1.88136 0
M  V30 1629 H 148.302 -3.62872 -1.79181 0
M  V30 1630 H 145.057 -4.73489 -0.102593 0
M  V30 1631 H 145.481 -6.52231 1.81449 0
M  V30 1632 H 150.123 -4.22785 0.035244 0
M  V30 1633 H 147.841 -7.46699 3.08975 0
M  V30 1634 H 151.427 -5.58112 1.64323 0
M  V30 1635 H 150.307 -7.18159 3.14987 0
M  V30 1636 N 147.81 0.181792 -1.56548 0
M  V30 1637 C 149.087 0.926765 -1.72251 0
M  V30 1638 C 149.467 2.00831 -0.650386 0
M  V30 1639 O 148.815 2.26008 0.336521 0
M  V30 1640 C 149.025 1.50106 -3.1507 0
M  V30 1641 C 150.373 1.97805 -3.75711 0
M  V30 1642 O 151.397 1.59922 -3.18282 0
M  V30 1643 O 150.256 2.67555 -4.76525 0
M  V30 1644 H 147.35 0.435506 -0.703039 0
M  V30 1645 H 149.896 0.170443 -1.68842 0
M  V30 1646 H 148.668 0.72212 -3.84579 0
M  V30 1647 H 148.291 2.32186 -3.22763 0
M  V30 1648 N 149.288 1.51039 0.449983 0
M  V30 1649 C 150.699 1.557 1.03026 0
M  V30 1650 C 151.05 0.372939 1.92623 0
M  V30 1651 O 150.175 -0.511771 2.10261 0
M  V30 1652 C 150.77 2.82171 1.87523 0
M  V30 1653 C 149.329 2.89444 2.40622 0
M  V30 1654 C 148.476 2.50228 1.19504 0
M  V30 1655 H 151.427 1.56999 0.231745 0
M  V30 1656 H 151.448 2.65219 2.72835 0
M  V30 1657 H 150.96 3.68331 1.22286 0
M  V30 1658 H 149.061 2.07685 3.0935 0
M  V30 1659 H 149.174 3.92816 2.74285 0
M  V30 1660 H 147.538 2.03139 1.53644 0
M  V30 1661 H 148.321 3.38719 0.558972 0
M  V30 1662 N 150.766 -0.704594 1.40972 0
M  V30 1663 C 151.729 -1.80035 1.41845 0
M  V30 1664 C 152.729 -1.57774 0.310474 0
M  V30 1665 O 153.919 -1.64613 0.56992 0
M  V30 1666 C 151.051 -3.18284 1.22098 0
M  V30 1667 H 152.244 -1.80658 2.3938 0
M  V30 1668 H 149.797 -0.911329 1.26982 0
M  V30 1669 H 150.532 -3.23306 0.253672 0
M  V30 1670 H 150.317 -3.35843 2.02366 0
M  V30 1671 H 151.807 -3.98289 1.25522 0
M  V30 1672 N 152.244 -1.26651 -0.937939 0
M  V30 1673 C 153.521 -1.0313 -1.66204 0
M  V30 1674 C 153.901 0.437256 -2.06522 0
M  V30 1675 O 153.249 1.41831 -1.79154 0
M  V30 1676 C 153.459 -1.98314 -2.87181 0
M  V30 1677 C 154.807 -2.27107 -3.58758 0
M  V30 1678 O 155.831 -1.96205 -2.97291 0
M  V30 1679 O 154.69 -2.79736 -4.69479 0
M  V30 1680 H 151.784 -0.392384 -0.727986 0
M  V30 1681 H 154.33 -1.37874 -0.989382 0
M  V30 1682 H 153.102 -2.97399 -2.54302 0
M  V30 1683 H 152.725 -1.64068 -3.6217 0
M  V30 1684 N 153.722 1.14298 -1.08507 0
M  V30 1685 C 154.952 1.88945 -0.835663 0
M  V30 1686 C 155.36 1.78894 0.615928 0
M  V30 1687 O 154.703 1.1468 1.43506 0
M  V30 1688 C 154.765 3.39585 -1.17994 0
M  V30 1689 C 154.429 3.7342 -2.63451 0
M  V30 1690 C 155.426 3.73454 -3.61702 0
M  V30 1691 C 153.111 4.03368 -2.99332 0
M  V30 1692 C 155.105 4.02961 -4.93864 0
M  V30 1693 C 152.792 4.32538 -4.31687 0
M  V30 1694 C 153.79 4.32318 -5.28763 0
M  V30 1695 O 153.478 4.6078 -6.58739 0
M  V30 1696 H 153.21 0.605307 -0.300965 0
M  V30 1697 H 155.764 1.45673 -1.44806 0
M  V30 1698 H 153.994 3.83315 -0.51055 0
M  V30 1699 H 155.683 3.9554 -0.911182 0
M  V30 1700 H 156.449 3.50403 -3.35325 0
M  V30 1701 H 152.328 4.02692 -2.24411 0
M  V30 1702 H 155.872 4.02704 -5.69627 0
M  V30 1703 H 151.769 4.55059 -4.57812 0
M  V30 1704 H 152.537 4.78492 -6.64069 0
M  V30 1705 N 155.201 0.870884 1.31352 0
M  V30 1706 C 156.111 0.330783 2.32256 0
M  V30 1707 C 157.127 -0.559767 1.6475 0
M  V30 1708 O 158.303 -0.456263 1.96164 0
M  V30 1709 C 155.368 -0.458137 3.4366 0
M  V30 1710 C 154.429 0.460482 4.26823 0
M  V30 1711 C 153.662 -0.290881 5.32907 0
M  V30 1712 O 153.885 -1.51885 5.49806 0
M  V30 1713 O 152.819 0.351732 6.00871 0
M  V30 1714 H 156.645 1.16718 2.80376 0
M  V30 1715 H 154.23 0.634285 1.35267 0
M  V30 1716 H 156.112 -0.905343 4.1156 0
M  V30 1717 H 154.787 -1.27106 2.97701 0
M  V30 1718 H 153.694 0.956207 3.61673 0
M  V30 1719 H 155.027 1.23903 4.7635 0
M  V30 1720 N 156.679 -1.44442 0.630414 0
M  V30 1721 C 157.627 -2.32437 -0.0871428 0
M  V30 1722 C 158.621 -1.47304 -0.836525 0
M  V30 1723 O 159.827 -1.63653 -0.749506 0
M  V30 1724 H 156.202 -0.750533 -0.0469495 0
M  V30 1725 H 158.173 -2.90709 0.673096 0
M  V30 1726 C 156.922 -3.31288 -1.05563 0
M  V30 1727 H 156.245 -3.96805 -0.488426 0
M  V30 1728 H 157.685 -3.9554 -1.52721 0
M  V30 1729 C 156.144 -2.6016 -2.14052 0
M  V30 1730 O 156.674 -2.39997 -3.22124 0
M  V30 1731 N 154.88 -2.19911 -1.89967 0
M  V30 1732 H 154.427 -2.36509 -1.02085 0
M  V30 1733 H 154.385 -1.72646 -2.62756 0
M  V30 1734 N 158.157 -0.370918 -1.53173 0
M  V30 1735 C 159.403 0.217423 -2.01631 0
M  V30 1736 C 159.736 1.47983 -1.25756 0
M  V30 1737 O 159.011 1.91274 -0.352764 0
M  V30 1738 C 159.294 0.503982 -3.56556 0
M  V30 1739 C 159.147 -0.77243 -4.43118 0
M  V30 1740 C 160.466 1.30234 -4.20389 0
M  V30 1741 H 157.585 0.0775486 -0.732909 0
M  V30 1742 H 160.227 -0.496863 -1.83388 0
M  V30 1743 H 158.377 1.11248 -3.72231 0
M  V30 1744 H 160.049 -1.4098 -4.39229 0
M  V30 1745 H 158.292 -1.39167 -4.10871 0
M  V30 1746 H 158.963 -0.526815 -5.4948 0
M  V30 1747 H 161.439 0.787546 -4.08579 0
M  V30 1748 H 160.315 1.47158 -5.28806 0
M  V30 1749 H 160.576 2.31237 -3.76805 0
M  V30 1750 N 159.635 1.57281 -0.100228 0
M  V30 1751 C 160.863 1.98879 0.570509 0
M  V30 1752 C 161.278 0.979476 1.61405 0
M  V30 1753 O 160.635 -0.0302288 1.82475 0
M  V30 1754 C 160.686 3.4052 1.2136 0
M  V30 1755 O 160.407 4.37588 0.211786 0
M  V30 1756 C 161.908 3.97149 1.96945 0
M  V30 1757 H 159.128 0.653428 0.152555 0
M  V30 1758 H 161.672 2.03697 -0.18103 0
M  V30 1759 H 159.827 3.367 1.91603 0
M  V30 1760 H 160.241 5.20118 0.676607 0
M  V30 1761 H 161.715 4.98393 2.37294 0
M  V30 1762 H 162.192 3.3525 2.83733 0
M  V30 1763 H 162.798 4.04458 1.31506 0
M  V30 1764 N 161.113 -0.173488 1.56642 0
M  V30 1765 C 162.338 -0.910149 1.86363 0
M  V30 1766 C 162.763 -1.75132 0.686318 0
M  V30 1767 O 162.121 -1.77595 -0.364643 0
M  V30 1768 C 162.169 -1.76447 3.14482 0
M  V30 1769 O 161.273 -2.86584 2.96553 0
M  V30 1770 H 160.614 -0.255086 0.613047 0
M  V30 1771 H 163.144 -0.172283 2.03873 0
M  V30 1772 H 163.154 -2.16483 3.45831 0
M  V30 1773 H 161.829 -1.14658 3.99783 0
M  V30 1774 H 160.406 -2.50146 2.76553 0
M  V30 1775 N 162.591 -1.51276 -0.441967 0
M  V30 1776 C 163.84 -1.6295 -1.18871 0
M  V30 1777 C 164.153 -0.349312 -1.92456 0
M  V30 1778 O 165.359 -0.345355 -2.69295 0
M  V30 1779 C 163.815 -2.87759 -2.16155 0
M  V30 1780 C 163.423 -4.22764 -1.48239 0
M  V30 1781 C 165.167 -3.08788 -2.91291 0
M  V30 1782 C 163.074 -5.38728 -2.4398 0
M  V30 1783 H 162.004 -0.606913 -0.447406 0
M  V30 1784 H 164.655 -1.77739 -0.456205 0
M  V30 1785 H 163.037 -2.66593 -2.92821 0
M  V30 1786 H 164.211 -4.54293 -0.771635 0
M  V30 1787 H 162.526 -4.07575 -0.852741 0
M  V30 1788 H 165.123 -3.92599 -3.63002 0
M  V30 1789 H 165.466 -2.21679 -3.5237 0
M  V30 1790 H 165.999 -3.30272 -2.21733 0
M  V30 1791 H 162.738 -6.28082 -1.87598 0
M  V30 1792 H 162.258 -5.1158 -3.13123 0
M  V30 1793 H 163.937 -5.70489 -3.05207 0
M  V30 1794 N 164.069 0.697108 -1.41344 0
M  V30 1795 C 165.485 1.00751 -1.2378 0
M  V30 1796 C 165.685 2.01105 -0.126066 0
M  V30 1797 O 164.741 2.47295 0.51004 0
M  V30 1798 C 166.054 1.53359 -2.58653 0
M  V30 1799 C 167.602 1.6525 -2.65822 0
M  V30 1800 C 168.077 2.2126 -4.01009 0
M  V30 1801 N 169.568 2.28622 -4.02847 0
M  V30 1802 C 170.303 2.72984 -5.04249 0
M  V30 1803 N 169.799 3.16962 -6.16041 0
M  V30 1804 N 171.592 2.72534 -4.91611 0
M  V30 1805 H 163.743 0.0322662 -2.12375 0
M  V30 1806 H 166.006 0.0768853 -0.944877 0
M  V30 1807 H 165.712 0.870773 -3.4075 0
M  V30 1808 H 165.586 2.51597 -2.81032 0
M  V30 1809 H 167.973 2.30644 -1.84086 0
M  V30 1810 H 168.054 0.655614 -2.47256 0
M  V30 1811 H 167.698 1.56482 -4.83193 0
M  V30 1812 H 167.628 3.21698 -4.16915 0
M  V30 1813 H 170.119 1.97585 -3.22131 0
M  V30 1814 H 170.432 3.49434 -6.89287 0
M  V30 1815 H 168.777 3.14875 -6.1958 0
M  V30 1816 H 171.968 2.37525 -4.0336 0
M  V30 1817 H 172.141 3.06789 -5.70775 0
M  V30 1818 N 165.547 1.27147 0.931209 0
M  V30 1819 C 166.796 1.12664 1.67302 0
M  V30 1820 C 167.109 -0.327718 1.92835 0
M  V30 1821 O 168.315 -0.593392 2.64936 0
M  V30 1822 C 166.771 1.9683 3.01307 0
M  V30 1823 C 166.379 3.46901 2.83485 0
M  V30 1824 C 168.123 1.90985 3.79111 0
M  V30 1825 C 166.03 4.23279 4.13024 0
M  V30 1826 H 164.96 0.41803 0.627509 0
M  V30 1827 H 167.611 1.51539 1.03481 0
M  V30 1828 H 165.993 1.50797 3.66164 0
M  V30 1829 H 167.167 4.00773 2.27415 0
M  V30 1830 H 165.482 3.54088 2.19113 0
M  V30 1831 H 168.079 2.45328 4.75098 0
M  V30 1832 H 168.422 0.882718 4.06834 0
M  V30 1833 H 168.955 2.34895 3.21044 0
M  V30 1834 H 165.694 5.26503 3.90481 0
M  V30 1835 H 165.214 3.74186 4.6877 0
M  V30 1836 H 166.893 4.32265 4.81411 0
M  V30 1837 N 167.025 -1.13721 1.09112 0
M  V30 1838 C 168.436 -1.6648 0.845068 0
M  V30 1839 C 168.787 -1.85911 -0.62701 0
M  V30 1840 O 167.912 -1.57556 -1.48341 0
M  V30 1841 C 168.507 -3.02413 1.52748 0
M  V30 1842 C 167.066 -3.52176 1.32849 0
M  V30 1843 C 166.213 -2.27492 1.58564 0
M  V30 1844 H 169.164 -0.976872 1.25072 0
M  V30 1845 H 169.185 -3.68223 0.958752 0
M  V30 1846 H 168.697 -2.88238 2.59885 0
M  V30 1847 H 166.798 -3.7156 0.278137 0
M  V30 1848 H 166.911 -4.32499 2.0611 0
M  V30 1849 H 165.275 -2.33923 1.00758 0
M  V30 1850 H 166.058 -2.15886 2.66924 0
M  V30 1851 N 168.503 -0.877838 -1.30888 0
M  V30 1852 C 169.728 -0.506629 -2.01117 0
M  V30 1853 C 170.153 0.895564 -1.65412 0
M  V30 1854 O 169.511 1.5923 -0.866922 0
M  V30 1855 C 169.559 -0.680223 -3.54126 0
M  V30 1856 O 168.663 0.277033 -4.11468 0
M  V30 1857 H 168.004 -0.200518 -0.633 0
M  V30 1858 H 170.534 -1.18342 -1.66902 0
M  V30 1859 H 170.544 -0.5765 -4.03907 0
M  V30 1860 H 169.219 -1.70261 -3.79452 0
M  V30 1861 H 167.796 0.127606 -3.72682 0
M  V30 1862 N 169.982 1.44106 -0.638065 0
M  V30 1863 C 170.892 2.34513 0.0637334 0
M  V30 1864 C 171.908 1.53018 0.828346 0
M  V30 1865 O 173.084 1.85723 0.779036 0
M  V30 1866 C 170.149 3.31095 1.02844 0
M  V30 1867 C 169.21 4.28497 0.26244 0
M  V30 1868 C 168.443 5.20465 1.1812 0
M  V30 1869 O 168.666 5.16514 2.42011 0
M  V30 1870 O 167.6 5.98251 0.661774 0
M  V30 1871 H 171.426 2.95989 -0.68003 0
M  V30 1872 H 169.011 1.43994 -0.398252 0
M  V30 1873 H 170.893 3.90526 1.58327 0
M  V30 1874 H 169.568 2.72144 1.7527 0
M  V30 1875 H 168.475 3.72592 -0.335602 0
M  V30 1876 H 169.808 4.90388 -0.421936 0
M  V30 1877 N 171.46 0.379036 1.52974 0
M  V30 1878 C 172.39 -0.452706 2.29069 0
M  V30 1879 C 173.371 -1.07237 1.32039 0
M  V30 1880 O 174.556 -1.08708 1.60923 0
M  V30 1881 C 171.686 -1.5856 3.08992 0
M  V30 1882 C 170.64 -1.0925 4.13822 0
M  V30 1883 C 169.966 -2.31668 4.81907 0
M  V30 1884 C 171.266 -0.167702 5.22031 0
M  V30 1885 H 172.96 0.182181 2.98845 0
M  V30 1886 H 170.506 0.0890592 1.43724 0
M  V30 1887 H 172.459 -2.1742 3.6098 0
M  V30 1888 H 171.183 -2.24792 2.36931 0
M  V30 1889 H 169.842 -0.526494 3.628 0
M  V30 1890 H 169.49 -2.96386 4.06404 0
M  V30 1891 H 169.19 -1.9934 5.52754 0
M  V30 1892 H 170.714 -2.91189 5.36695 0
M  V30 1893 H 172.128 -0.664186 5.6944 0
M  V30 1894 H 170.525 0.0653265 6.00064 0
M  V30 1895 H 171.595 0.786347 4.78482 0
M  V30 1896 N 172.938 -1.57226 0.108567 0
M  V30 1897 C 174.187 -1.94008 -0.551703 0
M  V30 1898 C 174.5 -0.993442 -1.68494 0
M  V30 1899 O 175.706 -1.25551 -2.40726 0
M  V30 1900 C 174.162 -3.44763 -1.03279 0
M  V30 1901 C 173.77 -4.47943 0.0714193 0
M  V30 1902 C 175.514 -3.90483 -1.66503 0
M  V30 1903 C 173.421 -5.89865 -0.425779 0
M  V30 1904 H 172.351 -0.724206 -0.209863 0
M  V30 1905 H 175.002 -1.82547 0.186741 0
M  V30 1906 H 173.384 -3.51422 -1.82533 0
M  V30 1907 H 174.558 -4.52942 0.847365 0
M  V30 1908 H 172.873 -4.11913 0.609669 0
M  V30 1909 H 175.47 -4.93925 -2.04798 0
M  V30 1910 H 175.813 -3.29877 -2.53942 0
M  V30 1911 H 176.346 -3.86581 -0.938074 0
M  V30 1912 H 173.085 -6.54202 0.412316 0
M  V30 1913 H 172.605 -5.88309 -1.16843 0
M  V30 1914 H 174.284 -6.40844 -0.890397 0
M  V30 1915 N 174.416 0.165178 -1.56732 0
M  V30 1916 C 175.662 0.877389 -1.83503 0
M  V30 1917 C 176.017 1.79602 -0.689996 0
M  V30 1918 O 175.31 1.89023 0.313205 0
M  V30 1919 C 175.504 1.70405 -3.1416 0
M  V30 1920 C 175.333 0.866961 -4.41264 0
M  V30 1921 C 174.103 0.539646 -5.0241 0
M  V30 1922 C 176.301 0.205671 -5.13889 0
M  V30 1923 N 174.283 -0.312946 -6.13102 0
M  V30 1924 C 175.654 -0.507823 -6.17917 0
M  V30 1925 C 177.709 0.124468 -4.97744 0
M  V30 1926 C 176.412 -1.29483 -7.0755 0
M  V30 1927 C 178.438 -0.649222 -5.87826 0
M  V30 1928 C 177.8 -1.35106 -6.91322 0
M  V30 1929 H 173.899 0.299477 -0.722383 0
M  V30 1930 H 176.483 0.143949 -1.94167 0
M  V30 1931 H 174.654 2.40887 -3.04677 0
M  V30 1932 H 176.386 2.35804 -3.28905 0
M  V30 1933 H 173.141 0.871176 -4.65519 0
M  V30 1934 H 173.565 -0.729731 -6.73056 0
M  V30 1935 H 178.207 0.652724 -4.17731 0
M  V30 1936 H 175.925 -1.83441 -7.87004 0
M  V30 1937 H 179.511 -0.713804 -5.77405 0
M  V30 1938 H 178.391 -1.94013 -7.59821 0
M  V30 1939 N 175.894 1.51508 0.433938 0
M  V30 1940 C 177.31 1.39759 0.770682 0
M  V30 1941 C 177.51 0.482594 1.95636 0
M  V30 1942 O 176.566 -0.0609691 2.52426 0
M  V30 1943 C 177.879 2.81851 1.04787 0
M  V30 1944 C 179.427 2.91025 1.1521 0
M  V30 1945 C 179.902 4.34032 1.46219 0
M  V30 1946 N 181.393 4.37154 1.53136 0
M  V30 1947 C 182.128 5.4484 1.78709 0
M  V30 1948 N 181.624 6.62682 2.02051 0
M  V30 1949 N 183.417 5.32324 1.80519 0
M  V30 1950 H 175.568 2.09548 -0.346892 0
M  V30 1951 H 177.831 0.943446 -0.0928074 0
M  V30 1952 H 177.537 3.50815 0.249304 0
M  V30 1953 H 177.411 3.21386 1.97461 0
M  V30 1954 H 179.798 2.22257 1.94128 0
M  V30 1955 H 179.879 2.54983 0.204281 0
M  V30 1956 H 179.523 5.03351 0.678274 0
M  V30 1957 H 179.453 4.6759 2.42212 0
M  V30 1958 H 181.944 3.52197 1.36987 0
M  V30 1959 H 182.257 7.40543 2.20943 0
M  V30 1960 H 180.602 6.65791 1.99366 0
M  V30 1961 H 183.793 4.39246 1.61805 0
M  V30 1962 H 183.966 6.16328 2.00111 0
M  V30 1963 N 177.372 -0.689602 1.41712 0
M  V30 1964 C 178.783 -1.26973 1.36875 0
M  V30 1965 C 179.134 -1.96124 0.054748 0
M  V30 1966 O 178.259 -1.99141 -0.84687 0
M  V30 1967 C 178.854 -2.30912 2.47922 0
M  V30 1968 C 177.413 -2.84486 2.46464 0
M  V30 1969 C 176.56 -1.58603 2.27465 0
M  V30 1970 H 179.511 -0.48396 1.51141 0
M  V30 1971 H 179.532 -3.12331 2.17323 0
M  V30 1972 H 179.044 -1.80554 3.43543 0
M  V30 1973 H 177.145 -3.39005 1.54617 0
M  V30 1974 H 177.258 -3.34511 3.42986 0
M  V30 1975 H 175.622 -1.84632 1.75451 0
M  V30 1976 H 176.405 -1.10233 3.25121 0
M  V30 1977 N 178.85 -1.27639 -0.924453 0
M  V30 1978 C 180.127 -1.04887 -1.651 0
M  V30 1979 C 180.507 0.415327 -2.06974 0
M  V30 1980 O 179.855 1.39923 -1.80648 0
M  V30 1981 C 180.065 -2.01348 -2.85061 0
M  V30 1982 C 181.413 -2.30899 -3.56329 0
M  V30 1983 O 182.437 -1.99348 -2.95193 0
M  V30 1984 O 181.296 -2.84699 -4.66485 0
M  V30 1985 H 178.39 -0.400083 -0.723784 0
M  V30 1986 H 180.936 -1.38916 -0.974703 0
M  V30 1987 H 179.708 -3.0008 -2.51133 0
M  V30 1988 H 179.331 -1.679 -3.6041 0
M  V30 1989 N 180.328 1.1314 -1.09713 0
M  V30 1990 C 181.577 1.83838 -0.829851 0
M  V30 1991 C 181.89 1.84599 0.646728 0
M  V30 1992 O 183.096 2.51218 1.02965 0
M  V30 1993 C 181.552 3.30069 -1.43466 0
M  V30 1994 C 181.16 3.37688 -2.94399 0
M  V30 1995 C 182.904 4.05788 -1.24645 0
M  V30 1996 C 180.811 4.78209 -3.47952 0
M  V30 1997 H 179.741 0.68877 -0.306777 0
M  V30 1998 H 182.392 1.27448 -1.3202 0
M  V30 1999 H 180.774 3.8628 -0.871996 0
M  V30 2000 H 181.948 2.91456 -3.56918 0
M  V30 2001 H 180.263 2.75436 -3.12289 0
M  V30 2002 H 182.86 5.09535 -1.62107 0
M  V30 2003 H 183.203 4.15878 -0.187357 0
M  V30 2004 H 183.736 3.55915 -1.77678 0
M  V30 2005 H 180.475 4.73311 -4.53495 0
M  V30 2006 H 179.995 5.24924 -2.90198 0
M  V30 2007 H 181.674 5.47133 -3.45332 0
M  V30 2008 N 181.806 0.884767 1.30421 0
M  V30 2009 C 183.052 0.503851 1.96441 0
M  V30 2010 C 183.385 -0.944518 1.69684 0
M  V30 2011 O 182.66 -1.66737 1.00145 0
M  V30 2012 C 182.943 0.779085 3.51571 0
M  V30 2013 C 182.796 2.27807 3.87846 0
M  V30 2014 C 184.115 0.255452 4.39358 0
M  V30 2015 H 181.234 0.184533 0.713524 0
M  V30 2016 H 183.876 1.10872 1.54297 0
M  V30 2017 H 182.026 0.264274 3.876 0
M  V30 2018 H 183.698 2.86127 3.61841 0
M  V30 2019 H 181.941 2.74479 3.35922 0
M  V30 2020 H 182.612 2.42125 4.96064 0
M  V30 2021 H 185.088 0.696079 4.10236 0
M  V30 2022 H 183.964 0.477361 5.4682 0
M  V30 2023 H 184.225 -0.843293 4.33983 0
M  V30 2024 N 183.284 -1.43765 0.645699 0
M  V30 2025 C 184.214 -2.33471 -0.0370477 0
M  V30 2026 C 185.195 -1.49042 -0.819779 0
M  V30 2027 O 186.38 -1.77726 -0.782758 0
M  V30 2028 C 183.51 -3.32311 -1.0093 0
M  V30 2029 C 182.464 -4.2667 -0.337201 0
M  V30 2030 C 181.79 -5.1549 -1.42037 0
M  V30 2031 C 183.09 -5.16657 0.765706 0
M  V30 2032 H 184.784 -2.90809 0.712069 0
M  V30 2033 H 182.33 -1.39834 0.343876 0
M  V30 2034 H 184.283 -3.9396 -1.49578 0
M  V30 2035 H 183.007 -2.73213 -1.78948 0
M  V30 2036 H 181.666 -3.66374 0.128771 0
M  V30 2037 H 181.314 -4.52735 -2.1918 0
M  V30 2038 H 181.014 -5.79438 -0.975966 0
M  V30 2039 H 182.538 -5.80012 -1.90838 0
M  V30 2040 H 183.952 -5.72158 0.361702 0
M  V30 2041 H 182.349 -5.89286 1.13413 0
M  V30 2042 H 183.419 -4.56796 1.62683 0
M  V30 2043 N 184.763 -0.387143 -1.52771 0
M  V30 2044 C 185.993 0.195585 -2.05672 0
M  V30 2045 C 186.401 1.41241 -1.25887 0
M  V30 2046 O 185.744 1.81265 -0.298081 0
M  V30 2047 C 185.806 0.632327 -3.53895 0
M  V30 2048 C 185.47 -0.470739 -4.54569 0
M  V30 2049 C 186.467 -1.32746 -5.02667 0
M  V30 2050 C 184.152 -0.637151 -4.98243 0
M  V30 2051 C 186.146 -2.33574 -5.93061 0
M  V30 2052 C 183.833 -1.64877 -5.88438 0
M  V30 2053 C 184.831 -2.49649 -6.35739 0
M  V30 2054 O 184.519 -3.49082 -7.24153 0
M  V30 2055 H 184.251 0.033658 -0.675162 0
M  V30 2056 H 186.805 -0.550221 -1.97893 0
M  V30 2057 H 185.035 1.43008 -3.59285 0
M  V30 2058 H 186.724 1.14048 -3.89548 0
M  V30 2059 H 187.49 -1.21019 -4.69659 0
M  V30 2060 H 183.369 0.0129567 -4.60998 0
M  V30 2061 H 186.913 -2.99777 -6.29904 0
M  V30 2062 H 182.81 -1.76643 -6.2086 0
M  V30 2063 H 183.578 -3.45065 -7.42208 0
M  V30 2064 N 186.241 1.57166 -0.116904 0
M  V30 2065 C 187.189 2.16457 0.851418 0
M  V30 2066 C 188.183 1.11323 1.27686 0
M  V30 2067 O 189.389 1.2963 1.24884 0
M  V30 2068 H 185.764 0.69271 0.292672 0
M  V30 2069 H 187.735 2.96605 0.32685 0
M  V30 2070 C 186.484 2.77689 2.09246 0
M  V30 2071 H 185.807 3.58285 1.77402 0
M  V30 2072 H 187.247 3.22716 2.7501 0
M  V30 2073 C 185.706 1.74667 2.88085 0
M  V30 2074 O 186.236 1.19877 3.83396 0
M  V30 2075 N 184.442 1.44656 2.52038 0
M  V30 2076 H 183.989 1.89402 1.74599 0
M  V30 2077 H 183.947 0.759675 3.05084 0
M  V30 2078 N 187.719 -0.156864 1.56817 0
M  V30 2079 C 188.667 -1.21319 1.98455 0
M  V30 2080 C 189.661 -1.45025 0.875444 0
M  V30 2081 O 190.867 -1.45435 1.0606 0
M  V30 2082 H 187.242 -0.408142 0.631605 0
M  V30 2083 H 189.213 -0.835244 2.86472 0
M  V30 2084 C 187.962 -2.54148 2.37285 0
M  V30 2085 H 187.285 -2.36733 3.22176 0
M  V30 2086 H 188.725 -3.26712 2.70251 0
M  V30 2087 C 187.184 -3.13967 1.22173 0
M  V30 2088 O 187.714 -3.98357 0.517149 0
M  V30 2089 N 185.92 -2.7327 0.988536 0
M  V30 2090 H 185.467 -2.04744 1.56326 0
M  V30 2091 H 185.425 -3.13628 0.220209 0
M  V30 2092 N 189.197 -1.51736 -0.425897 0
M  V30 2093 C 190.16 -1.73271 -1.50032 0
M  V30 2094 C 191.16 -0.602639 -1.4908 0
M  V30 2095 O 192.35 -0.87033 -1.509 0
M  V30 2096 C 189.482 -1.79969 -2.89523 0
M  V30 2097 H 190.675 -2.69172 -1.32237 0
M  V30 2098 H 188.228 -1.41899 -0.65532 0
M  V30 2099 H 188.963 -0.859241 -3.1271 0
M  V30 2100 H 188.748 -2.62109 -2.91619 0
M  V30 2101 H 190.238 -1.9843 -3.67444 0
M  V30 2102 N 190.675 0.682077 -1.42076 0
M  V30 2103 C 191.952 1.43755 -1.32642 0
M  V30 2104 C 192.332 2.11063 0.0396611 0
M  V30 2105 O 191.68 2.02701 1.05474 0
M  V30 2106 C 191.89 2.44596 -2.48946 0
M  V30 2107 C 193.238 3.09454 -2.9073 0
M  V30 2108 O 194.262 2.54922 -2.48783 0
M  V30 2109 O 193.121 4.08253 -3.63307 0
M  V30 2110 H 190.215 0.640857 -0.522715 0
M  V30 2111 H 192.761 0.711415 -1.54068 0
M  V30 2112 H 191.533 1.93609 -3.40046 0
M  V30 2113 H 191.156 3.24701 -2.29467 0
M  V30 2114 N 192.153 1.28127 0.917671 0
M  V30 2115 C 193.401 1.14825 1.66312 0
M  V30 2116 C 193.722 -0.304379 1.9261 0
M  V30 2117 O 192.992 -1.21149 1.53947 0
M  V30 2118 H 191.572 0.421953 0.616413 0
M  V30 2119 H 194.234 1.608 1.10134 0
M  V30 2120 H 193.33 1.68489 2.62712 0
M  V30 2121 N 193.631 -1.12557 1.10312 0
M  V30 2122 C 194.908 -1.80363 0.756878 0
M  V30 2123 C 195.288 -1.97067 -0.756824 0
M  V30 2124 O 194.636 -1.54601 -1.68259 0
M  V30 2125 C 194.846 -3.14812 1.50647 0
M  V30 2126 C 196.194 -3.90029 1.67817 0
M  V30 2127 O 197.218 -3.24464 1.46974 0
M  V30 2128 O 196.077 -5.07652 2.02365 0
M  V30 2129 H 193.171 -0.780667 0.272926 0
M  V30 2130 H 195.717 -1.19404 1.20586 0
M  V30 2131 H 194.489 -2.97936 2.53672 0
M  V30 2132 H 194.112 -3.83478 1.05026 0
M  V30 2133 N 195.109 -0.891671 -1.2995 0
M  V30 2134 C 196.356 -0.513501 -1.95881 0
M  V30 2135 C 196.684 0.938655 -1.70351 0
M  V30 2136 O 195.939 1.67936 -1.00478 0
M  V30 2137 C 196.238 -0.742868 -3.49594 0
M  V30 2138 C 195.904 -2.17114 -3.95186 0
M  V30 2139 C 194.566 -2.56169 -4.07346 0
M  V30 2140 C 196.918 -3.10162 -4.18866 0
M  V30 2141 C 194.246 -3.87469 -4.4055 0
M  V30 2142 C 196.598 -4.41001 -4.53542 0
M  V30 2143 C 195.262 -4.79941 -4.63911 0
M  V30 2144 H 194.532 -0.187903 -0.71678 0
M  V30 2145 H 197.179 -1.1288 -1.54694 0
M  V30 2146 H 195.484 -0.044586 -3.91775 0
M  V30 2147 H 197.181 -0.429767 -3.9869 0
M  V30 2148 H 193.771 -1.85801 -3.86233 0
M  V30 2149 H 197.955 -2.81206 -4.08946 0
M  V30 2150 H 193.211 -4.17371 -4.46779 0
M  V30 2151 H 197.385 -5.13133 -4.70815 0
M  V30 2152 H 195.012 -5.81719 -4.89395 0
M  V30 2153 N 196.587 1.43421 -0.653314 0
M  V30 2154 C 197.55 2.29182 0.0287951 0
M  V30 2155 C 198.55 1.42213 0.750465 0
M  V30 2156 O 199.74 1.63843 0.591701 0
M  V30 2157 C 196.872 3.24278 1.05151 0
M  V30 2158 H 198.065 2.90985 -0.725786 0
M  V30 2159 H 195.618 1.50702 -0.414545 0
M  V30 2160 H 196.353 2.6737 1.83532 0
M  V30 2161 H 196.138 3.88396 0.537687 0
M  V30 2162 H 197.628 3.88647 1.52786 0
M  V30 2163 N 198.065 0.39524 1.52563 0
M  V30 2164 C 199.311 -0.185318 2.01952 0
M  V30 2165 C 199.644 -1.45964 1.28095 0
M  V30 2166 O 198.919 -1.90689 0.38315 0
M  V30 2167 C 199.202 -0.447193 3.57312 0
M  V30 2168 C 199.055 0.842828 4.41833 0
M  V30 2169 C 200.374 -1.23529 4.22408 0
M  V30 2170 H 197.493 -0.0658788 0.73405 0
M  V30 2171 H 200.135 0.525975 1.82575 0
M  V30 2172 H 198.285 -1.05312 3.73954 0
M  V30 2173 H 199.957 1.4795 4.36931 0
M  V30 2174 H 198.2 1.45686 4.08605 0
M  V30 2175 H 198.871 0.614165 5.48573 0
M  V30 2176 H 201.347 -0.722445 4.0978 0
M  V30 2177 H 200.223 -1.38727 5.3108 0
M  V30 2178 H 200.484 -2.25213 3.80436 0
M  V30 2179 N 199.544 -1.57102 0.125237 0
M  V30 2180 C 200.772 -1.99761 -0.538797 0
M  V30 2181 C 201.187 -1.00503 -1.59827 0
M  V30 2182 O 200.544 0.00119474 -1.825 0
M  V30 2183 C 200.595 -3.42408 -1.15927 0
M  V30 2184 O 200.316 -4.37869 -0.142143 0
M  V30 2185 C 201.817 -4.00232 -1.90602 0
M  V30 2186 H 199.037 -0.655772 -0.14214 0
M  V30 2187 H 201.581 -2.03383 0.213413 0
M  V30 2188 H 199.736 -3.39706 -1.86223 0
M  V30 2189 H 200.15 -5.21128 -0.593775 0
M  V30 2190 H 201.624 -5.02105 -2.29335 0
M  V30 2191 H 202.101 -3.39721 -2.78363 0
M  V30 2192 H 202.707 -4.06499 -1.25055 0
M  V30 2193 N 201.022 0.148545 -1.56898 0
M  V30 2194 C 201.972 1.1886 -1.94567 0
M  V30 2195 C 202.956 1.3863 -0.816735 0
M  V30 2196 O 204.148 1.40218 -1.08018 0
M  V30 2197 C 201.277 2.52262 -2.32849 0
M  V30 2198 C 200.363 2.36092 -3.52309 0
M  V30 2199 N 200.754 1.89674 -4.6889 0
M  V30 2200 C 199.052 2.66848 -3.57363 0
M  V30 2201 C 199.753 1.86511 -5.50989 0
M  V30 2202 N 198.729 2.29766 -4.92655 0
M  V30 2203 H 202.531 0.821793 -2.82177 0
M  V30 2204 H 200.045 0.356615 -1.58436 0
M  V30 2205 H 202.042 3.27447 -2.58039 0
M  V30 2206 H 200.702 2.89727 -1.46589 0
M  V30 2207 H 201.713 1.59663 -4.92674 0
M  V30 2208 H 198.39 3.08198 -2.81639 0
M  V30 2209 H 199.78 1.52128 -6.54452 0
M  V30 2210 N 202.5 1.5196 0.417844 0
M  V30 2211 C 203.43 1.77634 1.51554 0
M  V30 2212 C 204.411 0.626918 1.58126 0
M  V30 2213 O 205.596 0.871632 1.7354 0
M  V30 2214 C 202.726 1.91911 2.8946 0
M  V30 2215 C 201.68 3.07463 2.97743 0
M  V30 2216 C 201.006 3.06951 4.37819 0
M  V30 2217 C 202.306 4.47082 2.70027 0
M  V30 2218 H 204 2.6955 1.3032 0
M  V30 2219 H 201.546 1.29706 0.625492 0
M  V30 2220 H 203.499 2.08455 3.6623 0
M  V30 2221 H 202.223 0.966598 3.11969 0
M  V30 2222 H 200.882 2.90656 2.23416 0
M  V30 2223 H 200.53 2.09438 4.57323 0
M  V30 2224 H 200.23 3.84556 4.44286 0
M  V30 2225 H 201.754 3.25613 5.16535 0
M  V30 2226 H 203.168 4.6414 3.36522 0
M  V30 2227 H 201.565 5.2654 2.87881 0
M  V30 2228 H 202.635 4.55777 1.65514 0
M  V30 2229 N 203.978 -0.674533 1.42435 0
M  V30 2230 C 205.206 -1.46283 1.46317 0
M  V30 2231 C 205.621 -1.88653 0.0745836 0
M  V30 2232 O 204.978 -1.58151 -0.91074 0
M  V30 2233 C 205.029 -2.71178 2.3905 0
M  V30 2234 O 204.75 -2.30586 3.72507 0
M  V30 2235 C 206.251 -3.64738 2.51955 0
M  V30 2236 H 203.471 -0.450104 0.497642 0
M  V30 2237 H 206.015 -0.828792 1.86953 0
M  V30 2238 H 204.17 -3.3077 2.01667 0
M  V30 2239 H 204.584 -3.11241 4.22172 0
M  V30 2240 H 206.058 -4.49096 3.20962 0
M  V30 2241 H 206.535 -4.10656 1.55752 0
M  V30 2242 H 207.141 -3.11038 2.90061 0
M  V30 2243 N 205.456 -1.28612 -0.910864 0
M  V30 2244 C 206.403 -1.12786 -2.01365 0
M  V30 2245 C 207.373 -0.024201 -1.66082 0
M  V30 2246 O 208.558 -0.189667 -1.89855 0
M  V30 2247 C 205.698 -0.798743 -3.35729 0
M  V30 2248 C 204.811 -1.98173 -3.83864 0
M  V30 2249 C 203.946 -1.59298 -5.06752 0
M  V30 2250 C 202.985 -2.74245 -5.47226 0
M  V30 2251 N 202.122 -2.35842 -6.61304 0
M  V30 2252 H 206.962 -2.07142 -2.14234 0
M  V30 2253 H 204.499 -1.03093 -1.0493 0
M  V30 2254 H 206.457 -0.588662 -4.13026 0
M  V30 2255 H 205.087 0.10789 -3.2262 0
M  V30 2256 H 204.139 -2.30386 -3.02699 0
M  V30 2257 H 205.451 -2.84343 -4.09818 0
M  V30 2258 H 204.605 -1.34513 -5.916 0
M  V30 2259 H 203.344 -0.702618 -4.82612 0
M  V30 2260 H 202.349 -2.99725 -4.60918 0
M  V30 2261 H 203.574 -3.63928 -5.73353 0
M  V30 2262 H 201.52 -1.49279 -6.38789 0
M  V30 2263 H 201.437 -3.15546 -6.86998 0
M  V30 2264 H 202.705 -2.14348 -7.4945 0
M  V30 2265 N 206.934 1.1197 -1.10907 0
M  V30 2266 C 207.897 2.16031 -0.765707 0
M  V30 2267 C 208.897 1.59393 0.212235 0
M  V30 2268 O 210.087 1.74196 -0.0115441 0
M  V30 2269 C 207.219 3.40632 -0.135053 0
M  V30 2270 H 208.412 2.47919 -1.68748 0
M  V30 2271 H 205.965 1.27061 -0.910226 0
M  V30 2272 H 206.7 3.14348 0.797218 0
M  V30 2273 H 206.485 3.8302 -0.838937 0
M  V30 2274 H 207.975 4.17505 0.0892469 0
M  V30 2275 N 208.412 0.89855 1.29475 0
M  V30 2276 C 209.362 0.346767 2.25348 0
M  V30 2277 C 210.346 -0.532509 1.51833 0
M  V30 2278 O 211.538 -0.374714 1.72988 0
M  V30 2279 C 208.667 -0.425681 3.40651 0
M  V30 2280 C 207.753 0.46845 4.21505 0
M  V30 2281 N 208.144 1.57514 4.80648 0
M  V30 2282 C 206.442 0.26603 4.45206 0
M  V30 2283 C 207.143 2.12889 5.41344 0
M  V30 2284 N 206.119 1.42208 5.24669 0
M  V30 2285 H 209.921 1.19219 2.68634 0
M  V30 2286 H 207.435 0.749473 1.44072 0
M  V30 2287 H 209.432 -0.837716 4.08397 0
M  V30 2288 H 208.092 -1.26838 2.98902 0
M  V30 2289 H 209.103 1.95789 4.79465 0
M  V30 2290 H 205.78 -0.538394 4.14014 0
M  V30 2291 H 207.17 3.05901 5.98226 0
M  V30 2292 N 209.89 -1.43072 0.660911 0
M  V30 2293 C 210.82 -2.33497 -0.0122829 0
M  V30 2294 C 211.801 -1.49903 -0.803925 0
M  V30 2295 O 212.986 -1.78546 -0.763864 0
M  V30 2296 C 210.116 -3.33363 -0.973994 0
M  V30 2297 C 209.07 -4.27003 -0.291928 0
M  V30 2298 C 208.396 -5.16967 -1.36562 0
M  V30 2299 C 209.696 -5.15816 0.820462 0
M  V30 2300 H 211.39 -2.90038 0.742873 0
M  V30 2301 H 208.936 -1.39461 0.358688 0
M  V30 2302 H 210.889 -3.95524 -1.45392 0
M  V30 2303 H 209.613 -2.75095 -1.7604 0
M  V30 2304 H 208.272 -3.66217 0.167623 0
M  V30 2305 H 207.92 -4.55034 -2.14366 0
M  V30 2306 H 207.62 -5.80441 -0.914454 0
M  V30 2307 H 209.144 -5.82003 -1.84675 0
M  V30 2308 H 210.558 -5.71742 0.422366 0
M  V30 2309 H 208.955 -5.8805 1.19656 0
M  V30 2310 H 210.025 -4.55045 1.67518 0
M  V30 2311 N 211.368 -0.403325 -1.52352 0
M  V30 2312 C 212.615 0.174347 -2.01748 0
M  V30 2313 C 212.943 1.45636 -1.2892 0
M  V30 2314 O 212.198 1.9193 -0.382258 0
M  V30 2315 C 212.497 0.474665 -3.54234 0
M  V30 2316 C 212.163 -0.717458 -4.45155 0
M  V30 2317 C 210.825 -1.04447 -4.69728 0
M  V30 2318 C 213.177 -1.51432 -4.98716 0
M  V30 2319 C 210.505 -2.16963 -5.45109 0
M  V30 2320 C 212.857 -2.6302 -5.75329 0
M  V30 2321 C 211.521 -2.96213 -5.98175 0
M  V30 2322 H 210.791 0.0637981 -0.738248 0
M  V30 2323 H 213.438 -0.543553 -1.83624 0
M  V30 2324 H 211.743 1.27406 -3.70506 0
M  V30 2325 H 213.44 0.934496 -3.89959 0
M  V30 2326 H 210.03 -0.452596 -4.26204 0
M  V30 2327 H 214.214 -1.27491 -4.79645 0
M  V30 2328 H 209.47 -2.43034 -5.61021 0
M  V30 2329 H 213.644 -3.25158 -6.15829 0
M  V30 2330 H 211.271 -3.83516 -6.56368 0
M  V30 2331 N 212.846 1.57033 -0.133567 0
M  V30 2332 C 213.796 2.12641 0.822671 0
M  V30 2333 C 214.78 1.05081 1.21847 0
M  V30 2334 O 215.972 1.31287 1.18713 0
M  V30 2335 C 213.101 2.74094 2.06706 0
M  V30 2336 C 212.187 3.88757 1.69497 0
M  V30 2337 N 212.578 4.95194 1.03037 0
M  V30 2338 C 210.876 3.99213 1.98859 0
M  V30 2339 C 211.577 5.75414 0.852873 0
M  V30 2340 N 210.553 5.25726 1.3825 0
M  V30 2341 H 214.355 2.92308 0.305537 0
M  V30 2342 H 211.869 1.62256 0.0684276 0
M  V30 2343 H 213.866 3.12285 2.76195 0
M  V30 2344 H 212.526 1.95896 2.5895 0
M  V30 2345 H 213.537 5.13247 0.692669 0
M  V30 2346 H 210.214 3.32075 2.53047 0
M  V30 2347 H 211.604 6.71089 0.330091 0
M  V30 2348 N 214.325 -0.140222 1.56975 0
M  V30 2349 C 215.602 -0.880769 1.74648 0
M  V30 2350 C 215.982 -1.99036 0.703404 0
M  V30 2351 O 215.33 -2.26821 -0.27648 0
M  V30 2352 C 215.54 -1.417 3.18939 0
M  V30 2353 C 216.888 -1.87774 3.80823 0
M  V30 2354 O 217.912 -1.51427 3.2241 0
M  V30 2355 O 216.771 -2.54827 4.83452 0
M  V30 2356 H 213.865 -0.416713 0.714338 0
M  V30 2357 H 216.411 -0.125618 1.69234 0
M  V30 2358 H 215.183 -0.619902 3.86359 0
M  V30 2359 H 214.806 -2.23546 3.28805 0
M  V30 2360 N 215.803 -1.52179 -0.40978 0
M  V30 2361 C 217.051 -1.65878 -1.15451 0
M  V30 2362 C 217.372 -0.390771 -1.91044 0
M  V30 2363 O 216.642 0.594323 -1.86667 0
M  V30 2364 H 215.222 -0.611405 -0.429177 0
M  V30 2365 H 217.884 -1.89219 -0.467134 0
M  V30 2366 H 216.98 -2.49954 -1.86894 0
M  V30 2367 N 217.281 0.66697 -1.42791 0
M  V30 2368 C 218.697 0.981027 -1.25889 0
M  V30 2369 C 218.897 2.00793 -0.168695 0
M  V30 2370 O 217.953 2.48321 0.45747 0
M  V30 2371 C 219.266 1.47838 -2.61848 0
M  V30 2372 C 220.814 1.59575 -2.69267 0
M  V30 2373 C 221.289 2.12704 -4.05612 0
M  V30 2374 N 222.78 2.20026 -4.07606 0
M  V30 2375 C 223.515 2.62227 -5.09926 0
M  V30 2376 N 223.011 3.03824 -6.22626 0
M  V30 2377 N 224.804 2.62045 -4.97281 0
M  V30 2378 H 216.955 -0.0127891 -2.12396 0
M  V30 2379 H 219.218 0.0568258 -0.946295 0
M  V30 2380 H 218.924 0.798299 -3.4252 0
M  V30 2381 H 218.798 2.45579 -2.86305 0
M  V30 2382 H 221.185 2.26687 -1.88936 0
M  V30 2383 H 221.266 0.60302 -2.48591 0
M  V30 2384 H 220.91 1.46198 -4.86404 0
M  V30 2385 H 220.84 3.12782 -4.23645 0
M  V30 2386 H 223.331 1.90708 -3.2625 0
M  V30 2387 H 223.644 3.34734 -6.96544 0
M  V30 2388 H 221.989 3.01662 -6.26119 0
M  V30 2389 H 225.18 2.28916 -4.08308 0
M  V30 2390 H 225.353 2.94613 -5.77154 0
M  V30 2391 N 218.759 1.29093 0.90403 0
M  V30 2392 C 220.005 1.16986 1.65656 0
M  V30 2393 C 220.338 -0.278925 1.92186 0
M  V30 2394 O 219.613 -1.2019 1.5292 0
M  V30 2395 C 219.896 1.97908 3.0084 0
M  V30 2396 C 219.749 3.50903 2.81403 0
M  V30 2397 C 221.068 1.80208 4.01513 0
M  V30 2398 H 218.187 0.426346 0.601164 0
M  V30 2399 H 220.829 1.58518 1.04747 0
M  V30 2400 H 218.979 1.62616 3.52829 0
M  V30 2401 H 220.651 3.96153 2.36348 0
M  V30 2402 H 218.894 3.76045 2.1627 0
M  V30 2403 H 219.565 4.02791 3.77443 0
M  V30 2404 H 222.041 2.11025 3.58619 0
M  V30 2405 H 220.917 2.39184 4.94047 0
M  V30 2406 H 221.178 0.756119 4.35586 0
M  V30 2407 N 220.237 -1.11381 1.11499 0
M  V30 2408 C 221.169 -2.17207 0.731704 0
M  V30 2409 C 222.182 -1.61066 -0.236957 0
M  V30 2410 O 223.371 -1.78489 -0.0197591 0
M  V30 2411 C 220.471 -3.38846 0.0607624 0
M  V30 2412 C 219.644 -4.24451 1.0564 0
M  V30 2413 C 218.703 -5.24562 0.4149 0
M  V30 2414 O 217.729 -5.59071 1.069 0
M  V30 2415 N 218.931 -5.74651 -0.821943 0
M  V30 2416 H 221.696 -2.50699 1.64225 0
M  V30 2417 H 219.257 -1.26908 1.00529 0
M  V30 2418 H 221.249 -4.02911 -0.380139 0
M  V30 2419 H 219.819 -3.03411 -0.752376 0
M  V30 2420 H 219.039 -3.56833 1.67524 0
M  V30 2421 H 220.327 -4.78486 1.72998 0
M  V30 2422 H 219.725 -5.48797 -1.37252 0
M  V30 2423 H 218.282 -6.40549 -1.20582 0
M  V30 2424 N 221.715 -0.905404 -1.28997 0
M  V30 2425 C 222.961 -0.544465 -1.95977 0
M  V30 2426 C 223.316 0.90041 -1.70031 0
M  V30 2427 O 222.609 1.63064 -1.00601 0
M  V30 2428 C 222.803 -0.779906 -3.48787 0
M  V30 2429 C 222.632 -2.24612 -3.89589 0
M  V30 2430 C 221.402 -2.89464 -4.14172 0
M  V30 2431 C 223.6 -3.22182 -4.00878 0
M  V30 2432 N 221.582 -4.26469 -4.41585 0
M  V30 2433 C 222.953 -4.44323 -4.32409 0
M  V30 2434 C 225.008 -3.17694 -3.83373 0
M  V30 2435 C 223.711 -5.62546 -4.48258 0
M  V30 2436 C 225.737 -4.35208 -4.00435 0
M  V30 2437 C 225.099 -5.56121 -4.3233 0
M  V30 2438 H 221.198 -0.248948 -0.741316 0
M  V30 2439 H 223.782 -1.1674 -1.5582 0
M  V30 2440 H 221.953 -0.186308 -3.87953 0
M  V30 2441 H 223.685 -0.383833 -4.02876 0
M  V30 2442 H 220.44 -2.40232 -4.08149 0
M  V30 2443 H 220.864 -4.97283 -4.5939 0
M  V30 2444 H 225.506 -2.25297 -3.57773 0
M  V30 2445 H 223.224 -6.55429 -4.72692 0
M  V30 2446 H 226.81 -4.33228 -3.88336 0
M  V30 2447 H 225.69 -6.45537 -4.45255 0
M  V30 2448 N 223.193 1.4272 -0.668489 0
M  V30 2449 C 224.421 2.05966 -0.196348 0
M  V30 2450 C 224.836 1.50191 1.14403 0
M  V30 2451 O 224.193 0.639208 1.7094 0
M  V30 2452 C 224.244 3.61314 -0.115815 0
M  V30 2453 O 223.965 4.1502 -1.40322 0
M  V30 2454 C 225.466 4.41663 0.380579 0
M  V30 2455 H 222.686 0.663954 -0.0969829 0
M  V30 2456 H 225.23 1.82966 -0.913446 0
M  V30 2457 H 223.385 3.83448 0.551931 0
M  V30 2458 H 223.799 5.08832 -1.27243 0
M  V30 2459 H 225.273 5.5065 0.385848 0
M  V30 2460 H 225.75 4.15792 1.41471 0
M  V30 2461 H 226.356 4.24534 -0.255209 0
M  V30 2462 N 224.671 0.411399 1.52136 0
M  V30 2463 C 226.082 -0.0576826 1.86611 0
M  V30 2464 C 226.433 -1.44238 1.33003 0
M  V30 2465 O 225.558 -2.05759 0.670228 0
M  V30 2466 C 226.153 -0.111448 3.38617 0
M  V30 2467 C 224.712 -0.52487 3.72723 0
M  V30 2468 C 223.859 0.299176 2.75681 0
M  V30 2469 H 226.81 0.628368 1.4573 0
M  V30 2470 H 226.831 -0.926252 3.69054 0
M  V30 2471 H 226.343 0.896488 3.77604 0
M  V30 2472 H 224.444 -1.53936 3.39315 0
M  V30 2473 H 224.557 -0.267681 4.78352 0
M  V30 2474 H 222.921 -0.238814 2.53578 0
M  V30 2475 H 223.704 1.3055 3.17508 0
M  V30 2476 N 226.149 -1.5696 0.141893 0
M  V30 2477 C 227.56 -1.82797 -0.379776 0
M  V30 2478 C 227.911 -1.06033 -1.6508 0
M  V30 2479 O 227.036 -0.304011 -2.14254 0
M  V30 2480 C 227.631 -3.31578 -0.695802 0
M  V30 2481 C 226.19 -3.58014 -1.16201 0
M  V30 2482 C 225.337 -2.76699 -0.182455 0
M  V30 2483 H 228.288 -1.54406 0.366675 0
M  V30 2484 H 228.309 -3.47454 -1.55099 0
M  V30 2485 H 227.821 -3.87421 0.229449 0
M  V30 2486 H 225.922 -3.07553 -2.10338 0
M  V30 2487 H 226.035 -4.66501 -1.09151 0
M  V30 2488 H 224.399 -2.45618 -0.674072 0
M  V30 2489 H 225.182 -3.35311 0.736297 0
M  V30 2490 N 227.627 0.131896 -1.57047 0
M  V30 2491 C 228.59 1.14638 -1.98471 0
M  V30 2492 C 229.59 1.35029 -0.873148 0
M  V30 2493 O 230.78 1.31764 -1.13946 0
M  V30 2494 C 227.912 2.50358 -2.31373 0
M  V30 2495 H 229.105 0.79064 -2.8929 0
M  V30 2496 H 226.658 0.375761 -1.51716 0
M  V30 2497 H 227.393 2.90876 -1.43393 0
M  V30 2498 H 227.178 2.36915 -3.12432 0
M  V30 2499 H 228.668 3.23395 -2.64207 0
M  V30 2500 N 229.106 1.52395 0.401703 0
M  V30 2501 C 230.355 1.66044 1.14509 0
M  V30 2502 C 230.668 0.400216 1.91462 0
M  V30 2503 O 231.874 0.416632 2.68284 0
M  V30 2504 C 230.33 2.93388 2.0845 0
M  V30 2505 C 229.938 4.26545 1.36978 0
M  V30 2506 C 231.682 3.16402 2.83001 0
M  V30 2507 C 229.589 5.45007 2.29611 0
M  V30 2508 H 228.519 0.618562 0.431158 0
M  V30 2509 H 231.17 1.78886 0.40892 0
M  V30 2510 H 229.552 2.74263 2.8565 0
M  V30 2511 H 230.726 4.56179 0.650916 0
M  V30 2512 H 229.041 4.09692 0.74438 0
M  V30 2513 H 231.638 4.02085 3.52465 0
M  V30 2514 H 231.981 2.30943 3.46368 0
M  V30 2515 H 232.514 3.36034 2.12898 0
M  V30 2516 H 229.253 6.32835 1.70879 0
M  V30 2517 H 228.773 5.19702 2.9945 0
M  V30 2518 H 230.452 5.7838 2.89974 0
M  V30 2519 N 230.584 -0.659388 1.43143 0
M  V30 2520 C 231.814 -1.44513 1.47646 0
M  V30 2521 C 232.222 -1.88981 0.0910095 0
M  V30 2522 O 231.565 -1.59702 -0.907789 0
M  V30 2523 C 231.627 -2.71663 2.35456 0
M  V30 2524 C 231.291 -2.49175 3.83094 0
M  V30 2525 C 232.288 -2.1279 4.74359 0
M  V30 2526 C 229.973 -2.63691 4.27519 0
M  V30 2527 C 231.967 -1.9121 6.08044 0
M  V30 2528 C 229.654 -2.41726 5.61259 0
M  V30 2529 C 230.652 -2.0554 6.51339 0
M  V30 2530 O 230.34 -1.838 7.82606 0
M  V30 2531 H 230.072 -0.45064 0.503884 0
M  V30 2532 H 232.626 -0.816248 1.88485 0
M  V30 2533 H 230.856 -3.37089 1.89493 0
M  V30 2534 H 232.545 -3.33595 2.31235 0
M  V30 2535 H 233.311 -2.01157 4.41317 0
M  V30 2536 H 229.19 -2.90832 3.57684 0
M  V30 2537 H 232.734 -1.62889 6.78316 0
M  V30 2538 H 228.631 -2.52959 5.9387 0
M  V30 2539 H 229.399 -1.98275 7.94122 0
M  V30 2540 N 232.062 -1.29571 -0.897171 0
M  V30 2541 C 233.009 -1.14916 -2.00158 0
M  V30 2542 C 233.979 -0.0418149 -1.66047 0
M  V30 2543 O 235.164 -0.209793 -1.89643 0
M  V30 2544 C 232.304 -0.834307 -3.34863 0
M  V30 2545 C 231.417 -2.02234 -3.8174 0
M  V30 2546 C 230.552 -1.64664 -5.05034 0
M  V30 2547 C 229.591 -2.80033 -5.44286 0
M  V30 2548 N 228.728 -2.42843 -6.58765 0
M  V30 2549 H 233.568 -2.09403 -2.12025 0
M  V30 2550 H 231.105 -1.042 -1.0383 0
M  V30 2551 H 233.063 -0.632436 -4.12379 0
M  V30 2552 H 231.693 0.0736656 -3.22716 0
M  V30 2553 H 230.745 -2.33583 -3.00238 0
M  V30 2554 H 232.057 -2.88673 -4.06779 0
M  V30 2555 H 231.211 -1.4078 -5.9014 0
M  V30 2556 H 229.95 -0.753766 -4.8184 0
M  V30 2557 H 228.955 -3.04596 -4.57713 0
M  V30 2558 H 230.18 -3.69989 -5.6946 0
M  V30 2559 H 228.126 -1.56046 -6.3717 0
M  V30 2560 H 228.043 -3.22815 -6.83613 0
M  V30 2561 H 229.311 -2.22285 -7.47134 0
M  V30 2562 N 233.54 1.10788 -1.12088 0
M  V30 2563 C 234.765 1.87002 -0.896949 0
M  V30 2564 C 235.19 1.79933 0.548261 0
M  V30 2565 O 234.548 1.16662 1.38779 0
M  V30 2566 C 234.596 3.3349 -1.37174 0
M  V30 2567 O 233.7 4.08745 -0.547831 0
M  V30 2568 H 233.041 0.580397 -0.322545 0
M  V30 2569 H 235.571 1.39996 -1.49206 0
M  V30 2570 H 235.581 3.84339 -1.36922 0
M  V30 2571 H 234.256 3.37951 -2.42408 0
M  V30 2572 H 232.833 3.6776 -0.617034 0
M  V30 2573 N 235.018 0.912232 1.28515 0
M  V30 2574 C 236.243 0.559774 1.99703 0
M  V30 2575 C 236.668 -0.851393 1.67729 0
M  V30 2576 O 236.026 -1.56875 0.908834 0
M  V30 2577 C 236.074 0.773874 3.52198 0
M  V30 2578 O 235.178 -0.167842 4.12058 0
M  V30 2579 H 234.519 0.21723 0.627461 0
M  V30 2580 H 237.049 1.22725 1.63706 0
M  V30 2581 H 237.059 0.683386 4.02236 0
M  V30 2582 H 235.734 1.80261 3.74805 0
M  V30 2583 H 234.311 -0.0287509 3.72889 0
M  V30 2584 N 236.496 -1.42363 0.676048 0
M  V30 2585 C 237.736 -2.03392 0.20273 0
M  V30 2586 C 238.1 -1.52306 -1.16906 0
M  V30 2587 O 239.301 -2.05129 -1.73711 0
M  V30 2588 C 237.572 -3.56614 0.236947 0
M  V30 2589 S 239.131 -4.38489 -0.165186 0
M  V30 2590 H 235.949 -0.70611 0.0832418 0
M  V30 2591 H 238.551 -1.74093 0.88948 0
M  V30 2592 H 237.255 -3.91293 1.23767 0
M  V30 2593 H 236.786 -3.90587 -0.469596 0
M  V30 2594 H 238.801 -4.76093 -1.39822 0
M  V30 2595 N 237.974 -0.419461 -1.51915 0
M  V30 2596 C 239.199 0.154572 -2.06823 0
M  V30 2597 C 239.624 1.3722 -1.28656 0
M  V30 2598 O 238.982 1.78461 -0.319583 0
M  V30 2599 C 239.03 0.473172 -3.57482 0
M  V30 2600 O 238.134 1.56255 -3.81652 0
M  V30 2601 H 237.475 0.0096924 -0.663929 0
M  V30 2602 H 240.005 -0.595642 -1.95738 0
M  V30 2603 H 240.015 0.728825 -4.01438 0
M  V30 2604 H 238.69 -0.416873 -4.13805 0
M  V30 2605 H 237.267 1.29825 -3.49571 0
M  V30 2606 N 239.452 1.56882 -0.150215 0
M  V30 2607 C 240.701 1.95403 0.500071 0
M  V30 2608 C 241.014 1.03777 1.658 0
M  V30 2609 O 242.22 1.31889 2.37313 0
M  V30 2610 C 240.676 3.4738 0.941018 0
M  V30 2611 C 240.284 4.47596 -0.190158 0
M  V30 2612 C 242.028 3.9476 1.56091 0
M  V30 2613 C 239.935 5.90787 0.269237 0
M  V30 2614 H 238.865 0.729515 0.190588 0
M  V30 2615 H 241.516 1.81988 -0.235074 0
M  V30 2616 H 239.898 3.56138 1.73152 0
M  V30 2617 H 241.072 4.50536 -0.967157 0
M  V30 2618 H 239.387 4.10151 -0.718666 0
M  V30 2619 H 241.984 4.99181 1.9163 0
M  V30 2620 H 242.327 3.36494 2.45107 0
M  V30 2621 H 242.86 3.88932 0.835249 0
M  V30 2622 H 239.599 6.52879 -0.585621 0
M  V30 2623 H 239.119 5.912 1.01204 0
M  V30 2624 H 240.798 6.42979 0.720176 0
M  V30 2625 N 240.93 -0.123565 1.57115 0
M  V30 2626 C 242.207 -0.862196 1.75572 0
M  V30 2627 C 242.587 -1.98279 0.724475 0
M  V30 2628 O 241.935 -2.27102 -0.252407 0
M  V30 2629 C 242.145 -1.38309 3.20424 0
M  V30 2630 C 243.493 -1.83724 3.82793 0
M  V30 2631 O 244.517 -1.47999 3.23998 0
M  V30 2632 O 243.376 -2.49685 4.86127 0
M  V30 2633 H 240.47 -0.409113 0.718718 0
M  V30 2634 H 243.016 -0.107661 1.69358 0
M  V30 2635 H 241.788 -0.578889 3.86994 0
M  V30 2636 H 241.411 -2.20046 3.31158 0
M  V30 2637 N 242.408 -1.52605 -0.393616 0
M  V30 2638 C 243.654 -1.67672 -1.14079 0
M  V30 2639 C 243.987 -0.413121 -1.89755 0
M  V30 2640 O 243.262 0.588952 -1.85369 0
M  V30 2641 C 243.545 -2.9088 -2.12276 0
M  V30 2642 C 243.398 -4.27329 -1.40394 0
M  V30 2643 C 244.717 -3.09628 -3.12759 0
M  V30 2644 H 241.836 -0.610168 -0.413356 0
M  V30 2645 H 244.478 -1.85193 -0.424696 0
M  V30 2646 H 242.628 -2.76073 -2.73342 0
M  V30 2647 H 244.3 -4.53894 -0.82327 0
M  V30 2648 H 242.543 -4.2802 -0.705801 0
M  V30 2649 H 243.214 -5.09615 -2.12123 0
M  V30 2650 H 245.69 -3.23436 -2.61779 0
M  V30 2651 H 244.566 -3.97322 -3.78717 0
M  V30 2652 H 244.827 -2.23637 -3.81365 0
M  V30 2653 N 243.887 0.651787 -1.4349 0
M  V30 2654 C 245.115 1.43937 -1.48626 0
M  V30 2655 C 245.53 1.8851 -0.104587 0
M  V30 2656 O 244.887 1.5958 0.885464 0
M  V30 2657 C 244.938 2.6734 -2.43334 0
M  V30 2658 O 244.659 2.24631 -3.76128 0
M  V30 2659 C 246.16 3.60683 -2.57726 0
M  V30 2660 H 243.38 0.44213 -0.504739 0
M  V30 2661 H 245.924 0.798944 -1.88248 0
M  V30 2662 H 244.079 3.2752 -2.06904 0
M  V30 2663 H 244.493 3.04485 -4.2707 0
M  V30 2664 H 245.967 4.43933 -3.28067 0
M  V30 2665 H 246.444 4.08126 -1.62265 0
M  V30 2666 H 247.05 3.06384 -2.94973 0
M  V30 2667 N 245.365 1.30045 0.890287 0
M  V30 2668 C 246.612 1.18561 1.64163 0
M  V30 2669 C 246.94 -0.260852 1.92743 0
M  V30 2670 O 246.195 -1.20376 1.54299 0
M  V30 2671 C 246.494 1.95409 2.99249 0
M  V30 2672 C 246.16 3.45066 2.90242 0
M  V30 2673 C 244.822 3.85878 2.87492 0
M  V30 2674 C 247.174 4.4039 2.78758 0
M  V30 2675 C 244.502 5.20314 2.7109 0
M  V30 2676 C 246.854 5.74928 2.63894 0
M  V30 2677 C 245.518 6.14986 2.59516 0
M  V30 2678 H 244.788 0.433846 0.600715 0
M  V30 2679 H 247.435 1.61088 1.03552 0
M  V30 2680 H 245.74 1.45501 3.63781 0
M  V30 2681 H 247.437 1.8392 3.56334 0
M  V30 2682 H 244.027 3.12631 2.93189 0
M  V30 2683 H 248.211 4.09806 2.79952 0
M  V30 2684 H 243.467 5.50449 2.66112 0
M  V30 2685 H 247.641 6.48434 2.53981 0
M  V30 2686 H 245.268 7.19104 2.46565 0
M  V30 2687 N 246.843 -1.10192 1.12674 0
M  V30 2688 C 248.09 -1.82205 0.883606 0
M  V30 2689 C 248.418 -1.8532 -0.590492 0
M  V30 2690 O 247.673 -1.31137 -1.45264 0
M  V30 2691 C 247.972 -3.28552 1.4067 0
M  V30 2692 C 247.638 -3.45582 2.89627 0
M  V30 2693 C 246.3 -3.49937 3.30299 0
M  V30 2694 C 248.652 -3.50768 3.85501 0
M  V30 2695 C 245.98 -3.57049 4.65546 0
M  V30 2696 C 248.332 -3.59414 5.20581 0
M  V30 2697 C 246.996 -3.62034 5.60792 0
M  V30 2698 H 246.266 -0.666735 0.323334 0
M  V30 2699 H 248.913 -1.29868 1.40736 0
M  V30 2700 H 247.218 -3.83473 0.80347 0
M  V30 2701 H 248.915 -3.82788 1.19475 0
M  V30 2702 H 245.505 -3.42871 2.57172 0
M  V30 2703 H 249.689 -3.46651 3.55171 0
M  V30 2704 H 244.945 -3.57361 4.96088 0
M  V30 2705 H 249.119 -3.62371 5.94693 0
M  V30 2706 H 246.746 -3.67298 6.6558 0
M  V30 2707 N 248.321 -0.919034 -1.28029 0
M  V30 2708 C 249.732 -0.600735 -1.76771 0
M  V30 2709 C 250.083 0.884024 -1.75156 0
M  V30 2710 O 249.208 1.69163 -1.34956 0
M  V30 2711 C 249.803 -1.08372 -3.21 0
M  V30 2712 C 248.362 -0.816248 -3.67443 0
M  V30 2713 C 247.509 -1.24742 -2.47658 0
M  V30 2714 H 250.46 -1.09974 -1.14418 0
M  V30 2715 H 250.481 -0.427512 -3.78091 0
M  V30 2716 H 249.993 -2.16437 -3.22144 0
M  V30 2717 H 248.094 0.250968 -3.71754 0
M  V30 2718 H 248.207 -1.4277 -4.57333 0
M  V30 2719 H 246.571 -0.666083 -2.45836 0
M  V30 2720 H 247.354 -2.33653 -2.51518 0
M  V30 2721 N 249.799 1.42003 -0.683588 0
M  V30 2722 C 251.046 2.01413 -0.209514 0
M  V30 2723 C 251.374 1.54088 1.1869 0
M  V30 2724 O 250.629 0.737591 1.81268 0
M  V30 2725 C 250.928 3.56827 -0.202357 0
M  V30 2726 C 250.594 4.23617 -1.54464 0
M  V30 2727 C 249.256 4.41577 -1.91215 0
M  V30 2728 C 251.608 4.61178 -2.42826 0
M  V30 2729 C 248.936 4.9437 -3.15935 0
M  V30 2730 C 251.288 5.15355 -3.66867 0
M  V30 2731 C 249.952 5.31528 -4.03776 0
M  V30 2732 H 249.222 0.737023 -0.0766668 0
M  V30 2733 H 251.869 1.70067 -0.880312 0
M  V30 2734 H 250.174 3.87892 0.551969 0
M  V30 2735 H 251.871 4.00588 0.181793 0
M  V30 2736 H 248.461 4.10004 -1.24877 0
M  V30 2737 H 252.645 4.46968 -2.15717 0
M  V30 2738 H 247.901 5.05076 -3.44541 0
M  V30 2739 H 252.075 5.43402 -4.35531 0
M  V30 2740 H 249.702 5.72199 -5.00492 0
M  V30 2741 N 251.277 0.427512 1.51691 0
M  V30 2742 C 252.554 -0.201684 1.94557 0
M  V30 2743 C 252.934 -1.60981 1.36559 0
M  V30 2744 O 252.282 -2.21814 0.548702 0
M  V30 2745 C 252.492 -0.189394 3.48486 0
M  V30 2746 C 253.84 -0.39978 4.22714 0
M  V30 2747 O 254.864 -0.267945 3.55191 0
M  V30 2748 O 253.723 -0.661249 5.42485 0
M  V30 2749 H 250.817 -0.135261 0.815864 0
M  V30 2750 H 253.363 0.484782 1.62628 0
M  V30 2751 H 252.135 0.795431 3.8313 0
M  V30 2752 H 251.758 -0.919187 3.86829 0
M  V30 2753 N 252.755 -1.56801 0.158532 0
M  V30 2754 C 253.687 -2.14488 -0.807923 0
M  V30 2755 C 254.7 -1.09721 -1.20271 0
M  V30 2756 O 255.889 -1.36956 -1.14478 0
M  V30 2757 C 252.989 -2.66217 -2.09718 0
M  V30 2758 C 252.162 -3.95507 -1.86796 0
M  V30 2759 C 251.221 -4.3243 -2.99818 0
M  V30 2760 O 250.247 -5.00543 -2.71008 0
M  V30 2761 N 251.449 -3.92947 -4.27285 0
M  V30 2762 H 254.214 -2.98042 -0.314816 0
M  V30 2763 H 251.775 -1.61881 -0.0246692 0
M  V30 2764 H 253.767 -2.87924 -2.84398 0
M  V30 2765 H 252.337 -1.87324 -2.50257 0
M  V30 2766 H 251.557 -3.82309 -0.96089 0
M  V30 2767 H 252.845 -4.79972 -1.68833 0
M  V30 2768 H 252.243 -3.38087 -4.53557 0
M  V30 2769 H 250.8 -4.19681 -4.9871 0
M  V30 2770 N 254.233 0.115231 -1.57178 0
M  V30 2771 C 255.165 1.16694 -1.97269 0
M  V30 2772 C 256.178 1.37445 -0.872502 0
M  V30 2773 O 257.367 1.36454 -1.15077 0
M  V30 2774 C 254.467 2.52627 -2.25905 0
M  V30 2775 C 253.64 2.52427 -3.57211 0
M  V30 2776 C 252.699 3.70134 -3.74016 0
M  V30 2777 O 251.725 3.53546 -4.46087 0
M  V30 2778 N 252.927 4.88844 -3.13068 0
M  V30 2779 H 255.692 0.82588 -2.88096 0
M  V30 2780 H 253.253 0.304461 -1.59011 0
M  V30 2781 H 255.245 3.29937 -2.34359 0
M  V30 2782 H 253.815 2.789 -1.41186 0
M  V30 2783 H 253.035 1.60805 -3.5991 0
M  V30 2784 H 254.323 2.49353 -4.43509 0
M  V30 2785 H 253.721 5.05225 -2.54489 0
M  V30 2786 H 252.278 5.63817 -3.27037 0
M  V30 2787 N 255.711 1.52812 0.385517 0
M  V30 2788 C 256.659 1.78482 1.49155 0
M  V30 2789 C 257.653 0.652914 1.56312 0
M  V30 2790 O 258.859 0.835464 1.59436 0
M  V30 2791 H 255.234 0.5648 0.496493 0
M  V30 2792 H 257.205 2.71095 1.24699 0
M  V30 2793 C 255.954 1.97378 2.86247 0
M  V30 2794 H 255.277 2.83907 2.81491 0
M  V30 2795 H 256.717 2.19327 3.62866 0
M  V30 2796 C 255.176 0.74728 3.28508 0
M  V30 2797 O 255.706 -0.0736232 4.01633 0
M  V30 2798 N 253.912 0.576396 2.84826 0
M  V30 2799 H 253.459 1.24555 2.25486 0
M  V30 2800 H 253.417 -0.24288 3.1346 0
M  V30 2801 N 257.189 -0.644168 1.43834 0
M  V30 2802 C 258.429 -1.41565 1.47441 0
M  V30 2803 C 258.793 -1.91743 0.0992723 0
M  V30 2804 O 259.994 -2.68798 0.0100192 0
M  V30 2805 C 258.265 -2.55902 2.49498 0
M  V30 2806 S 259.824 -3.44287 2.72051 0
M  V30 2807 H 256.642 -0.483118 0.521649 0
M  V30 2808 H 259.244 -0.747008 1.80666 0
M  V30 2809 H 257.948 -2.17327 3.48134 0
M  V30 2810 H 257.479 -3.27607 2.17801 0
M  V30 2811 H 259.494 -4.52927 2.0266 0
M  V30 2812 N 258.668 -1.30515 -0.883378 0
M  V30 2813 C 259.896 -1.22359 -1.66841 0
M  V30 2814 C 260.311 0.213296 -1.87591 0
M  V30 2815 O 259.668 1.14075 -1.42454 0
M  V30 2816 C 259.719 -1.95011 -3.04389 0
M  V30 2817 O 259.44 -3.3309 -2.84575 0
M  V30 2818 C 260.941 -1.93532 -3.98824 0
M  V30 2819 H 258.161 -0.423371 -0.520575 0
M  V30 2820 H 260.705 -1.72167 -1.10357 0
M  V30 2821 H 258.86 -1.48997 -3.57601 0
M  V30 2822 H 259.274 -3.69907 -3.71846 0
M  V30 2823 H 260.748 -2.48902 -4.92699 0
M  V30 2824 H 261.225 -0.914627 -4.29571 0
M  V30 2825 H 261.831 -2.39364 -3.51547 0
M  V30 2826 N 260.146 1.09593 -1.13257 0
M  V30 2827 C 261.079 2.15451 -0.752061 0
M  V30 2828 C 262.057 1.60493 0.260913 0
M  V30 2829 O 263.241 1.8788 0.152819 0
M  V30 2830 C 260.368 3.38506 -0.114594 0
M  V30 2831 C 259.414 4.12183 -1.09579 0
M  V30 2832 S 260.247 4.6661 -2.62745 0
M  V30 2833 C 261.403 5.92966 -2.00354 0
M  V30 2834 H 261.636 2.47395 -1.64872 0
M  V30 2835 H 259.169 1.21515 -0.952545 0
M  V30 2836 H 261.127 4.09757 0.246808 0
M  V30 2837 H 259.788 3.04784 0.759309 0
M  V30 2838 H 258.981 5.00445 -0.597545 0
M  V30 2839 H 258.583 3.46785 -1.40057 0
M  V30 2840 H 260.875 6.63882 -1.35156 0
M  V30 2841 H 261.818 6.47467 -2.86691 0
M  V30 2842 H 262.226 5.45405 -1.4558 0
M  V30 2843 N 261.624 0.925811 1.2754 0
M  V30 2844 C 262.571 0.422045 2.26908 0
M  V30 2845 C 263.541 -0.510029 1.58076 0
M  V30 2846 O 264.726 -0.429599 1.85901 0
M  V30 2847 C 261.866 -0.320837 3.43605 0
M  V30 2848 C 260.979 0.64513 4.27156 0
M  V30 2849 C 260.114 -0.117405 5.3107 0
M  V30 2850 C 259.153 0.841391 6.0629 0
M  V30 2851 N 258.29 0.111604 7.02011 0
M  V30 2852 H 263.13 1.27441 2.69375 0
M  V30 2853 H 260.667 0.639697 1.32462 0
M  V30 2854 H 262.625 -0.76785 4.10073 0
M  V30 2855 H 261.255 -1.13745 3.02096 0
M  V30 2856 H 260.307 1.21067 3.6062 0
M  V30 2857 H 261.619 1.37797 4.79389 0
M  V30 2858 H 260.773 -0.624422 6.03478 0
M  V30 2859 H 259.512 -0.883219 4.79636 0
M  V30 2860 H 258.517 1.35967 5.32722 0
M  V30 2861 H 259.742 1.60696 6.59813 0
M  V30 2862 H 257.688 -0.635999 6.5291 0
M  V30 2863 H 257.605 0.784044 7.51923 0
M  V30 2864 H 258.873 -0.374823 7.78598 0
M  V30 2865 N 263.102 -1.41638 0.69111 0
M  V30 2866 C 264.349 -2.01299 0.220193 0
M  V30 2867 C 264.677 -1.54715 -1.17871 0
M  V30 2868 O 263.932 -0.747193 -1.80874 0
M  V30 2869 C 264.231 -3.56714 0.221277 0
M  V30 2870 C 263.897 -4.22792 1.56709 0
M  V30 2871 C 262.559 -4.40557 1.93554 0
M  V30 2872 C 264.911 -4.59883 2.45268 0
M  V30 2873 C 262.239 -4.92688 3.18552 0
M  V30 2874 C 264.591 -5.13403 3.69595 0
M  V30 2875 C 263.255 -5.29379 4.06589 0
M  V30 2876 H 262.525 -0.736606 0.0805743 0
M  V30 2877 H 265.172 -1.69598 0.889319 0
M  V30 2878 H 263.477 -3.8818 -0.531391 0
M  V30 2879 H 265.174 -4.00678 -0.160547 0
M  V30 2880 H 261.764 -4.09336 1.2705 0
M  V30 2881 H 265.948 -4.45817 2.18084 0
M  V30 2882 H 261.204 -5.03242 3.47214 0
M  V30 2883 H 265.378 -5.41084 4.38407 0
M  V30 2884 H 263.005 -5.69537 5.03519 0
M  V30 2885 N 264.58 -0.43555 -1.51462 0
M  V30 2886 C 265.828 0.131254 -2.01673 0
M  V30 2887 C 266.149 1.43368 -1.32177 0
M  V30 2888 O 265.419 1.90524 -0.455769 0
M  V30 2889 H 263.999 0.0514954 -0.745223 0
M  V30 2890 H 266.661 -0.577847 -1.86137 0
M  V30 2891 H 265.757 0.308446 -3.10572 0
M  V30 2892 N 266.058 1.56714 -0.166846 0
M  V30 2893 C 267.283 2.01557 0.488833 0
M  V30 2894 C 267.708 1.0463 1.56314 0
M  V30 2895 O 267.066 0.0251304 1.81283 0
M  V30 2896 C 267.114 3.4503 1.04818 0
M  V30 2897 O 266.218 3.51163 2.16236 0
M  V30 2898 H 265.559 0.653516 0.117526 0
M  V30 2899 H 268.089 2.02818 -0.269421 0
M  V30 2900 H 268.099 3.84243 1.37191 0
M  V30 2901 H 266.774 4.15077 0.261572 0
M  V30 2902 H 265.351 3.23807 1.84942 0
M  V30 2903 N 267.536 -0.106894 1.57237 0
M  V30 2904 C 268.782 -0.808678 1.86633 0
M  V30 2905 C 269.137 -1.76917 0.756178 0
M  V30 2906 O 268.43 -1.90055 -0.242834 0
M  V30 2907 C 268.624 -1.58628 3.20268 0
M  V30 2908 C 268.453 -0.702592 4.44178 0
M  V30 2909 C 267.223 -0.352808 5.04067 0
M  V30 2910 C 269.421 -0.0148031 5.14298 0
M  V30 2911 N 267.403 0.540279 6.11518 0
M  V30 2912 C 268.774 0.736809 6.15606 0
M  V30 2913 C 270.829 0.0603524 4.97863 0
M  V30 2914 C 269.532 1.55654 7.02257 0
M  V30 2915 C 271.558 0.866942 5.85011 0
M  V30 2916 C 270.92 1.60671 6.85831 0
M  V30 2917 H 267.019 -0.27246 0.733001 0
M  V30 2918 H 269.603 -0.0717858 1.94568 0
M  V30 2919 H 267.774 -2.29413 3.13408 0
M  V30 2920 H 269.506 -2.23434 3.3743 0
M  V30 2921 H 266.261 -0.697802 4.68431 0
M  V30 2922 H 266.685 0.979029 6.69884 0
M  V30 2923 H 271.327 -0.497236 4.19866 0
M  V30 2924 H 269.045 2.12524 7.79653 0
M  V30 2925 H 272.631 0.927612 5.74358 0
M  V30 2926 H 271.511 2.2208 7.52097 0
M  V30 2927 N 269.014 -1.53014 -0.377408 0
M  V30 2928 C 270.242 -1.72515 -1.14219 0
M  V30 2929 C 270.657 -0.448735 -1.8339 0
M  V30 2930 O 270.014 0.577592 -1.73119 0
M  V30 2931 C 270.065 -2.8826 -2.18148 0
M  V30 2932 O 269.786 -4.10962 -1.51795 0
M  V30 2933 C 271.287 -3.19536 -3.07264 0
M  V30 2934 H 268.507 -0.577301 -0.342001 0
M  V30 2935 H 271.051 -1.99712 -0.439935 0
M  V30 2936 H 269.206 -2.63492 -2.83991 0
M  V30 2937 H 269.62 -4.75693 -2.20945 0
M  V30 2938 H 271.094 -4.03959 -3.76193 0
M  V30 2939 H 271.571 -2.34403 -3.71419 0
M  V30 2940 H 272.177 -3.46186 -2.47053 0
M  V30 2941 N 270.492 0.636531 -1.44174 0
M  V30 2942 C 271.722 1.42146 -1.49927 0
M  V30 2943 C 272.13 1.88812 -0.121063 0
M  V30 2944 O 271.473 1.61126 0.882267 0
M  V30 2945 C 271.535 2.67883 -2.39748 0
M  V30 2946 C 271.199 2.43048 -3.8701 0
M  V30 2947 C 272.196 2.05216 -4.77684 0
M  V30 2948 C 269.881 2.56856 -4.3166 0
M  V30 2949 C 271.875 1.81512 -6.11009 0
M  V30 2950 C 269.562 2.32766 -5.65034 0
M  V30 2951 C 270.56 1.95152 -6.54526 0
M  V30 2952 O 270.248 1.71326 -7.85431 0
M  V30 2953 H 269.98 0.442567 -0.51099 0
M  V30 2954 H 272.534 0.786158 -1.8976 0
M  V30 2955 H 270.764 3.34032 -1.94832 0
M  V30 2956 H 272.453 3.29874 -2.36513 0
M  V30 2957 H 273.219 1.94111 -4.44462 0
M  V30 2958 H 269.098 2.85104 -3.62266 0
M  V30 2959 H 272.642 1.52077 -6.80822 0
M  V30 2960 H 268.539 2.43479 -5.97819 0
M  V30 2961 H 269.307 1.85616 -7.97176 0
M  V30 2962 N 271.97 1.30982 0.876444 0
M  V30 2963 C 273.247 1.10942 1.61094 0
M  V30 2964 C 273.627 -0.338223 2.08373 0
M  V30 2965 O 272.975 -1.33122 1.85717 0
M  V30 2966 C 273.185 2.11789 2.77392 0
M  V30 2967 C 274.533 2.43965 3.47514 0
M  V30 2968 O 275.557 2.10166 2.87591 0
M  V30 2969 O 274.416 3.01817 4.55597 0
M  V30 2970 H 271.51 0.42667 0.708436 0
M  V30 2971 H 274.056 1.42438 0.922474 0
M  V30 2972 H 272.828 3.09194 2.39823 0
M  V30 2973 H 272.451 1.81161 3.5393 0
M  V30 2974 N 273.449 -1.08991 1.13837 0
M  V30 2975 C 274.396 -2.15748 0.819835 0
M  V30 2976 C 275.366 -1.64636 -0.220026 0
M  V30 2977 O 276.551 -1.90582 -0.0912757 0
M  V30 2978 C 273.691 -3.4382 0.296913 0
M  V30 2979 C 272.804 -4.0881 1.39636 0
M  V30 2980 C 271.939 -5.24655 0.831314 0
M  V30 2981 C 270.978 -5.81575 1.90886 0
M  V30 2982 N 270.115 -6.88774 1.36142 0
M  V30 2983 H 274.955 -2.42338 1.73426 0
M  V30 2984 H 272.492 -1.18935 0.865613 0
M  V30 2985 H 274.45 -4.17193 -0.0244339 0
M  V30 2986 H 273.08 -3.17535 -0.580628 0
M  V30 2987 H 272.132 -3.33258 1.83422 0
M  V30 2988 H 273.444 -4.47141 2.21058 0
M  V30 2989 H 272.598 -6.04942 0.461515 0
M  V30 2990 H 271.337 -4.87698 -0.013932 0
M  V30 2991 H 270.342 -4.99946 2.28767 0
M  V30 2992 H 271.567 -6.20592 2.75758 0
M  V30 2993 H 269.513 -6.53788 0.538254 0
M  V30 2994 H 269.43 -7.25898 2.11208 0
M  V30 2995 H 270.698 -7.72806 1.01933 0
M  V30 2996 N 274.927 -0.932562 -1.27047 0
M  V30 2997 C 275.89 -0.440064 -2.24936 0
M  V30 2998 C 276.89 0.444071 -1.54547 0
M  V30 2999 O 278.08 0.244465 -1.72476 0
M  V30 3000 C 275.212 0.36678 -3.38921 0
M  V30 3001 H 276.405 -1.305 -2.70018 0
M  V30 3002 H 273.958 -0.713707 -1.39054 0
M  V30 3003 H 274.693 1.25033 -2.99228 0
M  V30 3004 H 274.478 -0.267204 -3.91188 0
M  V30 3005 H 275.968 0.701567 -4.11665 0
M  V30 3006 N 276.405 1.4127 -0.698611 0
M  V30 3007 C 277.352 2.30773 -0.0352094 0
M  V30 3008 C 278.322 1.47273 0.768111 0
M  V30 3009 O 279.507 1.76053 0.735524 0
M  V30 3010 C 276.647 3.33346 0.893 0
M  V30 3011 C 275.76 4.31924 0.0809695 0
M  V30 3012 C 274.895 5.21566 1.0071 0
M  V30 3013 C 273.934 6.11811 0.188155 0
M  V30 3014 N 273.071 6.93926 1.06825 0
M  V30 3015 H 277.911 2.86943 -0.804207 0
M  V30 3016 H 275.448 1.4132 -0.408294 0
M  V30 3017 H 277.406 3.91368 1.44523 0
M  V30 3018 H 276.036 2.78719 1.62836 0
M  V30 3019 H 275.088 3.75825 -0.588224 0
M  V30 3020 H 276.4 4.95716 -0.553801 0
M  V30 3021 H 275.554 5.84437 1.62845 0
M  V30 3022 H 274.293 4.58008 1.67572 0
M  V30 3023 H 273.298 5.47986 -0.446254 0
M  V30 3024 H 274.523 6.77425 -0.476716 0
M  V30 3025 H 272.469 6.32973 1.72283 0
M  V30 3026 H 272.386 7.54416 0.489123 0
M  V30 3027 H 273.654 7.61262 1.67632 0
M  V30 3028 N 277.883 0.443576 1.51229 0
M  V30 3029 C 279.132 -0.122332 2.01329 0
M  V30 3030 C 279.445 -1.43237 1.33201 0
M  V30 3031 O 280.651 -2.0816 1.74304 0
M  V30 3032 C 279.107 -0.268551 3.58897 0
M  V30 3033 C 278.715 1.03142 4.35965 0
M  V30 3034 C 280.459 -0.787894 4.17124 0
M  V30 3035 C 278.366 0.850504 5.85252 0
M  V30 3036 H 277.296 -0.0494929 0.752374 0
M  V30 3037 H 279.947 0.574289 1.74282 0
M  V30 3038 H 278.329 -1.02832 3.82415 0
M  V30 3039 H 279.503 1.80001 4.24189 0
M  V30 3040 H 277.818 1.47977 3.89219 0
M  V30 3041 H 280.415 -0.939841 5.26375 0
M  V30 3042 H 280.758 -1.77201 3.76703 0
M  V30 3043 H 281.291 -0.0862669 3.97706 0
M  V30 3044 H 278.03 1.80718 6.30096 0
M  V30 3045 H 277.55 0.121825 5.99676 0
M  V30 3046 H 279.229 0.506163 6.45017 0
M  V30 3047 N 279.361 -1.56624 0.175154 0
M  V30 3048 C 280.638 -1.88688 -0.515373 0
M  V30 3049 C 281.018 -1.08564 -1.81044 0
M  V30 3050 O 280.366 -0.180703 -2.27784 0
M  V30 3051 C 280.576 -3.40768 -0.753552 0
M  V30 3052 C 281.924 -4.10587 -1.08184 0
M  V30 3053 O 282.948 -3.46106 -0.841961 0
M  V30 3054 O 281.807 -5.24512 -1.53459 0
M  V30 3055 H 278.901 -0.78301 -0.26613 0
M  V30 3056 H 281.447 -1.68347 0.213877 0
M  V30 3057 H 280.219 -3.90965 0.161829 0
M  V30 3058 H 279.842 -3.66733 -1.53598 0
M  V30 3059 N 280.839 0.0985539 -1.57292 0
M  V30 3060 C 281.769 1.12064 -2.04851 0
M  V30 3061 C 282.75 1.41981 -0.936767 0
M  V30 3062 O 283.935 1.52071 -1.20781 0
M  V30 3063 C 281.065 2.44144 -2.47004 0
M  V30 3064 C 280.019 2.28643 -3.6181 0
M  V30 3065 C 279.345 3.65869 -3.89929 0
M  V30 3066 C 280.645 1.72986 -4.92822 0
M  V30 3067 H 282.339 0.724979 -2.9049 0
M  V30 3068 H 279.885 0.34729 -1.39749 0
M  V30 3069 H 281.838 3.15914 -2.78884 0
M  V30 3070 H 280.562 2.85639 -1.5836 0
M  V30 3071 H 279.221 1.59318 -3.30172 0
M  V30 3072 H 278.869 4.04885 -2.98458 0
M  V30 3073 H 278.569 3.56344 -4.67218 0
M  V30 3074 H 280.093 4.39112 -4.2428 0
M  V30 3075 H 281.507 2.34593 -5.23105 0
M  V30 3076 H 279.904 1.74229 -5.74251 0
M  V30 3077 H 280.974 0.689007 -4.7998 0
M  V30 3078 N 282.317 1.53212 0.369288 0
M  V30 3079 C 283.563 1.69466 1.11397 0
M  V30 3080 C 283.896 0.443257 1.89074 0
M  V30 3081 O 283.171 -0.559386 1.86282 0
M  V30 3082 C 283.454 2.9422 2.07621 0
M  V30 3083 C 283.307 4.29508 1.33577 0
M  V30 3084 C 284.626 3.14565 3.07794 0
M  V30 3085 H 281.745 0.616667 0.403597 0
M  V30 3086 H 284.387 1.85845 0.395179 0
M  V30 3087 H 282.537 2.80387 2.68916 0
M  V30 3088 H 284.209 4.55147 0.750955 0
M  V30 3089 H 282.452 4.29088 0.637618 0
M  V30 3090 H 283.123 5.12926 2.03989 0
M  V30 3091 H 285.599 3.2756 2.56601 0
M  V30 3092 H 284.475 4.03297 3.72348 0
M  V30 3093 H 284.736 2.29675 3.77759 0
M  V30 3094 N 283.795 -0.628877 1.44509 0
M  V30 3095 C 284.743 -1.76193 1.51852 0
M  V30 3096 C 285.737 -1.64849 0.390042 0
M  V30 3097 O 286.943 -1.709 0.565082 0
M  V30 3098 H 283.318 -0.581728 0.476547 0
M  V30 3099 H 285.289 -1.67123 2.47209 0
M  V30 3100 C 284.038 -3.14533 1.48204 0
M  V30 3101 H 283.361 -3.23911 2.34354 0
M  V30 3102 H 284.801 -3.93701 1.57402 0
M  V30 3103 C 283.26 -3.36287 0.203142 0
M  V30 3104 O 283.79 -3.9509 -0.725745 0
M  V30 3105 N 281.996 -2.90408 0.105563 0
M  V30 3106 H 281.543 -2.42739 0.862301 0
M  V30 3107 H 281.501 -3.05339 -0.749371 0
M  V30 3108 N 285.273 -1.31445 -0.869486 0
M  V30 3109 C 286.206 -1.13465 -1.97992 0
M  V30 3110 C 287.184 -0.0380291 -1.62556 0
M  V30 3111 O 288.368 -0.194544 -1.87493 0
M  V30 3112 C 285.495 -0.733822 -3.30655 0
M  V30 3113 C 284.541 -1.83356 -3.85075 0
M  V30 3114 S 285.374 -3.43909 -4.10472 0
M  V30 3115 C 286.53 -3.05763 -5.46132 0
M  V30 3116 H 286.763 -2.07471 -2.1294 0
M  V30 3117 H 284.296 -1.15936 -1.01972 0
M  V30 3118 H 286.254 -0.509306 -4.07328 0
M  V30 3119 H 284.915 0.187123 -3.13542 0
M  V30 3120 H 284.108 -1.50574 -4.80982 0
M  V30 3121 H 283.71 -2.01315 -3.15195 0
M  V30 3122 H 286.002 -2.54686 -6.27807 0
M  V30 3123 H 286.945 -4.00635 -5.83864 0
M  V30 3124 H 287.353 -2.43192 -5.09429 0
M  V30 3125 N 286.751 1.08385 -1.14413 0
M  V30 3126 C 287.701 2.13509 -0.79987 0
M  V30 3127 C 288.685 1.5951 0.211059 0
M  V30 3128 O 289.877 1.76995 0.0133694 0
M  V30 3129 C 287.006 3.42162 -0.279297 0
M  V30 3130 C 286.092 4.03042 -1.31976 0
M  V30 3131 N 286.483 4.38327 -2.52395 0
M  V30 3132 C 284.781 4.30379 -1.17004 0
M  V30 3133 C 285.482 4.86428 -3.19003 0
M  V30 3134 N 284.458 4.84547 -2.46405 0
M  V30 3135 H 288.26 2.38609 -1.7159 0
M  V30 3136 H 285.774 1.2572 -1.02802 0
M  V30 3137 H 287.771 4.16898 -0.0143688 0
M  V30 3138 H 286.431 3.18511 0.630923 0
M  V30 3139 H 287.442 4.29349 -2.89621 0
M  V30 3140 H 284.119 4.16281 -0.318854 0
M  V30 3141 H 285.509 5.23107 -4.21674 0
M  V30 3142 N 288.23 0.939286 1.26551 0
M  V30 3143 C 289.455 0.602008 1.98471 0
M  V30 3144 C 289.88 -0.815624 1.69497 0
M  V30 3145 O 289.238 -1.54912 0.941905 0
M  V30 3146 C 289.286 0.848407 3.50477 0
M  V30 3147 O 288.39 -0.0804009 4.12322 0
M  V30 3148 H 287.731 0.23049 0.622712 0
M  V30 3149 H 290.261 1.2617 1.61066 0
M  V30 3150 H 290.271 0.768553 4.00696 0
M  V30 3151 H 288.946 1.88171 3.70897 0
M  V30 3152 H 287.523 0.0503508 3.72866 0
M  V30 3153 N 289.708 -1.40897 0.706093 0
M  V30 3154 C 291.124 -1.55042 0.37869 0
M  V30 3155 C 291.324 -1.67944 -1.11342 0
M  V30 3156 O 290.38 -1.66372 -1.89938 0
M  V30 3157 C 291.693 -2.78398 1.13643 0
M  V30 3158 C 293.241 -2.92206 1.12181 0
M  V30 3159 C 293.716 -4.18463 1.86152 0
M  V30 3160 N 295.207 -4.25443 1.83173 0
M  V30 3161 C 295.942 -5.2202 2.37239 0
M  V30 3162 N 295.438 -6.24563 2.99821 0
M  V30 3163 N 297.231 -5.14033 2.27435 0
M  V30 3164 H 289.382 -1.30769 1.67372 0
M  V30 3165 H 291.645 -0.631653 0.706907 0
M  V30 3166 H 291.351 -2.7511 2.19106 0
M  V30 3167 H 291.225 -3.70228 0.721853 0
M  V30 3168 H 293.612 -2.95004 0.0754171 0
M  V30 3169 H 293.693 -2.01521 1.57554 0
M  V30 3170 H 293.337 -4.16427 2.90776 0
M  V30 3171 H 293.267 -5.08141 1.38206 0
M  V30 3172 H 295.758 -3.51976 1.37556 0
M  V30 3173 H 296.071 -6.94665 3.38616 0
M  V30 3174 H 294.416 -6.25035 3.03902 0
M  V30 3175 H 297.607 -4.3285 1.78208 0
M  V30 3176 H 297.78 -5.89129 2.69873 0
M  V30 3177 N 291.186 -0.45159 -1.50991 0
M  V30 3178 C 292.432 0.110237 -2.025 0
M  V30 3179 C 292.765 1.41109 -1.33424 0
M  V30 3180 O 292.04 1.89135 -0.453659 0
M  V30 3181 C 292.323 0.314271 -3.58726 0
M  V30 3182 C 292.176 -1.00623 -4.38401 0
M  V30 3183 C 293.495 1.07767 -4.26702 0
M  V30 3184 H 290.614 0.0385897 -0.735989 0
M  V30 3185 H 293.256 -0.593374 -1.80497 0
M  V30 3186 H 291.406 0.913601 -3.77605 0
M  V30 3187 H 293.078 -1.64064 -4.31139 0
M  V30 3188 H 291.321 -1.6075 -4.02917 0
M  V30 3189 H 291.992 -0.817341 -5.45915 0
M  V30 3190 H 294.468 0.56986 -4.12179 0
M  V30 3191 H 293.344 1.18921 -5.35863 0
M  V30 3192 H 293.605 2.10939 -3.88532 0
M  V30 3193 N 292.664 1.56529 -0.183458 0
M  V30 3194 C 293.941 1.88959 0.50536 0
M  V30 3195 C 294.321 1.09523 1.80466 0
M  V30 3196 O 293.669 0.19278 2.27685 0
M  V30 3197 C 293.879 3.41162 0.73547 0
M  V30 3198 C 295.227 4.11155 1.06005 0
M  V30 3199 O 296.251 3.46548 0.823594 0
M  V30 3200 O 295.11 5.25318 1.50675 0
M  V30 3201 H 292.204 0.78441 0.261973 0
M  V30 3202 H 294.75 1.68231 -0.222802 0
M  V30 3203 H 293.522 3.90874 -0.182561 0
M  V30 3204 H 293.145 3.67543 1.51651 0
M  V30 3205 N 294.142 -0.090211 1.57342 0
M  V30 3206 C 295.074 -1.13541 1.99101 0
M  V30 3207 C 296.087 -1.3604 0.894258 0
M  V30 3208 O 297.276 -1.34606 1.17233 0
M  V30 3209 C 294.376 -2.49001 2.29895 0
M  V30 3210 C 293.549 -2.46712 3.61182 0
M  V30 3211 C 292.608 -3.64136 3.79857 0
M  V30 3212 O 291.634 -3.46405 4.51655 0
M  V30 3213 N 292.836 -4.83802 3.20806 0
M  V30 3214 H 295.601 -0.779942 2.89373 0
M  V30 3215 H 293.162 -0.279125 1.59476 0
M  V30 3216 H 295.154 -3.26166 2.39578 0
M  V30 3217 H 293.724 -2.76619 1.45605 0
M  V30 3218 H 292.944 -1.55058 3.62423 0
M  V30 3219 H 294.232 -2.42265 4.4742 0
M  V30 3220 H 293.63 -5.01112 2.62494 0
M  V30 3221 H 292.187 -5.58543 3.35966 0
M  V30 3222 N 295.62 -1.53406 -0.361157 0
M  V30 3223 C 296.55 -1.83136 -1.44857 0
M  V30 3224 C 297.531 -0.685174 -1.5569 0
M  V30 3225 O 298.716 -0.93544 -1.70186 0
M  V30 3226 C 295.846 -2.02522 -2.82138 0
M  V30 3227 C 294.8 -3.18302 -2.86126 0
M  V30 3228 C 294.126 -3.22989 -4.26125 0
M  V30 3229 C 295.426 -4.56796 -2.53248 0
M  V30 3230 H 297.12 -2.74201 -1.20226 0
M  V30 3231 H 294.666 -1.31938 -0.576922 0
M  V30 3232 H 296.619 -2.21904 -3.58241 0
M  V30 3233 H 295.343 -1.08172 -3.08166 0
M  V30 3234 H 294.002 -2.98747 -2.12475 0
M  V30 3235 H 293.65 -2.26267 -4.49235 0
M  V30 3236 H 293.35 -4.00781 -4.29708 0
M  V30 3237 H 294.874 -3.44559 -5.04094 0
M  V30 3238 H 296.288 -4.7631 -3.19064 0
M  V30 3239 H 294.685 -5.36862 -2.68141 0
M  V30 3240 H 295.755 -4.61606 -1.48484 0
M  V30 3241 N 297.098 0.621204 -1.44841 0
M  V30 3242 C 298.375 1.38 -1.38619 0
M  V30 3243 C 298.755 2.11041 -0.0498935 0
M  V30 3244 O 298.103 2.06992 0.967816 0
M  V30 3245 C 298.313 2.33817 -2.59096 0
M  V30 3246 C 299.661 2.96844 -3.03593 0
M  V30 3247 O 300.685 2.44141 -2.59371 0
M  V30 3248 O 299.544 3.92476 -3.80296 0
M  V30 3249 H 296.638 0.61811 -0.549426 0
M  V30 3250 H 299.184 0.645429 -1.56947 0
M  V30 3251 H 297.956 1.79012 -3.47952 0
M  V30 3252 H 297.579 3.14676 -2.43032 0
M  V30 3253 N 298.576 1.31904 0.862503 0
M  V30 3254 C 299.823 1.22017 1.61611 0
M  V30 3255 C 300.151 -0.21991 1.93253 0
M  V30 3256 O 299.406 -1.17076 1.56817 0
M  V30 3257 C 299.705 2.01713 2.95037 0
M  V30 3258 C 299.371 3.51145 2.82857 0
M  V30 3259 C 298.033 3.91889 2.79243 0
M  V30 3260 C 300.385 4.46204 2.69353 0
M  V30 3261 C 297.713 5.25947 2.59993 0
M  V30 3262 C 300.065 5.80397 2.5164 0
M  V30 3263 C 298.729 6.20352 2.46413 0
M  V30 3264 H 297.999 0.44649 0.591378 0
M  V30 3265 H 300.646 1.63248 1.00111 0
M  V30 3266 H 298.951 1.53185 3.60613 0
M  V30 3267 H 300.648 1.91437 3.52353 0
M  V30 3268 H 297.238 3.1878 2.86491 0
M  V30 3269 H 301.422 4.15652 2.71196 0
M  V30 3270 H 296.678 5.5597 2.54376 0
M  V30 3271 H 300.852 6.53676 2.40169 0
M  V30 3272 H 298.479 7.24172 2.31256 0
M  V30 3273 N 300.054 -1.07777 1.14986 0
M  V30 3274 C 301.3 -1.80719 0.93339 0
M  V30 3275 C 301.655 -1.8484 -0.534019 0
M  V30 3276 O 300.948 -1.31795 -1.3907 0
M  V30 3277 C 301.142 -3.25495 1.47608 0
M  V30 3278 C 300.971 -3.3548 2.99472 0
M  V30 3279 C 299.741 -3.46293 3.6798 0
M  V30 3280 C 301.939 -3.26596 3.97291 0
M  V30 3281 N 299.921 -3.45136 5.07695 0
M  V30 3282 C 301.292 -3.32506 5.23297 0
M  V30 3283 C 303.347 -3.10376 3.89321 0
M  V30 3284 C 302.05 -3.23866 6.42264 0
M  V30 3285 C 304.076 -3.03069 5.07842 0
M  V30 3286 C 303.438 -3.09587 6.32721 0
M  V30 3287 H 299.537 -0.674814 0.395158 0
M  V30 3288 H 302.121 -1.28681 1.46114 0
M  V30 3289 H 300.292 -3.75963 0.975022 0
M  V30 3290 H 302.024 -3.86535 1.19887 0
M  V30 3291 H 298.779 -3.50456 3.18555 0
M  V30 3292 H 299.203 -3.48097 5.80653 0
M  V30 3293 H 303.845 -3.04194 2.93642 0
M  V30 3294 H 301.563 -3.28807 7.38181 0
M  V30 3295 H 305.149 -2.91629 5.03432 0
M  V30 3296 H 304.029 -3.0397 7.22891 0
M  V30 3297 N 301.532 -0.945985 -1.26051 0
M  V30 3298 C 302.442 -0.465633 -2.29933 0
M  V30 3299 C 303.458 0.462761 -1.67733 0
M  V30 3300 O 304.634 0.341118 -1.9849 0
M  V30 3301 C 301.699 0.256994 -3.45746 0
M  V30 3302 C 300.76 -0.708549 -4.23412 0
M  V30 3303 C 299.993 -0.0203135 -5.33696 0
M  V30 3304 O 300.216 1.19571 -5.57726 0
M  V30 3305 O 299.15 -0.701459 -5.97799 0
M  V30 3306 H 302.976 -1.32866 -2.73094 0
M  V30 3307 H 300.561 -0.712071 -1.31339 0
M  V30 3308 H 302.443 0.663852 -4.16138 0
M  V30 3309 H 301.118 1.09533 -3.04605 0
M  V30 3310 H 300.025 -1.16545 -3.55483 0
M  V30 3311 H 301.358 -1.51465 -4.68315 0
M  V30 3312 N 303.011 1.40521 -0.713556 0
M  V30 3313 C 304.236 2.05759 -0.26035 0
M  V30 3314 C 304.661 1.53403 1.08854 0
M  V30 3315 O 304.019 0.668535 1.68524 0
M  V30 3316 C 304.067 3.59745 -0.248122 0
M  V30 3317 O 303.171 4.05123 0.77131 0
M  V30 3318 H 302.512 0.652564 -0.122703 0
M  V30 3319 H 305.042 1.79958 -0.973467 0
M  V30 3320 H 305.052 4.07911 -0.0851129 0
M  V30 3321 H 303.727 3.97218 -1.2325 0
M  V30 3322 H 302.304 3.68422 0.57619 0
M  V30 3323 N 304.489 0.459591 1.5075 0
M  V30 3324 C 305.737 -0.0991532 2.01857 0
M  V30 3325 C 306.058 -1.41247 1.34441 0
M  V30 3326 O 305.328 -1.89775 0.486022 0
M  V30 3327 H 303.908 -0.039633 0.745948 0
M  V30 3328 H 306.57 0.607387 1.85194 0
M  V30 3329 H 305.666 -0.258998 3.11023 0
M  V30 3330 N 305.967 -1.56429 0.191757 0
M  V30 3331 C 306.877 -2.22541 -0.742481 0
M  V30 3332 C 307.893 -1.22342 -1.23727 0
M  V30 3333 O 309.069 -1.55069 -1.28513 0
M  V30 3334 C 306.134 -2.8692 -1.94623 0
M  V30 3335 C 305.195 -4.02378 -1.49633 0
M  V30 3336 C 304.428 -4.63678 -2.6427 0
M  V30 3337 O 304.651 -4.23895 -3.81666 0
M  V30 3338 O 303.585 -5.53202 -2.37174 0
M  V30 3339 H 307.411 -3.02977 -0.209462 0
M  V30 3340 H 304.996 -1.49353 -0.0373832 0
M  V30 3341 H 306.878 -3.27663 -2.64982 0
M  V30 3342 H 305.553 -2.09466 -2.46791 0
M  V30 3343 H 304.46 -3.66265 -0.761636 0
M  V30 3344 H 305.793 -4.81487 -1.02134 0
M  V30 3345 N 307.445 0.0818655 -1.57387 0
M  V30 3346 C 308.691 0.778884 -1.87896 0
M  V30 3347 C 309.046 1.75692 -0.784229 0
M  V30 3348 O 308.339 1.90417 0.212567 0
M  V30 3349 C 308.533 1.53513 -3.22752 0
M  V30 3350 C 308.362 0.631838 -4.45239 0
M  V30 3351 C 307.132 0.272571 -5.04564 0
M  V30 3352 C 309.33 -0.0670191 -5.14256 0
M  V30 3353 N 307.312 -0.637498 -6.10581 0
M  V30 3354 C 308.683 -0.834653 -6.14356 0
M  V30 3355 C 310.738 -0.139551 -4.97704 0
M  V30 3356 C 309.441 -1.66806 -6.99691 0
M  V30 3357 C 311.467 -0.959903 -5.83558 0
M  V30 3358 C 310.829 -1.71561 -6.83188 0
M  V30 3359 H 306.928 0.260764 -0.737242 0
M  V30 3360 H 309.512 0.0408227 -1.94657 0
M  V30 3361 H 307.683 2.24398 -3.17018 0
M  V30 3362 H 309.415 2.18038 -3.40942 0
M  V30 3363 H 306.17 0.62319 -4.69482 0
M  V30 3364 H 306.594 -1.08548 -6.68241 0
M  V30 3365 H 311.236 0.430376 -4.20604 0
M  V30 3366 H 308.954 -2.249 -7.76174 0
M  V30 3367 H 312.54 -1.01887 -5.72809 0
M  V30 3368 H 311.42 -2.34017 -7.48469 0
M  V30 3369 N 308.923 1.53595 0.353017 0
M  V30 3370 C 310.169 1.70638 1.09593 0
M  V30 3371 C 310.502 0.463286 1.88593 0
M  V30 3372 O 309.777 -0.539597 1.86865 0
M  V30 3373 C 310.06 2.96406 2.04489 0
M  V30 3374 C 309.913 4.30901 1.29014 0
M  V30 3375 C 311.232 3.17812 3.0444 0
M  V30 3376 H 308.351 0.620913 0.397034 0
M  V30 3377 H 310.993 1.86254 0.375446 0
M  V30 3378 H 309.143 2.83223 2.65927 0
M  V30 3379 H 310.815 4.55917 0.702638 0
M  V30 3380 H 309.058 4.29741 0.592071 0
M  V30 3381 H 309.729 5.1506 1.98537 0
M  V30 3382 H 312.205 3.30263 2.53112 0
M  V30 3383 H 311.081 4.07223 3.6805 0
M  V30 3384 H 311.342 2.33669 3.75301 0
M  V30 3385 N 310.401 -0.613514 1.45168 0
M  V30 3386 C 311.65 -1.36874 1.4815 0
M  V30 3387 C 311.963 -1.952 0.124982 0
M  V30 3388 O 313.169 -2.71481 0.0324176 0
M  V30 3389 C 311.625 -2.47905 2.60904 0
M  V30 3390 C 311.233 -1.96016 4.02842 0
M  V30 3391 C 312.977 -3.24965 2.73126 0
M  V30 3392 C 310.884 -3.04494 5.06988 0
M  V30 3393 H 309.814 -0.514428 0.551253 0
M  V30 3394 H 312.465 -0.658182 1.7129 0
M  V30 3395 H 310.847 -3.21618 2.31037 0
M  V30 3396 H 312.021 -1.29051 4.4236 0
M  V30 3397 H 310.336 -1.31719 3.95018 0
M  V30 3398 H 312.933 -4.05865 3.48106 0
M  V30 3399 H 313.276 -3.75588 1.79553 0
M  V30 3400 H 313.809 -2.5835 3.0249 0
M  V30 3401 H 310.548 -2.58795 6.0225 0
M  V30 3402 H 310.068 -3.70044 4.72046 0
M  V30 3403 H 311.747 -3.68976 5.31475 0
M  V30 3404 N 311.879 -1.3236 -0.855495 0
M  V30 3405 C 313.125 -1.23054 -1.612 0
M  V30 3406 C 313.458 0.207404 -1.93089 0
M  V30 3407 O 312.733 1.14432 -1.57275 0
M  V30 3408 C 313.016 -2.08937 -2.93287 0
M  V30 3409 C 312.869 -3.61105 -2.68185 0
M  V30 3410 C 314.188 -1.94986 -3.94549 0
M  V30 3411 H 311.307 -0.448364 -0.584926 0
M  V30 3412 H 313.949 -1.62297 -0.987917 0
M  V30 3413 H 312.099 -1.75599 -3.46551 0
M  V30 3414 H 313.771 -4.04652 -2.21483 0
M  V30 3415 H 312.014 -3.83813 -2.02164 0
M  V30 3416 H 312.685 -4.16522 -3.62234 0
M  V30 3417 H 315.161 -2.24189 -3.5054 0
M  V30 3418 H 314.037 -2.57356 -4.84829 0
M  V30 3419 H 314.298 -0.917263 -4.3248 0
M  V30 3420 N 313.357 1.07166 -1.15556 0
M  V30 3421 C 314.634 1.76546 -0.842069 0
M  V30 3422 C 315.014 2.00453 0.661939 0
M  V30 3423 O 314.362 1.62452 1.60691 0
M  V30 3424 C 314.572 3.07266 -1.65495 0
M  V30 3425 C 315.92 3.81578 -1.86234 0
M  V30 3426 O 316.944 3.17083 -1.62287 0
M  V30 3427 O 315.803 4.97419 -2.26355 0
M  V30 3428 H 312.897 0.766756 -0.309862 0
M  V30 3429 H 315.443 1.13514 -1.26145 0
M  V30 3430 H 314.215 2.85494 -2.67598 0
M  V30 3431 H 313.838 3.7803 -1.23203 0
M  V30 3432 N 314.835 0.952656 1.25548 0
M  V30 3433 C 315.798 0.475794 2.24207 0
M  V30 3434 C 316.798 -0.419428 1.55234 0
M  V30 3435 O 317.988 -0.216994 1.72843 0
M  V30 3436 C 315.12 -0.312814 3.39462 0
M  V30 3437 H 316.313 1.34779 2.67908 0
M  V30 3438 H 313.866 0.735739 1.37901 0
M  V30 3439 H 314.601 -1.20257 3.01179 0
M  V30 3440 H 314.386 0.329404 3.90714 0
M  V30 3441 H 315.876 -0.635986 4.12729 0
M  V30 3442 N 316.313 -1.40141 0.720998 0
M  V30 3443 C 317.559 -2.01084 0.263231 0
M  V30 3444 C 317.892 -1.57052 -1.14229 0
M  V30 3445 O 317.167 -0.793027 -1.77599 0
M  V30 3446 C 317.45 -3.58401 0.349344 0
M  V30 3447 C 317.303 -4.12491 1.79363 0
M  V30 3448 C 318.622 -4.39231 -0.276351 0
M  V30 3449 H 315.741 -0.730572 0.0971228 0
M  V30 3450 H 318.383 -1.66543 0.914518 0
M  V30 3451 H 316.533 -3.87958 -0.205165 0
M  V30 3452 H 318.205 -3.93711 2.40394 0
M  V30 3453 H 316.448 -3.66576 2.31958 0
M  V30 3454 H 317.119 -5.21646 1.80524 0
M  V30 3455 H 319.595 -4.15637 0.196184 0
M  V30 3456 H 318.471 -5.48586 -0.185681 0
M  V30 3457 H 318.732 -4.20643 -1.36059 0
M  V30 3458 N 317.792 -0.46758 -1.50504 0
M  V30 3459 C 319.04 0.0884469 -2.01906 0
M  V30 3460 C 319.361 1.40532 -1.35188 0
M  V30 3461 O 318.631 1.89515 -0.496079 0
M  V30 3462 H 317.211 0.0356765 -0.746148 0
M  V30 3463 H 319.873 -0.6172 -1.84869 0
M  V30 3464 H 318.969 0.2425 -3.11156 0
M  V30 3465 N 319.27 1.56325 -0.20005 0
M  V30 3466 C 320.498 2.02105 0.442874 0
M  V30 3467 C 320.913 1.08014 1.5485 0
M  V30 3468 O 320.27 0.0858797 1.82298 0
M  V30 3469 C 320.321 3.47549 0.994583 0
M  V30 3470 O 320.042 4.38049 -0.0669322 0
M  V30 3471 C 321.543 4.0887 1.7129 0
M  V30 3472 H 318.763 0.661807 0.110691 0
M  V30 3473 H 321.307 2.02134 -0.310207 0
M  V30 3474 H 319.462 3.48204 1.69803 0
M  V30 3475 H 319.876 5.23368 0.344462 0
M  V30 3476 H 321.35 5.12475 2.05118 0
M  V30 3477 H 321.827 3.52615 2.61838 0
M  V30 3478 H 322.433 4.12002 1.05518 0
M  V30 3479 N 320.748 -0.0735177 1.57428 0
M  V30 3480 C 321.978 -0.78483 1.91112 0
M  V30 3481 C 322.386 -1.71729 0.7941 0
M  V30 3482 O 321.729 -1.82105 -0.241542 0
M  V30 3483 C 321.791 -1.63346 3.20247 0
M  V30 3484 C 321.455 -0.870557 4.48632 0
M  V30 3485 C 322.452 -0.19058 5.19551 0
M  V30 3486 C 320.137 -0.838242 4.95256 0
M  V30 3487 C 322.131 0.511503 6.35344 0
M  V30 3488 C 319.818 -0.132386 6.10957 0
M  V30 3489 C 320.816 0.541288 6.80852 0
M  V30 3490 O 320.504 1.23578 7.94345 0
M  V30 3491 H 320.236 -0.228408 0.636244 0
M  V30 3492 H 322.79 -0.0486039 2.05342 0
M  V30 3493 H 321.02 -2.41245 3.02222 0
M  V30 3494 H 322.709 -2.22329 3.39595 0
M  V30 3495 H 323.475 -0.206864 4.84559 0
M  V30 3496 H 319.354 -1.35206 4.40727 0
M  V30 3497 H 322.898 1.03789 6.89836 0
M  V30 3498 H 318.795 -0.114023 6.45399 0
M  V30 3499 H 319.563 1.14487 8.10454 0
M  V30 3500 N 322.226 -1.5378 -0.344866 0
M  V30 3501 C 323.174 -1.82373 -1.4437 0
M  V30 3502 C 324.168 -0.694128 -1.54526 0
M  V30 3503 O 325.374 -0.877442 -1.57165 0
M  V30 3504 H 321.749 -0.577765 -0.481344 0
M  V30 3505 H 323.72 -2.74306 -1.17468 0
M  V30 3506 C 322.469 -2.04898 -2.80913 0
M  V30 3507 H 321.792 -2.9127 -2.73865 0
M  V30 3508 H 323.232 -2.28871 -3.56923 0
M  V30 3509 C 321.691 -0.834116 -3.26411 0
M  V30 3510 O 322.221 -0.0328885 -4.01687 0
M  V30 3511 N 320.427 -0.65171 -2.83198 0
M  V30 3512 H 319.974 -1.30489 -2.22104 0
M  V30 3513 H 319.932 0.159686 -3.13994 0
M  V30 3514 N 323.704 0.605807 -1.45491 0
M  V30 3515 C 324.932 1.39136 -1.5313 0
M  V30 3516 C 325.347 1.88082 -0.164507 0
M  V30 3517 O 324.704 1.62316 0.834247 0
M  V30 3518 C 324.755 2.59463 -2.51716 0
M  V30 3519 O 324.476 2.12551 -3.83084 0
M  V30 3520 C 325.977 3.52301 -2.6907 0
M  V30 3521 H 323.197 0.425849 -0.51855 0
M  V30 3522 H 325.741 0.73865 -1.90694 0
M  V30 3523 H 323.896 3.20772 -2.17219 0
M  V30 3524 H 324.31 2.90744 -4.36541 0
M  V30 3525 H 325.784 4.33271 -3.42024 0
M  V30 3526 H 326.261 4.02757 -1.75167 0
M  V30 3527 H 326.867 2.96845 -3.04571 0
M  V30 3528 N 325.182 1.32811 0.848464 0
M  V30 3529 C 326.598 1.11937 1.13764 0
M  V30 3530 C 326.798 -0.0960789 2.01271 0
M  V30 3531 O 325.854 -0.779165 2.40178 0
M  V30 3532 C 327.167 2.402 1.809 0
M  V30 3533 C 328.715 2.46016 1.93508 0
M  V30 3534 C 329.19 3.74215 2.64059 0
M  V30 3535 N 330.681 3.75232 2.71579 0
M  V30 3536 C 331.416 4.71134 3.26833 0
M  V30 3537 N 330.912 5.77406 3.8285 0
M  V30 3538 N 332.705 4.58623 3.24995 0
M  V30 3539 H 324.856 2.1073 0.265855 0
M  V30 3540 H 327.119 0.930671 0.180431 0
M  V30 3541 H 326.825 3.29093 1.24058 0
M  V30 3542 H 326.699 2.51628 2.81004 0
M  V30 3543 H 329.086 1.57577 2.49506 0
M  V30 3544 H 329.167 2.38536 0.923811 0
M  V30 3545 H 328.811 4.63031 2.08722 0
M  V30 3546 H 328.741 3.78968 3.65637 0
M  V30 3547 H 331.232 2.98423 2.31845 0
M  V30 3548 H 331.545 6.46632 4.23187 0
M  V30 3549 H 329.89 5.81152 3.81165 0
M  V30 3550 H 333.081 3.74762 2.80484 0
M  V30 3551 H 333.254 5.33535 3.67756 0
M  V30 3552 N 326.66 -1.06551 1.16123 0
M  V30 3553 C 327.607 -2.13961 0.865414 0
M  V30 3554 C 328.577 -1.65066 -0.185055 0
M  V30 3555 O 329.762 -1.90732 -0.05083 0
M  V30 3556 C 326.902 -3.43113 0.369776 0
M  V30 3557 C 326.015 -4.05756 1.48276 0
M  V30 3558 C 325.15 -5.22773 0.942414 0
M  V30 3559 C 324.189 -5.77395 2.03179 0
M  V30 3560 N 323.326 -6.85731 1.50721 0
M  V30 3561 H 328.166 -2.38605 1.78527 0
M  V30 3562 H 325.703 -1.17072 0.890646 0
M  V30 3563 H 327.661 -4.17151 0.0640643 0
M  V30 3564 H 326.291 -3.18695 -0.513143 0
M  V30 3565 H 325.343 -3.29292 1.9045 0
M  V30 3566 H 326.655 -4.42351 2.30493 0
M  V30 3567 H 325.809 -6.03827 0.589729 0
M  V30 3568 H 324.548 -4.87618 0.0895191 0
M  V30 3569 H 323.553 -4.94981 2.3932 0
M  V30 3570 H 324.778 -6.14603 2.8886 0
M  V30 3571 H 322.724 -6.52499 0.676811 0
M  V30 3572 H 322.641 -7.21254 2.26557 0
M  V30 3573 H 323.909 -7.7047 1.18303 0
M  V30 3574 N 328.138 -0.959301 -1.25041 0
M  V30 3575 C 329.368 -0.63303 -1.96663 0
M  V30 3576 C 329.776 0.800031 -1.71453 0
M  V30 3577 O 329.119 1.54736 -0.99008 0
M  V30 3578 C 329.181 -0.817523 -3.50081 0
M  V30 3579 C 328.845 -2.22863 -3.98975 0
M  V30 3580 C 329.842 -3.20569 -4.09306 0
M  V30 3581 C 327.527 -2.55407 -4.32519 0
M  V30 3582 C 329.521 -4.4891 -4.52503 0
M  V30 3583 C 327.208 -3.83976 -4.754 0
M  V30 3584 C 328.206 -4.8054 -4.85356 0
M  V30 3585 O 327.894 -6.06817 -5.27284 0
M  V30 3586 H 327.626 -0.235866 -0.633516 0
M  V30 3587 H 330.18 -1.2874 -1.60047 0
M  V30 3588 H 328.41 -0.105992 -3.86555 0
M  V30 3589 H 330.099 -0.491604 -4.02912 0
M  V30 3590 H 330.865 -2.96753 -3.83618 0
M  V30 3591 H 326.744 -1.8097 -4.23994 0
M  V30 3592 H 330.288 -5.24283 -4.60188 0
M  V30 3593 H 326.185 -4.07596 -5.00535 0
M  V30 3594 H 326.953 -6.10262 -5.45457 0
M  V30 3595 N 329.616 1.39756 -0.72842 0
M  V30 3596 C 330.526 2.34444 -0.0855374 0
M  V30 3597 C 331.542 1.57976 0.729356 0
M  V30 3598 O 332.718 1.90301 0.659346 0
M  V30 3599 C 329.783 3.36965 0.815798 0
M  V30 3600 C 328.844 4.29299 -0.0105996 0
M  V30 3601 C 328.077 5.26923 0.84781 0
M  V30 3602 O 328.3 5.30859 2.08673 0
M  V30 3603 O 327.234 6.01249 0.279969 0
M  V30 3604 H 331.06 2.91065 -0.866892 0
M  V30 3605 H 328.645 1.4117 -0.48902 0
M  V30 3606 H 330.527 3.99804 1.33171 0
M  V30 3607 H 329.202 2.82739 1.57608 0
M  V30 3608 H 328.109 3.69703 -0.571877 0
M  V30 3609 H 329.442 4.86712 -0.73295 0
M  V30 3610 N 331.094 0.475555 1.50254 0
M  V30 3611 C 332.334 -0.0765802 2.04256 0
M  V30 3612 C 332.698 -1.36587 1.34937 0
M  V30 3613 O 333.899 -2.00066 1.79519 0
M  V30 3614 C 332.17 -0.251668 3.56513 0
M  V30 3615 S 333.729 -0.761716 4.32138 0
M  V30 3616 H 330.547 -0.0138456 0.710865 0
M  V30 3617 H 333.149 0.643714 1.84598 0
M  V30 3618 H 331.853 0.692404 4.04517 0
M  V30 3619 H 331.384 -0.997946 3.80532 0
M  V30 3620 H 333.399 -2.03451 4.52573 0
M  V30 3621 N 332.573 -1.56217 0.208337 0
M  V30 3622 C 333.813 -1.99849 -0.428927 0
M  V30 3623 C 334.177 -1.09262 -1.57879 0
M  V30 3624 O 335.378 -1.42185 -2.28116 0
M  V30 3625 C 333.649 -3.46777 -0.864879 0
M  V30 3626 S 335.208 -4.12434 -1.49811 0
M  V30 3627 H 332.026 -0.697742 -0.136665 0
M  V30 3628 H 334.628 -1.92953 0.314519 0
M  V30 3629 H 333.332 -4.10396 -0.0181326 0
M  V30 3630 H 332.863 -3.57518 -1.64147 0
M  V30 3631 H 334.878 -4.10532 -2.78707 0
M  V30 3632 N 334.051 0.0651679 -1.57465 0
M  V30 3633 C 335.014 1.06117 -2.03155 0
M  V30 3634 C 336.014 1.31204 -0.929632 0
M  V30 3635 O 337.204 1.26813 -1.19432 0
M  V30 3636 C 334.336 2.4032 -2.41783 0
M  V30 3637 H 335.529 0.667231 -2.92383 0
M  V30 3638 H 333.082 0.311075 -1.53173 0
M  V30 3639 H 333.817 2.84532 -1.55601 0
M  V30 3640 H 333.602 2.23451 -3.22199 0
M  V30 3641 H 335.092 3.11898 -2.77685 0
M  V30 3642 N 335.529 1.53961 0.336706 0
M  V30 3643 C 336.439 1.85432 1.43708 0
M  V30 3644 C 337.455 0.745053 1.57242 0
M  V30 3645 O 338.631 1.03804 1.72588 0
M  V30 3646 C 335.696 2.06349 2.78605 0
M  V30 3647 C 334.757 3.30191 2.74358 0
M  V30 3648 C 333.99 3.50101 4.02822 0
M  V30 3649 O 334.213 2.7371 5.00439 0
M  V30 3650 O 333.147 4.43547 4.06878 0
M  V30 3651 H 336.973 2.78975 1.20028 0
M  V30 3652 H 334.558 1.39701 0.52952 0
M  V30 3653 H 336.44 2.21513 3.58483 0
M  V30 3654 H 335.115 1.15995 3.02203 0
M  V30 3655 H 334.022 3.20425 1.93078 0
M  V30 3656 H 335.355 4.2056 2.55715 0
M  V30 3657 N 337.007 -0.598083 1.45811 0
M  V30 3658 C 338.256 -1.35295 1.49594 0
M  V30 3659 C 338.569 -1.95057 0.145679 0
M  V30 3660 O 339.775 -2.71431 0.0612099 0
M  V30 3661 C 338.231 -2.45124 2.63519 0
M  V30 3662 C 337.839 -1.91732 4.04899 0
M  V30 3663 C 339.583 -3.2205 2.76558 0
M  V30 3664 C 337.49 -2.991 5.1019 0
M  V30 3665 H 336.42 -0.508552 0.556679 0
M  V30 3666 H 339.071 -0.639977 1.71978 0
M  V30 3667 H 337.453 -3.19149 2.34435 0
M  V30 3668 H 338.627 -1.24352 4.43704 0
M  V30 3669 H 336.942 -1.27522 3.96393 0
M  V30 3670 H 339.539 -4.0215 3.52391 0
M  V30 3671 H 339.882 -3.73663 1.83526 0
M  V30 3672 H 340.415 -2.55127 3.05213 0
M  V30 3673 H 337.154 -2.52393 6.04961 0
M  V30 3674 H 336.674 -3.65017 4.75944 0
M  V30 3675 H 338.353 -3.63318 5.35359 0
M  V30 3676 N 338.485 -1.33259 -0.841409 0
M  V30 3677 C 339.715 -1.2742 -1.62628 0
M  V30 3678 C 340.123 0.157604 -1.88542 0
M  V30 3679 O 339.466 1.10938 -1.46419 0
M  V30 3680 C 339.528 -1.97797 -3.00194 0
M  V30 3681 C 339.192 -3.47109 -2.97261 0
M  V30 3682 C 340.189 -4.42358 -2.73159 0
M  V30 3683 C 337.874 -3.89247 -3.17478 0
M  V30 3684 C 339.868 -5.77718 -2.69296 0
M  V30 3685 C 337.555 -5.24713 -3.13241 0
M  V30 3686 C 338.553 -6.1876 -2.89181 0
M  V30 3687 O 338.241 -7.51745 -2.84843 0
M  V30 3688 H 337.973 -0.440436 -0.512827 0
M  V30 3689 H 340.527 -1.76153 -1.05638 0
M  V30 3690 H 338.757 -1.43652 -3.59028 0
M  V30 3691 H 340.446 -1.8549 -3.61038 0
M  V30 3692 H 341.212 -4.11127 -2.57294 0
M  V30 3693 H 337.091 -3.16456 -3.35226 0
M  V30 3694 H 340.635 -6.51097 -2.50436 0
M  V30 3695 H 336.532 -5.55569 -3.28654 0
M  V30 3696 H 337.3 -7.61262 -3.00702 0
M  V30 3697 N 339.963 1.05934 -1.16686 0
M  V30 3698 C 341.374 1.60263 -0.957745 0
M  V30 3699 C 341.725 1.89789 0.49745 0
M  V30 3700 O 340.85 1.67401 1.37135 0
M  V30 3701 C 341.445 2.91172 -1.73218 0
M  V30 3702 C 340.004 3.42188 -1.56794 0
M  V30 3703 C 339.151 2.16028 -1.73859 0
M  V30 3704 H 342.102 0.888392 -1.31504 0
M  V30 3705 H 342.123 3.60744 -1.21014 0
M  V30 3706 H 341.635 2.6965 -2.79124 0
M  V30 3707 H 339.736 3.68762 -0.533437 0
M  V30 3708 H 339.849 4.17273 -2.35414 0
M  V30 3709 H 338.213 2.26426 -1.16633 0
M  V30 3710 H 338.996 1.96985 -2.81161 0
M  V30 3711 N 341.441 0.965919 1.2453 0
M  V30 3712 C 342.718 0.543777 1.87889 0
M  V30 3713 C 343.098 -0.97909 1.87021 0
M  V30 3714 O 342.446 -1.84969 1.3416 0
M  V30 3715 C 342.656 1.13327 3.30088 0
M  V30 3716 C 344.004 1.21707 4.06783 0
M  V30 3717 O 345.028 1.08566 3.39252 0
M  V30 3718 O 343.887 1.42456 5.27606 0
M  V30 3719 H 340.981 0.181054 0.806938 0
M  V30 3720 H 343.527 1.06007 1.32516 0
M  V30 3721 H 342.299 2.17612 3.25209 0
M  V30 3722 H 341.922 0.600911 3.93033 0
M  V30 3723 N 342.919 -1.39368 0.735821 0
M  V30 3724 C 344.168 -1.99733 0.281004 0
M  V30 3725 C 344.481 -1.59055 -1.13846 0
M  V30 3726 O 345.687 -2.12262 -1.69284 0
M  V30 3727 C 344.143 -3.57057 0.451462 0
M  V30 3728 C 343.751 -4.06697 1.87886 0
M  V30 3729 C 345.495 -4.2446 0.0584616 0
M  V30 3730 C 343.402 -5.56598 1.99883 0
M  V30 3731 H 342.332 -0.747163 0.101311 0
M  V30 3732 H 344.983 -1.59357 0.909819 0
M  V30 3733 H 343.365 -3.95234 -0.246263 0
M  V30 3734 H 344.539 -3.79853 2.60861 0
M  V30 3735 H 342.854 -3.5196 2.22515 0
M  V30 3736 H 345.451 -5.34549 0.127099 0
M  V30 3737 H 345.794 -4.04444 -0.986433 0
M  V30 3738 H 346.327 -3.9146 0.707374 0
M  V30 3739 H 343.066 -5.81494 3.02564 0
M  V30 3740 H 342.586 -5.85242 1.31346 0
M  V30 3741 H 344.265 -6.22022 1.78039 0
M  V30 3742 N 344.397 -0.483516 -1.5 0
M  V30 3743 C 345.625 0.0644831 -2.06799 0
M  V30 3744 C 346.04 1.32399 -1.34596 0
M  V30 3745 O 345.397 1.77626 -0.418946 0
M  V30 3746 C 345.448 0.339927 -3.59898 0
M  V30 3747 O 345.169 -0.869635 -4.29382 0
M  V30 3748 C 346.67 0.933515 -4.33359 0
M  V30 3749 H 343.89 -0.0126333 -0.670881 0
M  V30 3750 H 346.434 -0.675864 -1.93009 0
M  V30 3751 H 344.589 1.03022 -3.7345 0
M  V30 3752 H 345.003 -0.62179 -5.20801 0
M  V30 3753 H 346.477 1.07593 -5.41413 0
M  V30 3754 H 346.954 1.92685 -3.94676 0
M  V30 3755 H 347.56 0.281221 -4.24369 0
M  V30 3756 N 345.875 1.56104 -0.216619 0
M  V30 3757 C 347.105 2.02269 0.420802 0
M  V30 3758 C 347.513 1.09575 1.5424 0
M  V30 3759 O 346.856 0.0967308 1.83445 0
M  V30 3760 C 346.918 3.44784 1.01806 0
M  V30 3761 C 346.582 4.56988 0.0325154 0
M  V30 3762 C 347.579 5.14225 -0.766055 0
M  V30 3763 C 345.264 5.02228 -0.0848092 0
M  V30 3764 C 347.258 6.15169 -1.6687 0
M  V30 3765 C 344.945 6.03011 -0.990994 0
M  V30 3766 C 345.943 6.59357 -1.78149 0
M  V30 3767 O 345.631 7.58179 -2.67245 0
M  V30 3768 H 345.363 0.667353 0.107776 0
M  V30 3769 H 347.917 2.02747 -0.329034 0
M  V30 3770 H 346.147 3.41359 1.81689 0
M  V30 3771 H 347.836 3.74626 1.56237 0
M  V30 3772 H 348.602 4.80126 -0.685836 0
M  V30 3773 H 344.481 4.58054 0.520349 0
M  V30 3774 H 348.025 6.59076 -2.28615 0
M  V30 3775 H 343.922 6.36532 -1.07225 0
M  V30 3776 H 344.69 7.75682 -2.61265 0
M  V30 3777 N 347.353 -0.0568162 1.57498 0
M  V30 3778 C 348.316 -1.05038 2.03715 0
M  V30 3779 C 349.316 -1.30709 0.936577 0
M  V30 3780 O 350.506 -1.26178 1.20103 0
M  V30 3781 C 347.638 -2.39034 2.43055 0
M  V30 3782 H 348.831 -0.651715 2.92733 0
M  V30 3783 H 346.384 -0.302947 1.53336 0
M  V30 3784 H 347.119 -2.83703 1.57108 0
M  V30 3785 H 346.904 -2.21739 3.2338 0
M  V30 3786 H 348.394 -3.10421 2.79336 0
M  V30 3787 N 348.832 -1.54138 -0.328536 0
M  V30 3788 C 350.079 -1.72105 -1.06706 0
M  V30 3789 C 350.407 -0.492111 -1.88171 0
M  V30 3790 O 349.662 0.526153 -1.88494 0
M  V30 3791 C 349.961 -2.9457 -2.02393 0
M  V30 3792 C 349.627 -4.29544 -1.37122 0
M  V30 3793 C 348.289 -4.6624 -1.19052 0
M  V30 3794 C 350.641 -5.1333 -0.902331 0
M  V30 3795 C 347.969 -5.84325 -0.527331 0
M  V30 3796 C 350.321 -6.32094 -0.252988 0
M  V30 3797 C 348.985 -6.67473 -0.0600901 0
M  V30 3798 H 348.255 -0.629775 -0.390466 0
M  V30 3799 H 350.902 -1.88372 -0.34473 0
M  V30 3800 H 349.207 -2.72969 -2.81061 0
M  V30 3801 H 350.904 -3.05665 -2.59557 0
M  V30 3802 H 347.494 -4.0067 -1.52188 0
M  V30 3803 H 351.678 -4.855 -1.02974 0
M  V30 3804 H 346.934 -6.103 -0.366634 0
M  V30 3805 H 351.108 -6.96299 0.118366 0
M  V30 3806 H 348.735 -7.58832 0.455828 0
M  V30 3807 N 350.31 0.590341 -1.46126 0
M  V30 3808 C 351.556 1.35082 -1.51264 0
M  V30 3809 C 351.889 1.93534 -0.160711 0
M  V30 3810 O 351.164 1.76045 0.826956 0
M  V30 3811 C 351.447 2.48588 -2.6053 0
M  V30 3812 C 351.3 1.95221 -4.05227 0
M  V30 3813 C 352.619 3.50662 -2.6594 0
M  V30 3814 H 349.738 0.489803 -0.550692 0
M  V30 3815 H 352.38 0.663887 -1.78024 0
M  V30 3816 H 350.53 3.07186 -2.37843 0
M  V30 3817 H 352.202 1.41139 -4.39178 0
M  V30 3818 H 350.445 1.26101 -4.15068 0
M  V30 3819 H 351.116 2.77121 -4.77397 0
M  V30 3820 H 353.592 3.01934 -2.86313 0
M  V30 3821 H 352.468 4.27551 -3.44226 0
M  V30 3822 H 352.729 4.07399 -1.71694 0
M  V30 3823 N 351.788 1.33704 0.83433 0
M  V30 3824 C 353.037 1.24763 1.58484 0
M  V30 3825 C 353.35 -0.183775 1.94735 0
M  V30 3826 O 354.556 -0.395234 2.68608 0
M  V30 3827 C 353.012 2.18638 2.85876 0
M  V30 3828 C 352.62 3.66974 2.56971 0
M  V30 3829 C 354.364 2.18581 3.63899 0
M  V30 3830 C 352.271 4.5275 3.80488 0
M  V30 3831 H 351.201 0.463425 0.594772 0
M  V30 3832 H 353.852 1.58797 0.919551 0
M  V30 3833 H 352.234 1.77542 3.5397 0
M  V30 3834 H 353.408 4.16538 1.9706 0
M  V30 3835 H 351.723 3.69366 1.92244 0
M  V30 3836 H 354.32 2.79894 4.55591 0
M  V30 3837 H 354.663 1.18207 3.99165 0
M  V30 3838 H 355.196 2.58062 3.02735 0
M  V30 3839 H 351.935 5.54017 3.5035 0
M  V30 3840 H 351.455 4.07927 4.39722 0
M  V30 3841 H 353.134 4.66784 4.4802 0
M  V30 3842 N 353.266 -1.05314 1.17247 0
M  V30 3843 C 354.682 -1.30452 0.919473 0
M  V30 3844 C 354.882 -1.9703 -0.42209 0
M  V30 3845 O 353.938 -2.24311 -1.15935 0
M  V30 3846 C 355.251 -2.17551 2.07586 0
M  V30 3847 C 356.799 -2.30937 2.11275 0
M  V30 3848 C 357.274 -3.21396 3.26296 0
M  V30 3849 N 358.765 -3.28981 3.26076 0
M  V30 3850 C 359.5 -3.99095 4.11716 0
M  V30 3851 N 358.996 -4.71648 5.07465 0
M  V30 3852 N 360.789 -3.95247 3.9967 0
M  V30 3853 H 352.94 -0.604988 2.03602 0
M  V30 3854 H 355.203 -0.329368 0.888944 0
M  V30 3855 H 354.909 -1.75921 3.0454 0
M  V30 3856 H 354.783 -3.18182 2.02584 0
M  V30 3857 H 357.17 -2.71809 1.14907 0
M  V30 3858 H 357.251 -1.2994 2.20339 0
M  V30 3859 H 356.895 -2.81238 4.22927 0
M  V30 3860 H 356.825 -4.22395 3.14467 0
M  V30 3861 H 359.316 -2.77286 2.5675 0
M  V30 3862 H 359.629 -5.22705 5.6921 0
M  V30 3863 H 357.974 -4.70594 5.11435 0
M  V30 3864 H 361.165 -3.37691 3.24164 0
M  V30 3865 H 361.338 -4.4962 4.66632 0
M  V30 3866 N 354.744 -0.972509 -1.24016 0
M  V30 3867 C 356.16 -0.679827 -1.44397 0
M  V30 3868 C 356.36 0.756716 -1.86751 0
M  V30 3869 O 355.416 1.53007 -2.00861 0
M  V30 3870 C 356.729 -1.66803 -2.50195 0
M  V30 3871 C 358.277 -1.68119 -2.64017 0
M  V30 3872 C 358.752 -2.65748 -3.73017 0
M  V30 3873 N 360.243 -2.64219 -3.8045 0
M  V30 3874 C 360.978 -3.36433 -4.64328 0
M  V30 3875 N 360.474 -4.1818 -5.52356 0
M  V30 3876 N 362.267 -3.25235 -4.58453 0
M  V30 3877 H 354.418 -1.90059 -0.948228 0
M  V30 3878 H 356.681 -0.818527 -0.478245 0
M  V30 3879 H 356.387 -2.69498 -2.25973 0
M  V30 3880 H 356.261 -1.4446 -3.48441 0
M  V30 3881 H 358.648 -0.661319 -2.87594 0
M  V30 3882 H 358.729 -1.94525 -1.66113 0
M  V30 3883 H 358.373 -3.67872 -3.50189 0
M  V30 3884 H 358.303 -2.36619 -4.70446 0
M  V30 3885 H 360.794 -2.04887 -3.17537 0
M  V30 3886 H 361.107 -4.70157 -6.13329 0
M  V30 3887 H 359.452 -4.22273 -5.52006 0
M  V30 3888 H 362.643 -2.60829 -3.88698 0
M  V30 3889 H 362.816 -3.81776 -5.23594 0
M  V30 3890 N 356.222 1.38976 -0.743202 0
M  V30 3891 C 357.152 2.33171 -0.123873 0
M  V30 3892 C 358.133 1.54336 0.71516 0
M  V30 3893 O 359.318 1.82696 0.658467 0
M  V30 3894 C 356.448 3.38474 0.777978 0
M  V30 3895 C 355.402 4.27979 0.0424758 0
M  V30 3896 C 354.728 5.2405 1.06189 0
M  V30 3897 C 356.028 5.10155 -1.1198 0
M  V30 3898 H 357.722 2.85213 -0.910709 0
M  V30 3899 H 355.268 1.37133 -0.439388 0
M  V30 3900 H 357.221 4.03328 1.22084 0
M  V30 3901 H 355.945 2.84891 1.59702 0
M  V30 3902 H 354.604 3.64616 -0.380853 0
M  V30 3903 H 354.252 4.66758 1.87472 0
M  V30 3904 H 353.952 5.84785 0.574485 0
M  V30 3905 H 355.476 5.9178 1.50428 0
M  V30 3906 H 356.89 5.68307 -0.75499 0
M  V30 3907 H 355.287 5.80073 -1.53738 0
M  V30 3908 H 356.357 4.44504 -1.93764 0
M  V30 3909 N 357.7 0.491464 1.49741 0
M  V30 3910 C 359.111 0.0413169 1.86654 0
M  V30 3911 C 359.462 -1.36985 1.40462 0
M  V30 3912 O 358.587 -2.01917 0.778354 0
M  V30 3913 C 359.182 0.0682023 3.38731 0
M  V30 3914 C 357.741 -0.32656 3.74981 0
M  V30 3915 C 356.888 0.444888 2.73708 0
M  V30 3916 H 359.839 0.704733 1.42194 0
M  V30 3917 H 359.86 -0.729322 3.73445 0
M  V30 3918 H 359.372 1.09539 3.72321 0
M  V30 3919 H 357.473 -1.35734 3.46997 0
M  V30 3920 H 357.586 -0.013741 4.79098 0
M  V30 3921 H 355.95 -0.104062 2.54487 0
M  V30 3922 H 356.733 1.47197 3.10142 0
M  V30 3923 N 359.178 -1.55987 0.224894 0
M  V30 3924 C 360.108 -2.23426 -0.678457 0
M  V30 3925 C 361.089 -1.20709 -1.19847 0
M  V30 3926 O 362.274 -1.49304 -1.24186 0
M  V30 3927 C 359.404 -2.91676 -1.88527 0
M  V30 3928 C 358.358 -4.00893 -1.49896 0
M  V30 3929 C 357.684 -4.56455 -2.78483 0
M  V30 3930 C 358.984 -5.17769 -0.686461 0
M  V30 3931 H 360.678 -2.99175 -0.116173 0
M  V30 3932 H 358.224 -1.43897 -0.054436 0
M  V30 3933 H 360.177 -3.37547 -2.5227 0
M  V30 3934 H 358.901 -2.1338 -2.47258 0
M  V30 3935 H 357.56 -3.55758 -0.884985 0
M  V30 3936 H 357.208 -3.74886 -3.35365 0
M  V30 3937 H 356.908 -5.30169 -2.53368 0
M  V30 3938 H 358.432 -5.05047 -3.43162 0
M  V30 3939 H 359.846 -5.60001 -1.22767 0
M  V30 3940 H 358.243 -5.97735 -0.532259 0
M  V30 3941 H 359.313 -4.83932 0.306196 0
M  V30 3942 N 360.656 0.0484629 -1.57525 0
M  V30 3943 C 361.903 0.743125 -1.88372 0
M  V30 3944 C 362.231 1.76383 -0.819715 0
M  V30 3945 O 361.486 1.94855 0.181659 0
M  V30 3946 C 361.785 1.46632 -3.25935 0
M  V30 3947 C 361.451 0.583427 -4.4711 0
M  V30 3948 C 360.113 0.340191 -4.79996 0
M  V30 3949 C 362.465 -0.0273345 -5.21193 0
M  V30 3950 C 359.793 -0.522903 -5.84365 0
M  V30 3951 C 362.145 -0.878017 -6.26477 0
M  V30 3952 C 360.809 -1.1309 -6.5785 0
M  V30 3953 H 360.079 0.271929 -0.689301 0
M  V30 3954 H 362.726 0.00336166 -1.915 0
M  V30 3955 H 361.031 2.2789 -3.18706 0
M  V30 3956 H 362.728 2.00902 -3.47044 0
M  V30 3957 H 359.318 0.783151 -4.21384 0
M  V30 3958 H 363.502 0.147654 -4.9608 0
M  V30 3959 H 358.758 -0.727335 -6.07058 0
M  V30 3960 H 362.932 -1.35789 -6.83033 0
M  V30 3961 H 360.559 -1.80144 -7.38547 0
M  V30 3962 N 362.134 1.5431 0.320358 0
M  V30 3963 C 363.364 1.7638 1.07582 0
M  V30 3964 C 363.772 0.513944 1.82086 0
M  V30 3965 O 363.115 -0.525123 1.76035 0
M  V30 3966 C 363.177 2.9055 2.1171 0
M  V30 3967 C 362.841 4.2934 1.56575 0
M  V30 3968 C 363.838 5.10077 1.00586 0
M  V30 3969 C 361.523 4.75893 1.60722 0
M  V30 3970 C 363.517 6.35477 0.494756 0
M  V30 3971 C 361.204 6.0126 1.09224 0
M  V30 3972 C 362.202 6.80886 0.53696 0
M  V30 3973 O 361.89 8.03894 0.0297371 0
M  V30 3974 H 361.622 0.592369 0.325692 0
M  V30 3975 H 364.176 2.02019 0.37116 0
M  V30 3976 H 362.406 2.60489 2.85801 0
M  V30 3977 H 364.095 3.00373 2.73003 0
M  V30 3978 H 364.861 4.75265 0.966869 0
M  V30 3979 H 360.74 4.13957 2.02882 0
M  V30 3980 H 364.284 6.97574 0.0606842 0
M  V30 3981 H 360.181 6.35562 1.12831 0
M  V30 3982 H 360.949 8.18372 0.14486 0
M  V30 3983 N 363.613 -0.582584 1.46437 0
M  V30 3984 C 364.841 -1.36682 1.55324 0
M  V30 3985 C 365.256 -1.87796 0.194409 0
M  V30 3986 O 364.613 -1.63623 -0.808318 0
M  V30 3987 C 364.664 -2.55426 2.55812 0
M  V30 3988 O 364.385 -2.0643 3.86417 0
M  V30 3989 C 365.886 -3.47976 2.74641 0
M  V30 3990 H 363.106 -0.417545 0.525259 0
M  V30 3991 H 365.65 -0.708219 1.91845 0
M  V30 3992 H 363.805 -3.17275 2.22295 0
M  V30 3993 H 364.219 -2.83762 4.41111 0
M  V30 3994 H 365.693 -4.27775 3.48874 0
M  V30 3995 H 366.17 -3.99919 1.81553 0
M  V30 3996 H 366.776 -2.91962 3.09255 0
M  V30 3997 N 365.091 -1.34144 -0.827227 0
M  V30 3998 C 366.34 -1.25602 -1.5782 0
M  V30 3999 C 366.653 0.173445 -1.94829 0
M  V30 4000 O 367.859 0.380984 -2.68814 0
M  V30 4001 C 366.315 -2.20151 -2.84713 0
M  V30 4002 C 365.923 -3.68331 -2.55021 0
M  V30 4003 C 367.667 -2.20508 -3.62735 0
M  V30 4004 C 365.574 -4.54762 -3.78082 0
M  V30 4005 H 364.504 -0.466573 -0.592306 0
M  V30 4006 H 367.155 -1.59283 -0.911116 0
M  V30 4007 H 365.537 -1.79417 -3.53023 0
M  V30 4008 H 366.711 -4.17577 -1.94849 0
M  V30 4009 H 365.026 -3.7038 -1.90283 0
M  V30 4010 H 367.623 -2.82306 -4.54101 0
M  V30 4011 H 367.966 -1.20322 -3.98533 0
M  V30 4012 H 368.499 -2.59664 -3.01362 0
M  V30 4013 H 365.238 -5.55867 -3.47407 0
M  V30 4014 H 364.758 -4.10254 -4.37552 0
M  V30 4015 H 366.437 -4.69153 -4.45538 0
M  V30 4016 N 366.569 1.04691 -1.17803 0
M  V30 4017 C 367.517 2.14665 -0.895635 0
M  V30 4018 C 368.511 1.68806 0.141679 0
M  V30 4019 O 369.717 1.79999 -0.00587914 0
M  V30 4020 H 366.092 0.701038 -0.272121 0
M  V30 4021 H 368.063 2.35685 -1.83017 0
M  V30 4022 C 366.812 3.45019 -0.430962 0
M  V30 4023 H 366.135 3.8071 -1.22064 0
M  V30 4024 H 367.575 4.23125 -0.272301 0
M  V30 4025 C 366.034 3.25943 0.852207 0
M  V30 4026 O 366.564 3.5296 1.91786 0
M  V30 4027 N 364.77 2.79304 0.802346 0
M  V30 4028 H 364.317 2.57518 -0.0650788 0
M  V30 4029 H 364.275 2.66921 1.66134 0
M  V30 4030 N 368.047 0.979072 1.23499 0
M  V30 4031 C 368.977 0.537606 2.27227 0
M  V30 4032 C 369.958 -0.428539 1.64613 0
M  V30 4033 O 371.143 -0.322191 1.91509 0
M  V30 4034 C 368.273 -0.162052 3.46922 0
M  V30 4035 C 367.227 0.721242 4.21879 0
M  V30 4036 C 366.553 -0.110555 5.34586 0
M  V30 4037 C 367.853 2.01141 4.82016 0
M  V30 4038 H 369.547 1.40462 2.64406 0
M  V30 4039 H 367.093 0.67684 1.27102 0
M  V30 4040 H 369.046 -0.482192 4.18632 0
M  V30 4041 H 367.77 -1.06351 3.08799 0
M  V30 4042 H 366.429 1.02482 3.51984 0
M  V30 4043 H 366.077 -1.0125 4.92704 0
M  V30 4044 H 365.777 0.477325 5.85658 0
M  V30 4045 H 367.301 -0.425107 6.09118 0
M  V30 4046 H 368.715 1.75612 5.45741 0
M  V30 4047 H 367.112 2.54695 5.43369 0
M  V30 4048 H 368.182 2.69909 4.02836 0
M  V30 4049 N 369.525 -1.3858 0.750561 0
M  V30 4050 C 370.774 -1.99424 0.302172 0
M  V30 4051 C 371.087 -1.60254 -1.12152 0
M  V30 4052 O 372.293 -2.14046 -1.67023 0
M  V30 4053 C 370.749 -3.56558 0.489307 0
M  V30 4054 C 370.357 -4.04682 1.92189 0
M  V30 4055 C 372.101 -4.24374 0.103478 0
M  V30 4056 C 370.008 -5.54446 2.05775 0
M  V30 4057 H 368.938 -0.746046 0.10923 0
M  V30 4058 H 371.589 -1.58383 0.92667 0
M  V30 4059 H 369.971 -3.95472 -0.204329 0
M  V30 4060 H 371.145 -3.77065 2.64875 0
M  V30 4061 H 369.46 -3.4958 2.26236 0
M  V30 4062 H 372.057 -5.34384 0.183787 0
M  V30 4063 H 372.4 -4.05468 -0.943481 0
M  V30 4064 H 372.933 -3.90688 0.748854 0
M  V30 4065 H 369.672 -5.78252 3.08714 0
M  V30 4066 H 369.192 -5.83816 1.37546 0
M  V30 4067 H 370.871 -6.20099 1.84626 0
M  V30 4068 N 371.003 -0.499398 -1.49478 0
M  V30 4069 C 372.252 0.0475259 -2.01644 0
M  V30 4070 C 372.565 1.38195 -1.38425 0
M  V30 4071 O 373.771 2.01547 -1.8191 0
M  V30 4072 C 372.227 0.135164 -3.59646 0
M  V30 4073 C 371.835 -1.19252 -4.31837 0
M  V30 4074 C 373.579 0.632538 -4.19761 0
M  V30 4075 C 371.486 -1.06713 -5.81693 0
M  V30 4076 H 370.416 0.0215349 -0.753692 0
M  V30 4077 H 373.067 -0.638577 -1.7203 0
M  V30 4078 H 371.449 0.885681 -3.85969 0
M  V30 4079 H 372.623 -1.9562 -4.17216 0
M  V30 4080 H 370.938 -1.62321 -3.83459 0
M  V30 4081 H 373.535 0.743833 -5.29501 0
M  V30 4082 H 373.878 1.63098 -3.83021 0
M  V30 4083 H 374.411 -0.0613987 -3.97753 0
M  V30 4084 H 371.15 -2.03979 -6.22955 0
M  V30 4085 H 370.67 -0.344307 -5.98811 0
M  V30 4086 H 372.349 -0.745208 -6.42694 0
M  V30 4087 N 372.481 1.55866 -0.233164 0
M  V30 4088 C 373.892 1.847 0.272554 0
M  V30 4089 C 374.243 1.15477 1.58617 0
M  V30 4090 O 373.368 0.42841 2.12117 0
M  V30 4091 C 373.963 3.35071 0.501299 0
M  V30 4092 C 372.522 3.6418 0.951304 0
M  V30 4093 C 371.669 2.77292 0.0208209 0
M  V30 4094 H 374.62 1.52005 -0.456074 0
M  V30 4095 H 374.641 3.55906 1.34577 0
M  V30 4096 H 374.153 3.85424 -0.454936 0
M  V30 4097 H 372.254 3.19293 1.92049 0
M  V30 4098 H 372.367 4.72071 0.817675 0
M  V30 4099 H 370.731 2.49131 0.529723 0
M  V30 4100 H 371.514 3.30448 -0.93054 0
M  V30 4101 N 373.959 -0.0401083 1.57549 0
M  V30 4102 C 375.199 -0.738098 1.90608 0
M  V30 4103 C 375.563 -1.73107 0.830539 0
M  V30 4104 O 376.764 -2.4765 1.04513 0
M  V30 4105 C 375.035 -1.39985 3.28845 0
M  V30 4106 S 376.594 -2.12852 3.83718 0
M  V30 4107 H 373.412 -0.24477 0.667539 0
M  V30 4108 H 376.014 0.00693599 1.95499 0
M  V30 4109 H 374.718 -0.663775 4.04997 0
M  V30 4110 H 374.249 -2.18366 3.2723 0
M  V30 4111 H 376.264 -3.39842 3.61555 0
M  V30 4112 N 375.437 -1.54477 -0.31217 0
M  V30 4113 C 376.367 -1.87652 -1.38957 0
M  V30 4114 C 377.348 -0.734358 -1.53431 0
M  V30 4115 O 378.533 -0.98911 -1.67123 0
M  V30 4116 C 375.663 -2.11396 -2.75552 0
M  V30 4117 C 374.617 -3.27243 -2.75855 0
M  V30 4118 C 373.943 -3.36382 -4.15633 0
M  V30 4119 C 375.243 -4.64622 -2.38587 0
M  V30 4120 H 376.937 -2.77887 -1.11442 0
M  V30 4121 H 374.483 -1.33707 -0.534655 0
M  V30 4122 H 376.436 -2.33189 -3.51 0
M  V30 4123 H 375.16 -1.17921 -3.04569 0
M  V30 4124 H 373.819 -3.05356 -2.02863 0
M  V30 4125 H 373.467 -2.40445 -4.41809 0
M  V30 4126 H 373.167 -4.14249 -4.1674 0
M  V30 4127 H 374.691 -3.60422 -4.92877 0
M  V30 4128 H 376.105 -4.86219 -3.03749 0
M  V30 4129 H 374.502 -5.45121 -2.50925 0
M  V30 4130 H 375.572 -4.66097 -1.33723 0
M  V30 4131 N 376.915 0.57481 -1.46744 0
M  V30 4132 C 377.845 1.69337 -1.60771 0
M  V30 4133 C 378.826 1.63825 -0.457736 0
M  V30 4134 O 380.011 1.8172 -0.684947 0
M  V30 4135 C 377.141 3.0798 -1.60517 0
M  V30 4136 C 376.095 3.28327 -2.74564 0
M  V30 4137 C 375.421 4.67578 -2.59373 0
M  V30 4138 C 376.721 3.15398 -4.16319 0
M  V30 4139 H 378.415 1.57853 -2.54407 0
M  V30 4140 H 375.961 0.75799 -1.22436 0
M  V30 4141 H 377.914 3.86061 -1.68923 0
M  V30 4142 H 376.638 3.20381 -0.634305 0
M  V30 4143 H 375.297 2.52649 -2.65639 0
M  V30 4144 H 374.945 4.76755 -1.60353 0
M  V30 4145 H 374.645 4.82144 -3.35873 0
M  V30 4146 H 376.169 5.47817 -2.69682 0
M  V30 4147 H 377.583 3.83315 -4.26313 0
M  V30 4148 H 375.98 3.41482 -4.93468 0
M  V30 4149 H 377.05 2.12372 -4.3592 0
M  V30 4150 N 378.394 1.34581 0.820102 0
M  V30 4151 C 379.643 1.26437 1.57151 0
M  V30 4152 C 379.956 -0.163111 1.94919 0
M  V30 4153 O 381.162 -0.366722 2.69012 0
M  V30 4154 C 379.618 2.21658 2.83541 0
M  V30 4155 C 379.226 3.69679 2.53065 0
M  V30 4156 C 380.97 2.22428 3.61561 0
M  V30 4157 C 378.877 4.56761 3.75664 0
M  V30 4158 H 377.807 0.469707 0.589823 0
M  V30 4159 H 380.458 1.59763 0.902656 0
M  V30 4160 H 378.84 1.81287 3.52067 0
M  V30 4161 H 380.014 4.18605 1.92631 0
M  V30 4162 H 378.329 3.71384 1.88316 0
M  V30 4163 H 380.926 2.8471 4.52597 0
M  V30 4164 H 381.269 1.22434 3.97889 0
M  V30 4165 H 381.802 2.61259 2.99981 0
M  V30 4166 H 378.541 5.57702 3.44454 0
M  V30 4167 H 378.061 4.12568 4.35371 0
M  V30 4168 H 379.74 4.71509 4.43044 0
M  V30 4169 N 379.872 -1.04064 1.18357 0
M  V30 4170 C 381.097 -1.81454 1.00445 0
M  V30 4171 C 381.522 -1.82823 -0.442423 0
M  V30 4172 O 380.88 -1.24555 -1.31741 0
M  V30 4173 C 380.928 -3.24925 1.56384 0
M  V30 4174 O 380.032 -4.04856 0.785209 0
M  V30 4175 H 379.373 -0.560604 0.355835 0
M  V30 4176 H 381.903 -1.31059 1.57114 0
M  V30 4177 H 381.913 -3.75702 1.59097 0
M  V30 4178 H 380.588 -3.23244 2.61699 0
M  V30 4179 H 379.165 -3.63537 0.830399 0
M  V30 4180 N 381.35 -0.985608 -1.22978 0
M  V30 4181 C 382.59 -0.665487 -1.93263 0
M  V30 4182 C 382.954 0.78706 -1.75127 0
M  V30 4183 O 384.155 1.21826 -2.39608 0
M  V30 4184 C 382.426 -1.0515 -3.41582 0
M  V30 4185 S 383.985 -0.848637 -4.30516 0
M  V30 4186 H 380.803 -0.24355 -0.667985 0
M  V30 4187 H 383.405 -1.26635 -1.48942 0
M  V30 4188 H 382.109 -2.10517 -3.52293 0
M  V30 4189 H 381.64 -0.442134 -3.90908 0
M  V30 4190 H 383.655 0.264717 -4.95493 0
M  V30 4191 N 382.828 1.3818 -0.7579 0
M  V30 4192 C 383.758 2.33027 -0.148597 0
M  V30 4193 C 384.739 1.55085 0.69875 0
M  V30 4194 O 385.924 1.83384 0.639053 0
M  V30 4195 C 383.054 3.3928 0.742034 0
M  V30 4196 C 382.008 4.28 -0.00291946 0
M  V30 4197 C 381.334 5.25146 1.00625 0
M  V30 4198 C 382.634 5.08938 -1.17385 0
M  V30 4199 H 384.328 2.84231 -0.940909 0
M  V30 4200 H 381.874 1.36659 -0.453908 0
M  V30 4201 H 383.827 4.046 1.17799 0
M  V30 4202 H 382.551 2.86569 1.56671 0
M  V30 4203 H 381.21 3.64192 -0.419504 0
M  V30 4204 H 380.858 4.68721 1.8251 0
M  V30 4205 H 380.558 5.85361 0.512428 0
M  V30 4206 H 382.082 5.93342 1.44143 0
M  V30 4207 H 383.496 5.67474 -0.815224 0
M  V30 4208 H 381.893 5.7841 -1.59882 0
M  V30 4209 H 382.963 4.42424 -1.98468 0
M  V30 4210 N 384.306 0.507319 1.49211 0
M  V30 4211 C 385.534 -0.0315749 2.06876 0
M  V30 4212 C 385.949 -1.30241 1.36685 0
M  V30 4213 O 385.306 -1.76937 0.447152 0
M  V30 4214 C 385.357 -0.282627 3.60393 0
M  V30 4215 O 385.078 0.937835 4.27944 0
M  V30 4216 C 386.579 -0.864453 4.3479 0
M  V30 4217 H 383.799 0.0233048 0.670595 0
M  V30 4218 H 386.343 0.706484 1.91909 0
M  V30 4219 H 384.498 -0.97068 3.75042 0
M  V30 4220 H 384.912 0.704567 5.19746 0
M  V30 4221 H 386.386 -0.989664 5.43056 0
M  V30 4222 H 386.863 -1.86382 3.97692 0
M  V30 4223 H 387.469 -0.213672 4.24763 0
M  V30 4224 N 385.784 -1.5574 0.241426 0
M  V30 4225 C 387.03 -1.99104 -0.385406 0
M  V30 4226 C 387.363 -1.1293 -1.57988 0
M  V30 4227 O 386.638 -0.191449 -1.93555 0
M  V30 4228 C 386.921 -3.51087 -0.800616 0
M  V30 4229 C 386.774 -4.48028 0.398874 0
M  V30 4230 C 388.093 -4.08015 -1.64959 0
M  V30 4231 H 385.212 -0.723848 -0.138614 0
M  V30 4232 H 387.854 -1.86903 0.341642 0
M  V30 4233 H 386.004 -3.61615 -1.4201 0
M  V30 4234 H 387.676 -4.49487 1.03726 0
M  V30 4235 H 385.919 -4.21077 1.04293 0
M  V30 4236 H 386.59 -5.51962 0.0651056 0
M  V30 4237 H 389.066 -4.00555 -1.12672 0
M  V30 4238 H 387.942 -5.14635 -1.90898 0
M  V30 4239 H 388.203 -3.56131 -2.61961 0
M  V30 4240 N 387.262 0.0317525 -1.57568 0
M  V30 4241 C 388.192 1.03274 -2.0942 0
M  V30 4242 C 389.173 1.3788 -0.996143 0
M  V30 4243 O 390.358 1.46811 -1.27122 0
M  V30 4244 C 387.488 2.33448 -2.57137 0
M  V30 4245 C 386.442 2.13091 -3.71182 0
M  V30 4246 C 385.768 3.49001 -4.05095 0
M  V30 4247 C 387.068 1.51928 -4.99715 0
M  V30 4248 H 388.762 0.60112 -2.93303 0
M  V30 4249 H 386.308 0.287705 -1.41097 0
M  V30 4250 H 388.261 3.03802 -2.92032 0
M  V30 4251 H 386.985 2.78665 -1.70333 0
M  V30 4252 H 385.644 1.45171 -3.36632 0
M  V30 4253 H 385.292 3.91862 -3.15362 0
M  V30 4254 H 384.992 3.36207 -4.81911 0
M  V30 4255 H 386.516 4.20721 -4.42522 0
M  V30 4256 H 387.93 2.12196 -5.32584 0
M  V30 4257 H 386.327 1.49716 -5.81124 0
M  V30 4258 H 387.397 0.484811 -4.8247 0
M  V30 4259 N 388.74 1.54641 0.303973 0
M  V30 4260 C 389.986 1.74038 1.04109 0
M  V30 4261 C 390.319 0.523051 1.87024 0
M  V30 4262 O 389.594 -0.479874 1.88487 0
M  V30 4263 C 389.877 3.02761 1.94955 0
M  V30 4264 C 389.73 4.34787 1.1524 0
M  V30 4265 C 391.049 3.27336 2.94175 0
M  V30 4266 H 388.168 0.63323 0.377079 0
M  V30 4267 H 390.81 1.87354 0.316001 0
M  V30 4268 H 388.96 2.9154 2.56782 0
M  V30 4269 H 390.632 4.57922 0.557236 0
M  V30 4270 H 388.875 4.31407 0.455053 0
M  V30 4271 H 389.546 5.21116 1.8205 0
M  V30 4272 H 392.022 3.38148 2.42477 0
M  V30 4273 H 390.898 4.18726 3.54908 0
M  V30 4274 H 391.159 2.45491 3.67677 0
M  V30 4275 N 390.218 -0.567019 1.47046 0
M  V30 4276 C 391.465 -1.32462 1.53167 0
M  V30 4277 C 391.793 -1.93571 0.189841 0
M  V30 4278 O 391.048 -1.77865 -0.816243 0
M  V30 4279 C 391.347 -2.4623 2.59047 0
M  V30 4280 C 391.013 -2.03014 4.02612 0
M  V30 4281 C 389.675 -1.90944 4.41694 0
M  V30 4282 C 392.027 -1.69895 4.92732 0
M  V30 4283 C 389.355 -1.44035 5.68745 0
M  V30 4284 C 391.707 -1.2446 6.20236 0
M  V30 4285 C 390.371 -1.10979 6.5821 0
M  V30 4286 H 389.641 -0.484713 0.560477 0
M  V30 4287 H 392.288 -0.636888 1.80599 0
M  V30 4288 H 390.593 -3.20517 2.25335 0
M  V30 4289 H 392.29 -3.04427 2.61008 0
M  V30 4290 H 388.88 -2.13348 3.71726 0
M  V30 4291 H 393.064 -1.78098 4.63244 0
M  V30 4292 H 388.32 -1.32254 5.96925 0
M  V30 4293 H 392.494 -0.978924 6.89485 0
M  V30 4294 H 390.121 -0.744078 7.5655 0
M  V30 4295 N 391.696 -1.35014 -0.812953 0
M  V30 4296 C 392.926 -1.30841 -1.59888 0
M  V30 4297 C 393.334 0.117576 -1.88834 0
M  V30 4298 O 392.677 1.07807 -1.48739 0
M  V30 4299 C 392.739 -2.0412 -2.95931 0
M  V30 4300 C 392.403 -3.53336 -2.89832 0
M  V30 4301 C 393.4 -4.48052 -2.63714 0
M  V30 4302 C 391.085 -3.95894 -3.0915 0
M  V30 4303 C 393.079 -5.833 -2.56982 0
M  V30 4304 C 390.766 -5.31239 -3.0204 0
M  V30 4305 C 391.764 -6.24754 -2.75991 0
M  V30 4306 O 391.452 -7.57617 -2.68833 0
M  V30 4307 H 391.184 -0.451215 -0.50337 0
M  V30 4308 H 393.738 -1.78354 -1.01877 0
M  V30 4309 H 391.968 -1.51235 -3.559 0
M  V30 4310 H 393.657 -1.93107 -3.57022 0
M  V30 4311 H 394.423 -4.16492 -2.48515 0
M  V30 4312 H 390.302 -3.23495 -3.28438 0
M  V30 4313 H 393.846 -6.56263 -2.36569 0
M  V30 4314 H 389.743 -5.62415 -3.16796 0
M  V30 4315 H 390.511 -7.67469 -2.84487 0
M  V30 4316 N 393.175 1.03435 -1.18907 0
M  V30 4317 C 394.105 2.13503 -0.945448 0
M  V30 4318 C 395.086 1.69682 0.119189 0
M  V30 4319 O 396.271 1.94169 -0.034707 0
M  V30 4320 C 393.401 3.44004 -0.477316 0
M  V30 4321 C 392.355 4.0148 -1.48316 0
M  V30 4322 C 391.681 5.27537 -0.872311 0
M  V30 4323 C 392.981 4.36921 -2.86177 0
M  V30 4324 H 394.675 2.34141 -1.86597 0
M  V30 4325 H 392.221 1.12523 -0.898584 0
M  V30 4326 H 394.174 4.20372 -0.294204 0
M  V30 4327 H 392.898 3.23072 0.478786 0
M  V30 4328 H 391.557 3.27201 -1.65332 0
M  V30 4329 H 391.205 5.02917 0.0911752 0
M  V30 4330 H 390.905 5.66954 -1.54393 0
M  V30 4331 H 392.429 6.06576 -0.699871 0
M  V30 4332 H 393.843 5.04248 -2.72776 0
M  V30 4333 H 392.24 4.87405 -3.50081 0
M  V30 4334 H 393.31 3.46466 -3.39248 0
M  V30 4335 N 394.653 0.992116 1.22453 0
M  V30 4336 C 396.064 0.702776 1.72968 0
M  V30 4337 C 396.415 -0.780399 1.80012 0
M  V30 4338 O 395.54 -1.61007 1.44589 0
M  V30 4339 C 396.135 1.26903 3.14135 0
M  V30 4340 C 394.694 1.02909 3.62059 0
M  V30 4341 C 393.841 1.38969 2.39964 0
M  V30 4342 H 396.792 1.16457 1.07812 0
M  V30 4343 H 396.813 0.647223 3.74955 0
M  V30 4344 H 396.325 2.34851 3.08977 0
M  V30 4345 H 394.426 -0.0337979 3.72585 0
M  V30 4346 H 394.539 1.69191 4.48231 0
M  V30 4347 H 392.903 0.808279 2.41535 0
M  V30 4348 H 393.686 2.4792 2.37467 0
M  V30 4349 N 396.131 -1.37776 0.765217 0
M  V30 4350 C 397.356 -2.04651 0.336537 0
M  V30 4351 C 397.781 -1.57337 -1.03086 0
M  V30 4352 O 397.139 -0.730621 -1.65927 0
M  V30 4353 C 397.187 -3.58577 0.381468 0
M  V30 4354 O 396.291 -4.07706 -0.62042 0
M  V30 4355 H 395.632 -0.64756 0.146838 0
M  V30 4356 H 398.162 -1.76221 1.03959 0
M  V30 4357 H 398.172 -4.07314 0.236448 0
M  V30 4358 H 396.847 -3.9237 1.37907 0
M  V30 4359 H 395.424 -3.70306 -0.439056 0
M  V30 4360 N 397.609 -0.515225 -1.4894 0
M  V30 4361 C 398.519 0.259774 -2.33157 0
M  V30 4362 C 399.535 0.953501 -1.45548 0
M  V30 4363 O 400.711 0.931735 -1.78552 0
M  V30 4364 C 397.776 1.30193 -3.21326 0
M  V30 4365 C 396.837 0.620129 -4.24797 0
M  V30 4366 C 396.07 1.61263 -5.08753 0
M  V30 4367 O 396.293 2.84389 -4.94448 0
M  V30 4368 O 395.227 1.16013 -5.90614 0
M  V30 4369 H 399.053 -0.429932 -3.00641 0
M  V30 4370 H 396.638 -0.276346 -1.46822 0
M  V30 4371 H 398.52 1.90455 -3.75905 0
M  V30 4372 H 397.195 1.97431 -2.56521 0
M  V30 4373 H 396.102 -0.0226019 -3.74093 0
M  V30 4374 H 397.435 -0.0100493 -4.92199 0
M  V30 4375 N 399.087 1.5561 -0.249682 0
M  V30 4376 C 400.327 2.00916 0.37579 0
M  V30 4377 C 400.691 1.13409 1.54927 0
M  V30 4378 O 401.892 1.48183 2.24266 0
M  V30 4379 C 400.163 3.48949 0.772633 0
M  V30 4380 S 401.722 4.16261 1.38824 0
M  V30 4381 H 398.54 0.70112 0.118117 0
M  V30 4382 H 401.142 1.92052 -0.365567 0
M  V30 4383 H 399.846 4.103 -0.090683 0
M  V30 4384 H 399.377 3.61745 1.5461 0
M  V30 4385 H 401.392 4.17778 2.67724 0
M  V30 4386 N 400.565 -0.0233959 1.57583 0
M  V30 4387 C 401.813 -0.711654 1.89156 0
M  V30 4388 C 402.134 -1.75591 0.848096 0
M  V30 4389 O 401.404 -1.95547 -0.117566 0
M  V30 4390 H 399.984 -0.265835 0.698098 0
M  V30 4391 H 402.646 0.0119948 1.94896 0
M  V30 4392 H 401.742 -1.19766 2.88206 0
M  V30 4393 N 402.043 -1.548 -0.295768 0
M  V30 4394 C 402.953 -1.89177 -1.38742 0
M  V30 4395 C 403.969 -0.786481 -1.55211 0
M  V30 4396 O 405.145 -1.08344 -1.69775 0
M  V30 4397 C 402.21 -2.13663 -2.73036 0
M  V30 4398 C 401.271 -3.37349 -2.65508 0
M  V30 4399 C 400.504 -3.60658 -3.93398 0
M  V30 4400 O 400.727 -2.86882 -4.93006 0
M  V30 4401 O 399.661 -4.54179 -3.94975 0
M  V30 4402 H 403.487 -2.82059 -1.12589 0
M  V30 4403 H 401.072 -1.41056 -0.492295 0
M  V30 4404 H 402.954 -2.3094 -3.52484 0
M  V30 4405 H 401.629 -1.23967 -2.99022 0
M  V30 4406 H 400.536 -3.25431 -1.84514 0
M  V30 4407 H 401.869 -4.27192 -2.44474 0
M  V30 4408 N 403.521 0.559213 -1.47345 0
M  V30 4409 C 404.468 1.66645 -1.59682 0
M  V30 4410 C 405.438 1.60168 -0.43994 0
M  V30 4411 O 406.623 1.79031 -0.659736 0
M  V30 4412 C 403.763 3.04969 -1.61518 0
M  V30 4413 C 402.876 3.21897 -2.88108 0
M  V30 4414 C 402.011 4.50608 -2.81294 0
M  V30 4415 C 401.05 4.60961 -4.02717 0
M  V30 4416 N 400.187 5.81024 -3.94151 0
M  V30 4417 H 405.027 1.55439 -2.54249 0
M  V30 4418 H 402.564 0.757219 -1.26113 0
M  V30 4419 H 404.522 3.85064 -1.60566 0
M  V30 4420 H 403.152 3.15015 -0.704645 0
M  V30 4421 H 402.204 2.35248 -2.98936 0
M  V30 4422 H 403.516 3.25412 -3.78032 0
M  V30 4423 H 402.67 5.3896 -2.7858 0
M  V30 4424 H 401.409 4.49568 -1.89049 0
M  V30 4425 H 400.414 3.71021 -4.05738 0
M  V30 4426 H 401.639 4.63761 -4.96087 0
M  V30 4427 H 399.585 5.80938 -3.04708 0
M  V30 4428 H 399.502 5.85909 -4.77752 0
M  V30 4429 H 400.77 6.71744 -3.9545 0
M  V30 4430 N 404.999 1.35443 0.805782 0
M  V30 4431 C 406.248 1.28097 1.55801 0
M  V30 4432 C 406.561 -0.142428 1.95081 0
M  V30 4433 O 407.767 -0.33817 2.69386 0
M  V30 4434 C 406.223 2.24653 2.81174 0
M  V30 4435 C 405.831 3.72342 2.49129 0
M  V30 4436 C 407.575 2.2625 3.59181 0
M  V30 4437 C 405.482 4.60719 3.70799 0
M  V30 4438 H 404.412 0.475937 0.584808 0
M  V30 4439 H 407.063 1.60712 0.885661 0
M  V30 4440 H 405.445 1.85011 3.50124 0
M  V30 4441 H 406.619 4.20624 1.88181 0
M  V30 4442 H 404.934 3.73361 1.84366 0
M  V30 4443 H 407.531 2.89495 4.49552 0
M  V30 4444 H 407.874 1.26647 3.96568 0
M  V30 4445 H 408.407 2.64426 2.97193 0
M  V30 4446 H 405.146 5.61324 3.3852 0
M  V30 4447 H 404.666 4.17163 4.3097 0
M  V30 4448 H 406.345 4.76182 4.38018 0
M  V30 4449 N 406.477 -1.02803 1.19454 0
M  V30 4450 C 407.705 -1.79841 1.02297 0
M  V30 4451 C 408.12 -1.83879 -0.428259 0
M  V30 4452 O 407.477 -1.28345 -1.29745 0
M  V30 4453 C 407.528 -3.24852 1.58598 0
M  V30 4454 O 407.249 -3.21097 2.98041 0
M  V30 4455 C 408.75 -4.18485 1.46236 0
M  V30 4456 H 405.97 -0.565936 0.360496 0
M  V30 4457 H 408.514 -1.2948 1.58288 0
M  V30 4458 H 406.669 -3.72401 1.06753 0
M  V30 4459 H 407.083 -4.12033 3.24545 0
M  V30 4460 H 408.557 -5.18121 1.90407 0
M  V30 4461 H 409.034 -4.37254 0.41301 0
M  V30 4462 H 409.64 -3.76811 1.97215 0
M  V30 4463 N 407.956 -0.998596 -1.21925 0
M  V30 4464 C 408.886 -0.573688 -2.26343 0
M  V30 4465 C 409.867 0.402296 -1.65274 0
M  V30 4466 O 411.052 0.291683 -1.91997 0
M  V30 4467 C 408.182 0.106839 -3.47136 0
M  V30 4468 C 407.136 -0.788269 -4.20678 0
M  V30 4469 C 406.462 0.0254927 -5.34694 0
M  V30 4470 C 407.762 -2.08784 -4.78755 0
M  V30 4471 H 409.456 -1.44651 -2.62138 0
M  V30 4472 H 407.002 -0.696975 -1.26009 0
M  V30 4473 H 408.955 0.415531 -4.19346 0
M  V30 4474 H 407.679 1.01424 -3.10452 0
M  V30 4475 H 406.338 -1.08069 -3.50309 0
M  V30 4476 H 405.986 0.933989 -4.94253 0
M  V30 4477 H 405.686 -0.570437 -5.84825 0
M  V30 4478 H 407.21 0.328147 -6.09718 0
M  V30 4479 H 408.624 -1.84272 -5.42878 0
M  V30 4480 H 407.021 -2.63307 -5.39249 0
M  V30 4481 H 408.091 -2.76284 -3.98491 0
M  V30 4482 N 409.434 1.37368 -0.772513 0
M  V30 4483 C 410.674 2.01512 -0.342361 0
M  V30 4484 C 411.038 1.59997 1.06136 0
M  V30 4485 O 412.239 2.16609 1.59167 0
M  V30 4486 C 410.51 3.54134 -0.482048 0
M  V30 4487 S 412.069 4.38585 -0.137272 0
M  V30 4488 H 408.887 0.698699 -0.131686 0
M  V30 4489 H 411.489 1.67552 -1.0073 0
M  V30 4490 H 410.193 3.81837 -1.50428 0
M  V30 4491 H 409.724 3.92894 0.199413 0
M  V30 4492 H 411.739 4.84594 1.06692 0
M  V30 4493 N 410.912 0.523116 1.48665 0
M  V30 4494 C 412.161 -0.01544 2.01694 0
M  V30 4495 C 412.474 -1.35975 1.40606 0
M  V30 4496 O 413.68 -1.98627 1.85093 0
M  V30 4497 C 412.136 -0.0779303 3.59816 0
M  V30 4498 C 411.744 1.26107 4.29885 0
M  V30 4499 C 413.488 -0.565678 4.20714 0
M  V30 4500 C 411.395 1.15954 5.79921 0
M  V30 4501 H 410.325 -0.00954163 0.75394 0
M  V30 4502 H 412.976 0.665865 1.70993 0
M  V30 4503 H 411.358 -0.824165 3.87329 0
M  V30 4504 H 412.532 2.02233 4.14051 0
M  V30 4505 H 410.847 1.68401 3.80828 0
M  V30 4506 H 413.444 -0.6595 5.30617 0
M  V30 4507 H 413.787 -1.56984 3.85567 0
M  V30 4508 H 414.32 0.12467 3.97605 0
M  V30 4509 H 411.059 2.13864 6.19631 0
M  V30 4510 H 410.579 0.439529 5.98187 0
M  V30 4511 H 412.258 0.847361 6.41427 0
M  V30 4512 N 412.39 -1.55475 0.257931 0
M  V30 4513 C 413.615 -2.04064 -0.370488 0
M  V30 4514 C 414.04 -1.13565 -1.49948 0
M  V30 4515 O 413.398 -0.130781 -1.80828 0
M  V30 4516 C 413.446 -3.50554 -0.845237 0
M  V30 4517 O 412.55 -3.63173 -1.95394 0
M  V30 4518 H 411.891 -0.659257 -0.0792243 0
M  V30 4519 H 414.421 -2.00903 0.387212 0
M  V30 4520 H 414.431 -3.91588 -1.14555 0
M  V30 4521 H 413.106 -4.15896 -0.0191259 0
M  V30 4522 H 411.683 -3.34039 -1.65748 0
M  V30 4523 N 413.868 0.0150385 -1.57593 0
M  V30 4524 C 415.114 0.704043 -1.90187 0
M  V30 4525 C 415.447 1.74249 -0.857366 0
M  V30 4526 O 414.722 1.94092 0.125843 0
M  V30 4527 C 415.005 1.36087 -3.33395 0
M  V30 4528 C 414.858 0.334981 -4.48551 0
M  V30 4529 C 416.177 2.29112 -3.7576 0
M  V30 4530 H 413.296 0.254475 -0.691673 0
M  V30 4531 H 415.938 -0.0331678 -1.89971 0
M  V30 4532 H 414.088 1.98922 -3.3371 0
M  V30 4533 H 415.76 -0.292534 -4.60372 0
M  V30 4534 H 414.003 -0.344325 -4.32431 0
M  V30 4535 H 414.674 0.833316 -5.45674 0
M  V30 4536 H 417.15 1.76308 -3.76902 0
M  V30 4537 H 416.026 2.72043 -4.76743 0
M  V30 4538 H 416.287 3.16385 -3.08793 0
M  V30 4539 N 415.346 1.54954 0.287554 0
M  V30 4540 C 416.276 1.89839 1.35954 0
M  V30 4541 C 417.257 0.758675 1.52244 0
M  V30 4542 O 418.442 1.01557 1.65529 0
M  V30 4543 C 415.572 2.15753 2.72154 0
M  V30 4544 C 414.526 3.3159 2.70614 0
M  V30 4545 C 413.852 3.42952 4.10229 0
M  V30 4546 C 415.152 4.68359 2.31165 0
M  V30 4547 H 416.846 2.79625 1.07007 0
M  V30 4548 H 414.392 1.3454 0.513316 0
M  V30 4549 H 416.345 2.38743 3.47246 0
M  V30 4550 H 415.069 1.22752 3.02654 0
M  V30 4551 H 413.728 3.08545 1.97979 0
M  V30 4552 H 413.376 2.47443 4.37928 0
M  V30 4553 H 413.076 4.20826 4.10097 0
M  V30 4554 H 414.6 3.68218 4.87081 0
M  V30 4555 H 416.014 4.9099 2.95976 0
M  V30 4556 H 414.411 5.49044 2.42221 0
M  V30 4557 H 415.481 4.68165 1.26291 0
M  V30 4558 N 416.824 -0.551391 1.4764 0
M  V30 4559 C 417.754 -1.66757 1.63445 0
M  V30 4560 C 418.735 -1.63077 0.483742 0
M  V30 4561 O 419.92 -1.80607 0.71377 0
M  V30 4562 C 417.05 -3.05387 1.65396 0
M  V30 4563 C 416.004 -3.23918 2.79752 0
M  V30 4564 C 415.33 -4.63393 2.66779 0
M  V30 4565 C 416.63 -3.08735 4.21284 0
M  V30 4566 H 418.324 -1.53786 2.56886 0
M  V30 4567 H 415.87 -0.738415 1.23626 0
M  V30 4568 H 417.823 -3.83325 1.75043 0
M  V30 4569 H 416.547 -3.19332 0.685195 0
M  V30 4570 H 415.206 -2.48391 2.69625 0
M  V30 4571 H 414.854 -4.74144 1.67918 0
M  V30 4572 H 414.554 -4.7674 3.43501 0
M  V30 4573 H 416.078 -5.43458 2.78364 0
M  V30 4574 H 417.492 -3.76484 4.32357 0
M  V30 4575 H 415.889 -3.33588 4.98838 0
M  V30 4576 H 416.959 -2.0541 4.39243 0
M  V30 4577 N 418.302 -1.35869 -0.798587 0
M  V30 4578 C 419.527 -1.32883 -1.59238 0
M  V30 4579 C 419.952 0.0894587 -1.87887 0
M  V30 4580 O 419.31 1.05869 -1.47178 0
M  V30 4581 C 419.358 -2.14892 -2.89575 0
M  V30 4582 O 418.462 -1.53512 -3.82763 0
M  V30 4583 H 417.803 -0.455236 -0.48338 0
M  V30 4584 H 420.333 -1.79024 -0.990539 0
M  V30 4585 H 420.343 -2.27139 -3.38928 0
M  V30 4586 H 419.018 -3.17998 -2.68049 0
M  V30 4587 H 417.595 -1.50153 -3.41334 0
M  V30 4588 N 419.78 1.02168 -1.19998 0
M  V30 4589 C 420.71 2.12488 -0.96804 0
M  V30 4590 C 421.691 1.69799 0.101185 0
M  V30 4591 O 422.876 1.94121 -0.0552993 0
M  V30 4592 C 420.006 3.43479 -0.513776 0
M  V30 4593 C 418.96 3.99884 -1.52566 0
M  V30 4594 C 418.286 5.26582 -0.928214 0
M  V30 4595 C 419.586 4.33861 -2.90795 0
M  V30 4596 H 421.28 2.32149 -1.89069 0
M  V30 4597 H 418.826 1.11564 -0.910468 0
M  V30 4598 H 420.779 4.20036 -0.338774 0
M  V30 4599 H 419.503 3.23561 0.444493 0
M  V30 4600 H 418.162 3.25429 -1.68794 0
M  V30 4601 H 417.81 5.02986 0.0378289 0
M  V30 4602 H 417.51 5.65284 -1.60397 0
M  V30 4603 H 419.034 6.05799 -0.764167 0
M  V30 4604 H 420.448 5.01327 -2.78109 0
M  V30 4605 H 418.845 4.83664 -3.55231 0
M  V30 4606 H 419.915 3.42848 -3.42904 0
M  V30 4607 N 421.258 1.00505 1.21394 0
M  V30 4608 C 422.486 0.706609 1.9446 0
M  V30 4609 C 422.901 -0.73081 1.74082 0
M  V30 4610 O 422.258 -1.49446 1.04747 0
M  V30 4611 C 422.309 1.01824 3.46863 0
M  V30 4612 O 422.03 2.39919 3.66566 0
M  V30 4613 C 423.531 0.739216 4.37093 0
M  V30 4614 H 420.751 0.260394 0.618414 0
M  V30 4615 H 423.295 1.34311 1.54211 0
M  V30 4616 H 421.45 0.427343 3.85036 0
M  V30 4617 H 421.864 2.50784 4.6066 0
M  V30 4618 H 423.338 1.00744 5.42729 0
M  V30 4619 H 423.815 -0.326746 4.37983 0
M  V30 4620 H 424.421 1.31173 4.04566 0
M  V30 4621 N 422.737 -1.36956 0.779787 0
M  V30 4622 C 423.983 -1.99787 0.348281 0
M  V30 4623 C 424.316 -1.61756 -1.07465 0
M  V30 4624 O 423.591 -0.867639 -1.74075 0
M  V30 4625 C 423.874 -3.56597 0.50104 0
M  V30 4626 C 423.727 -4.04513 1.96697 0
M  V30 4627 C 425.046 -4.40008 -0.0898097 0
M  V30 4628 H 422.165 -0.725796 0.128022 0
M  V30 4629 H 424.807 -1.62514 0.984331 0
M  V30 4630 H 422.957 -3.88479 -0.0404347 0
M  V30 4631 H 424.629 -3.83161 2.56876 0
M  V30 4632 H 422.872 -3.56408 2.47297 0
M  V30 4633 H 423.543 -5.1352 2.02486 0
M  V30 4634 H 426.019 -4.14431 0.372293 0
M  V30 4635 H 424.895 -5.4888 0.0471605 0
M  V30 4636 H 425.156 -4.26035 -1.18096 0
M  V30 4637 N 424.215 -0.530993 -1.48385 0
M  V30 4638 C 425.462 0.0027373 -2.025 0
M  V30 4639 C 425.79 1.34186 -1.40799 0
M  V30 4640 O 425.045 1.88 -0.543544 0
M  V30 4641 C 425.344 0.172742 -3.56982 0
M  V30 4642 C 425.01 -1.09215 -4.37473 0
M  V30 4643 C 423.672 -1.43881 -4.59186 0
M  V30 4644 C 426.024 -1.93153 -4.84088 0
M  V30 4645 C 423.352 -2.62381 -5.2476 0
M  V30 4646 C 425.704 -3.10833 -5.50968 0
M  V30 4647 C 424.368 -3.45843 -5.70919 0
M  V30 4648 H 423.638 0.00100165 -0.740999 0
M  V30 4649 H 426.285 -0.697219 -1.78357 0
M  V30 4650 H 424.59 0.955473 -3.79971 0
M  V30 4651 H 426.287 0.600642 -3.96476 0
M  V30 4652 H 422.877 -0.812177 -4.20834 0
M  V30 4653 H 427.061 -1.67683 -4.67115 0
M  V30 4654 H 422.317 -2.89707 -5.38405 0
M  V30 4655 H 426.491 -3.7618 -5.86056 0
M  V30 4656 H 424.118 -4.37764 -6.21503 0
M  V30 4657 N 425.693 1.55336 -0.266172 0
M  V30 4658 C 426.623 2.25146 0.618981 0
M  V30 4659 C 427.604 1.23845 1.16604 0
M  V30 4660 O 428.789 1.52544 1.20183 0
M  V30 4661 C 425.919 2.96572 1.80728 0
M  V30 4662 C 424.873 4.04726 1.39215 0
M  V30 4663 C 424.199 4.63678 2.66283 0
M  V30 4664 C 425.499 5.19407 0.548942 0
M  V30 4665 H 427.193 2.99377 0.0368116 0
M  V30 4666 H 424.739 1.43991 0.0162651 0
M  V30 4667 H 426.692 3.44116 2.43232 0
M  V30 4668 H 425.416 2.19861 2.41514 0
M  V30 4669 H 424.075 3.57979 0.790351 0
M  V30 4670 H 423.723 3.83646 3.25308 0
M  V30 4671 H 423.423 5.367 2.39222 0
M  V30 4672 H 424.947 5.13967 3.29651 0
M  V30 4673 H 426.361 5.63059 1.07876 0
M  V30 4674 H 424.758 5.98936 0.373593 0
M  V30 4675 H 425.828 4.8295 -0.434394 0
M  V30 4676 N 427.171 -0.0066808 1.57599 0
M  V30 4677 C 428.101 -0.999296 2.11036 0
M  V30 4678 C 429.082 -1.36278 1.01795 0
M  V30 4679 O 430.267 -1.4477 1.29442 0
M  V30 4680 C 427.397 -2.29328 2.60818 0
M  V30 4681 C 426.351 -2.07159 3.74525 0
M  V30 4682 C 425.677 -3.42512 4.10596 0
M  V30 4683 C 426.977 -1.43959 5.02069 0
M  V30 4684 H 428.671 -0.554382 2.94223 0
M  V30 4685 H 426.217 -0.265221 1.41536 0
M  V30 4686 H 428.17 -2.99117 2.96828 0
M  V30 4687 H 426.894 -2.7592 1.74745 0
M  V30 4688 H 425.553 -1.39797 3.38899 0
M  V30 4689 H 425.201 -3.86795 3.21556 0
M  V30 4690 H 424.901 -3.28498 4.87199 0
M  V30 4691 H 426.425 -4.13628 4.4916 0
M  V30 4692 H 427.839 -2.03696 5.35893 0
M  V30 4693 H 426.236 -1.40452 5.83432 0
M  V30 4694 H 427.306 -0.407992 4.83181 0
M  V30 4695 N 428.649 -1.55105 -0.279332 0
M  V30 4696 C 429.579 -1.90557 -1.34945 0
M  V30 4697 C 430.56 -0.766738 -1.51839 0
M  V30 4698 O 431.745 -1.02434 -1.64988 0
M  V30 4699 C 428.875 -2.17193 -2.71006 0
M  V30 4700 C 427.829 -3.33021 -2.68851 0
M  V30 4701 C 427.155 -3.45123 -4.08405 0
M  V30 4702 C 428.455 -4.69578 -2.28678 0
M  V30 4703 H 430.149 -2.80188 -1.05522 0
M  V30 4704 H 427.695 -1.34811 -0.506173 0
M  V30 4705 H 429.648 -2.40581 -3.45975 0
M  V30 4706 H 428.372 -1.24355 -3.01999 0
M  V30 4707 H 427.031 -3.0959 -1.9634 0
M  V30 4708 H 426.679 -2.49762 -4.3661 0
M  V30 4709 H 426.379 -4.22995 -4.07859 0
M  V30 4710 H 427.903 -3.70796 -4.85121 0
M  V30 4711 H 429.317 -4.92553 -2.93368 0
M  V30 4712 H 427.714 -5.5032 -2.39306 0
M  V30 4713 H 428.784 -4.68828 -1.23807 0
M  V30 4714 N 430.127 0.543554 -1.4793 0
M  V30 4715 C 431.376 1.29649 -1.54512 0
M  V30 4716 C 431.689 1.94382 -0.217973 0
M  V30 4717 O 432.895 2.71017 -0.161908 0
M  V30 4718 C 431.351 2.35175 -2.72435 0
M  V30 4719 C 430.959 1.76572 -4.11736 0
M  V30 4720 C 432.703 3.11564 -2.8832 0
M  V30 4721 C 430.61 2.79958 -5.20939 0
M  V30 4722 H 429.54 0.487541 -0.57517 0
M  V30 4723 H 432.191 0.575708 -1.74235 0
M  V30 4724 H 430.573 3.10229 -2.46118 0
M  V30 4725 H 431.747 1.07799 -4.48013 0
M  V30 4726 H 430.062 1.12722 -4.00852 0
M  V30 4727 H 432.659 3.88794 -3.67074 0
M  V30 4728 H 433.002 3.66594 -1.97268 0
M  V30 4729 H 433.535 2.43623 -3.14472 0
M  V30 4730 H 430.274 2.29766 -6.13912 0
M  V30 4731 H 429.794 3.47101 -4.89164 0
M  V30 4732 H 431.473 3.43198 -5.48474 0
M  V30 4733 N 431.605 1.3629 0.791371 0
M  V30 4734 C 432.833 1.33562 1.58016 0
M  V30 4735 C 433.248 -0.0835616 1.88615 0
M  V30 4736 O 432.605 -1.0399 1.49974 0
M  V30 4737 C 432.656 2.15517 2.90232 0
M  V30 4738 O 432.377 3.51902 2.60953 0
M  V30 4739 C 433.878 2.20546 3.84544 0
M  V30 4740 H 431.098 0.458226 0.490173 0
M  V30 4741 H 433.642 1.79361 0.982345 0
M  V30 4742 H 431.797 1.73278 3.46487 0
M  V30 4743 H 432.211 3.94644 3.4548 0
M  V30 4744 H 433.685 2.82252 4.74382 0
M  V30 4745 H 434.162 1.20838 4.2225 0
M  V30 4746 H 434.768 2.63013 3.34222 0
M  V30 4747 N 433.083 -1.0153 1.20538 0
M  V30 4748 C 433.993 -2.13557 0.971113 0
M  V30 4749 C 435.009 -1.73845 -0.0734366 0
M  V30 4750 O 436.185 -2.01075 0.114299 0
M  V30 4751 C 433.25 -3.42661 0.527639 0
M  V30 4752 C 432.311 -3.96608 1.64319 0
M  V30 4753 C 431.544 -5.1955 1.22078 0
M  V30 4754 O 431.767 -5.70329 0.0900198 0
M  V30 4755 O 430.701 -5.66681 2.02871 0
M  V30 4756 H 434.527 -2.3619 1.90913 0
M  V30 4757 H 432.112 -1.11946 0.989362 0
M  V30 4758 H 433.994 -4.20404 0.289621 0
M  V30 4759 H 432.669 -3.21441 -0.381779 0
M  V30 4760 H 431.576 -3.20139 1.93551 0
M  V30 4761 H 432.909 -4.22219 2.52966 0
M  V30 4762 N 434.561 -1.01147 -1.20859 0
M  V30 4763 C 435.81 -0.693214 -1.89413 0
M  V30 4764 C 436.123 0.779969 -1.79376 0
M  V30 4765 O 437.329 1.21057 -2.43017 0
M  V30 4766 C 435.785 -1.18949 -3.39675 0
M  V30 4767 C 435.393 -2.68921 -3.58309 0
M  V30 4768 C 437.137 -0.94642 -4.13815 0
M  V30 4769 C 435.044 -3.12056 -5.0237 0
M  V30 4770 H 433.974 -0.255595 -0.709357 0
M  V30 4771 H 436.625 -1.22349 -1.36759 0
M  V30 4772 H 435.007 -0.587228 -3.91622 0
M  V30 4773 H 436.181 -3.34652 -3.16772 0
M  V30 4774 H 434.496 -2.91314 -2.97532 0
M  V30 4775 H 437.093 -1.24417 -5.20023 0
M  V30 4776 H 437.436 0.117219 -4.16135 0
M  V30 4777 H 437.969 -1.5118 -3.67953 0
M  V30 4778 H 434.708 -4.17674 -5.05202 0
M  V30 4779 H 434.228 -2.51041 -5.44737 0
M  V30 4780 H 435.907 -3.04403 -5.70918 0
M  V30 4781 N 436.039 1.36541 -0.78704 0
M  V30 4782 C 437.288 1.98552 -0.35494 0
M  V30 4783 C 437.601 1.63171 1.07864 0
M  V30 4784 O 438.807 2.18399 1.61289 0
M  V30 4785 C 437.263 3.55136 -0.583671 0
M  V30 4786 C 436.871 3.99444 -2.02851 0
M  V30 4787 C 438.615 4.2395 -0.215957 0
M  V30 4788 C 436.522 5.48796 -2.20403 0
M  V30 4789 H 435.452 0.742888 -0.128972 0
M  V30 4790 H 438.103 1.5587 -0.968337 0
M  V30 4791 H 436.485 3.95875 0.0994046 0
M  V30 4792 H 437.659 3.6991 -2.74779 0
M  V30 4793 H 435.974 3.43459 -2.35425 0
M  V30 4794 H 438.571 5.33709 -0.325405 0
M  V30 4795 H 438.914 4.07827 0.835646 0
M  V30 4796 H 439.447 3.88565 -0.852175 0
M  V30 4797 H 436.186 5.69864 -3.23937 0
M  V30 4798 H 435.706 5.79964 -1.52977 0
M  V30 4799 H 437.385 6.14986 -2.01002 0
M  V30 4800 N 437.518 0.538854 1.48102 0
M  V30 4801 C 438.929 0.100679 1.86428 0
M  V30 4802 C 439.28 -1.32447 1.44749 0
M  V30 4803 O 438.405 -1.99339 0.842199 0
M  V30 4804 C 439 0.175933 3.38343 0
M  V30 4805 C 437.559 -0.207098 3.7583 0
M  V30 4806 C 436.706 0.531741 2.72154 0
M  V30 4807 H 439.657 0.749614 1.3988 0
M  V30 4808 H 439.678 -0.610144 3.75576 0
M  V30 4809 H 439.19 1.21328 3.68648 0
M  V30 4810 H 437.291 -1.24626 3.5114 0
M  V30 4811 H 437.404 0.138687 4.78899 0
M  V30 4812 H 435.768 -0.0230462 2.5469 0
M  V30 4813 H 436.551 1.56989 3.05302 0
M  V30 4814 N 438.996 -1.55193 0.274407 0
M  V30 4815 C 440.221 -2.04446 -0.348824 0
M  V30 4816 C 440.646 -1.15149 -1.48735 0
M  V30 4817 O 440.004 -0.149952 -1.80679 0
M  V30 4818 C 440.052 -3.51431 -0.808009 0
M  V30 4819 O 439.156 -3.65225 -1.91531 0
M  V30 4820 H 438.497 -0.66006 -0.0722276 0
M  V30 4821 H 441.027 -2.00481 0.408498 0
M  V30 4822 H 441.037 -3.92781 -1.10395 0
M  V30 4823 H 439.712 -4.15892 0.0249865 0
M  V30 4824 H 438.289 -3.35778 -1.62196 0
M  V30 4825 N 440.474 -0.00167713 -1.576 0
M  V30 4826 C 441.702 0.693759 -1.94922 0
M  V30 4827 C 442.117 1.67215 -0.876626 0
M  V30 4828 O 441.474 1.81929 0.144279 0
M  V30 4829 C 441.525 1.42416 -3.32265 0
M  V30 4830 O 441.246 0.485014 -4.35407 0
M  V30 4831 C 442.747 2.21395 -3.84056 0
M  V30 4832 H 439.967 0.193118 -0.642609 0
M  V30 4833 H 442.511 -0.0532952 -2.04431 0
M  V30 4834 H 440.666 2.12284 -3.24059 0
M  V30 4835 H 441.08 1.00053 -5.14868 0
M  V30 4836 H 442.554 2.67996 -4.82578 0
M  V30 4837 H 443.031 3.04142 -3.16851 0
M  V30 4838 H 443.637 1.56542 -3.95443 0
M  V30 4839 N 441.952 1.55251 0.271103 0
M  V30 4840 C 443.177 1.80306 1.02491 0
M  V30 4841 C 443.602 0.575457 1.79081 0
M  V30 4842 O 442.96 -0.474987 1.74967 0
M  V30 4843 C 443.008 3.02832 1.95768 0
M  V30 4844 O 442.112 2.78051 3.04568 0
M  V30 4845 H 441.453 0.595896 0.292923 0
M  V30 4846 H 443.983 2.02397 0.299436 0
M  V30 4847 H 443.993 3.31616 2.37686 0
M  V30 4848 H 442.668 3.9183 1.39434 0
M  V30 4849 H 441.245 2.60369 2.66951 0
M  V30 4850 N 443.43 -0.535701 1.48216 0
M  V30 4851 C 444.36 -1.65014 1.65204 0
M  V30 4852 C 445.341 -1.62554 0.501011 0
M  V30 4853 O 446.526 -1.7984 0.732886 0
M  V30 4854 C 443.656 -3.03616 1.68626 0
M  V30 4855 C 442.61 -3.20932 2.83172 0
M  V30 4856 C 441.936 -4.60537 2.71679 0
M  V30 4857 C 443.236 -3.04249 4.24535 0
M  V30 4858 H 444.93 -1.51053 2.58502 0
M  V30 4859 H 442.476 -0.725262 1.24402 0
M  V30 4860 H 444.429 -3.81446 1.79099 0
M  V30 4861 H 443.153 -3.18587 0.719026 0
M  V30 4862 H 441.812 -2.45517 2.72244 0
M  V30 4863 H 441.46 -4.72336 1.72937 0
M  V30 4864 H 441.16 -4.73069 3.48538 0
M  V30 4865 H 442.684 -5.40475 2.84112 0
M  V30 4866 H 444.098 -3.71877 4.36326 0
M  V30 4867 H 442.495 -3.28278 5.02348 0
M  V30 4868 H 443.565 -2.00739 4.41397 0
M  V30 4869 N 444.908 -1.36708 -0.784132 0
M  V30 4870 C 446.154 -1.31426 -1.54451 0
M  V30 4871 C 446.487 0.10476 -1.93917 0
M  V30 4872 O 445.762 1.05934 -1.6312 0
M  V30 4873 C 446.045 -2.24189 -2.818 0
M  V30 4874 C 445.898 -3.74813 -2.48667 0
M  V30 4875 C 447.217 -2.15626 -3.83658 0
M  V30 4876 H 444.336 -0.478739 -0.560337 0
M  V30 4877 H 446.978 -1.67305 -0.900498 0
M  V30 4878 H 445.128 -1.93722 -3.36755 0
M  V30 4879 H 446.8 -4.15823 -1.99722 0
M  V30 4880 H 445.043 -3.93989 -1.81535 0
M  V30 4881 H 445.714 -4.35138 -3.39646 0
M  V30 4882 H 448.19 -2.42456 -3.38163 0
M  V30 4883 H 447.066 -2.82694 -4.70506 0
M  V30 4884 H 447.327 -1.14522 -4.27009 0
M  V30 4885 N 446.386 1.0089 -1.21074 0
M  V30 4886 C 447.635 1.74019 -1.01981 0
M  V30 4887 C 447.948 1.90408 0.447665 0
M  V30 4888 O 449.154 2.60707 0.757906 0
M  V30 4889 C 447.61 3.13026 -1.77603 0
M  V30 4890 C 447.218 3.04623 -3.28495 0
M  V30 4891 C 448.962 3.90312 -1.66904 0
M  V30 4892 C 446.869 4.38685 -3.96623 0
M  V30 4893 H 445.799 0.652422 -0.377971 0
M  V30 4894 H 448.45 1.12755 -1.44771 0
M  V30 4895 H 446.832 3.74878 -1.27604 0
M  V30 4896 H 448.006 2.52032 -3.85767 0
M  V30 4897 H 446.321 2.40827 -3.39693 0
M  V30 4898 H 448.918 4.8951 -2.15138 0
M  V30 4899 H 449.261 4.11558 -0.62658 0
M  V30 4900 H 449.794 3.35104 -2.14359 0
M  V30 4901 H 446.533 4.22641 -5.01054 0
M  V30 4902 H 446.053 4.91252 -3.4414 0
M  V30 4903 H 447.732 5.075 -4.01314 0
M  V30 4904 N 447.864 1.01787 1.20321 0
M  V30 4905 C 449.275 0.739307 1.71438 0
M  V30 4906 C 449.626 -0.742041 1.81627 0
M  V30 4907 O 448.751 -1.57903 1.47971 0
M  V30 4908 C 449.346 1.33538 3.11373 0
M  V30 4909 C 447.905 1.10566 3.59795 0
M  V30 4910 C 447.052 1.44028 2.36962 0
M  V30 4911 H 450.003 1.18718 1.05317 0
M  V30 4912 H 450.024 0.726611 3.73498 0
M  V30 4913 H 449.536 2.41352 3.03926 0
M  V30 4914 H 447.637 0.0452405 3.72573 0
M  V30 4915 H 447.75 1.78661 4.44542 0
M  V30 4916 H 446.114 0.85933 2.39766 0
M  V30 4917 H 446.897 2.52901 2.32155 0
M  V30 4918 N 449.342 -1.36122 0.79427 0
M  V30 4919 C 450.272 -2.32551 0.210328 0
M  V30 4920 C 451.253 -1.56884 -0.657386 0
M  V30 4921 O 452.438 -1.85014 -0.590207 0
M  V30 4922 C 449.568 -3.41128 -0.651819 0
M  V30 4923 C 448.522 -4.27842 0.116395 0
M  V30 4924 C 447.848 -5.2763 -0.86666 0
M  V30 4925 C 449.148 -5.05647 1.30837 0
M  V30 4926 H 450.842 -2.81636 1.01594 0
M  V30 4927 H 448.388 -1.35407 0.489981 0
M  V30 4928 H 450.341 -4.07581 -1.07031 0
M  V30 4929 H 449.065 -2.90622 -1.49019 0
M  V30 4930 H 447.724 -3.62952 0.515915 0
M  V30 4931 H 447.372 -4.73395 -1.70019 0
M  V30 4932 H 447.072 -5.86514 -0.35705 0
M  V30 4933 H 448.596 -5.96955 -1.28361 0
M  V30 4934 H 450.01 -5.65113 0.965393 0
M  V30 4935 H 448.407 -5.73967 1.75161 0
M  V30 4936 H 449.477 -4.37006 2.10128 0
M  V30 4937 N 450.82 -0.546701 -1.47814 0
M  V30 4938 C 452.069 -0.0166497 -2.01693 0
M  V30 4939 C 452.382 1.33721 -1.42752 0
M  V30 4940 O 453.588 1.95658 -1.8823 0
M  V30 4941 C 452.044 0.0206769 -3.59894 0
M  V30 4942 C 451.652 -1.3293 -4.27824 0
M  V30 4943 C 453.396 0.498674 -4.21561 0
M  V30 4944 C 451.303 -1.25165 -5.78003 0
M  V30 4945 H 450.233 -0.0024541 -0.753996 0
M  V30 4946 H 452.884 -0.692984 -1.69912 0
M  V30 4947 H 451.266 0.76244 -3.88591 0
M  V30 4948 H 452.44 -2.08795 -4.10781 0
M  V30 4949 H 450.755 -1.74438 -3.78101 0
M  V30 4950 H 453.352 0.575 -5.31599 0
M  V30 4951 H 453.695 1.5083 -3.88016 0
M  V30 4952 H 454.228 -0.18791 -3.97356 0
M  V30 4953 H 450.967 -2.23695 -6.1615 0
M  V30 4954 H 450.487 -0.53464 -5.97412 0
M  V30 4955 H 452.166 -0.949299 -6.39998 0
M  V30 4956 N 452.299 1.55045 -0.282633 0
M  V30 4957 C 453.547 1.99365 0.331334 0
M  V30 4958 C 453.868 1.1725 1.55812 0
M  V30 4959 O 453.138 0.263871 1.94115 0
M  V30 4960 H 451.718 0.736397 0.125414 0
M  V30 4961 H 454.38 1.90964 -0.389711 0
M  V30 4962 H 453.476 3.0596 0.616036 0
M  V30 4963 N 453.777 0.010035 1.57597 0
M  V30 4964 C 454.687 -0.994226 2.12491 0
M  V30 4965 C 455.703 -1.37013 1.07254 0
M  V30 4966 O 456.879 -1.45542 1.3921 0
M  V30 4967 C 453.944 -2.2642 2.62555 0
M  V30 4968 C 453.005 -1.95049 3.82432 0
M  V30 4969 C 452.238 -3.15991 4.30099 0
M  V30 4970 O 452.461 -4.28015 3.7704 0
M  V30 4971 O 451.395 -2.99403 5.22151 0
M  V30 4972 H 455.221 -0.557549 2.98538 0
M  V30 4973 H 452.806 -0.209413 1.47925 0
M  V30 4974 H 454.688 -3.01009 2.9491 0
M  V30 4975 H 453.363 -2.69306 1.796 0
M  V30 4976 H 452.27 -1.17904 3.55034 0
M  V30 4977 H 453.603 -1.56992 4.66491 0
M  V30 4978 N 455.255 -1.55392 -0.262866 0
M  V30 4979 C 456.485 -1.80251 -1.00961 0
M  V30 4980 C 456.893 -0.58117 -1.80053 0
M  V30 4981 O 456.236 0.459427 -1.77862 0
M  V30 4982 C 456.298 -2.98207 -2.00781 0
M  V30 4983 C 455.962 -4.34856 -1.40533 0
M  V30 4984 C 456.959 -5.13459 -0.815853 0
M  V30 4985 C 454.644 -4.8153 -1.42948 0
M  V30 4986 C 456.638 -6.36875 -0.258562 0
M  V30 4987 C 454.325 -6.04899 -0.868334 0
M  V30 4988 C 455.323 -6.8241 -0.283884 0
M  V30 4989 O 455.011 -8.03451 0.268644 0
M  V30 4990 H 454.743 -0.604049 -0.303482 0
M  V30 4991 H 457.297 -2.03257 -0.295926 0
M  V30 4992 H 455.527 -2.70917 -2.75936 0
M  V30 4993 H 457.216 -3.10299 -2.61667 0
M  V30 4994 H 457.982 -4.78526 -0.789812 0
M  V30 4995 H 453.861 -4.21201 -1.87378 0
M  V30 4996 H 457.405 -6.97318 0.198257 0
M  V30 4997 H 453.302 -6.39312 -0.891649 0
M  V30 4998 H 454.07 -8.18346 0.158974 0
M  V30 4999 N 456.733 0.527833 -1.48498 0
M  V30 5000 C 457.663 1.64136 -1.66077 0
M  V30 5001 C 458.644 1.62286 -0.509625 0
M  V30 5002 O 459.829 1.79449 -0.742413 0
M  V30 5003 C 456.959 3.02717 -1.70234 0
M  V30 5004 C 455.913 3.19426 -2.8487 0
M  V30 5005 C 455.239 4.5909 -2.74118 0
M  V30 5006 C 456.539 3.01993 -4.26142 0
M  V30 5007 H 458.233 1.4968 -2.593 0
M  V30 5008 H 455.779 0.718654 -1.24785 0
M  V30 5009 H 457.732 3.80491 -1.8112 0
M  V30 5010 H 456.456 3.18201 -0.735911 0
M  V30 5011 H 455.115 2.4407 -2.73542 0
M  V30 5012 H 454.763 4.71413 -1.7544 0
M  V30 5013 H 454.463 4.71214 -3.51042 0
M  V30 5014 H 455.987 5.3896 -2.86974 0
M  V30 5015 H 457.401 3.69558 -4.38292 0
M  V30 5016 H 455.798 3.2561 -5.04082 0
M  V30 5017 H 456.868 1.98396 -4.42456 0
M  V30 5018 N 458.211 1.37122 0.776871 0
M  V30 5019 C 459.141 1.35164 1.90402 0
M  V30 5020 C 460.122 0.221069 1.68657 0
M  V30 5021 O 461.307 0.420642 1.8959 0
M  V30 5022 C 458.437 1.15274 3.27611 0
M  V30 5023 C 457.391 2.25289 3.63908 0
M  V30 5024 C 456.717 1.90527 4.99603 0
M  V30 5025 C 458.017 3.67446 3.71188 0
M  V30 5026 H 459.711 2.29482 1.92297 0
M  V30 5027 H 457.257 1.10465 0.923773 0
M  V30 5028 H 459.21 1.12536 4.06096 0
M  V30 5029 H 457.934 0.174102 3.26136 0
M  V30 5030 H 456.593 2.27174 2.87728 0
M  V30 5031 H 456.241 0.91206 4.94662 0
M  V30 5032 H 455.941 2.64193 5.24858 0
M  V30 5033 H 457.465 1.89367 5.80493 0
M  V30 5034 H 458.879 3.67719 4.39836 0
M  V30 5035 H 457.276 4.40123 4.07936 0
M  V30 5036 H 458.346 4.01443 2.71977 0
M  V30 5037 N 459.689 -1.00246 1.21608 0
M  V30 5038 C 460.936 -1.74061 1.03485 0
M  V30 5039 C 461.264 -1.89658 -0.431308 0
M  V30 5040 O 460.519 -1.42976 -1.33627 0
M  V30 5041 C 460.818 -3.15448 1.68009 0
M  V30 5042 C 460.484 -3.19792 3.17874 0
M  V30 5043 C 459.146 -3.20685 3.58768 0
M  V30 5044 C 461.498 -3.16835 4.13842 0
M  V30 5045 C 458.826 -3.16309 4.94131 0
M  V30 5046 C 461.178 -3.14001 5.49169 0
M  V30 5047 C 459.842 -3.13204 5.89457 0
M  V30 5048 H 459.112 -0.636934 0.378677 0
M  V30 5049 H 461.759 -1.17473 1.51236 0
M  V30 5050 H 460.064 -3.75284 1.12557 0
M  V30 5051 H 461.761 -3.71285 1.51487 0
M  V30 5052 H 458.351 -3.19842 2.85305 0
M  V30 5053 H 462.535 -3.15303 3.83272 0
M  V30 5054 H 457.791 -3.14032 5.24589 0
M  V30 5055 H 461.965 -3.10667 6.23265 0
M  V30 5056 H 459.592 -3.09568 6.94314 0
M  V30 5057 N 461.167 -1.02423 -1.1978 0
M  V30 5058 C 462.395 -0.737456 -1.93311 0
M  V30 5059 C 462.81 0.703023 -1.75223 0
M  V30 5060 O 462.167 1.47761 -1.07112 0
M  V30 5061 C 462.218 -1.0733 -3.45199 0
M  V30 5062 O 461.939 -2.4572 -3.62702 0
M  V30 5063 C 463.44 -0.80866 -4.35862 0
M  V30 5064 H 460.66 -0.2702 -0.614193 0
M  V30 5065 H 463.204 -1.36747 -1.52054 0
M  V30 5066 H 461.359 -0.488545 -3.84307 0
M  V30 5067 H 461.773 -2.58081 -4.56612 0
M  V30 5068 H 463.247 -1.09365 -5.41057 0
M  V30 5069 H 463.724 0.257025 -4.38447 0
M  V30 5070 H 464.33 -1.37592 -4.02428 0
M  V30 5071 N 462.645 1.35699 -0.801477 0
M  V30 5072 C 463.578 2.2768 -0.153922 0
M  V30 5073 C 464.556 1.47832 0.67709 0
M  V30 5074 O 465.74 1.77104 0.645474 0
M  V30 5075 C 462.867 3.2943 0.786986 0
M  V30 5076 C 461.913 4.26485 0.0362447 0
M  V30 5077 S 462.746 5.19573 -1.2963 0
M  V30 5078 C 463.902 6.24866 -0.359705 0
M  V30 5079 H 464.135 2.82254 -0.9338 0
M  V30 5080 H 461.668 1.42421 -0.596283 0
M  V30 5081 H 463.626 3.8855 1.32436 0
M  V30 5082 H 462.287 2.73745 1.54021 0
M  V30 5083 H 461.48 4.98378 0.750668 0
M  V30 5084 H 461.082 3.71508 -0.431017 0
M  V30 5085 H 463.374 6.75957 0.456954 0
M  V30 5086 H 464.317 7.00307 -1.04768 0
M  V30 5087 H 464.725 5.64484 0.0423274 0
M  V30 5088 N 464.123 0.554532 1.47522 0
M  V30 5089 C 465.372 0.0273458 2.01681 0
M  V30 5090 C 465.685 -1.32962 1.43459 0
M  V30 5091 O 466.891 -1.94657 1.89265 0
M  V30 5092 C 465.347 -0.00159057 3.599 0
M  V30 5093 C 464.955 1.35197 4.27113 0
M  V30 5094 C 466.699 -0.476311 4.21819 0
M  V30 5095 C 464.606 1.28229 5.77331 0
M  V30 5096 H 463.536 0.00645269 0.753972 0
M  V30 5097 H 466.187 0.701985 1.69542 0
M  V30 5098 H 464.569 -0.741821 3.8899 0
M  V30 5099 H 465.743 2.1097 4.09668 0
M  V30 5100 H 464.058 1.76441 3.77171 0
M  V30 5101 H 466.655 -0.5468 5.31897 0
M  V30 5102 H 466.998 -1.4877 3.8881 0
M  V30 5103 H 467.531 0.20898 3.97251 0
M  V30 5104 H 464.27 2.26959 6.14955 0
M  V30 5105 H 463.79 0.566314 5.97121 0
M  V30 5106 H 465.469 0.983226 6.39485 0
M  V30 5107 N 465.601 -1.54893 0.290851 0
M  V30 5108 C 466.848 -1.99933 -0.321391 0
M  V30 5109 C 467.176 -1.17927 -1.54672 0
M  V30 5110 O 466.431 -0.240902 -1.94212 0
M  V30 5111 C 466.73 -3.49815 -0.732397 0
M  V30 5112 C 466.396 -4.4921 0.390056 0
M  V30 5113 C 465.058 -4.76107 0.698223 0
M  V30 5114 C 467.41 -5.08453 1.14562 0
M  V30 5115 C 464.738 -5.59514 1.76526 0
M  V30 5116 C 467.09 -5.9302 2.2025 0
M  V30 5117 C 465.754 -6.18232 2.51684 0
M  V30 5118 H 465.024 -0.731608 -0.117605 0
M  V30 5119 H 467.671 -1.87107 0.407839 0
M  V30 5120 H 465.976 -3.60199 -1.54155 0
M  V30 5121 H 467.673 -3.82083 -1.21712 0
M  V30 5122 H 464.263 -4.28372 0.13976 0
M  V30 5123 H 468.447 -4.87683 0.920801 0
M  V30 5124 H 463.703 -5.77289 2.01364 0
M  V30 5125 H 467.877 -6.37955 2.7926 0
M  V30 5126 H 465.504 -6.82653 3.34499 0
M  V30 5127 N 467.08 -0.0183926 -1.57589 0
M  V30 5128 C 468.326 0.663543 -1.91638 0
M  V30 5129 C 468.659 1.72392 -0.894134 0
M  V30 5130 O 467.934 1.94316 0.0846449 0
M  V30 5131 C 468.217 1.28984 -3.36207 0
M  V30 5132 C 468.07 0.239761 -4.49161 0
M  V30 5133 C 469.389 2.2109 -3.80536 0
M  V30 5134 H 466.508 0.239746 -0.696915 0
M  V30 5135 H 469.15 -0.073456 -1.89858 0
M  V30 5136 H 467.3 1.91799 -3.37854 0
M  V30 5137 H 468.972 -0.390119 -4.59647 0
M  V30 5138 H 467.215 -0.435972 -4.31604 0
M  V30 5139 H 467.886 0.717383 -5.47319 0
M  V30 5140 H 470.362 1.68273 -3.80557 0
M  V30 5141 H 469.238 2.61869 -4.82406 0
M  V30 5142 H 469.499 3.09764 -3.15434 0
M  V30 5143 N 468.558 1.5553 0.254621 0
M  V30 5144 C 469.786 1.81046 1.00149 0
M  V30 5145 C 470.201 0.593047 1.79244 0
M  V30 5146 O 469.558 -0.438196 1.77161 0
M  V30 5147 C 469.609 3.04684 1.94551 0
M  V30 5148 O 469.33 4.21725 1.18658 0
M  V30 5149 C 470.831 3.42943 2.80901 0
M  V30 5150 H 468.051 0.602653 0.295044 0
M  V30 5151 H 470.595 2.02576 0.279842 0
M  V30 5152 H 468.75 2.85226 2.62154 0
M  V30 5153 H 469.164 4.91746 1.82445 0
M  V30 5154 H 470.638 4.32576 3.42902 0
M  V30 5155 H 471.115 2.63176 3.51617 0
M  V30 5156 H 471.721 3.64724 2.18762 0
M  V30 5157 N 470.036 -0.519951 1.48776 0
M  V30 5158 C 470.966 -1.63253 1.66945 0
M  V30 5159 C 471.947 -1.62014 0.518224 0
M  V30 5160 O 473.132 -1.79053 0.751919 0
M  V30 5161 C 470.262 -3.0181 1.71836 0
M  V30 5162 C 469.216 -3.17911 2.8656 0
M  V30 5163 C 468.542 -4.5763 2.76548 0
M  V30 5164 C 469.842 -2.99729 4.27738 0
M  V30 5165 H 471.536 -1.48302 2.6009 0
M  V30 5166 H 469.082 -0.712026 1.25165 0
M  V30 5167 H 471.035 -3.79525 1.83135 0
M  V30 5168 H 469.759 -3.17806 0.752775 0
M  V30 5169 H 468.418 -2.42616 2.74833 0
M  V30 5170 H 468.066 -4.70476 1.77937 0
M  V30 5171 H 467.766 -4.69346 3.53536 0
M  V30 5172 H 469.29 -5.37431 2.89828 0
M  V30 5173 H 470.704 -3.67228 4.40246 0
M  V30 5174 H 469.101 -3.22932 5.05801 0
M  V30 5175 H 470.171 -1.96047 4.43502 0
M  V30 5176 N 471.514 -1.37532 -0.769588 0
M  V30 5177 C 472.739 -1.36231 -1.56384 0
M  V30 5178 C 473.164 0.0495849 -1.88035 0
M  V30 5179 O 472.522 1.02723 -1.49391 0
M  V30 5180 C 472.57 -2.20986 -2.84952 0
M  V30 5181 O 471.674 -1.61597 -3.79421 0
M  V30 5182 H 471.015 -0.465387 -0.473615 0
M  V30 5183 H 473.545 -1.81085 -0.952342 0
M  V30 5184 H 473.555 -2.34277 -3.34034 0
M  V30 5185 H 472.23 -3.23612 -2.61243 0
M  V30 5186 H 470.807 -1.57359 -3.38072 0
M  V30 5187 N 472.992 0.995999 -1.22138 0
M  V30 5188 C 474.241 1.72928 -1.03821 0
M  V30 5189 C 474.554 1.90872 0.427444 0
M  V30 5190 O 475.76 2.61496 0.730212 0
M  V30 5191 C 474.216 3.11124 -1.80913 0
M  V30 5192 C 473.824 3.01122 -3.31707 0
M  V30 5193 C 475.568 3.8852 -1.71035 0
M  V30 5194 C 473.475 4.34453 -4.01253 0
M  V30 5195 H 472.405 0.648376 -0.384869 0
M  V30 5196 H 475.056 1.11213 -1.45959 0
M  V30 5197 H 473.438 3.73503 -1.31573 0
M  V30 5198 H 474.612 2.47926 -3.88419 0
M  V30 5199 H 472.927 2.3721 -3.42228 0
M  V30 5200 H 475.524 4.872 -2.20318 0
M  V30 5201 H 475.867 4.1087 -0.670196 0
M  V30 5202 H 476.4 3.32812 -2.17902 0
M  V30 5203 H 473.139 4.17303 -5.05508 0
M  V30 5204 H 472.659 4.87574 -3.49331 0
M  V30 5205 H 474.338 5.03215 -4.06674 0
M  V30 5206 N 474.47 1.03057 1.19235 0
M  V30 5207 C 475.716 0.729098 1.89241 0
M  V30 5208 C 476.049 -0.740573 1.79525 0
M  V30 5209 O 475.324 -1.53946 1.18874 0
M  V30 5210 C 475.607 1.18304 3.40112 0
M  V30 5211 C 475.46 2.71406 3.5869 0
M  V30 5212 C 476.779 0.765161 4.33397 0
M  V30 5213 H 473.898 0.266338 0.687192 0
M  V30 5214 H 476.54 1.28079 1.40341 0
M  V30 5215 H 474.69 0.713672 3.81889 0
M  V30 5216 H 476.362 3.26303 3.26074 0
M  V30 5217 H 474.605 3.11717 3.01687 0
M  V30 5218 H 475.276 2.98225 4.64506 0
M  V30 5219 H 477.752 1.16889 3.99345 0
M  V30 5220 H 476.628 1.11065 5.37546 0
M  V30 5221 H 476.889 -0.332372 4.40849 0
M  V30 5222 N 475.948 -1.35272 0.808662 0
M  V30 5223 C 477.197 -1.97963 0.386483 0
M  V30 5224 C 477.51 -1.64866 -1.05255 0
M  V30 5225 O 478.716 -2.20937 -1.57794 0
M  V30 5226 C 477.172 -3.54162 0.640096 0
M  V30 5227 C 476.78 -3.96166 2.0918 0
M  V30 5228 C 478.524 -4.23553 0.283376 0
M  V30 5229 C 476.431 -5.4522 2.29106 0
M  V30 5230 H 475.361 -0.740742 0.140774 0
M  V30 5231 H 478.012 -1.5431 0.993012 0
M  V30 5232 H 476.394 -3.95983 -0.0364117 0
M  V30 5233 H 477.568 -3.65491 2.80629 0
M  V30 5234 H 475.883 -3.3967 2.40859 0
M  V30 5235 H 478.48 -5.33124 0.410273 0
M  V30 5236 H 478.823 -4.09105 -0.770659 0
M  V30 5237 H 479.356 -3.8716 0.913884 0
M  V30 5238 H 476.095 -5.64638 3.32962 0
M  V30 5239 H 475.615 -5.77457 1.62184 0
M  V30 5240 H 477.294 -6.1171 2.1076 0
M  V30 5241 N 477.426 -0.562348 -1.47226 0
M  V30 5242 C 478.654 -0.0452275 -2.06851 0
M  V30 5243 C 479.069 1.25078 -1.41424 0
M  V30 5244 O 478.426 1.75156 -0.512513 0
M  V30 5245 C 478.477 0.148674 -3.61194 0
M  V30 5246 O 478.198 -1.09602 -4.24169 0
M  V30 5247 C 479.699 0.702488 -4.37699 0
M  V30 5248 H 476.919 -0.0481775 -0.669268 0
M  V30 5249 H 479.463 -0.777223 -1.89155 0
M  V30 5250 H 477.618 0.830817 -3.78386 0
M  V30 5251 H 478.032 -0.896982 -5.16773 0
M  V30 5252 H 479.506 0.78743 -5.46355 0
M  V30 5253 H 479.983 1.71493 -4.04335 0
M  V30 5254 H 480.589 0.0558772 -4.25263 0
M  V30 5255 N 478.904 1.54736 -0.299062 0
M  V30 5256 C 480.15 2.00397 0.311244 0
M  V30 5257 C 480.483 1.18716 1.53688 0
M  V30 5258 O 479.758 0.263154 1.92712 0
M  V30 5259 C 480.041 3.53817 0.669761 0
M  V30 5260 C 479.894 4.46239 -0.564882 0
M  V30 5261 C 481.213 4.13856 1.49702 0
M  V30 5262 H 478.332 0.728493 0.111653 0
M  V30 5263 H 480.974 1.85506 -0.410774 0
M  V30 5264 H 479.124 3.66637 1.28491 0
M  V30 5265 H 480.796 4.45328 -1.20337 0
M  V30 5266 H 479.039 4.16916 -1.19849 0
M  V30 5267 H 479.71 5.5134 -0.269918 0
M  V30 5268 H 482.186 4.04461 0.977284 0
M  V30 5269 H 481.062 5.21365 1.71666 0
M  V30 5270 H 481.323 3.65608 2.48563 0
M  V30 5271 N 480.382 0.0267497 1.57577 0
M  V30 5272 C 481.629 -0.652404 1.91703 0
M  V30 5273 C 481.957 -1.72271 0.902936 0
M  V30 5274 O 481.212 -1.955 -0.0884843 0
M  V30 5275 C 481.511 -1.30914 3.3256 0
M  V30 5276 C 481.177 -0.369441 4.49384 0
M  V30 5277 C 479.839 -0.110791 4.81072 0
M  V30 5278 C 482.191 0.275971 5.20469 0
M  V30 5279 C 479.519 0.801116 5.81205 0
M  V30 5280 C 481.871 1.17592 6.21575 0
M  V30 5281 C 480.535 1.44348 6.51705 0
M  V30 5282 H 479.805 -0.238732 0.70149 0
M  V30 5283 H 482.452 0.0880091 1.91298 0
M  V30 5284 H 480.757 -2.12425 3.29216 0
M  V30 5285 H 482.454 -1.84115 3.56234 0
M  V30 5286 H 479.044 -0.581211 4.24641 0
M  V30 5287 H 483.228 0.0892 4.9622 0
M  V30 5288 H 478.484 1.01614 6.02897 0
M  V30 5289 H 482.658 1.68223 6.75777 0
M  V30 5290 H 480.285 2.15176 7.29111 0
M  V30 5291 N 481.861 -1.55662 -0.24637 0
M  V30 5292 C 483.107 -1.77782 -0.975779 0
M  V30 5293 C 483.44 -0.592103 -1.84953 0
M  V30 5294 O 482.715 0.409588 -1.90138 0
M  V30 5295 C 482.998 -3.09788 -1.83584 0
M  V30 5296 C 482.851 -4.38764 -0.990241 0
M  V30 5297 C 484.17 -3.38029 -2.81823 0
M  V30 5298 H 481.289 -0.646789 -0.353317 0
M  V30 5299 H 483.931 -1.88398 -0.246248 0
M  V30 5300 H 482.081 -3.00869 -2.45784 0
M  V30 5301 H 483.753 -4.59675 -0.386897 0
M  V30 5302 H 481.996 -4.32798 -0.294626 0
M  V30 5303 H 482.667 -5.27514 -1.62584 0
M  V30 5304 H 485.143 -3.46915 -2.2976 0
M  V30 5305 H 484.019 -4.3161 -3.39122 0
M  V30 5306 H 484.28 -2.58968 -3.58313 0
M  V30 5307 N 483.339 0.512053 -1.4905 0
M  V30 5308 C 484.269 1.62365 -1.67809 0
M  V30 5309 C 485.25 1.61737 -0.526809 0
M  V30 5310 O 486.435 1.78651 -0.761404 0
M  V30 5311 C 483.565 3.00895 -1.73435 0
M  V30 5312 C 482.519 3.16387 -2.88242 0
M  V30 5313 C 481.845 4.56157 -2.78971 0
M  V30 5314 C 483.145 2.97457 -4.29321 0
M  V30 5315 H 484.839 1.46921 -2.60873 0
M  V30 5316 H 482.385 0.705379 -1.2554 0
M  V30 5317 H 484.338 3.78549 -1.85145 0
M  V30 5318 H 483.062 3.17403 -0.769619 0
M  V30 5319 H 481.721 2.41155 -2.76116 0
M  V30 5320 H 481.369 4.69525 -1.8043 0
M  V30 5321 H 481.069 4.67465 -3.5602 0
M  V30 5322 H 482.593 5.35886 -2.92675 0
M  V30 5323 H 484.007 3.64888 -4.42187 0
M  V30 5324 H 482.404 3.20245 -5.07507 0
M  V30 5325 H 483.474 1.93692 -4.44535 0
M  V30 5326 N 484.817 1.37938 0.762283 0
M  V30 5327 C 485.765 1.34569 1.89721 0
M  V30 5328 C 486.759 0.232929 1.67791 0
M  V30 5329 O 487.965 0.401485 1.75465 0
M  V30 5330 H 484.34 0.419594 0.624055 0
M  V30 5331 H 486.311 2.30357 1.8968 0
M  V30 5332 C 485.06 1.17898 3.27101 0
M  V30 5333 H 484.383 2.02781 3.44558 0
M  V30 5334 H 485.823 1.19593 4.06784 0
M  V30 5335 C 484.282 -0.114728 3.36705 0
M  V30 5336 O 484.812 -1.0949 3.8649 0
M  V30 5337 N 483.018 -0.16863 2.9011 0
M  V30 5338 H 482.565 0.62967 2.49786 0
M  V30 5339 H 482.523 -1.03383 2.96916 0
M  V30 5340 N 486.295 -0.989507 1.22664 0
M  V30 5341 C 487.541 -1.7321 1.05481 0
M  V30 5342 C 487.874 -1.89852 -0.408635 0
M  V30 5343 O 487.149 -1.44416 -1.30285 0
M  V30 5344 C 487.432 -3.1357 1.77047 0
M  V30 5345 C 487.285 -3.04555 3.31008 0
M  V30 5346 C 488.604 -4.12812 1.5256 0
M  V30 5347 H 485.723 -0.628697 0.384589 0
M  V30 5348 H 488.365 -1.15258 1.51049 0
M  V30 5349 H 486.515 -3.63046 1.3831 0
M  V30 5350 H 488.187 -2.62674 3.7921 0
M  V30 5351 H 486.43 -2.41278 3.6051 0
M  V30 5352 H 487.101 -4.03894 3.76263 0
M  V30 5353 H 489.577 -3.72106 1.86215 0
M  V30 5354 H 488.453 -5.09132 2.05124 0
M  V30 5355 H 488.714 -4.39711 0.458936 0
M  V30 5356 N 487.773 -1.03688 -1.18687 0
M  V30 5357 C 488.723 -0.595067 -2.20098 0
M  V30 5358 C 489.707 0.360465 -1.5681 0
M  V30 5359 O 490.899 0.180136 -1.76081 0
M  V30 5360 C 488.028 0.0444495 -3.43271 0
M  V30 5361 C 487.114 -0.934002 -4.13687 0
M  V30 5362 N 487.505 -2.09957 -4.60165 0
M  V30 5363 C 485.803 -0.759177 -4.39491 0
M  V30 5364 C 486.504 -2.71735 -5.1433 0
M  V30 5365 N 485.48 -1.99638 -5.05614 0
M  V30 5366 H 489.282 -1.48336 -2.5372 0
M  V30 5367 H 486.796 -0.904949 -1.3485 0
M  V30 5368 H 488.793 0.37864 -4.15177 0
M  V30 5369 H 487.453 0.928325 -3.11147 0
M  V30 5370 H 488.464 -2.47863 -4.54735 0
M  V30 5371 H 485.141 0.0749292 -4.17433 0
M  V30 5372 H 486.531 -3.70492 -5.60523 0
M  V30 5373 N 489.251 1.34841 -0.815825 0
M  V30 5374 C 490.201 2.27075 -0.205169 0
M  V30 5375 C 491.185 1.48205 0.626414 0
M  V30 5376 O 492.377 1.70306 0.482157 0
M  V30 5377 C 489.506 3.37322 0.637871 0
M  V30 5378 C 488.592 4.23609 -0.203948 0
M  V30 5379 N 488.983 4.89558 -1.27149 0
M  V30 5380 C 487.281 4.45998 0.0128971 0
M  V30 5381 C 487.982 5.53597 -1.7862 0
M  V30 5382 N 486.958 5.32535 -1.0912 0
M  V30 5383 H 490.76 2.75563 -1.02187 0
M  V30 5384 H 488.274 1.48477 -0.657912 0
M  V30 5385 H 490.271 4.02359 1.09146 0
M  V30 5386 H 488.931 2.90385 1.45281 0
M  V30 5387 H 489.942 4.9077 -1.65423 0
M  V30 5388 H 486.619 4.09837 0.79624 0
M  V30 5389 H 488.009 6.16184 -2.67892 0
M  V30 5390 N 490.729 0.570148 1.46925 0
M  V30 5391 C 492.145 0.23087 1.57921 0
M  V30 5392 C 492.345 -1.26676 1.56702 0
M  V30 5393 O 491.401 -2.04774 1.47729 0
M  V30 5394 C 492.714 0.868973 2.8787 0
M  V30 5395 C 494.262 0.841397 3.01479 0
M  V30 5396 C 494.737 1.45881 4.34146 0
M  V30 5397 N 496.228 1.42258 4.40814 0
M  V30 5398 C 496.963 1.8698 5.42057 0
M  V30 5399 N 496.459 2.39618 6.50042 0
M  V30 5400 N 498.252 1.77972 5.33181 0
M  V30 5401 H 490.403 1.54301 1.45962 0
M  V30 5402 H 492.666 0.644224 0.69547 0
M  V30 5403 H 492.372 1.922 2.94537 0
M  V30 5404 H 492.246 0.369682 3.75384 0
M  V30 5405 H 494.633 -0.202973 2.94401 0
M  V30 5406 H 494.714 1.37858 2.15474 0
M  V30 5407 H 494.358 2.50231 4.4198 0
M  V30 5408 H 494.288 0.896958 5.18905 0
M  V30 5409 H 496.779 1.03768 3.63374 0
M  V30 5410 H 497.092 2.71633 7.23488 0
M  V30 5411 H 495.437 2.43636 6.50897 0
M  V30 5412 H 498.628 1.36617 4.4772 0
M  V30 5413 H 498.801 2.13143 6.11943 0
M  V30 5414 N 492.207 -1.54576 0.307264 0
M  V30 5415 C 493.432 -2.05139 -0.305379 0
M  V30 5416 C 493.857 -1.18278 -1.46259 0
M  V30 5417 O 493.215 -0.188243 -1.8032 0
M  V30 5418 C 493.263 -3.53066 -0.733283 0
M  V30 5419 O 492.367 -3.69206 -1.83741 0
M  V30 5420 H 491.708 -0.661444 -0.0582105 0
M  V30 5421 H 494.238 -1.99569 0.450931 0
M  V30 5422 H 494.248 -3.95034 -1.02039 0
M  V30 5423 H 492.923 -4.15746 0.113198 0
M  V30 5424 H 491.5 -3.39143 -1.55037 0
M  V30 5425 N 493.685 -0.035106 -1.57561 0
M  V30 5426 C 495.096 0.502885 -1.798 0
M  V30 5427 C 495.447 1.71892 -0.945921 0
M  V30 5428 O 494.572 2.15822 -0.157991 0
M  V30 5429 C 495.167 0.919097 -3.26095 0
M  V30 5430 C 493.726 1.40216 -3.49308 0
M  V30 5431 C 492.873 0.369709 -2.74824 0
M  V30 5432 H 495.824 -0.261102 -1.56537 0
M  V30 5433 H 495.845 1.78308 -3.36135 0
M  V30 5434 H 495.357 0.0338526 -3.88085 0
M  V30 5435 H 493.458 2.30714 -2.92578 0
M  V30 5436 H 493.571 1.40541 -4.58023 0
M  V30 5437 H 491.935 0.839113 -2.40481 0
M  V30 5438 H 492.718 -0.507173 -3.39533 0
M  V30 5439 N 495.163 1.55791 0.238111 0
M  V30 5440 C 496.579 1.48411 0.587045 0
M  V30 5441 C 496.779 0.72702 1.87927 0
M  V30 5442 O 495.835 0.259942 2.51158 0
M  V30 5443 C 497.148 2.92873 0.681623 0
M  V30 5444 C 498.696 3.03295 0.773363 0
M  V30 5445 C 499.171 4.49082 0.899428 0
M  V30 5446 N 500.662 4.53056 0.964075 0
M  V30 5447 C 501.397 5.63117 1.08104 0
M  V30 5448 N 500.893 6.82969 1.16299 0
M  V30 5449 N 502.686 5.50933 1.11488 0
M  V30 5450 H 494.837 2.0345 -0.610076 0
M  V30 5451 H 497.1 0.924034 -0.211813 0
M  V30 5452 H 496.806 3.51142 -0.19802 0
M  V30 5453 H 496.68 3.43851 1.55069 0
M  V30 5454 H 499.067 2.45101 1.64346 0
M  V30 5455 H 499.148 2.55513 -0.121034 0
M  V30 5456 H 498.792 5.07889 0.0338586 0
M  V30 5457 H 498.722 4.94553 1.809 0
M  V30 5458 H 501.213 3.66737 0.91173 0
M  V30 5459 H 501.526 7.62598 1.25155 0
M  V30 5460 H 499.871 6.85712 1.13241 0
M  V30 5461 H 503.062 4.56231 1.0474 0
M  V30 5462 H 503.235 6.36743 1.20259 0
M  V30 5463 N 496.642 -0.504142 1.49319 0
M  V30 5464 C 497.87 -1.28256 1.62351 0
M  V30 5465 C 498.285 -1.86502 0.293682 0
M  V30 5466 O 497.642 -1.67678 -0.720449 0
M  V30 5467 C 497.693 -2.41507 2.68992 0
M  V30 5468 O 497.414 -1.85656 3.96817 0
M  V30 5469 C 498.915 -3.32929 2.927 0
M  V30 5470 H 496.135 -0.389115 0.546654 0
M  V30 5471 H 498.679 -0.605531 1.95329 0
M  V30 5472 H 496.834 -3.05046 2.38801 0
M  V30 5473 H 497.248 -2.59981 4.55533 0
M  V30 5474 H 498.722 -4.0868 3.71058 0
M  V30 5475 H 499.199 -3.89733 2.02496 0
M  V30 5476 H 499.805 -2.75158 3.24296 0
M  V30 5477 N 498.12 -1.38341 -0.754957 0
M  V30 5478 C 499.07 -1.31964 -1.85929 0
M  V30 5479 C 500.054 -0.204181 -1.59599 0
M  V30 5480 O 501.246 -0.440036 -1.71443 0
M  V30 5481 C 498.375 -1.14565 -3.2362 0
M  V30 5482 C 497.461 -2.30727 -3.55846 0
M  V30 5483 N 497.852 -3.56165 -3.59138 0
M  V30 5484 C 496.15 -2.23249 -3.86104 0
M  V30 5485 C 496.851 -4.32865 -3.88591 0
M  V30 5486 N 495.827 -3.62203 -4.05351 0
M  V30 5487 H 499.629 -2.2694 -1.8675 0
M  V30 5488 H 497.143 -1.31553 -0.952243 0
M  V30 5489 H 499.14 -1.0808 -4.02647 0
M  V30 5490 H 497.8 -0.205212 -3.24051 0
M  V30 5491 H 498.811 -3.89854 -3.40932 0
M  V30 5492 H 495.488 -1.37357 -3.94258 0
M  V30 5493 H 496.878 -5.41504 -3.97773 0
M  V30 5494 N 499.598 0.982988 -1.23187 0
M  V30 5495 C 500.826 1.75921 -1.08901 0
M  V30 5496 C 501.241 1.85341 0.359719 0
M  V30 5497 O 500.598 1.33072 1.24892 0
M  V30 5498 C 500.649 3.18742 -1.70545 0
M  V30 5499 O 500.37 3.09814 -3.09753 0
M  V30 5500 C 501.871 4.1277 -1.61667 0
M  V30 5501 H 499.091 0.552166 -0.381252 0
M  V30 5502 H 501.635 1.23516 -1.62985 0
M  V30 5503 H 499.79 3.68182 -1.20501 0
M  V30 5504 H 500.204 3.99703 -3.39614 0
M  V30 5505 H 501.678 5.10697 -2.09506 0
M  V30 5506 H 502.155 4.3542 -0.575009 0
M  V30 5507 H 502.761 3.69232 -2.11064 0
M  V30 5508 N 501.076 1.04316 1.18135 0
M  V30 5509 C 502.009 0.580823 2.20685 0
M  V30 5510 C 502.987 -0.385943 1.57953 0
M  V30 5511 O 504.171 -0.299654 1.86103 0
M  V30 5512 C 501.298 -0.151162 3.38363 0
M  V30 5513 C 500.344 0.769247 4.19505 0
M  V30 5514 S 501.177 2.25352 4.85774 0
M  V30 5515 C 502.333 1.53246 6.0685 0
M  V30 5516 H 502.566 1.44968 2.5956 0
M  V30 5517 H 500.099 0.85434 1.28609 0
M  V30 5518 H 502.057 -0.567315 4.06561 0
M  V30 5519 H 500.718 -0.995936 2.97892 0
M  V30 5520 H 499.911 0.203335 5.0359 0
M  V30 5521 H 499.513 1.12436 3.56699 0
M  V30 5522 H 501.805 0.82689 6.72435 0
M  V30 5523 H 502.748 2.35044 6.67952 0
M  V30 5524 H 503.156 1.0237 5.5514 0
M  V30 5525 N 502.554 -1.34406 0.822964 0
M  V30 5526 C 503.965 -1.8069 0.469879 0
M  V30 5527 C 504.316 -1.68223 -1.00972 0
M  V30 5528 O 503.441 -1.22226 -1.78577 0
M  V30 5529 C 504.036 -3.28064 0.846118 0
M  V30 5530 C 502.595 -3.72428 0.545402 0
M  V30 5531 C 501.742 -2.56116 1.06301 0
M  V30 5532 H 504.693 -1.22153 1.01313 0
M  V30 5533 H 504.714 -3.80205 0.149922 0
M  V30 5534 H 504.226 -3.37107 1.92304 0
M  V30 5535 H 502.327 -3.68924 -0.522109 0
M  V30 5536 H 502.44 -4.66548 1.0895 0
M  V30 5537 H 500.804 -2.50048 0.484554 0
M  V30 5538 H 501.587 -2.67928 2.14638 0
M  V30 5539 N 504.032 -0.577932 -1.46621 0
M  V30 5540 C 505.26 -0.0671642 -2.06791 0
M  V30 5541 C 505.675 1.23571 -1.42743 0
M  V30 5542 O 505.032 1.74602 -0.531062 0
M  V30 5543 C 505.083 0.110357 -3.61332 0
M  V30 5544 O 504.804 -1.14095 -4.22982 0
M  V30 5545 C 506.305 0.656025 -4.38419 0
M  V30 5546 H 503.525 -0.0552732 -0.66872 0
M  V30 5547 H 506.069 -0.797242 -1.8832 0
M  V30 5548 H 504.224 0.790637 -3.79246 0
M  V30 5549 H 504.638 -0.951742 -5.15793 0
M  V30 5550 H 506.112 0.729438 -5.47159 0
M  V30 5551 H 506.589 1.67195 -4.06131 0
M  V30 5552 H 507.195 0.0107692 -4.25299 0
M  V30 5553 N 505.51 1.54411 -0.315457 0
M  V30 5554 C 506.756 2.01425 0.282775 0
M  V30 5555 C 507.111 1.19978 1.5041 0
M  V30 5556 O 506.404 0.271766 1.89663 0
M  V30 5557 C 506.598 3.50936 0.676652 0
M  V30 5558 C 506.427 4.46856 -0.504954 0
M  V30 5559 C 505.197 4.95275 -1.00152 0
M  V30 5560 C 507.395 4.96141 -1.35456 0
M  V30 5561 N 505.377 5.75081 -2.14838 0
M  V30 5562 C 506.748 5.73791 -2.3487 0
M  V30 5563 C 508.803 4.78299 -1.38327 0
M  V30 5564 C 507.506 6.35498 -3.36949 0
M  V30 5565 C 509.532 5.40836 -2.39271 0
M  V30 5566 C 508.894 6.1833 -3.37413 0
M  V30 5567 H 504.993 0.779078 0.0675398 0
M  V30 5568 H 507.577 1.8946 -0.448656 0
M  V30 5569 H 505.748 3.63162 1.37723 0
M  V30 5570 H 507.48 3.84728 1.25566 0
M  V30 5571 H 504.235 4.70107 -0.574123 0
M  V30 5572 H 504.659 6.19664 -2.72665 0
M  V30 5573 H 509.301 4.17956 -0.638196 0
M  V30 5574 H 507.019 6.94967 -4.12367 0
M  V30 5575 H 510.605 5.28952 -2.42284 0
M  V30 5576 H 509.485 6.65861 -4.14244 0
M  V30 5577 N 506.988 0.0434614 1.5754 0
M  V30 5578 C 508.234 -0.632971 1.92669 0
M  V30 5579 C 508.567 -1.70947 0.921446 0
M  V30 5580 O 507.842 -1.94426 -0.0537202 0
M  V30 5581 C 508.125 -1.23619 3.38216 0
M  V30 5582 C 507.978 -0.168274 4.49485 0
M  V30 5583 C 509.297 -2.15008 3.84005 0
M  V30 5584 H 506.416 -0.228629 0.700641 0
M  V30 5585 H 509.058 0.103651 1.89717 0
M  V30 5586 H 507.208 -1.864 3.40863 0
M  V30 5587 H 508.88 0.463196 4.58969 0
M  V30 5588 H 507.123 0.504581 4.30855 0
M  V30 5589 H 507.794 -0.630218 5.48391 0
M  V30 5590 H 510.27 -1.62198 3.83185 0
M  V30 5591 H 509.146 -2.54161 4.86511 0
M  V30 5592 H 509.407 -3.04707 3.20322 0
M  V30 5593 N 508.466 -1.55915 -0.229846 0
M  V30 5594 C 509.882 -1.48721 -0.579166 0
M  V30 5595 C 510.082 -0.736976 -1.87539 0
M  V30 5596 O 509.138 -0.273258 -2.51017 0
M  V30 5597 C 510.451 -2.9323 -0.666082 0
M  V30 5598 C 511.999 -3.03701 -0.757267 0
M  V30 5599 C 512.474 -4.49552 -0.8756 0
M  V30 5600 N 513.965 -4.53561 -0.940035 0
M  V30 5601 C 514.7 -5.63683 -1.05116 0
M  V30 5602 N 514.196 -6.83576 -1.12675 0
M  V30 5603 N 515.989 -5.51516 -1.08565 0
M  V30 5604 H 508.14 -2.03123 0.620857 0
M  V30 5605 H 510.403 -0.922898 0.21671 0
M  V30 5606 H 510.109 -3.51032 0.21664 0
M  V30 5607 H 509.983 -3.44668 -1.53243 0
M  V30 5608 H 512.37 -2.45969 -1.63043 0
M  V30 5609 H 512.451 -2.55446 0.134583 0
M  V30 5610 H 512.095 -5.079 -0.00692351 0
M  V30 5611 H 512.025 -4.95506 -1.78274 0
M  V30 5612 H 514.516 -3.67215 -0.892269 0
M  V30 5613 H 514.829 -7.63251 -1.21109 0
M  V30 5614 H 513.174 -6.86303 -1.09603 0
M  V30 5615 H 516.365 -4.5678 -1.02319 0
M  V30 5616 H 516.538 -6.37372 -1.1688 0
M  V30 5617 N 509.944 0.496216 -1.49584 0
M  V30 5618 C 511.36 0.827814 -1.36453 0
M  V30 5619 C 511.56 1.97464 -0.401285 0
M  V30 5620 O 510.616 2.51958 0.165296 0
M  V30 5621 C 511.929 1.16352 -2.77277 0
M  V30 5622 C 513.477 1.27145 -2.86013 0
M  V30 5623 C 513.952 1.64042 -4.27615 0
M  V30 5624 N 515.443 1.71082 -4.30448 0
M  V30 5625 C 516.178 2.01085 -5.36984 0
M  V30 5626 N 515.674 2.2928 -6.5376 0
M  V30 5627 N 517.467 2.02376 -5.24405 0
M  V30 5628 H 509.618 -0.259947 -2.10803 0
M  V30 5629 H 511.881 -0.0537163 -0.946477 0
M  V30 5630 H 511.587 0.394153 -3.49484 0
M  V30 5631 H 511.461 2.10582 -3.12946 0
M  V30 5632 H 513.848 2.03152 -2.1404 0
M  V30 5633 H 513.929 0.309542 -2.5392 0
M  V30 5634 H 513.573 0.88583 -5.00115 0
M  V30 5635 H 513.503 2.6134 -4.57175 0
M  V30 5636 H 515.994 1.51434 -3.46232 0
M  V30 5637 H 516.307 2.51376 -7.30774 0
M  V30 5638 H 514.652 2.26726 -6.56978 0
M  V30 5639 H 517.843 1.79829 -4.32179 0
M  V30 5640 H 518.016 2.25425 -6.07526 0
M  V30 5641 N 511.423 1.38739 0.74761 0
M  V30 5642 C 512.669 1.35475 1.50912 0
M  V30 5643 C 513.002 -0.0533093 1.94127 0
M  V30 5644 O 512.277 -1.01572 1.65871 0
M  V30 5645 C 512.56 2.31582 2.75757 0
M  V30 5646 C 512.413 3.81274 2.38642 0
M  V30 5647 C 513.732 2.25722 3.77806 0
M  V30 5648 H 510.851 0.493427 0.547447 0
M  V30 5649 H 513.493 1.69634 0.855823 0
M  V30 5650 H 511.643 2.02582 3.31501 0
M  V30 5651 H 513.315 4.20972 1.88626 0
M  V30 5652 H 511.558 3.98664 1.71025 0
M  V30 5653 H 512.229 4.4399 3.27989 0
M  V30 5654 H 514.705 2.51336 3.31616 0
M  V30 5655 H 513.581 2.95069 4.62845 0
M  V30 5656 H 513.842 1.25803 4.23823 0
M  V30 5657 N 512.901 -0.976442 1.23707 0
M  V30 5658 C 514.148 -1.71827 1.07153 0
M  V30 5659 C 514.476 -1.9053 -0.390982 0
M  V30 5660 O 513.731 -1.45779 -1.30564 0
M  V30 5661 C 514.03 -3.11814 1.74662 0
M  V30 5662 C 513.696 -3.12978 3.24585 0
M  V30 5663 C 512.358 -3.13003 3.6549 0
M  V30 5664 C 514.71 -3.07986 4.20469 0
M  V30 5665 C 512.038 -3.05757 5.00729 0
M  V30 5666 C 514.39 -3.02282 5.55705 0
M  V30 5667 C 513.054 -3.00631 5.95968 0
M  V30 5668 H 512.324 -0.628758 0.392102 0
M  V30 5669 H 514.971 -1.14239 1.53693 0
M  V30 5670 H 513.276 -3.72812 1.20492 0
M  V30 5671 H 514.973 -3.67989 1.59328 0
M  V30 5672 H 511.563 -3.13718 2.92026 0
M  V30 5673 H 515.747 -3.07103 3.89874 0
M  V30 5674 H 511.003 -3.02834 5.31132 0
M  V30 5675 H 515.177 -2.97376 6.29714 0
M  V30 5676 H 512.804 -2.94771 7.00724 0
M  V30 5677 N 514.379 -1.04941 -1.1758 0
M  V30 5678 C 515.309 -0.669172 -2.23706 0
M  V30 5679 C 516.29 0.331835 -1.66832 0
M  V30 5680 O 517.475 0.209988 -1.93061 0
M  V30 5681 C 514.605 -0.0404889 -3.47276 0
M  V30 5682 C 513.559 -0.965983 -4.16957 0
M  V30 5683 C 512.885 -0.201312 -5.34321 0
M  V30 5684 C 514.185 -2.28902 -4.69469 0
M  V30 5685 H 515.879 -1.55639 -2.55767 0
M  V30 5686 H 513.425 -0.749793 -1.22939 0
M  V30 5687 H 515.378 0.237298 -4.20731 0
M  V30 5688 H 514.102 0.881658 -3.14475 0
M  V30 5689 H 512.761 -1.22829 -3.45411 0
M  V30 5690 H 512.409 0.723519 -4.97769 0
M  V30 5691 H 512.109 -0.817968 -5.81879 0
M  V30 5692 H 513.633 0.0692499 -6.10561 0
M  V30 5693 H 515.047 -2.07132 -5.34574 0
M  V30 5694 H 513.444 -2.85942 -5.27596 0
M  V30 5695 H 514.514 -2.92937 -3.86414 0
M  V30 5696 N 515.857 1.33968 -0.830081 0
M  V30 5697 C 517.134 1.92554 -0.343858 0
M  V30 5698 C 517.514 1.7573 1.16971 0
M  V30 5699 O 516.862 1.14035 1.98011 0
M  V30 5700 C 517.072 3.40147 -0.781073 0
M  V30 5701 C 518.42 4.17299 -0.78402 0
M  V30 5702 O 519.444 3.48762 -0.724112 0
M  V30 5703 O 518.303 5.39631 -0.863739 0
M  V30 5704 H 515.397 0.821469 -0.0954827 0
M  V30 5705 H 517.943 1.42897 -0.915348 0
M  V30 5706 H 516.715 3.46225 -1.82329 0
M  V30 5707 H 516.338 3.97166 -0.18567 0
M  V30 5708 N 517.335 0.585699 1.46312 0
M  V30 5709 C 518.584 0.0701192 2.01578 0
M  V30 5710 C 518.897 -1.29889 1.46247 0
M  V30 5711 O 520.103 -1.90598 1.93351 0
M  V30 5712 C 518.559 0.0747499 3.59822 0
M  V30 5713 C 518.167 1.44226 4.24149 0
M  V30 5714 C 519.911 -0.38673 4.22735 0
M  V30 5715 C 517.818 1.40446 5.74481 0
M  V30 5716 H 516.748 0.0224441 0.753666 0
M  V30 5717 H 519.399 0.737789 1.68015 0
M  V30 5718 H 517.781 -0.659144 3.90476 0
M  V30 5719 H 518.955 2.19612 4.05101 0
M  V30 5720 H 517.27 1.84401 3.73343 0
M  V30 5721 H 519.867 -0.433853 5.32937 0
M  V30 5722 H 520.21 -1.40489 3.91878 0
M  V30 5723 H 520.743 0.293195 3.96718 0
M  V30 5724 H 517.482 2.39952 6.10003 0
M  V30 5725 H 517.002 0.692845 5.95785 0
M  V30 5726 H 518.681 1.11865 6.37256 0
M  V30 5727 N 518.813 -1.54241 0.323641 0
M  V30 5728 C 520.059 -2.00867 -0.279323 0
M  V30 5729 C 520.392 -1.21146 -1.5178 0
M  V30 5730 O 519.667 -0.29378 -1.92269 0
M  V30 5731 C 519.95 -3.54837 -0.613387 0
M  V30 5732 C 519.803 -4.45284 0.635803 0
M  V30 5733 C 521.122 -4.16186 -1.43099 0
M  V30 5734 H 518.241 -0.730177 -0.100049 0
M  V30 5735 H 520.883 -1.84829 0.440235 0
M  V30 5736 H 519.033 -3.68634 -1.22641 0
M  V30 5737 H 520.705 -4.43357 1.27406 0
M  V30 5738 H 518.948 -4.14956 1.26466 0
M  V30 5739 H 519.619 -5.5084 0.357597 0
M  V30 5740 H 522.095 -4.05964 -0.912814 0
M  V30 5741 H 520.971 -5.24031 -1.6335 0
M  V30 5742 H 521.232 -3.69516 -2.42715 0
M  V30 5743 N 520.291 -0.0518155 -1.57515 0
M  V30 5744 C 521.702 0.483787 -1.80323 0
M  V30 5745 C 522.053 1.70879 -0.964099 0
M  V30 5746 O 521.178 2.15643 -0.180872 0
M  V30 5747 C 521.773 0.884459 -3.27052 0
M  V30 5748 C 520.332 1.36504 -3.50776 0
M  V30 5749 C 519.479 0.340539 -2.75201 0
M  V30 5750 H 522.43 -0.277691 -1.56252 0
M  V30 5751 H 522.451 1.74733 -3.38007 0
M  V30 5752 H 521.963 -0.00731093 -3.88099 0
M  V30 5753 H 520.064 2.27598 -2.95009 0
M  V30 5754 H 520.177 1.35675 -4.59488 0
M  V30 5755 H 518.541 0.81356 -2.41357 0
M  V30 5756 H 519.324 -0.543156 -3.38976 0
M  V30 5757 N 521.769 1.56035 0.221574 0
M  V30 5758 C 523.185 1.49026 0.571271 0
M  V30 5759 C 523.385 0.746912 1.87146 0
M  V30 5760 O 522.441 0.286566 2.50869 0
M  V30 5761 C 523.754 2.93579 0.650522 0
M  V30 5762 C 525.302 3.04099 0.741151 0
M  V30 5763 C 525.777 4.5001 0.851747 0
M  V30 5764 N 527.268 4.54053 0.915968 0
M  V30 5765 C 528.003 5.64232 1.02125 0
M  V30 5766 N 527.499 6.84164 1.09049 0
M  V30 5767 N 529.292 5.52084 1.05639 0
M  V30 5768 H 521.443 2.02791 -0.63162 0
M  V30 5769 H 523.706 0.921736 -0.221602 0
M  V30 5770 H 523.412 3.50912 -0.235253 0
M  V30 5771 H 523.286 3.45476 1.51413 0
M  V30 5772 H 525.673 2.4683 1.61737 0
M  V30 5773 H 525.754 2.55371 -0.148128 0
M  V30 5774 H 525.398 5.07896 -0.0200117 0
M  V30 5775 H 525.328 4.96444 1.75644 0
M  V30 5776 H 527.819 3.67683 0.872782 0
M  V30 5777 H 528.132 7.63883 1.1706 0
M  V30 5778 H 526.477 6.86875 1.05962 0
M  V30 5779 H 529.668 4.57317 0.998953 0
M  V30 5780 H 529.841 6.37983 1.13498 0
M  V30 5781 N 523.247 -0.488276 1.49845 0
M  V30 5782 C 524.177 -1.59675 1.70371 0
M  V30 5783 C 525.158 -1.60878 0.552473 0
M  V30 5784 O 526.343 -1.77417 0.78973 0
M  V30 5785 C 523.473 -2.98098 1.782 0
M  V30 5786 C 522.427 -3.11761 2.93239 0
M  V30 5787 C 521.753 -4.51661 2.86193 0
M  V30 5788 C 523.053 -2.90589 4.33999 0
M  V30 5789 H 524.747 -1.42752 2.63177 0
M  V30 5790 H 522.293 -0.685317 1.26647 0
M  V30 5791 H 524.246 -3.75555 1.91144 0
M  V30 5792 H 522.97 -3.16138 0.820018 0
M  V30 5793 H 521.629 -2.36732 2.79917 0
M  V30 5794 H 521.277 -4.66595 1.87877 0
M  V30 5795 H 520.977 -4.61742 3.63412 0
M  V30 5796 H 522.501 -5.31162 3.01163 0
M  V30 5797 H 523.915 -3.57807 4.47936 0
M  V30 5798 H 522.312 -3.1213 5.12538 0
M  V30 5799 H 523.382 -1.86595 4.4756 0
M  V30 5800 N 524.725 -1.39134 -0.740242 0
M  V30 5801 C 525.655 -1.40165 -1.86751 0
M  V30 5802 C 526.636 -0.265708 -1.68012 0
M  V30 5803 O 527.821 -0.47076 -1.88408 0
M  V30 5804 C 524.951 -1.2392 -3.2444 0
M  V30 5805 C 523.905 -2.34858 -3.57807 0
M  V30 5806 C 523.231 -2.03707 -4.94376 0
M  V30 5807 C 524.531 -3.77159 -3.61315 0
M  V30 5808 H 526.225 -2.345 -1.86145 0
M  V30 5809 H 523.771 -1.12875 -0.89416 0
M  V30 5810 H 525.724 -1.23263 -4.02969 0
M  V30 5811 H 524.448 -0.26051 -3.25559 0
M  V30 5812 H 523.107 -2.34723 -2.81604 0
M  V30 5813 H 522.755 -1.04289 -4.9207 0
M  V30 5814 H 522.455 -2.78016 -5.17669 0
M  V30 5815 H 523.979 -2.04691 -5.75268 0
M  V30 5816 H 525.393 -3.79252 -4.29931 0
M  V30 5817 H 523.79 -4.50784 -3.96124 0
M  V30 5818 H 524.86 -4.08513 -2.61238 0
M  V30 5819 N 526.204 0.969867 -1.24223 0
M  V30 5820 C 527.134 2.08191 -1.05729 0
M  V30 5821 C 528.115 1.70075 0.0290765 0
M  V30 5822 O 529.3 1.93712 -0.137583 0
M  V30 5823 C 526.43 3.40991 -0.658995 0
M  V30 5824 C 525.384 3.93054 -1.69389 0
M  V30 5825 C 524.71 5.22171 -1.15072 0
M  V30 5826 C 526.01 4.21137 -3.08935 0
M  V30 5827 H 527.704 2.23921 -1.98746 0
M  V30 5828 H 525.25 1.07602 -0.956967 0
M  V30 5829 H 527.203 4.18221 -0.51662 0
M  V30 5830 H 525.927 3.25155 0.30686 0
M  V30 5831 H 524.586 3.17977 -1.82444 0
M  V30 5832 H 524.234 5.02694 -0.175539 0
M  V30 5833 H 523.934 5.57973 -1.84229 0
M  V30 5834 H 525.458 6.02013 -1.02042 0
M  V30 5835 H 526.872 4.8908 -2.99121 0
M  V30 5836 H 525.269 4.68163 -3.75425 0
M  V30 5837 H 526.339 3.27996 -3.57137 0
M  V30 5838 N 527.682 1.05563 1.17022 0
M  V30 5839 C 528.615 0.604197 2.20056 0
M  V30 5840 C 529.593 -0.369169 1.58354 0
M  V30 5841 O 530.777 -0.279898 1.8641 0
M  V30 5842 C 527.904 -0.115265 3.38504 0
M  V30 5843 C 526.95 0.813698 4.18666 0
M  V30 5844 S 527.783 2.30492 4.83357 0
M  V30 5845 C 528.939 1.59674 6.0519 0
M  V30 5846 H 529.172 1.47713 2.58008 0
M  V30 5847 H 526.705 0.867932 1.27696 0
M  V30 5848 H 528.663 -0.524162 4.0714 0
M  V30 5849 H 527.324 -0.964284 2.98932 0
M  V30 5850 H 526.517 0.256736 5.03346 0
M  V30 5851 H 526.119 1.16213 3.55486 0
M  V30 5852 H 528.411 0.898164 6.7152 0
M  V30 5853 H 529.354 2.42115 6.65422 0
M  V30 5854 H 529.762 1.08252 5.54023 0
M  V30 5855 N 529.16 -1.33526 0.837174 0
M  V30 5856 C 530.107 -2.29248 0.267169 0
M  V30 5857 C 531.077 -1.54252 -0.616071 0
M  V30 5858 O 532.262 -1.82559 -0.554699 0
M  V30 5859 C 529.402 -3.40638 -0.553152 0
M  V30 5860 C 528.515 -4.30548 0.353921 0
M  V30 5861 C 527.65 -5.29051 -0.477339 0
M  V30 5862 C 526.689 -6.106 0.42823 0
M  V30 5863 N 525.826 -7.01152 -0.364801 0
M  V30 5864 H 530.666 -2.77398 1.08877 0
M  V30 5865 H 528.203 -1.36496 0.54838 0
M  V30 5866 H 530.161 -4.03921 -1.04422 0
M  V30 5867 H 528.791 -2.93685 -1.33973 0
M  V30 5868 H 527.843 -3.68001 0.963289 0
M  V30 5869 H 529.155 -4.87631 1.04964 0
M  V30 5870 H 528.309 -5.97853 -1.0323 0
M  V30 5871 H 527.048 -4.72541 -1.2065 0
M  V30 5872 H 526.053 -5.40718 0.995219 0
M  V30 5873 H 527.278 -6.69193 1.15573 0
M  V30 5874 H 525.224 -6.47092 -1.07738 0
M  V30 5875 H 525.141 -7.5551 0.272238 0
M  V30 5876 H 526.409 -7.74263 -0.902054 0
M  V30 5877 N 530.638 -0.59345 -1.46 0
M  V30 5878 C 532.054 -0.255965 -1.57534 0
M  V30 5879 C 532.254 1.24167 -1.58697 0
M  V30 5880 O 531.31 2.02398 -1.50968 0
M  V30 5881 C 532.623 -0.91466 -2.86451 0
M  V30 5882 C 534.171 -0.889253 -3.00102 0
M  V30 5883 C 534.646 -1.52769 -4.3177 0
M  V30 5884 N 536.137 -1.49253 -4.38495 0
M  V30 5885 C 536.872 -1.9558 -5.39014 0
M  V30 5886 N 536.368 -2.49929 -6.46148 0
M  V30 5887 N 538.161 -1.86432 -5.30282 0
M  V30 5888 H 530.312 -1.56604 -1.43489 0
M  V30 5889 H 532.575 -0.655207 -0.685133 0
M  V30 5890 H 532.281 -1.96861 -2.91442 0
M  V30 5891 H 532.155 -0.429356 -3.74748 0
M  V30 5892 H 534.542 0.156111 -2.94687 0
M  V30 5893 H 534.623 -1.41268 -2.13253 0
M  V30 5894 H 534.267 -2.57231 -4.37944 0
M  V30 5895 H 534.197 -0.979398 -5.17412 0
M  V30 5896 H 536.688 -1.09536 -3.61677 0
M  V30 5897 H 537.001 -2.83109 -7.19075 0
M  V30 5898 H 535.346 -2.53961 -6.46938 0
M  V30 5899 H 538.537 -1.43722 -4.4549 0
M  V30 5900 H 538.71 -2.22852 -6.08474 0
M  V30 5901 N 532.116 1.54067 -0.331816 0
M  V30 5902 C 533.527 1.86059 0.15454 0
M  V30 5903 C 533.878 1.25331 1.50952 0
M  V30 5904 O 533.003 0.562441 2.08963 0
M  V30 5905 C 533.598 3.37581 0.287192 0
M  V30 5906 C 532.157 3.69493 0.717773 0
M  V30 5907 C 531.304 2.76863 -0.155569 0
M  V30 5908 H 534.255 1.48797 -0.55182 0
M  V30 5909 H 534.276 3.63744 1.11671 0
M  V30 5910 H 533.788 3.81751 -0.699131 0
M  V30 5911 H 531.889 3.3086 1.71354 0
M  V30 5912 H 532.002 4.76315 0.5158 0
M  V30 5913 H 530.366 2.51995 0.370213 0
M  V30 5914 H 531.149 3.23861 -1.13881 0
M  V30 5915 N 533.594 0.0601682 1.57485 0
M  V30 5916 C 534.819 -0.624416 1.97777 0
M  V30 5917 C 535.244 -1.63051 0.937867 0
M  V30 5918 O 534.602 -1.81036 -0.0978845 0
M  V30 5919 C 534.65 -1.27979 3.37126 0
M  V30 5920 O 533.754 -2.39556 3.35688 0
M  V30 5921 H 533.095 -0.161581 0.64404 0
M  V30 5922 H 535.625 0.131237 2.04179 0
M  V30 5923 H 535.635 -1.62937 3.74053 0
M  V30 5924 H 534.31 -0.542501 4.12347 0
M  V30 5925 H 532.887 -2.06478 3.10517 0
M  V30 5926 N 535.072 -1.5615 -0.213296 0
M  V30 5927 C 536.318 -1.79812 -0.937849 0
M  V30 5928 C 536.651 -0.631201 -1.83656 0
M  V30 5929 O 535.926 0.369165 -1.90964 0
M  V30 5930 C 536.209 -3.13613 -1.76972 0
M  V30 5931 C 536.062 -4.40766 -0.89695 0
M  V30 5932 C 537.381 -3.43931 -2.7459 0
M  V30 5933 H 534.5 -0.654138 -0.339518 0
M  V30 5934 H 537.142 -1.88877 -0.20623 0
M  V30 5935 H 535.292 -3.06015 -2.39347 0
M  V30 5936 H 536.964 -4.60392 -0.289306 0
M  V30 5937 H 535.207 -4.33326 -0.202756 0
M  V30 5938 H 535.878 -5.30843 -1.51358 0
M  V30 5939 H 538.354 -3.5171 -2.22349 0
M  V30 5940 H 537.23 -4.38706 -3.29891 0
M  V30 5941 H 537.491 -2.6651 -3.52739 0
M  V30 5942 N 536.55 0.480323 -1.50102 0
M  V30 5943 C 537.796 1.23489 -1.60867 0
M  V30 5944 C 538.129 1.91809 -0.303827 0
M  V30 5945 O 537.404 1.81694 0.694092 0
M  V30 5946 C 537.687 2.28578 -2.78252 0
M  V30 5947 C 537.54 1.64624 -4.18592 0
M  V30 5948 C 538.859 3.2997 -2.91218 0
M  V30 5949 H 535.978 0.447605 -0.585507 0
M  V30 5950 H 538.62 0.530005 -1.82458 0
M  V30 5951 H 536.77 2.88697 -2.59974 0
M  V30 5952 H 538.442 1.08173 -4.48438 0
M  V30 5953 H 536.685 0.949645 -4.23278 0
M  V30 5954 H 537.356 2.40946 -4.96638 0
M  V30 5955 H 539.832 2.79864 -3.07921 0
M  V30 5956 H 538.708 4.00839 -3.74993 0
M  V30 5957 H 538.969 3.93541 -2.0144 0
M  V30 5958 N 538.028 1.39524 0.732853 0
M  V30 5959 C 538.975 1.38416 1.84688 0
M  V30 5960 C 539.945 0.243539 1.64305 0
M  V30 5961 O 541.13 0.438979 1.85681 0
M  V30 5962 C 538.27 1.23555 3.22224 0
M  V30 5963 C 537.383 2.47179 3.54298 0
M  V30 5964 C 536.518 2.2489 4.81246 0
M  V30 5965 C 535.557 3.44178 5.0617 0
M  V30 5966 N 534.694 3.21192 6.24323 0
M  V30 5967 H 539.534 2.33645 1.84971 0
M  V30 5968 H 537.071 1.16059 0.903804 0
M  V30 5969 H 539.029 1.12949 4.0162 0
M  V30 5970 H 537.659 0.31954 3.21215 0
M  V30 5971 H 536.711 2.68379 2.69587 0
M  V30 5972 H 538.023 3.36022 3.68633 0
M  V30 5973 H 537.177 2.11538 5.68627 0
M  V30 5974 H 535.916 1.33443 4.69089 0
M  V30 5975 H 534.921 3.58025 4.17251 0
M  V30 5976 H 536.146 4.36528 5.20212 0
M  V30 5977 H 534.092 2.32413 6.1345 0
M  V30 5978 H 534.009 4.03594 6.39256 0
M  V30 5979 H 535.277 3.1154 7.14537 0
M  V30 5980 N 539.506 -0.963266 1.24736 0
M  V30 5981 C 540.783 -1.68248 0.9976 0
M  V30 5982 C 541.163 -2.05599 -0.478776 0
M  V30 5983 O 540.511 -1.7626 -1.45412 0
M  V30 5984 C 540.721 -2.91118 1.92487 0
M  V30 5985 C 542.069 -3.63261 2.19833 0
M  V30 5986 O 543.093 -3.01184 1.90176 0
M  V30 5987 O 541.952 -4.75019 2.7022 0
M  V30 5988 H 539.046 -0.735744 0.377637 0
M  V30 5989 H 541.592 -1.01696 1.35853 0
M  V30 5990 H 540.364 -2.60242 2.92215 0
M  V30 5991 H 539.987 -3.65402 1.56738 0
M  V30 5992 N 540.985 -1.06182 -1.16461 0
M  V30 5993 C 541.933 -0.665716 -2.2287 0
M  V30 5994 C 542.927 0.317822 -1.66392 0
M  V30 5995 O 544.133 0.182807 -1.79069 0
M  V30 5996 H 540.508 -0.197148 -0.725697 0
M  V30 5997 H 542.479 -1.57307 -2.53569 0
M  V30 5998 C 541.228 -0.0669803 -3.47635 0
M  V30 5999 H 540.551 -0.814899 -3.91407 0
M  V30 6000 H 541.991 0.172669 -4.23648 0
M  V30 6001 C 540.45 1.18913 -3.15216 0
M  V30 6002 O 540.98 2.27723 -3.30916 0
M  V30 6003 N 539.186 1.09066 -2.69357 0
M  V30 6004 H 538.733 0.20518 -2.56782 0
M  V30 6005 H 538.691 1.93195 -2.48039 0
M  V30 6006 N 542.463 1.3308 -0.844243 0
M  V30 6007 C 543.703 1.99414 -0.448697 0
M  V30 6008 C 544.067 1.65398 0.975058 0
M  V30 6009 O 545.268 2.24741 1.47461 0
M  V30 6010 C 543.539 3.51081 -0.669089 0
M  V30 6011 S 545.098 4.37241 -0.369564 0
M  V30 6012 H 541.916 0.690736 -0.168538 0
M  V30 6013 H 544.518 1.61977 -1.0947 0
M  V30 6014 H 543.222 3.73326 -1.70457 0
M  V30 6015 H 542.753 3.93399 -0.00913211 0
M  V30 6016 H 544.768 4.89568 0.808552 0
M  V30 6017 N 543.941 0.601185 1.45683 0
M  V30 6018 C 545.357 0.264315 1.57396 0
M  V30 6019 C 545.557 -1.23324 1.59353 0
M  V30 6020 O 544.613 -2.01594 1.52039 0
M  V30 6021 C 545.926 0.929839 2.85962 0
M  V30 6022 C 547.474 0.905156 2.99626 0
M  V30 6023 C 547.949 1.55057 4.30954 0
M  V30 6024 N 549.44 1.51576 4.37697 0
M  V30 6025 C 550.175 1.98436 5.37969 0
M  V30 6026 N 549.671 2.53352 6.44813 0
M  V30 6027 N 551.464 1.89242 5.29286 0
M  V30 6028 H 543.615 1.57363 1.42656 0
M  V30 6029 H 545.878 0.658831 0.681649 0
M  V30 6030 H 545.584 1.98404 2.90394 0
M  V30 6031 H 545.458 0.449224 3.74515 0
M  V30 6032 H 547.845 -0.14048 2.94765 0
M  V30 6033 H 547.926 1.42397 2.12501 0
M  V30 6034 H 547.57 2.5955 4.36573 0
M  V30 6035 H 547.5 1.00682 5.16886 0
M  V30 6036 H 549.991 1.11452 3.61091 0
M  V30 6037 H 550.304 2.86918 7.17564 0
M  V30 6038 H 548.649 2.57388 6.45582 0
M  V30 6039 H 551.84 1.46083 4.44722 0
M  V30 6040 H 552.013 2.26075 6.07284 0
M  V30 6041 N 545.419 -1.53889 0.339982 0
M  V30 6042 C 546.835 -1.59595 -0.0120752 0
M  V30 6043 C 547.035 -1.35605 -1.49042 0
M  V30 6044 O 546.091 -1.14856 -2.24865 0
M  V30 6045 C 547.404 -2.9774 0.420898 0
M  V30 6046 C 548.952 -3.1077 0.37294 0
M  V30 6047 C 549.427 -4.51286 0.781327 0
M  V30 6048 N 550.918 -4.57325 0.735374 0
M  V30 6049 C 551.653 -5.64194 1.02336 0
M  V30 6050 N 551.149 -6.7893 1.37933 0
M  V30 6051 N 552.942 -5.54051 0.947838 0
M  V30 6052 H 545.093 -1.67738 1.30299 0
M  V30 6053 H 547.356 -0.785385 0.530918 0
M  V30 6054 H 547.062 -3.20349 1.45152 0
M  V30 6055 H 546.936 -3.76639 -0.205721 0
M  V30 6056 H 549.323 -2.87886 -0.648505 0
M  V30 6057 H 549.404 -2.33939 1.03472 0
M  V30 6058 H 549.048 -4.74905 1.80077 0
M  V30 6059 H 548.978 -5.26511 0.0970679 0
M  V30 6060 H 551.469 -3.74931 0.472773 0
M  V30 6061 H 551.782 -7.56392 1.58402 0
M  V30 6062 H 550.127 -6.80386 1.41774 0
M  V30 6063 H 553.318 -4.63293 0.669115 0
M  V30 6064 H 553.491 -6.37246 1.17563 0
M  V30 6065 N 546.897 -0.0685191 -1.57451 0
M  V30 6066 C 547.827 0.89747 -2.15564 0
M  V30 6067 C 548.808 1.31266 -1.08181 0
M  V30 6068 O 549.993 1.38429 -1.36202 0
M  V30 6069 C 547.123 2.16623 -2.71463 0
M  V30 6070 C 546.077 1.89054 -3.83982 0
M  V30 6071 C 545.403 3.22532 -4.26471 0
M  V30 6072 C 546.703 1.1984 -5.08366 0
M  V30 6073 H 548.397 0.413373 -2.96533 0
M  V30 6074 H 545.943 0.197391 -1.42641 0
M  V30 6075 H 547.896 2.84614 -3.10761 0
M  V30 6076 H 546.62 2.67269 -1.8771 0
M  V30 6077 H 545.279 1.23469 -3.45183 0
M  V30 6078 H 544.927 3.71013 -3.39644 0
M  V30 6079 H 544.627 3.04879 -5.02317 0
M  V30 6080 H 546.151 3.91727 -4.68383 0
M  V30 6081 H 547.565 1.77896 -5.45001 0
M  V30 6082 H 545.962 1.12456 -5.89469 0
M  V30 6083 H 547.032 0.176996 -4.84577 0
M  V30 6084 N 548.375 1.56261 0.205012 0
M  V30 6085 C 549.624 1.79236 0.925058 0
M  V30 6086 C 549.937 0.640011 1.84833 0
M  V30 6087 O 551.143 0.753809 2.60826 0
M  V30 6088 C 549.599 3.17475 1.69522 0
M  V30 6089 C 549.207 4.40482 0.817269 0
M  V30 6090 C 550.951 3.49766 2.4055 0
M  V30 6091 C 548.858 5.69744 1.58573 0
M  V30 6092 H 547.788 0.668287 0.349153 0
M  V30 6093 H 550.439 1.82629 0.178544 0
M  V30 6094 H 548.821 3.08304 2.48526 0
M  V30 6095 H 549.995 4.60752 0.0665988 0
M  V30 6096 H 548.31 4.15827 0.218316 0
M  V30 6097 H 550.907 4.43573 2.98575 0
M  V30 6098 H 551.25 2.73041 3.14252 0
M  V30 6099 H 551.783 3.60341 1.68522 0
M  V30 6100 H 548.522 6.49407 0.891679 0
M  V30 6101 H 548.042 5.53509 2.31059 0
M  V30 6102 H 549.721 6.1051 2.14212 0
M  V30 6103 N 549.853 -0.472356 1.50355 0
M  V30 6104 C 550.763 -1.59637 1.7191 0
M  V30 6105 C 551.779 -1.63247 0.602195 0
M  V30 6106 O 552.955 -1.81139 0.880369 0
M  V30 6107 C 550.02 -2.9586 1.80742 0
M  V30 6108 C 549.081 -3.02649 3.04471 0
M  V30 6109 C 548.314 -4.32374 3.12872 0
M  V30 6110 O 548.537 -5.22807 2.28099 0
M  V30 6111 O 547.471 -4.44728 4.05587 0
M  V30 6112 H 551.297 -1.44373 2.67189 0
M  V30 6113 H 548.882 -0.651717 1.34436 0
M  V30 6114 H 550.764 -3.7677 1.88739 0
M  V30 6115 H 549.439 -3.11325 0.88647 0
M  V30 6116 H 548.346 -2.20821 3.01975 0
M  V30 6117 H 549.679 -2.92119 3.9614 0
M  V30 6118 N 551.331 -1.39911 -0.725443 0
M  V30 6119 C 552.556 -1.41137 -1.5197 0
M  V30 6120 C 552.981 -0.010262 -1.88097 0
M  V30 6121 O 552.339 0.979184 -1.52583 0
M  V30 6122 C 552.387 -2.2994 -2.77777 0
M  V30 6123 O 551.491 -1.73586 -3.74088 0
M  V30 6124 H 550.832 -0.480219 -0.458569 0
M  V30 6125 H 553.362 -1.84023 -0.894249 0
M  V30 6126 H 553.372 -2.44785 -3.26411 0
M  V30 6127 H 552.047 -3.31759 -2.50816 0
M  V30 6128 H 550.624 -1.68035 -3.32894 0
M  V30 6129 N 552.809 0.956637 -1.25245 0
M  V30 6130 C 553.742 2.05232 -0.99775 0
M  V30 6131 C 554.72 1.62439 0.0723137 0
M  V30 6132 O 555.904 1.88381 -0.066926 0
M  V30 6133 C 553.031 3.34871 -0.507861 0
M  V30 6134 C 552.077 3.96625 -1.56815 0
M  V30 6135 S 552.91 4.32853 -3.15276 0
M  V30 6136 C 554.066 5.65613 -2.68017 0
M  V30 6137 H 554.299 2.26521 -1.9255 0
M  V30 6138 H 551.832 1.09601 -1.08752 0
M  V30 6139 H 553.79 4.09845 -0.231858 0
M  V30 6140 H 552.451 3.11551 0.399356 0
M  V30 6141 H 551.644 4.90087 -1.17604 0
M  V30 6142 H 551.246 3.28124 -1.79473 0
M  V30 6143 H 553.538 6.43635 -2.11518 0
M  V30 6144 H 554.481 6.09693 -3.60112 0
M  V30 6145 H 554.889 5.24751 -2.0808 0
M  V30 6146 N 554.287 1.06798 1.15896 0
M  V30 6147 C 555.237 0.653213 2.18443 0
M  V30 6148 C 556.221 -0.318763 1.57711 0
M  V30 6149 O 557.413 -0.133388 1.76497 0
M  V30 6150 C 554.542 0.0465785 3.43268 0
M  V30 6151 C 553.628 1.04336 4.11066 0
M  V30 6152 N 554.019 2.22084 4.54436 0
M  V30 6153 C 552.317 0.875433 4.37324 0
M  V30 6154 C 553.018 2.85276 5.06944 0
M  V30 6155 N 551.994 2.12973 5.00143 0
M  V30 6156 H 555.796 1.55011 2.49698 0
M  V30 6157 H 553.31 0.940384 1.32403 0
M  V30 6158 H 555.307 -0.26843 4.16035 0
M  V30 6159 H 553.967 -0.845504 3.13499 0
M  V30 6160 H 554.978 2.59833 4.48004 0
M  V30 6161 H 551.655 0.0357721 4.17485 0
M  V30 6162 H 553.045 3.85223 5.50503 0
M  V30 6163 N 555.766 -1.3263 0.851289 0
M  V30 6164 C 556.713 -2.28952 0.291469 0
M  V30 6165 C 557.683 -1.54897 -0.599676 0
M  V30 6166 O 558.868 -1.83137 -0.535305 0
M  V30 6167 C 556.008 -3.41206 -0.516992 0
M  V30 6168 C 555.121 -4.30148 0.399566 0
M  V30 6169 C 554.256 -5.29527 -0.4212 0
M  V30 6170 C 553.295 -6.10112 0.492969 0
M  V30 6171 N 552.432 -7.01499 -0.290414 0
M  V30 6172 H 557.272 -2.76228 1.11813 0
M  V30 6173 H 554.809 -1.35907 0.562826 0
M  V30 6174 H 556.767 -4.05005 -1.00132 0
M  V30 6175 H 555.397 -2.9509 -1.30851 0
M  V30 6176 H 554.449 -3.66959 1.00227 0
M  V30 6177 H 555.761 -4.8649 1.1013 0
M  V30 6178 H 554.915 -5.98914 -0.968832 0
M  V30 6179 H 553.654 -4.73794 -1.15632 0
M  V30 6180 H 552.659 -5.39632 1.05251 0
M  V30 6181 H 553.884 -6.6793 1.22664 0
M  V30 6182 H 551.83 -6.48199 -1.00868 0
M  V30 6183 H 551.747 -7.55178 0.352354 0
M  V30 6184 H 553.015 -7.75176 -0.819882 0
M  V30 6185 N 557.244 -0.608902 -1.45362 0
M  V30 6186 C 558.177 0.158059 -2.27652 0
M  V30 6187 C 559.155 0.872397 -1.37215 0
M  V30 6188 O 560.339 0.881002 -1.66645 0
M  V30 6189 C 557.466 1.22896 -3.15617 0
M  V30 6190 C 556.512 0.617607 -4.22005 0
M  V30 6191 S 557.345 -0.575518 -5.32398 0
M  V30 6192 C 558.501 0.495938 -6.23932 0
M  V30 6193 H 558.734 -0.540095 -2.92353 0
M  V30 6194 H 556.267 -0.396456 -1.49223 0
M  V30 6195 H 558.225 1.84195 -3.66855 0
M  V30 6196 H 556.886 1.89919 -2.50179 0
M  V30 6197 H 556.079 1.42341 -4.83482 0
M  V30 6198 H 555.681 0.0797273 -3.73915 0
M  V30 6199 H 557.973 1.37465 -6.63408 0
M  V30 6200 H 558.916 -0.0827108 -7.08052 0
M  V30 6201 H 559.324 0.811856 -5.58631 0
M  V30 6202 N 558.722 1.53707 -0.348139 0
M  V30 6203 C 559.685 2.23812 0.494058 0
M  V30 6204 C 560.685 1.23989 1.02388 0
M  V30 6205 O 561.875 1.48395 0.912396 0
M  V30 6206 C 559.007 2.96133 1.68872 0
M  V30 6207 H 560.2 2.99663 -0.119141 0
M  V30 6208 H 557.753 1.55983 -0.0995539 0
M  V30 6209 H 558.488 2.24481 2.34049 0
M  V30 6210 H 558.273 3.69357 1.31596 0
M  V30 6211 H 559.763 3.49475 2.28597 0
M  V30 6212 N 560.2 0.0768682 1.57412 0
M  V30 6213 C 561.425 -0.603404 1.98428 0
M  V30 6214 C 561.85 -1.62047 0.955108 0
M  V30 6215 O 561.208 -1.81129 -0.0786778 0
M  V30 6216 C 561.256 -1.24396 3.38464 0
M  V30 6217 O 560.36 -2.35982 3.3821 0
M  V30 6218 H 559.701 -0.154741 0.645718 0
M  V30 6219 H 562.231 0.152885 2.04028 0
M  V30 6220 H 562.241 -1.5896 3.7576 0
M  V30 6221 H 560.916 -0.498735 4.12899 0
M  V30 6222 H 559.493 -2.03173 3.1269 0
M  V30 6223 N 561.678 -1.56367 -0.196722 0
M  V30 6224 C 562.641 -1.93561 -1.22746 0
M  V30 6225 C 563.641 -0.816566 -1.38524 0
M  V30 6226 O 564.831 -1.084 -1.36363 0
M  V30 6227 C 561.963 -2.20823 -2.59712 0
M  V30 6228 H 563.156 -2.85774 -0.909586 0
M  V30 6229 H 560.709 -1.50032 -0.438174 0
M  V30 6230 H 561.444 -1.31243 -2.96557 0
M  V30 6231 H 561.229 -3.02368 -2.49632 0
M  V30 6232 H 562.719 -2.50608 -3.34044 0
M  V30 6233 N 563.156 0.464375 -1.50603 0
M  V30 6234 C 564.567 1.04507 -1.5471 0
M  V30 6235 C 564.918 1.9297 -0.354542 0
M  V30 6236 O 564.043 2.09763 0.531812 0
M  V30 6237 C 564.638 1.90207 -2.80369 0
M  V30 6238 C 563.197 2.43373 -2.87135 0
M  V30 6239 C 562.344 1.21886 -2.49076 0
M  V30 6240 H 565.295 0.246716 -1.56771 0
M  V30 6241 H 565.316 2.75353 -2.62604 0
M  V30 6242 H 564.828 1.25796 -3.67147 0
M  V30 6243 H 562.929 3.11318 -2.04724 0
M  V30 6244 H 563.042 2.7802 -3.90181 0
M  V30 6245 H 561.406 1.55575 -2.01664 0
M  V30 6246 H 562.189 0.591268 -3.3817 0
M  V30 6247 N 564.634 1.40294 0.718013 0
M  V30 6248 C 566.05 1.2227 1.02577 0
M  V30 6249 C 566.25 0.0961976 2.0127 0
M  V30 6250 O 565.306 -0.546695 2.46511 0
M  V30 6251 C 566.619 2.56348 1.57182 0
M  V30 6252 C 568.167 2.6334 1.69178 0
M  V30 6253 C 568.642 3.9768 2.27188 0
M  V30 6254 N 570.133 3.99409 2.34578 0
M  V30 6255 C 570.868 5.00141 2.8044 0
M  V30 6256 N 570.364 6.11268 3.26073 0
M  V30 6257 N 572.157 4.87511 2.79802 0
M  V30 6258 H 564.308 2.12304 0.0637899 0
M  V30 6259 H 566.571 0.943632 0.0909036 0
M  V30 6260 H 566.277 3.3942 0.921262 0
M  V30 6261 H 566.151 2.77266 2.55741 0
M  V30 6262 H 568.538 1.80641 2.33351 0
M  V30 6263 H 568.619 2.46255 0.692247 0
M  V30 6264 H 568.263 4.80817 1.63638 0
M  V30 6265 H 568.193 4.12093 3.27852 0
M  V30 6266 H 570.684 3.19162 2.02346 0
M  V30 6267 H 570.997 6.84023 3.59628 0
M  V30 6268 H 569.342 6.14837 3.24038 0
M  V30 6269 H 572.533 3.9979 2.43487 0
M  V30 6270 H 572.706 5.66158 3.15228 0
M  V30 6271 N 566.112 -0.949982 1.2575 0
M  V30 6272 C 567.359 -1.69515 1.10774 0
M  V30 6273 C 567.687 -1.91316 -0.350479 0
M  V30 6274 O 566.942 -1.48515 -1.27443 0
M  V30 6275 C 567.241 -3.08039 1.81237 0
M  V30 6276 C 566.907 -3.06023 3.31151 0
M  V30 6277 C 565.569 -3.0518 3.72047 0
M  V30 6278 C 567.921 -2.98998 4.26907 0
M  V30 6279 C 565.249 -2.95067 5.07102 0
M  V30 6280 C 567.601 -2.90426 5.61992 0
M  V30 6281 C 566.265 -2.87922 6.0221 0
M  V30 6282 H 565.535 -0.6203 0.405351 0
M  V30 6283 H 568.182 -1.10953 1.56082 0
M  V30 6284 H 566.487 -3.70172 1.28373 0
M  V30 6285 H 568.184 -3.64526 1.67098 0
M  V30 6286 H 564.774 -3.07453 2.98614 0
M  V30 6287 H 568.958 -2.98764 3.963 0
M  V30 6288 H 564.214 -2.915 5.37436 0
M  V30 6289 H 568.388 -2.83952 6.35881 0
M  V30 6290 H 566.015 -2.79841 7.06819 0
M  V30 6291 N 567.59 -1.07411 -1.15328 0
M  V30 6292 C 568.836 -0.808666 -1.86634 0
M  V30 6293 C 569.191 0.65816 -1.80793 0
M  V30 6294 O 568.484 1.47689 -1.22059 0
M  V30 6295 C 568.678 -1.25191 -3.34757 0
M  V30 6296 C 568.507 -2.76028 -3.55019 0
M  V30 6297 C 567.277 -3.43644 -3.70455 0
M  V30 6298 C 569.475 -3.74224 -3.5279 0
M  V30 6299 N 567.457 -4.83117 -3.78776 0
M  V30 6300 C 568.828 -4.9954 -3.67233 0
M  V30 6301 C 570.883 -3.67373 -3.36068 0
M  V30 6302 C 569.586 -6.18819 -3.66682 0
M  V30 6303 C 571.612 -4.86116 -3.36816 0
M  V30 6304 C 570.974 -6.10266 -3.51789 0
M  V30 6305 H 567.073 -0.348478 -0.700062 0
M  V30 6306 H 569.657 -1.37049 -1.38295 0
M  V30 6307 H 567.828 -0.717775 -3.8171 0
M  V30 6308 H 569.56 -0.933936 -3.93776 0
M  V30 6309 H 566.315 -2.94051 -3.71256 0
M  V30 6310 H 566.739 -5.55705 -3.86679 0
M  V30 6311 H 571.381 -2.72334 -3.2341 0
M  V30 6312 H 569.099 -7.14179 -3.78118 0
M  V30 6313 H 572.685 -4.82492 -3.25103 0
M  V30 6314 H 571.565 -7.00609 -3.52301 0
M  V30 6315 N 569.068 1.32177 -0.85831 0
M  V30 6316 C 570.479 1.79381 -0.517621 0
M  V30 6317 C 570.83 1.70841 0.964769 0
M  V30 6318 O 569.955 1.26917 1.75274 0
M  V30 6319 C 570.55 3.25706 -0.932801 0
M  V30 6320 C 569.109 3.70851 -0.643953 0
M  V30 6321 C 568.256 2.53208 -1.13054 0
M  V30 6322 H 571.207 1.19424 -1.04516 0
M  V30 6323 H 571.228 3.79673 -0.250674 0
M  V30 6324 H 570.74 3.31889 -2.01174 0
M  V30 6325 H 568.841 3.70178 0.424112 0
M  V30 6326 H 568.954 4.63495 -1.21281 0
M  V30 6327 H 567.318 2.48676 -0.550679 0
M  V30 6328 H 568.101 2.62143 -2.21666 0
M  V30 6329 N 570.547 0.616602 1.45037 0
M  V30 6330 C 571.457 -0.0985401 2.34393 0
M  V30 6331 C 572.473 -0.850971 1.51771 0
M  V30 6332 O 573.649 -0.806521 1.84546 0
M  V30 6333 C 570.714 -1.07748 3.29532 0
M  V30 6334 C 569.775 -0.326022 4.2806 0
M  V30 6335 C 569.008 -1.25833 5.18654 0
M  V30 6336 O 569.231 -2.49652 5.12864 0
M  V30 6337 O 568.165 -0.750512 5.97203 0
M  V30 6338 H 571.991 0.636016 2.96966 0
M  V30 6339 H 569.576 0.376832 1.44569 0
M  V30 6340 H 571.458 -1.64107 3.88133 0
M  V30 6341 H 570.133 -1.79291 2.69512 0
M  V30 6342 H 569.04 0.280253 3.73049 0
M  V30 6343 H 570.373 0.349091 4.9096 0
M  V30 6344 N 572.025 -1.5352 0.356285 0
M  V30 6345 C 573.436 -1.86282 -0.12492 0
M  V30 6346 C 573.787 -1.27717 -1.48939 0
M  V30 6347 O 572.912 -0.595614 -2.08042 0
M  V30 6348 C 573.507 -3.37995 -0.23345 0
M  V30 6349 C 572.066 -3.70588 -0.658899 0
M  V30 6350 C 571.213 -2.76581 0.199596 0
M  V30 6351 H 574.164 -1.47901 0.575423 0
M  V30 6352 H 574.185 -3.65475 -1.0587 0
M  V30 6353 H 573.697 -3.8059 0.759776 0
M  V30 6354 H 571.798 -3.33544 -1.66069 0
M  V30 6355 H 571.911 -4.77076 -0.439957 0
M  V30 6356 H 570.275 -2.52552 -0.330076 0
M  V30 6357 H 571.058 -3.22008 1.19019 0
M  V30 6358 N 573.503 -0.0852151 -1.57369 0
M  V30 6359 C 574.413 0.891712 -2.16992 0
M  V30 6360 C 575.429 1.3174 -1.13669 0
M  V30 6361 O 576.605 1.38735 -1.45995 0
M  V30 6362 C 573.67 2.13635 -2.73059 0
M  V30 6363 C 572.731 1.7658 -3.91303 0
M  V30 6364 C 571.964 2.95111 -4.44686 0
M  V30 6365 O 572.187 4.09539 -3.97032 0
M  V30 6366 O 571.121 2.74149 -5.35841 0
M  V30 6367 H 574.947 0.414477 -3.00858 0
M  V30 6368 H 572.532 0.138598 -1.48756 0
M  V30 6369 H 574.414 2.86595 -3.08935 0
M  V30 6370 H 573.089 2.6043 -1.92244 0
M  V30 6371 H 571.996 1.00831 -3.60255 0
M  V30 6372 H 573.329 1.34557 -4.7345 0
M  V30 6373 N 574.981 1.5647 0.188427 0
M  V30 6374 C 576.229 1.80655 0.905986 0
M  V30 6375 C 576.55 0.659391 1.83513 0
M  V30 6376 O 575.82 -0.321868 1.93238 0
M  V30 6377 H 574.4 0.666391 0.337538 0
M  V30 6378 H 577.062 1.93949 0.192339 0
M  V30 6379 H 576.158 2.74066 1.49313 0
M  V30 6380 N 576.459 -0.456382 1.50847 0
M  V30 6381 C 577.369 -1.57805 1.73594 0
M  V30 6382 C 578.385 -1.62599 0.619476 0
M  V30 6383 O 579.561 -1.80195 0.899532 0
M  V30 6384 C 576.626 -2.93926 1.8387 0
M  V30 6385 C 575.687 -2.99402 3.07663 0
M  V30 6386 C 574.92 -4.29031 3.1744 0
M  V30 6387 O 575.143 -5.20358 2.33631 0
M  V30 6388 O 574.077 -4.40401 4.10281 0
M  V30 6389 H 577.903 -1.41531 2.68705 0
M  V30 6390 H 575.488 -0.637422 1.3512 0
M  V30 6391 H 577.37 -3.74747 1.92725 0
M  V30 6392 H 576.045 -3.10368 0.91944 0
M  V30 6393 H 574.952 -2.17606 3.043 0
M  V30 6394 H 576.285 -2.87901 3.99216 0
M  V30 6395 N 577.937 -1.40673 -0.710563 0
M  V30 6396 C 579.348 -1.34975 -1.28991 0
M  V30 6397 C 579.699 -0.0256272 -1.96183 0
M  V30 6398 O 578.824 0.876339 -1.97862 0
M  V30 6399 C 579.419 -2.44467 -2.34567 0
M  V30 6400 C 577.978 -2.42213 -2.88114 0
M  V30 6401 C 577.125 -2.25085 -1.61963 0
M  V30 6402 H 580.076 -1.50406 -0.506343 0
M  V30 6403 H 580.097 -2.12663 -3.15523 0
M  V30 6404 H 579.609 -3.40825 -1.85634 0
M  V30 6405 H 577.71 -1.49568 -3.41263 0
M  V30 6406 H 577.823 -3.37983 -3.39565 0
M  V30 6407 H 576.187 -1.72691 -1.87216 0
M  V30 6408 H 576.97 -3.23449 -1.15047 0
M  V30 6409 N 579.415 0.9433 -1.26252 0
M  V30 6410 C 580.826 1.50404 -1.10614 0
M  V30 6411 C 581.177 1.93666 0.31429 0
M  V30 6412 O 580.302 1.79709 1.20555 0
M  V30 6413 C 580.897 2.73336 -2.00182 0
M  V30 6414 C 579.456 3.25686 -1.88695 0
M  V30 6415 C 578.603 1.98474 -1.93658 0
M  V30 6416 H 581.554 0.759006 -1.39373 0
M  V30 6417 H 581.575 3.47567 -1.54847 0
M  V30 6418 H 581.087 2.41818 -3.03555 0
M  V30 6419 H 579.188 3.61998 -0.882489 0
M  V30 6420 H 579.301 3.92935 -2.74115 0
M  V30 6421 H 577.665 2.14278 -1.37684 0
M  V30 6422 H 578.448 1.6929 -2.98657 0
M  V30 6423 N 580.893 1.08022 1.14757 0
M  V30 6424 C 581.856 0.71048 2.1791 0
M  V30 6425 C 582.856 -0.252731 1.58801 0
M  V30 6426 O 584.046 -0.0327915 1.74169 0
M  V30 6427 C 581.178 0.0483203 3.40866 0
M  V30 6428 H 582.371 1.62384 2.52134 0
M  V30 6429 H 579.924 0.877595 1.29337 0
M  V30 6430 H 580.659 -0.876959 3.12218 0
M  V30 6431 H 580.444 0.741189 3.85031 0
M  V30 6432 H 581.934 -0.195471 4.17142 0
M  V30 6433 N 582.371 -1.3172 0.865308 0
M  V30 6434 C 583.599 -2.01057 0.488251 0
M  V30 6435 C 584.014 -1.64979 -0.918 0
M  V30 6436 O 583.371 -0.876597 -1.60069 0
M  V30 6437 C 583.422 -3.55964 0.630224 0
M  V30 6438 O 583.143 -3.90749 1.98109 0
M  V30 6439 C 584.644 -4.42574 0.253567 0
M  V30 6440 H 581.864 -0.64332 0.190736 0
M  V30 6441 H 584.408 -1.68058 1.16519 0
M  V30 6442 H 582.563 -3.874 0.000895422 0
M  V30 6443 H 582.977 -4.85467 1.9855 0
M  V30 6444 H 584.451 -5.50521 0.403875 0
M  V30 6445 H 584.928 -4.31724 -0.806895 0
M  V30 6446 H 585.534 -4.16547 0.858404 0
M  V30 6447 N 583.85 -0.624285 -1.44708 0
M  V30 6448 C 585.075 -0.131171 -2.06985 0
M  V30 6449 C 585.5 1.18234 -1.46295 0
M  V30 6450 O 584.858 1.72375 -0.561842 0
M  V30 6451 C 584.906 -0.0226724 -3.60593 0
M  V30 6452 O 584.01 1.02314 -3.99507 0
M  V30 6453 H 583.351 -0.0816556 -0.65896 0
M  V30 6454 H 585.88 -0.859027 -1.85693 0
M  V30 6455 H 585.891 0.170138 -4.07645 0
M  V30 6456 H 584.566 -0.981685 -4.04148 0
M  V30 6457 H 583.143 0.805452 -3.64097 0
M  V30 6458 N 585.328 1.53329 -0.364422 0
M  V30 6459 C 586.576 2.00842 0.225189 0
M  V30 6460 C 586.897 1.25345 1.49378 0
M  V30 6461 O 586.167 0.366396 1.92443 0
M  V30 6462 H 584.747 0.742009 0.0862027 0
M  V30 6463 H 587.409 1.8863 -0.490389 0
M  V30 6464 H 586.505 3.08795 0.452987 0
M  V30 6465 N 586.806 0.0935595 1.57322 0
M  V30 6466 C 588.034 -0.578934 1.98635 0
M  V30 6467 C 588.449 -1.61819 0.972626 0
M  V30 6468 O 587.806 -1.82461 -0.0379638 0
M  V30 6469 C 587.857 -1.22802 3.40003 0
M  V30 6470 O 587.578 -0.230334 4.37494 0
M  V30 6471 C 589.079 -1.98627 3.96311 0
M  V30 6472 H 586.299 -0.155324 0.652775 0
M  V30 6473 H 588.843 0.172393 2.03772 0
M  V30 6474 H 586.998 -1.93029 3.35885 0
M  V30 6475 H 587.412 -0.698649 5.19826 0
M  V30 6476 H 588.886 -2.39405 4.97382 0
M  V30 6477 H 589.363 -2.85151 3.34044 0
M  V30 6478 H 589.969 -1.3322 4.03897 0
M  V30 6479 N 588.284 -1.56567 -0.180126 0
M  V30 6480 C 589.216 -1.92275 -1.24751 0
M  V30 6481 C 590.229 -0.814922 -1.40936 0
M  V30 6482 O 591.418 -1.09336 -1.41095 0
M  V30 6483 C 588.518 -2.15265 -2.61752 0
M  V30 6484 C 587.691 -3.46467 -2.66981 0
M  V30 6485 C 586.75 -3.58391 -3.85283 0
M  V30 6486 O 585.776 -4.31086 -3.7169 0
M  V30 6487 N 586.978 -2.92587 -5.01371 0
M  V30 6488 H 589.743 -2.84435 -0.944302 0
M  V30 6489 H 587.304 -1.57617 -0.369952 0
M  V30 6490 H 589.296 -2.20515 -3.39345 0
M  V30 6491 H 587.866 -1.29533 -2.845 0
M  V30 6492 H 587.086 -3.52953 -1.75549 0
M  V30 6493 H 588.374 -4.32819 -2.67479 0
M  V30 6494 H 587.772 -2.3338 -5.15316 0
M  V30 6495 H 586.329 -3.03444 -5.76858 0
M  V30 6496 N 589.762 0.448376 -1.51087 0
M  V30 6497 C 590.987 1.22605 -1.6728 0
M  V30 6498 C 591.412 1.84524 -0.365045 0
M  V30 6499 O 590.77 1.6832 0.673642 0
M  V30 6500 C 590.818 2.29393 -2.78229 0
M  V30 6501 O 589.922 3.34608 -2.41063 0
M  V30 6502 H 589.263 0.359705 -0.558129 0
M  V30 6503 H 591.793 0.530903 -1.97592 0
M  V30 6504 H 591.803 2.74352 -3.01986 0
M  V30 6505 H 590.478 1.83701 -3.73131 0
M  V30 6506 H 589.055 2.95202 -2.27838 0
M  V30 6507 N 591.24 1.41047 0.703093 0
M  V30 6508 C 592.17 1.45067 1.82969 0
M  V30 6509 C 593.151 0.31016 1.67248 0
M  V30 6510 O 594.336 0.520548 1.87093 0
M  V30 6511 C 591.466 1.32478 3.2104 0
M  V30 6512 C 590.42 2.44262 3.51454 0
M  V30 6513 C 589.746 2.16742 4.88801 0
M  V30 6514 C 591.046 3.86606 3.51189 0
M  V30 6515 H 592.74 2.39353 1.79863 0
M  V30 6516 H 590.286 1.15206 0.863919 0
M  V30 6517 H 592.239 1.33904 3.99559 0
M  V30 6518 H 590.963 0.346735 3.24754 0
M  V30 6519 H 589.622 2.42107 2.75282 0
M  V30 6520 H 589.27 1.17299 4.89132 0
M  V30 6521 H 588.97 2.91643 5.10116 0
M  V30 6522 H 590.494 2.19872 5.69639 0
M  V30 6523 H 591.908 3.90517 4.19725 0
M  V30 6524 H 590.305 4.61128 3.84033 0
M  V30 6525 H 591.375 4.15296 2.50315 0
M  V30 6526 N 592.718 -0.936591 1.26751 0
M  V30 6527 C 593.668 -2.0219 1.05371 0
M  V30 6528 C 594.652 -1.60893 -0.0154112 0
M  V30 6529 O 595.844 -1.75843 0.202085 0
M  V30 6530 C 592.973 -3.36222 0.693541 0
M  V30 6531 C 592.059 -3.8399 1.80035 0
M  V30 6532 N 592.45 -4.0436 3.03852 0
M  V30 6533 C 590.748 -4.12945 1.685 0
M  V30 6534 C 591.449 -4.44 3.75818 0
M  V30 6535 N 590.425 -4.50966 3.03531 0
M  V30 6536 H 594.227 -2.15958 1.99347 0
M  V30 6537 H 591.741 -1.12277 1.17335 0
M  V30 6538 H 593.738 -4.13625 0.521513 0
M  V30 6539 H 592.398 -3.23821 -0.238693 0
M  V30 6540 H 593.409 -3.9092 3.39709 0
M  V30 6541 H 590.086 -4.09308 0.822986 0
M  V30 6542 H 591.476 -4.67914 4.82189 0
M  V30 6543 N 594.196 -1.08629 -1.14182 0
M  V30 6544 C 595.607 -0.838003 -1.66836 0
M  V30 6545 C 595.958 0.634885 -1.85644 0
M  V30 6546 O 595.083 1.49008 -1.56926 0
M  V30 6547 C 595.678 -1.51465 -3.03058 0
M  V30 6548 C 594.237 -1.31355 -3.52736 0
M  V30 6549 C 593.384 -1.57599 -2.28162 0
M  V30 6550 H 596.335 -1.24656 -0.982165 0
M  V30 6551 H 596.356 -0.943134 -3.68626 0
M  V30 6552 H 595.868 -2.58661 -2.89337 0
M  V30 6553 H 593.969 -0.262384 -3.71675 0
M  V30 6554 H 594.082 -2.04275 -4.33369 0
M  V30 6555 H 592.446 -0.997659 -2.34348 0
M  V30 6556 H 593.229 -2.66006 -2.17015 0
M  V30 6557 N 595.674 1.31259 -0.872281 0
M  V30 6558 C 597.085 1.78822 -0.536617 0
M  V30 6559 C 597.436 1.71855 0.946594 0
M  V30 6560 O 596.561 1.28769 1.73918 0
M  V30 6561 C 597.156 3.24698 -0.967294 0
M  V30 6562 C 595.715 3.70147 -0.683251 0
M  V30 6563 C 594.862 2.51994 -1.15733 0
M  V30 6564 H 597.813 1.18308 -1.05777 0
M  V30 6565 H 597.834 3.79386 -0.290929 0
M  V30 6566 H 597.346 3.29737 -2.04683 0
M  V30 6567 H 595.447 3.70607 0.384825 0
M  V30 6568 H 595.56 4.62183 -1.2619 0
M  V30 6569 H 593.924 2.48078 -0.577024 0
M  V30 6570 H 594.707 2.59778 -2.24434 0
M  V30 6571 N 597.152 0.631951 1.44375 0
M  V30 6572 C 598.377 0.142146 2.06912 0
M  V30 6573 C 598.802 -1.17456 1.4692 0
M  V30 6574 O 598.16 -1.72074 0.570975 0
M  V30 6575 C 598.208 0.0417952 3.60576 0
M  V30 6576 O 597.312 -1.00194 4.00044 0
M  V30 6577 H 596.653 0.0851491 0.658518 0
M  V30 6578 H 599.183 0.868863 1.85235 0
M  V30 6579 H 599.193 -0.148517 4.0773 0
M  V30 6580 H 597.868 1.0031 4.03622 0
M  V30 6581 H 596.445 -0.786131 3.64519 0
M  V30 6582 N 598.631 -1.53133 0.372548 0
M  V30 6583 C 600.042 -1.86404 -0.105155 0
M  V30 6584 C 600.393 -1.29289 -1.47576 0
M  V30 6585 O 599.518 -0.617646 -2.07398 0
M  V30 6586 C 600.113 -3.38223 -0.197588 0
M  V30 6587 C 598.672 -3.71266 -0.619556 0
M  V30 6588 C 597.819 -2.76353 0.228919 0
M  V30 6589 H 600.77 -1.47282 0.591077 0
M  V30 6590 H 600.791 -3.66577 -1.01987 0
M  V30 6591 H 600.303 -3.79763 0.800099 0
M  V30 6592 H 598.404 -3.35287 -1.62522 0
M  V30 6593 H 598.517 -4.77515 -0.389332 0
M  V30 6594 H 596.881 -2.52888 -0.303271 0
M  V30 6595 H 597.664 -3.20728 1.22428 0
M  V30 6596 N 600.109 -0.101901 -1.5727 0
M  V30 6597 C 601.334 0.571759 -1.99363 0
M  V30 6598 C 601.759 1.60507 -0.980768 0
M  V30 6599 O 601.117 1.81231 0.0498517 0
M  V30 6600 C 601.165 1.18996 -3.404 0
M  V30 6601 O 600.269 2.30572 -3.41922 0
M  V30 6602 H 599.61 0.144449 -0.648098 0
M  V30 6603 H 602.14 -0.185325 -2.03759 0
M  V30 6604 H 602.15 1.52962 -3.78241 0
M  V30 6605 H 600.825 0.432984 -4.1364 0
M  V30 6606 H 599.402 1.98173 -3.15883 0
M  V30 6607 N 601.587 1.56661 0.17182 0
M  V30 6608 C 602.834 1.81965 0.888529 0
M  V30 6609 C 603.162 0.6789 1.82267 0
M  V30 6610 O 602.417 -0.333875 1.92831 0
M  V30 6611 C 602.716 3.13435 1.71736 0
M  V30 6612 C 602.382 4.41159 0.932184 0
M  V30 6613 C 601.044 4.75851 0.715481 0
M  V30 6614 C 603.396 5.19803 0.381387 0
M  V30 6615 C 600.724 5.86666 -0.063126 0
M  V30 6616 C 603.076 6.31433 -0.384129 0
M  V30 6617 C 601.74 6.64692 -0.611637 0
M  V30 6618 H 601.01 0.665859 0.325136 0
M  V30 6619 H 603.657 1.90884 0.153495 0
M  V30 6620 H 601.962 2.99857 2.52177 0
M  V30 6621 H 603.659 3.30224 2.27493 0
M  V30 6622 H 600.249 4.13947 1.11112 0
M  V30 6623 H 604.433 4.93396 0.536148 0
M  V30 6624 H 599.689 6.10892 -0.249136 0
M  V30 6625 H 603.863 6.91577 -0.818185 0
M  V30 6626 H 601.49 7.50398 -1.21684 0
M  V30 6627 N 603.065 -0.440357 1.51323 0
M  V30 6628 C 604.305 -1.19956 1.65499 0
M  V30 6629 C 604.669 -1.88559 0.361878 0
M  V30 6630 O 605.87 -2.66109 0.379383 0
M  V30 6631 C 604.141 -2.1918 2.82303 0
M  V30 6632 S 605.7 -3.03627 3.1679 0
M  V30 6633 H 602.518 -0.406833 0.583102 0
M  V30 6634 H 605.12 -0.491596 1.89218 0
M  V30 6635 H 603.824 -1.67414 3.74701 0
M  V30 6636 H 603.355 -2.94561 2.60763 0
M  V30 6637 H 605.37 -4.20773 2.62991 0
M  V30 6638 N 604.543 -1.41418 -0.695603 0
M  V30 6639 C 605.789 -1.40982 -1.4578 0
M  V30 6640 C 606.122 -0.0187763 -1.94191 0
M  V30 6641 O 605.397 0.95346 -1.69527 0
M  V30 6642 C 605.68 -2.41657 -2.66972 0
M  V30 6643 C 605.533 -3.89869 -2.24327 0
M  V30 6644 C 606.852 -2.39589 -3.69168 0
M  V30 6645 H 603.971 -0.513405 -0.528757 0
M  V30 6646 H 606.613 -1.72693 -0.792275 0
M  V30 6647 H 604.763 -2.14746 -3.23754 0
M  V30 6648 H 606.435 -4.27683 -1.72872 0
M  V30 6649 H 604.678 -4.04737 -1.56111 0
M  V30 6650 H 605.349 -4.55857 -3.11285 0
M  V30 6651 H 607.825 -2.63471 -3.2206 0
M  V30 6652 H 606.701 -3.12044 -4.51575 0
M  V30 6653 H 606.962 -1.41447 -4.18862 0
M  V30 6654 N 606.021 0.929856 -1.27246 0
M  V30 6655 C 607.432 1.49223 -1.12203 0
M  V30 6656 C 607.783 1.93989 0.293731 0
M  V30 6657 O 606.908 1.80978 1.18642 0
M  V30 6658 C 607.503 2.71198 -2.0307 0
M  V30 6659 C 606.062 3.23666 -1.92139 0
M  V30 6660 C 605.209 1.96409 -1.95752 0
M  V30 6661 H 608.16 0.744181 -1.4017 0
M  V30 6662 H 608.181 3.45905 -1.58524 0
M  V30 6663 H 607.693 2.38585 -3.06102 0
M  V30 6664 H 605.794 3.61042 -0.920834 0
M  V30 6665 H 605.907 3.90006 -2.78267 0
M  V30 6666 H 604.271 2.12806 -1.39949 0
M  V30 6667 H 605.054 1.66113 -3.00436 0
M  V30 6668 N 607.499 1.09233 1.13605 0
M  V30 6669 C 608.429 0.751738 2.21068 0
M  V30 6670 C 609.41 -0.269688 1.67948 0
M  V30 6671 O 610.595 -0.13819 1.93708 0
M  V30 6672 C 607.725 0.16935 3.46887 0
M  V30 6673 C 606.679 1.12007 4.13084 0
M  V30 6674 C 606.005 0.399483 5.33206 0
M  V30 6675 C 607.305 2.46168 4.6065 0
M  V30 6676 H 608.999 1.65024 2.49815 0
M  V30 6677 H 606.545 0.794905 1.20072 0
M  V30 6678 H 608.498 -0.0809824 4.21322 0
M  V30 6679 H 607.222 -0.764335 3.1753 0
M  V30 6680 H 605.881 1.35564 3.40614 0
M  V30 6681 H 605.529 -0.538277 5.00112 0
M  V30 6682 H 605.229 1.03337 5.78442 0
M  V30 6683 H 606.753 0.157403 6.10397 0
M  V30 6684 H 608.167 2.26829 5.26518 0
M  V30 6685 H 606.564 3.05326 5.1662 0
M  V30 6686 H 607.634 3.07076 3.75276 0
M  V30 6687 N 608.977 -1.30795 0.87923 0
M  V30 6688 C 610.254 -1.91145 0.415086 0
M  V30 6689 C 610.634 -1.7995 -1.10368 0
M  V30 6690 O 609.982 -1.21305 -1.93642 0
M  V30 6691 C 610.192 -3.37014 0.906778 0
M  V30 6692 C 611.54 -4.14101 0.938358 0
M  V30 6693 O 612.564 -3.45834 0.853053 0
M  V30 6694 O 611.423 -5.36054 1.06342 0
M  V30 6695 H 608.517 -0.81736 0.125905 0
M  V30 6696 H 611.063 -1.39401 0.967753 0
M  V30 6697 H 609.835 -3.3922 1.95053 0
M  V30 6698 H 609.458 -3.96204 0.332948 0
M  V30 6699 N 610.455 -0.639598 -1.44038 0
M  V30 6700 C 611.701 -0.147698 -2.02261 0
M  V30 6701 C 612.034 1.23031 -1.50256 0
M  V30 6702 O 611.309 1.81847 -0.690068 0
M  V30 6703 C 611.592 -0.14362 -3.59813 0
M  V30 6704 C 611.445 -1.55458 -4.22082 0
M  V30 6705 C 612.764 0.527317 -4.36929 0
M  V30 6706 H 609.883 -0.0551453 -0.734934 0
M  V30 6707 H 612.525 -0.817688 -1.71505 0
M  V30 6708 H 610.675 0.426898 -3.86147 0
M  V30 6709 H 612.347 -2.17464 -4.06826 0
M  V30 6710 H 610.59 -2.10594 -3.79253 0
M  V30 6711 H 611.261 -1.50369 -5.31124 0
M  V30 6712 H 613.737 0.0420504 -4.16079 0
M  V30 6713 H 612.613 0.499389 -5.46624 0
M  V30 6714 H 612.874 1.59914 -4.12165 0
M  V30 6715 N 611.933 1.52934 -0.380664 0
M  V30 6716 C 613.344 1.86457 0.0952684 0
M  V30 6717 C 613.695 1.3007 1.46889 0
M  V30 6718 O 612.82 0.628636 2.07068 0
M  V30 6719 C 613.415 3.38323 0.179648 0
M  V30 6720 C 611.974 3.71589 0.599858 0
M  V30 6721 C 611.121 2.76228 -0.243572 0
M  V30 6722 H 614.072 1.46966 -0.59888 0
M  V30 6723 H 614.093 3.67113 1.00042 0
M  V30 6724 H 613.605 3.79333 -0.820228 0
M  V30 6725 H 611.706 3.36144 1.60742 0
M  V30 6726 H 611.819 4.77715 0.364003 0
M  V30 6727 H 610.183 2.53045 0.289855 0
M  V30 6728 H 610.966 3.20074 -1.24127 0
M  V30 6729 N 613.412 0.11024 1.57214 0
M  V30 6730 C 614.375 -0.828808 2.1369 0
M  V30 6731 C 615.375 -1.20059 1.06969 0
M  V30 6732 O 616.565 -1.12754 1.32786 0
M  V30 6733 C 613.697 -2.11959 2.66994 0
M  V30 6734 H 614.89 -0.338146 2.97988 0
M  V30 6735 H 612.443 -0.138913 1.55681 0
M  V30 6736 H 613.178 -2.65476 1.8626 0
M  V30 6737 H 612.963 -1.86258 3.45037 0
M  V30 6738 H 614.453 -2.79105 3.10629 0
M  V30 6739 N 614.89 -1.56749 -0.16351 0
M  V30 6740 C 615.8 -2.00255 -1.2221 0
M  V30 6741 C 616.816 -0.915194 -1.47987 0
M  V30 6742 O 617.992 -1.22342 -1.59982 0
M  V30 6743 C 615.057 -2.36035 -2.53946 0
M  V30 6744 C 614.118 -3.58637 -2.35962 0
M  V30 6745 C 613.351 -3.92701 -3.61416 0
M  V30 6746 O 613.574 -3.27632 -4.66919 0
M  V30 6747 O 612.508 -4.86019 -3.55062 0
M  V30 6748 H 616.334 -2.90586 -0.882794 0
M  V30 6749 H 613.919 -1.44721 -0.370978 0
M  V30 6750 H 615.801 -2.59982 -3.31643 0
M  V30 6751 H 614.476 -1.48863 -2.8744 0
M  V30 6752 H 613.383 -3.39898 -1.5627 0
M  V30 6753 H 614.716 -4.46374 -2.0739 0
M  V30 6754 N 616.368 0.432326 -1.51554 0
M  V30 6755 C 617.779 1.01202 -1.56892 0
M  V30 6756 C 618.13 1.92175 -0.395394 0
M  V30 6757 O 617.255 2.10844 0.487198 0
M  V30 6758 C 617.85 1.84217 -2.8434 0
M  V30 6759 C 616.409 2.37228 -2.92233 0
M  V30 6760 C 615.556 1.16576 -2.51606 0
M  V30 6761 H 618.507 0.213407 -1.57259 0
M  V30 6762 H 618.528 2.69721 -2.68385 0
M  V30 6763 H 618.04 1.17979 -3.69733 0
M  V30 6764 H 616.141 3.06905 -2.11282 0
M  V30 6765 H 616.254 2.69682 -3.95991 0
M  V30 6766 H 614.618 1.51263 -2.04919 0
M  V30 6767 H 615.401 0.519404 -3.39348 0
M  V30 6768 N 617.846 1.41785 0.688094 0
M  V30 6769 C 619.094 1.41264 1.4453 0
M  V30 6770 C 619.415 0.0252946 1.94984 0
M  V30 6771 O 618.685 -0.934081 1.72197 0
M  V30 6772 H 617.265 0.519998 0.536294 0
M  V30 6773 H 619.927 1.7709 0.813941 0
M  V30 6774 H 619.023 2.10439 2.30482 0
M  V30 6775 N 619.324 -0.923095 1.27737 0
M  V30 6776 C 620.735 -1.48626 1.12993 0
M  V30 6777 C 621.086 -1.94142 -0.283439 0
M  V30 6778 O 620.211 -1.81605 -1.17681 0
M  V30 6779 C 620.806 -2.70117 2.04505 0
M  V30 6780 C 619.365 -3.22642 1.93853 0
M  V30 6781 C 618.512 -1.95368 1.96791 0
M  V30 6782 H 621.463 -0.736737 1.40563 0
M  V30 6783 H 621.484 -3.4506 1.60356 0
M  V30 6784 H 620.996 -2.36959 3.07363 0
M  V30 6785 H 619.097 -3.60549 0.939968 0
M  V30 6786 H 619.21 -3.88525 2.80331 0
M  V30 6787 H 617.574 -2.12061 1.41076 0
M  V30 6788 H 618.357 -1.64517 3.01312 0
M  V30 6789 N 620.802 -1.09834 -1.13024 0
M  V30 6790 C 622.027 -0.85909 -1.88771 0
M  V30 6791 C 622.452 0.584402 -1.78791 0
M  V30 6792 O 621.81 1.41101 -1.13842 0
M  V30 6793 C 621.858 -1.30427 -3.36186 0
M  V30 6794 O 620.962 -0.465368 -4.09766 0
M  V30 6795 H 620.303 -0.310786 -0.586778 0
M  V30 6796 H 622.833 -1.46355 -1.42973 0
M  V30 6797 H 622.843 -1.2915 -3.8702 0
M  V30 6798 H 621.518 -2.3555 -3.42767 0
M  V30 6799 H 620.095 -0.542814 -3.68928 0
M  V30 6800 N 622.28 1.30327 -0.886154 0
M  V30 6801 C 623.52 1.97886 -0.511912 0
M  V30 6802 C 623.884 1.68417 0.921944 0
M  V30 6803 O 625.085 2.29319 1.40237 0
M  V30 6804 C 623.356 3.48775 -0.780444 0
M  V30 6805 S 624.915 4.35844 -0.508482 0
M  V30 6806 H 621.733 0.685024 -0.190428 0
M  V30 6807 H 624.335 1.58413 -1.14567 0
M  V30 6808 H 623.039 3.67714 -1.82248 0
M  V30 6809 H 622.57 3.93171 -0.134284 0
M  V30 6810 H 624.585 4.91893 0.65239 0
M  V30 6811 N 623.758 0.647228 1.43697 0
M  V30 6812 C 624.705 -0.0480092 2.3075 0
M  V30 6813 C 625.675 -0.820705 1.44408 0
M  V30 6814 O 626.86 -0.798515 1.73287 0
M  V30 6815 C 624 -1.01259 3.2991 0
M  V30 6816 C 623.113 -0.236629 4.31351 0
M  V30 6817 C 622.248 -1.19447 5.17596 0
M  V30 6818 C 621.287 -0.408595 6.10735 0
M  V30 6819 N 620.424 -1.31772 6.89623 0
M  V30 6820 H 625.264 0.700238 2.89656 0
M  V30 6821 H 622.801 0.357082 1.427 0
M  V30 6822 H 624.759 -1.58538 3.85903 0
M  V30 6823 H 623.389 -1.72778 2.72667 0
M  V30 6824 H 622.441 0.452353 3.77701 0
M  V30 6825 H 623.753 0.374731 4.9739 0
M  V30 6826 H 622.907 -1.83809 5.78186 0
M  V30 6827 H 621.646 -1.83975 4.51669 0
M  V30 6828 H 620.651 0.24841 5.49239 0
M  V30 6829 H 621.876 0.232188 6.78703 0
M  V30 6830 H 619.822 -1.94991 6.2635 0
M  V30 6831 H 619.739 -0.760779 7.52162 0
M  V30 6832 H 621.007 -1.94967 7.54724 0
M  V30 6833 N 625.236 -1.5273 0.388769 0
M  V30 6834 C 626.461 -2.0647 -0.19621 0
M  V30 6835 C 626.886 -1.25865 -1.39784 0
M  V30 6836 O 626.244 -0.283562 -1.79069 0
M  V30 6837 C 626.292 -3.56456 -0.5451 0
M  V30 6838 O 625.396 -3.78426 -1.63912 0
M  V30 6839 H 624.737 -0.663599 -0.023067 0
M  V30 6840 H 627.267 -1.96898 0.556084 0
M  V30 6841 H 627.277 -3.99888 -0.809557 0
M  V30 6842 H 625.952 -4.14561 0.333417 0
M  V30 6843 H 624.529 -3.46884 -1.36842 0
M  V30 6844 N 626.714 -0.118576 -1.57153 0
M  V30 6845 C 628.125 0.40687 -1.82213 0
M  V30 6846 C 628.476 1.66636 -1.03571 0
M  V30 6847 O 627.601 2.14682 -0.272171 0
M  V30 6848 C 628.196 0.744949 -3.30509 0
M  V30 6849 C 626.755 1.21503 -3.5625 0
M  V30 6850 C 625.902 0.223511 -2.76398 0
M  V30 6851 H 628.853 -0.343712 -1.54933 0
M  V30 6852 H 628.874 1.6024 -3.45114 0
M  V30 6853 H 628.386 -0.171911 -3.87719 0
M  V30 6854 H 626.487 2.1488 -3.04396 0
M  V30 6855 H 626.6 1.16065 -4.64829 0
M  V30 6856 H 624.964 0.71046 -2.44591 0
M  V30 6857 H 625.747 -0.686439 -3.36367 0
M  V30 6858 N 628.193 1.56834 0.155195 0
M  V30 6859 C 629.418 1.87412 0.888337 0
M  V30 6860 C 629.843 0.70671 1.74319 0
M  V30 6861 O 629.201 -0.343892 1.78009 0
M  V30 6862 C 629.249 3.1652 1.72765 0
M  V30 6863 O 628.353 2.99877 2.83103 0
M  V30 6864 H 627.694 0.615983 0.247914 0
M  V30 6865 H 630.224 2.04061 0.148478 0
M  V30 6866 H 630.234 3.48334 2.12433 0
M  V30 6867 H 628.909 4.01094 1.09985 0
M  V30 6868 H 627.486 2.79453 2.46902 0
M  V30 6869 N 629.671 -0.424282 1.51781 0
M  V30 6870 C 630.948 -1.18464 1.55646 0
M  V30 6871 C 631.328 -2.08529 0.328438 0
M  V30 6872 O 630.676 -2.17969 -0.685693 0
M  V30 6873 C 630.886 -1.97514 2.87731 0
M  V30 6874 C 632.234 -2.54106 3.40169 0
M  V30 6875 O 633.258 -2.07711 2.89369 0
M  V30 6876 O 632.117 -3.38759 4.28841 0
M  V30 6877 H 629.211 -0.540055 0.626314 0
M  V30 6878 H 631.757 -0.432291 1.64102 0
M  V30 6879 H 630.529 -1.31444 3.68562 0
M  V30 6880 H 630.152 -2.79787 2.82498 0
M  V30 6881 N 631.149 -1.42148 -0.680565 0
M  V30 6882 C 632.081 -1.41119 -1.80605 0
M  V30 6883 C 633.094 -0.311099 -1.598 0
M  V30 6884 O 634.283 -0.573813 -1.69026 0
M  V30 6885 C 631.383 -1.18204 -3.17618 0
M  V30 6886 C 630.556 -2.40537 -3.65322 0
M  V30 6887 C 629.615 -2.13254 -4.8105 0
M  V30 6888 O 628.641 -2.8641 -4.91892 0
M  V30 6889 N 629.843 -1.13208 -5.69354 0
M  V30 6890 H 632.608 -2.38128 -1.81975 0
M  V30 6891 H 630.169 -1.36953 -0.863446 0
M  V30 6892 H 632.161 -0.97878 -3.92686 0
M  V30 6893 H 630.731 -0.29738 -3.11182 0
M  V30 6894 H 629.951 -2.76468 -2.80996 0
M  V30 6895 H 631.239 -3.22012 -3.93936 0
M  V30 6896 H 630.637 -0.526893 -5.63241 0
M  V30 6897 H 629.194 -0.988699 -6.44258 0
M  V30 6898 N 632.627 0.916307 -1.28225 0
M  V30 6899 C 633.557 2.0352 -1.14464 0
M  V30 6900 C 634.538 1.70045 -0.0430844 0
M  V30 6901 O 635.723 1.92954 -0.219619 0
M  V30 6902 C 632.853 3.37889 -0.803027 0
M  V30 6903 C 631.807 3.85516 -1.85908 0
M  V30 6904 C 631.133 5.1682 -1.37116 0
M  V30 6905 C 632.433 4.07655 -3.26519 0
M  V30 6906 H 634.127 2.1529 -2.08064 0
M  V30 6907 H 631.673 1.03446 -1.00174 0
M  V30 6908 H 633.626 4.15654 -0.693537 0
M  V30 6909 H 632.35 3.26164 0.168674 0
M  V30 6910 H 631.009 3.09953 -1.95767 0
M  V30 6911 H 630.657 5.01497 -0.38859 0
M  V30 6912 H 630.357 5.49657 -2.07728 0
M  V30 6913 H 631.881 5.97143 -1.27484 0
M  V30 6914 H 633.295 4.75953 -3.19596 0
M  V30 6915 H 631.692 4.51818 -3.94943 0
M  V30 6916 H 632.762 3.12553 -3.70727 0
M  V30 6917 N 634.105 1.10431 1.1244 0
M  V30 6918 C 635.516 0.864439 1.65482 0
M  V30 6919 C 635.867 -0.60527 1.8663 0
M  V30 6920 O 634.992 -1.46492 1.59276 0
M  V30 6921 C 635.587 1.56267 3.0061 0
M  V30 6922 C 634.146 1.3695 3.50602 0
M  V30 6923 C 633.293 1.61209 2.25626 0
M  V30 6924 H 636.244 1.26203 0.962209 0
M  V30 6925 H 636.265 1.00166 3.67079 0
M  V30 6926 H 635.777 2.63231 2.85186 0
M  V30 6927 H 633.878 0.321481 3.71211 0
M  V30 6928 H 633.991 2.11143 4.30064 0
M  V30 6929 H 632.355 1.03482 2.32731 0
M  V30 6930 H 633.138 2.69425 2.12756 0
M  V30 6931 N 635.583 -1.29855 0.893053 0
M  V30 6932 C 636.994 -1.77946 0.564998 0
M  V30 6933 C 637.345 -1.73339 -0.919134 0
M  V30 6934 O 636.47 -1.3152 -1.71847 0
M  V30 6935 C 637.065 -3.23118 1.01883 0
M  V30 6936 C 635.624 -3.69013 0.742051 0
M  V30 6937 C 634.771 -2.50121 1.19727 0
M  V30 6938 H 637.722 -1.16611 1.07646 0
M  V30 6939 H 637.743 -3.78875 0.351249 0
M  V30 6940 H 637.255 -3.26439 2.09903 0
M  V30 6941 H 635.356 -3.71173 -0.325816 0
M  V30 6942 H 635.469 -4.60117 1.33527 0
M  V30 6943 H 633.833 -2.47128 0.616418 0
M  V30 6944 H 634.616 -2.56174 2.28538 0
M  V30 6945 N 637.061 -0.65484 -1.43351 0
M  V30 6946 C 637.993 0.0744757 -2.29079 0
M  V30 6947 C 639.006 0.7855 -1.42596 0
M  V30 6948 O 640.195 0.642986 -1.66517 0
M  V30 6949 C 637.295 1.12859 -3.19556 0
M  V30 6950 C 636.468 0.495381 -4.34586 0
M  V30 6951 C 635.527 1.44659 -5.05925 0
M  V30 6952 O 634.553 0.954567 -5.61139 0
M  V30 6953 N 635.755 2.78051 -5.09576 0
M  V30 6954 H 638.52 -0.661346 -2.92312 0
M  V30 6955 H 636.081 -0.497744 -1.54059 0
M  V30 6956 H 638.073 1.76577 -3.64147 0
M  V30 6957 H 636.643 1.76636 -2.57912 0
M  V30 6958 H 635.863 -0.32092 -3.92892 0
M  V30 6959 H 637.151 0.0534203 -5.08772 0
M  V30 6960 H 636.549 3.20584 -4.66093 0
M  V30 6961 H 635.106 3.37068 -5.57878 0
M  V30 6962 N 638.539 1.52521 -0.396863 0
M  V30 6963 C 639.471 2.24333 0.469814 0
M  V30 6964 C 640.484 1.2685 1.02043 0
M  V30 6965 O 641.673 1.52876 0.92147 0
M  V30 6966 C 638.773 2.95202 1.66461 0
M  V30 6967 C 637.946 4.19454 1.24003 0
M  V30 6968 C 637.005 4.73255 2.30036 0
M  V30 6969 O 636.031 5.36151 1.91131 0
M  V30 6970 N 637.233 4.53765 3.62047 0
M  V30 6971 H 639.998 2.99347 -0.145468 0
M  V30 6972 H 637.559 1.60348 -0.223606 0
M  V30 6973 H 639.551 3.28092 2.36934 0
M  V30 6974 H 638.121 2.2345 2.18607 0
M  V30 6975 H 637.341 3.92517 0.363892 0
M  V30 6976 H 638.629 5.0017 0.933135 0
M  V30 6977 H 638.027 4.03576 3.96412 0
M  V30 6978 H 636.584 4.91124 4.28533 0
M  V30 6979 N 640.017 0.126909 1.57088 0
M  V30 6980 C 641.428 -0.397201 1.82426 0
M  V30 6981 C 641.779 -1.66084 1.04453 0
M  V30 6982 O 640.904 -2.14534 0.283552 0
M  V30 6983 C 641.499 -0.727411 3.30899 0
M  V30 6984 C 640.058 -1.19612 3.56889 0
M  V30 6985 C 639.205 -0.20885 2.76512 0
M  V30 6986 H 642.156 0.351924 1.54749 0
M  V30 6987 H 642.177 -1.58407 3.45959 0
M  V30 6988 H 641.689 0.19247 3.87622 0
M  V30 6989 H 639.79 -2.13263 3.05532 0
M  V30 6990 H 639.903 -1.13598 4.65438 0
M  V30 6991 H 638.267 -0.697479 2.44964 0
M  V30 6992 H 639.05 0.704267 3.35998 0
M  V30 6993 N 641.495 -1.56914 -0.146875 0
M  V30 6994 C 642.425 -2.01308 -1.1831 0
M  V30 6995 C 643.406 -0.892664 -1.44795 0
M  V30 6996 O 644.591 -1.16048 -1.55713 0
M  V30 6997 C 641.721 -2.3938 -2.51624 0
M  V30 6998 C 640.675 -3.54608 -2.3966 0
M  V30 6999 C 640.001 -3.78493 -3.77686 0
M  V30 7000 C 641.301 -4.87269 -1.88058 0
M  V30 7001 H 642.995 -2.88123 -0.813964 0
M  V30 7002 H 640.541 -1.38615 -0.3901 0
M  V30 7003 H 642.494 -2.69037 -3.24341 0
M  V30 7004 H 641.218 -1.49502 -2.90373 0
M  V30 7005 H 639.877 -3.25116 -1.69396 0
M  V30 7006 H 639.525 -2.85866 -4.13871 0
M  V30 7007 H 639.225 -4.56039 -3.70543 0
M  V30 7008 H 640.749 -4.10576 -4.51951 0
M  V30 7009 H 642.163 -5.15644 -2.50568 0
M  V30 7010 H 640.56 -5.68622 -1.91805 0
M  V30 7011 H 641.63 -4.77634 -0.836277 0
M  V30 7012 N 642.974 0.416227 -1.52004 0
M  V30 7013 C 643.884 1.53147 -1.77717 0
M  V30 7014 C 644.9 1.609 -0.662368 0
M  V30 7015 O 646.076 1.77747 -0.946991 0
M  V30 7016 C 643.141 2.88948 -1.91598 0
M  V30 7017 C 642.202 2.9114 -3.15493 0
M  V30 7018 C 641.435 4.20464 -3.28703 0
M  V30 7019 O 641.658 5.13981 -2.47345 0
M  V30 7020 O 640.592 4.29368 -4.21813 0
M  V30 7021 H 644.418 1.34357 -2.72363 0
M  V30 7022 H 642.003 0.601373 -1.36762 0
M  V30 7023 H 643.885 3.69505 -2.02593 0
M  V30 7024 H 642.56 3.07821 -1.00141 0
M  V30 7025 H 641.467 2.09461 -3.09962 0
M  V30 7026 H 642.8 2.77216 -4.06709 0
M  V30 7027 N 644.452 1.42507 0.673017 0
M  V30 7028 C 645.415 1.4582 1.76831 0
M  V30 7029 C 646.415 0.345542 1.57043 0
M  V30 7030 O 647.605 0.606447 1.63303 0
M  V30 7031 C 644.737 1.29158 3.15485 0
M  V30 7032 H 645.93 2.43345 1.7528 0
M  V30 7033 H 643.483 1.28981 0.882817 0
M  V30 7034 H 644.218 0.325626 3.22661 0
M  V30 7035 H 644.003 2.09797 3.31252 0
M  V30 7036 H 645.493 1.34363 3.95394 0
M  V30 7037 N 645.93 -0.909495 1.28709 0
M  V30 7038 C 646.84 -2.04558 1.14861 0
M  V30 7039 C 647.856 -1.73842 0.0741621 0
M  V30 7040 O 649.032 -1.99383 0.2843 0
M  V30 7041 C 646.097 -3.36957 0.816148 0
M  V30 7042 C 645.158 -3.81255 1.97341 0
M  V30 7043 C 644.391 -5.07335 1.65671 0
M  V30 7044 O 644.614 -5.67514 0.573053 0
M  V30 7045 O 643.548 -5.47449 2.50167 0
M  V30 7046 H 647.374 -2.19161 2.10243 0
M  V30 7047 H 644.959 -1.03159 1.08068 0
M  V30 7048 H 646.841 -4.16436 0.644873 0
M  V30 7049 H 645.516 -3.2352 -0.107983 0
M  V30 7050 H 644.423 -3.02584 2.19986 0
M  V30 7051 H 645.756 -3.99261 2.87839 0
M  V30 7052 N 647.408 -1.11026 -1.11852 0
M  V30 7053 C 648.355 -0.764662 -2.17765 0
M  V30 7054 C 649.325 0.261854 -1.64023 0
M  V30 7055 O 650.51 0.139748 -1.90288 0
M  V30 7056 C 647.65 -0.209317 -3.44465 0
M  V30 7057 C 646.763 -1.29187 -4.12231 0
M  V30 7058 C 645.898 -0.697523 -5.266 0
M  V30 7059 C 644.937 -1.76023 -5.86244 0
M  V30 7060 N 644.074 -1.18569 -6.92016 0
M  V30 7061 H 648.914 -1.67202 -2.46673 0
M  V30 7062 H 646.451 -0.835065 -1.21099 0
M  V30 7063 H 648.409 0.130599 -4.16996 0
M  V30 7064 H 647.039 0.661251 -3.15955 0
M  V30 7065 H 646.091 -1.74881 -3.37818 0
M  V30 7066 H 647.403 -2.09607 -4.52622 0
M  V30 7067 H 646.557 -0.307412 -6.05921 0
M  V30 7068 H 645.296 0.138044 -4.87505 0
M  V30 7069 H 644.301 -2.1597 -5.05606 0
M  V30 7070 H 645.526 -2.59875 -6.27409 0
M  V30 7071 H 643.472 -0.371695 -6.54946 0
M  V30 7072 H 643.389 -1.92666 -7.31038 0
M  V30 7073 H 644.657 -0.82233 -7.7515 0
M  V30 7074 N 648.886 1.2938 -0.899927 0
M  V30 7075 C 649.849 2.25983 -0.382677 0
M  V30 7076 C 650.849 1.53366 0.483259 0
M  V30 7077 O 652.039 1.71798 0.28828 0
M  V30 7078 C 649.171 3.37878 0.452915 0
M  V30 7079 H 650.364 2.73252 -1.23586 0
M  V30 7080 H 647.917 1.40825 -0.678088 0
M  V30 7081 H 648.652 2.95949 1.32608 0
M  V30 7082 H 648.437 3.91742 -0.167562 0
M  V30 7083 H 649.927 4.09746 0.806107 0
M  V30 7084 N 650.364 0.662433 1.43002 0
M  V30 7085 C 651.589 0.186003 2.06564 0
M  V30 7086 C 652.014 -1.14314 1.49379 0
M  V30 7087 O 651.372 -1.70824 0.607346 0
M  V30 7088 C 651.42 0.118269 3.60406 0
M  V30 7089 O 650.524 -0.916859 4.02079 0
M  V30 7090 H 649.865 0.0990981 0.656563 0
M  V30 7091 H 652.395 0.907958 1.8335 0
M  V30 7092 H 652.405 -0.0619981 4.07953 0
M  V30 7093 H 651.08 1.08849 4.01403 0
M  V30 7094 H 649.657 -0.708635 3.66105 0
M  V30 7095 N 651.842 -1.52309 0.404946 0
M  V30 7096 C 653.253 -1.86585 -0.0655926 0
M  V30 7097 C 653.604 -1.3239 -1.44801 0
M  V30 7098 O 652.729 -0.6615 -2.06042 0
M  V30 7099 C 653.324 -3.38566 -0.125801 0
M  V30 7100 C 651.883 -3.72497 -0.540666 0
M  V30 7101 C 651.03 -2.75806 0.287487 0
M  V30 7102 H 653.981 -1.45995 0.622185 0
M  V30 7103 H 654.002 -3.68658 -0.941888 0
M  V30 7104 H 653.514 -3.77981 0.880473 0
M  V30 7105 H 651.615 -3.38659 -1.55373 0
M  V30 7106 H 651.728 -4.78234 -0.287956 0
M  V30 7107 H 650.092 -2.53474 -0.249561 0
M  V30 7108 H 650.875 -3.18059 1.29203 0
M  V30 7109 N 653.32 -0.135238 -1.57019 0
M  V30 7110 C 654.27 0.820408 -2.12728 0
M  V30 7111 C 655.254 1.21735 -1.05211 0
M  V30 7112 O 656.446 1.18574 -1.31413 0
M  V30 7113 C 653.575 2.06414 -2.74314 0
M  V30 7114 C 652.661 1.69083 -3.88937 0
M  V30 7115 N 653.052 1.0251 -4.95303 0
M  V30 7116 C 651.35 1.98434 -3.99425 0
M  V30 7117 C 652.051 0.846749 -5.75504 0
M  V30 7118 N 651.027 1.3769 -5.25873 0
M  V30 7119 H 654.829 0.302426 -2.9234 0
M  V30 7120 H 652.343 0.0667009 -1.62263 0
M  V30 7121 H 654.34 2.75863 -3.12579 0
M  V30 7122 H 653 2.58741 -1.96171 0
M  V30 7123 H 654.011 0.687207 -5.1332 0
M  V30 7124 H 650.688 2.52693 -3.32344 0
M  V30 7125 H 652.078 0.322949 -6.71123 0
M  V30 7126 N 654.798 1.5699 0.138552 0
M  V30 7127 C 656.209 1.73171 0.697754 0
M  V30 7128 C 656.56 0.750952 1.8126 0
M  V30 7129 O 655.685 -0.080549 2.1625 0
M  V30 7130 C 656.28 3.13996 1.27248 0
M  V30 7131 C 654.839 3.3175 1.77816 0
M  V30 7132 C 653.986 2.69084 0.669991 0
M  V30 7133 H 656.937 1.5846 -0.0871979 0
M  V30 7134 H 656.958 3.14463 2.14227 0
M  V30 7135 H 656.47 3.85354 0.460855 0
M  V30 7136 H 654.571 2.65403 2.61519 0
M  V30 7137 H 654.684 4.39768 1.90107 0
M  V30 7138 H 653.048 2.29782 1.09874 0
M  V30 7139 H 653.831 3.43053 -0.130329 0
M  V30 7140 N 656.276 -0.40816 1.52223 0
M  V30 7141 C 657.501 -1.18127 1.70472 0
M  V30 7142 C 657.926 -1.83491 0.41384 0
M  V30 7143 O 657.284 -1.70047 -0.628778 0
M  V30 7144 C 657.332 -2.21935 2.84213 0
M  V30 7145 O 656.436 -3.28099 2.4985 0
M  V30 7146 H 655.777 -0.344781 0.56747 0
M  V30 7147 H 658.307 -0.478328 1.9893 0
M  V30 7148 H 658.317 -2.66248 3.09153 0
M  V30 7149 H 656.992 -1.73744 3.7787 0
M  V30 7150 H 655.569 -2.89058 2.35584 0
M  V30 7151 N 657.755 -1.42862 -0.66545 0
M  V30 7152 C 659.166 -1.3901 -1.24632 0
M  V30 7153 C 659.517 -0.0880285 -1.96002 0
M  V30 7154 O 658.642 0.812947 -2.0055 0
M  V30 7155 C 659.237 -2.51806 -2.2667 0
M  V30 7156 C 657.796 -2.51257 -2.80262 0
M  V30 7157 C 656.943 -2.30124 -1.5472 0
M  V30 7158 H 659.894 -1.5194 -0.458237 0
M  V30 7159 H 659.915 -2.22593 -3.08598 0
M  V30 7160 H 659.427 -3.46558 -1.74697 0
M  V30 7161 H 657.528 -1.60349 -3.36332 0
M  V30 7162 H 657.641 -3.48614 -3.28641 0
M  V30 7163 H 656.005 -1.7856 -1.81627 0
M  V30 7164 H 656.788 -3.26945 -1.04699 0
M  V30 7165 N 659.233 0.902656 -1.29189 0
M  V30 7166 C 660.481 1.6496 -1.16758 0
M  V30 7167 C 660.802 1.92952 0.28188 0
M  V30 7168 O 660.072 1.55351 1.19344 0
M  V30 7169 H 658.652 0.611447 -0.429118 0
M  V30 7170 H 661.314 1.0825 -1.62074 0
M  V30 7171 H 660.41 2.60728 -1.71544 0
M  V30 7172 N 660.711 1.11618 1.11262 0
M  V30 7173 C 662.122 0.881942 1.64556 0
M  V30 7174 C 662.473 -0.585442 1.87262 0
M  V30 7175 O 661.598 -1.44795 1.60821 0
M  V30 7176 C 662.193 1.59446 2.98935 0
M  V30 7177 C 660.752 1.40661 3.4913 0
M  V30 7178 C 659.899 1.63593 2.23903 0
M  V30 7179 H 662.85 1.27217 0.94877 0
M  V30 7180 H 662.871 1.04054 3.65996 0
M  V30 7181 H 662.383 2.66241 2.82378 0
M  V30 7182 H 660.484 0.360835 3.70849 0
M  V30 7183 H 660.597 2.15693 4.27801 0
M  V30 7184 H 658.961 1.05944 2.3162 0
M  V30 7185 H 659.744 2.71666 2.09886 0
M  V30 7186 N 662.189 -1.289 0.906776 0
M  V30 7187 C 663.429 -1.97046 0.543329 0
M  V30 7188 C 663.793 -1.69862 -0.895034 0
M  V30 7189 O 664.994 -2.31521 -1.36571 0
M  V30 7190 C 663.265 -3.47489 0.835833 0
M  V30 7191 S 664.824 -4.3498 0.577756 0
M  V30 7192 H 661.642 -0.681908 0.201302 0
M  V30 7193 H 664.244 -1.5657 1.17073 0
M  V30 7194 H 662.948 -3.64768 1.88075 0
M  V30 7195 H 662.479 -3.92907 0.196817 0
M  V30 7196 H 664.494 -4.92868 -0.574052 0
M  V30 7197 N 663.667 -0.670007 -1.42649 0
M  V30 7198 C 665.083 -0.33911 -1.55956 0
M  V30 7199 C 665.283 1.1558 -1.65056 0
M  V30 7200 O 664.339 1.94111 -1.61485 0
M  V30 7201 C 665.652 -1.06522 -2.812 0
M  V30 7202 C 667.2 -1.04708 -2.94966 0
M  V30 7203 C 667.675 -1.75442 -4.23065 0
M  V30 7204 N 669.166 -1.72286 -4.29967 0
M  V30 7205 C 669.901 -2.23877 -5.27889 0
M  V30 7206 N 669.397 -2.83829 -6.31991 0
M  V30 7207 N 671.19 -2.14279 -5.19654 0
M  V30 7208 H 663.341 -1.6399 -1.34986 0
M  V30 7209 H 665.604 -0.690603 -0.649439 0
M  V30 7210 H 665.31 -2.12033 -2.80597 0
M  V30 7211 H 665.184 -0.627398 -3.71946 0
M  V30 7212 H 667.571 -0.000315966 -2.951 0
M  V30 7213 H 667.652 -1.52374 -2.05465 0
M  V30 7214 H 667.296 -2.80084 -4.23693 0
M  V30 7215 H 667.226 -1.25229 -5.11493 0
M  V30 7216 H 669.717 -1.28554 -3.55362 0
M  V30 7217 H 670.03 -3.20827 -7.03057 0
M  V30 7218 H 668.375 -2.87896 -6.32567 0
M  V30 7219 H 671.566 -1.67135 -4.37245 0
M  V30 7220 H 671.739 -2.54792 -5.95806 0
M  V30 7221 N 665.145 1.52092 -0.413018 0
M  V30 7222 C 666.556 1.86617 0.0556967 0
M  V30 7223 C 666.907 1.33156 1.44097 0
M  V30 7224 O 666.032 0.672417 2.05688 0
M  V30 7225 C 666.627 3.38628 0.107844 0
M  V30 7226 C 665.186 3.72778 0.520904 0
M  V30 7227 C 664.333 2.75649 -0.302109 0
M  V30 7228 H 667.284 1.45663 -0.629919 0
M  V30 7229 H 667.305 3.69152 0.922324 0
M  V30 7230 H 666.817 3.77508 -0.900506 0
M  V30 7231 H 664.918 3.39478 1.53575 0
M  V30 7232 H 665.031 4.7838 0.262591 0
M  V30 7233 H 663.395 2.53603 0.236115 0
M  V30 7234 H 664.178 3.17369 -1.30888 0
M  V30 7235 N 666.623 0.143563 1.56945 0
M  V30 7236 C 668.034 -0.37783 1.82837 0
M  V30 7237 C 668.385 -1.64967 1.06209 0
M  V30 7238 O 667.51 -2.14221 0.306291 0
M  V30 7239 C 668.105 -0.692274 3.31652 0
M  V30 7240 C 666.664 -1.1582 3.58138 0
M  V30 7241 C 665.811 -0.17951 2.76718 0
M  V30 7242 H 668.762 0.368317 1.54367 0
M  V30 7243 H 668.783 -1.54729 3.47619 0
M  V30 7244 H 668.295 0.233572 3.87397 0
M  V30 7245 H 666.396 -2.10011 3.07776 0
M  V30 7246 H 666.509 -1.08655 4.66616 0
M  V30 7247 H 664.873 -0.671458 2.4569 0
M  V30 7248 H 665.656 0.739865 3.35233 0
M  V30 7249 N 668.101 -1.57061 -0.130224 0
M  V30 7250 C 669.051 -1.95941 -1.16582 0
M  V30 7251 C 670.035 -0.832858 -1.37667 0
M  V30 7252 O 671.227 -1.09647 -1.38948 0
M  V30 7253 C 668.356 -2.35777 -2.49528 0
M  V30 7254 C 667.442 -3.5504 -2.31964 0
M  V30 7255 N 667.833 -4.71071 -1.84189 0
M  V30 7256 C 666.131 -3.60453 -2.62659 0
M  V30 7257 C 666.832 -5.53128 -1.80068 0
M  V30 7258 N 665.808 -4.95303 -2.24001 0
M  V30 7259 H 669.61 -2.83117 -0.788806 0
M  V30 7260 H 667.124 -1.58842 -0.3381 0
M  V30 7261 H 669.121 -2.61843 -3.24413 0
M  V30 7262 H 667.781 -1.49961 -2.87996 0
M  V30 7263 H 668.792 -4.94504 -1.53903 0
M  V30 7264 H 665.469 -2.85217 -3.0489 0
M  V30 7265 H 666.859 -6.56182 -1.4448 0
M  V30 7266 N 669.579 0.400081 -1.52437 0
M  V30 7267 C 670.827 1.14392 -1.6661 0
M  V30 7268 C 671.148 1.90792 -0.402927 0
M  V30 7269 O 670.418 1.87042 0.582425 0
M  V30 7270 H 668.998 0.425275 -0.614125 0
M  V30 7271 H 671.66 0.455076 -1.89513 0
M  V30 7272 H 670.756 1.85298 -2.51139 0
M  V30 7273 N 671.057 1.43213 0.657864 0
M  V30 7274 C 672.285 1.48015 1.44566 0
M  V30 7275 C 672.7 0.0965951 1.88553 0
M  V30 7276 O 672.057 -0.892221 1.59203 0
M  V30 7277 C 672.108 2.42199 2.68369 0
M  V30 7278 O 671.829 3.75173 2.26223 0
M  V30 7279 C 673.33 2.56195 3.61772 0
M  V30 7280 H 670.55 0.502861 0.444266 0
M  V30 7281 H 673.094 1.87907 0.806917 0
M  V30 7282 H 671.249 2.05514 3.28394 0
M  V30 7283 H 671.663 4.25776 3.06293 0
M  V30 7284 H 673.137 3.26182 4.4532 0
M  V30 7285 H 673.614 1.60534 4.0881 0
M  V30 7286 H 674.22 2.93671 3.07632 0
M  V30 7287 N 672.536 -0.895792 1.29666 0
M  V30 7288 C 673.468 -2.00563 1.10937 0
M  V30 7289 C 674.481 -1.62705 0.055734 0
M  V30 7290 O 675.67 -1.7595 0.300656 0
M  V30 7291 C 672.77 -3.32262 0.667448 0
M  V30 7292 C 671.943 -3.98625 1.80047 0
M  V30 7293 C 671.002 -5.08617 1.3489 0
M  V30 7294 O 670.028 -5.30837 2.05429 0
M  V30 7295 N 671.23 -5.80076 0.221937 0
M  V30 7296 H 673.995 -2.17184 2.06522 0
M  V30 7297 H 671.556 -1.06822 1.21658 0
M  V30 7298 H 673.548 -4.03196 0.348586 0
M  V30 7299 H 672.118 -3.11985 -0.196055 0
M  V30 7300 H 671.338 -3.21005 2.28801 0
M  V30 7301 H 672.626 -4.39704 2.56003 0
M  V30 7302 H 672.024 -5.64514 -0.366084 0
M  V30 7303 H 670.581 -6.51789 -0.0375346 0
M  V30 7304 N 674.014 -1.12206 -1.10668 0
M  V30 7305 C 674.977 -0.790867 -2.15123 0
M  V30 7306 C 675.977 0.193618 -1.5963 0
M  V30 7307 O 677.167 -0.0318728 -1.74171 0
M  V30 7308 C 674.299 -0.174797 -3.40452 0
M  V30 7309 H 675.492 -1.7163 -2.45933 0
M  V30 7310 H 673.045 -0.924993 -1.2599 0
M  V30 7311 H 673.78 0.760478 -3.15257 0
M  V30 7312 H 673.565 -0.88358 -3.82015 0
M  V30 7313 H 675.055 0.0405162 -4.1758 0
M  V30 7314 N 675.492 1.28418 -0.913599 0
M  V30 7315 C 676.903 1.77024 -0.593237 0
M  V30 7316 C 677.254 1.74779 0.891441 0
M  V30 7317 O 676.379 1.34237 1.69733 0
M  V30 7318 C 676.974 3.21456 -1.07011 0
M  V30 7319 C 675.533 3.67786 -0.800664 0
M  V30 7320 C 674.68 2.48185 -1.23691 0
M  V30 7321 H 677.631 1.14883 -1.09487 0
M  V30 7322 H 677.652 3.78269 -0.411481 0
M  V30 7323 H 677.164 3.23058 -2.1507 0
M  V30 7324 H 675.265 3.71644 0.266725 0
M  V30 7325 H 675.378 4.57934 -1.4083 0
M  V30 7326 H 673.742 2.46116 -0.655655 0
M  V30 7327 H 674.525 2.52506 -2.32585 0
M  V30 7328 N 676.97 0.677563 1.42291 0
M  V30 7329 C 678.218 0.200578 2.01102 0
M  V30 7330 C 678.539 -1.19803 1.53858 0
M  V30 7331 O 677.809 -1.80496 0.761439 0
M  V30 7332 H 676.389 0.0711634 0.743603 0
M  V30 7333 H 679.051 0.874691 1.7417 0
M  V30 7334 H 678.147 0.204 3.11433 0
M  V30 7335 N 678.448 -1.51871 0.421078 0
M  V30 7336 C 679.378 -2.30231 -0.389363 0
M  V30 7337 C 680.359 -1.34946 -1.03555 0
M  V30 7338 O 681.544 -1.63859 -1.04229 0
M  V30 7339 C 678.674 -3.13247 -1.49979 0
M  V30 7340 C 677.628 -4.16677 -0.977966 0
M  V30 7341 C 676.954 -4.88112 -2.1829 0
M  V30 7342 C 678.254 -5.22295 -0.0236775 0
M  V30 7343 H 679.948 -2.98229 0.264524 0
M  V30 7344 H 677.494 -1.43424 0.12866 0
M  V30 7345 H 679.447 -3.66838 -2.07383 0
M  V30 7346 H 678.171 -2.4304 -2.18173 0
M  V30 7347 H 676.83 -3.64114 -0.426245 0
M  V30 7348 H 676.478 -4.14423 -2.85066 0
M  V30 7349 H 676.178 -5.58041 -1.84021 0
M  V30 7350 H 677.702 -5.44521 -2.76278 0
M  V30 7351 H 679.116 -5.71055 -0.506899 0
M  V30 7352 H 677.513 -5.99656 0.230782 0
M  V30 7353 H 678.583 -4.76131 0.917999 0
M  V30 7354 N 679.926 -0.151884 -1.56866 0
M  V30 7355 C 680.889 0.771861 -2.15812 0
M  V30 7356 C 681.889 1.17181 -1.10115 0
M  V30 7357 O 683.079 1.09194 -1.35729 0
M  V30 7358 C 680.211 2.04806 -2.7252 0
M  V30 7359 H 681.404 0.259021 -2.98779 0
M  V30 7360 H 678.957 0.097588 -1.55995 0
M  V30 7361 H 679.692 2.60445 -1.93233 0
M  V30 7362 H 679.477 1.77044 -3.49854 0
M  V30 7363 H 680.967 2.70771 -3.1792 0
M  V30 7364 N 681.404 1.57128 0.121893 0
M  V30 7365 C 682.351 2.0013 1.14964 0
M  V30 7366 C 683.321 0.872959 1.4131 0
M  V30 7367 O 684.506 1.13696 1.53225 0
M  V30 7368 C 681.646 2.40824 2.4718 0
M  V30 7369 C 680.759 3.67061 2.27794 0
M  V30 7370 C 679.894 3.96749 3.53219 0
M  V30 7371 C 678.933 5.16178 3.28978 0
M  V30 7372 N 678.07 5.41751 4.46599 0
M  V30 7373 H 682.91 2.8772 0.775947 0
M  V30 7374 H 680.447 1.42328 0.371652 0
M  V30 7375 H 682.405 2.62454 3.24305 0
M  V30 7376 H 681.035 1.56279 2.82448 0
M  V30 7377 H 680.087 3.53063 1.416 0
M  V30 7378 H 681.399 4.5434 2.05857 0
M  V30 7379 H 680.553 4.19012 4.38764 0
M  V30 7380 H 679.292 3.07941 3.78185 0
M  V30 7381 H 678.297 4.93762 2.41824 0
M  V30 7382 H 679.522 6.06561 3.05386 0
M  V30 7383 H 677.468 4.55899 4.71691 0
M  V30 7384 H 677.385 6.23347 4.27756 0
M  V30 7385 H 678.653 5.68531 5.33285 0
M  V30 7386 N 682.882 -0.391992 1.52647 0
M  V30 7387 C 683.845 -1.46135 1.7657 0
M  V30 7388 C 684.845 -1.47701 0.635698 0
M  V30 7389 O 686.035 -1.48924 0.903728 0
M  V30 7390 C 683.167 -2.85443 1.86374 0
M  V30 7391 H 684.36 -1.26208 2.72051 0
M  V30 7392 H 681.913 -0.623549 1.43323 0
M  V30 7393 H 682.648 -3.10718 0.928685 0
M  V30 7394 H 682.433 -2.85708 2.68539 0
M  V30 7395 H 683.923 -3.62933 2.06566 0
M  V30 7396 N 684.36 -1.4356 -0.65026 0
M  V30 7397 C 685.776 -1.27025 -0.966269 0
M  V30 7398 C 685.976 -0.192117 -2.00582 0
M  V30 7399 O 685.032 0.428459 -2.48838 0
M  V30 7400 C 686.345 -2.63556 -1.44772 0
M  V30 7401 C 687.893 -2.71111 -1.56421 0
M  V30 7402 C 688.368 -4.08067 -2.07956 0
M  V30 7403 N 689.859 -4.10146 -2.15254 0
M  V30 7404 C 690.594 -5.12952 -2.56258 0
M  V30 7405 N 690.09 -6.26129 -2.96537 0
M  V30 7406 N 691.883 -5.00306 -2.56224 0
M  V30 7407 H 684.034 -2.12367 0.0375758 0
M  V30 7408 H 686.297 -0.946894 -0.0457782 0
M  V30 7409 H 686.003 -3.43429 -0.758271 0
M  V30 7410 H 685.877 -2.89152 -2.42221 0
M  V30 7411 H 688.264 -1.91569 -2.24467 0
M  V30 7412 H 688.345 -2.49277 -0.573967 0
M  V30 7413 H 687.989 -4.88077 -1.40511 0
M  V30 7414 H 687.919 -4.27266 -3.07817 0
M  V30 7415 H 690.41 -3.28453 -1.86887 0
M  V30 7416 H 690.723 -7.00403 -3.26582 0
M  V30 7417 H 689.068 -6.29597 -2.94334 0
M  V30 7418 H 692.259 -4.10952 -2.24135 0
M  V30 7419 H 692.432 -5.80553 -2.87857 0
M  V30 7420 N 685.838 0.888903 -1.30139 0
M  V30 7421 C 687.063 1.67884 -1.21777 0
M  V30 7422 C 687.488 1.86848 0.216689 0
M  V30 7423 O 686.846 1.39659 1.15608 0
M  V30 7424 C 686.894 3.03483 -1.94757 0
M  V30 7425 O 685.998 3.92294 -1.27198 0
M  V30 7426 H 685.339 0.513144 -0.421402 0
M  V30 7427 H 687.869 1.10968 -1.71893 0
M  V30 7428 H 687.879 3.53553 -2.03627 0
M  V30 7429 H 686.554 2.89 -2.99085 0
M  V30 7430 H 685.131 3.50732 -1.26655 0
M  V30 7431 N 687.317 1.12792 1.10072 0
M  V30 7432 C 688.247 0.821688 2.18565 0
M  V30 7433 C 689.228 -0.21612 1.68721 0
M  V30 7434 O 690.413 -0.0764932 1.94049 0
M  V30 7435 C 687.543 0.279624 3.46172 0
M  V30 7436 C 686.497 1.25092 4.09312 0
M  V30 7437 C 685.823 0.568916 5.31665 0
M  V30 7438 C 687.123 2.60699 4.52585 0
M  V30 7439 H 688.817 1.72888 2.44438 0
M  V30 7440 H 686.363 0.832702 1.17482 0
M  V30 7441 H 688.316 0.053099 4.21367 0
M  V30 7442 H 687.04 -0.662929 3.19801 0
M  V30 7443 H 685.699 1.46332 3.36129 0
M  V30 7444 H 685.347 -0.378898 5.01571 0
M  V30 7445 H 685.047 1.21687 5.74862 0
M  V30 7446 H 686.571 0.351517 6.09587 0
M  V30 7447 H 687.985 2.43465 5.19035 0
M  V30 7448 H 686.382 3.21608 5.06644 0
M  V30 7449 H 687.452 3.1886 3.65317 0
M  V30 7450 N 688.795 -1.27931 0.920396 0
M  V30 7451 C 690.02 -1.99343 0.572478 0
M  V30 7452 C 690.445 -1.68267 -0.840696 0
M  V30 7453 O 689.803 -0.918805 -1.56294 0
M  V30 7454 C 689.851 -3.51698 0.796284 0
M  V30 7455 O 688.955 -4.12157 -0.141602 0
M  V30 7456 H 688.296 -0.626065 0.221221 0
M  V30 7457 H 690.826 -1.62921 1.23765 0
M  V30 7458 H 690.836 -4.01793 0.708984 0
M  V30 7459 H 689.511 -3.73649 1.82644 0
M  V30 7460 H 688.088 -3.729 -0.005007 0
M  V30 7461 N 690.273 -0.685099 -1.4193 0
M  V30 7462 C 691.519 -0.211971 -2.01689 0
M  V30 7463 C 691.852 1.18189 -1.54094 0
M  V30 7464 O 691.127 1.79559 -0.747572 0
M  V30 7465 C 691.41 -0.258019 -3.59174 0
M  V30 7466 C 691.263 -1.68807 -4.16922 0
M  V30 7467 C 692.582 0.388044 -4.38386 0
M  V30 7468 H 689.701 -0.0784987 -0.732808 0
M  V30 7469 H 692.343 -0.871837 -1.68816 0
M  V30 7470 H 690.493 0.303832 -3.8731 0
M  V30 7471 H 692.165 -2.30296 -3.99702 0
M  V30 7472 H 690.408 -2.22553 -3.72361 0
M  V30 7473 H 691.079 -1.6719 -5.26072 0
M  V30 7474 H 693.555 -0.0903432 -4.16002 0
M  V30 7475 H 692.431 0.325232 -5.47936 0
M  V30 7476 H 692.692 1.4672 -4.17044 0
M  V30 7477 N 691.751 1.51645 -0.429126 0
M  V30 7478 C 692.683 2.25279 0.422124 0
M  V30 7479 C 693.696 1.28986 0.993299 0
M  V30 7480 O 694.885 1.54797 0.888836 0
M  V30 7481 C 691.985 2.98666 1.60162 0
M  V30 7482 C 691.158 4.2199 1.15078 0
M  V30 7483 C 690.217 4.78028 2.19946 0
M  V30 7484 O 689.243 5.40084 1.79716 0
M  V30 7485 N 690.445 4.61342 3.5234 0
M  V30 7486 H 693.21 2.98971 -0.208931 0
M  V30 7487 H 690.771 1.59838 -0.257568 0
M  V30 7488 H 692.763 3.33044 2.29922 0
M  V30 7489 H 691.333 2.28036 2.13818 0
M  V30 7490 H 690.553 3.932 0.280552 0
M  V30 7491 H 691.841 5.02037 0.826831 0
M  V30 7492 H 691.239 4.11894 3.87763 0
M  V30 7493 H 689.796 5.00104 4.18019 0
M  V30 7494 N 693.229 0.160201 1.56784 0
M  V30 7495 C 694.179 -0.786461 2.14007 0
M  V30 7496 C 695.163 -1.20046 1.07134 0
M  V30 7497 O 696.355 -1.16468 1.33283 0
M  V30 7498 C 693.484 -2.02024 2.77563 0
M  V30 7499 C 692.57 -1.62874 3.91578 0
M  V30 7500 N 692.961 -0.946176 4.96871 0
M  V30 7501 C 691.259 -1.92054 4.02531 0
M  V30 7502 C 691.96 -0.755084 5.76778 0
M  V30 7503 N 690.936 -1.29307 5.27997 0
M  V30 7504 H 694.738 -0.255879 2.92784 0
M  V30 7505 H 692.252 -0.0408778 1.62349 0
M  V30 7506 H 694.249 -2.70855 3.16928 0
M  V30 7507 H 692.909 -2.55587 2.00263 0
M  V30 7508 H 693.92 -0.605455 5.14349 0
M  V30 7509 H 690.597 -2.47374 3.36322 0
M  V30 7510 H 691.987 -0.216138 6.71552 0
M  V30 7511 N 694.707 -1.5719 -0.113559 0
M  V30 7512 C 695.64 -1.9595 -1.16957 0
M  V30 7513 C 696.618 -0.829951 -1.39823 0
M  V30 7514 O 697.802 -1.08861 -1.53888 0
M  V30 7515 C 694.929 -2.2604 -2.52237 0
M  V30 7516 C 693.975 -3.48571 -2.45765 0
M  V30 7517 S 694.808 -5.00962 -1.89203 0
M  V30 7518 C 695.964 -5.3421 -3.26145 0
M  V30 7519 H 696.197 -2.85214 -0.839069 0
M  V30 7520 H 693.73 -1.51036 -0.320529 0
M  V30 7521 H 695.688 -2.44054 -3.30073 0
M  V30 7522 H 694.349 -1.3738 -2.82463 0
M  V30 7523 H 693.542 -3.67008 -3.45429 0
M  V30 7524 H 693.144 -3.29972 -1.76053 0
M  V30 7525 H 695.436 -5.29725 -4.22371 0
M  V30 7526 H 696.379 -6.35398 -3.12529 0
M  V30 7527 H 696.787 -4.61681 -3.24825 0
M  V30 7528 N 696.185 0.383891 -1.52853 0
M  V30 7529 C 697.41 1.154 -1.7233 0
M  V30 7530 C 697.835 1.82809 -0.44298 0
M  V30 7531 O 697.193 1.71026 0.601645 0
M  V30 7532 C 697.241 2.17386 -2.87708 0
M  V30 7533 O 696.345 3.24082 -2.55038 0
M  V30 7534 H 695.686 0.335709 -0.572883 0
M  V30 7535 H 698.216 0.44662 -1.99666 0
M  V30 7536 H 698.226 2.61296 -3.1335 0
M  V30 7537 H 696.901 1.6771 -3.80587 0
M  V30 7538 H 695.478 2.85273 -2.40153 0
M  V30 7539 N 697.663 1.43903 0.642637 0
M  V30 7540 C 698.888 1.49758 1.43483 0
M  V30 7541 C 699.313 0.119911 1.87717 0
M  V30 7542 O 698.671 -0.888558 1.58033 0
M  V30 7543 C 698.719 2.45744 2.63898 0
M  V30 7544 O 697.823 1.95101 3.63331 0
M  V30 7545 H 697.164 0.506138 0.429791 0
M  V30 7546 H 699.694 1.88923 0.785438 0
M  V30 7547 H 699.704 2.63399 3.11584 0
M  V30 7548 H 698.379 3.45818 2.31046 0
M  V30 7549 H 696.956 1.87158 3.22531 0
M  V30 7550 N 699.141 -0.881989 1.30609 0
M  V30 7551 C 700.552 -1.44956 1.17664 0
M  V30 7552 C 700.903 -1.94945 -0.221531 0
M  V30 7553 O 700.028 -1.85257 -1.11844 0
M  V30 7554 C 700.623 -2.63474 2.12995 0
M  V30 7555 C 699.182 -3.16312 2.04019 0
M  V30 7556 C 698.329 -1.89008 2.02907 0
M  V30 7557 H 701.28 -0.691645 1.42835 0
M  V30 7558 H 701.301 -3.39783 1.71253 0
M  V30 7559 H 700.813 -2.2706 3.14746 0
M  V30 7560 H 698.914 -3.57376 1.0542 0
M  V30 7561 H 699.027 -3.79409 2.9255 0
M  V30 7562 H 697.391 -2.07465 1.47751 0
M  V30 7563 H 698.174 -1.54848 3.06394 0
M  V30 7564 N 700.619 -1.13374 -1.09472 0
M  V30 7565 C 701.867 -0.893422 -1.8128 0
M  V30 7566 C 702.188 0.582029 -1.86111 0
M  V30 7567 O 701.458 1.42305 -1.34633 0
M  V30 7568 H 700.038 -0.327543 -0.67136 0
M  V30 7569 H 702.7 -1.43018 -1.32408 0
M  V30 7570 H 701.796 -1.28374 -2.84476 0
M  V30 7571 N 702.098 1.27442 -0.927168 0
M  V30 7572 C 703.008 2.30599 -0.431448 0
M  V30 7573 C 704.024 1.67028 0.48761 0
M  V30 7574 O 705.2 1.97962 0.370546 0
M  V30 7575 C 702.265 3.45327 0.308292 0
M  V30 7576 C 701.326 4.24418 -0.645615 0
M  V30 7577 C 700.559 5.33667 0.0589164 0
M  V30 7578 O 700.782 5.5589 1.27838 0
M  V30 7579 O 699.716 5.98774 -0.612638 0
M  V30 7580 H 703.542 2.75036 -1.28797 0
M  V30 7581 H 701.127 1.32382 -0.692495 0
M  V30 7582 H 703.009 4.15107 0.725555 0
M  V30 7583 H 701.684 3.02945 1.14043 0
M  V30 7584 H 700.591 3.57174 -1.11255 0
M  V30 7585 H 701.924 4.70512 -1.44496 0
M  V30 7586 N 703.576 0.692616 1.41565 0
M  V30 7587 C 704.539 0.0344174 2.29174 0
M  V30 7588 C 705.539 -0.710961 1.44229 0
M  V30 7589 O 706.729 -0.546293 1.65412 0
M  V30 7590 C 703.861 -0.961682 3.27054 0
M  V30 7591 H 705.054 0.805755 2.88873 0
M  V30 7592 H 702.607 0.455947 1.49502 0
M  V30 7593 H 703.342 -1.76089 2.72329 0
M  V30 7594 H 703.127 -0.430375 3.89731 0
M  V30 7595 H 704.617 -1.4201 3.92712 0
M  V30 7596 N 705.054 -1.51416 0.437162 0
M  V30 7597 C 706.3 -2.02386 -0.129555 0
M  V30 7598 C 706.633 -1.32071 -1.42376 0
M  V30 7599 O 705.908 -0.43559 -1.8956 0
M  V30 7600 C 706.191 -3.5841 -0.348487 0
M  V30 7601 C 706.044 -4.39341 0.964352 0
M  V30 7602 C 707.363 -4.25654 -1.11834 0
M  V30 7603 H 704.482 -0.735587 -0.0456109 0
M  V30 7604 H 707.124 -1.81055 0.576124 0
M  V30 7605 H 705.274 -3.76716 -0.949592 0
M  V30 7606 H 706.946 -4.32685 1.59942 0
M  V30 7607 H 705.189 -4.04432 1.56898 0
M  V30 7608 H 705.86 -5.4667 0.765212 0
M  V30 7609 H 708.336 -4.11617 -0.609165 0
M  V30 7610 H 707.212 -5.34704 -1.24029 0
M  V30 7611 H 707.473 -3.86502 -2.14636 0
M  V30 7612 N 706.532 -0.168513 -1.56696 0
M  V30 7613 C 707.442 0.775435 -2.21414 0
M  V30 7614 C 708.458 1.25529 -1.20492 0
M  V30 7615 O 709.634 1.30801 -1.53144 0
M  V30 7616 C 706.699 1.9886 -2.83999 0
M  V30 7617 C 705.76 1.5559 -4.00113 0
M  V30 7618 C 704.993 2.71124 -4.59704 0
M  V30 7619 O 705.216 3.87917 -4.18182 0
M  V30 7620 O 704.15 2.4536 -5.4962 0
M  V30 7621 H 707.976 0.254416 -3.02632 0
M  V30 7622 H 705.561 0.0595507 -1.49281 0
M  V30 7623 H 707.443 2.69816 -3.23693 0
M  V30 7624 H 706.118 2.49874 -2.05779 0
M  V30 7625 H 705.025 0.815924 -3.65094 0
M  V30 7626 H 706.358 1.09271 -4.79917 0
M  V30 7627 N 708.01 1.57248 0.105221 0
M  V30 7628 C 709.258 1.85204 0.808951 0
M  V30 7629 C 709.579 0.75574 1.7976 0
M  V30 7630 O 708.849 -0.218984 1.94672 0
M  V30 7631 H 707.429 0.683346 0.301739 0
M  V30 7632 H 710.091 1.94695 0.0892605 0
M  V30 7633 H 709.187 2.81595 1.34575 0
M  V30 7634 N 709.488 -0.375779 1.53054 0
M  V30 7635 C 710.736 -1.11727 1.68409 0
M  V30 7636 C 711.057 -1.90127 0.43323 0
M  V30 7637 O 710.327 -1.87945 -0.552595 0
M  V30 7638 H 708.907 -0.415451 0.620813 0
M  V30 7639 H 711.569 -0.424869 1.90213 0
M  V30 7640 H 710.665 -1.8128 2.54055 0
M  V30 7641 N 710.966 -1.44241 -0.634997 0
M  V30 7642 C 712.212 -1.47038 -1.39669 0
M  V30 7643 C 712.545 -0.101122 -1.93937 0
M  V30 7644 O 711.82 0.880699 -1.73418 0
M  V30 7645 C 712.103 -2.52763 -2.56482 0
M  V30 7646 C 711.956 -3.99032 -2.07589 0
M  V30 7647 C 713.275 -2.55031 -3.58674 0
M  V30 7648 H 710.394 -0.53537 -0.506506 0
M  V30 7649 H 713.036 -1.75898 -0.718317 0
M  V30 7650 H 711.186 -2.28284 -3.14354 0
M  V30 7651 H 712.858 -4.3463 -1.54577 0
M  V30 7652 H 711.101 -4.10994 -1.38804 0
M  V30 7653 H 711.772 -4.68649 -2.91671 0
M  V30 7654 H 714.248 -2.76893 -3.10595 0
M  V30 7655 H 713.124 -3.30916 -4.37934 0
M  V30 7656 H 713.385 -1.59085 -4.12486 0
M  V30 7657 N 712.444 0.87505 -1.31075 0
M  V30 7658 C 713.86 1.15997 -1.09622 0
M  V30 7659 C 714.06 2.01036 0.136611 0
M  V30 7660 O 713.116 2.38559 0.827397 0
M  V30 7661 C 714.429 1.85702 -2.36506 0
M  V30 7662 C 715.977 1.98425 -2.42067 0
M  V30 7663 C 716.452 2.71544 -3.68819 0
M  V30 7664 N 717.943 2.79084 -3.69684 0
M  V30 7665 C 718.678 3.36259 -4.64454 0
M  V30 7666 N 718.174 3.94406 -5.69575 0
M  V30 7667 N 719.967 3.34169 -4.51982 0
M  V30 7668 H 712.118 0.308258 -2.10151 0
M  V30 7669 H 714.381 0.199145 -0.926847 0
M  V30 7670 H 714.087 1.30663 -3.26527 0
M  V30 7671 H 713.961 2.86017 -2.45915 0
M  V30 7672 H 716.348 2.5263 -1.52518 0
M  V30 7673 H 716.429 0.971682 -2.36626 0
M  V30 7674 H 716.073 2.18008 -4.58732 0
M  V30 7675 H 716.003 3.73198 -3.71525 0
M  V30 7676 H 718.494 2.3781 -2.93691 0
M  V30 7677 H 718.807 4.36129 -6.37974 0
M  V30 7678 H 717.152 3.92797 -5.73355 0
M  V30 7679 H 720.343 2.87977 -3.69035 0
M  V30 7680 H 720.516 3.78431 -5.26017 0
M  V30 7681 N 713.922 1.13953 1.08869 0
M  V30 7682 C 715.162 0.915128 1.8277 0
M  V30 7683 C 715.526 -0.548647 1.83994 0
M  V30 7684 O 716.727 -0.890817 2.5361 0
M  V30 7685 C 714.998 1.49382 3.24684 0
M  V30 7686 S 716.557 1.4103 4.15519 0
M  V30 7687 H 713.375 0.329716 0.629927 0
M  V30 7688 H 715.977 1.45213 1.30895 0
M  V30 7689 H 714.681 2.55241 3.21372 0
M  V30 7690 H 714.212 0.955008 3.81632 0
M  V30 7691 H 716.227 0.392617 4.94644 0
M  V30 7692 N 715.4 -1.26948 0.933913 0
M  V30 7693 C 716.816 -1.46419 0.635103 0
M  V30 7694 C 717.016 -1.84336 -0.813785 0
M  V30 7695 O 716.072 -1.96061 -1.59111 0
M  V30 7696 C 717.385 -2.55206 1.5903 0
M  V30 7697 C 718.933 -2.69062 1.5992 0
M  V30 7698 C 719.408 -3.81013 2.54152 0
M  V30 7699 N 720.899 -3.88395 2.52395 0
M  V30 7700 C 721.634 -4.74454 3.21996 0
M  V30 7701 N 721.13 -5.64954 4.00997 0
M  V30 7702 N 722.923 -4.68237 3.10983 0
M  V30 7703 H 715.074 -1.00622 1.87053 0
M  V30 7704 H 717.337 -0.503189 0.803433 0
M  V30 7705 H 717.043 -2.34153 2.62422 0
M  V30 7706 H 716.917 -3.52719 1.33677 0
M  V30 7707 H 719.304 -2.89492 0.572569 0
M  V30 7708 H 719.385 -1.72016 1.89325 0
M  V30 7709 H 719.029 -3.61336 3.5693 0
M  V30 7710 H 718.959 -4.77499 2.22041 0
M  V30 7711 H 721.45 -3.23687 1.95025 0
M  V30 7712 H 721.763 -6.27496 4.51074 0
M  V30 7713 H 720.108 -5.6473 4.05099 0
M  V30 7714 H 723.299 -3.96535 2.48753 0
M  V30 7715 H 723.472 -5.35087 3.65494 0
M  V30 7716 N 716.879 -0.700114 -1.41195 0
M  V30 7717 C 718.104 -0.240704 -2.05998 0
M  V30 7718 C 718.529 1.10313 -1.52357 0
M  V30 7719 O 717.887 1.69154 -0.652424 0
M  V30 7720 C 717.935 -0.213783 -3.59966 0
M  V30 7721 O 717.039 0.809933 -4.04368 0
M  V30 7722 H 716.38 -0.116471 -0.653705 0
M  V30 7723 H 718.91 -0.956251 -1.80878 0
M  V30 7724 H 718.92 -0.0461852 -4.07974 0
M  V30 7725 H 717.595 -1.19454 -3.98376 0
M  V30 7726 H 716.172 0.611319 -3.67855 0
M  V30 7727 N 718.357 1.51182 -0.445186 0
M  V30 7728 C 719.773 1.59299 -0.0978954 0
M  V30 7729 C 719.973 1.4555 1.39346 0
M  V30 7730 O 719.029 1.30073 2.16419 0
M  V30 7731 C 720.342 2.94133 -0.625005 0
M  V30 7732 C 721.89 3.07463 -0.586137 0
M  V30 7733 C 722.365 4.44832 -1.09035 0
M  V30 7734 N 723.856 4.51173 -1.04867 0
M  V30 7735 C 724.591 5.55804 -1.40959 0
M  V30 7736 N 724.087 6.67816 -1.84375 0
M  V30 7737 N 725.88 5.46205 -1.32726 0
M  V30 7738 H 718.031 1.58363 -1.41544 0
M  V30 7739 H 720.294 0.746946 -0.58376 0
M  V30 7740 H 720 3.09589 -1.66876 0
M  V30 7741 H 719.874 3.77161 -0.0542262 0
M  V30 7742 H 722.261 2.9167 0.448646 0
M  V30 7743 H 722.342 2.26255 -1.19341 0
M  V30 7744 H 721.986 4.61372 -2.12364 0
M  V30 7745 H 721.916 5.24591 -0.459539 0
M  V30 7746 H 724.407 3.70783 -0.729932 0
M  V30 7747 H 724.72 7.43683 -2.10131 0
M  V30 7748 H 723.065 6.69003 -1.88308 0
M  V30 7749 H 726.256 4.57583 -0.986678 0
M  V30 7750 H 726.429 6.27634 -1.61182 0
M  V30 7751 N 719.835 0.176821 1.56605 0
M  V30 7752 C 721.06 -0.47599 2.01864 0
M  V30 7753 C 721.485 -1.55645 1.05623 0
M  V30 7754 O 720.843 -1.81263 0.0366729 0
M  V30 7755 C 720.891 -1.02619 3.4569 0
M  V30 7756 O 719.995 -2.13996 3.52533 0
M  V30 7757 H 719.336 -0.113363 0.654251 0
M  V30 7758 H 721.866 0.28233 2.02643 0
M  V30 7759 H 721.876 -1.34742 3.85109 0
M  V30 7760 H 720.551 -0.235138 4.15235 0
M  V30 7761 H 719.128 -1.82876 3.24978 0
M  V30 7762 N 721.313 -1.57302 -0.09688 0
M  V30 7763 C 722.562 -1.85183 -0.799388 0
M  V30 7764 C 722.875 -0.765818 -1.79985 0
M  V30 7765 O 724.081 -0.931696 -2.55013 0
M  V30 7766 C 722.537 -3.28399 -1.47249 0
M  V30 7767 C 722.145 -4.45066 -0.511888 0
M  V30 7768 C 723.889 -3.65506 -2.15883 0
M  V30 7769 C 721.796 -5.79315 -1.18948 0
M  V30 7770 H 720.726 -0.690752 -0.302287 0
M  V30 7771 H 723.377 -1.83425 -0.0523104 0
M  V30 7772 H 721.759 -3.24692 -2.26697 0
M  V30 7773 H 722.933 -4.60116 0.250962 0
M  V30 7774 H 721.248 -4.16343 0.0686576 0
M  V30 7775 H 723.845 -4.63087 -2.67309 0
M  V30 7776 H 724.188 -2.94041 -2.94696 0
M  V30 7777 H 724.721 -3.71094 -1.43298 0
M  V30 7778 H 721.46 -6.54007 -0.442198 0
M  V30 7779 H 720.98 -5.68111 -1.9238 0
M  V30 7780 H 722.659 -6.23816 -1.71646 0
M  V30 7781 N 722.791 0.367657 -1.53252 0
M  V30 7782 C 723.723 1.47032 -1.75824 0
M  V30 7783 C 724.736 1.49736 -0.63898 0
M  V30 7784 O 725.925 1.53253 -0.915193 0
M  V30 7785 C 723.025 2.85805 -1.82122 0
M  V30 7786 C 722.198 3.06822 -3.11736 0
M  V30 7787 C 721.257 4.25698 -3.09302 0
M  V30 7788 O 720.283 4.20972 -3.83107 0
M  V30 7789 N 721.485 5.33002 -2.29977 0
M  V30 7790 H 724.25 1.28048 -2.70968 0
M  V30 7791 H 721.811 0.557363 -1.52004 0
M  V30 7792 H 723.803 3.63465 -1.77975 0
M  V30 7793 H 722.373 2.98046 -0.942716 0
M  V30 7794 H 721.593 2.1684 -3.29202 0
M  V30 7795 H 722.881 3.17731 -3.97397 0
M  V30 7796 H 722.279 5.39703 -1.69521 0
M  V30 7797 H 720.836 6.09247 -2.3165 0
M  V30 7798 N 724.269 1.44576 0.627338 0
M  V30 7799 C 725.499 1.50829 1.41189 0
M  V30 7800 C 725.907 0.133083 1.88731 0
M  V30 7801 O 725.25 -0.87199 1.61685 0
M  V30 7802 C 725.312 2.41449 2.66351 0
M  V30 7803 C 724.976 3.88549 2.40579 0
M  V30 7804 C 725.973 4.78981 2.0217 0
M  V30 7805 C 723.658 4.33287 2.54102 0
M  V30 7806 C 725.652 6.12153 1.77618 0
M  V30 7807 C 723.339 5.66505 2.29163 0
M  V30 7808 C 724.337 6.55756 1.9098 0
M  V30 7809 O 724.025 7.86506 1.66321 0
M  V30 7810 H 723.757 0.513797 0.439304 0
M  V30 7811 H 726.311 1.90256 0.774059 0
M  V30 7812 H 724.541 1.96955 3.32784 0
M  V30 7813 H 726.23 2.38608 3.28361 0
M  V30 7814 H 726.996 4.45689 1.91277 0
M  V30 7815 H 722.875 3.64074 2.82792 0
M  V30 7816 H 726.419 6.81776 1.47739 0
M  V30 7817 H 722.316 5.99358 2.39668 0
M  V30 7818 H 723.084 7.98341 1.80536 0
M  V30 7819 N 725.747 -0.868086 1.31537 0
M  V30 7820 C 726.987 -1.63526 1.22632 0
M  V30 7821 C 727.351 -1.90828 -0.211815 0
M  V30 7822 O 728.552 -2.65429 -0.424387 0
M  V30 7823 C 726.823 -2.92849 2.04876 0
M  V30 7824 S 728.382 -3.83717 2.12853 0
M  V30 7825 H 725.2 -0.56105 0.436743 0
M  V30 7826 H 727.802 -1.02908 1.66223 0
M  V30 7827 H 726.506 -2.70717 3.08449 0
M  V30 7828 H 726.037 -3.58491 1.62011 0
M  V30 7829 H 728.052 -4.79719 1.26822 0
M  V30 7830 N 727.225 -1.14528 -1.08264 0
M  V30 7831 C 728.471 -0.91576 -1.80947 0
M  V30 7832 C 728.804 0.55623 -1.86064 0
M  V30 7833 O 728.079 1.41207 -1.33756 0
M  V30 7834 C 728.362 -1.51917 -3.26486 0
M  V30 7835 C 728.215 -3.06111 -3.2957 0
M  V30 7836 C 729.534 -1.19724 -4.23502 0
M  V30 7837 H 726.653 -0.334113 -0.656915 0
M  V30 7838 H 729.295 -1.41547 -1.26746 0
M  V30 7839 H 727.445 -1.0942 -3.72773 0
M  V30 7840 H 729.117 -3.57448 -2.91597 0
M  V30 7841 H 727.36 -3.40483 -2.688 0
M  V30 7842 H 728.031 -3.43438 -4.32151 0
M  V30 7843 H 730.507 -1.56467 -3.85561 0
M  V30 7844 H 729.383 -1.64575 -5.23647 0
M  V30 7845 H 729.644 -0.112771 -4.41956 0
M  V30 7846 N 728.703 1.26451 -0.940633 0
M  V30 7847 C 730.114 1.75726 -0.630653 0
M  V30 7848 C 730.465 1.76631 0.854167 0
M  V30 7849 O 729.59 1.37807 1.66848 0
M  V30 7850 C 730.185 3.19114 -1.13805 0
M  V30 7851 C 728.744 3.66005 -0.878497 0
M  V30 7852 C 727.891 2.45505 -1.28928 0
M  V30 7853 H 730.842 1.12535 -1.119 0
M  V30 7854 H 730.863 3.77311 -0.491625 0
M  V30 7855 H 730.375 3.18424 -2.21874 0
M  V30 7856 H 728.476 3.72126 0.187833 0
M  V30 7857 H 728.589 4.54844 -1.50512 0
M  V30 7858 H 726.953 2.4467 -0.707713 0
M  V30 7859 H 727.736 2.47516 -2.37888 0
M  V30 7860 N 730.181 0.707592 1.40822 0
M  V30 7861 C 731.597 0.38034 1.55002 0
M  V30 7862 C 731.797 -1.11163 1.68062 0
M  V30 7863 O 730.853 -1.89761 1.66574 0
M  V30 7864 C 732.166 1.1394 2.78277 0
M  V30 7865 C 733.714 1.12492 2.92087 0
M  V30 7866 C 734.189 1.86597 4.18265 0
M  V30 7867 N 735.68 1.83626 4.25248 0
M  V30 7868 C 736.415 2.37794 5.21768 0
M  V30 7869 N 735.911 3.00485 6.24244 0
M  V30 7870 N 737.704 2.27982 5.13791 0
M  V30 7871 H 729.855 1.67511 1.3059 0
M  V30 7872 H 732.118 0.707579 0.630901 0
M  V30 7873 H 731.824 2.19398 2.74877 0
M  V30 7874 H 731.698 0.725793 3.70151 0
M  V30 7875 H 734.085 0.0785564 2.94995 0
M  V30 7876 H 734.166 1.57768 2.01353 0
M  V30 7877 H 733.81 2.91219 4.16118 0
M  V30 7878 H 733.74 1.38746 5.07993 0
M  V30 7879 H 736.231 1.3793 3.51829 0
M  V30 7880 H 736.544 3.39355 6.94304 0
M  V30 7881 H 734.889 3.04567 6.24711 0
M  V30 7882 H 738.08 1.78669 4.3266 0
M  V30 7883 H 738.253 2.70499 5.88841 0
M  V30 7884 N 731.66 -1.50943 0.453197 0
M  V30 7885 C 732.937 -1.94872 -0.168633 0
M  V30 7886 C 733.317 -1.39272 -1.5864 0
M  V30 7887 O 732.665 -0.586272 -2.20851 0
M  V30 7888 C 732.875 -3.48757 -0.130217 0
M  V30 7889 C 734.223 -4.23331 -0.327975 0
M  V30 7890 O 735.247 -3.55594 -0.207619 0
M  V30 7891 O 734.106 -5.43529 -0.569077 0
M  V30 7892 H 731.2 -0.818042 -0.121394 0
M  V30 7893 H 733.746 -1.61782 0.512316 0
M  V30 7894 H 732.518 -3.81725 0.860346 0
M  V30 7895 H 732.141 -3.88333 -0.853397 0
M  V30 7896 N 733.138 -0.185124 -1.56509 0
M  V30 7897 C 734.415 0.503348 -1.89013 0
M  V30 7898 C 734.795 1.80349 -1.09715 0
M  V30 7899 O 734.143 2.27665 -0.195203 0
M  V30 7900 C 734.353 0.731839 -3.41241 0
M  V30 7901 C 735.701 1.05568 -4.11267 0
M  V30 7902 O 736.725 0.819906 -3.46635 0
M  V30 7903 O 735.584 1.50116 -5.25478 0
M  V30 7904 H 732.678 0.261139 -0.784688 0
M  V30 7905 H 735.224 -0.224592 -1.68207 0
M  V30 7906 H 733.996 -0.18672 -3.90854 0
M  V30 7907 H 733.619 1.5126 -3.67704 0
M  V30 7908 N 734.616 1.57351 0.0885366 0
M  V30 7909 C 735.579 2.01557 1.09121 0
M  V30 7910 C 736.579 0.910052 1.3257 0
M  V30 7911 O 737.769 1.17537 1.28572 0
M  V30 7912 C 734.901 2.38189 2.43883 0
M  V30 7913 H 736.094 2.91361 0.710562 0
M  V30 7914 H 733.647 1.52694 0.333779 0
M  V30 7915 H 734.382 1.5136 2.86811 0
M  V30 7916 H 734.167 3.18846 2.28209 0
M  V30 7917 H 735.657 2.73025 3.15986 0
M  V30 7918 N 736.094 -0.359525 1.53444 0
M  V30 7919 C 737.057 -1.42357 1.7963 0
M  V30 7920 C 738.057 -1.46319 0.666884 0
M  V30 7921 O 739.247 -1.46974 0.935113 0
M  V30 7922 C 736.379 -2.81425 1.92387 0
M  V30 7923 H 737.572 -1.20409 2.74666 0
M  V30 7924 H 735.125 -0.593007 1.44614 0
M  V30 7925 H 735.86 -3.08679 0.994384 0
M  V30 7926 H 735.645 -2.79947 2.74539 0
M  V30 7927 H 737.135 -3.5847 2.14218 0
M  V30 7928 N 737.572 -1.44907 -0.619662 0
M  V30 7929 C 738.983 -1.42905 -1.20146 0
M  V30 7930 C 739.334 -0.150341 -1.95623 0
M  V30 7931 O 738.459 0.748732 -2.03034 0
M  V30 7932 C 739.054 -2.58889 -2.18545 0
M  V30 7933 C 737.613 -2.60046 -2.72127 0
M  V30 7934 C 736.76 -2.3493 -1.4732 0
M  V30 7935 H 739.711 -1.53321 -0.409666 0
M  V30 7936 H 739.732 -2.32298 -3.0136 0
M  V30 7937 H 739.244 -3.51941 -1.63583 0
M  V30 7938 H 737.345 -1.70968 -3.3106 0
M  V30 7939 H 737.458 -3.58893 -3.17384 0
M  V30 7940 H 735.822 -1.84248 -1.75855 0
M  V30 7941 H 736.605 -3.3011 -0.942442 0
M  V30 7942 N 739.05 0.861098 -1.31996 0
M  V30 7943 C 739.96 2.00154 -1.22374 0
M  V30 7944 C 740.976 1.73447 -0.138631 0
M  V30 7945 O 742.152 1.98191 -0.358104 0
M  V30 7946 C 739.217 3.33696 -0.940645 0
M  V30 7947 C 738.278 3.73668 -2.11355 0
M  V30 7948 C 737.511 5.00837 -1.84386 0
M  V30 7949 O 737.734 5.64996 -0.783287 0
M  V30 7950 O 736.668 5.37787 -2.70313 0
M  V30 7951 H 740.494 2.11207 -2.18233 0
M  V30 7952 H 738.079 0.990768 -1.11822 0
M  V30 7953 H 739.961 4.13756 -0.798987 0
M  V30 7954 H 738.636 3.23698 -0.0121636 0
M  V30 7955 H 737.543 2.94211 -2.31065 0
M  V30 7956 H 738.876 3.88303 -3.02459 0
M  V30 7957 N 740.528 1.15101 1.07655 0
M  V30 7958 C 741.491 0.847625 2.12951 0
M  V30 7959 C 742.491 -0.151227 1.60087 0
M  V30 7960 O 743.681 0.0780399 1.74025 0
M  V30 7961 C 740.813 0.265 3.39868 0
M  V30 7962 H 742.006 1.7809 2.41296 0
M  V30 7963 H 739.559 0.958072 1.23494 0
M  V30 7964 H 740.294 -0.676625 3.17163 0
M  V30 7965 H 740.079 0.984554 3.79538 0
M  V30 7966 H 741.569 0.0702121 4.17541 0
M  V30 7967 N 742.006 -1.2595 0.947325 0
M  V30 7968 C 743.283 -1.88676 0.515824 0
M  V30 7969 C 743.663 -1.85547 -1.00675 0
M  V30 7970 O 743.011 -1.31399 -1.8694 0
M  V30 7971 C 743.221 -3.31734 1.08415 0
M  V30 7972 C 744.569 -4.08545 1.15654 0
M  V30 7973 O 745.593 -3.40826 1.03517 0
M  V30 7974 O 744.452 -5.29663 1.34608 0
M  V30 7975 H 741.546 -0.809537 0.169055 0
M  V30 7976 H 744.092 -1.34075 1.04029 0
M  V30 7977 H 742.864 -3.28404 2.1276 0
M  V30 7978 H 742.487 -3.93882 0.542499 0
M  V30 7979 N 743.484 -0.715051 -1.40445 0
M  V30 7980 C 744.732 -0.253826 -2.005 0
M  V30 7981 C 745.053 1.15681 -1.5698 0
M  V30 7982 O 744.323 1.78414 -0.809027 0
M  V30 7983 H 742.903 -0.0908537 -0.741454 0
M  V30 7984 H 745.565 -0.920561 -1.7179 0
M  V30 7985 H 744.661 -0.286499 -3.10782 0
M  V30 7986 N 744.962 1.50701 -0.461195 0
M  V30 7987 C 745.894 2.26124 0.374244 0
M  V30 7988 C 746.907 1.31064 0.965715 0
M  V30 7989 O 748.096 1.56647 0.855801 0
M  V30 7990 C 745.196 3.01996 1.5379 0
M  V30 7991 C 744.369 4.24336 1.06101 0
M  V30 7992 C 743.428 4.82585 2.09756 0
M  V30 7993 O 742.454 5.43775 1.68219 0
M  V30 7994 N 743.656 4.68712 3.42475 0
M  V30 7995 H 746.421 2.9846 -0.2723 0
M  V30 7996 H 743.982 1.59256 -0.291415 0
M  V30 7997 H 745.974 3.37846 2.22806 0
M  V30 7998 H 744.544 2.32521 2.08933 0
M  V30 7999 H 743.764 3.93707 0.197085 0
M  V30 8000 H 745.052 5.03678 0.720156 0
M  V30 8001 H 744.45 4.20026 3.78938 0
M  V30 8002 H 743.007 5.08858 4.07317 0
M  V30 8003 N 746.441 0.193421 1.56409 0
M  V30 8004 C 747.404 -0.714371 2.17783 0
M  V30 8005 C 748.404 -1.1422 1.13183 0
M  V30 8006 O 749.594 -1.05557 1.38576 0
M  V30 8007 C 746.726 -1.97509 2.77855 0
M  V30 8008 H 747.919 -0.179714 2.99361 0
M  V30 8009 H 745.472 -0.0561944 1.56199 0
M  V30 8010 H 746.207 -2.5523 2.0007 0
M  V30 8011 H 745.992 -1.67706 3.54425 0
M  V30 8012 H 747.482 -2.62246 3.24987 0
M  V30 8013 N 747.919 -1.57396 -0.0801906 0
M  V30 8014 C 748.882 -2.02133 -1.0805 0
M  V30 8015 C 749.882 -0.91707 -1.32085 0
M  V30 8016 O 751.072 -1.18217 -1.27947 0
M  V30 8017 C 748.204 -2.39479 -2.42616 0
M  V30 8018 H 749.397 -2.91733 -0.6951 0
M  V30 8019 H 746.95 -1.52869 -0.325677 0
M  V30 8020 H 747.685 -1.52879 -2.86004 0
M  V30 8021 H 747.47 -3.20052 -2.26515 0
M  V30 8022 H 748.96 -2.74697 -3.14534 0
M  V30 8023 N 749.397 0.351382 -1.53633 0
M  V30 8024 C 750.645 1.09034 -1.70165 0
M  V30 8025 C 750.966 1.89413 -0.463422 0
M  V30 8026 O 750.236 1.888 0.522624 0
M  V30 8027 H 748.816 0.405522 -0.627344 0
M  V30 8028 H 751.478 0.394554 -1.90865 0
M  V30 8029 H 750.574 1.77215 -2.56907 0
M  V30 8030 N 750.875 1.45233 0.611969 0
M  V30 8031 C 751.838 1.53189 1.70487 0
M  V30 8032 C 752.838 0.411839 1.55437 0
M  V30 8033 O 754.028 0.675164 1.60584 0
M  V30 8034 C 751.16 1.42422 3.09723 0
M  V30 8035 H 752.353 2.5056 1.64802 0
M  V30 8036 H 749.906 1.32609 0.827318 0
M  V30 8037 H 750.641 0.462185 3.2099 0
M  V30 8038 H 750.426 2.23658 3.22055 0
M  V30 8039 H 751.916 1.51012 3.89339 0
M  V30 8040 N 752.353 -0.854086 1.3245 0
M  V30 8041 C 753.283 -1.97827 1.24044 0
M  V30 8042 C 754.264 -1.69646 0.124166 0
M  V30 8043 O 755.449 -1.91687 0.31143 0
M  V30 8044 C 752.579 -3.33673 0.963324 0
M  V30 8045 C 751.533 -3.76207 2.04089 0
M  V30 8046 C 750.859 -5.0969 1.61618 0
M  V30 8047 C 752.159 -3.91612 3.45597 0
M  V30 8048 H 753.853 -2.05118 2.18099 0
M  V30 8049 H 751.399 -0.985489 1.04996 0
M  V30 8050 H 753.352 -4.11871 0.891061 0
M  V30 8051 H 752.076 -3.26597 -0.0128649 0
M  V30 8052 H 750.735 -3.0026 2.10332 0
M  V30 8053 H 750.383 -4.99072 0.627418 0
M  V30 8054 H 750.083 -5.3912 2.33717 0
M  V30 8055 H 751.607 -5.90381 1.55829 0
M  V30 8056 H 753.021 -4.60163 3.4194 0
M  V30 8057 H 751.418 -4.3246 4.16051 0
M  V30 8058 H 752.488 -2.9451 3.85217 0
M  V30 8059 N 753.831 -1.1567 -1.07043 0
M  V30 8060 C 754.794 -0.858906 -2.12498 0
M  V30 8061 C 755.794 0.142735 -1.60165 0
M  V30 8062 O 756.984 -0.0872678 -1.73981 0
M  V30 8063 C 754.116 -0.283021 -3.39723 0
M  V30 8064 H 755.309 -1.79368 -2.40348 0
M  V30 8065 H 752.862 -0.964608 -1.22984 0
M  V30 8066 H 753.597 0.659796 -3.17517 0
M  V30 8067 H 753.382 -1.00467 -3.7901 0
M  V30 8068 H 754.872 -0.0923543 -4.17498 0
M  V30 8069 N 755.309 1.25446 -0.953992 0
M  V30 8070 C 756.534 1.97755 -0.625129 0
M  V30 8071 C 756.959 1.70437 0.795787 0
M  V30 8072 O 756.317 0.95992 1.53803 0
M  V30 8073 C 756.365 3.49463 -0.889251 0
M  V30 8074 O 755.469 4.12387 0.0322757 0
M  V30 8075 H 754.81 0.61998 -0.237742 0
M  V30 8076 H 757.34 1.59582 -1.28041 0
M  V30 8077 H 757.35 3.99772 -0.815263 0
M  V30 8078 H 756.025 3.68676 -1.92487 0
M  V30 8079 H 754.602 3.72782 -0.0938625 0
M  V30 8080 N 756.787 0.722489 1.40064 0
M  V30 8081 C 758.203 0.396758 1.5459 0
M  V30 8082 C 758.403 -1.09375 1.69232 0
M  V30 8083 O 757.459 -1.87984 1.68578 0
M  V30 8084 C 758.772 1.16885 2.77053 0
M  V30 8085 C 760.32 1.15583 2.90877 0
M  V30 8086 C 760.795 1.91023 4.16262 0
M  V30 8087 N 762.286 1.88126 4.23276 0
M  V30 8088 C 763.021 2.43315 5.19216 0
M  V30 8089 N 762.517 3.07089 6.21022 0
M  V30 8090 N 764.31 2.33418 5.11344 0
M  V30 8091 H 756.461 1.68887 1.28806 0
M  V30 8092 H 758.724 0.714231 0.62336 0
M  V30 8093 H 758.43 2.22301 2.72534 0
M  V30 8094 H 758.304 0.765011 3.69361 0
M  V30 8095 H 760.691 0.10984 2.94896 0
M  V30 8096 H 760.772 1.59895 1.99668 0
M  V30 8097 H 760.416 2.95616 4.13006 0
M  V30 8098 H 760.346 1.44126 5.06493 0
M  V30 8099 H 762.837 1.41654 3.50346 0
M  V30 8100 H 763.15 3.467 6.90666 0
M  V30 8101 H 761.495 3.11175 6.21446 0
M  V30 8102 H 764.686 1.83248 4.30741 0
M  V30 8103 H 764.859 2.7673 5.85939 0
M  V30 8104 N 758.265 -1.50454 0.469181 0
M  V30 8105 C 759.213 -2.30101 -0.340033 0
M  V30 8106 C 760.207 -1.37306 -0.992135 0
M  V30 8107 O 761.413 -1.54506 -0.923458 0
M  V30 8108 H 757.788 -0.740941 -0.128495 0
M  V30 8109 H 759.759 -2.96315 0.352144 0
M  V30 8110 C 758.508 -3.17804 -1.41052 0
M  V30 8111 H 757.831 -3.89115 -0.918124 0
M  V30 8112 H 759.271 -3.76533 -1.94934 0
M  V30 8113 C 757.73 -2.35272 -2.4114 0
M  V30 8114 O 758.26 -2.03448 -3.4637 0
M  V30 8115 N 756.466 -1.97889 -2.1281 0
M  V30 8116 H 756.013 -2.2397 -1.27261 0
M  V30 8117 H 755.971 -1.42971 -2.80012 0
M  V30 8118 N 759.743 -0.201713 -1.56304 0
M  V30 8119 C 760.971 0.440723 -2.02152 0
M  V30 8120 C 761.386 1.54735 -1.08179 0
M  V30 8121 O 760.743 1.82289 -0.0878196 0
M  V30 8122 C 760.794 0.990884 -3.47655 0
M  V30 8123 O 760.515 -0.0715937 -4.38041 0
M  V30 8124 C 762.016 1.70854 -4.09052 0
M  V30 8125 H 759.236 0.109987 -0.661924 0
M  V30 8126 H 761.78 -0.312358 -2.021 0
M  V30 8127 H 759.935 1.69432 -3.48384 0
M  V30 8128 H 760.349 0.338892 -5.23404 0
M  V30 8129 H 761.823 2.04572 -5.12693 0
M  V30 8130 H 762.3 2.61462 -3.52894 0
M  V30 8131 H 762.906 1.0508 -4.12114 0
M  V30 8132 N 761.222 1.57436 0.0718424 0
M  V30 8133 C 762.172 2.00132 1.09229 0
M  V30 8134 C 763.156 0.883379 1.34481 0
M  V30 8135 O 764.348 1.14728 1.34783 0
M  V30 8136 C 761.477 2.44876 2.40605 0
M  V30 8137 C 760.563 3.63405 2.18627 0
M  V30 8138 N 760.954 4.77583 1.66579 0
M  V30 8139 C 759.252 3.69953 2.491 0
M  V30 8140 C 759.953 5.5943 1.59415 0
M  V30 8141 N 758.929 5.03275 2.05464 0
M  V30 8142 H 762.731 2.85849 0.683185 0
M  V30 8143 H 760.245 1.59987 0.278914 0
M  V30 8144 H 762.242 2.73703 3.14471 0
M  V30 8145 H 760.902 1.60546 2.82232 0
M  V30 8146 H 761.913 4.99875 1.35443 0
M  V30 8147 H 758.59 2.96336 2.94094 0
M  V30 8148 H 759.98 6.61093 1.20026 0
M  V30 8149 N 762.7 -0.34323 1.53817 0
M  V30 8150 C 763.925 -1.1079 1.75329 0
M  V30 8151 C 764.35 -1.81571 0.491293 0
M  V30 8152 O 763.708 -1.72561 -0.556089 0
M  V30 8153 C 763.756 -2.09681 2.9337 0
M  V30 8154 O 762.86 -3.17207 2.63541 0
M  V30 8155 H 762.201 -0.320402 0.581583 0
M  V30 8156 H 764.731 -0.393525 2.0078 0
M  V30 8157 H 764.741 -2.52897 3.20168 0
M  V30 8158 H 763.416 -1.5756 3.84899 0
M  V30 8159 H 761.993 -2.78806 2.47632 0
M  V30 8160 N 764.178 -1.45556 -0.604258 0
M  V30 8161 C 765.141 -1.54091 -1.69672 0
M  V30 8162 C 766.141 -0.420076 -1.55216 0
M  V30 8163 O 767.331 -0.683671 -1.60224 0
M  V30 8164 C 764.463 -1.44063 -3.08964 0
M  V30 8165 H 765.656 -2.51431 -1.6347 0
M  V30 8166 H 763.209 -1.33046 -0.820273 0
M  V30 8167 H 763.944 -0.479201 -3.2074 0
M  V30 8168 H 763.729 -2.25362 -3.20865 0
M  V30 8169 H 765.219 -1.53075 -3.88533 0
M  V30 8170 N 765.656 0.84705 -1.32902 0
M  V30 8171 C 766.566 1.98845 -1.2449 0
M  V30 8172 C 767.582 1.7329 -0.15702 0
M  V30 8173 O 768.758 1.978 -0.379104 0
M  V30 8174 C 765.823 3.32679 -0.975985 0
M  V30 8175 C 764.884 3.71405 -2.15306 0
M  V30 8176 C 764.117 4.98853 -1.89688 0
M  V30 8177 O 764.34 5.64134 -0.843168 0
M  V30 8178 O 763.274 5.34889 -2.76002 0
M  V30 8179 H 767.1 2.0888 -2.2046 0
M  V30 8180 H 764.685 0.978852 -1.12867 0
M  V30 8181 H 766.567 4.12885 -0.842826 0
M  V30 8182 H 765.242 3.23667 -0.0464954 0
M  V30 8183 H 764.149 2.91743 -2.34172 0
M  V30 8184 H 765.482 3.85073 -3.06561 0
M  V30 8185 N 767.134 1.16236 1.06428 0
M  V30 8186 C 768.064 0.890807 2.1584 0
M  V30 8187 C 769.045 -0.162333 1.69324 0
M  V30 8188 O 770.23 -0.0147191 1.94194 0
M  V30 8189 C 767.36 0.389615 3.45108 0
M  V30 8190 C 766.314 1.38051 4.05125 0
M  V30 8191 C 765.64 0.737773 5.29586 0
M  V30 8192 C 766.94 2.74965 4.44062 0
M  V30 8193 H 768.634 1.80577 2.38814 0
M  V30 8194 H 766.18 0.869657 1.14774 0
M  V30 8195 H 768.133 0.187127 4.20984 0
M  V30 8196 H 766.857 -0.560851 3.21748 0
M  V30 8197 H 765.516 1.56952 3.31303 0
M  V30 8198 H 765.164 -0.219135 5.02522 0
M  V30 8199 H 764.864 1.39914 5.70699 0
M  V30 8200 H 766.388 0.545275 6.0816 0
M  V30 8201 H 767.802 2.59855 5.11027 0
M  V30 8202 H 766.199 3.37563 4.96156 0
M  V30 8203 H 767.269 3.30321 3.54987 0
M  V30 8204 N 768.612 -1.24939 0.960631 0
M  V30 8205 C 770.023 -1.74701 0.658529 0
M  V30 8206 C 770.374 -1.77967 -0.825959 0
M  V30 8207 O 769.499 -1.40444 -1.64634 0
M  V30 8208 C 770.094 -3.17263 1.18867 0
M  V30 8209 C 768.653 -3.64561 0.936614 0
M  V30 8210 C 767.8 -2.43423 1.32817 0
M  V30 8211 H 770.751 -1.10741 1.13676 0
M  V30 8212 H 770.772 -3.76481 0.551589 0
M  V30 8213 H 770.284 -3.14854 2.26912 0
M  V30 8214 H 768.385 -3.72378 -0.128608 0
M  V30 8215 H 768.498 -4.52392 1.57729 0
M  V30 8216 H 766.862 -2.43513 0.746548 0
M  V30 8217 H 767.645 -2.437 2.41796 0
M  V30 8218 N 770.09 -0.729906 -1.39679 0
M  V30 8219 C 771.501 -0.346241 -1.83461 0
M  V30 8220 C 771.852 1.1215 -1.60987 0
M  V30 8221 O 770.977 1.86456 -1.09832 0
M  V30 8222 C 771.572 -0.621656 -3.33048 0
M  V30 8223 C 770.131 -0.291543 -3.75269 0
M  V30 8224 C 769.278 -0.886844 -2.62736 0
M  V30 8225 H 772.229 -0.927949 -1.28743 0
M  V30 8226 H 772.25 0.108301 -3.80346 0
M  V30 8227 H 771.762 -1.68996 -3.49373 0
M  V30 8228 H 769.863 0.771133 -3.64533 0
M  V30 8229 H 769.976 -0.770544 -4.72863 0
M  V30 8230 H 768.34 -0.313839 -2.52759 0
M  V30 8231 H 769.123 -1.95971 -2.81869 0
M  V30 8232 N 771.568 1.50203 -0.477153 0
M  V30 8233 C 772.979 1.86685 -0.0235041 0
M  V30 8234 C 773.33 1.39148 1.38319 0
M  V30 8235 O 772.455 0.759051 2.02651 0
M  V30 8236 C 773.05 3.38781 -0.0358767 0
M  V30 8237 C 771.609 3.74652 0.362327 0
M  V30 8238 C 770.756 2.7412 -0.41875 0
M  V30 8239 H 773.707 1.4286 -0.691133 0
M  V30 8240 H 773.728 3.72732 0.764924 0
M  V30 8241 H 773.24 3.73349 -1.05981 0
M  V30 8242 H 771.341 3.45686 1.39039 0
M  V30 8243 H 771.454 4.79063 0.059457 0
M  V30 8244 H 769.818 2.54376 0.128341 0
M  V30 8245 H 770.601 3.11532 -1.44231 0
M  V30 8246 N 773.046 0.209999 1.56195 0
M  V30 8247 C 774.323 -0.473214 1.89789 0
M  V30 8248 C 774.703 -1.78581 1.1257 0
M  V30 8249 O 774.051 -2.27325 0.231398 0
M  V30 8250 C 774.261 -0.677458 3.42362 0
M  V30 8251 C 775.609 -0.990114 4.12895 0
M  V30 8252 O 776.633 -0.764655 3.47896 0
M  V30 8253 O 775.492 -1.41737 5.278 0
M  V30 8254 H 772.586 -0.248622 0.788743 0
M  V30 8255 H 775.132 0.251324 1.67829 0
M  V30 8256 H 773.904 0.248878 3.90508 0
M  V30 8257 H 773.527 -1.45391 3.70064 0
M  V30 8258 N 774.524 -1.57472 -0.0634922 0
M  V30 8259 C 775.456 -2.00999 -1.10145 0
M  V30 8260 C 776.469 -0.917219 -1.34503 0
M  V30 8261 O 777.658 -1.19501 -1.32596 0
M  V30 8262 C 774.758 -2.34089 -2.45063 0
M  V30 8263 C 773.931 -3.65317 -2.40546 0
M  V30 8264 C 772.99 -3.85982 -3.57637 0
M  V30 8265 O 772.016 -4.5747 -3.38689 0
M  V30 8266 N 773.218 -3.28971 -4.78287 0
M  V30 8267 H 775.983 -2.90656 -0.730714 0
M  V30 8268 H 773.544 -1.59926 -0.252017 0
M  V30 8269 H 775.536 -2.4508 -3.22053 0
M  V30 8270 H 774.106 -1.50279 -2.74107 0
M  V30 8271 H 773.326 -3.65003 -1.48885 0
M  V30 8272 H 774.614 -4.51468 -2.34636 0
M  V30 8273 H 774.012 -2.70962 -4.96584 0
M  V30 8274 H 772.569 -3.45398 -5.5276 0
M  V30 8275 N 776.003 0.335068 -1.53997 0
M  V30 8276 C 777.414 0.910191 -1.6301 0
M  V30 8277 C 777.765 1.89271 -0.516809 0
M  V30 8278 O 776.89 2.13516 0.352123 0
M  V30 8279 C 777.485 1.65761 -2.9548 0
M  V30 8280 C 776.044 2.18163 -3.06728 0
M  V30 8281 C 775.191 1.00338 -2.5851 0
M  V30 8282 H 778.142 0.112965 -1.58297 0
M  V30 8283 H 778.163 2.52107 -2.84995 0
M  V30 8284 H 777.675 0.94227 -3.76488 0
M  V30 8285 H 775.776 2.92847 -2.30372 0
M  V30 8286 H 775.889 2.43952 -4.1234 0
M  V30 8287 H 774.253 1.37925 -2.14124 0
M  V30 8288 H 775.036 0.30254 -3.41964 0
M  V30 8289 N 777.481 1.45874 0.596531 0
M  V30 8290 C 778.706 1.54247 1.38646 0
M  V30 8291 C 779.131 0.179571 1.87241 0
M  V30 8292 O 778.489 -0.837831 1.6078 0
M  V30 8293 C 778.537 2.54015 2.55946 0
M  V30 8294 O 777.641 2.06561 3.5694 0
M  V30 8295 H 776.982 0.519555 0.413471 0
M  V30 8296 H 779.512 1.91327 0.724936 0
M  V30 8297 H 779.522 2.73179 3.03047 0
M  V30 8298 H 778.197 3.52994 2.19928 0
M  V30 8299 H 776.774 1.97324 3.16414 0
M  V30 8300 N 778.959 -0.83999 1.33349 0
M  V30 8301 C 780.37 -1.41139 1.22216 0
M  V30 8302 C 780.721 -1.95551 -0.159398 0
M  V30 8303 O 779.846 -1.88721 -1.05893 0
M  V30 8304 C 780.441 -2.56564 2.21269 0
M  V30 8305 C 779 -3.09661 2.13979 0
M  V30 8306 C 778.147 -1.82457 2.08818 0
M  V30 8307 H 781.098 -0.645853 1.44964 0
M  V30 8308 H 781.119 -3.34163 1.81976 0
M  V30 8309 H 780.631 -2.16932 3.21811 0
M  V30 8310 H 778.732 -3.53841 1.16736 0
M  V30 8311 H 778.845 -3.6991 3.04472 0
M  V30 8312 H 777.209 -2.0266 1.54276 0
M  V30 8313 H 777.992 -1.45022 3.11165 0
M  V30 8314 N 780.437 -1.16799 -1.0581 0
M  V30 8315 C 781.677 -0.963264 -1.80279 0
M  V30 8316 C 782.041 0.499671 -1.85384 0
M  V30 8317 O 783.242 0.823264 -2.55882 0
M  V30 8318 C 781.513 -1.57938 -3.20609 0
M  V30 8319 S 783.072 -1.51997 -4.11634 0
M  V30 8320 H 779.89 -0.346302 -0.620964 0
M  V30 8321 H 782.492 -1.48632 -1.26999 0
M  V30 8322 H 781.196 -2.63672 -3.14492 0
M  V30 8323 H 780.727 -1.05586 -3.78966 0
M  V30 8324 H 782.742 -0.523625 -4.93429 0
M  V30 8325 N 781.915 1.24427 -0.967243 0
M  V30 8326 C 782.862 2.25398 -0.496419 0
M  V30 8327 C 783.832 1.59667 0.457781 0
M  V30 8328 O 785.017 1.87213 0.368246 0
M  V30 8329 C 782.157 3.44474 0.207693 0
M  V30 8330 C 781.27 4.24804 -0.785221 0
M  V30 8331 C 780.405 5.31169 -0.0572631 0
M  V30 8332 C 779.444 6.03195 -1.04027 0
M  V30 8333 N 778.581 7.01265 -0.34235 0
M  V30 8334 H 783.421 2.65039 -1.36229 0
M  V30 8335 H 780.958 1.30288 -0.682902 0
M  V30 8336 H 782.916 4.12376 0.632612 0
M  V30 8337 H 781.546 3.05672 1.03752 0
M  V30 8338 H 780.598 3.56445 -1.32858 0
M  V30 8339 H 781.91 4.74599 -1.53483 0
M  V30 8340 H 781.064 6.05205 0.425674 0
M  V30 8341 H 779.803 4.8228 0.725047 0
M  V30 8342 H 778.808 5.27964 -1.53409 0
M  V30 8343 H 780.033 6.54173 -1.82302 0
M  V30 8344 H 777.979 6.54648 0.420993 0
M  V30 8345 H 777.896 7.48939 -1.03084 0
M  V30 8346 H 779.164 7.7941 0.118634 0
M  V30 8347 N 783.393 0.737304 1.3929 0
M  V30 8348 C 784.633 0.290966 2.02318 0
M  V30 8349 C 784.997 -1.10174 1.57244 0
M  V30 8350 O 786.198 -1.64628 2.12488 0
M  V30 8351 C 784.469 0.391767 3.55246 0
M  V30 8352 S 786.028 0.0256103 4.38793 0
M  V30 8353 H 782.846 0.113862 0.701824 0
M  V30 8354 H 785.448 0.964329 1.70062 0
M  V30 8355 H 784.152 1.40662 3.85542 0
M  V30 8356 H 783.683 -0.299338 3.9226 0
M  V30 8357 H 785.698 -1.18991 4.81722 0
M  V30 8358 N 784.871 -1.49948 0.485112 0
M  V30 8359 C 786.099 -2.06806 -0.0622824 0
M  V30 8360 C 786.514 -1.34736 -1.32256 0
M  V30 8361 O 785.871 -0.420836 -1.77582 0
M  V30 8362 C 785.922 -3.59934 -0.336096 0
M  V30 8363 O 785.643 -4.29289 0.874203 0
M  V30 8364 C 787.144 -4.33459 -0.928903 0
M  V30 8365 H 784.364 -0.670867 0.0133472 0
M  V30 8366 H 786.908 -1.92937 0.677917 0
M  V30 8367 H 785.063 -3.7356 -1.02625 0
M  V30 8368 H 785.477 -5.20735 0.627332 0
M  V30 8369 H 786.951 -5.41527 -1.07017 0
M  V30 8370 H 787.428 -3.94881 -1.92265 0
M  V30 8371 H 788.034 -4.24399 -0.276705 0
M  V30 8372 N 786.349 -0.21828 -1.56081 0
M  V30 8373 C 787.589 0.416193 -2.00118 0
M  V30 8374 C 787.953 1.5718 -1.10265 0
M  V30 8375 O 789.154 2.27206 -1.43635 0
M  V30 8376 C 787.425 0.842781 -3.47321 0
M  V30 8377 S 788.984 1.47182 -4.1338 0
M  V30 8378 H 785.802 0.132219 -0.698598 0
M  V30 8379 H 788.404 -0.326799 -1.92749 0
M  V30 8380 H 787.108 -0.00799925 -4.10399 0
M  V30 8381 H 786.639 1.61867 -3.58556 0
M  V30 8382 H 788.654 2.76087 -4.12299 0
M  V30 8383 N 787.827 1.57504 0.0551401 0
M  V30 8384 C 788.774 2.04825 1.06373 0
M  V30 8385 C 789.744 0.932108 1.37481 0
M  V30 8386 O 790.929 1.20093 1.48265 0
M  V30 8387 C 788.069 2.51091 2.36743 0
M  V30 8388 C 787.182 3.76392 2.12021 0
M  V30 8389 C 786.317 4.11373 3.36074 0
M  V30 8390 C 785.356 5.29666 3.0679 0
M  V30 8391 N 784.493 5.60205 4.2322 0
M  V30 8392 H 789.333 2.90753 0.653216 0
M  V30 8393 H 786.87 1.43776 0.310951 0
M  V30 8394 H 788.828 2.75973 3.12881 0
M  V30 8395 H 787.458 1.68118 2.75565 0
M  V30 8396 H 786.51 3.58751 1.26498 0
M  V30 8397 H 787.822 4.62662 1.86401 0
M  V30 8398 H 786.976 4.37245 4.20597 0
M  V30 8399 H 785.715 3.23704 3.64784 0
M  V30 8400 H 784.72 5.03574 2.20664 0
M  V30 8401 H 785.945 6.18968 2.79385 0
M  V30 8402 H 783.891 4.75495 4.5193 0
M  V30 8403 H 783.808 6.40928 4.00933 0
M  V30 8404 H 785.076 5.90637 5.08692 0
M  V30 8405 N 789.305 -0.326896 1.54172 0
M  V30 8406 C 790.252 -1.40216 1.83325 0
M  V30 8407 C 791.222 -1.51538 0.680107 0
M  V30 8408 O 792.407 -1.66811 0.926206 0
M  V30 8409 C 789.547 -2.76626 2.0633 0
M  V30 8410 C 788.66 -2.73963 3.34019 0
M  V30 8411 C 787.795 -4.02198 3.47002 0
M  V30 8412 C 786.834 -3.93828 4.68578 0
M  V30 8413 N 785.971 -5.13787 4.78506 0
M  V30 8414 H 790.811 -1.14656 2.7506 0
M  V30 8415 H 788.348 -0.555089 1.36225 0
M  V30 8416 H 790.306 -3.55922 2.17659 0
M  V30 8417 H 788.936 -3.00503 1.1789 0
M  V30 8418 H 787.988 -1.86677 3.31445 0
M  V30 8419 H 789.3 -2.6366 4.2342 0
M  V30 8420 H 788.454 -4.89923 3.57855 0
M  V30 8421 H 787.193 -4.15302 2.55687 0
M  V30 8422 H 786.198 -3.04487 4.57786 0
M  V30 8423 H 787.423 -3.82292 5.61275 0
M  V30 8424 H 785.369 -5.27403 3.90105 0
M  V30 8425 H 785.286 -5.05807 5.61868 0
M  V30 8426 H 786.554 -6.03236 4.93686 0
M  V30 8427 N 790.784 -1.46188 -0.588786 0
M  V30 8428 C 791.694 -1.58865 -1.72624 0
M  V30 8429 C 792.71 -0.472348 -1.67466 0
M  V30 8430 O 793.886 -0.735638 -1.87484 0
M  V30 8431 C 790.951 -1.56989 -3.0912 0
M  V30 8432 C 790.012 -2.79804 -3.25589 0
M  V30 8433 C 789.245 -2.78009 -4.55573 0
M  V30 8434 O 789.468 -1.86406 -5.39082 0
M  V30 8435 O 788.402 -3.6947 -4.75159 0
M  V30 8436 H 792.228 -2.55047 -1.64878 0
M  V30 8437 H 789.813 -1.28912 -0.755115 0
M  V30 8438 H 791.695 -1.58618 -3.90408 0
M  V30 8439 H 790.37 -0.639648 -3.17317 0
M  V30 8440 H 789.277 -2.83732 -2.43818 0
M  V30 8441 H 790.61 -3.72017 -3.22279 0
M  V30 8442 N 792.262 0.832906 -1.33792 0
M  V30 8443 C 793.673 1.40489 -1.22963 0
M  V30 8444 C 794.024 1.95633 0.149026 0
M  V30 8445 O 793.149 1.8928 1.04891 0
M  V30 8446 C 793.744 2.55387 -2.22627 0
M  V30 8447 C 792.303 3.08522 -2.15618 0
M  V30 8448 C 791.45 1.81347 -2.09782 0
M  V30 8449 H 794.401 0.638156 -1.45304 0
M  V30 8450 H 794.422 3.33193 -1.83746 0
M  V30 8451 H 793.934 2.15222 -3.22957 0
M  V30 8452 H 792.035 3.53217 -1.18611 0
M  V30 8453 H 792.148 3.6829 -3.0643 0
M  V30 8454 H 790.512 2.01839 -1.55349 0
M  V30 8455 H 791.295 1.43369 -3.1193 0
M  V30 8456 N 793.74 1.17359 1.05189 0
M  V30 8457 C 794.965 0.98709 1.82404 0
M  V30 8458 C 795.39 -0.459848 1.82392 0
M  V30 8459 O 794.748 -1.32924 1.23292 0
M  V30 8460 C 794.796 1.53276 3.26403 0
M  V30 8461 O 793.9 0.746541 4.05587 0
M  V30 8462 H 793.241 0.35047 0.563974 0
M  V30 8463 H 795.771 1.55856 1.32552 0
M  V30 8464 H 795.781 1.55504 3.77203 0
M  V30 8465 H 794.456 2.58603 3.25726 0
M  V30 8466 H 793.033 0.795671 3.64312 0
M  V30 8467 N 795.218 -1.23913 0.973828 0
M  V30 8468 C 796.443 -1.96735 0.656511 0
M  V30 8469 C 796.868 -1.71682 -0.768571 0
M  V30 8470 O 796.226 -0.984267 -1.52256 0
M  V30 8471 C 796.274 -3.48004 0.944735 0
M  V30 8472 O 795.378 -4.12387 0.0333357 0
M  V30 8473 H 794.719 -0.616119 0.247575 0
M  V30 8474 H 797.249 -1.57525 1.30564 0
M  V30 8475 H 797.259 -3.98424 0.87876 0
M  V30 8476 H 795.934 -3.65567 1.98328 0
M  V30 8477 H 794.511 -3.72585 0.153157 0
M  V30 8478 N 796.696 -0.74468 -1.38897 0
M  V30 8479 C 797.942 -0.297324 -2.00609 0
M  V30 8480 C 798.275 1.11547 -1.58968 0
M  V30 8481 O 797.55 1.76227 -0.823057 0
M  V30 8482 C 797.833 -0.410125 -3.57757 0
M  V30 8483 C 797.686 -1.86338 -4.09387 0
M  V30 8484 C 799.005 0.20176 -4.39637 0
M  V30 8485 H 796.124 -0.109509 -0.728819 0
M  V30 8486 H 798.766 -0.942653 -1.64967 0
M  V30 8487 H 796.916 0.139287 -3.8825 0
M  V30 8488 H 798.588 -2.47042 -3.89574 0
M  V30 8489 H 796.831 -2.38146 -3.62586 0
M  V30 8490 H 797.502 -1.89352 -5.18507 0
M  V30 8491 H 799.978 -0.266703 -4.15244 0
M  V30 8492 H 798.854 0.0925415 -5.48822 0
M  V30 8493 H 799.115 1.289 -4.22891 0
M  V30 8494 N 798.174 1.49689 -0.493057 0
M  V30 8495 C 799.399 2.07331 0.0535114 0
M  V30 8496 C 799.824 1.35196 1.30781 0
M  V30 8497 O 799.182 0.406246 1.7669 0
M  V30 8498 C 799.23 3.59364 0.29825 0
M  V30 8499 O 798.334 3.88819 1.37454 0
M  V30 8500 H 797.675 0.663612 -0.0227018 0
M  V30 8501 H 800.205 1.926 -0.690402 0
M  V30 8502 H 800.215 4.04515 0.532159 0
M  V30 8503 H 798.89 4.1128 -0.618207 0
M  V30 8504 H 797.467 3.55487 1.12621 0
M  V30 8505 N 799.652 0.226554 1.55963 0
M  V30 8506 C 801.063 -0.280381 1.84583 0
M  V30 8507 C 801.414 -1.59105 1.14804 0
M  V30 8508 O 800.539 -2.12297 0.419414 0
M  V30 8509 C 801.134 -0.515499 3.34855 0
M  V30 8510 C 799.693 -0.966733 3.63774 0
M  V30 8511 C 798.84 -0.0325753 2.77281 0
M  V30 8512 H 801.791 0.449626 1.52197 0
M  V30 8513 H 801.812 -1.36085 3.55332 0
M  V30 8514 H 801.324 0.438594 3.85614 0
M  V30 8515 H 799.425 -1.93401 3.18476 0
M  V30 8516 H 799.538 -0.837679 4.7172 0
M  V30 8517 H 797.902 -0.540279 2.48904 0
M  V30 8518 H 798.685 0.916524 3.30839 0
M  V30 8519 N 801.13 -1.57531 -0.0467866 0
M  V30 8520 C 802.355 -1.93087 -0.757123 0
M  V30 8521 C 802.78 -0.825116 -1.69037 0
M  V30 8522 O 802.138 0.220449 -1.79955 0
M  V30 8523 C 802.186 -3.27669 -1.5055 0
M  V30 8524 O 801.29 -3.18667 -2.61773 0
M  V30 8525 H 800.631 -0.631597 -0.204892 0
M  V30 8526 H 803.161 -2.04599 -0.00755232 0
M  V30 8527 H 803.171 -3.6214 -1.87932 0
M  V30 8528 H 801.846 -4.07717 -0.820931 0
M  V30 8529 H 800.423 -2.95798 -2.27064 0
M  V30 8530 N 802.608 0.318715 -1.54344 0
M  V30 8531 C 803.571 1.37545 -1.83342 0
M  V30 8532 C 804.571 1.445 -0.705444 0
M  V30 8533 O 805.761 1.44443 -0.973752 0
M  V30 8534 C 802.893 2.76225 -1.99781 0
M  V30 8535 H 804.086 1.13084 -2.77762 0
M  V30 8536 H 801.639 0.554457 -1.46135 0
M  V30 8537 H 802.374 3.05934 -1.07588 0
M  V30 8538 H 802.159 2.7257 -2.81865 0
M  V30 8539 H 803.649 3.52664 -2.23647 0
M  V30 8540 N 804.086 1.46499 0.581025 0
M  V30 8541 C 805.314 1.5547 1.36517 0
M  V30 8542 C 805.729 0.196407 1.87776 0
M  V30 8543 O 805.086 -0.806577 1.63709 0
M  V30 8544 C 805.137 2.56084 2.55154 0
M  V30 8545 O 804.858 3.86637 2.06018 0
M  V30 8546 C 806.359 2.75011 3.47683 0
M  V30 8547 H 803.579 0.525703 0.416986 0
M  V30 8548 H 806.123 1.9192 0.706177 0
M  V30 8549 H 804.278 2.22633 3.17039 0
M  V30 8550 H 804.692 4.41413 2.83292 0
M  V30 8551 H 806.166 3.49329 4.27403 0
M  V30 8552 H 806.643 1.81978 3.99726 0
M  V30 8553 H 807.249 3.09565 2.91632 0
M  V30 8554 N 805.565 -0.825799 1.34232 0
M  V30 8555 C 806.811 -1.58419 1.26614 0
M  V30 8556 C 807.144 -1.93503 -0.164341 0
M  V30 8557 O 806.419 -1.59785 -1.109 0
M  V30 8558 C 806.702 -2.8856 2.15418 0
M  V30 8559 C 806.555 -2.60075 3.66989 0
M  V30 8560 C 807.874 -3.90107 2.03726 0
M  V30 8561 H 804.993 -0.574794 0.461282 0
M  V30 8562 H 807.635 -0.951519 1.64457 0
M  V30 8563 H 805.785 -3.42553 1.83275 0
M  V30 8564 H 807.457 -2.12414 4.09485 0
M  V30 8565 H 805.7 -1.93565 3.88221 0
M  V30 8566 H 806.371 -3.52866 4.24488 0
M  V30 8567 H 808.847 -3.45459 2.31942 0
M  V30 8568 H 807.723 -4.78976 2.68092 0
M  V30 8569 H 807.984 -4.30329 1.01337 0
M  V30 8570 N 807.043 -1.17915 -1.04565 0
M  V30 8571 C 807.99 -0.901605 -2.12461 0
M  V30 8572 C 808.96 0.157011 -1.65356 0
M  V30 8573 O 810.145 0.0184494 -1.90791 0
M  V30 8574 C 807.285 -0.42796 -3.42436 0
M  V30 8575 C 806.398 -1.55142 -4.03181 0
M  V30 8576 C 805.533 -1.03101 -5.21098 0
M  V30 8577 C 804.572 -2.1295 -5.73863 0
M  V30 8578 N 803.709 -1.62339 -6.83074 0
M  V30 8579 H 808.549 -1.82551 -2.3554 0
M  V30 8580 H 806.086 -0.910389 -1.15544 0
M  V30 8581 H 808.044 -0.134859 -4.16982 0
M  V30 8582 H 806.674 0.458977 -3.1952 0
M  V30 8583 H 805.726 -1.96011 -3.26012 0
M  V30 8584 H 807.038 -2.37968 -4.38375 0
M  V30 8585 H 806.192 -0.692132 -6.02739 0
M  V30 8586 H 804.931 -0.17227 -4.87396 0
M  V30 8587 H 803.936 -2.47687 -4.90847 0
M  V30 8588 H 805.161 -2.9925 -6.09611 0
M  V30 8589 H 803.107 -0.787464 -6.51256 0
M  V30 8590 H 803.024 -2.38767 -7.17305 0
M  V30 8591 H 804.292 -1.31363 -7.68351 0
M  V30 8592 N 808.521 1.23394 -0.980386 0
M  V30 8593 C 809.749 1.95844 -0.667286 0
M  V30 8594 C 810.164 1.72574 0.765735 0
M  V30 8595 O 809.521 1.01715 1.51526 0
M  V30 8596 C 809.572 3.48844 -0.948151 0
M  V30 8597 O 809.293 3.71325 -2.32485 0
M  V30 8598 C 810.794 4.38494 -0.651002 0
M  V30 8599 H 808.014 0.623535 -0.247882 0
M  V30 8600 H 810.558 1.56885 -1.31176 0
M  V30 8601 H 808.713 3.85819 -0.349681 0
M  V30 8602 H 809.127 4.65619 -2.41452 0
M  V30 8603 H 810.601 5.44648 -0.897887 0
M  V30 8604 H 811.078 4.37236 0.414922 0
M  V30 8605 H 811.684 4.07127 -1.22995 0
M  V30 8606 N 809.999 0.752036 1.385 0
M  V30 8607 C 811.415 0.42946 1.53713 0
M  V30 8608 C 811.615 -1.0576 1.71514 0
M  V30 8609 O 810.671 -1.84366 1.72527 0
M  V30 8610 C 811.984 1.22735 2.74511 0
M  V30 8611 C 813.532 1.21727 2.8836 0
M  V30 8612 C 814.007 1.99809 4.12117 0
M  V30 8613 N 815.498 1.97062 4.19191 0
M  V30 8614 C 816.233 2.54274 5.13938 0
M  V30 8615 N 815.729 3.20193 6.14368 0
M  V30 8616 N 817.522 2.44212 5.06277 0
M  V30 8617 H 809.673 1.71581 1.25195 0
M  V30 8618 H 811.936 0.727293 0.60807 0
M  V30 8619 H 811.642 2.28032 2.67758 0
M  V30 8620 H 811.516 0.843186 3.67655 0
M  V30 8621 H 813.903 0.172367 2.94596 0
M  V30 8622 H 813.984 1.64094 1.96232 0
M  V30 8623 H 813.628 3.0431 4.06642 0
M  V30 8624 H 813.558 1.54837 5.03322 0
M  V30 8625 H 816.049 1.49054 3.47263 0
M  V30 8626 H 816.362 3.61272 6.83156 0
M  V30 8627 H 814.707 3.24287 6.14705 0
M  V30 8628 H 817.898 1.92343 4.26757 0
M  V30 8629 H 818.071 2.89096 5.79937 0
M  V30 8630 N 811.477 -1.49425 0.500989 0
M  V30 8631 C 812.702 -2.07356 -0.0425154 0
M  V30 8632 C 813.127 -1.35887 -1.30063 0
M  V30 8633 O 812.485 -0.41561 -1.76472 0
M  V30 8634 C 812.533 -3.59518 -0.279188 0
M  V30 8635 O 811.637 -3.89542 -1.3539 0
M  V30 8636 H 810.978 -0.663482 0.0262207 0
M  V30 8637 H 813.508 -1.92231 0.700607 0
M  V30 8638 H 813.518 -4.04791 -0.5107 0
M  V30 8639 H 812.193 -4.10946 0.640009 0
M  V30 8640 H 810.77 -3.56079 -1.10734 0
M  V30 8641 N 812.955 -0.234822 -1.55841 0
M  V30 8642 C 814.183 0.397745 -2.03041 0
M  V30 8643 C 814.598 1.52405 -1.11437 0
M  V30 8644 O 813.955 1.82061 -0.126466 0
M  V30 8645 C 814.006 0.916919 -3.49678 0
M  V30 8646 O 813.727 -0.164493 -4.37791 0
M  V30 8647 C 815.228 1.62139 -4.12584 0
M  V30 8648 H 812.448 0.0959214 -0.664108 0
M  V30 8649 H 814.992 -0.355156 -2.01392 0
M  V30 8650 H 813.147 1.62004 -3.519 0
M  V30 8651 H 813.561 0.227794 -5.24005 0
M  V30 8652 H 815.035 1.93651 -5.16917 0
M  V30 8653 H 815.512 2.53918 -3.58361 0
M  V30 8654 H 816.118 0.963145 -4.14251 0
M  V30 8655 N 814.433 1.57553 0.0384317 0
M  V30 8656 C 815.38 2.05942 1.04194 0
M  V30 8657 C 816.35 0.946637 1.36484 0
M  V30 8658 O 817.535 1.21658 1.46983 0
M  V30 8659 C 814.675 2.53588 2.34066 0
M  V30 8660 C 813.788 3.7862 2.08017 0
M  V30 8661 C 812.923 4.14915 3.31692 0
M  V30 8662 C 811.962 5.32891 3.01155 0
M  V30 8663 N 811.099 5.64662 4.17254 0
M  V30 8664 H 815.939 2.91429 0.622341 0
M  V30 8665 H 813.476 1.44098 0.295684 0
M  V30 8666 H 815.434 2.79276 3.09937 0
M  V30 8667 H 814.064 1.71031 2.73767 0
M  V30 8668 H 813.116 3.60073 1.22686 0
M  V30 8669 H 814.428 4.64613 1.81484 0
M  V30 8670 H 813.582 4.41681 4.15936 0
M  V30 8671 H 812.321 3.27555 3.6133 0
M  V30 8672 H 811.326 5.05887 2.15311 0
M  V30 8673 H 812.551 6.21896 2.72804 0
M  V30 8674 H 810.497 4.80261 4.46861 0
M  V30 8675 H 810.414 6.45145 3.94112 0
M  V30 8676 H 811.682 5.96 5.02399 0
M  V30 8677 N 815.911 -0.310526 1.54511 0
M  V30 8678 C 816.874 -1.3657 1.84068 0
M  V30 8679 C 817.874 -1.44123 0.713097 0
M  V30 8680 O 819.064 -1.43924 0.981399 0
M  V30 8681 C 816.196 -2.75162 2.01243 0
M  V30 8682 H 817.389 -1.1161 2.78358 0
M  V30 8683 H 814.942 -0.546699 1.46427 0
M  V30 8684 H 815.677 -3.05359 1.09208 0
M  V30 8685 H 815.462 -2.71071 2.83307 0
M  V30 8686 H 816.952 -3.51473 2.25514 0
M  V30 8687 N 817.389 -1.46805 -0.573248 0
M  V30 8688 C 818.8 -1.46655 -1.15539 0
M  V30 8689 C 819.151 -0.2125 -1.95046 0
M  V30 8690 O 818.276 0.683759 -2.05314 0
M  V30 8691 C 818.871 -2.65711 -2.10198 0
M  V30 8692 C 817.43 -2.68572 -2.63716 0
M  V30 8693 C 816.577 -2.39498 -1.39772 0
M  V30 8694 H 819.528 -1.54547 -0.36068 0
M  V30 8695 H 819.549 -2.41768 -2.93817 0
M  V30 8696 H 819.061 -3.56967 -1.52303 0
M  V30 8697 H 817.162 -1.81414 -3.25453 0
M  V30 8698 H 817.275 -3.68809 -3.05805 0
M  V30 8699 H 815.639 -1.89749 -1.69904 0
M  V30 8700 H 816.422 -3.32942 -0.836943 0
M  V30 8701 N 818.867 0.818669 -1.34668 0
M  V30 8702 C 820.278 1.39177 -1.24446 0
M  V30 8703 C 820.629 1.9578 0.128268 0
M  V30 8704 O 819.754 1.90382 1.02877 0
M  V30 8705 C 820.349 2.53012 -2.25323 0
M  V30 8706 C 818.908 3.06218 -2.18878 0
M  V30 8707 C 818.055 1.79112 -2.11694 0
M  V30 8708 H 821.006 0.622709 -1.45973 0
M  V30 8709 H 821.027 3.31226 -1.8727 0
M  V30 8710 H 820.539 2.11784 -3.25221 0
M  V30 8711 H 818.64 3.51939 -1.22351 0
M  V30 8712 H 818.753 3.65019 -3.10319 0
M  V30 8713 H 817.117 2.0018 -1.57481 0
M  V30 8714 H 817.9 1.40053 -3.13433 0
M  V30 8715 N 820.346 1.18468 1.03938 0
M  V30 8716 C 821.757 0.984808 1.58614 0
M  V30 8717 C 822.108 -0.465165 1.90606 0
M  V30 8718 O 821.233 -1.34274 1.69704 0
M  V30 8719 C 821.828 1.78135 2.8819 0
M  V30 8720 C 820.387 1.62579 3.39478 0
M  V30 8721 C 819.534 1.77501 2.13046 0
M  V30 8722 H 822.485 1.32993 0.865944 0
M  V30 8723 H 822.506 1.27119 3.58638 0
M  V30 8724 H 822.018 2.83661 2.64874 0
M  V30 8725 H 820.119 0.59595 3.67803 0
M  V30 8726 H 820.232 2.42463 4.13217 0
M  V30 8727 H 818.596 1.2046 2.24414 0
M  V30 8728 H 819.379 2.84464 1.92185 0
M  V30 8729 N 821.824 -1.22873 0.986916 0
M  V30 8730 C 822.774 -2.2237 0.503547 0
M  V30 8731 C 823.758 -1.55186 -0.424998 0
M  V30 8732 O 824.95 -1.75186 -0.252791 0
M  V30 8733 C 822.079 -3.42794 -0.186355 0
M  V30 8734 C 821.165 -4.17196 0.762143 0
M  V30 8735 N 821.556 -4.68453 1.9075 0
M  V30 8736 C 819.854 -4.42255 0.576797 0
M  V30 8737 C 820.555 -5.25126 2.50235 0
M  V30 8738 N 819.531 -5.13437 1.7856 0
M  V30 8739 H 823.333 -2.59636 1.37718 0
M  V30 8740 H 820.847 -1.38476 0.848415 0
M  V30 8741 H 822.844 -4.13256 -0.549993 0
M  V30 8742 H 821.504 -3.07042 -1.05619 0
M  V30 8743 H 822.515 -4.64595 2.28848 0
M  V30 8744 H 819.192 -4.16766 -0.247474 0
M  V30 8745 H 820.582 -5.75363 3.46997 0
M  V30 8746 N 823.302 -0.75937 -1.38099 0
M  V30 8747 C 824.232 -0.151077 -2.33011 0
M  V30 8748 C 825.213 0.697099 -1.5516 0
M  V30 8749 O 826.398 0.637101 -1.83452 0
M  V30 8750 C 823.528 0.738423 -3.39359 0
M  V30 8751 C 822.482 -0.0074741 -4.27999 0
M  V30 8752 C 821.808 1.00066 -5.25253 0
M  V30 8753 C 823.108 -1.17926 -5.08813 0
M  V30 8754 H 824.802 -0.943933 -2.84131 0
M  V30 8755 H 822.348 -0.455362 -1.36611 0
M  V30 8756 H 824.301 1.17369 -4.04725 0
M  V30 8757 H 823.025 1.56366 -2.86735 0
M  V30 8758 H 821.684 -0.423379 -3.64147 0
M  V30 8759 H 821.332 1.82012 -4.68914 0
M  V30 8760 H 821.032 0.506199 -5.85416 0
M  V30 8761 H 822.556 1.43512 -5.93495 0
M  V30 8762 H 823.97 -0.821262 -5.67387 0
M  V30 8763 H 822.367 -1.60497 -5.78239 0
M  V30 8764 H 823.437 -1.98938 -4.42212 0
M  V30 8765 N 824.78 1.49157 -0.508906 0
M  V30 8766 C 826.191 1.86593 -0.0630975 0
M  V30 8767 C 826.542 1.42051 1.35337 0
M  V30 8768 O 825.667 0.801866 2.00995 0
M  V30 8769 C 826.262 3.38629 -0.107729 0
M  V30 8770 C 824.821 3.75336 0.282776 0
M  V30 8771 C 823.968 2.7317 -0.4768 0
M  V30 8772 H 826.919 1.41362 -0.72128 0
M  V30 8773 H 826.94 3.74271 0.685689 0
M  V30 8774 H 826.452 3.71017 -1.13876 0
M  V30 8775 H 824.553 3.48558 1.31675 0
M  V30 8776 H 824.666 4.79081 -0.0421728 0
M  V30 8777 H 823.03 2.54591 0.0743552 0
M  V30 8778 H 823.813 3.08403 -1.50807 0
M  V30 8779 N 826.258 0.243083 1.55714 0
M  V30 8780 C 827.188 -0.652336 2.24203 0
M  V30 8781 C 828.169 -1.1843 1.221 0
M  V30 8782 O 829.354 -1.22435 1.50743 0
M  V30 8783 C 826.484 -1.85111 2.93856 0
M  V30 8784 C 825.438 -1.45208 4.02615 0
M  V30 8785 C 824.764 -2.73137 4.59674 0
M  V30 8786 C 826.064 -0.625988 5.18535 0
M  V30 8787 H 827.758 -0.0812504 2.9929 0
M  V30 8788 H 825.304 -0.0376388 1.43951 0
M  V30 8789 H 827.257 -2.48314 3.40468 0
M  V30 8790 H 825.981 -2.44751 2.16251 0
M  V30 8791 H 824.64 -0.843406 3.56766 0
M  V30 8792 H 824.288 -3.30967 3.78774 0
M  V30 8793 H 823.988 -2.47163 5.33089 0
M  V30 8794 H 825.512 -3.37245 5.09017 0
M  V30 8795 H 826.926 -1.16223 5.61396 0
M  V30 8796 H 825.323 -0.462465 5.98315 0
M  V30 8797 H 826.393 0.362652 4.83542 0
M  V30 8798 N 827.736 -1.57571 -0.0300757 0
M  V30 8799 C 828.961 -1.93879 -0.736601 0
M  V30 8800 C 829.386 -0.842998 -1.68152 0
M  V30 8801 O 828.744 0.20135 -1.80178 0
M  V30 8802 C 828.792 -3.29247 -1.47066 0
M  V30 8803 O 827.896 -3.21426 -2.58378 0
M  V30 8804 H 827.237 -0.633735 -0.198181 0
M  V30 8805 H 829.767 -2.04595 0.0141485 0
M  V30 8806 H 829.777 -3.64113 -1.84081 0
M  V30 8807 H 828.452 -4.08565 -0.77764 0
M  V30 8808 H 827.029 -2.98189 -2.23914 0
M  V30 8809 N 829.214 0.302327 -1.54673 0
M  V30 8810 C 830.625 0.875409 -1.64904 0
M  V30 8811 C 830.976 1.88132 -0.55684 0
M  V30 8812 O 830.101 2.14215 0.306754 0
M  V30 8813 C 830.696 1.59457 -2.9893 0
M  V30 8814 C 829.255 2.11607 -3.11287 0
M  V30 8815 C 828.402 0.948324 -2.6058 0
M  V30 8816 H 831.353 0.079362 -1.58501 0
M  V30 8817 H 831.374 2.46005 -2.90279 0
M  V30 8818 H 830.886 0.8622 -3.78402 0
M  V30 8819 H 828.987 2.87895 -2.36532 0
M  V30 8820 H 829.1 2.35151 -4.17422 0
M  V30 8821 H 827.464 1.33352 -2.17001 0
M  V30 8822 H 828.247 0.229936 -3.42529 0
M  V30 8823 N 830.692 1.47107 0.565454 0
M  V30 8824 C 831.655 1.58535 1.65527 0
M  V30 8825 C 832.655 0.461081 1.54048 0
M  V30 8826 O 833.845 0.725911 1.58355 0
M  V30 8827 C 830.977 1.52204 3.05036 0
M  V30 8828 H 832.17 2.55676 1.56747 0
M  V30 8829 H 829.723 1.35174 0.78471 0
M  V30 8830 H 830.458 0.564071 3.19357 0
M  V30 8831 H 830.243 2.3379 3.14777 0
M  V30 8832 H 831.733 1.63322 3.84338 0
M  V30 8833 N 832.17 -0.811516 1.35101 0
M  V30 8834 C 833.1 -1.9378 1.30275 0
M  V30 8835 C 834.081 -1.69165 0.178075 0
M  V30 8836 O 835.266 -1.90599 0.372256 0
M  V30 8837 C 832.396 -3.30439 1.06899 0
M  V30 8838 C 831.35 -3.69523 2.15955 0
M  V30 8839 C 830.676 -5.0429 1.77751 0
M  V30 8840 C 831.976 -3.80419 3.57881 0
M  V30 8841 H 833.67 -1.98075 2.24514 0
M  V30 8842 H 831.216 -0.951586 1.08078 0
M  V30 8843 H 833.169 -4.08828 1.02164 0
M  V30 8844 H 831.893 -3.26473 0.0910462 0
M  V30 8845 H 830.552 -2.93416 2.19778 0
M  V30 8846 H 830.2 -4.96823 0.785876 0
M  V30 8847 H 829.9 -5.31411 2.5075 0
M  V30 8848 H 831.424 -5.85125 1.74533 0
M  V30 8849 H 832.838 -4.49051 3.56407 0
M  V30 8850 H 831.235 -4.19005 4.29598 0
M  V30 8851 H 832.305 -2.82105 3.94391 0
M  V30 8852 N 833.648 -1.19017 -1.03309 0
M  V30 8853 C 834.876 -1.01534 -1.80273 0
M  V30 8854 C 835.291 0.43605 -1.83696 0
M  V30 8855 O 834.648 1.30288 -1.27794 0
M  V30 8856 C 834.699 -1.5722 -3.25522 0
M  V30 8857 O 834.42 -2.96677 -3.22358 0
M  V30 8858 C 835.921 -1.4446 -4.19102 0
M  V30 8859 H 833.141 -0.358094 -0.567459 0
M  V30 8860 H 835.685 -1.57738 -1.3015 0
M  V30 8861 H 833.84 -1.05174 -3.7285 0
M  V30 8862 H 834.254 -3.22795 -4.13405 0
M  V30 8863 H 835.728 -1.88209 -5.18923 0
M  V30 8864 H 836.205 -0.394471 -4.37425 0
M  V30 8865 H 836.811 -1.95616 -3.77643 0
M  V30 8866 N 835.127 1.22348 -0.993418 0
M  V30 8867 C 836.543 1.43222 -0.704238 0
M  V30 8868 C 836.743 1.88009 0.724909 0
M  V30 8869 O 835.799 2.03429 1.49575 0
M  V30 8870 C 837.112 2.47328 -1.71025 0
M  V30 8871 C 838.66 2.61126 -1.72576 0
M  V30 8872 C 839.135 3.68453 -2.72041 0
M  V30 8873 N 840.626 3.75911 -2.70639 0
M  V30 8874 C 841.361 4.58551 -3.44266 0
M  V30 8875 N 840.857 5.45179 -4.27495 0
M  V30 8876 N 842.65 4.52866 -3.32969 0
M  V30 8877 H 834.801 0.915832 -1.91641 0
M  V30 8878 H 837.064 0.464283 -0.826526 0
M  V30 8879 H 836.77 2.21366 -2.73295 0
M  V30 8880 H 836.644 3.45939 -1.50353 0
M  V30 8881 H 839.031 2.86431 -0.710037 0
M  V30 8882 H 839.112 1.62787 -1.97317 0
M  V30 8883 H 838.756 3.43895 -3.73763 0
M  V30 8884 H 838.686 4.66362 -2.4457 0
M  V30 8885 H 841.177 3.14014 -2.10247 0
M  V30 8886 H 841.49 6.0526 -4.80499 0
M  V30 8887 H 839.835 5.44759 -4.31582 0
M  V30 8888 H 843.026 3.84215 -2.67389 0
M  V30 8889 H 843.199 5.17039 -3.90608 0
M  V30 8890 N 836.605 0.766683 1.37694 0
M  V30 8891 C 837.568 0.155849 2.2867 0
M  V30 8892 C 838.568 -0.633509 1.47795 0
M  V30 8893 O 839.758 -0.457844 1.68076 0
M  V30 8894 C 836.89 -0.786965 3.31692 0
M  V30 8895 H 838.083 0.957748 2.84196 0
M  V30 8896 H 835.636 0.534554 1.46875 0
M  V30 8897 H 836.371 -1.61406 2.8128 0
M  V30 8898 H 836.156 -0.223182 3.91464 0
M  V30 8899 H 837.646 -1.20994 3.99688 0
M  V30 8900 N 838.083 -1.48885 0.516809 0
M  V30 8901 C 839.329 -2.02788 -0.0220928 0
M  V30 8902 C 839.662 -1.39433 -1.35175 0
M  V30 8903 O 838.937 -0.535459 -1.86984 0
M  V30 8904 C 839.22 -3.59753 -0.158012 0
M  V30 8905 C 839.073 -4.33611 1.19588 0
M  V30 8906 C 840.392 -4.30984 -0.891133 0
M  V30 8907 H 837.511 -0.736971 -0.00655488 0
M  V30 8908 H 840.153 -1.77746 0.671287 0
M  V30 8909 H 838.303 -3.8122 -0.748568 0
M  V30 8910 H 839.975 -4.23598 1.82653 0
M  V30 8911 H 838.218 -3.95547 1.78116 0
M  V30 8912 H 838.889 -5.41846 1.05391 0
M  V30 8913 H 841.365 -4.14267 -0.39012 0
M  V30 8914 H 840.241 -5.40527 -0.955107 0
M  V30 8915 H 840.502 -3.97336 -1.93847 0
M  V30 8916 N 839.561 -0.251338 -1.55583 0
M  V30 8917 C 840.471 0.656978 -2.25213 0
M  V30 8918 C 841.487 1.18966 -1.26977 0
M  V30 8919 O 842.663 1.22499 -1.59862 0
M  V30 8920 C 839.728 1.83527 -2.94141 0
M  V30 8921 C 838.789 1.34162 -4.07798 0
M  V30 8922 C 838.022 2.46375 -4.73429 0
M  V30 8923 O 838.245 3.65205 -4.38157 0
M  V30 8924 O 837.179 2.15881 -5.61853 0
M  V30 8925 H 841.005 0.0936395 -3.03556 0
M  V30 8926 H 838.59 -0.0196638 -1.49387 0
M  V30 8927 H 840.472 2.52279 -3.3754 0
M  V30 8928 H 839.147 2.38614 -2.18735 0
M  V30 8929 H 838.054 0.621249 -3.68906 0
M  V30 8930 H 839.387 0.836779 -4.85035 0
M  V30 8931 N 841.039 1.57585 0.0217189 0
M  V30 8932 C 842.287 1.89231 0.709641 0
M  V30 8933 C 842.608 0.849964 1.75501 0
M  V30 8934 O 841.878 -0.115485 1.95559 0
M  V30 8935 H 840.458 0.69838 0.265092 0
M  V30 8936 H 843.12 1.94895 -0.0140688 0
M  V30 8937 H 842.216 2.88333 1.19459 0
M  V30 8938 N 842.517 -0.29412 1.54831 0
M  V30 8939 C 843.763 -1.02999 1.74697 0
M  V30 8940 C 844.096 -1.86687 0.534949 0
M  V30 8941 O 843.371 -1.88789 -0.467863 0
M  V30 8942 C 843.654 -1.93024 3.03996 0
M  V30 8943 C 843.507 -1.1247 4.35512 0
M  V30 8944 C 844.826 -2.92085 3.29203 0
M  V30 8945 H 841.945 -0.373039 0.635618 0
M  V30 8946 H 844.587 -0.304065 1.87551 0
M  V30 8947 H 842.737 -2.5492 2.93169 0
M  V30 8948 H 844.409 -0.528067 4.58268 0
M  V30 8949 H 842.652 -0.427574 4.31688 0
M  V30 8950 H 843.323 -1.78728 5.22265 0
M  V30 8951 H 845.799 -2.40319 3.39685 0
M  V30 8952 H 844.675 -3.52234 4.20978 0
M  V30 8953 H 844.936 -3.66107 2.47827 0
M  V30 8954 N 843.995 -1.47404 -0.557645 0
M  V30 8955 C 844.927 -1.55917 -1.67995 0
M  V30 8956 C 845.94 -0.445411 -1.56588 0
M  V30 8957 O 847.129 -0.714999 -1.63554 0
M  V30 8958 C 844.229 -1.44697 -3.06457 0
M  V30 8959 C 843.402 -2.70633 -3.43622 0
M  V30 8960 C 842.461 -2.53256 -4.61246 0
M  V30 8961 O 841.487 -3.27068 -4.65849 0
M  V30 8962 N 842.689 -1.61053 -5.57711 0
M  V30 8963 H 845.454 -2.52694 -1.61139 0
M  V30 8964 H 843.015 -1.43778 -0.744271 0
M  V30 8965 H 845.007 -1.30806 -3.82978 0
M  V30 8966 H 843.577 -0.560039 -3.07542 0
M  V30 8967 H 842.797 -2.99288 -2.56555 0
M  V30 8968 H 844.085 -3.5424 -3.65228 0
M  V30 8969 H 843.483 -1.00235 -5.56749 0
M  V30 8970 H 842.04 -1.53115 -6.33561 0
M  V30 8971 N 845.473 0.80434 -1.35529 0
M  V30 8972 C 846.703 1.59052 -1.31856 0
M  V30 8973 C 847.111 1.88905 0.105549 0
M  V30 8974 O 846.454 1.49422 1.06858 0
M  V30 8975 C 846.516 2.94626 -2.06 0
M  V30 8976 C 846.18 2.87576 -3.55175 0
M  V30 8977 C 847.177 2.60856 -4.49722 0
M  V30 8978 C 844.862 3.06623 -3.97854 0
M  V30 8979 C 846.856 2.53262 -5.84925 0
M  V30 8980 C 844.543 2.98652 -5.33151 0
M  V30 8981 C 845.541 2.72007 -6.26499 0
M  V30 8982 O 845.229 2.64003 -7.59314 0
M  V30 8983 H 844.961 0.500486 -0.454411 0
M  V30 8984 H 847.515 1.0074 -1.78999 0
M  V30 8985 H 845.745 3.5493 -1.53498 0
M  V30 8986 H 847.434 3.55785 -1.95376 0
M  V30 8987 H 848.2 2.45858 -4.18066 0
M  V30 8988 H 844.079 3.26372 -3.2558 0
M  V30 8989 H 847.623 2.32386 -6.57756 0
M  V30 8990 H 843.52 3.13208 -5.64421 0
M  V30 8991 H 844.288 2.79595 -7.69265 0
M  V30 8992 N 846.951 1.19563 1.02676 0
M  V30 8993 C 848.2 0.993864 1.75514 0
M  V30 8994 C 848.513 -0.475882 1.89723 0
M  V30 8995 O 849.719 -0.796525 2.59553 0
M  V30 8996 C 848.175 1.72937 3.15628 0
M  V30 8997 C 847.783 3.23937 3.09466 0
M  V30 8998 C 849.527 1.61092 3.92746 0
M  V30 8999 C 847.434 3.90067 4.44524 0
M  V30 9000 H 846.364 0.368244 0.657961 0
M  V30 9001 H 849.015 1.43081 1.14891 0
M  V30 9002 H 847.397 1.22025 3.76731 0
M  V30 9003 H 848.571 3.81983 2.57731 0
M  V30 9004 H 846.886 3.3608 2.45843 0
M  V30 9005 H 849.483 2.07848 4.92649 0
M  V30 9006 H 849.826 0.565415 4.12442 0
M  V30 9007 H 850.359 2.09361 3.3825 0
M  V30 9008 H 847.098 4.94725 4.30032 0
M  V30 9009 H 846.618 3.36809 4.96306 0
M  V30 9010 H 848.297 3.93736 5.13401 0
M  V30 9011 N 848.429 -1.21819 0.999893 0
M  V30 9012 C 849.392 -2.22227 0.561044 0
M  V30 9013 C 850.392 -1.56722 -0.359858 0
M  V30 9014 O 851.582 -1.73546 -0.150848 0
M  V30 9015 C 848.714 -3.40409 -0.182987 0
M  V30 9016 H 849.907 -2.62567 1.44909 0
M  V30 9017 H 847.46 -1.34991 0.78785 0
M  V30 9018 H 848.195 -3.05551 -1.08671 0
M  V30 9019 H 847.98 -3.89171 0.47833 0
M  V30 9020 H 849.47 -4.14856 -0.477952 0
M  V30 9021 N 849.908 -0.773975 -1.37286 0
M  V30 9022 C 851.185 -0.263942 -1.93811 0
M  V30 9023 C 851.565 1.24138 -1.70743 0
M  V30 9024 O 850.913 2.02557 -1.05749 0
M  V30 9025 C 851.123 -0.639753 -3.43086 0
M  V30 9026 C 852.471 -0.610796 -4.20184 0
M  V30 9027 O 853.495 -0.579278 -3.51458 0
M  V30 9028 O 852.354 -0.639862 -5.42741 0
M  V30 9029 H 849.448 -0.0614331 -0.824715 0
M  V30 9030 H 851.994 -0.855477 -1.46559 0
M  V30 9031 H 850.766 -1.67856 -3.53469 0
M  V30 9032 H 850.389 -0.0212827 -3.97594 0
M  V30 9033 N 851.386 1.48609 -0.524698 0
M  V30 9034 C 852.336 2.26505 0.260696 0
M  V30 9035 C 853.32 1.32378 0.914597 0
M  V30 9036 O 854.512 1.5695 0.818277 0
M  V30 9037 C 851.641 3.17313 1.31024 0
M  V30 9038 C 850.727 4.18911 0.661391 0
M  V30 9039 N 851.118 5.05183 -0.24981 0
M  V30 9040 C 849.416 4.36425 0.91922 0
M  V30 9041 C 850.117 5.78348 -0.623598 0
M  V30 9042 N 849.093 5.43598 0.0140839 0
M  V30 9043 H 852.895 2.90582 -0.440388 0
M  V30 9044 H 850.409 1.5875 -0.342364 0
M  V30 9045 H 852.406 3.71772 1.88656 0
M  V30 9046 H 851.066 2.54791 2.01275 0
M  V30 9047 H 852.077 5.1415 -0.622093 0
M  V30 9048 H 848.754 3.85095 1.6127 0
M  V30 9049 H 850.144 6.57775 -1.37046 0
M  V30 9050 N 852.864 0.259585 1.55447 0
M  V30 9051 C 853.794 -0.62852 2.24882 0
M  V30 9052 C 854.775 -1.17128 1.23349 0
M  V30 9053 O 855.96 -1.20829 1.52033 0
M  V30 9054 C 853.09 -1.81983 2.95803 0
M  V30 9055 C 852.044 -1.40929 4.04132 0
M  V30 9056 C 851.37 -2.68246 4.62545 0
M  V30 9057 C 852.67 -0.570956 5.1917 0
M  V30 9058 H 854.364 -0.0495021 2.99359 0
M  V30 9059 H 851.91 -0.0223688 1.43983 0
M  V30 9060 H 853.863 -2.44689 3.43082 0
M  V30 9061 H 852.587 -2.42444 2.18835 0
M  V30 9062 H 851.246 -0.805519 3.57641 0
M  V30 9063 H 850.894 -3.26931 3.82263 0
M  V30 9064 H 850.594 -2.41495 5.35681 0
M  V30 9065 H 852.118 -3.31827 5.12565 0
M  V30 9066 H 853.532 -1.10262 5.62597 0
M  V30 9067 H 851.929 -0.398979 5.98772 0
M  V30 9068 H 852.999 0.413918 4.8313 0
M  V30 9069 N 854.342 -1.57594 -0.0133615 0
M  V30 9070 C 855.289 -2.07574 -1.00905 0
M  V30 9071 C 856.259 -0.968231 -1.34961 0
M  V30 9072 O 857.444 -1.23981 -1.45028 0
M  V30 9073 C 854.584 -2.5728 -2.30002 0
M  V30 9074 C 853.697 -3.81881 -2.01967 0
M  V30 9075 C 852.832 -4.20139 -3.25049 0
M  V30 9076 C 851.871 -5.37614 -2.92639 0
M  V30 9077 N 851.008 -5.71229 -4.08218 0
M  V30 9078 H 855.848 -2.92382 -0.575899 0
M  V30 9079 H 853.385 -1.4455 -0.272722 0
M  V30 9080 H 855.343 -2.84171 -3.05454 0
M  V30 9081 H 853.973 -1.75365 -2.71011 0
M  V30 9082 H 853.025 -3.61979 -1.16942 0
M  V30 9083 H 854.337 -4.67441 -1.74069 0
M  V30 9084 H 853.491 -4.48242 -4.08857 0
M  V30 9085 H 852.23 -3.33262 -3.56073 0
M  V30 9086 H 851.235 -5.09248 -2.07235 0
M  V30 9087 H 852.46 -6.26157 -2.62876 0
M  V30 9088 H 850.406 -4.8731 -4.39164 0
M  V30 9089 H 850.323 -6.51333 -3.83799 0
M  V30 9090 H 851.591 -6.03917 -4.92854 0
M  V30 9091 N 855.82 0.285905 -1.54985 0
M  V30 9092 C 856.783 1.33625 -1.86218 0
M  V30 9093 C 857.783 1.42971 -0.735936 0
M  V30 9094 O 858.973 1.42345 -1.00417 0
M  V30 9095 C 856.105 2.71926 -2.05595 0
M  V30 9096 H 857.298 1.07167 -2.80099 0
M  V30 9097 H 854.851 0.523335 -1.47278 0
M  V30 9098 H 855.586 3.03583 -1.14053 0
M  V30 9099 H 855.371 2.6653 -2.87583 0
M  V30 9100 H 856.861 3.47841 -2.31077 0
M  V30 9101 N 857.298 1.47698 0.54982 0
M  V30 9102 C 858.208 1.63386 1.68351 0
M  V30 9103 C 859.224 0.516583 1.66155 0
M  V30 9104 O 860.4 0.785088 1.85468 0
M  V30 9105 C 857.465 1.6513 3.04849 0
M  V30 9106 C 856.526 2.88338 3.18056 0
M  V30 9107 C 855.759 2.8999 4.48042 0
M  V30 9108 O 855.982 2.00633 5.3395 0
M  V30 9109 O 854.916 3.81938 4.65196 0
M  V30 9110 H 858.742 2.59329 1.58057 0
M  V30 9111 H 856.327 1.30869 0.72067 0
M  V30 9112 H 858.209 1.68913 3.86065 0
M  V30 9113 H 856.884 0.723555 3.1551 0
M  V30 9114 H 855.791 2.90097 2.36209 0
M  V30 9115 H 857.124 3.80431 3.12302 0
M  V30 9116 N 858.776 -0.797141 1.35954 0
M  V30 9117 C 860.053 -1.54224 1.2031 0
M  V30 9118 C 860.433 -2.10013 -0.213926 0
M  V30 9119 O 859.781 -1.93292 -1.21862 0
M  V30 9120 C 859.991 -2.6433 2.27883 0
M  V30 9121 C 861.339 -3.32418 2.64165 0
M  V30 9122 O 862.363 -2.74607 2.26868 0
M  V30 9123 O 861.222 -4.36876 3.28331 0
M  V30 9124 H 858.316 -0.681857 0.467974 0
M  V30 9125 H 860.862 -0.836288 1.47663 0
M  V30 9126 H 859.634 -2.21044 3.22885 0
M  V30 9127 H 859.257 -3.42551 2.01853 0
M  V30 9128 N 860.254 -1.20106 -1.0204 0
M  V30 9129 C 861.482 -1.0344 -1.79186 0
M  V30 9130 C 861.897 0.416542 -1.84148 0
M  V30 9131 O 861.254 1.28925 -1.29168 0
M  V30 9132 C 861.305 -1.60663 -3.23836 0
M  V30 9133 O 861.026 -3.00079 -3.19193 0
M  V30 9134 C 862.527 -1.48897 -4.17546 0
M  V30 9135 H 859.747 -0.364093 -0.563629 0
M  V30 9136 H 862.291 -1.5911 -1.28469 0
M  V30 9137 H 860.446 -1.09122 -3.71714 0
M  V30 9138 H 860.86 -3.27162 -4.09958 0
M  V30 9139 H 862.334 -1.93703 -5.16898 0
M  V30 9140 H 862.811 -0.440843 -4.36982 0
M  V30 9141 H 863.417 -1.9961 -3.75547 0
M  V30 9142 N 861.732 1.21287 -1.00634 0
M  V30 9143 C 863.009 1.86 -0.605257 0
M  V30 9144 C 863.389 1.90139 0.917072 0
M  V30 9145 O 862.737 1.40169 1.80458 0
M  V30 9146 C 862.947 3.26183 -1.24119 0
M  V30 9147 C 864.295 4.02562 -1.35015 0
M  V30 9148 O 865.319 3.35499 -1.19661 0
M  V30 9149 O 864.178 5.22638 -1.59726 0
M  V30 9150 H 861.272 0.800549 -0.207486 0
M  V30 9151 H 863.818 1.28959 -1.10307 0
M  V30 9152 H 862.59 3.17878 -2.28186 0
M  V30 9153 H 862.213 3.90845 -0.729807 0
M  V30 9154 N 863.21 0.781244 1.36873 0
M  V30 9155 C 864.457 0.349889 1.99454 0
M  V30 9156 C 864.785 -1.07621 1.62013 0
M  V30 9157 O 864.04 -1.75665 0.86258 0
M  V30 9158 C 864.339 0.45146 3.54537 0
M  V30 9159 C 864.005 1.83718 4.11775 0
M  V30 9160 C 862.667 2.21634 4.2712 0
M  V30 9161 C 865.019 2.7449 4.43063 0
M  V30 9162 C 862.347 3.49742 4.7106 0
M  V30 9163 C 864.699 4.02017 4.88431 0
M  V30 9164 C 863.363 4.39967 5.01982 0
M  V30 9165 H 862.633 0.128033 0.729855 0
M  V30 9166 H 865.28 0.997117 1.63493 0
M  V30 9167 H 863.585 -0.279288 3.90803 0
M  V30 9168 H 865.282 0.0988609 4.00878 0
M  V30 9169 H 861.872 1.53251 4.00265 0
M  V30 9170 H 866.056 2.46453 4.30783 0
M  V30 9171 H 861.312 3.79026 4.79738 0
M  V30 9172 H 865.486 4.72475 5.11605 0
M  V30 9173 H 863.113 5.39291 5.35788 0
M  V30 9174 N 864.689 -1.48329 0.532571 0
M  V30 9175 C 865.914 -2.074 0.00147755 0
M  V30 9176 C 866.339 -1.38615 -1.27151 0
M  V30 9177 O 865.697 -0.452949 -1.75551 0
M  V30 9178 C 865.745 -3.60029 -0.202866 0
M  V30 9179 O 864.849 -3.92327 -1.27097 0
M  V30 9180 H 864.19 -0.662777 0.0402883 0
M  V30 9181 H 866.72 -1.90701 0.741224 0
M  V30 9182 H 866.73 -4.05783 -0.424722 0
M  V30 9183 H 865.405 -4.09496 0.727033 0
M  V30 9184 H 863.982 -3.58348 -1.03156 0
M  V30 9185 N 866.167 -0.267825 -1.55308 0
M  V30 9186 C 867.413 0.351556 -1.9973 0
M  V30 9187 C 867.746 1.56049 -1.15596 0
M  V30 9188 O 867.021 1.93203 -0.224274 0
M  V30 9189 C 867.304 0.74091 -3.52395 0
M  V30 9190 C 867.157 -0.474861 -4.47286 0
M  V30 9191 C 868.476 1.5801 -4.10756 0
M  V30 9192 H 865.595 0.126308 -0.726096 0
M  V30 9193 H 868.237 -0.373316 -1.86296 0
M  V30 9194 H 866.387 1.35851 -3.63973 0
M  V30 9195 H 868.059 -1.1134 -4.47662 0
M  V30 9196 H 866.302 -1.11425 -4.19246 0
M  V30 9197 H 866.973 -0.158782 -5.51772 0
M  V30 9198 H 869.449 1.05857 -4.0241 0
M  V30 9199 H 868.325 1.82135 -5.17801 0
M  V30 9200 H 868.586 2.55878 -3.60526 0
M  V30 9201 N 867.645 1.57599 0.00500368 0
M  V30 9202 C 868.592 2.08106 0.998025 0
M  V30 9203 C 869.562 0.975374 1.34446 0
M  V30 9204 O 870.747 1.24749 1.44369 0
M  V30 9205 C 867.887 2.58496 2.28635 0
M  V30 9206 C 867 3.82947 1.99939 0
M  V30 9207 C 866.135 4.21857 3.22816 0
M  V30 9208 C 865.174 5.39159 2.89783 0
M  V30 9209 N 864.311 5.73386 4.05183 0
M  V30 9210 H 869.151 2.92684 0.560385 0
M  V30 9211 H 866.688 1.44692 0.265053 0
M  V30 9212 H 868.646 2.85787 3.03943 0
M  V30 9213 H 867.276 1.768 2.70077 0
M  V30 9214 H 866.328 3.62594 1.1502 0
M  V30 9215 H 867.64 4.68358 1.71588 0
M  V30 9216 H 866.794 4.50404 4.06474 0
M  V30 9217 H 865.533 3.35145 3.54301 0
M  V30 9218 H 864.538 5.1034 2.04532 0
M  V30 9219 H 865.763 6.27543 2.59551 0
M  V30 9220 H 863.709 4.89632 4.36574 0
M  V30 9221 H 863.626 6.53359 3.80339 0
M  V30 9222 H 864.894 6.06522 4.89644 0
M  V30 9223 N 869.123 -0.277682 1.55134 0
M  V30 9224 C 870.033 -1.36524 1.90783 0
M  V30 9225 C 871.049 -1.54283 0.804542 0
M  V30 9226 O 872.225 -1.68499 1.10318 0
M  V30 9227 C 869.29 -2.70524 2.16835 0
M  V30 9228 C 868.351 -2.61552 3.40424 0
M  V30 9229 C 867.584 -3.89162 3.65224 0
M  V30 9230 O 867.807 -4.89624 2.92616 0
M  V30 9231 O 866.741 -3.89647 4.58758 0
M  V30 9232 H 870.567 -1.0929 2.83354 0
M  V30 9233 H 868.152 -0.475799 1.41621 0
M  V30 9234 H 870.034 -3.49765 2.35038 0
M  V30 9235 H 868.709 -2.97555 1.27448 0
M  V30 9236 H 867.616 -1.80704 3.27562 0
M  V30 9237 H 868.949 -2.39472 4.30016 0
M  V30 9238 N 870.601 -1.47988 -0.541979 0
M  V30 9239 C 871.878 -1.45878 -1.30303 0
M  V30 9240 C 872.258 -0.163931 -2.10463 0
M  V30 9241 O 871.606 0.854479 -2.11922 0
M  V30 9242 C 871.816 -2.71359 -2.19466 0
M  V30 9243 C 873.164 -3.19199 -2.79995 0
M  V30 9244 O 874.188 -2.72193 -2.2976 0
M  V30 9245 O 873.047 -4.00961 -3.71339 0
M  V30 9246 H 870.141 -0.582043 -0.587498 0
M  V30 9247 H 872.687 -1.60207 -0.559623 0
M  V30 9248 H 871.459 -3.57122 -1.59936 0
M  V30 9249 H 871.082 -2.59692 -3.01075 0
M  V30 9250 N 872.079 0.78992 -1.36375 0
M  V30 9251 C 873.325 1.54939 -1.31778 0
M  V30 9252 C 873.68 1.92128 0.102327 0
M  V30 9253 O 872.973 1.59823 1.05675 0
M  V30 9254 C 873.167 2.83698 -2.17371 0
M  V30 9255 C 872.996 2.59093 -3.67561 0
M  V30 9256 C 871.766 2.5414 -4.36739 0
M  V30 9257 C 873.964 2.28325 -4.60838 0
M  V30 9258 N 871.946 2.21427 -5.72576 0
M  V30 9259 C 873.317 2.05596 -5.84919 0
M  V30 9260 C 875.372 2.14328 -4.49409 0
M  V30 9261 C 874.075 1.70285 -6.98853 0
M  V30 9262 C 876.101 1.80415 -5.63209 0
M  V30 9263 C 875.463 1.58533 -6.86328 0
M  V30 9264 H 871.562 0.568011 -0.537483 0
M  V30 9265 H 874.146 0.923183 -1.71422 0
M  V30 9266 H 872.317 3.44187 -1.79972 0
M  V30 9267 H 874.049 3.49425 -2.04167 0
M  V30 9268 H 870.804 2.69368 -3.89535 0
M  V30 9269 H 871.228 2.07818 -6.44314 0
M  V30 9270 H 875.87 2.29935 -3.54809 0
M  V30 9271 H 873.588 1.53415 -7.93404 0
M  V30 9272 H 877.174 1.70269 -5.56327 0
M  V30 9273 H 876.054 1.32677 -7.72895 0
M  V30 9274 N 873.557 1.20646 1.01402 0
M  V30 9275 C 874.504 0.957618 2.09996 0
M  V30 9276 C 875.474 -0.113115 1.65714 0
M  V30 9277 O 876.659 0.032142 1.90773 0
M  V30 9278 C 873.799 0.5186 3.41181 0
M  V30 9279 C 872.912 1.65777 3.98926 0
M  V30 9280 C 872.047 1.16881 5.18182 0
M  V30 9281 C 871.086 2.2809 5.68015 0
M  V30 9282 N 870.223 1.80392 6.7853 0
M  V30 9283 H 875.063 1.88732 2.30617 0
M  V30 9284 H 872.6 0.940703 1.13089 0
M  V30 9285 H 874.558 0.245367 4.16478 0
M  V30 9286 H 873.188 -0.3741 3.20625 0
M  V30 9287 H 872.24 2.04586 3.207 0
M  V30 9288 H 873.552 2.49507 4.31912 0
M  V30 9289 H 872.706 0.851694 6.00692 0
M  V30 9290 H 871.445 0.301434 4.86768 0
M  V30 9291 H 870.45 2.60614 4.84108 0
M  V30 9292 H 871.675 3.15308 6.01463 0
M  V30 9293 H 869.621 0.959856 6.4894 0
M  V30 9294 H 869.538 2.57701 7.10722 0
M  V30 9295 H 870.806 1.51688 7.64598 0
M  V30 9296 N 875.035 -1.20752 1.01276 0
M  V30 9297 C 876.265 -1.93725 0.717934 0
M  V30 9298 C 876.673 -1.74769 -0.724732 0
M  V30 9299 O 876.016 -1.05642 -1.50285 0
M  V30 9300 C 876.078 -3.46196 0.968954 0
M  V30 9301 C 875.742 -3.88909 2.39998 0
M  V30 9302 C 876.739 -3.94982 3.38061 0
M  V30 9303 C 874.424 -4.21006 2.7397 0
M  V30 9304 C 876.418 -4.32558 4.68159 0
M  V30 9305 C 874.105 -4.58257 4.04282 0
M  V30 9306 C 875.103 -4.64004 5.01187 0
M  V30 9307 O 874.791 -5.00403 6.29168 0
M  V30 9308 H 874.523 -0.622663 0.263186 0
M  V30 9309 H 877.077 -1.54299 1.35577 0
M  V30 9310 H 875.307 -3.85728 0.273952 0
M  V30 9311 H 876.996 -4.00394 0.666312 0
M  V30 9312 H 877.762 -3.70353 3.13151 0
M  V30 9313 H 873.641 -4.15725 1.99233 0
M  V30 9314 H 877.185 -4.36959 5.43795 0
M  V30 9315 H 873.082 -4.82341 4.28973 0
M  V30 9316 H 873.85 -5.18409 6.33399 0
M  V30 9317 N 876.513 -0.788492 -1.36457 0
M  V30 9318 C 877.759 -0.360995 -1.99561 0
M  V30 9319 C 878.092 1.06433 -1.62437 0
M  V30 9320 O 877.367 1.7352 -0.878705 0
M  V30 9321 C 877.65 -0.523735 -3.56271 0
M  V30 9322 C 877.503 -1.99268 -4.03252 0
M  V30 9323 C 878.822 0.0617908 -4.40057 0
M  V30 9324 H 875.941 -0.13264 -0.724966 0
M  V30 9325 H 878.583 -0.994659 -1.61884 0
M  V30 9326 H 876.733 0.0156979 -3.88497 0
M  V30 9327 H 878.405 -2.59311 -3.81518 0
M  V30 9328 H 876.648 -2.49561 -3.54826 0
M  V30 9329 H 877.319 -2.05752 -5.12221 0
M  V30 9330 H 879.795 -0.398674 -4.14186 0
M  V30 9331 H 878.671 -0.0821089 -5.48839 0
M  V30 9332 H 878.932 1.15381 -4.26778 0
M  V30 9333 N 877.991 1.48044 -0.54043 0
M  V30 9334 C 878.954 2.28273 0.205966 0
M  V30 9335 C 879.954 1.35983 0.858209 0
M  V30 9336 O 881.144 1.58776 0.716651 0
M  V30 9337 C 878.276 3.15174 1.29917 0
M  V30 9338 H 879.469 2.95727 -0.498555 0
M  V30 9339 H 877.022 1.53457 -0.296745 0
M  V30 9340 H 877.757 2.52374 2.03661 0
M  V30 9341 H 877.542 3.83074 0.836475 0
M  V30 9342 H 879.032 3.75666 1.82387 0
M  V30 9343 N 879.47 0.276058 1.55163 0
M  V30 9344 C 880.403 -0.652386 2.18676 0
M  V30 9345 C 881.381 -1.15151 1.148 0
M  V30 9346 O 882.565 -1.22431 1.43328 0
M  V30 9347 C 879.692 -1.88982 2.81076 0
M  V30 9348 C 878.738 -1.52609 3.98262 0
M  V30 9349 S 879.571 -0.603445 5.32089 0
M  V30 9350 C 880.727 -1.84923 5.97958 0
M  V30 9351 H 880.96 -0.112733 2.97086 0
M  V30 9352 H 878.493 0.0603118 1.54282 0
M  V30 9353 H 880.451 -2.60007 3.17658 0
M  V30 9354 H 879.112 -2.40061 2.02557 0
M  V30 9355 H 878.305 -2.44689 4.40617 0
M  V30 9356 H 877.907 -0.89601 3.63108 0
M  V30 9357 H 880.199 -2.79303 6.17249 0
M  V30 9358 H 881.142 -1.46868 6.92702 0
M  V30 9359 H 881.55 -2.0146 5.27327 0
M  V30 9360 N 880.948 -1.576 0.00335426 0
M  V30 9361 C 882.194 -1.90996 -0.681799 0
M  V30 9362 C 882.527 -0.877643 -1.73237 0
M  V30 9363 O 881.802 0.103183 -1.94226 0
M  V30 9364 C 882.085 -3.34961 -1.32187 0
M  V30 9365 C 881.938 -4.48911 -0.28261 0
M  V30 9366 C 883.257 -3.78408 -2.24711 0
M  V30 9367 H 880.376 -0.694596 -0.246386 0
M  V30 9368 H 883.018 -1.89919 0.055336 0
M  V30 9369 H 881.168 -3.36008 -1.95014 0
M  V30 9370 H 882.84 -4.59999 0.346241 0
M  V30 9371 H 881.083 -4.32 0.394768 0
M  V30 9372 H 881.754 -5.46609 -0.769576 0
M  V30 9373 H 884.23 -3.78934 -1.71897 0
M  V30 9374 H 883.106 -4.79885 -2.66461 0
M  V30 9375 H 883.367 -3.12464 -3.1276 0
M  V30 9376 N 882.426 0.269451 -1.5528 0
M  V30 9377 C 883.675 0.998381 -1.75258 0
M  V30 9378 C 883.988 1.87321 -0.563034 0
M  V30 9379 O 885.194 2.63719 -0.645313 0
M  V30 9380 C 883.65 1.82505 -3.10193 0
M  V30 9381 C 883.258 0.99871 -4.36726 0
M  V30 9382 C 885.002 2.54807 -3.3952 0
M  V30 9383 C 882.909 1.81997 -5.627 0
M  V30 9384 H 881.839 0.376488 -0.653278 0
M  V30 9385 H 884.49 0.253909 -1.81735 0
M  V30 9386 H 882.872 2.61061 -2.97763 0
M  V30 9387 H 884.046 0.257064 -4.60082 0
M  V30 9388 H 882.361 0.390074 -4.14569 0
M  V30 9389 H 884.958 3.16662 -4.30847 0
M  V30 9390 H 885.301 3.25273 -2.59813 0
M  V30 9391 H 885.834 1.83278 -3.53064 0
M  V30 9392 H 882.573 1.15945 -6.45164 0
M  V30 9393 H 882.093 2.53749 -5.43481 0
M  V30 9394 H 883.772 2.39274 -6.0113 0
M  V30 9395 N 883.904 1.48273 0.534124 0
M  V30 9396 C 885.181 1.46567 1.29528 0
M  V30 9397 C 885.561 0.17509 2.10373 0
M  V30 9398 O 884.909 -0.843228 2.12372 0
M  V30 9399 C 885.119 2.72519 2.18023 0
M  V30 9400 C 886.467 3.2068 2.78298 0
M  V30 9401 O 887.491 2.73408 2.28313 0
M  V30 9402 O 886.35 4.02924 3.69208 0
M  V30 9403 H 883.444 0.585151 0.584403 0
M  V30 9404 H 885.99 1.60502 0.551119 0
M  V30 9405 H 884.762 3.57965 1.5804 0
M  V30 9406 H 884.385 2.61285 2.99693 0
M  V30 9407 N 885.382 -0.782676 1.36792 0
M  V30 9408 C 886.798 -1.08169 1.17352 0
M  V30 9409 C 886.998 -2.015 0.0022037 0
M  V30 9410 O 886.054 -2.43692 -0.661093 0
M  V30 9411 C 887.367 -1.68969 2.48737 0
M  V30 9412 C 888.915 -1.81278 2.55161 0
M  V30 9413 C 889.39 -2.45492 3.86649 0
M  V30 9414 N 890.881 -2.52954 3.88032 0
M  V30 9415 C 891.616 -3.03465 4.86515 0
M  V30 9416 N 891.112 -3.54232 5.95392 0
M  V30 9417 N 892.905 -3.02239 4.73928 0
M  V30 9418 H 885.056 -0.162757 2.11775 0
M  V30 9419 H 887.319 -0.134823 0.938364 0
M  V30 9420 H 887.025 -1.07859 3.34753 0
M  V30 9421 H 886.899 -2.68397 2.65034 0
M  V30 9422 H 889.286 -2.41524 1.69559 0
M  V30 9423 H 889.367 -0.806367 2.42758 0
M  V30 9424 H 889.011 -1.85889 4.7266 0
M  V30 9425 H 888.941 -3.46718 3.96351 0
M  V30 9426 H 891.432 -2.17014 3.09376 0
M  V30 9427 H 891.745 -3.91145 6.66503 0
M  V30 9428 H 890.09 -3.52366 5.99052 0
M  V30 9429 H 893.281 -2.61871 3.87996 0
M  V30 9430 H 893.454 -3.41295 5.50837 0
M  V30 9431 N 886.86 -1.21182 -1.00761 0
M  V30 9432 C 888.109 -1.02166 -1.73911 0
M  V30 9433 C 888.422 0.445638 -1.90456 0
M  V30 9434 O 889.628 0.755132 -2.60787 0
M  V30 9435 C 888.084 -1.77936 -3.12837 0
M  V30 9436 C 887.692 -3.28819 -3.04273 0
M  V30 9437 C 889.436 -1.67319 -3.90134 0
M  V30 9438 C 887.343 -3.97089 -4.38262 0
M  V30 9439 H 886.273 -0.378665 -0.652019 0
M  V30 9440 H 888.924 -1.44891 -1.12601 0
M  V30 9441 H 887.306 -1.28003 -3.74742 0
M  V30 9442 H 888.48 -3.86035 -2.51622 0
M  V30 9443 H 886.795 -3.39949 -2.40465 0
M  V30 9444 H 889.392 -2.15659 -4.8928 0
M  V30 9445 H 889.735 -0.630959 -4.11491 0
M  V30 9446 H 890.268 -2.14716 -3.34876 0
M  V30 9447 H 887.007 -5.01503 -4.22107 0
M  V30 9448 H 886.527 -3.44662 -4.90885 0
M  V30 9449 H 888.206 -4.01854 -5.07072 0
M  V30 9450 N 888.338 1.20213 -1.01915 0
M  V30 9451 C 889.585 1.89647 -0.709955 0
M  V30 9452 C 889.913 1.7901 0.760631 0
M  V30 9453 O 889.168 1.17028 1.56853 0
M  V30 9454 C 889.467 3.40232 -1.09438 0
M  V30 9455 C 889.133 3.7107 -2.5616 0
M  V30 9456 C 887.795 3.79196 -2.96249 0
M  V30 9457 C 890.147 3.85169 -3.51133 0
M  V30 9458 C 887.475 3.98882 -4.30244 0
M  V30 9459 C 889.827 4.06365 -4.8482 0
M  V30 9460 C 888.491 4.12722 -5.24611 0
M  V30 9461 H 887.761 0.693967 -0.259791 0
M  V30 9462 H 890.408 1.42419 -1.2802 0
M  V30 9463 H 888.713 3.89292 -0.442596 0
M  V30 9464 H 890.41 3.92257 -0.832811 0
M  V30 9465 H 887 3.65346 -2.24099 0
M  V30 9466 H 891.184 3.78243 -3.21319 0
M  V30 9467 H 886.44 4.02039 -4.60624 0
M  V30 9468 H 890.614 4.16216 -5.58334 0
M  V30 9469 H 888.241 4.27728 -6.28453 0
M  V30 9470 N 889.816 0.795718 1.36037 0
M  V30 9471 C 890.746 0.212803 2.32528 0
M  V30 9472 C 891.727 -0.655716 1.56953 0
M  V30 9473 O 892.912 -0.588238 1.85077 0
M  V30 9474 C 890.042 -0.648189 3.41198 0
M  V30 9475 C 888.996 0.120948 4.27829 0
M  V30 9476 C 888.322 -0.861044 5.27722 0
M  V30 9477 C 889.622 1.31375 5.05508 0
M  V30 9478 H 891.316 1.01893 2.81528 0
M  V30 9479 H 888.862 0.491422 1.35355 0
M  V30 9480 H 890.815 -1.06597 4.07695 0
M  V30 9481 H 889.539 -1.48709 2.9078 0
M  V30 9482 H 888.198 0.519777 3.62897 0
M  V30 9483 H 887.846 -1.69515 4.73575 0
M  V30 9484 H 887.546 -0.350808 5.86552 0
M  V30 9485 H 889.07 -1.27726 5.97092 0
M  V30 9486 H 890.484 0.971406 5.6501 0
M  V30 9487 H 888.881 1.75772 5.73781 0
M  V30 9488 H 889.951 2.10593 4.36782 0
M  V30 9489 N 891.294 -1.47756 0.548274 0
M  V30 9490 C 892.54 -2.03379 0.0291238 0
M  V30 9491 C 892.895 -1.41603 -1.30255 0
M  V30 9492 O 892.188 -0.559102 -1.83261 0
M  V30 9493 C 892.382 -3.5716 -0.131069 0
M  V30 9494 C 892.211 -4.33846 1.18353 0
M  V30 9495 C 890.981 -4.74087 1.74841 0
M  V30 9496 C 893.179 -4.69535 2.09861 0
M  V30 9497 N 891.161 -5.35382 3.00398 0
M  V30 9498 C 892.532 -5.31039 3.19997 0
M  V30 9499 C 894.587 -4.51464 2.09964 0
M  V30 9500 C 893.29 -5.7638 4.30323 0
M  V30 9501 C 895.316 -4.97798 3.19297 0
M  V30 9502 C 894.678 -5.59343 4.28152 0
M  V30 9503 H 890.777 -0.780229 0.0526037 0
M  V30 9504 H 893.361 -1.80351 0.733593 0
M  V30 9505 H 891.532 -3.79974 -0.804647 0
M  V30 9506 H 893.264 -3.99422 -0.651476 0
M  V30 9507 H 890.019 -4.55764 1.2875 0
M  V30 9508 H 890.443 -5.7058 3.64372 0
M  V30 9509 H 895.085 -4.03246 1.27093 0
M  V30 9510 H 892.803 -6.23594 5.13961 0
M  V30 9511 H 896.389 -4.85593 3.20454 0
M  V30 9512 H 895.269 -5.94544 5.11358 0
M  V30 9513 N 892.772 -0.284283 -1.55015 0
M  V30 9514 C 893.705 0.640779 -2.19019 0
M  V30 9515 C 894.683 1.14541 -1.15409 0
M  V30 9516 O 895.867 1.21669 -1.43975 0
M  V30 9517 C 892.994 1.87488 -2.82074 0
M  V30 9518 C 892.04 1.50494 -3.99066 0
M  V30 9519 S 892.873 0.575218 -5.32402 0
M  V30 9520 C 894.029 1.81749 -5.98931 0
M  V30 9521 H 894.262 0.0969761 -2.97142 0
M  V30 9522 H 891.795 -0.0684929 -1.54248 0
M  V30 9523 H 893.753 2.58319 -3.19032 0
M  V30 9524 H 892.414 2.38984 -2.03828 0
M  V30 9525 H 891.607 2.42349 -4.41908 0
M  V30 9526 H 891.209 0.876741 -3.63578 0
M  V30 9527 H 893.501 2.76026 -6.18721 0
M  V30 9528 H 894.444 1.43192 -6.93471 0
M  V30 9529 H 894.852 1.98661 -5.28388 0
M  V30 9530 N 894.251 1.57596 -0.0117121 0
M  V30 9531 C 895.498 1.91071 0.670667 0
M  V30 9532 C 895.826 0.886457 1.73125 0
M  V30 9533 O 895.081 -0.107135 1.95407 0
M  V30 9534 C 895.38 3.31296 1.34082 0
M  V30 9535 C 895.046 4.49011 0.412305 0
M  V30 9536 C 893.708 4.80945 0.156691 0
M  V30 9537 C 896.06 5.20709 -0.226294 0
M  V30 9538 C 893.388 5.81943 -0.745619 0
M  V30 9539 C 895.74 6.22668 -1.11655 0
M  V30 9540 C 894.404 6.53053 -1.38123 0
M  V30 9541 H 893.674 0.69918 0.245415 0
M  V30 9542 H 896.321 1.91373 -0.0697511 0
M  V30 9543 H 894.626 3.27174 2.15557 0
M  V30 9544 H 896.323 3.54461 1.87506 0
M  V30 9545 H 892.913 4.24067 0.621705 0
M  V30 9546 H 897.097 4.96282 -0.0418456 0
M  V30 9547 H 892.353 6.03839 -0.958566 0
M  V30 9548 H 896.527 6.77351 -1.61767 0
M  V30 9549 H 894.154 7.31132 -2.08208 0
M  V30 9550 N 895.729 -0.261212 1.5542 0
M  V30 9551 C 896.978 -0.989072 1.75785 0
M  V30 9552 C 897.291 -1.8702 0.572961 0
M  V30 9553 O 898.497 -2.63374 0.659289 0
M  V30 9554 C 896.953 -1.80857 3.11157 0
M  V30 9555 C 896.561 -0.975535 4.3725 0
M  V30 9556 C 898.305 -2.53003 3.40866 0
M  V30 9557 C 896.212 -1.7901 5.63657 0
M  V30 9558 H 895.142 -0.373019 0.655266 0
M  V30 9559 H 897.793 -0.244267 1.81867 0
M  V30 9560 H 896.175 -2.59479 2.99144 0
M  V30 9561 H 897.349 -0.232661 4.60212 0
M  V30 9562 H 895.664 -0.368083 4.1477 0
M  V30 9563 H 898.261 -3.14372 4.32521 0
M  V30 9564 H 898.604 -3.23891 2.61535 0
M  V30 9565 H 899.137 -1.81403 3.54031 0
M  V30 9566 H 895.876 -1.12522 6.4577 0
M  V30 9567 H 895.396 -2.50863 5.44819 0
M  V30 9568 H 897.075 -2.36082 6.0239 0
M  V30 9569 N 897.207 -1.48554 -0.526253 0
M  V30 9570 C 898.456 -1.56014 -1.27837 0
M  V30 9571 C 898.769 -0.240643 -1.94114 0
M  V30 9572 O 899.975 -0.193525 -2.70809 0
M  V30 9573 C 898.431 -2.75161 -2.31979 0
M  V30 9574 C 898.039 -4.13768 -1.71755 0
M  V30 9575 C 899.783 -2.91936 -3.08178 0
M  V30 9576 C 897.69 -5.24171 -2.7386 0
M  V30 9577 H 896.62 -0.58082 -0.480795 0
M  V30 9578 H 899.271 -1.74895 -0.555335 0
M  V30 9579 H 897.653 -2.49722 -3.07335 0
M  V30 9580 H 898.827 -4.49241 -1.02563 0
M  V30 9581 H 897.142 -4.02141 -1.08036 0
M  V30 9582 H 899.739 -3.71586 -3.84484 0
M  V30 9583 H 900.082 -2.01533 -3.64267 0
M  V30 9584 H 900.615 -3.17294 -2.39937 0
M  V30 9585 H 897.354 -6.16552 -2.22586 0
M  V30 9586 H 896.874 -4.93181 -3.41368 0
M  V30 9587 H 898.553 -5.52442 -3.36774 0
M  V30 9588 N 898.685 0.775411 -1.37205 0
M  V30 9589 C 899.931 1.53611 -1.32407 0
M  V30 9590 C 900.264 1.9398 0.0924103 0
M  V30 9591 O 899.539 1.63791 1.04893 0
M  V30 9592 C 899.822 2.80367 -2.25979 0
M  V30 9593 C 899.675 2.46275 -3.76389 0
M  V30 9594 C 900.994 3.82277 -2.18064 0
M  V30 9595 H 898.113 0.557278 -0.482297 0
M  V30 9596 H 900.755 0.889826 -1.67875 0
M  V30 9597 H 898.905 3.35515 -1.95862 0
M  V30 9598 H 900.577 1.9707 -4.17087 0
M  V30 9599 H 898.82 1.79023 -3.95137 0
M  V30 9600 H 899.491 3.36868 -4.37291 0
M  V30 9601 H 901.967 3.36613 -2.44604 0
M  V30 9602 H 900.843 4.68696 -2.85684 0
M  V30 9603 H 901.104 4.26272 -1.17239 0
M  V30 9604 N 900.163 1.21714 1.00117 0
M  V30 9605 C 901.403 1.04818 1.75478 0
M  V30 9606 C 901.767 -0.410653 1.87557 0
M  V30 9607 O 902.968 -0.700241 2.59519 0
M  V30 9608 C 901.239 1.73055 3.12709 0
M  V30 9609 S 902.798 1.71464 4.03913 0
M  V30 9610 H 899.616 0.375534 0.603734 0
M  V30 9611 H 902.218 1.54522 1.19763 0
M  V30 9612 H 900.922 2.78376 3.01554 0
M  V30 9613 H 900.453 1.23546 3.73497 0
M  V30 9614 H 902.468 0.75845 4.90369 0
M  V30 9615 N 901.641 -1.19671 1.02551 0
M  V30 9616 C 902.571 -2.25009 0.623965 0
M  V30 9617 C 903.552 -1.66129 -0.36538 0
M  V30 9618 O 904.737 -1.92599 -0.248842 0
M  V30 9619 C 901.867 -3.47287 -0.0294869 0
M  V30 9620 C 900.821 -4.18818 0.881781 0
M  V30 9621 C 900.147 -5.34618 0.0936189 0
M  V30 9622 C 901.447 -4.73986 2.19396 0
M  V30 9623 H 903.141 -2.58851 1.50454 0
M  V30 9624 H 900.687 -1.24425 0.724872 0
M  V30 9625 H 902.64 -4.20168 -0.322016 0
M  V30 9626 H 901.364 -3.12635 -0.944838 0
M  V30 9627 H 900.023 -3.47815 1.15845 0
M  V30 9628 H 899.671 -4.9621 -0.823661 0
M  V30 9629 H 899.371 -5.83409 0.700568 0
M  V30 9630 H 900.895 -6.10297 -0.192249 0
M  V30 9631 H 902.309 -5.38639 1.96319 0
M  V30 9632 H 900.706 -5.3325 2.75254 0
M  V30 9633 H 901.776 -3.92238 2.85092 0
M  V30 9634 N 903.119 -0.802921 -1.35613 0
M  V30 9635 C 904.049 -0.225131 -2.32412 0
M  V30 9636 C 905.03 0.647383 -1.57299 0
M  V30 9637 O 906.215 0.578414 -1.85386 0
M  V30 9638 C 903.345 0.630085 -3.41537 0
M  V30 9639 C 902.299 -0.143635 -4.27759 0
M  V30 9640 C 901.625 0.833046 -5.28171 0
M  V30 9641 C 902.925 -1.34054 -5.04804 0
M  V30 9642 H 904.619 -1.03385 -2.80984 0
M  V30 9643 H 902.165 -0.498593 -1.35093 0
M  V30 9644 H 904.118 1.04433 -4.08254 0
M  V30 9645 H 902.842 1.47165 -2.91565 0
M  V30 9646 H 901.501 -0.539015 -3.62616 0
M  V30 9647 H 901.149 1.67001 -4.74468 0
M  V30 9648 H 900.849 0.319697 -5.8673 0
M  V30 9649 H 902.373 1.24558 -5.97761 0
M  V30 9650 H 903.787 -1.00136 -5.64487 0
M  V30 9651 H 902.184 -1.78812 -5.72841 0
M  V30 9652 H 903.254 -2.12906 -4.35659 0
M  V30 9653 N 904.597 1.47463 -0.556102 0
M  V30 9654 C 905.845 2.02075 -0.0315712 0
M  V30 9655 C 906.166 1.43292 1.32259 0
M  V30 9656 O 905.436 0.60771 1.86236 0
M  V30 9657 H 904.016 0.74695 -0.0086816 0
M  V30 9658 H 906.678 1.80879 -0.725859 0
M  V30 9659 H 905.774 3.12047 0.0573538 0
M  V30 9660 N 906.075 0.2925 1.54862 0
M  V30 9661 C 907.303 -0.322113 2.04377 0
M  V30 9662 C 907.718 -1.48164 1.17016 0
M  V30 9663 O 907.075 -1.81466 0.19395 0
M  V30 9664 C 907.126 -0.786506 3.5284 0
M  V30 9665 O 906.847 0.326863 4.36879 0
M  V30 9666 C 908.348 -1.46715 4.18318 0
M  V30 9667 H 905.568 -0.0712074 0.667211 0
M  V30 9668 H 908.112 0.429657 1.99935 0
M  V30 9669 H 906.267 -1.48832 3.5767 0
M  V30 9670 H 906.681 -0.0331558 5.2449 0
M  V30 9671 H 908.155 -1.74333 5.23748 0
M  V30 9672 H 908.632 -2.40443 3.67538 0
M  V30 9673 H 909.238 -0.808735 4.1754 0
M  V30 9674 N 907.553 -1.57587 0.0200696 0
M  V30 9675 C 908.799 -1.91708 -0.661503 0
M  V30 9676 C 909.132 -0.895968 -1.72296 0
M  V30 9677 O 908.407 0.082577 -1.94325 0
M  V30 9678 C 908.69 -3.36344 -1.28627 0
M  V30 9679 C 908.543 -4.49186 -0.234982 0
M  V30 9680 C 909.862 -3.80771 -2.20685 0
M  V30 9681 H 906.981 -0.69717 -0.239005 0
M  V30 9682 H 909.623 -1.8985 0.0754764 0
M  V30 9683 H 907.773 -3.38058 -1.91439 0
M  V30 9684 H 909.445 -4.59606 0.395011 0
M  V30 9685 H 907.688 -4.31557 0.440565 0
M  V30 9686 H 908.359 -5.47395 -0.711558 0
M  V30 9687 H 910.835 -3.80735 -1.67868 0
M  V30 9688 H 909.711 -4.82685 -2.61356 0
M  V30 9689 H 909.972 -3.15764 -3.09428 0
M  V30 9690 N 909.032 0.252966 -1.55557 0
M  V30 9691 C 910.28 0.979912 -1.76754 0
M  V30 9692 C 910.601 1.86083 -0.582944 0
M  V30 9693 O 909.871 1.91742 0.401497 0
M  V30 9694 H 908.451 0.364805 -0.651864 0
M  V30 9695 H 911.113 0.272372 -1.92987 0
M  V30 9696 H 910.209 1.60518 -2.67657 0
M  V30 9697 N 910.51 1.48831 0.518367 0
M  V30 9698 C 911.44 1.67119 1.63075 0
M  V30 9699 C 912.421 0.519948 1.61958 0
M  V30 9700 O 913.606 0.753824 1.78972 0
M  V30 9701 C 910.736 1.72158 3.01627 0
M  V30 9702 C 909.69 2.86898 3.17606 0
M  V30 9703 C 909.016 2.77035 4.57335 0
M  V30 9704 C 910.316 4.28057 2.99274 0
M  V30 9705 H 912.01 2.60248 1.48025 0
M  V30 9706 H 909.556 1.2524 0.710694 0
M  V30 9707 H 911.509 1.83539 3.7933 0
M  V30 9708 H 910.233 0.756157 3.17726 0
M  V30 9709 H 908.892 2.75091 2.42323 0
M  V30 9710 H 908.54 1.78438 4.70286 0
M  V30 9711 H 908.24 3.54036 4.6897 0
M  V30 9712 H 909.764 2.904 5.37122 0
M  V30 9713 H 911.178 4.40636 3.6676 0
M  V30 9714 H 909.575 5.06145 3.22393 0
M  V30 9715 H 910.645 4.4371 1.95574 0
M  V30 9716 N 911.988 -0.768124 1.37614 0
M  V30 9717 C 913.235 -1.5268 1.33022 0
M  V30 9718 C 913.563 -1.94318 -0.0841918 0
M  V30 9719 O 912.818 -1.64623 -1.0582 0
M  V30 9720 C 913.117 -2.80204 2.21856 0
M  V30 9721 C 912.783 -2.57602 3.7007 0
M  V30 9722 C 911.445 -2.51146 4.10462 0
M  V30 9723 C 913.797 -2.37482 4.63952 0
M  V30 9724 C 911.125 -2.22566 5.42846 0
M  V30 9725 C 913.477 -2.10425 5.96577 0
M  V30 9726 C 912.141 -2.02416 6.36069 0
M  V30 9727 H 911.411 -0.558697 0.486763 0
M  V30 9728 H 914.058 -0.88447 1.69851 0
M  V30 9729 H 912.363 -3.49014 1.78034 0
M  V30 9730 H 914.06 -3.38099 2.15615 0
M  V30 9731 H 910.65 -2.63491 3.38039 0
M  V30 9732 H 914.834 -2.41457 4.33604 0
M  V30 9733 H 910.09 -2.14863 5.72402 0
M  V30 9734 H 914.264 -1.93857 6.68874 0
M  V30 9735 H 911.891 -1.80034 7.38574 0
M  V30 9736 N 913.466 -1.22244 -0.994698 0
M  V30 9737 C 914.396 -1.01513 -2.10279 0
M  V30 9738 C 915.377 0.0633365 -1.69982 0
M  V30 9739 O 916.562 -0.0985268 -1.9395 0
M  V30 9740 C 913.692 -0.59016 -3.42249 0
M  V30 9741 C 912.646 -1.61436 -3.96387 0
M  V30 9742 C 911.972 -1.04528 -5.24383 0
M  V30 9743 C 913.272 -3.00388 -4.27276 0
M  V30 9744 H 914.966 -1.94194 -2.2788 0
M  V30 9745 H 912.512 -0.935094 -1.09508 0
M  V30 9746 H 914.465 -0.432254 -4.19177 0
M  V30 9747 H 913.189 0.372308 -3.24471 0
M  V30 9748 H 911.848 -1.76001 -3.21589 0
M  V30 9749 H 911.496 -0.0742225 -5.02945 0
M  V30 9750 H 911.196 -1.72949 -5.61571 0
M  V30 9751 H 912.72 -0.898922 -6.03947 0
M  V30 9752 H 914.134 -2.89207 -4.95007 0
M  V30 9753 H 912.531 -3.65916 -4.75631 0
M  V30 9754 H 913.601 -3.50456 -3.35125 0
M  V30 9755 N 914.944 1.19125 -1.03184 0
M  V30 9756 C 916.355 1.70564 -0.759264 0
M  V30 9757 C 916.706 1.8248 0.720794 0
M  V30 9758 O 915.831 1.49804 1.56166 0
M  V30 9759 C 916.426 3.09793 -1.37163 0
M  V30 9760 C 914.985 3.5848 -1.14757 0
M  V30 9761 C 914.132 2.35265 -1.46784 0
M  V30 9762 H 917.083 1.03925 -1.19939 0
M  V30 9763 H 917.104 3.72624 -0.77015 0
M  V30 9764 H 916.616 3.01088 -2.44882 0
M  V30 9765 H 914.717 3.72494 -0.0887182 0
M  V30 9766 H 914.83 4.42426 -1.83836 0
M  V30 9767 H 913.194 2.38747 -0.887254 0
M  V30 9768 H 913.977 2.29188 -2.55593 0
M  V30 9769 N 916.422 0.810101 1.35185 0
M  V30 9770 C 917.833 0.452616 1.81131 0
M  V30 9771 C 918.184 -1.02573 1.67252 0
M  V30 9772 O 917.309 -1.79735 1.20516 0
M  V30 9773 C 917.904 0.814775 3.28857 0
M  V30 9774 C 916.463 0.509839 3.72931 0
M  V30 9775 C 915.61 1.03852 2.57119 0
M  V30 9776 H 918.561 1.00143 1.23114 0
M  V30 9777 H 918.582 0.113635 3.8033 0
M  V30 9778 H 918.094 1.89078 3.38926 0
M  V30 9779 H 916.195 -0.557289 3.68409 0
M  V30 9780 H 916.308 1.04493 4.67566 0
M  V30 9781 H 914.672 0.460671 2.50499 0
M  V30 9782 H 915.455 2.12071 2.69964 0
M  V30 9783 N 917.9 -1.47166 0.563914 0
M  V30 9784 C 919.146 -2.03337 0.0506932 0
M  V30 9785 C 919.501 -1.42976 -1.28746 0
M  V30 9786 O 918.794 -0.578508 -1.82658 0
M  V30 9787 C 918.988 -3.57279 -0.0931797 0
M  V30 9788 C 918.817 -4.32567 1.22948 0
M  V30 9789 C 917.587 -4.72206 1.79859 0
M  V30 9790 C 919.785 -4.67282 2.14829 0
M  V30 9791 N 917.767 -5.32166 3.0606 0
M  V30 9792 C 919.138 -5.27615 3.25611 0
M  V30 9793 C 921.193 -4.49211 2.14741 0
M  V30 9794 C 919.896 -5.71784 4.36412 0
M  V30 9795 C 921.922 -4.94384 3.24559 0
M  V30 9796 C 921.284 -5.54771 4.34061 0
M  V30 9797 H 917.383 -0.779627 0.0608761 0
M  V30 9798 H 919.967 -1.79563 0.75268 0
M  V30 9799 H 918.138 -3.80806 -0.764301 0
M  V30 9800 H 919.87 -4.0009 -0.609075 0
M  V30 9801 H 916.625 -4.54372 1.33577 0
M  V30 9802 H 917.049 -5.66684 3.70404 0
M  V30 9803 H 921.691 -4.01875 1.31362 0
M  V30 9804 H 919.409 -6.18108 5.20546 0
M  V30 9805 H 922.995 -4.82167 3.25586 0
M  V30 9806 H 921.875 -5.89087 5.17635 0
M  V30 9807 N 919.378 -0.300708 -1.54705 0
M  V30 9808 C 920.308 0.568675 -2.26469 0
M  V30 9809 C 921.289 1.13817 -1.26411 0
M  V30 9810 O 922.474 1.16756 -1.55183 0
M  V30 9811 C 919.604 1.74077 -3.00524 0
M  V30 9812 C 918.558 1.30165 -4.07727 0
M  V30 9813 C 917.884 2.55888 -4.69495 0
M  V30 9814 C 919.184 0.433106 -5.20501 0
M  V30 9815 H 920.878 -0.0298851 -2.99385 0
M  V30 9816 H 918.424 -0.0158135 -1.43991 0
M  V30 9817 H 920.377 2.35506 -3.49449 0
M  V30 9818 H 919.101 2.36556 -2.25186 0
M  V30 9819 H 917.76 0.710414 -3.59651 0
M  V30 9820 H 917.408 3.16681 -3.90797 0
M  V30 9821 H 917.108 2.27207 -5.41895 0
M  V30 9822 H 918.632 3.18121 -5.21183 0
M  V30 9823 H 920.046 0.95307 -5.65322 0
M  V30 9824 H 918.443 0.240085 -5.9962 0
M  V30 9825 H 919.513 -0.541866 -4.81863 0
M  V30 9826 N 920.856 1.57574 -0.0284266 0
M  V30 9827 C 921.819 2.09096 0.938691 0
M  V30 9828 C 922.819 1.00588 1.25454 0
M  V30 9829 O 924.009 1.2675 1.19499 0
M  V30 9830 C 921.141 2.55624 2.25542 0
M  V30 9831 H 922.334 2.95829 0.49248 0
M  V30 9832 H 919.887 1.5475 0.219594 0
M  V30 9833 H 920.622 1.72218 2.74793 0
M  V30 9834 H 920.407 3.34896 2.03929 0
M  V30 9835 H 921.897 2.95712 2.94863 0
M  V30 9836 N 922.334 -0.244713 1.55689 0
M  V30 9837 C 923.582 -0.970525 1.77272 0
M  V30 9838 C 923.903 -1.85771 0.592804 0
M  V30 9839 O 923.173 -1.91952 -0.391323 0
M  V30 9840 H 921.753 -0.361342 0.653789 0
M  V30 9841 H 924.415 -0.262134 1.93129 0
M  V30 9842 H 923.511 -1.59096 2.68505 0
M  V30 9843 N 923.813 -1.49104 -0.510467 0
M  V30 9844 C 924.746 -1.59667 -1.63039 0
M  V30 9845 C 925.724 -0.446145 -1.5636 0
M  V30 9846 O 926.908 -0.660414 -1.76552 0
M  V30 9847 C 924.035 -1.54282 -3.01521 0
M  V30 9848 C 923.081 -2.74415 -3.26494 0
M  V30 9849 S 923.914 -4.3619 -3.10643 0
M  V30 9850 C 925.07 -4.33435 -4.51536 0
M  V30 9851 H 925.303 -2.54407 -1.53833 0
M  V30 9852 H 922.836 -1.37878 -0.694916 0
M  V30 9853 H 924.794 -1.51861 -3.81377 0
M  V30 9854 H 923.455 -0.608458 -3.0815 0
M  V30 9855 H 922.648 -2.66841 -4.27565 0
M  V30 9856 H 922.25 -2.74199 -2.54344 0
M  V30 9857 H 924.542 -4.04571 -5.43441 0
M  V30 9858 H 925.485 -5.34752 -4.64162 0
M  V30 9859 H 925.893 -3.63638 -4.31773 0
M  V30 9860 N 925.291 0.760815 -1.38019 0
M  V30 9861 C 926.54 1.51506 -1.3315 0
M  V30 9862 C 926.853 1.95444 0.0782124 0
M  V30 9863 O 928.059 2.70352 0.249418 0
M  V30 9864 C 926.515 2.73636 -2.33776 0
M  V30 9865 C 926.123 2.36753 -3.80332 0
M  V30 9866 C 927.867 3.51548 -2.37937 0
M  V30 9867 C 925.774 3.55451 -4.72661 0
M  V30 9868 H 924.704 0.568844 -0.494907 0
M  V30 9869 H 927.355 0.832343 -1.63537 0
M  V30 9870 H 925.737 3.43852 -1.96422 0
M  V30 9871 H 926.911 1.7425 -4.26584 0
M  V30 9872 H 925.226 1.71991 -3.7922 0
M  V30 9873 H 927.823 4.39791 -3.04119 0
M  V30 9874 H 928.166 3.9219 -1.39617 0
M  V30 9875 H 928.699 2.88339 -2.74054 0
M  V30 9876 H 925.438 3.19882 -5.7215 0
M  V30 9877 H 924.958 4.17022 -4.31107 0
M  V30 9878 H 926.637 4.22125 -4.90326 0
M  V30 9879 O 926.808 1.34017 0.901201 0
M  V30 9880 H 927.499 1.17963 1.53637 0
M  V30 END ATOM
M  V30 BEGIN BOND
M  V30 END BOND
M  V30 END CTAB
M  END
$$$$
