drugbank_target|P0ACB2 Delta-aminolevulinic acid dehydratase (DB02260; DB04530; DB04560)
 OpenBabel12092120033D

  0  0  0     0  0            999 V3000
M  V30 BEGIN CTAB
M  V30 COUNTS 4978 5017 0 0 0
M  V30 BEGIN ATOM
M  V30 1 H -0.908 1.98254 -0.117106 0
M  V30 2 N 0 1.576 0 0
M  V30 3 C 0.933 2.03868 1.02534 0
M  V30 4 C 1.911 0.928543 1.3348 0
M  V30 5 O 3.095 1.19667 1.45644 0
M  V30 6 C 0.222 2.43627 2.35294 0
M  V30 7 C -0.732 3.65373 2.2001 0
M  V30 8 S 0.101 5.13292 1.52614 0
M  V30 9 C 1.257 5.56322 2.86805 0
M  V30 10 H 1.49 2.90518 0.631377 0
M  V30 11 H -0.977 1.52953 0.210867 0
M  V30 12 H 0.981 2.67203 3.11629 0
M  V30 13 H -0.358 1.57376 2.7183 0
M  V30 14 H -1.165 3.90944 3.18086 0
M  V30 15 H -1.563 3.418 1.51819 0
M  V30 16 H 0.729 5.58782 3.83104 0
M  V30 17 H 1.672 6.56266 2.65933 0
M  V30 18 H 2.08 4.83886 2.90714 0
M  V30 19 N 1.4781 -0.272755 1.55222 0
M  V30 20 C 2.7061 -1.02255 1.79865 0
M  V30 21 C 3.1211 -1.79924 0.572088 0
M  V30 22 O 2.4781 -1.76638 -0.458842 0
M  V30 23 C 2.5291 -1.98094 3.02392 0
M  V30 24 O 2.2501 -1.23572 4.20311 0
M  V30 25 C 3.7511 -2.84884 3.39641 0
M  V30 26 H 0.9711 -0.302057 0.599168 0
M  V30 27 H 3.5151 -0.303465 2.02236 0
M  V30 28 H 1.6701 -2.65465 2.82147 0
M  V30 29 H 2.0841 -1.88172 4.89583 0
M  V30 30 H 3.5581 -3.47927 4.28545 0
M  V30 31 H 4.0351 -3.54665 2.59055 0
M  V30 32 H 4.6411 -2.23003 3.62146 0
M  V30 33 N 2.9562 -1.48159 -0.537278 0
M  V30 34 C 4.2332 -1.46291 -1.29839 0
M  V30 35 C 4.6132 -0.170613 -2.10409 0
M  V30 36 O 3.9612 0.847746 -2.12192 0
M  V30 37 C 4.1712 -2.72055 -2.18603 0
M  V30 38 C 5.5192 -3.20087 -2.7898 0
M  V30 39 O 6.5432 -2.72921 -2.28894 0
M  V30 40 O 5.4022 -4.02138 -3.70064 0
M  V30 41 H 2.4962 -0.583906 -0.585647 0
M  V30 42 H 5.0422 -1.60384 -0.554534 0
M  V30 43 H 3.8142 -3.57628 -1.58801 0
M  V30 44 H 3.4372 -2.60646 -3.00249 0
M  V30 45 N 4.4343 0.785586 -1.36625 0
M  V30 46 C 5.3643 1.91259 -1.33949 0
M  V30 47 C 6.3453 1.68795 -0.210325 0
M  V30 48 O 7.5303 1.89854 -0.408561 0
M  V30 49 C 4.6603 3.28339 -1.13186 0
M  V30 50 C 3.6143 3.65335 -2.22967 0
M  V30 51 C 2.9403 5.00806 -1.87342 0
M  V30 52 C 4.2403 3.7352 -3.65075 0
M  V30 53 H 5.9343 1.93755 -2.28253 0
M  V30 54 H 3.4803 0.930788 -1.09874 0
M  V30 55 H 5.4333 4.06804 -1.09948 0
M  V30 56 H 4.1573 3.2624 -0.153332 0
M  V30 57 H 2.8163 2.89169 -2.25337 0
M  V30 58 H 2.4643 4.95233 -0.880545 0
M  V30 59 H 2.1643 5.26529 -2.60846 0
M  V30 60 H 3.6883 5.81687 -1.85667 0
M  V30 61 H 5.1023 4.42168 -3.64911 0
M  V30 62 H 3.4993 4.10731 -4.37516 0
M  V30 63 H 4.5693 2.74527 -3.99703 0
M  V30 64 N 5.9124 1.20967 1.01018 0
M  V30 65 C 7.1614 1.01796 1.74128 0
M  V30 66 C 7.4744 -0.449691 1.90361 0
M  V30 67 O 8.6804 -0.76068 2.60626 0
M  V30 68 C 7.1364 1.7727 3.13215 0
M  V30 69 C 6.7444 3.28171 3.04972 0
M  V30 70 C 8.4884 1.66489 3.90489 0
M  V30 71 C 6.3954 3.96156 4.39107 0
M  V30 72 H 5.3254 0.377276 0.652824 0
M  V30 73 H 7.9764 1.44651 1.12909 0
M  V30 74 H 6.3584 1.27205 3.75013 0
M  V30 75 H 7.5324 3.85499 2.52443 0
M  V30 76 H 5.8474 3.39437 2.41188 0
M  V30 77 H 8.4444 2.14617 4.89738 0
M  V30 78 H 8.7874 0.6222 4.11624 0
M  V30 79 H 9.3204 2.14003 3.35332 0
M  V30 80 H 6.0594 5.00604 4.23174 0
M  V30 81 H 5.5794 3.43617 4.91617 0
M  V30 82 H 7.2584 4.00774 5.07926 0
M  V30 83 N 7.3905 -1.2043 1.01659 0
M  V30 84 C 8.3225 -2.22626 0.544988 0
M  V30 85 C 9.3355 -1.58479 -0.372609 0
M  V30 86 O 10.5245 -1.77679 -0.170958 0
M  V30 87 C 7.6245 -3.38141 -0.22663 0
M  V30 88 C 6.7975 -4.31877 0.692876 0
M  V30 89 C 5.8565 -5.26191 -0.0311616 0
M  V30 90 O 4.8825 -5.6612 0.591343 0
M  V30 91 N 6.0845 -5.65618 -1.30601 0
M  V30 92 H 8.8495 -2.63716 1.42388 0
M  V30 93 H 6.4105 -1.34971 0.894116 0
M  V30 94 H 8.4025 -3.98239 -0.72024 0
M  V30 95 H 6.9725 -2.95943 -1.00681 0
M  V30 96 H 6.1925 -3.69746 1.36679 0
M  V30 97 H 7.4805 -4.91426 1.31824 0
M  V30 98 H 6.8785 -5.3519 -1.83269 0
M  V30 99 H 5.4355 -6.28025 -1.74435 0
M  V30 100 N 8.8686 -0.792821 -1.36206 0
M  V30 101 C 10.2846 -0.474903 -1.52371 0
M  V30 102 C 10.4846 1.00622 -1.74578 0
M  V30 103 O 9.5406 1.79162 -1.77924 0
M  V30 104 C 10.8536 -1.3083 -2.70747 0
M  V30 105 C 12.4016 -1.30234 -2.84619 0
M  V30 106 C 12.8766 -2.11956 -4.06004 0
M  V30 107 N 14.3676 -2.09419 -4.13156 0
M  V30 108 C 15.1026 -2.69419 -5.06163 0
M  V30 109 N 14.5986 -3.3829 -6.04592 0
M  V30 110 N 16.3916 -2.59134 -4.98804 0
M  V30 111 H 8.5426 -1.75222 -1.20046 0
M  V30 112 H 10.8056 -0.745024 -0.586211 0
M  V30 113 H 10.5116 -2.35881 -2.6087 0
M  V30 114 H 10.3856 -0.95196 -3.6499 0
M  V30 115 H 12.7726 -0.259748 -2.93955 0
M  V30 116 H 12.8536 -1.69847 -1.91274 0
M  V30 117 H 12.4976 -3.16248 -3.97429 0
M  V30 118 H 12.4276 -1.69711 -4.98503 0
M  V30 119 H 14.9186 -1.59297 -3.42685 0
M  V30 120 H 15.2316 -3.81394 -6.7213 0
M  V30 121 H 13.5766 -3.42393 -6.04807 0
M  V30 122 H 16.7676 -2.04927 -4.20859 0
M  V30 123 H 16.9406 -3.06185 -5.711 0
M  V30 124 N 10.3467 1.47872 -0.545128 0
M  V30 125 C 11.7577 1.86384 -0.108581 0
M  V30 126 C 12.1087 1.45309 1.31832 0
M  V30 127 O 11.2337 0.850641 1.9898 0
M  V30 128 C 11.8287 3.38265 -0.190274 0
M  V30 129 C 10.3877 3.75914 0.191164 0
M  V30 130 C 9.5347 2.71926 -0.543273 0
M  V30 131 H 12.4857 1.39561 -0.755537 0
M  V30 132 H 12.5067 3.75831 0.594217 0
M  V30 133 H 12.0187 3.6813 -1.2289 0
M  V30 134 H 10.1197 3.51665 1.23136 0
M  V30 135 H 10.2327 4.78836 -0.158987 0
M  V30 136 H 8.5967 2.54697 0.0122495 0
M  V30 137 H 9.3797 3.04634 -1.58282 0
M  V30 138 N 11.8248 0.280983 1.55075 0
M  V30 139 C 13.2408 -0.0729964 1.59433 0
M  V30 140 C 13.4408 -1.5411 1.29817 0
M  V30 141 O 12.4968 -2.29086 1.06187 0
M  V30 142 C 13.8098 0.306921 2.9913 0
M  V30 143 C 15.3578 0.254023 3.11968 0
M  V30 144 C 15.8328 0.608467 4.5394 0
M  V30 145 N 17.3238 0.560241 4.59799 0
M  V30 146 C 18.0588 0.80722 5.6769 0
M  V30 147 N 17.5548 1.11912 6.83701 0
M  V30 148 N 19.3478 0.735623 5.57266 0
M  V30 149 H 11.4988 1.238 1.7259 0
M  V30 150 H 13.7618 0.500547 0.805082 0
M  V30 151 H 13.4678 1.32816 3.25657 0
M  V30 152 H 13.3418 -0.349363 3.75579 0
M  V30 153 H 15.7288 -0.75794 2.852 0
M  V30 154 H 15.8098 0.944649 2.37718 0
M  V30 155 H 15.4538 1.61814 4.81434 0
M  V30 156 H 15.3838 -0.104013 5.26497 0
M  V30 157 H 17.8748 0.329288 3.76463 0
M  V30 158 H 18.1878 1.29409 7.61888 0
M  V30 159 H 16.5328 1.15695 6.85303 0
M  V30 160 H 19.7238 0.491752 4.6551 0
M  V30 161 H 19.8968 0.931482 6.4127 0
M  V30 162 N 13.3029 -1.57598 0.00835791 0
M  V30 163 C 14.7189 -1.55764 -0.347822 0
M  V30 164 C 14.9189 -1.01186 -1.74252 0
M  V30 165 O 13.9749 -0.649371 -2.44007 0
M  V30 166 C 15.2879 -2.99927 -0.215407 0
M  V30 167 C 16.8359 -3.11656 -0.289725 0
M  V30 168 C 17.3109 -4.57621 -0.18634 0
M  V30 169 N 18.8019 -4.62557 -0.243978 0
M  V30 170 C 19.5369 -5.73094 -0.18745 0
M  V30 171 N 19.0329 -6.92753 -0.0810331 0
M  V30 172 N 20.8259 -5.61588 -0.239925 0
M  V30 173 H 12.9769 -1.91411 0.92062 0
M  V30 174 H 15.2399 -0.879562 0.353659 0
M  V30 175 H 14.9459 -3.43729 0.744512 0
M  V30 176 H 14.8199 -3.63865 -0.994097 0
M  V30 177 H 17.2069 -2.67779 -1.24009 0
M  V30 178 H 17.2879 -2.5048 0.51898 0
M  V30 179 H 16.9319 -5.02174 0.760519 0
M  V30 180 H 16.8619 -5.16752 -1.01364 0
M  V30 181 H 19.3529 -3.76481 -0.327217 0
M  V30 182 H 19.6659 -7.72787 -0.0440241 0
M  V30 183 H 18.0109 -6.94984 -0.0465419 0
M  V30 184 H 21.2019 -4.66996 -0.321317 0
M  V30 185 H 21.3749 -6.47714 -0.192407 0
M  V30 186 N 14.781 0.264519 -1.55364 0
M  V30 187 C 15.711 1.33121 -1.91836 0
M  V30 188 C 16.692 1.51101 -0.781192 0
M  V30 189 O 17.877 1.64003 -1.04003 0
M  V30 190 C 15.007 2.68921 -2.19769 0
M  V30 191 C 13.961 2.65661 -3.35571 0
M  V30 192 C 13.287 4.05093 -3.49004 0
M  V30 193 C 14.587 2.24187 -4.71739 0
M  V30 194 H 16.281 1.02844 -2.81182 0
M  V30 195 H 13.827 0.493286 -1.35287 0
M  V30 196 H 15.78 3.43663 -2.43872 0
M  V30 197 H 14.504 3.00799 -1.27231 0
M  V30 198 H 13.163 1.93377 -3.1145 0
M  V30 199 H 12.811 4.34206 -2.53917 0
M  V30 200 H 12.511 4.03804 -4.26868 0
M  V30 201 H 14.035 4.81561 -3.75408 0
M  V30 202 H 15.449 2.88654 -4.9533 0
M  V30 203 H 13.846 2.34044 -5.52579 0
M  V30 204 H 14.916 1.19327 -4.69988 0
M  V30 205 N 16.2591 1.48442 0.529413 0
M  V30 206 C 17.6751 1.34575 0.858004 0
M  V30 207 C 17.8751 0.3572 1.98309 0
M  V30 208 O 16.9311 -0.221379 2.51528 0
M  V30 209 C 18.2441 2.74617 1.22499 0
M  V30 210 C 19.7921 2.83109 1.33484 0
M  V30 211 C 20.2671 4.23854 1.73526 0
M  V30 212 N 21.7581 4.2653 1.80628 0
M  V30 213 C 22.4931 5.32372 2.12997 0
M  V30 214 N 21.9891 6.48491 2.43786 0
M  V30 215 N 23.7821 5.19766 2.14008 0
M  V30 216 H 15.9331 2.1133 -0.212925 0
M  V30 217 H 18.1961 0.947439 -0.0326199 0
M  V30 218 H 17.9021 3.4852 0.471905 0
M  V30 219 H 17.7761 3.08177 2.17501 0
M  V30 220 H 20.1631 2.09462 2.0787 0
M  V30 221 H 20.2441 2.53168 0.366027 0
M  V30 222 H 19.8881 4.98018 0.997013 0
M  V30 223 H 19.8181 4.5124 2.71459 0
M  V30 224 H 22.3091 3.42772 1.59108 0
M  V30 225 H 22.6221 7.24993 2.67592 0
M  V30 226 H 20.9671 6.51765 2.41304 0
M  V30 227 H 24.1581 4.28066 1.89412 0
M  V30 228 H 24.3311 6.02354 2.38902 0
M  V30 229 N 17.7372 -0.778329 1.37039 0
M  V30 230 C 18.6842 -1.89139 1.32269 0
M  V30 231 C 19.6542 -1.65017 0.189387 0
M  V30 232 O 20.8392 -1.87024 0.377693 0
M  V30 233 C 17.9792 -3.26112 1.12894 0
M  V30 234 C 17.0922 -3.62233 2.35396 0
M  V30 235 C 16.2272 -4.8838 2.08946 0
M  V30 236 C 15.2662 -5.17212 3.2735 0
M  V30 237 N 14.4032 -6.34546 3.00492 0
M  V30 238 H 19.2432 -1.92552 2.27437 0
M  V30 239 H 16.7802 -0.941473 1.13025 0
M  V30 240 H 18.7382 -4.05116 0.996835 0
M  V30 241 H 17.3682 -3.22091 0.213758 0
M  V30 242 H 16.4202 -2.78265 2.5937 0
M  V30 243 H 17.7322 -3.79481 3.23721 0
M  V30 244 H 16.8862 -5.75274 1.92729 0
M  V30 245 H 15.6252 -4.73222 1.17949 0
M  V30 246 H 14.6302 -4.28796 3.44113 0
M  V30 247 H 15.8552 -5.34283 4.19188 0
M  V30 248 H 13.8012 -6.20759 2.12118 0
M  V30 249 H 13.7182 -6.52179 3.82358 0
M  V30 250 H 14.9862 -7.24394 2.87879 0
M  V30 251 N 19.2153 -1.21501 -1.00376 0
M  V30 252 C 20.4403 -1.05977 -1.78279 0
M  V30 253 C 20.8653 0.385994 -1.84097 0
M  V30 254 O 20.2233 1.27849 -1.28547 0
M  V30 255 C 20.2713 -1.66302 -3.19963 0
M  V30 256 O 19.3753 -0.909333 -4.0225 0
M  V30 257 H 18.7163 -0.372906 -0.549397 0
M  V30 258 H 21.2463 -1.6107 -1.26165 0
M  V30 259 H 21.2563 -1.70574 -3.70632 0
M  V30 260 H 19.9313 -2.71515 -3.15043 0
M  V30 261 H 18.5083 -0.941795 -3.60811 0
M  V30 262 N 20.6934 1.19889 -1.02296 0
M  V30 263 C 22.1044 1.71124 -0.746568 0
M  V30 264 C 22.4554 1.81939 0.734335 0
M  V30 265 O 21.5804 1.48639 1.57275 0
M  V30 266 C 22.1754 3.10804 -1.34857 0
M  V30 267 C 20.7344 3.59323 -1.1209 0
M  V30 268 C 19.8814 2.3635 -1.45031 0
M  V30 269 H 22.8324 1.04813 -1.19163 0
M  V30 270 H 22.8534 3.73186 -0.742437 0
M  V30 271 H 22.3654 3.029 -2.42638 0
M  V30 272 H 20.4664 3.7255 -0.0610337 0
M  V30 273 H 20.5794 4.4378 -1.80544 0
M  V30 274 H 18.9434 2.39399 -0.869487 0
M  V30 275 H 19.7264 2.31081 -2.53883 0
M  V30 276 N 22.1715 0.800033 1.35784 0
M  V30 277 C 23.1345 0.211565 2.28221 0
M  V30 278 C 24.1345 -0.59728 1.49296 0
M  V30 279 O 25.3245 -0.416721 1.69142 0
M  V30 280 C 22.4565 -0.705846 3.33513 0
M  V30 281 H 23.6495 1.02677 2.81776 0
M  V30 282 H 21.2025 0.570211 1.45528 0
M  V30 283 H 21.9375 -1.54498 2.85133 0
M  V30 284 H 21.7225 -0.127655 3.91892 0
M  V30 285 H 23.2125 -1.11211 4.02519 0
M  V30 286 N 23.6496 -1.47581 0.552962 0
M  V30 287 C 24.5796 -2.32762 -0.185451 0
M  V30 288 C 25.5606 -1.43527 -0.912905 0
M  V30 289 O 26.7456 -1.72388 -0.894201 0
M  V30 290 C 23.8756 -3.25219 -1.21859 0
M  V30 291 C 22.8296 -4.23661 -0.607864 0
M  V30 292 C 22.1556 -5.05413 -1.74533 0
M  V30 293 C 23.4556 -5.20481 0.435582 0
M  V30 294 H 25.1496 -2.94749 0.525684 0
M  V30 295 H 22.6956 -1.41738 0.254251 0
M  V30 296 H 24.6486 -3.8365 -1.7433 0
M  V30 297 H 23.3726 -2.61279 -1.95961 0
M  V30 298 H 22.0316 -3.66451 -0.104489 0
M  V30 299 H 21.6796 -4.3788 -2.47529 0
M  V30 300 H 21.3796 -5.72059 -1.34249 0
M  V30 301 H 22.9036 -5.66701 -2.27338 0
M  V30 302 H 24.3176 -5.733 -0.00290157 0
M  V30 303 H 22.7146 -5.95305 0.757067 0
M  V30 304 H 23.7846 -4.66217 1.33303 0
M  V30 305 N 25.1277 -0.289203 -1.54924 0
M  V30 306 C 26.5437 0.0645403 -1.59469 0
M  V30 307 C 26.7437 1.53419 -1.30632 0
M  V30 308 O 25.7997 2.2852 -1.074 0
M  V30 309 C 27.1127 -0.32278 -2.98963 0
M  V30 310 C 28.6607 -0.270564 -3.11828 0
M  V30 311 C 29.1357 -0.632532 -4.53611 0
M  V30 312 N 30.6267 -0.584617 -4.59496 0
M  V30 313 C 31.3617 -0.837314 -5.67254 0
M  V30 314 N 30.8577 -1.15536 -6.83098 0
M  V30 315 N 32.6507 -0.765166 -5.56868 0
M  V30 316 H 24.8017 -1.24714 -1.71931 0
M  V30 317 H 27.0647 -0.504809 -0.802416 0
M  V30 318 H 26.7707 -1.34541 -3.24948 0
M  V30 319 H 26.6447 0.32944 -3.75759 0
M  V30 320 H 29.0317 0.742805 -2.85598 0
M  V30 321 H 29.1127 -0.957242 -2.37214 0
M  V30 322 H 28.7567 -1.64365 -4.80569 0
M  V30 323 H 28.6867 0.07609 -5.26545 0
M  V30 324 H 31.1777 -0.349248 -3.76283 0
M  V30 325 H 31.4907 -1.33447 -7.61191 0
M  V30 326 H 29.8357 -1.19328 -6.84679 0
M  V30 327 H 33.0267 -0.516432 -4.65243 0
M  V30 328 H 33.1997 -0.965477 -6.40767 0
M  V30 329 N 26.6058 1.57591 -0.0167156 0
M  V30 330 C 27.5688 2.08393 0.954204 0
M  V30 331 C 28.5688 0.996531 1.26198 0
M  V30 332 O 29.7588 1.25858 1.20438 0
M  V30 333 C 26.8908 2.5394 2.27436 0
M  V30 334 H 28.0838 2.95455 0.514451 0
M  V30 335 H 25.6368 1.54582 0.231089 0
M  V30 336 H 26.3718 1.70171 2.76066 0
M  V30 337 H 26.1568 3.33371 2.06412 0
M  V30 338 H 27.6468 2.93512 2.97053 0
M  V30 339 N 28.0839 -0.256276 1.55502 0
M  V30 340 C 29.0169 -1.34321 1.84481 0
M  V30 341 C 29.9949 -1.46802 0.699131 0
M  V30 342 O 31.1789 -1.63165 0.943904 0
M  V30 343 C 28.3059 -2.71779 2.02123 0
M  V30 344 C 27.3519 -2.76496 3.24734 0
M  V30 345 S 28.1849 -2.3405 4.81644 0
M  V30 346 C 29.3409 -3.73452 5.02279 0
M  V30 347 H 29.5739 -1.09539 2.76385 0
M  V30 348 H 27.1069 -0.45678 1.47489 0
M  V30 349 H 29.0649 -3.50932 2.12972 0
M  V30 350 H 27.7259 -2.93803 1.11078 0
M  V30 351 H 26.9189 -3.77424 3.34016 0
M  V30 352 H 26.5209 -2.05379 3.12563 0
M  V30 353 H 28.8129 -4.6887 4.89047 0
M  V30 354 H 29.7559 -3.6911 6.04287 0
M  V30 355 H 30.1639 -3.6553 4.30172 0
M  V30 356 N 29.562 -1.4872 -0.521534 0
M  V30 357 C 30.809 -1.57168 -1.27689 0
M  V30 358 C 31.137 -0.249275 -1.92896 0
M  V30 359 O 30.392 0.761162 -1.80291 0
M  V30 360 C 30.691 -2.66497 -2.38148 0
M  V30 361 C 30.357 -4.08664 -1.90538 0
M  V30 362 C 29.019 -4.47357 -1.77271 0
M  V30 363 C 31.371 -4.97724 -1.54663 0
M  V30 364 C 28.699 -5.72905 -1.26478 0
M  V30 365 C 31.051 -6.2377 -1.05329 0
M  V30 366 C 29.715 -6.61311 -0.906861 0
M  V30 367 H 28.985 -0.575117 -0.467249 0
M  V30 368 H 31.632 -1.82472 -0.581051 0
M  V30 369 H 29.937 -2.35085 -3.13437 0
M  V30 370 H 31.634 -2.70246 -2.96257 0
M  V30 371 H 28.224 -3.78111 -2.01816 0
M  V30 372 H 32.408 -4.68501 -1.63768 0
M  V30 373 H 27.664 -6.00709 -1.13835 0
M  V30 374 H 31.838 -6.9217 -0.76644 0
M  V30 375 H 29.465 -7.5848 -0.511083 0
M  V30 376 N 31.0401 0.771051 -1.3745 0
M  V30 377 C 31.9501 1.91538 -1.35464 0
M  V30 378 C 32.9661 1.72134 -0.254123 0
M  V30 379 O 34.1421 1.95358 -0.489626 0
M  V30 380 C 31.2071 3.26671 -1.16134 0
M  V30 381 C 30.2681 3.58723 -2.35831 0
M  V30 382 C 29.5011 4.87409 -2.17413 0
M  V30 383 O 29.7241 5.58506 -1.15876 0
M  V30 384 O 28.6581 5.18539 -3.05615 0
M  V30 385 H 32.4841 1.96165 -2.31847 0
M  V30 386 H 30.0691 0.9139 -1.18187 0
M  V30 387 H 31.9511 4.07499 -1.07345 0
M  V30 388 H 30.6261 3.22894 -0.228251 0
M  V30 389 H 29.5331 2.78127 -2.50192 0
M  V30 390 H 30.8661 3.67243 -3.27709 0
M  V30 391 N 32.5182 1.22032 0.997298 0
M  V30 392 C 33.4282 1.00271 2.12092 0
M  V30 393 C 34.4442 -0.047621 1.73935 0
M  V30 394 O 35.6202 0.144136 2.00884 0
M  V30 395 C 32.6852 0.578449 3.4184 0
M  V30 396 C 31.7462 1.70189 3.94125 0
M  V30 397 C 30.9792 1.29778 5.17681 0
M  V30 398 O 31.2022 0.174676 5.70132 0
M  V30 399 O 30.1362 2.11261 5.63607 0
M  V30 400 H 33.9622 1.94398 2.3333 0
M  V30 401 H 31.5472 1.00587 1.10465 0
M  V30 402 H 33.4292 0.351998 4.19927 0
M  V30 403 H 32.1042 -0.334019 3.21972 0
M  V30 404 H 31.0112 1.98282 3.1723 0
M  V30 405 H 32.3442 2.59206 4.18417 0
M  V30 406 N 33.9963 -1.19345 1.0293 0
M  V30 407 C 35.2243 -1.92997 0.745644 0
M  V30 408 C 35.6393 -1.75519 -0.695589 0
M  V30 409 O 34.9963 -1.07737 -1.47306 0
M  V30 410 C 35.0473 -3.44741 1.08792 0
M  V30 411 O 34.7683 -3.61658 2.47256 0
M  V30 412 C 36.2693 -4.35515 0.827129 0
M  V30 413 H 33.4893 -0.613042 0.272801 0
M  V30 414 H 36.0333 -1.51473 1.3739 0
M  V30 415 H 34.1883 -3.84097 0.504832 0
M  V30 416 H 34.6023 -4.55514 2.60015 0
M  V30 417 H 36.0763 -5.40589 1.11658 0
M  V30 418 H 36.5533 -4.38552 -0.238436 0
M  V30 419 H 37.1593 -4.01841 1.39297 0
M  V30 420 N 35.4744 -0.807222 -1.35358 0
M  V30 421 C 36.7024 -0.400377 -2.02989 0
M  V30 422 C 37.1174 0.988859 -1.60832 0
M  V30 423 O 36.4744 1.63729 -0.806175 0
M  V30 424 C 36.5254 -0.474867 -3.58368 0
M  V30 425 O 36.2464 -1.80933 -3.98992 0
M  V30 426 C 37.7474 -0.0609112 -4.43258 0
M  V30 427 H 34.9674 -0.162587 -0.651004 0
M  V30 428 H 37.5114 -1.09102 -1.72965 0
M  V30 429 H 35.6664 0.167534 -3.87038 0
M  V30 430 H 36.0804 -1.77256 -4.9364 0
M  V30 431 H 37.5544 -0.164145 -5.51756 0
M  V30 432 H 38.0314 0.993831 -4.27808 0
M  V30 433 H 38.6374 -0.676492 -4.19885 0
M  V30 434 N 36.9525 1.47285 -0.560781 0
M  V30 435 C 37.8825 2.32857 0.173105 0
M  V30 436 C 38.8635 1.44009 0.905281 0
M  V30 437 O 40.0485 1.7286 0.885046 0
M  V30 438 C 37.1785 3.25861 1.20133 0
M  V30 439 C 36.1325 4.23978 0.585388 0
M  V30 440 C 35.4585 5.06332 1.7185 0
M  V30 441 C 36.7585 5.20242 -0.463178 0
M  V30 442 H 38.4525 2.94466 -0.541307 0
M  V30 443 H 35.9985 1.41601 -0.261764 0
M  V30 444 H 37.9515 3.84569 1.72293 0
M  V30 445 H 36.6755 2.62315 1.94573 0
M  V30 446 H 35.3345 3.66501 0.085054 0
M  V30 447 H 34.9825 4.39186 2.45203 0
M  V30 448 H 34.6825 5.72762 1.31213 0
M  V30 449 H 36.2065 5.67899 2.24329 0
M  V30 450 H 37.6205 5.73293 -0.027502 0
M  V30 451 H 36.0175 5.94896 -0.788627 0
M  V30 452 H 37.0875 4.65504 -1.35773 0
M  V30 453 N 38.4306 0.297415 1.54768 0
M  V30 454 C 39.6556 -0.318435 2.04941 0
M  V30 455 C 40.0806 -1.4701 1.17345 0
M  V30 456 O 39.4386 -1.80436 0.176758 0
M  V30 457 C 39.4866 -0.755749 3.52592 0
M  V30 458 O 38.5906 -1.86088 3.68028 0
M  V30 459 H 37.9316 -0.062421 0.661059 0
M  V30 460 H 40.4616 0.438215 1.99852 0
M  V30 461 H 40.4716 -1.04552 3.94376 0
M  V30 462 H 39.1466 0.0867233 4.1581 0
M  V30 463 H 37.7236 -1.57193 3.38149 0
M  V30 464 N 39.9087 -1.5758 0.0250728 0
M  V30 465 C 40.8387 -2.13007 -0.956575 0
M  V30 466 C 41.8197 -1.0452 -1.342 0
M  V30 467 O 43.0047 -1.32332 -1.42133 0
M  V30 468 C 40.1347 -2.65386 -2.24026 0
M  V30 469 C 39.0887 -3.78623 -1.99571 0
M  V30 470 C 38.4147 -4.17414 -3.3417 0
M  V30 471 C 39.7147 -5.04867 -1.33814 0
M  V30 472 H 41.4087 -2.9528 -0.494991 0
M  V30 473 H 38.9547 -1.42042 -0.236651 0
M  V30 474 H 40.9077 -3.02794 -2.93076 0
M  V30 475 H 39.6317 -1.80268 -2.72343 0
M  V30 476 H 38.2907 -3.41646 -1.32941 0
M  V30 477 H 37.9387 -3.29284 -3.80238 0
M  V30 478 H 37.6387 -4.93719 -3.18615 0
M  V30 479 H 39.1627 -4.57402 -4.04495 0
M  V30 480 H 40.5767 -5.39888 -1.92857 0
M  V30 481 H 38.9737 -5.86144 -1.28669 0
M  V30 482 H 40.0437 -4.83904 -0.310561 0
M  V30 483 N 41.3868 0.248026 -1.55636 0
M  V30 484 C 42.3348 1.32683 -1.91045 0
M  V30 485 C 43.3288 1.49883 -0.789401 0
M  V30 486 O 44.5348 1.51371 -0.974007 0
M  V30 487 H 40.9098 0.444272 -0.606734 0
M  V30 488 H 42.8808 1.00085 -2.81115 0
M  V30 489 C 41.6298 2.6755 -2.22064 0
M  V30 490 H 40.9528 2.55114 -3.07826 0
M  V30 491 H 42.3928 3.41912 -2.50743 0
M  V30 492 C 40.8518 3.20556 -1.0366 0
M  V30 493 O 41.3818 4.00695 -0.284016 0
M  V30 494 N 39.5878 2.78568 -0.82753 0
M  V30 495 H 39.1348 2.1351 -1.44123 0
M  V30 496 H 39.0928 3.14378 -0.0369803 0
M  V30 497 N 42.8649 1.48995 0.513639 0
M  V30 498 C 44.1419 1.48338 1.27495 0
M  V30 499 C 44.5219 0.204065 2.10111 0
M  V30 500 O 43.8699 -0.813881 2.13514 0
M  V30 501 C 44.0799 2.75498 2.14247 0
M  V30 502 C 45.4279 3.24484 2.73852 0
M  V30 503 O 46.4519 2.76528 2.24523 0
M  V30 504 O 45.3109 4.07974 3.6362 0
M  V30 505 H 42.4049 0.593149 0.576284 0
M  V30 506 H 44.9509 1.61246 0.528948 0
M  V30 507 H 43.7229 3.60109 1.53092 0
M  V30 508 H 43.3459 2.6539 2.96064 0
M  V30 509 N 44.343 -0.763751 1.37857 0
M  V30 510 C 45.273 -1.89103 1.36975 0
M  V30 511 C 46.254 -1.68439 0.237152 0
M  V30 512 O 47.439 -1.8918 0.438713 0
M  V30 513 C 44.569 -3.26496 1.18395 0
M  V30 514 C 43.523 -3.61741 2.28751 0
M  V30 515 C 42.849 -4.97762 1.95286 0
M  V30 516 C 44.149 -3.67665 3.70972 0
M  V30 517 H 45.843 -1.90099 2.31307 0
M  V30 518 H 43.389 -0.91319 1.11341 0
M  V30 519 H 45.342 -4.05003 1.16406 0
M  V30 520 H 44.066 -3.25955 0.205215 0
M  V30 521 H 42.725 -2.85547 2.29909 0
M  V30 522 H 42.373 -4.93769 0.959221 0
M  V30 523 H 42.073 -5.22313 2.69189 0
M  V30 524 H 43.597 -5.7866 1.94898 0
M  V30 525 H 45.011 -4.36307 3.719 0
M  V30 526 H 43.408 -4.03718 4.43995 0
M  V30 527 H 44.478 -2.68134 4.0402 0
M  V30 528 N 45.8211 -1.22559 -0.990812 0
M  V30 529 C 47.0671 -1.05297 -1.73322 0
M  V30 530 C 47.4001 0.410655 -1.89808 0
M  V30 531 O 46.6751 1.30439 -1.44277 0
M  V30 532 C 46.9581 -1.76713 -3.13759 0
M  V30 533 C 46.8111 -3.30684 -3.04907 0
M  V30 534 C 48.1301 -1.52121 -4.12974 0
M  V30 535 H 45.2491 -0.38392 -0.629106 0
M  V30 536 H 47.8911 -1.50926 -1.15418 0
M  V30 537 H 46.0411 -1.37924 -3.63193 0
M  V30 538 H 47.7131 -3.7893 -2.63077 0
M  V30 539 H 45.9561 -3.60253 -2.41661 0
M  V30 540 H 46.6271 -3.75833 -4.04294 0
M  V30 541 H 49.1031 -1.85819 -3.72304 0
M  V30 542 H 47.9791 -2.04582 -5.0935 0
M  V30 543 H 48.2401 -0.454257 -4.3976 0
M  V30 544 N 47.2992 1.18797 -1.03562 0
M  V30 545 C 48.2292 2.24472 -0.643019 0
M  V30 546 C 49.2102 1.66433 0.351283 0
M  V30 547 O 50.3952 1.92803 0.232505 0
M  V30 548 C 47.5252 3.473 4.24935e-05 0
M  V30 549 C 46.4792 4.18055 -0.917257 0
M  V30 550 C 45.8052 5.34519 -0.138941 0
M  V30 551 C 47.1052 4.72109 -2.23407 0
M  V30 552 H 48.7992 2.57566 -1.52643 0
M  V30 553 H 46.3452 1.23806 -0.735394 0
M  V30 554 H 48.2982 4.20426 0.286383 0
M  V30 555 H 47.0222 3.13424 0.918299 0
M  V30 556 H 45.6812 3.46821 -1.1879 0
M  V30 557 H 45.3292 4.96891 0.781562 0
M  V30 558 H 45.0292 5.82794 -0.750005 0
M  V30 559 H 46.5532 6.10438 0.1405 0
M  V30 560 H 47.9672 5.36955 -2.00879 0
M  V30 561 H 46.3642 5.30897 -2.79765 0
M  V30 562 H 47.4342 3.89807 -2.88407 0
M  V30 563 N 48.7773 0.814389 1.34928 0
M  V30 564 C 50.1883 0.458364 1.80986 0
M  V30 565 C 50.5393 -1.02042 1.67577 0
M  V30 566 O 49.6643 -1.79352 1.21086 0
M  V30 567 C 50.2593 0.825212 3.28597 0
M  V30 568 C 48.8183 0.521677 3.72767 0
M  V30 569 C 47.9653 1.04668 2.56788 0
M  V30 570 H 50.9163 1.00533 1.22795 0
M  V30 571 H 50.9373 0.12571 3.80292 0
M  V30 572 H 50.4493 1.90154 3.38324 0
M  V30 573 H 48.5503 -0.545589 3.68584 0
M  V30 574 H 48.6633 1.05977 4.67232 0
M  V30 575 H 47.0273 0.468622 2.50352 0
M  V30 576 H 47.8103 2.12927 2.6929 0
M  V30 577 N 50.2554 -1.46986 0.568584 0
M  V30 578 C 51.5044 -2.01646 0.0465894 0
M  V30 579 C 51.8174 -1.44721 -1.31587 0
M  V30 580 O 53.0234 -1.91113 -1.92842 0
M  V30 581 C 51.4794 -3.59885 0.032752 0
M  V30 582 C 51.0874 -4.25804 1.39266 0
M  V30 583 C 52.8314 -4.22255 -0.436038 0
M  V30 584 C 50.7384 -5.76081 1.33732 0
M  V30 585 H 49.6684 -0.753876 0.013647 0
M  V30 586 H 52.3194 -1.68864 0.718131 0
M  V30 587 H 50.7014 -3.8968 -0.704669 0
M  V30 588 H 51.8754 -4.07637 2.1487 0
M  V30 589 H 50.1904 -3.7547 1.80032 0
M  V30 590 H 52.7874 -5.32394 -0.49602 0
M  V30 591 H 53.1304 -3.90212 -1.45053 0
M  V30 592 H 53.6634 -3.97033 0.246877 0
M  V30 593 H 50.4024 -6.12761 2.32817 0
M  V30 594 H 49.9224 -5.96553 0.623267 0
M  V30 595 H 51.6014 -6.38518 1.0442 0
M  V30 596 N 51.7335 -0.305618 -1.54608 0
M  V30 597 C 52.9805 0.302298 -2.00231 0
M  V30 598 C 53.3085 1.5354 -1.19398 0
M  V30 599 O 52.5635 1.93973 -0.259423 0
M  V30 600 C 52.8625 0.698983 -3.50498 0
M  V30 601 C 52.5285 -0.432903 -4.48817 0
M  V30 602 C 51.1905 -0.743622 -4.75419 0
M  V30 603 C 53.5425 -1.19409 -5.07337 0
M  V30 604 C 50.8705 -1.81857 -5.57804 0
M  V30 605 C 53.2225 -2.25899 -5.90891 0
M  V30 606 C 51.8865 -2.57572 -6.15803 0
M  V30 607 H 51.1565 0.110619 -0.732697 0
M  V30 608 H 53.8035 -0.425674 -1.86709 0
M  V30 609 H 52.1085 1.50711 -3.61654 0
M  V30 610 H 53.8055 1.1806 -3.83227 0
M  V30 611 H 50.3955 -0.18063 -4.28219 0
M  V30 612 H 54.5795 -0.967295 -4.86782 0
M  V30 613 H 49.8355 -2.06864 -5.75341 0
M  V30 614 H 54.0095 -2.85335 -6.35261 0
M  V30 615 H 51.6365 -3.40998 -6.7943 0
M  V30 616 N 53.2116 1.57565 -0.0334293 0
M  V30 617 C 54.4576 1.92262 0.645226 0
M  V30 618 C 54.7906 0.910543 1.71531 0
M  V30 619 O 54.0656 -0.066099 1.94388 0
M  V30 620 C 54.3486 3.37422 1.2577 0
M  V30 621 C 54.2016 4.49369 0.196891 0
M  V30 622 C 55.5206 3.82628 2.17449 0
M  V30 623 H 52.6396 0.699171 0.233085 0
M  V30 624 H 55.2816 1.89779 -0.0915694 0
M  V30 625 H 53.4316 3.39669 1.88566 0
M  V30 626 H 55.1036 4.59254 -0.433962 0
M  V30 627 H 53.3466 4.31168 -0.477137 0
M  V30 628 H 54.0176 5.47978 0.665124 0
M  V30 629 H 56.4936 3.82145 1.64634 0
M  V30 630 H 55.3696 4.84883 2.57254 0
M  V30 631 H 55.6306 3.18376 3.0674 0
M  V30 632 N 54.6897 -0.239769 1.55765 0
M  V30 633 C 55.5997 -1.31831 1.94056 0
M  V30 634 C 56.6157 -1.52275 0.841925 0
M  V30 635 O 57.7917 -1.65759 1.14394 0
M  V30 636 C 54.8567 -2.65156 2.23368 0
M  V30 637 C 53.9177 -2.53173 3.46701 0
M  V30 638 C 53.1507 -3.8014 3.74606 0
M  V30 639 O 53.3737 -4.82343 3.04469 0
M  V30 640 O 52.3077 -3.78344 4.68123 0
M  V30 641 H 56.1337 -1.02347 2.85935 0
M  V30 642 H 53.7187 -0.441123 1.42739 0
M  V30 643 H 55.6007 -3.43929 2.43497 0
M  V30 644 H 54.2757 -2.94358 1.34666 0
M  V30 645 H 53.1827 -1.72662 3.31871 0
M  V30 646 H 54.5157 -2.28915 4.35728 0
M  V30 647 N 56.1678 -1.49265 -0.50573 0
M  V30 648 C 57.0778 -1.68312 -1.63427 0
M  V30 649 C 58.0938 -0.565682 -1.64548 0
M  V30 650 O 59.2698 -0.839801 -1.83055 0
M  V30 651 C 56.3348 -1.74107 -2.99813 0
M  V30 652 C 55.3958 -2.97653 -3.09356 0
M  V30 653 C 54.6288 -3.03163 -4.39236 0
M  V30 654 O 54.8518 -2.16396 -5.27758 0
M  V30 655 O 53.7858 -3.9558 -4.53652 0
M  V30 656 H 57.6118 -2.63907 -1.50289 0
M  V30 657 H 55.1968 -1.32951 -0.681502 0
M  V30 658 H 57.0788 -1.803 -3.80881 0
M  V30 659 H 55.7538 -0.816901 -3.13223 0
M  V30 660 H 54.6608 -2.96981 -2.27493 0
M  V30 661 H 55.9938 -3.89535 -3.00871 0
M  V30 662 N 57.6459 0.756429 -1.3826 0
M  V30 663 C 58.5559 1.9009 -1.37488 0
M  V30 664 C 59.5719 1.71855 -0.272366 0
M  V30 665 O 60.7479 1.94827 -0.510318 0
M  V30 666 C 57.8129 3.25421 -1.19592 0
M  V30 667 C 56.8739 3.56202 -2.39622 0
M  V30 668 C 56.1069 4.85075 -2.2257 0
M  V30 669 O 56.3299 5.57246 -1.21793 0
M  V30 670 O 55.2639 5.15269 -3.11098 0
M  V30 671 H 59.0899 1.93695 -2.33914 0
M  V30 672 H 56.6749 0.901313 -1.1915 0
M  V30 673 H 58.5569 4.06337 -1.11661 0
M  V30 674 H 57.2319 3.22634 -0.262486 0
M  V30 675 H 56.1389 2.75458 -2.53128 0
M  V30 676 H 57.4719 3.63747 -3.31586 0
M  V30 677 N 59.124 1.23083 0.984299 0
M  V30 678 C 60.373 1.05466 1.71929 0
M  V30 679 C 60.686 -0.409211 1.91272 0
M  V30 680 O 61.892 -0.705226 2.62181 0
M  V30 681 C 60.348 1.83874 3.09384 0
M  V30 682 C 59.956 3.34566 2.97943 0
M  V30 683 C 61.7 1.74734 3.8687 0
M  V30 684 C 59.607 4.05381 4.30605 0
M  V30 685 H 58.537 0.391039 0.644674 0
M  V30 686 H 61.188 1.47013 1.09815 0
M  V30 687 H 59.57 1.35131 3.72231 0
M  V30 688 H 60.744 3.90767 2.44209 0
M  V30 689 H 59.059 3.44476 2.33934 0
M  V30 690 H 61.656 2.24957 4.85076 0
M  V30 691 H 61.999 0.709372 4.10212 0
M  V30 692 H 62.532 2.21067 3.30717 0
M  V30 693 H 59.271 5.09467 4.1246 0
M  V30 694 H 58.791 3.53967 4.84218 0
M  V30 695 H 60.47 4.11458 4.99311 0
M  V30 696 N 60.6021 -1.18246 1.0419 0
M  V30 697 C 61.8791 -1.84121 0.660208 0
M  V30 698 C 62.2591 -1.92778 -0.860221 0
M  V30 699 O 61.6071 -1.45464 -1.76217 0
M  V30 700 C 61.8171 -3.22355 1.33747 0
M  V30 701 C 63.1651 -3.98376 1.46906 0
M  V30 702 O 64.1891 -3.31799 1.29568 0
M  V30 703 O 63.0481 -5.17665 1.75171 0
M  V30 704 H 60.1421 -0.794036 0.231161 0
M  V30 705 H 62.6881 -1.25628 1.14087 0
M  V30 706 H 61.4601 -3.10964 2.37522 0
M  V30 707 H 61.0831 -3.88506 0.845515 0
M  V30 708 N 62.0802 -0.821533 -1.34494 0
M  V30 709 C 63.3572 -0.33159 -1.92769 0
M  V30 710 C 63.7372 1.18088 -1.74981 0
M  V30 711 O 63.0852 1.98733 -1.12772 0
M  V30 712 C 63.2952 -0.759398 -3.40638 0
M  V30 713 C 64.6432 -0.757433 -4.1779 0
M  V30 714 O 65.6672 -0.70189 -3.49216 0
M  V30 715 O 64.5262 -0.829361 -5.4017 0
M  V30 716 H 61.6202 -0.0902502 -0.822061 0
M  V30 717 H 64.1662 -0.906231 -1.43477 0
M  V30 718 H 62.9382 -1.8012 -3.47379 0
M  V30 719 H 62.5612 -0.160378 -3.97276 0
M  V30 720 N 63.5583 1.46682 -0.576371 0
M  V30 721 C 64.7883 2.06498 -0.0648694 0
M  V30 722 C 65.1963 1.42665 1.24271 0
M  V30 723 O 64.5393 0.523886 1.76071 0
M  V30 724 C 64.6013 3.5904 0.181816 0
M  V30 725 C 64.2653 4.45028 -1.0392 0
M  V30 726 C 65.2623 4.81959 -1.94966 0
M  V30 727 C 62.9473 4.86259 -1.25927 0
M  V30 728 C 64.9413 5.58942 -3.06371 0
M  V30 729 C 62.6283 5.63002 -2.37638 0
M  V30 730 C 63.6263 5.99257 -3.2769 0
M  V30 731 O 63.3143 6.7445 -4.37461 0
M  V30 732 H 63.0463 0.674028 -0.0515987 0
M  V30 733 H 65.6003 1.89393 -0.794951 0
M  V30 734 H 63.8303 3.74429 0.966436 0
M  V30 735 H 65.5193 4.00806 0.641047 0
M  V30 736 H 66.2853 4.50689 -1.79177 0
M  V30 737 H 62.1643 4.57494 -0.567448 0
M  V30 738 H 65.7083 5.87158 -3.76684 0
M  V30 739 H 61.6053 5.93686 -2.53392 0
M  V30 740 H 62.3733 6.92867 -4.35749 0
M  V30 741 N 65.0364 0.313813 1.54444 0
M  V30 742 C 65.9834 -0.55655 2.23989 0
M  V30 743 C 66.9534 -1.11943 1.22711 0
M  V30 744 O 68.1384 -1.16158 1.51367 0
M  V30 745 C 65.2784 -1.71635 2.99392 0
M  V30 746 C 64.3914 -1.18364 4.15468 0
M  V30 747 C 63.5264 -2.30834 4.78424 0
M  V30 748 C 62.5654 -1.74762 5.86622 0
M  V30 749 N 61.7024 -2.80855 6.43479 0
M  V30 750 H 66.5424 0.0430893 2.97969 0
M  V30 751 H 64.0794 0.0330359 1.47063 0
M  V30 752 H 66.0374 -2.39868 3.41349 0
M  V30 753 H 64.6674 -2.28742 2.27765 0
M  V30 754 H 63.7194 -0.393163 3.78363 0
M  V30 755 H 65.0314 -0.733262 4.93381 0
M  V30 756 H 64.1854 -3.0699 5.23299 0
M  V30 757 H 62.9244 -2.79204 3.99871 0
M  V30 758 H 61.9294 -0.970995 5.41158 0
M  V30 759 H 63.1544 -1.2728 6.67066 0
M  V30 760 H 61.1004 -3.28535 5.67804 0
M  V30 761 H 61.0174 -2.40351 7.16776 0
M  V30 762 H 62.2854 -3.5687 6.93011 0
M  V30 763 N 66.5145 -1.57545 0.0417849 0
M  V30 764 C 67.4775 -2.09885 -0.92093 0
M  V30 765 C 68.4775 -1.01648 -1.24596 0
M  V30 766 O 69.6675 -1.27759 -1.1842 0
M  V30 767 C 66.7995 -2.57527 -2.23367 0
M  V30 768 H 67.9925 -2.96236 -0.467382 0
M  V30 769 H 65.5455 -1.5493 -0.206467 0
M  V30 770 H 66.2805 -1.74542 -2.73323 0
M  V30 771 H 66.0655 -3.36613 -2.01083 0
M  V30 772 H 67.5555 -2.98201 -2.92346 0
M  V30 773 N 67.9926 0.231505 -1.5589 0
M  V30 774 C 69.2386 0.95877 -1.78705 0
M  V30 775 C 69.5716 1.8438 -0.609725 0
M  V30 776 O 68.8466 1.90521 0.391426 0
M  V30 777 C 69.1296 1.8062 -3.11526 0
M  V30 778 C 68.9826 0.948328 -4.39689 0
M  V30 779 C 70.3016 2.78585 -3.40703 0
M  V30 780 H 67.4206 0.347129 -0.650131 0
M  V30 781 H 70.0626 0.228259 -1.88624 0
M  V30 782 H 68.2126 2.42902 -3.03201 0
M  V30 783 H 69.8846 0.343016 -4.60023 0
M  V30 784 H 68.1276 0.253314 -4.3306 0
M  V30 785 H 68.7986 1.57543 -5.29041 0
M  V30 786 H 71.2746 2.26439 -3.49091 0
M  V30 787 H 70.1506 3.34988 -4.34826 0
M  V30 788 H 70.4116 3.55825 -2.62375 0
M  V30 789 N 69.4707 1.49531 0.497807 0
M  V30 790 C 70.3807 1.69176 1.62532 0
M  V30 791 C 71.3967 0.5744 1.64246 0
M  V30 792 O 72.5727 0.849497 1.82608 0
M  V30 793 C 69.6377 1.75695 2.98885 0
M  V30 794 C 68.6987 2.9929 3.07773 0
M  V30 795 C 67.9317 3.05488 4.37622 0
M  V30 796 O 68.1547 2.19192 5.26603 0
M  V30 797 O 67.0887 3.9798 4.51548 0
M  V30 798 H 70.9147 2.647 1.48887 0
M  V30 799 H 68.4997 1.3331 0.674441 0
M  V30 800 H 70.3817 1.82317 3.79919 0
M  V30 801 H 69.0567 0.8335 3.12785 0
M  V30 802 H 67.9637 2.98183 2.25915 0
M  V30 803 H 69.2967 3.91125 2.98801 0
M  V30 804 N 70.9488 -0.749086 1.3866 0
M  V30 805 C 71.9118 -1.84457 1.36045 0
M  V30 806 C 72.9118 -1.58682 0.260122 0
M  V30 807 O 74.1018 -1.66343 0.517261 0
M  V30 808 C 71.2338 -3.22008 1.11911 0
M  V30 809 H 72.4268 -1.88182 2.33512 0
M  V30 810 H 69.9798 -0.951266 1.24019 0
M  V30 811 H 70.7148 -3.2395 0.150686 0
M  V30 812 H 70.4998 -3.42111 1.91579 0
M  V30 813 H 71.9898 -4.0208 1.12788 0
M  V30 814 N 72.4269 -1.23603 -0.977757 0
M  V30 815 C 73.3599 -0.962772 -2.06896 0
M  V30 816 C 74.3379 0.0998743 -1.62293 0
M  V30 817 O 75.5219 -0.0349421 -1.88468 0
M  V30 818 C 72.6489 -0.45095 -3.35685 0
M  V30 819 C 71.6949 -1.50061 -3.99229 0
M  V30 820 S 72.5279 -3.07884 -4.38142 0
M  V30 821 C 73.6839 -2.58378 -5.7008 0
M  V30 822 H 73.9169 -1.88677 -2.29757 0
M  V30 823 H 71.4499 -1.06876 -1.11431 0
M  V30 824 H 73.4079 -0.162261 -4.10179 0
M  V30 825 H 72.0689 0.452179 -3.10828 0
M  V30 826 H 71.2619 -1.09269 -4.92013 0
M  V30 827 H 70.8639 -1.73878 -3.31123 0
M  V30 828 H 73.1559 -2.00563 -6.47133 0
M  V30 829 H 74.0989 -3.49711 -6.15717 0
M  V30 830 H 74.5069 -1.99143 -5.28207 0
M  V30 831 N 73.905 1.17692 -1.04816 0
M  V30 832 C 75.316 1.69501 -0.782698 0
M  V30 833 C 75.667 1.83456 0.695577 0
M  V30 834 O 74.792 1.51942 1.54086 0
M  V30 835 C 75.387 3.07874 -1.41419 0
M  V30 836 C 73.946 3.56864 -1.19686 0
M  V30 837 C 73.093 2.3322 -1.50012 0
M  V30 838 H 76.044 1.02262 -1.2136 0
M  V30 839 H 76.065 3.71528 -0.821428 0
M  V30 840 H 75.577 2.97685 -2.49009 0
M  V30 841 H 73.678 3.72337 -0.140043 0
M  V30 842 H 73.791 4.39851 -1.89916 0
M  V30 843 H 72.155 2.37501 -0.920071 0
M  V30 844 H 72.938 2.25644 -2.58727 0
M  V30 845 N 75.3831 0.828654 1.34056 0
M  V30 846 C 76.6311 0.41863 1.97717 0
M  V30 847 C 76.9521 -1.02314 1.66002 0
M  V30 848 O 76.2221 -1.71119 0.953683 0
M  V30 849 H 74.8021 0.151809 0.731412 0
M  V30 850 H 77.4641 1.05936 1.63596 0
M  V30 851 H 76.5601 0.542318 3.07352 0
M  V30 852 N 76.8612 -1.46375 0.584142 0
M  V30 853 C 78.1072 -2.02678 0.0703716 0
M  V30 854 C 78.4402 -1.4545 -1.28678 0
M  V30 855 O 77.7152 -0.62014 -1.84349 0
M  V30 856 C 77.9982 -3.60099 0.00614674 0
M  V30 857 C 77.8512 -4.27709 1.3923 0
M  V30 858 C 79.1702 -4.34598 -0.693742 0
M  V30 859 H 76.2892 -0.736504 0.027047 0
M  V30 860 H 78.9312 -1.74501 0.751615 0
M  V30 861 H 77.0812 -3.84236 -0.574009 0
M  V30 862 H 78.7532 -4.14832 2.01773 0
M  V30 863 H 76.9962 -3.87016 1.95962 0
M  V30 864 H 77.6672 -5.36478 1.29982 0
M  V30 865 H 80.1432 -4.15615 -0.200869 0
M  V30 866 H 79.0192 -5.44318 -0.707714 0
M  V30 867 H 79.2802 -4.05759 -1.75533 0
M  V30 868 N 78.3393 -0.321999 -1.54275 0
M  V30 869 C 79.2723 0.58718 -2.20516 0
M  V30 870 C 80.2503 1.11693 -1.18167 0
M  V30 871 O 81.4343 1.18122 -1.46899 0
M  V30 872 C 78.5613 1.80554 -2.86562 0
M  V30 873 C 77.6073 1.40718 -4.02617 0
M  V30 874 S 78.4403 0.445218 -5.33646 0
M  V30 875 C 79.5963 1.6709 -6.03185 0
M  V30 876 H 79.8293 0.0244875 -2.9729 0
M  V30 877 H 77.3623 -0.106087 -1.54035 0
M  V30 878 H 79.3203 2.50462 -3.25237 0
M  V30 879 H 77.9813 2.33942 -2.09595 0
M  V30 880 H 77.1743 2.31501 -4.47687 0
M  V30 881 H 76.7763 0.78782 -3.65608 0
M  V30 882 H 79.0683 2.60856 -6.25268 0
M  V30 883 H 80.0113 1.26239 -6.96756 0
M  V30 884 H 80.4193 1.85716 -5.33076 0
M  V30 885 N 79.8174 1.5752 -0.0501392 0
M  V30 886 C 81.2334 1.56631 0.306402 0
M  V30 887 C 81.4334 1.0577 1.71508 0
M  V30 888 O 80.4894 0.713837 2.422 0
M  V30 889 C 81.8024 3.00393 0.135811 0
M  V30 890 C 83.3504 3.12315 0.206993 0
M  V30 891 C 83.8254 4.57954 0.064944 0
M  V30 892 N 85.3164 4.63041 0.121254 0
M  V30 893 C 86.0514 5.73389 0.0354381 0
M  V30 894 N 85.5474 6.92724 -0.102666 0
M  V30 895 N 87.3404 5.62026 0.090946 0
M  V30 896 H 79.4914 1.88903 -0.971046 0
M  V30 897 H 81.7544 0.869876 -0.376855 0
M  V30 898 H 81.4604 3.41635 -0.835384 0
M  V30 899 H 81.3344 3.66373 0.897275 0
M  V30 900 H 83.7214 2.70973 1.16866 0
M  V30 901 H 83.8024 2.49016 -0.585208 0
M  V30 902 H 83.4464 4.99981 -0.893394 0
M  V30 903 H 83.3764 5.19258 0.876277 0
M  V30 904 H 85.8674 3.77216 0.227284 0
M  V30 905 H 86.1804 7.72633 -0.160882 0
M  V30 906 H 84.5254 6.94864 -0.137737 0
M  V30 907 H 87.7164 4.67684 0.197388 0
M  V30 908 H 87.8894 6.47997 0.0206089 0
M  V30 909 N 81.2955 -0.223234 1.56011 0
M  V30 910 C 82.5445 -0.945912 1.78144 0
M  V30 911 C 82.8575 -1.85567 0.618396 0
M  V30 912 O 84.0635 -2.61688 0.723318 0
M  V30 913 C 82.5195 -1.73216 3.15475 0
M  V30 914 C 82.1275 -0.868619 4.39499 0
M  V30 915 C 83.8715 -2.44615 3.46935 0
M  V30 916 C 81.7785 -1.65212 5.67855 0
M  V30 917 H 80.7085 -0.356929 0.664167 0
M  V30 918 H 83.3595 -0.199845 1.82409 0
M  V30 919 H 81.7415 -2.52107 3.05382 0
M  V30 920 H 82.9155 -0.120366 4.60643 0
M  V30 921 H 81.2305 -0.26683 4.15544 0
M  V30 922 H 83.8275 -3.03732 4.40058 0
M  V30 923 H 84.1705 -3.17417 2.69355 0
M  V30 924 H 84.7035 -1.72715 3.58349 0
M  V30 925 H 81.4425 -0.967407 6.48322 0
M  V30 926 H 80.9625 -2.37503 5.50774 0
M  V30 927 H 82.6415 -2.21322 6.07968 0
M  V30 928 N 82.7736 -1.49793 -0.48987 0
M  V30 929 C 84.1846 -1.52914 -1.07118 0
M  V30 930 C 84.5356 -0.321738 -1.93544 0
M  V30 931 O 83.6606 0.567338 -2.08831 0
M  V30 932 C 84.2556 -2.771 -1.94938 0
M  V30 933 C 82.8146 -2.82963 -2.48212 0
M  V30 934 C 81.9616 -2.46972 -1.26096 0
M  V30 935 H 84.9126 -1.56329 -0.273289 0
M  V30 936 H 84.9336 -2.57892 -2.79771 0
M  V30 937 H 84.4456 -3.64959 -1.32009 0
M  V30 938 H 82.5466 -1.99411 -3.14748 0
M  V30 939 H 82.6596 -3.85406 -2.84603 0
M  V30 940 H 81.0236 -1.98994 -1.58976 0
M  V30 941 H 81.8066 -3.37118 -0.648581 0
M  V30 942 N 84.2517 0.741722 -1.39055 0
M  V30 943 C 85.1617 1.88621 -1.39496 0
M  V30 944 C 86.1777 1.71557 -0.290578 0
M  V30 945 O 87.3537 1.94275 -0.530954 0
M  V30 946 C 84.4187 3.24134 -1.23037 0
M  V30 947 C 83.4797 3.5364 -2.43387 0
M  V30 948 C 82.7127 4.82687 -2.27703 0
M  V30 949 O 82.9357 5.55922 -1.27696 0
M  V30 950 O 81.8697 5.1194 -3.16545 0
M  V30 951 H 85.6957 1.91203 -2.35956 0
M  V30 952 H 83.2807 0.888625 -1.20099 0
M  V30 953 H 85.1627 4.0513 -1.15964 0
M  V30 954 H 83.8377 3.22337 -0.296691 0
M  V30 955 H 82.7447 2.72758 -2.56035 0
M  V30 956 H 84.0777 3.60209 -3.35425 0
M  V30 957 N 85.7298 1.2412 0.971189 0
M  V30 958 C 86.6768 1.0305 2.06517 0
M  V30 959 C 87.6468 -0.0550666 1.66009 0
M  V30 960 O 88.8318 0.0988688 1.90544 0
M  V30 961 C 85.9718 0.637653 3.39158 0
M  V30 962 C 85.0848 1.79633 3.92882 0
M  V30 963 C 84.2198 1.34939 5.13775 0
M  V30 964 C 83.2588 2.47823 5.59687 0
M  V30 965 N 82.3958 2.04022 6.71803 0
M  V30 966 H 87.2358 1.96685 2.23873 0
M  V30 967 H 84.7728 0.979694 1.09729 0
M  V30 968 H 86.7308 0.390931 4.15364 0
M  V30 969 H 85.3608 -0.261693 3.21737 0
M  V30 970 H 84.4128 2.15681 3.13346 0
M  V30 971 H 85.7248 2.64466 4.22918 0
M  V30 972 H 84.8788 1.06134 5.97345 0
M  V30 973 H 83.6178 0.471557 4.85415 0
M  V30 974 H 82.6228 2.77392 4.74693 0
M  V30 975 H 83.8478 3.36158 5.90063 0
M  V30 976 H 81.7938 1.18632 6.45184 0
M  V30 977 H 81.7108 2.82409 7.01271 0
M  V30 978 H 82.9788 1.78347 7.58823 0
M  V30 979 N 87.2079 -1.17134 1.05439 0
M  V30 980 C 88.1579 -2.1919 0.627675 0
M  V30 981 C 89.1419 -1.57328 -0.337147 0
M  V30 982 O 90.3339 -1.76329 -0.153976 0
M  V30 983 C 87.4629 -3.43299 0.00651435 0
M  V30 984 C 86.5489 -4.12255 0.995312 0
M  V30 985 N 86.9399 -4.56997 2.16765 0
M  V30 986 C 85.2379 -4.38316 0.824336 0
M  V30 987 C 85.9389 -5.10239 2.7934 0
M  V30 988 N 84.9149 -5.02595 2.07122 0
M  V30 989 H 88.7169 -2.5149 1.52086 0
M  V30 990 H 86.2309 -1.33491 0.924868 0
M  V30 991 H 88.2279 -4.15693 -0.316965 0
M  V30 992 H 86.8879 -3.1249 -0.882033 0
M  V30 993 H 87.8989 -4.51006 2.54587 0
M  V30 994 H 84.5759 -4.17498 -0.0129526 0
M  V30 995 H 85.9659 -5.54961 3.78772 0
M  V30 996 N 88.686 -0.835752 -1.33615 0
M  V30 997 C 89.616 -0.281739 -2.31794 0
M  V30 998 C 90.597 0.608833 -1.58831 0
M  V30 999 O 91.782 0.533035 -1.86741 0
M  V30 1000 C 88.912 0.546612 -3.42971 0
M  V30 1001 C 87.866 -0.247904 -4.27281 0
M  V30 1002 C 87.192 0.704001 -5.30045 0
M  V30 1003 C 88.492 -1.46324 -5.01385 0
M  V30 1004 H 90.186 -1.10206 -2.78379 0
M  V30 1005 H 87.732 -0.531388 -1.33837 0
M  V30 1006 H 89.685 0.944467 -4.1068 0
M  V30 1007 H 88.409 1.40011 -2.95067 0
M  V30 1008 H 87.068 -0.627281 -3.61194 0
M  V30 1009 H 86.716 1.55381 -4.78399 0
M  V30 1010 H 86.416 0.176524 -5.87335 0
M  V30 1011 H 87.94 1.09944 -6.0062 0
M  V30 1012 H 89.354 -1.13871 -5.61877 0
M  V30 1013 H 87.751 -1.92728 -5.6831 0
M  V30 1014 H 88.821 -2.23467 -4.30338 0
M  V30 1015 N 90.1641 1.46063 -0.591896 0
M  V30 1016 C 91.1271 2.28854 0.125973 0
M  V30 1017 C 92.1271 1.38903 0.810107 0
M  V30 1018 O 93.3171 1.61186 0.66066 0
M  V30 1019 C 90.4491 3.19526 1.1881 0
M  V30 1020 H 91.6421 2.93802 -0.601717 0
M  V30 1021 H 89.1951 1.52325 -0.350254 0
M  V30 1022 H 89.9301 2.59345 1.94707 0
M  V30 1023 H 89.7151 3.85766 0.701936 0
M  V30 1024 H 91.2051 3.81817 1.69132 0
M  V30 1025 N 91.6422 0.330177 1.54103 0
M  V30 1026 C 93.0582 -0.0222371 1.59585 0
M  V30 1027 C 93.2582 -1.49902 1.34654 0
M  V30 1028 O 92.3142 -2.25592 1.13421 0
M  V30 1029 C 93.6272 0.401932 2.98002 0
M  V30 1030 C 95.1752 0.353145 3.11001 0
M  V30 1031 C 95.6502 0.752576 4.51775 0
M  V30 1032 N 97.1412 0.706239 4.57784 0
M  V30 1033 C 97.8762 0.987417 5.64834 0
M  V30 1034 N 97.3722 1.33607 6.79795 0
M  V30 1035 N 99.1652 0.91254 5.54643 0
M  V30 1036 H 91.3162 1.29228 1.68564 0
M  V30 1037 H 93.5792 0.525906 0.78875 0
M  V30 1038 H 93.2852 1.4311 3.21267 0
M  V30 1039 H 93.1592 -0.229699 3.765 0
M  V30 1040 H 95.5462 -0.666822 2.87467 0
M  V30 1041 H 95.6272 1.0198 2.34593 0
M  V30 1042 H 95.2712 1.77049 4.76042 0
M  V30 1043 H 95.2012 0.0635409 5.26562 0
M  V30 1044 H 97.6922 0.44889 3.75224 0
M  V30 1045 H 98.0052 1.53582 7.57385 0
M  V30 1046 H 96.3502 1.37439 6.81275 0
M  V30 1047 H 99.5412 0.639601 4.6371 0
M  V30 1048 H 99.7142 1.13503 6.37982 0
M  V30 1049 N 93.1203 -1.57491 0.0584922 0
M  V30 1050 C 94.0303 -2.15448 -0.928414 0
M  V30 1051 C 95.0463 -1.11416 -1.3365 0
M  V30 1052 O 96.2223 -1.4362 -1.41193 0
M  V30 1053 C 93.2873 -2.69393 -2.18239 0
M  V30 1054 C 92.3483 -3.88249 -1.83196 0
M  V30 1055 C 91.5813 -4.39613 -3.02616 0
M  V30 1056 O 91.8043 -3.90023 -4.16219 0
M  V30 1057 O 90.7383 -5.31111 -2.83204 0
M  V30 1058 H 94.5643 -3.00112 -0.465483 0
M  V30 1059 H 92.1493 -1.48499 -0.163826 0
M  V30 1060 H 94.0313 -3.04026 -2.91798 0
M  V30 1061 H 92.7063 -1.87796 -2.63656 0
M  V30 1062 H 91.6133 -3.58492 -1.06931 0
M  V30 1063 H 92.9463 -4.71098 -1.42573 0
M  V30 1064 N 94.5984 0.214957 -1.56127 0
M  V30 1065 C 95.8474 0.936451 -1.78643 0
M  V30 1066 C 96.1604 1.85237 -0.628229 0
M  V30 1067 O 97.3664 2.613 -0.737186 0
M  V30 1068 C 95.8224 1.7154 -3.16389 0
M  V30 1069 C 95.4304 0.845299 -4.39953 0
M  V30 1070 C 97.1744 2.42772 -3.48227 0
M  V30 1071 C 95.0814 1.62198 -5.68723 0
M  V30 1072 H 94.0114 0.353401 -0.666051 0
M  V30 1073 H 96.6624 0.190169 -1.82512 0
M  V30 1074 H 95.0444 2.50484 -3.06715 0
M  V30 1075 H 96.2184 0.0959353 -4.607 0
M  V30 1076 H 94.5334 0.244789 -4.1568 0
M  V30 1077 H 97.1304 3.01394 -4.41663 0
M  V30 1078 H 97.4734 3.15984 -2.71035 0
M  V30 1079 H 98.0064 1.70813 -3.5926 0
M  V30 1080 H 94.7454 0.933011 -6.48826 0
M  V30 1081 H 94.2654 2.34579 -5.52026 0
M  V30 1082 H 95.9444 2.18095 -6.09133 0
M  V30 1083 N 96.0765 1.50051 0.48192 0
M  V30 1084 C 96.9865 1.7089 1.60728 0
M  V30 1085 C 98.0025 0.591788 1.63627 0
M  V30 1086 O 99.1785 0.868817 1.81696 0
M  V30 1087 C 96.2435 1.78855 2.97005 0
M  V30 1088 C 95.3045 3.02537 3.04581 0
M  V30 1089 C 94.5375 3.10112 4.34357 0
M  V30 1090 O 94.7605 2.24765 5.24249 0
M  V30 1091 O 93.6945 4.02747 4.47301 0
M  V30 1092 H 97.5205 2.66264 1.46072 0
M  V30 1093 H 95.1055 1.34018 0.660264 0
M  V30 1094 H 96.9875 1.86336 3.77964 0
M  V30 1095 H 95.6625 0.866628 3.11883 0
M  V30 1096 H 94.5695 3.00563 2.22739 0
M  V30 1097 H 95.9025 3.94272 2.94636 0
M  V30 1098 N 97.5546 -0.734337 1.39446 0
M  V30 1099 C 98.9706 -1.03997 1.21065 0
M  V30 1100 C 99.1706 -2.01369 0.0727019 0
M  V30 1101 O 98.2266 -2.45856 -0.575426 0
M  V30 1102 C 99.5396 -1.60163 2.54496 0
M  V30 1103 C 101.088 -1.7224 2.61347 0
M  V30 1104 C 101.563 -2.31814 3.95002 0
M  V30 1105 N 103.054 -2.39223 3.96644 0
M  V30 1106 C 103.789 -2.86258 4.96834 0
M  V30 1107 N 103.285 -3.33184 6.07421 0
M  V30 1108 N 105.078 -2.85473 4.84213 0
M  V30 1109 H 97.2286 -0.0885624 2.12215 0
M  V30 1110 H 99.4916 -0.10191 0.942506 0
M  V30 1111 H 99.1976 -0.960811 3.38321 0
M  V30 1112 H 99.0716 -2.5896 2.74262 0
M  V30 1113 H 101.459 -2.35443 1.77906 0
M  V30 1114 H 101.54 -0.720939 2.4543 0
M  V30 1115 H 101.184 -1.69238 4.78875 0
M  V30 1116 H 101.114 -3.32638 4.08239 0
M  V30 1117 H 103.605 -2.06057 3.16779 0
M  V30 1118 H 103.918 -3.67586 6.7978 0
M  V30 1119 H 102.263 -3.31191 6.11013 0
M  V30 1120 H 105.454 -2.48136 3.96921 0
M  V30 1121 H 105.627 -3.21814 5.62441 0
M  V30 1122 N 99.0327 -1.24633 -0.964593 0
M  V30 1123 C 100.282 -1.08188 -1.7023 0
M  V30 1124 C 100.595 0.37873 -1.91898 0
M  V30 1125 O 101.801 0.663427 -2.6327 0
M  V30 1126 C 100.257 -1.88773 -3.06419 0
M  V30 1127 C 99.8647 -3.39263 -2.92582 0
M  V30 1128 C 101.609 -1.80867 -3.84041 0
M  V30 1129 C 99.5157 -4.1218 -4.24101 0
M  V30 1130 H 98.4457 -0.401245 -0.638372 0
M  V30 1131 H 101.097 -1.48742 -1.07462 0
M  V30 1132 H 99.4787 -1.41035 -3.70034 0
M  V30 1133 H 100.653 -3.94603 -2.37961 0
M  V30 1134 H 98.9677 -3.48154 -2.28424 0
M  V30 1135 H 101.565 -2.32646 -4.81435 0
M  V30 1136 H 101.908 -0.774543 -4.09031 0
M  V30 1137 H 102.441 -2.26301 -3.27159 0
M  V30 1138 H 99.1797 -5.15965 -4.04303 0
M  V30 1139 H 98.6997 -3.61626 -4.78526 0
M  V30 1140 H 100.379 -4.19349 -4.92702 0
M  V30 1141 N 100.511 1.16574 -1.06058 0
M  V30 1142 C 101.474 2.19085 -0.673392 0
M  V30 1143 C 102.474 1.5835 0.279648 0
M  V30 1144 O 103.664 1.74088 0.0623488 0
M  V30 1145 C 100.796 3.40899 0.00954234 0
M  V30 1146 H 101.989 2.54853 -1.58081 0
M  V30 1147 H 99.5418 1.30808 -0.855516 0
M  V30 1148 H 100.277 3.10684 0.929826 0
M  V30 1149 H 100.062 3.86233 -0.67573 0
M  V30 1150 H 101.552 4.1675 0.266245 0
M  V30 1151 N 101.989 0.842826 1.3317 0
M  V30 1152 C 102.937 0.267495 2.31057 0
M  V30 1153 C 103.931 -0.602682 1.58316 0
M  V30 1154 O 105.137 -0.491803 1.73151 0
M  V30 1155 H 101.512 0.0677813 0.748939 0
M  V30 1156 H 103.483 1.10754 2.77085 0
M  V30 1157 C 102.232 -0.539331 3.43492 0
M  V30 1158 H 101.555 0.12095 3.99617 0
M  V30 1159 H 102.995 -0.90767 4.14171 0
M  V30 1160 C 101.454 -1.71981 2.89697 0
M  V30 1161 O 101.984 -2.81862 2.86211 0
M  V30 1162 N 100.19 -1.54299 2.46252 0
M  V30 1163 H 99.7369 -0.649143 2.49287 0
M  V30 1164 H 99.6949 -2.33431 2.10612 0
M  V30 1165 N 103.467 -1.45747 0.599634 0
M  V30 1166 C 104.43 -2.28917 -0.113835 0
M  V30 1167 C 105.43 -1.3933 -0.802729 0
M  V30 1168 O 106.62 -1.61534 -0.652103 0
M  V30 1169 C 103.752 -3.20152 -1.17114 0
M  V30 1170 H 104.945 -2.93478 0.617289 0
M  V30 1171 H 102.498 -1.52137 0.358327 0
M  V30 1172 H 103.233 -2.60374 -1.93329 0
M  V30 1173 H 103.018 -3.86133 -0.681468 0
M  V30 1174 H 104.508 -3.82708 -1.67105 0
M  V30 1175 N 104.945 -0.338344 -1.53925 0
M  V30 1176 C 106.193 0.259245 -2.0043 0
M  V30 1177 C 106.514 1.51484 -1.22791 0
M  V30 1178 O 105.784 1.93037 -0.33368 0
M  V30 1179 H 104.364 0.0987845 -0.740439 0
M  V30 1180 H 107.026 -0.458302 -1.89435 0
M  V30 1181 H 106.122 0.505334 -3.07982 0
M  V30 1182 N 106.423 1.57458 -0.0668435 0
M  V30 1183 C 107.672 1.92477 0.602947 0
M  V30 1184 C 107.985 0.948419 1.71068 0
M  V30 1185 O 109.191 1.19124 2.43971 0
M  V30 1186 C 107.647 3.41903 1.12383 0
M  V30 1187 C 107.255 4.47975 0.04737 0
M  V30 1188 C 108.999 3.85931 1.76797 0
M  V30 1189 C 106.906 5.88529 0.582022 0
M  V30 1190 H 105.836 0.718387 0.22899 0
M  V30 1191 H 108.487 1.82978 -0.138276 0
M  V30 1192 H 106.869 3.46459 1.91787 0
M  V30 1193 H 108.043 4.55029 -0.726978 0
M  V30 1194 H 106.358 4.13384 -0.500243 0
M  V30 1195 H 108.955 4.88322 2.17821 0
M  V30 1196 H 109.298 3.23029 2.62599 0
M  V30 1197 H 109.831 3.83958 1.04024 0
M  V30 1198 H 106.57 6.55065 -0.238721 0
M  V30 1199 H 106.09 5.85004 1.324 0
M  V30 1200 H 107.769 6.38258 1.05999 0
M  V30 1201 N 107.901 -0.206675 1.56239 0
M  V30 1202 C 109.317 -0.557025 1.49564 0
M  V30 1203 C 109.517 -1.86424 0.764735 0
M  V30 1204 O 108.573 -2.50584 0.310491 0
M  V30 1205 C 109.886 -0.622478 2.94186 0
M  V30 1206 C 111.434 -0.712099 3.04792 0
M  V30 1207 C 111.909 -0.808767 4.50803 0
M  V30 1208 N 113.4 -0.8726 4.54907 0
M  V30 1209 C 114.135 -0.967365 5.65181 0
M  V30 1210 N 113.631 -1.02515 6.85173 0
M  V30 1211 N 115.424 -1.00366 5.53067 0
M  V30 1212 H 107.575 0.650943 2.02179 0
M  V30 1213 H 109.838 0.230387 0.919579 0
M  V30 1214 H 109.544 0.268727 3.50672 0
M  V30 1215 H 109.418 -1.4811 3.46905 0
M  V30 1216 H 111.805 -1.59374 2.48363 0
M  V30 1217 H 111.886 0.172489 2.55218 0
M  V30 1218 H 111.53 0.0684754 5.07854 0
M  V30 1219 H 111.46 -1.70899 4.98098 0
M  V30 1220 H 113.951 -0.837657 3.68499 0
M  V30 1221 H 114.264 -1.09765 7.64965 0
M  V30 1222 H 112.609 -0.994026 6.87855 0
M  V30 1223 H 115.8 -0.95527 4.58249 0
M  V30 1224 H 115.973 -1.07405 6.39037 0
M  V30 1225 N 109.379 -1.50304 -0.473955 0
M  V30 1226 C 110.604 -1.65175 -1.25427 0
M  V30 1227 C 111.029 -0.333673 -1.85117 0
M  V30 1228 O 110.387 0.702114 -1.67153 0
M  V30 1229 C 110.435 -2.74295 -2.34082 0
M  V30 1230 O 109.539 -2.35349 -3.38651 0
M  V30 1231 H 108.88 -0.551944 -0.369126 0
M  V30 1232 H 111.41 -1.96662 -0.564364 0
M  V30 1233 H 111.42 -2.97285 -2.79438 0
M  V30 1234 H 110.095 -3.69959 -1.90008 0
M  V30 1235 H 108.672 -2.22794 -2.99027 0
M  V30 1236 N 110.857 0.726932 -1.39834 0
M  V30 1237 C 112.103 1.48884 -1.377 0
M  V30 1238 C 112.436 1.94185 0.0244852 0
M  V30 1239 O 111.711 1.67361 0.990986 0
M  V30 1240 C 111.994 2.72288 -2.3565 0
M  V30 1241 C 111.847 2.32956 -3.84775 0
M  V30 1242 C 113.166 3.74414 -2.31306 0
M  V30 1243 H 110.285 0.540062 -0.5015 0
M  V30 1244 H 112.927 0.830547 -1.70886 0
M  V30 1245 H 111.077 3.28457 -2.07481 0
M  V30 1246 H 112.749 1.82356 -4.23726 0
M  V30 1247 H 110.992 1.65088 -4.01159 0
M  V30 1248 H 111.663 3.21362 -4.4881 0
M  V30 1249 H 114.139 3.27849 -2.56231 0
M  V30 1250 H 113.015 4.58414 -3.01907 0
M  V30 1251 H 113.276 4.21909 -1.32081 0
M  V30 1252 N 112.336 1.25143 0.95797 0
M  V30 1253 C 113.269 0.995565 2.05338 0
M  V30 1254 C 114.247 -0.0740423 1.62431 0
M  V30 1255 O 115.431 0.0649212 1.88388 0
M  V30 1256 C 112.558 0.504298 3.34925 0
M  V30 1257 C 111.604 1.56393 3.96792 0
M  V30 1258 S 112.437 3.14815 4.33188 0
M  V30 1259 C 113.593 2.67415 5.65898 0
M  V30 1260 H 113.826 1.92309 2.26726 0
M  V30 1261 H 111.359 1.08635 1.09716 0
M  V30 1262 H 113.317 0.227497 4.09869 0
M  V30 1263 H 111.978 -0.402671 3.11508 0
M  V30 1264 H 111.171 1.17082 4.90212 0
M  V30 1265 H 110.773 1.79124 3.28315 0
M  V30 1266 H 113.065 2.10833 6.4386 0
M  V30 1267 H 114.008 3.59463 6.10076 0
M  V30 1268 H 114.416 2.07521 5.24972 0
M  V30 1269 N 113.814 -1.1601 1.06675 0
M  V30 1270 C 115.042 -1.90527 0.806667 0
M  V30 1271 C 115.457 -1.77643 -0.639396 0
M  V30 1272 O 114.814 -1.12369 -1.43803 0
M  V30 1273 C 114.865 -3.41106 1.19705 0
M  V30 1274 O 114.586 -3.53608 2.58636 0
M  V30 1275 C 116.087 -4.32663 0.965266 0
M  V30 1276 H 113.307 -0.604053 0.292166 0
M  V30 1277 H 115.851 -1.47026 1.4214 0
M  V30 1278 H 114.006 -3.82296 0.626774 0
M  V30 1279 H 114.42 -4.47011 2.74375 0
M  V30 1280 H 115.894 -5.36763 1.288 0
M  V30 1281 H 116.371 -4.39089 -0.0987936 0
M  V30 1282 H 116.977 -3.97206 1.52011 0
M  V30 1283 N 115.292 -0.849877 -1.32721 0
M  V30 1284 C 116.539 -0.450923 -1.97416 0
M  V30 1285 C 116.867 0.992376 -1.67279 0
M  V30 1286 O 116.122 1.71048 -0.950845 0
M  V30 1287 C 116.421 -0.631272 -3.51781 0
M  V30 1288 C 116.087 -2.04432 -4.01894 0
M  V30 1289 C 114.749 -2.4308 -4.1529 0
M  V30 1290 C 117.101 -2.96679 -4.28522 0
M  V30 1291 C 114.429 -3.73257 -4.52654 0
M  V30 1292 C 116.781 -4.26349 -4.67343 0
M  V30 1293 C 115.445 -4.64939 -4.78945 0
M  V30 1294 H 114.715 -0.165004 -0.722395 0
M  V30 1295 H 117.362 -1.07901 -1.58207 0
M  V30 1296 H 115.667 0.0800767 -3.91718 0
M  V30 1297 H 117.364 -0.302709 -3.99856 0
M  V30 1298 H 113.954 -1.73419 -3.91949 0
M  V30 1299 H 118.138 -2.68054 -4.17685 0
M  V30 1300 H 113.394 -4.02946 -4.59831 0
M  V30 1301 H 117.568 -4.97895 -4.86902 0
M  V30 1302 H 115.195 -5.65855 -5.07654 0
M  V30 1303 N 116.77 1.45427 -0.607355 0
M  V30 1304 C 118.018 2.01841 -0.102253 0
M  V30 1305 C 118.339 1.47832 1.27164 0
M  V30 1306 O 117.609 0.672497 1.83995 0
M  V30 1307 H 116.189 0.746188 -0.0348101 0
M  V30 1308 H 118.851 1.78229 -0.7887 0
M  V30 1309 H 117.947 3.12057 -0.0518585 0
M  V30 1310 N 118.248 0.346503 1.53744 0
M  V30 1311 C 119.497 -0.250122 2.00143 0
M  V30 1312 C 119.81 -1.51418 1.23822 0
M  V30 1313 O 121.016 -2.18823 1.60713 0
M  V30 1314 C 119.472 -0.496252 3.56462 0
M  V30 1315 C 119.08 0.752077 4.41642 0
M  V30 1316 C 120.824 -1.05157 4.11269 0
M  V30 1317 C 118.731 0.476583 5.89477 0
M  V30 1318 H 117.661 -0.0972409 0.747703 0
M  V30 1319 H 120.312 0.46229 1.77581 0
M  V30 1320 H 118.694 -1.26944 3.75102 0
M  V30 1321 H 119.868 1.5266 4.34778 0
M  V30 1322 H 118.183 1.22925 3.97842 0
M  V30 1323 H 120.78 -1.27269 5.19333 0
M  V30 1324 H 121.123 -2.00799 3.64672 0
M  V30 1325 H 121.656 -0.339019 3.96353 0
M  V30 1326 H 118.395 1.4028 6.40314 0
M  V30 1327 H 117.915 -0.259794 5.99237 0
M  V30 1328 H 119.594 0.0949315 6.4693 0
M  V30 1329 N 119.726 -1.57421 0.075193 0
M  V30 1330 C 120.951 -1.98364 -0.605515 0
M  V30 1331 C 121.376 -0.953383 -1.62149 0
M  V30 1332 O 120.734 0.0806053 -1.81121 0
M  V30 1333 C 120.782 -3.38332 -1.24756 0
M  V30 1334 O 119.886 -3.37959 -2.36342 0
M  V30 1335 H 119.227 -0.645553 -0.155428 0
M  V30 1336 H 121.757 -2.04044 0.150714 0
M  V30 1337 H 121.767 -3.75591 -1.5936 0
M  V30 1338 H 120.442 -4.12846 -0.503129 0
M  V30 1339 H 119.019 -3.12474 -2.03506 0
M  V30 1340 N 121.204 0.198386 -1.56346 0
M  V30 1341 C 122.154 1.2499 -1.90687 0
M  V30 1342 C 123.138 1.41158 -0.772217 0
M  V30 1343 O 124.33 1.43584 -1.03502 0
M  V30 1344 C 121.459 2.59542 -2.24706 0
M  V30 1345 C 120.545 2.47181 -3.44619 0
M  V30 1346 N 120.936 2.04495 -4.62618 0
M  V30 1347 C 119.234 2.78082 -3.48692 0
M  V30 1348 C 119.935 2.03945 -5.44776 0
M  V30 1349 N 118.911 2.45323 -4.85095 0
M  V30 1350 H 122.713 0.911149 -2.7942 0
M  V30 1351 H 120.227 0.40684 -1.57221 0
M  V30 1352 H 122.224 3.3549 -2.47491 0
M  V30 1353 H 120.884 2.94244 -1.37298 0
M  V30 1354 H 121.895 1.75256 -4.87345 0
M  V30 1355 H 118.572 3.17002 -2.71691 0
M  V30 1356 H 119.962 1.72872 -6.4928 0
M  V30 1357 N 122.682 1.50554 0.465978 0
M  V30 1358 C 123.632 1.66177 1.56106 0
M  V30 1359 C 124.616 0.516265 1.52393 0
M  V30 1360 O 125.808 0.770906 1.5933 0
M  V30 1361 C 122.937 1.76396 2.94515 0
M  V30 1362 C 122.023 2.9664 3.03093 0
M  V30 1363 N 122.414 4.20245 2.81474 0
M  V30 1364 C 120.712 2.95304 3.34233 0
M  V30 1365 C 121.413 5.01259 2.95151 0
M  V30 1366 N 120.389 4.35318 3.25576 0
M  V30 1367 H 124.191 2.59434 1.38099 0
M  V30 1368 H 121.705 1.47808 0.6728 0
M  V30 1369 H 123.702 1.85694 3.73261 0
M  V30 1370 H 122.362 0.843017 3.13565 0
M  V30 1371 H 123.373 4.4966 2.56956 0
M  V30 1372 H 120.05 2.12729 3.59239 0
M  V30 1373 H 121.44 6.09564 2.82632 0
M  V30 1374 N 124.16 -0.719506 1.40217 0
M  V30 1375 C 125.388 -1.50864 1.41589 0
M  V30 1376 C 125.803 -1.88794 0.0145275 0
M  V30 1377 O 125.16 -1.55174 -0.960594 0
M  V30 1378 C 125.211 -2.78646 2.30302 0
M  V30 1379 O 124.932 -2.42321 3.64983 0
M  V30 1380 C 126.433 -3.72569 2.40224 0
M  V30 1381 H 123.653 -0.465709 0.48307 0
M  V30 1382 H 126.197 -0.88785 1.84221 0
M  V30 1383 H 124.352 -3.37019 1.91042 0
M  V30 1384 H 124.766 -3.24514 4.12057 0
M  V30 1385 H 126.24 -4.5908 3.06512 0
M  V30 1386 H 126.717 -4.15403 1.42608 0
M  V30 1387 H 127.323 -3.20109 2.80019 0
M  V30 1388 N 125.638 -1.25649 -0.95132 0
M  V30 1389 C 126.915 -1.01361 -1.67288 0
M  V30 1390 C 127.295 0.459135 -2.06046 0
M  V30 1391 O 126.643 1.43723 -1.7764 0
M  V30 1392 C 126.853 -1.95256 -2.89268 0
M  V30 1393 C 128.201 -2.23289 -3.61147 0
M  V30 1394 O 129.225 -1.93041 -2.99355 0
M  V30 1395 O 128.084 -2.74741 -4.72419 0
M  V30 1396 H 125.178 -0.38464 -0.732107 0
M  V30 1397 H 127.724 -1.36817 -1.00395 0
M  V30 1398 H 126.496 -2.94685 -2.57442 0
M  V30 1399 H 126.119 -1.60218 -3.6389 0
M  V30 1400 N 127.117 1.15442 -1.07289 0
M  V30 1401 C 128.027 2.23786 -0.704057 0
M  V30 1402 C 129.043 1.7166 0.284413 0
M  V30 1403 O 130.219 2.00972 0.131205 0
M  V30 1404 C 127.284 3.46535 -0.106792 0
M  V30 1405 C 126.345 4.13654 -1.14842 0
M  V30 1406 C 125.578 5.30544 -0.57956 0
M  V30 1407 O 125.801 5.67187 0.604585 0
M  V30 1408 O 124.735 5.87154 -1.32414 0
M  V30 1409 H 128.561 2.57664 -1.60757 0
M  V30 1410 H 126.146 1.23152 -0.845803 0
M  V30 1411 H 128.028 4.20804 0.224048 0
M  V30 1412 H 126.703 3.14407 0.770049 0
M  V30 1413 H 125.61 3.4131 -1.5316 0
M  V30 1414 H 126.943 4.49861 -1.99714 0
M  V30 1415 N 128.595 0.856903 1.32268 0
M  V30 1416 C 129.823 0.475439 2.01363 0
M  V30 1417 C 130.238 -0.928486 1.64392 0
M  V30 1418 O 129.595 -1.60624 0.866387 0
M  V30 1419 C 129.646 0.607545 3.56358 0
M  V30 1420 O 129.367 1.95617 3.92002 0
M  V30 1421 C 130.868 0.225382 4.42727 0
M  V30 1422 H 128.088 0.186636 0.644521 0
M  V30 1423 H 130.632 1.15446 1.68797 0
M  V30 1424 H 128.787 -0.0237719 3.87393 0
M  V30 1425 H 129.201 1.95455 4.86721 0
M  V30 1426 H 130.675 0.368813 5.50767 0
M  V30 1427 H 131.152 -0.834369 4.31202 0
M  V30 1428 H 131.758 0.831864 4.17085 0
M  V30 1429 N 130.073 -1.45103 0.615059 0
M  V30 1430 C 131.321 -2.01784 0.112955 0
M  V30 1431 C 131.642 -1.48504 -1.26378 0
M  V30 1432 O 130.912 -0.682245 -1.83636 0
M  V30 1433 H 129.492 -0.745993 0.0387668 0
M  V30 1434 H 132.154 -1.77808 0.798141 0
M  V30 1435 H 131.25 -3.12025 0.0684069 0
M  V30 1436 N 131.551 -0.354651 -1.53558 0
M  V30 1437 C 132.776 0.242153 -2.05981 0
M  V30 1438 C 133.201 1.42553 -1.2272 0
M  V30 1439 O 132.559 1.79656 -0.243604 0
M  V30 1440 C 132.607 0.624367 -3.55154 0
M  V30 1441 O 131.711 1.72301 -3.74681 0
M  V30 1442 H 131.052 0.0378432 -0.662921 0
M  V30 1443 H 133.582 -0.512087 -1.98088 0
M  V30 1444 H 133.592 0.898433 -3.97985 0
M  V30 1445 H 132.267 -0.240989 -4.15201 0
M  V30 1446 H 130.844 1.44535 -3.4375 0
M  V30 1447 N 133.029 1.57378 -0.0835403 0
M  V30 1448 C 134.306 1.85363 0.624507 0
M  V30 1449 C 134.686 0.978239 1.87066 0
M  V30 1450 O 134.034 0.0475908 2.2845 0
M  V30 1451 C 134.244 3.35795 0.950947 0
M  V30 1452 C 135.592 4.03581 1.31939 0
M  V30 1453 O 136.616 3.40609 1.04232 0
M  V30 1454 O 135.475 5.14672 1.83779 0
M  V30 1455 H 132.569 0.766162 0.311329 0
M  V30 1456 H 135.115 1.69307 -0.115362 0
M  V30 1457 H 133.887 3.91244 0.0663899 0
M  V30 1458 H 133.51 3.57154 1.74719 0
M  V30 1459 N 134.507 -0.190092 1.56449 0
M  V30 1460 C 135.47 -1.21925 1.9408 0
M  V30 1461 C 136.47 -1.38176 0.822431 0
M  V30 1462 O 137.66 -1.35903 1.08977 0
M  V30 1463 C 134.792 -2.58773 2.21922 0
M  V30 1464 H 135.985 -0.897464 2.86157 0
M  V30 1465 H 133.538 -0.43181 1.50217 0
M  V30 1466 H 134.273 -2.95998 1.32499 0
M  V30 1467 H 134.058 -2.48348 3.03424 0
M  V30 1468 H 135.548 -3.32978 2.52022 0
M  V30 1469 N 135.985 -1.50799 -0.457987 0
M  V30 1470 C 137.231 -1.63648 -1.20792 0
M  V30 1471 C 137.586 -0.338662 -1.89396 0
M  V30 1472 O 136.879 0.664291 -1.79716 0
M  V30 1473 C 137.073 -2.76358 -2.2663 0
M  V30 1474 C 136.902 -4.16974 -1.68411 0
M  V30 1475 C 135.672 -4.83199 -1.47807 0
M  V30 1476 C 137.87 -5.00774 -1.17176 0
M  V30 1477 N 135.852 -6.07991 -0.849692 0
M  V30 1478 C 137.223 -6.16397 -0.667403 0
M  V30 1479 C 139.278 -4.86452 -1.06155 0
M  V30 1480 C 137.981 -7.19272 -0.0636908 0
M  V30 1481 C 140.007 -5.89515 -0.471759 0
M  V30 1482 C 139.369 -7.04397 0.0221557 0
M  V30 1483 H 135.468 -0.652888 -0.43042 0
M  V30 1484 H 138.052 -1.87962 -0.507785 0
M  V30 1485 H 136.223 -2.53744 -2.94056 0
M  V30 1486 H 137.955 -2.78496 -2.93636 0
M  V30 1487 H 134.71 -4.40714 -1.73403 0
M  V30 1488 H 135.134 -6.74733 -0.553537 0
M  V30 1489 H 139.776 -3.97907 -1.42932 0
M  V30 1490 H 137.494 -8.07481 0.316253 0
M  V30 1491 H 141.08 -5.805 -0.388671 0
M  V30 1492 H 139.96 -7.82782 0.471375 0
M  V30 1493 N 137.463 0.71206 -1.40597 0
M  V30 1494 C 138.879 1.02058 -1.22704 0
M  V30 1495 C 139.079 2.01228 -0.104729 0
M  V30 1496 O 138.135 2.4674 0.53624 0
M  V30 1497 C 139.448 1.56094 -2.57012 0
M  V30 1498 C 140.996 1.6806 -2.64054 0
M  V30 1499 C 141.471 2.25501 -3.9864 0
M  V30 1500 N 142.962 2.32882 -4.004 0
M  V30 1501 C 143.697 2.78317 -5.01325 0
M  V30 1502 N 143.193 3.23478 -6.12645 0
M  V30 1503 N 144.986 2.77733 -4.88693 0
M  V30 1504 H 137.137 0.0547896 -2.12329 0
M  V30 1505 H 139.4 0.0869027 -0.944008 0
M  V30 1506 H 139.106 0.906865 -3.39807 0
M  V30 1507 H 138.98 2.54564 -2.78347 0
M  V30 1508 H 141.367 2.32583 -1.81629 0
M  V30 1509 H 141.448 0.681802 -2.46546 0
M  V30 1510 H 141.092 1.61598 -4.81506 0
M  V30 1511 H 141.022 3.26102 -4.13479 0
M  V30 1512 H 143.513 2.00991 -3.20017 0
M  V30 1513 H 143.826 3.56725 -6.85542 0
M  V30 1514 H 142.171 3.21429 -6.16205 0
M  V30 1515 H 145.362 2.4179 -4.00818 0
M  V30 1516 H 145.535 3.12826 -5.67489 0
M  V30 1517 N 138.941 1.26152 0.944643 0
M  V30 1518 C 139.851 1.09176 2.07648 0
M  V30 1519 C 140.867 0.0261935 1.7398 0
M  V30 1520 O 142.043 0.229208 2.00091 0
M  V30 1521 C 139.108 0.722915 3.39079 0
M  V30 1522 C 138.169 1.86752 3.86552 0
M  V30 1523 C 137.402 1.51617 5.11711 0
M  V30 1524 O 137.625 0.416331 5.68879 0
M  V30 1525 O 136.559 2.34975 5.54139 0
M  V30 1526 H 140.385 2.0412 2.24875 0
M  V30 1527 H 137.97 1.05182 1.061 0
M  V30 1528 H 139.852 0.529787 4.18056 0
M  V30 1529 H 138.527 -0.197159 3.23099 0
M  V30 1530 H 137.434 2.11558 3.08535 0
M  V30 1531 H 138.767 2.76719 4.07047 0
M  V30 1532 N 140.419 -1.14872 1.07899 0
M  V30 1533 C 141.696 -1.81928 0.71845 0
M  V30 1534 C 142.076 -1.95417 -0.798455 0
M  V30 1535 O 141.424 -1.50997 -1.715 0
M  V30 1536 C 141.634 -3.17937 1.43935 0
M  V30 1537 C 142.982 -3.93501 1.59506 0
M  V30 1538 O 144.006 -3.27509 1.40058 0
M  V30 1539 O 142.865 -5.1183 1.91551 0
M  V30 1540 H 139.959 -0.78628 0.256305 0
M  V30 1541 H 142.505 -1.21934 1.18026 0
M  V30 1542 H 141.277 -3.0325 2.47295 0
M  V30 1543 H 140.9 -3.85619 0.968687 0
M  V30 1544 N 141.898 -0.863906 -1.31812 0
M  V30 1545 C 143.146 -0.470904 -1.96537 0
M  V30 1546 C 143.467 0.978771 -1.68657 0
M  V30 1547 O 142.737 1.6853 -0.998717 0
M  V30 1548 H 141.317 -0.171148 -0.72713 0
M  V30 1549 H 143.979 -1.10236 -1.60729 0
M  V30 1550 H 143.075 -0.623616 -3.05806 0
M  V30 1551 N 143.376 1.44774 -0.622745 0
M  V30 1552 C 144.306 2.33382 0.0741861 0
M  V30 1553 C 145.287 1.47719 0.843387 0
M  V30 1554 O 146.472 1.76458 0.810934 0
M  V30 1555 C 143.602 3.30663 1.06204 0
M  V30 1556 C 142.556 4.26079 0.405037 0
M  V30 1557 C 141.882 5.13165 1.5022 0
M  V30 1558 C 143.182 5.1781 -0.683414 0
M  V30 1559 H 144.876 2.91905 -0.665713 0
M  V30 1560 H 142.422 1.40363 -0.321587 0
M  V30 1561 H 144.375 3.9153 1.55827 0
M  V30 1562 H 143.099 2.70331 1.83272 0
M  V30 1563 H 141.758 3.66532 -0.0704683 0
M  V30 1564 H 141.406 4.49191 2.26355 0
M  V30 1565 H 141.106 5.77812 1.06803 0
M  V30 1566 H 142.63 5.76902 2.00041 0
M  V30 1567 H 144.044 5.72661 -0.270631 0
M  V30 1568 H 142.441 5.91015 -1.04023 0
M  V30 1569 H 143.511 4.59326 -1.55395 0
M  V30 1570 N 144.854 0.36279 1.53368 0
M  V30 1571 C 146.1 -0.228113 2.01513 0
M  V30 1572 C 146.433 -1.48648 1.2497 0
M  V30 1573 O 145.708 -1.91459 0.342616 0
M  V30 1574 C 145.991 -0.522884 3.56284 0
M  V30 1575 C 145.844 0.74892 4.43521 0
M  V30 1576 C 147.163 -1.32461 4.19693 0
M  V30 1577 H 144.282 -0.0814343 0.732487 0
M  V30 1578 H 146.924 0.48713 1.83649 0
M  V30 1579 H 145.074 -1.1322 3.71636 0
M  V30 1580 H 146.746 1.38648 4.39971 0
M  V30 1581 H 144.989 1.36986 4.11603 0
M  V30 1582 H 145.66 0.497667 5.49752 0
M  V30 1583 H 148.136 -0.809203 4.08156 0
M  V30 1584 H 147.012 -1.49961 5.28018 0
M  V30 1585 H 147.273 -2.33232 3.75573 0
M  V30 1586 N 146.332 -1.57332 0.0918853 0
M  V30 1587 C 147.295 -2.12708 -0.85369 0
M  V30 1588 C 148.295 -1.05561 -1.213 0
M  V30 1589 O 149.485 -1.31461 -1.14296 0
M  V30 1590 C 146.617 -2.64503 -2.15061 0
M  V30 1591 H 147.81 -2.97573 -0.3729 0
M  V30 1592 H 145.363 -1.55509 -0.157072 0
M  V30 1593 H 146.098 -1.83149 -2.67632 0
M  V30 1594 H 145.883 -3.4284 -1.90272 0
M  V30 1595 H 147.373 -3.07351 -2.82711 0
M  V30 1596 N 147.81 0.181792 -1.56548 0
M  V30 1597 C 149.226 0.53316 -1.50431 0
M  V30 1598 C 149.426 1.85184 -0.794297 0
M  V30 1599 O 148.482 2.50058 -0.350318 0
M  V30 1600 C 149.795 0.575597 -2.9514 0
M  V30 1601 C 151.343 0.663519 -3.05886 0
M  V30 1602 C 151.818 0.736946 -4.52032 0
M  V30 1603 N 153.309 0.800118 -4.56237 0
M  V30 1604 C 154.044 0.877327 -5.66649 0
M  V30 1605 N 153.54 0.916016 -6.86718 0
M  V30 1606 N 155.333 0.915542 -5.54594 0
M  V30 1607 H 147.484 -0.683025 -2.01118 0
M  V30 1608 H 149.747 -0.244988 -0.915797 0
M  V30 1609 H 149.453 -0.324482 -3.502 0
M  V30 1610 H 149.327 1.42572 -3.49218 0
M  V30 1611 H 151.714 1.55403 -2.50867 0
M  V30 1612 H 151.795 -0.21307 -2.54911 0
M  V30 1613 H 151.439 -0.149262 -5.07681 0
M  V30 1614 H 151.369 1.62953 -5.00753 0
M  V30 1615 H 153.86 0.778926 -3.69785 0
M  V30 1616 H 154.173 0.975813 -7.66614 0
M  V30 1617 H 152.518 0.884469 -6.89349 0
M  V30 1618 H 155.709 0.882245 -4.59711 0
M  V30 1619 H 155.882 0.972253 -6.40665 0
M  V30 1620 N 149.288 1.51039 0.449983 0
M  V30 1621 C 150.221 1.66105 1.56474 0
M  V30 1622 C 151.199 0.508776 1.54435 0
M  V30 1623 O 152.383 0.731005 1.73749 0
M  V30 1624 C 149.51 1.66304 2.9506 0
M  V30 1625 C 148.556 2.87346 3.15174 0
M  V30 1626 S 149.389 4.4835 2.92818 0
M  V30 1627 C 150.545 4.51274 4.33708 0
M  V30 1628 H 150.778 2.60397 1.43459 0
M  V30 1629 H 148.311 1.40565 0.638805 0
M  V30 1630 H 150.269 1.67103 3.74949 0
M  V30 1631 H 148.93 0.732108 3.05449 0
M  V30 1632 H 148.123 2.83849 4.16468 0
M  V30 1633 H 147.725 2.84223 2.43091 0
M  V30 1634 H 150.017 4.26136 5.26701 0
M  V30 1635 H 150.96 5.53017 4.42242 0
M  V30 1636 H 151.368 3.80738 4.16772 0
M  V30 1637 N 150.766 -0.704594 1.40972 0
M  V30 1638 C 151.991 -1.49858 1.43378 0
M  V30 1639 C 152.416 -1.88061 0.038184 0
M  V30 1640 O 151.774 -1.5402 -0.956425 0
M  V30 1641 C 151.822 -2.74333 2.34038 0
M  V30 1642 O 150.926 -3.7147 1.7912 0
M  V30 1643 H 150.267 -0.45139 0.486974 0
M  V30 1644 H 152.797 -0.866832 1.8533 0
M  V30 1645 H 152.807 -3.22741 2.49604 0
M  V30 1646 H 151.482 -2.45863 3.35446 0
M  V30 1647 H 150.059 -3.30363 1.72958 0
M  V30 1648 N 152.244 -1.26651 -0.937939 0
M  V30 1649 C 153.66 -1.03834 -1.21205 0
M  V30 1650 C 153.86 0.234502 -2.00131 0
M  V30 1651 O 152.916 0.942767 -2.3424 0
M  V30 1652 C 154.229 -2.27167 -1.97017 0
M  V30 1653 C 155.777 -2.32101 -2.09996 0
M  V30 1654 C 156.252 -3.55136 -2.8921 0
M  V30 1655 N 157.743 -3.55632 -2.96783 0
M  V30 1656 C 158.478 -4.475 -3.58512 0
M  V30 1657 N 157.974 -5.4966 -4.21717 0
M  V30 1658 N 159.767 -4.35145 -3.55816 0
M  V30 1659 H 151.918 -2.08398 -0.410391 0
M  V30 1660 H 154.181 -0.916031 -0.244114 0
M  V30 1661 H 153.887 -3.19765 -1.46434 0
M  V30 1662 H 153.761 -2.31672 -2.97671 0
M  V30 1663 H 156.148 -1.40015 -2.59769 0
M  V30 1664 H 156.229 -2.31605 -1.08594 0
M  V30 1665 H 155.873 -4.47553 -2.40123 0
M  V30 1666 H 155.803 -3.5288 -3.90875 0
M  V30 1667 H 158.294 -2.81743 -2.51852 0
M  V30 1668 H 158.607 -6.15943 -4.66727 0
M  V30 1669 H 156.952 -5.53514 -4.20294 0
M  V30 1670 H 160.143 -3.5455 -3.05634 0
M  V30 1671 H 160.316 -5.06934 -4.03636 0
M  V30 1672 N 153.722 1.14298 -1.08507 0
M  V30 1673 C 154.971 1.84708 -0.810305 0
M  V30 1674 C 155.284 1.83903 0.666271 0
M  V30 1675 O 156.49 2.50112 1.05624 0
M  V30 1676 C 154.946 3.31572 -1.39957 0
M  V30 1677 C 154.554 3.40791 -2.90801 0
M  V30 1678 C 156.298 4.07087 -1.20334 0
M  V30 1679 C 154.205 4.81872 -3.4286 0
M  V30 1680 H 153.135 0.691985 -0.299454 0
M  V30 1681 H 155.786 1.28841 -1.30661 0
M  V30 1682 H 154.168 3.87183 -0.830976 0
M  V30 1683 H 155.342 2.95225 -3.53806 0
M  V30 1684 H 153.657 2.78732 -3.0935 0
M  V30 1685 H 156.254 5.11225 -1.56693 0
M  V30 1686 H 156.597 4.16054 -0.143237 0
M  V30 1687 H 157.13 3.57779 -1.73893 0
M  V30 1688 H 153.869 4.78094 -4.48449 0
M  V30 1689 H 153.389 5.27972 -2.84615 0
M  V30 1690 H 155.068 5.50765 -3.39509 0
M  V30 1691 N 155.201 0.870884 1.31352 0
M  V30 1692 C 156.441 0.488783 1.9847 0
M  V30 1693 C 156.805 -0.941536 1.67329 0
M  V30 1694 O 158.006 -1.42903 2.27667 0
M  V30 1695 C 156.277 0.739688 3.49662 0
M  V30 1696 S 157.836 0.457582 4.36408 0
M  V30 1697 H 154.654 0.18242 0.6872 0
M  V30 1698 H 157.256 1.12711 1.59739 0
M  V30 1699 H 155.96 1.77944 3.69816 0
M  V30 1700 H 155.491 0.0883905 3.93301 0
M  V30 1701 H 157.506 -0.709752 4.91098 0
M  V30 1702 N 156.679 -1.44442 0.630414 0
M  V30 1703 C 157.626 -2.30678 -0.0749355 0
M  V30 1704 C 158.596 -1.4344 -0.837502 0
M  V30 1705 O 159.781 -1.72343 -0.818684 0
M  V30 1706 C 156.921 -3.28706 -1.05103 0
M  V30 1707 C 156.034 -4.31046 -0.286954 0
M  V30 1708 C 155.169 -5.16167 -1.2548 0
M  V30 1709 C 154.208 -6.10216 -0.479843 0
M  V30 1710 N 153.345 -6.88039 -1.39811 0
M  V30 1711 H 158.185 -2.90454 0.666386 0
M  V30 1712 H 155.722 -1.43107 0.340404 0
M  V30 1713 H 157.68 -3.84027 -1.63031 0
M  V30 1714 H 156.31 -2.70632 -1.75949 0
M  V30 1715 H 155.362 -3.78203 0.408243 0
M  V30 1716 H 156.674 -4.97794 0.316657 0
M  V30 1717 H 155.828 -5.76002 -1.90544 0
M  V30 1718 H 154.567 -4.49491 -1.89233 0
M  V30 1719 H 153.572 -5.49491 0.184295 0
M  V30 1720 H 154.797 -6.78928 0.152965 0
M  V30 1721 H 152.743 -6.24032 -2.02287 0
M  V30 1722 H 152.66 -7.51223 -0.848508 0
M  V30 1723 H 153.928 -7.52397 -2.03762 0
M  V30 1724 N 158.157 -0.370918 -1.53173 0
M  V30 1725 C 159.089 0.507823 -2.23503 0
M  V30 1726 C 160.102 1.04182 -1.251 0
M  V30 1727 O 161.291 0.947286 -1.5129 0
M  V30 1728 C 158.391 1.71447 -2.92334 0
M  V30 1729 C 157.564 1.31105 -4.17289 0
M  V30 1730 C 156.623 2.38035 -4.69282 0
M  V30 1731 O 155.649 2.00204 -5.32829 0
M  V30 1732 N 156.851 3.69697 -4.47554 0
M  V30 1733 H 159.616 -0.0946382 -2.99551 0
M  V30 1734 H 157.177 -0.196358 -1.60705 0
M  V30 1735 H 159.169 2.42469 -3.24023 0
M  V30 1736 H 157.739 2.22368 -2.19707 0
M  V30 1737 H 156.959 0.430462 -3.91843 0
M  V30 1738 H 158.247 1.0179 -4.98514 0
M  V30 1739 H 157.645 4.03205 -3.9679 0
M  V30 1740 H 156.202 4.36807 -4.8378 0
M  V30 1741 N 159.635 1.57281 -0.100228 0
M  V30 1742 C 160.863 1.98879 0.570509 0
M  V30 1743 C 161.278 0.979476 1.61405 0
M  V30 1744 O 160.635 -0.0302288 1.82475 0
M  V30 1745 C 160.686 3.4052 1.2136 0
M  V30 1746 O 160.407 4.37588 0.211786 0
M  V30 1747 C 161.908 3.97149 1.96945 0
M  V30 1748 H 159.128 0.653428 0.152555 0
M  V30 1749 H 161.672 2.03697 -0.18103 0
M  V30 1750 H 159.827 3.367 1.91603 0
M  V30 1751 H 160.241 5.20118 0.676607 0
M  V30 1752 H 161.715 4.98393 2.37294 0
M  V30 1753 H 162.192 3.3525 2.83733 0
M  V30 1754 H 162.798 4.04458 1.31506 0
M  V30 1755 N 161.113 -0.173488 1.56642 0
M  V30 1756 C 162.359 -0.891784 1.8214 0
M  V30 1757 C 162.692 -1.8199 0.677736 0
M  V30 1758 O 161.967 -1.91842 -0.320446 0
M  V30 1759 C 162.25 -1.68933 3.18015 0
M  V30 1760 C 162.103 -0.784487 4.42906 0
M  V30 1761 C 163.422 -2.65748 3.50808 0
M  V30 1762 H 160.541 -0.322761 0.662567 0
M  V30 1763 H 163.183 -0.158095 1.89341 0
M  V30 1764 H 161.333 -2.31482 3.12007 0
M  V30 1765 H 163.005 -0.172046 4.60979 0
M  V30 1766 H 161.248 -0.0924117 4.33702 0
M  V30 1767 H 161.919 -1.37799 5.34524 0
M  V30 1768 H 164.395 -2.13327 3.57255 0
M  V30 1769 H 163.271 -3.18619 4.4696 0
M  V30 1770 H 163.532 -3.45842 2.75401 0
M  V30 1771 N 162.591 -1.51276 -0.441967 0
M  V30 1772 C 164.002 -1.56244 -1.02199 0
M  V30 1773 C 164.353 -0.383149 -1.92422 0
M  V30 1774 O 163.478 0.500613 -2.1053 0
M  V30 1775 C 164.073 -2.83162 -1.86024 0
M  V30 1776 C 162.632 -2.90716 -2.39084 0
M  V30 1777 C 161.779 -2.50858 -1.18175 0
M  V30 1778 H 164.73 -1.5712 -0.223416 0
M  V30 1779 H 164.751 -2.66663 -2.71425 0
M  V30 1780 H 164.263 -3.68974 -1.20331 0
M  V30 1781 H 162.364 -2.09323 -3.08244 0
M  V30 1782 H 162.477 -3.94266 -2.72198 0
M  V30 1783 H 160.841 -2.03951 -1.52565 0
M  V30 1784 H 161.624 -3.3901 -0.541001 0
M  V30 1785 N 164.069 0.697108 -1.41344 0
M  V30 1786 C 164.979 1.84088 -1.45427 0
M  V30 1787 C 165.995 1.70545 -0.34501 0
M  V30 1788 O 167.171 1.92488 -0.592492 0
M  V30 1789 C 164.236 3.20056 -1.33286 0
M  V30 1790 C 163.297 3.45718 -2.54514 0
M  V30 1791 C 162.53 4.75199 -2.42944 0
M  V30 1792 O 162.753 5.51579 -1.45318 0
M  V30 1793 O 161.687 5.0161 -3.32672 0
M  V30 1794 H 165.513 1.836 -2.41919 0
M  V30 1795 H 163.098 0.849966 -1.22866 0
M  V30 1796 H 164.98 4.01236 -1.28794 0
M  V30 1797 H 163.655 3.2123 -0.39909 0
M  V30 1798 H 162.562 2.64474 -2.64583 0
M  V30 1799 H 163.895 3.49356 -3.46715 0
M  V30 1800 N 165.547 1.27147 0.931209 0
M  V30 1801 C 166.48 1.0389 2.0318 0
M  V30 1802 C 167.458 -0.0395716 1.62552 0
M  V30 1803 O 168.642 0.104867 1.88208 0
M  V30 1804 C 165.769 0.575227 3.3378 0
M  V30 1805 C 164.815 1.64774 3.93385 0
M  V30 1806 S 165.648 3.23933 4.26413 0
M  V30 1807 C 166.804 2.79358 5.60098 0
M  V30 1808 H 167.037 1.97075 2.22596 0
M  V30 1809 H 164.57 1.10938 1.07387 0
M  V30 1810 H 166.528 0.314385 4.09294 0
M  V30 1811 H 165.189 -0.336505 3.12292 0
M  V30 1812 H 164.382 1.27454 4.87618 0
M  V30 1813 H 163.984 1.86048 3.24441 0
M  V30 1814 H 166.276 2.24443 6.39243 0
M  V30 1815 H 167.219 3.72322 6.02314 0
M  V30 1816 H 167.627 2.1861 5.20452 0
M  V30 1817 N 167.025 -1.13721 1.09112 0
M  V30 1818 C 168.274 -1.84275 0.82009 0
M  V30 1819 C 168.587 -1.84253 -0.656509 0
M  V30 1820 O 169.793 -2.50668 -1.04296 0
M  V30 1821 C 168.249 -3.30825 1.41714 0
M  V30 1822 C 167.857 -3.39244 2.92605 0
M  V30 1823 C 169.601 -4.06443 1.22492 0
M  V30 1824 C 167.508 -4.80047 3.45411 0
M  V30 1825 H 166.438 -0.690387 0.30312 0
M  V30 1826 H 169.089 -1.28146 1.31343 0
M  V30 1827 H 167.471 -3.86737 0.851498 0
M  V30 1828 H 168.645 -2.93344 3.55367 0
M  V30 1829 H 166.96 -2.77088 3.10823 0
M  V30 1830 H 169.557 -5.10387 1.59402 0
M  V30 1831 H 169.9 -4.15972 0.165299 0
M  V30 1832 H 170.433 -3.56852 1.75788 0
M  V30 1833 H 167.172 -4.75709 4.50978 0
M  V30 1834 H 166.692 -5.26455 2.87411 0
M  V30 1835 H 168.371 -5.48957 3.42425 0
M  V30 1836 N 168.503 -0.877838 -1.30888 0
M  V30 1837 C 169.749 -0.493426 -1.96706 0
M  V30 1838 C 170.082 0.953504 -1.6918 0
M  V30 1839 O 169.357 1.67266 -0.992594 0
M  V30 1840 C 169.64 -0.760429 -3.51979 0
M  V30 1841 C 169.493 -2.25747 -3.89048 0
M  V30 1842 C 170.812 -0.232148 -4.39487 0
M  V30 1843 H 167.931 -0.180746 -0.714493 0
M  V30 1844 H 170.573 -1.10052 -1.54882 0
M  V30 1845 H 168.723 -0.243715 -3.87735 0
M  V30 1846 H 170.395 -2.84204 -3.63354 0
M  V30 1847 H 168.638 -2.72694 -3.37373 0
M  V30 1848 H 169.309 -2.39491 -4.97341 0
M  V30 1849 H 171.785 -0.674314 -4.106 0
M  V30 1850 H 170.661 -0.448355 -5.47066 0
M  V30 1851 H 170.922 0.866297 -4.33529 0
M  V30 1852 N 169.982 1.44106 -0.638065 0
M  V30 1853 C 170.915 2.27924 0.112161 0
M  V30 1854 C 171.893 1.38945 0.844574 0
M  V30 1855 O 173.077 1.68386 0.847248 0
M  V30 1856 C 170.204 3.18029 1.16512 0
M  V30 1857 C 169.25 4.23163 0.532458 0
M  V30 1858 S 170.083 5.31131 -0.682666 0
M  V30 1859 C 171.239 6.24805 0.37013 0
M  V30 1860 H 171.472 2.91205 -0.598887 0
M  V30 1861 H 169.005 1.48394 -0.426441 0
M  V30 1862 H 170.963 3.70492 1.76766 0
M  V30 1863 H 169.624 2.53955 1.8484 0
M  V30 1864 H 168.817 4.86252 1.32571 0
M  V30 1865 H 168.419 3.74 0.00437644 0
M  V30 1866 H 170.711 6.66042 1.24071 0
M  V30 1867 H 171.654 7.07741 -0.225349 0
M  V30 1868 H 172.062 5.60154 0.699141 0
M  V30 1869 N 171.46 0.379036 1.52974 0
M  V30 1870 C 172.685 -0.209353 2.06341 0
M  V30 1871 C 173.11 -1.40583 1.24972 0
M  V30 1872 O 172.468 -1.79246 0.272155 0
M  V30 1873 C 172.516 -0.567786 3.56102 0
M  V30 1874 O 171.62 -1.66318 3.77375 0
M  V30 1875 H 170.961 -0.0272919 0.663439 0
M  V30 1876 H 173.491 0.543536 1.97248 0
M  V30 1877 H 173.501 -0.835003 3.99364 0
M  V30 1878 H 172.176 0.307013 4.14765 0
M  V30 1879 H 170.753 -1.39048 3.46006 0
M  V30 1880 N 172.938 -1.57226 0.108567 0
M  V30 1881 C 174.215 -1.86333 -0.594939 0
M  V30 1882 C 174.595 -1.00788 -1.85486 0
M  V30 1883 O 173.943 -0.0839293 -2.28346 0
M  V30 1884 C 174.153 -3.37265 -0.897405 0
M  V30 1885 C 175.501 -4.05629 -1.25501 0
M  V30 1886 O 176.525 -3.42224 -0.987998 0
M  V30 1887 O 175.384 -5.17531 -1.75567 0
M  V30 1888 H 172.478 -0.771018 -0.2991 0
M  V30 1889 H 175.024 -1.69102 0.142283 0
M  V30 1890 H 173.796 -3.913 -0.00413806 0
M  V30 1891 H 173.419 -3.59889 -1.69014 0
M  V30 1892 N 174.416 0.165178 -1.56732 0
M  V30 1893 C 175.644 0.896218 -1.86482 0
M  V30 1894 C 176.059 1.75555 -0.694675 0
M  V30 1895 O 175.416 1.79379 0.33607 0
M  V30 1896 C 175.467 1.76792 -3.1532 0
M  V30 1897 O 175.188 0.943239 -4.27825 0
M  V30 1898 C 176.689 2.6081 -3.58459 0
M  V30 1899 H 173.909 0.260064 -0.618553 0
M  V30 1900 H 176.453 0.163428 -2.03846 0
M  V30 1901 H 174.608 2.45398 -2.99764 0
M  V30 1902 H 175.022 1.53998 -5.01383 0
M  V30 1903 H 176.496 3.17579 -4.51495 0
M  V30 1904 H 176.973 3.35977 -2.82872 0
M  V30 1905 H 177.579 1.97526 -3.76648 0
M  V30 1906 N 175.894 1.51508 0.433938 0
M  V30 1907 C 177.134 1.66006 1.19253 0
M  V30 1908 C 177.498 0.369868 1.88404 0
M  V30 1909 O 178.699 0.39066 2.65946 0
M  V30 1910 C 176.97 2.83229 2.17981 0
M  V30 1911 S 178.529 3.18075 3.02281 0
M  V30 1912 H 175.347 0.584821 0.404358 0
M  V30 1913 H 177.949 1.89425 0.48357 0
M  V30 1914 H 176.653 3.75407 1.65824 0
M  V30 1915 H 176.184 2.6201 2.93453 0
M  V30 1916 H 178.199 2.64772 4.19655 0
M  V30 1917 N 177.372 -0.689602 1.41712 0
M  V30 1918 C 178.619 -1.44966 1.4139 0
M  V30 1919 C 178.947 -1.94484 0.025105 0
M  V30 1920 O 178.202 -1.70307 -0.964048 0
M  V30 1921 C 178.501 -2.67298 2.37247 0
M  V30 1922 C 178.167 -2.36405 3.83958 0
M  V30 1923 C 176.829 -2.27691 4.23923 0
M  V30 1924 C 179.181 -2.11043 4.76561 0
M  V30 1925 C 176.509 -1.91719 5.54492 0
M  V30 1926 C 178.861 -1.76578 6.07456 0
M  V30 1927 C 177.525 -1.66363 6.46436 0
M  V30 1928 H 176.795 -0.53047 0.517381 0
M  V30 1929 H 179.442 -0.787655 1.74552 0
M  V30 1930 H 177.747 -3.38461 1.9736 0
M  V30 1931 H 179.444 -3.25452 2.34269 0
M  V30 1932 H 176.034 -2.44085 3.52308 0
M  V30 1933 H 180.218 -2.16717 4.46483 0
M  V30 1934 H 175.474 -1.82367 5.83568 0
M  V30 1935 H 179.648 -1.55974 6.78708 0
M  V30 1936 H 177.275 -1.38258 7.47522 0
M  V30 1937 N 178.85 -1.27639 -0.924453 0
M  V30 1938 C 180.09 -1.15407 -1.68703 0
M  V30 1939 C 180.454 0.294581 -1.89727 0
M  V30 1940 O 181.655 0.539385 -2.63333 0
M  V30 1941 C 179.926 -1.9195 -3.0148 0
M  V30 1942 S 181.485 -1.95969 -3.92609 0
M  V30 1943 H 178.303 -0.411937 -0.579507 0
M  V30 1944 H 180.905 -1.61592 -1.10038 0
M  V30 1945 H 179.609 -2.96387 -2.83871 0
M  V30 1946 H 179.14 -1.46272 -3.65196 0
M  V30 1947 H 181.155 -1.05846 -4.84779 0
M  V30 1948 N 180.328 1.1314 -1.09713 0
M  V30 1949 C 181.238 2.22242 -0.751367 0
M  V30 1950 C 182.254 1.72224 0.247938 0
M  V30 1951 O 183.43 2.01205 0.0885463 0
M  V30 1952 C 180.495 3.46231 -0.180274 0
M  V30 1953 C 179.556 4.11125 -1.2359 0
M  V30 1954 C 178.789 5.29195 -0.691966 0
M  V30 1955 O 179.012 5.68342 0.48414 0
M  V30 1956 O 177.946 5.84214 -1.44838 0
M  V30 1957 H 181.772 2.54197 -1.66186 0
M  V30 1958 H 179.357 1.21331 -0.871735 0
M  V30 1959 H 181.239 4.21185 0.134739 0
M  V30 1960 H 179.914 3.1597 0.703185 0
M  V30 1961 H 178.821 3.37985 -1.60366 0
M  V30 1962 H 180.154 4.45524 -2.09211 0
M  V30 1963 N 181.806 0.884767 1.30421 0
M  V30 1964 C 183.036 0.517293 2.00019 0
M  V30 1965 C 183.444 -0.898632 1.66497 0
M  V30 1966 O 182.787 -1.60245 0.898181 0
M  V30 1967 C 182.849 0.612025 3.54252 0
M  V30 1968 C 182.513 1.99222 4.1129 0
M  V30 1969 C 183.51 2.9616 4.273 0
M  V30 1970 C 181.195 2.29755 4.46674 0
M  V30 1971 C 183.189 4.21764 4.77906 0
M  V30 1972 C 180.876 3.55606 4.96979 0
M  V30 1973 C 181.874 4.51425 5.12547 0
M  V30 1974 O 181.562 5.75043 5.61766 0
M  V30 1975 H 181.294 0.198529 0.64619 0
M  V30 1976 H 183.848 1.1919 1.67281 0
M  V30 1977 H 182.078 -0.119561 3.86515 0
M  V30 1978 H 183.767 0.255859 4.05093 0
M  V30 1979 H 184.533 2.73882 4.00267 0
M  V30 1980 H 180.412 1.55942 4.33824 0
M  V30 1981 H 183.956 4.96561 4.89972 0
M  V30 1982 H 179.853 3.7772 5.23448 0
M  V30 1983 H 180.621 5.77422 5.80109 0
M  V30 1984 N 183.284 -1.43765 0.645699 0
M  V30 1985 C 184.512 -2.06253 0.163556 0
M  V30 1986 C 184.927 -1.48352 -1.16778 0
M  V30 1987 O 184.284 -0.611932 -1.71935 0
M  V30 1988 C 184.335 -3.61453 0.0583186 0
M  V30 1989 O 184.056 -4.172 1.33702 0
M  V30 1990 C 185.557 -4.41002 -0.450795 0
M  V30 1991 H 182.777 -0.665413 0.0864077 0
M  V30 1992 H 185.321 -1.84396 0.884222 0
M  V30 1993 H 183.476 -3.82522 -0.612865 0
M  V30 1994 H 183.89 -5.10791 1.19131 0
M  V30 1995 H 185.364 -5.49966 -0.473403 0
M  V30 1996 H 185.841 -4.13488 -1.48068 0
M  V30 1997 H 186.447 -4.24886 0.187637 0
M  V30 1998 N 184.763 -0.387143 -1.52771 0
M  V30 1999 C 185.988 0.198407 -2.06449 0
M  V30 2000 C 186.413 1.39918 -1.25716 0
M  V30 2001 O 185.771 1.79099 -0.281657 0
M  V30 2002 C 185.819 0.548893 -3.56398 0
M  V30 2003 O 184.923 1.64315 -3.78252 0
M  V30 2004 H 184.264 0.0237731 -0.663574 0
M  V30 2005 H 186.794 -0.553989 -1.96957 0
M  V30 2006 H 186.804 0.813812 -3.99801 0
M  V30 2007 H 185.479 -0.329005 -4.14597 0
M  V30 2008 H 184.056 1.37211 -3.46738 0
M  V30 2009 N 186.241 1.57166 -0.116904 0
M  V30 2010 C 187.191 2.11756 0.845178 0
M  V30 2011 C 188.175 1.03783 1.22955 0
M  V30 2012 O 189.367 1.3002 1.20099 0
M  V30 2013 C 186.496 2.71886 2.09602 0
M  V30 2014 C 185.582 3.86937 1.7361 0
M  V30 2015 N 185.973 4.94073 1.08284 0
M  V30 2016 C 184.271 3.97082 2.03082 0
M  V30 2017 C 184.972 5.74477 0.913855 0
M  V30 2018 N 183.948 5.2423 1.43818 0
M  V30 2019 H 187.75 2.91967 0.336523 0
M  V30 2020 H 185.264 1.62174 0.0856332 0
M  V30 2021 H 187.261 3.09338 2.79492 0
M  V30 2022 H 185.921 1.93138 2.61013 0
M  V30 2023 H 186.932 5.12483 0.747067 0
M  V30 2024 H 183.609 3.29372 2.56554 0
M  V30 2025 H 184.999 6.70701 0.40125 0
M  V30 2026 N 187.719 -0.156864 1.56817 0
M  V30 2027 C 188.967 -0.869404 1.82444 0
M  V30 2028 C 189.288 -1.82147 0.69623 0
M  V30 2029 O 188.558 -1.93847 -0.28287 0
M  V30 2030 H 187.138 -0.324043 0.673056 0
M  V30 2031 H 189.8 -0.153224 1.94297 0
M  V30 2032 H 188.896 -1.43761 2.77019 0
M  V30 2033 N 189.197 -1.51736 -0.425897 0
M  V30 2034 C 190.147 -1.70258 -1.51645 0
M  V30 2035 C 191.131 -0.556488 -1.5097 0
M  V30 2036 O 192.323 -0.812879 -1.5723 0
M  V30 2037 C 189.452 -1.84143 -2.89735 0
M  V30 2038 C 188.538 -3.04572 -2.95122 0
M  V30 2039 N 188.929 -4.2756 -2.70233 0
M  V30 2040 C 187.227 -3.04061 -3.26286 0
M  V30 2041 C 187.928 -5.08908 -2.81757 0
M  V30 2042 N 186.904 -4.43797 -3.13919 0
M  V30 2043 H 190.706 -2.63004 -1.31172 0
M  V30 2044 H 188.22 -1.4954 -0.633375 0
M  V30 2045 H 190.217 -1.95525 -3.68206 0
M  V30 2046 H 188.877 -0.925857 -3.1122 0
M  V30 2047 H 189.888 -4.56315 -2.44943 0
M  V30 2048 H 186.565 -2.22179 -3.53473 0
M  V30 2049 H 187.955 -6.16843 -2.66372 0
M  V30 2050 N 190.675 0.682077 -1.42076 0
M  V30 2051 C 191.915 1.45424 -1.43636 0
M  V30 2052 C 192.279 1.91939 -0.0484001 0
M  V30 2053 O 193.48 2.6873 0.0612514 0
M  V30 2054 C 191.751 2.62427 -2.42625 0
M  V30 2055 S 193.31 3.51379 -2.62827 0
M  V30 2056 H 190.128 0.496779 -0.508657 0
M  V30 2057 H 192.73 0.794645 -1.78621 0
M  V30 2058 H 191.434 2.26481 -3.42249 0
M  V30 2059 H 190.965 3.33266 -2.09039 0
M  V30 2060 H 192.98 4.58141 -1.9058 0
M  V30 2061 N 192.153 1.28127 0.917671 0
M  V30 2062 C 193.401 1.14825 1.66312 0
M  V30 2063 C 193.722 -0.304379 1.9261 0
M  V30 2064 O 192.992 -1.21149 1.53947 0
M  V30 2065 H 191.572 0.421953 0.616413 0
M  V30 2066 H 194.234 1.608 1.10134 0
M  V30 2067 H 193.33 1.68489 2.62712 0
M  V30 2068 N 193.631 -1.12557 1.10312 0
M  V30 2069 C 194.877 -1.84311 0.846011 0
M  V30 2070 C 195.21 -1.83805 -0.626859 0
M  V30 2071 O 194.485 -1.28268 -1.46211 0
M  V30 2072 C 194.768 -3.32048 1.39341 0
M  V30 2073 C 194.621 -3.41016 2.93305 0
M  V30 2074 C 195.94 -4.27764 1.03468 0
M  V30 2075 H 193.059 -0.669192 0.30879 0
M  V30 2076 H 195.701 -1.32057 1.36605 0
M  V30 2077 H 193.851 -3.76678 0.951087 0
M  V30 2078 H 195.523 -3.05031 3.46055 0
M  V30 2079 H 193.766 -2.81603 3.29973 0
M  V30 2080 H 194.437 -4.44948 3.26689 0
M  V30 2081 H 196.913 -3.91253 1.41633 0
M  V30 2082 H 195.789 -5.29549 1.44463 0
M  V30 2083 H 196.05 -4.42064 -0.0560404 0
M  V30 2084 N 195.109 -0.891671 -1.2995 0
M  V30 2085 C 196.039 -0.379797 -2.30391 0
M  V30 2086 C 197.02 0.540919 -1.6127 0
M  V30 2087 O 198.205 0.453352 -1.88834 0
M  V30 2088 C 195.335 0.400654 -3.44981 0
M  V30 2089 C 194.289 -0.428905 -4.25846 0
M  V30 2090 C 193.615 0.478557 -5.32554 0
M  V30 2091 C 194.915 -1.67458 -4.94727 0
M  V30 2092 H 196.609 -1.21914 -2.73454 0
M  V30 2093 H 194.155 -0.587675 -1.31462 0
M  V30 2094 H 196.108 0.769434 -4.14316 0
M  V30 2095 H 194.832 1.27371 -3.0074 0
M  V30 2096 H 193.491 -0.779911 -3.58208 0
M  V30 2097 H 193.139 1.34951 -4.84559 0
M  V30 2098 H 192.839 -0.0727433 -5.87555 0
M  V30 2099 H 194.363 0.843705 -6.04743 0
M  V30 2100 H 195.777 -1.376 -5.56542 0
M  V30 2101 H 194.174 -2.16659 -5.59624 0
M  V30 2102 H 195.244 -2.41518 -4.20473 0
M  V30 2103 N 196.587 1.43421 -0.653314 0
M  V30 2104 C 197.827 2.03689 -0.170346 0
M  V30 2105 C 198.191 1.50427 1.19314 0
M  V30 2106 O 199.392 2.0234 1.76952 0
M  V30 2107 C 197.663 3.56946 -0.180183 0
M  V30 2108 S 199.222 4.38171 0.234925 0
M  V30 2109 H 196.04 0.707345 -0.0719976 0
M  V30 2110 H 198.642 1.75486 -0.86167 0
M  V30 2111 H 197.346 3.93212 -1.17526 0
M  V30 2112 H 196.877 3.89791 0.531675 0
M  V30 2113 H 198.892 4.73808 1.47378 0
M  V30 2114 N 198.065 0.39524 1.52563 0
M  V30 2115 C 198.975 -0.444232 2.30356 0
M  V30 2116 C 199.991 -1.06615 1.37511 0
M  V30 2117 O 201.167 -1.07067 1.70583 0
M  V30 2118 C 198.232 -1.55315 3.09964 0
M  V30 2119 C 197.293 -0.955734 4.18526 0
M  V30 2120 C 196.526 -2.01181 4.9433 0
M  V30 2121 O 196.749 -3.22781 4.70285 0
M  V30 2122 O 195.683 -1.62579 5.79527 0
M  V30 2123 H 199.509 0.189667 3.03107 0
M  V30 2124 H 197.094 0.1588 1.48554 0
M  V30 2125 H 198.976 -2.19724 3.59582 0
M  V30 2126 H 197.651 -2.17191 2.4002 0
M  V30 2127 H 196.558 -0.274743 3.7309 0
M  V30 2128 H 197.891 -0.381109 4.90722 0
M  V30 2129 N 199.544 -1.57102 0.125237 0
M  V30 2130 C 200.494 -2.12202 -0.833936 0
M  V30 2131 C 201.478 -1.04433 -1.22403 0
M  V30 2132 O 202.67 -1.30655 -1.19408 0
M  V30 2133 C 199.799 -2.72994 -2.08157 0
M  V30 2134 C 198.885 -3.87852 -1.71556 0
M  V30 2135 N 199.276 -4.9464 -1.05662 0
M  V30 2136 C 197.574 -3.98153 -2.00973 0
M  V30 2137 C 198.275 -5.74953 -0.883376 0
M  V30 2138 N 197.251 -5.24985 -1.41036 0
M  V30 2139 H 201.053 -2.92141 -0.321035 0
M  V30 2140 H 198.567 -1.62217 -0.0770315 0
M  V30 2141 H 200.564 -3.10816 -2.77847 0
M  V30 2142 H 199.224 -1.9452 -2.59985 0
M  V30 2143 H 200.235 -5.12872 -0.719878 0
M  V30 2144 H 196.912 -3.30728 -2.54804 0
M  V30 2145 H 198.302 -6.70904 -0.365675 0
M  V30 2146 N 201.022 0.148545 -1.56898 0
M  V30 2147 C 202.27 0.859717 -1.82902 0
M  V30 2148 C 202.591 1.81775 -0.70588 0
M  V30 2149 O 201.861 1.93994 0.272586 0
M  V30 2150 H 200.441 0.320469 -0.674766 0
M  V30 2151 H 203.103 0.142918 -1.94375 0
M  V30 2152 H 202.199 1.4229 -2.77777 0
M  V30 2153 N 202.5 1.5196 0.417844 0
M  V30 2154 C 203.746 1.65836 1.16732 0
M  V30 2155 C 204.079 0.382881 1.90388 0
M  V30 2156 O 203.354 -0.618368 1.84408 0
M  V30 2157 C 203.637 2.87466 2.16876 0
M  V30 2158 C 203.49 4.25041 1.47174 0
M  V30 2159 C 204.809 3.04613 3.17646 0
M  V30 2160 H 201.928 0.603515 0.423011 0
M  V30 2161 H 204.57 1.84494 0.454105 0
M  V30 2162 H 202.72 2.71689 2.777 0
M  V30 2163 H 204.392 4.52527 0.895376 0
M  V30 2164 H 202.635 4.26843 0.773806 0
M  V30 2165 H 203.306 5.06176 2.20204 0
M  V30 2166 H 205.782 3.1923 2.66892 0
M  V30 2167 H 204.658 3.91247 3.8499 0
M  V30 2168 H 204.919 2.17541 3.84874 0
M  V30 2169 N 203.978 -0.674533 1.42435 0
M  V30 2170 C 205.255 -1.4305 1.33402 0
M  V30 2171 C 205.635 -2.11081 -0.0284674 0
M  V30 2172 O 204.983 -2.03257 -1.04397 0
M  V30 2173 C 205.193 -2.43272 2.50239 0
M  V30 2174 C 206.541 -3.07907 2.92367 0
M  V30 2175 O 207.565 -2.53599 2.50132 0
M  V30 2176 O 206.424 -4.0632 3.65467 0
M  V30 2177 H 203.518 -0.638076 0.526106 0
M  V30 2178 H 206.064 -0.703235 1.54443 0
M  V30 2179 H 204.836 -1.91803 3.41068 0
M  V30 2180 H 204.459 -3.23479 2.31186 0
M  V30 2181 N 205.456 -1.28612 -0.910864 0
M  V30 2182 C 206.404 -1.1265 -2.03501 0
M  V30 2183 C 207.398 -0.0450054 -1.6934 0
M  V30 2184 O 208.604 -0.203988 -1.7884 0
M  V30 2185 H 204.979 -0.347639 -0.666822 0
M  V30 2186 H 206.95 -2.07849 -2.14106 0
M  V30 2187 C 205.699 -0.808143 -3.38178 0
M  V30 2188 H 205.022 -1.63231 -3.6496 0
M  V30 2189 H 206.462 -0.736426 -4.17556 0
M  V30 2190 C 204.921 0.488226 -3.33344 0
M  V30 2191 O 205.451 1.51766 -3.71927 0
M  V30 2192 N 203.657 0.490009 -2.86439 0
M  V30 2193 H 203.204 -0.348161 -2.55236 0
M  V30 2194 H 203.162 1.35741 -2.83587 0
M  V30 2195 N 206.934 1.1197 -1.10907 0
M  V30 2196 C 208.211 1.79959 -0.766432 0
M  V30 2197 C 208.591 1.97466 0.746363 0
M  V30 2198 O 207.939 1.55491 1.67436 0
M  V30 2199 C 208.149 3.14009 -1.52314 0
M  V30 2200 C 209.497 3.89134 -1.69883 0
M  V30 2201 O 210.521 3.2368 -1.48692 0
M  V30 2202 O 209.38 5.06572 -2.05054 0
M  V30 2203 H 206.474 0.779208 -0.277062 0
M  V30 2204 H 209.02 1.18762 -1.21217 0
M  V30 2205 H 207.792 2.96587 -2.55249 0
M  V30 2206 H 207.415 3.82915 -1.07059 0
M  V30 2207 N 208.412 0.89855 1.29475 0
M  V30 2208 C 209.375 0.380272 2.26023 0
M  V30 2209 C 210.375 -0.484891 1.53315 0
M  V30 2210 O 211.565 -0.290108 1.71767 0
M  V30 2211 C 208.697 -0.45651 3.3783 0
M  V30 2212 H 209.89 1.23295 2.73383 0
M  V30 2213 H 207.443 0.676589 1.40897 0
M  V30 2214 H 208.178 -1.32922 2.95808 0
M  V30 2215 H 207.963 0.163393 3.91759 0
M  V30 2216 H 209.453 -0.810466 4.0966 0
M  V30 2217 N 209.89 -1.43072 0.660911 0
M  V30 2218 C 211.118 -2.06067 0.185422 0
M  V30 2219 C 211.533 -1.49582 -1.15198 0
M  V30 2220 O 210.89 -0.630134 -1.71276 0
M  V30 2221 C 210.941 -3.61371 0.0966523 0
M  V30 2222 O 210.662 -4.15758 1.38119 0
M  V30 2223 C 212.163 -4.41455 -0.403996 0
M  V30 2224 H 209.383 -0.664459 0.0934604 0
M  V30 2225 H 211.927 -1.83447 0.90373 0
M  V30 2226 H 210.082 -3.8315 -0.572259 0
M  V30 2227 H 210.496 -5.09499 1.24542 0
M  V30 2228 H 211.97 -5.50437 -0.415045 0
M  V30 2229 H 212.447 -4.15036 -1.43674 0
M  V30 2230 H 213.053 -4.24663 0.232691 0
M  V30 2231 N 211.368 -0.403325 -1.52352 0
M  V30 2232 C 212.298 0.416205 -2.29761 0
M  V30 2233 C 213.279 1.05123 -1.33728 0
M  V30 2234 O 214.464 1.06134 -1.62632 0
M  V30 2235 C 211.594 1.53624 -3.11475 0
M  V30 2236 C 210.548 1.02653 -4.15507 0
M  V30 2237 C 209.874 2.23971 -4.85532 0
M  V30 2238 C 211.174 0.08463 -5.22231 0
M  V30 2239 H 212.868 -0.229701 -2.98518 0
M  V30 2240 H 210.414 -0.111913 -1.43564 0
M  V30 2241 H 212.367 2.1165 -3.64393 0
M  V30 2242 H 211.091 2.20994 -2.40477 0
M  V30 2243 H 209.75 0.46871 -3.63591 0
M  V30 2244 H 209.398 2.89883 -4.11068 0
M  V30 2245 H 209.098 1.90521 -5.55856 0
M  V30 2246 H 210.622 2.82614 -5.41259 0
M  V30 2247 H 212.036 0.573509 -5.70424 0
M  V30 2248 H 210.433 -0.160783 -5.99885 0
M  V30 2249 H 211.503 -0.86237 -4.7717 0
M  V30 2250 N 212.846 1.57033 -0.133567 0
M  V30 2251 C 213.756 2.19632 0.824564 0
M  V30 2252 C 214.772 1.17666 1.28182 0
M  V30 2253 O 215.948 1.50193 1.3418 0
M  V30 2254 C 213.013 2.79499 2.05137 0
M  V30 2255 C 212.074 3.96548 1.64464 0
M  V30 2256 C 211.307 4.5355 2.81297 0
M  V30 2257 O 211.53 4.09438 3.97136 0
M  V30 2258 O 210.464 5.44018 2.57542 0
M  V30 2259 H 214.29 3.01991 0.321766 0
M  V30 2260 H 211.875 1.49112 0.0927889 0
M  V30 2261 H 213.757 3.17602 2.7696 0
M  V30 2262 H 212.432 2.00162 2.54395 0
M  V30 2263 H 211.339 3.63186 0.897048 0
M  V30 2264 H 212.672 4.77364 1.19934 0
M  V30 2265 N 214.325 -0.140222 1.56975 0
M  V30 2266 C 215.273 -1.19207 1.99731 0
M  V30 2267 C 216.267 -1.44089 0.890777 0
M  V30 2268 O 217.473 -1.44301 1.07597 0
M  V30 2269 H 213.848 -0.40142 0.635898 0
M  V30 2270 H 215.819 -0.804813 2.87342 0
M  V30 2271 C 214.568 -2.51617 2.39967 0
M  V30 2272 H 213.891 -2.33303 3.24669 0
M  V30 2273 H 215.331 -3.23827 2.73701 0
M  V30 2274 C 213.79 -3.12654 1.25496 0
M  V30 2275 O 214.32 -3.97786 0.559371 0
M  V30 2276 N 212.526 -2.72206 1.01746 0
M  V30 2277 H 212.073 -2.03074 1.58489 0
M  V30 2278 H 212.031 -3.13377 0.253461 0
M  V30 2279 N 215.803 -1.52179 -0.40978 0
M  V30 2280 C 216.733 -1.78435 -1.5061 0
M  V30 2281 C 217.714 -0.635295 -1.57791 0
M  V30 2282 O 218.899 -0.880823 -1.73076 0
M  V30 2283 C 216.029 -1.93444 -2.88439 0
M  V30 2284 C 214.983 -3.09038 -2.96108 0
M  V30 2285 C 214.309 -3.09268 -4.36185 0
M  V30 2286 C 215.609 -4.48508 -2.67652 0
M  V30 2287 H 217.303 -2.70237 -1.28889 0
M  V30 2288 H 214.849 -1.30036 -0.618605 0
M  V30 2289 H 216.802 -2.10394 -3.65119 0
M  V30 2290 H 215.526 -0.983129 -3.11452 0
M  V30 2291 H 214.185 -2.91837 -2.21872 0
M  V30 2292 H 213.833 -2.11861 -4.56206 0
M  V30 2293 H 213.533 -3.86907 -4.42241 0
M  V30 2294 H 215.057 -3.28348 -5.14801 0
M  V30 2295 H 216.471 -4.65918 -3.34056 0
M  V30 2296 H 214.868 -5.28059 -2.85085 0
M  V30 2297 H 215.938 -4.56649 -1.63095 0
M  V30 2298 N 217.281 0.66697 -1.42791 0
M  V30 2299 C 218.529 1.42417 -1.43394 0
M  V30 2300 C 218.85 1.94925 -0.0542373 0
M  V30 2301 O 218.12 1.73564 0.908415 0
M  V30 2302 H 216.7 0.528515 -0.527902 0
M  V30 2303 H 219.362 0.787562 -1.78279 0
M  V30 2304 H 218.458 2.27333 -2.13837 0
M  V30 2305 N 218.759 1.29093 0.90403 0
M  V30 2306 C 219.706 1.13853 2.00764 0
M  V30 2307 C 220.676 0.0330084 1.66067 0
M  V30 2308 O 221.861 0.199733 1.89752 0
M  V30 2309 C 219.001 0.816537 3.35301 0
M  V30 2310 C 218.114 2.00206 3.82807 0
M  V30 2311 C 217.249 1.61983 5.059 0
M  V30 2312 C 216.288 2.77143 5.45764 0
M  V30 2313 N 215.425 2.39346 6.60044 0
M  V30 2314 H 220.265 2.08276 2.13132 0
M  V30 2315 H 217.802 1.03648 1.04381 0
M  V30 2316 H 219.76 0.610557 4.12708 0
M  V30 2317 H 218.39 -0.090779 3.22672 0
M  V30 2318 H 217.442 2.31988 3.01473 0
M  V30 2319 H 218.754 2.86512 4.08304 0
M  V30 2320 H 217.908 1.37649 5.90879 0
M  V30 2321 H 216.647 0.728202 4.82233 0
M  V30 2322 H 215.652 3.02165 4.59322 0
M  V30 2323 H 216.877 3.66964 5.71414 0
M  V30 2324 H 214.823 1.52665 6.37989 0
M  V30 2325 H 214.74 3.19185 6.85315 0
M  V30 2326 H 216.008 2.1832 7.48303 0
M  V30 2327 N 220.237 -1.11381 1.11499 0
M  V30 2328 C 221.169 -2.17207 0.731704 0
M  V30 2329 C 222.182 -1.61066 -0.236957 0
M  V30 2330 O 223.371 -1.78489 -0.0197591 0
M  V30 2331 C 220.471 -3.38846 0.0607624 0
M  V30 2332 C 219.644 -4.24451 1.0564 0
M  V30 2333 C 218.703 -5.24562 0.4149 0
M  V30 2334 O 217.729 -5.59071 1.069 0
M  V30 2335 N 218.931 -5.74651 -0.821943 0
M  V30 2336 H 221.696 -2.50699 1.64225 0
M  V30 2337 H 219.257 -1.26908 1.00529 0
M  V30 2338 H 221.249 -4.02911 -0.380139 0
M  V30 2339 H 219.819 -3.03411 -0.752376 0
M  V30 2340 H 219.039 -3.56833 1.67524 0
M  V30 2341 H 220.327 -4.78486 1.72998 0
M  V30 2342 H 219.725 -5.48797 -1.37252 0
M  V30 2343 H 218.282 -6.40549 -1.20582 0
M  V30 2344 N 221.715 -0.905404 -1.28997 0
M  V30 2345 C 222.678 -0.392253 -2.25819 0
M  V30 2346 C 223.678 0.476753 -1.5357 0
M  V30 2347 O 224.868 0.280994 -1.71919 0
M  V30 2348 C 222 0.438588 -3.38067 0
M  V30 2349 H 223.193 -1.24743 -2.72725 0
M  V30 2350 H 220.746 -0.684051 -1.40536 0
M  V30 2351 H 221.481 1.31352 -2.96508 0
M  V30 2352 H 221.266 -0.184167 -3.91667 0
M  V30 2353 H 222.756 0.78873 -4.10084 0
M  V30 2354 N 223.193 1.4272 -0.668489 0
M  V30 2355 C 224.439 2.01923 -0.188419 0
M  V30 2356 C 224.772 1.52704 1.19979 0
M  V30 2357 O 224.047 0.726566 1.8042 0
M  V30 2358 C 224.33 3.59451 -0.216085 0
M  V30 2359 C 224.183 4.18864 -1.6393 0
M  V30 2360 C 225.502 4.37903 0.439179 0
M  V30 2361 H 222.621 0.733674 -0.0699412 0
M  V30 2362 H 225.263 1.69822 -0.852076 0
M  V30 2363 H 223.413 3.86929 0.349012 0
M  V30 2364 H 225.085 4.02362 -2.25616 0
M  V30 2365 H 223.328 3.74933 -2.18193 0
M  V30 2366 H 223.999 5.27987 -1.61039 0
M  V30 2367 H 226.475 4.16079 -0.0417878 0
M  V30 2368 H 225.351 5.47519 0.389157 0
M  V30 2369 H 225.612 4.15303 1.51577 0
M  V30 2370 N 224.671 0.411399 1.52136 0
M  V30 2371 C 225.917 -0.163888 2.02137 0
M  V30 2372 C 226.25 -1.44597 1.29636 0
M  V30 2373 O 225.525 -1.90272 0.403353 0
M  V30 2374 C 225.808 -0.40927 3.57767 0
M  V30 2375 C 225.661 0.889643 4.40914 0
M  V30 2376 C 226.98 -1.19042 4.23694 0
M  V30 2377 H 224.099 -0.0580896 0.734707 0
M  V30 2378 H 226.741 0.54531 1.82007 0
M  V30 2379 H 224.891 -1.0134 3.7505 0
M  V30 2380 H 226.563 1.52575 4.35337 0
M  V30 2381 H 224.806 1.50011 4.07037 0
M  V30 2382 H 225.477 0.672314 5.4789 0
M  V30 2383 H 227.953 -0.678942 4.10524 0
M  V30 2384 H 226.829 -1.33086 5.32522 0
M  V30 2385 H 227.09 -2.21166 3.82803 0
M  V30 2386 N 226.149 -1.5696 0.141893 0
M  V30 2387 C 227.112 -2.15316 -0.785587 0
M  V30 2388 C 228.112 -1.09366 -1.1788 0
M  V30 2389 O 229.302 -1.35031 -1.10056 0
M  V30 2390 C 226.434 -2.71211 -2.06537 0
M  V30 2391 H 227.627 -2.98608 -0.278041 0
M  V30 2392 H 225.18 -1.5593 -0.107519 0
M  V30 2393 H 225.915 -1.91571 -2.6167 0
M  V30 2394 H 225.7 -3.4872 -1.79268 0
M  V30 2395 H 227.19 -3.16189 -2.72789 0
M  V30 2396 N 227.627 0.131896 -1.57047 0
M  V30 2397 C 228.59 1.14638 -1.98471 0
M  V30 2398 C 229.59 1.35029 -0.873148 0
M  V30 2399 O 230.78 1.31764 -1.13946 0
M  V30 2400 C 227.912 2.50358 -2.31373 0
M  V30 2401 H 229.105 0.79064 -2.8929 0
M  V30 2402 H 226.658 0.375761 -1.51716 0
M  V30 2403 H 227.393 2.90876 -1.43393 0
M  V30 2404 H 227.178 2.36915 -3.12432 0
M  V30 2405 H 228.668 3.23395 -2.64207 0
M  V30 2406 N 229.106 1.52395 0.401703 0
M  V30 2407 C 230.069 1.75636 1.47257 0
M  V30 2408 C 231.069 0.62628 1.48103 0
M  V30 2409 O 232.259 0.894227 1.49497 0
M  V30 2410 C 229.391 1.84553 2.86624 0
M  V30 2411 H 230.584 2.71241 1.27938 0
M  V30 2412 H 228.137 1.42923 0.632662 0
M  V30 2413 H 228.872 0.908882 3.11303 0
M  V30 2414 H 228.657 2.66715 2.87412 0
M  V30 2415 H 230.147 2.04251 3.64241 0
M  V30 2416 N 230.584 -0.659388 1.43143 0
M  V30 2417 C 231.547 -1.75432 1.47501 0
M  V30 2418 C 232.547 -1.56707 0.360512 0
M  V30 2419 O 233.737 -1.62717 0.622002 0
M  V30 2420 C 230.869 -3.14239 1.32162 0
M  V30 2421 H 232.062 -1.7295 2.45006 0
M  V30 2422 H 229.615 -0.870469 1.29817 0
M  V30 2423 H 230.35 -3.22336 0.356401 0
M  V30 2424 H 230.135 -3.29235 2.12948 0
M  V30 2425 H 231.625 -3.94094 1.3813 0
M  V30 2426 N 232.062 -1.29571 -0.897171 0
M  V30 2427 C 233.31 -1.17456 -1.64464 0
M  V30 2428 C 233.631 0.273698 -1.9307 0
M  V30 2429 O 232.901 1.18684 -1.55855 0
M  V30 2430 H 231.481 -0.431706 -0.609622 0
M  V30 2431 H 234.143 -1.62531 -1.07562 0
M  V30 2432 H 233.239 -1.72648 -2.59998 0
M  V30 2433 N 233.54 1.10788 -1.12088 0
M  V30 2434 C 234.503 2.15207 -0.788577 0
M  V30 2435 C 235.503 1.59609 0.195317 0
M  V30 2436 O 236.693 1.74174 -0.0300193 0
M  V30 2437 C 233.825 3.4047 -0.171174 0
M  V30 2438 H 235.018 2.46116 -1.71368 0
M  V30 2439 H 232.571 1.26089 -0.923652 0
M  V30 2440 H 233.306 3.15176 0.763832 0
M  V30 2441 H 233.091 3.82109 -0.879514 0
M  V30 2442 H 234.581 4.17576 0.04496 0
M  V30 2443 N 235.018 0.912232 1.28515 0
M  V30 2444 C 236.295 0.463597 1.90027 0
M  V30 2445 C 236.675 -1.05753 1.82701 0
M  V30 2446 O 236.023 -1.90492 1.26194 0
M  V30 2447 C 236.233 0.992253 3.34597 0
M  V30 2448 C 237.581 1.04344 4.11579 0
M  V30 2449 O 238.605 0.94079 3.43551 0
M  V30 2450 O 237.464 1.1995 5.33174 0
M  V30 2451 H 234.558 0.146666 0.813891 0
M  V30 2452 H 237.104 1.00292 1.36893 0
M  V30 2453 H 235.876 2.03623 3.34146 0
M  V30 2454 H 235.499 0.433672 3.95228 0
M  V30 2455 N 236.496 -1.42363 0.676048 0
M  V30 2456 C 237.743 -2.01522 0.19883 0
M  V30 2457 C 238.071 -1.53456 -1.19505 0
M  V30 2458 O 237.326 -0.727967 -1.81657 0
M  V30 2459 C 237.625 -3.56929 0.183431 0
M  V30 2460 C 237.291 -4.24431 1.52215 0
M  V30 2461 C 235.953 -4.42585 1.8887 0
M  V30 2462 C 238.305 -4.62459 2.40377 0
M  V30 2463 C 235.633 -4.96039 3.13309 0
M  V30 2464 C 237.985 -5.17294 3.64129 0
M  V30 2465 C 236.649 -5.33661 4.00951 0
M  V30 2466 H 235.919 -0.737419 0.0727571 0
M  V30 2467 H 238.566 -1.70531 0.871281 0
M  V30 2468 H 236.871 -3.87594 -0.572532 0
M  V30 2469 H 238.568 -4.00486 -0.203035 0
M  V30 2470 H 235.158 -4.10661 1.22701 0
M  V30 2471 H 239.342 -4.48105 2.13343 0
M  V30 2472 H 234.598 -5.06896 3.41857 0
M  V30 2473 H 238.772 -5.45704 4.32644 0
M  V30 2474 H 236.399 -5.74845 4.9745 0
M  V30 2475 N 237.974 -0.419461 -1.51915 0
M  V30 2476 C 239.223 0.154346 -2.01109 0
M  V30 2477 C 239.536 1.45338 -1.30905 0
M  V30 2478 O 240.742 2.10906 -1.7097 0
M  V30 2479 C 239.198 0.325615 -3.58424 0
M  V30 2480 C 238.806 -0.961934 -4.37551 0
M  V30 2481 C 240.55 0.854155 -4.15818 0
M  V30 2482 C 238.457 -0.757287 -5.86531 0
M  V30 2483 H 237.387 0.0614563 -0.751491 0
M  V30 2484 H 240.038 -0.54649 -1.75173 0
M  V30 2485 H 238.42 1.08903 -3.80731 0
M  V30 2486 H 239.594 -1.7323 -4.26999 0
M  V30 2487 H 237.909 -1.41766 -3.91524 0
M  V30 2488 H 240.506 1.02346 -5.24814 0
M  V30 2489 H 240.849 1.83172 -3.73837 0
M  V30 2490 H 241.382 0.149528 -3.97519 0
M  V30 2491 H 238.121 -1.70671 -6.32892 0
M  V30 2492 H 237.641 -0.0264061 -5.99794 0
M  V30 2493 H 239.32 -0.403482 -6.45741 0
M  V30 2494 N 239.452 1.56882 -0.150215 0
M  V30 2495 C 240.415 2.1573 0.774157 0
M  V30 2496 C 241.415 1.0999 1.17298 0
M  V30 2497 O 242.605 1.35613 1.09338 0
M  V30 2498 C 239.737 2.72302 2.05096 0
M  V30 2499 H 240.93 2.98752 0.262201 0
M  V30 2500 H 238.483 1.55985 0.099248 0
M  V30 2501 H 239.218 1.92956 2.6065 0
M  V30 2502 H 239.003 3.49665 1.77416 0
M  V30 2503 H 240.493 3.17632 2.71109 0
M  V30 2504 N 240.93 -0.123565 1.57115 0
M  V30 2505 C 242.341 -0.681198 1.73829 0
M  V30 2506 C 242.692 -1.80535 0.768214 0
M  V30 2507 O 241.817 -2.16317 -0.0599103 0
M  V30 2508 C 242.412 -1.24246 3.15196 0
M  V30 2509 C 240.971 -1.74643 3.33432 0
M  V30 2510 C 240.118 -0.644284 2.69711 0
M  V30 2511 H 243.069 0.102315 1.5837 0
M  V30 2512 H 243.09 -2.11216 3.16493 0
M  V30 2513 H 242.602 -0.424062 3.85776 0
M  V30 2514 H 240.703 -2.58974 2.67886 0
M  V30 2515 H 240.816 -1.85902 4.41562 0
M  V30 2516 H 239.18 -1.07676 2.3082 0
M  V30 2517 H 239.963 0.163058 3.42913 0
M  V30 2518 N 242.408 -1.52605 -0.393616 0
M  V30 2519 C 243.633 -1.71592 -1.16495 0
M  V30 2520 C 244.058 -0.43133 -1.83088 0
M  V30 2521 O 243.416 0.612523 -1.7064 0
M  V30 2522 C 243.464 -2.86318 -2.19213 0
M  V30 2523 O 242.568 -2.52969 -3.257 0
M  V30 2524 H 241.909 -0.570734 -0.33935 0
M  V30 2525 H 244.439 -1.99377 -0.459324 0
M  V30 2526 H 244.449 -3.1168 -2.63286 0
M  V30 2527 H 243.124 -3.79511 -1.7013 0
M  V30 2528 H 241.701 -2.38332 -2.86797 0
M  V30 2529 N 243.887 0.651787 -1.4349 0
M  V30 2530 C 244.85 1.74647 -1.48429 0
M  V30 2531 C 245.85 1.56513 -0.368817 0
M  V30 2532 O 247.04 1.62385 -0.630623 0
M  V30 2533 C 244.172 3.13533 -1.33827 0
M  V30 2534 H 245.365 1.71649 -2.4592 0
M  V30 2535 H 242.918 0.863573 -1.30277 0
M  V30 2536 H 243.653 3.22142 -0.37349 0
M  V30 2537 H 243.438 3.28101 -2.14691 0
M  V30 2538 H 244.928 3.93356 -1.40218 0
M  V30 2539 N 245.365 1.30045 0.890287 0
M  V30 2540 C 246.328 1.15963 1.977 0
M  V30 2541 C 247.328 0.0923777 1.60534 0
M  V30 2542 O 248.518 0.340071 1.70848 0
M  V30 2543 C 245.65 0.775451 3.31963 0
M  V30 2544 H 246.843 2.12502 2.11619 0
M  V30 2545 H 244.396 1.13366 1.07601 0
M  V30 2546 H 245.131 -0.189671 3.23745 0
M  V30 2547 H 244.916 1.54668 3.60306 0
M  V30 2548 H 246.406 0.700251 4.11687 0
M  V30 2549 N 246.843 -1.10192 1.12674 0
M  V30 2550 C 247.776 -2.15847 0.740625 0
M  V30 2551 C 248.754 -1.60352 -0.269421 0
M  V30 2552 O 249.938 -1.87796 -0.16278 0
M  V30 2553 C 247.065 -3.38562 0.096641 0
M  V30 2554 C 246.111 -4.12758 1.07391 0
M  V30 2555 S 246.944 -4.67997 2.60267 0
M  V30 2556 C 248.1 -5.94021 1.97206 0
M  V30 2557 H 248.333 -2.48266 1.63558 0
M  V30 2558 H 245.866 -1.22019 0.946087 0
M  V30 2559 H 247.824 -4.09621 -0.268535 0
M  V30 2560 H 246.485 -3.04377 -0.775462 0
M  V30 2561 H 245.678 -5.00755 0.570997 0
M  V30 2562 H 245.28 -3.47523 1.38216 0
M  V30 2563 H 247.572 -6.64589 1.31634 0
M  V30 2564 H 248.515 -6.48979 2.83253 0
M  V30 2565 H 248.923 -5.46169 1.42686 0
M  V30 2566 N 248.321 -0.919034 -1.28029 0
M  V30 2567 C 249.598 -0.473668 -1.89778 0
M  V30 2568 C 249.978 1.04783 -1.83259 0
M  V30 2569 O 249.326 1.8982 -1.27202 0
M  V30 2570 C 249.536 -1.00998 -3.34066 0
M  V30 2571 C 250.884 -1.06525 -4.1102 0
M  V30 2572 O 251.908 -0.958996 -3.43048 0
M  V30 2573 O 250.767 -1.22776 -5.3253 0
M  V30 2574 H 247.861 -0.15098 -0.813101 0
M  V30 2575 H 250.407 -1.01016 -1.36359 0
M  V30 2576 H 249.179 -2.05392 -3.33061 0
M  V30 2577 H 248.802 -0.454626 -3.94992 0
M  V30 2578 N 249.799 1.42003 -0.683588 0
M  V30 2579 C 251.047 2.01015 -0.209101 0
M  V30 2580 C 251.368 1.54365 1.19149 0
M  V30 2581 O 250.638 0.769083 1.80172 0
M  V30 2582 H 249.218 0.743294 -0.074315 0
M  V30 2583 H 251.88 1.73798 -0.882066 0
M  V30 2584 H 250.976 3.11343 -0.2172 0
M  V30 2585 N 251.277 0.427512 1.51691 0
M  V30 2586 C 252.209 -0.424521 2.25234 0
M  V30 2587 C 253.222 -0.994671 1.2888 0
M  V30 2588 O 254.411 -0.890483 1.54702 0
M  V30 2589 C 251.511 -1.60479 2.98496 0
M  V30 2590 C 250.684 -1.15527 4.21868 0
M  V30 2591 C 249.743 -2.20454 4.77793 0
M  V30 2592 O 248.769 -1.8029 5.39893 0
M  V30 2593 N 249.971 -3.52831 4.60967 0
M  V30 2594 H 252.736 0.205749 2.98993 0
M  V30 2595 H 250.297 0.255867 1.59865 0
M  V30 2596 H 252.289 -2.30276 3.32799 0
M  V30 2597 H 250.859 -2.14061 2.27809 0
M  V30 2598 H 250.079 -0.284736 3.9317 0
M  V30 2599 H 251.367 -0.832173 5.01949 0
M  V30 2600 H 250.765 -3.88201 4.11481 0
M  V30 2601 H 249.322 -4.18551 4.99658 0
M  V30 2602 N 252.755 -1.56801 0.158532 0
M  V30 2603 C 254.001 -1.96781 -0.490405 0
M  V30 2604 C 254.334 -1.04397 -1.63753 0
M  V30 2605 O 253.609 -0.0885805 -1.94298 0
M  V30 2606 C 253.892 -3.4635 -0.985594 0
M  V30 2607 C 253.745 -4.49512 0.160824 0
M  V30 2608 C 255.064 -3.98697 -1.86355 0
M  V30 2609 H 252.183 -0.715482 -0.176788 0
M  V30 2610 H 254.825 -1.88451 0.242088 0
M  V30 2611 H 252.975 -3.53579 -1.60978 0
M  V30 2612 H 254.647 -4.54353 0.797537 0
M  V30 2613 H 252.89 -4.26013 0.818256 0
M  V30 2614 H 253.561 -5.51531 -0.227569 0
M  V30 2615 H 256.037 -3.94019 -1.33746 0
M  V30 2616 H 254.913 -5.03792 -2.17909 0
M  V30 2617 H 255.174 -3.41744 -2.8047 0
M  V30 2618 N 254.233 0.115231 -1.57178 0
M  V30 2619 C 255.165 1.16694 -1.97269 0
M  V30 2620 C 256.178 1.37445 -0.872502 0
M  V30 2621 O 257.367 1.36454 -1.15077 0
M  V30 2622 C 254.467 2.52627 -2.25905 0
M  V30 2623 C 253.64 2.52427 -3.57211 0
M  V30 2624 C 252.699 3.70134 -3.74016 0
M  V30 2625 O 251.725 3.53546 -4.46087 0
M  V30 2626 N 252.927 4.88844 -3.13068 0
M  V30 2627 H 255.692 0.82588 -2.88096 0
M  V30 2628 H 253.253 0.304461 -1.59011 0
M  V30 2629 H 255.245 3.29937 -2.34359 0
M  V30 2630 H 253.815 2.789 -1.41186 0
M  V30 2631 H 253.035 1.60805 -3.5991 0
M  V30 2632 H 254.323 2.49353 -4.43509 0
M  V30 2633 H 253.721 5.05225 -2.54489 0
M  V30 2634 H 252.278 5.63817 -3.27037 0
M  V30 2635 N 255.711 1.52812 0.385517 0
M  V30 2636 C 256.674 1.77188 1.45386 0
M  V30 2637 C 257.674 0.641953 1.4743 0
M  V30 2638 O 258.864 0.910033 1.4854 0
M  V30 2639 C 255.996 1.87582 2.8465 0
M  V30 2640 H 257.189 2.72583 1.25054 0
M  V30 2641 H 254.742 1.43586 0.617467 0
M  V30 2642 H 255.477 0.941849 3.10322 0
M  V30 2643 H 255.262 2.69748 2.84567 0
M  V30 2644 H 256.752 2.08102 3.62054 0
M  V30 2645 N 257.189 -0.644168 1.43834 0
M  V30 2646 C 258.438 -1.39985 1.45214 0
M  V30 2647 C 258.751 -1.95421 0.0835494 0
M  V30 2648 O 259.957 -2.71488 -0.0251748 0
M  V30 2649 C 258.413 -2.53384 2.55587 0
M  V30 2650 C 258.021 -2.04517 3.98594 0
M  V30 2651 C 259.765 -3.30685 2.66172 0
M  V30 2652 C 257.672 -3.1518 5.00416 0
M  V30 2653 H 256.602 -0.526005 0.540218 0
M  V30 2654 H 259.253 -0.694367 1.69855 0
M  V30 2655 H 257.635 -3.26446 2.24163 0
M  V30 2656 H 258.809 -1.38405 4.39523 0
M  V30 2657 H 257.124 -1.40068 3.92135 0
M  V30 2658 H 259.721 -4.13158 3.39418 0
M  V30 2659 H 260.064 -3.79312 1.71546 0
M  V30 2660 H 260.597 -2.64708 2.96942 0
M  V30 2661 H 257.336 -2.71511 5.96625 0
M  V30 2662 H 256.856 -3.79974 4.64091 0
M  V30 2663 H 258.535 -3.80166 5.23529 0
M  V30 2664 N 258.668 -1.30515 -0.883378 0
M  V30 2665 C 260.084 -1.08881 -1.16692 0
M  V30 2666 C 260.284 0.149409 -2.00945 0
M  V30 2667 O 259.34 0.84257 -2.38027 0
M  V30 2668 C 260.653 -2.35319 -1.87204 0
M  V30 2669 C 262.201 -2.40799 -1.99962 0
M  V30 2670 C 262.676 -3.67083 -2.73887 0
M  V30 2671 N 264.167 -3.679 -2.81432 0
M  V30 2672 C 264.902 -4.62303 -3.3921 0
M  V30 2673 N 264.398 -5.67052 -3.98025 0
M  V30 2674 N 266.191 -4.49845 -3.3704 0
M  V30 2675 H 258.342 -2.09951 -0.321633 0
M  V30 2676 H 260.605 -0.92556 -0.205043 0
M  V30 2677 H 260.311 -3.25689 -1.3274 0
M  V30 2678 H 260.185 -2.44089 -2.87577 0
M  V30 2679 H 262.572 -1.50907 -2.53597 0
M  V30 2680 H 262.653 -2.36003 -0.98673 0
M  V30 2681 H 262.297 -4.57334 -2.20925 0
M  V30 2682 H 262.227 -3.69141 -3.75556 0
M  V30 2683 H 264.718 -2.92171 -2.39676 0
M  V30 2684 H 265.031 -6.35184 -4.40183 0
M  V30 2685 H 263.376 -5.70842 -3.96439 0
M  V30 2686 H 266.567 -3.67194 -2.90321 0
M  V30 2687 H 266.74 -5.23597 -3.81772 0
M  V30 2688 N 260.146 1.09593 -1.13257 0
M  V30 2689 C 261.078 2.16015 -0.766167 0
M  V30 2690 C 262.091 1.61423 0.211303 0
M  V30 2691 O 263.28 1.78498 -0.00863946 0
M  V30 2692 C 260.38 3.38706 -0.114662 0
M  V30 2693 C 259.553 4.22717 -1.12379 0
M  V30 2694 C 258.612 5.23835 -0.498301 0
M  V30 2695 O 257.638 5.573 -1.15781 0
M  V30 2696 N 258.84 5.75886 0.730417 0
M  V30 2697 H 261.605 2.48055 -1.68193 0
M  V30 2698 H 259.166 1.25292 -1.02535 0
M  V30 2699 H 261.158 4.03464 0.315991 0
M  V30 2700 H 259.728 3.04569 0.704011 0
M  V30 2701 H 258.948 3.54122 -1.73179 0
M  V30 2702 H 260.236 4.75673 -1.80589 0
M  V30 2703 H 259.634 5.50911 1.28504 0
M  V30 2704 H 258.191 6.42387 1.10376 0
M  V30 2705 N 261.624 0.925811 1.2754 0
M  V30 2706 C 262.587 0.428129 2.25166 0
M  V30 2707 C 263.587 -0.452261 1.54309 0
M  V30 2708 O 264.777 -0.253608 1.72344 0
M  V30 2709 C 261.909 -0.384749 3.38722 0
M  V30 2710 H 263.102 1.29066 2.70706 0
M  V30 2711 H 260.655 0.706323 1.3943 0
M  V30 2712 H 261.39 -1.26618 2.98561 0
M  V30 2713 H 261.175 0.246454 3.91325 0
M  V30 2714 H 262.665 -0.723389 4.11287 0
M  V30 2715 N 263.102 -1.41638 0.69111 0
M  V30 2716 C 264.032 -2.3347 0.037248 0
M  V30 2717 C 265.013 -1.51575 -0.771947 0
M  V30 2718 O 266.198 -1.80126 -0.72582 0
M  V30 2719 C 263.328 -3.35354 -0.903064 0
M  V30 2720 C 262.282 -4.27526 -0.201288 0
M  V30 2721 C 261.608 -5.19747 -1.25565 0
M  V30 2722 C 262.908 -5.13959 0.929689 0
M  V30 2723 H 264.602 -2.88397 0.804227 0
M  V30 2724 H 262.148 -1.38669 0.388189 0
M  V30 2725 H 264.101 -3.98519 -1.36969 0
M  V30 2726 H 262.825 -2.78767 -1.70166 0
M  V30 2727 H 261.484 -3.65779 0.245265 0
M  V30 2728 H 261.132 -4.59479 -2.04666 0
M  V30 2729 H 260.832 -5.8225 -0.791128 0
M  V30 2730 H 262.356 -5.85789 -1.72288 0
M  V30 2731 H 263.77 -5.70718 0.543546 0
M  V30 2732 H 262.167 -5.85379 1.32103 0
M  V30 2733 H 263.237 -4.51389 1.77133 0
M  V30 2734 N 264.58 -0.43555 -1.51462 0
M  V30 2735 C 265.857 0.191364 -1.94662 0
M  V30 2736 C 266.237 1.60254 -1.37411 0
M  V30 2737 O 265.585 2.2152 -0.560458 0
M  V30 2738 C 265.795 0.17091 -3.48581 0
M  V30 2739 C 267.143 0.377357 -4.2292 0
M  V30 2740 O 268.167 0.249104 -3.55328 0
M  V30 2741 O 267.026 0.63247 -5.42828 0
M  V30 2742 H 264.12 0.130932 -0.816569 0
M  V30 2743 H 266.666 -0.4934 -1.62369 0
M  V30 2744 H 265.438 -0.815738 -3.82703 0
M  V30 2745 H 265.061 0.898659 -3.87311 0
M  V30 2746 N 266.058 1.56714 -0.166846 0
M  V30 2747 C 267.021 2.16539 0.751232 0
M  V30 2748 C 268.021 1.11228 1.16125 0
M  V30 2749 O 269.211 1.36765 1.07894 0
M  V30 2750 C 266.343 2.74462 2.02196 0
M  V30 2751 H 267.536 2.99013 0.230499 0
M  V30 2752 H 265.089 1.56081 0.0826982 0
M  V30 2753 H 265.824 1.95709 2.58589 0
M  V30 2754 H 265.609 3.51527 1.73698 0
M  V30 2755 H 267.099 3.20489 2.67725 0
M  V30 2756 N 267.536 -0.106894 1.57237 0
M  V30 2757 C 268.499 -1.11466 2.0027 0
M  V30 2758 C 269.499 -1.33623 0.894519 0
M  V30 2759 O 270.689 -1.29935 1.16028 0
M  V30 2760 C 267.821 -2.46646 2.35327 0
M  V30 2761 H 269.014 -0.744516 2.90512 0
M  V30 2762 H 266.567 -0.351576 1.52295 0
M  V30 2763 H 267.302 -2.88558 1.48003 0
M  V30 2764 H 267.087 -2.31915 3.16161 0
M  V30 2765 H 268.577 -3.19151 2.69318 0
M  V30 2766 N 269.014 -1.53014 -0.377408 0
M  V30 2767 C 270.262 -1.6829 -1.11906 0
M  V30 2768 C 270.583 -0.431206 -1.90173 0
M  V30 2769 O 269.853 0.554595 -1.87886 0
M  V30 2770 H 268.433 -0.620371 -0.416112 0
M  V30 2771 H 271.095 -1.90167 -0.426893 0
M  V30 2772 H 270.191 -2.53862 -1.8155 0
M  V30 2773 N 270.492 0.636531 -1.44174 0
M  V30 2774 C 271.739 1.39619 -1.46672 0
M  V30 2775 C 272.067 1.94257 -0.0972691 0
M  V30 2776 O 271.322 1.73768 0.900175 0
M  V30 2777 C 271.621 2.58309 -2.47005 0
M  V30 2778 C 271.287 2.21992 -3.92467 0
M  V30 2779 C 269.949 2.118 -4.32081 0
M  V30 2780 C 272.301 1.9321 -4.84065 0
M  V30 2781 C 269.629 1.71007 -5.61225 0
M  V30 2782 C 271.981 1.53911 -6.13591 0
M  V30 2783 C 270.645 1.42257 -6.52165 0
M  V30 2784 H 269.915 0.510902 -0.536712 0
M  V30 2785 H 272.562 0.722328 -1.77355 0
M  V30 2786 H 270.867 3.30903 -2.09786 0
M  V30 2787 H 272.564 3.16533 -2.46186 0
M  V30 2788 H 269.154 2.30841 -3.61124 0
M  V30 2789 H 273.338 1.99997 -4.54219 0
M  V30 2790 H 268.594 1.60583 -5.89935 0
M  V30 2791 H 272.768 1.30677 -6.8403 0
M  V30 2792 H 270.395 1.10419 -7.52138 0
M  V30 2793 N 271.97 1.30982 0.876444 0
M  V30 2794 C 272.917 1.18085 1.98304 0
M  V30 2795 C 273.887 0.0682263 1.6596 0
M  V30 2796 O 275.072 0.239937 1.89285 0
M  V30 2797 C 272.212 0.887475 3.33493 0
M  V30 2798 C 271.325 2.08281 3.78475 0
M  V30 2799 C 270.46 1.72678 5.0235 0
M  V30 2800 C 269.499 2.88657 5.39762 0
M  V30 2801 N 268.636 2.53292 6.54819 0
M  V30 2802 H 273.476 2.1275 2.08666 0
M  V30 2803 H 271.013 1.05839 1.02159 0
M  V30 2804 H 272.971 0.697961 4.1132 0
M  V30 2805 H 271.601 -0.022315 3.22792 0
M  V30 2806 H 270.653 2.3833 2.96484 0
M  V30 2807 H 271.965 2.95108 4.02135 0
M  V30 2808 H 271.119 1.50151 5.87826 0
M  V30 2809 H 269.858 0.830327 4.8058 0
M  V30 2810 H 268.863 3.1184 4.52809 0
M  V30 2811 H 270.088 3.79002 5.63502 0
M  V30 2812 H 268.034 1.66163 6.34607 0
M  V30 2813 H 267.951 3.3365 6.7839 0
M  V30 2814 H 269.219 2.34143 7.43503 0
M  V30 2815 N 273.449 -1.08991 1.13837 0
M  V30 2816 C 274.726 -1.77863 0.813876 0
M  V30 2817 C 275.106 -1.99375 -0.693746 0
M  V30 2818 O 274.454 -1.59875 -1.63255 0
M  V30 2819 C 274.664 -3.0986 1.60586 0
M  V30 2820 C 276.012 -3.84493 1.8014 0
M  V30 2821 O 277.036 -3.19624 1.57222 0
M  V30 2822 O 275.895 -5.00957 2.18413 0
M  V30 2823 H 272.989 -0.771589 0.297624 0
M  V30 2824 H 275.535 -1.15507 1.24323 0
M  V30 2825 H 274.307 -2.89715 2.63022 0
M  V30 2826 H 273.93 -3.79942 1.17173 0
M  V30 2827 N 274.927 -0.932562 -1.27047 0
M  V30 2828 C 276.155 -0.592031 -1.98249 0
M  V30 2829 C 276.57 0.831062 -1.69525 0
M  V30 2830 O 275.927 1.55299 -0.958561 0
M  V30 2831 C 275.978 -0.814279 -3.5221 0
M  V30 2832 O 275.699 -2.18139 -3.7993 0
M  V30 2833 C 277.2 -0.483121 -4.4066 0
M  V30 2834 H 274.42 -0.223896 -0.632544 0
M  V30 2835 H 276.964 -1.25091 -1.61779 0
M  V30 2836 H 275.119 -0.20213 -3.86872 0
M  V30 2837 H 275.533 -2.235 -4.74498 0
M  V30 2838 H 277.007 -0.689298 -5.47679 0
M  V30 2839 H 277.484 0.581546 -4.35333 0
M  V30 2840 H 278.09 -1.07362 -4.11526 0
M  V30 2841 N 276.405 1.4127 -0.698611 0
M  V30 2842 C 277.368 2.29158 -0.044132 0
M  V30 2843 C 278.368 1.44529 0.704841 0
M  V30 2844 O 279.558 1.65643 0.539276 0
M  V30 2845 C 276.69 3.27459 0.947809 0
M  V30 2846 H 277.883 2.88529 -0.817994 0
M  V30 2847 H 275.436 1.49307 -0.46228 0
M  V30 2848 H 276.171 2.73073 1.74933 0
M  V30 2849 H 275.956 3.8991 0.41385 0
M  V30 2850 H 277.446 3.93311 1.40344 0
M  V30 2851 N 277.883 0.443576 1.51229 0
M  V30 2852 C 279.132 -0.122332 2.01329 0
M  V30 2853 C 279.445 -1.43237 1.33201 0
M  V30 2854 O 280.651 -2.0816 1.74304 0
M  V30 2855 C 279.107 -0.268551 3.58897 0
M  V30 2856 C 278.715 1.03142 4.35965 0
M  V30 2857 C 280.459 -0.787894 4.17124 0
M  V30 2858 C 278.366 0.850504 5.85252 0
M  V30 2859 H 277.296 -0.0494929 0.752374 0
M  V30 2860 H 279.947 0.574289 1.74282 0
M  V30 2861 H 278.329 -1.02832 3.82415 0
M  V30 2862 H 279.503 1.80001 4.24189 0
M  V30 2863 H 277.818 1.47977 3.89219 0
M  V30 2864 H 280.415 -0.939841 5.26375 0
M  V30 2865 H 280.758 -1.77201 3.76703 0
M  V30 2866 H 281.291 -0.0862669 3.97706 0
M  V30 2867 H 278.03 1.80718 6.30096 0
M  V30 2868 H 277.55 0.121825 5.99676 0
M  V30 2869 H 279.229 0.506163 6.45017 0
M  V30 2870 N 279.361 -1.56624 0.175154 0
M  V30 2871 C 280.294 -2.14 -0.792412 0
M  V30 2872 C 281.272 -1.07114 -1.22333 0
M  V30 2873 O 282.456 -1.35112 -1.31442 0
M  V30 2874 C 279.583 -2.68268 -2.0676 0
M  V30 2875 C 278.629 -3.87562 -1.7804 0
M  V30 2876 S 279.462 -5.27074 -0.946222 0
M  V30 2877 C 280.618 -5.8475 -2.23199 0
M  V30 2878 H 280.851 -2.95736 -0.304588 0
M  V30 2879 H 278.384 -1.54349 -0.0395705 0
M  V30 2880 H 280.342 -3.00182 -2.80002 0
M  V30 2881 H 279.003 -1.86612 -2.52656 0
M  V30 2882 H 278.196 -4.23874 -2.72666 0
M  V30 2883 H 277.798 -3.56555 -1.12891 0
M  V30 2884 H 280.09 -5.97898 -3.18629 0
M  V30 2885 H 281.033 -6.81756 -1.91349 0
M  V30 2886 H 281.441 -5.13198 -2.35134 0
M  V30 2887 N 280.839 0.0985539 -1.57292 0
M  V30 2888 C 282.064 0.820196 -1.90493 0
M  V30 2889 C 282.489 1.71658 -0.769094 0
M  V30 2890 O 281.847 1.79133 0.279495 0
M  V30 2891 C 281.895 1.61242 -3.22542 0
M  V30 2892 O 280.999 2.72108 -3.09888 0
M  V30 2893 H 280.34 0.225547 -0.62452 0
M  V30 2894 H 282.87 0.0748159 -2.04463 0
M  V30 2895 H 282.88 1.99737 -3.55766 0
M  V30 2896 H 281.555 0.954535 -4.04798 0
M  V30 2897 H 280.132 2.36667 -2.88172 0
M  V30 2898 N 282.317 1.53212 0.369288 0
M  V30 2899 C 283.547 1.72868 1.13139 0
M  V30 2900 C 283.955 0.455754 1.83629 0
M  V30 2901 O 283.298 -0.580861 1.74275 0
M  V30 2902 C 283.36 2.83667 2.20847 0
M  V30 2903 C 283.024 4.24142 1.70155 0
M  V30 2904 C 284.021 5.06619 1.16763 0
M  V30 2905 C 281.706 4.70539 1.7578 0
M  V30 2906 C 283.7 6.33581 0.696678 0
M  V30 2907 C 281.387 5.97481 1.28297 0
M  V30 2908 C 282.385 6.78833 0.753307 0
M  V30 2909 O 282.073 8.03393 0.285475 0
M  V30 2910 H 281.805 0.581707 0.344373 0
M  V30 2911 H 284.359 2.00736 0.435243 0
M  V30 2912 H 282.589 2.51265 2.93944 0
M  V30 2913 H 284.278 2.91536 2.82421 0
M  V30 2914 H 285.044 4.71948 1.11758 0
M  V30 2915 H 280.923 4.07293 2.15949 0
M  V30 2916 H 284.467 6.97027 0.282581 0
M  V30 2917 H 280.364 6.31651 1.32994 0
M  V30 2918 H 281.132 8.17497 0.405145 0
M  V30 2919 N 283.795 -0.628877 1.44509 0
M  V30 2920 C 285.02 -1.42048 1.5112 0
M  V30 2921 C 285.445 -1.87594 0.137818 0
M  V30 2922 O 284.803 -1.58873 -0.873437 0
M  V30 2923 C 284.851 -2.61541 2.48251 0
M  V30 2924 O 283.955 -3.61453 1.98559 0
M  V30 2925 H 283.296 -0.424942 0.510216 0
M  V30 2926 H 285.826 -0.767374 1.89664 0
M  V30 2927 H 285.836 -3.09057 2.66361 0
M  V30 2928 H 284.511 -2.27736 3.48007 0
M  V30 2929 H 283.088 -3.20731 1.90227 0
M  V30 2930 N 285.273 -1.31445 -0.869486 0
M  V30 2931 C 286.501 -1.24122 -1.65534 0
M  V30 2932 C 286.916 0.193387 -1.87807 0
M  V30 2933 O 286.273 1.12557 -1.43656 0
M  V30 2934 C 286.324 -1.98229 -3.02304 0
M  V30 2935 O 286.045 -3.3609 -2.81026 0
M  V30 2936 C 287.546 -1.97751 -3.96749 0
M  V30 2937 H 284.766 -0.428868 -0.516055 0
M  V30 2938 H 287.31 -1.73328 -1.08525 0
M  V30 2939 H 285.465 -1.52782 -3.56001 0
M  V30 2940 H 285.879 -3.7383 -3.67902 0
M  V30 2941 H 287.353 -2.54114 -4.90031 0
M  V30 2942 H 287.83 -0.960137 -4.28577 0
M  V30 2943 H 288.436 -2.43079 -3.48988 0
M  V30 2944 N 286.751 1.08385 -1.14413 0
M  V30 2945 C 287.698 2.15311 -0.831265 0
M  V30 2946 C 288.668 1.64751 0.211292 0
M  V30 2947 O 289.853 1.90627 0.0811674 0
M  V30 2948 C 286.993 3.43658 -0.315143 0
M  V30 2949 C 286.106 4.08064 -1.41802 0
M  V30 2950 C 285.241 5.24207 -0.859126 0
M  V30 2951 C 284.28 5.80554 -1.93967 0
M  V30 2952 N 283.417 6.88042 -1.39793 0
M  V30 2953 H 288.257 2.41415 -1.74708 0
M  V30 2954 H 285.794 1.18474 -0.871909 0
M  V30 2955 H 287.752 4.172 0.00230884 0
M  V30 2956 H 286.382 3.17839 0.56378 0
M  V30 2957 H 285.434 3.3228 -1.85187 0
M  V30 2958 H 286.746 4.45962 -2.23427 0
M  V30 2959 H 285.9 6.04689 -0.49359 0
M  V30 2960 H 284.639 4.87699 -0.011932 0
M  V30 2961 H 283.644 4.98725 -2.31415 0
M  V30 2962 H 284.869 6.19121 -2.79046 0
M  V30 2963 H 282.815 6.53493 -0.572919 0
M  V30 2964 H 282.732 7.24767 -2.15054 0
M  V30 2965 H 284 7.72255 -1.0603 0
M  V30 2966 N 288.23 0.939286 1.26551 0
M  V30 2967 C 289.477 0.585847 1.9384 0
M  V30 2968 C 289.805 -0.874784 1.73718 0
M  V30 2969 O 289.06 -1.64092 1.06642 0
M  V30 2970 C 289.359 0.872106 3.46596 0
M  V30 2971 C 289.025 2.31632 3.86856 0
M  V30 2972 C 287.687 2.71111 3.97558 0
M  V30 2973 C 290.039 3.25494 4.07066 0
M  V30 2974 C 287.367 4.03553 4.25866 0
M  V30 2975 C 289.719 4.57531 4.36862 0
M  V30 2976 C 288.383 4.96828 4.45778 0
M  V30 2977 H 287.653 0.214377 0.709312 0
M  V30 2978 H 290.3 1.18544 1.50398 0
M  V30 2979 H 288.605 0.18996 3.91339 0
M  V30 2980 H 290.302 0.577442 3.96821 0
M  V30 2981 H 286.892 2.00008 3.79071 0
M  V30 2982 H 291.076 2.9619 3.98227 0
M  V30 2983 H 286.332 4.33665 4.30981 0
M  V30 2984 H 290.506 5.30254 4.51446 0
M  V30 2985 H 288.133 5.99482 4.67468 0
M  V30 2986 N 289.708 -1.40897 0.706093 0
M  V30 2987 C 290.671 -2.29131 0.0562841 0
M  V30 2988 C 291.671 -1.44901 -0.697166 0
M  V30 2989 O 292.861 -1.65926 -0.530484 0
M  V30 2990 C 289.993 -3.27957 -0.93043 0
M  V30 2991 H 291.186 -2.88091 0.833284 0
M  V30 2992 H 288.739 -1.4906 0.470192 0
M  V30 2993 H 289.474 -2.73997 -1.73482 0
M  V30 2994 H 289.259 -3.90124 -0.393166 0
M  V30 2995 H 290.749 -3.94049 -1.38256 0
M  V30 2996 N 291.186 -0.45159 -1.50991 0
M  V30 2997 C 292.411 0.110667 -2.07105 0
M  V30 2998 C 292.836 1.3446 -1.31538 0
M  V30 2999 O 292.194 1.77743 -0.357365 0
M  V30 3000 C 292.242 0.397238 -3.58405 0
M  V30 3001 O 291.346 1.48124 -3.84881 0
M  V30 3002 H 290.687 -0.00439271 -0.663985 0
M  V30 3003 H 293.217 -0.637026 -1.9443 0
M  V30 3004 H 293.227 0.64351 -4.02893 0
M  V30 3005 H 291.902 -0.504553 -4.12828 0
M  V30 3006 H 290.479 1.22381 -3.52246 0
M  V30 3007 N 292.664 1.56529 -0.183458 0
M  V30 3008 C 293.889 2.02064 0.467428 0
M  V30 3009 C 294.314 1.06282 1.55196 0
M  V30 3010 O 293.672 0.0443565 1.81246 0
M  V30 3011 C 293.72 3.46122 1.01153 0
M  V30 3012 O 292.824 3.53437 2.12499 0
M  V30 3013 H 292.165 0.654726 0.110588 0
M  V30 3014 H 294.695 2.02521 -0.290917 0
M  V30 3015 H 294.705 3.85676 1.33108 0
M  V30 3016 H 293.38 4.15331 0.217533 0
M  V30 3017 H 291.957 3.2575 1.81497 0
M  V30 3018 N 294.142 -0.090211 1.57342 0
M  V30 3019 C 295.389 -0.792807 1.86335 0
M  V30 3020 C 295.717 -1.78494 0.772662 0
M  V30 3021 O 294.972 -1.94305 -0.233258 0
M  V30 3022 C 295.271 -1.55222 3.21933 0
M  V30 3023 C 294.937 -0.701765 4.45406 0
M  V30 3024 C 293.599 -0.467334 4.78925 0
M  V30 3025 C 295.951 -0.11086 5.21082 0
M  V30 3026 C 293.279 0.367785 5.85546 0
M  V30 3027 C 295.631 0.711609 6.28585 0
M  V30 3028 C 294.295 0.956086 6.60617 0
M  V30 3029 H 293.565 -0.290109 0.681849 0
M  V30 3030 H 296.212 -0.0541332 1.91423 0
M  V30 3031 H 294.517 -2.3626 3.12551 0
M  V30 3032 H 296.214 -2.10032 3.41595 0
M  V30 3033 H 292.804 -0.894598 4.1916 0
M  V30 3034 H 296.988 -0.279129 4.95514 0
M  V30 3035 H 292.244 0.566128 6.08773 0
M  V30 3036 H 296.418 1.17632 6.86393 0
M  V30 3037 H 294.045 1.60499 7.43064 0
M  V30 3038 N 295.62 -1.53406 -0.361157 0
M  V30 3039 C 296.85 -1.73465 -1.1222 0
M  V30 3040 C 297.258 -0.465486 -1.83384 0
M  V30 3041 O 296.601 0.571611 -1.7458 0
M  V30 3042 C 296.663 -2.84834 -2.19339 0
M  V30 3043 C 296.327 -4.25038 -1.67903 0
M  V30 3044 C 297.324 -5.07231 -1.14074 0
M  V30 3045 C 295.009 -4.71464 -1.73282 0
M  V30 3046 C 297.003 -6.33942 -0.663068 0
M  V30 3047 C 294.69 -5.98153 -1.25127 0
M  V30 3048 C 295.688 -6.79223 -0.717296 0
M  V30 3049 O 295.376 -8.03533 -0.242865 0
M  V30 3050 H 295.108 -0.583526 -0.341283 0
M  V30 3051 H 297.662 -2.00964 -0.424591 0
M  V30 3052 H 295.892 -2.5282 -2.92607 0
M  V30 3053 H 297.581 -2.9303 -2.80871 0
M  V30 3054 H 298.347 -4.72534 -1.09254 0
M  V30 3055 H 294.226 -4.08432 -2.13786 0
M  V30 3056 H 297.77 -6.97167 -0.245612 0
M  V30 3057 H 293.667 -6.32347 -1.29642 0
M  V30 3058 H 294.435 -8.177 -0.361786 0
M  V30 3059 N 297.098 0.621204 -1.44841 0
M  V30 3060 C 298.346 1.37783 -1.47852 0
M  V30 3061 C 298.667 1.94653 -0.116224 0
M  V30 3062 O 297.937 1.76367 0.852737 0
M  V30 3063 H 296.517 0.511453 -0.544449 0
M  V30 3064 H 299.179 0.730446 -1.80694 0
M  V30 3065 H 298.275 2.20414 -2.20961 0
M  V30 3066 N 298.576 1.31904 0.862503 0
M  V30 3067 C 299.987 1.19803 1.43193 0
M  V30 3068 C 300.338 -0.192567 1.95253 0
M  V30 3069 O 299.463 -1.09081 1.86896 0
M  V30 3070 C 300.058 2.16883 2.60283 0
M  V30 3071 C 298.617 2.08692 3.13248 0
M  V30 3072 C 297.764 2.05691 1.85975 0
M  V30 3073 H 300.715 1.43846 0.670365 0
M  V30 3074 H 300.736 1.76278 3.37204 0
M  V30 3075 H 300.248 3.18083 2.22363 0
M  V30 3076 H 298.349 1.10713 3.55771 0
M  V30 3077 H 298.462 2.9815 3.75025 0
M  V30 3078 H 296.826 1.50814 2.05249 0
M  V30 3079 H 297.609 3.08659 1.50282 0
M  V30 3080 N 300.054 -1.07777 1.14986 0
M  V30 3081 C 301.301 -1.8029 0.922056 0
M  V30 3082 C 301.629 -1.86531 -0.55105 0
M  V30 3083 O 300.884 -1.34189 -1.42449 0
M  V30 3084 C 301.183 -3.25495 1.47608 0
M  V30 3085 C 300.849 -3.39361 2.96893 0
M  V30 3086 C 299.511 -3.42852 3.37647 0
M  V30 3087 C 301.863 -3.42512 3.92854 0
M  V30 3088 C 299.191 -3.47094 4.73015 0
M  V30 3089 C 301.543 -3.4829 5.28088 0
M  V30 3090 C 300.207 -3.50058 5.68345 0
M  V30 3091 H 299.477 -0.659727 0.337404 0
M  V30 3092 H 302.124 -1.26854 1.43459 0
M  V30 3093 H 300.429 -3.81683 0.88463 0
M  V30 3094 H 302.126 -3.80168 1.27568 0
M  V30 3095 H 298.716 -3.37339 2.64387 0
M  V30 3096 H 302.9 -3.3904 3.62444 0
M  V30 3097 H 298.156 -3.46758 5.03556 0
M  V30 3098 H 302.33 -3.49675 6.02246 0
M  V30 3099 H 299.957 -3.53097 6.73221 0
M  V30 3100 N 301.532 -0.945985 -1.26051 0
M  V30 3101 C 302.948 -0.649045 -1.45807 0
M  V30 3102 C 303.148 0.796158 -1.85104 0
M  V30 3103 O 302.204 1.57233 -1.97571 0
M  V30 3104 C 303.517 -1.61458 -2.53677 0
M  V30 3105 C 305.065 -1.62481 -2.67524 0
M  V30 3106 C 305.54 -2.57776 -3.7857 0
M  V30 3107 N 307.031 -2.5609 -3.85969 0
M  V30 3108 C 307.766 -3.26508 -4.7136 0
M  V30 3109 N 307.262 -4.0637 -5.61102 0
M  V30 3110 N 309.055 -3.15437 -4.65248 0
M  V30 3111 H 301.206 -1.88005 -0.988328 0
M  V30 3112 H 303.469 -0.808198 -0.4955 0
M  V30 3113 H 303.175 -2.64644 -2.31638 0
M  V30 3114 H 303.049 -1.37036 -3.51427 0
M  V30 3115 H 305.436 -0.600167 -2.88933 0
M  V30 3116 H 305.517 -1.90958 -1.70202 0
M  V30 3117 H 305.161 -3.60361 -3.57913 0
M  V30 3118 H 305.091 -2.26587 -4.75359 0
M  V30 3119 H 307.582 -1.98105 -3.21812 0
M  V30 3120 H 307.895 -4.57042 -6.23164 0
M  V30 3121 H 306.24 -4.10469 -5.60839 0
M  V30 3122 H 309.431 -2.52525 -3.94143 0
M  V30 3123 H 309.604 -3.70584 -5.31575 0
M  V30 3124 N 303.011 1.40521 -0.713556 0
M  V30 3125 C 303.921 2.34522 -0.0606667 0
M  V30 3126 C 304.937 1.57193 0.74607 0
M  V30 3127 O 306.113 1.89591 0.679493 0
M  V30 3128 C 303.178 3.36081 0.851491 0
M  V30 3129 C 302.239 4.29286 0.0349339 0
M  V30 3130 C 301.472 5.25994 0.903649 0
M  V30 3131 O 301.695 5.28616 2.14292 0
M  V30 3132 O 300.629 6.00918 0.343723 0
M  V30 3133 H 304.455 2.91968 -0.835972 0
M  V30 3134 H 302.04 1.41681 -0.47402 0
M  V30 3135 H 303.922 3.98369 1.37404 0
M  V30 3136 H 302.597 2.81052 1.60598 0
M  V30 3137 H 301.504 3.70289 -0.532633 0
M  V30 3138 H 302.837 4.87462 -0.681287 0
M  V30 3139 N 304.489 0.459591 1.5075 0
M  V30 3140 C 305.452 -0.329093 2.26825 0
M  V30 3141 C 306.452 -0.930481 1.31144 0
M  V30 3142 O 307.642 -0.801453 1.54669 0
M  V30 3143 C 304.774 -1.46768 3.07688 0
M  V30 3144 H 305.967 0.337924 2.9799 0
M  V30 3145 H 303.52 0.213336 1.54837 0
M  V30 3146 H 304.255 -2.17009 2.40993 0
M  V30 3147 H 304.04 -1.04238 3.77991 0
M  V30 3148 H 305.53 -2.02433 3.65254 0
M  V30 3149 N 305.967 -1.56429 0.191757 0
M  V30 3150 C 306.93 -2.17707 -0.716688 0
M  V30 3151 C 307.93 -1.13061 -1.14341 0
M  V30 3152 O 309.12 -1.38464 -1.05704 0
M  V30 3153 C 306.252 -2.77644 -1.97804 0
M  V30 3154 H 307.445 -2.99342 -0.1829 0
M  V30 3155 H 304.998 -1.56193 -0.0578566 0
M  V30 3156 H 305.733 -1.99799 -2.55443 0
M  V30 3157 H 305.518 -3.54246 -1.68083 0
M  V30 3158 H 307.008 -3.24708 -2.62592 0
M  V30 3159 N 307.445 0.0818655 -1.57387 0
M  V30 3160 C 308.693 0.781368 -1.86384 0
M  V30 3161 C 309.014 1.78618 -0.782342 0
M  V30 3162 O 308.284 1.94976 0.190061 0
M  V30 3163 H 306.864 0.291562 -0.687751 0
M  V30 3164 H 309.526 0.060348 -1.94807 0
M  V30 3165 H 308.622 1.3038 -2.83562 0
M  V30 3166 N 308.923 1.53595 0.353017 0
M  V30 3167 C 310.148 1.7462 1.11904 0
M  V30 3168 C 310.573 0.479721 1.8188 0
M  V30 3169 O 309.931 -0.567066 1.72204 0
M  V30 3170 C 309.979 2.92029 2.11545 0
M  V30 3171 O 309.083 2.61516 3.18878 0
M  V30 3172 H 308.424 0.579531 0.324099 0
M  V30 3173 H 310.954 2.00525 0.406301 0
M  V30 3174 H 310.964 3.18551 2.5493 0
M  V30 3175 H 309.639 3.83888 1.60008 0
M  V30 3176 H 308.216 2.45852 2.80377 0
M  V30 3177 N 310.401 -0.613514 1.45168 0
M  V30 3178 C 311.364 -1.7065 1.53007 0
M  V30 3179 C 312.364 -1.5548 0.410184 0
M  V30 3180 O 313.554 -1.60656 0.673455 0
M  V30 3181 C 310.686 -3.09875 1.42093 0
M  V30 3182 H 311.879 -1.65068 2.50385 0
M  V30 3183 H 309.432 -0.828728 1.32521 0
M  V30 3184 H 310.167 -3.21039 0.458769 0
M  V30 3185 H 309.952 -3.22293 2.23315 0
M  V30 3186 H 311.442 -3.895 1.50598 0
M  V30 3187 N 311.879 -1.3236 -0.855495 0
M  V30 3188 C 312.809 -1.23833 -1.97958 0
M  V30 3189 C 313.79 -0.122361 -1.69659 0
M  V30 3190 O 314.975 -0.30939 -1.9172 0
M  V30 3191 C 312.105 -0.959772 -3.33775 0
M  V30 3192 C 311.059 -2.03689 -3.76424 0
M  V30 3193 C 310.385 -1.61075 -5.09862 0
M  V30 3194 C 311.685 -3.4518 -3.9198 0
M  V30 3195 H 313.379 -2.1788 -2.0535 0
M  V30 3196 H 310.925 -1.04891 -0.986605 0
M  V30 3197 H 312.878 -0.886678 -4.11966 0
M  V30 3198 H 311.602 0.0163404 -3.26596 0
M  V30 3199 H 310.261 -2.10012 -3.00484 0
M  V30 3200 H 309.909 -0.622107 -4.99138 0
M  V30 3201 H 309.609 -2.33143 -5.39368 0
M  V30 3202 H 311.133 -1.55201 -5.90546 0
M  V30 3203 H 312.547 -3.4145 -4.60526 0
M  V30 3204 H 310.944 -4.1559 -4.32903 0
M  V30 3205 H 312.014 -3.84903 -2.94919 0
M  V30 3206 N 313.357 1.07166 -1.15556 0
M  V30 3207 C 314.304 2.14417 -0.854055 0
M  V30 3208 C 315.274 1.64965 0.193806 0
M  V30 3209 O 316.459 1.90703 0.0609443 0
M  V30 3210 C 313.599 3.43304 -0.351574 0
M  V30 3211 C 312.712 4.06537 -1.46123 0
M  V30 3212 C 311.847 5.23266 -0.914677 0
M  V30 3213 C 310.886 5.78464 -2.00114 0
M  V30 3214 N 310.023 6.86521 -1.47083 0
M  V30 3215 H 314.863 2.39548 -1.77259 0
M  V30 3216 H 312.4 1.17543 -0.884425 0
M  V30 3217 H 314.358 4.17179 -0.0419409 0
M  V30 3218 H 312.988 3.18419 0.530037 0
M  V30 3219 H 312.04 3.30297 -1.88701 0
M  V30 3220 H 313.352 4.43567 -2.28144 0
M  V30 3221 H 312.506 6.04131 -0.557698 0
M  V30 3222 H 311.245 4.87658 -0.0636583 0
M  V30 3223 H 310.25 4.96243 -2.36692 0
M  V30 3224 H 311.475 6.16126 -2.85597 0
M  V30 3225 H 309.421 6.52849 -0.642198 0
M  V30 3226 H 309.338 7.22446 -2.22729 0
M  V30 3227 H 310.606 7.71087 -1.14215 0
M  V30 3228 N 314.835 0.952656 1.25548 0
M  V30 3229 C 316.083 0.605176 1.92826 0
M  V30 3230 C 316.404 -0.860261 1.74999 0
M  V30 3231 O 315.674 -1.6125 1.11244 0
M  V30 3232 H 314.254 0.220832 0.713612 0
M  V30 3233 H 316.916 1.21047 1.52754 0
M  V30 3234 H 316.012 0.832798 3.00784 0
M  V30 3235 N 316.313 -1.40141 0.720998 0
M  V30 3236 C 317.59 -1.94677 0.189757 0
M  V30 3237 C 317.97 -1.65879 -1.30566 0
M  V30 3238 O 317.318 -0.979391 -2.06447 0
M  V30 3239 C 317.528 -3.45279 0.508304 0
M  V30 3240 C 318.876 -4.22209 0.449934 0
M  V30 3241 O 319.9 -3.53413 0.444677 0
M  V30 3242 O 318.759 -5.44788 0.432189 0
M  V30 3243 H 315.853 -0.826459 0.0299026 0
M  V30 3244 H 318.399 -1.49719 0.7989 0
M  V30 3245 H 317.171 -3.59619 1.54239 0
M  V30 3246 H 316.794 -3.97386 -0.130525 0
M  V30 3247 N 317.792 -0.46758 -1.50504 0
M  V30 3248 C 319.208 -0.121533 -1.59137 0
M  V30 3249 C 319.408 1.3717 -1.47603 0
M  V30 3250 O 318.464 2.14464 -1.33272 0
M  V30 3251 C 319.777 -0.6686 -2.93173 0
M  V30 3252 C 321.325 -0.631716 -3.06559 0
M  V30 3253 C 321.8 -1.15627 -4.43164 0
M  V30 3254 N 323.291 -1.11553 -4.49567 0
M  V30 3255 C 324.026 -1.49195 -5.5365 0
M  V30 3256 N 323.522 -1.94269 -6.65005 0
M  V30 3257 N 325.315 -1.4082 -5.44175 0
M  V30 3258 H 317.466 -1.4388 -1.56245 0
M  V30 3259 H 319.729 -0.594784 -0.738198 0
M  V30 3260 H 319.435 -1.71453 -3.07078 0
M  V30 3261 H 319.309 -0.11021 -3.77039 0
M  V30 3262 H 321.696 0.405297 -2.92304 0
M  V30 3263 H 321.777 -1.22687 -2.24458 0
M  V30 3264 H 321.421 -2.1919 -4.58168 0
M  V30 3265 H 321.351 -0.537365 -5.23851 0
M  V30 3266 H 323.842 -0.784895 -3.69659 0
M  V30 3267 H 324.155 -2.21148 -7.40482 0
M  V30 3268 H 322.5 -1.98219 -6.66134 0
M  V30 3269 H 325.691 -1.0545 -4.56068 0
M  V30 3270 H 325.864 -1.70481 -6.25172 0
M  V30 3271 N 319.27 1.56325 -0.20005 0
M  V30 3272 C 320.217 2.1932 0.718833 0
M  V30 3273 C 321.187 1.14198 1.20615 0
M  V30 3274 O 322.372 1.42469 1.26914 0
M  V30 3275 C 319.512 2.86041 1.93066 0
M  V30 3276 C 318.625 4.05702 1.48425 0
M  V30 3277 C 317.76 4.60266 2.65196 0
M  V30 3278 C 316.799 5.72273 2.17185 0
M  V30 3279 N 315.936 6.21221 3.27152 0
M  V30 3280 H 320.776 2.97486 0.17489 0
M  V30 3281 H 318.313 1.46911 0.0745794 0
M  V30 3282 H 320.271 3.22897 2.64184 0
M  V30 3283 H 318.901 2.1043 2.44783 0
M  V30 3284 H 317.953 3.74475 0.668755 0
M  V30 3285 H 319.265 4.86699 1.09204 0
M  V30 3286 H 318.419 4.99453 3.4443 0
M  V30 3287 H 317.158 3.78386 3.07693 0
M  V30 3288 H 316.163 5.3261 1.36407 0
M  V30 3289 H 317.388 6.55974 1.75713 0
M  V30 3290 H 315.334 5.42263 3.69171 0
M  V30 3291 H 315.251 6.97284 2.92116 0
M  V30 3292 H 316.519 6.65063 4.06585 0
M  V30 3293 N 320.748 -0.0735177 1.57428 0
M  V30 3294 C 321.973 -0.789787 1.91774 0
M  V30 3295 C 322.398 -1.70413 0.796306 0
M  V30 3296 O 321.756 -1.79555 -0.250961 0
M  V30 3297 C 321.804 -1.5609 3.25067 0
M  V30 3298 O 320.908 -2.67144 3.14178 0
M  V30 3299 H 320.249 -0.215582 0.628029 0
M  V30 3300 H 322.779 -0.0422781 2.04556 0
M  V30 3301 H 322.789 -1.94052 3.58898 0
M  V30 3302 H 321.464 -0.890015 4.06265 0
M  V30 3303 H 320.041 -2.32052 2.91901 0
M  V30 3304 N 322.226 -1.5378 -0.344866 0
M  V30 3305 C 323.456 -1.74646 -1.10374 0
M  V30 3306 C 323.864 -0.48491 -1.8288 0
M  V30 3307 O 323.207 0.553062 -1.75177 0
M  V30 3308 C 323.269 -2.87145 -2.16306 0
M  V30 3309 C 322.933 -4.26795 -1.63386 0
M  V30 3310 C 323.93 -5.08412 -1.08688 0
M  V30 3311 C 321.615 -4.73276 -1.68272 0
M  V30 3312 C 323.609 -6.34609 -0.595792 0
M  V30 3313 C 321.296 -5.99446 -1.18776 0
M  V30 3314 C 322.294 -6.79946 -0.645215 0
M  V30 3315 O 321.982 -8.03745 -0.157626 0
M  V30 3316 H 321.714 -0.587112 -0.335075 0
M  V30 3317 H 324.268 -2.01403 -0.403252 0
M  V30 3318 H 322.498 -2.55909 -2.89909 0
M  V30 3319 H 324.187 -2.95992 -2.77747 0
M  V30 3320 H 324.953 -4.73666 -1.04236 0
M  V30 3321 H 320.832 -4.10677 -2.09442 0
M  V30 3322 H 324.376 -6.97389 -0.171654 0
M  V30 3323 H 320.273 -6.33687 -1.22928 0
M  V30 3324 H 321.041 -8.18038 -0.275037 0
M  V30 3325 N 323.704 0.605807 -1.45491 0
M  V30 3326 C 324.636 1.73031 -1.5031 0
M  V30 3327 C 325.649 1.57968 -0.393687 0
M  V30 3328 O 326.838 1.65817 -0.660839 0
M  V30 3329 C 323.938 3.11049 -1.34543 0
M  V30 3330 C 323.111 3.52334 -2.59189 0
M  V30 3331 C 322.17 4.69323 -2.37954 0
M  V30 3332 O 321.196 4.7635 -3.11575 0
M  V30 3333 N 322.398 5.62705 -1.4263 0
M  V30 3334 H 325.163 1.6936 -2.4726 0
M  V30 3335 H 322.724 0.79114 -1.41254 0
M  V30 3336 H 324.716 3.87071 -1.18144 0
M  V30 3337 H 323.286 3.09217 -0.458623 0
M  V30 3338 H 322.506 2.66256 -2.90691 0
M  V30 3339 H 323.794 3.76677 -3.42041 0
M  V30 3340 H 323.192 5.59744 -0.818758 0
M  V30 3341 H 321.749 6.38252 -1.32202 0
M  V30 3342 N 325.182 1.32811 0.848464 0
M  V30 3343 C 326.115 1.16601 1.96162 0
M  V30 3344 C 327.093 0.0638855 1.62474 0
M  V30 3345 O 328.277 0.224348 1.8716 0
M  V30 3346 C 325.404 0.786333 3.29446 0
M  V30 3347 C 324.45 1.89459 3.8211 0
M  V30 3348 S 325.283 3.50395 4.04949 0
M  V30 3349 C 326.439 3.14413 5.41198 0
M  V30 3350 H 326.672 2.10832 2.09612 0
M  V30 3351 H 324.205 1.17543 1.00115 0
M  V30 3352 H 326.163 0.574044 4.06466 0
M  V30 3353 H 324.824 -0.137218 3.138 0
M  V30 3354 H 324.017 1.58207 4.78526 0
M  V30 3355 H 323.619 2.06304 3.11953 0
M  V30 3356 H 325.911 2.64642 6.23675 0
M  V30 3357 H 326.854 4.09874 5.77416 0
M  V30 3358 H 327.262 2.51266 5.05495 0
M  V30 3359 N 326.66 -1.06551 1.16123 0
M  V30 3360 C 327.608 -2.16063 0.861371 0
M  V30 3361 C 328.602 -1.6856 -0.168517 0
M  V30 3362 O 329.808 -1.79986 -0.0227579 0
M  V30 3363 H 326.183 -0.705278 0.260934 0
M  V30 3364 H 328.154 -2.38567 1.79244 0
M  V30 3365 C 326.903 -3.45661 0.376018 0
M  V30 3366 H 326.226 -3.82604 1.15992 0
M  V30 3367 H 327.666 -4.23504 0.204951 0
M  V30 3368 C 326.125 -3.24546 -0.903954 0
M  V30 3369 O 326.655 -3.49865 -1.97377 0
M  V30 3370 N 324.861 -2.77992 -0.846679 0
M  V30 3371 H 324.408 -2.57589 0.0241017 0
M  V30 3372 H 324.366 -2.64244 -1.70359 0
M  V30 3373 N 328.138 -0.959301 -1.25041 0
M  V30 3374 C 329.549 -0.65667 -1.74771 0
M  V30 3375 C 329.9 0.827852 -1.77879 0
M  V30 3376 O 329.025 1.64783 -1.40269 0
M  V30 3377 C 329.62 -1.1853 -3.1739 0
M  V30 3378 C 328.179 -0.932734 -3.6466 0
M  V30 3379 C 327.326 -1.32558 -2.43564 0
M  V30 3380 H 330.277 -1.13558 -1.10862 0
M  V30 3381 H 330.298 -0.547582 -3.76539 0
M  V30 3382 H 329.81 -2.26576 -3.15095 0
M  V30 3383 H 327.911 0.13257 -3.72364 0
M  V30 3384 H 328.024 -1.57248 -4.52559 0
M  V30 3385 H 326.388 -0.743956 -2.43593 0
M  V30 3386 H 327.171 -2.41537 -2.43957 0
M  V30 3387 N 329.616 1.39756 -0.72842 0
M  V30 3388 C 330.549 2.28176 -0.0330172 0
M  V30 3389 C 331.527 1.44035 0.754501 0
M  V30 3390 O 332.711 1.73434 0.738445 0
M  V30 3391 C 329.838 3.24795 0.960504 0
M  V30 3392 C 328.884 4.25693 0.262264 0
M  V30 3393 S 329.717 5.25714 -1.01906 0
M  V30 3394 C 330.873 6.25894 -0.0279717 0
M  V30 3395 H 331.106 2.86807 -0.78287 0
M  V30 3396 H 328.639 1.45382 -0.519951 0
M  V30 3397 H 330.597 3.80983 1.52846 0
M  V30 3398 H 329.258 2.65196 1.68315 0
M  V30 3399 H 328.451 4.93699 1.01379 0
M  V30 3400 H 328.053 3.7327 -0.233482 0
M  V30 3401 H 330.345 6.72585 0.814621 0
M  V30 3402 H 331.288 7.04876 -0.67499 0
M  V30 3403 H 331.696 5.63466 0.341489 0
M  V30 3404 N 331.094 0.475555 1.50254 0
M  V30 3405 C 332.042 -0.330276 2.30243 0
M  V30 3406 C 333.036 -0.986306 1.37726 0
M  V30 3407 O 334.242 -0.9169 1.54897 0
M  V30 3408 H 330.617 -0.125353 0.741479 0
M  V30 3409 H 332.588 0.364702 2.96163 0
M  V30 3410 C 331.337 -1.39704 3.18399 0
M  V30 3411 H 330.66 -0.901621 3.89501 0
M  V30 3412 H 332.1 -1.93336 3.77355 0
M  V30 3413 C 330.559 -2.4014 2.36293 0
M  V30 3414 O 331.089 -3.45504 2.04914 0
M  V30 3415 N 329.295 -2.1197 1.98789 0
M  V30 3416 H 328.842 -1.2631 2.24507 0
M  V30 3417 H 328.8 -2.79403 1.44157 0
M  V30 3418 N 332.573 -1.56217 0.208337 0
M  V30 3419 C 333.989 -1.58919 -0.14729 0
M  V30 3420 C 334.189 -1.22486 -1.59998 0
M  V30 3421 O 333.245 -0.953849 -2.3379 0
M  V30 3422 C 334.558 -3.00236 0.167048 0
M  V30 3423 C 336.106 -3.12813 0.108219 0
M  V30 3424 C 336.581 -4.56284 0.396049 0
M  V30 3425 N 338.072 -4.61912 0.345142 0
M  V30 3426 C 338.807 -5.70837 0.541523 0
M  V30 3427 N 338.303 -6.88178 0.798968 0
M  V30 3428 N 340.096 -5.60091 0.474867 0
M  V30 3429 H 332.247 -1.78177 1.15614 0
M  V30 3430 H 334.51 -0.827555 0.462446 0
M  V30 3431 H 334.216 -3.31499 1.1748 0
M  V30 3432 H 334.09 -3.7354 -0.524184 0
M  V30 3433 H 336.477 -2.81354 -0.890157 0
M  V30 3434 H 336.558 -2.41866 0.832729 0
M  V30 3435 H 336.202 -4.88458 1.3918 0
M  V30 3436 H 336.132 -5.25439 -0.349502 0
M  V30 3437 H 338.623 -3.77589 0.153316 0
M  V30 3438 H 338.936 -7.67095 0.93727 0
M  V30 3439 H 337.281 -6.89953 0.836013 0
M  V30 3440 H 340.472 -4.67297 0.274064 0
M  V30 3441 H 340.645 -6.44917 0.631326 0
M  V30 3442 N 334.051 0.0651679 -1.57465 0
M  V30 3443 C 335.467 0.420105 -1.53972 0
M  V30 3444 C 335.667 1.78782 -0.929474 0
M  V30 3445 O 334.723 2.46771 -0.534839 0
M  V30 3446 C 336.036 0.355084 -2.98596 0
M  V30 3447 C 337.584 0.434792 -3.09965 0
M  V30 3448 C 338.059 0.399609 -4.56253 0
M  V30 3449 N 339.55 0.459488 -4.60915 0
M  V30 3450 C 340.285 0.454584 -5.71595 0
M  V30 3451 N 339.781 0.404102 -6.9162 0
M  V30 3452 N 341.574 0.501635 -5.59857 0
M  V30 3453 H 333.725 -0.830328 -1.95498 0
M  V30 3454 H 335.988 -0.312244 -0.895102 0
M  V30 3455 H 335.694 -0.583357 -3.46828 0
M  V30 3456 H 335.568 1.16275 -3.58831 0
M  V30 3457 H 337.955 1.36366 -2.61703 0
M  V30 3458 H 338.036 -0.40157 -2.52628 0
M  V30 3459 H 337.68 -0.525436 -5.05175 0
M  V30 3460 H 337.61 1.25359 -5.11461 0
M  V30 3461 H 340.101 0.502482 -3.74544 0
M  V30 3462 H 340.414 0.404468 -7.71741 0
M  V30 3463 H 338.759 0.37069 -6.94011 0
M  V30 3464 H 341.95 0.538812 -4.64989 0
M  V30 3465 H 342.123 0.494345 -6.46112 0
M  V30 3466 N 335.529 1.53961 0.336706 0
M  V30 3467 C 336.439 1.85432 1.43708 0
M  V30 3468 C 337.455 0.745053 1.57242 0
M  V30 3469 O 338.631 1.03804 1.72588 0
M  V30 3470 C 335.696 2.06349 2.78605 0
M  V30 3471 C 334.757 3.30191 2.74358 0
M  V30 3472 C 333.99 3.50101 4.02822 0
M  V30 3473 O 334.213 2.7371 5.00439 0
M  V30 3474 O 333.147 4.43547 4.06878 0
M  V30 3475 H 336.973 2.78975 1.20028 0
M  V30 3476 H 334.558 1.39701 0.52952 0
M  V30 3477 H 336.44 2.21513 3.58483 0
M  V30 3478 H 335.115 1.15995 3.02203 0
M  V30 3479 H 334.022 3.20425 1.93078 0
M  V30 3480 H 335.355 4.2056 2.55715 0
M  V30 3481 N 337.007 -0.598083 1.45811 0
M  V30 3482 C 337.97 -1.69018 1.54808 0
M  V30 3483 C 338.97 -1.55037 0.426652 0
M  V30 3484 O 340.16 -1.59932 0.690456 0
M  V30 3485 C 337.292 -3.0835 1.45371 0
M  V30 3486 H 338.485 -1.62403 2.52121 0
M  V30 3487 H 336.038 -0.814626 1.33392 0
M  V30 3488 H 336.773 -3.20534 0.492793 0
M  V30 3489 H 336.558 -3.19907 2.26721 0
M  V30 3490 H 338.048 -3.8788 1.54721 0
M  V30 3491 N 338.485 -1.33259 -0.841409 0
M  V30 3492 C 339.734 -1.23921 -1.59143 0
M  V30 3493 C 340.047 0.1941 -1.94635 0
M  V30 3494 O 341.253 0.409474 -2.68394 0
M  V30 3495 C 339.709 -2.17119 -2.87032 0
M  V30 3496 C 339.317 -3.65606 -2.58914 0
M  V30 3497 C 341.061 -2.16648 -3.65053 0
M  V30 3498 C 338.968 -4.50726 -3.82884 0
M  V30 3499 H 337.898 -0.460264 -0.597221 0
M  V30 3500 H 340.549 -1.58307 -0.927959 0
M  V30 3501 H 338.931 -1.75663 -3.54906 0
M  V30 3502 H 340.105 -4.15487 -1.99267 0
M  V30 3503 H 338.42 -3.68341 -1.942 0
M  V30 3504 H 341.017 -2.77474 -4.57069 0
M  V30 3505 H 341.36 -1.16088 -3.99787 0
M  V30 3506 H 341.893 -2.56453 -3.041 0
M  V30 3507 H 338.632 -5.52151 -3.53283 0
M  V30 3508 H 338.152 -4.0559 -4.41879 0
M  V30 3509 H 339.831 -4.64401 -4.50489 0
M  V30 3510 N 339.963 1.05934 -1.16686 0
M  V30 3511 C 341.379 1.30938 -0.912542 0
M  V30 3512 C 341.579 1.96803 0.432533 0
M  V30 3513 O 340.635 2.23693 1.17123 0
M  V30 3514 C 341.948 2.18649 -2.06429 0
M  V30 3515 C 343.496 2.32055 -2.10047 0
M  V30 3516 C 343.971 3.23122 -3.24586 0
M  V30 3517 N 345.462 3.30706 -3.24327 0
M  V30 3518 C 346.197 4.01273 -4.09594 0
M  V30 3519 N 345.693 4.74332 -5.04956 0
M  V30 3520 N 347.486 3.97361 -3.97569 0
M  V30 3521 H 339.637 0.615777 -2.03278 0
M  V30 3522 H 341.9 0.334077 -0.887185 0
M  V30 3523 H 341.606 1.77534 -3.03603 0
M  V30 3524 H 341.48 3.19252 -2.00894 0
M  V30 3525 H 343.867 2.72415 -1.13464 0
M  V30 3526 H 343.948 1.31107 -2.19647 0
M  V30 3527 H 343.592 2.83477 -4.2143 0
M  V30 3528 H 343.522 4.24057 -3.12223 0
M  V30 3529 H 346.013 2.78644 -2.55276 0
M  V30 3530 H 346.326 5.25716 -5.6643 0
M  V30 3531 H 344.671 4.733 -5.08933 0
M  V30 3532 H 347.862 3.39405 -3.22369 0
M  V30 3533 H 348.035 4.52089 -4.64241 0
M  V30 3534 N 341.441 0.965919 1.2453 0
M  V30 3535 C 342.351 0.502154 2.29163 0
M  V30 3536 C 343.367 -0.436017 1.68448 0
M  V30 3537 O 344.543 -0.309497 1.99008 0
M  V30 3538 C 341.608 -0.201956 3.46111 0
M  V30 3539 C 340.669 0.775821 4.22232 0
M  V30 3540 C 339.902 0.105217 5.33596 0
M  V30 3541 O 340.125 -1.10683 5.59558 0
M  V30 3542 O 339.059 0.796475 5.96607 0
M  V30 3543 H 342.885 1.37194 2.70946 0
M  V30 3544 H 340.47 0.732875 1.30189 0
M  V30 3545 H 342.352 -0.597564 4.17142 0
M  V30 3546 H 341.027 -1.04673 3.06309 0
M  V30 3547 H 339.934 1.22185 3.53584 0
M  V30 3548 H 341.267 1.58896 4.65846 0
M  V30 3549 N 342.919 -1.39368 0.735821 0
M  V30 3550 C 344.144 -2.05319 0.293052 0
M  V30 3551 C 344.569 -1.55115 -1.064 0
M  V30 3552 O 343.927 -0.695261 -1.67439 0
M  V30 3553 C 343.975 -3.59305 0.305323 0
M  V30 3554 O 343.079 -4.06299 -0.706761 0
M  V30 3555 H 342.42 -0.650529 0.13307 0
M  V30 3556 H 344.95 -1.78386 1.00197 0
M  V30 3557 H 344.96 -4.07724 0.149997 0
M  V30 3558 H 343.635 -3.95207 1.29553 0
M  V30 3559 H 342.212 -3.69292 -0.517504 0
M  V30 3560 N 344.397 -0.483516 -1.5 0
M  V30 3561 C 345.327 0.293829 -2.31644 0
M  V30 3562 C 346.308 0.978864 -1.39112 0
M  V30 3563 O 347.493 0.973644 -1.68029 0
M  V30 3564 C 344.623 1.36897 -3.19181 0
M  V30 3565 C 343.577 0.804833 -4.20365 0
M  V30 3566 C 342.903 1.9792 -4.96721 0
M  V30 3567 C 344.203 -0.192313 -5.21946 0
M  V30 3568 H 345.897 -0.387616 -2.9688 0
M  V30 3569 H 343.443 -0.187856 -1.42769 0
M  V30 3570 H 345.396 1.92037 -3.751 0
M  V30 3571 H 344.12 2.07936 -2.51853 0
M  V30 3572 H 342.779 0.275319 -3.65565 0
M  V30 3573 H 342.427 2.67686 -4.25856 0
M  V30 3574 H 342.127 1.60789 -5.65173 0
M  V30 3575 H 343.651 2.53526 -5.55479 0
M  V30 3576 H 345.065 0.270333 -5.72662 0
M  V30 3577 H 343.462 -0.478543 -5.98189 0
M  V30 3578 H 344.532 -1.11409 -4.71928 0
M  V30 3579 N 345.875 1.56104 -0.216619 0
M  V30 3580 C 346.805 2.23063 0.690296 0
M  V30 3581 C 347.786 1.20072 1.20485 0
M  V30 3582 O 348.971 1.48643 1.24976 0
M  V30 3583 C 346.101 2.90672 1.90072 0
M  V30 3584 C 345.055 4.00092 1.5202 0
M  V30 3585 C 344.381 4.54972 2.80899 0
M  V30 3586 C 345.681 5.17398 0.71391 0
M  V30 3587 H 347.375 2.99109 0.132038 0
M  V30 3588 H 344.921 1.43866 0.0620664 0
M  V30 3589 H 346.874 3.36204 2.54057 0
M  V30 3590 H 345.598 2.12066 2.48386 0
M  V30 3591 H 344.257 3.55283 0.903839 0
M  V30 3592 H 343.905 3.73102 3.37348 0
M  V30 3593 H 343.605 5.28817 2.56176 0
M  V30 3594 H 345.129 5.0322 3.45836 0
M  V30 3595 H 346.543 5.59342 1.25735 0
M  V30 3596 H 344.94 5.97444 0.563951 0
M  V30 3597 H 346.01 4.84088 -0.280527 0
M  V30 3598 N 347.353 -0.0568162 1.57498 0
M  V30 3599 C 348.63 -0.786954 1.79071 0
M  V30 3600 C 349.01 -1.95028 0.80792 0
M  V30 3601 O 348.358 -2.27968 -0.155858 0
M  V30 3602 C 348.568 -1.24594 3.26002 0
M  V30 3603 C 349.916 -1.67323 3.90241 0
M  V30 3604 O 350.94 -1.34124 3.29984 0
M  V30 3605 O 349.799 -2.28842 4.9628 0
M  V30 3606 H 346.893 -0.378262 0.735423 0
M  V30 3607 H 349.439 -0.035734 1.69662 0
M  V30 3608 H 348.211 -0.41423 3.89101 0
M  V30 3609 H 347.834 -2.05803 3.40192 0
M  V30 3610 N 348.832 -1.54138 -0.328536 0
M  V30 3611 C 349.742 -1.86192 -1.42723 0
M  V30 3612 C 350.758 -0.753382 -1.56844 0
M  V30 3613 O 351.934 -1.04718 -1.72035 0
M  V30 3614 C 348.999 -2.07824 -2.77507 0
M  V30 3615 C 348.06 -3.31641 -2.72603 0
M  V30 3616 C 347.293 -3.52232 -4.00959 0
M  V30 3617 O 347.516 -2.7636 -4.9898 0
M  V30 3618 O 346.45 -4.45699 -4.0452 0
M  V30 3619 H 350.276 -2.79608 -1.18547 0
M  V30 3620 H 347.861 -1.3998 -0.522104 0
M  V30 3621 H 349.743 -2.23411 -3.57303 0
M  V30 3622 H 348.418 -1.17596 -3.01584 0
M  V30 3623 H 347.325 -3.21444 -1.91376 0
M  V30 3624 H 348.658 -4.2191 -2.53481 0
M  V30 3625 N 350.31 0.590341 -1.46126 0
M  V30 3626 C 351.273 1.68194 -1.55703 0
M  V30 3627 C 352.273 1.54808 -0.434868 0
M  V30 3628 O 353.463 1.59564 -0.698928 0
M  V30 3629 C 350.595 3.07575 -1.47005 0
M  V30 3630 H 351.788 1.61064 -2.52979 0
M  V30 3631 H 349.341 0.807541 -1.33823 0
M  V30 3632 H 350.076 3.20268 -0.509785 0
M  V30 3633 H 349.861 3.187 -2.28414 0
M  V30 3634 H 351.351 3.87055 -1.56776 0
M  V30 3635 N 351.788 1.33704 0.83433 0
M  V30 3636 C 352.72 1.20172 1.9517 0
M  V30 3637 C 353.733 0.131572 1.62267 0
M  V30 3638 O 354.922 0.382406 1.74356 0
M  V30 3639 C 352.022 0.821716 3.28787 0
M  V30 3640 C 351.195 1.98446 3.89792 0
M  V30 3641 C 350.254 1.58469 5.01771 0
M  V30 3642 O 349.28 2.29968 5.20676 0
M  V30 3643 N 350.482 0.492291 5.78409 0
M  V30 3644 H 353.247 2.16429 2.07313 0
M  V30 3645 H 350.808 1.26509 1.0103 0
M  V30 3646 H 352.8 0.536291 4.01131 0
M  V30 3647 H 351.37 -0.0503058 3.1256 0
M  V30 3648 H 350.59 2.43526 3.09982 0
M  V30 3649 H 351.878 2.76236 4.27283 0
M  V30 3650 H 351.276 -0.102349 5.65607 0
M  V30 3651 H 349.833 0.266555 6.51255 0
M  V30 3652 N 353.266 -1.05314 1.17247 0
M  V30 3653 C 354.514 -1.77941 0.958194 0
M  V30 3654 C 354.835 -1.88089 -0.514556 0
M  V30 3655 O 354.105 -1.39676 -1.37359 0
M  V30 3656 H 352.685 -0.659116 0.351533 0
M  V30 3657 H 355.347 -1.27166 1.47699 0
M  V30 3658 H 354.443 -2.79663 1.38546 0
M  V30 3659 N 354.744 -0.972509 -1.24016 0
M  V30 3660 C 355.707 -0.511403 -2.23422 0
M  V30 3661 C 356.707 0.394679 -1.55881 0
M  V30 3662 O 357.897 0.189469 -1.73167 0
M  V30 3663 C 355.029 0.258769 -3.39916 0
M  V30 3664 H 356.222 -1.39024 -2.6573 0
M  V30 3665 H 353.775 -0.757585 -1.36713 0
M  V30 3666 H 354.51 1.1545 -3.03054 0
M  V30 3667 H 354.295 -0.391522 -3.9014 0
M  V30 3668 H 355.785 0.570244 -4.13688 0
M  V30 3669 N 356.222 1.38976 -0.743202 0
M  V30 3670 C 357.499 1.94351 -0.220705 0
M  V30 3671 C 357.879 1.67935 1.2791 0
M  V30 3672 O 357.227 1.01211 2.04862 0
M  V30 3673 C 357.437 3.44426 -0.563171 0
M  V30 3674 C 358.785 4.2144 -0.517046 0
M  V30 3675 O 359.809 3.52661 -0.500846 0
M  V30 3676 O 358.668 5.44032 -0.518806 0
M  V30 3677 H 355.762 0.825879 -0.043047 0
M  V30 3678 H 358.308 1.48429 -0.822618 0
M  V30 3679 H 357.08 3.5712 -1.59941 0
M  V30 3680 H 356.703 3.97543 0.0672883 0
M  V30 3681 N 357.7 0.491464 1.49741 0
M  V30 3682 C 358.94 -0.0549118 2.04326 0
M  V30 3683 C 359.304 -1.35148 1.36378 0
M  V30 3684 O 360.505 -1.9815 1.81631 0
M  V30 3685 C 358.776 -0.213841 3.5676 0
M  V30 3686 S 360.335 -0.715839 4.32922 0
M  V30 3687 H 357.153 -0.00630513 0.710972 0
M  V30 3688 H 359.755 0.663257 1.83905 0
M  V30 3689 H 358.459 0.73527 4.0376 0
M  V30 3690 H 357.99 -0.957529 3.81569 0
M  V30 3691 H 360.005 -1.9864 4.54705 0
M  V30 3692 N 359.178 -1.55987 0.224894 0
M  V30 3693 C 360.108 -2.23426 -0.678457 0
M  V30 3694 C 361.089 -1.20709 -1.19847 0
M  V30 3695 O 362.274 -1.49304 -1.24186 0
M  V30 3696 C 359.404 -2.91676 -1.88527 0
M  V30 3697 C 358.358 -4.00893 -1.49896 0
M  V30 3698 C 357.684 -4.56455 -2.78483 0
M  V30 3699 C 358.984 -5.17769 -0.686461 0
M  V30 3700 H 360.678 -2.99175 -0.116173 0
M  V30 3701 H 358.224 -1.43897 -0.054436 0
M  V30 3702 H 360.177 -3.37547 -2.5227 0
M  V30 3703 H 358.901 -2.1338 -2.47258 0
M  V30 3704 H 357.56 -3.55758 -0.884985 0
M  V30 3705 H 357.208 -3.74886 -3.35365 0
M  V30 3706 H 356.908 -5.30169 -2.53368 0
M  V30 3707 H 358.432 -5.05047 -3.43162 0
M  V30 3708 H 359.846 -5.60001 -1.22767 0
M  V30 3709 H 358.243 -5.97735 -0.532259 0
M  V30 3710 H 359.313 -4.83932 0.306196 0
M  V30 3711 N 360.656 0.0484629 -1.57525 0
M  V30 3712 C 361.589 1.08755 -2.00618 0
M  V30 3713 C 362.567 1.36272 -0.887058 0
M  V30 3714 O 363.751 1.49255 -1.15131 0
M  V30 3715 C 360.878 2.42675 -2.36277 0
M  V30 3716 C 359.924 2.31142 -3.58435 0
M  V30 3717 S 360.757 1.68326 -5.08357 0
M  V30 3718 C 361.913 3.03776 -5.47239 0
M  V30 3719 H 362.146 0.720415 -2.88439 0
M  V30 3720 H 359.679 0.257801 -1.52233 0
M  V30 3721 H 361.637 3.19699 -2.57494 0
M  V30 3722 H 360.298 2.76541 -1.48942 0
M  V30 3723 H 359.491 3.29957 -3.80978 0
M  V30 3724 H 359.093 1.62258 -3.36969 0
M  V30 3725 H 361.385 4.00106 -5.46737 0
M  V30 3726 H 362.328 2.85988 -6.47778 0
M  V30 3727 H 362.736 3.05456 -4.74718 0
M  V30 3728 N 362.134 1.5431 0.320358 0
M  V30 3729 C 363.38 1.72924 1.05949 0
M  V30 3730 C 363.713 0.503185 1.87568 0
M  V30 3731 O 362.988 -0.499839 1.87968 0
M  V30 3732 C 363.271 3.00676 1.98156 0
M  V30 3733 C 363.124 4.3354 1.19845 0
M  V30 3734 C 364.443 3.24198 2.9763 0
M  V30 3735 H 361.562 0.629195 0.383774 0
M  V30 3736 H 364.204 1.87008 0.335854 0
M  V30 3737 H 362.354 2.888 2.59859 0
M  V30 3738 H 364.026 4.57305 0.605773 0
M  V30 3739 H 362.269 4.309 0.500784 0
M  V30 3740 H 362.94 5.19156 1.87567 0
M  V30 3741 H 365.416 3.35557 2.4605 0
M  V30 3742 H 364.292 4.14938 3.59329 0
M  V30 3743 H 364.553 2.41577 3.7026 0
M  V30 3744 N 363.613 -0.582584 1.46437 0
M  V30 3745 C 364.56 -1.69164 1.5701 0
M  V30 3746 C 365.53 -1.60847 0.414403 0
M  V30 3747 O 366.715 -1.80058 0.631171 0
M  V30 3748 C 363.855 -3.075 1.56646 0
M  V30 3749 C 362.968 -3.2644 2.82951 0
M  V30 3750 C 362.103 -4.55026 2.7409 0
M  V30 3751 C 361.142 -4.6731 3.95333 0
M  V30 3752 N 360.279 -5.87221 3.84858 0
M  V30 3753 H 365.119 -1.59464 2.51744 0
M  V30 3754 H 362.656 -0.777186 1.24893 0
M  V30 3755 H 364.614 -3.8757 1.5442 0
M  V30 3756 H 363.244 -3.16096 0.654439 0
M  V30 3757 H 362.296 -2.39974 2.95155 0
M  V30 3758 H 363.608 -3.31385 3.72808 0
M  V30 3759 H 362.762 -5.43324 2.6997 0
M  V30 3760 H 361.501 -4.52519 1.81873 0
M  V30 3761 H 360.506 -3.77429 3.99784 0
M  V30 3762 H 361.731 -4.71595 4.88646 0
M  V30 3763 H 359.677 -5.85712 2.95427 0
M  V30 3764 H 359.594 -5.93435 4.6837 0
M  V30 3765 H 360.862 -6.7795 3.84713 0
M  V30 3766 N 365.091 -1.34144 -0.827227 0
M  V30 3767 C 366.502 -1.23557 -1.39966 0
M  V30 3768 C 366.853 0.140731 -1.95695 0
M  V30 3769 O 365.978 1.04087 -1.89723 0
M  V30 3770 C 366.573 -2.23708 -2.54441 0
M  V30 3771 C 365.132 -2.16924 -3.07605 0
M  V30 3772 C 364.279 -2.10549 -1.80456 0
M  V30 3773 H 367.23 -1.45573 -0.631991 0
M  V30 3774 H 367.251 -1.85157 -3.32411 0
M  V30 3775 H 366.763 -3.23866 -2.13851 0
M  V30 3776 H 364.864 -1.20107 -3.52711 0
M  V30 3777 H 364.977 -3.07988 -3.66988 0
M  V30 3778 H 363.341 -1.56203 -2.01178 0
M  V30 3779 H 364.124 -3.12535 -1.42046 0
M  V30 3780 N 366.569 1.04691 -1.17803 0
M  V30 3781 C 367.532 2.10724 -0.901545 0
M  V30 3782 C 368.532 1.6042 0.110437 0
M  V30 3783 O 369.722 1.7377 -0.122303 0
M  V30 3784 C 366.854 3.39084 -0.351409 0
M  V30 3785 H 368.047 2.36686 -1.84174 0
M  V30 3786 H 365.6 1.21015 -0.98919 0
M  V30 3787 H 366.335 3.18782 0.59569 0
M  V30 3788 H 366.12 3.76909 -1.08083 0
M  V30 3789 H 367.61 4.17227 -0.176451 0
M  V30 3790 N 368.047 0.979072 1.23499 0
M  V30 3791 C 369.295 0.645941 1.91499 0
M  V30 3792 C 369.616 -0.822948 1.76784 0
M  V30 3793 O 368.886 -1.58854 1.14639 0
M  V30 3794 H 367.466 0.235919 0.708767 0
M  V30 3795 H 370.128 1.2426 1.50152 0
M  V30 3796 H 369.224 0.896411 2.9895 0
M  V30 3797 N 369.525 -1.3858 0.750561 0
M  V30 3798 C 370.488 -2.28836 0.129152 0
M  V30 3799 C 371.488 -1.47045 -0.650714 0
M  V30 3800 O 372.678 -1.6753 -0.477428 0
M  V30 3801 C 369.81 -3.30751 -0.825622 0
M  V30 3802 H 371.003 -2.85294 0.924516 0
M  V30 3803 H 368.556 -1.47489 0.517376 0
M  V30 3804 H 369.291 -2.79378 -1.64677 0
M  V30 3805 H 369.076 -3.91177 -0.268852 0
M  V30 3806 H 370.566 -3.98249 -1.2565 0
M  V30 3807 N 371.003 -0.499398 -1.49478 0
M  V30 3808 C 372.233 0.0424839 -2.06556 0
M  V30 3809 C 372.641 1.31514 -1.36018 0
M  V30 3810 O 371.984 1.78555 -0.431718 0
M  V30 3811 C 372.046 0.368074 -3.57611 0
M  V30 3812 C 371.71 -0.806631 -4.49825 0
M  V30 3813 C 372.707 -1.69667 -4.91436 0
M  V30 3814 C 370.392 -1.00498 -4.92144 0
M  V30 3815 C 372.386 -2.76923 -5.74101 0
M  V30 3816 C 370.073 -2.08072 -5.74586 0
M  V30 3817 C 371.071 -2.96119 -6.15469 0
M  V30 3818 O 370.759 -4.01836 -6.96264 0
M  V30 3819 H 370.491 -0.0165165 -0.675798 0
M  V30 3820 H 373.045 -0.695497 -1.93267 0
M  V30 3821 H 371.275 1.15963 -3.68903 0
M  V30 3822 H 372.964 0.848381 -3.96935 0
M  V30 3823 H 373.73 -1.55524 -4.59388 0
M  V30 3824 H 369.609 -0.329036 -4.59824 0
M  V30 3825 H 373.153 -3.45676 -6.05932 0
M  V30 3826 H 369.05 -2.22211 -6.06047 0
M  V30 3827 H 369.818 -3.9917 -7.14567 0
M  V30 3828 N 372.481 1.55866 -0.233164 0
M  V30 3829 C 373.411 2.23783 0.666599 0
M  V30 3830 C 374.392 1.21343 1.19205 0
M  V30 3831 O 375.577 1.4996 1.23392 0
M  V30 3832 C 372.707 2.92671 1.86978 0
M  V30 3833 C 371.661 4.01682 1.47768 0
M  V30 3834 C 370.987 4.57926 2.76058 0
M  V30 3835 C 372.287 5.18126 0.658993 0
M  V30 3836 H 373.981 2.99232 0.100306 0
M  V30 3837 H 371.527 1.43924 0.046804 0
M  V30 3838 H 373.48 3.3888 2.50476 0
M  V30 3839 H 372.204 2.14688 2.46123 0
M  V30 3840 H 370.863 3.56222 0.866106 0
M  V30 3841 H 370.511 3.76659 3.33372 0
M  V30 3842 H 370.211 5.31505 2.50552 0
M  V30 3843 H 371.735 5.06859 3.40479 0
M  V30 3844 H 373.149 5.60644 1.19795 0
M  V30 3845 H 371.546 5.98009 0.500552 0
M  V30 3846 H 372.616 4.83763 -0.331856 0
M  V30 3847 N 373.959 -0.0401083 1.57549 0
M  V30 3848 C 375.236 -0.767917 1.79896 0
M  V30 3849 C 375.616 -1.9416 0.82856 0
M  V30 3850 O 374.964 -2.2812 -0.131671 0
M  V30 3851 C 375.174 -1.2113 3.27305 0
M  V30 3852 C 376.522 -1.63175 3.91994 0
M  V30 3853 O 377.546 -1.30616 3.31388 0
M  V30 3854 O 376.405 -2.23565 4.98679 0
M  V30 3855 H 373.499 -0.370441 0.739393 0
M  V30 3856 H 376.045 -0.017737 1.69691 0
M  V30 3857 H 374.817 -0.372937 3.89519 0
M  V30 3858 H 374.44 -2.02183 3.42356 0
M  V30 3859 N 375.437 -1.54477 -0.31217 0
M  V30 3860 C 376.686 -1.72438 -1.04633 0
M  V30 3861 C 376.999 -0.511163 -1.88803 0
M  V30 3862 O 378.205 -0.572341 -2.65399 0
M  V30 3863 C 376.661 -3.05043 -1.9099 0
M  V30 3864 C 376.269 -4.33806 -1.11877 0
M  V30 3865 C 378.013 -3.32364 -2.64073 0
M  V30 3866 C 375.92 -5.57467 -1.97445 0
M  V30 3867 H 374.85 -0.642647 -0.394361 0
M  V30 3868 H 377.501 -1.80966 -0.303929 0
M  V30 3869 H 375.883 -2.90451 -2.69173 0
M  V30 3870 H 377.057 -4.59199 -0.383843 0
M  V30 3871 H 375.372 -4.13336 -0.504252 0
M  V30 3872 H 377.969 -4.21951 -3.28423 0
M  V30 3873 H 378.312 -2.50745 -3.32314 0
M  V30 3874 H 378.845 -3.47875 -1.92944 0
M  V30 3875 H 375.584 -6.41722 -1.33692 0
M  V30 3876 H 375.104 -5.36277 -2.6864 0
M  V30 3877 H 376.783 -5.94303 -2.5576 0
M  V30 3878 N 376.915 0.57481 -1.46744 0
M  V30 3879 C 378.161 1.3347 -1.52688 0
M  V30 3880 C 378.494 1.93353 -0.181229 0
M  V30 3881 O 377.769 1.76912 0.808237 0
M  V30 3882 C 378.052 2.45811 -2.63152 0
M  V30 3883 C 377.905 1.90912 -4.07275 0
M  V30 3884 C 379.224 3.47822 -2.69644 0
M  V30 3885 H 376.343 0.483935 -0.555856 0
M  V30 3886 H 378.985 0.644968 -1.78718 0
M  V30 3887 H 377.135 3.04646 -2.41088 0
M  V30 3888 H 378.807 1.36473 -4.4065 0
M  V30 3889 H 377.05 1.21691 -4.16382 0
M  V30 3890 H 377.721 2.72042 -4.80309 0
M  V30 3891 H 380.197 2.9888 -2.895 0
M  V30 3892 H 379.073 4.23876 -3.48742 0
M  V30 3893 H 379.334 4.05555 -1.76005 0
M  V30 3894 N 378.394 1.34581 0.820102 0
M  V30 3895 C 379.81 1.14325 1.11364 0
M  V30 3896 C 380.01 -0.0533648 2.01429 0
M  V30 3897 O 379.066 -0.728044 2.41776 0
M  V30 3898 C 380.379 2.43983 1.75764 0
M  V30 3899 C 381.927 2.50065 1.88246 0
M  V30 3900 C 382.402 3.79732 2.56061 0
M  V30 3901 N 383.893 3.80908 2.63558 0
M  V30 3902 C 384.628 4.77961 3.16766 0
M  V30 3903 N 384.124 5.85397 3.70517 0
M  V30 3904 N 385.917 4.65413 3.15194 0
M  V30 3905 H 378.068 2.11246 0.221096 0
M  V30 3906 H 380.331 0.934289 0.160649 0
M  V30 3907 H 380.037 3.31651 1.1705 0
M  V30 3908 H 379.911 2.57531 2.75604 0
M  V30 3909 H 382.298 1.62834 2.46108 0
M  V30 3910 H 382.379 2.40442 0.873006 0
M  V30 3911 H 382.023 4.67354 1.98853 0
M  V30 3912 H 381.953 3.86639 3.57516 0
M  V30 3913 H 384.444 3.03274 2.25463 0
M  V30 3914 H 384.757 6.55463 4.09376 0
M  V30 3915 H 383.102 5.89107 3.68752 0
M  V30 3916 H 386.293 3.80627 2.72471 0
M  V30 3917 H 386.466 5.41216 3.56356 0
M  V30 3918 N 379.872 -1.04064 1.18357 0
M  V30 3919 C 380.782 -2.15569 0.925596 0
M  V30 3920 C 381.798 -1.7365 -0.110295 0
M  V30 3921 O 382.974 -2.01273 0.0716218 0
M  V30 3922 C 380.039 -3.43704 0.454836 0
M  V30 3923 C 379.1 -4.00004 1.55869 0
M  V30 3924 C 378.333 -5.22023 1.1103 0
M  V30 3925 O 378.556 -5.70392 -0.0309756 0
M  V30 3926 O 377.49 -5.70856 1.90805 0
M  V30 3927 H 381.316 -2.40187 1.8586 0
M  V30 3928 H 378.901 -1.1402 0.965394 0
M  V30 3929 H 380.783 -4.20923 0.200382 0
M  V30 3930 H 379.458 -3.20559 -0.449876 0
M  V30 3931 H 378.365 -3.24172 1.86716 0
M  V30 3932 H 379.698 -4.2749 2.43953 0
M  V30 3933 N 381.35 -0.985608 -1.22978 0
M  V30 3934 C 382.28 -0.549649 -2.26939 0
M  V30 3935 C 383.261 0.419803 -1.64838 0
M  V30 3936 O 384.446 0.31203 -1.91677 0
M  V30 3937 C 381.576 0.143652 -3.47003 0
M  V30 3938 C 380.53 -0.743606 -4.21491 0
M  V30 3939 C 379.856 0.0822027 -5.34637 0
M  V30 3940 C 381.156 -2.03694 -4.80943 0
M  V30 3941 H 382.85 -1.41862 -2.63658 0
M  V30 3942 H 380.396 -0.683571 -1.26741 0
M  V30 3943 H 382.349 0.459985 -4.18882 0
M  V30 3944 H 381.073 1.04711 -3.09359 0
M  V30 3945 H 379.732 -1.04347 -3.51436 0
M  V30 3946 H 379.38 0.986359 -4.93234 0
M  V30 3947 H 379.08 -0.508377 -5.85397 0
M  V30 3948 H 380.604 0.392797 -6.09335 0
M  V30 3949 H 382.018 -1.78504 -5.44802 0
M  V30 3950 H 380.415 -2.57573 -5.42011 0
M  V30 3951 H 381.485 -2.72042 -4.01399 0
M  V30 3952 N 382.828 1.3818 -0.7579 0
M  V30 3953 C 384.244 1.5353 -0.435972 0
M  V30 3954 C 384.444 1.71961 1.05032 0
M  V30 3955 O 383.5 1.73307 1.83633 0
M  V30 3956 C 384.813 2.73989 -1.23898 0
M  V30 3957 C 386.361 2.87841 -1.22949 0
M  V30 3958 C 386.836 4.11266 -2.01554 0
M  V30 3959 N 388.327 4.18352 -1.98837 0
M  V30 3960 C 389.062 5.12856 -2.5645 0
M  V30 3961 N 388.558 6.13005 -3.22794 0
M  V30 3962 N 390.351 5.05238 -2.46356 0
M  V30 3963 H 382.502 1.24467 -1.7211 0
M  V30 3964 H 384.765 0.604982 -0.729864 0
M  V30 3965 H 384.471 2.66789 -2.29165 0
M  V30 3966 H 384.345 3.67294 -0.858764 0
M  V30 3967 H 386.732 2.9452 -0.184854 0
M  V30 3968 H 386.813 1.95534 -1.64924 0
M  V30 3969 H 386.457 4.05349 -3.06031 0
M  V30 3970 H 386.387 5.02661 -1.5697 0
M  V30 3971 H 388.878 3.46628 -1.50524 0
M  V30 3972 H 389.191 6.81619 -3.64165 0
M  V30 3973 H 387.536 6.13325 -3.2689 0
M  V30 3974 H 390.727 4.25938 -1.9415 0
M  V30 3975 H 390.9 5.78707 -2.91552 0
M  V30 3976 N 384.306 0.507319 1.49211 0
M  V30 3977 C 385.216 -0.272136 2.33016 0
M  V30 3978 C 386.232 -0.961206 1.45041 0
M  V30 3979 O 387.408 -0.941191 1.78055 0
M  V30 3980 C 384.473 -1.31895 3.20631 0
M  V30 3981 C 383.534 -0.642648 4.24463 0
M  V30 3982 C 382.767 -1.63959 5.07891 0
M  V30 3983 O 382.99 -2.87007 4.92933 0
M  V30 3984 O 381.924 -1.19143 5.8999 0
M  V30 3985 H 385.75 0.413982 3.00865 0
M  V30 3986 H 383.335 0.268556 1.46966 0
M  V30 3987 H 385.217 -1.92446 3.7489 0
M  V30 3988 H 383.892 -1.98788 2.5547 0
M  V30 3989 H 382.799 0.00276252 3.741 0
M  V30 3990 H 384.132 -0.0160534 4.92197 0
M  V30 3991 N 385.784 -1.5574 0.241426 0
M  V30 3992 C 387.2 -1.59196 -0.113548 0
M  V30 3993 C 387.4 -1.25852 -1.57364 0
M  V30 3994 O 386.456 -1.00322 -2.31715 0
M  V30 3995 C 387.769 -2.99814 0.230695 0
M  V30 3996 C 389.317 -3.12513 0.174547 0
M  V30 3997 C 389.792 -4.55342 0.492744 0
M  V30 3998 N 391.283 -4.61076 0.443043 0
M  V30 3999 C 392.018 -5.6956 0.662484 0
M  V30 4000 N 391.514 -6.86328 0.944761 0
M  V30 4001 N 393.307 -5.58957 0.593564 0
M  V30 4002 H 385.458 -1.75685 1.19368 0
M  V30 4003 H 387.721 -0.81756 0.479896 0
M  V30 4004 H 387.427 -3.28932 1.24485 0
M  V30 4005 H 387.301 -3.74568 -0.444833 0
M  V30 4006 H 389.688 -2.83179 -0.830277 0
M  V30 4007 H 389.769 -2.40045 0.883845 0
M  V30 4008 H 389.413 -4.85396 1.4951 0
M  V30 4009 H 389.343 -5.26062 -0.23797 0
M  V30 4010 H 391.834 -3.77179 0.233374 0
M  V30 4011 H 392.147 -7.64935 1.09977 0
M  V30 4012 H 390.492 -6.88025 0.982175 0
M  V30 4013 H 393.683 -4.66611 0.373123 0
M  V30 4014 H 393.856 -6.43433 0.767981 0
M  V30 4015 N 387.262 0.0317525 -1.57568 0
M  V30 4016 C 388.49 0.734949 -1.93407 0
M  V30 4017 C 388.905 1.69036 -0.84096 0
M  V30 4018 O 388.262 1.81582 0.182836 0
M  V30 4019 C 388.313 1.49432 -3.29169 0
M  V30 4020 O 388.034 0.577261 -4.3428 0
M  V30 4021 C 389.535 2.29492 -3.79273 0
M  V30 4022 H 386.755 0.206706 -0.638368 0
M  V30 4023 H 389.299 -0.00992046 -2.04498 0
M  V30 4024 H 387.454 2.1911 -3.19483 0
M  V30 4025 H 387.868 1.10952 -5.1263 0
M  V30 4026 H 389.342 2.78172 -4.76785 0
M  V30 4027 H 389.819 3.10794 -3.10328 0
M  V30 4028 H 390.425 1.64894 -3.92033 0
M  V30 4029 N 388.74 1.54641 0.303973 0
M  V30 4030 C 389.65 1.88439 1.39743 0
M  V30 4031 C 390.666 0.778239 1.55626 0
M  V30 4032 O 391.842 1.07442 1.70347 0
M  V30 4033 C 388.907 2.12212 2.74166 0
M  V30 4034 C 387.968 3.35936 2.67293 0
M  V30 4035 C 387.201 3.58566 3.95305 0
M  V30 4036 O 387.424 2.84263 4.9452 0
M  V30 4037 O 386.358 4.52078 3.97378 0
M  V30 4038 H 390.184 2.81458 1.14083 0
M  V30 4039 H 387.769 1.40793 0.499768 0
M  V30 4040 H 389.651 2.29067 3.53704 0
M  V30 4041 H 388.326 1.22379 2.99675 0
M  V30 4042 H 387.233 3.24448 1.86237 0
M  V30 4043 H 388.566 4.2589 2.46736 0
M  V30 4044 N 390.218 -0.567019 1.47046 0
M  V30 4045 C 391.148 -1.68482 1.61667 0
M  V30 4046 C 392.129 -1.6358 0.466418 0
M  V30 4047 O 393.314 -1.81354 0.694574 0
M  V30 4048 C 390.444 -3.07124 1.62148 0
M  V30 4049 C 389.398 -3.26867 2.76301 0
M  V30 4050 C 388.724 -4.66196 2.61849 0
M  V30 4051 C 390.024 -3.13186 4.17986 0
M  V30 4052 H 391.718 -1.56502 2.5524 0
M  V30 4053 H 389.264 -0.751486 1.22836 0
M  V30 4054 H 391.217 -3.8516 1.70968 0
M  V30 4055 H 389.941 -3.2004 0.651287 0
M  V30 4056 H 388.6 -2.51237 2.66975 0
M  V30 4057 H 388.248 -4.75898 1.62879 0
M  V30 4058 H 387.948 -4.80356 3.38425 0
M  V30 4059 H 389.472 -5.46379 2.72584 0
M  V30 4060 H 390.886 -3.81049 4.2834 0
M  V30 4061 H 389.283 -3.3886 4.95272 0
M  V30 4062 H 390.353 -2.10057 4.3704 0
M  V30 4063 N 391.696 -1.35014 -0.812953 0
M  V30 4064 C 393.107 -1.25035 -1.38648 0
M  V30 4065 C 393.458 0.119967 -1.95833 0
M  V30 4066 O 392.583 1.02069 -1.90816 0
M  V30 4067 C 393.178 -2.26394 -2.52054 0
M  V30 4068 C 391.737 -2.20175 -3.05287 0
M  V30 4069 C 390.884 -2.12451 -1.78213 0
M  V30 4070 H 393.835 -1.46235 -0.616516 0
M  V30 4071 H 393.856 -1.88672 -3.30429 0
M  V30 4072 H 393.368 -3.26116 -2.10404 0
M  V30 4073 H 391.469 -1.23841 -3.51417 0
M  V30 4074 H 391.582 -3.11863 -3.63701 0
M  V30 4075 H 389.946 -1.58328 -1.9951 0
M  V30 4076 H 390.729 -3.14024 -1.38723 0
M  V30 4077 N 393.175 1.03435 -1.18907 0
M  V30 4078 C 394.424 1.76143 -0.982669 0
M  V30 4079 C 394.737 1.89416 0.487953 0
M  V30 4080 O 395.943 2.59041 0.813036 0
M  V30 4081 C 394.399 3.16722 -1.70924 0
M  V30 4082 C 394.007 3.11522 -3.21959 0
M  V30 4083 C 395.751 3.93764 -1.58588 0
M  V30 4084 C 393.658 4.46999 -3.87228 0
M  V30 4085 H 392.588 0.660292 -0.364047 0
M  V30 4086 H 395.239 1.158 -1.42347 0
M  V30 4087 H 393.621 3.775 -1.19623 0
M  V30 4088 H 394.795 2.60158 -3.80335 0
M  V30 4089 H 393.11 2.47978 -3.34508 0
M  V30 4090 H 395.707 4.93963 -2.04707 0
M  V30 4091 H 396.05 4.12794 -0.539142 0
M  V30 4092 H 396.583 3.39576 -2.07203 0
M  V30 4093 H 393.322 4.33174 -4.91976 0
M  V30 4094 H 392.842 4.98441 -3.33642 0
M  V30 4095 H 394.521 5.15898 -3.90459 0
M  V30 4096 N 394.653 0.992116 1.22453 0
M  V30 4097 C 395.901 0.666215 1.90804 0
M  V30 4098 C 396.222 -0.804152 1.77647 0
M  V30 4099 O 395.492 -1.57629 1.16318 0
M  V30 4100 H 394.072 0.243423 0.706225 0
M  V30 4101 H 396.734 1.25845 1.48825 0
M  V30 4102 H 395.83 0.928069 2.97982 0
M  V30 4103 N 396.131 -1.37776 0.765217 0
M  V30 4104 C 397.094 -2.28686 0.153416 0
M  V30 4105 C 398.094 -1.47727 -0.635081 0
M  V30 4106 O 399.284 -1.68027 -0.459632 0
M  V30 4107 C 396.416 -3.31608 -0.790495 0
M  V30 4108 H 397.609 -2.84297 0.954723 0
M  V30 4109 H 395.162 -1.46932 0.53299 0
M  V30 4110 H 395.897 -2.81109 -1.61705 0
M  V30 4111 H 395.682 -3.9144 -0.227348 0
M  V30 4112 H 397.172 -3.99559 -1.21419 0
M  V30 4113 N 397.609 -0.515225 -1.4894 0
M  V30 4114 C 398.839 0.0205735 -2.0659 0
M  V30 4115 C 399.247 1.30064 -1.37405 0
M  V30 4116 O 398.59 1.78087 -0.450632 0
M  V30 4117 C 398.652 0.330124 -3.57981 0
M  V30 4118 C 398.316 -0.854295 -4.48944 0
M  V30 4119 C 399.313 -1.7487 -4.89609 0
M  V30 4120 C 396.998 -1.05712 -4.9105 0
M  V30 4121 C 398.992 -2.82996 -5.71132 0
M  V30 4122 C 396.679 -2.14154 -5.72347 0
M  V30 4123 C 397.677 -3.0263 -6.12294 0
M  V30 4124 O 397.365 -4.09198 -6.91962 0
M  V30 4125 H 397.097 -0.0236833 -0.675585 0
M  V30 4126 H 399.651 -0.715956 -1.92518 0
M  V30 4127 H 397.881 1.12044 -3.70112 0
M  V30 4128 H 399.57 0.806233 -3.97812 0
M  V30 4129 H 400.336 -1.60388 -4.57712 0
M  V30 4130 H 396.215 -0.377788 -4.59449 0
M  V30 4131 H 399.759 -3.52083 -6.02232 0
M  V30 4132 H 395.656 -2.28626 -6.03656 0
M  V30 4133 H 396.424 -4.06726 -7.10293 0
M  V30 4134 N 399.087 1.5561 -0.249682 0
M  V30 4135 C 400.019 2.18834 0.681496 0
M  V30 4136 C 401.032 1.16546 1.1367 0
M  V30 4137 O 402.221 1.43397 1.06299 0
M  V30 4138 C 399.321 2.77992 1.9384 0
M  V30 4139 C 398.494 4.05725 1.63419 0
M  V30 4140 C 397.553 4.49174 2.74096 0
M  V30 4141 O 396.579 5.15492 2.41364 0
M  V30 4142 N 397.781 4.17191 4.03649 0
M  V30 4143 H 400.546 2.9937 0.140514 0
M  V30 4144 H 398.107 1.6175 -0.0697541 0
M  V30 4145 H 400.099 3.04015 2.67127 0
M  V30 4146 H 398.669 2.01596 2.38909 0
M  V30 4147 H 397.889 3.87261 0.736358 0
M  V30 4148 H 399.177 4.88999 1.40562 0
M  V30 4149 H 398.575 3.63955 4.33074 0
M  V30 4150 H 397.132 4.48043 4.73393 0
M  V30 4151 N 400.565 -0.0233959 1.57583 0
M  V30 4152 C 401.811 -0.714119 1.89811 0
M  V30 4153 C 402.144 -1.74702 0.848113 0
M  V30 4154 O 401.419 -1.94023 -0.136135 0
M  V30 4155 C 401.702 -1.37853 3.32669 0
M  V30 4156 C 401.555 -0.358764 4.48367 0
M  V30 4157 C 402.874 -2.31101 3.7454 0
M  V30 4158 H 399.993 -0.25814 0.690314 0
M  V30 4159 H 402.635 0.0230927 1.89986 0
M  V30 4160 H 400.785 -2.00689 3.3265 0
M  V30 4161 H 402.457 0.268115 4.6052 0
M  V30 4162 H 400.7 0.321387 4.32608 0
M  V30 4163 H 401.371 -0.862242 5.45224 0
M  V30 4164 H 403.847 -1.78304 3.75961 0
M  V30 4165 H 402.723 -2.74567 4.75294 0
M  V30 4166 H 402.984 -3.18018 3.0711 0
M  V30 4167 N 402.043 -1.548 -0.295768 0
M  V30 4168 C 403.268 -1.78653 -1.05346 0
M  V30 4169 C 403.693 -0.546894 -1.79974 0
M  V30 4170 O 403.051 0.502763 -1.7419 0
M  V30 4171 C 403.099 -2.99679 -2.00561 0
M  V30 4172 O 402.203 -2.7317 -3.08953 0
M  V30 4173 H 401.544 -0.59116 -0.302367 0
M  V30 4174 H 404.074 -2.01895 -0.331598 0
M  V30 4175 H 404.084 -3.27793 -2.42932 0
M  V30 4176 H 402.759 -3.89562 -1.4565 0
M  V30 4177 H 401.336 -2.56089 -2.71059 0
M  V30 4178 N 403.521 0.559213 -1.47345 0
M  V30 4179 C 404.769 1.31388 -1.53563 0
M  V30 4180 C 405.09 1.93985 -0.198678 0
M  V30 4181 O 404.36 1.79825 0.777167 0
M  V30 4182 H 402.94 0.487901 -0.565652 0
M  V30 4183 H 405.602 0.65315 -1.8363 0
M  V30 4184 H 404.698 2.10844 -2.30111 0
M  V30 4185 N 404.999 1.35443 0.805782 0
M  V30 4186 C 405.909 1.30546 1.94923 0
M  V30 4187 C 406.925 0.210233 1.72725 0
M  V30 4188 O 408.101 0.43975 1.9654 0
M  V30 4189 C 405.166 1.07782 3.29521 0
M  V30 4190 C 404.227 2.26625 3.64609 0
M  V30 4191 C 403.46 2.04938 4.92784 0
M  V30 4192 O 403.683 1.01624 5.61274 0
M  V30 4193 O 402.617 2.9232 5.26149 0
M  V30 4194 H 406.443 2.26779 2.02002 0
M  V30 4195 H 404.028 1.15823 0.943682 0
M  V30 4196 H 405.91 0.969392 4.10098 0
M  V30 4197 H 404.585 0.146003 3.23371 0
M  V30 4198 H 403.492 2.43033 2.84404 0
M  V30 4199 H 404.825 3.18257 3.75464 0
M  V30 4200 N 406.477 -1.02803 1.19454 0
M  V30 4201 C 407.707 -1.79581 1.02149 0
M  V30 4202 C 408.115 -1.84182 -0.432851 0
M  V30 4203 O 407.458 -1.28534 -1.31243 0
M  V30 4204 C 407.52 -3.25993 1.51554 0
M  V30 4205 C 407.184 -3.45025 2.99678 0
M  V30 4206 C 408.181 -3.35175 3.97434 0
M  V30 4207 C 405.866 -3.71212 3.38389 0
M  V30 4208 C 407.86 -3.51238 5.31893 0
M  V30 4209 C 405.547 -3.8692 4.73008 0
M  V30 4210 C 406.545 -3.76936 5.69569 0
M  V30 4211 O 406.233 -3.92179 7.01748 0
M  V30 4212 H 405.965 -0.571962 0.360327 0
M  V30 4213 H 408.519 -1.30367 1.58725 0
M  V30 4214 H 406.749 -3.76235 0.893543 0
M  V30 4215 H 408.438 -3.84368 1.30444 0
M  V30 4216 H 409.204 -3.14895 3.68872 0
M  V30 4217 H 405.083 -3.78075 2.6378 0
M  V30 4218 H 408.627 -3.43362 6.07247 0
M  V30 4219 H 404.524 -4.06699 5.01265 0
M  V30 4220 H 405.292 -4.09265 7.08833 0
M  V30 4221 N 407.956 -0.998596 -1.21925 0
M  V30 4222 C 408.919 -0.558679 -2.22287 0
M  V30 4223 C 409.919 0.361525 -1.56683 0
M  V30 4224 O 411.109 0.152695 -1.73529 0
M  V30 4225 C 408.241 0.18661 -3.40389 0
M  V30 4226 H 409.434 -1.4463 -2.62721 0
M  V30 4227 H 406.987 -0.786413 -1.35075 0
M  V30 4228 H 407.722 1.08996 -3.05435 0
M  V30 4229 H 407.507 -0.474188 -3.89222 0
M  V30 4230 H 408.997 0.482367 -4.14805 0
M  V30 4231 N 409.434 1.37368 -0.772513 0
M  V30 4232 C 410.367 2.27956 -0.105593 0
M  V30 4233 C 411.345 1.46362 0.708295 0
M  V30 4234 O 412.529 1.75695 0.682895 0
M  V30 4235 C 409.656 3.27687 0.856686 0
M  V30 4236 C 408.702 4.26312 0.1267 0
M  V30 4237 S 409.535 5.22206 -1.1858 0
M  V30 4238 C 410.691 6.25488 -0.227081 0
M  V30 4239 H 410.924 2.84171 -0.87372 0
M  V30 4240 H 408.457 1.43654 -0.565939 0
M  V30 4241 H 410.415 3.85653 1.40648 0
M  V30 4242 H 409.076 2.70417 1.59793 0
M  V30 4243 H 408.269 4.96674 0.856212 0
M  V30 4244 H 407.871 3.72339 -0.352117 0
M  V30 4245 H 410.163 6.74836 0.600231 0
M  V30 4246 H 411.106 7.02371 -0.898899 0
M  V30 4247 H 411.514 5.64267 0.162053 0
M  V30 4248 N 410.912 0.523116 1.48665 0
M  V30 4249 C 412.161 -0.01544 2.01694 0
M  V30 4250 C 412.474 -1.35975 1.40606 0
M  V30 4251 O 413.68 -1.98627 1.85093 0
M  V30 4252 C 412.136 -0.0779303 3.59816 0
M  V30 4253 C 411.744 1.26107 4.29885 0
M  V30 4254 C 413.488 -0.565678 4.20714 0
M  V30 4255 C 411.395 1.15954 5.79921 0
M  V30 4256 H 410.325 -0.00954163 0.75394 0
M  V30 4257 H 412.976 0.665865 1.70993 0
M  V30 4258 H 411.358 -0.824165 3.87329 0
M  V30 4259 H 412.532 2.02233 4.14051 0
M  V30 4260 H 410.847 1.68401 3.80828 0
M  V30 4261 H 413.444 -0.6595 5.30617 0
M  V30 4262 H 413.787 -1.56984 3.85567 0
M  V30 4263 H 414.32 0.12467 3.97605 0
M  V30 4264 H 411.059 2.13864 6.19631 0
M  V30 4265 H 410.579 0.439529 5.98187 0
M  V30 4266 H 412.258 0.847361 6.41427 0
M  V30 4267 N 412.39 -1.55475 0.257931 0
M  V30 4268 C 413.337 -2.21837 -0.636939 0
M  V30 4269 C 414.307 -1.18596 -1.16294 0
M  V30 4270 O 415.492 -1.47081 -1.21539 0
M  V30 4271 C 412.632 -2.9301 -1.82317 0
M  V30 4272 C 411.745 -4.10931 -1.33265 0
M  V30 4273 C 410.88 -4.69791 -2.47931 0
M  V30 4274 C 409.919 -5.7994 -1.95796 0
M  V30 4275 N 409.056 -6.32935 -3.0387 0
M  V30 4276 H 413.896 -2.9793 -0.0643591 0
M  V30 4277 H 411.433 -1.47086 -0.0200031 0
M  V30 4278 H 413.391 -3.3248 -2.52018 0
M  V30 4279 H 412.021 -2.1937 -2.36805 0
M  V30 4280 H 411.073 -3.76699 -0.52931 0
M  V30 4281 H 412.385 -4.90417 -0.910654 0
M  V30 4282 H 411.539 -5.11892 -3.25656 0
M  V30 4283 H 410.278 -3.89545 -2.93438 0
M  V30 4284 H 409.283 -5.37305 -1.16546 0
M  V30 4285 H 410.508 -6.62043 -1.51246 0
M  V30 4286 H 408.454 -5.55591 -3.48791 0
M  V30 4287 H 408.371 -7.07645 -2.66035 0
M  V30 4288 H 409.639 -6.79695 -3.81621 0
M  V30 4289 N 413.868 0.0150385 -1.57593 0
M  V30 4290 C 415.115 0.703001 -1.89906 0
M  V30 4291 C 415.443 1.74604 -0.856944 0
M  V30 4292 O 414.698 1.95197 0.140287 0
M  V30 4293 C 414.997 1.39686 -3.28972 0
M  V30 4294 C 414.663 0.488457 -4.48246 0
M  V30 4295 C 413.325 0.2383 -4.8061 0
M  V30 4296 C 415.677 -0.137881 -5.21018 0
M  V30 4297 C 413.005 -0.646738 -5.83125 0
M  V30 4298 C 415.357 -1.0107 -6.24474 0
M  V30 4299 C 414.021 -1.27019 -6.55303 0
M  V30 4300 H 413.291 0.257246 -0.694914 0
M  V30 4301 H 415.938 -0.037259 -1.91464 0
M  V30 4302 H 414.243 2.21079 -3.23468 0
M  V30 4303 H 415.94 1.93495 -3.51227 0
M  V30 4304 H 412.53 0.693593 -4.22951 0
M  V30 4305 H 416.714 0.0423953 -4.96282 0
M  V30 4306 H 411.97 -0.855937 -6.05379 0
M  V30 4307 H 416.144 -1.50247 -6.79999 0
M  V30 4308 H 413.771 -1.95769 -7.3456 0
M  V30 4309 N 415.346 1.54954 0.287554 0
M  V30 4310 C 416.309 1.86076 1.33823 0
M  V30 4311 C 417.309 0.734414 1.43049 0
M  V30 4312 O 418.499 1.00266 1.42452 0
M  V30 4313 C 415.631 2.05305 2.72144 0
M  V30 4314 H 416.824 2.79984 1.07465 0
M  V30 4315 H 414.377 1.47223 0.524902 0
M  V30 4316 H 415.112 1.1373 3.03704 0
M  V30 4317 H 414.897 2.873 2.66836 0
M  V30 4318 H 416.387 2.30706 3.48087 0
M  V30 4319 N 416.824 -0.551391 1.4764 0
M  V30 4320 C 417.787 -1.64007 1.60107 0
M  V30 4321 C 418.787 -1.53601 0.47576 0
M  V30 4322 O 419.977 -1.57655 0.740988 0
M  V30 4323 C 417.109 -3.03569 1.55108 0
M  V30 4324 H 418.302 -1.543 2.57161 0
M  V30 4325 H 415.855 -0.771776 1.35917 0
M  V30 4326 H 416.59 -3.18804 0.594519 0
M  V30 4327 H 416.375 -3.12532 2.36783 0
M  V30 4328 H 417.865 -3.82762 1.66982 0
M  V30 4329 N 418.302 -1.35869 -0.798587 0
M  V30 4330 C 419.232 -1.32118 -1.92528 0
M  V30 4331 C 420.213 -0.194209 -1.68988 0
M  V30 4332 O 421.398 -0.390426 -1.90235 0
M  V30 4333 C 418.528 -1.10047 -3.29404 0
M  V30 4334 C 417.482 -2.19471 -3.67446 0
M  V30 4335 C 416.808 -1.82555 -5.02571 0
M  V30 4336 C 418.108 -3.61495 -3.76987 0
M  V30 4337 H 419.802 -2.26394 -1.95924 0
M  V30 4338 H 417.348 -1.08981 -0.94123 0
M  V30 4339 H 419.301 -1.06061 -4.07835 0
M  V30 4340 H 418.025 -0.122195 -3.26371 0
M  V30 4341 H 416.684 -2.22568 -2.91306 0
M  V30 4342 H 416.332 -0.833249 -4.9605 0
M  V30 4343 H 416.032 -2.5581 -5.28995 0
M  V30 4344 H 417.556 -1.80108 -5.83432 0
M  V30 4345 H 418.97 -3.60676 -4.4563 0
M  V30 4346 H 417.367 -4.33577 -4.14887 0
M  V30 4347 H 418.437 -3.97065 -2.78329 0
M  V30 4348 N 419.78 1.02168 -1.19998 0
M  V30 4349 C 420.743 2.08765 -0.94604 0
M  V30 4350 C 421.743 1.60618 0.0763846 0
M  V30 4351 O 422.933 1.73472 -0.159135 0
M  V30 4352 C 420.065 3.38262 -0.423255 0
M  V30 4353 H 421.258 2.32726 -1.89153 0
M  V30 4354 H 418.811 1.1889 -1.01464 0
M  V30 4355 H 419.546 3.19974 0.527938 0
M  V30 4356 H 419.331 3.74532 -1.16053 0
M  V30 4357 H 420.821 4.16759 -0.264911 0
M  V30 4358 N 421.258 1.00505 1.21394 0
M  V30 4359 C 422.506 0.686415 1.90086 0
M  V30 4360 C 422.827 -0.785264 1.7849 0
M  V30 4361 O 422.097 -1.56387 1.17983 0
M  V30 4362 H 420.677 0.2509 0.703604 0
M  V30 4363 H 423.339 1.27417 1.47482 0
M  V30 4364 H 422.435 0.959621 2.96981 0
M  V30 4365 N 422.737 -1.36956 0.779787 0
M  V30 4366 C 423.7 -2.2851 0.177662 0
M  V30 4367 C 424.7 -1.48393 -0.619377 0
M  V30 4368 O 425.89 -1.68505 -0.441785 0
M  V30 4369 C 423.022 -3.32428 -0.755279 0
M  V30 4370 H 424.215 -2.83269 0.984823 0
M  V30 4371 H 421.768 -1.46358 0.548544 0
M  V30 4372 H 422.503 -2.82808 -1.58714 0
M  V30 4373 H 422.288 -3.91659 -0.185817 0
M  V30 4374 H 423.778 -4.00824 -1.17174 0
M  V30 4375 N 424.215 -0.530993 -1.48385 0
M  V30 4376 C 425.464 0.00474348 -2.01699 0
M  V30 4377 C 425.777 1.35227 -1.41325 0
M  V30 4378 O 426.983 1.97643 -1.86144 0
M  V30 4379 C 425.439 0.0588473 -3.59852 0
M  V30 4380 C 425.047 -1.28385 -4.2921 0
M  V30 4381 C 426.791 0.543358 -4.21008 0
M  V30 4382 C 424.698 -1.19028 -5.79298 0
M  V30 4383 H 423.628 0.00554317 -0.75398 0
M  V30 4384 H 426.279 -0.674924 -1.70637 0
M  V30 4385 H 424.661 0.803612 -3.8776 0
M  V30 4386 H 425.835 -2.04426 -4.12973 0
M  V30 4387 H 424.15 -1.70418 -3.7993 0
M  V30 4388 H 426.747 0.631351 -5.3096 0
M  V30 4389 H 427.09 1.54937 -3.86394 0
M  V30 4390 H 427.623 -0.145754 -3.97533 0
M  V30 4391 H 424.362 -2.17147 -6.18488 0
M  V30 4392 H 423.882 -0.471246 -5.97946 0
M  V30 4393 H 425.561 -0.881365 -6.40969 0
M  V30 4394 N 425.693 1.55336 -0.266172 0
M  V30 4395 C 426.97 1.91372 0.404486 0
M  V30 4396 C 427.35 1.18935 1.74407 0
M  V30 4397 O 426.698 0.3132 2.26343 0
M  V30 4398 C 426.908 3.44581 0.553593 0
M  V30 4399 C 428.256 4.16196 0.840618 0
M  V30 4400 O 429.28 3.50426 0.638739 0
M  V30 4401 O 428.139 5.32567 1.22618 0
M  V30 4402 H 425.233 0.797194 0.220025 0
M  V30 4403 H 427.779 1.66813 -0.311664 0
M  V30 4404 H 426.551 3.89357 -0.389498 0
M  V30 4405 H 426.174 3.75065 1.31955 0
M  V30 4406 N 427.171 -0.0066808 1.57599 0
M  V30 4407 C 428.081 -1.01671 2.11424 0
M  V30 4408 C 429.097 -1.38143 1.05795 0
M  V30 4409 O 430.273 -1.47011 1.37658 0
M  V30 4410 C 427.338 -2.29192 2.60139 0
M  V30 4411 C 426.399 -1.99094 3.80342 0
M  V30 4412 C 425.632 -3.20535 4.26724 0
M  V30 4413 O 425.855 -4.3199 3.72479 0
M  V30 4414 O 424.789 -3.04924 5.18946 0
M  V30 4415 H 428.615 -0.589181 2.9793 0
M  V30 4416 H 426.2 -0.225091 1.47695 0
M  V30 4417 H 428.082 -3.0412 2.917 0
M  V30 4418 H 426.757 -2.71195 1.76733 0
M  V30 4419 H 425.664 -1.21663 3.53764 0
M  V30 4420 H 426.997 -1.61931 4.648 0
M  V30 4421 N 428.649 -1.55105 -0.279332 0
M  V30 4422 C 429.559 -1.90638 -1.36727 0
M  V30 4423 C 430.575 -0.802899 -1.54368 0
M  V30 4424 O 431.751 -1.10138 -1.68616 0
M  V30 4425 C 428.816 -2.16547 -2.70755 0
M  V30 4426 C 427.877 -3.40146 -2.61915 0
M  V30 4427 C 427.11 -3.6481 -3.8955 0
M  V30 4428 O 427.333 -2.92095 -4.89935 0
M  V30 4429 O 426.267 -4.58343 -3.90135 0
M  V30 4430 H 430.093 -2.83237 -1.09591 0
M  V30 4431 H 427.678 -1.4157 -0.477306 0
M  V30 4432 H 429.56 -2.34665 -3.50014 0
M  V30 4433 H 428.235 -1.27131 -2.9769 0
M  V30 4434 H 427.142 -3.2737 -1.81052 0
M  V30 4435 H 428.475 -4.29761 -2.3993 0
M  V30 4436 N 430.127 0.543554 -1.4793 0
M  V30 4437 C 431.074 1.64942 -1.6144 0
M  V30 4438 C 432.044 1.59692 -0.456903 0
M  V30 4439 O 433.229 1.78321 -0.678688 0
M  V30 4440 C 430.369 3.03238 -1.64744 0
M  V30 4441 C 429.482 3.18823 -2.91506 0
M  V30 4442 C 428.617 4.47599 -2.86057 0
M  V30 4443 C 427.656 4.56664 -4.07584 0
M  V30 4444 N 426.793 5.76811 -4.00292 0
M  V30 4445 H 431.633 1.52733 -2.55884 0
M  V30 4446 H 429.17 0.7438 -1.2691 0
M  V30 4447 H 431.128 3.83339 -1.64641 0
M  V30 4448 H 429.758 3.1425 -0.738017 0
M  V30 4449 H 428.81 2.32064 -3.01414 0
M  V30 4450 H 430.122 3.21384 -3.81463 0
M  V30 4451 H 429.276 5.35975 -2.84281 0
M  V30 4452 H 428.015 4.47538 -1.93807 0
M  V30 4453 H 427.02 3.66697 -4.09651 0
M  V30 4454 H 428.245 4.58474 -5.00978 0
M  V30 4455 H 426.191 5.77673 -3.10853 0
M  V30 4456 H 426.108 5.80808 -4.8394 0
M  V30 4457 H 427.376 6.67512 -4.02553 0
M  V30 4458 N 431.605 1.3629 0.791371 0
M  V30 4459 C 432.851 1.30605 1.55146 0
M  V30 4460 C 433.184 -0.115042 1.93859 0
M  V30 4461 O 432.459 -1.06798 1.62556 0
M  V30 4462 C 432.742 2.22692 2.82985 0
M  V30 4463 C 432.595 3.73489 2.50651 0
M  V30 4464 C 433.914 2.13588 3.84796 0
M  V30 4465 H 431.033 0.475761 0.562868 0
M  V30 4466 H 433.675 1.66825 0.909358 0
M  V30 4467 H 431.825 1.91933 3.37778 0
M  V30 4468 H 433.497 4.14758 2.01924 0
M  V30 4469 H 431.74 3.93021 1.83622 0
M  V30 4470 H 432.411 4.3333 3.41949 0
M  V30 4471 H 434.887 2.40659 3.39445 0
M  V30 4472 H 433.763 2.80195 4.71998 0
M  V30 4473 H 434.024 1.12256 4.27611 0
M  V30 4474 N 433.083 -1.0153 1.20538 0
M  V30 4475 C 434.329 -1.75408 1.01783 0
M  V30 4476 C 434.662 -1.88943 -0.448814 0
M  V30 4477 O 433.937 -1.4162 -1.33319 0
M  V30 4478 C 434.22 -3.17255 1.70356 0
M  V30 4479 C 434.073 -3.11508 3.24473 0
M  V30 4480 C 435.392 -4.15955 1.43769 0
M  V30 4481 H 432.511 -0.636713 0.371167 0
M  V30 4482 H 435.153 -1.18436 1.4857 0
M  V30 4483 H 433.303 -3.65898 1.30578 0
M  V30 4484 H 434.975 -2.70658 3.73553 0
M  V30 4485 H 433.218 -2.4887 3.55311 0
M  V30 4486 H 433.889 -4.11784 3.67611 0
M  V30 4487 H 436.365 -3.75973 1.7828 0
M  V30 4488 H 435.241 -5.13368 1.94279 0
M  V30 4489 H 435.502 -4.40586 0.365564 0
M  V30 4490 N 434.561 -1.01147 -1.20859 0
M  V30 4491 C 435.491 -0.597663 -2.25722 0
M  V30 4492 C 436.472 0.384744 -1.65692 0
M  V30 4493 O 437.657 0.271303 -1.92296 0
M  V30 4494 C 434.787 0.0700149 -3.47229 0
M  V30 4495 C 433.741 -0.832843 -4.19819 0
M  V30 4496 C 433.067 -0.0312202 -5.34691 0
M  V30 4497 C 434.367 -2.1385 -4.76514 0
M  V30 4498 H 436.061 -1.47423 -2.60589 0
M  V30 4499 H 433.607 -0.710301 -1.25263 0
M  V30 4500 H 435.56 0.37103 -4.19763 0
M  V30 4501 H 434.284 0.981259 -3.11511 0
M  V30 4502 H 432.943 -1.11778 -3.49144 0
M  V30 4503 H 432.591 0.881515 -4.95215 0
M  V30 4504 H 432.291 -0.632434 -5.84187 0
M  V30 4505 H 433.815 0.26346 -6.10031 0
M  V30 4506 H 435.229 -1.9002 -5.40893 0
M  V30 4507 H 433.626 -2.69012 -5.36426 0
M  V30 4508 H 434.696 -2.80495 -3.95538 0
M  V30 4509 N 436.039 1.36541 -0.78704 0
M  V30 4510 C 436.949 2.3387 -0.184896 0
M  V30 4511 C 437.965 1.60927 0.661697 0
M  V30 4512 O 439.141 1.92927 0.57804 0
M  V30 4513 C 436.206 3.40122 0.672145 0
M  V30 4514 C 435.267 4.28867 -0.19267 0
M  V30 4515 C 434.5 5.30045 0.623561 0
M  V30 4516 O 434.723 5.39232 1.8597 0
M  V30 4517 O 433.657 6.01895 0.0247068 0
M  V30 4518 H 437.483 2.87126 -0.989562 0
M  V30 4519 H 435.068 1.38969 -0.548455 0
M  V30 4520 H 436.95 4.05093 1.16094 0
M  V30 4521 H 435.625 2.89169 1.45474 0
M  V30 4522 H 434.532 3.66945 -0.728166 0
M  V30 4523 H 435.865 4.83165 -0.938722 0
M  V30 4524 N 437.518 0.538854 1.48102 0
M  V30 4525 C 438.743 0.0102694 2.07397 0
M  V30 4526 C 439.168 -1.26562 1.39153 0
M  V30 4527 O 438.526 -1.75357 0.460387 0
M  V30 4528 C 438.574 -0.187602 3.60112 0
M  V30 4529 O 437.678 -1.25432 3.92862 0
M  V30 4530 H 437.019 0.0430975 0.6626 0
M  V30 4531 H 439.549 0.749301 1.90385 0
M  V30 4532 H 439.559 -0.407517 4.0596 0
M  V30 4533 H 438.234 0.744386 4.09184 0
M  V30 4534 H 436.811 -1.01636 3.58782 0
M  V30 4535 N 438.996 -1.55193 0.274407 0
M  V30 4536 C 439.926 -2.25471 -0.607032 0
M  V30 4537 C 440.907 -1.24461 -1.15946 0
M  V30 4538 O 442.092 -1.53179 -1.19373 0
M  V30 4539 C 439.222 -2.97526 -1.79153 0
M  V30 4540 C 438.176 -4.05459 -1.37067 0
M  V30 4541 C 437.502 -4.65084 -2.6382 0
M  V30 4542 C 438.802 -5.19691 -0.521389 0
M  V30 4543 H 440.496 -2.99393 -0.0209343 0
M  V30 4544 H 438.042 -1.43997 -0.00862866 0
M  V30 4545 H 439.995 -3.45402 -2.41404 0
M  V30 4546 H 438.719 -2.21138 -2.40344 0
M  V30 4547 H 437.378 -3.58393 -0.771355 0
M  V30 4548 H 437.026 -3.85365 -3.23268 0
M  V30 4549 H 436.726 -5.37961 -2.36372 0
M  V30 4550 H 438.25 -5.15708 -3.26921 0
M  V30 4551 H 439.664 -5.63623 -1.04889 0
M  V30 4552 H 438.061 -5.99126 -0.341825 0
M  V30 4553 H 439.131 -4.82713 0.46 0
M  V30 4554 N 440.474 -0.00167713 -1.576 0
M  V30 4555 C 441.722 0.681471 -1.90264 0
M  V30 4556 C 442.043 1.7422 -0.875924 0
M  V30 4557 O 441.313 1.95709 0.0864412 0
M  V30 4558 H 439.893 0.254696 -0.702239 0
M  V30 4559 H 442.555 -0.0429996 -1.94853 0
M  V30 4560 H 441.651 1.15166 -2.90075 0
M  V30 4561 N 441.952 1.55251 0.271103 0
M  V30 4562 C 443.177 1.80306 1.02491 0
M  V30 4563 C 443.602 0.575457 1.79081 0
M  V30 4564 O 442.96 -0.474987 1.74967 0
M  V30 4565 C 443.008 3.02832 1.95768 0
M  V30 4566 O 442.112 2.78051 3.04568 0
M  V30 4567 H 441.453 0.595896 0.292923 0
M  V30 4568 H 443.983 2.02397 0.299436 0
M  V30 4569 H 443.993 3.31616 2.37686 0
M  V30 4570 H 442.668 3.9183 1.39434 0
M  V30 4571 H 441.245 2.60369 2.66951 0
M  V30 4572 N 443.43 -0.535701 1.48216 0
M  V30 4573 C 444.679 -1.28828 1.55197 0
M  V30 4574 C 444.992 -1.94263 0.228278 0
M  V30 4575 O 446.198 -2.70927 0.176278 0
M  V30 4576 C 444.654 -2.33727 2.73678 0
M  V30 4577 C 444.262 -1.74386 4.12666 0
M  V30 4578 C 446.006 -3.1003 2.89968 0
M  V30 4579 C 443.913 -2.77192 5.22416 0
M  V30 4580 H 442.843 -0.484484 0.577747 0
M  V30 4581 H 445.494 -0.56646 1.74538 0
M  V30 4582 H 443.876 -3.08919 2.4776 0
M  V30 4583 H 445.05 -1.05421 4.48579 0
M  V30 4584 H 443.365 -1.10595 4.01445 0
M  V30 4585 H 445.962 -3.86842 3.6913 0
M  V30 4586 H 446.305 -3.65542 1.9921 0
M  V30 4587 H 446.838 -2.41952 3.15759 0
M  V30 4588 H 443.577 -2.26507 6.15122 0
M  V30 4589 H 443.097 -3.44502 4.90998 0
M  V30 4590 H 444.776 -3.40285 5.50286 0
M  V30 4591 N 444.908 -1.36708 -0.784132 0
M  V30 4592 C 445.855 -1.31466 -1.89698 0
M  V30 4593 C 446.825 -0.18239 -1.65096 0
M  V30 4594 O 448.01 -0.369762 -1.87183 0
M  V30 4595 C 445.15 -1.1151 -3.26588 0
M  V30 4596 C 444.263 -2.33859 -3.63227 0
M  V30 4597 C 443.398 -2.06873 -4.89262 0
M  V30 4598 C 442.437 -3.25154 -5.18595 0
M  V30 4599 N 441.574 -2.978 -6.35814 0
M  V30 4600 H 446.414 -2.26619 -1.93515 0
M  V30 4601 H 443.951 -1.12625 -0.946256 0
M  V30 4602 H 445.909 -0.979653 -4.05535 0
M  V30 4603 H 444.539 -0.200103 -3.22179 0
M  V30 4604 H 443.591 -2.58188 -2.79362 0
M  V30 4605 H 444.903 -3.22109 -3.8085 0
M  V30 4606 H 444.057 -1.90289 -5.76086 0
M  V30 4607 H 442.796 -1.15942 -4.73718 0
M  V30 4608 H 441.801 -3.42292 -4.30251 0
M  V30 4609 H 443.026 -4.1692 -5.36055 0
M  V30 4610 H 440.972 -2.09485 -6.21653 0
M  V30 4611 H 440.889 -3.7959 -6.53794 0
M  V30 4612 H 442.157 -2.84805 -7.25607 0
M  V30 4613 N 446.386 1.0089 -1.21074 0
M  V30 4614 C 447.802 1.2695 -0.967257 0
M  V30 4615 C 448.002 1.9846 0.348673 0
M  V30 4616 O 447.058 2.28459 1.0753 0
M  V30 4617 C 448.371 2.09697 -2.15517 0
M  V30 4618 C 449.919 2.22937 -2.197 0
M  V30 4619 C 450.394 3.09064 -3.37999 0
M  V30 4620 N 451.885 3.16653 -3.38061 0
M  V30 4621 C 452.62 3.8354 -4.26245 0
M  V30 4622 N 452.116 4.52488 -5.2462 0
M  V30 4623 N 453.909 3.80141 -4.14064 0
M  V30 4624 H 446.06 0.529005 -2.05707 0
M  V30 4625 H 448.323 0.296148 -0.900556 0
M  V30 4626 H 448.029 1.64497 -3.10859 0
M  V30 4627 H 447.903 3.10444 -2.14253 0
M  V30 4628 H 450.29 2.67357 -1.24916 0
M  V30 4629 H 450.371 1.21673 -2.2501 0
M  V30 4630 H 450.015 2.65347 -4.33074 0
M  V30 4631 H 449.945 4.10433 -3.29928 0
M  V30 4632 H 452.436 2.67566 -2.66865 0
M  V30 4633 H 452.749 5.01219 -5.88217 0
M  V30 4634 H 451.094 4.51288 -5.28549 0
M  V30 4635 H 454.285 3.25427 -3.36474 0
M  V30 4636 H 454.458 4.31992 -4.82998 0
M  V30 4637 N 447.864 1.01787 1.20321 0
M  V30 4638 C 448.827 0.593972 2.2137 0
M  V30 4639 C 449.827 -0.336553 1.57239 0
M  V30 4640 O 451.017 -0.125069 1.7375 0
M  V30 4641 C 448.149 -0.132433 3.40643 0
M  V30 4642 H 449.342 1.48791 2.60387 0
M  V30 4643 H 446.895 0.807803 1.33807 0
M  V30 4644 H 447.63 -1.04123 3.0713 0
M  V30 4645 H 447.415 0.53605 3.88418 0
M  V30 4646 H 448.905 -0.416314 4.1552 0
M  V30 4647 N 449.342 -1.36122 0.79427 0
M  V30 4648 C 450.59 -1.98718 0.368177 0
M  V30 4649 C 450.911 -1.63345 -1.06506 0
M  V30 4650 O 450.181 -0.909825 -1.73491 0
M  V30 4651 H 448.761 -0.735038 0.133146 0
M  V30 4652 H 451.423 -1.66239 1.01739 0
M  V30 4653 H 450.519 -3.08633 0.463923 0
M  V30 4654 N 450.82 -0.546701 -1.47814 0
M  V30 4655 C 451.783 0.196287 -2.28358 0
M  V30 4656 C 452.783 0.852437 -1.36346 0
M  V30 4657 O 453.973 0.709913 -1.59078 0
M  V30 4658 C 451.105 1.28579 -3.15722 0
M  V30 4659 H 452.298 -0.511086 -2.95513 0
M  V30 4660 H 449.851 -0.303248 -1.5333 0
M  V30 4661 H 450.586 2.0259 -2.53235 0
M  V30 4662 H 450.371 0.820229 -3.83425 0
M  V30 4663 H 451.861 1.80793 -3.76435 0
M  V30 4664 N 452.299 1.55045 -0.282633 0
M  V30 4665 C 453.576 1.9179 0.384166 0
M  V30 4666 C 453.956 1.20778 1.73136 0
M  V30 4667 O 453.304 0.33719 2.25998 0
M  V30 4668 C 453.514 3.45149 0.517014 0
M  V30 4669 C 454.862 4.17064 0.796427 0
M  V30 4670 O 455.886 3.51084 0.601535 0
M  V30 4671 O 454.745 5.33837 1.16962 0
M  V30 4672 H 451.839 0.799483 0.211558 0
M  V30 4673 H 454.385 1.66474 -0.32934 0
M  V30 4674 H 453.157 3.88922 -0.430772 0
M  V30 4675 H 452.78 3.76443 1.2797 0
M  V30 4676 N 453.777 0.010035 1.57597 0
M  V30 4677 C 454.707 -0.976857 2.12084 0
M  V30 4678 C 455.688 -1.35191 1.03235 0
M  V30 4679 O 456.873 -1.43389 1.3097 0
M  V30 4680 C 454.003 -2.26548 2.63236 0
M  V30 4681 C 452.957 -2.03175 3.76701 0
M  V30 4682 C 452.283 -3.38138 4.14206 0
M  V30 4683 C 453.583 -1.38625 5.03568 0
M  V30 4684 H 455.277 -0.523145 2.94794 0
M  V30 4685 H 452.823 -0.250195 1.4181 0
M  V30 4686 H 454.776 -2.95952 2.99984 0
M  V30 4687 H 453.5 -2.74051 1.77661 0
M  V30 4688 H 452.159 -1.36195 3.40362 0
M  V30 4689 H 451.807 -3.83363 3.25641 0
M  V30 4690 H 451.507 -3.23312 4.90656 0
M  V30 4691 H 453.031 -4.08841 4.53521 0
M  V30 4692 H 454.445 -1.98 5.38023 0
M  V30 4693 H 452.842 -1.34256 5.84889 0
M  V30 4694 H 453.912 -0.356722 4.83586 0
M  V30 4695 N 455.255 -1.55392 -0.262866 0
M  V30 4696 C 456.504 -1.75679 -0.990943 0
M  V30 4697 C 456.817 -0.57097 -1.87081 0
M  V30 4698 O 458.023 -0.656486 -2.63444 0
M  V30 4699 C 456.479 -3.10964 -1.81188 0
M  V30 4700 C 456.087 -4.37146 -0.980188 0
M  V30 4701 C 457.831 -3.40597 -2.53365 0
M  V30 4702 C 455.738 -5.63466 -1.7961 0
M  V30 4703 H 454.668 -0.654868 -0.373716 0
M  V30 4704 H 457.319 -1.81841 -0.246203 0
M  V30 4705 H 455.701 -2.98867 -2.59797 0
M  V30 4706 H 456.875 -4.60187 -0.237558 0
M  V30 4707 H 455.19 -4.14731 -0.372497 0
M  V30 4708 H 457.787 -4.32186 -3.14833 0
M  V30 4709 H 458.13 -2.6119 -3.24169 0
M  V30 4710 H 458.663 -3.53838 -1.81779 0
M  V30 4711 H 455.402 -6.4565 -1.13209 0
M  V30 4712 H 454.922 -5.44552 -2.51443 0
M  V30 4713 H 456.601 -6.02139 -2.36723 0
M  V30 4714 N 456.733 0.527833 -1.48498 0
M  V30 4715 C 457.98 1.28354 -1.56625 0
M  V30 4716 C 458.308 1.93 -0.241096 0
M  V30 4717 O 457.563 1.79967 0.768798 0
M  V30 4718 C 457.862 2.39275 -2.65485 0
M  V30 4719 C 457.528 1.92268 -4.07853 0
M  V30 4720 C 456.19 1.79166 -4.46602 0
M  V30 4721 C 458.542 1.56771 -4.97064 0
M  V30 4722 C 455.87 1.28905 -5.72364 0
M  V30 4723 C 458.222 1.07972 -6.23318 0
M  V30 4724 C 456.886 0.934887 -6.60921 0
M  V30 4725 H 456.156 0.469682 -0.573131 0
M  V30 4726 H 458.803 0.588781 -1.82224 0
M  V30 4727 H 457.108 3.1443 -2.33754 0
M  V30 4728 H 458.805 2.974 -2.68988 0
M  V30 4729 H 455.395 2.03417 -3.77252 0
M  V30 4730 H 459.579 1.65753 -4.67803 0
M  V30 4731 H 454.835 1.16381 -6.00221 0
M  V30 4732 H 459.009 0.795775 -6.91838 0
M  V30 4733 H 456.636 0.543231 -7.58257 0
M  V30 4734 N 458.211 1.37122 0.776871 0
M  V30 4735 C 459.436 1.354 1.57104 0
M  V30 4736 C 459.861 -0.0595562 1.88006 0
M  V30 4737 O 459.219 -1.03514 1.48844 0
M  V30 4738 C 459.267 2.19472 2.8612 0
M  V30 4739 O 458.371 1.59582 3.80273 0
M  V30 4740 H 457.712 0.462869 0.476076 0
M  V30 4741 H 460.242 1.80577 0.961932 0
M  V30 4742 H 460.252 2.32502 3.35271 0
M  V30 4743 H 458.927 3.22222 2.62956 0
M  V30 4744 H 457.504 1.55564 3.38902 0
M  V30 4745 N 459.689 -1.00246 1.21608 0
M  V30 4746 C 460.919 -1.77373 1.05935 0
M  V30 4747 C 461.327 -1.85059 -0.393686 0
M  V30 4748 O 460.67 -1.31289 -1.28487 0
M  V30 4749 C 460.732 -3.22705 1.58435 0
M  V30 4750 C 460.396 -3.38591 3.06929 0
M  V30 4751 C 461.393 -3.2667 4.04454 0
M  V30 4752 C 459.078 -3.6395 3.46187 0
M  V30 4753 C 461.072 -3.39877 5.39224 0
M  V30 4754 C 458.759 -3.768 4.81108 0
M  V30 4755 C 459.757 -3.6477 5.77436 0
M  V30 4756 O 459.445 -3.77206 7.09909 0
M  V30 4757 H 459.177 -0.56419 0.372378 0
M  V30 4758 H 461.731 -1.26971 1.61454 0
M  V30 4759 H 459.961 -3.74255 0.973147 0
M  V30 4760 H 461.65 -3.81515 1.38568 0
M  V30 4761 H 462.416 -3.06999 3.75468 0
M  V30 4762 H 458.295 -3.72395 2.71741 0
M  V30 4763 H 461.839 -3.30404 6.14393 0
M  V30 4764 H 457.736 -3.95975 5.09779 0
M  V30 4765 H 458.504 -3.94138 7.17355 0
M  V30 4766 N 461.167 -1.02423 -1.1978 0
M  V30 4767 C 462.414 -0.717988 -1.89344 0
M  V30 4768 C 462.742 0.753036 -1.79331 0
M  V30 4769 O 461.997 1.56355 -1.17692 0
M  V30 4770 C 462.296 -1.1088 -3.39765 0
M  V30 4771 C 461.962 -2.57731 -3.6998 0
M  V30 4772 C 460.624 -2.97854 -3.77937 0
M  V30 4773 C 462.976 -3.52763 -3.83677 0
M  V30 4774 C 460.304 -4.31931 -3.97054 0
M  V30 4775 C 462.656 -4.86538 -4.04306 0
M  V30 4776 C 461.32 -5.26356 -4.10494 0
M  V30 4777 H 460.59 -0.26273 -0.692859 0
M  V30 4778 H 463.237 -1.28623 -1.41875 0
M  V30 4779 H 461.542 -0.459094 -3.89101 0
M  V30 4780 H 463.239 -0.849432 -3.919 0
M  V30 4781 H 459.829 -2.25646 -3.64393 0
M  V30 4782 H 464.013 -3.2292 -3.76877 0
M  V30 4783 H 459.269 -4.62324 -4.00083 0
M  V30 4784 H 463.443 -5.60093 -4.13846 0
M  V30 4785 H 461.07 -6.3026 -4.2506 0
M  V30 4786 N 462.645 1.35699 -0.801477 0
M  V30 4787 C 463.608 2.28199 -0.213994 0
M  V30 4788 C 464.608 1.49359 0.595691 0
M  V30 4789 O 465.798 1.69186 0.414921 0
M  V30 4790 C 462.93 3.33587 0.702297 0
M  V30 4791 H 464.123 2.81666 -1.02976 0
M  V30 4792 H 461.676 1.45467 -0.571759 0
M  V30 4793 H 462.411 2.85297 1.54195 0
M  V30 4794 H 462.196 3.91906 0.123484 0
M  V30 4795 H 463.686 4.02638 1.10783 0
M  V30 4796 N 464.123 0.554532 1.47522 0
M  V30 4797 C 465.053 -0.182974 2.32782 0
M  V30 4798 C 466.034 -0.911377 1.43624 0
M  V30 4799 O 467.219 -0.892366 1.72483 0
M  V30 4800 C 464.349 -1.21513 3.25349 0
M  V30 4801 C 463.303 -0.603355 4.23726 0
M  V30 4802 C 462.629 -1.73995 5.05598 0
M  V30 4803 C 463.929 0.441121 5.20434 0
M  V30 4804 H 465.623 0.52882 2.94693 0
M  V30 4805 H 463.169 0.255759 1.41711 0
M  V30 4806 H 465.122 -1.73922 3.83835 0
M  V30 4807 H 463.846 -1.95683 2.61487 0
M  V30 4808 H 462.505 -0.10059 3.66462 0
M  V30 4809 H 462.153 -2.47063 4.38143 0
M  V30 4810 H 461.853 -1.3364 5.72201 0
M  V30 4811 H 463.377 -2.26735 5.66942 0
M  V30 4812 H 464.791 0.00319931 5.733 0
M  V30 4813 H 463.188 0.763402 5.95224 0
M  V30 4814 H 464.258 1.33799 4.66075 0
M  V30 4815 N 465.601 -1.54893 0.290851 0
M  V30 4816 C 466.878 -1.91991 -0.373989 0
M  V30 4817 C 467.258 -1.21694 -1.72493 0
M  V30 4818 O 466.606 -0.34917 -2.25816 0
M  V30 4819 C 466.816 -3.45419 -0.498703 0
M  V30 4820 C 468.164 -4.1748 -0.774298 0
M  V30 4821 O 469.188 -3.51398 -0.582908 0
M  V30 4822 O 468.047 -5.3445 -1.14129 0
M  V30 4823 H 465.141 -0.800593 -0.207315 0
M  V30 4824 H 467.687 -1.66297 0.338164 0
M  V30 4825 H 466.459 -3.88688 0.451392 0
M  V30 4826 H 466.082 -3.77117 -1.25972 0
M  V30 4827 N 467.08 -0.0183926 -1.57589 0
M  V30 4828 C 468.01 0.965596 -2.12599 0
M  V30 4829 C 468.991 1.34641 -1.0395 0
M  V30 4830 O 470.176 1.42693 -1.31729 0
M  V30 4831 C 467.306 2.25149 -2.64434 0
M  V30 4832 C 466.26 2.01175 -3.77773 0
M  V30 4833 C 465.586 3.35937 -4.15994 0
M  V30 4834 C 466.886 1.35953 -5.04296 0
M  V30 4835 H 468.58 0.507504 -2.95067 0
M  V30 4836 H 466.126 0.242671 -1.41941 0
M  V30 4837 H 468.079 2.94357 -3.01549 0
M  V30 4838 H 466.803 2.73105 -1.79112 0
M  V30 4839 H 465.462 1.34388 -3.4108 0
M  V30 4840 H 465.11 3.81631 -3.27669 0
M  V30 4841 H 464.81 3.20705 -4.92364 0
M  V30 4842 H 466.334 4.0643 -4.55683 0
M  V30 4843 H 467.748 1.95144 -5.39065 0
M  V30 4844 H 466.145 1.31152 -5.85593 0
M  V30 4845 H 467.215 0.331071 -4.83768 0
M  V30 4846 N 468.558 1.5553 0.254621 0
M  V30 4847 C 469.521 1.88872 1.29846 0
M  V30 4848 C 470.521 0.764591 1.41459 0
M  V30 4849 O 471.711 1.03265 1.40293 0
M  V30 4850 C 468.843 2.11032 2.67728 0
M  V30 4851 H 470.036 2.82201 1.01502 0
M  V30 4852 H 467.589 1.48303 0.493556 0
M  V30 4853 H 468.324 1.20146 3.01223 0
M  V30 4854 H 468.109 2.92895 2.60682 0
M  V30 4855 H 469.599 2.38038 3.43115 0
M  V30 4856 N 470.036 -0.519951 1.48776 0
M  V30 4857 C 470.946 -1.65025 1.66745 0
M  V30 4858 C 471.962 -1.6508 0.549954 0
M  V30 4859 O 473.138 -1.83848 0.822295 0
M  V30 4860 C 470.203 -3.0146 1.71238 0
M  V30 4861 C 469.264 -3.12182 2.94688 0
M  V30 4862 C 468.497 -4.42109 2.98958 0
M  V30 4863 O 468.72 -5.29799 2.1135 0
M  V30 4864 O 467.654 -4.57406 3.91233 0
M  V30 4865 H 471.48 -1.52801 2.62461 0
M  V30 4866 H 469.065 -0.694157 1.32294 0
M  V30 4867 H 470.947 -3.82584 1.76657 0
M  V30 4868 H 469.622 -3.13988 0.786975 0
M  V30 4869 H 468.529 -2.30316 2.94797 0
M  V30 4870 H 469.862 -3.04574 3.86646 0
M  V30 4871 N 471.514 -1.37532 -0.769588 0
M  V30 4872 C 472.461 -1.3347 -1.88293 0
M  V30 4873 C 473.431 -0.199891 -1.64893 0
M  V30 4874 O 474.616 -0.389594 -1.8678 0
M  V30 4875 C 471.756 -1.14968 -3.25387 0
M  V30 4876 C 470.869 -2.37698 -3.60727 0
M  V30 4877 C 470.004 -2.12051 -4.8704 0
M  V30 4878 C 469.043 -3.30636 -5.15117 0
M  V30 4879 N 468.18 -3.04527 -6.3262 0
M  V30 4880 H 473.02 -2.28658 -1.911 0
M  V30 4881 H 470.557 -1.13622 -0.934257 0
M  V30 4882 H 472.515 -1.02261 -4.04473 0
M  V30 4883 H 471.145 -0.234263 -3.21949 0
M  V30 4884 H 470.197 -2.61137 -2.76608 0
M  V30 4885 H 471.509 -3.26131 -3.77413 0
M  V30 4886 H 470.663 -1.96388 -5.74035 0
M  V30 4887 H 469.402 -1.20959 -4.72462 0
M  V30 4888 H 468.407 -3.46836 -4.26597 0
M  V30 4889 H 469.632 -4.22582 -5.31603 0
M  V30 4890 H 467.578 -2.16067 -6.19396 0
M  V30 4891 H 467.495 -3.86503 -6.49732 0
M  V30 4892 H 468.763 -2.92485 -7.22546 0
M  V30 4893 N 472.992 0.995999 -1.22138 0
M  V30 4894 C 473.939 2.08551 -0.988687 0
M  V30 4895 C 474.909 1.65864 0.0885021 0
M  V30 4896 O 476.094 1.90704 -0.0604589 0
M  V30 4897 C 473.234 3.40374 -0.569191 0
M  V30 4898 C 472.347 3.96421 -1.71681 0
M  V30 4899 C 471.482 5.1639 -1.2456 0
M  V30 4900 C 470.521 5.64567 -2.36497 0
M  V30 4901 N 469.658 6.75777 -1.90445 0
M  V30 4902 H 474.498 2.2779 -1.92135 0
M  V30 4903 H 472.035 1.1168 -0.957388 0
M  V30 4904 H 473.993 4.16068 -0.307166 0
M  V30 4905 H 472.623 3.21145 0.326462 0
M  V30 4906 H 471.675 3.17628 -2.09324 0
M  V30 4907 H 472.987 4.2816 -2.55891 0
M  V30 4908 H 472.141 5.99362 -0.940774 0
M  V30 4909 H 470.88 4.86266 -0.373662 0
M  V30 4910 H 469.885 4.80185 -2.67772 0
M  V30 4911 H 471.11 5.96716 -3.24202 0
M  V30 4912 H 469.056 6.47443 -1.05609 0
M  V30 4913 H 468.973 7.06818 -2.68223 0
M  V30 4914 H 470.241 7.62262 -1.63022 0
M  V30 4915 N 474.47 1.03057 1.19235 0
M  V30 4916 C 475.719 0.72326 1.88287 0
M  V30 4917 C 476.032 -0.751333 1.80594 0
M  V30 4918 O 477.238 -1.17176 2.44912 0
M  V30 4919 C 475.694 1.24338 3.3774 0
M  V30 4920 C 475.302 2.74587 3.53986 0
M  V30 4921 C 477.046 1.01213 4.12257 0
M  V30 4922 C 474.953 3.20009 4.97341 0
M  V30 4923 H 473.883 0.266848 0.705201 0
M  V30 4924 H 476.534 1.24509 1.34795 0
M  V30 4925 H 474.916 0.649457 3.90638 0
M  V30 4926 H 476.09 3.39649 3.11408 0
M  V30 4927 H 474.405 2.9601 2.9286 0
M  V30 4928 H 477.002 1.32675 5.17978 0
M  V30 4929 H 477.345 -0.051001 4.16269 0
M  V30 4930 H 477.878 1.57014 3.65501 0
M  V30 4931 H 474.617 4.25659 4.98493 0
M  V30 4932 H 474.137 2.59676 5.40674 0
M  V30 4933 H 475.816 3.13447 5.66003 0
M  V30 4934 N 475.948 -1.35272 0.808662 0
M  V30 4935 C 476.878 -2.32315 0.234981 0
M  V30 4936 C 477.859 -1.57572 -0.64071 0
M  V30 4937 O 479.044 -1.8563 -0.570551 0
M  V30 4938 C 476.174 -3.41801 -0.615601 0
M  V30 4939 C 475.128 -4.27694 0.161767 0
M  V30 4940 C 474.454 -5.28519 -0.810649 0
M  V30 4941 C 475.754 -5.04231 1.36193 0
M  V30 4942 H 477.448 -2.80543 1.04575 0
M  V30 4943 H 474.994 -1.3488 0.504315 0
M  V30 4944 H 476.947 -4.08693 -1.02702 0
M  V30 4945 H 475.671 -2.92186 -1.45928 0
M  V30 4946 H 474.33 -3.62384 0.554382 0
M  V30 4947 H 473.978 -4.75171 -1.64988 0
M  V30 4948 H 473.678 -5.8686 -0.294822 0
M  V30 4949 H 475.202 -5.98283 -1.22023 0
M  V30 4950 H 476.616 -5.64058 1.02528 0
M  V30 4951 H 475.013 -5.72077 1.81239 0
M  V30 4952 H 476.083 -4.34753 2.14751 0
M  V30 4953 N 477.426 -0.562348 -1.47226 0
M  V30 4954 C 478.842 -0.222492 -1.58042 0
M  V30 4955 C 479.042 1.27505 -1.56028 0
M  V30 4956 O 478.098 2.05555 -1.46641 0
M  V30 4957 C 479.411 -0.853694 -2.88327 0
M  V30 4958 C 480.959 -0.825397 -3.01921 0
M  V30 4959 C 481.434 -1.43576 -4.34914 0
M  V30 4960 N 482.925 -1.39918 -4.41562 0
M  V30 4961 C 483.66 -1.84103 -5.43041 0
M  V30 4962 N 483.156 -2.36167 -6.51304 0
M  V30 4963 N 484.949 -1.75142 -5.34118 0
M  V30 4964 H 477.1 -1.53525 -1.46778 0
M  V30 4965 H 479.363 -0.640527 -0.698877 0
M  V30 4966 H 479.069 -1.90635 -2.95552 0
M  V30 4967 H 478.943 -0.34977 -3.75575 0
M  V30 4968 H 481.33 0.218583 -2.94289 0
M  V30 4969 H 481.411 -1.36713 -2.16202 0
M  V30 4970 H 481.055 -2.47884 -4.43301 0
M  V30 4971 H 480.985 -0.869427 -5.19373 0
M  V30 4972 H 483.476 -1.0184 -3.63919 0
M  V30 4973 H 483.789 -2.67793 -7.24919 0
M  V30 4974 H 482.134 -2.40181 -6.52179 0
M  V30 4975 H 485.325 -1.34241 -4.48439 0
M  V30 4976 H 485.498 -2.09895 -6.13065 0
M  V30 4977 O 478.943 1.55359 -0.441124 0
M  V30 4978 H 479.634 1.93483 0.0916679 0
M  V30 END ATOM
M  V30 BEGIN BOND
M  V30 END BOND
M  V30 END CTAB
M  END
$$$$
