drugbank_target|P0AEB2 D-alanyl-D-alanine carboxypeptidase DacA (DB00578; DB01000; DB01602; DB09050; DB09319)
 OpenBabel12092120033D

  0  0  0     0  0            999 V3000
M  V30 BEGIN CTAB
M  V30 COUNTS 6255 6316 0 0 0
M  V30 BEGIN ATOM
M  V30 1 H -0.908 1.98254 -0.117106 0
M  V30 2 N 0 1.576 0 0
M  V30 3 C 0.933 2.03868 1.02534 0
M  V30 4 C 1.911 0.928543 1.3348 0
M  V30 5 O 3.095 1.19667 1.45644 0
M  V30 6 C 0.222 2.43627 2.35294 0
M  V30 7 C -0.732 3.65373 2.2001 0
M  V30 8 S 0.101 5.13292 1.52614 0
M  V30 9 C 1.257 5.56322 2.86805 0
M  V30 10 H 1.49 2.90518 0.631377 0
M  V30 11 H -0.977 1.52953 0.210867 0
M  V30 12 H 0.981 2.67203 3.11629 0
M  V30 13 H -0.358 1.57376 2.7183 0
M  V30 14 H -1.165 3.90944 3.18086 0
M  V30 15 H -1.563 3.418 1.51819 0
M  V30 16 H 0.729 5.58782 3.83104 0
M  V30 17 H 1.672 6.56266 2.65933 0
M  V30 18 H 2.08 4.83886 2.90714 0
M  V30 19 N 1.4781 -0.272755 1.55222 0
M  V30 20 C 2.4261 -1.35705 1.88909 0
M  V30 21 C 3.4201 -1.5112 0.765456 0
M  V30 22 O 4.6261 -1.52901 0.949802 0
M  V30 23 H 1.0011 -0.453868 0.59959 0
M  V30 24 H 2.9721 -1.04544 2.79487 0
M  V30 25 C 1.7211 -2.71049 2.17779 0
M  V30 26 H 1.0441 -2.59979 3.03728 0
M  V30 27 H 2.4841 -3.45858 2.45272 0
M  V30 28 C 0.9431 -3.22165 0.985473 0
M  V30 29 O 1.4731 -4.01096 0.220233 0
M  V30 30 N -0.3209 -2.7985 0.783108 0
M  V30 31 H -0.7739 -2.15775 1.40708 0
M  V30 32 H -0.8159 -3.14397 -0.0130392 0
M  V30 33 N 2.9562 -1.48159 -0.537278 0
M  V30 34 C 4.1842 -1.59454 -1.31841 0
M  V30 35 C 4.5992 -0.252065 -1.8711 0
M  V30 36 O 3.9562 0.757621 -1.66031 0
M  V30 37 C 4.0072 -2.63546 -2.47439 0
M  V30 38 O 3.7282 -3.92583 -1.94449 0
M  V30 39 C 5.2292 -2.85212 -3.39366 0
M  V30 40 H 2.4492 -0.53785 -0.401196 0
M  V30 41 H 4.9932 -1.93932 -0.648891 0
M  V30 42 H 3.1482 -2.31946 -3.1029 0
M  V30 43 H 3.5622 -4.49629 -2.70063 0
M  V30 44 H 5.0362 -3.61863 -4.16844 0
M  V30 45 H 5.5132 -1.93765 -3.94147 0
M  V30 46 H 6.1192 -3.18086 -2.82314 0
M  V30 47 N 4.4343 0.785586 -1.36625 0
M  V30 48 C 5.6833 1.53883 -1.30396 0
M  V30 49 C 5.9963 1.95271 0.113452 0
M  V30 50 O 7.2023 2.69858 0.298142 0
M  V30 51 C 5.6583 2.77808 -2.28802 0
M  V30 52 C 5.2663 2.43574 -3.75999 0
M  V30 53 C 7.0103 3.55783 -2.31558 0
M  V30 54 C 4.9173 3.63919 -4.66173 0
M  V30 55 H 3.8473 0.577678 -0.484566 0
M  V30 56 H 6.4983 0.861705 -1.62009 0
M  V30 57 H 4.8803 3.47339 -1.90188 0
M  V30 58 H 6.0543 1.81916 -4.23371 0
M  V30 59 H 4.3693 1.78803 -3.76056 0
M  V30 60 H 6.9663 4.45205 -2.96137 0
M  V30 61 H 7.3093 3.94644 -1.3252 0
M  V30 62 H 7.8423 2.93235 -2.68809 0
M  V30 63 H 4.5813 3.3015 -5.66287 0
M  V30 64 H 4.1013 4.2473 -4.23515 0
M  V30 65 H 5.7803 4.30901 -4.82632 0
M  V30 66 N 5.9124 1.20967 1.01018 0
M  V30 67 C 7.1594 1.02374 1.74716 0
M  V30 68 C 7.4874 -0.443375 1.89379 0
M  V30 69 O 6.7424 -1.34535 1.42123 0
M  V30 70 C 7.0414 1.65997 3.16512 0
M  V30 71 C 6.7074 3.15831 3.2181 0
M  V30 72 C 5.3694 3.56719 3.22963 0
M  V30 73 C 7.7214 4.11816 3.19464 0
M  V30 74 C 5.0494 4.92107 3.19449 0
M  V30 75 C 7.4014 5.47158 3.17491 0
M  V30 76 C 6.0654 5.87451 3.16951 0
M  V30 77 H 5.3354 0.374614 0.639332 0
M  V30 78 H 7.9824 1.50485 1.18434 0
M  V30 79 H 6.2874 1.10166 3.75993 0
M  V30 80 H 7.9844 1.49119 3.72242 0
M  V30 81 H 4.5744 2.83263 3.21652 0
M  V30 82 H 8.7584 3.81257 3.17737 0
M  V30 83 H 4.0144 5.22579 3.17366 0
M  V30 84 H 8.1884 6.21274 3.14629 0
M  V30 85 H 5.8154 6.92329 3.13983 0
M  V30 86 N 7.3905 -1.2043 1.01659 0
M  V30 87 C 8.6155 -1.94318 0.724942 0
M  V30 88 C 9.0405 -1.74266 -0.708034 0
M  V30 89 O 8.3985 -1.03694 -1.48719 0
M  V30 90 C 8.4465 -3.44486 1.06591 0
M  V30 91 O 7.5505 -4.12017 0.177599 0
M  V30 92 H 6.8915 -0.60708 0.26898 0
M  V30 93 H 9.4215 -1.52861 1.35995 0
M  V30 94 H 9.4315 -3.95106 1.01762 0
M  V30 95 H 8.1065 -3.58404 2.10997 0
M  V30 96 H 6.6835 -3.71821 0.283421 0
M  V30 97 N 8.8686 -0.792821 -1.36206 0
M  V30 98 C 9.8316 -0.199459 -2.2833 0
M  V30 99 C 10.8316 0.605189 -1.48977 0
M  V30 100 O 12.0216 0.425685 -1.68919 0
M  V30 101 C 9.1536 0.723523 -3.33134 0
M  V30 102 H 10.3466 -1.01181 -2.82316 0
M  V30 103 H 7.8996 -0.562485 -1.45828 0
M  V30 104 H 8.6346 1.56008 -2.84309 0
M  V30 105 H 8.4196 0.148436 -3.91819 0
M  V30 106 H 9.9096 1.13344 -4.01924 0
M  V30 107 N 10.3467 1.47872 -0.545128 0
M  V30 108 C 11.7627 1.5829 -0.204032 0
M  V30 109 C 11.9627 1.54529 1.29317 0
M  V30 110 O 11.0187 1.44232 2.07252 0
M  V30 111 C 12.3317 2.89304 -0.819987 0
M  V30 112 C 13.8797 3.02864 -0.790105 0
M  V30 113 C 14.3547 4.3656 -1.38491 0
M  V30 114 N 15.8457 4.43165 -1.34755 0
M  V30 115 C 16.5807 5.45153 -1.77753 0
M  V30 116 N 16.0767 6.54016 -2.2855 0
M  V30 117 N 17.8697 5.36125 -1.68897 0
M  V30 118 H 10.0207 1.4856 -1.51802 0
M  V30 119 H 12.2837 0.706305 -0.632327 0
M  V30 120 H 11.9897 2.97757 -1.87173 0
M  V30 121 H 11.8637 3.75957 -0.305915 0
M  V30 122 H 14.2507 2.94014 0.252913 0
M  V30 123 H 14.3317 2.17782 -1.34181 0
M  V30 124 H 13.9757 4.46164 -2.42693 0
M  V30 125 H 13.9057 5.20353 -0.808754 0
M  V30 126 H 16.3967 3.65083 -0.975855 0
M  V30 127 H 16.7097 7.27994 -2.59314 0
M  V30 128 H 15.0547 6.54938 -2.32553 0
M  V30 129 H 18.2457 4.49975 -1.28998 0
M  V30 130 H 18.4187 6.15472 -2.02726 0
M  V30 131 N 11.8248 0.280983 1.55075 0
M  V30 132 C 13.0738 -0.334784 1.98902 0
M  V30 133 C 13.3868 -1.56534 1.17288 0
M  V30 134 O 14.5928 -2.25443 1.51287 0
M  V30 135 C 13.0488 -0.646994 3.54037 0
M  V30 136 C 12.6568 0.564085 4.44435 0
M  V30 137 C 14.4008 -1.22506 4.06439 0
M  V30 138 C 12.3078 0.226137 5.90967 0
M  V30 139 H 11.2378 -0.128866 0.742906 0
M  V30 140 H 13.8888 0.386556 1.79382 0
M  V30 141 H 12.2708 -1.42739 3.6938 0
M  V30 142 H 13.4448 1.34082 4.40861 0
M  V30 143 H 11.7598 1.0594 4.02698 0
M  V30 144 H 14.3568 -1.49182 5.13468 0
M  V30 145 H 14.6998 -2.16085 3.55827 0
M  V30 146 H 15.2328 -0.50682 3.94558 0
M  V30 147 H 11.9718 1.12996 6.45687 0
M  V30 148 H 11.4918 -0.513717 5.97596 0
M  V30 149 H 13.1708 -0.179539 6.46751 0
M  V30 150 N 13.3029 -1.57598 0.00835791 0
M  V30 151 C 14.2359 -2.04409 -1.01451 0
M  V30 152 C 15.2139 -0.935609 -1.32985 0
M  V30 153 O 16.3979 -1.20437 -1.45007 0
M  V30 154 C 13.5249 -2.44872 -2.33999 0
M  V30 155 C 12.5709 -3.66535 -2.18069 0
M  V30 156 S 13.4039 -5.14095 -1.4989 0
M  V30 157 C 14.5599 -5.57835 -2.8385 0
M  V30 158 H 14.7929 -2.90849 -0.615961 0
M  V30 159 H 12.3259 -1.53063 -0.202752 0
M  V30 160 H 14.2839 -2.68852 -3.10208 0
M  V30 161 H 12.9449 -1.58815 -2.70992 0
M  V30 162 H 12.1379 -3.92626 -3.16008 0
M  V30 163 H 11.7399 -3.426 -1.50004 0
M  V30 164 H 14.0319 -5.60806 -3.80136 0
M  V30 165 H 14.9749 -6.57667 -2.62449 0
M  V30 166 H 15.3829 -4.85421 -2.88144 0
M  V30 167 N 14.781 0.264519 -1.55364 0
M  V30 168 C 15.728 1.32717 -1.88825 0
M  V30 169 C 16.698 1.48675 -0.740605 0
M  V30 170 O 17.883 1.62945 -0.992657 0
M  V30 171 C 15.023 2.68089 -2.17307 0
M  V30 172 C 14.136 2.60284 -3.44785 0
M  V30 173 C 13.271 3.87892 -3.62924 0
M  V30 174 C 12.31 3.74631 -4.84064 0
M  V30 175 N 11.447 4.94092 -4.98816 0
M  V30 176 H 16.287 1.03481 -2.79456 0
M  V30 177 H 13.824 0.499757 -1.3835 0
M  V30 178 H 15.782 3.46864 -2.31821 0
M  V30 179 H 14.412 2.95509 -1.299 0
M  V30 180 H 13.464 1.73173 -3.38697 0
M  V30 181 H 14.776 2.46388 -4.33698 0
M  V30 182 H 13.93 4.75109 -3.77302 0
M  V30 183 H 12.669 4.04664 -2.7221 0
M  V30 184 H 11.674 2.85797 -4.69681 0
M  V30 185 H 12.899 3.5937 -5.76221 0
M  V30 186 H 10.845 5.11259 -4.11036 0
M  V30 187 H 10.762 4.8276 -5.81789 0
M  V30 188 H 12.03 5.82857 -5.17588 0
M  V30 189 N 16.2591 1.48442 0.529413 0
M  V30 190 C 17.6751 1.34575 0.858004 0
M  V30 191 C 17.8751 0.3572 1.98309 0
M  V30 192 O 16.9311 -0.221379 2.51528 0
M  V30 193 C 18.2441 2.74617 1.22499 0
M  V30 194 C 19.7921 2.83109 1.33484 0
M  V30 195 C 20.2671 4.23854 1.73526 0
M  V30 196 N 21.7581 4.2653 1.80628 0
M  V30 197 C 22.4931 5.32372 2.12997 0
M  V30 198 N 21.9891 6.48491 2.43786 0
M  V30 199 N 23.7821 5.19766 2.14008 0
M  V30 200 H 15.9331 2.1133 -0.212925 0
M  V30 201 H 18.1961 0.947439 -0.0326199 0
M  V30 202 H 17.9021 3.4852 0.471905 0
M  V30 203 H 17.7761 3.08177 2.17501 0
M  V30 204 H 20.1631 2.09462 2.0787 0
M  V30 205 H 20.2441 2.53168 0.366027 0
M  V30 206 H 19.8881 4.98018 0.997013 0
M  V30 207 H 19.8181 4.5124 2.71459 0
M  V30 208 H 22.3091 3.42772 1.59108 0
M  V30 209 H 22.6221 7.24993 2.67592 0
M  V30 210 H 20.9671 6.51765 2.41304 0
M  V30 211 H 24.1581 4.28066 1.89412 0
M  V30 212 H 24.3311 6.02354 2.38902 0
M  V30 213 N 17.7372 -0.778329 1.37039 0
M  V30 214 C 18.6672 -1.90546 1.34962 0
M  V30 215 C 19.6482 -1.68681 0.219274 0
M  V30 216 O 20.8332 -1.89634 0.418624 0
M  V30 217 C 17.9632 -3.27734 1.14925 0
M  V30 218 C 16.9172 -3.64147 2.24902 0
M  V30 219 C 16.2432 -4.99806 1.89996 0
M  V30 220 C 17.5432 -3.71579 3.67051 0
M  V30 221 H 19.2372 -1.92541 2.29277 0
M  V30 222 H 16.7832 -0.924948 1.10366 0
M  V30 223 H 18.7362 -4.06215 1.12104 0
M  V30 224 H 17.4602 -3.26154 0.170631 0
M  V30 225 H 16.1192 -2.8797 2.26868 0
M  V30 226 H 15.7672 -4.94759 0.906796 0
M  V30 227 H 15.4672 -5.25139 2.63634 0
M  V30 228 H 16.9912 -5.80694 1.88749 0
M  V30 229 H 18.4052 -4.40227 3.67251 0
M  V30 230 H 16.8022 -4.08405 4.39688 0
M  V30 231 H 17.8722 -2.72404 4.01154 0
M  V30 232 N 19.2153 -1.21501 -1.00376 0
M  V30 233 C 20.1783 -0.976927 -2.07337 0
M  V30 234 C 21.1783 0.0525322 -1.60714 0
M  V30 235 O 22.3683 -0.184869 -1.73216 0
M  V30 236 C 19.5003 -0.473423 -3.37597 0
M  V30 237 H 20.6933 -1.92587 -2.29892 0
M  V30 238 H 18.2463 -1.03217 -1.17371 0
M  V30 239 H 18.9813 0.480379 -3.20722 0
M  V30 240 H 18.7663 -1.216 -3.72768 0
M  V30 241 H 20.2563 -0.32675 -4.1632 0
M  V30 242 N 20.6934 1.19889 -1.02296 0
M  V30 243 C 21.6234 2.25141 -0.619174 0
M  V30 244 C 22.6044 1.66051 0.368915 0
M  V30 245 O 23.7894 1.92546 0.252941 0
M  V30 246 C 20.9194 3.4728 0.0368783 0
M  V30 247 C 19.8734 4.19005 -0.872865 0
M  V30 248 C 19.1994 5.34637 -0.0822402 0
M  V30 249 C 20.4994 4.74452 -2.18387 0
M  V30 250 H 22.1934 2.59171 -1.49903 0
M  V30 251 H 19.7394 1.24579 -0.722222 0
M  V30 252 H 21.6924 4.20098 0.330958 0
M  V30 253 H 20.4164 3.12433 0.95149 0
M  V30 254 H 19.0754 3.48061 -1.15105 0
M  V30 255 H 18.7234 4.96034 0.83422 0
M  V30 256 H 18.4234 5.83557 -0.688149 0
M  V30 257 H 19.9474 6.10255 0.205238 0
M  V30 258 H 21.3614 5.39055 -1.95172 0
M  V30 259 H 19.7584 5.33834 -2.74119 0
M  V30 260 H 20.8284 3.92844 -2.84257 0
M  V30 261 N 22.1715 0.800033 1.35784 0
M  V30 262 C 23.3995 0.389606 2.03199 0
M  V30 263 C 23.8145 -0.997375 1.60306 0
M  V30 264 O 23.1715 -1.64154 0.797481 0
M  V30 265 C 23.2225 0.455855 3.58614 0
M  V30 266 O 22.9435 1.78815 3.99946 0
M  V30 267 C 24.4445 0.0374032 4.43284 0
M  V30 268 H 21.6645 0.159132 0.651857 0
M  V30 269 H 24.2085 1.08183 1.73541 0
M  V30 270 H 22.3635 -0.188057 3.86943 0
M  V30 271 H 22.7775 1.74636 4.94573 0
M  V30 272 H 24.2515 0.134882 5.51835 0
M  V30 273 H 24.7285 -1.01651 4.27275 0
M  V30 274 H 25.3345 0.654215 4.20238 0
M  V30 275 N 23.6496 -1.47581 0.552962 0
M  V30 276 C 24.8776 -2.06875 0.0320556 0
M  V30 277 C 25.2926 -1.40625 -1.25976 0
M  V30 278 O 24.6496 -0.501349 -1.75479 0
M  V30 279 C 24.7006 -3.61092 -0.17167 0
M  V30 280 O 24.4216 -4.24858 1.06899 0
M  V30 281 C 25.9226 -4.37242 -0.730344 0
M  V30 282 H 23.1426 -0.669561 0.043915 0
M  V30 283 H 25.6866 -1.89646 0.765163 0
M  V30 284 H 23.8416 -3.7785 -0.854894 0
M  V30 285 H 24.2556 -5.17334 0.864059 0
M  V30 286 H 25.7296 -5.45842 -0.822203 0
M  V30 287 H 26.2066 -4.03235 -1.74064 0
M  V30 288 H 26.8126 -4.25219 -0.0829543 0
M  V30 289 N 25.1277 -0.289203 -1.54924 0
M  V30 290 C 26.0907 0.579144 -2.21762 0
M  V30 291 C 27.0907 1.07047 -1.1999 0
M  V30 292 O 28.2807 0.968384 -1.44803 0
M  V30 293 C 25.4127 1.80055 -2.8947 0
M  V30 294 H 26.6057 -0.00464908 -2.999 0
M  V30 295 H 24.1587 -0.0399306 -1.56249 0
M  V30 296 H 24.8937 2.42449 -2.15381 0
M  V30 297 H 24.6787 1.45602 -3.64064 0
M  V30 298 H 26.1687 2.41773 -3.40493 0
M  V30 299 N 26.6058 1.57591 -0.0167156 0
M  V30 300 C 27.5358 2.12496 0.967858 0
M  V30 301 C 28.5168 1.03807 1.34752 0
M  V30 302 O 29.7018 1.31577 1.42833 0
M  V30 303 C 26.8318 2.64194 2.25431 0
M  V30 304 C 25.7858 3.77559 2.01576 0
M  V30 305 C 25.1118 4.15636 3.36379 0
M  V30 306 C 26.4118 5.04151 1.36489 0
M  V30 307 H 28.1058 2.95013 0.510643 0
M  V30 308 H 25.6518 1.41915 0.244181 0
M  V30 309 H 27.6048 3.01236 2.94678 0
M  V30 310 H 26.3288 1.78821 2.73296 0
M  V30 311 H 24.9878 3.40937 1.34751 0
M  V30 312 H 24.6358 3.27263 3.81979 0
M  V30 313 H 24.3358 4.92022 3.21229 0
M  V30 314 H 25.8598 4.5525 4.06915 0
M  V30 315 H 27.2738 5.38857 1.95718 0
M  V30 316 H 25.6708 5.85453 1.31776 0
M  V30 317 H 26.7408 4.83733 0.336219 0
M  V30 318 N 28.0839 -0.256276 1.55502 0
M  V30 319 C 29.3239 -0.993081 1.78654 0
M  V30 320 C 29.6879 -1.8288 0.584724 0
M  V30 321 O 30.8889 -2.59665 0.694822 0
M  V30 322 C 29.1599 -1.83856 3.06483 0
M  V30 323 S 30.7189 -2.63573 3.5082 0
M  V30 324 H 27.5369 -0.334199 0.62756 0
M  V30 325 H 30.1389 -0.26184 1.93739 0
M  V30 326 H 28.8429 -1.21414 3.92029 0
M  V30 327 H 28.3739 -2.61271 2.94111 0
M  V30 328 H 30.3889 -3.86312 3.11412 0
M  V30 329 N 29.562 -1.4872 -0.521534 0
M  V30 330 C 30.79 -1.60843 -1.30142 0
M  V30 331 C 31.205 -0.271897 -1.86832 0
M  V30 332 O 30.562 0.739969 -1.66825 0
M  V30 333 C 30.613 -2.66155 -2.4463 0
M  V30 334 O 30.334 -3.94623 -1.90275 0
M  V30 335 C 31.835 -2.88795 -3.36322 0
M  V30 336 H 29.055 -0.542075 -0.395468 0
M  V30 337 H 31.599 -1.94609 -0.628285 0
M  V30 338 H 29.754 -2.35224 -3.07812 0
M  V30 339 H 30.168 -4.52468 -2.65279 0
M  V30 340 H 31.642 -3.66264 -4.12983 0
M  V30 341 H 32.119 -1.97934 -3.9207 0
M  V30 342 H 32.725 -3.21063 -2.78924 0
M  V30 343 N 31.0401 0.771051 -1.3745 0
M  V30 344 C 32.0031 1.86598 -1.33093 0
M  V30 345 C 33.0031 1.59076 -0.234845 0
M  V30 346 O 34.1931 1.67145 -0.490732 0
M  V30 347 C 31.3251 3.23747 -1.06773 0
M  V30 348 H 32.5181 1.91873 -2.30488 0
M  V30 349 H 30.0711 0.970876 -1.2249 0
M  V30 350 H 30.8061 3.24148 -0.099129 0
M  V30 351 H 30.5911 3.45115 -1.86112 0
M  V30 352 H 32.0811 4.03824 -1.06377 0
M  V30 353 N 32.5182 1.22032 0.997298 0
M  V30 354 C 33.7652 1.04222 1.73621 0
M  V30 355 C 34.0932 -0.423264 1.89839 0
M  V30 356 O 33.3482 -1.3302 1.43542 0
M  V30 357 C 33.6472 1.69345 3.14733 0
M  V30 358 C 33.3132 3.19226 3.18442 0
M  V30 359 C 31.9752 3.60124 3.19161 0
M  V30 360 C 34.3272 4.15181 3.15078 0
M  V30 361 C 31.6552 4.95467 3.14212 0
M  V30 362 C 34.0072 5.50495 3.1167 0
M  V30 363 C 32.6712 5.90779 3.10703 0
M  V30 364 H 31.9412 0.381374 0.635323 0
M  V30 365 H 34.5882 1.51732 1.16831 0
M  V30 366 H 32.8932 1.14147 3.74803 0
M  V30 367 H 34.5902 1.53059 3.7064 0
M  V30 368 H 31.1802 2.86659 3.18629 0
M  V30 369 H 35.3642 3.84605 3.13676 0
M  V30 370 H 30.6202 5.25916 3.11805 0
M  V30 371 H 34.7942 6.24576 3.08022 0
M  V30 372 H 32.4212 6.9562 3.06622 0
M  V30 373 N 33.9963 -1.19345 1.0293 0
M  V30 374 C 35.2453 -1.88363 0.721256 0
M  V30 375 C 35.5583 -1.80514 -0.753254 0
M  V30 376 O 36.7643 -2.44788 -1.17436 0
M  V30 377 C 35.2203 -3.37872 1.23978 0
M  V30 378 C 34.8283 -3.54278 2.74211 0
M  V30 379 C 36.5723 -4.12365 1.00775 0
M  V30 380 C 34.4793 -4.97682 3.19479 0
M  V30 381 H 33.4093 -0.705484 0.266098 0
M  V30 382 H 36.0603 -1.34928 1.24365 0
M  V30 383 H 34.4423 -3.90707 0.6453 0
M  V30 384 H 35.6163 -3.11769 3.39318 0
M  V30 385 H 33.9313 -2.93174 2.95699 0
M  V30 386 H 36.5283 -5.18119 1.32123 0
M  V30 387 H 36.8713 -4.16263 -0.0554308 0
M  V30 388 H 37.4043 -3.65668 1.56625 0
M  V30 389 H 34.1433 -4.98945 4.25128 0
M  V30 390 H 33.6633 -5.4095 2.591 0
M  V30 391 H 35.3423 -5.66337 3.12845 0
M  V30 392 N 35.4744 -0.807222 -1.35358 0
M  V30 393 C 36.6994 -0.399309 -2.0352 0
M  V30 394 C 37.1244 0.981986 -1.60433 0
M  V30 395 O 36.4824 1.63601 -0.781299 0
M  V30 396 C 36.5304 -0.491552 -3.57234 0
M  V30 397 O 35.6344 0.494754 -4.09421 0
M  V30 398 H 34.9754 -0.166682 -0.642739 0
M  V30 399 H 37.5054 -1.09328 -1.72941 0
M  V30 400 H 37.5154 -0.361588 -4.06395 0
M  V30 401 H 36.1904 -1.49907 -3.87944 0
M  V30 402 H 34.7674 0.324977 -3.71481 0
M  V30 403 N 36.9525 1.47285 -0.560781 0
M  V30 404 C 37.9155 2.28535 0.174488 0
M  V30 405 C 38.9155 1.37153 0.839388 0
M  V30 406 O 40.1055 1.59748 0.694702 0
M  V30 407 C 37.2375 3.16934 1.25561 0
M  V30 408 H 38.4305 2.95012 -0.539262 0
M  V30 409 H 35.9835 1.53034 -0.317865 0
M  V30 410 H 36.7185 2.55157 2.00164 0
M  V30 411 H 36.5035 3.8419 0.783604 0
M  V30 412 H 37.9935 3.78143 1.77193 0
M  V30 413 N 38.4306 0.297415 1.54768 0
M  V30 414 C 39.3936 -0.567375 2.22066 0
M  V30 415 C 40.3936 -1.06409 1.20556 0
M  V30 416 O 41.5836 -0.960691 1.45315 0
M  V30 417 C 38.7156 -1.78517 2.90421 0
M  V30 418 H 39.9086 0.0205534 2.99893 0
M  V30 419 H 37.4616 0.0482163 1.56226 0
M  V30 420 H 38.1966 -2.41303 2.16664 0
M  V30 421 H 37.9816 -1.43669 3.64831 0
M  V30 422 H 39.4716 -2.39964 3.41771 0
M  V30 423 N 39.9087 -1.5758 0.0250728 0
M  V30 424 C 40.8587 -2.06468 -0.967201 0
M  V30 425 C 41.8427 -0.964376 -1.28797 0
M  V30 426 O 43.0347 -1.22797 -1.27475 0
M  V30 427 C 40.1637 -2.59203 -2.25097 0
M  V30 428 C 39.2497 -3.76157 -1.95874 0
M  V30 429 N 39.6407 -4.86919 -1.36905 0
M  V30 430 C 37.9387 -3.84566 -2.25887 0
M  V30 431 C 38.6397 -5.68172 -1.24724 0
M  V30 432 N 37.6157 -5.14953 -1.74138 0
M  V30 433 H 41.4177 -2.89508 -0.506176 0
M  V30 434 H 38.9317 -1.61399 -0.18004 0
M  V30 435 H 40.9287 -2.92517 -2.97052 0
M  V30 436 H 39.5887 -1.77592 -2.71829 0
M  V30 437 H 40.5997 -5.07256 -1.04459 0
M  V30 438 H 37.2767 -3.13854 -2.75321 0
M  V30 439 H 38.6667 -6.67221 -0.791605 0
M  V30 440 N 41.3868 0.248026 -1.55636 0
M  V30 441 C 42.3498 1.29044 -1.89421 0
M  V30 442 C 43.3498 1.41134 -0.770581 0
M  V30 443 O 44.5398 1.39854 -1.03858 0
M  V30 444 C 41.6718 2.66831 -2.12165 0
M  V30 445 H 42.8648 1.00305 -2.82629 0
M  V30 446 H 40.4178 0.487265 -1.48511 0
M  V30 447 H 41.1528 3.00711 -1.21422 0
M  V30 448 H 40.9378 2.59438 -2.93997 0
M  V30 449 H 42.4278 3.42103 -2.3949 0
M  V30 450 N 42.8649 1.48995 0.513639 0
M  V30 451 C 44.1419 1.48338 1.27495 0
M  V30 452 C 44.5219 0.204065 2.10111 0
M  V30 453 O 43.8699 -0.813881 2.13514 0
M  V30 454 C 44.0799 2.75498 2.14247 0
M  V30 455 C 45.4279 3.24484 2.73852 0
M  V30 456 O 46.4519 2.76528 2.24523 0
M  V30 457 O 45.3109 4.07974 3.6362 0
M  V30 458 H 42.4049 0.593149 0.576284 0
M  V30 459 H 44.9509 1.61246 0.528948 0
M  V30 460 H 43.7229 3.60109 1.53092 0
M  V30 461 H 43.3459 2.6539 2.96064 0
M  V30 462 N 44.343 -0.763751 1.37857 0
M  V30 463 C 45.62 -1.51244 1.24035 0
M  V30 464 C 46 -2.10472 -0.162649 0
M  V30 465 O 45.348 -1.96206 -1.17112 0
M  V30 466 C 45.558 -2.58694 2.34261 0
M  V30 467 C 46.906 -3.25878 2.72193 0
M  V30 468 O 47.93 -2.68993 2.33497 0
M  V30 469 O 46.789 -4.2874 3.38887 0
M  V30 470 H 43.883 -0.670243 0.484462 0
M  V30 471 H 46.429 -0.800031 1.49658 0
M  V30 472 H 45.201 -2.13105 3.2818 0
M  V30 473 H 44.824 -3.37527 2.10146 0
M  V30 474 N 45.8211 -1.22559 -0.990812 0
M  V30 475 C 46.7511 -1.0218 -2.09956 0
M  V30 476 C 47.7321 0.0579394 -1.70001 0
M  V30 477 O 48.9171 -0.104684 -1.93918 0
M  V30 478 C 46.0471 -0.601023 -3.4206 0
M  V30 479 C 45.0011 -1.62694 -3.95872 0
M  V30 480 C 44.3271 -1.06193 -5.24049 0
M  V30 481 C 45.6271 -3.01743 -4.2632 0
M  V30 482 H 47.3211 -1.94916 -2.27262 0
M  V30 483 H 44.8671 -0.938566 -1.09211 0
M  V30 484 H 46.8201 -0.445561 -4.19038 0
M  V30 485 H 45.5441 0.362005 -3.24588 0
M  V30 486 H 44.2031 -1.77021 -3.21028 0
M  V30 487 H 43.8511 -0.0901903 -5.02919 0
M  V30 488 H 43.5511 -1.74732 -5.61019 0
M  V30 489 H 45.0751 -0.918092 -6.03658 0
M  V30 490 H 46.4891 -2.90777 -4.94087 0
M  V30 491 H 44.8861 -3.67425 -4.74467 0
M  V30 492 H 45.9561 -3.51518 -3.34011 0
M  V30 493 N 47.2992 1.18797 -1.03562 0
M  V30 494 C 48.2472 2.24297 -0.615905 0
M  V30 495 C 49.2412 1.65643 0.354808 0
M  V30 496 O 50.4472 1.78618 0.22265 0
M  V30 497 H 46.8222 0.729909 -0.180934 0
M  V30 498 H 48.7932 2.5701 -1.5162 0
M  V30 499 C 47.5422 3.47698 0.0104735 0
M  V30 500 H 46.8652 3.93125 -0.727509 0
M  V30 501 H 48.3052 4.23159 0.266995 0
M  V30 502 C 46.7642 3.12489 1.25905 0
M  V30 503 O 47.2942 3.25761 2.35038 0
M  V30 504 N 45.5002 2.6686 1.15039 0
M  V30 505 H 45.0472 2.56261 0.262328 0
M  V30 506 H 45.0052 2.43674 1.98672 0
M  V30 507 N 48.7773 0.814389 1.34928 0
M  V30 508 C 50.0263 0.394871 1.97797 0
M  V30 509 C 50.3393 -1.04555 1.65311 0
M  V30 510 O 51.5453 -1.56856 2.21604 0
M  V30 511 C 50.0013 0.655103 3.53888 0
M  V30 512 C 49.6093 2.10858 3.95276 0
M  V30 513 C 51.3533 0.301329 4.23429 0
M  V30 514 C 49.2603 2.31415 5.44244 0
M  V30 515 H 48.1903 0.143913 0.740139 0
M  V30 516 H 50.8413 0.999544 1.53888 0
M  V30 517 H 49.2233 -0.0196253 3.95995 0
M  V30 518 H 50.3973 2.82176 3.64298 0
M  V30 519 H 48.7123 2.42297 3.38646 0
M  V30 520 H 51.3093 0.432869 5.32945 0
M  V30 521 H 51.6523 -0.75331 4.09428 0
M  V30 522 H 52.1853 0.930288 3.86769 0
M  V30 523 H 48.9243 3.35353 5.63222 0
M  V30 524 H 48.4443 1.6463 5.76764 0
M  V30 525 H 50.1233 2.13352 6.10811 0
M  V30 526 N 50.2554 -1.46986 0.568584 0
M  V30 527 C 51.2024 -2.30153 -0.172707 0
M  V30 528 C 52.1724 -1.39759 -0.897586 0
M  V30 529 O 53.3574 -1.68716 -0.891044 0
M  V30 530 C 50.4974 -3.23952 -1.1895 0
M  V30 531 C 49.6104 -4.29441 -0.469517 0
M  V30 532 C 48.7454 -5.1038 -1.47259 0
M  V30 533 C 47.7844 -6.07632 -0.738225 0
M  V30 534 N 46.9214 -6.8149 -1.68868 0
M  V30 535 H 51.7614 -2.93019 0.542596 0
M  V30 536 H 49.2984 -1.44422 0.279401 0
M  V30 537 H 51.2564 -3.76767 -1.79173 0
M  V30 538 H 49.8864 -2.62926 -1.87269 0
M  V30 539 H 48.9384 -3.79594 0.247467 0
M  V30 540 H 50.2504 -4.98689 0.105241 0
M  V30 541 H 49.4044 -5.67402 -2.14803 0
M  V30 542 H 48.1434 -4.4106 -2.08128 0
M  V30 543 H 47.1484 -5.49778 -0.0489293 0
M  V30 544 H 48.3734 -6.78966 -0.135129 0
M  V30 545 H 46.3194 -6.14891 -2.28573 0
M  V30 546 H 46.2364 -7.46948 -1.16636 0
M  V30 547 H 47.5044 -7.43078 -2.3549 0
M  V30 548 N 51.7335 -0.305618 -1.54608 0
M  V30 549 C 52.9615 0.304775 -2.04643 0
M  V30 550 C 53.3765 1.47167 -1.18268 0
M  V30 551 O 52.7335 1.81296 -0.209328 0
M  V30 552 C 52.7845 0.756564 -3.53495 0
M  V30 553 O 52.5055 -0.36389 -4.36586 0
M  V30 554 C 54.0065 1.43163 -4.19546 0
M  V30 555 H 51.2265 0.0655481 -0.667791 0
M  V30 556 H 53.7705 -0.446592 -1.99564 0
M  V30 557 H 51.9255 1.45794 -3.58919 0
M  V30 558 H 52.3395 -0.0113121 -5.24499 0
M  V30 559 H 53.8135 1.69886 -5.25207 0
M  V30 560 H 54.2905 2.37318 -3.69563 0
M  V30 561 H 54.8965 0.773307 -4.18211 0
M  V30 562 N 53.2116 1.57565 -0.0334293 0
M  V30 563 C 54.1446 2.05997 0.981866 0
M  V30 564 C 55.1226 0.956647 1.3148 0
M  V30 565 O 56.3066 1.22729 1.43073 0
M  V30 566 C 53.4336 2.48564 2.30074 0
M  V30 567 C 52.4796 3.69958 2.12211 0
M  V30 568 S 53.3126 5.16414 1.41692 0
M  V30 569 C 54.4686 5.6228 2.7494 0
M  V30 570 H 54.7016 2.91792 0.569612 0
M  V30 571 H 52.2346 1.53366 0.178376 0
M  V30 572 H 54.1926 2.73753 3.05892 0
M  V30 573 H 52.8536 1.63106 2.68431 0
M  V30 574 H 52.0466 3.97603 3.09722 0
M  V30 575 H 51.6486 3.44943 1.44535 0
M  V30 576 H 53.9406 5.66783 3.71165 0
M  V30 577 H 54.8836 6.61759 2.51953 0
M  V30 578 H 55.2916 4.89944 2.80384 0
M  V30 579 N 54.6897 -0.239769 1.55765 0
M  V30 580 C 55.9387 -0.964754 1.77131 0
M  V30 581 C 56.2517 -1.86213 0.59868 0
M  V30 582 O 57.4577 -2.6244 0.695522 0
M  V30 583 C 55.9137 -1.76552 3.1362 0
M  V30 584 C 55.5217 -0.915185 4.38553 0
M  V30 585 C 57.2657 -2.48281 3.44321 0
M  V30 586 C 55.1727 -1.71225 5.66071 0
M  V30 587 H 54.1027 -0.363953 0.660344 0
M  V30 588 H 56.7537 -0.219181 1.82186 0
M  V30 589 H 55.1357 -2.55331 3.02691 0
M  V30 590 H 56.3097 -0.169217 4.60489 0
M  V30 591 H 54.6247 -0.310889 4.15238 0
M  V30 592 H 57.2217 -3.08382 4.36812 0
M  V30 593 H 57.5647 -3.20256 2.65973 0
M  V30 594 H 58.0977 -1.76507 3.56497 0
M  V30 595 H 54.8367 -1.03612 6.4726 0
M  V30 596 H 54.3567 -2.43331 5.48224 0
M  V30 597 H 56.0357 -2.27758 6.05587 0
M  V30 598 N 56.1678 -1.49265 -0.50573 0
M  V30 599 C 57.5788 -1.51769 -1.08734 0
M  V30 600 C 57.9298 -0.301192 -1.93874 0
M  V30 601 O 57.0548 0.589456 -2.08217 0
M  V30 602 C 57.6498 -2.75017 -1.97867 0
M  V30 603 C 56.2088 -2.80314 -2.51199 0
M  V30 604 C 55.3558 -2.4562 -1.28709 0
M  V30 605 H 58.3068 -1.56031 -0.289855 0
M  V30 606 H 58.3278 -2.5491 -2.82491 0
M  V30 607 H 57.8398 -3.63539 -1.35873 0
M  V30 608 H 55.9408 -1.96061 -3.16845 0
M  V30 609 H 56.0538 -3.82366 -2.88675 0
M  V30 610 H 54.4178 -1.97297 -1.61078 0
M  V30 611 H 55.2008 -3.36411 -0.6843 0
M  V30 612 N 57.6459 0.756429 -1.3826 0
M  V30 613 C 58.8939 1.51248 -1.34047 0
M  V30 614 C 59.2149 1.94875 0.0698372 0
M  V30 615 O 58.4849 1.67436 1.01696 0
M  V30 616 H 57.0649 0.561018 -0.493222 0
M  V30 617 H 59.7269 0.899347 -1.7291 0
M  V30 618 H 58.8229 2.40472 -1.98947 0
M  V30 619 N 59.124 1.23083 0.984299 0
M  V30 620 C 60.37 1.06214 1.72761 0
M  V30 621 C 60.703 -0.400584 1.90024 0
M  V30 622 O 59.978 -1.29672 1.44967 0
M  V30 623 C 60.261 1.78375 3.12817 0
M  V30 624 C 60.114 3.32296 3.03149 0
M  V30 625 C 61.433 1.54309 4.12161 0
M  V30 626 H 58.552 0.387251 0.627061 0
M  V30 627 H 61.194 1.51536 1.14616 0
M  V30 628 H 59.344 1.39848 3.62457 0
M  V30 629 H 61.016 3.8032 2.61064 0
M  V30 630 H 59.259 3.6153 2.39747 0
M  V30 631 H 59.93 3.77972 4.02295 0
M  V30 632 H 62.406 1.87791 3.71314 0
M  V30 633 H 61.282 2.07281 5.08258 0
M  V30 634 H 61.543 0.477572 4.39513 0
M  V30 635 N 60.6021 -1.18246 1.0419 0
M  V30 636 C 62.0131 -1.69914 0.773698 0
M  V30 637 C 62.3641 -1.83085 -0.705297 0
M  V30 638 O 61.4891 -1.51123 -1.5489 0
M  V30 639 C 62.0841 -3.08619 1.39784 0
M  V30 640 C 60.6431 -3.57494 1.17792 0
M  V30 641 C 59.7901 -2.34013 1.48773 0
M  V30 642 H 62.7411 -1.02904 1.20816 0
M  V30 643 H 62.7621 -3.71958 0.801714 0
M  V30 644 H 62.2741 -2.99001 2.47426 0
M  V30 645 H 60.3751 -3.72406 0.120295 0
M  V30 646 H 60.4881 -4.40852 1.87581 0
M  V30 647 H 58.8521 -2.37986 0.907463 0
M  V30 648 H 59.6351 -2.27013 2.57527 0
M  V30 649 N 62.0802 -0.821533 -1.34494 0
M  V30 650 C 63.0122 -0.199946 -2.28326 0
M  V30 651 C 64.0252 0.609377 -1.50965 0
M  V30 652 O 65.2142 0.439285 -1.7301 0
M  V30 653 C 62.3142 0.738431 -3.30757 0
M  V30 654 C 61.4872 -0.0277632 -4.37391 0
M  V30 655 C 60.5462 0.831332 -5.19591 0
M  V30 656 O 59.5722 0.276822 -5.68526 0
M  V30 657 N 60.7742 2.15132 -5.39165 0
M  V30 658 H 63.5392 -1.00609 -2.82308 0
M  V30 659 H 61.1002 -0.678366 -1.47003 0
M  V30 660 H 63.0922 1.31773 -3.82646 0
M  V30 661 H 61.6622 1.44533 -2.7718 0
M  V30 662 H 60.8822 -0.788359 -3.86236 0
M  V30 663 H 62.1702 -0.555251 -5.05761 0
M  V30 664 H 61.5682 2.62559 -5.01078 0
M  V30 665 H 60.1252 2.6795 -5.94177 0
M  V30 666 N 63.5583 1.46682 -0.576371 0
M  V30 667 C 64.8073 2.01619 -0.0572825 0
M  V30 668 C 65.1203 1.45417 1.30818 0
M  V30 669 O 66.3263 1.92133 1.91825 0
M  V30 670 C 64.7823 3.59863 -0.0518371 0
M  V30 671 C 64.3903 4.25059 -1.41523 0
M  V30 672 C 66.1343 4.2248 0.413639 0
M  V30 673 C 64.0413 5.75364 -1.36785 0
M  V30 674 H 62.9713 0.753794 -0.0176448 0
M  V30 675 H 65.6223 1.68481 -0.727076 0
M  V30 676 H 64.0043 3.90048 0.683994 0
M  V30 677 H 65.1783 4.06491 -2.17029 0
M  V30 678 H 63.4933 3.7451 -1.8202 0
M  V30 679 H 66.0903 5.3265 0.467779 0
M  V30 680 H 66.4333 3.90976 1.42982 0
M  V30 681 H 66.9663 3.96897 -0.267929 0
M  V30 682 H 63.7053 6.11518 -2.36063 0
M  V30 683 H 63.2253 5.96214 -0.654895 0
M  V30 684 H 64.9043 6.37955 -1.07805 0
M  V30 685 N 65.0364 0.313813 1.54444 0
M  V30 686 C 66.3134 -0.345447 1.92525 0
M  V30 687 C 66.6934 -1.70667 1.24242 0
M  V30 688 O 66.0414 -2.25273 0.382654 0
M  V30 689 C 66.2514 -0.44737 3.46121 0
M  V30 690 C 67.5994 -0.712238 4.18584 0
M  V30 691 O 68.6234 -0.530678 3.52225 0
M  V30 692 O 67.4824 -1.06183 5.36085 0
M  V30 693 H 64.5764 -0.195407 0.803583 0
M  V30 694 H 67.1224 0.362813 1.65776 0
M  V30 695 H 65.8944 0.509043 3.87975 0
M  V30 696 H 65.5174 -1.20359 3.78945 0
M  V30 697 N 66.5145 -1.57545 0.0417849 0
M  V30 698 C 67.4775 -2.09885 -0.92093 0
M  V30 699 C 68.4775 -1.01648 -1.24596 0
M  V30 700 O 69.6675 -1.27759 -1.1842 0
M  V30 701 C 66.7995 -2.57527 -2.23367 0
M  V30 702 H 67.9925 -2.96236 -0.467382 0
M  V30 703 H 65.5455 -1.5493 -0.206467 0
M  V30 704 H 66.2805 -1.74542 -2.73323 0
M  V30 705 H 66.0655 -3.36613 -2.01083 0
M  V30 706 H 67.5555 -2.98201 -2.92346 0
M  V30 707 N 67.9926 0.231505 -1.5589 0
M  V30 708 C 68.9026 1.308 -1.94752 0
M  V30 709 C 69.9186 1.51826 -0.849989 0
M  V30 710 O 71.0946 1.6515 -1.15271 0
M  V30 711 C 68.1596 2.63968 -2.24771 0
M  V30 712 C 67.2206 2.51331 -3.48039 0
M  V30 713 C 66.4536 3.78148 -3.76616 0
M  V30 714 O 66.6766 4.80722 -3.07022 0
M  V30 715 O 65.6106 3.75857 -4.70123 0
M  V30 716 H 69.4366 1.0083 -2.86474 0
M  V30 717 H 67.0216 0.433547 -1.42971 0
M  V30 718 H 68.9036 3.42633 -2.45318 0
M  V30 719 H 67.5786 2.9364 -1.36225 0
M  V30 720 H 66.4856 1.709 -3.32782 0
M  V30 721 H 67.8186 2.26601 -4.36936 0
M  V30 722 N 69.4707 1.49531 0.497807 0
M  V30 723 C 70.6957 1.63159 1.28039 0
M  V30 724 C 71.1207 0.30418 1.85624 0
M  V30 725 O 70.4787 -0.728618 1.66015 0
M  V30 726 C 70.5267 2.70537 2.38416 0
M  V30 727 O 69.6307 2.29931 3.42353 0
M  V30 728 H 68.9717 0.546001 0.377861 0
M  V30 729 H 71.5017 1.9574 0.59558 0
M  V30 730 H 71.5117 2.92802 2.84132 0
M  V30 731 H 70.1867 3.6689 1.95869 0
M  V30 732 H 68.7637 2.18009 3.02533 0
M  V30 733 N 70.9488 -0.749086 1.3866 0
M  V30 734 C 72.1788 -1.53611 1.38157 0
M  V30 735 C 72.5868 -1.89177 -0.0293595 0
M  V30 736 O 71.9298 -1.53606 -1.00752 0
M  V30 737 C 71.9918 -2.86087 2.17702 0
M  V30 738 C 71.6558 -2.73034 3.66472 0
M  V30 739 C 72.6528 -2.42526 4.59866 0
M  V30 740 C 70.3378 -2.90345 4.09884 0
M  V30 741 C 72.3318 -2.29492 5.94653 0
M  V30 742 C 70.0188 -2.7693 5.4475 0
M  V30 743 C 71.0168 -2.46547 6.36949 0
M  V30 744 O 70.7048 -2.33199 7.69333 0
M  V30 745 H 70.4368 -0.481773 0.474205 0
M  V30 746 H 72.9908 -0.934465 1.82912 0
M  V30 747 H 71.2208 -3.48458 1.67672 0
M  V30 748 H 72.9098 -3.47625 2.09551 0
M  V30 749 H 73.6758 -2.28816 4.27631 0
M  V30 750 H 69.5548 -3.1299 3.38464 0
M  V30 751 H 73.0988 -2.05698 6.66584 0
M  V30 752 H 68.9958 -2.90215 5.76581 0
M  V30 753 H 69.7638 -2.48376 7.79905 0
M  V30 754 N 72.4269 -1.23603 -0.977757 0
M  V30 755 C 73.6759 -1.06377 -1.71368 0
M  V30 756 C 73.9889 0.399062 -1.91486 0
M  V30 757 O 75.1949 0.691312 -2.62551 0
M  V30 758 C 73.6509 -1.85512 -3.08404 0
M  V30 759 C 73.2589 -3.36141 -2.96164 0
M  V30 760 C 75.0029 -1.76783 -3.85938 0
M  V30 761 C 72.9099 -4.07659 -4.28449 0
M  V30 762 H 71.8399 -0.394452 -0.642591 0
M  V30 763 H 74.4909 -1.47594 -1.09034 0
M  V30 764 H 72.8729 -1.37103 -3.71509 0
M  V30 765 H 74.0469 -3.92056 -2.42133 0
M  V30 766 H 72.3619 -3.45712 -2.32104 0
M  V30 767 H 74.9589 -2.27526 -4.83876 0
M  V30 768 H 75.3019 -0.731116 -4.0983 0
M  V30 769 H 75.8349 -2.22818 -3.2954 0
M  V30 770 H 72.5739 -5.11648 -4.09752 0
M  V30 771 H 72.0939 -3.5653 -4.82334 0
M  V30 772 H 73.7729 -4.141 -4.97122 0
M  V30 773 N 73.905 1.17692 -1.04816 0
M  V30 774 C 74.835 2.23777 -0.666791 0
M  V30 775 C 75.816 1.66796 0.33361 0
M  V30 776 O 77.001 1.93039 0.212042 0
M  V30 777 C 74.131 3.47281 -0.0367933 0
M  V30 778 C 73.085 4.17059 -0.961546 0
M  V30 779 C 72.411 5.34342 -0.195626 0
M  V30 780 C 73.711 4.69713 -2.28402 0
M  V30 781 H 75.405 2.55933 -1.55367 0
M  V30 782 H 72.951 1.23019 -0.748484 0
M  V30 783 H 74.904 4.20706 0.241775 0
M  V30 784 H 73.628 3.14381 0.885004 0
M  V30 785 H 72.287 3.45541 -1.22462 0
M  V30 786 H 71.935 4.97692 0.728816 0
M  V30 787 H 71.635 5.81966 -0.811775 0
M  V30 788 H 73.159 6.10553 0.0757473 0
M  V30 789 H 74.573 5.34794 -2.06563 0
M  V30 790 H 72.97 5.279 -2.8538 0
M  V30 791 H 74.04 3.86726 -2.92525 0
M  V30 792 N 75.3831 0.828654 1.34056 0
M  V30 793 C 76.6321 0.415828 1.97367 0
M  V30 794 C 76.9451 -1.02796 1.6641 0
M  V30 795 O 78.1511 -1.54497 2.23255 0
M  V30 796 C 76.6071 0.692601 3.53173 0
M  V30 797 C 76.2151 2.15038 3.93017 0
M  V30 798 C 77.9591 0.346222 4.23086 0
M  V30 799 C 75.8661 2.37174 5.41758 0
M  V30 800 H 74.7961 0.151755 0.738571 0
M  V30 801 H 77.4471 1.01581 1.52819 0
M  V30 802 H 75.8291 0.0223764 3.95994 0
M  V30 803 H 77.0031 2.86024 3.61285 0
M  V30 804 H 75.3181 2.45875 3.36057 0
M  V30 805 H 77.9151 0.48937 5.32456 0
M  V30 806 H 78.2581 -0.709842 4.10204 0
M  V30 807 H 78.7911 0.971258 3.85761 0
M  V30 808 H 75.5301 3.41308 5.59633 0
M  V30 809 H 75.0501 1.70738 5.74986 0
M  V30 810 H 76.7291 2.19818 6.08514 0
M  V30 811 N 76.8612 -1.46375 0.584142 0
M  V30 812 C 78.1382 -1.956 0.0033388 0
M  V30 813 C 78.5182 -1.52679 -1.45782 0
M  V30 814 O 77.8662 -0.77816 -2.14842 0
M  V30 815 C 78.0762 -3.48551 0.176891 0
M  V30 816 C 79.4242 -4.24576 0.0454609 0
M  V30 817 O 80.4482 -3.56043 0.105801 0
M  V30 818 O 79.3072 -5.46427 -0.0890376 0
M  V30 819 H 76.4012 -0.825547 -0.0490066 0
M  V30 820 H 78.9472 -1.56652 0.65256 0
M  V30 821 H 77.7192 -3.72683 1.1926 0
M  V30 822 H 77.3422 -3.94332 -0.508695 0
M  V30 823 N 78.3393 -0.321999 -1.54275 0
M  V30 824 C 79.5693 0.282642 -2.04658 0
M  V30 825 C 79.9773 1.46453 -1.19784 0
M  V30 826 O 79.3203 1.82367 -0.220932 0
M  V30 827 C 79.3823 0.781857 -3.50895 0
M  V30 828 C 79.0463 -0.277517 -4.56157 0
M  V30 829 C 80.0433 -1.11307 -5.07845 0
M  V30 830 C 77.7283 -0.425256 -5.00497 0
M  V30 831 C 79.7223 -2.08211 -6.02434 0
M  V30 832 C 77.4093 -1.39771 -5.94901 0
M  V30 833 C 78.4073 -2.2246 -6.45756 0
M  V30 834 O 78.0953 -3.18054 -7.38307 0
M  V30 835 H 77.8273 0.0622636 -0.673126 0
M  V30 836 H 80.3813 -0.465792 -2.00049 0
M  V30 837 H 78.6113 1.58118 -3.52896 0
M  V30 838 H 80.3003 1.30467 -3.84361 0
M  V30 839 H 81.0663 -1.00991 -4.74369 0
M  V30 840 H 76.9453 0.20847 -4.60528 0
M  V30 841 H 80.4893 -2.72791 -6.42052 0
M  V30 842 H 76.3863 -1.50152 -6.27794 0
M  V30 843 H 77.1543 -3.13275 -7.56175 0
M  V30 844 N 79.8174 1.5752 -0.0501392 0
M  V30 845 C 80.7654 2.12651 0.942459 0
M  V30 846 C 81.7594 1.05807 1.32292 0
M  V30 847 O 82.9654 1.24217 1.3027 0
M  V30 848 H 79.3404 0.679673 0.321789 0
M  V30 849 H 81.3114 2.94951 0.452356 0
M  V30 850 C 80.0604 2.68565 2.20836 0
M  V30 851 H 79.3834 3.50439 1.92439 0
M  V30 852 H 80.8234 3.10761 2.8845 0
M  V30 853 C 79.2824 1.62291 2.95234 0
M  V30 854 O 79.8124 1.03508 3.88135 0
M  V30 855 N 78.0184 1.33836 2.57946 0
M  V30 856 H 77.5654 1.81826 1.82475 0
M  V30 857 H 77.5234 0.629595 3.08032 0
M  V30 858 N 81.2955 -0.223234 1.56011 0
M  V30 859 C 82.5205 -0.968978 1.83373 0
M  V30 860 C 82.9455 -1.77227 0.630254 0
M  V30 861 O 82.3035 -1.76345 -0.420959 0
M  V30 862 C 82.3515 -1.86363 3.08709 0
M  V30 863 O 81.4555 -2.95873 2.87285 0
M  V30 864 H 80.7965 -0.274461 0.604622 0
M  V30 865 H 83.3265 -0.237056 2.03222 0
M  V30 866 H 83.3365 -2.27376 3.38768 0
M  V30 867 H 82.0115 -1.27319 3.95933 0
M  V30 868 H 80.5885 -2.58818 2.68454 0
M  V30 869 N 82.7736 -1.49793 -0.48987 0
M  V30 870 C 84.0216 -1.59525 -1.24081 0
M  V30 871 C 84.3426 -0.288953 -1.92847 0
M  V30 872 O 83.6126 0.692436 -1.83254 0
M  V30 873 H 82.1926 -0.587796 -0.460983 0
M  V30 874 H 84.8546 -1.86477 -0.566778 0
M  V30 875 H 83.9506 -2.39696 -1.99881 0
M  V30 876 N 84.2517 0.741722 -1.39055 0
M  V30 877 C 85.1987 1.85566 -1.37237 0
M  V30 878 C 86.1687 1.64457 -0.233072 0
M  V30 879 O 87.3537 1.85957 -0.427147 0
M  V30 880 C 84.4937 3.23004 -1.215 0
M  V30 881 C 83.6067 3.55864 -2.44918 0
M  V30 882 C 82.7417 4.82669 -2.21821 0
M  V30 883 C 81.7807 5.08351 -3.40948 0
M  V30 884 N 80.9177 6.26356 -3.17211 0
M  V30 885 H 85.7577 1.86455 -2.32462 0
M  V30 886 H 83.2947 0.911176 -1.15482 0
M  V30 887 H 85.2527 4.02331 -1.10389 0
M  V30 888 H 83.8827 3.21411 -0.29908 0
M  V30 889 H 82.9347 2.7129 -2.66657 0
M  V30 890 H 84.2467 3.70765 -3.33668 0
M  V30 891 H 83.4007 5.69962 -2.07914 0
M  V30 892 H 82.1397 4.69929 -1.30454 0
M  V30 893 H 81.1447 4.19522 -3.55361 0
M  V30 894 H 82.3697 5.22981 -4.33207 0
M  V30 895 H 80.3157 6.14917 -2.28502 0
M  V30 896 H 80.2327 6.41813 -3.99515 0
M  V30 897 H 81.5007 7.16506 -3.06984 0
M  V30 898 N 85.7298 1.2412 0.971189 0
M  V30 899 C 86.9758 1.08041 1.71625 0
M  V30 900 C 87.3088 -0.380407 1.90438 0
M  V30 901 O 86.5838 -1.28127 1.46334 0
M  V30 902 C 86.8668 1.81682 3.10908 0
M  V30 903 C 86.7198 3.35493 2.99608 0
M  V30 904 C 88.0388 1.58671 4.10501 0
M  V30 905 H 85.1578 0.39388 0.622919 0
M  V30 906 H 87.7998 1.52743 1.13003 0
M  V30 907 H 85.9498 1.43684 3.60953 0
M  V30 908 H 87.6218 3.83068 2.57015 0
M  V30 909 H 85.8648 3.64052 2.35899 0
M  V30 910 H 86.5358 3.82217 3.98264 0
M  V30 911 H 89.0118 1.91719 3.69301 0
M  V30 912 H 87.8878 2.1266 5.06031 0
M  V30 913 H 88.1488 0.524161 4.38982 0
M  V30 914 N 87.2079 -1.17134 1.05439 0
M  V30 915 C 88.1379 -2.2342 0.678649 0
M  V30 916 C 89.1189 -1.66971 -0.32476 0
M  V30 917 O 90.3039 -1.93149 -0.201802 0
M  V30 918 C 87.4339 -3.47256 0.0552099 0
M  V30 919 C 86.3879 -4.16543 0.98365 0
M  V30 920 C 85.7139 -5.34231 0.223961 0
M  V30 921 C 87.0139 -4.68495 2.3089 0
M  V30 922 H 88.7079 -2.55105 1.56722 0
M  V30 923 H 86.2539 -1.2262 0.754998 0
M  V30 924 H 88.2069 -4.20828 -0.21946 0
M  V30 925 H 86.9309 -3.14846 -0.868319 0
M  V30 926 H 85.5899 -3.44887 1.24293 0
M  V30 927 H 85.2379 -4.98071 -0.702412 0
M  V30 928 H 84.9379 -5.81527 0.842627 0
M  V30 929 H 86.4619 -6.10585 -0.0433671 0
M  V30 930 H 87.8759 -5.33691 2.09396 0
M  V30 931 H 86.2729 -5.26379 2.88176 0
M  V30 932 H 87.3429 -3.85169 2.94572 0
M  V30 933 N 88.686 -0.835752 -1.33615 0
M  V30 934 C 89.649 -0.272 -2.2758 0
M  V30 935 C 90.649 0.557487 -1.50827 0
M  V30 936 O 91.839 0.37173 -1.70188 0
M  V30 937 C 88.971 0.617173 -3.35267 0
M  V30 938 H 90.164 -1.10111 -2.78954 0
M  V30 939 H 87.717 -0.608594 -1.43965 0
M  V30 940 H 88.452 1.46884 -2.89129 0
M  V30 941 H 88.237 0.0237066 -3.92093 0
M  V30 942 H 89.727 1.005 -4.05326 0
M  V30 943 N 90.1641 1.46063 -0.591896 0
M  V30 944 C 91.0741 2.34192 0.13831 0
M  V30 945 C 92.0901 1.50305 0.876608 0
M  V30 946 O 93.2661 1.8315 0.837728 0
M  V30 947 C 90.3311 3.27656 1.13326 0
M  V30 948 C 89.3921 4.27445 0.39863 0
M  V30 949 C 88.6251 5.16443 1.34618 0
M  V30 950 O 88.8481 5.08553 2.58321 0
M  V30 951 O 87.7821 5.95843 0.851768 0
M  V30 952 H 91.6081 2.98002 -0.58552 0
M  V30 953 H 89.1931 1.45188 -0.352239 0
M  V30 954 H 91.0751 3.85291 1.70671 0
M  V30 955 H 89.7501 2.6643 1.83839 0
M  V30 956 H 88.6571 3.73471 -0.216895 0
M  V30 957 H 89.9901 4.91482 -0.265709 0
M  V30 958 N 91.6422 0.330177 1.54103 0
M  V30 959 C 92.5742 -0.566902 2.22079 0
M  V30 960 C 93.5872 -1.07462 1.22294 0
M  V30 961 O 94.7762 -0.987065 1.48726 0
M  V30 962 C 91.8762 -1.79138 2.87685 0
M  V30 963 C 91.0492 -1.42123 4.13666 0
M  V30 964 C 90.1082 -2.50394 4.62806 0
M  V30 965 O 89.1342 -2.14261 5.27334 0
M  V30 966 N 90.3362 -3.81433 4.37595 0
M  V30 967 H 93.1012 0.0151844 2.99696 0
M  V30 968 H 90.6622 0.153681 1.61169 0
M  V30 969 H 92.6542 -2.50975 3.1748 0
M  V30 970 H 91.2242 -2.28115 2.13734 0
M  V30 971 H 90.4442 -0.534201 3.90564 0
M  V30 972 H 91.7322 -1.14971 4.9564 0
M  V30 973 H 91.1302 -4.13584 3.8596 0
M  V30 974 H 89.6872 -4.4948 4.72029 0
M  V30 975 N 93.1203 -1.57491 0.0584922 0
M  V30 976 C 94.0683 -2.13148 -0.931168 0
M  V30 977 C 95.0623 -1.06507 -1.31729 0
M  V30 978 O 96.2683 -1.24906 -1.29609 0
M  V30 979 H 92.6433 -0.68137 -0.31818 0
M  V30 980 H 94.6143 -2.95187 -0.436707 0
M  V30 981 C 93.3633 -2.69732 -2.19408 0
M  V30 982 H 92.6863 -3.51454 -1.90578 0
M  V30 983 H 94.1263 -3.12287 -2.86798 0
M  V30 984 C 92.5853 -1.63855 -2.94369 0
M  V30 985 O 93.1153 -1.05565 -3.87581 0
M  V30 986 N 91.3213 -1.35202 -2.57233 0
M  V30 987 H 90.8683 -1.82791 -1.81508 0
M  V30 988 H 90.8263 -0.645922 -3.07693 0
M  V30 989 N 94.5984 0.214957 -1.56127 0
M  V30 990 C 95.5614 1.24997 -1.92116 0
M  V30 991 C 96.5614 1.39467 -0.800344 0
M  V30 992 O 97.7514 1.37619 -1.06802 0
M  V30 993 C 94.8834 2.62271 -2.17777 0
M  V30 994 H 96.0764 0.942875 -2.84693 0
M  V30 995 H 93.6294 0.455654 -1.49511 0
M  V30 996 H 94.3644 2.98068 -1.27773 0
M  V30 997 H 94.1494 2.53143 -2.99434 0
M  V30 998 H 95.6394 3.36946 -2.46693 0
M  V30 999 N 96.0765 1.50051 0.48192 0
M  V30 1000 C 97.3535 1.51009 1.2432 0
M  V30 1001 C 97.7335 0.248587 2.09631 0
M  V30 1002 O 97.0815 -0.768409 2.15192 0
M  V30 1003 C 97.2915 2.79981 2.08355 0
M  V30 1004 C 98.6395 3.3022 2.66908 0
M  V30 1005 O 99.6635 2.81228 2.18607 0
M  V30 1006 O 98.5225 4.15595 3.54884 0
M  V30 1007 H 95.6165 0.605239 0.563573 0
M  V30 1008 H 98.1625 1.62332 0.494627 0
M  V30 1009 H 96.9345 3.63275 1.45419 0
M  V30 1010 H 96.5575 2.7161 2.90368 0
M  V30 1011 N 97.5546 -0.734337 1.39446 0
M  V30 1012 C 98.8006 -1.49613 1.36908 0
M  V30 1013 C 99.1336 -1.94169 -0.0347829 0
M  V30 1014 O 98.4086 -1.66833 -0.999847 0
M  V30 1015 C 98.6916 -2.73534 2.34203 0
M  V30 1016 C 98.5446 -2.34993 3.83534 0
M  V30 1017 C 99.8636 -3.75635 2.29317 0
M  V30 1018 H 96.9826 -0.542714 0.498629 0
M  V30 1019 H 99.6246 -0.839597 1.70443 0
M  V30 1020 H 97.7746 -3.29553 2.05736 0
M  V30 1021 H 99.4466 -1.84601 4.22753 0
M  V30 1022 H 97.6896 -1.67213 4.00278 0
M  V30 1023 H 98.3606 -3.23738 4.47099 0
M  V30 1024 H 100.837 -3.29203 2.54489 0
M  V30 1025 H 99.7126 -4.60008 2.99472 0
M  V30 1026 H 99.9736 -4.22603 1.29842 0
M  V30 1027 N 99.0327 -1.24633 -0.964593 0
M  V30 1028 C 100.449 -1.01239 -1.2338 0
M  V30 1029 C 100.649 0.2769 -1.99588 0
M  V30 1030 O 99.7047 0.992241 -2.32187 0
M  V30 1031 C 101.018 -2.22937 -2.01791 0
M  V30 1032 C 102.566 -2.27594 -2.14872 0
M  V30 1033 C 103.041 -3.48921 -2.96678 0
M  V30 1034 N 104.532 -3.49257 -3.04259 0
M  V30 1035 C 105.267 -4.39795 -3.67924 0
M  V30 1036 N 104.763 -5.40591 -4.33281 0
M  V30 1037 N 106.556 -4.275 -3.64966 0
M  V30 1038 H 98.7067 -2.0748 -0.454502 0
M  V30 1039 H 100.97 -0.910647 -0.26349 0
M  V30 1040 H 100.676 -3.16587 -1.53184 0
M  V30 1041 H 100.55 -2.25306 -3.02518 0
M  V30 1042 H 102.937 -1.34473 -2.6268 0
M  V30 1043 H 103.018 -2.2925 -1.13482 0
M  V30 1044 H 102.662 -4.42359 -2.49562 0
M  V30 1045 H 102.592 -3.4451 -3.98272 0
M  V30 1046 H 105.083 -2.76337 -2.57771 0
M  V30 1047 H 105.396 -6.05904 -4.79687 0
M  V30 1048 H 103.741 -5.44475 -4.3194 0
M  V30 1049 H 106.932 -3.47987 -3.13086 0
M  V30 1050 H 107.105 -4.98258 -4.14298 0
M  V30 1051 N 100.511 1.16574 -1.06058 0
M  V30 1052 C 101.927 1.3904 -0.783585 0
M  V30 1053 C 102.127 1.91784 0.618145 0
M  V30 1054 O 101.183 2.11511 1.37911 0
M  V30 1055 C 102.496 2.37329 -1.84649 0
M  V30 1056 C 104.044 2.51018 -1.86973 0
M  V30 1057 C 104.519 3.52588 -2.92311 0
M  V30 1058 N 106.01 3.60113 -2.91329 0
M  V30 1059 C 106.745 4.38486 -3.69482 0
M  V30 1060 N 106.241 5.20302 -4.57447 0
M  V30 1061 N 108.034 4.33446 -3.57885 0
M  V30 1062 H 100.185 0.806725 -1.96483 0
M  V30 1063 H 102.448 0.417117 -0.851303 0
M  V30 1064 H 102.154 2.05663 -2.85299 0
M  V30 1065 H 102.028 3.36946 -1.6955 0
M  V30 1066 H 104.415 2.81989 -0.869827 0
M  V30 1067 H 104.496 1.51445 -2.0615 0
M  V30 1068 H 104.14 3.22354 -3.92492 0
M  V30 1069 H 104.07 4.51886 -2.70383 0
M  V30 1070 H 106.561 3.01707 -2.27555 0
M  V30 1071 H 106.874 5.77311 -5.13743 0
M  V30 1072 H 105.219 5.19653 -4.61503 0
M  V30 1073 H 108.41 3.68586 -2.88551 0
M  V30 1074 H 108.583 4.94279 -4.19037 0
M  V30 1075 N 101.989 0.842826 1.3317 0
M  V30 1076 C 103.266 0.362216 1.92217 0
M  V30 1077 C 103.646 -1.15289 1.76838 0
M  V30 1078 O 102.994 -1.96914 1.15919 0
M  V30 1079 C 103.204 0.813495 3.39387 0
M  V30 1080 C 104.552 0.823804 4.16532 0
M  V30 1081 O 105.576 0.757358 3.48055 0
M  V30 1082 O 104.435 0.915193 5.38782 0
M  V30 1083 H 101.529 0.103317 0.820521 0
M  V30 1084 H 104.075 0.928942 1.42017 0
M  V30 1085 H 102.847 1.85624 3.4447 0
M  V30 1086 H 102.47 0.223561 3.96971 0
M  V30 1087 N 103.467 -1.45747 0.599634 0
M  V30 1088 C 104.878 -1.85853 0.177681 0
M  V30 1089 C 105.229 -1.50102 -1.26348 0
M  V30 1090 O 104.354 -0.923905 -1.95686 0
M  V30 1091 C 104.949 -3.37326 0.315688 0
M  V30 1092 C 103.508 -3.76365 -0.0515144 0
M  V30 1093 C 102.655 -2.69722 0.643822 0
M  V30 1094 H 105.606 -1.36661 0.806814 0
M  V30 1095 H 105.627 -3.77778 -0.454321 0
M  V30 1096 H 105.139 -3.63315 1.36468 0
M  V30 1097 H 103.24 -3.55993 -1.09999 0
M  V30 1098 H 103.353 -4.77916 0.336594 0
M  V30 1099 H 101.717 -2.54567 0.0822881 0
M  V30 1100 H 102.5 -2.98549 1.6948 0
M  V30 1101 N 104.945 -0.338344 -1.53925 0
M  V30 1102 C 105.908 0.508299 -2.23493 0
M  V30 1103 C 106.908 1.03175 -1.23335 0
M  V30 1104 O 108.098 0.921826 -1.47811 0
M  V30 1105 C 105.23 1.70754 -2.95052 0
M  V30 1106 H 106.423 -0.100058 -2.99733 0
M  V30 1107 H 103.976 -0.0896198 -1.56043 0
M  V30 1108 H 104.711 2.35474 -2.22986 0
M  V30 1109 H 104.496 1.33946 -3.68512 0
M  V30 1110 H 105.986 2.30818 -3.48013 0
M  V30 1111 N 106.423 1.57458 -0.0668435 0
M  V30 1112 C 107.648 1.9804 0.616027 0
M  V30 1113 C 108.073 0.944771 1.62652 0
M  V30 1114 O 107.431 -0.0902094 1.81075 0
M  V30 1115 C 107.479 3.37665 1.26549 0
M  V30 1116 O 106.583 3.36701 2.38131 0
M  V30 1117 H 105.924 0.644719 0.158849 0
M  V30 1118 H 108.454 2.04121 -0.139891 0
M  V30 1119 H 108.464 3.7474 1.6135 0
M  V30 1120 H 107.139 4.12573 0.525016 0
M  V30 1121 H 105.716 3.1139 2.0516 0
M  V30 1122 N 107.901 -0.206675 1.56239 0
M  V30 1123 C 108.831 -1.25909 1.96645 0
M  V30 1124 C 109.812 -1.48097 0.836734 0
M  V30 1125 O 110.997 -1.6003 1.10019 0
M  V30 1126 C 108.127 -2.6058 2.29599 0
M  V30 1127 C 107.081 -2.53024 3.452 0
M  V30 1128 C 106.407 -3.91861 3.63798 0
M  V30 1129 C 107.707 -2.06524 4.79734 0
M  V30 1130 H 109.401 -0.923369 2.84806 0
M  V30 1131 H 106.947 -0.442735 1.37025 0
M  V30 1132 H 108.9 -3.34375 2.56459 0
M  V30 1133 H 107.624 -2.95869 1.38307 0
M  V30 1134 H 106.283 -1.81684 3.18412 0
M  V30 1135 H 105.931 -4.24483 2.69857 0
M  V30 1136 H 105.631 -3.87683 4.4156 0
M  V30 1137 H 107.155 -4.67296 3.93022 0
M  V30 1138 H 108.569 -2.70072 5.05702 0
M  V30 1139 H 106.966 -2.13374 5.60885 0
M  V30 1140 H 108.036 -1.01802 4.74093 0
M  V30 1141 N 109.379 -1.50304 -0.473955 0
M  V30 1142 C 110.607 -1.64902 -1.24959 0
M  V30 1143 C 111.022 -0.331198 -1.85872 0
M  V30 1144 O 110.379 0.68652 -1.69095 0
M  V30 1145 C 110.43 -2.73803 -2.36038 0
M  V30 1146 O 110.151 -4.00477 -1.77624 0
M  V30 1147 C 111.652 -2.99349 -3.26964 0
M  V30 1148 H 108.872 -0.554383 -0.378022 0
M  V30 1149 H 111.416 -1.9651 -0.566054 0
M  V30 1150 H 109.571 -2.44898 -3.00173 0
M  V30 1151 H 109.985 -4.60678 -2.5075 0
M  V30 1152 H 111.459 -3.79217 -4.01121 0
M  V30 1153 H 111.936 -2.10307 -3.85574 0
M  V30 1154 H 112.542 -3.29774 -2.68569 0
M  V30 1155 N 110.857 0.726932 -1.39834 0
M  V30 1156 C 111.804 1.841 -1.39197 0
M  V30 1157 C 112.774 1.642 -0.250502 0
M  V30 1158 O 113.959 1.85494 -0.446846 0
M  V30 1159 C 111.099 3.21697 -1.24919 0
M  V30 1160 C 110.212 3.53247 -2.48678 0
M  V30 1161 C 109.347 4.80289 -2.26928 0
M  V30 1162 C 108.386 5.04707 -3.4632 0
M  V30 1163 N 107.523 6.22956 -3.23836 0
M  V30 1164 H 112.363 1.83979 -2.34427 0
M  V30 1165 H 109.9 0.898876 -1.16442 0
M  V30 1166 H 111.858 4.01137 -1.1465 0
M  V30 1167 H 110.488 3.21076 -0.333153 0
M  V30 1168 H 109.54 2.68447 -2.69519 0
M  V30 1169 H 110.852 3.67205 -3.37582 0
M  V30 1170 H 110.006 5.67725 -2.13947 0
M  V30 1171 H 108.745 4.68519 -1.35431 0
M  V30 1172 H 107.75 4.1573 -3.5979 0
M  V30 1173 H 108.975 5.18357 -4.38729 0
M  V30 1174 H 106.921 6.12459 -2.35011 0
M  V30 1175 H 106.838 6.37539 -4.063 0
M  V30 1176 H 108.106 7.1321 -3.14566 0
M  V30 1177 N 112.336 1.25143 0.95797 0
M  V30 1178 C 113.269 0.995565 2.05338 0
M  V30 1179 C 114.247 -0.0740423 1.62431 0
M  V30 1180 O 115.431 0.0649212 1.88388 0
M  V30 1181 C 112.558 0.504298 3.34925 0
M  V30 1182 C 111.604 1.56393 3.96792 0
M  V30 1183 S 112.437 3.14815 4.33188 0
M  V30 1184 C 113.593 2.67415 5.65898 0
M  V30 1185 H 113.826 1.92309 2.26726 0
M  V30 1186 H 111.359 1.08635 1.09716 0
M  V30 1187 H 113.317 0.227497 4.09869 0
M  V30 1188 H 111.978 -0.402671 3.11508 0
M  V30 1189 H 111.171 1.17082 4.90212 0
M  V30 1190 H 110.773 1.79124 3.28315 0
M  V30 1191 H 113.065 2.10833 6.4386 0
M  V30 1192 H 114.008 3.59463 6.10076 0
M  V30 1193 H 114.416 2.07521 5.24972 0
M  V30 1194 N 113.814 -1.1601 1.06675 0
M  V30 1195 C 114.747 -2.1947 0.625168 0
M  V30 1196 C 115.725 -1.58699 -0.354041 0
M  V30 1197 O 116.909 -1.86669 -0.262098 0
M  V30 1198 C 114.036 -3.38598 -0.0829593 0
M  V30 1199 C 113.082 -4.1787 0.853611 0
M  V30 1200 S 113.915 -4.81135 2.35094 0
M  V30 1201 C 115.071 -6.03639 1.65441 0
M  V30 1202 H 115.304 -2.56587 1.50168 0
M  V30 1203 H 112.837 -1.26862 0.880078 0
M  V30 1204 H 114.795 -4.07621 -0.485288 0
M  V30 1205 H 113.456 -2.99839 -0.935716 0
M  V30 1206 H 112.649 -5.03078 0.304755 0
M  V30 1207 H 112.251 -3.54361 1.196 0
M  V30 1208 H 114.543 -6.70632 0.962201 0
M  V30 1209 H 115.486 -6.63081 2.48454 0
M  V30 1210 H 115.894 -5.52965 1.13534 0
M  V30 1211 N 115.292 -0.849877 -1.32721 0
M  V30 1212 C 116.52 -0.464754 -2.01613 0
M  V30 1213 C 116.935 0.937191 -1.63897 0
M  V30 1214 O 116.292 1.61081 -0.857856 0
M  V30 1215 C 116.343 -0.588638 -3.56675 0
M  V30 1216 O 116.064 -1.93535 -3.93034 0
M  V30 1217 C 117.565 -0.2019 -4.4284 0
M  V30 1218 H 114.785 -0.183215 -0.645502 0
M  V30 1219 H 117.329 -1.1455 -1.69407 0
M  V30 1220 H 115.484 0.0443159 -3.87375 0
M  V30 1221 H 115.898 -1.92871 -4.87751 0
M  V30 1222 H 117.372 -0.339599 -5.50954 0
M  V30 1223 H 117.849 0.857224 -4.30753 0
M  V30 1224 H 118.455 -0.809733 -4.17521 0
M  V30 1225 N 116.77 1.45427 -0.607355 0
M  V30 1226 C 117.995 2.07124 -0.107006 0
M  V30 1227 C 118.42 1.44906 1.19933 0
M  V30 1228 O 117.778 0.541687 1.73019 0
M  V30 1229 C 117.826 3.60595 0.0194119 0
M  V30 1230 O 116.93 3.98285 1.0697 0
M  V30 1231 H 116.271 0.659868 -0.0739597 0
M  V30 1232 H 118.801 1.86683 -0.837297 0
M  V30 1233 H 118.811 4.07419 0.2177 0
M  V30 1234 H 117.486 4.05266 -0.934453 0
M  V30 1235 H 116.063 3.63133 0.847889 0
M  V30 1236 N 118.248 0.346503 1.53744 0
M  V30 1237 C 119.478 -0.250047 2.05081 0
M  V30 1238 C 119.886 -1.44529 1.22098 0
M  V30 1239 O 119.229 -1.81992 0.249917 0
M  V30 1240 C 119.291 -0.725934 3.52094 0
M  V30 1241 C 118.955 0.350053 4.55657 0
M  V30 1242 C 119.952 1.19372 5.0601 0
M  V30 1243 C 117.637 0.504827 4.99757 0
M  V30 1244 C 119.631 2.17768 5.99046 0
M  V30 1245 C 117.318 1.49218 5.92602 0
M  V30 1246 C 118.316 2.32706 6.42135 0
M  V30 1247 O 118.004 3.2976 7.33153 0
M  V30 1248 H 117.736 -0.0515469 0.674032 0
M  V30 1249 H 120.29 0.497559 1.99282 0
M  V30 1250 H 118.52 -1.52483 3.55367 0
M  V30 1251 H 120.209 -1.24336 3.86388 0
M  V30 1252 H 120.975 1.08525 4.72702 0
M  V30 1253 H 116.854 -0.135178 4.60802 0
M  V30 1254 H 120.398 2.82971 6.37631 0
M  V30 1255 H 116.295 1.6012 6.25325 0
M  V30 1256 H 117.063 3.25265 7.51096 0
M  V30 1257 N 119.726 -1.57421 0.075193 0
M  V30 1258 C 120.972 -1.93905 -0.594025 0
M  V30 1259 C 121.305 -0.955701 -1.69056 0
M  V30 1260 O 120.58 0.0145373 -1.94495 0
M  V30 1261 C 120.863 -3.40638 -1.1678 0
M  V30 1262 C 120.716 -4.49733 -0.0776792 0
M  V30 1263 C 122.035 -3.88259 -2.07228 0
M  V30 1264 H 119.154 -0.705105 -0.214466 0
M  V30 1265 H 121.796 -1.8947 0.141854 0
M  V30 1266 H 119.946 -3.44549 -1.79494 0
M  V30 1267 H 121.618 -4.57942 0.555573 0
M  V30 1268 H 119.861 -4.29751 0.591286 0
M  V30 1269 H 120.532 -5.49549 -0.519603 0
M  V30 1270 H 123.008 -3.86376 -1.54445 0
M  V30 1271 H 121.884 -4.91533 -2.44308 0
M  V30 1272 H 122.145 -3.26396 -2.98191 0
M  V30 1273 N 121.204 0.198386 -1.56346 0
M  V30 1274 C 122.453 0.917451 -1.79627 0
M  V30 1275 C 122.766 1.8456 -0.64784 0
M  V30 1276 O 123.972 2.60504 -0.764859 0
M  V30 1277 C 122.428 1.68175 -3.18191 0
M  V30 1278 C 122.036 0.798589 -4.40825 0
M  V30 1279 C 123.78 2.39065 -3.50782 0
M  V30 1280 C 121.687 1.56157 -5.70411 0
M  V30 1281 H 120.617 0.346317 -0.669762 0
M  V30 1282 H 123.268 0.170801 -1.82703 0
M  V30 1283 H 121.65 2.47216 -3.09354 0
M  V30 1284 H 122.824 0.0470665 -4.60776 0
M  V30 1285 H 121.139 0.200686 -4.15916 0
M  V30 1286 H 123.736 2.96692 -4.44835 0
M  V30 1287 H 124.079 3.13091 -2.74371 0
M  V30 1288 H 124.612 1.66993 -3.61052 0
M  V30 1289 H 121.351 0.864142 -6.49779 0
M  V30 1290 H 120.871 2.2871 -5.54483 0
M  V30 1291 H 122.55 2.11622 -6.11412 0
M  V30 1292 N 122.682 1.50554 0.465978 0
M  V30 1293 C 123.93 1.61479 1.21528 0
M  V30 1294 C 124.251 0.319596 1.92363 0
M  V30 1295 O 123.521 -0.663194 1.84333 0
M  V30 1296 H 122.101 0.595055 0.451573 0
M  V30 1297 H 124.763 1.87355 0.53704 0
M  V30 1298 H 123.859 2.42846 1.96042 0
M  V30 1299 N 124.16 -0.719506 1.40217 0
M  V30 1300 C 125.092 -1.84428 1.36084 0
M  V30 1301 C 126.105 -1.60597 0.266913 0
M  V30 1302 O 127.294 -1.70544 0.526983 0
M  V30 1303 C 124.394 -3.20757 1.094 0
M  V30 1304 C 123.567 -3.71817 2.30372 0
M  V30 1305 C 122.626 -4.86748 1.99907 0
M  V30 1306 O 121.652 -4.99603 2.72737 0
M  V30 1307 N 122.854 -5.7226 0.974635 0
M  V30 1308 H 125.619 -1.88473 2.33019 0
M  V30 1309 H 123.18 -0.900885 1.3452 0
M  V30 1310 H 125.172 -3.95235 0.870116 0
M  V30 1311 H 123.742 -3.11884 0.211452 0
M  V30 1312 H 122.962 -2.88514 2.68614 0
M  V30 1313 H 124.25 -4.02666 3.11026 0
M  V30 1314 H 123.648 -5.6448 0.371368 0
M  V30 1315 H 122.205 -6.46739 0.810656 0
M  V30 1316 N 125.638 -1.25649 -0.95132 0
M  V30 1317 C 126.601 -1.06399 -2.03007 0
M  V30 1318 C 127.601 -0.0156794 -1.60792 0
M  V30 1319 O 128.791 -0.25817 -1.72276 0
M  V30 1320 C 125.923 -0.616184 -3.35285 0
M  V30 1321 H 127.116 -2.02164 -2.21517 0
M  V30 1322 H 124.669 -1.08103 -1.12887 0
M  V30 1323 H 125.404 0.343917 -3.22471 0
M  V30 1324 H 125.189 -1.37301 -3.67275 0
M  V30 1325 H 126.679 -0.503032 -4.14559 0
M  V30 1326 N 127.117 1.15442 -1.07289 0
M  V30 1327 C 128.05 2.19135 -0.636798 0
M  V30 1328 C 129.028 1.58884 0.34562 0
M  V30 1329 O 130.212 1.86805 0.252195 0
M  V30 1330 C 127.339 3.38638 0.0650014 0
M  V30 1331 C 126.385 4.17412 -0.87576 0
M  V30 1332 S 127.218 4.79882 -2.37642 0
M  V30 1333 C 128.374 6.02753 -1.6864 0
M  V30 1334 H 128.607 2.55787 -1.51526 0
M  V30 1335 H 126.14 1.26394 -0.886793 0
M  V30 1336 H 128.098 4.07873 0.463664 0
M  V30 1337 H 126.759 3.00331 0.919801 0
M  V30 1338 H 125.952 5.02909 -0.33143 0
M  V30 1339 H 125.554 3.53722 -1.21478 0
M  V30 1340 H 127.846 6.70113 -0.997753 0
M  V30 1341 H 128.789 6.61754 -2.51967 0
M  V30 1342 H 129.197 5.52355 -1.16465 0
M  V30 1343 N 128.595 0.856903 1.32268 0
M  V30 1344 C 129.542 0.301172 2.28827 0
M  V30 1345 C 130.512 -0.593104 1.5515 0
M  V30 1346 O 131.697 -0.527537 1.83362 0
M  V30 1347 C 128.837 -0.502523 3.41422 0
M  V30 1348 C 127.95 0.417797 4.29975 0
M  V30 1349 C 127.085 -0.398749 5.29701 0
M  V30 1350 C 126.124 0.518827 6.09897 0
M  V30 1351 N 125.261 -0.260674 7.01616 0
M  V30 1352 H 130.101 1.12983 2.75751 0
M  V30 1353 H 127.638 0.568582 1.35667 0
M  V30 1354 H 129.596 -0.984141 4.05426 0
M  V30 1355 H 128.226 -1.29599 2.95642 0
M  V30 1356 H 127.278 1.01781 3.66531 0
M  V30 1357 H 128.59 1.12191 4.86019 0
M  V30 1358 H 127.744 -0.943435 5.9932 0
M  V30 1359 H 126.483 -1.13622 4.7428 0
M  V30 1360 H 125.488 1.07538 5.39181 0
M  V30 1361 H 126.713 1.25495 6.67404 0
M  V30 1362 H 124.659 -0.981198 6.4862 0
M  V30 1363 H 124.576 0.384364 7.55022 0
M  V30 1364 H 125.844 -0.787014 7.75517 0
M  V30 1365 N 130.073 -1.45103 0.615059 0
M  V30 1366 C 131.036 -2.29025 -0.0895485 0
M  V30 1367 C 132.036 -1.40174 -0.787906 0
M  V30 1368 O 133.226 -1.62217 -0.634933 0
M  V30 1369 C 130.358 -3.21376 -1.13711 0
M  V30 1370 H 131.551 -2.92807 0.648382 0
M  V30 1371 H 129.104 -1.51749 0.374444 0
M  V30 1372 H 129.839 -2.6241 -1.90556 0
M  V30 1373 H 129.624 -3.86834 -0.640475 0
M  V30 1374 H 131.114 -3.84459 -1.63036 0
M  V30 1375 N 131.551 -0.354651 -1.53558 0
M  V30 1376 C 132.799 0.237972 -2.00694 0
M  V30 1377 C 133.12 1.50173 -1.24391 0
M  V30 1378 O 132.39 1.92673 -0.354135 0
M  V30 1379 H 130.97 0.0909256 -0.741446 0
M  V30 1380 H 133.632 -0.478368 -1.88938 0
M  V30 1381 H 132.728 0.47264 -3.085 0
M  V30 1382 N 133.029 1.57378 -0.0835403 0
M  V30 1383 C 133.976 2.13384 0.879539 0
M  V30 1384 C 134.946 1.04936 1.28754 0
M  V30 1385 O 136.131 1.32662 1.37133 0
M  V30 1386 C 133.271 2.70932 2.13752 0
M  V30 1387 C 132.384 3.93575 1.7811 0
M  V30 1388 C 131.519 4.39326 2.98607 0
M  V30 1389 C 130.558 5.54587 2.59037 0
M  V30 1390 N 129.695 5.95243 3.72331 0
M  V30 1391 H 134.535 2.9537 0.395076 0
M  V30 1392 H 132.072 1.45953 0.183349 0
M  V30 1393 H 134.03 3.02411 2.87408 0
M  V30 1394 H 132.66 1.91693 2.59718 0
M  V30 1395 H 131.712 3.68483 0.94469 0
M  V30 1396 H 133.024 4.77258 1.45005 0
M  V30 1397 H 132.178 4.72528 3.80529 0
M  V30 1398 H 130.917 3.5452 3.34913 0
M  V30 1399 H 129.922 5.21024 1.75539 0
M  V30 1400 H 131.147 6.41133 2.23887 0
M  V30 1401 H 129.093 5.13385 4.08378 0
M  V30 1402 H 129.01 6.73694 3.43034 0
M  V30 1403 H 130.278 6.33072 4.54797 0
M  V30 1404 N 134.507 -0.190092 1.56449 0
M  V30 1405 C 135.754 -0.909705 1.80916 0
M  V30 1406 C 136.082 -1.83047 0.657583 0
M  V30 1407 O 135.337 -1.92428 -0.356356 0
M  V30 1408 C 135.636 -1.75382 3.1141 0
M  V30 1409 C 135.302 -0.983606 4.40041 0
M  V30 1410 C 133.964 -0.770967 4.74984 0
M  V30 1411 C 136.316 -0.442024 5.19322 0
M  V30 1412 C 133.644 -0.0053448 5.867 0
M  V30 1413 C 135.996 0.310412 6.31838 0
M  V30 1414 C 134.66 0.534023 6.6536 0
M  V30 1415 H 133.93 -0.332885 0.662019 0
M  V30 1416 H 136.577 -0.175762 1.90692 0
M  V30 1417 H 134.882 -2.55659 2.96893 0
M  V30 1418 H 136.579 -2.31331 3.27547 0
M  V30 1419 H 133.169 -1.15936 4.12622 0
M  V30 1420 H 137.353 -0.593693 4.92736 0
M  V30 1421 H 132.609 0.177825 6.11141 0
M  V30 1422 H 136.783 0.737419 6.92485 0
M  V30 1423 H 134.41 1.12918 7.51767 0
M  V30 1424 N 135.985 -1.50799 -0.457987 0
M  V30 1425 C 136.932 -1.70617 -1.5543 0
M  V30 1426 C 137.902 -0.547562 -1.56815 0
M  V30 1427 O 139.087 -0.779647 -1.74144 0
M  V30 1428 C 136.227 -1.81831 -2.93311 0
M  V30 1429 C 135.34 -3.09278 -3.01615 0
M  V30 1430 C 134.475 -3.11209 -4.30491 0
M  V30 1431 C 133.514 -4.33055 -4.32585 0
M  V30 1432 N 132.651 -4.32652 -5.52952 0
M  V30 1433 H 137.491 -2.64207 -1.37836 0
M  V30 1434 H 135.028 -1.30959 -0.669937 0
M  V30 1435 H 136.986 -1.86314 -3.73287 0
M  V30 1436 H 135.616 -0.916685 -3.0951 0
M  V30 1437 H 134.668 -3.14203 -2.1443 0
M  V30 1438 H 135.98 -3.99233 -2.99022 0
M  V30 1439 H 135.134 -3.14494 -5.18824 0
M  V30 1440 H 133.873 -2.19106 -4.35711 0
M  V30 1441 H 132.878 -4.29969 -3.42647 0
M  V30 1442 H 134.103 -5.264 -4.29046 0
M  V30 1443 H 132.049 -3.43409 -5.58933 0
M  V30 1444 H 131.966 -5.16392 -5.52155 0
M  V30 1445 H 133.234 -4.40101 -6.43375 0
M  V30 1446 N 137.463 0.71206 -1.40597 0
M  V30 1447 C 138.373 1.8562 -1.43466 0
M  V30 1448 C 139.389 1.70902 -0.326902 0
M  V30 1449 O 140.565 1.93105 -0.572043 0
M  V30 1450 C 137.63 3.21451 -1.29884 0
M  V30 1451 C 136.691 3.48398 -2.50833 0
M  V30 1452 C 135.924 4.77749 -2.3789 0
M  V30 1453 O 136.147 5.53089 -1.39459 0
M  V30 1454 O 135.081 5.05111 -3.27333 0
M  V30 1455 H 138.907 1.86155 -2.39958 0
M  V30 1456 H 136.492 0.86295 -1.21957 0
M  V30 1457 H 138.374 4.02579 -1.24531 0
M  V30 1458 H 137.049 3.21636 -0.364997 0
M  V30 1459 H 135.956 2.67265 -2.61763 0
M  V30 1460 H 137.289 3.53014 -3.4299 0
M  V30 1461 N 138.941 1.26152 0.944643 0
M  V30 1462 C 140.169 1.14259 1.72489 0
M  V30 1463 C 140.584 -0.302555 1.8636 0
M  V30 1464 O 139.941 -1.20741 1.36849 0
M  V30 1465 C 139.992 1.80266 3.13347 0
M  V30 1466 O 139.713 3.19133 3.00143 0
M  V30 1467 C 141.214 1.74283 4.07603 0
M  V30 1468 H 138.434 0.398051 0.540181 0
M  V30 1469 H 140.978 1.66706 1.18446 0
M  V30 1470 H 139.133 1.31766 3.64303 0
M  V30 1471 H 139.547 3.51744 3.89071 0
M  V30 1472 H 141.021 2.25111 5.04013 0
M  V30 1473 H 141.498 0.708631 4.33446 0
M  V30 1474 H 142.104 2.22319 3.62567 0
M  V30 1475 N 140.419 -1.14872 1.07899 0
M  V30 1476 C 141.696 -1.81928 0.71845 0
M  V30 1477 C 142.076 -1.95417 -0.798455 0
M  V30 1478 O 141.424 -1.50997 -1.715 0
M  V30 1479 C 141.634 -3.17937 1.43935 0
M  V30 1480 C 142.982 -3.93501 1.59506 0
M  V30 1481 O 144.006 -3.27509 1.40058 0
M  V30 1482 O 142.865 -5.1183 1.91551 0
M  V30 1483 H 139.959 -0.78628 0.256305 0
M  V30 1484 H 142.505 -1.21934 1.18026 0
M  V30 1485 H 141.277 -3.0325 2.47295 0
M  V30 1486 H 140.9 -3.85619 0.968687 0
M  V30 1487 N 141.898 -0.863906 -1.31812 0
M  V30 1488 C 142.828 -0.330843 -2.31144 0
M  V30 1489 C 143.809 0.575005 -1.60087 0
M  V30 1490 O 144.994 0.493304 -1.8783 0
M  V30 1491 C 142.124 0.47374 -3.44054 0
M  V30 1492 C 141.078 -0.338481 -4.26659 0
M  V30 1493 C 140.404 0.591412 -5.31419 0
M  V30 1494 C 141.704 -1.56926 -4.98168 0
M  V30 1495 H 143.398 -1.16086 -2.75979 0
M  V30 1496 H 140.944 -0.559657 -1.32679 0
M  V30 1497 H 142.897 0.857143 -4.12591 0
M  V30 1498 H 141.621 1.33721 -2.9797 0
M  V30 1499 H 140.28 -0.703754 -3.59782 0
M  V30 1500 H 139.928 1.45199 -4.81587 0
M  V30 1501 H 139.628 0.0519022 -5.87577 0
M  V30 1502 H 141.152 0.97179 -6.02817 0
M  V30 1503 H 142.566 -1.25764 -5.59336 0
M  V30 1504 H 140.963 -2.04739 -5.64094 0
M  V30 1505 H 142.033 -2.32544 -4.25501 0
M  V30 1506 N 143.376 1.44774 -0.622745 0
M  V30 1507 C 144.622 2.0242 -0.124083 0
M  V30 1508 C 144.955 1.4881 1.24777 0
M  V30 1509 O 144.23 0.668799 1.8264 0
M  V30 1510 C 144.513 3.59957 -0.101619 0
M  V30 1511 C 144.366 4.23867 -1.50521 0
M  V30 1512 C 145.685 4.36284 0.578272 0
M  V30 1513 H 142.804 0.735528 -0.0465645 0
M  V30 1514 H 145.446 1.72447 -0.797617 0
M  V30 1515 H 143.596 3.85623 0.471934 0
M  V30 1516 H 145.268 4.09336 -2.12701 0
M  V30 1517 H 143.511 3.81684 -2.06154 0
M  V30 1518 H 144.182 5.32843 -1.4416 0
M  V30 1519 H 146.658 4.16001 0.0906057 0
M  V30 1520 H 145.534 5.46004 0.563149 0
M  V30 1521 H 145.795 4.10271 1.64713 0
M  V30 1522 N 144.854 0.36279 1.53368 0
M  V30 1523 C 146.082 -0.228613 2.05633 0
M  V30 1524 C 146.497 -1.42676 1.23649 0
M  V30 1525 O 145.854 -1.80394 0.27647 0
M  V30 1526 C 145.905 -0.624845 3.56059 0
M  V30 1527 O 145.626 0.525675 4.34935 0
M  V30 1528 C 147.127 -1.27493 4.24571 0
M  V30 1529 H 144.347 -0.0407183 0.669763 0
M  V30 1530 H 146.891 0.520352 1.97769 0
M  V30 1531 H 145.046 -1.32373 3.64083 0
M  V30 1532 H 145.46 0.205969 5.24095 0
M  V30 1533 H 146.934 -1.50277 5.31151 0
M  V30 1534 H 147.411 -2.23439 3.78116 0
M  V30 1535 H 148.017 -0.617558 4.20792 0
M  V30 1536 N 146.332 -1.57332 0.0918853 0
M  V30 1537 C 147.581 -1.93412 -0.572249 0
M  V30 1538 C 147.894 -0.975515 -1.69538 0
M  V30 1539 O 149.1 -1.22991 -2.42045 0
M  V30 1540 C 147.556 -3.43648 -1.0693 0
M  V30 1541 C 147.164 -4.47994 0.0239049 0
M  V30 1542 C 148.908 -3.88695 -1.70635 0
M  V30 1543 C 146.815 -5.89381 -0.488319 0
M  V30 1544 H 145.745 -0.721939 -0.217532 0
M  V30 1545 H 148.396 -1.82735 0.167369 0
M  V30 1546 H 146.778 -3.49466 -1.8625 0
M  V30 1547 H 147.952 -4.53815 0.799277 0
M  V30 1548 H 146.267 -4.12536 0.565946 0
M  V30 1549 H 148.864 -4.91725 -2.10025 0
M  V30 1550 H 149.207 -3.27166 -2.57426 0
M  V30 1551 H 149.74 -3.85564 -0.979023 0
M  V30 1552 H 146.479 -6.54602 0.342906 0
M  V30 1553 H 145.999 -5.87037 -1.23077 0
M  V30 1554 H 147.678 -6.39863 -0.958317 0
M  V30 1555 N 147.81 0.181792 -1.56548 0
M  V30 1556 C 149.058 0.89832 -1.81038 0
M  V30 1557 C 149.379 1.83232 -0.667164 0
M  V30 1558 O 148.649 1.93372 0.313673 0
M  V30 1559 H 147.229 0.33471 -0.667816 0
M  V30 1560 H 149.891 0.184116 -1.94028 0
M  V30 1561 H 148.987 1.4815 -2.74696 0
M  V30 1562 N 149.288 1.51039 0.449983 0
M  V30 1563 C 150.236 1.71995 1.5659 0
M  V30 1564 C 151.23 0.586029 1.5894 0
M  V30 1565 O 152.436 0.76709 1.62837 0
M  V30 1566 H 148.811 0.543233 0.520001 0
M  V30 1567 H 150.782 2.65562 1.36085 0
M  V30 1568 C 149.531 1.8506 2.9436 0
M  V30 1569 H 148.854 2.71712 2.93279 0
M  V30 1570 H 150.294 2.0374 3.71842 0
M  V30 1571 C 148.753 0.607277 3.31382 0
M  V30 1572 O 149.283 -0.243903 4.00959 0
M  V30 1573 N 147.489 0.455073 2.87015 0
M  V30 1574 H 147.036 1.14879 2.30566 0
M  V30 1575 H 146.994 -0.375611 3.12148 0
M  V30 1576 N 150.766 -0.704594 1.40972 0
M  V30 1577 C 152.043 -1.45847 1.30338 0
M  V30 1578 C 152.423 -2.10973 -0.0732344 0
M  V30 1579 O 151.771 -2.00997 -1.08685 0
M  V30 1580 C 151.981 -2.48525 2.45023 0
M  V30 1581 C 153.329 -3.1404 2.8577 0
M  V30 1582 O 154.353 -2.58848 2.44696 0
M  V30 1583 O 153.212 -4.13981 3.56766 0
M  V30 1584 H 150.306 -0.649092 0.512454 0
M  V30 1585 H 152.852 -0.735836 1.52917 0
M  V30 1586 H 151.624 -1.98994 3.36923 0
M  V30 1587 H 151.247 -3.2831 2.24272 0
M  V30 1588 N 152.244 -1.26651 -0.937939 0
M  V30 1589 C 153.207 -1.08546 -2.01867 0
M  V30 1590 C 154.207 -0.0327327 -1.60767 0
M  V30 1591 O 155.397 -0.276427 -1.71993 0
M  V30 1592 C 152.529 -0.651711 -3.34613 0
M  V30 1593 H 153.722 -2.04502 -2.1936 0
M  V30 1594 H 151.275 -1.09294 -1.11734 0
M  V30 1595 H 152.01 0.309696 -3.22818 0
M  V30 1596 H 151.795 -1.41189 -3.65798 0
M  V30 1597 H 153.285 -0.546973 -4.14002 0
M  V30 1598 N 153.722 1.14298 -1.08507 0
M  V30 1599 C 154.968 1.85854 -0.826438 0
M  V30 1600 C 155.323 1.81413 0.640878 0
M  V30 1601 O 154.616 1.23463 1.46518 0
M  V30 1602 C 154.81 3.33547 -1.28379 0
M  V30 1603 C 154.639 3.52369 -2.79403 0
M  V30 1604 C 153.409 3.67159 -3.47164 0
M  V30 1605 C 155.607 3.49203 -3.77573 0
M  V30 1606 N 153.589 3.74149 -4.86709 0
M  V30 1607 C 154.96 3.6245 -5.03021 0
M  V30 1608 C 157.015 3.32547 -3.70563 0
M  V30 1609 C 155.718 3.60761 -6.2229 0
M  V30 1610 C 157.744 3.32162 -4.89308 0
M  V30 1611 C 157.106 3.45949 -6.13595 0
M  V30 1612 H 153.205 0.696705 -0.355143 0
M  V30 1613 H 155.789 1.36981 -1.38362 0
M  V30 1614 H 153.96 3.81008 -0.754166 0
M  V30 1615 H 155.692 3.92867 -0.971469 0
M  V30 1616 H 152.447 3.68433 -2.9758 0
M  V30 1617 H 152.871 3.81359 -5.5937 0
M  V30 1618 H 157.513 3.20797 -2.75407 0
M  V30 1619 H 155.231 3.71286 -7.17755 0
M  V30 1620 H 158.817 3.20485 -4.85573 0
M  V30 1621 H 157.697 3.456 -7.03939 0
M  V30 1622 N 155.201 0.870884 1.31352 0
M  V30 1623 C 156.164 0.332243 2.26779 0
M  V30 1624 C 157.164 -0.517302 1.52252 0
M  V30 1625 O 158.354 -0.326477 1.71113 0
M  V30 1626 C 155.486 -0.528066 3.36785 0
M  V30 1627 H 156.679 1.17469 2.75937 0
M  V30 1628 H 154.232 0.64655 1.423 0
M  V30 1629 H 154.967 -1.39167 2.92922 0
M  V30 1630 H 154.752 0.0802582 3.92018 0
M  V30 1631 H 156.242 -0.897179 4.07849 0
M  V30 1632 N 156.679 -1.44442 0.630414 0
M  V30 1633 C 157.907 -2.06414 0.141671 0
M  V30 1634 C 158.322 -1.47105 -1.18345 0
M  V30 1635 O 157.679 -0.593662 -1.72574 0
M  V30 1636 C 157.73 -3.61494 0.0199784 0
M  V30 1637 O 157.451 -4.18594 1.29269 0
M  V30 1638 C 158.952 -4.40499 -0.497544 0
M  V30 1639 H 156.172 -0.666292 0.0793452 0
M  V30 1640 H 158.716 -1.85323 0.864614 0
M  V30 1641 H 156.871 -3.8185 -0.653402 0
M  V30 1642 H 157.285 -5.12026 1.13707 0
M  V30 1643 H 158.759 -5.49433 -0.531708 0
M  V30 1644 H 159.236 -4.11895 -1.52445 0
M  V30 1645 H 159.842 -4.25061 0.142562 0
M  V30 1646 N 158.157 -0.370918 -1.53173 0
M  V30 1647 C 159.405 0.216673 -2.00935 0
M  V30 1648 C 159.726 1.48845 -1.25977 0
M  V30 1649 O 158.996 1.92286 -0.374551 0
M  V30 1650 H 157.576 0.0830565 -0.742368 0
M  V30 1651 H 160.238 -0.49838 -1.8842 0
M  V30 1652 H 159.334 0.439893 -3.08984 0
M  V30 1653 N 159.635 1.57281 -0.100228 0
M  V30 1654 C 160.583 2.15542 0.874328 0
M  V30 1655 C 161.577 1.09962 1.28859 0
M  V30 1656 O 162.783 1.28298 1.26252 0
M  V30 1657 H 159.158 0.689567 0.300003 0
M  V30 1658 H 161.129 2.96241 0.35829 0
M  V30 1659 C 159.878 2.75454 2.1218 0
M  V30 1660 H 159.201 3.56384 1.81193 0
M  V30 1661 H 160.641 3.19781 2.78417 0
M  V30 1662 C 159.1 1.71602 2.89921 0
M  V30 1663 O 159.63 1.15804 3.84646 0
M  V30 1664 N 157.836 1.41975 2.53558 0
M  V30 1665 H 157.383 1.87539 1.76598 0
M  V30 1666 H 157.341 0.727274 3.05873 0
M  V30 1667 N 161.113 -0.173488 1.56642 0
M  V30 1668 C 162.524 -0.736155 1.71574 0
M  V30 1669 C 162.875 -1.82888 0.710389 0
M  V30 1670 O 162 -2.16017 -0.1287 0
M  V30 1671 C 162.595 -1.34211 3.11083 0
M  V30 1672 C 161.154 -1.85162 3.27707 0
M  V30 1673 C 160.301 -0.729765 2.67525 0
M  V30 1674 H 163.252 0.0518786 1.58615 0
M  V30 1675 H 163.273 -2.21178 3.09613 0
M  V30 1676 H 162.785 -0.546579 3.84232 0
M  V30 1677 H 160.886 -2.67366 2.59512 0
M  V30 1678 H 160.999 -1.99855 4.35425 0
M  V30 1679 H 159.363 -1.14965 2.27278 0
M  V30 1680 H 160.146 0.0538806 3.43258 0
M  V30 1681 N 162.591 -1.51276 -0.441967 0
M  V30 1682 C 163.837 -1.63958 -1.19355 0
M  V30 1683 C 164.17 -0.352543 -1.90973 0
M  V30 1684 O 163.445 0.647627 -1.83401 0
M  V30 1685 C 163.728 -2.83979 -2.21422 0
M  V30 1686 C 163.581 -4.22646 -1.53918 0
M  V30 1687 C 164.9 -2.99521 -3.22451 0
M  V30 1688 H 162.019 -0.596709 -0.432559 0
M  V30 1689 H 164.661 -1.83748 -0.483398 0
M  V30 1690 H 162.811 -2.67237 -2.81987 0
M  V30 1691 H 164.483 -4.51045 -0.967256 0
M  V30 1692 H 162.726 -4.25558 -0.841615 0
M  V30 1693 H 163.397 -5.02609 -2.28229 0
M  V30 1694 H 165.873 -3.14944 -2.71937 0
M  V30 1695 H 164.749 -3.85072 -3.91166 0
M  V30 1696 H 165.01 -2.11391 -3.88287 0
M  V30 1697 N 164.069 0.697108 -1.41344 0
M  V30 1698 C 165.316 1.45714 -1.40619 0
M  V30 1699 C 165.644 1.94494 -0.0147907 0
M  V30 1700 O 164.899 1.69794 0.973066 0
M  V30 1701 C 165.198 2.68553 -2.35826 0
M  V30 1702 C 164.864 2.38438 -3.82698 0
M  V30 1703 C 163.526 2.29936 -4.22709 0
M  V30 1704 C 165.878 2.13567 -4.75435 0
M  V30 1705 C 163.206 1.94656 -5.53467 0
M  V30 1706 C 165.558 1.79797 -6.06511 0
M  V30 1707 C 164.222 1.69789 -6.45545 0
M  V30 1708 H 163.492 0.533206 -0.51456 0
M  V30 1709 H 166.139 0.796901 -1.74131 0
M  V30 1710 H 164.444 3.39503 -1.95563 0
M  V30 1711 H 166.141 3.2669 -2.32539 0
M  V30 1712 H 162.731 2.4595 -3.51008 0
M  V30 1713 H 166.915 2.19082 -4.45328 0
M  V30 1714 H 162.171 1.8546 -5.82593 0
M  V30 1715 H 166.345 1.59572 -6.77872 0
M  V30 1716 H 163.972 1.4222 -7.46778 0
M  V30 1717 N 165.547 1.27147 0.931209 0
M  V30 1718 C 166.494 1.09568 2.03134 0
M  V30 1719 C 167.464 -0.00222433 1.661 0
M  V30 1720 O 168.649 0.159439 1.90133 0
M  V30 1721 C 165.789 0.745231 3.36957 0
M  V30 1722 C 164.902 1.92041 3.86968 0
M  V30 1723 C 164.037 1.51216 5.09222 0
M  V30 1724 C 163.076 2.65504 5.5152 0
M  V30 1725 N 162.213 2.25291 6.64972 0
M  V30 1726 H 167.053 2.03708 2.17502 0
M  V30 1727 H 164.59 1.01411 1.06556 0
M  V30 1728 H 166.548 0.522878 4.1391 0
M  V30 1729 H 165.178 -0.159202 3.22407 0
M  V30 1730 H 164.23 2.25541 3.06326 0
M  V30 1731 H 165.542 2.77787 4.1429 0
M  V30 1732 H 164.696 1.25084 5.93666 0
M  V30 1733 H 163.435 0.625749 4.83669 0
M  V30 1734 H 162.44 2.92354 4.65628 0
M  V30 1735 H 163.665 3.54761 5.7907 0
M  V30 1736 H 161.611 1.39098 6.41083 0
M  V30 1737 H 161.528 3.04577 6.91931 0
M  V30 1738 H 162.796 2.02398 7.52765 0
M  V30 1739 N 167.025 -1.13721 1.09112 0
M  V30 1740 C 168.273 -1.84559 0.823562 0
M  V30 1741 C 168.594 -1.83754 -0.652658 0
M  V30 1742 O 167.864 -1.29102 -1.47342 0
M  V30 1743 H 166.444 -0.683376 0.301673 0
M  V30 1744 H 169.106 -1.37771 1.37859 0
M  V30 1745 H 168.202 -2.8917 1.17419 0
M  V30 1746 N 168.503 -0.877838 -1.30888 0
M  V30 1747 C 169.728 -0.506629 -2.01117 0
M  V30 1748 C 170.153 0.895564 -1.65412 0
M  V30 1749 O 169.511 1.5923 -0.866922 0
M  V30 1750 C 169.559 -0.680223 -3.54126 0
M  V30 1751 O 168.663 0.277033 -4.11468 0
M  V30 1752 H 168.004 -0.200518 -0.633 0
M  V30 1753 H 170.534 -1.18342 -1.66902 0
M  V30 1754 H 170.544 -0.5765 -4.03907 0
M  V30 1755 H 169.219 -1.70261 -3.79452 0
M  V30 1756 H 167.796 0.127606 -3.72682 0
M  V30 1757 N 169.982 1.44106 -0.638065 0
M  V30 1758 C 171.207 2.0685 -0.150916 0
M  V30 1759 C 171.632 1.47417 1.16833 0
M  V30 1760 O 170.99 0.578264 1.71831 0
M  V30 1761 C 171.038 3.60555 -0.05708 0
M  V30 1762 O 170.142 4.00465 0.984972 0
M  V30 1763 H 169.483 0.658151 -0.0879399 0
M  V30 1764 H 172.013 1.84865 -0.876707 0
M  V30 1765 H 172.023 4.07789 0.131232 0
M  V30 1766 H 170.698 4.03193 -1.02021 0
M  V30 1767 H 169.275 3.64849 0.770672 0
M  V30 1768 N 171.46 0.379036 1.52974 0
M  V30 1769 C 172.39 -0.452706 2.29069 0
M  V30 1770 C 173.371 -1.07237 1.32039 0
M  V30 1771 O 174.556 -1.08708 1.60923 0
M  V30 1772 C 171.686 -1.5856 3.08992 0
M  V30 1773 C 170.64 -1.0925 4.13822 0
M  V30 1774 C 169.966 -2.31668 4.81907 0
M  V30 1775 C 171.266 -0.167702 5.22031 0
M  V30 1776 H 172.96 0.182181 2.98845 0
M  V30 1777 H 170.506 0.0890592 1.43724 0
M  V30 1778 H 172.459 -2.1742 3.6098 0
M  V30 1779 H 171.183 -2.24792 2.36931 0
M  V30 1780 H 169.842 -0.526494 3.628 0
M  V30 1781 H 169.49 -2.96386 4.06404 0
M  V30 1782 H 169.19 -1.9934 5.52754 0
M  V30 1783 H 170.714 -2.91189 5.36695 0
M  V30 1784 H 172.128 -0.664186 5.6944 0
M  V30 1785 H 170.525 0.0653265 6.00064 0
M  V30 1786 H 171.595 0.786347 4.78482 0
M  V30 1787 N 172.938 -1.57226 0.108567 0
M  V30 1788 C 173.871 -2.10447 -0.882464 0
M  V30 1789 C 174.849 -1.01829 -1.26766 0
M  V30 1790 O 176.033 -1.29415 -1.37054 0
M  V30 1791 C 173.16 -2.59258 -2.17952 0
M  V30 1792 C 172.206 -3.79662 -1.94318 0
M  V30 1793 S 173.039 -5.22586 -1.16892 0
M  V30 1794 C 174.195 -5.74758 -2.47799 0
M  V30 1795 H 174.428 -2.94178 -0.429745 0
M  V30 1796 H 171.961 -1.54043 -0.105 0
M  V30 1797 H 173.919 -2.88036 -2.92482 0
M  V30 1798 H 172.58 -1.75728 -2.60343 0
M  V30 1799 H 171.773 -4.11928 -2.90399 0
M  V30 1800 H 171.375 -3.51446 -1.27913 0
M  V30 1801 H 173.667 -5.83846 -3.43701 0
M  V30 1802 H 174.61 -6.73027 -2.20093 0
M  V30 1803 H 175.018 -5.02763 -2.56689 0
M  V30 1804 N 174.416 0.165178 -1.56732 0
M  V30 1805 C 175.663 0.880807 -1.8234 0
M  V30 1806 C 175.991 1.81977 -0.686621 0
M  V30 1807 O 175.246 1.92971 0.325697 0
M  V30 1808 C 175.545 1.70405 -3.1416 0
M  V30 1809 C 175.211 0.913475 -4.4155 0
M  V30 1810 C 173.873 0.695303 -4.7615 0
M  V30 1811 C 176.225 0.359349 -5.1996 0
M  V30 1812 C 173.553 -0.0879947 -5.86634 0
M  V30 1813 C 175.905 -0.410893 -6.31264 0
M  V30 1814 C 174.569 -0.639808 -6.64427 0
M  V30 1815 H 173.839 0.32231 -0.667231 0
M  V30 1816 H 176.486 0.145402 -1.90947 0
M  V30 1817 H 174.791 2.50903 -3.00923 0
M  V30 1818 H 176.488 2.26091 -3.31186 0
M  V30 1819 H 173.078 1.09357 -4.14414 0
M  V30 1820 H 177.262 0.515228 -4.93618 0
M  V30 1821 H 172.518 -0.27503 -6.10781 0
M  V30 1822 H 176.692 -0.847494 -6.91224 0
M  V30 1823 H 174.319 -1.24864 -7.49875 0
M  V30 1824 N 175.894 1.51508 0.433938 0
M  V30 1825 C 176.824 1.76016 1.53429 0
M  V30 1826 C 177.805 0.610112 1.58782 0
M  V30 1827 O 178.99 0.853177 1.74455 0
M  V30 1828 C 176.12 1.88831 2.9148 0
M  V30 1829 C 175.074 3.04288 3.00987 0
M  V30 1830 C 174.4 3.0229 4.4105 0
M  V30 1831 C 175.7 4.44193 2.74754 0
M  V30 1832 H 177.394 2.68152 1.33171 0
M  V30 1833 H 174.94 1.29035 0.639214 0
M  V30 1834 H 176.893 2.04559 3.6842 0
M  V30 1835 H 175.617 0.933455 3.12976 0
M  V30 1836 H 174.276 2.8827 2.26486 0
M  V30 1837 H 173.924 2.04576 4.59519 0
M  V30 1838 H 173.624 3.79822 4.4834 0
M  V30 1839 H 175.148 3.20116 5.1996 0
M  V30 1840 H 176.562 4.60544 3.41426 0
M  V30 1841 H 174.959 5.23457 2.9345 0
M  V30 1842 H 176.029 4.53996 1.70339 0
M  V30 1843 N 177.372 -0.689602 1.41712 0
M  V30 1844 C 178.319 -1.80345 1.44029 0
M  V30 1845 C 179.289 -1.63478 0.293948 0
M  V30 1846 O 180.474 -1.84244 0.495869 0
M  V30 1847 C 177.614 -3.18272 1.33405 0
M  V30 1848 C 176.727 -3.46529 2.57956 0
M  V30 1849 C 175.862 -4.74103 2.39582 0
M  V30 1850 C 174.901 -4.95347 3.5958 0
M  V30 1851 N 174.038 -6.14151 3.40239 0
M  V30 1852 H 178.878 -1.77698 2.39222 0
M  V30 1853 H 176.415 -0.867688 1.18784 0
M  V30 1854 H 178.373 -3.97956 1.25246 0
M  V30 1855 H 177.003 -3.2008 0.418164 0
M  V30 1856 H 176.055 -2.61207 2.76542 0
M  V30 1857 H 177.367 -3.58126 3.47199 0
M  V30 1858 H 176.521 -5.61853 2.28924 0
M  V30 1859 H 175.26 -4.64763 1.47805 0
M  V30 1860 H 174.265 -4.06044 3.70686 0
M  V30 1861 H 175.49 -5.06542 4.52318 0
M  V30 1862 H 173.436 -6.06013 2.51167 0
M  V30 1863 H 173.353 -6.26543 4.23061 0
M  V30 1864 H 174.621 -7.04619 3.33365 0
M  V30 1865 N 178.85 -1.27639 -0.924453 0
M  V30 1866 C 180.261 -1.12834 -1.48746 0
M  V30 1867 C 180.612 0.285505 -1.94112 0
M  V30 1868 O 179.737 1.17874 -1.81479 0
M  V30 1869 C 180.332 -2.04217 -2.70334 0
M  V30 1870 C 178.891 -1.93509 -3.22848 0
M  V30 1871 C 178.038 -1.96583 -1.95577 0
M  V30 1872 H 180.989 -1.40484 -0.738233 0
M  V30 1873 H 181.01 -1.59989 -3.4523 0
M  V30 1874 H 180.522 -3.07111 -2.37285 0
M  V30 1875 H 178.623 -0.936131 -3.60649 0
M  V30 1876 H 178.736 -2.79917 -3.88823 0
M  V30 1877 H 177.1 -1.4085 -2.12211 0
M  V30 1878 H 177.883 -3.01137 -1.64837 0
M  V30 1879 N 180.328 1.1314 -1.09713 0
M  V30 1880 C 181.576 1.84119 -0.833338 0
M  V30 1881 C 181.897 1.84097 0.642904 0
M  V30 1882 O 181.167 1.29881 1.46655 0
M  V30 1883 H 179.747 0.681766 -0.305293 0
M  V30 1884 H 182.409 1.37038 -1.38588 0
M  V30 1885 H 181.505 2.88543 -1.18951 0
M  V30 1886 N 181.806 0.884767 1.30421 0
M  V30 1887 C 182.739 0.295999 2.26272 0
M  V30 1888 C 183.717 -0.58332 1.51777 0
M  V30 1889 O 184.901 -0.53346 1.80794 0
M  V30 1890 C 182.028 -0.57944 3.33707 0
M  V30 1891 C 181.074 0.230525 4.25877 0
M  V30 1892 S 181.907 1.61867 5.1045 0
M  V30 1893 C 183.063 0.749756 6.21393 0
M  V30 1894 H 183.296 1.10848 2.75862 0
M  V30 1895 H 180.829 0.684178 1.38414 0
M  V30 1896 H 182.787 -1.07879 3.96071 0
M  V30 1897 H 181.448 -1.36601 2.82841 0
M  V30 1898 H 180.641 -0.437542 5.02097 0
M  V30 1899 H 180.243 0.662493 3.68086 0
M  V30 1900 H 182.535 -0.0333547 6.77492 0
M  V30 1901 H 183.478 1.48356 6.92384 0
M  V30 1902 H 183.886 0.310751 5.63644 0
M  V30 1903 N 183.284 -1.43765 0.645699 0
M  V30 1904 C 184.216 -2.29027 -0.0890605 0
M  V30 1905 C 185.229 -1.42093 -0.794563 0
M  V30 1906 O 186.418 -1.66104 -0.653575 0
M  V30 1907 C 183.518 -3.18831 -1.14891 0
M  V30 1908 C 182.691 -4.34261 -0.523043 0
M  V30 1909 C 181.75 -5.04994 -1.47878 0
M  V30 1910 O 180.776 -5.6052 -0.990277 0
M  V30 1911 N 181.978 -5.07795 -2.81291 0
M  V30 1912 H 184.743 -2.92727 0.64272 0
M  V30 1913 H 182.304 -1.54373 0.487924 0
M  V30 1914 H 184.296 -3.63015 -1.78892 0
M  V30 1915 H 182.866 -2.56782 -1.78275 0
M  V30 1916 H 182.086 -3.93088 0.295896 0
M  V30 1917 H 183.374 -5.08728 -0.0858147 0
M  V30 1918 H 182.772 -4.64042 -3.23546 0
M  V30 1919 H 181.329 -5.55721 -3.40614 0
M  V30 1920 N 184.763 -0.387143 -1.52771 0
M  V30 1921 C 186.009 0.196025 -2.0185 0
M  V30 1922 C 186.342 1.46641 -1.27319 0
M  V30 1923 O 185.617 1.90889 -0.373032 0
M  V30 1924 C 185.9 0.466136 -3.5707 0
M  V30 1925 C 185.753 -0.819385 -4.42274 0
M  V30 1926 C 187.072 1.25768 -4.21747 0
M  V30 1927 H 184.191 0.0697708 -0.73369 0
M  V30 1928 H 186.833 -0.516286 -1.82851 0
M  V30 1929 H 184.983 1.07293 -3.7339 0
M  V30 1930 H 186.655 -1.4563 -4.37709 0
M  V30 1931 H 184.898 -1.43517 -4.09372 0
M  V30 1932 H 185.569 -0.585065 -5.48891 0
M  V30 1933 H 188.045 0.744167 -4.09391 0
M  V30 1934 H 186.921 1.41541 -5.30337 0
M  V30 1935 H 187.182 2.27228 -3.79236 0
M  V30 1936 N 186.241 1.57166 -0.116904 0
M  V30 1937 C 187.652 1.82169 0.408809 0
M  V30 1938 C 188.003 1.03393 1.66746 0
M  V30 1939 O 187.128 0.269886 2.1471 0
M  V30 1940 C 187.723 3.30429 0.748466 0
M  V30 1941 C 186.282 3.5612 1.21882 0
M  V30 1942 C 185.429 2.76374 0.226452 0
M  V30 1943 H 188.38 1.5497 -0.342063 0
M  V30 1944 H 188.401 3.44943 1.60607 0
M  V30 1945 H 187.913 3.87737 -0.167784 0
M  V30 1946 H 186.014 3.04168 2.15204 0
M  V30 1947 H 186.127 4.64705 1.16559 0
M  V30 1948 H 184.491 2.44515 0.713063 0
M  V30 1949 H 185.274 3.3644 -0.682859 0
M  V30 1950 N 187.719 -0.156864 1.56817 0
M  V30 1951 C 188.965 -0.872416 1.83076 0
M  V30 1952 C 189.298 -1.81261 0.697001 0
M  V30 1953 O 188.573 -1.92171 -0.30008 0
M  V30 1954 C 188.856 -1.65551 3.19789 0
M  V30 1955 C 188.709 -0.737467 4.43713 0
M  V30 1956 C 190.028 -2.62012 3.53606 0
M  V30 1957 H 187.147 -0.315715 0.665953 0
M  V30 1958 H 189.789 -0.138004 1.89498 0
M  V30 1959 H 187.939 -2.28159 3.14445 0
M  V30 1960 H 189.611 -0.123143 4.61136 0
M  V30 1961 H 187.854 -0.0464067 4.33775 0
M  V30 1962 H 188.525 -1.32122 5.35955 0
M  V30 1963 H 191.001 -2.09525 3.59497 0
M  V30 1964 H 189.877 -3.13861 4.50314 0
M  V30 1965 H 190.138 -3.42902 2.79053 0
M  V30 1966 N 189.197 -1.51736 -0.425897 0
M  V30 1967 C 190.422 -1.69082 -1.20108 0
M  V30 1968 C 190.847 -0.392398 -1.83962 0
M  V30 1969 O 190.205 0.64858 -1.69302 0
M  V30 1970 C 190.253 -2.81604 -2.25237 0
M  V30 1971 O 189.357 -2.46004 -3.30992 0
M  V30 1972 H 188.698 -0.563408 -0.35138 0
M  V30 1973 H 191.228 -1.98358 -0.501512 0
M  V30 1974 H 191.238 -3.06025 -2.69838 0
M  V30 1975 H 189.913 -3.75817 -1.78142 0
M  V30 1976 H 188.49 -2.32195 -2.91787 0
M  V30 1977 N 190.675 0.682077 -1.42076 0
M  V30 1978 C 191.607 1.80755 -1.40926 0
M  V30 1979 C 192.62 1.59833 -0.309398 0
M  V30 1980 O 193.809 1.69087 -0.572014 0
M  V30 1981 C 190.909 3.17744 -1.17865 0
M  V30 1982 C 190.082 3.65578 -2.40149 0
M  V30 1983 C 189.141 4.81277 -2.12742 0
M  V30 1984 O 188.167 4.92197 -2.85887 0
M  V30 1985 N 189.369 5.69474 -1.12602 0
M  V30 1986 H 192.134 1.82229 -2.37935 0
M  V30 1987 H 189.695 0.864903 -1.36861 0
M  V30 1988 H 191.687 3.9279 -0.9746 0
M  V30 1989 H 190.257 3.11214 -0.294068 0
M  V30 1990 H 189.477 2.81291 -2.76169 0
M  V30 1991 H 190.765 3.94278 -3.21593 0
M  V30 1992 H 190.163 5.63297 -0.520899 0
M  V30 1993 H 188.72 6.44363 -0.981842 0
M  V30 1994 N 192.153 1.28127 0.917671 0
M  V30 1995 C 193.083 1.14248 2.03641 0
M  V30 1996 C 194.064 0.0412748 1.7005 0
M  V30 1997 O 195.249 0.217566 1.92977 0
M  V30 1998 C 192.379 0.799431 3.37974 0
M  V30 1999 C 191.333 1.85497 3.85713 0
M  V30 2000 C 190.659 1.36565 5.16966 0
M  V30 2001 C 191.959 3.26085 4.08002 0
M  V30 2002 H 193.653 2.07835 2.15511 0
M  V30 2003 H 191.199 1.00064 1.03553 0
M  V30 2004 H 193.152 0.689114 4.15727 0
M  V30 2005 H 191.876 -0.172145 3.26146 0
M  V30 2006 H 190.535 1.95437 3.10161 0
M  V30 2007 H 190.183 0.383253 5.01538 0
M  V30 2008 H 189.883 2.07143 5.49878 0
M  V30 2009 H 191.407 1.26848 5.97279 0
M  V30 2010 H 192.821 3.19089 4.76293 0
M  V30 2011 H 191.218 3.94462 4.52238 0
M  V30 2012 H 192.288 3.70394 3.12948 0
M  V30 2013 N 193.631 -1.12557 1.10312 0
M  V30 2014 C 194.88 -1.83395 0.839588 0
M  V30 2015 C 195.193 -1.84939 -0.636929 0
M  V30 2016 O 196.399 -2.51761 -1.01631 0
M  V30 2017 C 194.855 -3.29303 1.45215 0
M  V30 2018 C 194.463 -3.36122 2.96186 0
M  V30 2019 C 196.207 -4.05121 1.26796 0
M  V30 2020 C 194.114 -4.76357 3.50483 0
M  V30 2021 H 193.044 -0.687133 0.310425 0
M  V30 2022 H 195.695 -1.26746 1.32694 0
M  V30 2023 H 194.077 -3.85812 0.892469 0
M  V30 2024 H 195.251 -2.89559 3.58458 0
M  V30 2025 H 193.566 -2.73776 3.13745 0
M  V30 2026 H 196.163 -5.08668 1.64806 0
M  V30 2027 H 196.506 -4.15773 0.209409 0
M  V30 2028 H 197.039 -3.54967 1.79563 0
M  V30 2029 H 193.778 -4.70899 4.55998 0
M  V30 2030 H 193.298 -5.23377 2.92978 0
M  V30 2031 H 194.977 -5.45294 3.48228 0
M  V30 2032 N 195.109 -0.891671 -1.2995 0
M  V30 2033 C 196.525 -0.58662 -1.48428 0
M  V30 2034 C 196.725 0.873951 -1.81561 0
M  V30 2035 O 195.781 1.65471 -1.90724 0
M  V30 2036 C 197.094 -1.50553 -2.60296 0
M  V30 2037 C 198.642 -1.50988 -2.74175 0
M  V30 2038 C 199.117 -2.41488 -3.89163 0
M  V30 2039 N 200.608 -2.39489 -3.96483 0
M  V30 2040 C 201.343 -3.06223 -4.84784 0
M  V30 2041 N 200.839 -3.82206 -5.77833 0
M  V30 2042 N 202.632 -2.95421 -4.78208 0
M  V30 2043 H 194.783 -1.83644 -1.06718 0
M  V30 2044 H 197.046 -0.786455 -0.529332 0
M  V30 2045 H 196.752 -2.54581 -2.42654 0
M  V30 2046 H 196.626 -1.22008 -3.56923 0
M  V30 2047 H 199.013 -0.47708 -2.91218 0
M  V30 2048 H 199.094 -1.83567 -1.78148 0
M  V30 2049 H 198.738 -3.44857 -3.72876 0
M  V30 2050 H 198.668 -2.06222 -4.84541 0
M  V30 2051 H 201.159 -1.84278 -3.29924 0
M  V30 2052 H 201.472 -4.302 -6.41988 0
M  V30 2053 H 199.817 -3.86313 -5.77743 0
M  V30 2054 H 203.008 -2.35581 -4.04499 0
M  V30 2055 H 203.181 -3.47704 -5.46814 0
M  V30 2056 N 196.587 1.43421 -0.653314 0
M  V30 2057 C 197.835 2.01414 -0.166415 0
M  V30 2058 C 198.156 1.51803 1.22397 0
M  V30 2059 O 197.426 0.730693 1.81763 0
M  V30 2060 H 196.006 0.744703 -0.0585319 0
M  V30 2061 H 198.668 1.75629 -0.845003 0
M  V30 2062 H 197.764 3.11734 -0.151111 0
M  V30 2063 N 198.065 0.39524 1.52563 0
M  V30 2064 C 199.314 -0.186321 2.00838 0
M  V30 2065 C 199.627 -1.47402 1.28577 0
M  V30 2066 O 200.833 -2.13599 1.67593 0
M  V30 2067 C 199.289 -0.382595 3.57861 0
M  V30 2068 C 198.897 0.892202 4.39026 0
M  V30 2069 C 200.641 -0.9202 4.14406 0
M  V30 2070 C 198.548 0.66388 5.87662 0
M  V30 2071 H 197.478 -0.0734041 0.750418 0
M  V30 2072 H 200.129 0.518552 1.76021 0
M  V30 2073 H 198.511 -1.14946 3.7895 0
M  V30 2074 H 199.685 1.66414 4.29701 0
M  V30 2075 H 198 1.35519 3.9373 0
M  V30 2076 H 200.597 -1.10683 5.23119 0
M  V30 2077 H 200.94 -1.89096 3.70875 0
M  V30 2078 H 201.473 -0.212751 3.97231 0
M  V30 2079 H 198.212 1.6058 6.35527 0
M  V30 2080 H 197.732 -0.0690193 5.9976 0
M  V30 2081 H 199.411 0.300699 6.46301 0
M  V30 2082 N 199.544 -1.57102 0.125237 0
M  V30 2083 C 200.492 -2.16905 -0.839927 0
M  V30 2084 C 201.486 -1.11998 -1.27094 0
M  V30 2085 O 202.692 -1.3029 -1.24195 0
M  V30 2086 H 199.067 -0.694252 -0.288995 0
M  V30 2087 H 201.038 -2.96774 -0.311115 0
M  V30 2088 C 199.787 -2.78795 -2.07771 0
M  V30 2089 H 199.11 -3.59221 -1.755 0
M  V30 2090 H 200.55 -3.2417 -2.73295 0
M  V30 2091 C 199.009 -1.76193 -2.87155 0
M  V30 2092 O 199.539 -1.21909 -3.82755 0
M  V30 2093 N 197.745 -1.45991 -2.51267 0
M  V30 2094 H 197.292 -1.90325 -1.73592 0
M  V30 2095 H 197.25 -0.775844 -3.04677 0
M  V30 2096 N 201.022 0.148545 -1.56898 0
M  V30 2097 C 201.952 1.18524 -2.01182 0
M  V30 2098 C 202.933 1.4489 -0.891123 0
M  V30 2099 O 204.118 1.55836 -1.15882 0
M  V30 2100 C 201.248 2.51879 -2.39112 0
M  V30 2101 C 200.202 2.40038 -3.54353 0
M  V30 2102 C 199.528 3.78089 -3.78091 0
M  V30 2103 C 200.828 1.88577 -4.87069 0
M  V30 2104 H 202.522 0.817029 -2.88036 0
M  V30 2105 H 200.068 0.391575 -1.38574 0
M  V30 2106 H 202.021 3.24627 -2.68692 0
M  V30 2107 H 200.745 2.90532 -1.49193 0
M  V30 2108 H 199.404 1.69742 -3.24936 0
M  V30 2109 H 199.052 4.14175 -2.85426 0
M  V30 2110 H 198.752 3.71028 -4.55645 0
M  V30 2111 H 200.276 4.52387 -4.10095 0
M  V30 2112 H 201.69 2.51117 -5.15377 0
M  V30 2113 H 200.087 1.9241 -5.68417 0
M  V30 2114 H 201.157 0.84136 -4.77545 0
M  V30 2115 N 202.5 1.5196 0.417844 0
M  V30 2116 C 203.432 1.70895 1.52733 0
M  V30 2117 C 204.445 0.589405 1.51756 0
M  V30 2118 O 205.634 0.864312 1.56179 0
M  V30 2119 C 202.734 1.72627 2.91639 0
M  V30 2120 C 201.907 3.01479 3.16905 0
M  V30 2121 C 200.966 2.95139 4.35637 0
M  V30 2122 O 199.992 3.69059 4.3334 0
M  V30 2123 N 201.194 2.12328 5.40275 0
M  V30 2124 H 203.959 2.66612 1.36888 0
M  V30 2125 H 201.52 1.50089 0.607037 0
M  V30 2126 H 203.512 1.65928 3.6912 0
M  V30 2127 H 202.082 0.844216 3.00985 0
M  V30 2128 H 201.302 3.21895 2.27546 0
M  V30 2129 H 202.59 3.86736 3.30625 0
M  V30 2130 H 201.988 1.51685 5.44985 0
M  V30 2131 H 200.545 2.11494 6.16534 0
M  V30 2132 N 203.978 -0.674533 1.42435 0
M  V30 2133 C 205.203 -1.46784 1.46524 0
M  V30 2134 C 205.628 -1.87938 0.078066 0
M  V30 2135 O 204.986 -1.56014 -0.92354 0
M  V30 2136 C 205.034 -2.69307 2.39805 0
M  V30 2137 O 204.138 -3.67587 1.86959 0
M  V30 2138 H 203.479 -0.440959 0.496439 0
M  V30 2139 H 206.009 -0.827326 1.87127 0
M  V30 2140 H 206.019 -3.17374 2.56393 0
M  V30 2141 H 204.694 -2.38692 3.40586 0
M  V30 2142 H 203.271 -3.2662 1.79927 0
M  V30 2143 N 205.456 -1.28612 -0.910864 0
M  V30 2144 C 206.704 -1.15705 -1.65701 0
M  V30 2145 C 207.025 0.29416 -1.92769 0
M  V30 2146 O 206.295 1.20331 -1.54588 0
M  V30 2147 H 204.875 -0.425216 -0.614167 0
M  V30 2148 H 207.537 -1.61381 -1.0928 0
M  V30 2149 H 206.633 -1.6988 -2.61815 0
M  V30 2150 N 206.934 1.1197 -1.10907 0
M  V30 2151 C 207.882 2.19927 -0.757303 0
M  V30 2152 C 208.876 1.67564 0.248747 0
M  V30 2153 O 210.082 1.79672 0.108605 0
M  V30 2154 H 206.457 0.716925 -0.226987 0
M  V30 2155 H 208.428 2.46847 -1.67658 0
M  V30 2156 C 207.177 3.47061 -0.210671 0
M  V30 2157 H 206.5 3.87703 -0.976049 0
M  V30 2158 H 207.94 4.24 -0.0026584 0
M  V30 2159 C 206.399 3.19864 1.05777 0
M  V30 2160 O 206.929 3.40049 2.13845 0
M  V30 2161 N 205.135 2.73636 0.978349 0
M  V30 2162 H 204.682 2.5741 0.0988246 0
M  V30 2163 H 204.64 2.55815 1.82773 0
M  V30 2164 N 208.412 0.89855 1.29475 0
M  V30 2165 C 209.689 0.443416 1.90508 0
M  V30 2166 C 210.069 -1.07685 1.81569 0
M  V30 2167 O 209.417 -1.9182 1.24166 0
M  V30 2168 C 209.627 0.956708 3.35631 0
M  V30 2169 C 210.975 0.999728 4.12663 0
M  V30 2170 O 211.999 0.904299 3.4453 0
M  V30 2171 O 210.858 1.14289 5.34416 0
M  V30 2172 H 207.952 0.138025 0.815401 0
M  V30 2173 H 210.498 0.98834 1.37949 0
M  V30 2174 H 209.27 2.00067 3.36287 0
M  V30 2175 H 208.893 0.391728 3.95666 0
M  V30 2176 N 209.89 -1.43072 0.660911 0
M  V30 2177 C 210.853 -2.29194 -0.0166406 0
M  V30 2178 C 211.853 -1.42609 -0.742912 0
M  V30 2179 O 213.043 -1.64155 -0.583004 0
M  V30 2180 C 210.175 -3.24831 -1.0343 0
M  V30 2181 H 211.368 -2.90596 0.741208 0
M  V30 2182 H 208.921 -1.5048 0.422532 0
M  V30 2183 H 209.656 -2.68339 -1.82111 0
M  V30 2184 H 209.441 -3.88676 -0.517082 0
M  V30 2185 H 210.931 -3.89451 -1.50723 0
M  V30 2186 N 211.368 -0.403325 -1.52352 0
M  V30 2187 C 212.608 0.173946 -2.03659 0
M  V30 2188 C 212.972 1.42869 -1.28267 0
M  V30 2189 O 214.173 2.08403 -1.69769 0
M  V30 2190 C 212.444 0.421478 -3.54906 0
M  V30 2191 S 214.003 0.967027 -4.28012 0
M  V30 2192 H 210.821 0.0477461 -0.709395 0
M  V30 2193 H 213.423 -0.554906 -1.87459 0
M  V30 2194 H 212.127 -0.498616 -4.0736 0
M  V30 2195 H 211.658 1.17837 -3.75337 0
M  V30 2196 H 213.673 2.24812 -4.4235 0
M  V30 2197 N 212.846 1.57033 -0.133567 0
M  V30 2198 C 214.092 1.95976 0.521649 0
M  V30 2199 C 214.425 1.01779 1.65393 0
M  V30 2200 O 213.7 0.0576581 1.94415 0
M  V30 2201 C 213.983 3.44738 1.04057 0
M  V30 2202 C 213.836 4.49711 -0.0892897 0
M  V30 2203 C 215.155 3.95682 1.92675 0
M  V30 2204 H 212.274 0.712579 0.188149 0
M  V30 2205 H 214.916 1.88813 -0.212076 0
M  V30 2206 H 213.066 3.50973 1.66583 0
M  V30 2207 H 214.738 4.55565 -0.725152 0
M  V30 2208 H 212.981 4.27261 -0.750378 0
M  V30 2209 H 213.652 5.51099 0.315284 0
M  V30 2210 H 216.128 3.91841 1.39998 0
M  V30 2211 H 215.004 5.00262 2.25897 0
M  V30 2212 H 215.265 3.37239 2.85872 0
M  V30 2213 N 214.325 -0.140222 1.56975 0
M  V30 2214 C 215.288 -1.15689 1.97861 0
M  V30 2215 C 216.288 -1.3549 0.865974 0
M  V30 2216 O 217.478 -1.32367 1.13246 0
M  V30 2217 C 214.61 -2.51582 2.30042 0
M  V30 2218 H 215.803 -0.805971 2.88867 0
M  V30 2219 H 213.356 -0.383801 1.51515 0
M  V30 2220 H 214.091 -2.91632 1.41849 0
M  V30 2221 H 213.876 -2.38569 3.11171 0
M  V30 2222 H 215.366 -3.24792 2.62488 0
M  V30 2223 N 215.803 -1.52179 -0.40978 0
M  V30 2224 C 216.736 -1.70196 -1.52015 0
M  V30 2225 C 217.714 -0.549542 -1.53032 0
M  V30 2226 O 218.898 -0.776815 -1.71749 0
M  V30 2227 C 216.025 -1.74069 -2.90547 0
M  V30 2228 C 215.071 -2.95601 -3.07445 0
M  V30 2229 S 215.904 -4.55956 -2.80827 0
M  V30 2230 C 217.06 -4.62614 -4.21591 0
M  V30 2231 H 217.293 -2.64109 -1.36504 0
M  V30 2232 H 214.826 -1.4221 -0.601312 0
M  V30 2233 H 216.784 -1.76985 -3.70387 0
M  V30 2234 H 215.445 -0.812835 -3.034 0
M  V30 2235 H 214.638 -2.94791 -4.08796 0
M  V30 2236 H 214.24 -2.90569 -2.35469 0
M  V30 2237 H 216.532 -4.39951 -5.15218 0
M  V30 2238 H 217.475 -5.64548 -4.27424 0
M  V30 2239 H 217.883 -3.91654 -4.06531 0
M  V30 2240 N 217.281 0.66697 -1.42791 0
M  V30 2241 C 218.244 1.76211 -1.46568 0
M  V30 2242 C 219.244 1.56896 -0.352196 0
M  V30 2243 O 220.434 1.63044 -0.613364 0
M  V30 2244 C 217.566 3.14935 -1.30494 0
M  V30 2245 H 218.759 1.74247 -2.44086 0
M  V30 2246 H 216.312 0.877342 -1.29354 0
M  V30 2247 H 217.047 3.2252 -0.339301 0
M  V30 2248 H 216.832 3.30359 -2.11199 0
M  V30 2249 H 218.322 3.94821 -1.36038 0
M  V30 2250 N 218.759 1.29093 0.90403 0
M  V30 2251 C 220.036 1.075 1.63411 0
M  V30 2252 C 220.416 -0.382346 2.07609 0
M  V30 2253 O 219.764 -1.37031 1.82851 0
M  V30 2254 C 219.974 2.05858 2.81822 0
M  V30 2255 C 221.322 2.36539 3.52611 0
M  V30 2256 O 222.346 2.04019 2.91984 0
M  V30 2257 O 221.205 2.92085 4.61897 0
M  V30 2258 H 218.299 0.411547 0.717327 0
M  V30 2259 H 220.845 1.40449 0.952479 0
M  V30 2260 H 219.617 3.04037 2.46327 0
M  V30 2261 H 219.24 1.73613 3.57693 0
M  V30 2262 N 220.237 -1.11381 1.11499 0
M  V30 2263 C 221.484 -1.83132 0.864231 0
M  V30 2264 C 221.812 -1.84683 -0.610114 0
M  V30 2265 O 221.067 -1.29589 -1.46646 0
M  V30 2266 C 221.366 -3.30026 1.37177 0
M  V30 2267 C 221.032 -3.48634 2.85946 0
M  V30 2268 C 219.694 -3.53421 3.26569 0
M  V30 2269 C 222.046 -3.54837 3.81759 0
M  V30 2270 C 219.374 -3.61967 4.61733 0
M  V30 2271 C 221.726 -3.64915 5.1674 0
M  V30 2272 C 220.39 -3.67962 5.5692 0
M  V30 2273 H 219.66 -0.670127 0.316245 0
M  V30 2274 H 222.307 -1.31354 1.3935 0
M  V30 2275 H 220.612 -3.84304 0.762753 0
M  V30 2276 H 222.309 -3.84034 1.15408 0
M  V30 2277 H 218.899 -3.45579 2.53521 0
M  V30 2278 H 223.083 -3.50399 3.51474 0
M  V30 2279 H 218.339 -3.62603 4.92269 0
M  V30 2280 H 222.513 -3.68658 5.90816 0
M  V30 2281 H 220.14 -3.74336 6.61647 0
M  V30 2282 N 221.715 -0.905404 -1.28997 0
M  V30 2283 C 222.678 -0.392253 -2.25819 0
M  V30 2284 C 223.678 0.476753 -1.5357 0
M  V30 2285 O 224.868 0.280994 -1.71919 0
M  V30 2286 C 222 0.438588 -3.38067 0
M  V30 2287 H 223.193 -1.24743 -2.72725 0
M  V30 2288 H 220.746 -0.684051 -1.40536 0
M  V30 2289 H 221.481 1.31352 -2.96508 0
M  V30 2290 H 221.266 -0.184167 -3.91667 0
M  V30 2291 H 222.756 0.78873 -4.10084 0
M  V30 2292 N 223.193 1.4272 -0.668489 0
M  V30 2293 C 224.156 2.292 0.00448567 0
M  V30 2294 C 225.156 1.43001 0.735339 0
M  V30 2295 O 226.346 1.64461 0.57429 0
M  V30 2296 C 223.478 3.25375 1.01705 0
M  V30 2297 H 224.671 2.90199 -0.756608 0
M  V30 2298 H 222.224 1.50254 -0.430506 0
M  V30 2299 H 222.959 2.69301 1.80686 0
M  V30 2300 H 222.744 3.88944 0.496463 0
M  V30 2301 H 224.234 3.90245 1.48655 0
M  V30 2302 N 224.671 0.411399 1.52136 0
M  V30 2303 C 225.919 -0.163322 2.01439 0
M  V30 2304 C 226.24 -1.45453 1.29879 0
M  V30 2305 O 225.51 -1.91225 0.4254 0
M  V30 2306 H 224.09 -0.0633447 0.744309 0
M  V30 2307 H 226.752 0.548161 1.87033 0
M  V30 2308 H 225.848 -0.357817 3.10042 0
M  V30 2309 N 226.149 -1.5696 0.141893 0
M  V30 2310 C 227.374 -2.00754 -0.520838 0
M  V30 2311 C 227.799 -1.0213 -1.57959 0
M  V30 2312 O 227.157 0.00371324 -1.813 0
M  V30 2313 C 227.205 -3.43318 -1.10294 0
M  V30 2314 O 226.309 -3.47679 -2.21795 0
M  V30 2315 H 225.65 -0.651564 -0.127908 0
M  V30 2316 H 228.18 -2.03221 0.23712 0
M  V30 2317 H 228.19 -3.82012 -1.43287 0
M  V30 2318 H 226.865 -4.14608 -0.327574 0
M  V30 2319 H 225.442 -3.20824 -1.9007 0
M  V30 2320 N 227.627 0.131896 -1.57047 0
M  V30 2321 C 228.559 1.1878 -1.9602 0
M  V30 2322 C 229.572 1.38363 -0.857875 0
M  V30 2323 O 230.761 1.37666 -1.13623 0
M  V30 2324 C 227.861 2.55008 -2.23213 0
M  V30 2325 C 227.034 2.56201 -3.54513 0
M  V30 2326 C 226.093 3.7408 -3.70069 0
M  V30 2327 O 225.119 3.58258 -4.42312 0
M  V30 2328 N 226.321 4.92137 -3.07866 0
M  V30 2329 H 229.086 0.85639 -2.87204 0
M  V30 2330 H 226.647 0.321309 -1.5868 0
M  V30 2331 H 228.639 3.32404 -2.30846 0
M  V30 2332 H 227.209 2.80382 -1.3822 0
M  V30 2333 H 226.429 1.64613 -3.58185 0
M  V30 2334 H 227.717 2.54043 -4.4084 0
M  V30 2335 H 227.115 5.07895 -2.49116 0
M  V30 2336 H 225.672 5.67254 -3.21039 0
M  V30 2337 N 229.106 1.52395 0.401703 0
M  V30 2338 C 230.383 1.57387 1.16141 0
M  V30 2339 C 230.763 0.359359 2.08019 0
M  V30 2340 O 230.111 -0.65326 2.18963 0
M  V30 2341 C 230.321 2.90631 1.93221 0
M  V30 2342 C 231.669 3.43904 2.49028 0
M  V30 2343 O 232.693 2.92421 2.03393 0
M  V30 2344 O 231.552 4.33823 3.32356 0
M  V30 2345 H 228.646 0.634262 0.530698 0
M  V30 2346 H 231.192 1.64725 0.407883 0
M  V30 2347 H 229.964 3.70473 1.25958 0
M  V30 2348 H 229.587 2.8662 2.75563 0
M  V30 2349 N 230.584 -0.659388 1.43143 0
M  V30 2350 C 231.547 -1.75432 1.47501 0
M  V30 2351 C 232.547 -1.56707 0.360512 0
M  V30 2352 O 233.737 -1.62717 0.622002 0
M  V30 2353 C 230.869 -3.14239 1.32162 0
M  V30 2354 H 232.062 -1.7295 2.45006 0
M  V30 2355 H 229.615 -0.870469 1.29817 0
M  V30 2356 H 230.35 -3.22336 0.356401 0
M  V30 2357 H 230.135 -3.29235 2.12948 0
M  V30 2358 H 231.625 -3.94094 1.3813 0
M  V30 2359 N 232.062 -1.29571 -0.897171 0
M  V30 2360 C 233.309 -1.17689 -1.6479 0
M  V30 2361 C 233.637 0.27107 -1.92602 0
M  V30 2362 O 232.892 1.21193 -1.53658 0
M  V30 2363 C 233.191 -1.9382 -3.00281 0
M  V30 2364 C 232.857 -3.43522 -2.92068 0
M  V30 2365 C 231.519 -3.84348 -2.89535 0
M  V30 2366 C 233.871 -4.38906 -2.81089 0
M  V30 2367 C 231.199 -5.18869 -2.73846 0
M  V30 2368 C 233.551 -5.73521 -2.66939 0
M  V30 2369 C 232.215 -6.13601 -2.62774 0
M  V30 2370 H 231.485 -0.430654 -0.603008 0
M  V30 2371 H 234.132 -1.60536 -1.04404 0
M  V30 2372 H 232.437 -1.4357 -3.64547 0
M  V30 2373 H 234.134 -1.82028 -3.57305 0
M  V30 2374 H 230.724 -3.11072 -2.94842 0
M  V30 2375 H 234.908 -4.08315 -2.82121 0
M  V30 2376 H 230.164 -5.4903 -2.69027 0
M  V30 2377 H 234.338 -6.47078 -2.57416 0
M  V30 2378 H 231.965 -7.17786 -2.50375 0
M  V30 2379 N 233.54 1.10788 -1.12088 0
M  V30 2380 C 234.786 1.82942 -0.875226 0
M  V30 2381 C 235.119 1.84779 0.597538 0
M  V30 2382 O 234.394 1.30578 1.44152 0
M  V30 2383 C 234.677 3.29789 -1.44606 0
M  V30 2384 C 234.53 3.36307 -2.98693 0
M  V30 2385 C 235.849 4.26064 -1.10261 0
M  V30 2386 H 232.968 0.664195 -0.319397 0
M  V30 2387 H 235.61 1.29867 -1.38689 0
M  V30 2388 H 233.76 3.75118 -1.01089 0
M  V30 2389 H 235.432 2.99487 -3.50864 0
M  V30 2390 H 233.675 2.76318 -3.34411 0
M  V30 2391 H 234.346 4.39694 -3.33726 0
M  V30 2392 H 236.822 3.88951 -1.4784 0
M  V30 2393 H 235.698 5.27183 -1.52869 0
M  V30 2394 H 235.959 4.42098 -0.0142953 0
M  V30 2395 N 235.018 0.912232 1.28515 0
M  V30 2396 C 236.266 0.543523 1.94654 0
M  V30 2397 C 236.587 -0.9155 1.72173 0
M  V30 2398 O 235.857 -1.64708 1.06058 0
M  V30 2399 H 234.437 0.198017 0.720277 0
M  V30 2400 H 237.099 1.16126 1.56527 0
M  V30 2401 H 236.195 0.736684 3.03281 0
M  V30 2402 N 236.496 -1.42363 0.676048 0
M  V30 2403 C 237.426 -2.33497 0.0124832 0
M  V30 2404 C 238.407 -1.50748 -0.787981 0
M  V30 2405 O 239.592 -1.79346 -0.744884 0
M  V30 2406 C 236.722 -3.34377 -0.938582 0
M  V30 2407 C 235.676 -4.27289 -0.246622 0
M  V30 2408 C 235.002 -5.18386 -1.31071 0
M  V30 2409 C 236.302 -5.14916 0.875125 0
M  V30 2410 H 237.996 -2.89233 0.773593 0
M  V30 2411 H 235.542 -1.39073 0.37346 0
M  V30 2412 H 237.495 -3.97044 -1.41188 0
M  V30 2413 H 236.219 -2.76947 -1.73113 0
M  V30 2414 H 234.878 -3.66018 0.206456 0
M  V30 2415 H 234.526 -4.57282 -2.09528 0
M  V30 2416 H 234.226 -5.81378 -0.852839 0
M  V30 2417 H 235.75 -5.83929 -1.78492 0
M  V30 2418 H 237.164 -5.71262 0.482983 0
M  V30 2419 H 235.561 -5.86747 1.25887 0
M  V30 2420 H 236.631 -4.53242 1.72335 0
M  V30 2421 N 237.974 -0.419461 -1.51915 0
M  V30 2422 C 238.907 0.445751 -2.23804 0
M  V30 2423 C 239.885 1.03951 -1.25031 0
M  V30 2424 O 241.069 1.08541 -1.54114 0
M  V30 2425 C 238.196 1.61964 -2.97465 0
M  V30 2426 C 237.242 1.14828 -4.10751 0
M  V30 2427 S 238.075 0.104938 -5.35397 0
M  V30 2428 C 239.231 1.28391 -6.1259 0
M  V30 2429 H 239.464 -0.164627 -2.96844 0
M  V30 2430 H 236.997 -0.203833 -1.53049 0
M  V30 2431 H 238.955 2.29271 -3.40507 0
M  V30 2432 H 237.616 2.20139 -2.24048 0
M  V30 2433 H 236.809 2.02561 -4.61503 0
M  V30 2434 H 236.411 0.553712 -3.69878 0
M  V30 2435 H 238.703 2.20563 -6.40592 0
M  V30 2436 H 239.646 0.816724 -7.03374 0
M  V30 2437 H 240.054 1.51439 -5.43807 0
M  V30 2438 N 239.452 1.56882 -0.150215 0
M  V30 2439 C 240.4 2.18214 0.805313 0
M  V30 2440 C 241.394 1.14006 1.25296 0
M  V30 2441 O 242.6 1.3225 1.22107 0
M  V30 2442 H 238.975 0.698762 0.277913 0
M  V30 2443 H 240.946 2.97231 0.263862 0
M  V30 2444 C 239.695 2.82065 2.03309 0
M  V30 2445 H 239.018 3.61968 1.69763 0
M  V30 2446 H 240.458 3.28477 2.68103 0
M  V30 2447 C 238.917 1.80739 2.84315 0
M  V30 2448 O 239.447 1.27983 3.80767 0
M  V30 2449 N 237.653 1.4997 2.48913 0
M  V30 2450 H 237.2 1.93062 1.70542 0
M  V30 2451 H 237.158 0.824217 3.03404 0
M  V30 2452 N 240.93 -0.123565 1.57115 0
M  V30 2453 C 242.155 -0.850398 1.89164 0
M  V30 2454 C 242.58 -1.7286 0.741688 0
M  V30 2455 O 241.938 -1.78665 -0.307958 0
M  V30 2456 C 241.986 -1.66353 3.19936 0
M  V30 2457 O 241.09 -2.77004 3.0552 0
M  V30 2458 H 240.431 -0.235454 0.620852 0
M  V30 2459 H 242.961 -0.107335 2.04318 0
M  V30 2460 H 242.971 -2.05372 3.52543 0
M  V30 2461 H 241.646 -1.01881 4.03228 0
M  V30 2462 H 240.223 -2.41221 2.84371 0
M  V30 2463 N 242.408 -1.52605 -0.393616 0
M  V30 2464 C 243.638 -1.71046 -1.15874 0
M  V30 2465 C 244.046 -0.426483 -1.84331 0
M  V30 2466 O 243.389 0.608513 -1.73329 0
M  V30 2467 C 243.451 -2.80118 -2.25332 0
M  V30 2468 C 243.115 -4.21381 -1.76881 0
M  V30 2469 C 244.112 -5.04697 -1.24808 0
M  V30 2470 C 241.797 -4.67683 -1.83244 0
M  V30 2471 C 243.791 -6.32393 -0.797387 0
M  V30 2472 C 241.478 -5.95364 -1.37787 0
M  V30 2473 C 242.476 -6.77549 -0.861208 0
M  V30 2474 O 242.164 -8.02837 -0.413252 0
M  V30 2475 H 241.896 -0.576155 -0.353583 0
M  V30 2476 H 244.45 -2.00018 -0.467123 0
M  V30 2477 H 242.68 -2.46557 -2.97904 0
M  V30 2478 H 244.369 -2.87006 -2.87023 0
M  V30 2479 H 245.135 -4.70111 -1.19252 0
M  V30 2480 H 241.014 -4.03805 -2.22401 0
M  V30 2481 H 244.558 -6.9649 -0.393437 0
M  V30 2482 H 240.455 -6.29455 -1.43026 0
M  V30 2483 H 241.223 -8.16749 -0.53515 0
M  V30 2484 N 243.887 0.651787 -1.4349 0
M  V30 2485 C 245.133 1.41376 -1.45398 0
M  V30 2486 C 245.466 1.94041 -0.0784823 0
M  V30 2487 O 244.741 1.72379 0.900878 0
M  V30 2488 C 245.024 2.59414 -2.49752 0
M  V30 2489 C 244.877 2.12232 -3.96582 0
M  V30 2490 C 246.196 3.61626 -2.50827 0
M  V30 2491 H 243.315 0.512719 -0.529422 0
M  V30 2492 H 245.957 0.738796 -1.75048 0
M  V30 2493 H 244.107 3.16997 -2.246 0
M  V30 2494 H 245.779 1.59639 -4.32797 0
M  V30 2495 H 244.022 1.43592 -4.09346 0
M  V30 2496 H 244.693 2.9712 -4.65214 0
M  V30 2497 H 247.169 3.13805 -2.7325 0
M  V30 2498 H 246.045 4.41766 -3.25783 0
M  V30 2499 H 246.306 4.14314 -1.5426 0
M  V30 2500 N 245.365 1.30045 0.890287 0
M  V30 2501 C 246.313 1.15873 2.01683 0
M  V30 2502 C 247.307 0.0719403 1.69247 0
M  V30 2503 O 248.513 0.232414 1.78493 0
M  V30 2504 H 244.888 0.358203 0.661207 0
M  V30 2505 H 246.859 2.11229 2.10772 0
M  V30 2506 C 245.608 0.861842 3.36849 0
M  V30 2507 H 244.931 1.69016 3.62317 0
M  V30 2508 H 246.371 0.802762 4.16331 0
M  V30 2509 C 244.83 -0.435132 3.34078 0
M  V30 2510 O 245.36 -1.4583 3.74295 0
M  V30 2511 N 243.566 -0.444377 2.87182 0
M  V30 2512 H 243.113 0.388723 2.5465 0
M  V30 2513 H 243.071 -1.31213 2.85711 0
M  V30 2514 N 246.843 -1.10192 1.12674 0
M  V30 2515 C 247.806 -2.14786 0.799979 0
M  V30 2516 C 248.806 -1.59711 -0.18685 0
M  V30 2517 O 249.996 -1.74156 0.0392558 0
M  V30 2518 C 247.128 -3.40374 0.189228 0
M  V30 2519 H 248.321 -2.45203 1.72671 0
M  V30 2520 H 245.874 -1.25597 0.930326 0
M  V30 2521 H 246.609 -3.15577 -0.747107 0
M  V30 2522 H 246.394 -3.81637 0.899766 0
M  V30 2523 H 247.884 -4.17594 -0.0228143 0
M  V30 2524 N 248.321 -0.919034 -1.28029 0
M  V30 2525 C 249.251 -0.428581 -2.29533 0
M  V30 2526 C 250.232 0.50659 -1.62381 0
M  V30 2527 O 251.417 0.413195 -1.89753 0
M  V30 2528 C 248.547 0.327388 -3.45753 0
M  V30 2529 C 247.501 -0.519137 -4.2484 0
M  V30 2530 C 246.827 0.365486 -5.33449 0
M  V30 2531 C 248.127 -1.77914 -4.91064 0
M  V30 2532 H 249.821 -1.27687 -2.70807 0
M  V30 2533 H 247.367 -0.615428 -1.30186 0
M  V30 2534 H 249.32 0.681378 -4.15855 0
M  V30 2535 H 248.044 1.20963 -3.03374 0
M  V30 2536 H 246.703 -0.855717 -3.56473 0
M  V30 2537 H 246.351 1.24642 -4.87312 0
M  V30 2538 H 246.051 -0.197356 -5.87268 0
M  V30 2539 H 247.575 0.715241 -6.06396 0
M  V30 2540 H 248.989 -1.49374 -5.53498 0
M  V30 2541 H 247.386 -2.2848 -5.54903 0
M  V30 2542 H 248.456 -2.50382 -4.15255 0
M  V30 2543 N 249.799 1.42003 -0.683588 0
M  V30 2544 C 251.047 2.01015 -0.209101 0
M  V30 2545 C 251.368 1.54365 1.19149 0
M  V30 2546 O 250.638 0.769083 1.80172 0
M  V30 2547 H 249.218 0.743294 -0.074315 0
M  V30 2548 H 251.88 1.73798 -0.882066 0
M  V30 2549 H 250.976 3.11343 -0.2172 0
M  V30 2550 N 251.277 0.427512 1.51691 0
M  V30 2551 C 252.207 -0.3796 2.30394 0
M  V30 2552 C 253.188 -1.02982 1.35384 0
M  V30 2553 O 254.373 -1.03534 1.643 0
M  V30 2554 C 251.503 -1.48649 3.1388 0
M  V30 2555 C 250.457 -0.960294 4.17088 0
M  V30 2556 C 249.783 -2.16219 4.89033 0
M  V30 2557 C 251.083 -0.00153679 5.223 0
M  V30 2558 H 252.777 0.277164 2.98114 0
M  V30 2559 H 250.323 0.134739 1.43368 0
M  V30 2560 H 252.276 -2.05826 3.67714 0
M  V30 2561 H 251 -2.1714 2.43962 0
M  V30 2562 H 249.659 -0.410806 3.64291 0
M  V30 2563 H 249.307 -2.83307 4.15628 0
M  V30 2564 H 249.007 -1.81654 5.58816 0
M  V30 2565 H 250.531 -2.73968 5.45687 0
M  V30 2566 H 251.945 -0.482687 5.71264 0
M  V30 2567 H 250.342 0.256199 5.99553 0
M  V30 2568 H 251.412 0.938174 4.75738 0
M  V30 2569 N 252.755 -1.56801 0.158532 0
M  V30 2570 C 253.702 -2.17337 -0.776729 0
M  V30 2571 C 254.672 -1.1096 -1.23601 0
M  V30 2572 O 255.857 -1.39054 -1.30647 0
M  V30 2573 C 252.997 -2.80822 -2.00582 0
M  V30 2574 C 252.11 -4.01624 -1.59129 0
M  V30 2575 C 251.245 -4.53072 -2.77306 0
M  V30 2576 C 250.284 -5.66314 -2.32282 0
M  V30 2577 N 249.421 -6.12329 -3.43508 0
M  V30 2578 H 254.261 -2.96918 -0.253701 0
M  V30 2579 H 251.798 -1.46661 -0.113504 0
M  V30 2580 H 253.756 -3.15779 -2.72652 0
M  V30 2581 H 252.386 -2.03866 -2.50277 0
M  V30 2582 H 251.438 -3.72571 -0.767806 0
M  V30 2583 H 252.75 -4.83633 -1.2207 0
M  V30 2584 H 251.904 -4.90145 -3.57551 0
M  V30 2585 H 250.643 -3.70095 -3.17617 0
M  V30 2586 H 249.648 -5.28806 -1.5048 0
M  V30 2587 H 250.873 -6.51085 -1.93043 0
M  V30 2588 H 248.819 -5.32284 -3.83418 0
M  V30 2589 H 248.736 -6.89293 -3.105 0
M  V30 2590 H 250.004 -6.5405 -4.24075 0
M  V30 2591 N 254.233 0.115231 -1.57178 0
M  V30 2592 C 255.181 1.16014 -2.01602 0
M  V30 2593 C 256.175 1.42653 -0.913587 0
M  V30 2594 O 257.381 1.42571 -1.09879 0
M  V30 2595 H 253.756 0.391252 -0.642204 0
M  V30 2596 H 255.727 0.758998 -2.88586 0
M  V30 2597 C 254.476 2.47767 -2.4394 0
M  V30 2598 H 253.799 2.28108 -3.28339 0
M  V30 2599 H 255.239 3.19432 -2.78818 0
M  V30 2600 C 253.698 3.10617 -1.30455 0
M  V30 2601 O 254.228 3.96846 -0.622585 0
M  V30 2602 N 252.434 2.70553 -1.06064 0
M  V30 2603 H 251.981 2.00527 -1.61699 0
M  V30 2604 H 251.939 3.12934 -0.303284 0
M  V30 2605 N 255.711 1.52812 0.385517 0
M  V30 2606 C 256.939 1.71907 1.15133 0
M  V30 2607 C 257.354 0.439004 1.83625 0
M  V30 2608 O 256.711 -0.586765 1.7281 0
M  V30 2609 C 256.762 2.87099 2.19673 0
M  V30 2610 O 256.483 4.10151 1.53973 0
M  V30 2611 C 257.984 3.17902 3.08955 0
M  V30 2612 H 255.204 0.575479 0.345057 0
M  V30 2613 H 257.748 1.99476 0.45052 0
M  V30 2614 H 255.903 2.61982 2.85384 0
M  V30 2615 H 256.317 4.74514 2.23465 0
M  V30 2616 H 257.791 4.01959 3.7833 0
M  V30 2617 H 258.268 2.3243 3.72657 0
M  V30 2618 H 258.874 3.44871 2.48885 0
M  V30 2619 N 257.189 -0.644168 1.43834 0
M  V30 2620 C 258.139 -1.7501 1.46135 0
M  V30 2621 C 259.123 -1.57507 0.328685 0
M  V30 2622 O 260.315 -1.67465 0.5731 0
M  V30 2623 C 257.444 -3.13641 1.39585 0
M  V30 2624 C 256.53 -3.3666 2.57916 0
M  V30 2625 N 256.921 -3.30107 3.83227 0
M  V30 2626 C 255.219 -3.67411 2.52834 0
M  V30 2627 C 255.92 -3.53456 4.61999 0
M  V30 2628 N 254.896 -3.75705 3.9287 0
M  V30 2629 H 258.698 -1.68382 2.40883 0
M  V30 2630 H 256.212 -0.846169 1.38614 0
M  V30 2631 H 258.209 -3.92933 1.39317 0
M  V30 2632 H 256.869 -3.21444 0.45865 0
M  V30 2633 H 257.88 -3.09316 4.15384 0
M  V30 2634 H 254.557 -3.82275 1.67845 0
M  V30 2635 H 255.947 -3.54093 5.71024 0
M  V30 2636 N 258.668 -1.30515 -0.883378 0
M  V30 2637 C 259.915 -1.1943 -1.63532 0
M  V30 2638 C 260.243 0.250627 -1.92878 0
M  V30 2639 O 259.498 1.19556 -1.54935 0
M  V30 2640 C 259.797 -1.96994 -2.98209 0
M  V30 2641 C 259.463 -3.466 -2.88408 0
M  V30 2642 C 258.125 -3.87397 -2.85442 0
M  V30 2643 C 260.477 -4.41863 -2.76418 0
M  V30 2644 C 257.805 -5.21745 -2.68327 0
M  V30 2645 C 260.157 -5.7632 -2.60841 0
M  V30 2646 C 258.821 -6.16354 -2.56251 0
M  V30 2647 H 258.091 -0.437025 -0.598406 0
M  V30 2648 H 260.738 -1.61635 -1.02696 0
M  V30 2649 H 259.043 -1.47429 -3.63004 0
M  V30 2650 H 260.74 -1.85808 -3.55354 0
M  V30 2651 H 257.33 -3.14182 -2.91527 0
M  V30 2652 H 261.514 -4.11285 -2.77775 0
M  V30 2653 H 256.77 -5.51853 -2.63189 0
M  V30 2654 H 260.944 -6.49772 -2.50538 0
M  V30 2655 H 258.571 -7.20401 -2.42748 0
M  V30 2656 N 260.146 1.09593 -1.13257 0
M  V30 2657 C 261.078 2.16015 -0.766167 0
M  V30 2658 C 262.091 1.61423 0.211303 0
M  V30 2659 O 263.28 1.78498 -0.00863946 0
M  V30 2660 C 260.38 3.38706 -0.114662 0
M  V30 2661 C 259.553 4.22717 -1.12379 0
M  V30 2662 C 258.612 5.23835 -0.498301 0
M  V30 2663 O 257.638 5.573 -1.15781 0
M  V30 2664 N 258.84 5.75886 0.730417 0
M  V30 2665 H 261.605 2.48055 -1.68193 0
M  V30 2666 H 259.166 1.25292 -1.02535 0
M  V30 2667 H 261.158 4.03464 0.315991 0
M  V30 2668 H 259.728 3.04569 0.704011 0
M  V30 2669 H 258.948 3.54122 -1.73179 0
M  V30 2670 H 260.236 4.75673 -1.80589 0
M  V30 2671 H 259.634 5.50911 1.28504 0
M  V30 2672 H 258.191 6.42387 1.10376 0
M  V30 2673 N 261.624 0.925811 1.2754 0
M  V30 2674 C 262.852 0.581509 1.9856 0
M  V30 2675 C 263.267 -0.840041 1.69082 0
M  V30 2676 O 262.624 -1.55805 0.950312 0
M  V30 2677 C 262.675 0.795589 3.52637 0
M  V30 2678 O 262.396 2.16121 3.81082 0
M  V30 2679 C 263.897 0.459744 4.4091 0
M  V30 2680 H 261.117 0.220538 0.633722 0
M  V30 2681 H 263.661 1.24232 1.6244 0
M  V30 2682 H 261.816 0.18161 3.86974 0
M  V30 2683 H 262.23 2.2098 4.75676 0
M  V30 2684 H 263.704 0.660244 5.48037 0
M  V30 2685 H 264.181 -0.604625 4.35018 0
M  V30 2686 H 264.787 1.05178 4.12089 0
M  V30 2687 N 263.102 -1.41638 0.69111 0
M  V30 2688 C 264.348 -2.01598 0.220519 0
M  V30 2689 C 264.681 -1.54594 -1.17535 0
M  V30 2690 O 263.956 -0.755177 -1.79241 0
M  V30 2691 C 264.239 -3.59062 0.273243 0
M  V30 2692 C 264.092 -4.16203 1.70573 0
M  V30 2693 C 265.411 -4.38546 -0.369457 0
M  V30 2694 H 262.53 -0.732468 0.0816045 0
M  V30 2695 H 265.172 -1.68445 0.878986 0
M  V30 2696 H 263.322 -3.87435 -0.287411 0
M  V30 2697 H 264.994 -3.98722 2.31989 0
M  V30 2698 H 263.237 -3.71414 2.2413 0
M  V30 2699 H 263.908 -5.25358 1.69419 0
M  V30 2700 H 266.384 -4.1596 0.107977 0
M  V30 2701 H 265.26 -5.48069 -0.302002 0
M  V30 2702 H 265.521 -4.17662 -1.44951 0
M  V30 2703 N 264.58 -0.43555 -1.51462 0
M  V30 2704 C 265.53 0.394701 -2.24558 0
M  V30 2705 C 266.514 0.99157 -1.26715 0
M  V30 2706 O 267.706 0.910007 -1.51815 0
M  V30 2707 C 264.835 1.4963 -3.08975 0
M  V30 2708 C 263.921 0.908912 -4.14246 0
M  V30 2709 N 264.312 0.0505335 -5.05775 0
M  V30 2710 C 262.61 1.17668 -4.30198 0
M  V30 2711 C 263.311 -0.279161 -5.8103 0
M  V30 2712 N 262.287 0.336767 -5.42556 0
M  V30 2713 H 266.089 -0.267106 -2.92684 0
M  V30 2714 H 263.603 -0.247518 -1.60503 0
M  V30 2715 H 265.6 2.10394 -3.59917 0
M  V30 2716 H 264.26 2.16046 -2.42393 0
M  V30 2717 H 265.271 -0.31577 -5.16936 0
M  V30 2718 H 261.948 1.83847 -3.74842 0
M  V30 2719 H 263.338 -0.977553 -6.64751 0
M  V30 2720 N 266.058 1.56714 -0.166846 0
M  V30 2721 C 267.306 1.96358 0.478305 0
M  V30 2722 C 267.627 1.0537 1.6408 0
M  V30 2723 O 266.897 0.119154 1.95537 0
M  V30 2724 H 265.477 0.725065 0.179692 0
M  V30 2725 H 268.139 1.93329 -0.246985 0
M  V30 2726 H 267.235 3.00547 0.841292 0
M  V30 2727 N 267.536 -0.106894 1.57237 0
M  V30 2728 C 268.466 -1.13148 2.04254 0
M  V30 2729 C 269.447 -1.42476 0.929224 0
M  V30 2730 O 270.632 -1.52709 1.19973 0
M  V30 2731 C 267.762 -2.4545 2.45706 0
M  V30 2732 C 266.716 -2.30558 3.60592 0
M  V30 2733 C 266.042 -3.67931 3.87983 0
M  V30 2734 C 267.342 -1.75597 4.91897 0
M  V30 2735 H 269.036 -0.740374 2.90101 0
M  V30 2736 H 266.582 -0.354696 1.39563 0
M  V30 2737 H 268.535 -3.17389 2.77205 0
M  V30 2738 H 267.259 -2.86475 1.56843 0
M  V30 2739 H 265.918 -1.61067 3.29322 0
M  V30 2740 H 265.566 -4.06462 2.96306 0
M  V30 2741 H 265.266 -3.58817 4.65322 0
M  V30 2742 H 266.79 -4.41356 4.21945 0
M  V30 2743 H 268.204 -2.37364 5.21854 0
M  V30 2744 H 266.601 -1.77272 5.73319 0
M  V30 2745 H 267.671 -0.714451 4.79608 0
M  V30 2746 N 269.014 -1.53014 -0.377408 0
M  V30 2747 C 270.291 -1.59215 -1.13622 0
M  V30 2748 C 270.671 -0.392407 -2.07421 0
M  V30 2749 O 270.019 0.618342 -2.19975 0
M  V30 2750 C 270.229 -2.93669 -1.88573 0
M  V30 2751 C 271.577 -3.47822 -2.43526 0
M  V30 2752 O 272.601 -2.9562 -1.98715 0
M  V30 2753 O 271.46 -4.39055 -3.25412 0
M  V30 2754 H 268.554 -0.642625 -0.52054 0
M  V30 2755 H 271.1 -1.65353 -0.381625 0
M  V30 2756 H 269.872 -3.7243 -1.20048 0
M  V30 2757 H 269.495 -2.90968 -2.70968 0
M  V30 2758 N 270.492 0.636531 -1.44174 0
M  V30 2759 C 271.455 1.73063 -1.50273 0
M  V30 2760 C 272.455 1.56113 -0.385397 0
M  V30 2761 O 273.645 1.61707 -0.64781 0
M  V30 2762 C 270.777 3.12096 -1.37145 0
M  V30 2763 H 271.97 1.69031 -2.47727 0
M  V30 2764 H 269.523 0.849706 -1.31186 0
M  V30 2765 H 270.258 3.21728 -0.407636 0
M  V30 2766 H 270.043 3.25805 -2.18159 0
M  V30 2767 H 271.533 3.91846 -1.44382 0
M  V30 2768 N 271.97 1.30982 0.876444 0
M  V30 2769 C 273.247 1.10942 1.61094 0
M  V30 2770 C 273.627 -0.338223 2.08373 0
M  V30 2771 O 272.975 -1.33122 1.85717 0
M  V30 2772 C 273.185 2.11789 2.77392 0
M  V30 2773 C 274.533 2.43965 3.47514 0
M  V30 2774 O 275.557 2.10166 2.87591 0
M  V30 2775 O 274.416 3.01817 4.55597 0
M  V30 2776 H 271.51 0.42667 0.708436 0
M  V30 2777 H 274.056 1.42438 0.922474 0
M  V30 2778 H 272.828 3.09194 2.39823 0
M  V30 2779 H 272.451 1.81161 3.5393 0
M  V30 2780 N 273.449 -1.08991 1.13837 0
M  V30 2781 C 274.697 -1.80899 0.901098 0
M  V30 2782 C 275.018 -1.86356 -0.574134 0
M  V30 2783 O 274.288 -1.35235 -1.41733 0
M  V30 2784 H 272.868 -0.669966 0.330386 0
M  V30 2785 H 275.53 -1.318 1.43578 0
M  V30 2786 H 274.626 -2.83929 1.29578 0
M  V30 2787 N 274.927 -0.932562 -1.27047 0
M  V30 2788 C 275.859 -0.392734 -2.2581 0
M  V30 2789 C 276.872 0.479241 -1.55586 0
M  V30 2790 O 278.061 0.291078 -1.76111 0
M  V30 2791 C 275.161 0.455456 -3.35826 0
M  V30 2792 C 274.334 -0.398355 -4.35582 0
M  V30 2793 C 273.393 0.387985 -5.24768 0
M  V30 2794 O 272.419 -0.206003 -5.68827 0
M  V30 2795 N 273.621 1.68664 -5.55457 0
M  V30 2796 H 276.386 -1.24173 -2.72766 0
M  V30 2797 H 273.947 -0.800511 -1.40725 0
M  V30 2798 H 275.939 0.988692 -3.92437 0
M  V30 2799 H 274.509 1.20522 -2.88432 0
M  V30 2800 H 273.729 -1.11286 -3.78165 0
M  V30 2801 H 275.017 -0.981889 -4.99236 0
M  V30 2802 H 274.415 2.19147 -5.21528 0
M  V30 2803 H 272.972 2.1663 -6.14748 0
M  V30 2804 N 276.405 1.4127 -0.698611 0
M  V30 2805 C 277.635 2.05205 -0.239644 0
M  V30 2806 C 278.043 1.52684 1.11733 0
M  V30 2807 O 277.386 0.671222 1.70998 0
M  V30 2808 C 277.448 3.59289 -0.123126 0
M  V30 2809 C 277.112 4.34619 -1.41263 0
M  V30 2810 C 278.109 4.63701 -2.35111 0
M  V30 2811 C 275.794 4.73837 -1.66684 0
M  V30 2812 C 277.788 5.30966 -3.52639 0
M  V30 2813 C 275.475 5.40837 -2.84498 0
M  V30 2814 C 276.473 5.69329 -3.77298 0
M  V30 2815 O 276.161 6.34949 -4.93047 0
M  V30 2816 H 275.893 0.66723 -0.108537 0
M  V30 2817 H 278.447 1.81974 -0.952602 0
M  V30 2818 H 276.677 3.81272 0.645628 0
M  V30 2819 H 278.366 4.04797 0.299056 0
M  V30 2820 H 279.132 4.33882 -2.16729 0
M  V30 2821 H 275.011 4.51039 -0.953135 0
M  V30 2822 H 278.555 5.53121 -4.25091 0
M  V30 2823 H 274.452 5.70075 -3.02795 0
M  V30 2824 H 275.22 6.53445 -4.92902 0
M  V30 2825 N 277.883 0.443576 1.51229 0
M  V30 2826 C 279.108 -0.121648 2.07043 0
M  V30 2827 C 279.533 -1.35156 1.30823 0
M  V30 2828 O 278.891 -1.7793 0.347934 0
M  V30 2829 C 278.939 -0.41624 3.5819 0
M  V30 2830 O 278.043 -1.50163 3.8409 0
M  V30 2831 H 277.384 0.000871367 0.663999 0
M  V30 2832 H 279.914 0.626706 1.94765 0
M  V30 2833 H 279.924 -0.664867 4.02546 0
M  V30 2834 H 278.599 0.482653 4.1309 0
M  V30 2835 H 277.176 -1.24248 3.51592 0
M  V30 2836 N 279.361 -1.56624 0.175154 0
M  V30 2837 C 280.586 -2.01813 -0.478137 0
M  V30 2838 C 281.011 -1.05457 -1.55757 0
M  V30 2839 O 280.369 -0.0347439 -1.81267 0
M  V30 2840 C 280.417 -3.45581 -1.02987 0
M  V30 2841 O 279.521 -3.52305 -2.14371 0
M  V30 2842 H 278.862 -0.65413 -0.114059 0
M  V30 2843 H 281.392 -2.02673 0.280173 0
M  V30 2844 H 281.402 -3.84965 -1.35151 0
M  V30 2845 H 280.077 -4.1521 -0.239556 0
M  V30 2846 H 278.654 -3.24783 -1.83222 0
M  V30 2847 N 280.839 0.0985539 -1.57292 0
M  V30 2848 C 281.802 1.10402 -2.00858 0
M  V30 2849 C 282.802 1.33146 -0.901593 0
M  V30 2850 O 283.992 1.29318 -1.16716 0
M  V30 2851 C 281.124 2.45394 -2.36632 0
M  V30 2852 H 282.317 0.729099 -2.90902 0
M  V30 2853 H 279.87 0.343495 -1.52479 0
M  V30 2854 H 280.605 2.87769 -1.49531 0
M  V30 2855 H 280.39 2.30235 -3.17387 0
M  V30 2856 H 281.88 3.17718 -2.71007 0
M  V30 2857 N 282.317 1.53212 0.369288 0
M  V30 2858 C 283.733 1.42902 0.710712 0
M  V30 2859 C 283.933 0.565135 1.93413 0
M  V30 2860 O 282.989 0.0461484 2.52458 0
M  V30 2861 C 284.302 2.86042 0.927382 0
M  V30 2862 C 285.85 2.9565 1.02762 0
M  V30 2863 C 286.325 4.39843 1.27679 0
M  V30 2864 N 287.816 4.43256 1.34457 0
M  V30 2865 C 288.551 5.51929 1.55439 0
M  V30 2866 N 288.047 6.70655 1.73762 0
M  V30 2867 N 289.84 5.39502 1.57779 0
M  V30 2868 H 281.991 2.07888 -0.435457 0
M  V30 2869 H 284.254 0.938661 -0.132739 0
M  V30 2870 H 283.96 3.51557 0.100287 0
M  V30 2871 H 283.834 3.29472 1.83653 0
M  V30 2872 H 286.221 2.30291 1.84527 0
M  V30 2873 H 286.302 2.5562 0.0959504 0
M  V30 2874 H 285.946 5.05774 0.464175 0
M  V30 2875 H 285.876 4.77443 2.22162 0
M  V30 2876 H 288.367 3.5769 1.21926 0
M  V30 2877 H 288.68 7.49248 1.89335 0
M  V30 2878 H 287.025 6.73648 1.70948 0
M  V30 2879 H 290.216 4.45713 1.43029 0
M  V30 2880 H 290.389 6.2426 1.7379 0
M  V30 2881 N 283.795 -0.628877 1.44509 0
M  V30 2882 C 285.072 -1.38733 1.37886 0
M  V30 2883 C 285.452 -2.11065 0.0387008 0
M  V30 2884 O 284.8 -2.06476 -0.97878 0
M  V30 2885 C 285.01 -2.35188 2.57852 0
M  V30 2886 C 286.358 -2.9845 3.02014 0
M  V30 2887 O 287.382 -2.45513 2.58073 0
M  V30 2888 O 286.241 -3.94487 3.78209 0
M  V30 2889 H 283.335 -0.621015 0.54614 0
M  V30 2890 H 285.881 -0.653744 1.56602 0
M  V30 2891 H 284.653 -1.80855 3.46998 0
M  V30 2892 H 284.276 -3.1596 2.4136 0
M  V30 2893 N 285.273 -1.31445 -0.869486 0
M  V30 2894 C 286.206 -1.13465 -1.97992 0
M  V30 2895 C 287.184 -0.0380291 -1.62556 0
M  V30 2896 O 288.368 -0.194544 -1.87493 0
M  V30 2897 C 285.495 -0.733822 -3.30655 0
M  V30 2898 C 284.541 -1.83356 -3.85075 0
M  V30 2899 S 285.374 -3.43909 -4.10472 0
M  V30 2900 C 286.53 -3.05763 -5.46132 0
M  V30 2901 H 286.763 -2.07471 -2.1294 0
M  V30 2902 H 284.296 -1.15936 -1.01972 0
M  V30 2903 H 286.254 -0.509306 -4.07328 0
M  V30 2904 H 284.915 0.187123 -3.13542 0
M  V30 2905 H 284.108 -1.50574 -4.80982 0
M  V30 2906 H 283.71 -2.01315 -3.15195 0
M  V30 2907 H 286.002 -2.54686 -6.27807 0
M  V30 2908 H 286.945 -4.00635 -5.83864 0
M  V30 2909 H 287.353 -2.43192 -5.09429 0
M  V30 2910 N 286.751 1.08385 -1.14413 0
M  V30 2911 C 287.714 2.13486 -0.834048 0
M  V30 2912 C 288.714 1.59988 0.161418 0
M  V30 2913 O 289.904 1.74071 -0.0669575 0
M  V30 2914 C 287.036 3.4003 -0.243354 0
M  V30 2915 H 288.229 2.42425 -1.7655 0
M  V30 2916 H 285.782 1.24101 -0.950189 0
M  V30 2917 H 286.517 3.16726 0.696807 0
M  V30 2918 H 286.302 3.80157 -0.960367 0
M  V30 2919 H 287.792 4.17577 -0.0436242 0
M  V30 2920 N 288.23 0.939286 1.26551 0
M  V30 2921 C 289.16 0.465044 2.28822 0
M  V30 2922 C 290.141 -0.480692 1.63167 0
M  V30 2923 O 291.326 -0.382955 1.90387 0
M  V30 2924 C 288.456 -0.27234 3.46231 0
M  V30 2925 C 287.41 0.58666 4.2396 0
M  V30 2926 C 286.736 -0.280573 5.33963 0
M  V30 2927 C 288.036 1.85704 4.88171 0
M  V30 2928 H 289.73 1.31979 2.68741 0
M  V30 2929 H 287.276 0.636061 1.29191 0
M  V30 2930 H 289.229 -0.615133 4.16886 0
M  V30 2931 H 287.953 -1.16121 3.0526 0
M  V30 2932 H 286.612 0.91232 3.55067 0
M  V30 2933 H 286.26 -1.16874 4.89234 0
M  V30 2934 H 285.96 0.29076 5.8688 0
M  V30 2935 H 287.484 -0.618678 6.07458 0
M  V30 2936 H 288.898 1.58161 5.51052 0
M  V30 2937 H 287.295 2.37279 5.51197 0
M  V30 2938 H 288.365 2.56957 4.11219 0
M  V30 2939 N 289.708 -1.40897 0.706093 0
M  V30 2940 C 290.957 -2.00284 0.238574 0
M  V30 2941 C 291.27 -1.56604 -1.17194 0
M  V30 2942 O 292.476 -2.08624 -1.73748 0
M  V30 2943 C 290.932 -3.57934 0.375623 0
M  V30 2944 C 290.54 -4.10591 1.79217 0
M  V30 2945 C 292.284 -4.24488 -0.0315857 0
M  V30 2946 C 290.191 -5.60712 1.88032 0
M  V30 2947 H 289.121 -0.749144 0.0854398 0
M  V30 2948 H 291.772 -1.61251 0.875813 0
M  V30 2949 H 290.154 -3.94622 -0.330042 0
M  V30 2950 H 291.328 -3.85301 2.52745 0
M  V30 2951 H 289.643 -3.56601 2.15 0
M  V30 2952 H 292.24 -5.34698 0.0136842 0
M  V30 2953 H 292.583 -4.02261 -1.072 0
M  V30 2954 H 293.116 -3.92873 0.624181 0
M  V30 2955 H 289.855 -5.87781 2.90161 0
M  V30 2956 H 289.375 -5.87896 1.18903 0
M  V30 2957 H 291.054 -6.25658 1.64805 0
M  V30 2958 N 291.186 -0.45159 -1.50991 0
M  V30 2959 C 292.434 0.109857 -2.01801 0
M  V30 2960 C 292.755 1.41958 -1.3369 0
M  V30 2961 O 292.025 1.9003 -0.475951 0
M  V30 2962 H 290.605 0.0435884 -0.745727 0
M  V30 2963 H 293.267 -0.597557 -1.85514 0
M  V30 2964 H 292.363 0.275489 -3.10882 0
M  V30 2965 N 292.664 1.56529 -0.183458 0
M  V30 2966 C 293.596 2.15747 0.773697 0
M  V30 2967 C 294.609 1.1162 1.1851 0
M  V30 2968 O 295.798 1.3876 1.12285 0
M  V30 2969 C 292.898 2.6952 2.05456 0
M  V30 2970 C 292.071 3.98429 1.8048 0
M  V30 2971 C 291.13 4.37145 2.92901 0
M  V30 2972 O 290.156 5.04791 2.6301 0
M  V30 2973 N 291.358 3.99695 4.2098 0
M  V30 2974 H 294.123 2.98505 0.26736 0
M  V30 2975 H 291.684 1.619 -0.0010878 0
M  V30 2976 H 293.676 2.92412 2.79781 0
M  V30 2977 H 292.246 1.91282 2.47245 0
M  V30 2978 H 291.466 3.8379 0.899947 0
M  V30 2979 H 292.754 4.82597 1.61175 0
M  V30 2980 H 292.152 3.4526 4.48121 0
M  V30 2981 H 290.709 4.27562 4.9197 0
M  V30 2982 N 294.142 -0.090211 1.57342 0
M  V30 2983 C 295.105 -1.09335 2.01441 0
M  V30 2984 C 296.105 -1.32666 0.908641 0
M  V30 2985 O 297.295 -1.28697 1.174 0
M  V30 2986 C 294.427 -2.44136 2.3793 0
M  V30 2987 H 295.62 -0.713662 2.91285 0
M  V30 2988 H 293.173 -0.335404 1.52659 0
M  V30 2989 H 293.908 -2.86972 1.51055 0
M  V30 2990 H 293.693 -2.28548 3.18603 0
M  V30 2991 H 295.183 -3.16277 2.72688 0
M  V30 2992 N 295.62 -1.53406 -0.361157 0
M  V30 2993 C 296.55 -1.83136 -1.44857 0
M  V30 2994 C 297.531 -0.685174 -1.5569 0
M  V30 2995 O 298.716 -0.93544 -1.70186 0
M  V30 2996 C 295.846 -2.02522 -2.82138 0
M  V30 2997 C 294.8 -3.18302 -2.86126 0
M  V30 2998 C 294.126 -3.22989 -4.26125 0
M  V30 2999 C 295.426 -4.56796 -2.53248 0
M  V30 3000 H 297.12 -2.74201 -1.20226 0
M  V30 3001 H 294.666 -1.31938 -0.576922 0
M  V30 3002 H 296.619 -2.21904 -3.58241 0
M  V30 3003 H 295.343 -1.08172 -3.08166 0
M  V30 3004 H 294.002 -2.98747 -2.12475 0
M  V30 3005 H 293.65 -2.26267 -4.49235 0
M  V30 3006 H 293.35 -4.00781 -4.29708 0
M  V30 3007 H 294.874 -3.44559 -5.04094 0
M  V30 3008 H 296.288 -4.7631 -3.19064 0
M  V30 3009 H 294.685 -5.36862 -2.68141 0
M  V30 3010 H 295.755 -4.61606 -1.48484 0
M  V30 3011 N 297.098 0.621204 -1.44841 0
M  V30 3012 C 298.347 1.37658 -1.47422 0
M  V30 3013 C 298.66 1.95264 -0.114629 0
M  V30 3014 O 299.866 2.71494 -0.0180199 0
M  V30 3015 C 298.322 2.49285 -2.59586 0
M  V30 3016 C 297.93 1.98149 -4.01797 0
M  V30 3017 C 299.674 3.26409 -2.71399 0
M  V30 3018 C 297.581 3.07178 -5.05367 0
M  V30 3019 H 296.511 0.517344 -0.548517 0
M  V30 3020 H 299.162 0.667257 -1.70938 0
M  V30 3021 H 297.544 3.22839 -2.29328 0
M  V30 3022 H 298.718 1.31395 -4.41669 0
M  V30 3023 H 297.033 1.33812 -3.94314 0
M  V30 3024 H 299.63 4.07706 -3.45948 0
M  V30 3025 H 299.973 3.76535 -1.77559 0
M  V30 3026 H 300.506 2.5995 -3.01116 0
M  V30 3027 H 297.245 2.61985 -6.00869 0
M  V30 3028 H 296.765 3.72542 -4.70077 0
M  V30 3029 H 298.444 3.71789 -5.29511 0
M  V30 3030 N 298.576 1.31904 0.862503 0
M  V30 3031 C 299.992 1.10724 1.14945 0
M  V30 3032 C 300.192 -0.117421 2.01158 0
M  V30 3033 O 299.248 -0.804595 2.39338 0
M  V30 3034 C 300.561 2.38267 1.83437 0
M  V30 3035 C 302.109 2.43949 1.96106 0
M  V30 3036 C 302.584 3.71394 2.68013 0
M  V30 3037 N 304.075 3.72331 2.75543 0
M  V30 3038 C 304.81 4.67641 3.31812 0
M  V30 3039 N 304.306 5.73313 3.88953 0
M  V30 3040 N 306.099 4.5515 3.29841 0
M  V30 3041 H 298.25 2.10436 0.288191 0
M  V30 3042 H 300.513 0.928705 0.190292 0
M  V30 3043 H 300.219 3.27759 1.27542 0
M  V30 3044 H 300.093 2.48633 2.83657 0
M  V30 3045 H 302.48 1.54922 2.51164 0
M  V30 3046 H 302.561 2.37543 0.949059 0
M  V30 3047 H 302.205 4.60791 2.13621 0
M  V30 3048 H 302.135 3.75069 3.69636 0
M  V30 3049 H 304.626 2.95947 2.34997 0
M  V30 3050 H 304.939 6.42107 4.30022 0
M  V30 3051 H 303.284 5.77077 3.87308 0
M  V30 3052 H 306.475 3.71766 2.84443 0
M  V30 3053 H 306.648 5.29604 3.73394 0
M  V30 3054 N 300.054 -1.07777 1.14986 0
M  V30 3055 C 301.331 -1.7699 0.832695 0
M  V30 3056 C 301.711 -2.001 -0.672561 0
M  V30 3057 O 301.059 -1.61598 -1.6155 0
M  V30 3058 C 301.269 -3.08139 1.63863 0
M  V30 3059 C 302.617 -3.8256 1.84208 0
M  V30 3060 O 303.641 -3.17939 1.60603 0
M  V30 3061 O 302.5 -4.98612 2.23714 0
M  V30 3062 H 299.594 -0.768389 0.305791 0
M  V30 3063 H 302.14 -1.14182 1.25541 0
M  V30 3064 H 300.912 -2.86909 2.6608 0
M  V30 3065 H 300.535 -3.78678 1.21197 0
M  V30 3066 N 301.532 -0.945985 -1.26051 0
M  V30 3067 C 302.778 -0.597002 -1.93814 0
M  V30 3068 C 303.111 0.862484 -1.73997 0
M  V30 3069 O 302.386 1.61769 -1.07986 0
M  V30 3070 C 302.669 -0.945937 -3.47454 0
M  V30 3071 C 302.522 -2.46052 -3.76535 0
M  V30 3072 C 303.841 -0.464785 -4.37639 0
M  V30 3073 H 300.96 -0.218366 -0.703907 0
M  V30 3074 H 303.602 -1.18107 -1.48831 0
M  V30 3075 H 301.752 -0.448902 -3.85898 0
M  V30 3076 H 303.424 -3.03065 -3.47778 0
M  V30 3077 H 301.667 -2.90194 -3.22444 0
M  V30 3078 H 302.338 -2.65517 -4.83947 0
M  V30 3079 H 304.814 -0.891016 -4.06448 0
M  V30 3080 H 303.69 -0.737712 -5.4392 0
M  V30 3081 H 303.951 0.635274 -4.37512 0
M  V30 3082 N 303.011 1.40521 -0.713556 0
M  V30 3083 C 304.422 1.83853 -0.324807 0
M  V30 3084 C 304.773 1.59667 1.14021 0
M  V30 3085 O 303.898 1.07649 1.87725 0
M  V30 3086 C 304.493 3.33751 -0.582746 0
M  V30 3087 C 303.052 3.75584 -0.247727 0
M  V30 3088 C 302.199 2.63753 -0.856121 0
M  V30 3089 H 305.15 1.29817 -0.91286 0
M  V30 3090 H 305.171 3.80194 0.152682 0
M  V30 3091 H 304.683 3.51322 -1.64908 0
M  V30 3092 H 302.784 3.63608 0.813624 0
M  V30 3093 H 302.897 4.7373 -0.715307 0
M  V30 3094 H 301.261 2.53108 -0.28432 0
M  V30 3095 H 302.044 2.84137 -1.92668 0
M  V30 3096 N 304.489 0.459591 1.5075 0
M  V30 3097 C 305.437 -0.354678 2.2988 0
M  V30 3098 C 306.431 -1.00086 1.36672 0
M  V30 3099 O 307.637 -0.933277 1.53915 0
M  V30 3100 H 304.012 -0.13321 0.740107 0
M  V30 3101 H 305.983 0.333269 2.96533 0
M  V30 3102 C 304.732 -1.43073 3.169 0
M  V30 3103 H 304.055 -0.942882 3.88523 0
M  V30 3104 H 305.495 -1.97328 3.75284 0
M  V30 3105 C 303.954 -2.42633 2.33732 0
M  V30 3106 O 304.484 -3.47658 2.01238 0
M  V30 3107 N 302.69 -2.14066 1.9653 0
M  V30 3108 H 302.237 -1.28685 2.23155 0
M  V30 3109 H 302.195 -2.80917 1.41185 0
M  V30 3110 N 305.967 -1.56429 0.191757 0
M  V30 3111 C 306.877 -2.22541 -0.742481 0
M  V30 3112 C 307.893 -1.22342 -1.23727 0
M  V30 3113 O 309.069 -1.55069 -1.28513 0
M  V30 3114 C 306.134 -2.8692 -1.94623 0
M  V30 3115 C 305.195 -4.02378 -1.49633 0
M  V30 3116 C 304.428 -4.63678 -2.6427 0
M  V30 3117 O 304.651 -4.23895 -3.81666 0
M  V30 3118 O 303.585 -5.53202 -2.37174 0
M  V30 3119 H 307.411 -3.02977 -0.209462 0
M  V30 3120 H 304.996 -1.49353 -0.0373832 0
M  V30 3121 H 306.878 -3.27663 -2.64982 0
M  V30 3122 H 305.553 -2.09466 -2.46791 0
M  V30 3123 H 304.46 -3.66265 -0.761636 0
M  V30 3124 H 305.793 -4.81487 -1.02134 0
M  V30 3125 N 307.445 0.0818655 -1.57387 0
M  V30 3126 C 308.675 0.794954 -1.90694 0
M  V30 3127 C 309.083 1.72147 -0.784982 0
M  V30 3128 O 308.426 1.81974 0.251196 0
M  V30 3129 C 308.488 1.65042 -3.19376 0
M  V30 3130 C 308.152 0.894337 -4.48164 0
M  V30 3131 C 309.149 0.21813 -5.19442 0
M  V30 3132 C 306.834 0.864495 -4.94805 0
M  V30 3133 C 308.828 -0.477802 -6.35607 0
M  V30 3134 C 306.515 0.164785 -6.10878 0
M  V30 3135 C 307.513 -0.505173 -6.81129 0
M  V30 3136 O 307.201 -1.19363 -7.94989 0
M  V30 3137 H 306.933 0.231779 -0.635023 0
M  V30 3138 H 309.487 0.059493 -2.05314 0
M  V30 3139 H 307.717 2.42844 -3.00938 0
M  V30 3140 H 309.406 2.24127 -3.38411 0
M  V30 3141 H 310.172 0.232558 -4.84442 0
M  V30 3142 H 306.051 1.37542 -4.40004 0
M  V30 3143 H 309.595 -1.00129 -6.90377 0
M  V30 3144 H 305.492 0.148249 -6.4533 0
M  V30 3145 H 306.26 -1.10188 -8.11049 0
M  V30 3146 N 308.923 1.53595 0.353017 0
M  V30 3147 C 310.148 1.7462 1.11904 0
M  V30 3148 C 310.573 0.479721 1.8188 0
M  V30 3149 O 309.931 -0.567066 1.72204 0
M  V30 3150 C 309.979 2.92029 2.11545 0
M  V30 3151 O 309.083 2.61516 3.18878 0
M  V30 3152 H 308.424 0.579531 0.324099 0
M  V30 3153 H 310.954 2.00525 0.406301 0
M  V30 3154 H 310.964 3.18551 2.5493 0
M  V30 3155 H 309.639 3.83888 1.60008 0
M  V30 3156 H 308.216 2.45852 2.80377 0
M  V30 3157 N 310.401 -0.613514 1.45168 0
M  V30 3158 C 311.65 -1.36874 1.4815 0
M  V30 3159 C 311.963 -1.952 0.124982 0
M  V30 3160 O 313.169 -2.71481 0.0324176 0
M  V30 3161 C 311.625 -2.47905 2.60904 0
M  V30 3162 C 311.233 -1.96016 4.02842 0
M  V30 3163 C 312.977 -3.24965 2.73126 0
M  V30 3164 C 310.884 -3.04494 5.06988 0
M  V30 3165 H 309.814 -0.514428 0.551253 0
M  V30 3166 H 312.465 -0.658182 1.7129 0
M  V30 3167 H 310.847 -3.21618 2.31037 0
M  V30 3168 H 312.021 -1.29051 4.4236 0
M  V30 3169 H 310.336 -1.31719 3.95018 0
M  V30 3170 H 312.933 -4.05865 3.48106 0
M  V30 3171 H 313.276 -3.75588 1.79553 0
M  V30 3172 H 313.809 -2.5835 3.0249 0
M  V30 3173 H 310.548 -2.58795 6.0225 0
M  V30 3174 H 310.068 -3.70044 4.72046 0
M  V30 3175 H 311.747 -3.68976 5.31475 0
M  V30 3176 N 311.879 -1.3236 -0.855495 0
M  V30 3177 C 313.109 -1.25688 -1.6397 0
M  V30 3178 C 313.517 0.177592 -1.88365 0
M  V30 3179 O 312.86 1.12485 -1.45234 0
M  V30 3180 C 312.922 -1.94602 -3.02275 0
M  V30 3181 C 312.586 -3.43937 -3.00926 0
M  V30 3182 C 313.583 -4.39435 -2.77835 0
M  V30 3183 C 311.268 -3.85858 -3.21588 0
M  V30 3184 C 313.262 -5.74829 -2.75409 0
M  V30 3185 C 310.949 -5.21361 -3.18789 0
M  V30 3186 C 311.947 -6.15658 -2.95727 0
M  V30 3187 O 311.635 -7.48681 -2.928 0
M  V30 3188 H 311.367 -0.434972 -0.51747 0
M  V30 3189 H 313.921 -1.75023 -1.075 0
M  V30 3190 H 312.151 -1.39836 -3.60531 0
M  V30 3191 H 313.84 -1.81651 -3.62985 0
M  V30 3192 H 314.606 -4.08374 -2.6164 0
M  V30 3193 H 310.485 -3.12883 -3.38564 0
M  V30 3194 H 314.029 -6.48404 -2.57328 0
M  V30 3195 H 309.926 -5.52052 -3.34528 0
M  V30 3196 H 310.694 -7.5803 -3.0876 0
M  V30 3197 N 313.357 1.07166 -1.15556 0
M  V30 3198 C 314.304 2.14417 -0.854055 0
M  V30 3199 C 315.274 1.64965 0.193806 0
M  V30 3200 O 316.459 1.90703 0.0609443 0
M  V30 3201 C 313.599 3.43304 -0.351574 0
M  V30 3202 C 312.712 4.06537 -1.46123 0
M  V30 3203 C 311.847 5.23266 -0.914677 0
M  V30 3204 C 310.886 5.78464 -2.00114 0
M  V30 3205 N 310.023 6.86521 -1.47083 0
M  V30 3206 H 314.863 2.39548 -1.77259 0
M  V30 3207 H 312.4 1.17543 -0.884425 0
M  V30 3208 H 314.358 4.17179 -0.0419409 0
M  V30 3209 H 312.988 3.18419 0.530037 0
M  V30 3210 H 312.04 3.30297 -1.88701 0
M  V30 3211 H 313.352 4.43567 -2.28144 0
M  V30 3212 H 312.506 6.04131 -0.557698 0
M  V30 3213 H 311.245 4.87658 -0.0636583 0
M  V30 3214 H 310.25 4.96243 -2.36692 0
M  V30 3215 H 311.475 6.16126 -2.85597 0
M  V30 3216 H 309.421 6.52849 -0.642198 0
M  V30 3217 H 309.338 7.22446 -2.22729 0
M  V30 3218 H 310.606 7.71087 -1.14215 0
M  V30 3219 N 314.835 0.952656 1.25548 0
M  V30 3220 C 315.745 0.47782 2.29682 0
M  V30 3221 C 316.761 -0.453859 1.67977 0
M  V30 3222 O 317.937 -0.330587 1.98668 0
M  V30 3223 C 315.002 -0.238655 3.45878 0
M  V30 3224 C 314.063 0.730994 4.23031 0
M  V30 3225 C 313.296 0.0486165 5.33678 0
M  V30 3226 O 313.519 -1.16612 5.58353 0
M  V30 3227 O 312.453 0.733152 5.97418 0
M  V30 3228 H 316.279 1.34312 2.72386 0
M  V30 3229 H 313.864 0.719026 1.30959 0
M  V30 3230 H 315.746 -0.641774 4.16484 0
M  V30 3231 H 314.421 -1.07916 3.05181 0
M  V30 3232 H 313.328 1.18428 3.5486 0
M  V30 3233 H 314.661 1.53946 4.67506 0
M  V30 3234 N 316.313 -1.40141 0.720998 0
M  V30 3235 C 317.26 -2.30688 0.071919 0
M  V30 3236 C 318.23 -1.48476 -0.744584 0
M  V30 3237 O 319.415 -1.77201 -0.707423 0
M  V30 3238 C 316.555 -3.34724 -0.839855 0
M  V30 3239 C 315.668 -4.31998 -0.0122438 0
M  V30 3240 C 314.803 -5.23102 -0.923995 0
M  V30 3241 C 313.842 -6.12033 -0.0907969 0
M  V30 3242 N 312.979 -6.95537 -0.957718 0
M  V30 3243 H 317.819 -2.85628 0.849755 0
M  V30 3244 H 315.356 -1.40653 0.430726 0
M  V30 3245 H 317.314 -3.93618 -1.38279 0
M  V30 3246 H 315.944 -2.81274 -1.58381 0
M  V30 3247 H 314.996 -3.74841 0.64794 0
M  V30 3248 H 316.308 -4.94772 0.632595 0
M  V30 3249 H 315.462 -5.86953 -1.53527 0
M  V30 3250 H 314.201 -4.60615 -1.60264 0
M  V30 3251 H 313.206 -5.47207 0.533377 0
M  V30 3252 H 314.431 -6.76581 0.584428 0
M  V30 3253 H 312.377 -6.35633 -1.62192 0
M  V30 3254 H 312.294 -7.55099 -0.36904 0
M  V30 3255 H 313.562 -7.63832 -1.555 0
M  V30 3256 N 317.792 -0.46758 -1.50504 0
M  V30 3257 C 318.702 0.33382 -2.32213 0
M  V30 3258 C 319.718 0.999323 -1.42441 0
M  V30 3259 O 320.894 0.988068 -1.75497 0
M  V30 3260 C 317.959 1.4035 -3.17022 0
M  V30 3261 C 317.02 0.754961 -4.2261 0
M  V30 3262 C 316.253 1.77367 -5.03365 0
M  V30 3263 O 316.476 2.99976 -4.8515 0
M  V30 3264 O 315.41 1.34744 -5.86624 0
M  V30 3265 H 319.236 -0.334067 -3.01857 0
M  V30 3266 H 316.821 -0.229496 -1.47627 0
M  V30 3267 H 318.703 2.02318 -3.69656 0
M  V30 3268 H 317.378 2.05492 -2.5011 0
M  V30 3269 H 316.285 0.0964244 -3.73976 0
M  V30 3270 H 317.618 0.146545 -4.91982 0
M  V30 3271 N 319.27 1.56325 -0.20005 0
M  V30 3272 C 320.517 1.97719 0.437411 0
M  V30 3273 C 320.845 1.08709 1.61284 0
M  V30 3274 O 320.1 0.127261 1.95286 0
M  V30 3275 C 320.399 3.4495 0.935103 0
M  V30 3276 C 320.065 4.5072 -0.12749 0
M  V30 3277 C 318.727 4.79368 -0.419451 0
M  V30 3278 C 321.079 5.14268 -0.847231 0
M  V30 3279 C 318.407 5.68854 -1.43604 0
M  V30 3280 C 320.759 6.04852 -1.85301 0
M  V30 3281 C 319.423 6.31855 -2.15211 0
M  V30 3282 H 318.693 0.723507 0.16006 0
M  V30 3283 H 321.34 1.89166 -0.298056 0
M  V30 3284 H 319.645 3.50599 1.74894 0
M  V30 3285 H 321.342 3.74337 1.43781 0
M  V30 3286 H 317.932 4.28458 0.11023 0
M  V30 3287 H 322.116 4.92222 -0.634901 0
M  V30 3288 H 317.372 5.88047 -1.67364 0
M  V30 3289 H 321.546 6.53152 -2.41591 0
M  V30 3290 H 319.173 7.00994 -2.94129 0
M  V30 3291 N 320.748 -0.0735177 1.57428 0
M  V30 3292 C 321.976 -0.785969 1.9139 0
M  V30 3293 C 322.391 -1.71207 0.795847 0
M  V30 3294 O 321.748 -1.81033 -0.230915 0
M  V30 3295 C 321.799 -1.58107 3.25091 0
M  V30 3296 O 321.52 -0.6922 4.32597 0
M  V30 3297 C 323.021 -2.39467 3.73055 0
M  V30 3298 H 320.241 -0.223558 0.632663 0
M  V30 3299 H 322.785 -0.044302 2.04452 0
M  V30 3300 H 320.94 -2.27503 3.13562 0
M  V30 3301 H 321.354 -1.24504 5.09508 0
M  V30 3302 H 322.828 -2.90716 4.69242 0
M  V30 3303 H 323.305 -3.18913 3.01979 0
M  V30 3304 H 323.911 -1.7523 3.87523 0
M  V30 3305 N 322.226 -1.5378 -0.344866 0
M  V30 3306 C 323.473 -1.70963 -1.08526 0
M  V30 3307 C 323.801 -0.472126 -1.88683 0
M  V30 3308 O 323.056 0.546116 -1.87926 0
M  V30 3309 C 323.355 -2.92407 -2.05506 0
M  V30 3310 C 323.021 -4.28066 -1.41671 0
M  V30 3311 C 321.683 -4.64951 -1.2399 0
M  V30 3312 C 324.035 -5.12344 -0.956726 0
M  V30 3313 C 321.363 -5.83733 -0.589277 0
M  V30 3314 C 323.715 -6.3179 -0.320015 0
M  V30 3315 C 322.379 -6.67372 -0.130881 0
M  V30 3316 H 321.649 -0.625598 -0.397124 0
M  V30 3317 H 324.296 -1.87995 -0.36469 0
M  V30 3318 H 322.601 -2.69973 -2.8394 0
M  V30 3319 H 324.298 -3.02895 -2.62784 0
M  V30 3320 H 320.888 -3.99034 -1.56429 0
M  V30 3321 H 325.072 -4.8438 -1.08118 0
M  V30 3322 H 320.328 -6.09877 -0.431344 0
M  V30 3323 H 324.502 -6.96386 0.0445072 0
M  V30 3324 H 322.129 -7.59273 0.375318 0
M  V30 3325 N 323.704 0.605807 -1.45491 0
M  V30 3326 C 324.652 1.73754 -1.54636 0
M  V30 3327 C 325.646 1.64207 -0.416219 0
M  V30 3328 O 326.852 1.69979 -0.592199 0
M  V30 3329 H 323.227 0.574073 -0.485741 0
M  V30 3330 H 325.198 1.63169 -2.49837 0
M  V30 3331 C 323.947 3.12135 -1.53189 0
M  V30 3332 H 323.27 3.20141 -2.39478 0
M  V30 3333 H 324.71 3.91147 -1.63645 0
M  V30 3334 C 323.169 3.35921 -0.256616 0
M  V30 3335 O 323.699 3.96194 0.662798 0
M  V30 3336 N 321.905 2.90204 -0.151751 0
M  V30 3337 H 321.452 2.41336 -0.90081 0
M  V30 3338 H 321.41 3.06492 0.700699 0
M  V30 3339 N 325.182 1.32811 0.848464 0
M  V30 3340 C 326.43 1.23479 1.59991 0
M  V30 3341 C 326.751 -0.201853 1.93952 0
M  V30 3342 O 326.021 -1.12818 1.60153 0
M  V30 3343 H 324.601 0.454034 0.593179 0
M  V30 3344 H 327.263 1.66412 1.01455 0
M  V30 3345 H 326.359 1.82178 2.53412 0
M  V30 3346 N 326.66 -1.06551 1.16123 0
M  V30 3347 C 327.909 -1.78687 0.935622 0
M  V30 3348 C 328.222 -1.88056 -0.538001 0
M  V30 3349 O 329.428 -2.56794 -0.88143 0
M  V30 3350 C 327.884 -3.21143 1.62466 0
M  V30 3351 C 327.492 -3.19949 3.13587 0
M  V30 3352 C 329.236 -3.9783 1.48092 0
M  V30 3353 C 327.143 -4.57108 3.75241 0
M  V30 3354 H 326.073 -0.669712 0.346412 0
M  V30 3355 H 328.724 -1.19534 1.39226 0
M  V30 3356 H 327.106 -3.80539 1.09572 0
M  V30 3357 H 328.28 -2.70151 3.73303 0
M  V30 3358 H 326.595 -2.5676 3.27816 0
M  V30 3359 H 329.192 -4.99217 1.91538 0
M  V30 3360 H 329.535 -4.14078 0.429507 0
M  V30 3361 H 330.068 -3.4495 1.98127 0
M  V30 3362 H 326.807 -4.46065 4.80319 0
M  V30 3363 H 326.327 -5.07111 3.20309 0
M  V30 3364 H 328.006 -5.26069 3.76644 0
M  V30 3365 N 328.138 -0.959301 -1.25041 0
M  V30 3366 C 329.554 -0.664474 -1.4511 0
M  V30 3367 C 329.754 0.776481 -1.85938 0
M  V30 3368 O 328.81 1.55128 -1.99227 0
M  V30 3369 C 330.123 -1.64139 -2.5195 0
M  V30 3370 C 331.671 -1.65309 -2.65786 0
M  V30 3371 C 332.146 -2.61777 -3.75815 0
M  V30 3372 N 333.637 -2.60169 -3.83231 0
M  V30 3373 C 334.372 -3.31489 -4.6787 0
M  V30 3374 N 333.868 -4.12298 -5.56761 0
M  V30 3375 N 335.661 -3.20354 -4.61876 0
M  V30 3376 H 327.812 -1.89043 -0.968332 0
M  V30 3377 H 330.075 -0.813408 -0.4869 0
M  V30 3378 H 329.781 -2.67086 -2.28819 0
M  V30 3379 H 329.655 -1.40756 -3.49954 0
M  V30 3380 H 332.042 -0.630778 -2.8828 0
M  V30 3381 H 332.123 -1.92753 -1.68167 0
M  V30 3382 H 331.767 -3.64137 -3.54071 0
M  V30 3383 H 331.697 -2.31616 -4.72929 0
M  V30 3384 H 334.188 -2.01507 -3.19692 0
M  V30 3385 H 334.501 -4.63625 -6.18281 0
M  V30 3386 H 332.846 -4.16395 -5.56454 0
M  V30 3387 H 336.037 -2.56692 -3.91442 0
M  V30 3388 H 336.21 -3.76201 -5.27614 0
M  V30 3389 N 329.616 1.39756 -0.72842 0
M  V30 3390 C 330.548 2.29157 -0.0446202 0
M  V30 3391 C 331.561 1.46484 0.710367 0
M  V30 3392 O 332.75 1.69632 0.55562 0
M  V30 3393 C 329.85 3.24987 0.961071 0
M  V30 3394 C 329.023 4.36572 0.268967 0
M  V30 3395 C 328.082 5.12756 1.18184 0
M  V30 3396 O 327.108 5.6534 0.661794 0
M  V30 3397 N 328.31 5.23331 2.51206 0
M  V30 3398 H 331.075 2.88482 -0.812295 0
M  V30 3399 H 328.636 1.51265 -0.577098 0
M  V30 3400 H 330.628 3.72827 1.57423 0
M  V30 3401 H 329.198 2.66739 1.63 0
M  V30 3402 H 328.418 3.90694 -0.524574 0
M  V30 3403 H 329.706 5.08363 -0.210934 0
M  V30 3404 H 329.104 4.82116 2.9594 0
M  V30 3405 H 327.661 5.74634 3.07634 0
M  V30 3406 N 331.094 0.475555 1.50254 0
M  V30 3407 C 332.024 -0.30611 2.31485 0
M  V30 3408 C 333.005 -0.986228 1.38591 0
M  V30 3409 O 334.19 -0.982541 1.67511 0
M  V30 3410 C 331.32 -1.38588 3.1845 0
M  V30 3411 C 330.274 -0.827115 4.19932 0
M  V30 3412 C 329.6 -2.00551 4.95665 0
M  V30 3413 C 330.9 0.16463 5.2204 0
M  V30 3414 H 332.594 0.371866 2.97082 0
M  V30 3415 H 330.14 0.180282 1.42867 0
M  V30 3416 H 332.093 -1.94023 3.74076 0
M  V30 3417 H 330.817 -2.09269 2.50747 0
M  V30 3418 H 329.476 -0.294702 3.65414 0
M  V30 3419 H 329.124 -2.6994 4.2443 0
M  V30 3420 H 328.824 -1.63784 5.64313 0
M  V30 3421 H 330.348 -2.56468 5.54127 0
M  V30 3422 H 331.762 -0.300699 5.72511 0
M  V30 3423 H 330.159 0.446813 5.98434 0
M  V30 3424 H 331.229 1.08905 4.72512 0
M  V30 3425 N 332.573 -1.56217 0.208337 0
M  V30 3426 C 333.521 -2.21053 -0.723769 0
M  V30 3427 C 334.515 -1.18578 -1.20978 0
M  V30 3428 O 335.721 -1.36691 -1.17114 0
M  V30 3429 H 332.096 -0.708595 -0.251788 0
M  V30 3430 H 334.067 -2.98006 -0.153365 0
M  V30 3431 C 332.816 -2.89417 -1.927 0
M  V30 3432 H 332.139 -3.68019 -1.56212 0
M  V30 3433 H 333.579 -3.38201 -2.55727 0
M  V30 3434 C 332.038 -1.91166 -2.77411 0
M  V30 3435 O 332.568 -1.42026 -3.75754 0
M  V30 3436 N 330.774 -1.59105 -2.43175 0
M  V30 3437 H 330.321 -1.99259 -1.63259 0
M  V30 3438 H 330.279 -0.936255 -3.00136 0
M  V30 3439 N 334.051 0.0651679 -1.57465 0
M  V30 3440 C 335.467 0.420105 -1.53972 0
M  V30 3441 C 335.667 1.78782 -0.929474 0
M  V30 3442 O 334.723 2.46771 -0.534839 0
M  V30 3443 C 336.036 0.355084 -2.98596 0
M  V30 3444 C 337.584 0.434792 -3.09965 0
M  V30 3445 C 338.059 0.399609 -4.56253 0
M  V30 3446 N 339.55 0.459488 -4.60915 0
M  V30 3447 C 340.285 0.454584 -5.71595 0
M  V30 3448 N 339.781 0.404102 -6.9162 0
M  V30 3449 N 341.574 0.501635 -5.59857 0
M  V30 3450 H 333.725 -0.830328 -1.95498 0
M  V30 3451 H 335.988 -0.312244 -0.895102 0
M  V30 3452 H 335.694 -0.583357 -3.46828 0
M  V30 3453 H 335.568 1.16275 -3.58831 0
M  V30 3454 H 337.955 1.36366 -2.61703 0
M  V30 3455 H 338.036 -0.40157 -2.52628 0
M  V30 3456 H 337.68 -0.525436 -5.05175 0
M  V30 3457 H 337.61 1.25359 -5.11461 0
M  V30 3458 H 340.101 0.502482 -3.74544 0
M  V30 3459 H 340.414 0.404468 -7.71741 0
M  V30 3460 H 338.759 0.37069 -6.94011 0
M  V30 3461 H 341.95 0.538812 -4.64989 0
M  V30 3462 H 342.123 0.494345 -6.46112 0
M  V30 3463 N 335.529 1.53961 0.336706 0
M  V30 3464 C 336.477 1.83136 1.43401 0
M  V30 3465 C 337.471 0.702313 1.54156 0
M  V30 3466 O 338.677 0.885765 1.56698 0
M  V30 3467 H 335.052 0.580309 0.478273 0
M  V30 3468 H 337.023 2.74925 1.16012 0
M  V30 3469 C 335.772 2.06385 2.79822 0
M  V30 3470 H 335.095 2.92718 2.72316 0
M  V30 3471 H 336.535 2.30761 3.55704 0
M  V30 3472 C 334.994 0.851414 3.25964 0
M  V30 3473 O 335.524 0.0541904 4.01663 0
M  V30 3474 N 333.73 0.66672 2.82848 0
M  V30 3475 H 333.277 1.31665 2.21409 0
M  V30 3476 H 333.235 -0.143032 3.14074 0
M  V30 3477 N 337.007 -0.598083 1.45811 0
M  V30 3478 C 338.255 -1.35413 1.50026 0
M  V30 3479 C 338.576 -1.94444 0.147177 0
M  V30 3480 O 337.846 -1.77701 -0.824571 0
M  V30 3481 H 336.426 -0.502727 0.552517 0
M  V30 3482 H 339.088 -0.701606 1.81834 0
M  V30 3483 H 338.184 -2.16871 2.2444 0
M  V30 3484 N 338.485 -1.33259 -0.841409 0
M  V30 3485 C 339.415 -1.25926 -1.96634 0
M  V30 3486 C 340.396 -0.140349 -1.6952 0
M  V30 3487 O 341.581 -0.329707 -1.91381 0
M  V30 3488 C 338.711 -0.99512 -3.32738 0
M  V30 3489 C 337.665 -2.0767 -3.74242 0
M  V30 3490 C 336.991 -1.66474 -5.08125 0
M  V30 3491 C 338.291 -3.49318 -3.88297 0
M  V30 3492 H 339.985 -2.20046 -2.03027 0
M  V30 3493 H 337.531 -1.05931 -0.975425 0
M  V30 3494 H 339.484 -0.930323 -4.11002 0
M  V30 3495 H 338.208 -0.0183004 -3.26595 0
M  V30 3496 H 336.867 -2.13187 -2.98239 0
M  V30 3497 H 336.515 -0.675012 -4.9845 0
M  V30 3498 H 336.215 -2.3885 -5.36865 0
M  V30 3499 H 337.739 -1.61455 -5.88867 0
M  V30 3500 H 339.153 -3.46316 -4.56879 0
M  V30 3501 H 337.55 -4.20158 -4.28471 0
M  V30 3502 H 338.62 -3.8801 -2.9082 0
M  V30 3503 N 339.963 1.05934 -1.16686 0
M  V30 3504 C 340.893 2.1546 -0.899949 0
M  V30 3505 C 341.874 1.69391 0.155154 0
M  V30 3506 O 343.059 1.94199 0.00648693 0
M  V30 3507 C 340.189 3.44939 -0.404241 0
M  V30 3508 C 339.143 4.04536 -1.39767 0
M  V30 3509 C 338.469 5.29268 -0.760216 0
M  V30 3510 C 339.769 4.42893 -2.76845 0
M  V30 3511 H 341.463 2.38046 -1.81588 0
M  V30 3512 H 339.009 1.14404 -0.874514 0
M  V30 3513 H 340.962 4.20901 -0.204971 0
M  V30 3514 H 339.686 3.21983 0.547206 0
M  V30 3515 H 338.345 3.30635 -1.58355 0
M  V30 3516 H 337.993 5.02611 0.197831 0
M  V30 3517 H 337.693 5.70101 -1.42332 0
M  V30 3518 H 339.217 6.07924 -0.57105 0
M  V30 3519 H 340.631 5.09921 -2.62019 0
M  V30 3520 H 339.028 4.94721 -3.39663 0
M  V30 3521 H 340.098 3.53584 -3.31823 0
M  V30 3522 N 341.441 0.965919 1.2453 0
M  V30 3523 C 342.687 0.637349 1.93156 0
M  V30 3524 C 343.042 -0.818261 1.74133 0
M  V30 3525 O 342.335 -1.58079 1.08266 0
M  V30 3526 C 342.529 0.945428 3.44669 0
M  V30 3527 C 342.358 2.42944 3.78429 0
M  V30 3528 C 341.128 3.08895 3.9989 0
M  V30 3529 C 343.326 3.40941 3.8505 0
M  V30 3530 N 341.308 4.47052 4.20735 0
M  V30 3531 C 342.679 4.64448 4.10717 0
M  V30 3532 C 344.734 3.35624 3.67779 0
M  V30 3533 C 343.437 5.83292 4.20907 0
M  V30 3534 C 345.463 4.53818 3.79214 0
M  V30 3535 C 344.825 5.76114 4.05304 0
M  V30 3536 H 340.924 0.284034 0.728594 0
M  V30 3537 H 343.508 1.24041 1.50073 0
M  V30 3538 H 341.679 0.371193 3.86622 0
M  V30 3539 H 343.411 0.575613 4.00586 0
M  V30 3540 H 340.166 2.59432 3.96222 0
M  V30 3541 H 340.59 5.18634 4.35141 0
M  V30 3542 H 345.232 2.4211 3.46616 0
M  V30 3543 H 342.95 6.77236 4.40883 0
M  V30 3544 H 346.536 4.51263 3.67224 0
M  V30 3545 H 345.416 6.66045 4.13949 0
M  V30 3546 N 342.919 -1.39368 0.735821 0
M  V30 3547 C 344.196 -1.94465 0.210395 0
M  V30 3548 C 344.576 -1.67254 -1.28799 0
M  V30 3549 O 343.924 -1.00123 -2.05396 0
M  V30 3550 C 344.134 -3.4472 0.544897 0
M  V30 3551 C 345.482 -4.21708 0.494689 0
M  V30 3552 O 346.506 -3.52922 0.482136 0
M  V30 3553 O 345.365 -5.44299 0.489947 0
M  V30 3554 H 342.459 -0.826096 0.0386666 0
M  V30 3555 H 345.005 -1.48863 0.814735 0
M  V30 3556 H 343.777 -3.57963 1.58045 0
M  V30 3557 H 343.4 -3.97502 -0.08837 0
M  V30 3558 N 344.397 -0.483516 -1.5 0
M  V30 3559 C 345.345 0.318061 -2.30415 0
M  V30 3560 C 346.339 0.978988 -1.38247 0
M  V30 3561 O 347.545 0.908673 -1.55381 0
M  V30 3562 H 343.92 0.121419 -0.742133 0
M  V30 3563 H 345.891 -0.380403 -2.95965 0
M  V30 3564 C 344.64 1.38013 -3.19136 0
M  V30 3565 H 343.963 0.880952 -3.89973 0
M  V30 3566 H 345.403 1.91332 -3.78375 0
M  V30 3567 C 343.862 2.38884 -2.37563 0
M  V30 3568 O 344.392 3.44412 -2.06744 0
M  V30 3569 N 342.598 2.10912 -1.99911 0
M  V30 3570 H 342.145 1.25118 -2.25174 0
M  V30 3571 H 342.103 2.78635 -1.45636 0
M  V30 3572 N 345.875 1.56104 -0.216619 0
M  V30 3573 C 347.1 2.0301 0.424462 0
M  V30 3574 C 347.525 1.0955 1.52907 0
M  V30 3575 O 346.883 0.0827914 1.81111 0
M  V30 3576 C 346.931 3.4819 0.937883 0
M  V30 3577 O 346.035 3.57865 2.04955 0
M  V30 3578 H 345.376 0.656925 0.0966755 0
M  V30 3579 H 347.906 2.01859 -0.33381 0
M  V30 3580 H 347.916 3.88413 1.24897 0
M  V30 3581 H 346.591 4.15699 0.129387 0
M  V30 3582 H 345.168 3.29527 1.74546 0
M  V30 3583 N 347.353 -0.0568162 1.57498 0
M  V30 3584 C 348.283 -1.06593 2.0775 0
M  V30 3585 C 349.264 -1.39448 0.974082 0
M  V30 3586 O 350.449 -1.48815 1.24771 0
M  V30 3587 C 347.579 -2.37509 2.5339 0
M  V30 3588 C 346.533 -2.1897 3.67745 0
M  V30 3589 C 345.859 -3.55402 3.99492 0
M  V30 3590 C 347.159 -1.59859 4.97235 0
M  V30 3591 H 348.853 -0.647706 2.9231 0
M  V30 3592 H 346.399 -0.310116 1.40621 0
M  V30 3593 H 348.352 -3.08409 2.87162 0
M  V30 3594 H 347.076 -2.8134 1.65878 0
M  V30 3595 H 345.735 -1.50508 3.3428 0
M  V30 3596 H 345.383 -3.9683 3.09088 0
M  V30 3597 H 345.083 -3.43831 4.76502 0
M  V30 3598 H 346.607 -4.27708 4.35773 0
M  V30 3599 H 348.021 -2.20642 5.29141 0
M  V30 3600 H 346.418 -1.58942 5.78669 0
M  V30 3601 H 347.488 -0.561506 4.81638 0
M  V30 3602 N 348.832 -1.54138 -0.328536 0
M  V30 3603 C 349.78 -1.83894 -1.42428 0
M  V30 3604 C 350.774 -0.710478 -1.53781 0
M  V30 3605 O 351.98 -0.894062 -1.56226 0
M  V30 3606 H 348.355 -0.582837 -0.475189 0
M  V30 3607 H 350.326 -2.75537 -1.14552 0
M  V30 3608 C 349.075 -2.07866 -2.78724 0
M  V30 3609 H 348.398 -2.94158 -2.7076 0
M  V30 3610 H 349.838 -2.32644 -3.54476 0
M  V30 3611 C 348.297 -0.868689 -3.25508 0
M  V30 3612 O 348.827 -0.0754908 -4.01629 0
M  V30 3613 N 347.033 -0.681711 -2.82491 0
M  V30 3614 H 346.58 -1.32838 -2.20708 0
M  V30 3615 H 346.538 0.126374 -3.14146 0
M  V30 3616 N 350.31 0.590341 -1.46126 0
M  V30 3617 C 351.556 1.35082 -1.51264 0
M  V30 3618 C 351.889 1.93534 -0.160711 0
M  V30 3619 O 351.164 1.76045 0.826956 0
M  V30 3620 C 351.447 2.48588 -2.6053 0
M  V30 3621 C 351.3 1.95221 -4.05227 0
M  V30 3622 C 352.619 3.50662 -2.6594 0
M  V30 3623 H 349.738 0.489803 -0.550692 0
M  V30 3624 H 352.38 0.663887 -1.78024 0
M  V30 3625 H 350.53 3.07186 -2.37843 0
M  V30 3626 H 352.202 1.41139 -4.39178 0
M  V30 3627 H 350.445 1.26101 -4.15068 0
M  V30 3628 H 351.116 2.77121 -4.77397 0
M  V30 3629 H 353.592 3.01934 -2.86313 0
M  V30 3630 H 352.468 4.27551 -3.44226 0
M  V30 3631 H 352.729 4.07399 -1.71694 0
M  V30 3632 N 351.788 1.33704 0.83433 0
M  V30 3633 C 353.065 1.16011 1.57483 0
M  V30 3634 C 353.445 -0.27176 2.09343 0
M  V30 3635 O 352.793 -1.27146 1.89858 0
M  V30 3636 C 353.003 2.20507 2.70514 0
M  V30 3637 C 354.351 2.54898 3.39577 0
M  V30 3638 O 355.375 2.19209 2.80759 0
M  V30 3639 O 354.234 3.16158 4.45765 0
M  V30 3640 H 351.328 0.448992 0.694503 0
M  V30 3641 H 353.874 1.453 0.876691 0
M  V30 3642 H 352.646 3.16667 2.29865 0
M  V30 3643 H 352.269 1.92329 3.47987 0
M  V30 3644 N 353.266 -1.05314 1.17247 0
M  V30 3645 C 354.514 -1.77941 0.958194 0
M  V30 3646 C 354.835 -1.88089 -0.514556 0
M  V30 3647 O 354.105 -1.39676 -1.37359 0
M  V30 3648 H 352.685 -0.659116 0.351533 0
M  V30 3649 H 355.347 -1.27166 1.47699 0
M  V30 3650 H 354.443 -2.79663 1.38546 0
M  V30 3651 N 354.744 -0.972509 -1.24016 0
M  V30 3652 C 355.993 -0.632603 -1.91523 0
M  V30 3653 C 356.306 0.836641 -1.76804 0
M  V30 3654 O 357.512 1.28728 -2.39043 0
M  V30 3655 C 355.968 -1.08082 -3.43287 0
M  V30 3656 C 355.576 -2.57386 -3.66683 0
M  V30 3657 C 357.32 -0.814288 -4.16617 0
M  V30 3658 C 355.227 -2.95915 -5.12043 0
M  V30 3659 H 354.157 -0.232898 -0.717129 0
M  V30 3660 H 356.808 -1.17936 -1.40582 0
M  V30 3661 H 355.19 -0.462339 -3.93292 0
M  V30 3662 H 356.364 -3.24405 -3.27258 0
M  V30 3663 H 354.679 -2.81701 -3.06649 0
M  V30 3664 H 357.276 -1.0781 -5.23718 0
M  V30 3665 H 357.619 0.24955 -4.15551 0
M  V30 3666 H 358.152 -1.39397 -3.72577 0
M  V30 3667 H 354.891 -4.0139 -5.18234 0
M  V30 3668 H 354.411 -2.33584 -5.52448 0
M  V30 3669 H 356.09 -2.86086 -5.80314 0
M  V30 3670 N 356.222 1.38976 -0.743202 0
M  V30 3671 C 357.169 2.30544 -0.10861 0
M  V30 3672 C 358.139 1.49642 0.720869 0
M  V30 3673 O 359.324 1.78304 0.679142 0
M  V30 3674 C 356.464 3.36018 0.786496 0
M  V30 3675 C 355.577 4.31963 -0.0564849 0
M  V30 3676 C 354.712 5.24506 0.840657 0
M  V30 3677 C 353.751 6.121 -0.00658363 0
M  V30 3678 N 352.888 6.96973 0.846943 0
M  V30 3679 H 357.728 2.8424 -0.895088 0
M  V30 3680 H 355.265 1.3995 -0.453048 0
M  V30 3681 H 357.223 3.95768 1.31999 0
M  V30 3682 H 355.853 2.83758 1.53887 0
M  V30 3683 H 354.905 3.73763 -0.707492 0
M  V30 3684 H 356.217 4.93703 -0.711229 0
M  V30 3685 H 355.371 5.89322 1.4417 0
M  V30 3686 H 354.11 4.63107 1.52916 0
M  V30 3687 H 353.115 5.46289 -0.620366 0
M  V30 3688 H 354.34 6.75565 -0.691992 0
M  V30 3689 H 352.286 6.38133 1.52059 0
M  V30 3690 H 352.203 7.5559 0.248864 0
M  V30 3691 H 353.471 7.6621 1.43328 0
M  V30 3692 N 357.7 0.491464 1.49741 0
M  V30 3693 C 358.928 -0.0535151 2.06831 0
M  V30 3694 C 359.343 -1.31683 1.35296 0
M  V30 3695 O 358.7 -1.77402 0.42836 0
M  V30 3696 C 358.751 -0.320835 3.60073 0
M  V30 3697 O 358.472 0.892394 4.28915 0
M  V30 3698 C 359.973 -0.910519 4.33848 0
M  V30 3699 H 357.193 0.0161909 0.670805 0
M  V30 3700 H 359.737 0.68609 1.92647 0
M  V30 3701 H 357.892 -1.0104 3.73991 0
M  V30 3702 H 358.306 0.649401 5.20464 0
M  V30 3703 H 359.78 -1.04721 5.41976 0
M  V30 3704 H 360.257 -1.90589 3.95692 0
M  V30 3705 H 360.863 -0.258712 4.24512 0
M  V30 3706 N 359.178 -1.55987 0.224894 0
M  V30 3707 C 360.426 -1.97998 -0.405099 0
M  V30 3708 C 360.747 -1.11387 -1.60056 0
M  V30 3709 O 360.017 -0.191645 -1.9496 0
M  V30 3710 H 358.597 -0.731235 -0.152658 0
M  V30 3711 H 361.259 -1.92279 0.318567 0
M  V30 3712 H 360.355 -3.03463 -0.729167 0
M  V30 3713 N 360.656 0.0484629 -1.57525 0
M  V30 3714 C 361.606 1.06246 -2.01732 0
M  V30 3715 C 362.59 1.33155 -0.903245 0
M  V30 3716 O 363.782 1.33065 -1.16717 0
M  V30 3717 C 360.911 2.36943 -2.48421 0
M  V30 3718 C 359.997 2.13208 -3.6661 0
M  V30 3719 N 360.388 1.5947 -4.80003 0
M  V30 3720 C 358.686 2.43581 -3.7361 0
M  V30 3721 C 359.387 1.51092 -5.61735 0
M  V30 3722 N 358.363 1.9797 -5.0627 0
M  V30 3723 H 362.165 0.640675 -2.86832 0
M  V30 3724 H 359.679 0.255134 -1.60383 0
M  V30 3725 H 361.676 3.10374 -2.78341 0
M  V30 3726 H 360.336 2.79818 -1.64718 0
M  V30 3727 H 361.347 1.28008 -5.01831 0
M  V30 3728 H 358.024 2.89662 -3.00669 0
M  V30 3729 H 359.414 1.10199 -6.62801 0
M  V30 3730 N 362.134 1.5431 0.320358 0
M  V30 3731 C 363.362 1.76636 1.07738 0
M  V30 3732 C 363.777 0.51649 1.81598 0
M  V30 3733 O 363.134 -0.512942 1.75143 0
M  V30 3734 C 363.185 2.96158 2.07299 0
M  V30 3735 O 362.906 4.16313 1.36438 0
M  V30 3736 C 364.407 3.3072 2.95193 0
M  V30 3737 H 361.627 0.589597 0.320339 0
M  V30 3738 H 364.171 2.01207 0.36551 0
M  V30 3739 H 362.326 2.73851 2.74016 0
M  V30 3740 H 362.74 4.83565 2.03138 0
M  V30 3741 H 364.214 4.17643 3.60941 0
M  V30 3742 H 364.691 2.48026 3.62463 0
M  V30 3743 H 365.297 3.55117 2.34034 0
M  V30 3744 N 363.613 -0.582584 1.46437 0
M  V30 3745 C 364.89 -1.34276 1.4223 0
M  V30 3746 C 365.27 -2.10835 0.10583 0
M  V30 3747 O 364.618 -2.09485 -0.912596 0
M  V30 3748 C 364.828 -2.26865 2.65204 0
M  V30 3749 C 366.176 -2.88691 3.11356 0
M  V30 3750 O 367.2 -2.37178 2.65753 0
M  V30 3751 O 366.059 -3.82255 3.90568 0
M  V30 3752 H 363.153 -0.603326 0.565621 0
M  V30 3753 H 365.699 -0.603591 1.58603 0
M  V30 3754 H 364.471 -1.69724 3.52576 0
M  V30 3755 H 364.094 -3.08122 2.5129 0
M  V30 3756 N 365.091 -1.34144 -0.827227 0
M  V30 3757 C 366.038 -1.25364 -1.93785 0
M  V30 3758 C 367.008 -0.129774 -1.65592 0
M  V30 3759 O 368.193 -0.310024 -1.88264 0
M  V30 3760 C 365.333 -1.01064 -3.2997 0
M  V30 3761 C 364.446 -2.22185 -3.70484 0
M  V30 3762 C 363.581 -1.91203 -4.95595 0
M  V30 3763 C 362.62 -3.08491 -5.28677 0
M  V30 3764 N 361.757 -2.77421 -6.44967 0
M  V30 3765 H 366.597 -2.20347 -2.00627 0
M  V30 3766 H 364.134 -1.09558 -0.981608 0
M  V30 3767 H 366.092 -0.850139 -4.08446 0
M  V30 3768 H 364.722 -0.0975026 -3.22653 0
M  V30 3769 H 363.774 -2.4917 -2.87434 0
M  V30 3770 H 365.086 -3.0983 -3.90905 0
M  V30 3771 H 364.24 -1.71864 -5.81848 0
M  V30 3772 H 362.979 -1.00812 -4.77167 0
M  V30 3773 H 361.984 -3.28431 -4.40923 0
M  V30 3774 H 363.209 -3.99655 -5.49047 0
M  V30 3775 H 361.155 -1.89601 -6.28003 0
M  V30 3776 H 361.072 -3.58598 -6.6554 0
M  V30 3777 H 362.34 -2.61577 -7.34301 0
M  V30 3778 N 366.569 1.04691 -1.17803 0
M  V30 3779 C 367.532 2.10724 -0.901545 0
M  V30 3780 C 368.532 1.6042 0.110437 0
M  V30 3781 O 369.722 1.7377 -0.122303 0
M  V30 3782 C 366.854 3.39084 -0.351409 0
M  V30 3783 H 368.047 2.36686 -1.84174 0
M  V30 3784 H 365.6 1.21015 -0.98919 0
M  V30 3785 H 366.335 3.18782 0.59569 0
M  V30 3786 H 366.12 3.76909 -1.08083 0
M  V30 3787 H 367.61 4.17227 -0.176451 0
M  V30 3788 N 368.047 0.979072 1.23499 0
M  V30 3789 C 369.295 0.645941 1.91499 0
M  V30 3790 C 369.616 -0.822948 1.76784 0
M  V30 3791 O 368.886 -1.58854 1.14639 0
M  V30 3792 H 367.466 0.235919 0.708767 0
M  V30 3793 H 370.128 1.2426 1.50152 0
M  V30 3794 H 369.224 0.896411 2.9895 0
M  V30 3795 N 369.525 -1.3858 0.750561 0
M  V30 3796 C 370.755 -2.04175 0.31564 0
M  V30 3797 C 371.163 -1.56726 -1.05989 0
M  V30 3798 O 370.506 -0.734225 -1.68389 0
M  V30 3799 C 370.568 -3.58585 0.256389 0
M  V30 3800 C 370.232 -4.29077 1.57296 0
M  V30 3801 C 371.229 -4.54656 2.52159 0
M  V30 3802 C 368.914 -4.67324 1.84156 0
M  V30 3803 C 370.908 -5.17512 3.72103 0
M  V30 3804 C 368.595 -5.29905 3.04374 0
M  V30 3805 C 369.593 -5.54933 3.98168 0
M  V30 3806 O 369.281 -6.16212 5.16273 0
M  V30 3807 H 369.013 -0.662742 0.133226 0
M  V30 3808 H 371.567 -1.78313 1.01948 0
M  V30 3809 H 369.797 -3.83406 -0.503677 0
M  V30 3810 H 371.486 -4.05628 -0.148612 0
M  V30 3811 H 372.252 -4.25539 2.32683 0
M  V30 3812 H 368.131 -4.47191 1.11988 0
M  V30 3813 H 371.675 -5.36963 4.45327 0
M  V30 3814 H 367.572 -5.58444 3.23745 0
M  V30 3815 H 368.34 -6.34701 5.16815 0
M  V30 3816 N 371.003 -0.499398 -1.49478 0
M  V30 3817 C 371.951 0.293604 -2.3074 0
M  V30 3818 C 372.945 0.96427 -1.39277 0
M  V30 3819 O 374.151 0.892141 -1.56336 0
M  V30 3820 H 370.526 0.113541 -0.743379 0
M  V30 3821 H 372.497 -0.411772 -2.95545 0
M  V30 3822 C 371.246 1.3462 -3.20582 0
M  V30 3823 H 370.569 0.83954 -3.90886 0
M  V30 3824 H 372.009 1.87308 -3.80384 0
M  V30 3825 C 370.468 2.36351 -2.40083 0
M  V30 3826 O 370.998 3.422 -2.10385 0
M  V30 3827 N 369.204 2.0878 -2.02137 0
M  V30 3828 H 368.751 1.22723 -2.26488 0
M  V30 3829 H 368.709 2.77075 -1.48583 0
M  V30 3830 N 372.481 1.55866 -0.233164 0
M  V30 3831 C 373.411 2.23783 0.666599 0
M  V30 3832 C 374.392 1.21343 1.19205 0
M  V30 3833 O 375.577 1.4996 1.23392 0
M  V30 3834 C 372.707 2.92671 1.86978 0
M  V30 3835 C 371.661 4.01682 1.47768 0
M  V30 3836 C 370.987 4.57926 2.76058 0
M  V30 3837 C 372.287 5.18126 0.658993 0
M  V30 3838 H 373.981 2.99232 0.100306 0
M  V30 3839 H 371.527 1.43924 0.046804 0
M  V30 3840 H 373.48 3.3888 2.50476 0
M  V30 3841 H 372.204 2.14688 2.46123 0
M  V30 3842 H 370.863 3.56222 0.866106 0
M  V30 3843 H 370.511 3.76659 3.33372 0
M  V30 3844 H 370.211 5.31505 2.50552 0
M  V30 3845 H 371.735 5.06859 3.40479 0
M  V30 3846 H 373.149 5.60644 1.19795 0
M  V30 3847 H 371.546 5.98009 0.500552 0
M  V30 3848 H 372.616 4.83763 -0.331856 0
M  V30 3849 N 373.959 -0.0401083 1.57549 0
M  V30 3850 C 375.205 -0.734211 1.89043 0
M  V30 3851 C 375.538 -1.75591 0.829535 0
M  V30 3852 O 374.813 -1.93868 -0.156706 0
M  V30 3853 C 375.096 -1.41374 3.31188 0
M  V30 3854 C 374.949 -0.406299 4.47961 0
M  V30 3855 C 376.268 -2.35061 3.72068 0
M  V30 3856 H 373.387 -0.265447 0.687537 0
M  V30 3857 H 376.029 0.00294087 1.9 0
M  V30 3858 H 374.179 -2.04206 3.30503 0
M  V30 3859 H 375.851 0.219255 4.60779 0
M  V30 3860 H 374.094 0.275485 4.32924 0
M  V30 3861 H 374.765 -0.920022 5.44279 0
M  V30 3862 H 377.241 -1.82282 3.74049 0
M  V30 3863 H 376.117 -2.79593 4.72355 0
M  V30 3864 H 376.378 -3.21258 3.0372 0
M  V30 3865 N 375.437 -1.54477 -0.31217 0
M  V30 3866 C 376.4 -1.83923 -1.36766 0
M  V30 3867 C 377.4 -0.711563 -1.44199 0
M  V30 3868 O 378.59 -0.979866 -1.44029 0
M  V30 3869 C 375.722 -2.0095 -2.75376 0
M  V30 3870 H 376.915 -2.78239 -1.11906 0
M  V30 3871 H 374.468 -1.46369 -0.548257 0
M  V30 3872 H 375.203 -1.08883 -3.05475 0
M  V30 3873 H 374.988 -2.83018 -2.71373 0
M  V30 3874 H 376.478 -2.2514 -3.51713 0
M  V30 3875 N 376.915 0.57481 -1.46744 0
M  V30 3876 C 378.14 1.36341 -1.56288 0
M  V30 3877 C 378.565 1.86954 -0.207347 0
M  V30 3878 O 377.923 1.62006 0.813871 0
M  V30 3879 C 377.971 2.52147 -2.57787 0
M  V30 3880 O 377.075 3.53834 -2.11838 0
M  V30 3881 H 376.416 0.405713 -0.525636 0
M  V30 3882 H 378.946 0.696453 -1.92382 0
M  V30 3883 H 378.956 2.98958 -2.77648 0
M  V30 3884 H 377.631 2.14663 -3.5622 0
M  V30 3885 H 376.208 3.1345 -2.01999 0
M  V30 3886 N 378.394 1.34581 0.820102 0
M  V30 3887 C 379.357 1.2628 1.91275 0
M  V30 3888 C 380.357 0.177344 1.59819 0
M  V30 3889 O 381.547 0.430156 1.68806 0
M  V30 3890 C 378.679 0.950327 3.27386 0
M  V30 3891 H 379.872 2.23421 2.00057 0
M  V30 3892 H 377.425 1.1891 1.0144 0
M  V30 3893 H 378.16 -0.0177938 3.24295 0
M  V30 3894 H 377.945 1.73549 3.51601 0
M  V30 3895 H 379.435 0.917492 4.07396 0
M  V30 3896 N 379.872 -1.04064 1.18357 0
M  V30 3897 C 381.1 -1.80916 1.00384 0
M  V30 3898 C 381.515 -1.83414 -0.447738 0
M  V30 3899 O 380.872 -1.26962 -1.31099 0
M  V30 3900 C 380.923 -3.26516 1.55144 0
M  V30 3901 O 380.644 -3.2424 2.94618 0
M  V30 3902 C 382.145 -4.20013 1.41789 0
M  V30 3903 H 379.365 -0.569728 0.354474 0
M  V30 3904 H 381.909 -1.31151 1.56906 0
M  V30 3905 H 380.064 -3.73512 1.02798 0
M  V30 3906 H 380.478 -4.15452 3.20156 0
M  V30 3907 H 381.952 -5.20111 1.84901 0
M  V30 3908 H 382.429 -4.37667 0.36661 0
M  V30 3909 H 383.035 -3.78881 1.93207 0
M  V30 3910 N 381.35 -0.985608 -1.22978 0
M  V30 3911 C 382.26 -0.538548 -2.28335 0
M  V30 3912 C 383.276 0.409163 -1.69121 0
M  V30 3913 O 384.452 0.277797 -1.99475 0
M  V30 3914 C 381.517 0.146867 -3.46389 0
M  V30 3915 C 380.578 -0.842896 -4.20944 0
M  V30 3916 C 379.811 -0.190095 -5.33361 0
M  V30 3917 O 380.034 1.01767 -5.61248 0
M  V30 3918 O 378.968 -0.891289 -5.95264 0
M  V30 3919 H 382.794 -1.41487 -2.68729 0
M  V30 3920 H 380.379 -0.753495 -1.29007 0
M  V30 3921 H 382.261 0.531125 -4.1804 0
M  V30 3922 H 380.936 0.997871 -3.07935 0
M  V30 3923 H 379.843 -1.27795 -3.51595 0
M  V30 3924 H 381.176 -1.66287 -4.6326 0
M  V30 3925 N 382.828 1.3818 -0.7579 0
M  V30 3926 C 384.076 1.99624 -0.315361 0
M  V30 3927 C 384.397 1.60464 1.10799 0
M  V30 3928 O 383.667 0.863507 1.75842 0
M  V30 3929 H 382.247 0.73831 -0.113611 0
M  V30 3930 H 384.909 1.68878 -0.972952 0
M  V30 3931 H 384.005 3.09754 -0.381931 0
M  V30 3932 N 384.306 0.507319 1.49211 0
M  V30 3933 C 385.238 -0.304532 2.27168 0
M  V30 3934 C 386.251 -0.924956 1.33972 0
M  V30 3935 O 387.44 -0.807227 1.59205 0
M  V30 3936 C 384.54 -1.44431 3.06583 0
M  V30 3937 C 383.713 -0.930026 4.27398 0
M  V30 3938 C 382.772 -1.94817 4.88807 0
M  V30 3939 O 381.798 -1.51418 5.4869 0
M  V30 3940 N 383 -3.279 4.79022 0
M  V30 3941 H 385.765 0.36395 2.97482 0
M  V30 3942 H 383.326 0.340249 1.58284 0
M  V30 3943 H 385.318 -2.12311 3.44537 0
M  V30 3944 H 383.888 -2.01684 2.38835 0
M  V30 3945 H 383.108 -0.0759244 3.94127 0
M  V30 3946 H 384.396 -0.564932 5.05654 0
M  V30 3947 H 383.794 -3.65843 4.3148 0
M  V30 3948 H 382.351 -3.91476 5.21142 0
M  V30 3949 N 385.784 -1.5574 0.241426 0
M  V30 3950 C 386.717 -2.17168 -0.700935 0
M  V30 3951 C 387.695 -1.12206 -1.1768 0
M  V30 3952 O 388.879 -1.40565 -1.25593 0
M  V30 3953 C 386.006 -2.76796 -1.95196 0
M  V30 3954 C 385.052 -3.94764 -1.61442 0
M  V30 3955 S 385.885 -5.30613 -0.72182 0
M  V30 3956 C 387.041 -5.93691 -1.98197 0
M  V30 3957 H 387.274 -2.96761 -0.178882 0
M  V30 3958 H 384.807 -1.54378 0.0259299 0
M  V30 3959 H 386.765 -3.11787 -2.67019 0
M  V30 3960 H 385.426 -1.9716 -2.44514 0
M  V30 3961 H 384.619 -4.35057 -2.54443 0
M  V30 3962 H 384.221 -3.61022 -0.976672 0
M  V30 3963 H 386.513 -6.10874 -2.92983 0
M  V30 3964 H 387.456 -6.89258 -1.62262 0
M  V30 3965 H 387.864 -5.22709 -2.13156 0
M  V30 3966 N 387.262 0.0317525 -1.57568 0
M  V30 3967 C 388.678 0.38735 -1.54828 0
M  V30 3968 C 388.878 1.7677 -0.967187 0
M  V30 3969 O 387.934 2.45581 -0.587063 0
M  V30 3970 C 389.247 0.291667 -2.99282 0
M  V30 3971 C 390.795 0.368946 -3.10818 0
M  V30 3972 C 391.27 0.302741 -4.56998 0
M  V30 3973 N 392.761 0.361617 -4.61786 0
M  V30 3974 C 393.496 0.333238 -5.72431 0
M  V30 3975 N 392.992 0.257308 -6.92322 0
M  V30 3976 N 394.785 0.382769 -5.60795 0
M  V30 3977 H 386.936 -0.871609 -1.93692 0
M  V30 3978 H 389.199 -0.331161 -0.888277 0
M  V30 3979 H 388.905 -0.656794 -3.45513 0
M  V30 3980 H 388.779 1.08638 -3.61217 0
M  V30 3981 H 391.166 1.30784 -2.64536 0
M  V30 3982 H 391.247 -0.455066 -2.5172 0
M  V30 3983 H 390.891 -0.632473 -5.03947 0
M  V30 3984 H 390.821 1.14482 -5.14005 0
M  V30 3985 H 393.312 0.422923 -3.75526 0
M  V30 3986 H 393.625 0.24068 -7.72425 0
M  V30 3987 H 391.97 0.223396 -6.94641 0
M  V30 3988 H 395.161 0.44006 -4.66027 0
M  V30 3989 H 395.334 0.357184 -6.47015 0
M  V30 3990 N 388.74 1.54641 0.303973 0
M  V30 3991 C 389.67 1.88386 1.3796 0
M  V30 3992 C 390.651 0.742485 1.5304 0
M  V30 3993 O 391.836 0.997959 1.66597 0
M  V30 3994 C 388.966 2.12854 2.74427 0
M  V30 3995 C 387.92 3.28702 2.74115 0
M  V30 3996 C 387.246 3.38582 4.13844 0
M  V30 3997 C 388.546 4.65881 2.3612 0
M  V30 3998 H 390.24 2.78474 1.09966 0
M  V30 3999 H 387.786 1.33988 0.527556 0
M  V30 4000 H 389.739 2.35047 3.49758 0
M  V30 4001 H 388.463 1.19535 3.03939 0
M  V30 4002 H 387.122 3.06428 2.0124 0
M  V30 4003 H 386.77 2.42784 4.40528 0
M  V30 4004 H 386.47 4.16453 4.14537 0
M  V30 4005 H 387.994 3.63031 4.90959 0
M  V30 4006 H 389.408 4.87823 3.01167 0
M  V30 4007 H 387.805 5.46444 2.48031 0
M  V30 4008 H 388.875 4.66799 1.3125 0
M  V30 4009 N 390.218 -0.567019 1.47046 0
M  V30 4010 C 391.467 -1.32091 1.5243 0
M  V30 4011 C 391.78 -1.94704 0.187021 0
M  V30 4012 O 392.986 -2.7124 0.118771 0
M  V30 4013 C 391.442 -2.39479 2.68659 0
M  V30 4014 C 391.05 -1.831 4.08874 0
M  V30 4015 C 392.794 -3.16111 2.83327 0
M  V30 4016 C 390.701 -2.8821 5.16419 0
M  V30 4017 H 389.631 -0.496629 0.56734 0
M  V30 4018 H 392.282 -0.603354 1.73297 0
M  V30 4019 H 390.664 -3.14105 2.41152 0
M  V30 4020 H 391.838 -1.14913 4.46242 0
M  V30 4021 H 390.153 -1.19085 3.99008 0
M  V30 4022 H 392.75 -3.94585 3.60842 0
M  V30 4023 H 393.093 -3.69686 1.91411 0
M  V30 4024 H 393.626 -2.48595 3.10556 0
M  V30 4025 H 390.365 -2.39504 6.10179 0
M  V30 4026 H 389.885 -3.54839 4.8358 0
M  V30 4027 H 391.564 -3.51881 5.42945 0
M  V30 4028 N 391.696 -1.35014 -0.812953 0
M  V30 4029 C 392.921 -1.31187 -1.60639 0
M  V30 4030 C 393.346 0.109382 -1.87782 0
M  V30 4031 O 392.704 1.07424 -1.46047 0
M  V30 4032 C 392.752 -2.11809 -2.91838 0
M  V30 4033 O 391.856 -1.49444 -3.8437 0
M  V30 4034 H 391.197 -0.450084 -0.488181 0
M  V30 4035 H 393.727 -1.77963 -1.00947 0
M  V30 4036 H 393.737 -2.23531 -3.41318 0
M  V30 4037 H 392.412 -3.15137 -2.71407 0
M  V30 4038 H 390.989 -1.46524 -3.42907 0
M  V30 4039 N 393.175 1.03435 -1.18907 0
M  V30 4040 C 394.138 2.09756 -0.923844 0
M  V30 4041 C 395.138 1.60528 0.093416 0
M  V30 4042 O 396.328 1.73631 -0.140727 0
M  V30 4043 C 393.46 3.38692 -0.387354 0
M  V30 4044 H 394.653 2.34719 -1.86674 0
M  V30 4045 H 392.206 1.19959 -1.00197 0
M  V30 4046 H 392.941 3.19396 0.561845 0
M  V30 4047 H 392.726 3.75742 -1.12074 0
M  V30 4048 H 394.216 4.17016 -0.220694 0
M  V30 4049 N 394.653 0.992116 1.22453 0
M  V30 4050 C 395.899 0.668523 1.91464 0
M  V30 4051 C 396.232 -0.797313 1.77078 0
M  V30 4052 O 395.507 -1.5765 1.13916 0
M  V30 4053 C 395.79 1.07424 3.43703 0
M  V30 4054 C 395.643 2.59857 3.67143 0
M  V30 4055 C 396.962 0.626891 4.35612 0
M  V30 4056 H 394.081 0.244341 0.695318 0
M  V30 4057 H 396.723 1.2355 1.44345 0
M  V30 4058 H 394.873 0.591816 3.83966 0
M  V30 4059 H 396.545 3.15764 3.3629 0
M  V30 4060 H 394.788 3.01961 3.11451 0
M  V30 4061 H 395.459 2.83296 4.73759 0
M  V30 4062 H 397.935 1.04125 4.02861 0
M  V30 4063 H 396.811 0.939076 5.40807 0
M  V30 4064 H 397.072 -0.472457 4.39568 0
M  V30 4065 N 396.131 -1.37776 0.765217 0
M  V30 4066 C 397.064 -2.28008 0.0935025 0
M  V30 4067 C 398.042 -1.45985 -0.716047 0
M  V30 4068 O 399.226 -1.75331 -0.692203 0
M  V30 4069 C 396.353 -3.27228 -0.874052 0
M  V30 4070 C 395.399 -4.26239 -0.149307 0
M  V30 4071 S 396.232 -5.22827 1.15809 0
M  V30 4072 C 397.388 -6.256 0.193906 0
M  V30 4073 H 397.621 -2.84631 0.858637 0
M  V30 4074 H 395.154 -1.43952 0.558313 0
M  V30 4075 H 397.112 -3.84902 -1.42691 0
M  V30 4076 H 395.773 -2.69565 -1.61225 0
M  V30 4077 H 394.966 -4.96213 -0.88254 0
M  V30 4078 H 394.568 -3.7252 0.332366 0
M  V30 4079 H 396.86 -6.74508 -0.636011 0
M  V30 4080 H 397.803 -7.02838 0.861638 0
M  V30 4081 H 398.211 -5.64173 -0.191975 0
M  V30 4082 N 397.609 -0.515225 -1.4894 0
M  V30 4083 C 398.857 0.0241671 -2.02086 0
M  V30 4084 C 399.178 1.3616 -1.3959 0
M  V30 4085 O 398.448 1.87841 -0.556121 0
M  V30 4086 H 397.028 0.0119203 -0.746905 0
M  V30 4087 H 399.69 -0.675702 -1.82812 0
M  V30 4088 H 398.786 0.143385 -3.1177 0
M  V30 4089 N 399.087 1.5561 -0.249682 0
M  V30 4090 C 400.335 1.98618 0.373548 0
M  V30 4091 C 400.656 1.13919 1.58264 0
M  V30 4092 O 399.926 0.222637 1.94631 0
M  V30 4093 H 398.506 0.733571 0.141006 0
M  V30 4094 H 401.168 1.91748 -0.349117 0
M  V30 4095 H 400.264 3.04584 0.680796 0
M  V30 4096 N 400.565 -0.0233959 1.57583 0
M  V30 4097 C 401.981 -0.379134 1.55031 0
M  V30 4098 C 402.181 -1.76255 0.976548 0
M  V30 4099 O 401.237 -2.45266 0.600078 0
M  V30 4100 C 402.55 -0.275792 2.99433 0
M  V30 4101 C 404.098 -0.352458 3.11009 0
M  V30 4102 C 404.573 -0.278501 4.57152 0
M  V30 4103 N 406.064 -0.337123 4.61972 0
M  V30 4104 C 406.799 -0.302876 5.726 0
M  V30 4105 N 406.295 -0.220589 6.92449 0
M  V30 4106 N 408.088 -0.353023 5.6099 0
M  V30 4107 H 400.239 0.881869 1.93227 0
M  V30 4108 H 402.502 0.335867 0.886509 0
M  V30 4109 H 402.208 0.675108 3.4516 0
M  V30 4110 H 402.082 -1.06721 3.61788 0
M  V30 4111 H 404.469 -1.29379 2.65226 0
M  V30 4112 H 404.55 0.468409 2.51475 0
M  V30 4113 H 404.194 0.659189 5.03604 0
M  V30 4114 H 404.124 -1.11755 5.14605 0
M  V30 4115 H 406.615 -0.403002 3.75745 0
M  V30 4116 H 406.928 -0.199713 7.72542 0
M  V30 4117 H 405.273 -0.186555 6.9475 0
M  V30 4118 H 408.464 -0.415339 4.66254 0
M  V30 4119 H 408.637 -0.322866 6.47195 0
M  V30 4120 N 402.043 -1.548 -0.295768 0
M  V30 4121 C 403.271 -1.78327 -1.04914 0
M  V30 4122 C 403.686 -0.545316 -1.80753 0
M  V30 4123 O 403.043 0.485013 -1.75937 0
M  V30 4124 C 403.094 -2.99418 -2.02561 0
M  V30 4125 O 402.815 -4.18431 -1.29798 0
M  V30 4126 C 404.316 -3.35375 -2.89895 0
M  V30 4127 H 401.536 -0.594618 -0.310918 0
M  V30 4128 H 404.08 -2.01763 -0.333454 0
M  V30 4129 H 402.235 -2.78175 -2.69624 0
M  V30 4130 H 402.649 -4.86736 -1.95419 0
M  V30 4131 H 404.123 -4.23332 -3.54251 0
M  V30 4132 H 404.6 -2.53761 -3.58472 0
M  V30 4133 H 405.206 -3.58796 -2.28355 0
M  V30 4134 N 403.521 0.559213 -1.47345 0
M  V30 4135 C 404.768 1.31648 -1.53867 0
M  V30 4136 C 405.096 1.93468 -0.200104 0
M  V30 4137 O 404.351 1.78295 0.806799 0
M  V30 4138 C 404.65 2.44853 -2.6035 0
M  V30 4139 C 404.316 2.00876 -4.03683 0
M  V30 4140 C 402.978 1.88599 -4.42701 0
M  V30 4141 C 405.33 1.67279 -4.93626 0
M  V30 4142 C 402.658 1.41017 -5.69501 0
M  V30 4143 C 405.01 1.21169 -6.20887 0
M  V30 4144 C 403.674 1.07487 -6.58789 0
M  V30 4145 H 402.944 0.481734 -0.56304 0
M  V30 4146 H 405.591 0.627301 -1.80934 0
M  V30 4147 H 403.896 3.19318 -2.27032 0
M  V30 4148 H 405.593 3.03039 -2.62619 0
M  V30 4149 H 402.183 2.11374 -3.72853 0
M  V30 4150 H 406.367 1.75638 -4.64182 0
M  V30 4151 H 401.623 1.29086 -5.97618 0
M  V30 4152 H 405.797 0.942345 -6.89995 0
M  V30 4153 H 403.424 0.703946 -7.56934 0
M  V30 4154 N 404.999 1.35443 0.805782 0
M  V30 4155 C 405.946 1.28431 1.91766 0
M  V30 4156 C 406.916 0.156102 1.65365 0
M  V30 4157 O 408.101 0.339936 1.87747 0
M  V30 4158 C 405.241 1.06301 3.2832 0
M  V30 4159 C 404.354 2.2805 3.66902 0
M  V30 4160 C 403.489 1.99064 4.92491 0
M  V30 4161 C 402.528 3.16863 5.23703 0
M  V30 4162 N 401.665 2.87647 6.40471 0
M  V30 4163 H 406.505 2.23511 1.97096 0
M  V30 4164 H 404.042 1.11105 0.964054 0
M  V30 4165 H 406 0.915012 4.07042 0
M  V30 4166 H 404.63 0.148822 3.22457 0
M  V30 4167 H 403.682 2.53711 2.83434 0
M  V30 4168 H 404.994 3.1601 3.85927 0
M  V30 4169 H 404.148 1.81099 5.7904 0
M  V30 4170 H 402.887 1.0839 4.75503 0
M  V30 4171 H 401.892 3.35404 4.35642 0
M  V30 4172 H 403.117 4.08339 5.4262 0
M  V30 4173 H 401.063 1.99568 6.24907 0
M  V30 4174 H 400.98 3.69141 6.59751 0
M  V30 4175 H 402.248 2.73226 7.30047 0
M  V30 4176 N 406.477 -1.02803 1.19454 0
M  V30 4177 C 407.725 -1.75869 0.995722 0
M  V30 4178 C 408.046 -1.89138 -0.474543 0
M  V30 4179 O 407.316 -1.42558 -1.34366 0
M  V30 4180 H 405.896 -0.651511 0.365435 0
M  V30 4181 H 408.558 -1.24004 1.50363 0
M  V30 4182 H 407.654 -2.76661 1.44447 0
M  V30 4183 N 407.956 -0.998596 -1.21925 0
M  V30 4184 C 409.372 -0.710303 -1.42923 0
M  V30 4185 C 409.572 0.716933 -1.88314 0
M  V30 4186 O 408.628 1.48712 -2.04062 0
M  V30 4187 C 409.941 -1.72072 -2.466 0
M  V30 4188 C 411.489 -1.73681 -2.60392 0
M  V30 4189 C 411.964 -2.73601 -3.67296 0
M  V30 4190 N 413.455 -2.7223 -3.7476 0
M  V30 4191 C 414.19 -3.46206 -4.57087 0
M  V30 4192 N 413.686 -4.29802 -5.43362 0
M  V30 4193 N 415.479 -3.34886 -4.51451 0
M  V30 4194 H 407.63 -1.92028 -0.9077 0
M  V30 4195 H 409.893 -0.828487 -0.460775 0
M  V30 4196 H 409.599 -2.74231 -2.20206 0
M  V30 4197 H 409.473 -1.51818 -3.45299 0
M  V30 4198 H 411.86 -0.722173 -2.86127 0
M  V30 4199 H 411.941 -1.98005 -1.61949 0
M  V30 4200 H 411.585 -3.75217 -3.42307 0
M  V30 4201 H 411.515 -2.46545 -4.65321 0
M  V30 4202 H 414.006 -2.11576 -3.1312 0
M  V30 4203 H 414.319 -4.83061 -6.03218 0
M  V30 4204 H 412.664 -4.33887 -5.42925 0
M  V30 4205 H 415.855 -2.69015 -3.83078 0
M  V30 4206 H 416.028 -3.92796 -5.15379 0
M  V30 4207 N 409.434 1.37368 -0.772513 0
M  V30 4208 C 410.344 2.34053 -0.160081 0
M  V30 4209 C 411.36 1.60216 0.678728 0
M  V30 4210 O 412.536 1.92303 0.59847 0
M  V30 4211 C 409.601 3.3939 0.708182 0
M  V30 4212 C 408.662 4.29048 -0.147172 0
M  V30 4213 C 407.895 5.29354 0.679744 0
M  V30 4214 O 408.118 5.3723 1.91678 0
M  V30 4215 O 407.052 6.01835 0.0885444 0
M  V30 4216 H 410.878 2.88159 -0.959053 0
M  V30 4217 H 408.463 1.39543 -0.533685 0
M  V30 4218 H 410.345 4.03839 1.20384 0
M  V30 4219 H 409.02 2.8761 1.48533 0
M  V30 4220 H 407.927 3.67697 -0.689205 0
M  V30 4221 H 409.26 4.84134 -0.887423 0
M  V30 4222 N 410.912 0.523116 1.48665 0
M  V30 4223 C 411.875 -0.232592 2.28017 0
M  V30 4224 C 412.875 -0.874021 1.34972 0
M  V30 4225 O 414.065 -0.735132 1.57929 0
M  V30 4226 C 411.197 -1.33586 3.13636 0
M  V30 4227 H 412.39 0.464008 2.96289 0
M  V30 4228 H 409.943 0.278816 1.53793 0
M  V30 4229 H 410.678 -2.06593 2.4998 0
M  V30 4230 H 410.463 -0.881125 3.82071 0
M  V30 4231 H 411.953 -1.86759 3.73511 0
M  V30 4232 N 412.39 -1.55475 0.257931 0
M  V30 4233 C 413.3 -2.2549 -0.647425 0
M  V30 4234 C 414.316 -1.2748 -1.18427 0
M  V30 4235 O 415.492 -1.6038 -1.2182 0
M  V30 4236 C 412.557 -2.94916 -1.82278 0
M  V30 4237 C 411.618 -4.08363 -1.32432 0
M  V30 4238 C 410.851 -4.74469 -2.44366 0
M  V30 4239 O 411.074 -4.39701 -3.63344 0
M  V30 4240 O 410.008 -5.62763 -2.13497 0
M  V30 4241 H 413.834 -3.03593 -0.0807707 0
M  V30 4242 H 411.419 -1.49377 0.0259962 0
M  V30 4243 H 413.301 -3.38606 -2.50846 0
M  V30 4244 H 411.976 -2.19744 -2.37685 0
M  V30 4245 H 410.883 -3.69166 -0.605605 0
M  V30 4246 H 412.216 -4.85385 -0.816211 0
M  V30 4247 N 413.868 0.0150385 -1.57593 0
M  V30 4248 C 415.093 0.718067 -1.94573 0
M  V30 4249 C 415.518 1.6734 -0.859005 0
M  V30 4250 O 414.876 1.80362 0.184147 0
M  V30 4251 C 414.924 1.43918 -3.30636 0
M  V30 4252 O 414.028 2.55299 -3.23876 0
M  V30 4253 H 413.369 0.192125 -0.635597 0
M  V30 4254 H 415.899 -0.0336708 -2.04572 0
M  V30 4255 H 415.909 1.80598 -3.65853 0
M  V30 4256 H 414.584 0.738619 -4.09289 0
M  V30 4257 H 413.161 2.21058 -3.00312 0
M  V30 4258 N 415.346 1.54954 0.287554 0
M  V30 4259 C 416.293 1.86834 1.35505 0
M  V30 4260 C 417.263 0.718452 1.49758 0
M  V30 4261 O 418.448 0.968358 1.644 0
M  V30 4262 C 415.588 2.13303 2.71286 0
M  V30 4263 C 414.701 3.40883 2.65373 0
M  V30 4264 C 413.836 3.57125 3.93236 0
M  V30 4265 C 412.875 4.78449 3.81776 0
M  V30 4266 N 412.012 4.91426 5.01443 0
M  V30 4267 H 416.852 2.77889 1.07619 0
M  V30 4268 H 414.389 1.37593 0.520241 0
M  V30 4269 H 416.347 2.26646 3.50267 0
M  V30 4270 H 414.977 1.25499 2.97405 0
M  V30 4271 H 414.029 3.36088 1.78182 0
M  V30 4272 H 415.341 4.29993 2.52799 0
M  V30 4273 H 414.495 3.70207 4.80658 0
M  V30 4274 H 413.234 2.66173 4.0866 0
M  V30 4275 H 412.239 4.65386 2.92738 0
M  V30 4276 H 413.464 5.70822 3.67884 0
M  V30 4277 H 411.41 4.03401 5.17304 0
M  V30 4278 H 411.327 5.74559 4.91343 0
M  V30 4279 H 412.595 5.08879 5.90477 0
M  V30 4280 N 416.824 -0.551391 1.4764 0
M  V30 4281 C 417.771 -1.65796 1.60563 0
M  V30 4282 C 418.741 -1.59932 0.448428 0
M  V30 4283 O 419.926 -1.78679 0.669222 0
M  V30 4284 C 417.066 -3.04108 1.63133 0
M  V30 4285 C 416.179 -3.20365 2.89811 0
M  V30 4286 C 415.314 -4.49109 2.8368 0
M  V30 4287 C 414.353 -4.58819 4.05156 0
M  V30 4288 N 413.49 -5.78926 3.97227 0
M  V30 4289 H 418.33 -1.54088 2.5507 0
M  V30 4290 H 415.867 -0.75052 1.26513 0
M  V30 4291 H 417.825 -3.84207 1.62606 0
M  V30 4292 H 416.455 -3.14637 0.721341 0
M  V30 4293 H 415.507 -2.33659 3.00179 0
M  V30 4294 H 416.819 -3.23402 3.79753 0
M  V30 4295 H 415.973 -5.37475 2.81434 0
M  V30 4296 H 414.712 -4.4856 1.91431 0
M  V30 4297 H 413.717 -3.68864 4.077 0
M  V30 4298 H 414.942 -4.61124 4.98539 0
M  V30 4299 H 412.888 -5.79314 3.07785 0
M  V30 4300 H 412.805 -5.83367 4.80853 0
M  V30 4301 H 414.073 -6.69637 3.99007 0
M  V30 4302 N 418.302 -1.35869 -0.798587 0
M  V30 4303 C 419.232 -1.32118 -1.92528 0
M  V30 4304 C 420.213 -0.194209 -1.68988 0
M  V30 4305 O 421.398 -0.390426 -1.90235 0
M  V30 4306 C 418.528 -1.10047 -3.29404 0
M  V30 4307 C 417.482 -2.19471 -3.67446 0
M  V30 4308 C 416.808 -1.82555 -5.02571 0
M  V30 4309 C 418.108 -3.61495 -3.76987 0
M  V30 4310 H 419.802 -2.26394 -1.95924 0
M  V30 4311 H 417.348 -1.08981 -0.94123 0
M  V30 4312 H 419.301 -1.06061 -4.07835 0
M  V30 4313 H 418.025 -0.122195 -3.26371 0
M  V30 4314 H 416.684 -2.22568 -2.91306 0
M  V30 4315 H 416.332 -0.833249 -4.9605 0
M  V30 4316 H 416.032 -2.5581 -5.28995 0
M  V30 4317 H 417.556 -1.80108 -5.83432 0
M  V30 4318 H 418.97 -3.60676 -4.4563 0
M  V30 4319 H 417.367 -4.33577 -4.14887 0
M  V30 4320 H 418.437 -3.97065 -2.78329 0
M  V30 4321 N 419.78 1.02168 -1.19998 0
M  V30 4322 C 420.71 2.12488 -0.96804 0
M  V30 4323 C 421.691 1.69799 0.101185 0
M  V30 4324 O 422.876 1.94121 -0.0552993 0
M  V30 4325 C 420.006 3.43479 -0.513776 0
M  V30 4326 C 418.96 3.99884 -1.52566 0
M  V30 4327 C 418.286 5.26582 -0.928214 0
M  V30 4328 C 419.586 4.33861 -2.90795 0
M  V30 4329 H 421.28 2.32149 -1.89069 0
M  V30 4330 H 418.826 1.11564 -0.910468 0
M  V30 4331 H 420.779 4.20036 -0.338774 0
M  V30 4332 H 419.503 3.23561 0.444493 0
M  V30 4333 H 418.162 3.25429 -1.68794 0
M  V30 4334 H 417.81 5.02986 0.0378289 0
M  V30 4335 H 417.51 5.65284 -1.60397 0
M  V30 4336 H 419.034 6.05799 -0.764167 0
M  V30 4337 H 420.448 5.01327 -2.78109 0
M  V30 4338 H 418.845 4.83664 -3.55231 0
M  V30 4339 H 419.915 3.42848 -3.42904 0
M  V30 4340 N 421.258 1.00505 1.21394 0
M  V30 4341 C 422.486 0.706609 1.9446 0
M  V30 4342 C 422.901 -0.73081 1.74082 0
M  V30 4343 O 422.258 -1.49446 1.04747 0
M  V30 4344 C 422.309 1.01824 3.46863 0
M  V30 4345 O 422.03 2.39919 3.66566 0
M  V30 4346 C 423.531 0.739216 4.37093 0
M  V30 4347 H 420.751 0.260394 0.618414 0
M  V30 4348 H 423.295 1.34311 1.54211 0
M  V30 4349 H 421.45 0.427343 3.85036 0
M  V30 4350 H 421.864 2.50784 4.6066 0
M  V30 4351 H 423.338 1.00744 5.42729 0
M  V30 4352 H 423.815 -0.326746 4.37983 0
M  V30 4353 H 424.421 1.31173 4.04566 0
M  V30 4354 N 422.737 -1.36956 0.779787 0
M  V30 4355 C 423.983 -2.00237 0.357324 0
M  V30 4356 C 424.338 -1.60787 -1.05666 0
M  V30 4357 O 423.631 -0.847836 -1.71821 0
M  V30 4358 C 423.825 -3.54585 0.447686 0
M  V30 4359 C 423.654 -4.09025 1.86891 0
M  V30 4360 C 422.424 -4.39612 2.49138 0
M  V30 4361 C 424.622 -4.29461 2.82963 0
M  V30 4362 N 422.604 -4.79816 3.82949 0
M  V30 4363 C 423.975 -4.72363 4.01588 0
M  V30 4364 C 426.03 -4.1161 2.80145 0
M  V30 4365 C 424.733 -4.99284 5.17791 0
M  V30 4366 C 426.759 -4.39672 3.95528 0
M  V30 4367 C 426.121 -4.82822 5.12896 0
M  V30 4368 H 422.22 -0.76148 0.177968 0
M  V30 4369 H 424.804 -1.6613 1.01533 0
M  V30 4370 H 422.975 -3.87982 -0.180184 0
M  V30 4371 H 424.707 -4.047 0.0023955 0
M  V30 4372 H 421.462 -4.28975 2.00693 0
M  V30 4373 H 421.886 -5.04216 4.51769 0
M  V30 4374 H 426.528 -3.77415 1.90572 0
M  V30 4375 H 424.246 -5.32365 6.07958 0
M  V30 4376 H 427.832 -4.27441 3.94697 0
M  V30 4377 H 426.712 -5.04118 6.00695 0
M  V30 4378 N 424.215 -0.530993 -1.48385 0
M  V30 4379 C 425.463 0.00273189 -2.021 0
M  V30 4380 C 425.784 1.34672 -1.41027 0
M  V30 4381 O 425.054 1.8724 -0.576012 0
M  V30 4382 H 423.634 0.00399774 -0.746989 0
M  V30 4383 H 426.296 -0.695054 -1.82085 0
M  V30 4384 H 425.392 0.11031 -3.11905 0
M  V30 4385 N 425.693 1.55336 -0.266172 0
M  V30 4386 C 426.94 1.99397 0.353158 0
M  V30 4387 C 427.268 1.15451 1.56529 0
M  V30 4388 O 426.523 0.209974 1.9457 0
M  V30 4389 C 426.822 3.48606 0.787957 0
M  V30 4390 C 426.488 4.49773 -0.318541 0
M  V30 4391 C 425.15 4.77158 -0.62239 0
M  V30 4392 C 427.502 5.10212 -1.06459 0
M  V30 4393 C 424.83 5.62251 -1.67602 0
M  V30 4394 C 427.182 5.96449 -2.10788 0
M  V30 4395 C 425.846 6.22158 -2.41817 0
M  V30 4396 H 425.116 0.729644 0.12923 0
M  V30 4397 H 427.763 1.87732 -0.37802 0
M  V30 4398 H 426.068 3.57701 1.59866 0
M  V30 4399 H 427.765 3.80098 1.27775 0
M  V30 4400 H 424.355 4.2854 -0.0715925 0
M  V30 4401 H 428.539 4.89086 -0.843098 0
M  V30 4402 H 423.795 5.80419 -1.92155 0
M  V30 4403 H 427.969 6.42317 -2.69076 0
M  V30 4404 H 425.596 6.87888 -3.23596 0
M  V30 4405 N 427.171 -0.0066808 1.57599 0
M  V30 4406 C 428.587 -0.36267 1.55425 0
M  V30 4407 C 428.787 -1.75209 0.995187 0
M  V30 4408 O 427.843 -2.44616 0.626058 0
M  V30 4409 C 429.156 -0.244017 2.99708 0
M  V30 4410 C 430.704 -0.319451 3.11366 0
M  V30 4411 C 431.179 -0.229998 4.57422 0
M  V30 4412 N 432.67 -0.288105 4.62303 0
M  V30 4413 C 433.405 -0.242127 5.72889 0
M  V30 4414 N 432.901 -0.147133 6.92644 0
M  V30 4415 N 434.694 -0.293502 5.61333 0
M  V30 4416 H 426.845 0.902314 1.92281 0
M  V30 4417 H 429.108 0.34525 0.882896 0
M  V30 4418 H 428.814 0.711678 3.44424 0
M  V30 4419 H 428.688 -1.02877 3.629 0
M  V30 4420 H 431.075 -1.26559 2.66584 0
M  V30 4421 H 431.156 0.495055 2.50964 0
M  V30 4422 H 430.8 0.712566 5.02877 0
M  V30 4423 H 430.73 -1.0629 5.15761 0
M  V30 4424 H 433.221 -0.363126 3.76151 0
M  V30 4425 H 433.534 -0.117763 7.7271 0
M  V30 4426 H 431.879 -0.112857 6.94908 0
M  V30 4427 H 435.07 -0.365864 4.66668 0
M  V30 4428 H 435.243 -0.254204 6.47501 0
M  V30 4429 N 428.649 -1.55105 -0.279332 0
M  V30 4430 C 429.896 -1.75412 -1.01177 0
M  V30 4431 C 430.224 -0.551728 -1.86511 0
M  V30 4432 O 429.479 0.465919 -1.90073 0
M  V30 4433 C 429.778 -3.0086 -1.92919 0
M  V30 4434 C 429.444 -4.33689 -1.23387 0
M  V30 4435 C 428.106 -4.69792 -1.04159 0
M  V30 4436 C 430.458 -5.15941 -0.738562 0
M  V30 4437 C 427.786 -5.85707 -0.341166 0
M  V30 4438 C 430.138 -6.32579 -0.0517636 0
M  V30 4439 C 428.802 -6.67326 0.152292 0
M  V30 4440 H 428.072 -0.641879 -0.370233 0
M  V30 4441 H 430.719 -1.89373 -0.284627 0
M  V30 4442 H 429.024 -2.81773 -2.72234 0
M  V30 4443 H 430.721 -3.13768 -2.49701 0
M  V30 4444 H 427.311 -4.05309 -1.39364 0
M  V30 4445 H 431.495 -4.8853 -0.874764 0
M  V30 4446 H 426.751 -6.11157 -0.172287 0
M  V30 4447 H 430.925 -6.9557 0.339828 0
M  V30 4448 H 428.552 -7.56998 0.697014 0
M  V30 4449 N 430.127 0.543554 -1.4793 0
M  V30 4450 C 431.374 1.30008 -1.55255 0
M  V30 4451 C 431.702 1.93245 -0.220612 0
M  V30 4452 O 430.957 1.79141 0.787843 0
M  V30 4453 C 431.256 2.42078 -2.62932 0
M  V30 4454 C 430.922 1.96583 -4.0579 0
M  V30 4455 C 429.584 1.83893 -4.44676 0
M  V30 4456 C 431.936 1.62034 -4.95373 0
M  V30 4457 C 429.264 1.34969 -5.70964 0
M  V30 4458 C 431.616 1.14577 -6.22137 0
M  V30 4459 C 430.28 1.00493 -6.59892 0
M  V30 4460 H 429.55 0.475735 -0.568117 0
M  V30 4461 H 432.197 0.608075 -1.81589 0
M  V30 4462 H 430.502 3.16892 -2.30406 0
M  V30 4463 H 432.199 3.00236 -2.65818 0
M  V30 4464 H 428.789 2.07407 -3.75074 0
M  V30 4465 H 432.973 1.70705 -4.66019 0
M  V30 4466 H 428.229 1.2274 -5.98953 0
M  V30 4467 H 432.403 0.869109 -6.90955 0
M  V30 4468 H 430.03 0.623624 -7.57638 0
M  V30 4469 N 431.605 1.3629 0.791371 0
M  V30 4470 C 432.515 1.32606 1.93527 0
M  V30 4471 C 433.531 0.228541 1.72493 0
M  V30 4472 O 434.707 0.460571 1.96063 0
M  V30 4473 C 431.772 1.11271 3.28359 0
M  V30 4474 C 430.833 2.3048 3.62185 0
M  V30 4475 C 430.066 2.10154 4.90583 0
M  V30 4476 O 430.289 1.07572 5.60165 0
M  V30 4477 O 429.223 2.97884 5.23019 0
M  V30 4478 H 433.049 2.28909 1.99585 0
M  V30 4479 H 430.634 1.16818 0.931344 0
M  V30 4480 H 432.516 1.01283 4.09047 0
M  V30 4481 H 431.191 0.180292 3.23198 0
M  V30 4482 H 430.098 2.46036 2.81811 0
M  V30 4483 H 431.431 3.22221 3.72068 0
M  V30 4484 N 433.083 -1.0153 1.20538 0
M  V30 4485 C 434.311 -1.78746 1.04199 0
M  V30 4486 C 434.726 -1.84323 -0.408733 0
M  V30 4487 O 434.083 -1.29714 -1.28377 0
M  V30 4488 C 434.134 -3.23152 1.62035 0
M  V30 4489 O 433.855 -3.17918 3.0143 0
M  V30 4490 C 435.356 -4.16911 1.50666 0
M  V30 4491 H 432.576 -0.56208 0.366479 0
M  V30 4492 H 435.12 -1.27794 1.59653 0
M  V30 4493 H 433.275 -3.71248 1.10697 0
M  V30 4494 H 433.689 -4.08567 3.28897 0
M  V30 4495 H 435.163 -5.16072 1.95892 0
M  V30 4496 H 435.64 -4.36791 0.459363 0
M  V30 4497 H 436.246 -3.74698 2.01201 0
M  V30 4498 N 434.561 -1.01147 -1.20859 0
M  V30 4499 C 435.807 -0.698899 -1.90377 0
M  V30 4500 C 436.14 0.76904 -1.78324 0
M  V30 4501 O 435.415 1.55817 -1.16409 0
M  V30 4502 C 435.698 -1.12878 -3.41951 0
M  V30 4503 C 435.551 -2.65665 -3.62963 0
M  V30 4504 C 436.87 -0.696114 -4.3456 0
M  V30 4505 H 433.989 -0.255372 -0.691342 0
M  V30 4506 H 436.631 -1.25831 -1.42361 0
M  V30 4507 H 434.781 -0.652827 -3.82976 0
M  V30 4508 H 436.453 -3.21074 -3.31224 0
M  V30 4509 H 434.696 -3.06878 -3.06608 0
M  V30 4510 H 435.367 -2.90797 -4.69192 0
M  V30 4511 H 437.843 -1.10521 -4.01154 0
M  V30 4512 H 436.719 -1.025 -5.39245 0
M  V30 4513 H 436.98 0.402465 -4.40264 0
M  V30 4514 N 436.039 1.36541 -0.78704 0
M  V30 4515 C 436.987 2.31965 -0.171724 0
M  V30 4516 C 437.981 1.55689 0.667631 0
M  V30 4517 O 439.187 1.70969 0.562981 0
M  V30 4518 H 435.562 0.751101 -0.0367545 0
M  V30 4519 H 437.533 2.81428 -0.992017 0
M  V30 4520 C 436.282 3.40968 0.680904 0
M  V30 4521 H 435.605 3.99775 0.0443961 0
M  V30 4522 H 437.045 4.10063 1.07815 0
M  V30 4523 C 435.504 2.82338 1.83813 0
M  V30 4524 O 436.034 2.74311 2.93456 0
M  V30 4525 N 434.24 2.39661 1.6435 0
M  V30 4526 H 433.787 2.46389 0.751668 0
M  V30 4527 H 433.745 2.00779 2.4194 0
M  V30 4528 N 437.518 0.538854 1.48102 0
M  V30 4529 C 438.929 0.100679 1.86428 0
M  V30 4530 C 439.28 -1.32447 1.44749 0
M  V30 4531 O 438.405 -1.99339 0.842199 0
M  V30 4532 C 439 0.175933 3.38343 0
M  V30 4533 C 437.559 -0.207098 3.7583 0
M  V30 4534 C 436.706 0.531741 2.72154 0
M  V30 4535 H 439.657 0.749614 1.3988 0
M  V30 4536 H 439.678 -0.610144 3.75576 0
M  V30 4537 H 439.19 1.21328 3.68648 0
M  V30 4538 H 437.291 -1.24626 3.5114 0
M  V30 4539 H 437.404 0.138687 4.78899 0
M  V30 4540 H 435.768 -0.0230462 2.5469 0
M  V30 4541 H 436.551 1.56989 3.05302 0
M  V30 4542 N 438.996 -1.55193 0.274407 0
M  V30 4543 C 439.926 -2.25471 -0.607032 0
M  V30 4544 C 440.907 -1.24461 -1.15946 0
M  V30 4545 O 442.092 -1.53179 -1.19373 0
M  V30 4546 C 439.222 -2.97526 -1.79153 0
M  V30 4547 C 438.176 -4.05459 -1.37067 0
M  V30 4548 C 437.502 -4.65084 -2.6382 0
M  V30 4549 C 438.802 -5.19691 -0.521389 0
M  V30 4550 H 440.496 -2.99393 -0.0209343 0
M  V30 4551 H 438.042 -1.43997 -0.00862866 0
M  V30 4552 H 439.995 -3.45402 -2.41404 0
M  V30 4553 H 438.719 -2.21138 -2.40344 0
M  V30 4554 H 437.378 -3.58393 -0.771355 0
M  V30 4555 H 437.026 -3.85365 -3.23268 0
M  V30 4556 H 436.726 -5.37961 -2.36372 0
M  V30 4557 H 438.25 -5.15708 -3.26921 0
M  V30 4558 H 439.664 -5.63623 -1.04889 0
M  V30 4559 H 438.061 -5.99126 -0.341825 0
M  V30 4560 H 439.131 -4.82713 0.46 0
M  V30 4561 N 440.474 -0.00167713 -1.576 0
M  V30 4562 C 441.421 0.989195 -2.08527 0
M  V30 4563 C 442.391 1.34031 -0.981065 0
M  V30 4564 O 443.576 1.43839 -1.2536 0
M  V30 4565 C 440.716 2.27537 -2.59463 0
M  V30 4566 C 439.829 1.98314 -3.83791 0
M  V30 4567 C 438.964 3.21025 -4.23222 0
M  V30 4568 C 438.003 2.87495 -5.40382 0
M  V30 4569 N 437.14 4.02749 -5.75098 0
M  V30 4570 H 441.98 0.547973 -2.92919 0
M  V30 4571 H 439.517 0.258917 -1.44803 0
M  V30 4572 H 441.475 3.02729 -2.87073 0
M  V30 4573 H 440.105 2.69325 -1.77943 0
M  V30 4574 H 439.157 1.13482 -3.63078 0
M  V30 4575 H 440.469 1.69601 -4.69081 0
M  V30 4576 H 439.623 4.04561 -4.52123 0
M  V30 4577 H 438.362 3.52877 -3.36644 0
M  V30 4578 H 437.367 2.02367 -5.11202 0
M  V30 4579 H 438.592 2.56889 -6.28637 0
M  V30 4580 H 436.538 4.34494 -4.91478 0
M  V30 4581 H 436.455 3.77566 -6.54966 0
M  V30 4582 H 437.723 4.87068 -6.08592 0
M  V30 4583 N 441.952 1.55251 0.271103 0
M  V30 4584 C 443.198 1.76207 1.00394 0
M  V30 4585 C 443.531 0.562604 1.85872 0
M  V30 4586 O 442.806 -0.439785 1.89463 0
M  V30 4587 C 443.089 3.06828 1.8849 0
M  V30 4588 C 442.942 4.37134 1.05992 0
M  V30 4589 C 444.261 3.33503 2.87165 0
M  V30 4590 H 441.38 0.641086 0.363562 0
M  V30 4591 H 444.022 1.87982 0.276189 0
M  V30 4592 H 442.172 2.96921 2.5054 0
M  V30 4593 H 443.844 4.59001 0.459978 0
M  V30 4594 H 442.087 4.32275 0.363443 0
M  V30 4595 H 442.758 5.2486 1.70955 0
M  V30 4596 H 445.234 3.43215 2.3525 0
M  V30 4597 H 444.11 4.2616 3.45946 0
M  V30 4598 H 444.371 2.53235 3.62387 0
M  V30 4599 N 443.43 -0.535701 1.48216 0
M  V30 4600 C 444.678 -1.28928 1.55634 0
M  V30 4601 C 444.999 -1.93645 0.229514 0
M  V30 4602 O 444.269 -1.81038 -0.74846 0
M  V30 4603 H 442.849 -0.47884 0.573342 0
M  V30 4604 H 445.511 -0.623853 1.84646 0
M  V30 4605 H 444.607 -2.07157 2.33436 0
M  V30 4606 N 444.908 -1.36708 -0.784132 0
M  V30 4607 C 445.855 -1.31466 -1.89698 0
M  V30 4608 C 446.825 -0.18239 -1.65096 0
M  V30 4609 O 448.01 -0.369762 -1.87183 0
M  V30 4610 C 445.15 -1.1151 -3.26588 0
M  V30 4611 C 444.263 -2.33859 -3.63227 0
M  V30 4612 C 443.398 -2.06873 -4.89262 0
M  V30 4613 C 442.437 -3.25154 -5.18595 0
M  V30 4614 N 441.574 -2.978 -6.35814 0
M  V30 4615 H 446.414 -2.26619 -1.93515 0
M  V30 4616 H 443.951 -1.12625 -0.946256 0
M  V30 4617 H 445.909 -0.979653 -4.05535 0
M  V30 4618 H 444.539 -0.200103 -3.22179 0
M  V30 4619 H 443.591 -2.58188 -2.79362 0
M  V30 4620 H 444.903 -3.22109 -3.8085 0
M  V30 4621 H 444.057 -1.90289 -5.76086 0
M  V30 4622 H 442.796 -1.15942 -4.73718 0
M  V30 4623 H 441.801 -3.42292 -4.30251 0
M  V30 4624 H 443.026 -4.1692 -5.36055 0
M  V30 4625 H 440.972 -2.09485 -6.21653 0
M  V30 4626 H 440.889 -3.7959 -6.53794 0
M  V30 4627 H 442.157 -2.84805 -7.25607 0
M  V30 4628 N 446.386 1.0089 -1.21074 0
M  V30 4629 C 447.296 2.13039 -0.982425 0
M  V30 4630 C 448.312 1.73881 0.0642161 0
M  V30 4631 O 449.488 2.01012 -0.12496 0
M  V30 4632 C 446.553 3.42377 -0.545803 0
M  V30 4633 C 445.614 3.95731 -1.6642 0
M  V30 4634 C 444.847 5.18896 -1.24832 0
M  V30 4635 O 445.07 5.70273 -0.120265 0
M  V30 4636 O 444.004 5.65597 -2.05873 0
M  V30 4637 H 447.83 2.35175 -1.92163 0
M  V30 4638 H 445.415 1.1142 -0.995285 0
M  V30 4639 H 447.297 4.20244 -0.311912 0
M  V30 4640 H 445.972 3.21639 0.364727 0
M  V30 4641 H 444.879 3.19108 -1.95246 0
M  V30 4642 H 446.212 4.20872 -2.55201 0
M  V30 4643 N 447.864 1.01787 1.20321 0
M  V30 4644 C 449.111 0.707936 1.89722 0
M  V30 4645 C 449.439 -0.762535 1.78929 0
M  V30 4646 O 448.694 -1.56977 1.16861 0
M  V30 4647 C 448.993 1.09076 3.40349 0
M  V30 4648 C 448.659 2.55765 3.71342 0
M  V30 4649 C 447.321 2.95845 3.79511 0
M  V30 4650 C 449.673 3.50723 3.85542 0
M  V30 4651 C 447.001 4.2982 3.99339 0
M  V30 4652 C 449.353 4.84387 4.06881 0
M  V30 4653 C 448.017 5.24172 4.1328 0
M  V30 4654 H 447.287 0.259052 0.694243 0
M  V30 4655 H 449.934 1.27868 1.42555 0
M  V30 4656 H 448.239 0.438453 3.89339 0
M  V30 4657 H 449.936 0.828636 3.92345 0
M  V30 4658 H 446.526 2.2371 3.65584 0
M  V30 4659 H 450.71 3.20916 3.78585 0
M  V30 4660 H 445.966 4.60196 4.02529 0
M  V30 4661 H 450.14 5.57891 4.1681 0
M  V30 4662 H 447.767 6.27997 4.28396 0
M  V30 4663 N 449.342 -1.36122 0.79427 0
M  V30 4664 C 450.305 -2.28309 0.201889 0
M  V30 4665 C 451.305 -1.49041 -0.603603 0
M  V30 4666 O 452.495 -1.68964 -0.423888 0
M  V30 4667 C 449.627 -3.3321 -0.719978 0
M  V30 4668 H 450.82 -2.82208 1.01481 0
M  V30 4669 H 448.373 -1.45768 0.564037 0
M  V30 4670 H 449.108 -2.84475 -1.55706 0
M  V30 4671 H 448.893 -3.91835 -0.144266 0
M  V30 4672 H 450.383 -4.02044 -1.12916 0
M  V30 4673 N 450.82 -0.546701 -1.47814 0
M  V30 4674 C 452.045 -0.021268 -2.07389 0
M  V30 4675 C 452.47 1.25822 -1.39822 0
M  V30 4676 O 451.828 1.75111 -0.46968 0
M  V30 4677 C 451.876 0.168502 -3.60206 0
M  V30 4678 O 450.98 1.23347 -3.93522 0
M  V30 4679 H 450.321 -0.0466108 -0.662362 0
M  V30 4680 H 452.851 -0.759387 -1.89985 0
M  V30 4681 H 452.861 0.385982 -4.0617 0
M  V30 4682 H 451.536 -0.766075 -4.08784 0
M  V30 4683 H 450.113 0.997319 -3.59316 0
M  V30 4684 N 452.299 1.55045 -0.282633 0
M  V30 4685 C 453.209 2.26491 0.61147 0
M  V30 4686 C 454.225 1.29348 1.16384 0
M  V30 4687 O 455.401 1.62298 1.19253 0
M  V30 4688 C 452.466 2.97779 1.77563 0
M  V30 4689 C 451.527 4.10418 1.25919 0
M  V30 4690 C 450.76 4.78297 2.36786 0
M  V30 4691 O 450.983 4.45426 3.56303 0
M  V30 4692 O 449.917 5.66089 2.04517 0
M  V30 4693 H 453.743 3.03683 0.0324615 0
M  V30 4694 H 451.328 1.49317 -0.0497576 0
M  V30 4695 H 453.21 3.42554 2.45427 0
M  V30 4696 H 451.885 2.23498 2.34159 0
M  V30 4697 H 450.792 3.70082 0.546797 0
M  V30 4698 H 452.125 4.86622 0.738887 0
M  V30 4699 N 453.777 0.010035 1.57597 0
M  V30 4700 C 455.188 -0.531426 1.78977 0
M  V30 4701 C 455.539 -1.73375 0.918454 0
M  V30 4702 O 454.664 -2.16047 0.123635 0
M  V30 4703 C 455.259 -0.97086 3.24592 0
M  V30 4704 C 453.818 -1.45756 3.47033 0
M  V30 4705 C 452.965 -0.413384 2.74201 0
M  V30 4706 H 455.916 0.236166 1.56933 0
M  V30 4707 H 455.937 -1.83633 3.33255 0
M  V30 4708 H 455.449 -0.0955893 3.87982 0
M  V30 4709 H 453.55 -2.35339 2.88871 0
M  V30 4710 H 453.663 -1.4781 4.55729 0
M  V30 4711 H 452.027 -0.877266 2.39115 0
M  V30 4712 H 452.81 0.453092 3.40297 0
M  V30 4713 N 455.255 -1.55392 -0.262866 0
M  V30 4714 C 456.501 -1.76737 -0.99458 0
M  V30 4715 C 456.834 -0.572453 -1.85571 0
M  V30 4716 O 456.109 0.429732 -1.89693 0
M  V30 4717 C 456.392 -3.07824 -1.8686 0
M  V30 4718 C 456.245 -4.3769 -1.03672 0
M  V30 4719 C 457.564 -3.35021 -2.85393 0
M  V30 4720 H 454.683 -0.643005 -0.360157 0
M  V30 4721 H 457.325 -1.88126 -0.266216 0
M  V30 4722 H 455.475 -2.98245 -2.48962 0
M  V30 4723 H 457.147 -4.59238 -0.43563 0
M  V30 4724 H 455.39 -4.32461 -0.340513 0
M  V30 4725 H 456.061 -5.25759 -1.6817 0
M  V30 4726 H 458.537 -3.44458 -2.33426 0
M  V30 4727 H 457.413 -4.27989 -3.43681 0
M  V30 4728 H 457.674 -2.55153 -3.61039 0
M  V30 4729 N 456.733 0.527833 -1.48498 0
M  V30 4730 C 457.979 1.28295 -1.57836 0
M  V30 4731 C 458.334 1.9077 -0.249943 0
M  V30 4732 O 457.627 1.76421 0.747402 0
M  V30 4733 C 457.821 2.39275 -2.65485 0
M  V30 4734 C 457.65 1.87679 -4.08664 0
M  V30 4735 C 456.42 1.70187 -4.75778 0
M  V30 4736 C 458.618 1.40409 -4.94762 0
M  V30 4737 N 456.6 1.13238 -6.03366 0
M  V30 4738 C 457.971 0.954216 -6.12613 0
M  V30 4739 C 460.026 1.28732 -4.8097 0
M  V30 4740 C 458.729 0.39915 -7.18192 0
M  V30 4741 C 460.755 0.746244 -5.86673 0
M  V30 4742 C 460.117 0.306457 -7.03733 0
M  V30 4743 H 456.216 0.460408 -0.632099 0
M  V30 4744 H 458.8 0.594913 -1.85388 0
M  V30 4745 H 456.971 3.05572 -2.3975 0
M  V30 4746 H 458.703 3.06308 -2.64495 0
M  V30 4747 H 455.458 1.93772 -4.32145 0
M  V30 4748 H 455.882 0.867687 -6.71417 0
M  V30 4749 H 460.524 1.61338 -3.90807 0
M  V30 4750 H 458.242 0.0607678 -8.08077 0
M  V30 4751 H 461.828 0.659041 -5.78055 0
M  V30 4752 H 460.708 -0.105708 -7.84129 0
M  V30 4753 N 458.211 1.37122 0.776871 0
M  V30 4754 C 459.458 1.32047 1.53524 0
M  V30 4755 C 459.786 -0.0965631 1.9426 0
M  V30 4756 O 459.041 -1.06866 1.63945 0
M  V30 4757 C 459.34 2.20068 2.81611 0
M  V30 4758 C 459.006 3.68423 2.59953 0
M  V30 4759 C 457.668 4.08854 2.53755 0
M  V30 4760 C 460.02 4.62431 2.40431 0
M  V30 4761 C 457.348 5.41417 2.26018 0
M  V30 4762 C 459.7 5.95225 2.14219 0
M  V30 4763 C 458.364 6.34767 2.06462 0
M  V30 4764 H 457.634 0.483196 0.561785 0
M  V30 4765 H 460.281 1.69284 0.895268 0
M  V30 4766 H 458.586 1.75809 3.50141 0
M  V30 4767 H 460.283 2.13458 3.39465 0
M  V30 4768 H 456.873 3.36354 2.65638 0
M  V30 4769 H 461.057 4.32057 2.44213 0
M  V30 4770 H 456.313 5.71022 2.18504 0
M  V30 4771 H 460.487 6.67626 1.98112 0
M  V30 4772 H 458.114 7.37413 1.84733 0
M  V30 4773 N 459.689 -1.00246 1.21608 0
M  V30 4774 C 460.937 -1.73717 1.0328 0
M  V30 4775 C 461.258 -1.90102 -0.434318 0
M  V30 4776 O 460.528 -1.45376 -1.31311 0
M  V30 4777 H 459.108 -0.643613 0.379172 0
M  V30 4778 H 461.77 -1.20787 1.52959 0
M  V30 4779 H 460.866 -2.73535 1.50283 0
M  V30 4780 N 461.167 -1.02423 -1.1978 0
M  V30 4781 C 462.444 -0.632802 -1.85081 0
M  V30 4782 C 462.824 0.888745 -1.9148 0
M  V30 4783 O 462.172 1.78357 -1.42832 0
M  V30 4784 C 462.382 -1.28947 -3.24305 0
M  V30 4785 C 463.73 -1.40976 -4.00513 0
M  V30 4786 O 464.754 -1.24628 -3.33686 0
M  V30 4787 O 463.613 -1.67467 -5.20209 0
M  V30 4788 H 460.707 -0.219348 -0.79738 0
M  V30 4789 H 463.253 -1.12209 -1.27307 0
M  V30 4790 H 462.025 -2.3288 -3.14456 0
M  V30 4791 H 461.648 -0.787748 -3.89718 0
M  V30 4792 N 462.645 1.35699 -0.801477 0
M  V30 4793 C 463.87 2.03687 -0.390678 0
M  V30 4794 C 464.295 1.60015 0.988778 0
M  V30 4795 O 463.653 0.774357 1.63931 0
M  V30 4796 C 463.701 3.57439 -0.476404 0
M  V30 4797 O 462.805 4.09208 0.512106 0
M  V30 4798 H 462.146 0.64344 -0.163956 0
M  V30 4799 H 464.676 1.73403 -1.08594 0
M  V30 4800 H 464.686 4.06544 -0.344357 0
M  V30 4801 H 463.361 3.88576 -1.48262 0
M  V30 4802 H 461.938 3.7134 0.340721 0
M  V30 4803 N 464.123 0.554532 1.47522 0
M  V30 4804 C 465.4 -0.0360704 1.95567 0
M  V30 4805 C 465.78 -1.48828 1.49711 0
M  V30 4806 O 465.128 -2.16366 0.734717 0
M  V30 4807 C 465.338 0.106631 3.48837 0
M  V30 4808 C 466.686 -0.0400899 4.24581 0
M  V30 4809 O 467.71 0.0340453 3.56184 0
M  V30 4810 O 466.569 -0.199111 5.46137 0
M  V30 4811 H 463.663 -0.0656294 0.824392 0
M  V30 4812 H 466.209 0.620867 1.57935 0
M  V30 4813 H 464.981 1.11727 3.7501 0
M  V30 4814 H 464.604 -0.58804 3.93227 0
M  V30 4815 N 465.601 -1.54893 0.290851 0
M  V30 4816 C 467.017 -1.59476 -0.0628432 0
M  V30 4817 C 467.217 -1.30795 -1.5328 0
M  V30 4818 O 466.273 -1.07644 -2.28406 0
M  V30 4819 C 467.586 -2.98928 0.325962 0
M  V30 4820 C 469.134 -3.11799 0.273882 0
M  V30 4821 C 469.609 -4.53544 0.637359 0
M  V30 4822 N 471.1 -4.59433 0.589507 0
M  V30 4823 C 471.835 -5.67164 0.84335 0
M  V30 4824 N 471.331 -6.82975 1.16263 0
M  V30 4825 N 473.124 -5.56786 0.771091 0
M  V30 4826 H 465.275 -1.71798 1.24896 0
M  V30 4827 H 467.538 -0.801879 0.505663 0
M  V30 4828 H 467.244 -3.24805 1.34887 0
M  V30 4829 H 467.118 -3.75793 -0.325441 0
M  V30 4830 H 469.505 -2.85677 -0.739765 0
M  V30 4831 H 469.586 -2.37112 0.959766 0
M  V30 4832 H 469.23 -4.80394 1.64877 0
M  V30 4833 H 469.16 -5.26553 -0.0704866 0
M  V30 4834 H 471.651 -3.76245 0.353252 0
M  V30 4835 H 471.964 -7.61048 1.34257 0
M  V30 4836 H 470.309 -6.84552 1.20057 0
M  V30 4837 H 473.5 -4.65187 0.521383 0
M  V30 4838 H 473.673 -6.40664 0.972295 0
M  V30 4839 N 467.08 -0.0183926 -1.57589 0
M  V30 4840 C 468.043 0.951986 -2.08494 0
M  V30 4841 C 469.043 1.26092 -0.997874 0
M  V30 4842 O 470.233 1.20304 -1.25987 0
M  V30 4843 C 467.365 2.27165 -2.54182 0
M  V30 4844 H 468.558 0.511307 -2.95509 0
M  V30 4845 H 466.111 0.229444 -1.54607 0
M  V30 4846 H 466.846 2.75884 -1.70465 0
M  V30 4847 H 466.631 2.06057 -3.33591 0
M  V30 4848 H 468.121 2.9674 -2.93828 0
M  V30 4849 N 468.558 1.5553 0.254621 0
M  V30 4850 C 469.783 1.81383 1.00573 0
M  V30 4851 C 470.208 0.594419 1.78461 0
M  V30 4852 O 469.566 -0.456403 1.75461 0
M  V30 4853 C 469.614 3.04892 1.92545 0
M  V30 4854 O 468.718 2.81266 3.01601 0
M  V30 4855 H 468.059 0.598969 0.286587 0
M  V30 4856 H 470.589 2.02703 0.277952 0
M  V30 4857 H 470.599 3.34119 2.34155 0
M  V30 4858 H 469.274 3.93287 1.3527 0
M  V30 4859 H 467.851 2.63185 2.64174 0
M  V30 4860 N 470.036 -0.519951 1.48776 0
M  V30 4861 C 470.966 -1.63253 1.66945 0
M  V30 4862 C 471.947 -1.62014 0.518224 0
M  V30 4863 O 473.132 -1.79053 0.751919 0
M  V30 4864 C 470.262 -3.0181 1.71836 0
M  V30 4865 C 469.216 -3.17911 2.8656 0
M  V30 4866 C 468.542 -4.5763 2.76548 0
M  V30 4867 C 469.842 -2.99729 4.27738 0
M  V30 4868 H 471.536 -1.48302 2.6009 0
M  V30 4869 H 469.082 -0.712026 1.25165 0
M  V30 4870 H 471.035 -3.79525 1.83135 0
M  V30 4871 H 469.759 -3.17806 0.752775 0
M  V30 4872 H 468.418 -2.42616 2.74833 0
M  V30 4873 H 468.066 -4.70476 1.77937 0
M  V30 4874 H 467.766 -4.69346 3.53536 0
M  V30 4875 H 469.29 -5.37431 2.89828 0
M  V30 4876 H 470.704 -3.67228 4.40246 0
M  V30 4877 H 469.101 -3.22932 5.05801 0
M  V30 4878 H 470.171 -1.96047 4.43502 0
M  V30 4879 N 471.514 -1.37532 -0.769588 0
M  V30 4880 C 472.762 -1.32597 -1.5252 0
M  V30 4881 C 473.083 0.0884294 -1.94799 0
M  V30 4882 O 472.353 1.03289 -1.66458 0
M  V30 4883 H 470.933 -0.487846 -0.565699 0
M  V30 4884 H 473.595 -1.72044 -0.915806 0
M  V30 4885 H 472.691 -1.96643 -2.42359 0
M  V30 4886 N 472.992 0.995999 -1.22138 0
M  V30 4887 C 474.238 1.73767 -1.04561 0
M  V30 4888 C 474.571 1.89633 0.418698 0
M  V30 4889 O 473.846 1.43723 1.3105 0
M  V30 4890 C 474.129 3.14505 -1.75382 0
M  V30 4891 C 473.982 3.06306 -3.29388 0
M  V30 4892 C 475.301 4.13615 -1.50369 0
M  V30 4893 H 472.42 0.630728 -0.38125 0
M  V30 4894 H 475.062 1.16057 -1.50435 0
M  V30 4895 H 473.212 3.63775 -1.36383 0
M  V30 4896 H 474.884 2.64681 -3.77812 0
M  V30 4897 H 473.127 2.43186 -3.59226 0
M  V30 4898 H 473.798 4.05884 -3.74116 0
M  V30 4899 H 476.274 3.73089 -1.84239 0
M  V30 4900 H 475.15 5.10212 -2.02421 0
M  V30 4901 H 475.411 4.39949 -0.435611 0
M  V30 4902 N 474.47 1.03057 1.19235 0
M  V30 4903 C 475.747 0.642608 1.84743 0
M  V30 4904 C 476.127 -0.878577 1.91948 0
M  V30 4905 O 475.475 -1.77597 1.43776 0
M  V30 4906 C 475.685 1.30665 3.23616 0
M  V30 4907 C 477.033 1.43098 3.9976 0
M  V30 4908 O 478.057 1.26396 3.3302 0
M  V30 4909 O 476.916 1.70223 5.19313 0
M  V30 4910 H 474.01 0.223573 0.796206 0
M  V30 4911 H 476.556 1.12883 1.26711 0
M  V30 4912 H 475.328 2.34544 3.13217 0
M  V30 4913 H 474.951 0.808405 3.89295 0
M  V30 4914 N 475.948 -1.35272 0.808662 0
M  V30 4915 C 476.895 -2.29764 0.218482 0
M  V30 4916 C 477.865 -1.52911 -0.648652 0
M  V30 4917 O 479.05 -1.81341 -0.593297 0
M  V30 4918 C 476.19 -3.39388 -0.625282 0
M  V30 4919 C 475.303 -4.31202 0.262516 0
M  V30 4920 C 474.438 -5.27919 -0.589451 0
M  V30 4921 C 473.477 -6.11371 0.298617 0
M  V30 4922 N 472.614 -7.0022 -0.513443 0
M  V30 4923 H 477.454 -2.79645 1.02968 0
M  V30 4924 H 474.991 -1.37629 0.519303 0
M  V30 4925 H 476.949 -4.01615 -1.12966 0
M  V30 4926 H 475.579 -2.90777 -1.40173 0
M  V30 4927 H 474.631 -3.69962 0.885013 0
M  V30 4928 H 475.943 -4.89748 0.945971 0
M  V30 4929 H 475.097 -5.95529 -1.15888 0
M  V30 4930 H 473.836 -4.69875 -1.30647 0
M  V30 4931 H 472.841 -5.42707 0.880301 0
M  V30 4932 H 474.066 -6.71494 1.01352 0
M  V30 4933 H 472.012 -6.44662 -1.21439 0
M  V30 4934 H 471.929 -7.55917 0.111922 0
M  V30 4935 H 473.197 -7.72175 -1.06608 0
M  V30 4936 N 477.426 -0.562348 -1.47226 0
M  V30 4937 C 478.703 0.0256985 -1.95583 0
M  V30 4938 C 479.083 1.48032 -1.50498 0
M  V30 4939 O 478.431 2.15973 -0.746181 0
M  V30 4940 C 478.641 -0.125129 -3.48776 0
M  V30 4941 C 479.989 0.0175728 -4.24596 0
M  V30 4942 O 481.013 -0.0529341 -3.56161 0
M  V30 4943 O 479.872 0.170145 -5.46235 0
M  V30 4944 H 476.966 0.0612565 -0.824728 0
M  V30 4945 H 479.512 -0.629233 -1.57603 0
M  V30 4946 H 478.284 -1.13715 -3.74412 0
M  V30 4947 H 477.907 0.567178 -3.93534 0
M  V30 4948 N 478.904 1.54736 -0.299062 0
M  V30 4949 C 480.15 2.00397 0.311244 0
M  V30 4950 C 480.483 1.18716 1.53688 0
M  V30 4951 O 479.758 0.263154 1.92712 0
M  V30 4952 C 480.041 3.53817 0.669761 0
M  V30 4953 C 479.894 4.46239 -0.564882 0
M  V30 4954 C 481.213 4.13856 1.49702 0
M  V30 4955 H 478.332 0.728493 0.111653 0
M  V30 4956 H 480.974 1.85506 -0.410774 0
M  V30 4957 H 479.124 3.66637 1.28491 0
M  V30 4958 H 480.796 4.45328 -1.20337 0
M  V30 4959 H 479.039 4.16916 -1.19849 0
M  V30 4960 H 479.71 5.5134 -0.269918 0
M  V30 4961 H 482.186 4.04461 0.977284 0
M  V30 4962 H 481.062 5.21365 1.71666 0
M  V30 4963 H 481.323 3.65608 2.48563 0
M  V30 4964 N 480.382 0.0267497 1.57577 0
M  V30 4965 C 481.612 -0.6617 1.95717 0
M  V30 4966 C 482.02 -1.66331 0.901706 0
M  V30 4967 O 481.363 -1.83273 -0.125241 0
M  V30 4968 C 481.425 -1.42649 3.29987 0
M  V30 4969 C 481.089 -0.583482 4.5326 0
M  V30 4970 C 482.086 0.140221 5.19711 0
M  V30 4971 C 479.771 -0.521581 4.99585 0
M  V30 4972 C 481.765 0.914523 6.30805 0
M  V30 4973 C 479.452 0.256428 6.10562 0
M  V30 4974 C 480.45 0.973189 6.76031 0
M  V30 4975 O 480.138 1.73845 7.84878 0
M  V30 4976 H 479.87 -0.187483 0.649481 0
M  V30 4977 H 482.424 0.0820847 2.05236 0
M  V30 4978 H 480.654 -2.21536 3.16952 0
M  V30 4979 H 482.343 -2.00282 3.53047 0
M  V30 4980 H 483.109 0.101716 4.84893 0
M  V30 4981 H 478.988 -1.06904 4.48433 0
M  V30 4982 H 482.532 1.4745 6.81839 0
M  V30 4983 H 478.429 0.296657 6.44818 0
M  V30 4984 H 479.197 1.65797 8.01532 0
M  V30 4985 N 481.861 -1.55662 -0.24637 0
M  V30 4986 C 482.791 -1.93377 -1.30873 0
M  V30 4987 C 483.772 -0.798773 -1.50179 0
M  V30 4988 O 484.957 -1.0591 -1.62778 0
M  V30 4989 C 482.087 -2.22893 -2.66338 0
M  V30 4990 C 481.041 -3.38649 -2.61727 0
M  V30 4991 C 480.367 -3.53708 -4.00992 0
M  V30 4992 C 481.667 -4.74323 -2.18666 0
M  V30 4993 H 483.361 -2.82363 -0.995552 0
M  V30 4994 H 480.907 -1.35854 -0.477464 0
M  V30 4995 H 482.86 -2.47866 -3.40794 0
M  V30 4996 H 481.584 -1.30733 -2.99293 0
M  V30 4997 H 480.243 -3.13685 -1.89729 0
M  V30 4998 H 479.891 -2.58967 -4.31214 0
M  V30 4999 H 479.591 -4.31551 -3.98795 0
M  V30 5000 H 481.115 -3.81003 -4.77147 0
M  V30 5001 H 482.529 -4.98665 -2.82854 0
M  V30 5002 H 480.926 -5.55273 -2.27579 0
M  V30 5003 H 481.996 -4.71349 -1.13834 0
M  V30 5004 N 483.339 0.512053 -1.4905 0
M  V30 5005 C 484.567 1.29116 -1.61669 0
M  V30 5006 C 484.982 1.86655 -0.283787 0
M  V30 5007 O 484.339 1.67293 0.729331 0
M  V30 5008 C 484.39 2.4293 -2.67707 0
M  V30 5009 O 484.111 1.87758 -3.95826 0
M  V30 5010 C 485.612 3.34476 -2.90931 0
M  V30 5011 H 482.832 0.392009 -0.544583 0
M  V30 5012 H 485.376 0.615881 -1.95006 0
M  V30 5013 H 483.531 3.06308 -2.37179 0
M  V30 5014 H 483.945 2.62393 -4.54148 0
M  V30 5015 H 485.419 4.10642 -3.68886 0
M  V30 5016 H 485.896 3.90801 -2.00427 0
M  V30 5017 H 486.502 2.76874 -3.22832 0
M  V30 5018 N 484.817 1.37938 0.762283 0
M  V30 5019 C 486.066 1.32989 1.51647 0
M  V30 5020 C 486.379 -0.0802922 1.95435 0
M  V30 5021 O 487.585 -0.252295 2.70325 0
M  V30 5022 C 486.041 2.33485 2.73885 0
M  V30 5023 C 485.649 3.80079 2.37157 0
M  V30 5024 C 487.393 2.37563 3.51801 0
M  V30 5025 C 485.3 4.72283 3.55954 0
M  V30 5026 H 484.23 0.494301 0.56937 0
M  V30 5027 H 486.881 1.63448 0.834083 0
M  V30 5028 H 485.263 1.96056 3.44061 0
M  V30 5029 H 486.437 4.26398 1.74704 0
M  V30 5030 H 484.752 3.79037 1.72395 0
M  V30 5031 H 487.349 3.0365 4.40114 0
M  V30 5032 H 487.692 1.39199 3.92338 0
M  V30 5033 H 488.225 2.73747 2.8863 0
M  V30 5034 H 484.964 5.7181 3.2049 0
M  V30 5035 H 484.484 4.30663 4.1748 0
M  V30 5036 H 486.163 4.89876 4.22647 0
M  V30 5037 N 486.295 -0.989507 1.22664 0
M  V30 5038 C 487.706 -1.54406 1.04955 0
M  V30 5039 C 488.057 -1.92366 -0.385951 0
M  V30 5040 O 487.182 -1.75111 -1.27142 0
M  V30 5041 C 487.777 -2.80578 1.89899 0
M  V30 5042 C 486.336 -3.32464 1.76478 0
M  V30 5043 C 485.483 -2.05524 1.86159 0
M  V30 5044 H 488.434 -0.810211 1.3646 0
M  V30 5045 H 488.455 -3.53075 1.4184 0
M  V30 5046 H 487.967 -2.52918 2.94371 0
M  V30 5047 H 486.068 -3.65024 0.747528 0
M  V30 5048 H 486.181 -4.02838 2.59342 0
M  V30 5049 H 484.545 -2.19241 1.29636 0
M  V30 5050 H 485.328 -1.80258 2.92168 0
M  V30 5051 N 487.773 -1.03688 -1.18687 0
M  V30 5052 C 489.189 -0.755413 -1.4059 0
M  V30 5053 C 489.389 0.656659 -1.905 0
M  V30 5054 O 488.445 1.42144 -2.08689 0
M  V30 5055 C 489.758 -1.7983 -2.41001 0
M  V30 5056 C 491.306 -1.81877 -2.54735 0
M  V30 5057 C 491.781 -2.85148 -3.58406 0
M  V30 5058 N 493.272 -2.84015 -3.6591 0
M  V30 5059 C 494.007 -3.60573 -4.45841 0
M  V30 5060 N 493.503 -4.46871 -5.29413 0
M  V30 5061 N 495.296 -3.49079 -4.40568 0
M  V30 5062 H 487.447 -1.94818 -0.846148 0
M  V30 5063 H 489.71 -0.842727 -0.434184 0
M  V30 5064 H 489.416 -2.81097 -2.1137 0
M  V30 5065 H 489.29 -1.62727 -3.40294 0
M  V30 5066 H 491.677 -0.812836 -2.83685 0
M  V30 5067 H 491.758 -2.03057 -1.55568 0
M  V30 5068 H 491.402 -3.85918 -3.30197 0
M  V30 5069 H 491.332 -2.61224 -4.57241 0
M  V30 5070 H 493.823 -2.21431 -3.0623 0
M  V30 5071 H 494.136 -5.02007 -5.87545 0
M  V30 5072 H 492.481 -4.5094 -5.28846 0
M  V30 5073 H 495.672 -2.81066 -3.74325 0
M  V30 5074 H 495.845 -4.08994 -5.02621 0
M  V30 5075 N 489.251 1.34841 -0.815825 0
M  V30 5076 C 490.499 1.98107 -0.399744 0
M  V30 5077 C 490.82 1.65019 1.03894 0
M  V30 5078 O 490.09 0.937311 1.72021 0
M  V30 5079 H 488.67 0.732827 -0.144823 0
M  V30 5080 H 491.332 1.64599 -1.0437 0
M  V30 5081 H 490.428 3.07856 -0.512965 0
M  V30 5082 N 490.729 0.570148 1.46925 0
M  V30 5083 C 492.145 0.23087 1.57921 0
M  V30 5084 C 492.345 -1.26676 1.56702 0
M  V30 5085 O 491.401 -2.04774 1.47729 0
M  V30 5086 C 492.714 0.868973 2.8787 0
M  V30 5087 C 494.262 0.841397 3.01479 0
M  V30 5088 C 494.737 1.45881 4.34146 0
M  V30 5089 N 496.228 1.42258 4.40814 0
M  V30 5090 C 496.963 1.8698 5.42057 0
M  V30 5091 N 496.459 2.39618 6.50042 0
M  V30 5092 N 498.252 1.77972 5.33181 0
M  V30 5093 H 490.403 1.54301 1.45962 0
M  V30 5094 H 492.666 0.644224 0.69547 0
M  V30 5095 H 492.372 1.922 2.94537 0
M  V30 5096 H 492.246 0.369682 3.75384 0
M  V30 5097 H 494.633 -0.202973 2.94401 0
M  V30 5098 H 494.714 1.37858 2.15474 0
M  V30 5099 H 494.358 2.50231 4.4198 0
M  V30 5100 H 494.288 0.896958 5.18905 0
M  V30 5101 H 496.779 1.03768 3.63374 0
M  V30 5102 H 497.092 2.71633 7.23488 0
M  V30 5103 H 495.437 2.43636 6.50897 0
M  V30 5104 H 498.628 1.36617 4.4772 0
M  V30 5105 H 498.801 2.13143 6.11943 0
M  V30 5106 N 492.207 -1.54576 0.307264 0
M  V30 5107 C 493.14 -2.19946 -0.608195 0
M  V30 5108 C 494.118 -1.17096 -1.12815 0
M  V30 5109 O 495.302 -1.45766 -1.19518 0
M  V30 5110 C 492.429 -2.84826 -1.8328 0
M  V30 5111 C 491.475 -4.01256 -1.44554 0
M  V30 5112 S 492.308 -5.33197 -0.49612 0
M  V30 5113 C 493.464 -6.01563 -1.72838 0
M  V30 5114 H 493.697 -2.97253 -0.0528544 0
M  V30 5115 H 491.23 -1.54129 0.0913837 0
M  V30 5116 H 493.188 -3.22832 -2.53554 0
M  V30 5117 H 491.849 -2.07353 -2.35931 0
M  V30 5118 H 491.042 -4.45457 -2.35762 0
M  V30 5119 H 490.644 -3.6484 -0.822671 0
M  V30 5120 H 492.936 -6.22751 -2.6681 0
M  V30 5121 H 493.879 -6.9552 -1.32882 0
M  V30 5122 H 494.287 -5.31279 -1.90795 0
M  V30 5123 N 493.685 -0.035106 -1.57561 0
M  V30 5124 C 494.632 0.94474 -2.10578 0
M  V30 5125 C 495.602 1.3192 -1.00927 0
M  V30 5126 O 496.787 1.41147 -1.28382 0
M  V30 5127 C 493.927 2.21982 -2.64231 0
M  V30 5128 C 493.04 1.90128 -3.87911 0
M  V30 5129 C 492.175 3.11975 -4.29936 0
M  V30 5130 C 491.214 2.75968 -5.46359 0
M  V30 5131 N 490.351 3.90459 -5.83512 0
M  V30 5132 H 495.191 0.485717 -2.94015 0
M  V30 5133 H 492.728 0.228143 -1.4532 0
M  V30 5134 H 494.686 2.96572 -2.9343 0
M  V30 5135 H 493.316 2.6549 -1.83616 0
M  V30 5136 H 492.368 1.05755 -3.65404 0
M  V30 5137 H 493.68 1.59613 -4.72573 0
M  V30 5138 H 492.834 3.9488 -4.60603 0
M  V30 5139 H 491.573 3.45657 -3.44053 0
M  V30 5140 H 490.578 1.91478 -5.1538 0
M  V30 5141 H 491.803 2.43497 -6.33945 0
M  V30 5142 H 489.749 4.23971 -5.00584 0
M  V30 5143 H 489.666 3.63588 -6.62827 0
M  V30 5144 H 490.934 4.7405 -6.18787 0
M  V30 5145 N 495.163 1.55791 0.238111 0
M  V30 5146 C 496.44 1.68798 0.98826 0
M  V30 5147 C 496.82 0.577562 2.03045 0
M  V30 5148 O 496.168 -0.41778 2.24648 0
M  V30 5149 C 496.378 3.09454 1.61367 0
M  V30 5150 C 497.726 3.68335 2.11221 0
M  V30 5151 O 498.75 3.1231 1.71292 0
M  V30 5152 O 497.609 4.6657 2.84561 0
M  V30 5153 H 494.703 0.686881 0.460568 0
M  V30 5154 H 497.249 1.68118 0.231202 0
M  V30 5155 H 496.021 3.81726 0.860295 0
M  V30 5156 H 495.644 3.14182 2.4367 0
M  V30 5157 N 496.642 -0.504142 1.49319 0
M  V30 5158 C 497.572 -1.61473 1.68667 0
M  V30 5159 C 498.553 -1.61455 0.535378 0
M  V30 5160 O 499.738 -1.78245 0.770868 0
M  V30 5161 C 496.868 -2.99971 1.75028 0
M  V30 5162 C 495.822 -3.14854 2.89916 0
M  V30 5163 C 495.148 -4.54671 2.81387 0
M  V30 5164 C 496.448 -2.95176 4.30893 0
M  V30 5165 H 498.142 -1.45535 2.61648 0
M  V30 5166 H 495.688 -0.698711 1.25913 0
M  V30 5167 H 497.641 -3.77562 1.8715 0
M  V30 5168 H 496.365 -3.1699 0.786441 0
M  V30 5169 H 495.024 -2.39687 2.77391 0
M  V30 5170 H 494.672 -4.68562 1.82917 0
M  V30 5171 H 494.372 -4.6557 3.58494 0
M  V30 5172 H 495.896 -5.34327 2.95512 0
M  V30 5173 H 497.31 -3.62538 4.44116 0
M  V30 5174 H 495.707 -3.17549 5.09198 0
M  V30 5175 H 496.777 -1.91332 4.45556 0
M  V30 5176 N 498.12 -1.38341 -0.754957 0
M  V30 5177 C 499.067 -1.3546 -1.86867 0
M  V30 5178 C 500.037 -0.217369 -1.64672 0
M  V30 5179 O 501.222 -0.409383 -1.86356 0
M  V30 5180 C 498.362 -1.18413 -3.24149 0
M  V30 5181 C 497.475 -2.41511 -3.58185 0
M  V30 5182 C 496.61 -2.17205 -4.84763 0
M  V30 5183 C 495.649 -3.36081 -5.11582 0
M  V30 5184 N 494.786 -3.11219 -6.29354 0
M  V30 5185 H 499.626 -2.30672 -1.88664 0
M  V30 5186 H 497.163 -1.14607 -0.922154 0
M  V30 5187 H 499.121 -1.06545 -4.03366 0
M  V30 5188 H 497.751 -0.268397 -3.21682 0
M  V30 5189 H 496.803 -2.64056 -2.73822 0
M  V30 5190 H 498.115 -3.30115 -3.73932 0
M  V30 5191 H 497.269 -2.02465 -5.7192 0
M  V30 5192 H 496.008 -1.25964 -4.71152 0
M  V30 5193 H 495.013 -3.51341 -4.22894 0
M  V30 5194 H 496.238 -4.28196 -5.27091 0
M  V30 5195 H 494.184 -2.22624 -6.17069 0
M  V30 5196 H 494.101 -3.93373 -6.45596 0
M  V30 5197 H 495.369 -3.00132 -7.19403 0
M  V30 5198 N 499.598 0.982988 -1.23187 0
M  V30 5199 C 500.561 2.05649 -1.01198 0
M  V30 5200 C 501.561 1.6078 0.0252464 0
M  V30 5201 O 502.751 1.72878 -0.214243 0
M  V30 5202 C 499.883 3.36744 -0.530656 0
M  V30 5203 H 501.076 2.2659 -1.96461 0
M  V30 5204 H 498.629 1.15602 -1.05195 0
M  V30 5205 H 499.364 3.21492 0.425873 0
M  V30 5206 H 499.149 3.7065 -1.2791 0
M  V30 5207 H 500.639 4.15705 -0.397366 0
M  V30 5208 N 501.076 1.04316 1.18135 0
M  V30 5209 C 502.301 0.768047 1.92655 0
M  V30 5210 C 502.726 -0.66904 1.758 0
M  V30 5211 O 502.084 -1.46372 1.06981 0
M  V30 5212 C 502.132 1.14239 3.42026 0
M  V30 5213 O 501.236 0.269333 4.1152 0
M  V30 5214 H 500.577 0.282436 0.600937 0
M  V30 5215 H 503.107 1.39367 1.49793 0
M  V30 5216 H 503.117 1.10538 3.92741 0
M  V30 5217 H 501.792 2.18928 3.53615 0
M  V30 5218 H 500.369 0.366175 3.71098 0
M  V30 5219 N 502.554 -1.34406 0.822964 0
M  V30 5220 C 503.784 -2.02214 0.423424 0
M  V30 5221 C 504.192 -1.62124 -0.975322 0
M  V30 5222 O 503.535 -0.822452 -1.6426 0
M  V30 5223 C 503.597 -3.56721 0.446107 0
M  V30 5224 C 503.261 -4.20136 1.79819 0
M  V30 5225 C 504.258 -4.4065 2.75904 0
M  V30 5226 C 501.943 -4.56906 2.08669 0
M  V30 5227 C 503.937 -4.9706 3.99012 0
M  V30 5228 C 501.624 -5.13026 3.32036 0
M  V30 5229 C 502.622 -5.33047 4.27024 0
M  V30 5230 O 502.31 -5.87979 5.48211 0
M  V30 5231 H 502.042 -0.654748 0.168169 0
M  V30 5232 H 504.596 -1.72659 1.11257 0
M  V30 5233 H 502.826 -3.85537 -0.299734 0
M  V30 5234 H 504.515 -4.05845 0.0666114 0
M  V30 5235 H 505.281 -4.12607 2.54912 0
M  V30 5236 H 501.16 -4.40626 1.35535 0
M  V30 5237 H 504.704 -5.12603 4.73164 0
M  V30 5238 H 500.601 -5.40498 3.52891 0
M  V30 5239 H 501.369 -6.06413 5.49732 0
M  V30 5240 N 504.032 -0.577932 -1.46621 0
M  V30 5241 C 505.278 -0.0617793 -2.02706 0
M  V30 5242 C 505.611 1.29294 -1.44903 0
M  V30 5243 O 504.886 1.8461 -0.61232 0
M  V30 5244 C 505.169 0.00911824 -3.60099 0
M  V30 5245 C 505.022 -1.37416 -4.28295 0
M  V30 5246 C 506.341 0.712159 -4.343 0
M  V30 5247 H 503.46 -0.0239246 -0.736612 0
M  V30 5248 H 506.102 -0.744211 -1.74818 0
M  V30 5249 H 504.252 0.590292 -3.83989 0
M  V30 5250 H 505.924 -2.00013 -4.15683 0
M  V30 5251 H 504.167 -1.94319 -3.87843 0
M  V30 5252 H 504.838 -1.27707 -5.37024 0
M  V30 5253 H 507.314 0.218486 -4.15526 0
M  V30 5254 H 506.19 0.730782 -5.44014 0
M  V30 5255 H 506.451 1.77251 -4.05012 0
M  V30 5256 N 505.51 1.54411 -0.315457 0
M  V30 5257 C 506.44 2.27002 0.547039 0
M  V30 5258 C 507.421 1.27492 1.12605 0
M  V30 5259 O 508.606 1.5629 1.15269 0
M  V30 5260 C 505.736 3.02171 1.71201 0
M  V30 5261 C 504.69 4.0895 1.26268 0
M  V30 5262 C 504.016 4.71915 2.51396 0
M  V30 5263 C 505.316 5.20891 0.383419 0
M  V30 5264 H 507.01 2.99343 -0.0584517 0
M  V30 5265 H 504.556 1.4397 -0.0295527 0
M  V30 5266 H 506.509 3.51681 2.32161 0
M  V30 5267 H 505.233 2.27433 2.34397 0
M  V30 5268 H 503.892 3.60312 0.676062 0
M  V30 5269 H 503.54 3.93801 3.12937 0
M  V30 5270 H 503.24 5.44039 2.22026 0
M  V30 5271 H 504.764 5.24195 3.13133 0
M  V30 5272 H 506.178 5.66206 0.899082 0
M  V30 5273 H 504.575 5.99821 0.182857 0
M  V30 5274 H 505.645 4.81324 -0.587821 0
M  V30 5275 N 506.988 0.0434614 1.5754 0
M  V30 5276 C 507.936 -0.951465 2.1225 0
M  V30 5277 C 508.93 -1.3274 1.05245 0
M  V30 5278 O 510.136 -1.30795 1.23663 0
M  V30 5279 H 506.511 -0.324667 0.678303 0
M  V30 5280 H 508.482 -0.464855 2.94757 0
M  V30 5281 C 507.231 -2.21972 2.67626 0
M  V30 5282 H 506.554 -1.93923 3.4962 0
M  V30 5283 H 507.994 -2.89765 3.09536 0
M  V30 5284 C 506.453 -2.95919 1.61038 0
M  V30 5285 O 506.983 -3.8857 1.01862 0
M  V30 5286 N 505.189 -2.58511 1.32741 0
M  V30 5287 H 504.736 -1.83244 1.81051 0
M  V30 5288 H 504.694 -3.08296 0.616531 0
M  V30 5289 N 508.466 -1.55915 -0.229846 0
M  V30 5290 C 509.691 -1.8296 -0.976743 0
M  V30 5291 C 510.116 -0.622735 -1.77493 0
M  V30 5292 O 509.474 0.428431 -1.76165 0
M  V30 5293 C 509.522 -3.07916 -1.8767 0
M  V30 5294 O 508.626 -2.86028 -2.97088 0
M  V30 5295 H 507.967 -0.603453 -0.277021 0
M  V30 5296 H 510.497 -2.0312 -0.245669 0
M  V30 5297 H 510.507 -3.37802 -2.2881 0
M  V30 5298 H 509.182 -3.95389 -1.28996 0
M  V30 5299 H 507.759 -2.67355 -2.59954 0
M  V30 5300 N 509.944 0.496216 -1.49584 0
M  V30 5301 C 511.169 1.27865 -1.63295 0
M  V30 5302 C 511.594 1.85592 -0.306156 0
M  V30 5303 O 510.952 1.66092 0.726851 0
M  V30 5304 C 511 2.38128 -2.7079 0
M  V30 5305 O 510.104 3.42108 -2.30296 0
M  V30 5306 H 509.445 0.377279 -0.546403 0
M  V30 5307 H 511.975 0.593497 -1.95803 0
M  V30 5308 H 511.985 2.8382 -2.93104 0
M  V30 5309 H 510.66 1.95479 -3.67098 0
M  V30 5310 H 509.237 3.02301 -2.18331 0
M  V30 5311 N 511.423 1.38739 0.74761 0
M  V30 5312 C 512.333 1.38696 1.89211 0
M  V30 5313 C 513.349 0.283303 1.71678 0
M  V30 5314 O 514.525 0.522713 1.94498 0
M  V30 5315 C 511.59 1.21662 3.24653 0
M  V30 5316 C 510.651 2.41886 3.54669 0
M  V30 5317 C 509.884 2.25655 4.83648 0
M  V30 5318 O 510.107 1.25339 5.56459 0
M  V30 5319 O 509.041 3.14372 5.13277 0
M  V30 5320 H 512.867 2.35143 1.92202 0
M  V30 5321 H 510.452 1.19721 0.893708 0
M  V30 5322 H 512.334 1.14246 4.05618 0
M  V30 5323 H 511.009 0.283024 3.2246 0
M  V30 5324 H 509.916 2.54877 2.73841 0
M  V30 5325 H 511.249 3.33895 3.61628 0
M  V30 5326 N 512.901 -0.976442 1.23707 0
M  V30 5327 C 513.831 -2.08749 1.04624 0
M  V30 5328 C 514.812 -1.70057 -0.0380956 0
M  V30 5329 O 515.997 -1.93782 0.127308 0
M  V30 5330 C 513.127 -3.41335 0.640902 0
M  V30 5331 C 512.081 -3.93947 1.67302 0
M  V30 5332 C 511.407 -5.22774 1.12301 0
M  V30 5333 C 512.707 -4.22769 3.06697 0
M  V30 5334 H 514.401 -2.24972 1.97555 0
M  V30 5335 H 511.947 -1.08108 0.951247 0
M  V30 5336 H 513.9 -4.18489 0.494434 0
M  V30 5337 H 512.624 -3.24988 -0.324099 0
M  V30 5338 H 511.283 -3.18941 1.80755 0
M  V30 5339 H 510.931 -5.0278 0.148877 0
M  V30 5340 H 510.631 -5.58942 1.81267 0
M  V30 5341 H 512.155 -6.02546 0.988479 0
M  V30 5342 H 513.569 -4.90659 2.96524 0
M  V30 5343 H 511.966 -4.70147 3.72937 0
M  V30 5344 H 513.036 -3.29885 3.55392 0
M  V30 5345 N 514.379 -1.04941 -1.1758 0
M  V30 5346 C 515.329 -0.618378 -2.19454 0
M  V30 5347 C 516.313 0.343813 -1.57184 0
M  V30 5348 O 517.505 0.16145 -1.76262 0
M  V30 5349 C 514.634 0.00803847 -3.43299 0
M  V30 5350 C 513.72 -0.977827 -4.12673 0
M  V30 5351 N 514.111 -2.14826 -4.57912 0
M  V30 5352 C 512.409 -0.805748 -4.38661 0
M  V30 5353 C 513.11 -2.77174 -5.11419 0
M  V30 5354 N 512.086 -2.04989 -5.03468 0
M  V30 5355 H 515.888 -1.51018 -2.52132 0
M  V30 5356 H 513.402 -0.919201 -1.33882 0
M  V30 5357 H 515.399 0.334584 -4.15555 0
M  V30 5358 H 514.059 0.895272 -3.12114 0
M  V30 5359 H 515.07 -2.52673 -4.52081 0
M  V30 5360 H 511.747 0.0306506 -4.17489 0
M  V30 5361 H 513.137 -3.76416 -5.56562 0
M  V30 5362 N 515.857 1.33968 -0.830081 0
M  V30 5363 C 516.82 2.27694 -0.26235 0
M  V30 5364 C 517.82 1.50589 0.563876 0
M  V30 5365 O 519.01 1.70028 0.378941 0
M  V30 5366 C 516.142 3.35002 0.63138 0
M  V30 5367 H 517.335 2.79419 -1.08928 0
M  V30 5368 H 514.888 1.44221 -0.602486 0
M  V30 5369 H 515.623 2.88504 1.48109 0
M  V30 5370 H 515.408 3.92079 0.0403276 0
M  V30 5371 H 516.898 4.04897 1.02217 0
M  V30 5372 N 517.335 0.585699 1.46312 0
M  V30 5373 C 518.746 0.159938 1.86014 0
M  V30 5374 C 519.097 -1.27775 1.48889 0
M  V30 5375 O 518.222 -1.96559 0.90519 0
M  V30 5376 C 518.817 0.283485 3.37612 0
M  V30 5377 C 517.376 -0.0874256 3.76298 0
M  V30 5378 C 516.523 0.618055 2.70325 0
M  V30 5379 H 519.474 0.793737 1.37425 0
M  V30 5380 H 519.495 -0.490348 3.77327 0
M  V30 5381 H 519.007 1.32995 3.64601 0
M  V30 5382 H 517.108 -1.13391 3.54927 0
M  V30 5383 H 517.221 0.290975 4.78216 0
M  V30 5384 H 515.585 0.057993 2.54634 0
M  V30 5385 H 516.368 1.66623 3.00153 0
M  V30 5386 N 518.813 -1.54241 0.323641 0
M  V30 5387 C 519.743 -2.27289 -0.534993 0
M  V30 5388 C 520.724 -1.28087 -1.11927 0
M  V30 5389 O 521.909 -1.56899 -1.14439 0
M  V30 5390 C 519.039 -3.03075 -1.69596 0
M  V30 5391 C 517.993 -4.09614 -1.24098 0
M  V30 5392 C 517.319 -4.73242 -2.4889 0
M  V30 5393 C 518.619 -5.21087 -0.355789 0
M  V30 5394 H 520.313 -2.99308 0.0743257 0
M  V30 5395 H 517.859 -1.43952 0.0371874 0
M  V30 5396 H 519.812 -3.52907 -2.30293 0
M  V30 5397 H 518.536 -2.28673 -2.33187 0
M  V30 5398 H 517.195 -3.60666 -0.656945 0
M  V30 5399 H 516.843 -3.95455 -3.10845 0
M  V30 5400 H 516.543 -5.45209 -2.19138 0
M  V30 5401 H 518.067 -5.25848 -3.10348 0
M  V30 5402 H 519.481 -5.66675 -0.869042 0
M  V30 5403 H 517.878 -5.9991 -0.151045 0
M  V30 5404 H 518.948 -4.81005 0.613339 0
M  V30 5405 N 520.291 -0.0518155 -1.57515 0
M  V30 5406 C 521.223 0.951542 -2.08515 0
M  V30 5407 C 522.236 1.27436 -1.01311 0
M  V30 5408 O 523.425 1.23504 -1.28876 0
M  V30 5409 C 520.525 2.27291 -2.5138 0
M  V30 5410 C 519.698 2.13191 -3.81927 0
M  V30 5411 C 518.757 3.28458 -4.11098 0
M  V30 5412 O 517.783 3.04334 -4.81009 0
M  V30 5413 N 518.985 4.52954 -3.63061 0
M  V30 5414 H 521.75 0.516242 -2.9522 0
M  V30 5415 H 519.311 0.13441 -1.61341 0
M  V30 5416 H 521.303 3.03272 -2.67971 0
M  V30 5417 H 519.873 2.62386 -1.69919 0
M  V30 5418 H 519.093 1.21798 -3.74912 0
M  V30 5419 H 520.381 2.00999 -4.67415 0
M  V30 5420 H 519.779 4.75444 -3.06545 0
M  V30 5421 H 518.336 5.26026 -3.84889 0
M  V30 5422 N 521.769 1.56035 0.221574 0
M  V30 5423 C 522.716 1.92413 1.27459 0
M  V30 5424 C 523.686 0.781323 1.46576 0
M  V30 5425 O 524.871 1.03721 1.60145 0
M  V30 5426 C 522.011 2.24617 2.61995 0
M  V30 5427 C 521.124 3.51831 2.50677 0
M  V30 5428 C 520.259 3.73482 3.77736 0
M  V30 5429 C 519.298 4.94211 3.6114 0
M  V30 5430 N 518.435 5.12252 4.80148 0
M  V30 5431 H 523.275 2.82203 0.957355 0
M  V30 5432 H 520.812 1.39676 0.461415 0
M  V30 5433 H 522.77 2.41298 3.40339 0
M  V30 5434 H 521.4 1.38 2.91815 0
M  V30 5435 H 520.452 3.43343 1.63767 0
M  V30 5436 H 521.764 4.40328 2.34334 0
M  V30 5437 H 520.918 3.9026 4.64523 0
M  V30 5438 H 519.657 2.83266 3.97003 0
M  V30 5439 H 518.662 4.77384 2.72736 0
M  V30 5440 H 519.887 5.85912 3.43343 0
M  V30 5441 H 517.833 4.24978 4.99729 0
M  V30 5442 H 517.75 5.94881 4.66532 0
M  V30 5443 H 519.018 5.33465 5.68362 0
M  V30 5444 N 523.247 -0.488276 1.49845 0
M  V30 5445 C 524.195 -1.60917 1.67954 0
M  V30 5446 C 525.189 -1.6038 0.54539 0
M  V30 5447 O 526.395 -1.64736 0.7254 0
M  V30 5448 H 522.77 -0.533658 0.529824 0
M  V30 5449 H 524.741 -1.428 2.62013 0
M  V30 5450 C 523.49 -2.98975 1.77509 0
M  V30 5451 H 522.813 -3.00099 2.6416 0
M  V30 5452 H 524.253 -3.76906 1.9421 0
M  V30 5453 C 522.712 -3.3282 0.522745 0
M  V30 5454 O 523.242 -4.00208 -0.345866 0
M  V30 5455 N 521.448 -2.8808 0.381882 0
M  V30 5456 H 520.995 -2.33415 1.08974 0
M  V30 5457 H 520.953 -3.11091 -0.454929 0
M  V30 5458 N 524.725 -1.39134 -0.740242 0
M  V30 5459 C 525.657 -1.33332 -1.86428 0
M  V30 5460 C 526.67 -0.243042 -1.60976 0
M  V30 5461 O 527.859 -0.501608 -1.71307 0
M  V30 5462 C 524.959 -1.04626 -3.22346 0
M  V30 5463 C 524.132 -2.24826 -3.75196 0
M  V30 5464 C 523.191 -1.92659 -4.89662 0
M  V30 5465 O 522.217 -2.6529 -5.03597 0
M  V30 5466 N 523.419 -0.889575 -5.73643 0
M  V30 5467 H 526.184 -2.30196 -1.91911 0
M  V30 5468 H 523.745 -1.33168 -0.920756 0
M  V30 5469 H 525.737 -0.811347 -3.96484 0
M  V30 5470 H 524.307 -0.165129 -3.12164 0
M  V30 5471 H 523.527 -2.64301 -2.9247 0
M  V30 5472 H 524.815 -3.05015 -4.07239 0
M  V30 5473 H 524.213 -0.287529 -5.64969 0
M  V30 5474 H 522.77 -0.714557 -6.47871 0
M  V30 5475 N 526.204 0.969867 -1.24223 0
M  V30 5476 C 527.45 1.7151 -1.08223 0
M  V30 5477 C 527.783 1.90478 0.37838 0
M  V30 5478 O 527.058 1.4647 1.27971 0
M  V30 5479 C 527.341 3.10714 -1.82013 0
M  V30 5480 C 527.194 2.9925 -3.35811 0
M  V30 5481 C 528.513 4.10332 -1.59108 0
M  V30 5482 H 525.632 0.622499 -0.394543 0
M  V30 5483 H 528.274 1.1284 -1.52863 0
M  V30 5484 H 526.424 3.608 -1.44068 0
M  V30 5485 H 528.096 2.56608 -3.83341 0
M  V30 5486 H 526.339 2.35512 -3.64303 0
M  V30 5487 H 527.01 3.97857 -3.82641 0
M  V30 5488 H 529.486 3.69097 -1.92111 0
M  V30 5489 H 528.362 5.05804 -2.13198 0
M  V30 5490 H 528.623 4.38926 -0.528832 0
M  V30 5491 N 527.682 1.05563 1.17022 0
M  V30 5492 C 528.928 0.769074 1.87652 0
M  V30 5493 C 529.261 -0.702326 1.81055 0
M  V30 5494 O 528.536 -1.5139 1.22112 0
M  V30 5495 C 528.819 1.25492 3.37526 0
M  V30 5496 C 528.672 2.78953 3.52853 0
M  V30 5497 C 529.991 0.856919 4.31677 0
M  V30 5498 H 527.11 0.280854 0.681388 0
M  V30 5499 H 529.752 1.31027 1.37593 0
M  V30 5500 H 527.902 0.794516 3.80289 0
M  V30 5501 H 529.574 3.33146 3.19079 0
M  V30 5502 H 527.817 3.18046 2.95007 0
M  V30 5503 H 528.488 3.08011 4.58076 0
M  V30 5504 H 530.964 1.25334 3.96775 0
M  V30 5505 H 529.84 1.22443 5.35069 0
M  V30 5506 H 530.101 -0.238787 4.41455 0
M  V30 5507 N 529.16 -1.33526 0.837174 0
M  V30 5508 C 530.408 -1.97446 0.431211 0
M  V30 5509 C 530.729 -1.6665 -1.01255 0
M  V30 5510 O 529.999 -0.964559 -1.70508 0
M  V30 5511 H 528.579 -0.73043 0.156463 0
M  V30 5512 H 531.241 -1.62918 1.06976 0
M  V30 5513 H 530.337 -3.07001 0.561877 0
M  V30 5514 N 530.638 -0.59345 -1.46 0
M  V30 5515 C 531.866 -0.0890934 -2.06708 0
M  V30 5516 C 532.281 1.2205 -1.44046 0
M  V30 5517 O 531.638 1.74029 -0.549551 0
M  V30 5518 C 531.689 0.0720263 -3.61428 0
M  V30 5519 O 531.41 -1.18574 -4.21748 0
M  V30 5520 C 532.911 0.609487 -4.3909 0
M  V30 5521 H 530.131 -0.0623628 -0.668096 0
M  V30 5522 H 532.675 -0.817171 -1.87464 0
M  V30 5523 H 530.83 0.750369 -3.80063 0
M  V30 5524 H 531.244 -1.0064 -5.14754 0
M  V30 5525 H 532.718 0.671363 -5.47902 0
M  V30 5526 H 533.195 1.62878 -4.07882 0
M  V30 5527 H 533.801 -0.03434 -4.25286 0
M  V30 5528 N 532.116 1.54067 -0.331816 0
M  V30 5529 C 533.365 1.99895 0.269209 0
M  V30 5530 C 533.678 1.22371 1.52593 0
M  V30 5531 O 534.884 1.58618 2.20347 0
M  V30 5532 C 533.34 3.55972 0.530244 0
M  V30 5533 C 532.948 4.4234 -0.709901 0
M  V30 5534 C 534.692 4.10247 1.09077 0
M  V30 5535 C 532.599 5.89905 -0.420312 0
M  V30 5536 H 531.529 0.746741 0.104371 0
M  V30 5537 H 534.18 1.78014 -0.445324 0
M  V30 5538 H 532.562 3.73873 1.30518 0
M  V30 5539 H 533.736 4.36215 -1.48504 0
M  V30 5540 H 532.051 3.98997 -1.19123 0
M  V30 5541 H 534.648 5.18095 1.32219 0
M  V30 5542 H 534.991 3.62739 2.0427 0
M  V30 5543 H 535.524 3.96011 0.376824 0
M  V30 5544 H 532.263 6.41623 -1.34164 0
M  V30 5545 H 531.783 5.98962 0.316962 0
M  V30 5546 H 533.462 6.46991 -0.0331956 0
M  V30 5547 N 533.594 0.0601682 1.57485 0
M  V30 5548 C 534.542 -0.928899 2.13247 0
M  V30 5549 C 535.536 -1.31616 1.06647 0
M  V30 5550 O 536.742 -1.29476 1.25043 0
M  V30 5551 H 533.117 -0.317455 0.681708 0
M  V30 5552 H 535.088 -0.433566 2.95233 0
M  V30 5553 C 533.837 -2.19121 2.69965 0
M  V30 5554 H 533.16 -1.90204 3.51657 0
M  V30 5555 H 534.6 -2.86465 3.12592 0
M  V30 5556 C 533.059 -2.94195 1.64168 0
M  V30 5557 O 533.589 -3.87468 1.05978 0
M  V30 5558 N 531.795 -2.57089 1.35476 0
M  V30 5559 H 531.342 -1.81314 1.82984 0
M  V30 5560 H 531.3 -3.07624 0.649196 0
M  V30 5561 N 535.072 -1.5615 -0.213296 0
M  V30 5562 C 536.319 -1.79546 -0.936462 0
M  V30 5563 C 536.647 -0.630337 -1.84003 0
M  V30 5564 O 535.902 0.384883 -1.91878 0
M  V30 5565 C 536.201 -3.08772 -1.79985 0
M  V30 5566 C 535.867 -4.38532 -1.04882 0
M  V30 5567 C 534.529 -4.73787 -0.841393 0
M  V30 5568 C 536.881 -5.18609 -0.51907 0
M  V30 5569 C 534.209 -5.86627 -0.0924403 0
M  V30 5570 C 536.561 -6.32229 0.216581 0
M  V30 5571 C 535.225 -6.6608 0.435191 0
M  V30 5572 H 534.495 -0.657004 -0.342676 0
M  V30 5573 H 537.142 -1.9041 -0.204051 0
M  V30 5574 H 535.447 -2.93065 -2.60038 0
M  V30 5575 H 537.144 -3.24077 -2.36168 0
M  V30 5576 H 533.734 -4.10855 -1.22048 0
M  V30 5577 H 537.918 -4.91801 -0.666775 0
M  V30 5578 H 533.174 -6.11338 0.087081 0
M  V30 5579 H 537.348 -6.93503 0.634538 0
M  V30 5580 H 534.975 -7.5336 1.01746 0
M  V30 5581 N 536.55 0.480323 -1.50102 0
M  V30 5582 C 537.482 1.59669 -1.64433 0
M  V30 5583 C 538.495 1.54063 -0.52615 0
M  V30 5584 O 539.684 1.59619 -0.798992 0
M  V30 5585 C 536.784 2.98527 -1.6042 0
M  V30 5586 C 535.957 3.291 -2.88117 0
M  V30 5587 C 535.016 4.47468 -2.76873 0
M  V30 5588 O 534.042 4.4823 -3.50825 0
M  V30 5589 N 535.244 5.48593 -1.89806 0
M  V30 5590 H 538.009 1.47795 -2.60723 0
M  V30 5591 H 535.57 0.66858 -1.4745 0
M  V30 5592 H 537.562 3.75666 -1.50523 0
M  V30 5593 H 536.132 3.04218 -0.719036 0
M  V30 5594 H 535.352 2.40662 -3.12211 0
M  V30 5595 H 536.64 3.46334 -3.72734 0
M  V30 5596 H 536.038 5.50791 -1.2902 0
M  V30 5597 H 534.595 6.24752 -1.85819 0
M  V30 5598 N 538.028 1.39524 0.732853 0
M  V30 5599 C 538.958 1.41153 1.86005 0
M  V30 5600 C 539.939 0.274614 1.67869 0
M  V30 5601 O 541.124 0.480745 1.88155 0
M  V30 5602 C 538.254 1.25638 3.23778 0
M  V30 5603 C 537.208 2.36752 3.56556 0
M  V30 5604 C 536.534 2.06326 4.93289 0
M  V30 5605 C 537.834 3.79069 3.5931 0
M  V30 5606 H 539.528 2.35484 1.84899 0
M  V30 5607 H 537.074 1.13348 0.888162 0
M  V30 5608 H 539.027 1.25398 4.0231 0
M  V30 5609 H 537.751 0.277772 3.25417 0
M  V30 5610 H 536.41 2.36213 2.80355 0
M  V30 5611 H 536.058 1.06897 4.9151 0
M  V30 5612 H 535.758 2.80757 5.16187 0
M  V30 5613 H 537.282 2.07739 5.74175 0
M  V30 5614 H 538.696 3.81526 4.27914 0
M  V30 5615 H 537.093 4.52878 3.93728 0
M  V30 5616 H 538.163 4.09893 2.59068 0
M  V30 5617 N 539.506 -0.963266 1.24736 0
M  V30 5618 C 540.783 -1.68248 0.9976 0
M  V30 5619 C 541.163 -2.05599 -0.478776 0
M  V30 5620 O 540.511 -1.7626 -1.45412 0
M  V30 5621 C 540.721 -2.91118 1.92487 0
M  V30 5622 C 542.069 -3.63261 2.19833 0
M  V30 5623 O 543.093 -3.01184 1.90176 0
M  V30 5624 O 541.952 -4.75019 2.7022 0
M  V30 5625 H 539.046 -0.735744 0.377637 0
M  V30 5626 H 541.592 -1.01696 1.35853 0
M  V30 5627 H 540.364 -2.60242 2.92215 0
M  V30 5628 H 539.987 -3.65402 1.56738 0
M  V30 5629 N 540.985 -1.06182 -1.16461 0
M  V30 5630 C 542.233 -0.776326 -1.86595 0
M  V30 5631 C 542.554 0.69921 -1.82033 0
M  V30 5632 O 541.824 1.50579 -1.2531 0
M  V30 5633 H 540.404 -0.284184 -0.690832 0
M  V30 5634 H 543.066 -1.34308 -1.41235 0
M  V30 5635 H 542.162 -1.10022 -2.92064 0
M  V30 5636 N 542.463 1.3308 -0.844243 0
M  V30 5637 C 543.41 2.29104 -0.279323 0
M  V30 5638 C 544.38 1.54577 0.607882 0
M  V30 5639 O 545.565 1.8285 0.545009 0
M  V30 5640 C 542.705 3.40927 0.53508 0
M  V30 5641 C 541.818 4.30354 -0.376749 0
M  V30 5642 C 540.953 5.29297 0.449276 0
M  V30 5643 C 539.992 6.10365 -0.460606 0
M  V30 5644 N 539.129 7.01335 0.327612 0
M  V30 5645 H 543.969 2.76817 -1.10346 0
M  V30 5646 H 541.506 1.36203 -0.555611 0
M  V30 5647 H 543.464 4.04469 1.02278 0
M  V30 5648 H 542.094 2.94391 1.32414 0
M  V30 5649 H 541.146 3.67485 -0.982791 0
M  V30 5650 H 542.458 4.87067 -1.07549 0
M  V30 5651 H 541.612 5.98392 1.00058 0
M  V30 5652 H 540.351 4.73174 1.18143 0
M  V30 5653 H 539.356 5.40182 -1.02388 0
M  V30 5654 H 540.581 6.68571 -1.1912 0
M  V30 5655 H 538.527 6.47655 1.04305 0
M  V30 5656 H 538.444 7.55355 -0.3123 0
M  V30 5657 H 539.712 7.74731 0.86098 0
M  V30 5658 N 543.941 0.601185 1.45683 0
M  V30 5659 C 545.169 0.100054 2.06658 0
M  V30 5660 C 545.584 -1.21285 1.44691 0
M  V30 5661 O 544.941 -1.73735 0.558772 0
M  V30 5662 C 544.992 -0.0528579 3.61461 0
M  V30 5663 O 544.713 1.20809 4.21114 0
M  V30 5664 C 546.214 -0.586193 4.39407 0
M  V30 5665 H 543.434 0.065905 0.667756 0
M  V30 5666 H 545.978 0.827101 1.87028 0
M  V30 5667 H 544.133 -0.730203 3.80456 0
M  V30 5668 H 544.547 1.03368 5.14213 0
M  V30 5669 H 546.021 -0.642297 5.4825 0
M  V30 5670 H 546.498 -1.60713 4.0874 0
M  V30 5671 H 547.104 0.0568935 4.25262 0
M  V30 5672 N 545.419 -1.53889 0.339982 0
M  V30 5673 C 546.668 -2.00035 -0.258604 0
M  V30 5674 C 546.981 -1.23179 -1.51942 0
M  V30 5675 O 548.187 -1.59784 -2.19503 0
M  V30 5676 C 546.643 -3.56249 -0.511359 0
M  V30 5677 C 546.251 -4.41957 0.733349 0
M  V30 5678 C 547.995 -4.1082 -1.069 0
M  V30 5679 C 545.902 -5.89673 0.451591 0
M  V30 5680 H 544.832 -0.747284 -0.10041 0
M  V30 5681 H 547.483 -1.77776 0.454758 0
M  V30 5682 H 545.865 -3.7456 -1.28533 0
M  V30 5683 H 547.039 -4.35421 1.50815 0
M  V30 5684 H 545.354 -3.9836 1.21237 0
M  V30 5685 H 547.951 -5.18789 -1.2947 0
M  V30 5686 H 548.294 -3.63817 -2.02343 0
M  V30 5687 H 548.827 -3.96205 -0.355817 0
M  V30 5688 H 545.566 -6.40903 1.37565 0
M  V30 5689 H 545.086 -5.99122 -0.285193 0
M  V30 5690 H 546.765 -6.46965 0.0675067 0
M  V30 5691 N 546.897 -0.0685191 -1.57451 0
M  V30 5692 C 547.807 0.914677 -2.16034 0
M  V30 5693 C 548.823 1.32938 -1.12265 0
M  V30 5694 O 549.999 1.40275 -1.44516 0
M  V30 5695 C 547.064 2.16519 -2.70777 0
M  V30 5696 C 546.125 1.80721 -3.89408 0
M  V30 5697 C 545.358 2.9981 -4.41531 0
M  V30 5698 O 545.581 4.13727 -3.92666 0
M  V30 5699 O 544.515 2.79817 -5.32903 0
M  V30 5700 H 548.341 0.446364 -3.00402 0
M  V30 5701 H 545.926 0.154367 -1.486 0
M  V30 5702 H 547.808 2.89856 -3.05878 0
M  V30 5703 H 546.483 2.62454 -1.89471 0
M  V30 5704 H 545.39 1.04646 -3.59166 0
M  V30 5705 H 546.723 1.39571 -4.71997 0
M  V30 5706 N 548.375 1.56261 0.205012 0
M  V30 5707 C 549.307 1.90266 1.27795 0
M  V30 5708 C 550.32 0.792397 1.42214 0
M  V30 5709 O 551.509 1.07077 1.42817 0
M  V30 5710 C 548.609 2.11074 2.65143 0
M  V30 5711 C 547.782 3.42176 2.7246 0
M  V30 5712 C 546.841 3.52216 3.90936 0
M  V30 5713 O 545.867 4.25119 3.78501 0
M  V30 5714 N 547.069 2.84573 5.05963 0
M  V30 5715 H 549.834 2.82896 0.989434 0
M  V30 5716 H 547.395 1.57008 0.394981 0
M  V30 5717 H 549.387 2.15089 3.4281 0
M  V30 5718 H 547.957 1.2499 2.86524 0
M  V30 5719 H 547.177 3.50116 1.81142 0
M  V30 5720 H 548.465 4.28509 2.74331 0
M  V30 5721 H 547.863 2.25152 5.18963 0
M  V30 5722 H 546.42 2.94228 5.81613 0
M  V30 5723 N 549.853 -0.472356 1.50355 0
M  V30 5724 C 551.269 -0.806001 1.37753 0
M  V30 5725 C 551.469 -1.968 0.432649 0
M  V30 5726 O 550.525 -2.52189 -0.12519 0
M  V30 5727 C 551.838 -1.11926 2.79093 0
M  V30 5728 C 553.386 -1.22579 2.87999 0
M  V30 5729 C 553.861 -1.57218 4.3017 0
M  V30 5730 N 555.352 -1.64212 4.33115 0
M  V30 5731 C 556.087 -1.92517 5.40116 0
M  V30 5732 N 555.583 -2.1885 6.57325 0
M  V30 5733 N 557.376 -1.94008 5.27558 0
M  V30 5734 H 549.527 0.293451 2.10363 0
M  V30 5735 H 551.79 0.0687672 0.945503 0
M  V30 5736 H 551.496 -0.338504 3.50067 0
M  V30 5737 H 551.37 -2.05577 3.16256 0
M  V30 5738 H 553.757 -1.99722 2.17245 0
M  V30 5739 H 553.838 -0.269107 2.54381 0
M  V30 5740 H 553.482 -0.806154 5.01461 0
M  V30 5741 H 553.412 -2.54034 4.61275 0
M  V30 5742 H 555.903 -1.45906 3.48597 0
M  V30 5743 H 556.216 -2.39718 7.3468 0
M  V30 5744 H 554.561 -2.16245 6.60502 0
M  V30 5745 H 557.752 -1.72931 4.34986 0
M  V30 5746 H 557.925 -2.15731 6.11035 0
M  V30 5747 N 551.331 -1.39911 -0.725443 0
M  V30 5748 C 552.742 -1.33599 -1.30415 0
M  V30 5749 C 553.093 -0.00481792 -1.96199 0
M  V30 5750 O 552.218 0.897275 -1.96921 0
M  V30 5751 C 552.813 -2.41965 -2.37146 0
M  V30 5752 C 551.372 -2.39144 -2.90667 0
M  V30 5753 C 550.519 -2.23355 -1.64341 0
M  V30 5754 H 553.47 -1.4986 -0.522267 0
M  V30 5755 H 553.491 -2.09304 -3.17761 0
M  V30 5756 H 553.003 -3.38837 -1.89238 0
M  V30 5757 H 551.104 -1.4594 -3.4283 0
M  V30 5758 H 551.217 -3.34362 -3.43131 0
M  V30 5759 H 549.581 -1.70696 -1.89037 0
M  V30 5760 H 550.364 -3.2221 -1.18471 0
M  V30 5761 N 552.809 0.956637 -1.25245 0
M  V30 5762 C 553.739 2.07058 -1.07931 0
M  V30 5763 C 554.72 1.70096 0.0110361 0
M  V30 5764 O 555.905 1.93555 -0.158121 0
M  V30 5765 C 553.035 3.40272 -0.695124 0
M  V30 5766 C 551.989 3.91235 -1.73549 0
M  V30 5767 C 551.315 5.20921 -1.20604 0
M  V30 5768 C 552.615 4.17837 -3.13385 0
M  V30 5769 H 554.309 2.218 -2.01109 0
M  V30 5770 H 551.855 1.06581 -0.968326 0
M  V30 5771 H 553.808 4.1765 -0.560949 0
M  V30 5772 H 552.532 3.25462 0.272355 0
M  V30 5773 H 551.191 3.16025 -1.85807 0
M  V30 5774 H 550.839 5.02479 -0.228846 0
M  V30 5775 H 550.539 5.55987 -1.90136 0
M  V30 5776 H 552.063 6.00897 -1.08421 0
M  V30 5777 H 553.477 4.8588 -3.04292 0
M  V30 5778 H 551.874 4.64154 -3.80369 0
M  V30 5779 H 552.944 3.2419 -3.60595 0
M  V30 5780 N 554.287 1.06798 1.15896 0
M  V30 5781 C 555.533 0.788934 1.86825 0
M  V30 5782 C 555.866 -0.683084 1.8179 0
M  V30 5783 O 555.141 -1.50086 1.23711 0
M  V30 5784 C 555.424 1.29065 3.36176 0
M  V30 5785 C 555.277 2.8268 3.49874 0
M  V30 5786 C 556.596 0.902655 4.30744 0
M  V30 5787 H 553.715 0.288066 0.678371 0
M  V30 5788 H 556.357 1.32479 1.36195 0
M  V30 5789 H 554.507 0.834806 3.79425 0
M  V30 5790 H 556.179 3.36511 3.15528 0
M  V30 5791 H 554.422 3.21157 2.91617 0
M  V30 5792 H 555.093 3.12852 4.54783 0
M  V30 5793 H 557.569 1.29535 3.95424 0
M  V30 5794 H 556.445 1.28111 5.3374 0
M  V30 5795 H 556.706 -0.191951 4.41683 0
M  V30 5796 N 555.766 -1.3263 0.851289 0
M  V30 5797 C 557.012 -1.9766 0.453694 0
M  V30 5798 C 557.345 -1.67225 -0.987396 0
M  V30 5799 O 556.62 -0.958693 -1.69232 0
M  V30 5800 C 556.903 -3.5344 0.68936 0
M  V30 5801 C 556.756 -3.93517 2.17862 0
M  V30 5802 C 558.075 -4.39866 0.143555 0
M  V30 5803 H 555.194 -0.717989 0.166314 0
M  V30 5804 H 557.836 -1.57068 1.06909 0
M  V30 5805 H 555.986 -3.88147 0.165546 0
M  V30 5806 H 557.658 -3.69006 2.76826 0
M  V30 5807 H 555.901 -3.42798 2.65841 0
M  V30 5808 H 556.572 -5.02065 2.29422 0
M  V30 5809 H 559.048 -4.11875 0.591451 0
M  V30 5810 H 557.924 -5.47858 0.338043 0
M  V30 5811 H 558.185 -4.31696 -0.953466 0
M  V30 5812 N 557.244 -0.608902 -1.45362 0
M  V30 5813 C 558.174 0.0964526 -2.33301 0
M  V30 5814 C 559.155 0.857444 -1.46908 0
M  V30 5815 O 560.34 0.827735 -1.75676 0
M  V30 5816 C 557.47 1.09354 -3.29635 0
M  V30 5817 C 556.424 0.445676 -4.25673 0
M  V30 5818 C 555.75 1.5511 -5.11708 0
M  V30 5819 C 557.05 -0.633972 -5.18438 0
M  V30 5820 H 558.744 -0.637829 -2.92527 0
M  V30 5821 H 556.29 -0.308178 -1.40664 0
M  V30 5822 H 558.243 1.59556 -3.90025 0
M  V30 5823 H 556.967 1.85843 -2.6857 0
M  V30 5824 H 555.626 -0.0354897 -3.66583 0
M  V30 5825 H 555.274 2.30631 -4.4701 0
M  V30 5826 H 554.974 1.12311 -5.76767 0
M  V30 5827 H 556.498 2.05537 -5.74967 0
M  V30 5828 H 557.912 -0.215974 -5.72893 0
M  V30 5829 H 556.309 -0.983789 -5.91981 0
M  V30 5830 H 557.379 -1.51005 -4.60788 0
M  V30 5831 N 558.722 1.53707 -0.348139 0
M  V30 5832 C 559.654 2.22725 0.540946 0
M  V30 5833 C 560.667 1.2354 1.06027 0
M  V30 5834 O 561.856 1.49867 0.96964 0
M  V30 5835 C 558.956 2.89756 1.75768 0
M  V30 5836 C 558.129 4.15297 1.37285 0
M  V30 5837 C 557.188 4.65697 2.44976 0
M  V30 5838 O 556.214 5.29798 2.08092 0
M  V30 5839 N 557.416 4.42017 3.763 0
M  V30 5840 H 560.181 2.99658 -0.0501592 0
M  V30 5841 H 557.742 1.60979 -0.17248 0
M  V30 5842 H 559.734 3.20388 2.47252 0
M  V30 5843 H 558.304 2.16382 2.25605 0
M  V30 5844 H 557.524 3.9116 0.488584 0
M  V30 5845 H 558.812 4.96948 1.09179 0
M  V30 5846 H 558.21 3.9076 4.09051 0
M  V30 5847 H 556.767 4.77242 4.4394 0
M  V30 5848 N 560.2 0.0768682 1.57412 0
M  V30 5849 C 561.11 -0.903207 2.16516 0
M  V30 5850 C 562.126 -1.32341 1.12968 0
M  V30 5851 O 563.302 -1.39507 1.45258 0
M  V30 5852 C 560.367 -2.1508 2.71922 0
M  V30 5853 C 559.428 -1.78653 3.90361 0
M  V30 5854 C 558.661 -2.97465 4.43114 0
M  V30 5855 O 558.884 -4.11638 3.94854 0
M  V30 5856 O 557.818 -2.76987 5.3438 0
M  V30 5857 H 561.644 -0.430427 3.00634 0
M  V30 5858 H 559.229 -0.146485 1.4868 0
M  V30 5859 H 561.111 -2.8823 3.07411 0
M  V30 5860 H 559.786 -2.61446 1.9086 0
M  V30 5861 H 558.693 -1.0274 3.59716 0
M  V30 5862 H 560.026 -1.37066 4.7273 0
M  V30 5863 N 561.678 -1.56367 -0.196722 0
M  V30 5864 C 562.927 -1.79724 -0.915539 0
M  V30 5865 C 563.24 -0.649804 -1.84491 0
M  V30 5866 O 564.446 -0.767631 -2.60422 0
M  V30 5867 C 562.902 -3.18369 -1.67836 0
M  V30 5868 C 562.51 -4.4091 -0.793897 0
M  V30 5869 C 564.254 -3.51037 -2.38691 0
M  V30 5870 C 562.161 -5.70577 -1.55549 0
M  V30 5871 H 561.091 -0.67013 -0.345604 0
M  V30 5872 H 563.742 -1.82721 -0.168856 0
M  V30 5873 H 562.124 -3.09617 -2.46887 0
M  V30 5874 H 563.298 -4.60781 -0.042163 0
M  V30 5875 H 561.613 -4.15937 -0.19626 0
M  V30 5876 H 564.21 -4.4515 -2.96219 0
M  V30 5877 H 564.553 -2.74704 -3.12799 0
M  V30 5878 H 565.086 -3.61229 -1.66608 0
M  V30 5879 H 561.825 -6.49871 -0.857226 0
M  V30 5880 H 561.345 -5.54726 -2.2812 0
M  V30 5881 H 563.024 -6.11637 -2.10971 0
M  V30 5882 N 563.156 0.464375 -1.50603 0
M  V30 5883 C 564.567 1.04507 -1.5471 0
M  V30 5884 C 564.918 1.9297 -0.354542 0
M  V30 5885 O 564.043 2.09763 0.531812 0
M  V30 5886 C 564.638 1.90207 -2.80369 0
M  V30 5887 C 563.197 2.43373 -2.87135 0
M  V30 5888 C 562.344 1.21886 -2.49076 0
M  V30 5889 H 565.295 0.246716 -1.56771 0
M  V30 5890 H 565.316 2.75353 -2.62604 0
M  V30 5891 H 564.828 1.25796 -3.67147 0
M  V30 5892 H 562.929 3.11318 -2.04724 0
M  V30 5893 H 563.042 2.7802 -3.90181 0
M  V30 5894 H 561.406 1.55575 -2.01664 0
M  V30 5895 H 562.189 0.591268 -3.3817 0
M  V30 5896 N 564.634 1.40294 0.718013 0
M  V30 5897 C 565.544 1.42678 1.86226 0
M  V30 5898 C 566.56 0.319655 1.71039 0
M  V30 5899 O 567.736 0.563852 1.93346 0
M  V30 5900 C 564.801 1.2852 3.21999 0
M  V30 5901 C 563.862 2.49354 3.49458 0
M  V30 5902 C 563.095 2.35863 4.78753 0
M  V30 5903 O 563.318 1.37114 5.53675 0
M  V30 5904 O 562.252 3.25189 5.06494 0
M  V30 5905 H 566.078 2.39167 1.87171 0
M  V30 5906 H 563.663 1.2159 0.868112 0
M  V30 5907 H 565.545 1.22824 4.03103 0
M  V30 5908 H 564.22 0.351359 3.21787 0
M  V30 5909 H 563.127 2.60628 2.68373 0
M  V30 5910 H 564.46 3.41491 3.54464 0
M  V30 5911 N 566.112 -0.949982 1.2575 0
M  V30 5912 C 567.36 -1.6918 1.10555 0
M  V30 5913 C 567.681 -1.91773 -0.353298 0
M  V30 5914 O 566.951 -1.50814 -1.25027 0
M  V30 5915 H 565.531 -0.626952 0.406129 0
M  V30 5916 H 568.193 -1.1419 1.57945 0
M  V30 5917 H 567.289 -2.66915 1.61749 0
M  V30 5918 N 567.59 -1.07411 -1.15328 0
M  V30 5919 C 568.538 -0.689316 -2.22151 0
M  V30 5920 C 569.532 0.300156 -1.6672 0
M  V30 5921 O 570.738 0.163804 -1.79253 0
M  V30 5922 H 567.113 -0.204834 -0.723566 0
M  V30 5923 H 569.084 -1.59988 -2.51886 0
M  V30 5924 C 567.833 -0.103848 -3.47545 0
M  V30 5925 H 567.156 -0.856367 -3.90521 0
M  V30 5926 H 568.596 0.127725 -4.23808 0
M  V30 5927 C 567.055 1.15563 -3.1646 0
M  V30 5928 O 567.585 2.242 -3.33312 0
M  V30 5929 N 565.791 1.06203 -2.70498 0
M  V30 5930 H 565.338 0.177933 -2.56985 0
M  V30 5931 H 565.296 1.90553 -2.50074 0
M  V30 5932 N 569.068 1.32177 -0.85831 0
M  V30 5933 C 570.315 1.97125 -0.463484 0
M  V30 5934 C 570.643 1.67907 0.981705 0
M  V30 5935 O 569.898 0.961717 1.70439 0
M  V30 5936 C 570.197 3.51372 -0.653658 0
M  V30 5937 C 569.863 4.00584 -2.06987 0
M  V30 5938 C 568.525 4.13733 -2.4572 0
M  V30 5939 C 570.877 4.26624 -2.99402 0
M  V30 5940 C 568.205 4.50268 -3.76132 0
M  V30 5941 C 570.557 4.64618 -4.29316 0
M  V30 5942 C 569.221 4.75975 -4.67979 0
M  V30 5943 H 568.491 0.72133 -0.169601 0
M  V30 5944 H 571.138 1.57517 -1.08907 0
M  V30 5945 H 569.443 3.91761 0.0551328 0
M  V30 5946 H 571.14 3.99655 -0.328163 0
M  V30 5947 H 567.73 3.90837 -1.75911 0
M  V30 5948 H 571.914 4.1597 -2.70708 0
M  V30 5949 H 567.17 4.57256 -4.05865 0
M  V30 5950 H 571.344 4.83722 -5.00985 0
M  V30 5951 H 568.971 5.04041 -5.69076 0
M  V30 5952 N 570.547 0.616602 1.45037 0
M  V30 5953 C 571.794 0.115331 2.02171 0
M  V30 5954 C 572.122 -1.25748 1.48383 0
M  V30 5955 O 571.377 -1.84511 0.652229 0
M  V30 5956 C 571.676 0.0356829 3.57382 0
M  V30 5957 C 571.342 1.34535 4.30362 0
M  V30 5958 C 570.004 1.70408 4.50016 0
M  V30 5959 C 572.356 2.21049 4.72003 0
M  V30 5960 C 569.684 2.92529 5.0857 0
M  V30 5961 C 572.036 3.42427 5.31908 0
M  V30 5962 C 570.7 3.78541 5.49784 0
M  V30 5963 H 569.97 0.0422024 0.739797 0
M  V30 5964 H 572.617 0.80002 1.73988 0
M  V30 5965 H 570.922 -0.732314 3.84895 0
M  V30 5966 H 572.619 -0.368463 3.99304 0
M  V30 5967 H 569.209 1.05615 4.15383 0
M  V30 5968 H 573.393 1.94632 4.56544 0
M  V30 5969 H 568.649 3.20605 5.20598 0
M  V30 5970 H 572.823 4.09709 5.63127 0
M  V30 5971 H 570.45 4.73255 5.94923 0
M  V30 5972 N 572.025 -1.5352 0.356285 0
M  V30 5973 C 573.273 -2.00719 -0.235837 0
M  V30 5974 C 573.594 -1.24551 -1.5004 0
M  V30 5975 O 572.864 -0.356185 -1.92635 0
M  V30 5976 H 571.444 -0.741542 -0.0901366 0
M  V30 5977 H 574.106 -1.88887 0.480378 0
M  V30 5978 H 573.202 -3.08551 -0.469357 0
M  V30 5979 N 573.503 -0.0852151 -1.57369 0
M  V30 5980 C 574.45 0.877268 -2.13478 0
M  V30 5981 C 575.42 1.28642 -1.05073 0
M  V30 5982 O 576.605 1.36992 -1.32808 0
M  V30 5983 C 573.745 2.13464 -2.71159 0
M  V30 5984 C 572.858 1.77691 -3.93764 0
M  V30 5985 C 571.993 2.98139 -4.39643 0
M  V30 5986 C 571.032 2.58447 -5.54862 0
M  V30 5987 N 570.169 3.71698 -5.95639 0
M  V30 5988 H 575.009 0.391933 -2.95411 0
M  V30 5989 H 572.546 0.181796 -1.45972 0
M  V30 5990 H 574.504 2.87086 -3.02717 0
M  V30 5991 H 573.134 2.59514 -1.91969 0
M  V30 5992 H 572.186 0.940768 -3.68583 0
M  V30 5993 H 573.498 1.44497 -4.77412 0
M  V30 5994 H 572.652 3.80026 -4.72933 0
M  V30 5995 H 571.391 3.34536 -3.54876 0
M  V30 5996 H 570.396 1.74984 -5.21211 0
M  V30 5997 H 571.621 2.23205 -6.41371 0
M  V30 5998 H 569.567 4.07831 -5.13819 0
M  V30 5999 H 569.484 3.42317 -6.74059 0
M  V30 6000 H 570.752 4.54123 -6.33555 0
M  V30 6001 N 574.981 1.5647 0.188427 0
M  V30 6002 C 576.23 1.80207 0.905995 0
M  V30 6003 C 576.543 0.659579 1.84144 0
M  V30 6004 O 577.749 0.781431 2.60011 0
M  V30 6005 C 576.205 3.19255 1.66145 0
M  V30 6006 C 575.813 4.41324 0.770504 0
M  V30 6007 C 577.557 3.52298 2.36826 0
M  V30 6008 C 575.464 5.71394 1.52521 0
M  V30 6009 H 574.394 0.671953 0.342045 0
M  V30 6010 H 577.045 1.82808 0.159164 0
M  V30 6011 H 575.427 3.10922 2.45242 0
M  V30 6012 H 576.601 4.60797 0.0177261 0
M  V30 6013 H 574.916 4.16035 0.174199 0
M  V30 6014 H 577.513 4.46715 2.93854 0
M  V30 6015 H 577.856 2.76359 3.11338 0
M  V30 6016 H 578.389 3.62108 1.6469 0
M  V30 6017 H 575.128 6.50316 0.82275 0
M  V30 6018 H 574.648 5.55928 2.25175 0
M  V30 6019 H 576.327 6.12747 2.07725 0
M  V30 6020 N 576.459 -0.456382 1.50847 0
M  V30 6021 C 577.708 -1.2042 1.61808 0
M  V30 6022 C 578.021 -1.9278 0.330932 0
M  V30 6023 O 579.227 -2.69612 0.319643 0
M  V30 6024 C 577.683 -2.18891 2.85683 0
M  V30 6025 C 577.291 -1.52267 4.2133 0
M  V30 6026 C 579.035 -2.94224 3.05994 0
M  V30 6027 C 576.942 -2.4911 5.36375 0
M  V30 6028 H 575.872 -0.453177 0.602616 0
M  V30 6029 H 578.523 -0.473144 1.77295 0
M  V30 6030 H 576.905 -2.95351 2.63787 0
M  V30 6031 H 578.079 -0.814949 4.53536 0
M  V30 6032 H 576.394 -0.891594 4.06743 0
M  V30 6033 H 578.991 -3.66732 3.89117 0
M  V30 6034 H 579.334 -3.54469 2.18306 0
M  V30 6035 H 579.867 -2.24874 3.28141 0
M  V30 6036 H 576.606 -1.93582 6.26264 0
M  V30 6037 H 576.126 -3.17991 5.08569 0
M  V30 6038 H 577.805 -3.10637 5.67551 0
M  V30 6039 N 577.937 -1.40673 -0.710563 0
M  V30 6040 C 579.214 -1.29718 -1.46398 0
M  V30 6041 C 579.594 0.082177 -2.1094 0
M  V30 6042 O 578.942 1.09536 -2.00534 0
M  V30 6043 C 579.152 -2.43967 -2.49562 0
M  V30 6044 C 580.5 -2.84436 -3.15248 0
M  V30 6045 O 581.524 -2.43597 -2.59883 0
M  V30 6046 O 580.383 -3.55008 -4.1549 0
M  V30 6047 H 577.477 -0.509697 -0.651258 0
M  V30 6048 H 580.023 -1.52603 -0.742312 0
M  V30 6049 H 578.795 -3.36076 -2.0042 0
M  V30 6050 H 578.418 -2.22879 -3.29258 0
M  V30 6051 N 579.415 0.9433 -1.26252 0
M  V30 6052 C 580.645 1.72117 -1.14277 0
M  V30 6053 C 581.053 1.86726 0.304944 0
M  V30 6054 O 580.396 1.3727 1.22076 0
M  V30 6055 C 580.458 3.14778 -1.73651 0
M  V30 6056 C 580.122 3.23561 -3.22734 0
M  V30 6057 C 581.119 3.07001 -4.19579 0
M  V30 6058 C 578.804 3.47019 -3.63157 0
M  V30 6059 C 580.798 3.13763 -5.54826 0
M  V30 6060 C 578.485 3.53416 -4.98538 0
M  V30 6061 C 579.483 3.36804 -5.94182 0
M  V30 6062 O 579.171 3.42906 -7.27098 0
M  V30 6063 H 578.903 0.545781 -0.398873 0
M  V30 6064 H 581.457 1.19123 -1.67328 0
M  V30 6065 H 579.687 3.69186 -1.1506 0
M  V30 6066 H 581.376 3.74469 -1.56613 0
M  V30 6067 H 582.142 2.88736 -3.89688 0
M  V30 6068 H 578.021 3.59006 -2.89199 0
M  V30 6069 H 581.565 3.00714 -6.29458 0
M  V30 6070 H 577.462 3.71201 -5.28091 0
M  V30 6071 H 578.23 3.59463 -7.35342 0
M  V30 6072 N 580.893 1.08022 1.14757 0
M  V30 6073 C 582.142 0.802468 1.8505 0
M  V30 6074 C 582.455 -0.674061 1.83619 0
M  V30 6075 O 583.661 -1.06683 2.49662 0
M  V30 6076 C 582.117 1.38551 3.32162 0
M  V30 6077 C 581.725 2.89354 3.42021 0
M  V30 6078 C 583.469 1.18608 4.07594 0
M  V30 6079 C 581.376 3.40815 4.83321 0
M  V30 6080 H 580.306 0.296518 0.693248 0
M  V30 6081 H 582.957 1.30114 1.29393 0
M  V30 6082 H 581.339 0.814556 3.87532 0
M  V30 6083 H 582.513 3.52552 2.96722 0
M  V30 6084 H 580.828 3.08165 2.80041 0
M  V30 6085 H 583.425 1.54525 5.11885 0
M  V30 6086 H 583.768 0.125599 4.1611 0
M  V30 6087 H 584.301 1.72375 3.58513 0
M  V30 6088 H 581.04 4.46418 4.79991 0
M  V30 6089 H 580.56 2.82374 5.29174 0
M  V30 6090 H 582.239 3.37171 5.522 0
M  V30 6091 N 582.371 -1.3172 0.865308 0
M  V30 6092 C 583.318 -2.2863 0.315736 0
M  V30 6093 C 584.288 -1.55524 -0.583213 0
M  V30 6094 O 585.473 -1.83694 -0.51585 0
M  V30 6095 C 582.613 -3.41735 -0.480773 0
M  V30 6096 C 581.726 -4.297 0.445167 0
M  V30 6097 C 580.861 -5.29944 -0.365012 0
M  V30 6098 C 579.9 -6.09554 0.557651 0
M  V30 6099 N 579.037 -7.01768 -0.215994 0
M  V30 6100 H 583.877 -2.75026 1.14736 0
M  V30 6101 H 581.414 -1.35302 0.577209 0
M  V30 6102 H 583.372 -4.06045 -0.958306 0
M  V30 6103 H 582.002 -2.96461 -1.27714 0
M  V30 6104 H 581.054 -3.65875 1.04113 0
M  V30 6105 H 582.366 -4.85295 1.15284 0
M  V30 6106 H 581.52 -5.99908 -0.905255 0
M  V30 6107 H 580.259 -4.74994 -1.106 0
M  V30 6108 H 579.264 -5.38485 1.10969 0
M  V30 6109 H 580.489 -6.66591 1.29742 0
M  V30 6110 H 578.435 -6.49232 -0.939878 0
M  V30 6111 H 578.352 -7.54762 0.432431 0
M  V30 6112 H 579.62 -7.76002 -0.737618 0
M  V30 6113 N 583.85 -0.624285 -1.44708 0
M  V30 6114 C 584.779 0.0717025 -2.3339 0
M  V30 6115 C 585.76 0.841814 -1.47809 0
M  V30 6116 O 586.946 0.809056 -1.76544 0
M  V30 6117 C 584.076 1.05852 -3.30776 0
M  V30 6118 C 583.029 0.400503 -4.26122 0
M  V30 6119 C 582.356 1.49674 -5.13324 0
M  V30 6120 C 583.656 -0.688924 -5.17737 0
M  V30 6121 H 585.35 -0.668819 -2.91834 0
M  V30 6122 H 582.896 -0.32308 -1.40329 0
M  V30 6123 H 584.849 1.5541 -3.91696 0
M  V30 6124 H 583.572 1.82984 -2.70526 0
M  V30 6125 H 582.231 -0.0743687 -3.66525 0
M  V30 6126 H 581.88 2.25877 -4.49431 0
M  V30 6127 H 581.58 1.06188 -5.77926 0
M  V30 6128 H 583.104 1.99427 -5.77115 0
M  V30 6129 H 584.518 -0.276724 -5.72632 0
M  V30 6130 H 582.915 -1.04652 -5.90904 0
M  V30 6131 H 583.985 -1.55884 -4.5916 0
M  V30 6132 N 585.328 1.53329 -0.364422 0
M  V30 6133 C 586.261 2.22052 0.526145 0
M  V30 6134 C 587.239 1.21203 1.08391 0
M  V30 6135 O 588.423 1.50101 1.14026 0
M  V30 6136 C 585.55 2.91432 1.72583 0
M  V30 6137 C 584.596 4.06345 1.29562 0
M  V30 6138 S 585.429 5.34671 0.297885 0
M  V30 6139 C 586.585 6.07563 1.50392 0
M  V30 6140 H 586.818 2.97244 -0.0575055 0
M  V30 6141 H 584.351 1.53684 -0.148525 0
M  V30 6142 H 586.309 3.3202 2.41398 0
M  V30 6143 H 584.97 2.15966 2.28073 0
M  V30 6144 H 584.163 4.53901 2.19067 0
M  V30 6145 H 583.765 3.67642 0.686696 0
M  V30 6146 H 586.057 6.32224 2.43513 0
M  V30 6147 H 587 6.99973 1.06977 0
M  V30 6148 H 587.408 5.37994 1.70945 0
M  V30 6149 N 586.806 0.0935595 1.57322 0
M  V30 6150 C 588.053 -0.570509 1.94297 0
M  V30 6151 C 588.381 -1.68286 0.97519 0
M  V30 6152 O 587.636 -1.95699 -0.00548655 0
M  V30 6153 C 587.935 -1.16692 3.37813 0
M  V30 6154 C 587.601 -0.178509 4.50547 0
M  V30 6155 C 586.263 0.0933475 4.81109 0
M  V30 6156 C 588.615 0.496472 5.1883 0
M  V30 6157 C 585.943 1.0469 5.77284 0
M  V30 6158 C 588.295 1.43849 6.16028 0
M  V30 6159 C 586.959 1.71859 6.44997 0
M  V30 6160 H 586.229 -0.208764 0.710984 0
M  V30 6161 H 588.876 0.169066 1.90752 0
M  V30 6162 H 587.181 -1.98271 3.37929 0
M  V30 6163 H 588.878 -1.6884 3.63722 0
M  V30 6164 H 585.468 -0.400584 4.26724 0
M  V30 6165 H 589.652 0.299584 4.95395 0
M  V30 6166 H 584.908 1.27094 5.98044 0
M  V30 6167 H 589.082 1.96734 6.68034 0
M  V30 6168 H 586.709 2.45906 7.19329 0
M  V30 6169 N 588.284 -1.56567 -0.180126 0
M  V30 6170 C 589.234 -1.92132 -1.22756 0
M  V30 6171 C 590.218 -0.788639 -1.40247 0
M  V30 6172 O 591.41 -1.05171 -1.42366 0
M  V30 6173 C 588.539 -2.27719 -2.56902 0
M  V30 6174 C 587.625 -3.47481 -2.43142 0
M  V30 6175 N 588.016 -4.64973 -1.99082 0
M  V30 6176 C 586.314 -3.51914 -2.73994 0
M  V30 6177 C 587.015 -5.47119 -1.97574 0
M  V30 6178 N 585.991 -4.87925 -2.39645 0
M  V30 6179 H 589.793 -2.80464 -0.878478 0
M  V30 6180 H 587.307 -1.57686 -0.388463 0
M  V30 6181 H 589.304 -2.51389 -3.32579 0
M  V30 6182 H 587.964 -1.40722 -2.92621 0
M  V30 6183 H 588.975 -4.89358 -1.69557 0
M  V30 6184 H 585.652 -2.75372 -3.13809 0
M  V30 6185 H 587.042 -6.51254 -1.65282 0
M  V30 6186 N 589.762 0.448376 -1.51087 0
M  V30 6187 C 590.712 1.54156 -1.67988 0
M  V30 6188 C 591.696 1.5178 -0.534015 0
M  V30 6189 O 592.888 1.58419 -0.789448 0
M  V30 6190 C 590.017 2.92437 -1.79822 0
M  V30 6191 C 589.103 2.99611 -3.00157 0
M  V30 6192 N 589.494 2.7655 -4.23502 0
M  V30 6193 C 587.792 3.30764 -2.99184 0
M  V30 6194 C 588.493 2.89281 -5.0467 0
M  V30 6195 N 587.469 3.20473 -4.39088 0
M  V30 6196 H 591.271 1.35061 -2.61028 0
M  V30 6197 H 588.785 0.655504 -1.48583 0
M  V30 6198 H 590.782 3.71068 -1.90037 0
M  V30 6199 H 589.442 3.1256 -0.879554 0
M  V30 6200 H 590.453 2.5169 -4.52628 0
M  V30 6201 H 587.13 3.56732 -2.16907 0
M  V30 6202 H 588.52 2.75499 -6.12821 0
M  V30 6203 N 591.24 1.41047 0.703093 0
M  V30 6204 C 592.486 1.41209 1.46396 0
M  V30 6205 C 592.841 0.0180188 1.92392 0
M  V30 6206 O 592.134 -0.954739 1.66118 0
M  V30 6207 C 592.328 2.34686 2.6955 0
M  V30 6208 C 592.157 3.83044 2.35601 0
M  V30 6209 C 590.927 4.51777 2.26331 0
M  V30 6210 C 593.125 4.74215 1.9906 0
M  V30 6211 N 591.107 5.85302 1.85188 0
M  V30 6212 C 592.478 5.96631 1.68616 0
M  V30 6213 C 594.533 4.61932 1.85805 0
M  V30 6214 C 593.236 7.08134 1.26249 0
M  V30 6215 C 595.262 5.73389 1.44842 0
M  V30 6216 C 594.624 6.94899 1.15304 0
M  V30 6217 H 590.723 0.571951 0.533288 0
M  V30 6218 H 593.307 1.76859 0.814179 0
M  V30 6219 H 591.478 2.01143 3.32259 0
M  V30 6220 H 593.21 2.25618 3.35974 0
M  V30 6221 H 589.965 4.05618 2.44482 0
M  V30 6222 H 590.389 6.56049 1.67119 0
M  V30 6223 H 595.031 3.68494 2.07298 0
M  V30 6224 H 592.749 8.01445 1.035 0
M  V30 6225 H 596.335 5.65886 1.35146 0
M  V30 6226 H 595.215 7.79679 0.840854 0
M  V30 6227 N 592.718 -0.936591 1.26751 0
M  V30 6228 C 593.965 -1.68331 1.12566 0
M  V30 6229 C 594.293 -1.91677 -0.330168 0
M  V30 6230 O 593.548 -1.49859 -1.2586 0
M  V30 6231 C 593.847 -3.06099 1.84494 0
M  V30 6232 C 593.513 -3.02493 3.34378 0
M  V30 6233 C 592.175 -3.01217 3.75262 0
M  V30 6234 C 594.527 -2.94453 4.30055 0
M  V30 6235 C 591.855 -2.89672 5.10203 0
M  V30 6236 C 594.207 -2.84449 5.65041 0
M  V30 6237 C 592.871 -2.81518 6.0523 0
M  V30 6238 H 592.141 -0.615965 0.411907 0
M  V30 6239 H 594.788 -1.09292 1.5725 0
M  V30 6240 H 593.093 -3.6879 1.32292 0
M  V30 6241 H 594.79 -3.62733 1.70955 0
M  V30 6242 H 591.38 -3.04269 3.01858 0
M  V30 6243 H 595.564 -2.94544 3.99447 0
M  V30 6244 H 590.82 -2.85783 5.40498 0
M  V30 6245 H 594.994 -2.77192 6.38856 0
M  V30 6246 H 592.621 -2.72329 7.09747 0
M  V30 6247 N 594.196 -1.08629 -1.14182 0
M  V30 6248 C 595.444 -0.815731 -1.84906 0
M  V30 6249 C 595.765 0.660441 -1.83475 0
M  V30 6250 O 595.035 1.47888 -1.28476 0
M  V30 6251 H 593.615 -0.298773 -0.684648 0
M  V30 6252 H 596.277 -1.37274 -1.38354 0
M  V30 6253 H 595.373 -1.16193 -2.89665 0
M  V30 6254 O 595.713 1.26359 -1.00577 0
M  V30 6255 H 596.404 1.82071 -0.661052 0
M  V30 END ATOM
M  V30 BEGIN BOND
M  V30 END BOND
M  V30 END CTAB
M  END
$$$$
