drugbank_target|P80075 C-C motif chemokine 8 (DB03088)
 OpenBabel12092120263D

  0  0  0     0  0            999 V3000
M  V30 BEGIN CTAB
M  V30 COUNTS 1615 1629 0 0 0
M  V30 BEGIN ATOM
M  V30 1 H -0.908 1.98254 -0.117106 0
M  V30 2 N 0 1.576 0 0
M  V30 3 C 0.933 2.03868 1.02534 0
M  V30 4 C 1.911 0.928543 1.3348 0
M  V30 5 O 3.095 1.19667 1.45644 0
M  V30 6 C 0.222 2.43627 2.35294 0
M  V30 7 C -0.732 3.65373 2.2001 0
M  V30 8 S 0.101 5.13292 1.52614 0
M  V30 9 C 1.257 5.56322 2.86805 0
M  V30 10 H 1.49 2.90518 0.631377 0
M  V30 11 H -0.977 1.52953 0.210867 0
M  V30 12 H 0.981 2.67203 3.11629 0
M  V30 13 H -0.358 1.57376 2.7183 0
M  V30 14 H -1.165 3.90944 3.18086 0
M  V30 15 H -1.563 3.418 1.51819 0
M  V30 16 H 0.729 5.58782 3.83104 0
M  V30 17 H 1.672 6.56266 2.65933 0
M  V30 18 H 2.08 4.83886 2.90714 0
M  V30 19 N 1.4781 -0.272755 1.55222 0
M  V30 20 C 2.4251 -1.33716 1.88119 0
M  V30 21 C 3.3951 -1.49066 0.73271 0
M  V30 22 O 4.5801 -1.63469 0.984002 0
M  V30 23 C 1.7201 -2.69238 2.15882 0
M  V30 24 C 0.8331 -2.62108 3.43399 0
M  V30 25 C -0.0319 -3.89811 3.60861 0
M  V30 26 C -0.9929 -3.77193 4.8207 0
M  V30 27 N -1.8559 -4.9673 4.96189 0
M  V30 28 H 2.9841 -1.04962 2.78903 0
M  V30 29 H 0.5211 -0.507088 1.38083 0
M  V30 30 H 2.4791 -3.48089 2.29978 0
M  V30 31 H 1.1091 -2.96194 1.28331 0
M  V30 32 H 0.1611 -1.74967 3.37773 0
M  V30 33 H 1.4731 -2.48685 4.32386 0
M  V30 34 H 0.6271 -4.77103 3.74777 0
M  V30 35 H -0.6339 -4.06102 2.7006 0
M  V30 36 H -1.6289 -2.88284 4.68159 0
M  V30 37 H -0.4039 -3.62421 5.74307 0
M  V30 38 H -2.4579 -5.13431 4.08319 0
M  V30 39 H -2.5409 -4.85839 5.79221 0
M  V30 40 H -1.2729 -5.85594 5.1449 0
M  V30 41 N 2.9562 -1.48159 -0.537278 0
M  V30 42 C 4.2022 -1.56035 -1.29541 0
M  V30 43 C 4.5352 -0.230377 -1.92829 0
M  V30 44 O 3.8102 0.762952 -1.78911 0
M  V30 45 C 4.0932 -2.69323 -2.39034 0
M  V30 46 C 3.9462 -4.12002 -1.80485 0
M  V30 47 C 5.2652 -2.78408 -3.40847 0
M  V30 48 H 2.3842 -0.567992 -0.469632 0
M  V30 49 H 5.0262 -1.80302 -0.599277 0
M  V30 50 H 3.1762 -2.48763 -2.98412 0
M  V30 51 H 4.8482 -4.43981 -1.25215 0
M  V30 52 H 3.0912 -4.19344 -1.11055 0
M  V30 53 H 3.7622 -4.87077 -2.59731 0
M  V30 54 H 6.2382 -2.97012 -2.91416 0
M  V30 55 H 5.1142 -3.59416 -4.14863 0
M  V30 56 H 5.3752 -1.86269 -4.00944 0
M  V30 57 N 4.4343 0.785586 -1.36625 0
M  V30 58 C 5.6593 1.57963 -1.34397 0
M  V30 59 C 6.0843 1.87964 0.071526 0
M  V30 60 O 5.4423 1.48182 1.0446 0
M  V30 61 C 5.4903 2.87511 -2.17646 0
M  V30 62 O 4.5943 3.81281 -1.57158 0
M  V30 63 H 3.9353 0.479014 -0.459828 0
M  V30 64 H 6.4653 0.973411 -1.79961 0
M  V30 65 H 6.4753 3.36745 -2.30362 0
M  V30 66 H 5.1503 2.65002 -3.20541 0
M  V30 67 H 3.7273 3.39885 -1.53403 0
M  V30 68 N 5.9124 1.20967 1.01018 0
M  V30 69 C 6.8754 0.965918 2.07853 0
M  V30 70 C 7.8754 -0.0610545 1.60684 0
M  V30 71 O 9.0654 0.175681 1.73312 0
M  V30 72 C 6.1974 0.455513 3.37843 0
M  V30 73 H 7.3904 1.91365 2.3091 0
M  V30 74 H 4.9434 1.02594 1.17916 0
M  V30 75 H 5.6784 -0.497381 3.20463 0
M  V30 76 H 5.4634 1.19622 3.73407 0
M  V30 77 H 6.9534 0.304667 4.16487 0
M  V30 78 N 7.3905 -1.2043 1.01659 0
M  V30 79 C 8.3535 -2.21433 0.591616 0
M  V30 80 C 9.3535 -1.57203 -0.338226 0
M  V30 81 O 10.5435 -1.73737 -0.126918 0
M  V30 82 C 7.6755 -3.40628 -0.136058 0
M  V30 83 H 8.8685 -2.60545 1.48514 0
M  V30 84 H 6.4215 -1.33893 0.806379 0
M  V30 85 H 7.1565 -3.07019 -1.04449 0
M  V30 86 H 6.9415 -3.88475 0.531917 0
M  V30 87 H 8.4315 -4.15475 -0.420735 0
M  V30 88 N 8.8686 -0.792821 -1.36206 0
M  V30 89 C 9.7986 -0.207853 -2.32573 0
M  V30 90 C 10.7796 0.659055 -1.56813 0
M  V30 91 O 11.9646 0.592176 -1.84951 0
M  V30 92 C 9.0946 0.655449 -3.41059 0
M  V30 93 C 8.0486 -0.111842 -4.27854 0
M  V30 94 C 7.3746 0.872274 -5.27537 0
M  V30 95 C 8.6746 -1.30299 -5.05786 0
M  V30 96 H 10.3686 -1.01294 -2.81744 0
M  V30 97 H 7.9146 -0.48854 -1.3546 0
M  V30 98 H 9.8676 1.07464 -4.07467 0
M  V30 99 H 8.5916 1.49328 -2.90463 0
M  V30 100 H 7.2506 -0.512053 -3.63006 0
M  V30 101 H 6.8986 1.70523 -4.73214 0
M  V30 102 H 6.5986 0.363291 -5.86476 0
M  V30 103 H 8.1226 1.28996 -5.96818 0
M  V30 104 H 9.5366 -0.959379 -5.65216 0
M  V30 105 H 7.9336 -1.7455 -5.74154 0
M  V30 106 H 9.0036 -2.09663 -4.37229 0
M  V30 107 N 10.3467 1.47872 -0.545128 0
M  V30 108 C 11.2767 2.32661 0.197793 0
M  V30 109 C 12.2577 1.43041 0.920504 0
M  V30 110 O 13.4427 1.71912 0.90333 0
M  V30 111 C 10.5727 3.24569 1.23582 0
M  V30 112 C 9.5267 4.23333 0.630323 0
M  V30 113 C 8.8527 5.0448 1.77211 0
M  V30 114 C 10.1527 5.20704 -0.407974 0
M  V30 115 H 11.8467 2.95024 -0.510045 0
M  V30 116 H 9.3927 1.4187 -0.246731 0
M  V30 117 H 11.3457 3.8272 1.76362 0
M  V30 118 H 10.0697 2.60236 1.97344 0
M  V30 119 H 8.7287 3.6639 0.123922 0
M  V30 120 H 8.3767 4.36561 2.49847 0
M  V30 121 H 8.0767 5.71339 1.37281 0
M  V30 122 H 9.6007 5.65487 2.3034 0
M  V30 123 H 11.0147 5.7329 0.033305 0
M  V30 124 H 9.4117 5.95699 -0.725486 0
M  V30 125 H 10.4817 4.66917 -1.30828 0
M  V30 126 N 11.8248 0.280983 1.55075 0
M  V30 127 C 13.0648 -0.335234 2.01632 0
M  V30 128 C 13.4288 -1.5261 1.16508 0
M  V30 129 O 14.6298 -2.21235 1.52672 0
M  V30 130 C 12.9008 -0.702172 3.50434 0
M  V30 131 S 14.4598 -1.30409 4.18974 0
M  V30 132 H 11.2778 -0.103967 0.703358 0
M  V30 133 H 13.8798 0.404187 1.91276 0
M  V30 134 H 12.5838 0.17333 4.10034 0
M  V30 135 H 12.1148 -1.4729 3.64786 0
M  V30 136 H 14.1298 -2.59253 4.23087 0
M  V30 137 N 13.3029 -1.57598 0.00835791 0
M  V30 138 C 14.2329 -2.1198 -0.979113 0
M  V30 139 C 15.2139 -1.03091 -1.35301 0
M  V30 140 O 16.3989 -1.30818 -1.43528 0
M  V30 141 C 13.5289 -2.62995 -2.26828 0
M  V30 142 C 12.4829 -3.76485 -2.03576 0
M  V30 143 C 11.8089 -4.13846 -3.38579 0
M  V30 144 C 13.1089 -5.0342 -1.39161 0
M  V30 145 H 14.8029 -2.94738 -0.526281 0
M  V30 146 H 12.3489 -1.41783 -0.251704 0
M  V30 147 H 14.3019 -2.99669 -2.96271 0
M  V30 148 H 13.0259 -1.7737 -2.7424 0
M  V30 149 H 11.6849 -3.40217 -1.36557 0
M  V30 150 H 11.3329 -3.25232 -3.83709 0
M  V30 151 H 11.0329 -4.90312 -3.23834 0
M  V30 152 H 12.5569 -4.53086 -4.09323 0
M  V30 153 H 13.9709 -5.37812 -1.98573 0
M  V30 154 H 12.3679 -5.84746 -1.34878 0
M  V30 155 H 13.4379 -4.83548 -0.361868 0
M  V30 156 N 14.781 0.264519 -1.55364 0
M  V30 157 C 15.711 1.33121 -1.91836 0
M  V30 158 C 16.692 1.51101 -0.781192 0
M  V30 159 O 17.877 1.64003 -1.04003 0
M  V30 160 C 15.007 2.68921 -2.19769 0
M  V30 161 C 13.961 2.65661 -3.35571 0
M  V30 162 C 13.287 4.05093 -3.49004 0
M  V30 163 C 14.587 2.24187 -4.71739 0
M  V30 164 H 16.281 1.02844 -2.81182 0
M  V30 165 H 13.827 0.493286 -1.35287 0
M  V30 166 H 15.78 3.43663 -2.43872 0
M  V30 167 H 14.504 3.00799 -1.27231 0
M  V30 168 H 13.163 1.93377 -3.1145 0
M  V30 169 H 12.811 4.34206 -2.53917 0
M  V30 170 H 12.511 4.03804 -4.26868 0
M  V30 171 H 14.035 4.81561 -3.75408 0
M  V30 172 H 15.449 2.88654 -4.9533 0
M  V30 173 H 13.846 2.34044 -5.52579 0
M  V30 174 H 14.916 1.19327 -4.69988 0
M  V30 175 N 16.2591 1.48442 0.529413 0
M  V30 176 C 17.1891 1.65902 1.64313 0
M  V30 177 C 18.1701 0.507897 1.6234 0
M  V30 178 O 19.3551 0.740503 1.79528 0
M  V30 179 C 16.4851 1.69911 3.02898 0
M  V30 180 C 15.4391 2.8453 3.19729 0
M  V30 181 C 14.7651 2.73629 4.59381 0
M  V30 182 C 16.0651 4.25821 3.02447 0
M  V30 183 H 17.7591 2.5914 1.49955 0
M  V30 184 H 15.3051 1.24709 0.719982 0
M  V30 185 H 17.2581 1.80715 3.80684 0
M  V30 186 H 15.9821 0.732524 3.18279 0
M  V30 187 H 14.6411 2.73283 2.44361 0
M  V30 188 H 14.2891 1.74938 4.71599 0
M  V30 189 H 13.9891 3.50541 4.71588 0
M  V30 190 H 15.5131 2.86401 5.39265 0
M  V30 191 H 16.9271 4.37898 3.70024 0
M  V30 192 H 15.3241 5.03735 3.26146 0
M  V30 193 H 16.3941 4.42244 1.98867 0
M  V30 194 N 17.7372 -0.778329 1.37039 0
M  V30 195 C 18.6702 -1.8984 1.26633 0
M  V30 196 C 19.6482 -1.61923 0.148197 0
M  V30 197 O 20.8322 -1.85742 0.321265 0
M  V30 198 C 17.9592 -3.24916 0.956403 0
M  V30 199 C 17.0052 -3.71752 2.09051 0
M  V30 200 S 17.8382 -3.86201 3.70957 0
M  V30 201 C 18.9942 -5.24135 3.42101 0
M  V30 202 H 19.2272 -1.98377 2.21436 0
M  V30 203 H 16.7602 -0.938738 1.22585 0
M  V30 204 H 18.7182 -4.02936 0.784409 0
M  V30 205 H 17.3792 -3.14089 0.0259713 0
M  V30 206 H 16.5722 -4.69661 1.8285 0
M  V30 207 H 16.1742 -3.00815 2.2223 0
M  V30 208 H 18.4662 -6.09086 2.96682 0
M  V30 209 H 19.4092 -5.55346 4.39314 0
M  V30 210 H 19.8172 -4.91761 2.77185 0
M  V30 211 N 19.2153 -1.21501 -1.00376 0
M  V30 212 C 20.1783 -0.976927 -2.07337 0
M  V30 213 C 21.1783 0.0525322 -1.60714 0
M  V30 214 O 22.3683 -0.184869 -1.73216 0
M  V30 215 C 19.5003 -0.473423 -3.37597 0
M  V30 216 H 20.6933 -1.92587 -2.29892 0
M  V30 217 H 18.2463 -1.03217 -1.17371 0
M  V30 218 H 18.9813 0.480379 -3.20722 0
M  V30 219 H 18.7663 -1.216 -3.72768 0
M  V30 220 H 20.2563 -0.32675 -4.1632 0
M  V30 221 N 20.6934 1.19889 -1.02296 0
M  V30 222 C 21.6564 2.21116 -0.603351 0
M  V30 223 C 22.6564 1.5738 0.329884 0
M  V30 224 O 23.8464 1.73802 0.117702 0
M  V30 225 C 20.9784 3.40696 0.117992 0
M  V30 226 H 22.1714 2.59754 -1.49893 0
M  V30 227 H 19.7244 1.33463 -0.813468 0
M  V30 228 H 20.4594 3.07569 1.0282 0
M  V30 229 H 20.2444 3.88188 -0.552511 0
M  V30 230 H 21.7344 4.15692 0.398696 0
M  V30 231 N 22.1715 0.800033 1.35784 0
M  V30 232 C 23.3995 0.389606 2.03199 0
M  V30 233 C 23.8145 -0.997375 1.60306 0
M  V30 234 O 23.1715 -1.64154 0.797481 0
M  V30 235 C 23.2225 0.455855 3.58614 0
M  V30 236 O 22.9435 1.78815 3.99946 0
M  V30 237 C 24.4445 0.0374032 4.43284 0
M  V30 238 H 21.6645 0.159132 0.651857 0
M  V30 239 H 24.2085 1.08183 1.73541 0
M  V30 240 H 22.3635 -0.188057 3.86943 0
M  V30 241 H 22.7775 1.74636 4.94573 0
M  V30 242 H 24.2515 0.134882 5.51835 0
M  V30 243 H 24.7285 -1.01651 4.27275 0
M  V30 244 H 25.3345 0.654215 4.20238 0
M  V30 245 N 23.6496 -1.47581 0.552962 0
M  V30 246 C 24.8966 -2.02482 0.0273243 0
M  V30 247 C 25.2246 -1.42776 -1.32081 0
M  V30 248 O 24.4796 -0.571393 -1.87173 0
M  V30 249 C 24.7786 -3.57199 -0.119728 0
M  V30 250 C 24.4446 -4.35804 1.15697 0
M  V30 251 C 23.1066 -4.57 1.50681 0
M  V30 252 C 25.4586 -4.81167 2.00319 0
M  V30 253 C 22.7866 -5.20807 2.70142 0
M  V30 254 C 25.1386 -5.46293 3.18978 0
M  V30 255 C 23.8026 -5.65722 3.54281 0
M  V30 256 H 23.0726 -0.740933 0.00999866 0
M  V30 257 H 25.7196 -1.77302 0.72362 0
M  V30 258 H 24.0246 -3.81348 -0.89896 0
M  V30 259 H 25.7216 -3.97324 -0.541718 0
M  V30 260 H 22.3116 -4.19582 0.874561 0
M  V30 261 H 26.4956 -4.64574 1.74599 0
M  V30 262 H 21.7516 -5.34045 2.97668 0
M  V30 263 H 25.9256 -5.80407 3.84838 0
M  V30 264 H 23.5526 -6.14936 4.46942 0
M  V30 265 N 25.1277 -0.289203 -1.54924 0
M  V30 266 C 26.3527 0.329299 -2.04769 0
M  V30 267 C 26.7777 1.4763 -1.16564 0
M  V30 268 O 26.1357 1.80527 -0.167186 0
M  V30 269 C 26.1837 0.774438 -3.52186 0
M  V30 270 O 25.2877 1.88038 -3.67036 0
M  V30 271 H 24.6287 0.0659259 -0.660719 0
M  V30 272 H 27.1587 -0.42761 -2.00082 0
M  V30 273 H 27.1687 1.06642 -3.93816 0
M  V30 274 H 25.8437 -0.0646707 -4.1585 0
M  V30 275 H 24.4207 1.58985 -3.3731 0
M  V30 276 N 26.6058 1.57591 -0.0167156 0
M  V30 277 C 28.0168 1.79201 0.523834 0
M  V30 278 C 28.3678 0.925796 1.72984 0
M  V30 279 O 27.4928 0.132792 2.15992 0
M  V30 280 C 28.0878 3.25 0.957091 0
M  V30 281 C 26.6468 3.47648 1.44283 0
M  V30 282 C 25.7938 2.74374 0.401757 0
M  V30 283 H 28.7448 1.56831 -0.242816 0
M  V30 284 H 28.7658 3.34031 1.82219 0
M  V30 285 H 28.2778 3.88019 0.0791415 0
M  V30 286 H 26.3788 2.89866 2.34113 0
M  V30 287 H 26.4918 4.56352 1.45877 0
M  V30 288 H 24.8558 2.39485 0.867121 0
M  V30 289 H 25.6388 3.40102 -0.467513 0
M  V30 290 N 28.0839 -0.256276 1.55502 0
M  V30 291 C 29.0159 -1.33981 1.85962 0
M  V30 292 C 30.0289 -1.44743 0.745212 0
M  V30 293 O 31.2179 -1.4626 1.02324 0
M  V30 294 C 28.3179 -2.7194 2.02242 0
M  V30 295 C 27.4909 -2.83562 3.33033 0
M  V30 296 C 26.5499 -4.02304 3.39172 0
M  V30 297 O 25.5759 -3.92273 4.12444 0
M  V30 298 N 26.7779 -5.15045 2.67784 0
M  V30 299 H 29.5429 -1.08191 2.7949 0
M  V30 300 H 27.1039 -0.446388 1.55624 0
M  V30 301 H 29.0959 -3.49697 2.03701 0
M  V30 302 H 27.6659 -2.90479 1.15502 0
M  V30 303 H 26.8859 -1.92555 3.43971 0
M  V30 304 H 28.1739 -2.88271 4.19258 0
M  V30 305 H 27.5719 -5.26085 2.07968 0
M  V30 306 H 26.1289 -5.90972 2.74947 0
M  V30 307 N 29.562 -1.4872 -0.521534 0
M  V30 308 C 30.81 -1.56857 -1.27437 0
M  V30 309 C 31.131 -0.247982 -1.93417 0
M  V30 310 O 30.401 0.731151 -1.81744 0
M  V30 311 H 28.981 -0.577885 -0.473347 0
M  V30 312 H 31.643 -1.85233 -0.606205 0
M  V30 313 H 30.739 -2.35402 -2.0492 0
M  V30 314 N 31.0401 0.771051 -1.3745 0
M  V30 315 C 31.9701 1.89827 -1.3597 0
M  V30 316 C 32.9511 1.68562 -0.228216 0
M  V30 317 O 34.1361 1.8941 -0.428675 0
M  V30 318 C 31.2661 3.2712 -1.16662 0
M  V30 319 C 30.2201 3.6295 -2.2683 0
M  V30 320 C 29.5461 4.98791 -1.92644 0
M  V30 321 C 30.8461 3.69627 -3.69017 0
M  V30 322 H 32.5401 1.91323 -2.30295 0
M  V30 323 H 30.0861 0.919082 -1.10855 0
M  V30 324 H 32.0391 4.05615 -1.14256 0
M  V30 325 H 30.7631 3.26059 -0.187926 0
M  V30 326 H 29.4221 2.86763 -2.28392 0
M  V30 327 H 29.0701 4.94271 -0.933021 0
M  V30 328 H 28.7701 5.23733 -2.66416 0
M  V30 329 H 30.2941 5.79685 -1.91826 0
M  V30 330 H 31.7081 4.38273 -3.69581 0
M  V30 331 H 30.1051 4.06067 -4.41848 0
M  V30 332 H 31.1751 2.70273 -4.02592 0
M  V30 333 N 32.5182 1.22032 0.997298 0
M  V30 334 C 33.4812 0.987909 2.06816 0
M  V30 335 C 34.4812 -0.0440084 1.6074 0
M  V30 336 O 35.6712 0.194053 1.73116 0
M  V30 337 C 32.8032 0.49132 3.37341 0
M  V30 338 H 33.9962 1.93803 2.28868 0
M  V30 339 H 31.5492 1.03838 1.16822 0
M  V30 340 H 32.2842 -0.463364 3.20973 0
M  V30 341 H 32.0692 1.23575 3.72118 0
M  V30 342 H 33.5592 0.348824 4.16141 0
M  V30 343 N 33.9963 -1.19345 1.0293 0
M  V30 344 C 34.9283 -2.22036 0.56857 0
M  V30 345 C 35.9413 -1.58865 -0.355779 0
M  V30 346 O 37.1303 -1.77851 -0.152103 0
M  V30 347 C 34.2303 -3.38363 -0.190752 0
M  V30 348 C 33.4033 -4.31118 0.738643 0
M  V30 349 C 32.4623 -5.26194 0.0246497 0
M  V30 350 O 31.4883 -5.65461 0.651354 0
M  V30 351 N 32.6903 -5.66971 -1.24594 0
M  V30 352 H 35.4553 -2.6219 1.45177 0
M  V30 353 H 33.0163 -1.34015 0.908381 0
M  V30 354 H 35.0083 -3.98981 -0.677961 0
M  V30 355 H 33.5783 -2.96994 -0.975366 0
M  V30 356 H 32.7983 -3.68276 1.40593 0
M  V30 357 H 34.0863 -4.90001 1.37029 0
M  V30 358 H 33.4843 -5.37104 -1.77583 0
M  V30 359 H 32.0413 -6.2984 -1.67764 0
M  V30 360 N 35.4744 -0.807222 -1.35358 0
M  V30 361 C 36.8854 -0.44876 -1.81226 0
M  V30 362 C 37.2364 1.02929 -1.67033 0
M  V30 363 O 36.3614 1.79991 -1.20133 0
M  V30 364 C 36.9564 -0.807774 -3.2903 0
M  V30 365 C 35.5154 -0.501901 -3.73039 0
M  V30 366 C 34.6624 -1.03304 -2.57339 0
M  V30 367 H 37.6134 -0.998808 -1.23327 0
M  V30 368 H 37.6344 -0.10554 -3.80354 0
M  V30 369 H 37.1464 -1.88357 -3.39328 0
M  V30 370 H 35.2474 0.565128 -3.68289 0
M  V30 371 H 35.3604 -1.03497 -4.67787 0
M  V30 372 H 33.7244 -0.455339 -2.50597 0
M  V30 373 H 34.5074 -2.11496 -2.70415 0
M  V30 374 N 36.9525 1.47285 -0.560781 0
M  V30 375 C 38.2295 1.9558 0.0277798 0
M  V30 376 C 38.6095 1.5034 1.48192 0
M  V30 377 O 37.9575 0.743882 2.16052 0
M  V30 378 C 38.1675 3.48789 -0.121418 0
M  V30 379 C 39.5155 4.24594 0.0220912 0
M  V30 380 O 40.5395 3.56166 -0.0491439 0
M  V30 381 O 39.3985 5.46217 0.175958 0
M  V30 382 H 36.4925 0.824663 0.0621342 0
M  V30 383 H 39.0385 1.5767 -0.627556 0
M  V30 384 H 37.8105 3.74533 -1.13316 0
M  V30 385 H 37.4335 3.93473 0.571366 0
M  V30 386 N 38.4306 0.297415 1.54768 0
M  V30 387 C 39.6556 -0.318435 2.04941 0
M  V30 388 C 40.0806 -1.4701 1.17345 0
M  V30 389 O 39.4386 -1.80436 0.176758 0
M  V30 390 C 39.4866 -0.755749 3.52592 0
M  V30 391 O 38.5906 -1.86088 3.68028 0
M  V30 392 H 37.9316 -0.062421 0.661059 0
M  V30 393 H 40.4616 0.438215 1.99852 0
M  V30 394 H 40.4716 -1.04552 3.94376 0
M  V30 395 H 39.1466 0.0867233 4.1581 0
M  V30 396 H 37.7236 -1.57193 3.38149 0
M  V30 397 N 39.9087 -1.5758 0.0250728 0
M  V30 398 C 41.1547 -1.91917 -0.655413 0
M  V30 399 C 41.4877 -0.901433 -1.72011 0
M  V30 400 O 40.7627 0.0764069 -1.9435 0
M  V30 401 C 41.0457 -3.36751 -1.27558 0
M  V30 402 C 40.8987 -4.49258 -0.220719 0
M  V30 403 C 42.2177 -3.81469 -2.19475 0
M  V30 404 H 39.3367 -0.697925 -0.23679 0
M  V30 405 H 41.9787 -1.89825 0.0815036 0
M  V30 406 H 40.1287 -3.38664 -1.90365 0
M  V30 407 H 41.8007 -4.59478 0.409601 0
M  V30 408 H 40.0437 -4.31415 0.454264 0
M  V30 409 H 40.7147 -5.47618 -0.694175 0
M  V30 410 H 43.1907 -3.81266 -1.66659 0
M  V30 411 H 42.0667 -4.83512 -2.59822 0
M  V30 412 H 42.3277 -3.16744 -3.08424 0
M  V30 413 N 41.3868 0.248026 -1.55636 0
M  V30 414 C 42.6118 0.998028 -1.81808 0
M  V30 415 C 43.0368 1.78207 -0.601979 0
M  V30 416 O 42.3948 1.75653 0.448961 0
M  V30 417 C 42.4428 1.9125 -3.05705 0
M  V30 418 O 41.5468 3.00406 -2.82542 0
M  V30 419 H 40.8878 0.284045 -0.600179 0
M  V30 420 H 43.4178 0.269357 -2.02819 0
M  V30 421 H 43.4278 2.32737 -3.35108 0
M  V30 422 H 42.1028 1.33602 -3.93857 0
M  V30 423 H 40.6798 2.63056 -2.64303 0
M  V30 424 N 42.8649 1.48995 0.513639 0
M  V30 425 C 44.1139 1.57093 1.2651 0
M  V30 426 C 44.4269 0.257091 1.93903 0
M  V30 427 O 45.6329 0.216478 2.70636 0
M  V30 428 C 44.0889 2.77118 2.29638 0
M  V30 429 C 43.6969 4.15209 1.68241 0
M  V30 430 C 45.4409 2.94538 3.05692 0
M  V30 431 C 43.3479 5.26474 2.69406 0
M  V30 432 H 42.2779 0.584876 0.475854 0
M  V30 433 H 44.9289 1.7536 0.540487 0
M  V30 434 H 43.3109 2.52319 3.05207 0
M  V30 435 H 44.4849 4.50094 0.987505 0
M  V30 436 H 42.7999 4.03042 1.04623 0
M  V30 437 H 45.3969 3.74832 3.8132 0
M  V30 438 H 45.7399 2.04614 3.62545 0
M  V30 439 H 46.2729 3.19316 2.37238 0
M  V30 440 H 43.0119 6.18417 2.17351 0
M  V30 441 H 42.5319 4.96058 3.37175 0
M  V30 442 H 44.2109 5.55277 3.32078 0
M  V30 443 N 44.343 -0.763751 1.37857 0
M  V30 444 C 45.754 -1.3405 1.29952 0
M  V30 445 C 46.105 -1.96138 -0.0492898 0
M  V30 446 O 45.23 -1.94372 -0.951239 0
M  V30 447 C 45.825 -2.43729 2.35333 0
M  V30 448 C 44.384 -2.97151 2.31037 0
M  V30 449 C 43.531 -1.70438 2.18738 0
M  V30 450 H 46.482 -0.563396 1.48363 0
M  V30 451 H 46.503 -3.23412 2.00462 0
M  V30 452 H 46.015 -1.9851 3.33489 0
M  V30 453 H 44.116 -3.46724 1.3643 0
M  V30 454 H 44.229 -3.52221 3.24772 0
M  V30 455 H 42.593 -1.93673 1.65418 0
M  V30 456 H 43.376 -1.27312 3.18821 0
M  V30 457 N 45.8211 -1.22559 -0.990812 0
M  V30 458 C 47.0701 -1.04553 -1.72486 0
M  V30 459 C 47.3831 0.419349 -1.91052 0
M  V30 460 O 48.5891 0.719121 -2.61803 0
M  V30 461 C 47.0451 -1.82231 -3.10355 0
M  V30 462 C 46.6531 -3.32981 -2.99713 0
M  V30 463 C 48.3971 -1.7268 -3.87791 0
M  V30 464 C 46.3041 -4.03091 -4.32748 0
M  V30 465 H 45.2341 -0.387614 -0.646739 0
M  V30 466 H 47.8851 -1.46429 -1.10593 0
M  V30 467 H 46.2671 -1.33155 -3.72942 0
M  V30 468 H 47.4411 -3.89466 -2.46278 0
M  V30 469 H 45.7561 -3.43231 -2.35758 0
M  V30 470 H 48.3531 -2.22381 -4.86262 0
M  V30 471 H 48.6961 -0.687607 -4.10582 0
M  V30 472 H 49.2291 -2.1931 -3.31885 0
M  V30 473 H 45.9681 -5.07273 -4.15156 0
M  V30 474 H 45.4881 -3.51394 -4.86089 0
M  V30 475 H 47.1671 -4.08804 -5.01486 0
M  V30 476 N 47.2992 1.18797 -1.03562 0
M  V30 477 C 48.5272 1.92599 -0.755869 0
M  V30 478 C 48.9422 1.75886 0.686271 0
M  V30 479 O 48.2992 1.08517 1.46732 0
M  V30 480 C 48.3502 3.44159 -1.10619 0
M  V30 481 O 48.0712 3.60341 -2.4917 0
M  V30 482 C 49.5722 4.3507 -0.850214 0
M  V30 483 H 46.7922 0.611587 -0.276048 0
M  V30 484 H 49.3362 1.50742 -1.38192 0
M  V30 485 H 47.4912 3.83823 -0.525194 0
M  V30 486 H 47.9052 4.54128 -2.62427 0
M  V30 487 H 49.3792 5.39989 -1.14523 0
M  V30 488 H 49.8562 4.38673 0.215176 0
M  V30 489 H 50.4622 4.01097 -1.41426 0
M  V30 490 N 48.7773 0.814389 1.34928 0
M  V30 491 C 50.0173 0.404165 2.00364 0
M  V30 492 C 50.3813 -1.01166 1.63185 0
M  V30 493 O 51.5823 -1.52431 2.21401 0
M  V30 494 C 49.8533 0.590718 3.52484 0
M  V30 495 S 51.4123 0.272075 4.37956 0
M  V30 496 H 48.2303 0.15311 0.694319 0
M  V30 497 H 50.8323 1.05834 1.64376 0
M  V30 498 H 49.5363 1.62099 3.77031 0
M  V30 499 H 49.0673 -0.0785013 3.93322 0
M  V30 500 H 51.0823 -0.917405 4.87645 0
M  V30 501 N 50.2554 -1.46986 0.568584 0
M  V30 502 C 51.4954 -2.04336 0.0512999 0
M  V30 503 C 51.8594 -1.43214 -1.27881 0
M  V30 504 O 53.0604 -1.91679 -1.88448 0
M  V30 505 C 51.3314 -3.57389 -0.0282328 0
M  V30 506 S 52.8904 -4.36056 -0.489991 0
M  V30 507 H 49.7084 -0.71034 0.0306349 0
M  V30 508 H 52.3104 -1.80212 0.757891 0
M  V30 509 H 51.0144 -3.99395 0.944011 0
M  V30 510 H 50.5454 -3.86028 -0.75803 0
M  V30 511 H 52.5604 -4.6441 -1.74752 0
M  V30 512 N 51.7335 -0.305618 -1.54608 0
M  V30 513 C 52.9805 0.302298 -2.00231 0
M  V30 514 C 53.3085 1.5354 -1.19398 0
M  V30 515 O 52.5635 1.93973 -0.259423 0
M  V30 516 C 52.8625 0.698983 -3.50498 0
M  V30 517 C 52.5285 -0.432903 -4.48817 0
M  V30 518 C 51.1905 -0.743622 -4.75419 0
M  V30 519 C 53.5425 -1.19409 -5.07337 0
M  V30 520 C 50.8705 -1.81857 -5.57804 0
M  V30 521 C 53.2225 -2.25899 -5.90891 0
M  V30 522 C 51.8865 -2.57572 -6.15803 0
M  V30 523 H 51.1565 0.110619 -0.732697 0
M  V30 524 H 53.8035 -0.425674 -1.86709 0
M  V30 525 H 52.1085 1.50711 -3.61654 0
M  V30 526 H 53.8055 1.1806 -3.83227 0
M  V30 527 H 50.3955 -0.18063 -4.28219 0
M  V30 528 H 54.5795 -0.967295 -4.86782 0
M  V30 529 H 49.8355 -2.06864 -5.75341 0
M  V30 530 H 54.0095 -2.85335 -6.35261 0
M  V30 531 H 51.6365 -3.40998 -6.7943 0
M  V30 532 N 53.2116 1.57565 -0.0334293 0
M  V30 533 C 54.1596 2.1164 0.96496 0
M  V30 534 C 55.1536 1.04398 1.33407 0
M  V30 535 O 56.3596 1.22828 1.3158 0
M  V30 536 H 52.7346 0.676222 0.32898 0
M  V30 537 H 54.7056 2.94455 0.483614 0
M  V30 538 C 53.4546 2.66207 2.23672 0
M  V30 539 H 52.7776 3.48378 1.96145 0
M  V30 540 H 54.2176 3.07685 2.9173 0
M  V30 541 C 52.6766 1.59151 2.96939 0
M  V30 542 O 53.2066 0.993858 3.89211 0
M  V30 543 N 51.4126 1.31093 2.59351 0
M  V30 544 H 50.9596 1.7988 1.84393 0
M  V30 545 H 50.9176 0.596889 3.08682 0
M  V30 546 N 54.6897 -0.239769 1.55765 0
M  V30 547 C 55.9357 -0.968234 1.78194 0
M  V30 548 C 56.2687 -1.84701 0.599938 0
M  V30 549 O 55.5437 -1.9031 -0.401524 0
M  V30 550 C 55.8267 -1.8227 3.10564 0
M  V30 551 C 55.6797 -0.971633 4.3918 0
M  V30 552 C 56.9987 -2.80388 3.39221 0
M  V30 553 H 54.1177 -0.350572 0.648281 0
M  V30 554 H 56.7597 -0.238259 1.885 0
M  V30 555 H 54.9097 -2.44507 3.01908 0
M  V30 556 H 56.5817 -0.367408 4.59835 0
M  V30 557 H 54.8247 -0.276276 4.32919 0
M  V30 558 H 55.4957 -1.60346 5.28198 0
M  V30 559 H 57.9717 -2.28287 3.47885 0
M  V30 560 H 56.8477 -3.3729 4.33044 0
M  V30 561 H 57.1087 -3.57212 2.60484 0
M  V30 562 N 56.1678 -1.49265 -0.50573 0
M  V30 563 C 57.4168 -1.57761 -1.25675 0
M  V30 564 C 57.7298 -0.267371 -1.93764 0
M  V30 565 O 58.9358 -0.230827 -2.70517 0
M  V30 566 C 57.3918 -2.78332 -2.28165 0
M  V30 567 C 56.9998 -4.16096 -1.66037 0
M  V30 568 C 58.7438 -2.96155 -3.04125 0
M  V30 569 C 56.6508 -5.27895 -2.6661 0
M  V30 570 H 55.5808 -0.587391 -0.472745 0
M  V30 571 H 58.2318 -1.75644 -0.53118 0
M  V30 572 H 56.6138 -2.53934 -3.03865 0
M  V30 573 H 57.7878 -4.50612 -0.963622 0
M  V30 574 H 56.1028 -4.03591 -1.02484 0
M  V30 575 H 58.6998 -3.76849 -3.79327 0
M  V30 576 H 59.0428 -2.06534 -3.61455 0
M  V30 577 H 59.5758 -3.2057 -2.35541 0
M  V30 578 H 56.3148 -6.1956 -2.14068 0
M  V30 579 H 55.8348 -4.97839 -3.34539 0
M  V30 580 H 57.5138 -5.57031 -3.29129 0
M  V30 581 N 57.6459 0.756429 -1.3826 0
M  V30 582 C 58.5939 1.89149 -1.35372 0
M  V30 583 C 59.5879 1.67691 -0.24004 0
M  V30 584 O 60.7939 1.75294 -0.408919 0
M  V30 585 H 57.1689 0.622271 -0.422236 0
M  V30 586 H 59.1399 1.88701 -2.31159 0
M  V30 587 C 57.8889 3.26599 -1.19284 0
M  V30 588 H 57.2119 3.43695 -2.0424 0
M  V30 589 H 58.6519 4.06274 -1.21316 0
M  V30 590 C 57.1109 3.3675 0.100454 0
M  V30 591 O 57.6409 3.86951 1.07851 0
M  V30 592 N 55.8469 2.90179 0.15633 0
M  V30 593 H 55.3939 2.49517 -0.640253 0
M  V30 594 H 55.3519 2.97352 1.02123 0
M  V30 595 N 59.124 1.23083 0.984299 0
M  V30 596 C 60.54 0.992637 1.24975 0
M  V30 597 C 60.74 -0.308618 1.99123 0
M  V30 598 O 59.796 -1.02905 2.30579 0
M  V30 599 C 61.109 2.19698 2.05312 0
M  V30 600 C 62.657 2.24147 2.18465 0
M  V30 601 C 63.132 3.44157 3.02192 0
M  V30 602 N 64.623 3.44372 3.09777 0
M  V30 603 C 65.358 4.33886 3.74874 0
M  V30 604 N 64.854 5.3363 4.41827 0
M  V30 605 N 66.647 4.21639 3.71721 0
M  V30 606 H 58.798 2.06731 0.487453 0
M  V30 607 H 61.061 0.906339 0.277944 0
M  V30 608 H 60.767 3.1411 1.58201 0
M  V30 609 H 60.641 2.20465 3.06064 0
M  V30 610 H 63.028 1.30277 2.64786 0
M  V30 611 H 63.109 2.27415 1.17115 0
M  V30 612 H 62.753 4.38332 2.56568 0
M  V30 613 H 62.683 3.3813 4.03702 0
M  V30 614 H 65.174 2.72201 2.62135 0
M  V30 615 H 65.487 5.98196 4.89266 0
M  V30 616 H 63.832 5.37534 4.40548 0
M  V30 617 H 67.023 3.42962 3.18582 0
M  V30 618 H 67.196 4.91604 4.22173 0
M  V30 619 N 60.6021 -1.18246 1.0419 0
M  V30 620 C 61.5491 -2.2192 0.634037 0
M  V30 621 C 62.5191 -1.62179 -0.358765 0
M  V30 622 O 63.7041 -1.89122 -0.252466 0
M  V30 623 C 60.8441 -3.451 0.00445535 0
M  V30 624 C 59.9571 -4.19174 1.04487 0
M  V30 625 C 59.0921 -5.29813 0.383676 0
M  V30 626 C 58.1311 -5.9566 1.4091 0
M  V30 627 N 57.2681 -6.97834 0.772784 0
M  V30 628 H 62.1081 -2.56164 1.52263 0
M  V30 629 H 59.6451 -1.25843 0.761701 0
M  V30 630 H 61.6031 -4.15485 -0.377919 0
M  V30 631 H 60.2331 -3.11472 -0.847652 0
M  V30 632 H 59.2851 -3.47604 1.54518 0
M  V30 633 H 60.5971 -4.64267 1.82368 0
M  V30 634 H 59.7511 -6.06677 -0.0528366 0
M  V30 635 H 58.4901 -4.85825 -0.427208 0
M  V30 636 H 57.4951 -5.17535 1.85574 0
M  V30 637 H 58.7201 -6.4173 2.22171 0
M  V30 638 H 56.6661 -6.55998 -0.0177708 0
M  V30 639 H 56.5831 -7.41186 1.48928 0
M  V30 640 H 57.8511 -7.78665 0.36071 0
M  V30 641 N 62.0802 -0.821533 -1.34494 0
M  V30 642 C 63.3292 -0.405355 -1.97585 0
M  V30 643 C 63.6422 1.03677 -1.65863 0
M  V30 644 O 64.8482 1.55679 -2.22433 0
M  V30 645 C 63.3042 -0.673861 -3.53535 0
M  V30 646 C 62.9122 -2.12951 -3.94152 0
M  V30 647 C 64.6562 -0.32378 -4.23263 0
M  V30 648 C 62.5632 -2.34298 -5.43009 0
M  V30 649 H 61.4932 -0.147836 -0.739365 0
M  V30 650 H 64.1442 -1.00769 -1.53355 0
M  V30 651 H 62.5262 -0.00137554 -3.96 0
M  V30 652 H 63.7002 -2.84104 -3.62797 0
M  V30 653 H 62.0152 -2.44089 -3.37356 0
M  V30 654 H 64.6122 -0.461126 -5.32708 0
M  V30 655 H 64.9552 0.731586 -4.09821 0
M  V30 656 H 65.4882 -0.950786 -3.8627 0
M  V30 657 H 62.2272 -3.38335 -5.61435 0
M  V30 658 H 61.7472 -1.67687 -5.75883 0
M  V30 659 H 63.4262 -2.16588 -6.09671 0
M  V30 660 N 63.5583 1.46682 -0.576371 0
M  V30 661 C 64.9693 1.86112 -0.148091 0
M  V30 662 C 65.3203 1.48073 1.2872 0
M  V30 663 O 64.4453 0.892656 1.97131 0
M  V30 664 C 65.0403 3.37786 -0.261982 0
M  V30 665 C 63.5993 3.76235 0.111384 0
M  V30 666 C 62.7463 2.70713 -0.60083 0
M  V30 667 H 65.6973 1.37927 -0.78497 0
M  V30 668 H 65.7183 3.77007 0.514364 0
M  V30 669 H 65.2303 3.6544 -1.30671 0
M  V30 670 H 63.3313 3.54198 1.15649 0
M  V30 671 H 63.4443 4.78391 -0.26052 0
M  V30 672 H 61.8083 2.54666 -0.0417783 0
M  V30 673 H 62.5913 3.01208 -1.64708 0
M  V30 674 N 65.0364 0.313813 1.54444 0
M  V30 675 C 66.2854 -0.292519 1.99568 0
M  V30 676 C 66.5984 -1.54011 1.20582 0
M  V30 677 O 67.8044 -2.22183 1.56035 0
M  V30 678 C 66.2604 -0.571752 3.55329 0
M  V30 679 C 65.8684 0.658229 4.43138 0
M  V30 680 C 67.6124 -1.13857 4.08946 0
M  V30 681 C 65.5194 0.351439 5.90355 0
M  V30 682 H 64.4494 -0.113079 0.745472 0
M  V30 683 H 67.1004 0.424518 1.78522 0
M  V30 684 H 65.4824 -1.34872 3.72325 0
M  V30 685 H 66.6564 1.43403 4.37918 0
M  V30 686 H 64.9714 1.14458 4.0036 0
M  V30 687 H 67.5684 -1.38257 5.16516 0
M  V30 688 H 67.9114 -2.08489 3.6033 0
M  V30 689 H 68.4444 -0.423015 3.95544 0
M  V30 690 H 65.1834 1.26667 6.43145 0
M  V30 691 H 64.7034 -0.386842 5.98551 0
M  V30 692 H 66.3824 -0.0423134 6.46986 0
M  V30 693 N 66.5145 -1.57545 0.0417849 0
M  V30 694 C 67.4465 -2.07904 -0.964799 0
M  V30 695 C 68.4595 -1.00497 -1.28079 0
M  V30 696 O 69.6485 -1.28087 -1.24322 0
M  V30 697 C 66.7485 -2.49928 -2.28887 0
M  V30 698 C 65.9215 -3.80562 -2.15619 0
M  V30 699 C 64.9805 -4.08999 -3.31069 0
M  V30 700 O 64.0065 -4.79061 -3.0739 0
M  V30 701 N 65.2085 -3.6017 -4.55256 0
M  V30 702 H 67.9735 -2.94886 -0.535029 0
M  V30 703 H 65.5345 -1.61252 -0.144681 0
M  V30 704 H 67.5265 -2.66034 -3.04972 0
M  V30 705 H 66.0965 -1.68245 -2.63463 0
M  V30 706 H 65.3165 -3.74129 -1.24183 0
M  V30 707 H 66.6045 -4.66126 -2.03971 0
M  V30 708 H 66.0025 -3.03512 -4.77386 0
M  V30 709 H 64.5595 -3.81532 -5.28466 0
M  V30 710 N 67.9926 0.231505 -1.5589 0
M  V30 711 C 69.4086 0.580748 -1.48659 0
M  V30 712 C 69.6086 1.87617 -0.73498 0
M  V30 713 O 68.6646 2.51046 -0.270586 0
M  V30 714 C 69.9776 0.669202 -2.93159 0
M  V30 715 C 71.5256 0.760499 -3.03621 0
M  V30 716 C 72.0006 0.880383 -4.49459 0
M  V30 717 N 73.4916 0.944861 -4.53461 0
M  V30 718 C 74.2266 1.05716 -5.63571 0
M  V30 719 N 73.7226 1.13403 -6.83456 0
M  V30 720 N 75.5156 1.09152 -5.514 0
M  V30 721 H 67.6666 -0.618695 -2.03189 0
M  V30 722 H 69.9296 -0.215728 -0.923128 0
M  V30 723 H 69.6356 -0.212904 -3.51055 0
M  V30 724 H 69.5096 1.5361 -3.44505 0
M  V30 725 H 71.8966 1.63305 -2.45796 0
M  V30 726 H 71.9776 -0.131864 -2.5546 0
M  V30 727 H 71.6216 0.0123284 -5.07899 0
M  V30 728 H 71.5516 1.78802 -4.95316 0
M  V30 729 H 74.0426 0.896176 -3.6712 0
M  V30 730 H 74.3556 1.21921 -7.63122 0
M  V30 731 H 72.7006 1.10333 -6.86186 0
M  V30 732 H 75.8916 1.02805 -4.56671 0
M  V30 733 H 76.0646 1.17558 -6.37247 0
M  V30 734 N 69.4707 1.49531 0.497807 0
M  V30 735 C 70.4007 1.6935 1.60757 0
M  V30 736 C 71.3817 0.542218 1.61227 0
M  V30 737 O 72.5667 0.778417 1.77917 0
M  V30 738 C 69.6967 1.76298 2.99226 0
M  V30 739 C 68.6507 2.91248 3.13622 0
M  V30 740 C 67.9767 2.83312 4.53474 0
M  V30 741 C 69.2767 4.3214 2.93346 0
M  V30 742 H 70.9707 2.62263 1.44425 0
M  V30 743 H 68.5167 1.26208 0.693367 0
M  V30 744 H 70.4697 1.88749 3.76765 0
M  V30 745 H 69.1937 0.799871 3.16654 0
M  V30 746 H 67.8527 2.78404 2.38509 0
M  V30 747 H 67.5007 1.84902 4.67782 0
M  V30 748 H 67.2007 3.60465 4.64046 0
M  V30 749 H 68.7247 2.97775 5.33069 0
M  V30 750 H 70.1387 4.45649 3.60652 0
M  V30 751 H 68.5357 5.1054 3.15387 0
M  V30 752 H 69.6057 4.46363 1.89441 0
M  V30 753 N 70.9488 -0.749086 1.3866 0
M  V30 754 C 71.8588 -1.89358 1.38494 0
M  V30 755 C 72.8748 -1.71708 0.281476 0
M  V30 756 O 74.0508 -1.94554 0.520643 0
M  V30 757 C 71.1158 -3.24782 1.21316 0
M  V30 758 C 70.1768 -3.54926 2.41508 0
M  V30 759 C 69.4098 -4.83888 2.2514 0
M  V30 760 O 69.6328 -5.56592 1.24746 0
M  V30 761 O 68.5668 -5.13612 3.13826 0
M  V30 762 H 72.3928 -1.92452 2.34938 0
M  V30 763 H 69.9778 -0.894981 1.19626 0
M  V30 764 H 71.8598 -4.05739 1.13814 0
M  V30 765 H 70.5348 -3.2249 0.279592 0
M  V30 766 H 69.4418 -2.74112 2.54585 0
M  V30 767 H 70.7748 -3.61983 3.3351 0
M  V30 768 N 72.4269 -1.23603 -0.977757 0
M  V30 769 C 73.6519 -1.09735 -1.75991 0
M  V30 770 C 74.0769 0.346858 -1.84874 0
M  V30 771 O 73.4349 1.25093 -1.3123 0
M  V30 772 C 73.4829 -1.73051 -3.16363 0
M  V30 773 O 72.5869 -0.994452 -4.0023 0
M  V30 774 H 71.9279 -0.384476 -0.541364 0
M  V30 775 H 74.4579 -1.6371 -1.2272 0
M  V30 776 H 74.4679 -1.78398 -3.66931 0
M  V30 777 H 73.1429 -2.78137 -3.09213 0
M  V30 778 H 71.7199 -1.01812 -3.58732 0
M  V30 779 N 73.905 1.17692 -1.04816 0
M  V30 780 C 75.135 1.91508 -0.775128 0
M  V30 781 C 75.543 1.76844 0.67253 0
M  V30 782 O 74.886 1.10057 1.47082 0
M  V30 783 C 74.948 3.43167 -1.0713 0
M  V30 784 C 74.612 3.81612 -2.51438 0
M  V30 785 C 75.609 3.84772 -3.49638 0
M  V30 786 C 73.294 4.12687 -2.86348 0
M  V30 787 C 75.288 4.18469 -4.80794 0
M  V30 788 C 72.975 4.46053 -4.17708 0
M  V30 789 C 73.973 4.48921 -5.14741 0
M  V30 790 O 73.661 4.81504 -6.43746 0
M  V30 791 H 73.393 0.614575 -0.281555 0
M  V30 792 H 75.947 1.50206 -1.40098 0
M  V30 793 H 74.177 3.84745 -0.388342 0
M  V30 794 H 75.866 3.98239 -0.784883 0
M  V30 795 H 76.632 3.60893 -3.24008 0
M  V30 796 H 72.511 4.09627 -2.11486 0
M  V30 797 H 76.055 4.20623 -5.56527 0
M  V30 798 H 71.952 4.69393 -4.43103 0
M  V30 799 H 72.72 4.99377 -6.4851 0
M  V30 800 N 75.3831 0.828654 1.34056 0
M  V30 801 C 76.6111 0.43262 2.02326 0
M  V30 802 C 77.0261 -0.963147 1.62385 0
M  V30 803 O 76.3831 -1.62425 0.832121 0
M  V30 804 C 76.4341 0.53182 3.57567 0
M  V30 805 O 76.1551 1.87258 3.96063 0
M  V30 806 C 77.6561 0.131422 4.43105 0
M  V30 807 H 74.8761 0.172923 0.648335 0
M  V30 808 H 77.4201 1.1184 1.71208 0
M  V30 809 H 75.5751 -0.105938 3.87255 0
M  V30 810 H 75.9891 1.85087 4.90758 0
M  V30 811 H 77.4631 0.251904 5.51425 0
M  V30 812 H 77.9401 -0.925645 4.29335 0
M  V30 813 H 78.5461 0.743207 4.18756 0
M  V30 814 N 76.8612 -1.46375 0.584142 0
M  V30 815 C 78.2772 -1.57694 0.245929 0
M  V30 816 C 78.4772 -1.57903 -1.25175 0
M  V30 817 O 77.5332 -1.49676 -2.03355 0
M  V30 818 C 78.8462 -2.87028 0.896402 0
M  V30 819 C 80.3942 -3.00662 0.870127 0
M  V30 820 C 80.8692 -4.32734 1.50017 0
M  V30 821 N 82.3602 -4.39436 1.46458 0
M  V30 822 C 83.0952 -5.40248 1.92144 0
M  V30 823 N 82.5912 -6.47726 2.4581 0
M  V30 824 N 84.3842 -5.31459 1.83052 0
M  V30 825 H 76.5352 -1.44483 1.55687 0
M  V30 826 H 78.7982 -0.689291 0.650831 0
M  V30 827 H 78.5042 -2.9269 1.95002 0
M  V30 828 H 78.3782 -3.75014 0.405486 0
M  V30 829 H 80.7652 -2.94581 -0.174871 0
M  V30 830 H 80.8462 -2.14148 1.39908 0
M  V30 831 H 80.4902 -4.39573 2.54437 0
M  V30 832 H 80.4202 -5.18025 0.946432 0
M  V30 833 H 82.9112 -3.62367 1.07231 0
M  V30 834 H 83.2242 -7.20863 2.78525 0
M  V30 835 H 81.5692 -6.48542 2.49836 0
M  V30 836 H 84.7602 -4.46396 1.40883 0
M  V30 837 H 84.9332 -6.09881 2.18973 0
M  V30 838 N 78.3393 -0.321999 -1.54275 0
M  V30 839 C 79.5883 0.281931 -1.9972 0
M  V30 840 C 79.9013 1.53369 -1.21397 0
M  V30 841 O 81.1073 2.21352 -1.57211 0
M  V30 842 C 79.5633 0.5529 -3.55628 0
M  V30 843 C 79.1713 -0.681721 -4.42783 0
M  V30 844 C 80.9153 1.11687 -4.09544 0
M  V30 845 C 78.8223 -0.382742 -5.9016 0
M  V30 846 H 77.7523 0.109124 -0.746062 0
M  V30 847 H 80.4033 -0.43398 -1.78294 0
M  V30 848 H 78.7853 1.32896 -3.73035 0
M  V30 849 H 79.9593 -1.45723 -4.37151 0
M  V30 850 H 78.2743 -1.1658 -3.99748 0
M  V30 851 H 80.8713 1.35515 -5.17242 0
M  V30 852 H 81.2143 2.06575 -3.61431 0
M  V30 853 H 81.7473 0.402032 -3.95763 0
M  V30 854 H 78.4863 -1.30076 -6.42464 0
M  V30 855 H 78.0063 0.355094 -5.98748 0
M  V30 856 H 79.6853 0.00800157 -6.47 0
M  V30 857 N 79.8174 1.5752 -0.0501392 0
M  V30 858 C 81.0454 1.96963 0.633492 0
M  V30 859 C 81.4604 0.927631 1.6444 0
M  V30 860 O 80.8174 -0.0882665 1.82286 0
M  V30 861 C 80.8684 3.36487 1.32132 0
M  V30 862 O 80.5894 4.36693 0.350894 0
M  V30 863 C 82.0904 3.90682 2.09481 0
M  V30 864 H 79.3104 0.648244 0.173266 0
M  V30 865 H 81.8544 2.0417 -0.116134 0
M  V30 866 H 80.0094 3.30434 2.02218 0
M  V30 867 H 80.4234 5.17702 0.841735 0
M  V30 868 H 81.8974 4.90591 2.5303 0
M  V30 869 H 82.3744 3.26053 2.94255 0
M  V30 870 H 82.9804 4.00069 1.44307 0
M  V30 871 N 81.2955 -0.223234 1.56011 0
M  V30 872 C 82.2435 -1.29627 1.93131 0
M  V30 873 C 83.2375 -1.48608 0.813146 0
M  V30 874 O 84.4435 -1.49802 0.997966 0
M  V30 875 H 80.8185 -0.434563 0.613726 0
M  V30 876 H 82.7895 -0.955995 2.82672 0
M  V30 877 C 81.5385 -2.63983 2.26292 0
M  V30 878 H 80.8615 -2.50185 3.11846 0
M  V30 879 H 82.3015 -3.3788 2.56151 0
M  V30 880 C 80.7605 -3.18866 1.08747 0
M  V30 881 O 81.2905 -4.00192 0.347727 0
M  V30 882 N 79.4965 -2.77217 0.871743 0
M  V30 883 H 79.0435 -2.1119 1.47501 0
M  V30 884 H 79.0015 -3.1428 0.0869905 0
M  V30 885 N 82.7736 -1.49793 -0.48987 0
M  V30 886 C 84.0226 -1.59085 -1.23995 0
M  V30 887 C 84.3356 -0.287907 -1.9347 0
M  V30 888 O 85.5416 -0.259506 -2.70257 0
M  V30 889 C 83.9976 -2.80736 -2.252 0
M  V30 890 C 83.6056 -4.17833 -1.61614 0
M  V30 891 C 85.3496 -2.99364 -3.00967 0
M  V30 892 C 83.2566 -5.30693 -2.60996 0
M  V30 893 H 82.1866 -0.592372 -0.466488 0
M  V30 894 H 84.8376 -1.76197 -0.51252 0
M  V30 895 H 83.2196 -2.57142 -3.01154 0
M  V30 896 H 84.3936 -4.51608 -0.915774 0
M  V30 897 H 82.7086 -4.04656 -0.981977 0
M  V30 898 H 85.3056 -3.80851 -3.75308 0
M  V30 899 H 85.6486 -2.10356 -3.59244 0
M  V30 900 H 86.1816 -3.2305 -2.32128 0
M  V30 901 H 82.9206 -6.21796 -2.07485 0
M  V30 902 H 82.4406 -5.01359 -3.2924 0
M  V30 903 H 84.1196 -5.6049 -3.23202 0
M  V30 904 N 84.2517 0.741722 -1.39055 0
M  V30 905 C 85.1837 1.8657 -1.33133 0
M  V30 906 C 86.1967 1.61001 -0.241329 0
M  V30 907 O 87.3857 1.7136 -0.499784 0
M  V30 908 C 84.4857 3.22457 -1.04283 0
M  V30 909 C 83.6587 3.75435 -2.24427 0
M  V30 910 C 82.7177 4.89867 -1.92138 0
M  V30 911 O 81.7437 5.03879 -2.64754 0
M  V30 912 N 82.9457 5.73738 -0.88347 0
M  V30 913 H 85.7107 1.92156 -2.29991 0
M  V30 914 H 83.2717 0.922172 -1.3307 0
M  V30 915 H 85.2637 3.9657 -0.807128 0
M  V30 916 H 83.8337 3.12181 -0.161807 0
M  V30 917 H 83.0537 2.92751 -2.6399 0
M  V30 918 H 84.3417 4.07563 -3.04581 0
M  V30 919 H 83.7397 5.64999 -0.281517 0
M  V30 920 H 82.2967 6.47947 -0.707662 0
M  V30 921 N 85.7298 1.2412 0.971189 0
M  V30 922 C 86.9698 1.09066 1.7287 0
M  V30 923 C 87.3338 -0.364794 1.88503 0
M  V30 924 O 88.5348 -0.636748 2.61149 0
M  V30 925 C 86.8058 1.80629 3.08396 0
M  V30 926 S 88.3648 1.81263 3.99611 0
M  V30 927 H 85.1828 0.390145 0.594397 0
M  V30 928 H 87.7848 1.57397 1.15959 0
M  V30 929 H 86.4888 2.85647 2.94676 0
M  V30 930 H 86.0198 1.32617 3.70373 0
M  V30 931 H 88.0348 0.877804 4.88374 0
M  V30 932 N 87.2079 -1.17134 1.05439 0
M  V30 933 C 88.6189 -1.69084 0.791676 0
M  V30 934 C 88.9699 -1.83822 -0.685839 0
M  V30 935 O 88.0949 -1.52757 -1.53278 0
M  V30 936 C 88.6899 -3.07119 1.4305 0
M  V30 937 C 87.2489 -3.56225 1.21577 0
M  V30 938 C 86.3959 -2.32421 1.51247 0
M  V30 939 H 89.3469 -1.01617 1.219 0
M  V30 940 H 89.3679 -3.71087 0.84112 0
M  V30 941 H 88.8799 -2.9636 2.50584 0
M  V30 942 H 86.9809 -3.72257 0.159787 0
M  V30 943 H 87.0939 -4.38837 1.92246 0
M  V30 944 H 85.4579 -2.3701 0.932653 0
M  V30 945 H 86.2409 -2.24268 2.5992 0
M  V30 946 N 88.686 -0.835752 -1.33615 0
M  V30 947 C 89.633 -0.26473 -2.29277 0
M  V30 948 C 90.603 0.617712 -1.54187 0
M  V30 949 O 91.788 0.556641 -1.825 0
M  V30 950 C 88.928 0.556777 -3.40579 0
M  V30 951 C 88.041 -0.349339 -4.30585 0
M  V30 952 C 87.176 0.482969 -5.29 0
M  V30 953 C 86.215 -0.421732 -6.10645 0
M  V30 954 N 85.352 0.372262 -7.01112 0
M  V30 955 H 90.192 -1.08582 -2.77514 0
M  V30 956 H 87.729 -0.546927 -1.36554 0
M  V30 957 H 89.687 1.04852 -4.03809 0
M  V30 958 H 88.317 1.34286 -2.93542 0
M  V30 959 H 87.369 -0.959372 -3.68104 0
M  V30 960 H 88.681 -1.04445 -4.87742 0
M  V30 961 H 87.835 1.03866 -5.97743 0
M  V30 962 H 86.574 1.21153 -4.72412 0
M  V30 963 H 85.579 -0.989464 -5.40823 0
M  V30 964 H 86.804 -1.14861 -6.69316 0
M  V30 965 H 84.75 1.08426 -6.46977 0
M  V30 966 H 84.667 -0.264198 -7.55538 0
M  V30 967 H 85.935 0.910293 -7.74167 0
M  V30 968 N 90.1641 1.46063 -0.591896 0
M  V30 969 C 91.0741 2.34192 0.13831 0
M  V30 970 C 92.0901 1.50305 0.876608 0
M  V30 971 O 93.2661 1.8315 0.837728 0
M  V30 972 C 90.3311 3.27656 1.13326 0
M  V30 973 C 89.3921 4.27445 0.39863 0
M  V30 974 C 88.6251 5.16443 1.34618 0
M  V30 975 O 88.8481 5.08553 2.58321 0
M  V30 976 O 87.7821 5.95843 0.851768 0
M  V30 977 H 91.6081 2.98002 -0.58552 0
M  V30 978 H 89.1931 1.45188 -0.352239 0
M  V30 979 H 91.0751 3.85291 1.70671 0
M  V30 980 H 89.7501 2.6643 1.83839 0
M  V30 981 H 88.6571 3.73471 -0.216895 0
M  V30 982 H 89.9901 4.91482 -0.265709 0
M  V30 983 N 91.6422 0.330177 1.54103 0
M  V30 984 C 92.6052 -0.520144 2.2322 0
M  V30 985 C 93.6052 -1.03828 1.22786 0
M  V30 986 O 94.7952 -0.929652 1.4732 0
M  V30 987 C 91.9272 -1.72317 2.94142 0
M  V30 988 H 93.1202 0.0841605 2.99782 0
M  V30 989 H 90.6732 0.0813433 1.56088 0
M  V30 990 H 91.4082 -2.36653 2.21734 0
M  V30 991 H 91.1932 -1.35898 3.67796 0
M  V30 992 H 92.6832 -2.3266 3.46784 0
M  V30 993 N 93.1203 -1.57491 0.0584922 0
M  V30 994 C 94.3663 -1.93264 -0.614558 0
M  V30 995 C 94.6993 -0.937717 -1.7006 0
M  V30 996 O 93.9743 0.0351652 -1.94468 0
M  V30 997 C 94.2573 -3.3938 -1.20386 0
M  V30 998 C 94.1103 -4.49625 -0.125375 0
M  V30 999 C 95.4293 -3.86039 -2.11334 0
M  V30 1000 H 92.5483 -0.702791 -0.221933 0
M  V30 1001 H 95.1903 -1.8961 0.12175 0
M  V30 1002 H 93.3403 -3.42626 -1.83139 0
M  V30 1003 H 95.0123 -4.58506 0.506971 0
M  V30 1004 H 93.2553 -4.30354 0.545672 0
M  V30 1005 H 93.9263 -5.48967 -0.577861 0
M  V30 1006 H 96.4023 -3.84716 -1.58534 0
M  V30 1007 H 95.2783 -4.88914 -2.49507 0
M  V30 1008 H 95.5393 -3.23215 -3.01636 0
M  V30 1009 N 94.5984 0.214957 -1.56127 0
M  V30 1010 C 95.8474 0.936451 -1.78643 0
M  V30 1011 C 96.1604 1.85237 -0.628229 0
M  V30 1012 O 97.3664 2.613 -0.737186 0
M  V30 1013 C 95.8224 1.7154 -3.16389 0
M  V30 1014 C 95.4304 0.845299 -4.39953 0
M  V30 1015 C 97.1744 2.42772 -3.48227 0
M  V30 1016 C 95.0814 1.62198 -5.68723 0
M  V30 1017 H 94.0114 0.353401 -0.666051 0
M  V30 1018 H 96.6624 0.190169 -1.82512 0
M  V30 1019 H 95.0444 2.50484 -3.06715 0
M  V30 1020 H 96.2184 0.0959353 -4.607 0
M  V30 1021 H 94.5334 0.244789 -4.1568 0
M  V30 1022 H 97.1304 3.01394 -4.41663 0
M  V30 1023 H 97.4734 3.15984 -2.71035 0
M  V30 1024 H 98.0064 1.70813 -3.5926 0
M  V30 1025 H 94.7454 0.933011 -6.48826 0
M  V30 1026 H 94.2654 2.34579 -5.52026 0
M  V30 1027 H 95.9444 2.18095 -6.09133 0
M  V30 1028 N 96.0765 1.50051 0.48192 0
M  V30 1029 C 97.3235 1.60498 1.23477 0
M  V30 1030 C 97.6515 0.300331 1.92167 0
M  V30 1031 O 96.9065 -0.713094 1.82246 0
M  V30 1032 C 97.2055 2.72717 2.30998 0
M  V30 1033 C 96.8715 4.13572 1.79636 0
M  V30 1034 C 95.5335 4.519 1.65348 0
M  V30 1035 C 97.8855 5.01649 1.41412 0
M  V30 1036 C 95.2135 5.76057 1.11244 0
M  V30 1037 C 97.5655 6.26343 0.887538 0
M  V30 1038 C 96.2295 6.63483 0.731207 0
M  V30 1039 H 95.4995 0.587303 0.451836 0
M  V30 1040 H 98.1465 1.83948 0.532468 0
M  V30 1041 H 96.4515 2.43312 3.07094 0
M  V30 1042 H 98.1485 2.78006 2.88988 0
M  V30 1043 H 94.7385 3.83329 1.91721 0
M  V30 1044 H 98.9225 4.72679 1.51289 0
M  V30 1045 H 94.1785 6.03516 0.978686 0
M  V30 1046 H 98.3525 6.93958 0.582654 0
M  V30 1047 H 95.9795 7.59568 0.309806 0
M  V30 1048 N 97.5546 -0.734337 1.39446 0
M  V30 1049 C 98.5016 -1.84835 1.38219 0
M  V30 1050 C 99.4716 -1.64331 0.24179 0
M  V30 1051 O 100.657 -1.85728 0.437002 0
M  V30 1052 C 97.7966 -3.22355 1.23212 0
M  V30 1053 C 96.9096 -3.5456 2.46801 0
M  V30 1054 C 96.0446 -4.81485 2.24377 0
M  V30 1055 C 95.0836 -5.06536 3.43639 0
M  V30 1056 N 94.2206 -6.24665 3.20528 0
M  V30 1057 H 99.0606 -1.85219 2.33448 0
M  V30 1058 H 96.5976 -0.905039 1.15963 0
M  V30 1059 H 98.5556 -4.0174 1.12522 0
M  V30 1060 H 97.1856 -3.21248 0.316121 0
M  V30 1061 H 96.2376 -2.69872 2.68092 0
M  V30 1062 H 97.5496 -3.6899 3.3563 0
M  V30 1063 H 96.7036 -5.68852 2.10933 0
M  V30 1064 H 95.4426 -4.6923 1.32944 0
M  V30 1065 H 94.4476 -4.17632 3.5758 0
M  V30 1066 H 95.6726 -5.20676 4.35974 0
M  V30 1067 H 93.6186 -6.13696 2.3176 0
M  V30 1068 H 93.5356 -6.39685 4.02913 0
M  V30 1069 H 94.8036 -7.14868 3.10779 0
M  V30 1070 N 99.0327 -1.24633 -0.964593 0
M  V30 1071 C 100.261 -1.11501 -1.74285 0
M  V30 1072 C 100.676 0.332165 -1.85855 0
M  V30 1073 O 100.033 1.22903 -1.34911 0
M  V30 1074 C 100.084 -1.75258 -3.16175 0
M  V30 1075 O 99.8047 -3.14318 -3.05182 0
M  V30 1076 C 101.306 -1.67776 -4.10324 0
M  V30 1077 H 98.5257 -0.389407 -0.546446 0
M  V30 1078 H 101.07 -1.64801 -1.21083 0
M  V30 1079 H 99.2247 -1.25954 -3.66353 0
M  V30 1080 H 99.6387 -3.4551 -3.94618 0
M  V30 1081 H 101.113 -2.17064 -5.0753 0
M  V30 1082 H 101.59 -0.639584 -4.34518 0
M  V30 1083 H 102.196 -2.16522 -3.66058 0
M  V30 1084 N 100.511 1.16574 -1.06058 0
M  V30 1085 C 101.458 2.20883 -0.669263 0
M  V30 1086 C 102.428 1.62729 0.332918 0
M  V30 1087 O 103.613 1.895 0.222346 0
M  V30 1088 C 100.753 3.45049 -0.0593572 0
M  V30 1089 C 99.8658 4.17458 -1.11143 0
M  V30 1090 C 99.0008 5.29135 -0.467916 0
M  V30 1091 C 98.0398 5.93343 -1.50369 0
M  V30 1092 N 97.1768 6.96516 -0.883706 0
M  V30 1093 H 102.017 2.53709 -1.5632 0
M  V30 1094 H 99.5538 1.24616 -0.781625 0
M  V30 1095 H 101.512 4.16033 0.311771 0
M  V30 1096 H 100.142 3.12781 0.797992 0
M  V30 1097 H 99.1938 3.45101 -1.60029 0
M  V30 1098 H 100.506 4.61307 -1.89731 0
M  V30 1099 H 99.6598 6.06684 -0.0436871 0
M  V30 1100 H 98.3988 4.86443 0.349864 0
M  V30 1101 H 97.4038 5.14517 -1.93784 0
M  V30 1102 H 98.6288 6.38114 -2.32352 0
M  V30 1103 H 96.5748 6.55943 -0.086595 0
M  V30 1104 H 96.4918 7.38723 -1.607 0
M  V30 1105 H 97.7598 7.77993 -0.484543 0
M  V30 1106 N 101.989 0.842826 1.3317 0
M  V30 1107 C 103.405 0.531128 1.50503 0
M  V30 1108 C 103.605 -0.940734 1.78192 0
M  V30 1109 O 102.661 -1.72436 1.84451 0
M  V30 1110 C 103.974 1.40789 2.65705 0
M  V30 1111 C 105.522 1.40708 2.79589 0
M  V30 1112 C 105.997 2.26878 3.97857 0
M  V30 1113 N 107.488 2.24609 4.05099 0
M  V30 1114 C 108.223 2.88019 4.95815 0
M  V30 1115 N 107.719 3.60496 5.9162 0
M  V30 1116 N 109.512 2.77469 4.88843 0
M  V30 1117 H 101.663 1.79557 1.1346 0
M  V30 1118 H 103.926 0.766267 0.558156 0
M  V30 1119 H 103.632 2.454 2.51936 0
M  V30 1120 H 103.506 1.08677 3.61205 0
M  V30 1121 H 105.893 0.368668 2.92788 0
M  V30 1122 H 105.974 1.76829 1.84838 0
M  V30 1123 H 105.618 3.3078 3.85418 0
M  V30 1124 H 105.548 1.88096 4.91861 0
M  V30 1125 H 108.039 1.71906 3.36536 0
M  V30 1126 H 108.352 4.06076 6.57512 0
M  V30 1127 H 106.697 3.64604 5.91683 0
M  V30 1128 H 109.888 2.20406 4.12963 0
M  V30 1129 H 110.061 3.2717 5.59342 0
M  V30 1130 N 103.467 -1.45747 0.599634 0
M  V30 1131 C 104.715 -2.01893 0.0915472 0
M  V30 1132 C 105.036 -1.47155 -1.27946 0
M  V30 1133 O 104.306 -0.66273 -1.84349 0
M  V30 1134 H 102.886 -0.746363 0.0308524 0
M  V30 1135 H 105.548 -1.78645 0.779237 0
M  V30 1136 H 104.644 -3.1208 0.0353086 0
M  V30 1137 N 104.945 -0.338344 -1.53925 0
M  V30 1138 C 105.892 0.520845 -2.24846 0
M  V30 1139 C 106.862 1.09976 -1.24477 0
M  V30 1140 O 108.047 1.13735 -1.53196 0
M  V30 1141 C 105.187 1.6685 -3.02084 0
M  V30 1142 C 104.3 1.11739 -4.17299 0
M  V30 1143 C 103.435 2.23193 -4.82036 0
M  V30 1144 C 102.474 1.65407 -5.89328 0
M  V30 1145 N 101.611 2.70582 -6.47866 0
M  V30 1146 H 106.451 -0.0904881 -2.97863 0
M  V30 1147 H 103.988 -0.0564282 -1.46992 0
M  V30 1148 H 105.946 2.34407 -3.45122 0
M  V30 1149 H 104.576 2.2509 -2.31375 0
M  V30 1150 H 103.628 0.332919 -3.7894 0
M  V30 1151 H 104.94 0.654677 -4.94485 0
M  V30 1152 H 104.094 2.98626 -5.28117 0
M  V30 1153 H 102.833 2.72807 -4.04262 0
M  V30 1154 H 101.838 0.884779 -5.42634 0
M  V30 1155 H 103.063 1.16652 -6.69006 0
M  V30 1156 H 101.009 3.1946 -5.72959 0
M  V30 1157 H 100.926 2.28917 -7.20509 0
M  V30 1158 H 102.194 3.45799 -6.98601 0
M  V30 1159 N 106.423 1.57458 -0.0668435 0
M  V30 1160 C 107.333 2.15937 0.916975 0
M  V30 1161 C 108.349 1.12123 1.33058 0
M  V30 1162 O 109.525 1.44366 1.40429 0
M  V30 1163 C 106.59 2.70547 2.16807 0
M  V30 1164 C 105.651 3.89215 1.81135 0
M  V30 1165 C 104.884 4.41211 3.0028 0
M  V30 1166 O 105.107 3.92225 4.14144 0
M  V30 1167 O 104.041 5.32605 2.80384 0
M  V30 1168 H 107.867 3.00354 0.449561 0
M  V30 1169 H 105.452 1.48584 0.155949 0
M  V30 1170 H 107.334 3.0557 2.90181 0
M  V30 1171 H 106.009 1.89192 2.62656 0
M  V30 1172 H 104.916 3.59054 1.05028 0
M  V30 1173 H 106.249 4.71848 1.40073 0
M  V30 1174 N 107.901 -0.206675 1.56239 0
M  V30 1175 C 109.147 -0.930218 1.80208 0
M  V30 1176 C 109.48 -1.83387 0.638981 0
M  V30 1177 O 108.755 -1.91119 -0.361066 0
M  V30 1178 C 109.038 -1.75641 3.1436 0
M  V30 1179 C 108.891 -0.878257 4.41142 0
M  V30 1180 C 110.21 -2.73129 3.45092 0
M  V30 1181 H 107.329 -0.336742 0.655571 0
M  V30 1182 H 109.971 -0.198222 1.88963 0
M  V30 1183 H 108.121 -2.38048 3.07027 0
M  V30 1184 H 109.793 -0.269787 4.6051 0
M  V30 1185 H 108.036 -0.184385 4.33408 0
M  V30 1186 H 108.707 -1.49106 5.3148 0
M  V30 1187 H 111.183 -2.20856 3.52649 0
M  V30 1188 H 110.059 -3.28028 4.40101 0
M  V30 1189 H 110.32 -3.51606 2.68003 0
M  V30 1190 N 109.379 -1.50304 -0.473955 0
M  V30 1191 C 110.619 -1.62786 -1.23612 0
M  V30 1192 C 110.983 -0.319786 -1.89318 0
M  V30 1193 O 112.184 -0.320012 -2.66888 0
M  V30 1194 C 110.455 -2.77351 -2.25414 0
M  V30 1195 S 112.014 -3.09948 -3.10608 0
M  V30 1196 H 108.832 -0.573895 -0.419721 0
M  V30 1197 H 111.434 -1.88076 -0.533623 0
M  V30 1198 H 110.138 -3.70879 -1.75719 0
M  V30 1199 H 109.669 -2.54137 -3.00296 0
M  V30 1200 H 111.684 -2.53553 -4.26527 0
M  V30 1201 N 110.857 0.726932 -1.39834 0
M  V30 1202 C 111.82 1.82269 -1.38962 0
M  V30 1203 C 112.82 1.58248 -0.285334 0
M  V30 1204 O 114.01 1.65499 -0.54366 0
M  V30 1205 C 111.142 3.20186 -1.17019 0
M  V30 1206 H 112.335 1.84443 -2.36476 0
M  V30 1207 H 109.888 0.931416 -1.25516 0
M  V30 1208 H 110.623 3.23669 -0.202204 0
M  V30 1209 H 110.408 3.3902 -1.96998 0
M  V30 1210 H 111.898 4.00235 -1.1917 0
M  V30 1211 N 112.336 1.25143 0.95797 0
M  V30 1212 C 113.613 1.00472 1.67823 0
M  V30 1213 C 113.993 -0.470056 2.058 0
M  V30 1214 O 113.341 -1.44663 1.76875 0
M  V30 1215 C 113.551 1.9372 2.90299 0
M  V30 1216 C 114.899 2.21371 3.62326 0
M  V30 1217 O 115.923 1.91451 3.00375 0
M  V30 1218 O 114.782 2.72231 4.7387 0
M  V30 1219 H 111.876 0.380752 0.734137 0
M  V30 1220 H 114.422 1.36283 1.01119 0
M  V30 1221 H 113.194 2.93316 2.59001 0
M  V30 1222 H 112.817 1.58286 3.64735 0
M  V30 1223 N 113.814 -1.1601 1.06675 0
M  V30 1224 C 115.225 -1.68235 0.809565 0
M  V30 1225 C 115.576 -1.8454 -0.666303 0
M  V30 1226 O 114.701 -1.54374 -1.5165 0
M  V30 1227 C 115.296 -3.05585 1.46299 0
M  V30 1228 C 113.855 -3.54915 1.25349 0
M  V30 1229 C 113.002 -2.30804 1.53703 0
M  V30 1230 H 115.953 -1.00318 1.22971 0
M  V30 1231 H 115.974 -3.70174 0.880431 0
M  V30 1232 H 115.486 -2.93686 2.53713 0
M  V30 1233 H 113.587 -3.72067 0.199261 0
M  V30 1234 H 113.7 -4.36774 1.9689 0
M  V30 1235 H 112.064 -2.36007 0.957739 0
M  V30 1236 H 112.847 -2.21499 2.62284 0
M  V30 1237 N 115.292 -0.849877 -1.32721 0
M  V30 1238 C 116.239 -0.289033 -2.28983 0
M  V30 1239 C 117.209 0.601324 -1.54833 0
M  V30 1240 O 118.394 0.537253 -1.8308 0
M  V30 1241 C 115.534 0.520623 -3.4115 0
M  V30 1242 C 114.647 -0.394989 -4.3019 0
M  V30 1243 C 113.782 0.426834 -5.29482 0
M  V30 1244 C 112.821 -0.486476 -6.10164 0
M  V30 1245 N 111.958 0.297879 -7.01468 0
M  V30 1246 H 116.798 -1.11519 -2.76347 0
M  V30 1247 H 114.335 -0.56138 -1.35967 0
M  V30 1248 H 116.293 1.00563 -4.04899 0
M  V30 1249 H 114.923 1.31165 -2.9495 0
M  V30 1250 H 113.975 -0.99836 -3.67065 0
M  V30 1251 H 115.287 -1.09612 -4.86607 0
M  V30 1252 H 114.441 0.975205 -5.98811 0
M  V30 1253 H 113.18 1.16136 -4.73671 0
M  V30 1254 H 112.185 -1.04677 -5.39743 0
M  V30 1255 H 113.41 -1.21953 -6.6806 0
M  V30 1256 H 111.356 1.01558 -6.48091 0
M  V30 1257 H 111.273 -0.344318 -7.55216 0
M  V30 1258 H 112.541 0.828131 -7.75089 0
M  V30 1259 N 116.77 1.45427 -0.607355 0
M  V30 1260 C 117.68 2.34325 0.113463 0
M  V30 1261 C 118.696 1.51226 0.860617 0
M  V30 1262 O 119.872 1.84029 0.818255 0
M  V30 1263 C 116.937 3.28839 1.09844 0
M  V30 1264 C 115.998 4.27844 0.353271 0
M  V30 1265 C 115.231 5.17842 1.29133 0
M  V30 1266 O 115.454 5.11264 2.52913 0
M  V30 1267 O 114.388 5.96713 0.788523 0
M  V30 1268 H 118.214 2.97364 -0.617094 0
M  V30 1269 H 115.799 1.44807 -0.367619 0
M  V30 1270 H 117.681 3.8708 1.66575 0
M  V30 1271 H 116.356 2.68365 1.81003 0
M  V30 1272 H 115.263 3.7322 -0.256494 0
M  V30 1273 H 116.596 4.91173 -0.317822 0
M  V30 1274 N 118.248 0.346503 1.53744 0
M  V30 1275 C 119.664 -0.00530975 1.59599 0
M  V30 1276 C 119.864 -1.48465 1.36236 0
M  V30 1277 O 118.92 -2.24376 1.15808 0
M  V30 1278 C 120.233 0.433516 2.97559 0
M  V30 1279 C 121.781 0.386111 3.10609 0
M  V30 1280 C 122.256 0.800451 4.50951 0
M  V30 1281 N 123.747 0.754753 4.5701 0
M  V30 1282 C 124.482 1.04727 5.63755 0
M  V30 1283 N 123.978 1.4081 6.7834 0
M  V30 1284 N 125.771 0.971316 5.53644 0
M  V30 1285 H 117.922 1.31009 1.67184 0
M  V30 1286 H 120.185 0.534242 0.783128 0
M  V30 1287 H 119.891 1.46509 3.19731 0
M  V30 1288 H 119.765 -0.189753 3.76722 0
M  V30 1289 H 122.152 -0.636295 2.88158 0
M  V30 1290 H 122.233 1.04462 2.33498 0
M  V30 1291 H 121.877 1.82088 4.74137 0
M  V30 1292 H 121.807 0.119386 5.26465 0
M  V30 1293 H 124.298 0.488662 3.74727 0
M  V30 1294 H 124.611 1.61607 7.55714 0
M  V30 1295 H 122.956 1.44657 6.79779 0
M  V30 1296 H 126.147 0.688748 4.63005 0
M  V30 1297 H 126.32 1.20263 6.36742 0
M  V30 1298 N 119.726 -1.57421 0.075193 0
M  V30 1299 C 120.972 -1.94716 -0.587998 0
M  V30 1300 C 121.327 -0.955205 -1.67014 0
M  V30 1301 O 120.62 0.0219842 -1.91587 0
M  V30 1302 C 120.814 -3.36428 -1.20626 0
M  V30 1303 C 120.643 -4.49317 -0.185541 0
M  V30 1304 C 119.413 -5.04772 0.23099 0
M  V30 1305 C 121.611 -5.11036 0.57854 0
M  V30 1306 N 119.593 -6.01204 1.24206 0
M  V30 1307 C 120.964 -6.02998 1.44199 0
M  V30 1308 C 123.019 -4.93844 0.634237 0
M  V30 1309 C 121.722 -6.79614 2.3562 0
M  V30 1310 C 123.748 -5.71106 1.53597 0
M  V30 1311 C 123.11 -6.6272 2.38709 0
M  V30 1312 H 119.209 -0.759536 -0.186089 0
M  V30 1313 H 121.793 -1.94097 0.153128 0
M  V30 1314 H 119.964 -3.37778 -1.9173 0
M  V30 1315 H 121.696 -3.60951 -1.8302 0
M  V30 1316 H 118.451 -4.73353 -0.152807 0
M  V30 1317 H 118.875 -6.54119 1.74521 0
M  V30 1318 H 123.517 -4.22799 -0.00960004 0
M  V30 1319 H 121.235 -7.49934 3.01038 0
M  V30 1320 H 124.821 -5.59824 1.58394 0
M  V30 1321 H 123.701 -7.2146 3.07352 0
M  V30 1322 N 121.204 0.198386 -1.56346 0
M  V30 1323 C 122.45 0.920648 -1.80698 0
M  V30 1324 C 122.783 1.83045 -0.648697 0
M  V30 1325 O 122.058 1.91308 0.350925 0
M  V30 1326 C 122.341 1.73971 -3.15287 0
M  V30 1327 C 122.194 0.85485 -4.41602 0
M  V30 1328 C 123.513 2.71296 -3.46535 0
M  V30 1329 H 120.632 0.333261 -0.657348 0
M  V30 1330 H 123.274 0.188198 -1.89066 0
M  V30 1331 H 121.424 2.36416 -3.08285 0
M  V30 1332 H 123.096 0.245362 -4.60647 0
M  V30 1333 H 121.339 0.161398 -4.335 0
M  V30 1334 H 122.01 1.46286 -5.32264 0
M  V30 1335 H 124.486 2.18983 -3.53816 0
M  V30 1336 H 123.362 3.2569 -4.41834 0
M  V30 1337 H 123.623 3.5018 -2.69864 0
M  V30 1338 N 122.682 1.50554 0.465978 0
M  V30 1339 C 124.098 1.38093 0.800154 0
M  V30 1340 C 124.298 0.440988 1.96615 0
M  V30 1341 O 123.354 -0.114499 2.5224 0
M  V30 1342 C 124.667 2.79565 1.10742 0
M  V30 1343 C 126.215 2.88516 1.21357 0
M  V30 1344 C 126.69 4.30833 1.55393 0
M  V30 1345 N 128.181 4.33807 1.62375 0
M  V30 1346 C 128.916 5.40927 1.90225 0
M  V30 1347 N 128.412 6.58247 2.16062 0
M  V30 1348 N 130.205 5.28376 1.9177 0
M  V30 1349 H 122.356 2.10237 -0.302366 0
M  V30 1350 H 124.619 0.945203 -0.0727746 0
M  V30 1351 H 124.325 3.50208 0.323661 0
M  V30 1352 H 124.199 3.17125 2.04234 0
M  V30 1353 H 126.586 2.1809 1.98799 0
M  V30 1354 H 126.667 2.54492 0.258321 0
M  V30 1355 H 126.311 5.01799 0.784889 0
M  V30 1356 H 126.241 4.62347 2.52076 0
M  V30 1357 H 128.732 3.49212 1.44427 0
M  V30 1358 H 129.045 7.3569 2.36601 0
M  V30 1359 H 127.39 6.61413 2.13444 0
M  V30 1360 H 130.581 4.35715 1.71085 0
M  V30 1361 H 130.754 6.11944 2.13139 0
M  V30 1362 N 124.16 -0.719506 1.40217 0
M  V30 1363 C 125.437 -1.47221 1.28784 0
M  V30 1364 C 125.817 -2.10883 -0.0956067 0
M  V30 1365 O 125.165 -1.99833 -1.10811 0
M  V30 1366 C 125.375 -2.5111 2.42373 0
M  V30 1367 C 126.723 -3.17053 2.82423 0
M  V30 1368 O 127.747 -2.61429 2.41937 0
M  V30 1369 O 126.606 -4.17742 3.52355 0
M  V30 1370 H 123.7 -0.654491 0.50554 0
M  V30 1371 H 126.246 -0.752014 1.52128 0
M  V30 1372 H 125.018 -2.02556 3.34793 0
M  V30 1373 H 124.641 -3.3067 2.20778 0
M  V30 1374 N 125.638 -1.25649 -0.95132 0
M  V30 1375 C 126.863 -1.13443 -1.73624 0
M  V30 1376 C 127.288 0.307565 -1.85568 0
M  V30 1377 O 126.646 1.22282 -1.33854 0
M  V30 1378 C 126.694 -1.79723 -3.12621 0
M  V30 1379 O 125.798 -1.07912 -3.98031 0
M  V30 1380 H 125.139 -0.395872 -0.533086 0
M  V30 1381 H 127.669 -1.66276 -1.1922 0
M  V30 1382 H 127.679 -1.86141 -3.63064 0
M  V30 1383 H 126.354 -2.84633 -3.03244 0
M  V30 1384 H 124.931 -1.09398 -3.56492 0
M  V30 1385 N 127.117 1.15442 -1.07289 0
M  V30 1386 C 128.05 2.19135 -0.636798 0
M  V30 1387 C 129.028 1.58884 0.34562 0
M  V30 1388 O 130.212 1.86805 0.252195 0
M  V30 1389 C 127.339 3.38638 0.0650014 0
M  V30 1390 C 126.385 4.17412 -0.87576 0
M  V30 1391 S 127.218 4.79882 -2.37642 0
M  V30 1392 C 128.374 6.02753 -1.6864 0
M  V30 1393 H 128.607 2.55787 -1.51526 0
M  V30 1394 H 126.14 1.26394 -0.886793 0
M  V30 1395 H 128.098 4.07873 0.463664 0
M  V30 1396 H 126.759 3.00331 0.919801 0
M  V30 1397 H 125.952 5.02909 -0.33143 0
M  V30 1398 H 125.554 3.53722 -1.21478 0
M  V30 1399 H 127.846 6.70113 -0.997753 0
M  V30 1400 H 128.789 6.61754 -2.51967 0
M  V30 1401 H 129.197 5.52355 -1.16465 0
M  V30 1402 N 128.595 0.856903 1.32268 0
M  V30 1403 C 129.542 0.301172 2.28827 0
M  V30 1404 C 130.512 -0.593104 1.5515 0
M  V30 1405 O 131.697 -0.527537 1.83362 0
M  V30 1406 C 128.837 -0.502523 3.41422 0
M  V30 1407 C 127.95 0.417797 4.29975 0
M  V30 1408 C 127.085 -0.398749 5.29701 0
M  V30 1409 C 126.124 0.518827 6.09897 0
M  V30 1410 N 125.261 -0.260674 7.01616 0
M  V30 1411 H 130.101 1.12983 2.75751 0
M  V30 1412 H 127.638 0.568582 1.35667 0
M  V30 1413 H 129.596 -0.984141 4.05426 0
M  V30 1414 H 128.226 -1.29599 2.95642 0
M  V30 1415 H 127.278 1.01781 3.66531 0
M  V30 1416 H 128.59 1.12191 4.86019 0
M  V30 1417 H 127.744 -0.943435 5.9932 0
M  V30 1418 H 126.483 -1.13622 4.7428 0
M  V30 1419 H 125.488 1.07538 5.39181 0
M  V30 1420 H 126.713 1.25495 6.67404 0
M  V30 1421 H 124.659 -0.981198 6.4862 0
M  V30 1422 H 124.576 0.384364 7.55022 0
M  V30 1423 H 125.844 -0.787014 7.75517 0
M  V30 1424 N 130.073 -1.45103 0.615059 0
M  V30 1425 C 131.023 -2.27679 -0.120966 0
M  V30 1426 C 132.007 -1.3775 -0.831491 0
M  V30 1427 O 133.199 -1.61683 -0.720249 0
M  V30 1428 C 130.328 -3.24767 -1.1127 0
M  V30 1429 C 129.414 -4.22184 -0.402627 0
M  V30 1430 N 129.805 -5.02692 0.559884 0
M  V30 1431 C 128.103 -4.4125 -0.649202 0
M  V30 1432 C 128.804 -5.73421 0.977942 0
M  V30 1433 N 127.78 -5.42657 0.320104 0
M  V30 1434 H 131.582 -2.87325 0.618181 0
M  V30 1435 H 129.096 -1.56345 0.439304 0
M  V30 1436 H 131.093 -3.82666 -1.65446 0
M  V30 1437 H 129.753 -2.66682 -1.85232 0
M  V30 1438 H 130.764 -5.09354 0.936976 0
M  V30 1439 H 127.441 -3.9428 -1.37293 0
M  V30 1440 H 128.831 -6.48107 1.77222 0
M  V30 1441 N 131.551 -0.354651 -1.53558 0
M  V30 1442 C 132.481 0.489091 -2.2832 0
M  V30 1443 C 133.462 1.09324 -1.30316 0
M  V30 1444 O 134.647 1.11255 -1.59173 0
M  V30 1445 C 131.777 1.63456 -3.0643 0
M  V30 1446 C 130.731 1.1582 -4.12031 0
M  V30 1447 C 130.057 2.39305 -4.7816 0
M  V30 1448 C 131.357 0.250731 -5.21698 0
M  V30 1449 H 133.051 -0.134614 -2.99097 0
M  V30 1450 H 130.597 -0.0661826 -1.43848 0
M  V30 1451 H 132.55 2.23136 -3.57475 0
M  V30 1452 H 131.274 2.28533 -2.33325 0
M  V30 1453 H 129.933 0.584146 -3.61916 0
M  V30 1454 H 129.581 3.02814 -4.01637 0
M  V30 1455 H 129.281 2.08109 -5.49513 0
M  V30 1456 H 130.805 2.99691 -5.31994 0
M  V30 1457 H 132.219 0.754695 -5.68311 0
M  V30 1458 H 130.616 0.0301468 -6.00092 0
M  V30 1459 H 131.686 -0.710125 -4.79672 0
M  V30 1460 N 133.029 1.57378 -0.0835403 0
M  V30 1461 C 134.306 1.85363 0.624507 0
M  V30 1462 C 134.686 0.978239 1.87066 0
M  V30 1463 O 134.034 0.0475908 2.2845 0
M  V30 1464 C 134.244 3.35795 0.950947 0
M  V30 1465 C 135.592 4.03581 1.31939 0
M  V30 1466 O 136.616 3.40609 1.04232 0
M  V30 1467 O 135.475 5.14672 1.83779 0
M  V30 1468 H 132.569 0.766162 0.311329 0
M  V30 1469 H 135.115 1.69307 -0.115362 0
M  V30 1470 H 133.887 3.91244 0.0663899 0
M  V30 1471 H 133.51 3.57154 1.74719 0
M  V30 1472 N 134.507 -0.190092 1.56449 0
M  V30 1473 C 135.439 -1.25973 1.91477 0
M  V30 1474 C 136.452 -1.41452 0.805931 0
M  V30 1475 O 137.641 -1.41789 1.08435 0
M  V30 1476 C 134.741 -2.63117 2.13594 0
M  V30 1477 C 133.914 -2.69182 3.4476 0
M  V30 1478 C 132.973 -3.87557 3.5593 0
M  V30 1479 O 131.999 -3.74427 4.28711 0
M  V30 1480 N 133.201 -5.03224 2.89388 0
M  V30 1481 H 135.966 -0.962394 2.83828 0
M  V30 1482 H 133.527 -0.379981 1.57378 0
M  V30 1483 H 135.519 -3.40742 2.1835 0
M  V30 1484 H 134.089 -2.85319 1.27719 0
M  V30 1485 H 133.309 -1.77793 3.51828 0
M  V30 1486 H 134.597 -2.70229 4.31107 0
M  V30 1487 H 133.995 -5.16791 2.30094 0
M  V30 1488 H 132.552 -5.78778 2.99764 0
M  V30 1489 N 135.985 -1.50799 -0.457987 0
M  V30 1490 C 137.234 -1.6168 -1.20593 0
M  V30 1491 C 137.547 -0.32888 -1.92815 0
M  V30 1492 O 138.753 -0.316773 -2.69646 0
M  V30 1493 C 137.209 -2.8545 -2.19195 0
M  V30 1494 C 136.817 -4.21168 -1.52715 0
M  V30 1495 C 138.561 -3.05681 -2.94549 0
M  V30 1496 C 136.468 -5.3611 -2.4968 0
M  V30 1497 H 135.398 -0.602134 -0.453818 0
M  V30 1498 H 138.049 -1.77245 -0.475031 0
M  V30 1499 H 136.431 -2.63472 -2.95632 0
M  V30 1500 H 137.605 -4.53449 -0.819775 0
M  V30 1501 H 135.92 -4.06648 -0.895922 0
M  V30 1502 H 138.517 -3.88727 -3.67145 0
M  V30 1503 H 138.86 -2.17929 -3.54701 0
M  V30 1504 H 139.393 -3.27901 -2.25223 0
M  V30 1505 H 136.132 -6.26057 -1.94249 0
M  V30 1506 H 135.652 -5.0823 -3.18532 0
M  V30 1507 H 137.331 -5.6722 -3.11241 0
M  V30 1508 N 137.463 0.71206 -1.40597 0
M  V30 1509 C 138.71 1.47197 -1.39065 0
M  V30 1510 C 139.038 1.94499 0.00583891 0
M  V30 1511 O 138.293 1.68752 0.99102 0
M  V30 1512 C 138.592 2.71039 -2.32965 0
M  V30 1513 C 138.258 2.42484 -3.80148 0
M  V30 1514 C 136.92 2.34406 -4.20247 0
M  V30 1515 C 139.272 2.18598 -4.73143 0
M  V30 1516 C 136.6 2.00516 -5.51371 0
M  V30 1517 C 138.952 1.8622 -6.0457 0
M  V30 1518 C 137.616 1.76626 -6.43708 0
M  V30 1519 H 136.886 0.538634 -0.508876 0
M  V30 1520 H 139.533 0.815325 -1.73276 0
M  V30 1521 H 137.838 3.41558 -1.91951 0
M  V30 1522 H 139.535 3.29138 -2.29061 0
M  V30 1523 H 136.125 2.49659 -3.4838 0
M  V30 1524 H 140.309 2.23793 -4.42979 0
M  V30 1525 H 135.565 1.91628 -5.80593 0
M  V30 1526 H 139.739 1.66752 -6.76141 0
M  V30 1527 H 137.366 1.50133 -7.45228 0
M  V30 1528 N 138.941 1.26152 0.944643 0
M  V30 1529 C 139.873 1.03199 2.04652 0
M  V30 1530 C 140.886 -0.00642356 1.62799 0
M  V30 1531 O 142.075 0.233263 1.76969 0
M  V30 1532 C 139.175 0.540111 3.34568 0
M  V30 1533 C 138.348 1.64697 4.05208 0
M  V30 1534 C 137.407 1.15374 5.13396 0
M  V30 1535 O 136.433 1.85013 5.38293 0
M  V30 1536 N 137.635 0.00031529 5.805 0
M  V30 1537 H 140.4 1.9808 2.2491 0
M  V30 1538 H 137.961 1.17491 1.11389 0
M  V30 1539 H 139.953 0.194401 4.04233 0
M  V30 1540 H 138.523 -0.315021 3.11009 0
M  V30 1541 H 137.743 2.16379 3.29506 0
M  V30 1542 H 139.031 2.3903 4.49157 0
M  V30 1543 H 138.429 -0.581336 5.62705 0
M  V30 1544 H 136.986 -0.286346 6.51171 0
M  V30 1545 N 140.419 -1.14872 1.07899 0
M  V30 1546 C 141.367 -2.21857 0.698727 0
M  V30 1547 C 142.361 -1.66845 -0.293086 0
M  V30 1548 O 143.567 -1.79321 -0.156204 0
M  V30 1549 H 139.942 -0.722691 0.207899 0
M  V30 1550 H 141.913 -2.51205 1.61054 0
M  V30 1551 C 140.662 -3.47498 0.11858 0
M  V30 1552 H 139.985 -3.90154 0.872914 0
M  V30 1553 H 141.425 -4.23858 -0.109759 0
M  V30 1554 C 139.884 -3.16947 -1.1422 0
M  V30 1555 O 140.414 -3.3426 -2.22785 0
M  V30 1556 N 138.62 -2.70946 -1.05055 0
M  V30 1557 H 138.167 -2.57058 -0.167038 0
M  V30 1558 H 138.125 -2.50879 -1.89491 0
M  V30 1559 N 141.898 -0.863906 -1.31812 0
M  V30 1560 C 142.828 -0.330843 -2.31144 0
M  V30 1561 C 143.809 0.575005 -1.60087 0
M  V30 1562 O 144.994 0.493304 -1.8783 0
M  V30 1563 C 142.124 0.47374 -3.44054 0
M  V30 1564 C 141.078 -0.338481 -4.26659 0
M  V30 1565 C 140.404 0.591412 -5.31419 0
M  V30 1566 C 141.704 -1.56926 -4.98168 0
M  V30 1567 H 143.398 -1.16086 -2.75979 0
M  V30 1568 H 140.944 -0.559657 -1.32679 0
M  V30 1569 H 142.897 0.857143 -4.12591 0
M  V30 1570 H 141.621 1.33721 -2.9797 0
M  V30 1571 H 140.28 -0.703754 -3.59782 0
M  V30 1572 H 139.928 1.45199 -4.81587 0
M  V30 1573 H 139.628 0.0519022 -5.87577 0
M  V30 1574 H 141.152 0.97179 -6.02817 0
M  V30 1575 H 142.566 -1.25764 -5.59336 0
M  V30 1576 H 140.963 -2.04739 -5.64094 0
M  V30 1577 H 142.033 -2.32544 -4.25501 0
M  V30 1578 N 143.376 1.44774 -0.622745 0
M  V30 1579 C 144.323 2.30635 0.0871679 0
M  V30 1580 C 145.293 1.42994 0.845097 0
M  V30 1581 O 146.478 1.71907 0.827812 0
M  V30 1582 C 143.618 3.28144 1.06844 0
M  V30 1583 C 142.731 4.30888 0.309809 0
M  V30 1584 C 141.866 5.15494 1.28215 0
M  V30 1585 C 140.905 6.09953 0.512198 0
M  V30 1586 N 140.042 6.87287 1.43458 0
M  V30 1587 H 144.882 2.90803 -0.650974 0
M  V30 1588 H 142.419 1.43286 -0.33281 0
M  V30 1589 H 144.377 3.83157 1.65066 0
M  V30 1590 H 143.007 2.69695 1.77382 0
M  V30 1591 H 142.059 3.78414 -0.388181 0
M  V30 1592 H 143.371 4.97955 -0.290254 0
M  V30 1593 H 142.525 5.74983 1.93596 0
M  V30 1594 H 141.264 4.48481 1.91614 0
M  V30 1595 H 140.269 5.49581 -0.155151 0
M  V30 1596 H 141.494 6.78999 -0.116958 0
M  V30 1597 H 139.44 6.2295 2.05594 0
M  V30 1598 H 139.357 7.50763 0.888335 0
M  V30 1599 H 140.625 7.51306 2.07749 0
M  V30 1600 N 144.854 0.36279 1.53368 0
M  V30 1601 C 146.265 -0.117022 1.86333 0
M  V30 1602 C 146.616 -1.48397 1.28347 0
M  V30 1603 O 145.741 -2.07787 0.604428 0
M  V30 1604 C 146.336 -0.21912 3.38091 0
M  V30 1605 C 144.895 -0.643184 3.70864 0
M  V30 1606 C 144.042 0.211318 2.76494 0
M  V30 1607 H 146.993 0.581687 1.47655 0
M  V30 1608 H 147.014 -1.04319 3.6592 0
M  V30 1609 H 146.526 0.775902 3.80265 0
M  V30 1610 H 144.627 -1.64654 3.34245 0
M  V30 1611 H 144.74 -0.41973 4.77258 0
M  V30 1612 H 143.104 -0.319367 2.5269 0
M  V30 1613 H 143.887 1.20383 3.21501 0
M  V30 1614 O 146.371 -1.59827 0.231878 0
M  V30 1615 H 147.062 -1.90573 -0.346636 0
M  V30 END ATOM
M  V30 BEGIN BOND
M  V30 END BOND
M  V30 END CTAB
M  END
$$$$
