drugbank_target|P23921 Ribonucleoside-diphosphate reductase large subunit (DB00242; DB00441; DB00631; DB01005; DB01073; DB05003; DB05420; DB06433)
 OpenBabel12092119293D

  0  0  0     0  0            999 V3000
M  V30 BEGIN CTAB
M  V30 COUNTS 12639 12770 0 0 0
M  V30 BEGIN ATOM
M  V30 1 H -0.908 1.98254 -0.117106 0
M  V30 2 N 0 1.576 0 0
M  V30 3 C 0.933 2.03868 1.02534 0
M  V30 4 C 1.911 0.928543 1.3348 0
M  V30 5 O 3.095 1.19667 1.45644 0
M  V30 6 C 0.222 2.43627 2.35294 0
M  V30 7 C -0.732 3.65373 2.2001 0
M  V30 8 S 0.101 5.13292 1.52614 0
M  V30 9 C 1.257 5.56322 2.86805 0
M  V30 10 H 1.49 2.90518 0.631377 0
M  V30 11 H -0.977 1.52953 0.210867 0
M  V30 12 H 0.981 2.67203 3.11629 0
M  V30 13 H -0.358 1.57376 2.7183 0
M  V30 14 H -1.165 3.90944 3.18086 0
M  V30 15 H -1.563 3.418 1.51819 0
M  V30 16 H 0.729 5.58782 3.83104 0
M  V30 17 H 1.672 6.56266 2.65933 0
M  V30 18 H 2.08 4.83886 2.90714 0
M  V30 19 N 1.4781 -0.272755 1.55222 0
M  V30 20 C 2.4281 -1.33946 1.84506 0
M  V30 21 C 3.4121 -1.44682 0.70399 0
M  V30 22 O 4.6041 -1.48358 0.965338 0
M  V30 23 C 1.7331 -2.69968 2.12067 0
M  V30 24 C 0.8191 -2.63341 3.32434 0
M  V30 25 N 1.2101 -2.26335 4.52334 0
M  V30 26 C -0.4919 -2.94402 3.35028 0
M  V30 27 C 0.2091 -2.29705 5.34425 0
M  V30 28 N -0.8149 -2.68188 4.72838 0
M  V30 29 H 2.9871 -1.04343 2.74754 0
M  V30 30 H 0.5011 -0.481389 1.55101 0
M  V30 31 H 2.4981 -3.46916 2.31202 0
M  V30 32 H 1.1581 -3.00459 1.23103 0
M  V30 33 H 2.1691 -1.98309 4.78429 0
M  V30 34 H -1.1539 -3.29603 2.56257 0
M  V30 35 H 0.2361 -2.03653 6.40293 0
M  V30 36 N 2.9562 -1.48159 -0.537278 0
M  V30 37 C 4.2022 -1.56035 -1.29541 0
M  V30 38 C 4.5352 -0.230377 -1.92829 0
M  V30 39 O 3.8102 0.762952 -1.78911 0
M  V30 40 C 4.0932 -2.69323 -2.39034 0
M  V30 41 C 3.9462 -4.12002 -1.80485 0
M  V30 42 C 5.2652 -2.78408 -3.40847 0
M  V30 43 H 2.3842 -0.567992 -0.469632 0
M  V30 44 H 5.0262 -1.80302 -0.599277 0
M  V30 45 H 3.1762 -2.48763 -2.98412 0
M  V30 46 H 4.8482 -4.43981 -1.25215 0
M  V30 47 H 3.0912 -4.19344 -1.11055 0
M  V30 48 H 3.7622 -4.87077 -2.59731 0
M  V30 49 H 6.2382 -2.97012 -2.91416 0
M  V30 50 H 5.1142 -3.59416 -4.14863 0
M  V30 51 H 5.3752 -1.86269 -4.00944 0
M  V30 52 N 4.4343 0.785586 -1.36625 0
M  V30 53 C 5.6833 1.53883 -1.30396 0
M  V30 54 C 5.9963 1.95271 0.113452 0
M  V30 55 O 7.2023 2.69858 0.298142 0
M  V30 56 C 5.6583 2.77808 -2.28802 0
M  V30 57 C 5.2663 2.43574 -3.75999 0
M  V30 58 C 7.0103 3.55783 -2.31558 0
M  V30 59 C 4.9173 3.63919 -4.66173 0
M  V30 60 H 3.8473 0.577678 -0.484566 0
M  V30 61 H 6.4983 0.861705 -1.62009 0
M  V30 62 H 4.8803 3.47339 -1.90188 0
M  V30 63 H 6.0543 1.81916 -4.23371 0
M  V30 64 H 4.3693 1.78803 -3.76056 0
M  V30 65 H 6.9663 4.45205 -2.96137 0
M  V30 66 H 7.3093 3.94644 -1.3252 0
M  V30 67 H 7.8423 2.93235 -2.68809 0
M  V30 68 H 4.5813 3.3015 -5.66287 0
M  V30 69 H 4.1013 4.2473 -4.23515 0
M  V30 70 H 5.7803 4.30901 -4.82632 0
M  V30 71 N 5.9124 1.20967 1.01018 0
M  V30 72 C 6.8594 0.964281 2.09691 0
M  V30 73 C 7.8294 -0.107853 1.65749 0
M  V30 74 O 9.0144 0.0381987 1.90762 0
M  V30 75 C 6.1544 0.52943 3.41015 0
M  V30 76 C 5.2674 1.67043 3.98398 0
M  V30 77 C 4.4024 1.18525 5.17808 0
M  V30 78 C 3.4414 2.29892 5.67288 0
M  V30 79 N 2.5784 1.82546 6.77954 0
M  V30 80 H 7.4184 1.89463 2.30017 0
M  V30 81 H 4.9554 0.944289 1.1279 0
M  V30 82 H 6.9134 0.258588 4.16398 0
M  V30 83 H 5.5434 -0.363919 3.20742 0
M  V30 84 H 4.5954 2.05603 3.20049 0
M  V30 85 H 5.9074 2.50877 4.31117 0
M  V30 86 H 5.0614 0.870762 6.00419 0
M  V30 87 H 3.8004 0.316887 4.86669 0
M  V30 88 H 2.8054 2.6215 4.83278 0
M  V30 89 H 4.0304 3.17216 6.00459 0
M  V30 90 H 1.9764 0.980454 6.48632 0
M  V30 91 H 1.8934 2.59956 7.09901 0
M  V30 92 H 3.1614 1.54115 7.64113 0
M  V30 93 N 7.3905 -1.2043 1.01659 0
M  V30 94 C 8.8065 -1.41852 0.731442 0
M  V30 95 C 9.0065 -1.89358 -0.688898 0
M  V30 96 O 8.0625 -2.06247 -1.45666 0
M  V30 97 C 9.3755 -2.44019 1.75714 0
M  V30 98 C 10.9235 -2.57785 1.77527 0
M  V30 99 C 11.3985 -3.63194 2.79023 0
M  V30 100 N 12.8895 -3.70678 2.77763 0
M  V30 101 C 13.6245 -4.51897 3.52954 0
M  V30 102 N 13.1205 -5.36921 4.37821 0
M  V30 103 N 14.9135 -4.4643 3.41551 0
M  V30 104 H 7.0645 -0.879093 1.93354 0
M  V30 105 H 9.3275 -0.448425 0.835236 0
M  V30 106 H 9.0335 -2.1611 2.77469 0
M  V30 107 H 8.9075 -3.43007 1.56927 0
M  V30 108 H 11.2945 -2.85023 0.764569 0
M  V30 109 H 11.3755 -1.58992 2.00387 0
M  V30 110 H 11.0195 -3.36699 3.80258 0
M  V30 111 H 10.9495 -4.61609 2.53425 0
M  V30 112 H 13.4405 -3.09944 2.16201 0
M  V30 113 H 13.7535 -5.95981 4.91962 0
M  V30 114 H 12.0985 -5.36424 4.41899 0
M  V30 115 H 15.2895 -3.79042 2.74672 0
M  V30 116 H 15.4625 -5.09491 4.00404 0
M  V30 117 N 8.8686 -0.792821 -1.36206 0
M  V30 118 C 10.1456 -0.290627 -1.93429 0
M  V30 119 C 10.5256 1.21773 -1.72437 0
M  V30 120 O 9.8736 2.0108 -1.08531 0
M  V30 121 C 10.0836 -0.686973 -3.42172 0
M  V30 122 C 11.4316 -0.668643 -4.19302 0
M  V30 123 O 12.4556 -0.627658 -3.50626 0
M  V30 124 O 11.3146 -0.714597 -5.41808 0
M  V30 125 H 8.4086 -0.0727927 -0.82379 0
M  V30 126 H 10.9546 -0.875593 -1.45367 0
M  V30 127 H 9.7266 -1.72711 -3.51122 0
M  V30 128 H 9.3496 -0.0760733 -3.97527 0
M  V30 129 N 10.3467 1.47872 -0.545128 0
M  V30 130 C 11.5947 2.02093 -0.016553 0
M  V30 131 C 11.9157 1.42305 1.3332 0
M  V30 132 O 11.1857 0.593853 1.86682 0
M  V30 133 H 9.7657 0.746993 -0.00313038 0
M  V30 134 H 12.4277 1.81414 -0.712397 0
M  V30 135 H 11.5237 3.11996 0.0805422 0
M  V30 136 N 11.8248 0.280983 1.55075 0
M  V30 137 C 13.2408 -0.0729964 1.59433 0
M  V30 138 C 13.4408 -1.5411 1.29817 0
M  V30 139 O 12.4968 -2.29086 1.06187 0
M  V30 140 C 13.8098 0.306921 2.9913 0
M  V30 141 C 15.3578 0.254023 3.11968 0
M  V30 142 C 15.8328 0.608467 4.5394 0
M  V30 143 N 17.3238 0.560241 4.59799 0
M  V30 144 C 18.0588 0.80722 5.6769 0
M  V30 145 N 17.5548 1.11912 6.83701 0
M  V30 146 N 19.3478 0.735623 5.57266 0
M  V30 147 H 11.4988 1.238 1.7259 0
M  V30 148 H 13.7618 0.500547 0.805082 0
M  V30 149 H 13.4678 1.32816 3.25657 0
M  V30 150 H 13.3418 -0.349363 3.75579 0
M  V30 151 H 15.7288 -0.75794 2.852 0
M  V30 152 H 15.8098 0.944649 2.37718 0
M  V30 153 H 15.4538 1.61814 4.81434 0
M  V30 154 H 15.3838 -0.104013 5.26497 0
M  V30 155 H 17.8748 0.329288 3.76463 0
M  V30 156 H 18.1878 1.29409 7.61888 0
M  V30 157 H 16.5328 1.15695 6.85303 0
M  V30 158 H 19.7238 0.491752 4.6551 0
M  V30 159 H 19.8968 0.931482 6.4127 0
M  V30 160 N 13.3029 -1.57598 0.00835791 0
M  V30 161 C 14.2349 -2.05811 -1.00868 0
M  V30 162 C 15.2479 -0.977579 -1.30182 0
M  V30 163 O 16.4369 -1.25421 -1.27011 0
M  V30 164 C 13.5369 -2.45016 -2.34137 0
M  V30 165 C 12.7099 -3.75903 -2.23643 0
M  V30 166 C 11.7689 -4.01884 -3.3967 0
M  V30 167 O 10.7949 -4.72433 -3.17483 0
M  V30 168 N 11.9969 -3.50432 -4.62793 0
M  V30 169 H 14.7619 -2.93684 -0.597458 0
M  V30 170 H 12.3229 -1.60909 -0.178852 0
M  V30 171 H 14.3149 -2.59506 -3.10546 0
M  V30 172 H 12.8849 -1.62618 -2.66972 0
M  V30 173 H 12.1049 -3.7141 -1.32091 0
M  V30 174 H 13.3929 -4.61695 -2.13812 0
M  V30 175 H 12.7909 -2.93317 -4.83716 0
M  V30 176 H 11.3479 -3.70236 -5.3644 0
M  V30 177 N 14.781 0.264519 -1.55364 0
M  V30 178 C 15.691 1.34902 -1.91934 0
M  V30 179 C 16.707 1.53595 -0.817593 0
M  V30 180 O 17.883 1.67558 -1.11742 0
M  V30 181 C 14.948 2.68676 -2.19121 0
M  V30 182 C 14.009 2.58657 -3.4263 0
M  V30 183 C 13.242 3.86051 -3.68511 0
M  V30 184 O 13.465 4.87126 -2.96757 0
M  V30 185 O 12.399 3.85744 -4.62045 0
M  V30 186 H 16.225 1.06883 -2.8427 0
M  V30 187 H 13.81 0.463775 -1.42019 0
M  V30 188 H 15.692 3.47759 -2.37995 0
M  V30 189 H 14.367 2.96463 -1.29966 0
M  V30 190 H 13.274 1.7792 -3.29082 0
M  V30 191 H 14.607 2.35818 -4.32031 0
M  V30 192 N 16.2591 1.48442 0.529413 0
M  V30 193 C 17.6751 1.34575 0.858004 0
M  V30 194 C 17.8751 0.3572 1.98309 0
M  V30 195 O 16.9311 -0.221379 2.51528 0
M  V30 196 C 18.2441 2.74617 1.22499 0
M  V30 197 C 19.7921 2.83109 1.33484 0
M  V30 198 C 20.2671 4.23854 1.73526 0
M  V30 199 N 21.7581 4.2653 1.80628 0
M  V30 200 C 22.4931 5.32372 2.12997 0
M  V30 201 N 21.9891 6.48491 2.43786 0
M  V30 202 N 23.7821 5.19766 2.14008 0
M  V30 203 H 15.9331 2.1133 -0.212925 0
M  V30 204 H 18.1961 0.947439 -0.0326199 0
M  V30 205 H 17.9021 3.4852 0.471905 0
M  V30 206 H 17.7761 3.08177 2.17501 0
M  V30 207 H 20.1631 2.09462 2.0787 0
M  V30 208 H 20.2441 2.53168 0.366027 0
M  V30 209 H 19.8881 4.98018 0.997013 0
M  V30 210 H 19.8181 4.5124 2.71459 0
M  V30 211 H 22.3091 3.42772 1.59108 0
M  V30 212 H 22.6221 7.24993 2.67592 0
M  V30 213 H 20.9671 6.51765 2.41304 0
M  V30 214 H 24.1581 4.28066 1.89412 0
M  V30 215 H 24.3311 6.02354 2.38902 0
M  V30 216 N 17.7372 -0.778329 1.37039 0
M  V30 217 C 18.9832 -1.53892 1.32079 0
M  V30 218 C 19.3162 -1.9396 -0.0965386 0
M  V30 219 O 18.5912 -1.63568 -1.05242 0
M  V30 220 C 18.8742 -2.80847 2.25382 0
M  V30 221 C 18.7272 -2.47076 3.75864 0
M  V30 222 C 20.0462 -3.82741 2.1725 0
M  V30 223 H 17.1652 -0.558303 0.48111 0
M  V30 224 H 19.8072 -0.893397 1.67685 0
M  V30 225 H 17.9572 -3.35931 1.95148 0
M  V30 226 H 19.6292 -1.97957 4.16666 0
M  V30 227 H 17.8722 -1.79863 3.94755 0
M  V30 228 H 18.5432 -3.37798 4.36574 0
M  V30 229 H 21.0192 -3.37133 2.43887 0
M  V30 230 H 19.8952 -4.69303 2.84686 0
M  V30 231 H 20.1562 -4.2652 1.16331 0
M  V30 232 N 19.2153 -1.21501 -1.00376 0
M  V30 233 C 20.1483 -0.918669 -2.08892 0
M  V30 234 C 21.1263 0.134277 -1.62045 0
M  V30 235 O 22.3103 0.00504255 -1.88499 0
M  V30 236 C 19.4373 -0.379645 -3.36566 0
M  V30 237 C 18.4833 -1.41559 -4.02323 0
M  V30 238 S 19.3163 -2.98521 -4.44574 0
M  V30 239 C 20.4723 -2.46228 -5.75433 0
M  V30 240 H 20.7053 -1.83761 -2.33707 0
M  V30 241 H 18.2383 -1.04489 -1.13673 0
M  V30 242 H 20.1963 -0.0752195 -4.10431 0
M  V30 243 H 18.8573 0.518008 -3.09799 0
M  V30 244 H 18.0503 -0.988076 -4.9422 0
M  V30 245 H 17.6523 -1.66815 -3.34737 0
M  V30 246 H 19.9443 -1.86791 -6.51241 0
M  V30 247 H 20.8873 -3.36572 -6.22997 0
M  V30 248 H 21.2953 -1.87894 -5.32312 0
M  V30 249 N 20.6934 1.19889 -1.02296 0
M  V30 250 C 21.9404 1.8942 -0.715972 0
M  V30 251 C 22.2684 1.79251 0.754944 0
M  V30 252 O 21.5234 1.17526 1.56481 0
M  V30 253 C 21.8224 3.39883 -1.10518 0
M  V30 254 C 21.4884 3.70254 -2.57337 0
M  V30 255 C 20.1504 3.78254 -2.97452 0
M  V30 256 C 22.5024 3.84052 -3.52354 0
M  V30 257 C 19.8304 3.97514 -4.31509 0
M  V30 258 C 22.1824 4.04824 -4.86108 0
M  V30 259 C 20.8464 4.11054 -5.25919 0
M  V30 260 H 20.1164 0.693138 -0.261993 0
M  V30 261 H 22.7634 1.42012 -1.28472 0
M  V30 262 H 21.0684 3.8915 -0.454953 0
M  V30 263 H 22.7654 3.9199 -0.845261 0
M  V30 264 H 19.3554 3.64632 -2.25258 0
M  V30 265 H 23.5394 3.77221 -3.22518 0
M  V30 266 H 18.7954 4.00574 -4.61898 0
M  V30 267 H 22.9694 4.14442 -5.59653 0
M  V30 268 H 20.5964 4.2573 -6.29808 0
M  V30 269 N 22.1715 0.800033 1.35784 0
M  V30 270 C 23.4485 0.30088 1.93272 0
M  V30 271 C 23.8285 -1.20857 1.73081 0
M  V30 272 O 23.1765 -2.00502 1.09596 0
M  V30 273 C 23.3865 0.70511 3.41803 0
M  V30 274 C 24.7345 0.690871 4.18942 0
M  V30 275 O 25.7585 0.646244 3.50289 0
M  V30 276 O 24.6175 0.74332 5.41421 0
M  V30 277 H 21.7115 0.0771605 0.823393 0
M  V30 278 H 24.2575 0.88329 1.449 0
M  V30 279 H 23.0295 1.74571 3.50201 0
M  V30 280 H 22.6525 0.0971541 3.97481 0
M  V30 281 N 23.6496 -1.47581 0.552962 0
M  V30 282 C 24.5966 -2.29957 -0.197108 0
M  V30 283 C 25.5666 -1.38799 -0.912359 0
M  V30 284 O 26.7516 -1.67761 -0.908888 0
M  V30 285 C 23.8916 -3.22672 -1.22379 0
M  V30 286 C 23.0046 -4.28919 -0.515038 0
M  V30 287 C 22.1396 -5.0879 -1.52664 0
M  V30 288 C 21.1786 -6.06815 -0.802631 0
M  V30 289 N 20.3156 -6.7966 -1.76086 0
M  V30 290 H 25.1556 -2.93578 0.511486 0
M  V30 291 H 22.6926 -1.4471 0.264067 0
M  V30 292 H 24.6506 -3.74845 -1.83159 0
M  V30 293 H 23.2806 -2.60925 -1.90047 0
M  V30 294 H 22.3326 -3.79835 0.207192 0
M  V30 295 H 23.6446 -4.98773 0.0523425 0
M  V30 296 H 22.7986 -5.65091 -2.20809 0
M  V30 297 H 21.5376 -4.38828 -2.12794 0
M  V30 298 H 20.5426 -5.49695 -0.107238 0
M  V30 299 H 21.7676 -6.78784 -0.207135 0
M  V30 300 H 19.7136 -6.12432 -2.35081 0
M  V30 301 H 19.6306 -7.45669 -1.24552 0
M  V30 302 H 20.8986 -7.40538 -2.43359 0
M  V30 303 N 25.1277 -0.289203 -1.54924 0
M  V30 304 C 26.3767 0.324231 -1.99077 0
M  V30 305 C 26.6897 1.5591 -1.18117 0
M  V30 306 O 27.8957 2.24637 -1.52481 0
M  V30 307 C 26.3517 0.628209 -3.54375 0
M  V30 308 C 25.9597 -0.587647 -4.44129 0
M  V30 309 C 27.7037 1.20349 -4.07083 0
M  V30 310 C 25.6107 -0.257475 -5.90839 0
M  V30 311 H 24.5407 0.124924 -0.743579 0
M  V30 312 H 27.1917 -0.396063 -1.79175 0
M  V30 313 H 25.5737 1.40778 -3.70132 0
M  V30 314 H 26.7477 -1.36418 -4.40144 0
M  V30 315 H 25.0627 -1.08074 -4.0213 0
M  V30 316 H 27.6597 1.46456 -5.14252 0
M  V30 317 H 28.0027 2.14195 -3.56968 0
M  V30 318 H 28.5357 0.485889 -3.94821 0
M  V30 319 H 25.2747 -1.16419 -6.45079 0
M  V30 320 H 24.7947 0.482018 -5.9786 0
M  V30 321 H 26.4737 0.145238 -6.46837 0
M  V30 322 N 26.6058 1.57591 -0.0167156 0
M  V30 323 C 27.8338 1.95575 0.675128 0
M  V30 324 C 28.2488 0.892542 1.6637 0
M  V30 325 O 27.6058 -0.126912 1.82058 0
M  V30 326 C 27.6568 3.33608 1.39239 0
M  V30 327 O 27.3778 4.3585 0.443444 0
M  V30 328 C 28.8788 3.86151 2.17721 0
M  V30 329 H 26.0988 0.644423 0.186978 0
M  V30 330 H 28.6428 2.0437 -0.0728 0
M  V30 331 H 26.7978 3.2607 2.09182 0
M  V30 332 H 27.2118 5.158 0.951358 0
M  V30 333 H 28.6858 4.85114 2.63379 0
M  V30 334 H 29.1628 3.19738 3.01105 0
M  V30 335 H 29.7688 3.96918 1.52761 0
M  V30 336 N 28.0839 -0.256276 1.55502 0
M  V30 337 C 29.3089 -1.00766 1.81276 0
M  V30 338 C 29.7339 -1.78524 0.59252 0
M  V30 339 O 29.0919 -1.75413 -0.45827 0
M  V30 340 C 29.1399 -1.92869 3.04687 0
M  V30 341 O 28.2439 -3.019 2.80945 0
M  V30 342 H 27.5849 -0.287224 0.598664 0
M  V30 343 H 30.1149 -0.280109 2.02674 0
M  V30 344 H 30.1249 -2.34511 3.33869 0
M  V30 345 H 28.7999 -1.35689 3.93143 0
M  V30 346 H 27.3769 -2.64454 2.62904 0
M  V30 347 N 29.562 -1.4872 -0.521534 0
M  V30 348 C 30.978 -1.35028 -0.850855 0
M  V30 349 C 31.178 -0.367712 -1.98116 0
M  V30 350 O 30.234 0.208037 -2.51642 0
M  V30 351 C 31.547 -2.75263 -1.21041 0
M  V30 352 C 33.095 -2.83813 -1.31981 0
M  V30 353 C 33.57 -4.24769 -1.71276 0
M  V30 354 N 35.061 -4.27482 -1.78363 0
M  V30 355 C 35.796 -5.33494 -2.1017 0
M  V30 356 N 35.292 -6.49775 -2.40343 0
M  V30 357 N 37.085 -5.20894 -2.11248 0
M  V30 358 H 29.236 -2.11214 0.22413 0
M  V30 359 H 31.499 -0.947252 0.0376439 0
M  V30 360 H 31.205 -3.48765 -0.453415 0
M  V30 361 H 31.079 -3.09327 -2.15863 0
M  V30 362 H 33.466 -2.10561 -2.06756 0
M  V30 363 H 33.547 -2.53358 -0.352596 0
M  V30 364 H 33.191 -4.9854 -0.970588 0
M  V30 365 H 33.121 -4.52673 -2.69062 0
M  V30 366 H 35.612 -3.43611 -1.57288 0
M  V30 367 H 35.925 -7.26402 -2.63743 0
M  V30 368 H 34.27 -6.53035 -2.37844 0
M  V30 369 H 37.461 -4.29065 -1.87139 0
M  V30 370 H 37.634 -6.03612 -2.35704 0
M  V30 371 N 31.0401 0.771051 -1.3745 0
M  V30 372 C 32.2891 1.52491 -1.3202 0
M  V30 373 C 32.6021 1.9538 0.0927347 0
M  V30 374 O 33.8081 2.70159 0.269503 0
M  V30 375 C 32.2641 2.75366 -2.31736 0
M  V30 376 C 31.8721 2.39573 -3.78562 0
M  V30 377 C 33.6161 3.53307 -2.35318 0
M  V30 378 C 31.5231 3.58954 -4.70007 0
M  V30 379 H 30.4531 0.572506 -0.490666 0
M  V30 380 H 33.1041 0.844474 -1.62914 0
M  V30 381 H 31.4861 3.45303 -1.93861 0
M  V30 382 H 32.6601 1.77415 -4.25277 0
M  V30 383 H 30.9751 1.74805 -3.77932 0
M  V30 384 H 33.5721 4.42039 -3.00842 0
M  V30 385 H 33.9151 3.93217 -1.36698 0
M  V30 386 H 34.4481 2.90367 -2.71904 0
M  V30 387 H 31.1871 3.24125 -5.69757 0
M  V30 388 H 30.7071 4.20214 -4.27996 0
M  V30 389 H 32.3861 4.25758 -4.87175 0
M  V30 390 N 32.5182 1.22032 0.997298 0
M  V30 391 C 33.4502 0.944263 2.08845 0
M  V30 392 C 34.4632 -0.0754663 1.62625 0
M  V30 393 O 35.6522 0.157994 1.77799 0
M  V30 394 C 32.7522 0.397723 3.36558 0
M  V30 395 C 31.9252 1.47362 4.11829 0
M  V30 396 C 30.9842 0.934951 5.17827 0
M  V30 397 O 30.0102 1.62016 5.45655 0
M  V30 398 N 31.2122 -0.245895 5.79979 0
M  V30 399 H 33.9772 1.88363 2.33109 0
M  V30 400 H 31.5382 1.12661 1.16272 0
M  V30 401 H 33.5302 0.0227771 4.04694 0
M  V30 402 H 32.1002 -0.446646 3.09393 0
M  V30 403 H 31.3202 2.02208 3.38386 0
M  V30 404 H 32.6082 2.19764 4.58891 0
M  V30 405 H 32.0062 -0.819475 5.59733 0
M  V30 406 H 30.5632 -0.562272 6.4937 0
M  V30 407 N 33.9963 -1.19345 1.0293 0
M  V30 408 C 34.9433 -2.2258 0.610464 0
M  V30 409 C 35.9133 -1.6179 -0.375946 0
M  V30 410 O 37.0983 -1.88844 -0.272511 0
M  V30 411 C 34.2383 -3.45085 -0.0321473 0
M  V30 412 C 33.3513 -4.20258 1.00035 0
M  V30 413 C 32.4863 -5.3019 0.32746 0
M  V30 414 C 31.5253 -5.97121 1.34584 0
M  V30 415 N 30.6623 -6.98615 0.698726 0
M  V30 416 H 35.5023 -2.57764 1.49538 0
M  V30 417 H 33.0393 -1.26644 0.748311 0
M  V30 418 H 34.9973 -4.15061 -0.421966 0
M  V30 419 H 33.6273 -3.10555 -0.88064 0
M  V30 420 H 32.6793 -3.49223 1.50823 0
M  V30 421 H 33.9913 -4.66175 1.77433 0
M  V30 422 H 33.1453 -6.06587 -0.11718 0
M  V30 423 H 31.8843 -4.85345 -0.478713 0
M  V30 424 H 30.8893 -5.19474 1.80074 0
M  V30 425 H 32.1143 -6.4405 2.15352 0
M  V30 426 H 30.0603 -6.55942 -0.0873471 0
M  V30 427 H 29.9773 -7.42724 1.41058 0
M  V30 428 H 31.2453 -7.79004 0.278102 0
M  V30 429 N 35.4744 -0.807222 -1.35358 0
M  V30 430 C 36.4044 -0.232509 -2.3234 0
M  V30 431 C 37.3854 0.642386 -1.57504 0
M  V30 432 O 38.5704 0.572526 -1.85569 0
M  V30 433 C 35.7004 0.619238 -3.41735 0
M  V30 434 C 34.6544 -0.157215 -4.27711 0
M  V30 435 C 33.9804 0.816273 -5.28433 0
M  V30 436 C 35.2804 -1.35656 -5.04376 0
M  V30 437 H 36.9744 -1.04276 -2.80654 0
M  V30 438 H 34.5204 -0.50288 -1.34934 0
M  V30 439 H 36.4734 1.03137 -4.08584 0
M  V30 440 H 35.1974 1.46239 -2.92031 0
M  V30 441 H 33.8564 -0.550525 -3.62443 0
M  V30 442 H 33.5044 1.65494 -4.74996 0
M  V30 443 H 33.2044 0.301067 -5.86828 0
M  V30 444 H 34.7284 1.22659 -5.98153 0
M  V30 445 H 36.1424 -1.01927 -5.64166 0
M  V30 446 H 34.5394 -1.8063 -5.7227 0
M  V30 447 H 35.6094 -2.14288 -4.34981 0
M  V30 448 N 36.9525 1.47285 -0.560781 0
M  V30 449 C 38.1925 2.0436 -0.0404627 0
M  V30 450 C 38.5565 1.42534 1.28639 0
M  V30 451 O 39.7575 1.90677 1.89462 0
M  V30 452 C 38.0285 3.57369 0.0471856 0
M  V30 453 S 39.5875 4.3579 0.513109 0
M  V30 454 H 36.4055 0.710492 -0.0268674 0
M  V30 455 H 39.0075 1.80611 -0.748323 0
M  V30 456 H 37.7115 3.9989 -0.922817 0
M  V30 457 H 37.2425 3.8562 0.778491 0
M  V30 458 H 39.2575 4.63476 1.77212 0
M  V30 459 N 38.4306 0.297415 1.54768 0
M  V30 460 C 39.6606 -0.315165 2.04182 0
M  V30 461 C 40.0686 -1.4834 1.17439 0
M  V30 462 O 39.4116 -1.82695 0.191891 0
M  V30 463 C 39.4736 -0.837583 3.49607 0
M  V30 464 C 39.1376 0.204912 4.5654 0
M  V30 465 C 40.1346 1.03214 5.09552 0
M  V30 466 C 37.8196 0.345578 5.0111 0
M  V30 467 C 39.8136 1.986 6.05671 0
M  V30 468 C 37.5006 1.30289 5.97049 0
M  V30 469 C 38.4986 2.12159 6.49213 0
M  V30 470 O 38.1866 3.06268 7.43273 0
M  V30 471 H 37.9186 -0.0729646 0.672051 0
M  V30 472 H 40.4726 0.433907 2.00765 0
M  V30 473 H 38.7026 -1.63712 3.50336 0
M  V30 474 H 40.3916 -1.36566 3.82236 0
M  V30 475 H 41.1576 0.934312 4.75916 0
M  V30 476 H 37.0366 -0.28171 4.60138 0
M  V30 477 H 40.5806 2.62542 6.46311 0
M  V30 478 H 36.4776 1.40145 6.30103 0
M  V30 479 H 37.2456 3.01205 7.61064 0
M  V30 480 N 39.9087 -1.5758 0.0250728 0
M  V30 481 C 41.1567 -1.91255 -0.653151 0
M  V30 482 C 41.4777 -0.901691 -1.729 0
M  V30 483 O 40.7477 0.0573785 -1.95816 0
M  V30 484 H 39.3277 -0.705942 -0.244243 0
M  V30 485 H 41.9897 -1.94767 0.0719209 0
M  V30 486 H 41.0857 -2.91752 -1.10847 0
M  V30 487 N 41.3868 0.248026 -1.55636 0
M  V30 488 C 42.3168 1.31079 -1.93237 0
M  V30 489 C 43.2978 1.50264 -0.797174 0
M  V30 490 O 44.4828 1.62891 -1.05737 0
M  V30 491 C 41.6128 2.66575 -2.22609 0
M  V30 492 C 40.5668 2.62087 -3.3837 0
M  V30 493 C 39.8928 4.01369 -3.53281 0
M  V30 494 C 41.1928 2.19171 -4.7409 0
M  V30 495 H 42.8868 0.998556 -2.82257 0
M  V30 496 H 40.4328 0.47891 -1.35803 0
M  V30 497 H 42.3858 3.41057 -2.47503 0
M  V30 498 H 41.1098 2.99432 -1.30414 0
M  V30 499 H 39.7688 1.90063 -3.13483 0
M  V30 500 H 39.4168 4.31489 -2.58508 0
M  V30 501 H 39.1168 3.99254 -4.31127 0
M  V30 502 H 40.6408 4.77552 -3.80495 0
M  V30 503 H 42.0548 2.83384 -4.98363 0
M  V30 504 H 40.4518 2.2817 -5.5503 0
M  V30 505 H 41.5218 1.14336 -4.71227 0
M  V30 506 N 42.8649 1.48995 0.513639 0
M  V30 507 C 43.8129 1.65199 1.63744 0
M  V30 508 C 44.8069 0.51809 1.61283 0
M  V30 509 O 46.0129 0.697335 1.65943 0
M  V30 510 H 42.3879 0.52069 0.542574 0
M  V30 511 H 44.3589 2.59552 1.47226 0
M  V30 512 C 43.1079 1.72409 3.01945 0
M  V30 513 H 42.4309 2.59029 3.04539 0
M  V30 514 H 43.8709 1.87785 3.80148 0
M  V30 515 C 42.3299 0.46618 3.33659 0
M  V30 516 O 42.8599 -0.413744 3.99564 0
M  V30 517 N 41.0659 0.332931 2.88687 0
M  V30 518 H 40.6129 1.04996 2.35231 0
M  V30 519 H 40.5709 -0.507665 3.10274 0
M  V30 520 N 44.343 -0.763751 1.37857 0
M  V30 521 C 45.276 -1.88486 1.28639 0
M  V30 522 C 46.254 -1.61757 0.165363 0
M  V30 523 O 47.438 -1.85391 0.340948 0
M  V30 524 C 44.565 -3.23884 0.990811 0
M  V30 525 C 43.611 -3.69514 2.12983 0
M  V30 526 S 44.444 -3.82244 3.75033 0
M  V30 527 C 45.6 -5.20477 3.47641 0
M  V30 528 H 45.833 -1.96017 2.23527 0
M  V30 529 H 43.366 -0.925684 1.23574 0
M  V30 530 H 45.324 -4.02081 0.827101 0
M  V30 531 H 43.985 -3.14044 0.0592832 0
M  V30 532 H 43.178 -4.67696 1.87821 0
M  V30 533 H 42.78 -2.98441 2.25408 0
M  V30 534 H 45.072 -6.05905 3.03125 0
M  V30 535 H 46.015 -5.50655 4.4518 0
M  V30 536 H 46.423 -4.88793 2.82385 0
M  V30 537 N 45.8211 -1.22559 -0.990812 0
M  V30 538 C 47.0981 -0.959875 -1.70428 0
M  V30 539 C 47.4781 0.524455 -2.04481 0
M  V30 540 O 46.8261 1.49302 -1.72977 0
M  V30 541 C 47.0361 -1.85955 -2.95333 0
M  V30 542 C 48.3841 -2.11687 -3.68068 0
M  V30 543 O 49.4081 -1.8342 -3.05345 0
M  V30 544 O 48.2671 -2.59572 -4.80921 0
M  V30 545 H 45.3611 -0.361154 -0.743974 0
M  V30 546 H 47.9071 -1.33554 -1.04697 0
M  V30 547 H 46.6791 -2.86346 -2.66687 0
M  V30 548 H 46.3021 -1.4856 -3.68803 0
M  V30 549 N 47.2992 1.18797 -1.03562 0
M  V30 550 C 48.5462 1.8865 -0.736023 0
M  V30 551 C 48.8742 1.80041 0.735889 0
M  V30 552 O 48.1292 1.19179 1.55225 0
M  V30 553 C 48.4282 3.38692 -1.14117 0
M  V30 554 C 48.0942 3.67504 -2.6125 0
M  V30 555 C 46.7562 3.75078 -3.01447 0
M  V30 556 C 49.1082 3.80293 -3.56408 0
M  V30 557 C 46.4362 3.92915 -4.35701 0
M  V30 558 C 48.7882 3.99645 -4.90374 0
M  V30 559 C 47.4522 4.05453 -5.30249 0
M  V30 560 H 46.7222 0.690321 -0.26933 0
M  V30 561 H 49.3692 1.40641 -1.29971 0
M  V30 562 H 47.6742 3.88645 -0.496202 0
M  V30 563 H 49.3712 3.91072 -0.886789 0
M  V30 564 H 45.9612 3.62223 -2.29113 0
M  V30 565 H 50.1452 3.73779 -3.26501 0
M  V30 566 H 45.4012 3.95653 -4.66121 0
M  V30 567 H 49.5752 4.08482 -5.64017 0
M  V30 568 H 47.2022 4.19027 -6.34288 0
M  V30 569 N 48.7773 0.814389 1.34928 0
M  V30 570 C 50.0233 0.399013 1.98836 0
M  V30 571 C 50.3563 -1.03314 1.64438 0
M  V30 572 O 49.6313 -1.71811 0.911659 0
M  V30 573 C 49.9143 0.591629 3.55207 0
M  V30 574 C 49.7673 2.06928 3.99376 0
M  V30 575 C 51.0863 0.022199 4.40094 0
M  V30 576 H 48.2053 0.146451 0.722303 0
M  V30 577 H 50.8473 1.02537 1.59957 0
M  V30 578 H 48.9973 0.0584441 3.88456 0
M  V30 579 H 50.6693 2.66544 3.76499 0
M  V30 580 H 48.9123 2.56287 3.49999 0
M  V30 581 H 49.5833 2.1549 5.08201 0
M  V30 582 H 52.0593 0.477643 4.13349 0
M  V30 583 H 50.9353 0.186832 5.48582 0
M  V30 584 H 51.1963 -1.07215 4.28902 0
M  V30 585 N 50.2554 -1.46986 0.568584 0
M  V30 586 C 51.5324 -1.95592 -0.0174074 0
M  V30 587 C 51.9124 -1.51124 -1.47393 0
M  V30 588 O 51.2604 -0.755329 -2.15655 0
M  V30 589 C 51.4704 -3.48719 0.139913 0
M  V30 590 C 52.8184 -4.246 0.000426376 0
M  V30 591 O 53.8424 -3.56135 0.0680316 0
M  V30 592 O 52.7014 -5.46302 -0.146988 0
M  V30 593 H 49.7954 -0.82498 -0.0577599 0
M  V30 594 H 52.3414 -1.57335 0.635909 0
M  V30 595 H 51.1134 -3.73927 1.15301 0
M  V30 596 H 50.7364 -3.93771 -0.550491 0
M  V30 597 N 51.7335 -0.305618 -1.54608 0
M  V30 598 C 53.1445 0.186098 -1.8577 0
M  V30 599 C 53.4955 1.53058 -1.22751 0
M  V30 600 O 52.6205 2.09888 -0.526893 0
M  V30 601 C 53.2155 0.344449 -3.37044 0
M  V30 602 C 51.7745 0.780384 -3.68221 0
M  V30 603 C 50.9215 -0.108554 -2.77087 0
M  V30 604 H 53.8725 -0.526485 -1.49712 0
M  V30 605 H 53.8935 1.17828 -3.61796 0
M  V30 606 H 53.4055 -0.634235 -3.82883 0
M  V30 607 H 51.5065 1.76945 -3.27904 0
M  V30 608 H 51.6195 0.596572 -4.75371 0
M  V30 609 H 49.9835 0.412931 -2.5133 0
M  V30 610 H 50.7665 -1.08368 -3.25747 0
M  V30 611 N 53.2116 1.57565 -0.0334293 0
M  V30 612 C 54.1746 2.09393 0.932048 0
M  V30 613 C 55.1746 1.00986 1.25134 0
M  V30 614 O 56.3646 1.27129 1.19096 0
M  V30 615 C 53.4966 2.56338 2.2473 0
M  V30 616 H 54.6896 2.95984 0.483085 0
M  V30 617 H 52.2426 1.54819 0.21468 0
M  V30 618 H 52.9776 1.7309 2.74245 0
M  V30 619 H 52.7626 3.35542 2.02865 0
M  V30 620 H 54.2526 2.96646 2.93923 0
M  V30 621 N 54.6897 -0.239769 1.55765 0
M  V30 622 C 55.6217 -1.32001 1.87372 0
M  V30 623 C 56.6347 -1.43944 0.760522 0
M  V30 624 O 57.8237 -1.45167 1.0387 0
M  V30 625 C 54.9237 -2.69779 2.05115 0
M  V30 626 C 54.0967 -2.80014 3.36022 0
M  V30 627 C 53.1557 -3.98684 3.4342 0
M  V30 628 O 52.1817 -3.87877 4.16582 0
M  V30 629 N 53.3837 -5.12176 2.73232 0
M  V30 630 H 56.1487 -1.0522 2.80622 0
M  V30 631 H 53.7097 -0.429857 1.56089 0
M  V30 632 H 55.7017 -3.47517 2.07399 0
M  V30 633 H 54.2717 -2.89237 1.18577 0
M  V30 634 H 53.4917 -1.88896 3.45994 0
M  V30 635 H 54.7797 -2.83808 4.22292 0
M  V30 636 H 54.1777 -5.2385 2.13536 0
M  V30 637 H 52.7347 -5.88022 2.81199 0
M  V30 638 N 56.1678 -1.49265 -0.50573 0
M  V30 639 C 57.4168 -1.57761 -1.25675 0
M  V30 640 C 57.7298 -0.267371 -1.93764 0
M  V30 641 O 58.9358 -0.230827 -2.70517 0
M  V30 642 C 57.3918 -2.78332 -2.28165 0
M  V30 643 C 56.9998 -4.16096 -1.66037 0
M  V30 644 C 58.7438 -2.96155 -3.04125 0
M  V30 645 C 56.6508 -5.27895 -2.6661 0
M  V30 646 H 55.5808 -0.587391 -0.472745 0
M  V30 647 H 58.2318 -1.75644 -0.53118 0
M  V30 648 H 56.6138 -2.53934 -3.03865 0
M  V30 649 H 57.7878 -4.50612 -0.963622 0
M  V30 650 H 56.1028 -4.03591 -1.02484 0
M  V30 651 H 58.6998 -3.76849 -3.79327 0
M  V30 652 H 59.0428 -2.06534 -3.61455 0
M  V30 653 H 59.5758 -3.2057 -2.35541 0
M  V30 654 H 56.3148 -6.1956 -2.14068 0
M  V30 655 H 55.8348 -4.97839 -3.34539 0
M  V30 656 H 57.5138 -5.57031 -3.29129 0
M  V30 657 N 57.6459 0.756429 -1.3826 0
M  V30 658 C 58.8739 1.54565 -1.3754 0
M  V30 659 C 59.2889 1.88767 0.0355331 0
M  V30 660 O 58.6459 1.52572 1.0014 0
M  V30 661 C 58.6969 2.84654 -2.22833 0
M  V30 662 O 58.4179 2.51912 -3.5843 0
M  V30 663 C 59.9189 3.78807 -2.30261 0
M  V30 664 H 57.1389 0.478353 -0.470553 0
M  V30 665 H 59.6829 0.936381 -1.81803 0
M  V30 666 H 57.8379 3.41965 -1.8204 0
M  V30 667 H 58.2519 3.35325 -4.03308 0
M  V30 668 H 59.7259 4.67045 -2.94233 0
M  V30 669 H 60.2029 4.19038 -1.31545 0
M  V30 670 H 60.8089 3.2742 -2.71433 0
M  V30 671 N 59.124 1.23083 0.984299 0
M  V30 672 C 60.057 0.951786 2.07404 0
M  V30 673 C 61.035 -0.10848 1.62238 0
M  V30 674 O 62.219 0.0249467 1.88483 0
M  V30 675 C 59.346 0.433142 3.35919 0
M  V30 676 C 58.392 1.47941 4.0002 0
M  V30 677 S 59.225 3.05556 4.39768 0
M  V30 678 C 60.381 2.55351 5.71442 0
M  V30 679 H 60.614 1.87456 2.30754 0
M  V30 680 H 58.147 1.06284 1.11996 0
M  V30 681 H 60.105 0.140506 4.10259 0
M  V30 682 H 58.766 -0.468656 3.10584 0
M  V30 683 H 57.959 1.06658 4.92585 0
M  V30 684 H 57.561 1.7212 3.3204 0
M  V30 685 H 59.853 1.97128 6.48187 0
M  V30 686 H 60.796 3.46441 6.17563 0
M  V30 687 H 61.204 1.96339 5.29255 0
M  V30 688 N 60.6021 -1.18246 1.0419 0
M  V30 689 C 61.5491 -2.2192 0.634037 0
M  V30 690 C 62.5191 -1.62179 -0.358765 0
M  V30 691 O 63.7041 -1.89122 -0.252466 0
M  V30 692 C 60.8441 -3.451 0.00445535 0
M  V30 693 C 59.9571 -4.19174 1.04487 0
M  V30 694 C 59.0921 -5.29813 0.383676 0
M  V30 695 C 58.1311 -5.9566 1.4091 0
M  V30 696 N 57.2681 -6.97834 0.772784 0
M  V30 697 H 62.1081 -2.56164 1.52263 0
M  V30 698 H 59.6451 -1.25843 0.761701 0
M  V30 699 H 61.6031 -4.15485 -0.377919 0
M  V30 700 H 60.2331 -3.11472 -0.847652 0
M  V30 701 H 59.2851 -3.47604 1.54518 0
M  V30 702 H 60.5971 -4.64267 1.82368 0
M  V30 703 H 59.7511 -6.06677 -0.0528366 0
M  V30 704 H 58.4901 -4.85825 -0.427208 0
M  V30 705 H 57.4951 -5.17535 1.85574 0
M  V30 706 H 58.7201 -6.4173 2.22171 0
M  V30 707 H 56.6661 -6.55998 -0.0177708 0
M  V30 708 H 56.5831 -7.41186 1.48928 0
M  V30 709 H 57.8511 -7.78665 0.36071 0
M  V30 710 N 62.0802 -0.821533 -1.34494 0
M  V30 711 C 63.3262 -0.409552 -1.98622 0
M  V30 712 C 63.6592 1.0244 -1.64984 0
M  V30 713 O 62.9342 1.71325 -0.920758 0
M  V30 714 C 63.2172 -0.610458 -3.54888 0
M  V30 715 C 63.0702 -2.09043 -3.98273 0
M  V30 716 C 64.3892 -0.0455379 -4.40076 0
M  V30 717 H 61.5082 -0.15028 -0.721516 0
M  V30 718 H 64.1502 -1.03384 -1.59411 0
M  V30 719 H 62.3002 -0.079044 -3.8842 0
M  V30 720 H 63.9722 -2.68537 -3.75081 0
M  V30 721 H 62.2152 -2.58139 -3.48635 0
M  V30 722 H 62.8862 -2.18182 -5.07051 0
M  V30 723 H 65.3622 -0.499557 -4.1309 0
M  V30 724 H 64.2382 -0.215922 -5.48475 0
M  V30 725 H 64.4992 1.04939 -4.29465 0
M  V30 726 N 63.5583 1.46682 -0.576371 0
M  V30 727 C 64.8073 2.01619 -0.0572825 0
M  V30 728 C 65.1203 1.45417 1.30818 0
M  V30 729 O 66.3263 1.92133 1.91825 0
M  V30 730 C 64.7823 3.59863 -0.0518371 0
M  V30 731 C 64.3903 4.25059 -1.41523 0
M  V30 732 C 66.1343 4.2248 0.413639 0
M  V30 733 C 64.0413 5.75364 -1.36785 0
M  V30 734 H 62.9713 0.753794 -0.0176448 0
M  V30 735 H 65.6223 1.68481 -0.727076 0
M  V30 736 H 64.0043 3.90048 0.683994 0
M  V30 737 H 65.1783 4.06491 -2.17029 0
M  V30 738 H 63.4933 3.7451 -1.8202 0
M  V30 739 H 66.0903 5.3265 0.467779 0
M  V30 740 H 66.4333 3.90976 1.42982 0
M  V30 741 H 66.9663 3.96897 -0.267929 0
M  V30 742 H 63.7053 6.11518 -2.36063 0
M  V30 743 H 63.2253 5.96214 -0.654895 0
M  V30 744 H 64.9043 6.37955 -1.07805 0
M  V30 745 N 65.0364 0.313813 1.54444 0
M  V30 746 C 65.9684 -0.590425 2.21465 0
M  V30 747 C 66.9814 -1.08753 1.21147 0
M  V30 748 O 68.1704 -1.00278 1.4767 0
M  V30 749 C 65.2704 -1.82179 2.85769 0
M  V30 750 C 64.4434 -1.46502 4.12136 0
M  V30 751 C 63.5024 -2.55288 4.60124 0
M  V30 752 O 62.5284 -2.19842 5.25032 0
M  V30 753 N 63.7304 -3.86053 4.33525 0
M  V30 754 H 66.4954 -0.0166033 2.99695 0
M  V30 755 H 64.0564 0.136578 1.61323 0
M  V30 756 H 66.0484 -2.54328 3.14801 0
M  V30 757 H 64.6184 -2.30369 2.11303 0
M  V30 758 H 63.8384 -0.575595 3.89975 0
M  V30 759 H 65.1264 -1.20221 4.94393 0
M  V30 760 H 64.5244 -4.17654 3.81552 0
M  V30 761 H 63.0814 -4.54461 4.67235 0
M  V30 762 N 66.5145 -1.57545 0.0417849 0
M  V30 763 C 67.7625 -1.91937 -0.632829 0
M  V30 764 C 68.0835 -0.919978 -1.71934 0
M  V30 765 O 67.3535 0.0366064 -1.95866 0
M  V30 766 H 65.9335 -0.708493 -0.236742 0
M  V30 767 H 68.5955 -1.9468 0.0925745 0
M  V30 768 H 67.6915 -2.92912 -1.07746 0
M  V30 769 N 67.9926 0.231505 -1.5589 0
M  V30 770 C 68.9226 1.29022 -1.94617 0
M  V30 771 C 69.9036 1.4941 -0.813067 0
M  V30 772 O 71.0886 1.6176 -1.07459 0
M  V30 773 C 68.2186 2.64199 -2.25424 0
M  V30 774 C 67.1726 2.58484 -3.41131 0
M  V30 775 C 66.4986 3.97599 -3.57518 0
M  V30 776 C 67.7986 2.1413 -4.76388 0
M  V30 777 H 69.4926 0.968563 -2.83301 0
M  V30 778 H 67.0386 0.464479 -1.36303 0
M  V30 779 H 68.9916 3.38413 -2.51107 0
M  V30 780 H 67.7156 2.98032 -1.33583 0
M  V30 781 H 66.3746 1.86727 -3.15481 0
M  V30 782 H 66.0226 4.28723 -2.6307 0
M  V30 783 H 65.7226 3.94659 -4.35337 0
M  V30 784 H 67.2466 4.7349 -3.85538 0
M  V30 785 H 68.6606 2.78083 -5.01341 0
M  V30 786 H 67.0576 2.2227 -5.57419 0
M  V30 787 H 68.1276 1.09331 -4.72414 0
M  V30 788 N 69.4707 1.49531 0.497807 0
M  V30 789 C 70.7007 1.62657 1.27382 0
M  V30 790 C 71.1087 0.298488 1.86831 0
M  V30 791 O 70.4517 -0.72647 1.68725 0
M  V30 792 C 70.5137 2.6393 2.44093 0
M  V30 793 C 70.1777 4.08195 2.05489 0
M  V30 794 C 71.1747 4.949 1.59279 0
M  V30 795 C 68.8597 4.53948 2.15026 0
M  V30 796 C 70.8537 6.25397 1.23113 0
M  V30 797 C 68.5407 5.84458 1.78473 0
M  V30 798 C 69.5387 6.70006 1.32591 0
M  V30 799 O 69.2267 7.98083 0.965327 0
M  V30 800 H 68.9587 0.550429 0.392434 0
M  V30 801 H 71.5127 1.96325 0.603801 0
M  V30 802 H 69.7427 2.25449 3.14181 0
M  V30 803 H 71.4317 2.66552 3.06113 0
M  V30 804 H 72.1977 4.60779 1.51354 0
M  V30 805 H 68.0767 3.87525 2.4969 0
M  V30 806 H 71.6207 6.92125 0.872299 0
M  V30 807 H 67.5177 6.18107 1.86048 0
M  V30 808 H 68.2857 8.11122 1.09652 0
M  V30 809 N 70.9488 -0.749086 1.3866 0
M  V30 810 C 72.1738 -1.54344 1.38538 0
M  V30 811 C 72.5988 -1.88088 -0.0216655 0
M  V30 812 O 71.9568 -1.50899 -1.00494 0
M  V30 813 C 72.0048 -2.8164 2.25192 0
M  V30 814 O 71.1088 -3.7698 1.67212 0
M  V30 815 H 70.4498 -0.466654 0.472367 0
M  V30 816 H 72.9798 -0.925355 1.82478 0
M  V30 817 H 72.9898 -3.30519 2.3921 0
M  V30 818 H 71.6648 -2.56411 3.27454 0
M  V30 819 H 70.2418 -3.35699 1.6236 0
M  V30 820 N 72.4269 -1.23603 -0.977757 0
M  V30 821 C 73.6749 -1.06759 -1.71601 0
M  V30 822 C 73.9959 0.395929 -1.90938 0
M  V30 823 O 73.2659 1.28356 -1.47992 0
M  V30 824 H 71.8459 -0.392062 -0.635843 0
M  V30 825 H 74.5079 -1.55362 -1.1768 0
M  V30 826 H 73.6039 -1.55763 -2.70452 0
M  V30 827 N 73.905 1.17692 -1.04816 0
M  V30 828 C 75.151 1.88137 -0.75711 0
M  V30 829 C 75.484 1.80604 0.713841 0
M  V30 830 O 74.759 1.21146 1.52164 0
M  V30 831 C 75.042 3.38318 -1.2334 0
M  V30 832 C 74.895 3.54622 -2.76701 0
M  V30 833 C 76.214 4.32214 -0.829415 0
M  V30 834 H 73.333 0.683163 -0.27651 0
M  V30 835 H 75.975 1.38424 -1.30149 0
M  V30 836 H 74.125 3.80787 -0.770286 0
M  V30 837 H 75.797 3.21194 -3.31107 0
M  V30 838 H 74.04 2.97026 -3.16161 0
M  V30 839 H 74.711 4.60028 -3.05088 0
M  V30 840 H 77.187 3.97565 -1.22805 0
M  V30 841 H 76.063 5.35838 -1.19033 0
M  V30 842 H 76.324 4.41294 0.266891 0
M  V30 843 N 75.3831 0.828654 1.34056 0
M  V30 844 C 76.6111 0.43262 2.02326 0
M  V30 845 C 77.0261 -0.963147 1.62385 0
M  V30 846 O 76.3831 -1.62425 0.832121 0
M  V30 847 C 76.4341 0.53182 3.57567 0
M  V30 848 O 76.1551 1.87258 3.96063 0
M  V30 849 C 77.6561 0.131422 4.43105 0
M  V30 850 H 74.8761 0.172923 0.648335 0
M  V30 851 H 77.4201 1.1184 1.71208 0
M  V30 852 H 75.5751 -0.105938 3.87255 0
M  V30 853 H 75.9891 1.85087 4.90758 0
M  V30 854 H 77.4631 0.251904 5.51425 0
M  V30 855 H 77.9401 -0.925645 4.29335 0
M  V30 856 H 78.5461 0.743207 4.18756 0
M  V30 857 N 76.8612 -1.46375 0.584142 0
M  V30 858 C 78.0892 -2.06761 0.0759296 0
M  V30 859 C 78.5042 -1.43266 -1.22965 0
M  V30 860 O 77.8612 -0.538458 -1.74376 0
M  V30 861 C 77.9122 -3.61375 -0.0950384 0
M  V30 862 O 77.6332 -4.22495 1.15887 0
M  V30 863 C 79.1342 -4.38693 -0.637434 0
M  V30 864 H 76.3542 -0.668479 0.0581075 0
M  V30 865 H 78.8982 -1.8798 0.805218 0
M  V30 866 H 77.0532 -3.79578 -0.774554 0
M  V30 867 H 77.4672 -5.15385 0.973598 0
M  V30 868 H 78.9412 -5.47464 -0.706237 0
M  V30 869 H 79.4182 -4.06836 -1.65472 0
M  V30 870 H 80.0242 -4.25299 0.00725967 0
M  V30 871 N 78.3393 -0.321999 -1.54275 0
M  V30 872 C 79.5853 0.281461 -2.00837 0
M  V30 873 C 79.9183 1.51909 -1.20985 0
M  V30 874 O 79.1933 1.923 -0.291733 0
M  V30 875 C 79.4763 0.617162 -3.54772 0
M  V30 876 C 79.3293 -0.631064 -4.45351 0
M  V30 877 C 80.6483 1.43542 -4.16033 0
M  V30 878 H 77.7673 0.100826 -0.730071 0
M  V30 879 H 80.4093 -0.438268 -1.84876 0
M  V30 880 H 78.5593 1.23034 -3.68504 0
M  V30 881 H 80.2313 -1.26934 -4.43492 0
M  V30 882 H 78.4743 -1.26025 -4.15091 0
M  V30 883 H 79.1453 -0.351735 -5.50878 0
M  V30 884 H 81.6213 0.917134 -4.05867 0
M  V30 885 H 80.4973 1.63907 -5.23856 0
M  V30 886 H 80.7583 2.43108 -3.69257 0
M  V30 887 N 79.8174 1.5752 -0.0501392 0
M  V30 888 C 80.7274 2.14952 0.939827 0
M  V30 889 C 81.7434 1.10706 1.34239 0
M  V30 890 O 82.9194 1.42869 1.41952 0
M  V30 891 C 79.9844 2.68232 2.19665 0
M  V30 892 C 79.0454 3.87272 1.85253 0
M  V30 893 C 78.2784 4.38002 3.04943 0
M  V30 894 O 78.5014 3.87811 4.18281 0
M  V30 895 O 77.4354 5.29602 2.86017 0
M  V30 896 H 81.2614 2.9986 0.481392 0
M  V30 897 H 78.8464 1.4841 0.171699 0
M  V30 898 H 80.7284 3.02475 2.93406 0
M  V30 899 H 79.4034 1.86395 2.64648 0
M  V30 900 H 78.3104 3.5792 1.0883 0
M  V30 901 H 79.6434 4.70336 1.4507 0
M  V30 902 N 81.2955 -0.223234 1.56011 0
M  V30 903 C 82.2255 -1.27988 1.95298 0
M  V30 904 C 83.2065 -1.48976 0.820979 0
M  V30 905 O 84.3915 -1.61188 1.08315 0
M  V30 906 C 81.5215 -2.63 2.26822 0
M  V30 907 C 80.4755 -2.56671 3.42497 0
M  V30 908 C 79.8015 -3.95697 3.59622 0
M  V30 909 C 81.1015 -2.11601 4.77517 0
M  V30 910 H 82.7955 -0.953525 2.8381 0
M  V30 911 H 80.3415 -0.457244 1.36548 0
M  V30 912 H 82.2945 -3.37077 2.52898 0
M  V30 913 H 81.0185 -2.9732 1.35161 0
M  V30 914 H 79.6775 -1.85051 3.16467 0
M  V30 915 H 79.3255 -4.27322 2.6534 0
M  V30 916 H 79.0255 -3.92345 4.37424 0
M  V30 917 H 80.5495 -4.71438 3.88044 0
M  V30 918 H 81.9635 -2.7542 5.02809 0
M  V30 919 H 80.3605 -2.19311 5.5859 0
M  V30 920 H 81.4305 -1.06824 4.72987 0
M  V30 921 N 82.7736 -1.49793 -0.48987 0
M  V30 922 C 84.0506 -1.50348 -1.25119 0
M  V30 923 C 84.4306 -0.237466 -2.0976 0
M  V30 924 O 83.7786 0.77981 -2.14782 0
M  V30 925 C 83.9886 -2.78872 -2.09837 0
M  V30 926 C 85.3366 -3.288 -2.68655 0
M  V30 927 O 86.3606 -2.80065 -2.20096 0
M  V30 928 O 85.2196 -4.13707 -3.57083 0
M  V30 929 H 82.3136 -0.602242 -0.566775 0
M  V30 930 H 84.8596 -1.62067 -0.503229 0
M  V30 931 H 83.6316 -3.62499 -1.47343 0
M  V30 932 H 83.2546 -2.70066 -2.91805 0
M  V30 933 N 84.2517 0.741722 -1.39055 0
M  V30 934 C 85.4797 1.53098 -1.39171 0
M  V30 935 C 85.8947 1.88794 0.0155099 0
M  V30 936 O 85.2517 1.53626 0.985159 0
M  V30 937 C 85.3027 2.82274 -2.2584 0
M  V30 938 O 85.0237 2.48097 -3.61081 0
M  V30 939 C 86.5247 3.76343 -2.34266 0
M  V30 940 H 83.7447 0.473335 -0.4756 0
M  V30 941 H 86.2887 0.917045 -1.82785 0
M  V30 942 H 84.4437 3.40015 -1.85656 0
M  V30 943 H 84.8577 3.31029 -4.06842 0
M  V30 944 H 86.3317 4.63898 -2.9917 0
M  V30 945 H 86.8087 4.17619 -1.35982 0
M  V30 946 H 87.4147 3.24523 -2.74891 0
M  V30 947 N 85.7298 1.2412 0.971189 0
M  V30 948 C 86.6598 1.05508 2.08304 0
M  V30 949 C 87.6408 -0.0308864 1.70072 0
M  V30 950 O 88.8258 0.135521 1.93727 0
M  V30 951 C 85.9558 0.655365 3.4106 0
M  V30 952 C 84.9098 1.68971 3.93234 0
M  V30 953 C 84.2358 1.14516 5.22293 0
M  V30 954 C 85.5358 3.08487 4.21465 0
M  V30 955 H 87.2298 1.98507 2.24132 0
M  V30 956 H 84.7758 0.955821 1.07704 0
M  V30 957 H 86.7288 0.51217 4.18276 0
M  V30 958 H 85.4528 -0.31032 3.25122 0
M  V30 959 H 84.1118 1.82106 3.18171 0
M  V30 960 H 83.7598 0.170189 5.02712 0
M  V30 961 H 83.4598 1.83635 5.58168 0
M  V30 962 H 84.9838 1.01401 6.02121 0
M  V30 963 H 86.3978 2.98601 4.89398 0
M  V30 964 H 84.7948 3.74926 4.68562 0
M  V30 965 H 85.8648 3.56787 3.28376 0
M  V30 966 N 87.2079 -1.17134 1.05439 0
M  V30 967 C 88.1709 -2.19439 0.661764 0
M  V30 968 C 89.1709 -1.58199 -0.288042 0
M  V30 969 O 90.3609 -1.74053 -0.0715803 0
M  V30 970 C 87.4929 -3.40889 -0.0276209 0
M  V30 971 H 88.6859 -2.55688 1.56728 0
M  V30 972 H 86.2389 -1.31259 0.848567 0
M  V30 973 H 86.9739 -3.10187 -0.94629 0
M  V30 974 H 86.7589 -3.86586 0.655238 0
M  V30 975 H 88.2489 -4.16603 -0.288342 0
M  V30 976 N 88.686 -0.835752 -1.33615 0
M  V30 977 C 89.649 -0.272 -2.2758 0
M  V30 978 C 90.649 0.557487 -1.50827 0
M  V30 979 O 91.839 0.37173 -1.70188 0
M  V30 980 C 88.971 0.617173 -3.35267 0
M  V30 981 H 90.164 -1.10111 -2.78954 0
M  V30 982 H 87.717 -0.608594 -1.43965 0
M  V30 983 H 88.452 1.46884 -2.89129 0
M  V30 984 H 88.237 0.0237066 -3.92093 0
M  V30 985 H 89.727 1.005 -4.05326 0
M  V30 986 N 90.1641 1.46063 -0.591896 0
M  V30 987 C 91.0741 2.34192 0.13831 0
M  V30 988 C 92.0901 1.50305 0.876608 0
M  V30 989 O 93.2661 1.8315 0.837728 0
M  V30 990 C 90.3311 3.27656 1.13326 0
M  V30 991 C 89.3921 4.27445 0.39863 0
M  V30 992 C 88.6251 5.16443 1.34618 0
M  V30 993 O 88.8481 5.08553 2.58321 0
M  V30 994 O 87.7821 5.95843 0.851768 0
M  V30 995 H 91.6081 2.98002 -0.58552 0
M  V30 996 H 89.1931 1.45188 -0.352239 0
M  V30 997 H 91.0751 3.85291 1.70671 0
M  V30 998 H 89.7501 2.6643 1.83839 0
M  V30 999 H 88.6571 3.73471 -0.216895 0
M  V30 1000 H 89.9901 4.91482 -0.265709 0
M  V30 1001 N 91.6422 0.330177 1.54103 0
M  V30 1002 C 92.8702 -0.272179 2.05102 0
M  V30 1003 C 93.2852 -1.45267 1.20595 0
M  V30 1004 O 92.6422 -1.8094 0.238144 0
M  V30 1005 C 92.6932 -0.70023 3.54653 0
M  V30 1006 O 92.4142 0.433301 4.35952 0
M  V30 1007 C 93.9152 -1.3647 4.21771 0
M  V30 1008 H 91.1352 -0.0549159 0.668749 0
M  V30 1009 H 93.6792 0.478285 1.98828 0
M  V30 1010 H 91.8342 -1.40066 3.61193 0
M  V30 1011 H 92.2482 0.0947539 5.24414 0
M  V30 1012 H 93.7222 -1.61509 5.27843 0
M  V30 1013 H 94.1992 -2.31409 3.73292 0
M  V30 1014 H 94.8052 -0.706675 4.19388 0
M  V30 1015 N 93.1203 -1.57491 0.0584922 0
M  V30 1016 C 94.0833 -2.1085 -0.898617 0
M  V30 1017 C 95.0833 -1.02964 -1.23511 0
M  V30 1018 O 96.2733 -1.29007 -1.17059 0
M  V30 1019 C 93.4053 -2.59881 -2.20623 0
M  V30 1020 H 94.5983 -2.96715 -0.435936 0
M  V30 1021 H 92.1513 -1.55141 -0.190023 0
M  V30 1022 H 92.8863 -1.77431 -2.71457 0
M  V30 1023 H 92.6713 -3.38727 -1.97501 0
M  V30 1024 H 94.1613 -3.01285 -2.89166 0
M  V30 1025 N 94.5984 0.214957 -1.56127 0
M  V30 1026 C 95.5614 1.24997 -1.92116 0
M  V30 1027 C 96.5614 1.39467 -0.800344 0
M  V30 1028 O 97.7514 1.37619 -1.06802 0
M  V30 1029 C 94.8834 2.62271 -2.17777 0
M  V30 1030 H 96.0764 0.942875 -2.84693 0
M  V30 1031 H 93.6294 0.455654 -1.49511 0
M  V30 1032 H 94.3644 2.98068 -1.27773 0
M  V30 1033 H 94.1494 2.53143 -2.99434 0
M  V30 1034 H 95.6394 3.36946 -2.46693 0
M  V30 1035 N 96.0765 1.50051 0.48192 0
M  V30 1036 C 97.3045 1.64237 1.25832 0
M  V30 1037 C 97.7195 0.321336 1.86045 0
M  V30 1038 O 97.0765 -0.695478 1.68729 0
M  V30 1039 C 97.1275 2.72548 2.37487 0
M  V30 1040 O 96.8485 3.99529 1.79745 0
M  V30 1041 C 98.3495 2.9761 3.28547 0
M  V30 1042 H 95.5695 0.55237 0.380957 0
M  V30 1043 H 98.1135 1.96207 0.576467 0
M  V30 1044 H 96.2685 2.43303 3.01467 0
M  V30 1045 H 96.6825 4.59342 2.5319 0
M  V30 1046 H 98.1565 3.77084 4.03127 0
M  V30 1047 H 98.6335 2.0826 3.86684 0
M  V30 1048 H 99.2395 3.28345 2.70314 0
M  V30 1049 N 97.5546 -0.734337 1.39446 0
M  V30 1050 C 98.4846 -1.86155 1.40955 0
M  V30 1051 C 99.4656 -1.67898 0.272827 0
M  V30 1052 O 100.651 -1.88207 0.478743 0
M  V30 1053 C 97.7806 -3.23912 1.25294 0
M  V30 1054 C 96.7346 -3.56808 2.36373 0
M  V30 1055 C 96.0606 -4.93508 2.058 0
M  V30 1056 C 97.3606 -3.59713 3.78687 0
M  V30 1057 H 99.0546 -1.8515 2.35287 0
M  V30 1058 H 96.6006 -0.889367 1.13253 0
M  V30 1059 H 98.5536 -4.02443 1.2497 0
M  V30 1060 H 97.2776 -3.25446 0.274308 0
M  V30 1061 H 95.9366 -2.80606 2.35914 0
M  V30 1062 H 95.5846 -4.91623 1.06374 0
M  V30 1063 H 95.2846 -5.16486 2.80208 0
M  V30 1064 H 96.8086 -5.74396 2.07128 0
M  V30 1065 H 98.2226 -4.2832 3.81071 0
M  V30 1066 H 96.6196 -3.94209 4.52459 0
M  V30 1067 H 97.6896 -2.59504 4.09617 0
M  V30 1068 N 99.0327 -1.24633 -0.964593 0
M  V30 1069 C 100.261 -1.11501 -1.74285 0
M  V30 1070 C 100.676 0.332165 -1.85855 0
M  V30 1071 O 100.033 1.22903 -1.34911 0
M  V30 1072 C 100.084 -1.75258 -3.16175 0
M  V30 1073 O 99.8047 -3.14318 -3.05182 0
M  V30 1074 C 101.306 -1.67776 -4.10324 0
M  V30 1075 H 98.5257 -0.389407 -0.546446 0
M  V30 1076 H 101.07 -1.64801 -1.21083 0
M  V30 1077 H 99.2247 -1.25954 -3.66353 0
M  V30 1078 H 99.6387 -3.4551 -3.94618 0
M  V30 1079 H 101.113 -2.17064 -5.0753 0
M  V30 1080 H 101.59 -0.639584 -4.34518 0
M  V30 1081 H 102.196 -2.16522 -3.66058 0
M  V30 1082 N 100.511 1.16574 -1.06058 0
M  V30 1083 C 101.739 1.90952 -0.796552 0
M  V30 1084 C 102.154 1.77302 0.648808 0
M  V30 1085 O 101.511 1.11605 1.44397 0
M  V30 1086 C 101.562 3.41736 -1.17894 0
M  V30 1087 O 101.283 3.54975 -2.56758 0
M  V30 1088 C 102.784 4.33169 -0.942308 0
M  V30 1089 H 100.004 0.605594 -0.288959 0
M  V30 1090 H 102.548 1.47777 -1.41358 0
M  V30 1091 H 100.703 3.82623 -0.606491 0
M  V30 1092 H 101.117 4.4846 -2.72 0
M  V30 1093 H 102.591 5.37439 -1.25952 0
M  V30 1094 H 103.068 4.3903 0.122078 0
M  V30 1095 H 103.674 3.98007 -1.49902 0
M  V30 1096 N 101.989 0.842826 1.3317 0
M  V30 1097 C 102.936 0.276885 2.29133 0
M  V30 1098 C 103.906 -0.609527 1.54512 0
M  V30 1099 O 105.091 -0.546955 1.82792 0
M  V30 1100 C 102.231 -0.538707 3.40869 0
M  V30 1101 C 101.344 0.372169 4.30394 0
M  V30 1102 C 100.479 -0.454908 5.29249 0
M  V30 1103 C 99.5179 0.45411 6.10413 0
M  V30 1104 N 98.6549 -0.335075 7.013 0
M  V30 1105 H 103.495 1.10052 2.76934 0
M  V30 1106 H 101.032 0.554161 1.36262 0
M  V30 1107 H 102.99 -1.02709 4.0436 0
M  V30 1108 H 101.62 -1.32727 2.9425 0
M  V30 1109 H 100.672 0.97888 3.6759 0
M  V30 1110 H 101.984 1.0703 4.87182 0
M  V30 1111 H 101.138 -1.00695 5.98285 0
M  V30 1112 H 99.8769 -1.18646 4.73048 0
M  V30 1113 H 98.8819 1.01813 5.40291 0
M  V30 1114 H 100.107 1.18409 6.68697 0
M  V30 1115 H 98.0529 -1.04994 6.47543 0
M  V30 1116 H 97.9699 0.304262 7.55387 0
M  V30 1117 H 99.2379 -0.869224 7.74638 0
M  V30 1118 N 103.467 -1.45747 0.599634 0
M  V30 1119 C 104.417 -2.27538 -0.145107 0
M  V30 1120 C 105.401 -1.3686 -0.846055 0
M  V30 1121 O 106.593 -1.6091 -0.737357 0
M  V30 1122 C 103.722 -3.23569 -1.14708 0
M  V30 1123 C 102.808 -4.21734 -0.447383 0
M  V30 1124 N 103.199 -5.03257 0.506535 0
M  V30 1125 C 101.497 -4.40536 -0.695966 0
M  V30 1126 C 102.198 -5.74426 0.917068 0
M  V30 1127 N 101.174 -5.42966 0.26253 0
M  V30 1128 H 104.976 -2.87965 0.587672 0
M  V30 1129 H 102.49 -1.56803 0.422697 0
M  V30 1130 H 104.487 -3.8089 -1.69495 0
M  V30 1131 H 103.147 -2.64702 -1.8805 0
M  V30 1132 H 104.158 -5.10319 0.882899 0
M  V30 1133 H 100.835 -3.92802 -1.41467 0
M  V30 1134 H 102.225 -6.4995 1.70338 0
M  V30 1135 N 104.945 -0.338344 -1.53925 0
M  V30 1136 C 106.356 0.146651 -1.86123 0
M  V30 1137 C 106.707 1.5042 -1.2597 0
M  V30 1138 O 105.832 2.08723 -0.571294 0
M  V30 1139 C 106.427 0.272879 -3.37699 0
M  V30 1140 C 104.986 0.702103 -3.69794 0
M  V30 1141 C 104.133 -0.167304 -2.76795 0
M  V30 1142 H 107.084 -0.558123 -1.48562 0
M  V30 1143 H 107.105 1.10128 -3.64214 0
M  V30 1144 H 106.617 -0.715307 -3.81451 0
M  V30 1145 H 104.718 1.6995 -3.31584 0
M  V30 1146 H 104.831 0.495604 -4.7653 0
M  V30 1147 H 103.195 0.359527 -2.5215 0
M  V30 1148 H 103.978 -1.15253 -3.23375 0
M  V30 1149 N 106.423 1.57458 -0.0668435 0
M  V30 1150 C 107.7 1.8469 0.644132 0
M  V30 1151 C 108.08 0.958343 1.88093 0
M  V30 1152 O 107.428 0.0233579 2.28488 0
M  V30 1153 C 107.638 3.34767 0.986509 0
M  V30 1154 C 108.986 4.02159 1.36212 0
M  V30 1155 O 110.01 3.39484 1.07839 0
M  V30 1156 O 108.869 5.12694 1.89227 0
M  V30 1157 H 105.963 0.762816 0.319437 0
M  V30 1158 H 108.509 1.6942 -0.0973986 0
M  V30 1159 H 107.281 3.91151 0.107883 0
M  V30 1160 H 106.904 3.55281 1.78497 0
M  V30 1161 N 107.901 -0.206675 1.56239 0
M  V30 1162 C 109.131 -0.943975 1.83773 0
M  V30 1163 C 109.539 -1.77841 0.645703 0
M  V30 1164 O 108.882 -1.79403 -0.395008 0
M  V30 1165 C 108.944 -1.899 3.05251 0
M  V30 1166 C 108.608 -1.24764 4.39639 0
M  V30 1167 C 109.605 -0.630216 5.16066 0
M  V30 1168 C 107.29 -1.25496 4.8637 0
M  V30 1169 C 109.284 -0.0287946 6.37393 0
M  V30 1170 C 106.971 -0.649698 6.07637 0
M  V30 1171 C 107.969 -0.0376845 6.8299 0
M  V30 1172 O 107.657 0.55812 8.0196 0
M  V30 1173 H 107.389 -0.281508 0.614597 0
M  V30 1174 H 109.943 -0.222458 2.04192 0
M  V30 1175 H 108.173 -2.6599 2.80689 0
M  V30 1176 H 109.862 -2.5031 3.1953 0
M  V30 1177 H 110.628 -0.616785 4.81062 0
M  V30 1178 H 106.507 -1.72072 4.27683 0
M  V30 1179 H 110.051 0.449518 6.9615 0
M  V30 1180 H 105.948 -0.660592 6.42111 0
M  V30 1181 H 106.716 0.453891 8.17241 0
M  V30 1182 N 109.379 -1.50304 -0.473955 0
M  V30 1183 C 110.342 -1.6841 -1.55469 0
M  V30 1184 C 111.342 -0.554905 -1.50922 0
M  V30 1185 O 112.532 -0.821882 -1.53593 0
M  V30 1186 C 109.664 -1.70667 -2.95102 0
M  V30 1187 H 110.857 -2.64828 -1.40733 0
M  V30 1188 H 108.41 -1.39742 -0.700132 0
M  V30 1189 H 109.145 -0.75932 -3.15285 0
M  V30 1190 H 108.93 -2.52698 -2.9981 0
M  V30 1191 H 110.42 -1.8664 -3.73571 0
M  V30 1192 N 110.857 0.726932 -1.39834 0
M  V30 1193 C 112.106 1.48214 -1.36805 0
M  V30 1194 C 112.419 1.95576 0.0305291 0
M  V30 1195 O 113.625 2.7088 0.183417 0
M  V30 1196 C 112.081 2.67854 -2.40379 0
M  V30 1197 C 111.689 2.27408 -3.85992 0
M  V30 1198 C 113.433 3.45641 -2.46439 0
M  V30 1199 C 111.34 3.43819 -4.81189 0
M  V30 1200 H 110.27 0.556606 -0.508631 0
M  V30 1201 H 112.921 0.792216 -1.65518 0
M  V30 1202 H 111.303 3.3896 -2.04749 0
M  V30 1203 H 112.477 1.63795 -4.30706 0
M  V30 1204 H 110.792 1.62692 -3.83302 0
M  V30 1205 H 113.389 4.32244 -3.14753 0
M  V30 1206 H 113.732 3.88669 -1.49139 0
M  V30 1207 H 114.265 2.8157 -2.81004 0
M  V30 1208 H 111.004 3.05834 -5.79781 0
M  V30 1209 H 110.524 4.06385 -4.41148 0
M  V30 1210 H 112.203 4.10043 -5.00474 0
M  V30 1211 N 112.336 1.25143 0.95797 0
M  V30 1212 C 113.266 1.07711 2.07173 0
M  V30 1213 C 114.247 -0.0128462 1.70095 0
M  V30 1214 O 115.432 0.156061 1.93572 0
M  V30 1215 C 112.562 0.691503 3.40346 0
M  V30 1216 C 111.516 1.73132 3.9142 0
M  V30 1217 C 110.842 1.20049 5.21049 0
M  V30 1218 C 112.142 3.1294 4.1817 0
M  V30 1219 H 113.836 2.00873 2.22014 0
M  V30 1220 H 111.382 0.967191 1.06684 0
M  V30 1221 H 113.335 0.556505 4.17709 0
M  V30 1222 H 112.059 -0.275819 3.25433 0
M  V30 1223 H 110.718 1.8547 3.16222 0
M  V30 1224 H 110.366 0.223499 5.02503 0
M  V30 1225 H 110.066 1.89545 5.56189 0
M  V30 1226 H 111.59 1.07782 6.01012 0
M  V30 1227 H 113.004 3.03775 4.86203 0
M  V30 1228 H 111.401 3.79875 4.64559 0
M  V30 1229 H 112.471 3.6025 3.24573 0
M  V30 1230 N 113.814 -1.1601 1.06675 0
M  V30 1231 C 114.777 -2.18724 0.685001 0
M  V30 1232 C 115.777 -1.58496 -0.271246 0
M  V30 1233 O 116.967 -1.74119 -0.0531156 0
M  V30 1234 C 114.099 -3.40899 0.00853648 0
M  V30 1235 H 115.292 -2.54011 1.59431 0
M  V30 1236 H 112.845 -1.30352 0.862441 0
M  V30 1237 H 113.58 -3.11173 -0.913337 0
M  V30 1238 H 113.365 -3.8587 0.696204 0
M  V30 1239 H 114.855 -4.16886 -0.24414 0
M  V30 1240 N 115.292 -0.849877 -1.32721 0
M  V30 1241 C 116.255 -0.296122 -2.27279 0
M  V30 1242 C 117.255 0.541458 -1.5141 0
M  V30 1243 O 118.445 0.353658 -1.70572 0
M  V30 1244 C 115.577 0.581579 -3.35902 0
M  V30 1245 H 116.77 -1.13064 -2.77771 0
M  V30 1246 H 114.323 -0.62383 -1.43311 0
M  V30 1247 H 115.058 1.43809 -2.9067 0
M  V30 1248 H 114.843 -0.0178814 -3.92096 0
M  V30 1249 H 116.333 0.961951 -4.0637 0
M  V30 1250 N 116.77 1.45427 -0.607355 0
M  V30 1251 C 118.186 1.57283 -0.270985 0
M  V30 1252 C 118.386 1.59875 1.22647 0
M  V30 1253 O 117.442 1.52893 2.00948 0
M  V30 1254 C 118.755 2.85566 -0.941952 0
M  V30 1255 C 120.303 2.9924 -0.917849 0
M  V30 1256 C 120.778 4.30293 -1.56882 0
M  V30 1257 N 122.269 4.37051 -1.5343 0
M  V30 1258 C 123.004 5.37123 -2.00715 0
M  V30 1259 N 122.5 6.43734 -2.56084 0
M  V30 1260 N 124.293 5.28479 -1.91484 0
M  V30 1261 H 116.444 1.41988 -1.57966 0
M  V30 1262 H 118.707 0.67885 -0.661715 0
M  V30 1263 H 118.413 2.8955 -1.99633 0
M  V30 1264 H 118.287 3.74322 -0.465096 0
M  V30 1265 H 120.674 2.94822 0.127984 0
M  V30 1266 H 120.755 2.11895 -1.43297 0
M  V30 1267 H 120.399 4.35469 -2.61398 0
M  V30 1268 H 120.329 5.16454 -1.02873 0
M  V30 1269 H 122.82 3.60615 -1.12982 0
M  V30 1270 H 123.133 7.16341 -2.89958 0
M  V30 1271 H 121.478 6.44485 -2.60122 0
M  V30 1272 H 124.669 4.44098 -1.47967 0
M  V30 1273 H 124.842 6.0632 -2.28648 0
M  V30 1274 N 118.248 0.346503 1.53744 0
M  V30 1275 C 119.497 -0.250122 2.00143 0
M  V30 1276 C 119.81 -1.51418 1.23822 0
M  V30 1277 O 121.016 -2.18823 1.60713 0
M  V30 1278 C 119.472 -0.496252 3.56462 0
M  V30 1279 C 119.08 0.752077 4.41642 0
M  V30 1280 C 120.824 -1.05157 4.11269 0
M  V30 1281 C 118.731 0.476583 5.89477 0
M  V30 1282 H 117.661 -0.0972409 0.747703 0
M  V30 1283 H 120.312 0.46229 1.77581 0
M  V30 1284 H 118.694 -1.26944 3.75102 0
M  V30 1285 H 119.868 1.5266 4.34778 0
M  V30 1286 H 118.183 1.22925 3.97842 0
M  V30 1287 H 120.78 -1.27269 5.19333 0
M  V30 1288 H 121.123 -2.00799 3.64672 0
M  V30 1289 H 121.656 -0.339019 3.96353 0
M  V30 1290 H 118.395 1.4028 6.40314 0
M  V30 1291 H 117.915 -0.259794 5.99237 0
M  V30 1292 H 119.594 0.0949315 6.4693 0
M  V30 1293 N 119.726 -1.57421 0.075193 0
M  V30 1294 C 120.689 -2.11791 -0.876203 0
M  V30 1295 C 121.689 -1.04268 -1.22412 0
M  V30 1296 O 122.879 -1.30242 -1.15684 0
M  V30 1297 C 120.011 -2.62207 -2.17854 0
M  V30 1298 H 121.204 -2.9716 -0.40444 0
M  V30 1299 H 118.757 -1.55333 -0.173557 0
M  V30 1300 H 119.492 -1.803 -2.6956 0
M  V30 1301 H 119.277 -3.40802 -1.93897 0
M  V30 1302 H 120.767 -3.04335 -2.85955 0
M  V30 1303 N 121.204 0.198386 -1.56346 0
M  V30 1304 C 122.45 0.920648 -1.80698 0
M  V30 1305 C 122.783 1.83045 -0.648697 0
M  V30 1306 O 122.058 1.91308 0.350925 0
M  V30 1307 C 122.341 1.73971 -3.15287 0
M  V30 1308 C 122.194 0.85485 -4.41602 0
M  V30 1309 C 123.513 2.71296 -3.46535 0
M  V30 1310 H 120.632 0.333261 -0.657348 0
M  V30 1311 H 123.274 0.188198 -1.89066 0
M  V30 1312 H 121.424 2.36416 -3.08285 0
M  V30 1313 H 123.096 0.245362 -4.60647 0
M  V30 1314 H 121.339 0.161398 -4.335 0
M  V30 1315 H 122.01 1.46286 -5.32264 0
M  V30 1316 H 124.486 2.18983 -3.53816 0
M  V30 1317 H 123.362 3.2569 -4.41834 0
M  V30 1318 H 123.623 3.5018 -2.69864 0
M  V30 1319 N 122.682 1.50554 0.465978 0
M  V30 1320 C 123.907 1.65838 1.24549 0
M  V30 1321 C 124.332 0.343486 1.84937 0
M  V30 1322 O 123.69 -0.69324 1.67523 0
M  V30 1323 C 123.738 2.75533 2.32624 0
M  V30 1324 O 122.842 2.37142 3.37398 0
M  V30 1325 H 122.183 0.553893 0.366194 0
M  V30 1326 H 124.713 1.96959 0.553927 0
M  V30 1327 H 124.723 2.98763 2.77857 0
M  V30 1328 H 123.398 3.70962 1.88043 0
M  V30 1329 H 121.975 2.24377 2.97841 0
M  V30 1330 N 124.16 -0.719506 1.40217 0
M  V30 1331 C 125.108 -1.85493 1.40339 0
M  V30 1332 C 126.102 -1.66995 0.284415 0
M  V30 1333 O 127.308 -1.74148 0.455252 0
M  V30 1334 H 123.683 -0.610857 0.438586 0
M  V30 1335 H 125.654 -1.82506 2.36081 0
M  V30 1336 C 124.403 -3.23321 1.27901 0
M  V30 1337 H 123.726 -3.38159 2.1328 0
M  V30 1338 H 125.166 -4.02914 1.32045 0
M  V30 1339 C 123.625 -3.36898 -0.0111355 0
M  V30 1340 O 124.155 -3.89674 -0.975538 0
M  V30 1341 N 122.361 -2.90492 -0.0793393 0
M  V30 1342 H 121.908 -2.47731 0.706183 0
M  V30 1343 H 121.866 -2.99955 -0.942038 0
M  V30 1344 N 125.638 -1.25649 -0.95132 0
M  V30 1345 C 126.568 -1.08808 -2.06599 0
M  V30 1346 C 127.549 0.00382547 -1.701 0
M  V30 1347 O 128.734 -0.166325 -1.93486 0
M  V30 1348 C 125.864 -0.709542 -3.39975 0
M  V30 1349 C 124.818 -1.75206 -3.90496 0
M  V30 1350 C 124.144 -1.22811 -5.20405 0
M  V30 1351 C 125.444 -3.15153 -4.16504 0
M  V30 1352 H 127.138 -2.02048 -2.20946 0
M  V30 1353 H 124.684 -0.972835 -1.06169 0
M  V30 1354 H 126.637 -0.578649 -4.17408 0
M  V30 1355 H 125.361 0.258556 -3.25575 0
M  V30 1356 H 124.02 -1.87145 -3.15234 0
M  V30 1357 H 123.668 -0.250145 -5.02378 0
M  V30 1358 H 123.368 -1.92492 -5.55176 0
M  V30 1359 H 124.892 -1.10968 -6.00432 0
M  V30 1360 H 126.306 -3.06349 -4.84586 0
M  V30 1361 H 124.703 -3.82333 -4.62538 0
M  V30 1362 H 125.773 -3.61966 -3.22658 0
M  V30 1363 N 127.117 1.15442 -1.07289 0
M  V30 1364 C 128.067 2.18164 -0.662467 0
M  V30 1365 C 129.051 1.57845 0.312074 0
M  V30 1366 O 130.243 1.76552 0.125905 0
M  V30 1367 C 127.372 3.43246 -0.0611295 0
M  V30 1368 C 126.458 4.1062 -1.06077 0
M  V30 1369 N 126.849 4.53491 -2.24008 0
M  V30 1370 C 125.147 4.36949 -0.893964 0
M  V30 1371 C 125.848 5.05731 -2.87422 0
M  V30 1372 N 124.824 4.99236 -2.15091 0
M  V30 1373 H 128.626 2.49038 -1.56068 0
M  V30 1374 H 126.14 1.32003 -0.945988 0
M  V30 1375 H 128.137 4.16145 0.250792 0
M  V30 1376 H 126.797 3.13854 0.832207 0
M  V30 1377 H 127.808 4.46898 -2.6173 0
M  V30 1378 H 124.485 4.17466 -0.0534693 0
M  V30 1379 H 125.875 5.48865 -3.87553 0
M  V30 1380 N 128.595 0.856903 1.32268 0
M  V30 1381 C 129.542 0.301172 2.28827 0
M  V30 1382 C 130.512 -0.593104 1.5515 0
M  V30 1383 O 131.697 -0.527537 1.83362 0
M  V30 1384 C 128.837 -0.502523 3.41422 0
M  V30 1385 C 127.95 0.417797 4.29975 0
M  V30 1386 C 127.085 -0.398749 5.29701 0
M  V30 1387 C 126.124 0.518827 6.09897 0
M  V30 1388 N 125.261 -0.260674 7.01616 0
M  V30 1389 H 130.101 1.12983 2.75751 0
M  V30 1390 H 127.638 0.568582 1.35667 0
M  V30 1391 H 129.596 -0.984141 4.05426 0
M  V30 1392 H 128.226 -1.29599 2.95642 0
M  V30 1393 H 127.278 1.01781 3.66531 0
M  V30 1394 H 128.59 1.12191 4.86019 0
M  V30 1395 H 127.744 -0.943435 5.9932 0
M  V30 1396 H 126.483 -1.13622 4.7428 0
M  V30 1397 H 125.488 1.07538 5.39181 0
M  V30 1398 H 126.713 1.25495 6.67404 0
M  V30 1399 H 124.659 -0.981198 6.4862 0
M  V30 1400 H 124.576 0.384364 7.55022 0
M  V30 1401 H 125.844 -0.787014 7.75517 0
M  V30 1402 N 130.073 -1.45103 0.615059 0
M  V30 1403 C 130.983 -2.34382 -0.101034 0
M  V30 1404 C 131.999 -1.51681 -0.852585 0
M  V30 1405 O 133.175 -1.8446 -0.808484 0
M  V30 1406 C 130.24 -3.29417 -1.08099 0
M  V30 1407 C 129.301 -4.28025 -0.330577 0
M  V30 1408 C 128.534 -5.1852 -1.26385 0
M  V30 1409 O 128.757 -5.12598 -2.50198 0
M  V30 1410 O 127.691 -5.97122 -0.756866 0
M  V30 1411 H 131.517 -2.97033 0.632855 0
M  V30 1412 H 129.102 -1.4461 0.375293 0
M  V30 1413 H 130.984 -3.87958 -1.6452 0
M  V30 1414 H 129.659 -2.69321 -1.79577 0
M  V30 1415 H 128.566 -3.73078 0.276283 0
M  V30 1416 H 129.899 -4.90997 0.343866 0
M  V30 1417 N 131.551 -0.354651 -1.53558 0
M  V30 1418 C 132.779 0.239515 -2.05509 0
M  V30 1419 C 133.194 1.4333 -1.2289 0
M  V30 1420 O 132.551 1.80538 -0.266899 0
M  V30 1421 C 132.602 0.643719 -3.55723 0
M  V30 1422 O 132.323 -0.502602 -4.35207 0
M  V30 1423 C 133.824 1.29743 -4.23889 0
M  V30 1424 H 131.044 0.0442697 -0.669538 0
M  V30 1425 H 133.588 -0.509856 -1.98042 0
M  V30 1426 H 131.743 1.34302 -3.63376 0
M  V30 1427 H 132.157 -0.178172 -5.24197 0
M  V30 1428 H 133.631 1.53091 -5.30346 0
M  V30 1429 H 134.108 2.25441 -3.76926 0
M  V30 1430 H 134.714 0.639865 -4.20459 0
M  V30 1431 N 133.029 1.57378 -0.0835403 0
M  V30 1432 C 133.976 2.13384 0.879539 0
M  V30 1433 C 134.946 1.04936 1.28754 0
M  V30 1434 O 136.131 1.32662 1.37133 0
M  V30 1435 C 133.271 2.70932 2.13752 0
M  V30 1436 C 132.384 3.93575 1.7811 0
M  V30 1437 C 131.519 4.39326 2.98607 0
M  V30 1438 C 130.558 5.54587 2.59037 0
M  V30 1439 N 129.695 5.95243 3.72331 0
M  V30 1440 H 134.535 2.9537 0.395076 0
M  V30 1441 H 132.072 1.45953 0.183349 0
M  V30 1442 H 134.03 3.02411 2.87408 0
M  V30 1443 H 132.66 1.91693 2.59718 0
M  V30 1444 H 131.712 3.68483 0.94469 0
M  V30 1445 H 133.024 4.77258 1.45005 0
M  V30 1446 H 132.178 4.72528 3.80529 0
M  V30 1447 H 130.917 3.5452 3.34913 0
M  V30 1448 H 129.922 5.21024 1.75539 0
M  V30 1449 H 131.147 6.41133 2.23887 0
M  V30 1450 H 129.093 5.13385 4.08378 0
M  V30 1451 H 129.01 6.73694 3.43034 0
M  V30 1452 H 130.278 6.33072 4.54797 0
M  V30 1453 N 134.507 -0.190092 1.56449 0
M  V30 1454 C 135.454 -1.23557 1.94942 0
M  V30 1455 C 136.424 -1.44972 0.810696 0
M  V30 1456 O 137.609 -1.58023 1.06927 0
M  V30 1457 C 134.749 -2.57416 2.2985 0
M  V30 1458 C 133.862 -2.43537 3.5681 0
M  V30 1459 C 132.997 -3.70134 3.81017 0
M  V30 1460 C 132.036 -3.51109 5.01387 0
M  V30 1461 N 131.173 -4.6973 5.21822 0
M  V30 1462 H 136.013 -0.900304 2.84075 0
M  V30 1463 H 133.55 -0.43318 1.40577 0
M  V30 1464 H 135.508 -3.35409 2.48106 0
M  V30 1465 H 134.138 -2.88975 1.43852 0
M  V30 1466 H 133.19 -1.56816 3.46573 0
M  V30 1467 H 134.502 -2.25415 4.4496 0
M  V30 1468 H 133.656 -4.56566 3.9954 0
M  V30 1469 H 132.395 -3.91215 2.91207 0
M  V30 1470 H 131.4 -2.63063 4.82782 0
M  V30 1471 H 132.625 -3.31468 5.9271 0
M  V30 1472 H 130.571 -4.91065 4.34961 0
M  V30 1473 H 130.488 -4.54452 6.0416 0
M  V30 1474 H 131.756 -5.57499 5.44808 0
M  V30 1475 N 135.985 -1.50799 -0.457987 0
M  V30 1476 C 137.231 -1.62683 -1.21088 0
M  V30 1477 C 137.564 -0.332268 -1.91336 0
M  V30 1478 O 136.839 0.667043 -1.82704 0
M  V30 1479 C 137.122 -2.81615 -2.24422 0
M  V30 1480 C 136.975 -4.20989 -1.58392 0
M  V30 1481 C 138.294 -2.96085 -3.2561 0
M  V30 1482 H 135.413 -0.592087 -0.438864 0
M  V30 1483 H 138.055 -1.83225 -0.50286 0
M  V30 1484 H 136.205 -2.64231 -2.84806 0
M  V30 1485 H 137.877 -4.49994 -1.01504 0
M  V30 1486 H 136.12 -4.24641 -0.886704 0
M  V30 1487 H 136.791 -5.0016 -2.33547 0
M  V30 1488 H 139.267 -3.12042 -2.75262 0
M  V30 1489 H 138.143 -3.80902 -3.95228 0
M  V30 1490 H 138.404 -2.0726 -3.90507 0
M  V30 1491 N 137.463 0.71206 -1.40597 0
M  V30 1492 C 138.71 1.47197 -1.39065 0
M  V30 1493 C 139.038 1.94499 0.00583891 0
M  V30 1494 O 138.293 1.68752 0.99102 0
M  V30 1495 C 138.592 2.71039 -2.32965 0
M  V30 1496 C 138.258 2.42484 -3.80148 0
M  V30 1497 C 136.92 2.34406 -4.20247 0
M  V30 1498 C 139.272 2.18598 -4.73143 0
M  V30 1499 C 136.6 2.00516 -5.51371 0
M  V30 1500 C 138.952 1.8622 -6.0457 0
M  V30 1501 C 137.616 1.76626 -6.43708 0
M  V30 1502 H 136.886 0.538634 -0.508876 0
M  V30 1503 H 139.533 0.815325 -1.73276 0
M  V30 1504 H 137.838 3.41558 -1.91951 0
M  V30 1505 H 139.535 3.29138 -2.29061 0
M  V30 1506 H 136.125 2.49659 -3.4838 0
M  V30 1507 H 140.309 2.23793 -4.42979 0
M  V30 1508 H 135.565 1.91628 -5.80593 0
M  V30 1509 H 139.739 1.66752 -6.76141 0
M  V30 1510 H 137.366 1.50133 -7.45228 0
M  V30 1511 N 138.941 1.26152 0.944643 0
M  V30 1512 C 140.166 1.14363 1.7302 0
M  V30 1513 C 140.591 -0.29772 1.85729 0
M  V30 1514 O 139.949 -1.2157 1.34501 0
M  V30 1515 C 139.997 1.81378 3.11664 0
M  V30 1516 O 139.101 1.10022 3.97453 0
M  V30 1517 H 138.442 0.398694 0.53098 0
M  V30 1518 H 140.972 1.66906 1.18337 0
M  V30 1519 H 140.982 1.88064 3.62072 0
M  V30 1520 H 139.657 2.86237 3.0173 0
M  V30 1521 H 138.234 1.11287 3.55907 0
M  V30 1522 N 140.419 -1.14872 1.07899 0
M  V30 1523 C 141.696 -1.81928 0.71845 0
M  V30 1524 C 142.076 -1.95417 -0.798455 0
M  V30 1525 O 141.424 -1.50997 -1.715 0
M  V30 1526 C 141.634 -3.17937 1.43935 0
M  V30 1527 C 142.982 -3.93501 1.59506 0
M  V30 1528 O 144.006 -3.27509 1.40058 0
M  V30 1529 O 142.865 -5.1183 1.91551 0
M  V30 1530 H 139.959 -0.78628 0.256305 0
M  V30 1531 H 142.505 -1.21934 1.18026 0
M  V30 1532 H 141.277 -3.0325 2.47295 0
M  V30 1533 H 140.9 -3.85619 0.968687 0
M  V30 1534 N 141.898 -0.863906 -1.31812 0
M  V30 1535 C 143.144 -0.472535 -1.97218 0
M  V30 1536 C 143.477 0.971394 -1.68159 0
M  V30 1537 O 142.752 1.68309 -0.974798 0
M  V30 1538 C 143.035 -0.723054 -3.52766 0
M  V30 1539 C 142.888 -2.21608 -3.91421 0
M  V30 1540 C 144.207 -0.185522 -4.39709 0
M  V30 1541 H 141.326 -0.173158 -0.71637 0
M  V30 1542 H 143.968 -1.08403 -1.56041 0
M  V30 1543 H 142.118 -0.202577 -3.87971 0
M  V30 1544 H 143.79 -2.80334 -3.66347 0
M  V30 1545 H 142.033 -2.691 -3.40246 0
M  V30 1546 H 142.704 -2.34203 -4.99853 0
M  V30 1547 H 145.18 -0.630726 -4.11292 0
M  V30 1548 H 144.056 -0.390306 -5.47511 0
M  V30 1549 H 144.317 0.912229 -4.32586 0
M  V30 1550 N 143.376 1.44774 -0.622745 0
M  V30 1551 C 144.309 2.27792 0.136329 0
M  V30 1552 C 145.287 1.38041 0.859264 0
M  V30 1553 O 146.471 1.67478 0.86506 0
M  V30 1554 C 143.598 3.16776 1.19878 0
M  V30 1555 C 142.644 4.22575 0.57731 0
M  V30 1556 S 143.477 5.31825 -0.626294 0
M  V30 1557 C 144.633 6.24377 0.436378 0
M  V30 1558 H 144.866 2.91824 -0.567967 0
M  V30 1559 H 142.399 1.48838 -0.410677 0
M  V30 1560 H 144.357 3.68596 1.80686 0
M  V30 1561 H 143.018 2.5198 1.87523 0
M  V30 1562 H 142.211 4.84818 1.37721 0
M  V30 1563 H 141.813 3.73974 0.0440439 0
M  V30 1564 H 144.105 6.64689 1.31128 0
M  V30 1565 H 145.048 7.07941 -0.150271 0
M  V30 1566 H 145.456 5.59381 0.758513 0
M  V30 1567 N 144.854 0.36279 1.53368 0
M  V30 1568 C 145.764 -0.492994 2.29362 0
M  V30 1569 C 146.78 -1.09507 1.35219 0
M  V30 1570 O 147.956 -1.10662 1.68273 0
M  V30 1571 C 145.021 -1.61855 3.066 0
M  V30 1572 C 144.082 -1.04429 4.16405 0
M  V30 1573 C 143.315 -2.11621 4.89951 0
M  V30 1574 O 143.538 -3.32684 4.63333 0
M  V30 1575 O 142.472 -1.74835 5.75948 0
M  V30 1576 H 146.298 0.125331 3.03441 0
M  V30 1577 H 143.883 0.127253 1.48857 0
M  V30 1578 H 145.765 -2.27302 3.54841 0
M  V30 1579 H 144.44 -2.22233 2.3536 0
M  V30 1580 H 143.347 -0.353819 3.72423 0
M  V30 1581 H 144.68 -0.485113 4.89804 0
M  V30 1582 N 146.332 -1.57332 0.0918853 0
M  V30 1583 C 147.609 -1.85691 -0.614668 0
M  V30 1584 C 147.989 -0.988146 -1.86545 0
M  V30 1585 O 147.337 -0.0597055 -2.28422 0
M  V30 1586 C 147.547 -3.36294 -0.933126 0
M  V30 1587 C 148.895 -4.04275 -1.29796 0
M  V30 1588 O 149.919 -3.41157 -1.02424 0
M  V30 1589 O 148.778 -5.1564 -1.81047 0
M  V30 1590 H 145.872 -0.767802 -0.307261 0
M  V30 1591 H 148.418 -1.69244 0.12434 0
M  V30 1592 H 147.19 -3.91273 -0.0456404 0
M  V30 1593 H 146.813 -3.58076 -1.72822 0
M  V30 1594 N 147.81 0.181792 -1.56548 0
M  V30 1595 C 148.74 1.22765 -1.98623 0
M  V30 1596 C 149.721 1.46747 -0.860189 0
M  V30 1597 O 150.906 1.58259 -1.12551 0
M  V30 1598 C 148.036 2.56894 -2.33715 0
M  V30 1599 C 146.99 2.475 -3.49182 0
M  V30 1600 C 146.316 3.86023 -3.69986 0
M  V30 1601 C 147.616 1.98866 -4.82959 0
M  V30 1602 H 149.31 0.877942 -2.86239 0
M  V30 1603 H 146.856 0.42088 -1.37712 0
M  V30 1604 H 148.809 3.30253 -2.61746 0
M  V30 1605 H 147.533 2.93632 -1.42997 0
M  V30 1606 H 146.192 1.76596 -3.21262 0
M  V30 1607 H 145.84 4.20136 -2.76576 0
M  V30 1608 H 145.54 3.80609 -4.47672 0
M  V30 1609 H 147.064 4.60984 -4.00407 0
M  V30 1610 H 148.478 2.61992 -5.09934 0
M  V30 1611 H 146.875 2.04424 -5.64208 0
M  V30 1612 H 147.945 0.942465 -4.75653 0
M  V30 1613 N 149.288 1.51039 0.449983 0
M  V30 1614 C 150.518 1.66627 1.22143 0
M  V30 1615 C 150.926 0.357776 1.85786 0
M  V30 1616 O 150.269 -0.672424 1.70951 0
M  V30 1617 C 150.331 2.71562 2.35573 0
M  V30 1618 C 149.995 4.14526 1.92399 0
M  V30 1619 C 150.992 4.99717 1.43453 0
M  V30 1620 C 148.677 4.60559 2.00475 0
M  V30 1621 C 150.671 6.28998 1.03155 0
M  V30 1622 C 148.358 5.8984 1.59788 0
M  V30 1623 C 149.356 6.73886 1.11208 0
M  V30 1624 O 149.044 8.0075 0.710935 0
M  V30 1625 H 148.776 0.562635 0.374724 0
M  V30 1626 H 151.33 1.98146 0.541036 0
M  V30 1627 H 149.56 2.3533 3.06849 0
M  V30 1628 H 151.249 2.76156 2.97478 0
M  V30 1629 H 152.015 4.65361 1.36618 0
M  V30 1630 H 147.894 3.95273 2.37235 0
M  V30 1631 H 151.438 6.9455 0.651663 0
M  V30 1632 H 147.335 6.23713 1.66289 0
M  V30 1633 H 148.103 8.142 0.837913 0
M  V30 1634 N 150.766 -0.704594 1.40972 0
M  V30 1635 C 151.714 -1.83994 1.42299 0
M  V30 1636 C 152.708 -1.66684 0.302111 0
M  V30 1637 O 153.914 -1.73655 0.473697 0
M  V30 1638 H 150.289 -0.606171 0.44504 0
M  V30 1639 H 152.26 -1.79992 2.38003 0
M  V30 1640 C 151.009 -3.21946 1.31323 0
M  V30 1641 H 150.332 -3.35878 2.16855 0
M  V30 1642 H 151.772 -4.01491 1.36311 0
M  V30 1643 C 150.231 -3.36891 0.0245977 0
M  V30 1644 O 150.761 -3.90687 -0.934153 0
M  V30 1645 N 148.967 -2.90559 -0.0485243 0
M  V30 1646 H 148.514 -2.46968 0.732419 0
M  V30 1647 H 148.472 -3.00937 -0.910171 0
M  V30 1648 N 152.244 -1.26651 -0.937939 0
M  V30 1649 C 153.474 -1.15006 -1.71631 0
M  V30 1650 C 153.882 0.297026 -1.86854 0
M  V30 1651 O 153.225 1.21493 -1.37786 0
M  V30 1652 C 153.287 -1.74984 -3.14039 0
M  V30 1653 C 152.951 -3.24103 -3.2219 0
M  V30 1654 C 153.948 -4.20877 -3.05219 0
M  V30 1655 C 151.633 -3.64625 -3.45476 0
M  V30 1656 C 153.627 -5.56151 -3.11408 0
M  V30 1657 C 151.314 -5.00032 -3.513 0
M  V30 1658 C 152.312 -5.95604 -3.34282 0
M  V30 1659 O 152 -7.28545 -3.3982 0
M  V30 1660 H 151.732 -0.401183 -0.544085 0
M  V30 1661 H 154.286 -1.67832 -1.18413 0
M  V30 1662 H 152.516 -1.16624 -3.68695 0
M  V30 1663 H 154.205 -1.58199 -3.73802 0
M  V30 1664 H 154.971 -3.90908 -2.87081 0
M  V30 1665 H 150.85 -2.90718 -3.57777 0
M  V30 1666 H 154.394 -6.30727 -2.98043 0
M  V30 1667 H 150.291 -5.29659 -3.68959 0
M  V30 1668 H 151.059 -7.3686 -3.56343 0
M  V30 1669 N 153.722 1.14298 -1.08507 0
M  V30 1670 C 154.971 1.84708 -0.810305 0
M  V30 1671 C 155.284 1.83903 0.666271 0
M  V30 1672 O 156.49 2.50112 1.05624 0
M  V30 1673 C 154.946 3.31572 -1.39957 0
M  V30 1674 C 154.554 3.40791 -2.90801 0
M  V30 1675 C 156.298 4.07087 -1.20334 0
M  V30 1676 C 154.205 4.81872 -3.4286 0
M  V30 1677 H 153.135 0.691985 -0.299454 0
M  V30 1678 H 155.786 1.28841 -1.30661 0
M  V30 1679 H 154.168 3.87183 -0.830976 0
M  V30 1680 H 155.342 2.95225 -3.53806 0
M  V30 1681 H 153.657 2.78732 -3.0935 0
M  V30 1682 H 156.254 5.11225 -1.56693 0
M  V30 1683 H 156.597 4.16054 -0.143237 0
M  V30 1684 H 157.13 3.57779 -1.73893 0
M  V30 1685 H 153.869 4.78094 -4.48449 0
M  V30 1686 H 153.389 5.27972 -2.84615 0
M  V30 1687 H 155.068 5.50765 -3.39509 0
M  V30 1688 N 155.201 0.870884 1.31352 0
M  V30 1689 C 156.149 0.316445 2.30437 0
M  V30 1690 C 157.143 -0.568965 1.59559 0
M  V30 1691 O 158.349 -0.454964 1.74155 0
M  V30 1692 H 154.724 0.0836521 0.747333 0
M  V30 1693 H 156.695 1.16606 2.74673 0
M  V30 1694 C 155.444 -0.46635 3.44558 0
M  V30 1695 H 154.767 0.205687 3.99271 0
M  V30 1696 H 156.207 -0.819614 4.16003 0
M  V30 1697 C 154.666 -1.65797 2.9328 0
M  V30 1698 O 155.196 -2.75728 2.92125 0
M  V30 1699 N 153.402 -1.49041 2.4947 0
M  V30 1700 H 152.949 -0.59612 2.50608 0
M  V30 1701 H 152.907 -2.28911 2.15516 0
M  V30 1702 N 156.679 -1.44442 0.630414 0
M  V30 1703 C 158.09 -1.85434 0.217063 0
M  V30 1704 C 158.441 -1.52748 -1.23136 0
M  V30 1705 O 157.566 -0.965205 -1.93682 0
M  V30 1706 C 158.161 -3.36581 0.387168 0
M  V30 1707 C 156.72 -3.76389 0.0283297 0
M  V30 1708 C 155.867 -2.68296 0.700889 0
M  V30 1709 H 158.818 -1.34919 0.83562 0
M  V30 1710 H 158.839 -3.78657 -0.374086 0
M  V30 1711 H 158.351 -3.60339 1.44144 0
M  V30 1712 H 156.452 -3.58246 -1.02423 0
M  V30 1713 H 156.565 -4.77095 0.437892 0
M  V30 1714 H 154.929 -2.54335 0.136267 0
M  V30 1715 H 155.712 -2.94887 1.75774 0
M  V30 1716 N 158.157 -0.370918 -1.53173 0
M  V30 1717 C 159.107 0.489588 -2.22681 0
M  V30 1718 C 160.091 1.04442 -1.22395 0
M  V30 1719 O 161.283 0.973578 -1.47819 0
M  V30 1720 C 158.412 1.626 -3.02351 0
M  V30 1721 C 157.498 1.08379 -4.10018 0
M  V30 1722 N 157.889 0.265004 -5.05105 0
M  V30 1723 C 156.187 1.35809 -4.2482 0
M  V30 1724 C 156.888 -0.0324755 -5.81691 0
M  V30 1725 N 155.864 0.566581 -5.40639 0
M  V30 1726 H 159.666 -0.142729 -2.93553 0
M  V30 1727 H 157.18 -0.179221 -1.61408 0
M  V30 1728 H 159.177 2.2547 -3.50669 0
M  V30 1729 H 157.837 2.26132 -2.33011 0
M  V30 1730 H 158.848 -0.0962352 -5.17811 0
M  V30 1731 H 155.525 1.9958 -3.66707 0
M  V30 1732 H 156.915 -0.69473 -6.68299 0
M  V30 1733 N 159.635 1.57281 -0.100228 0
M  V30 1734 C 160.583 2.15542 0.874328 0
M  V30 1735 C 161.577 1.09962 1.28859 0
M  V30 1736 O 162.783 1.28298 1.26252 0
M  V30 1737 H 159.158 0.689567 0.300003 0
M  V30 1738 H 161.129 2.96241 0.35829 0
M  V30 1739 C 159.878 2.75454 2.1218 0
M  V30 1740 H 159.201 3.56384 1.81193 0
M  V30 1741 H 160.641 3.19781 2.78417 0
M  V30 1742 C 159.1 1.71602 2.89921 0
M  V30 1743 O 159.63 1.15804 3.84646 0
M  V30 1744 N 157.836 1.41975 2.53558 0
M  V30 1745 H 157.383 1.87539 1.76598 0
M  V30 1746 H 157.341 0.727274 3.05873 0
M  V30 1747 N 161.113 -0.173488 1.56642 0
M  V30 1748 C 162.361 -0.888706 1.81512 0
M  V30 1749 C 162.682 -1.82875 0.676872 0
M  V30 1750 O 161.952 -1.93536 -0.303414 0
M  V30 1751 H 160.532 -0.331164 0.669582 0
M  V30 1752 H 163.194 -0.173823 1.94123 0
M  V30 1753 H 162.29 -1.46691 2.75478 0
M  V30 1754 N 162.591 -1.51276 -0.441967 0
M  V30 1755 C 163.538 -1.72256 -1.53612 0
M  V30 1756 C 164.508 -0.564164 -1.56225 0
M  V30 1757 O 165.693 -0.798074 -1.73307 0
M  V30 1758 C 162.833 -1.84932 -2.91366 0
M  V30 1759 C 161.946 -3.12459 -2.98317 0
M  V30 1760 C 161.081 -3.15758 -4.27166 0
M  V30 1761 C 160.12 -4.37619 -4.27967 0
M  V30 1762 N 159.257 -4.38493 -5.48333 0
M  V30 1763 H 164.097 -2.65654 -1.35026 0
M  V30 1764 H 161.634 -1.31662 -0.656009 0
M  V30 1765 H 163.592 -1.90263 -3.7129 0
M  V30 1766 H 162.222 -0.949461 -3.08521 0
M  V30 1767 H 161.274 -3.1646 -2.11086 0
M  V30 1768 H 162.586 -4.02382 -2.94771 0
M  V30 1769 H 161.74 -3.19979 -5.15459 0
M  V30 1770 H 160.479 -2.23715 -4.33362 0
M  V30 1771 H 159.484 -4.33579 -3.38067 0
M  V30 1772 H 160.709 -5.30921 -4.23438 0
M  V30 1773 H 158.655 -3.49318 -5.55259 0
M  V30 1774 H 158.572 -5.22219 -5.46647 0
M  V30 1775 H 159.84 -4.469 -6.38671 0
M  V30 1776 N 164.069 0.697108 -1.41344 0
M  V30 1777 C 165.019 1.80313 -1.39539 0
M  V30 1778 C 166.003 1.58618 -0.270001 0
M  V30 1779 O 167.195 1.69477 -0.510551 0
M  V30 1780 C 164.324 3.18606 -1.27848 0
M  V30 1781 C 163.41 3.46001 -2.45244 0
M  V30 1782 N 163.801 3.44103 -3.70711 0
M  V30 1783 C 162.099 3.76542 -2.39023 0
M  V30 1784 C 162.8 3.7036 -4.48563 0
M  V30 1785 N 161.776 3.90027 -3.78655 0
M  V30 1786 H 165.578 1.77207 -2.34468 0
M  V30 1787 H 163.092 0.897031 -1.35378 0
M  V30 1788 H 165.089 3.97833 -1.24637 0
M  V30 1789 H 163.749 3.22925 -0.339032 0
M  V30 1790 H 164.76 3.2452 -4.03618 0
M  V30 1791 H 161.437 3.88241 -1.53542 0
M  V30 1792 H 162.827 3.75042 -5.57488 0
M  V30 1793 N 165.547 1.27147 0.931209 0
M  V30 1794 C 166.772 1.16191 1.71797 0
M  V30 1795 C 167.197 -0.278004 1.86034 0
M  V30 1796 O 166.555 -1.20137 1.35782 0
M  V30 1797 C 166.603 1.84673 3.09723 0
M  V30 1798 O 165.707 1.14231 3.96264 0
M  V30 1799 H 165.048 0.404303 0.526721 0
M  V30 1800 H 167.578 1.68152 1.1656 0
M  V30 1801 H 167.588 1.91893 3.60057 0
M  V30 1802 H 166.263 2.89421 2.98677 0
M  V30 1803 H 164.84 1.15056 3.54706 0
M  V30 1804 N 167.025 -1.13721 1.09112 0
M  V30 1805 C 168.436 -1.6648 0.845068 0
M  V30 1806 C 168.787 -1.85911 -0.62701 0
M  V30 1807 O 167.912 -1.57556 -1.48341 0
M  V30 1808 C 168.507 -3.02413 1.52748 0
M  V30 1809 C 167.066 -3.52176 1.32849 0
M  V30 1810 C 166.213 -2.27492 1.58564 0
M  V30 1811 H 169.164 -0.976872 1.25072 0
M  V30 1812 H 169.185 -3.68223 0.958752 0
M  V30 1813 H 168.697 -2.88238 2.59885 0
M  V30 1814 H 166.798 -3.7156 0.278137 0
M  V30 1815 H 166.911 -4.32499 2.0611 0
M  V30 1816 H 165.275 -2.33923 1.00758 0
M  V30 1817 H 166.058 -2.15886 2.66924 0
M  V30 1818 N 168.503 -0.877838 -1.30888 0
M  V30 1819 C 169.436 -0.283995 -2.26426 0
M  V30 1820 C 170.414 0.591361 -1.51465 0
M  V30 1821 O 171.598 0.54304 -1.80509 0
M  V30 1822 C 168.725 0.597129 -3.33395 0
M  V30 1823 C 167.771 -0.207937 -4.25993 0
M  V30 1824 S 168.604 -1.59158 -5.11301 0
M  V30 1825 C 169.76 -0.716791 -6.21782 0
M  V30 1826 H 169.993 -1.09383 -2.76446 0
M  V30 1827 H 167.526 -0.676828 -1.38775 0
M  V30 1828 H 169.484 1.09978 -3.95493 0
M  V30 1829 H 168.145 1.38099 -2.82113 0
M  V30 1830 H 167.338 0.464163 -5.01858 0
M  V30 1831 H 166.94 -0.642963 -3.68432 0
M  V30 1832 H 169.232 0.0692833 -6.77465 0
M  V30 1833 H 170.175 -1.44682 -6.93161 0
M  V30 1834 H 170.583 -0.280855 -5.63801 0
M  V30 1835 N 169.982 1.44106 -0.638065 0
M  V30 1836 C 171.228 2.02277 -0.145546 0
M  V30 1837 C 171.561 1.50125 1.23191 0
M  V30 1838 O 170.836 0.688133 1.8192 0
M  V30 1839 C 171.119 3.59829 -0.139791 0
M  V30 1840 C 170.972 4.22247 -1.55008 0
M  V30 1841 C 172.291 4.36873 0.531966 0
M  V30 1842 H 169.41 0.734992 -0.0543632 0
M  V30 1843 H 172.052 1.71592 -0.815863 0
M  V30 1844 H 170.202 3.86102 0.431007 0
M  V30 1845 H 171.874 4.07057 -2.1703 0
M  V30 1846 H 170.117 3.79476 -2.10191 0
M  V30 1847 H 170.788 5.31284 -1.49804 0
M  V30 1848 H 173.264 4.16074 0.0464781 0
M  V30 1849 H 172.14 5.4657 0.505206 0
M  V30 1850 H 172.401 4.11995 1.60352 0
M  V30 1851 N 171.46 0.379036 1.52974 0
M  V30 1852 C 172.423 -0.448865 2.24762 0
M  V30 1853 C 173.423 -0.998689 1.26027 0
M  V30 1854 O 174.613 -0.882313 1.50203 0
M  V30 1855 C 171.745 -1.62872 2.99476 0
M  V30 1856 H 172.938 0.179491 2.99362 0
M  V30 1857 H 170.491 0.13096 1.5575 0
M  V30 1858 H 171.226 -2.29479 2.29151 0
M  V30 1859 H 171.011 -1.24128 3.71934 0
M  V30 1860 H 172.501 -2.2151 3.5401 0
M  V30 1861 N 172.938 -1.57226 0.108567 0
M  V30 1862 C 173.885 -2.14756 -0.845481 0
M  V30 1863 C 174.855 -1.06971 -1.27068 0
M  V30 1864 O 176.04 -1.34827 -1.35005 0
M  V30 1865 C 173.18 -2.74298 -2.09415 0
M  V30 1866 C 172.293 -3.96358 -1.71826 0
M  V30 1867 C 171.428 -4.44021 -2.9158 0
M  V30 1868 C 170.467 -5.58637 -2.50181 0
M  V30 1869 N 169.604 -6.01091 -3.62814 0
M  V30 1870 H 174.444 -2.95961 -0.348035 0
M  V30 1871 H 171.981 -1.46226 -0.160106 0
M  V30 1872 H 173.939 -3.06945 -2.82561 0
M  V30 1873 H 172.569 -1.95801 -2.56636 0
M  V30 1874 H 171.621 -3.69939 -0.885947 0
M  V30 1875 H 172.933 -4.79504 -1.37394 0
M  V30 1876 H 172.087 -4.78522 -3.72963 0
M  V30 1877 H 170.826 -3.59803 -3.29231 0
M  V30 1878 H 169.831 -5.23751 -1.67228 0
M  V30 1879 H 171.056 -6.44613 -2.13659 0
M  V30 1880 H 169.002 -5.19817 -4.00158 0
M  V30 1881 H 168.919 -6.79066 -3.32273 0
M  V30 1882 H 170.187 -6.40227 -4.44668 0
M  V30 1883 N 174.416 0.165178 -1.56732 0
M  V30 1884 C 175.641 0.900253 -1.86843 0
M  V30 1885 C 176.066 1.74766 -0.695596 0
M  V30 1886 O 175.424 1.77786 0.35522 0
M  V30 1887 C 175.472 1.74777 -3.15413 0
M  V30 1888 O 174.576 2.85007 -2.98068 0
M  V30 1889 H 173.917 0.251832 -0.614391 0
M  V30 1890 H 176.447 0.161468 -2.03962 0
M  V30 1891 H 176.457 2.14646 -3.46974 0
M  V30 1892 H 175.132 1.12537 -4.00385 0
M  V30 1893 H 173.709 2.48676 -2.77875 0
M  V30 1894 N 175.894 1.51508 0.433938 0
M  V30 1895 C 177.122 1.68157 1.20543 0
M  V30 1896 C 177.537 0.380362 1.84929 0
M  V30 1897 O 176.894 -0.641446 1.70856 0
M  V30 1898 C 176.945 2.79965 2.28696 0
M  V30 1899 O 176.666 4.05045 1.66943 0
M  V30 1900 C 178.167 3.07912 3.18912 0
M  V30 1901 H 175.387 0.56421 0.363191 0
M  V30 1902 H 177.931 1.97941 0.513754 0
M  V30 1903 H 176.086 2.5277 2.93574 0
M  V30 1904 H 176.5 4.67165 2.38448 0
M  V30 1905 H 177.974 3.89719 3.90926 0
M  V30 1906 H 178.451 2.20456 3.79863 0
M  V30 1907 H 179.057 3.36779 2.59731 0
M  V30 1908 N 177.372 -0.689602 1.41712 0
M  V30 1909 C 178.302 -1.81577 1.46806 0
M  V30 1910 C 179.283 -1.66945 0.326105 0
M  V30 1911 O 180.468 -1.86588 0.538377 0
M  V30 1912 C 177.598 -3.19762 1.35535 0
M  V30 1913 C 176.552 -3.49107 2.47605 0
M  V30 1914 C 175.878 -4.86711 2.21397 0
M  V30 1915 C 177.178 -3.47483 3.89939 0
M  V30 1916 H 178.872 -1.7757 2.41058 0
M  V30 1917 H 176.418 -0.852887 1.16025 0
M  V30 1918 H 178.371 -3.98263 1.3771 0
M  V30 1919 H 177.095 -3.24409 0.377708 0
M  V30 1920 H 175.754 -2.72959 2.44722 0
M  V30 1921 H 175.402 -4.8799 1.21961 0
M  V30 1922 H 175.102 -5.0731 2.96497 0
M  V30 1923 H 176.626 -5.67515 2.25297 0
M  V30 1924 H 178.04 -4.1598 3.94505 0
M  V30 1925 H 176.437 -3.79615 4.64771 0
M  V30 1926 H 177.507 -2.46341 4.17665 0
M  V30 1927 N 178.85 -1.27639 -0.924453 0
M  V30 1928 C 180.127 -1.04887 -1.651 0
M  V30 1929 C 180.507 0.415327 -2.06974 0
M  V30 1930 O 179.855 1.39923 -1.80648 0
M  V30 1931 C 180.065 -2.01348 -2.85061 0
M  V30 1932 C 181.413 -2.30899 -3.56329 0
M  V30 1933 O 182.437 -1.99348 -2.95193 0
M  V30 1934 O 181.296 -2.84699 -4.66485 0
M  V30 1935 H 178.39 -0.400083 -0.723784 0
M  V30 1936 H 180.936 -1.38916 -0.974703 0
M  V30 1937 H 179.708 -3.0008 -2.51133 0
M  V30 1938 H 179.331 -1.679 -3.6041 0
M  V30 1939 N 180.328 1.1314 -1.09713 0
M  V30 1940 C 181.577 1.83838 -0.829851 0
M  V30 1941 C 181.89 1.84599 0.646728 0
M  V30 1942 O 183.096 2.51218 1.02965 0
M  V30 1943 C 181.552 3.30069 -1.43466 0
M  V30 1944 C 181.16 3.37688 -2.94399 0
M  V30 1945 C 182.904 4.05788 -1.24645 0
M  V30 1946 C 180.811 4.78209 -3.47952 0
M  V30 1947 H 179.741 0.68877 -0.306777 0
M  V30 1948 H 182.392 1.27448 -1.3202 0
M  V30 1949 H 180.774 3.8628 -0.871996 0
M  V30 1950 H 181.948 2.91456 -3.56918 0
M  V30 1951 H 180.263 2.75436 -3.12289 0
M  V30 1952 H 182.86 5.09535 -1.62107 0
M  V30 1953 H 183.203 4.15878 -0.187357 0
M  V30 1954 H 183.736 3.55915 -1.77678 0
M  V30 1955 H 180.475 4.73311 -4.53495 0
M  V30 1956 H 179.995 5.24924 -2.90198 0
M  V30 1957 H 181.674 5.47133 -3.45332 0
M  V30 1958 N 181.806 0.884767 1.30421 0
M  V30 1959 C 183.052 0.503851 1.96441 0
M  V30 1960 C 183.385 -0.944518 1.69684 0
M  V30 1961 O 182.66 -1.66737 1.00145 0
M  V30 1962 C 182.943 0.779085 3.51571 0
M  V30 1963 C 182.796 2.27807 3.87846 0
M  V30 1964 C 184.115 0.255452 4.39358 0
M  V30 1965 H 181.234 0.184533 0.713524 0
M  V30 1966 H 183.876 1.10872 1.54297 0
M  V30 1967 H 182.026 0.264274 3.876 0
M  V30 1968 H 183.698 2.86127 3.61841 0
M  V30 1969 H 181.941 2.74479 3.35922 0
M  V30 1970 H 182.612 2.42125 4.96064 0
M  V30 1971 H 185.088 0.696079 4.10236 0
M  V30 1972 H 183.964 0.477361 5.4682 0
M  V30 1973 H 184.225 -0.843293 4.33983 0
M  V30 1974 N 183.284 -1.43765 0.645699 0
M  V30 1975 C 184.214 -2.33471 -0.0370477 0
M  V30 1976 C 185.195 -1.49042 -0.819779 0
M  V30 1977 O 186.38 -1.77726 -0.782758 0
M  V30 1978 C 183.51 -3.32311 -1.0093 0
M  V30 1979 C 182.464 -4.2667 -0.337201 0
M  V30 1980 C 181.79 -5.1549 -1.42037 0
M  V30 1981 C 183.09 -5.16657 0.765706 0
M  V30 1982 H 184.784 -2.90809 0.712069 0
M  V30 1983 H 182.33 -1.39834 0.343876 0
M  V30 1984 H 184.283 -3.9396 -1.49578 0
M  V30 1985 H 183.007 -2.73213 -1.78948 0
M  V30 1986 H 181.666 -3.66374 0.128771 0
M  V30 1987 H 181.314 -4.52735 -2.1918 0
M  V30 1988 H 181.014 -5.79438 -0.975966 0
M  V30 1989 H 182.538 -5.80012 -1.90838 0
M  V30 1990 H 183.952 -5.72158 0.361702 0
M  V30 1991 H 182.349 -5.89286 1.13413 0
M  V30 1992 H 183.419 -4.56796 1.62683 0
M  V30 1993 N 184.763 -0.387143 -1.52771 0
M  V30 1994 C 185.726 0.436939 -2.24997 0
M  V30 1995 C 186.726 0.991991 -1.26555 0
M  V30 1996 O 187.916 0.874335 -1.50669 0
M  V30 1997 C 185.048 1.61281 -3.00335 0
M  V30 1998 H 186.241 -0.195365 -2.99263 0
M  V30 1999 H 183.794 -0.139218 -1.55679 0
M  V30 2000 H 184.529 2.2826 -2.30364 0
M  V30 2001 H 184.314 1.22154 -3.72587 0
M  V30 2002 H 185.804 2.19629 -3.5518 0
M  V30 2003 N 186.241 1.57166 -0.116904 0
M  V30 2004 C 187.189 2.16457 0.851418 0
M  V30 2005 C 188.183 1.11323 1.27686 0
M  V30 2006 O 189.389 1.2963 1.24884 0
M  V30 2007 H 185.764 0.69271 0.292672 0
M  V30 2008 H 187.735 2.96605 0.32685 0
M  V30 2009 C 186.484 2.77689 2.09246 0
M  V30 2010 H 185.807 3.58285 1.77402 0
M  V30 2011 H 187.247 3.22716 2.7501 0
M  V30 2012 C 185.706 1.74667 2.88085 0
M  V30 2013 O 186.236 1.19877 3.83396 0
M  V30 2014 N 184.442 1.44656 2.52038 0
M  V30 2015 H 183.989 1.89402 1.74599 0
M  V30 2016 H 183.947 0.759675 3.05084 0
M  V30 2017 N 187.719 -0.156864 1.56817 0
M  V30 2018 C 188.666 -1.19394 1.97519 0
M  V30 2019 C 189.636 -1.4322 0.841265 0
M  V30 2020 O 190.821 -1.55719 1.10255 0
M  V30 2021 C 187.961 -2.52483 2.35258 0
M  V30 2022 C 187.074 -2.35914 3.61896 0
M  V30 2023 C 186.209 -3.61969 3.88782 0
M  V30 2024 C 185.248 -3.40395 5.08722 0
M  V30 2025 N 184.385 -4.58556 5.31668 0
M  V30 2026 H 189.225 -0.839845 2.85921 0
M  V30 2027 H 186.762 -0.403264 1.41464 0
M  V30 2028 H 188.72 -3.30071 2.55165 0
M  V30 2029 H 187.35 -2.85859 1.49949 0
M  V30 2030 H 186.402 -1.49429 3.49821 0
M  V30 2031 H 187.714 -2.15926 4.49641 0
M  V30 2032 H 186.868 -4.47989 4.09135 0
M  V30 2033 H 185.607 -3.84951 2.9944 0
M  V30 2034 H 184.612 -2.52763 4.88253 0
M  V30 2035 H 185.837 -3.18822 5.99608 0
M  V30 2036 H 183.783 -4.81729 4.45279 0
M  V30 2037 H 183.7 -4.41535 6.13664 0
M  V30 2038 H 184.968 -5.45817 5.5651 0
M  V30 2039 N 189.197 -1.51736 -0.425897 0
M  V30 2040 C 190.474 -1.55519 -1.1863 0
M  V30 2041 C 190.854 -0.326219 -2.08564 0
M  V30 2042 O 190.202 0.688012 -2.17896 0
M  V30 2043 C 190.412 -2.87521 -1.9782 0
M  V30 2044 C 191.76 -3.39899 -2.54468 0
M  V30 2045 O 192.784 -2.89148 -2.08019 0
M  V30 2046 O 191.643 -4.2848 -3.39215 0
M  V30 2047 H 188.737 -0.625739 -0.540721 0
M  V30 2048 H 191.283 -1.64055 -0.434038 0
M  V30 2049 H 190.055 -3.68422 -1.31836 0
M  V30 2050 H 189.678 -2.822 -2.80088 0
M  V30 2051 N 190.675 0.682077 -1.42076 0
M  V30 2052 C 192.091 0.994324 -1.24841 0
M  V30 2053 C 192.291 2.0096 -0.147389 0
M  V30 2054 O 191.347 2.47822 0.483782 0
M  V30 2055 C 192.66 1.50607 -2.60265 0
M  V30 2056 C 194.208 1.62421 -2.6756 0
M  V30 2057 C 194.683 2.16994 -4.03333 0
M  V30 2058 N 196.174 2.24337 -4.0525 0
M  V30 2059 C 196.909 2.67621 -5.07116 0
M  V30 2060 N 196.405 3.1041 -6.19368 0
M  V30 2061 N 198.198 2.67305 -4.94474 0
M  V30 2062 H 190.349 0.00973908 -2.12398 0
M  V30 2063 H 192.612 0.0668593 -0.945639 0
M  V30 2064 H 192.318 0.834583 -3.41654 0
M  V30 2065 H 192.192 2.48602 -2.83684 0
M  V30 2066 H 194.579 2.28678 -1.86521 0
M  V30 2067 H 194.66 0.629352 -2.47937 0
M  V30 2068 H 194.304 1.51349 -4.84826 0
M  V30 2069 H 194.234 3.17258 -4.20304 0
M  V30 2070 H 196.725 1.94158 -3.24209 0
M  V30 2071 H 197.038 3.42103 -6.92954 0
M  V30 2072 H 195.383 3.08286 -6.22884 0
M  V30 2073 H 198.574 2.33233 -4.05857 0
M  V30 2074 H 198.747 3.00718 -5.73997 0
M  V30 2075 N 192.153 1.28127 0.917671 0
M  V30 2076 C 193.083 1.14248 2.03641 0
M  V30 2077 C 194.064 0.0412748 1.7005 0
M  V30 2078 O 195.249 0.217566 1.92977 0
M  V30 2079 C 192.379 0.799431 3.37974 0
M  V30 2080 C 191.333 1.85497 3.85713 0
M  V30 2081 C 190.659 1.36565 5.16966 0
M  V30 2082 C 191.959 3.26085 4.08002 0
M  V30 2083 H 193.653 2.07835 2.15511 0
M  V30 2084 H 191.199 1.00064 1.03553 0
M  V30 2085 H 193.152 0.689114 4.15727 0
M  V30 2086 H 191.876 -0.172145 3.26146 0
M  V30 2087 H 190.535 1.95437 3.10161 0
M  V30 2088 H 190.183 0.383253 5.01538 0
M  V30 2089 H 189.883 2.07143 5.49878 0
M  V30 2090 H 191.407 1.26848 5.97279 0
M  V30 2091 H 192.821 3.19089 4.76293 0
M  V30 2092 H 191.218 3.94462 4.52238 0
M  V30 2093 H 192.288 3.70394 3.12948 0
M  V30 2094 N 193.631 -1.12557 1.10312 0
M  V30 2095 C 194.579 -2.20325 0.745629 0
M  V30 2096 C 195.573 -1.67429 -0.25763 0
M  V30 2097 O 196.779 -1.79612 -0.118132 0
M  V30 2098 H 193.154 -0.718118 0.223182 0
M  V30 2099 H 195.125 -2.47733 1.66346 0
M  V30 2100 C 193.874 -3.47168 0.192262 0
M  V30 2101 H 193.197 -3.88215 0.955475 0
M  V30 2102 H 194.637 -4.23995 -0.0198274 0
M  V30 2103 C 193.096 -3.19298 -1.07472 0
M  V30 2104 O 193.626 -3.3891 -2.15645 0
M  V30 2105 N 191.832 -2.73113 -0.992847 0
M  V30 2106 H 191.379 -2.57354 -0.112474 0
M  V30 2107 H 191.337 -2.54842 -1.84127 0
M  V30 2108 N 195.109 -0.891671 -1.2995 0
M  V30 2109 C 196.334 -0.527932 -2.00568 0
M  V30 2110 C 196.759 0.877969 -1.66353 0
M  V30 2111 O 196.117 1.58301 -0.883762 0
M  V30 2112 C 196.165 -0.717745 -3.53385 0
M  V30 2113 O 195.269 0.233376 -4.11739 0
M  V30 2114 H 194.61 -0.20722 -0.630837 0
M  V30 2115 H 197.14 -1.20105 -1.65638 0
M  V30 2116 H 197.15 -0.619307 -4.03272 0
M  V30 2117 H 195.825 -1.74276 -3.77625 0
M  V30 2118 H 194.402 0.0880706 -3.72796 0
M  V30 2119 N 196.587 1.43421 -0.653314 0
M  V30 2120 C 197.55 2.29182 0.0287951 0
M  V30 2121 C 198.55 1.42213 0.750465 0
M  V30 2122 O 199.74 1.63843 0.591701 0
M  V30 2123 C 196.872 3.24278 1.05151 0
M  V30 2124 H 198.065 2.90985 -0.725786 0
M  V30 2125 H 195.618 1.50702 -0.414545 0
M  V30 2126 H 196.353 2.6737 1.83532 0
M  V30 2127 H 196.138 3.88396 0.537687 0
M  V30 2128 H 197.628 3.88647 1.52786 0
M  V30 2129 N 198.065 0.39524 1.52563 0
M  V30 2130 C 199.314 -0.186321 2.00838 0
M  V30 2131 C 199.627 -1.47402 1.28577 0
M  V30 2132 O 200.833 -2.13599 1.67593 0
M  V30 2133 C 199.289 -0.382595 3.57861 0
M  V30 2134 C 198.897 0.892202 4.39026 0
M  V30 2135 C 200.641 -0.9202 4.14406 0
M  V30 2136 C 198.548 0.66388 5.87662 0
M  V30 2137 H 197.478 -0.0734041 0.750418 0
M  V30 2138 H 200.129 0.518552 1.76021 0
M  V30 2139 H 198.511 -1.14946 3.7895 0
M  V30 2140 H 199.685 1.66414 4.29701 0
M  V30 2141 H 198 1.35519 3.9373 0
M  V30 2142 H 200.597 -1.10683 5.23119 0
M  V30 2143 H 200.94 -1.89096 3.70875 0
M  V30 2144 H 201.473 -0.212751 3.97231 0
M  V30 2145 H 198.212 1.6058 6.35527 0
M  V30 2146 H 197.732 -0.0690193 5.9976 0
M  V30 2147 H 199.411 0.300699 6.46301 0
M  V30 2148 N 199.544 -1.57102 0.125237 0
M  V30 2149 C 200.793 -1.94582 -0.531095 0
M  V30 2150 C 201.106 -1.01126 -1.6743 0
M  V30 2151 O 202.312 -1.28097 -2.39381 0
M  V30 2152 C 200.768 -3.45839 -0.996164 0
M  V30 2153 C 200.376 -4.47842 0.118926 0
M  V30 2154 C 202.12 -3.92227 -1.62352 0
M  V30 2155 C 200.027 -5.90284 -0.363192 0
M  V30 2156 H 198.957 -0.726391 -0.20217 0
M  V30 2157 H 201.608 -1.82339 0.206092 0
M  V30 2158 H 199.99 -3.53338 -1.78796 0
M  V30 2159 H 201.164 -4.52018 0.895358 0
M  V30 2160 H 199.479 -4.11243 0.653324 0
M  V30 2161 H 202.076 -4.96069 -1.99548 0
M  V30 2162 H 202.419 -3.32552 -2.50429 0
M  V30 2163 H 202.952 -3.87554 -0.897019 0
M  V30 2164 H 199.691 -6.53728 0.481679 0
M  V30 2165 H 199.211 -5.89515 -1.10597 0
M  V30 2166 H 200.89 -6.41752 -0.822377 0
M  V30 2167 N 201.022 0.148545 -1.56898 0
M  V30 2168 C 202.252 0.875118 -1.8715 0
M  V30 2169 C 202.66 1.75322 -0.711262 0
M  V30 2170 O 202.003 1.80745 0.328151 0
M  V30 2171 C 202.065 1.7844 -3.12089 0
M  V30 2172 C 201.729 1.08361 -4.43967 0
M  V30 2173 C 202.726 0.438247 -5.1805 0
M  V30 2174 C 200.411 1.07358 -4.90693 0
M  V30 2175 C 202.405 -0.20779 -6.37061 0
M  V30 2176 C 200.092 0.42373 -6.09629 0
M  V30 2177 C 201.09 -0.215829 -6.82659 0
M  V30 2178 O 200.778 -0.855378 -7.99336 0
M  V30 2179 H 200.51 0.258504 -0.624621 0
M  V30 2180 H 203.064 0.14652 -2.04877 0
M  V30 2181 H 201.294 2.55389 -2.90367 0
M  V30 2182 H 202.983 2.38279 -3.286 0
M  V30 2183 H 203.749 0.437817 -4.8302 0
M  V30 2184 H 199.628 1.5608 -4.33774 0
M  V30 2185 H 203.172 -0.70758 -6.94002 0
M  V30 2186 H 199.069 0.421822 -6.4412 0
M  V30 2187 H 199.837 -0.756892 -8.14993 0
M  V30 2188 N 202.5 1.5196 0.417844 0
M  V30 2189 C 203.777 1.56146 1.17803 0
M  V30 2190 C 204.157 0.337275 2.08388 0
M  V30 2191 O 203.505 -0.676447 2.18258 0
M  V30 2192 C 203.715 2.88566 1.96293 0
M  V30 2193 C 205.063 3.41244 2.52662 0
M  V30 2194 O 206.087 2.90247 2.06483 0
M  V30 2195 O 204.946 4.30273 3.36938 0
M  V30 2196 H 202.04 0.628598 0.537395 0
M  V30 2197 H 204.586 1.64283 0.425331 0
M  V30 2198 H 203.358 3.69116 1.2988 0
M  V30 2199 H 202.981 2.83681 2.78587 0
M  V30 2200 N 203.978 -0.674533 1.42435 0
M  V30 2201 C 205.394 -0.98769 1.25367 0
M  V30 2202 C 205.594 -2.00879 0.158044 0
M  V30 2203 O 204.65 -2.48075 -0.470633 0
M  V30 2204 C 205.963 -1.49224 2.6106 0
M  V30 2205 C 207.511 -1.61 2.68417 0
M  V30 2206 C 207.986 -2.14852 4.04478 0
M  V30 2207 N 209.477 -2.22185 4.06434 0
M  V30 2208 C 210.212 -2.64928 5.08528 0
M  V30 2209 N 209.708 -3.07121 6.21006 0
M  V30 2210 N 211.501 -2.64679 4.95885 0
M  V30 2211 H 203.652 0.00152503 2.124 0
M  V30 2212 H 205.915 -0.0618434 0.945981 0
M  V30 2213 H 205.621 -0.816453 3.42092 0
M  V30 2214 H 205.495 -2.47094 2.84999 0
M  V30 2215 H 207.882 -2.27686 1.87732 0
M  V30 2216 H 207.963 -0.616195 2.48267 0
M  V30 2217 H 207.607 -1.48775 4.85622 0
M  V30 2218 H 207.537 -3.15024 4.2198 0
M  V30 2219 H 210.028 -1.92435 3.25234 0
M  V30 2220 H 210.341 -3.38423 6.94759 0
M  V30 2221 H 208.686 -3.04978 6.24511 0
M  V30 2222 H 211.877 -2.31078 4.07088 0
M  V30 2223 H 212.05 -2.9767 5.75584 0
M  V30 2224 N 205.456 -1.28612 -0.910864 0
M  V30 2225 C 206.733 -1.06632 -1.63979 0
M  V30 2226 C 207.113 0.393351 -2.07403 0
M  V30 2227 O 206.461 1.37999 -1.82122 0
M  V30 2228 C 206.671 -2.0436 -2.8291 0
M  V30 2229 C 208.019 -2.34666 -3.5386 0
M  V30 2230 O 209.043 -2.02467 -2.93062 0
M  V30 2231 O 207.902 -2.89631 -4.63439 0
M  V30 2232 H 204.996 -0.407737 -0.7195 0
M  V30 2233 H 207.542 -1.39942 -0.959914 0
M  V30 2234 H 206.314 -3.02727 -2.47936 0
M  V30 2235 H 205.937 -1.71714 -3.58609 0
M  V30 2236 N 206.934 1.1197 -1.10907 0
M  V30 2237 C 208.181 1.83588 -0.854507 0
M  V30 2238 C 208.509 1.84357 0.6199 0
M  V30 2239 O 207.764 1.28809 1.47332 0
M  V30 2240 C 208.063 3.30749 -1.35425 0
M  V30 2241 C 207.729 3.50146 -2.84093 0
M  V30 2242 C 206.391 3.55148 -3.2469 0
M  V30 2243 C 208.743 3.56857 -3.79872 0
M  V30 2244 C 206.071 3.6441 -4.59806 0
M  V30 2245 C 208.423 3.6765 -5.14797 0
M  V30 2246 C 207.087 3.7091 -5.54961 0
M  V30 2247 H 206.357 0.671795 -0.312686 0
M  V30 2248 H 209.004 1.32091 -1.38652 0
M  V30 2249 H 207.309 3.84703 -0.742361 0
M  V30 2250 H 209.006 3.8464 -1.1337 0
M  V30 2251 H 205.596 3.46919 -2.51685 0
M  V30 2252 H 209.78 3.52258 -3.49611 0
M  V30 2253 H 205.036 3.65208 -4.9034 0
M  V30 2254 H 209.21 3.71786 -5.88853 0
M  V30 2255 H 206.837 3.7784 -6.59652 0
M  V30 2256 N 208.412 0.89855 1.29475 0
M  V30 2257 C 209.637 0.538561 2.00285 0
M  V30 2258 C 210.062 -0.869135 1.66816 0
M  V30 2259 O 209.42 -1.57831 0.892145 0
M  V30 2260 C 209.468 0.736475 3.52999 0
M  V30 2261 O 208.572 -0.211537 4.11857 0
M  V30 2262 H 207.913 0.210563 0.62973 0
M  V30 2263 H 210.443 1.20982 1.64998 0
M  V30 2264 H 210.453 0.640685 4.02938 0
M  V30 2265 H 209.128 1.76276 3.76696 0
M  V30 2266 H 207.705 -0.0682991 3.72837 0
M  V30 2267 N 209.89 -1.43072 0.660911 0
M  V30 2268 C 211.12 -2.05769 0.185153 0
M  V30 2269 C 211.528 -1.49668 -1.15742 0
M  V30 2270 O 210.871 -0.625649 -1.72717 0
M  V30 2271 C 210.933 -3.59489 0.0278237 0
M  V30 2272 C 210.597 -4.38212 1.2969 0
M  V30 2273 C 211.594 -4.69772 2.22734 0
M  V30 2274 C 209.279 -4.7809 1.54063 0
M  V30 2275 C 211.273 -5.40129 3.38437 0
M  V30 2276 C 208.96 -5.4819 2.70058 0
M  V30 2277 C 209.958 -5.79132 3.62071 0
M  V30 2278 O 209.646 -6.47798 4.76039 0
M  V30 2279 H 209.378 -0.669873 0.0908086 0
M  V30 2280 H 211.932 -1.84436 0.90402 0
M  V30 2281 H 210.162 -3.79426 -0.746489 0
M  V30 2282 H 211.851 -4.03862 -0.406275 0
M  V30 2283 H 212.617 -4.39476 2.05149 0
M  V30 2284 H 208.496 -4.53408 0.833215 0
M  V30 2285 H 212.04 -5.64198 4.10277 0
M  V30 2286 H 207.937 -5.77902 2.87574 0
M  V30 2287 H 208.705 -6.66283 4.75404 0
M  V30 2288 N 211.368 -0.403325 -1.52352 0
M  V30 2289 C 212.316 0.439752 -2.28405 0
M  V30 2290 C 213.31 1.05089 -1.32863 0
M  V30 2291 O 214.516 0.989759 -1.50345 0
M  V30 2292 H 210.891 0.160587 -0.734653 0
M  V30 2293 H 212.862 -0.222983 -2.97566 0
M  V30 2294 C 211.611 1.54736 -3.11371 0
M  V30 2295 H 210.934 1.08643 -3.84755 0
M  V30 2296 H 212.374 2.1112 -3.67701 0
M  V30 2297 C 210.833 2.51141 -2.24566 0
M  V30 2298 O 211.363 3.54887 -1.88196 0
M  V30 2299 N 209.569 2.21213 -1.8845 0
M  V30 2300 H 209.116 1.36878 -2.18225 0
M  V30 2301 H 209.074 2.85963 -1.30662 0
M  V30 2302 N 212.846 1.57033 -0.133567 0
M  V30 2303 C 214.076 1.99754 0.527429 0
M  V30 2304 C 214.484 1.01245 1.59832 0
M  V30 2305 O 213.827 -0.000645496 1.837 0
M  V30 2306 C 213.889 3.38903 1.19939 0
M  V30 2307 C 213.553 4.56174 0.274709 0
M  V30 2308 C 214.55 5.17563 -0.492398 0
M  V30 2309 C 212.235 5.01972 0.18153 0
M  V30 2310 C 214.229 6.2315 -1.34027 0
M  V30 2311 C 211.916 6.07416 -0.669958 0
M  V30 2312 C 212.914 6.67874 -1.42947 0
M  V30 2313 O 212.602 7.71279 -2.2668 0
M  V30 2314 H 212.334 0.660702 0.142999 0
M  V30 2315 H 214.888 2.04207 -0.221099 0
M  V30 2316 H 213.118 3.31248 1.99528 0
M  V30 2317 H 214.807 3.65818 1.75875 0
M  V30 2318 H 215.573 4.83087 -0.430367 0
M  V30 2319 H 211.452 4.54652 0.762422 0
M  V30 2320 H 214.996 6.70268 -1.93357 0
M  V30 2321 H 210.893 6.41321 -0.73333 0
M  V30 2322 H 211.661 7.88441 -2.1978 0
M  V30 2323 N 214.325 -0.140222 1.56975 0
M  V30 2324 C 215.572 -0.851687 1.83719 0
M  V30 2325 C 215.9 -1.80862 0.715485 0
M  V30 2326 O 215.155 -1.93464 -0.294956 0
M  V30 2327 C 215.454 -1.65386 3.16832 0
M  V30 2328 C 215.12 -0.843112 4.42947 0
M  V30 2329 C 213.782 -0.619464 4.77196 0
M  V30 2330 C 216.134 -0.276582 5.20466 0
M  V30 2331 C 213.462 0.181312 5.8642 0
M  V30 2332 C 215.814 0.51127 6.30531 0
M  V30 2333 C 214.478 0.745432 6.63325 0
M  V30 2334 H 213.748 -0.311654 0.672274 0
M  V30 2335 H 216.395 -0.115006 1.91154 0
M  V30 2336 H 214.7 -2.46084 3.04877 0
M  V30 2337 H 216.397 -2.20793 3.34741 0
M  V30 2338 H 212.987 -1.0275 4.16101 0
M  V30 2339 H 217.171 -0.436632 4.94376 0
M  V30 2340 H 212.427 0.372165 6.10266 0
M  V30 2341 H 216.601 0.957354 6.89788 0
M  V30 2342 H 214.228 1.36778 7.47794 0
M  V30 2343 N 215.803 -1.52179 -0.40978 0
M  V30 2344 C 217.051 -1.65878 -1.15451 0
M  V30 2345 C 217.372 -0.390771 -1.91044 0
M  V30 2346 O 216.642 0.594323 -1.86667 0
M  V30 2347 H 215.222 -0.611405 -0.429177 0
M  V30 2348 H 217.884 -1.89219 -0.467134 0
M  V30 2349 H 216.98 -2.49954 -1.86894 0
M  V30 2350 N 217.281 0.66697 -1.42791 0
M  V30 2351 C 218.528 1.42699 -1.43678 0
M  V30 2352 C 218.856 1.94419 -0.0560425 0
M  V30 2353 O 218.111 1.7182 0.936831 0
M  V30 2354 C 218.41 2.6349 -2.4147 0
M  V30 2355 C 218.076 2.30267 -3.8767 0
M  V30 2356 C 216.738 2.20918 -4.27491 0
M  V30 2357 C 219.09 2.03435 -4.79858 0
M  V30 2358 C 216.418 1.82873 -5.57471 0
M  V30 2359 C 218.77 1.66892 -6.10188 0
M  V30 2360 C 217.434 1.56058 -6.49001 0
M  V30 2361 H 216.704 0.522171 -0.525755 0
M  V30 2362 H 219.351 0.759785 -1.75783 0
M  V30 2363 H 217.656 3.35279 -2.0272 0
M  V30 2364 H 219.353 3.21684 -2.39417 0
M  V30 2365 H 215.943 2.38449 -3.56146 0
M  V30 2366 H 220.127 2.09586 -4.49875 0
M  V30 2367 H 215.383 1.7306 -5.86396 0
M  V30 2368 H 219.557 1.45157 -6.81104 0
M  V30 2369 H 217.184 1.26348 -7.49627 0
M  V30 2370 N 218.759 1.29093 0.90403 0
M  V30 2371 C 219.706 1.13853 2.00764 0
M  V30 2372 C 220.676 0.0330084 1.66067 0
M  V30 2373 O 221.861 0.199733 1.89752 0
M  V30 2374 C 219.001 0.816537 3.35301 0
M  V30 2375 C 218.114 2.00206 3.82807 0
M  V30 2376 C 217.249 1.61983 5.059 0
M  V30 2377 C 216.288 2.77143 5.45764 0
M  V30 2378 N 215.425 2.39346 6.60044 0
M  V30 2379 H 220.265 2.08276 2.13132 0
M  V30 2380 H 217.802 1.03648 1.04381 0
M  V30 2381 H 219.76 0.610557 4.12708 0
M  V30 2382 H 218.39 -0.090779 3.22672 0
M  V30 2383 H 217.442 2.31988 3.01473 0
M  V30 2384 H 218.754 2.86512 4.08304 0
M  V30 2385 H 217.908 1.37649 5.90879 0
M  V30 2386 H 216.647 0.728202 4.82233 0
M  V30 2387 H 215.652 3.02165 4.59322 0
M  V30 2388 H 216.877 3.66964 5.71414 0
M  V30 2389 H 214.823 1.52665 6.37989 0
M  V30 2390 H 214.74 3.19185 6.85315 0
M  V30 2391 H 216.008 2.1832 7.48303 0
M  V30 2392 N 220.237 -1.11381 1.11499 0
M  V30 2393 C 221.465 -1.86934 0.88675 0
M  V30 2394 C 221.88 -1.80195 -0.563476 0
M  V30 2395 O 221.237 -1.18367 -1.38908 0
M  V30 2396 C 221.288 -3.35722 1.34064 0
M  V30 2397 O 221.009 -3.4232 2.73401 0
M  V30 2398 C 222.51 -4.2818 1.14791 0
M  V30 2399 H 219.73 -0.591117 0.317523 0
M  V30 2400 H 222.274 -1.40865 1.48248 0
M  V30 2401 H 220.429 -3.79294 0.788355 0
M  V30 2402 H 220.843 -4.34971 2.93087 0
M  V30 2403 H 222.317 -5.30817 1.5145 0
M  V30 2404 H 222.794 -4.39113 0.0875279 0
M  V30 2405 H 223.4 -3.90402 1.68721 0
M  V30 2406 N 221.715 -0.905404 -1.28997 0
M  V30 2407 C 222.645 -0.404212 -2.29975 0
M  V30 2408 C 223.626 0.523784 -1.61835 0
M  V30 2409 O 224.811 0.433298 -1.89304 0
M  V30 2410 C 221.941 0.364042 -3.45387 0
M  V30 2411 C 220.895 -0.474048 -4.25367 0
M  V30 2412 C 220.221 0.422045 -5.33032 0
M  V30 2413 C 221.521 -1.72696 -4.92923 0
M  V30 2414 H 223.215 -1.24807 -2.72146 0
M  V30 2415 H 220.761 -0.601585 -1.30832 0
M  V30 2416 H 222.714 0.725447 -4.15109 0
M  V30 2417 H 221.438 1.24174 -3.02074 0
M  V30 2418 H 220.097 -0.81786 -3.57361 0
M  V30 2419 H 219.745 1.29804 -4.85963 0
M  V30 2420 H 219.445 -0.135057 -5.87445 0
M  V30 2421 H 220.969 0.779517 -6.05604 0
M  V30 2422 H 222.383 -1.43495 -5.55051 0
M  V30 2423 H 220.78 -2.22582 -5.57295 0
M  V30 2424 H 221.85 -2.45964 -4.17887 0
M  V30 2425 N 223.193 1.4272 -0.668489 0
M  V30 2426 C 224.103 2.34596 0.0139753 0
M  V30 2427 C 225.119 1.5474 0.795703 0
M  V30 2428 O 226.295 1.87334 0.739466 0
M  V30 2429 C 223.36 3.33202 0.957982 0
M  V30 2430 C 222.421 4.28957 0.17149 0
M  V30 2431 C 221.654 5.22853 1.07053 0
M  V30 2432 O 221.877 5.21531 2.31001 0
M  V30 2433 O 220.811 5.9952 0.534727 0
M  V30 2434 H 224.637 2.9448 -0.742661 0
M  V30 2435 H 222.222 1.43117 -0.428705 0
M  V30 2436 H 224.104 3.93796 1.50008 0
M  V30 2437 H 222.779 2.758 1.69458 0
M  V30 2438 H 221.686 3.71796 -0.414558 0
M  V30 2439 H 223.019 4.89383 -0.52586 0
M  V30 2440 N 224.671 0.411399 1.52136 0
M  V30 2441 C 226.087 0.0623865 1.59478 0
M  V30 2442 C 226.287 -1.42554 1.4241 0
M  V30 2443 O 225.343 -2.19263 1.2522 0
M  V30 2444 C 226.656 0.559331 2.95452 0
M  V30 2445 C 228.204 0.517503 3.08692 0
M  V30 2446 C 228.679 0.990994 4.4715 0
M  V30 2447 N 230.17 0.947908 4.53397 0
M  V30 2448 C 230.905 1.28544 5.58806 0
M  V30 2449 N 230.401 1.69454 6.71757 0
M  V30 2450 N 232.194 1.20526 5.49026 0
M  V30 2451 H 224.345 1.37982 1.61477 0
M  V30 2452 H 226.608 0.566977 0.759764 0
M  V30 2453 H 226.314 1.59938 3.1323 0
M  V30 2454 H 226.188 -0.0298014 3.77188 0
M  V30 2455 H 228.575 -0.513505 2.90598 0
M  V30 2456 H 228.656 1.14272 2.28857 0
M  V30 2457 H 228.3 2.02034 4.65988 0
M  V30 2458 H 228.23 0.34257 5.25485 0
M  V30 2459 H 230.721 0.647157 3.72317 0
M  V30 2460 H 231.034 1.93513 7.48179 0
M  V30 2461 H 229.379 1.73359 6.73032 0
M  V30 2462 H 232.57 0.884505 4.59667 0
M  V30 2463 H 232.743 1.47161 6.31069 0
M  V30 2464 N 226.149 -1.5696 0.141893 0
M  V30 2465 C 227.374 -2.00754 -0.520838 0
M  V30 2466 C 227.799 -1.0213 -1.57959 0
M  V30 2467 O 227.157 0.00371324 -1.813 0
M  V30 2468 C 227.205 -3.43318 -1.10294 0
M  V30 2469 O 226.309 -3.47679 -2.21795 0
M  V30 2470 H 225.65 -0.651564 -0.127908 0
M  V30 2471 H 228.18 -2.03221 0.23712 0
M  V30 2472 H 228.19 -3.82012 -1.43287 0
M  V30 2473 H 226.865 -4.14608 -0.327574 0
M  V30 2474 H 225.442 -3.20824 -1.9007 0
M  V30 2475 N 227.627 0.131896 -1.57047 0
M  V30 2476 C 228.857 0.855219 -1.88068 0
M  V30 2477 C 229.265 1.74557 -0.729817 0
M  V30 2478 O 228.608 1.81083 0.308962 0
M  V30 2479 C 228.67 1.75119 -3.13964 0
M  V30 2480 C 228.334 1.03646 -4.45091 0
M  V30 2481 C 229.331 0.383276 -5.18485 0
M  V30 2482 C 227.016 1.02148 -4.91804 0
M  V30 2483 C 229.01 -0.275347 -6.36805 0
M  V30 2484 C 226.697 0.359047 -6.10044 0
M  V30 2485 C 227.695 -0.288222 -6.82392 0
M  V30 2486 O 227.383 -0.94011 -7.98384 0
M  V30 2487 H 227.115 0.251864 -0.627328 0
M  V30 2488 H 229.669 0.124782 -2.05021 0
M  V30 2489 H 227.899 2.52295 -2.9306 0
M  V30 2490 H 229.588 2.3478 -3.31109 0
M  V30 2491 H 230.354 0.386562 -4.83457 0
M  V30 2492 H 226.233 1.5147 -4.35405 0
M  V30 2493 H 229.777 -0.781148 -6.93213 0
M  V30 2494 H 225.674 0.35348 -6.44531 0
M  V30 2495 H 226.442 -0.84329 -8.14144 0
M  V30 2496 N 229.106 1.52395 0.401703 0
M  V30 2497 C 230.036 1.79231 1.49661 0
M  V30 2498 C 231.017 0.643654 1.57452 0
M  V30 2499 O 232.202 0.889989 1.72606 0
M  V30 2500 C 229.332 1.94971 2.87409 0
M  V30 2501 C 228.286 3.10604 2.94465 0
M  V30 2502 C 227.612 3.11577 4.34538 0
M  V30 2503 C 228.912 4.49921 2.6527 0
M  V30 2504 H 230.606 2.70917 1.27454 0
M  V30 2505 H 228.152 1.30362 0.6117 0
M  V30 2506 H 230.105 2.12328 3.63999 0
M  V30 2507 H 228.829 0.999632 3.10926 0
M  V30 2508 H 227.488 2.93009 2.20321 0
M  V30 2509 H 227.136 2.14277 4.55076 0
M  V30 2510 H 226.836 3.89247 4.40183 0
M  V30 2511 H 228.36 3.31073 5.13053 0
M  V30 2512 H 229.774 4.67683 3.31581 0
M  V30 2513 H 228.171 5.29564 2.82281 0
M  V30 2514 H 229.241 4.57507 1.60671 0
M  V30 2515 N 230.584 -0.659388 1.43143 0
M  V30 2516 C 231.514 -1.78422 1.50625 0
M  V30 2517 C 232.495 -1.66216 0.361443 0
M  V30 2518 O 233.68 -1.85404 0.577834 0
M  V30 2519 C 230.81 -3.16815 1.42287 0
M  V30 2520 C 229.764 -3.43777 2.54954 0
M  V30 2521 C 229.09 -4.81905 2.31671 0
M  V30 2522 C 230.39 -3.39134 3.97222 0
M  V30 2523 H 232.084 -1.72417 2.44771 0
M  V30 2524 H 229.63 -0.828084 1.17808 0
M  V30 2525 H 231.583 -3.95253 1.46127 0
M  V30 2526 H 230.307 -3.23534 0.446435 0
M  V30 2527 H 228.966 -2.67707 2.50457 0
M  V30 2528 H 228.614 -4.85294 1.32284 0
M  V30 2529 H 228.314 -5.00906 3.07192 0
M  V30 2530 H 229.838 -5.62609 2.37284 0
M  V30 2531 H 231.252 -4.07518 4.03239 0
M  V30 2532 H 229.649 -3.69671 4.72719 0
M  V30 2533 H 230.719 -2.37426 4.22797 0
M  V30 2534 N 232.062 -1.29571 -0.897171 0
M  V30 2535 C 233.009 -1.14916 -2.00158 0
M  V30 2536 C 233.979 -0.0418149 -1.66047 0
M  V30 2537 O 235.164 -0.209793 -1.89643 0
M  V30 2538 C 232.304 -0.834307 -3.34863 0
M  V30 2539 C 231.417 -2.02234 -3.8174 0
M  V30 2540 C 230.552 -1.64664 -5.05034 0
M  V30 2541 C 229.591 -2.80033 -5.44286 0
M  V30 2542 N 228.728 -2.42843 -6.58765 0
M  V30 2543 H 233.568 -2.09403 -2.12025 0
M  V30 2544 H 231.105 -1.042 -1.0383 0
M  V30 2545 H 233.063 -0.632436 -4.12379 0
M  V30 2546 H 231.693 0.0736656 -3.22716 0
M  V30 2547 H 230.745 -2.33583 -3.00238 0
M  V30 2548 H 232.057 -2.88673 -4.06779 0
M  V30 2549 H 231.211 -1.4078 -5.9014 0
M  V30 2550 H 229.95 -0.753766 -4.8184 0
M  V30 2551 H 228.955 -3.04596 -4.57713 0
M  V30 2552 H 230.18 -3.69989 -5.6946 0
M  V30 2553 H 228.126 -1.56046 -6.3717 0
M  V30 2554 H 228.043 -3.22815 -6.83613 0
M  V30 2555 H 229.311 -2.22285 -7.47134 0
M  V30 2556 N 233.54 1.10788 -1.12088 0
M  V30 2557 C 234.789 1.82036 -0.868659 0
M  V30 2558 C 235.102 1.85929 0.607426 0
M  V30 2559 O 236.308 2.53346 0.97613 0
M  V30 2560 C 234.764 3.26951 -1.50435 0
M  V30 2561 C 234.372 3.31367 -3.01496 0
M  V30 2562 C 236.116 4.03053 -1.33225 0
M  V30 2563 C 234.023 4.7072 -3.58017 0
M  V30 2564 H 232.953 0.682108 -0.321318 0
M  V30 2565 H 235.604 1.24618 -1.34694 0
M  V30 2566 H 233.986 3.84343 -0.953735 0
M  V30 2567 H 235.16 2.83819 -3.6302 0
M  V30 2568 H 233.475 2.6875 -3.18061 0
M  V30 2569 H 236.072 5.05981 -1.72878 0
M  V30 2570 H 236.415 4.15387 -0.275529 0
M  V30 2571 H 236.948 3.52066 -1.85188 0
M  V30 2572 H 233.687 4.63585 -4.63432 0
M  V30 2573 H 233.207 5.1865 -3.01268 0
M  V30 2574 H 234.886 5.39685 -3.56859 0
M  V30 2575 N 235.018 0.912232 1.28515 0
M  V30 2576 C 235.966 0.389597 2.29314 0
M  V30 2577 C 236.96 -0.517915 1.61289 0
M  V30 2578 O 238.166 -0.399328 1.75515 0
M  V30 2579 H 234.541 0.107386 0.744293 0
M  V30 2580 H 236.512 1.25286 2.70825 0
M  V30 2581 C 235.261 -0.356496 3.45868 0
M  V30 2582 H 234.584 0.332608 3.98414 0
M  V30 2583 H 236.024 -0.686851 4.184 0
M  V30 2584 C 234.483 -1.56383 2.98406 0
M  V30 2585 O 235.013 -2.66294 3.00749 0
M  V30 2586 N 233.219 -1.41029 2.54085 0
M  V30 2587 H 232.766 -0.516089 2.52377 0
M  V30 2588 H 232.724 -2.21939 2.22689 0
M  V30 2589 N 236.496 -1.42363 0.676048 0
M  V30 2590 C 237.744 -2.01123 0.198437 0
M  V30 2591 C 238.065 -1.53731 -1.19966 0
M  V30 2592 O 237.335 -0.759518 -1.80577 0
M  V30 2593 H 235.915 -0.743678 0.0703721 0
M  V30 2594 H 238.577 -1.74263 0.872837 0
M  V30 2595 H 237.673 -3.11454 0.200686 0
M  V30 2596 N 237.974 -0.419461 -1.51915 0
M  V30 2597 C 238.921 0.400927 -2.27291 0
M  V30 2598 C 239.891 1.03224 -1.30131 0
M  V30 2599 O 241.076 1.05455 -1.59009 0
M  V30 2600 C 238.216 1.50603 -3.10504 0
M  V30 2601 C 237.329 0.89462 -4.22635 0
M  V30 2602 C 236.464 1.97328 -4.93189 0
M  V30 2603 C 235.503 1.33935 -5.97267 0
M  V30 2604 N 234.64 2.3586 -6.61298 0
M  V30 2605 H 239.48 -0.248251 -2.96964 0
M  V30 2606 H 237.017 -0.134266 -1.46486 0
M  V30 2607 H 238.975 2.15783 -3.57062 0
M  V30 2608 H 237.605 2.12509 -2.42981 0
M  V30 2609 H 236.657 0.131583 -3.80172 0
M  V30 2610 H 237.969 0.391641 -4.9726 0
M  V30 2611 H 237.123 2.70211 -5.43204 0
M  V30 2612 H 235.862 2.50994 -4.18155 0
M  V30 2613 H 234.867 0.595896 -5.46561 0
M  V30 2614 H 236.092 0.810252 -6.74249 0
M  V30 2615 H 234.038 2.88639 -5.89087 0
M  V30 2616 H 233.955 1.90403 -7.3163 0
M  V30 2617 H 235.223 3.08282 -7.15949 0
M  V30 2618 N 239.452 1.56882 -0.150215 0
M  V30 2619 C 240.698 1.96518 0.500834 0
M  V30 2620 C 241.031 1.03527 1.64304 0
M  V30 2621 O 240.306 0.0782751 1.94342 0
M  V30 2622 C 240.589 3.45822 1.00395 0
M  V30 2623 C 240.442 4.49591 -0.136983 0
M  V30 2624 C 241.761 3.97704 1.88467 0
M  V30 2625 H 238.88 0.714535 0.18058 0
M  V30 2626 H 241.522 1.88577 -0.232091 0
M  V30 2627 H 239.672 3.5272 1.62851 0
M  V30 2628 H 241.344 4.5477 -0.77343 0
M  V30 2629 H 239.587 4.26441 -0.795652 0
M  V30 2630 H 240.258 5.51402 0.256815 0
M  V30 2631 H 242.734 3.93304 1.35834 0
M  V30 2632 H 241.61 5.0263 2.20578 0
M  V30 2633 H 241.871 3.40252 2.82279 0
M  V30 2634 N 240.93 -0.123565 1.57115 0
M  V30 2635 C 241.893 -1.13583 1.99076 0
M  V30 2636 C 242.893 -1.34564 0.880296 0
M  V30 2637 O 244.083 -1.31158 1.14644 0
M  V30 2638 C 241.215 -2.49128 2.32698 0
M  V30 2639 H 242.408 -0.775287 2.89706 0
M  V30 2640 H 239.961 -0.36771 1.51913 0
M  V30 2641 H 240.696 -2.90111 1.44934 0
M  V30 2642 H 240.481 -2.35255 3.13684 0
M  V30 2643 H 241.971 -3.2199 2.65918 0
M  V30 2644 N 242.408 -1.52605 -0.393616 0
M  V30 2645 C 243.318 -1.79971 -1.50492 0
M  V30 2646 C 244.334 -0.686181 -1.59899 0
M  V30 2647 O 245.51 -0.973274 -1.76322 0
M  V30 2648 C 242.575 -1.95867 -2.86072 0
M  V30 2649 C 241.636 -3.19781 -2.86424 0
M  V30 2650 C 240.869 -3.34909 -4.15538 0
M  V30 2651 O 241.092 -2.54948 -5.10253 0
M  V30 2652 O 240.026 -4.28141 -4.23059 0
M  V30 2653 H 243.852 -2.74328 -1.30299 0
M  V30 2654 H 241.437 -1.3764 -0.581005 0
M  V30 2655 H 243.319 -2.08056 -3.66457 0
M  V30 2656 H 241.994 -1.04699 -3.063 0
M  V30 2657 H 240.901 -3.13038 -2.04837 0
M  V30 2658 H 242.234 -4.1078 -2.71147 0
M  V30 2659 N 243.887 0.651787 -1.4349 0
M  V30 2660 C 245.303 0.96762 -1.26922 0
M  V30 2661 C 245.503 2.00602 -0.189982 0
M  V30 2662 O 244.559 2.48793 0.431107 0
M  V30 2663 C 245.872 1.45052 -2.63401 0
M  V30 2664 C 247.42 1.5671 -2.70945 0
M  V30 2665 C 247.895 2.0839 -4.07845 0
M  V30 2666 N 249.386 2.1569 -4.09917 0
M  V30 2667 C 250.121 2.56804 -5.12679 0
M  V30 2668 N 249.617 2.97203 -6.25813 0
M  V30 2669 N 251.41 2.56756 -5.00033 0
M  V30 2670 H 243.561 -0.0353158 -2.12371 0
M  V30 2671 H 245.824 0.0467858 -0.946845 0
M  V30 2672 H 245.53 0.761926 -3.43348 0
M  V30 2673 H 245.404 2.42529 -2.88894 0
M  V30 2674 H 247.791 2.2467 -1.9133 0
M  V30 2675 H 247.872 0.57662 -2.49216 0
M  V30 2676 H 247.516 1.41031 -4.87927 0
M  V30 2677 H 247.446 3.08271 -4.26938 0
M  V30 2678 H 249.937 1.87237 -3.28254 0
M  V30 2679 H 250.25 3.27328 -7.00055 0
M  V30 2680 H 248.595 2.95004 -6.29283 0
M  V30 2681 H 251.786 2.24572 -4.10713 0
M  V30 2682 H 251.959 2.88475 -5.80247 0
M  V30 2683 N 245.365 1.30045 0.890287 0
M  V30 2684 C 246.776 1.16738 1.45702 0
M  V30 2685 C 247.127 -0.233939 1.948 0
M  V30 2686 O 246.252 -1.13021 1.84541 0
M  V30 2687 C 246.847 2.11313 2.64825 0
M  V30 2688 C 245.406 2.02001 3.17604 0
M  V30 2689 C 244.553 2.01699 1.90296 0
M  V30 2690 H 247.504 1.42392 0.700726 0
M  V30 2691 H 247.525 1.69086 3.40867 0
M  V30 2692 H 247.037 3.13294 2.2906 0
M  V30 2693 H 245.138 1.03142 3.5804 0
M  V30 2694 H 245.251 2.90128 3.81264 0
M  V30 2695 H 243.615 1.46427 2.08402 0
M  V30 2696 H 244.398 3.05402 1.56795 0
M  V30 2697 N 246.843 -1.10192 1.12674 0
M  V30 2698 C 247.775 -2.16418 0.754701 0
M  V30 2699 C 248.788 -1.61309 -0.21986 0
M  V30 2700 O 249.977 -1.785 -0.000826841 0
M  V30 2701 C 247.077 -3.38762 0.096698 0
M  V30 2702 C 246.25 -4.23307 1.10136 0
M  V30 2703 C 245.309 -5.24092 0.470513 0
M  V30 2704 O 244.335 -5.57906 1.12824 0
M  V30 2705 N 245.537 -5.75491 -0.760948 0
M  V30 2706 H 248.302 -2.48943 1.66875 0
M  V30 2707 H 245.863 -1.25834 1.01869 0
M  V30 2708 H 247.855 -4.03291 -0.337384 0
M  V30 2709 H 246.425 -3.04192 -0.720153 0
M  V30 2710 H 245.645 -3.55036 1.71299 0
M  V30 2711 H 246.933 -4.76624 1.78064 0
M  V30 2712 H 246.331 -5.50222 -1.31424 0
M  V30 2713 H 244.888 -6.41792 -1.13781 0
M  V30 2714 N 248.321 -0.919034 -1.28029 0
M  V30 2715 C 249.271 -0.382574 -2.24767 0
M  V30 2716 C 250.255 0.508286 -1.52661 0
M  V30 2717 O 251.447 0.347145 -1.73562 0
M  V30 2718 C 248.576 0.371432 -3.41285 0
M  V30 2719 C 247.662 -0.535449 -4.20706 0
M  V30 2720 N 248.053 -1.65141 -4.78082 0
M  V30 2721 C 246.351 -0.336824 -4.44726 0
M  V30 2722 C 247.052 -2.21475 -5.37888 0
M  V30 2723 N 246.028 -1.50537 -5.22341 0
M  V30 2724 H 249.83 -1.23477 -2.66703 0
M  V30 2725 H 247.344 -0.772299 -1.42861 0
M  V30 2726 H 249.341 0.772638 -4.09678 0
M  V30 2727 H 248.001 1.22066 -3.00882 0
M  V30 2728 H 249.012 -2.03392 -4.7629 0
M  V30 2729 H 245.689 0.47246 -4.14818 0
M  V30 2730 H 247.079 -3.15379 -5.93284 0
M  V30 2731 N 249.799 1.42003 -0.683588 0
M  V30 2732 C 250.732 2.28166 0.039592 0
M  V30 2733 C 251.71 1.41562 0.799942 0
M  V30 2734 O 252.894 1.70997 0.793248 0
M  V30 2735 C 250.021 3.21575 1.06335 0
M  V30 2736 C 249.067 4.24643 0.397562 0
M  V30 2737 S 249.9 5.2869 -0.851296 0
M  V30 2738 C 251.056 6.25666 0.171166 0
M  V30 2739 H 251.289 2.89153 -0.691229 0
M  V30 2740 H 248.822 1.46962 -0.473435 0
M  V30 2741 H 250.78 3.75928 1.6489 0
M  V30 2742 H 249.441 2.59707 1.76667 0
M  V30 2743 H 248.634 4.90223 1.17035 0
M  V30 2744 H 248.236 3.73824 -0.114611 0
M  V30 2745 H 250.528 6.69653 1.02819 0
M  V30 2746 H 251.471 7.06666 -0.450397 0
M  V30 2747 H 251.879 5.62095 0.520578 0
M  V30 2748 N 251.277 0.427512 1.51691 0
M  V30 2749 C 252.207 -0.3796 2.30394 0
M  V30 2750 C 253.188 -1.02982 1.35384 0
M  V30 2751 O 254.373 -1.03534 1.643 0
M  V30 2752 C 251.503 -1.48649 3.1388 0
M  V30 2753 C 250.457 -0.960294 4.17088 0
M  V30 2754 C 249.783 -2.16219 4.89033 0
M  V30 2755 C 251.083 -0.00153679 5.223 0
M  V30 2756 H 252.777 0.277164 2.98114 0
M  V30 2757 H 250.323 0.134739 1.43368 0
M  V30 2758 H 252.276 -2.05826 3.67714 0
M  V30 2759 H 251 -2.1714 2.43962 0
M  V30 2760 H 249.659 -0.410806 3.64291 0
M  V30 2761 H 249.307 -2.83307 4.15628 0
M  V30 2762 H 249.007 -1.81654 5.58816 0
M  V30 2763 H 250.531 -2.73968 5.45687 0
M  V30 2764 H 251.945 -0.482687 5.71264 0
M  V30 2765 H 250.342 0.256199 5.99553 0
M  V30 2766 H 251.412 0.938174 4.75738 0
M  V30 2767 N 252.755 -1.56801 0.158532 0
M  V30 2768 C 253.688 -2.13148 -0.815065 0
M  V30 2769 C 254.666 -1.0581 -1.23462 0
M  V30 2770 O 255.85 -1.3371 -1.32868 0
M  V30 2771 C 252.977 -2.6606 -2.09594 0
M  V30 2772 C 252.023 -3.85651 -1.82141 0
M  V30 2773 S 252.856 -5.26041 -1.00207 0
M  V30 2774 C 254.012 -5.8235 -2.29389 0
M  V30 2775 H 254.245 -2.95396 -0.335937 0
M  V30 2776 H 251.778 -1.54299 -0.0559391 0
M  V30 2777 H 253.736 -2.97195 -2.8317 0
M  V30 2778 H 252.397 -1.83921 -2.54621 0
M  V30 2779 H 251.59 -4.20958 -2.77147 0
M  V30 2780 H 251.192 -3.55338 -1.16667 0
M  V30 2781 H 253.484 -5.94485 -3.24952 0
M  V30 2782 H 254.427 -6.79688 -1.9857 0
M  V30 2783 H 254.835 -5.10675 -2.40564 0
M  V30 2784 N 254.233 0.115231 -1.57178 0
M  V30 2785 C 255.649 0.468877 -1.52557 0
M  V30 2786 C 255.849 1.81649 -0.872125 0
M  V30 2787 O 254.905 2.48347 -0.45606 0
M  V30 2788 C 256.218 0.4499 -2.97315 0
M  V30 2789 C 257.766 0.533185 -3.08425 0
M  V30 2790 C 258.241 0.54456 -4.54751 0
M  V30 2791 N 259.732 0.605892 -4.5922 0
M  V30 2792 C 260.467 0.636203 -5.6986 0
M  V30 2793 N 259.963 0.623931 -6.89985 0
M  V30 2794 N 261.756 0.679496 -5.57978 0
M  V30 2795 H 253.907 -0.767712 -1.9804 0
M  V30 2796 H 256.17 -0.283609 -0.904583 0
M  V30 2797 H 255.876 -0.472721 -3.48509 0
M  V30 2798 H 255.75 1.27632 -3.5495 0
M  V30 2799 H 258.137 1.44623 -2.57232 0
M  V30 2800 H 258.218 -0.320995 -2.53778 0
M  V30 2801 H 257.862 -0.364452 -5.06591 0
M  V30 2802 H 257.792 1.41568 -5.07214 0
M  V30 2803 H 260.283 0.621386 -3.72756 0
M  V30 2804 H 260.596 0.649787 -7.70063 0
M  V30 2805 H 258.941 0.591296 -6.9248 0
M  V30 2806 H 262.132 0.686472 -4.63039 0
M  V30 2807 H 262.305 0.69965 -6.44212 0
M  V30 2808 N 255.711 1.52812 0.385517 0
M  V30 2809 C 256.957 1.68275 1.13188 0
M  V30 2810 C 257.29 0.423179 1.89533 0
M  V30 2811 O 256.565 -0.579113 1.85679 0
M  V30 2812 C 256.848 2.92001 2.1073 0
M  V30 2813 C 256.701 4.28067 1.38125 0
M  V30 2814 C 258.02 3.11283 3.11113 0
M  V30 2815 H 255.139 0.612352 0.410115 0
M  V30 2816 H 257.781 1.85415 0.414869 0
M  V30 2817 H 255.931 2.77519 2.71874 0
M  V30 2818 H 257.603 4.54324 0.799187 0
M  V30 2819 H 255.846 4.28388 0.683092 0
M  V30 2820 H 256.517 5.10733 2.09417 0
M  V30 2821 H 258.993 3.2482 2.6006 0
M  V30 2822 H 257.869 3.99325 3.76605 0
M  V30 2823 H 258.13 2.25656 3.80173 0
M  V30 2824 N 257.189 -0.644168 1.43834 0
M  V30 2825 C 258.414 -1.43642 1.49605 0
M  V30 2826 C 258.839 -1.8773 0.117913 0
M  V30 2827 O 258.197 -1.57938 -0.890239 0
M  V30 2828 C 258.245 -2.6416 2.45463 0
M  V30 2829 O 257.349 -3.63538 1.94714 0
M  V30 2830 H 256.69 -0.430329 0.50568 0
M  V30 2831 H 259.22 -0.787448 1.8884 0
M  V30 2832 H 259.23 -3.11864 2.63068 0
M  V30 2833 H 257.905 -2.31414 3.45572 0
M  V30 2834 H 256.482 -3.2273 1.86814 0
M  V30 2835 N 258.668 -1.30515 -0.883378 0
M  V30 2836 C 259.914 -1.19607 -1.63774 0
M  V30 2837 C 260.247 0.248314 -1.92606 0
M  V30 2838 O 259.522 1.17742 -1.54813 0
M  V30 2839 C 259.805 -2.02669 -2.97653 0
M  V30 2840 C 259.658 -3.55335 -2.75784 0
M  V30 2841 C 260.977 -1.86573 -3.98596 0
M  V30 2842 H 258.096 -0.435856 -0.594305 0
M  V30 2843 H 260.738 -1.60165 -1.02212 0
M  V30 2844 H 258.888 -1.68208 -3.50197 0
M  V30 2845 H 260.56 -3.99863 -2.30016 0
M  V30 2846 H 258.803 -3.79438 -2.1026 0
M  V30 2847 H 259.474 -4.08745 -3.70988 0
M  V30 2848 H 261.95 -2.16703 -3.55217 0
M  V30 2849 H 260.826 -2.47014 -4.90179 0
M  V30 2850 H 261.087 -0.825321 -4.34328 0
M  V30 2851 N 260.146 1.09593 -1.13257 0
M  V30 2852 C 261.394 1.81375 -0.891492 0
M  V30 2853 C 261.715 1.86049 0.584009 0
M  V30 2854 O 260.985 1.34481 1.42449 0
M  V30 2855 H 259.565 0.671708 -0.326828 0
M  V30 2856 H 262.227 1.3256 -1.42877 0
M  V30 2857 H 261.323 2.84612 -1.28071 0
M  V30 2858 N 261.624 0.925811 1.2754 0
M  V30 2859 C 262.873 0.561084 1.93739 0
M  V30 2860 C 263.186 -0.901685 1.73577 0
M  V30 2861 O 264.392 -1.37511 2.34101 0
M  V30 2862 C 262.848 0.952668 3.47062 0
M  V30 2863 C 262.456 2.43599 3.75983 0
M  V30 2864 C 264.2 0.659103 4.19352 0
M  V30 2865 C 262.107 2.76707 5.22673 0
M  V30 2866 H 261.037 0.206122 0.725279 0
M  V30 2867 H 263.688 1.12637 1.44863 0
M  V30 2868 H 262.07 0.316053 3.94737 0
M  V30 2869 H 263.244 3.12035 3.39073 0
M  V30 2870 H 261.559 2.70125 3.16893 0
M  V30 2871 H 264.156 0.882985 5.27359 0
M  V30 2872 H 264.499 -0.403607 4.14339 0
M  V30 2873 H 265.032 1.25473 3.77494 0
M  V30 2874 H 261.771 3.8188 5.32774 0
M  V30 2875 H 261.291 2.12919 5.60737 0
M  V30 2876 H 262.97 2.6435 5.90532 0
M  V30 2877 N 263.102 -1.41638 0.69111 0
M  V30 2878 C 264.052 -2.28 -0.000107832 0
M  V30 2879 C 265.036 -1.41964 -0.757304 0
M  V30 2880 O 266.228 -1.65274 -0.633532 0
M  V30 2881 C 263.357 -3.30209 -0.938983 0
M  V30 2882 C 262.443 -4.23725 -0.17827 0
M  V30 2883 N 262.834 -4.99017 0.825563 0
M  V30 2884 C 261.132 -4.44071 -0.414392 0
M  V30 2885 C 261.833 -5.67431 1.28052 0
M  V30 2886 N 260.809 -5.40197 0.607304 0
M  V30 2887 H 264.611 -2.83644 0.769617 0
M  V30 2888 H 262.125 -1.53797 0.521562 0
M  V30 2889 H 264.122 -3.90898 -1.44929 0
M  V30 2890 H 262.782 -2.76126 -1.70836 0
M  V30 2891 H 263.793 -5.03671 1.20566 0
M  V30 2892 H 260.47 -4.01004 -1.162 0
M  V30 2893 H 261.86 -6.37801 2.11327 0
M  V30 2894 N 264.58 -0.43555 -1.51462 0
M  V30 2895 C 265.527 0.376797 -2.27703 0
M  V30 2896 C 266.497 1.01838 -1.31219 0
M  V30 2897 O 267.682 1.03762 -1.60119 0
M  V30 2898 C 264.822 1.47301 -3.12084 0
M  V30 2899 C 263.935 0.849744 -4.2356 0
M  V30 2900 C 263.07 1.92086 -4.95254 0
M  V30 2901 C 262.109 1.27593 -5.98654 0
M  V30 2902 N 261.246 2.28833 -6.63762 0
M  V30 2903 H 266.086 -0.279734 -2.96684 0
M  V30 2904 H 263.623 -0.149795 -1.46335 0
M  V30 2905 H 265.581 2.11984 -3.59331 0
M  V30 2906 H 264.211 2.0992 -2.45221 0
M  V30 2907 H 263.263 0.0912529 -3.80291 0
M  V30 2908 H 264.575 0.338878 -4.97648 0
M  V30 2909 H 263.729 2.64435 -5.46039 0
M  V30 2910 H 262.468 2.46545 -4.20793 0
M  V30 2911 H 261.473 0.537893 -5.47162 0
M  V30 2912 H 262.698 0.738693 -6.7507 0
M  V30 2913 H 260.644 2.82375 -5.92115 0
M  V30 2914 H 260.561 1.82632 -7.33608 0
M  V30 2915 H 261.829 3.00671 -7.19178 0
M  V30 2916 N 266.058 1.56714 -0.166846 0
M  V30 2917 C 266.968 2.21331 0.777791 0
M  V30 2918 C 267.984 1.20358 1.25658 0
M  V30 2919 O 269.16 1.53005 1.30964 0
M  V30 2920 C 266.225 2.83787 1.99163 0
M  V30 2921 C 265.286 3.99947 1.56016 0
M  V30 2922 C 264.519 4.59415 2.71613 0
M  V30 2923 O 264.742 4.17769 3.88362 0
M  V30 2924 O 263.676 5.49359 2.45945 0
M  V30 2925 H 267.502 3.02605 0.257636 0
M  V30 2926 H 265.087 1.49275 0.0611393 0
M  V30 2927 H 266.969 3.23405 2.70161 0
M  V30 2928 H 265.644 2.05513 2.50092 0
M  V30 2929 H 264.551 3.65007 0.819809 0
M  V30 2930 H 265.884 4.79801 1.09782 0
M  V30 2931 N 267.536 -0.106894 1.57237 0
M  V30 2932 C 268.813 -0.843526 1.76477 0
M  V30 2933 C 269.193 -1.97499 0.745464 0
M  V30 2934 O 268.541 -2.27357 -0.228306 0
M  V30 2935 C 268.751 -1.34903 3.21873 0
M  V30 2936 C 270.099 -1.79654 3.8472 0
M  V30 2937 O 271.123 -1.44554 3.2555 0
M  V30 2938 O 269.982 -2.44515 4.88748 0
M  V30 2939 H 267.076 -0.401468 0.723016 0
M  V30 2940 H 269.622 -0.0896927 1.69463 0
M  V30 2941 H 268.394 -0.53781 3.87586 0
M  V30 2942 H 268.017 -2.16522 3.33473 0
M  V30 2943 N 269.014 -1.53014 -0.377408 0
M  V30 2944 C 270.263 -1.67845 -1.11853 0
M  V30 2945 C 270.576 -0.430625 -1.90801 0
M  V30 2946 O 271.782 -0.459261 -2.67587 0
M  V30 2947 C 270.238 -2.96668 -2.03756 0
M  V30 2948 C 269.846 -4.28671 -1.30175 0
M  V30 2949 C 271.59 -3.20865 -2.77932 0
M  V30 2950 C 269.497 -5.48591 -2.20911 0
M  V30 2951 H 268.427 -0.625343 -0.421263 0
M  V30 2952 H 271.078 -1.79514 -0.380409 0
M  V30 2953 H 269.46 -2.78773 -2.8125 0
M  V30 2954 H 270.634 -4.57157 -0.578259 0
M  V30 2955 H 268.949 -4.10825 -0.679108 0
M  V30 2956 H 271.546 -4.07642 -3.46024 0
M  V30 2957 H 271.889 -2.36424 -3.4265 0
M  V30 2958 H 272.422 -3.39379 -2.07525 0
M  V30 2959 H 269.161 -6.35474 -1.6079 0
M  V30 2960 H 268.681 -5.244 -2.91144 0
M  V30 2961 H 270.36 -5.8292 -2.80736 0
M  V30 2962 N 270.492 0.636531 -1.44174 0
M  V30 2963 C 271.769 1.39463 -1.37148 0
M  V30 2964 C 272.149 2.11082 -0.027507 0
M  V30 2965 O 271.497 2.05954 0.989716 0
M  V30 2966 C 271.707 2.36552 -2.56601 0
M  V30 2967 C 273.055 3.00048 -3.00427 0
M  V30 2968 O 274.079 2.46878 -2.56767 0
M  V30 2969 O 272.938 3.96488 -3.76111 0
M  V30 2970 H 270.032 0.623903 -0.542839 0
M  V30 2971 H 272.578 0.662039 -1.56253 0
M  V30 2972 H 271.35 1.82692 -3.46034 0
M  V30 2973 H 270.973 3.17236 -2.39681 0
M  V30 2974 N 271.97 1.30982 0.876444 0
M  V30 2975 C 272.933 1.18054 1.96459 0
M  V30 2976 C 273.933 0.109399 1.60427 0
M  V30 2977 O 275.123 0.358173 1.70478 0
M  V30 2978 C 272.255 0.810616 3.31122 0
M  V30 2979 H 273.448 2.14735 2.09354 0
M  V30 2980 H 271.001 1.145 1.06392 0
M  V30 2981 H 271.736 -0.155322 3.23928 0
M  V30 2982 H 271.521 1.58481 3.58645 0
M  V30 2983 H 273.011 0.743876 4.10921 0
M  V30 2984 N 273.449 -1.08991 1.13837 0
M  V30 2985 C 274.412 -2.13925 0.822715 0
M  V30 2986 C 275.412 -1.599 -0.1699 0
M  V30 2987 O 276.602 -1.74104 0.0577251 0
M  V30 2988 C 273.734 -3.40155 0.225318 0
M  V30 2989 H 274.927 -2.43358 1.75262 0
M  V30 2990 H 272.48 -1.24603 0.943594 0
M  V30 2991 H 273.215 -3.16352 -0.713594 0
M  V30 2992 H 273 -3.80661 0.940193 0
M  V30 2993 H 274.49 -4.17594 0.0214784 0
M  V30 2994 N 274.927 -0.932562 -1.27047 0
M  V30 2995 C 276.176 -0.571351 -1.93439 0
M  V30 2996 C 276.489 0.892467 -1.74053 0
M  V30 2997 O 277.695 1.36267 -2.34826 0
M  V30 2998 C 276.151 -0.97106 -3.46552 0
M  V30 2999 C 275.759 -2.4559 -3.74686 0
M  V30 3000 C 277.503 -0.681333 -4.18997 0
M  V30 3001 C 275.41 -2.79475 -5.21198 0
M  V30 3002 H 274.34 -0.209966 -0.724176 0
M  V30 3003 H 276.991 -1.13403 -1.44263 0
M  V30 3004 H 275.373 -0.336983 -3.94564 0
M  V30 3005 H 276.547 -3.13829 -3.37414 0
M  V30 3006 H 274.862 -2.71802 -3.15456 0
M  V30 3007 H 277.459 -0.910939 -5.26883 0
M  V30 3008 H 277.802 0.381628 -4.14547 0
M  V30 3009 H 278.335 -1.27473 -3.76823 0
M  V30 3010 H 275.074 -3.847 -5.30741 0
M  V30 3011 H 274.594 -2.1589 -5.596 0
M  V30 3012 H 276.273 -2.67478 -5.89122 0
M  V30 3013 N 276.405 1.4127 -0.698611 0
M  V30 3014 C 277.315 2.34573 -0.0357891 0
M  V30 3015 C 278.331 1.56393 0.762701 0
M  V30 3016 O 279.507 1.8886 0.699564 0
M  V30 3017 C 276.572 3.35159 0.887089 0
M  V30 3018 C 275.633 4.29225 0.0804634 0
M  V30 3019 C 274.866 5.25006 0.959387 0
M  V30 3020 O 275.089 5.26314 2.19886 0
M  V30 3021 O 274.023 6.00519 0.407439 0
M  V30 3022 H 277.849 2.92838 -0.804957 0
M  V30 3023 H 275.434 1.42175 -0.458966 0
M  V30 3024 H 277.316 3.9689 1.41621 0
M  V30 3025 H 275.991 2.79333 1.6357 0
M  V30 3026 H 274.898 3.70833 -0.493328 0
M  V30 3027 H 276.231 4.88157 -0.629547 0
M  V30 3028 N 277.883 0.443576 1.51229 0
M  V30 3029 C 279.111 -0.11929 2.06556 0
M  V30 3030 C 279.526 -1.35921 1.31038 0
M  V30 3031 O 278.883 -1.78675 0.371704 0
M  V30 3032 C 278.934 -0.435228 3.5887 0
M  V30 3033 O 278.655 0.755486 4.31537 0
M  V30 3034 C 280.156 -1.04808 4.30732 0
M  V30 3035 H 277.376 -0.0051584 0.67098 0
M  V30 3036 H 279.92 0.624453 1.94733 0
M  V30 3037 H 278.075 -1.12887 3.70588 0
M  V30 3038 H 278.489 0.483491 5.22267 0
M  V30 3039 H 279.963 -1.2191 5.3837 0
M  V30 3040 H 280.44 -2.03081 3.89429 0
M  V30 3041 H 281.046 -0.393637 4.23474 0
M  V30 3042 N 279.361 -1.56624 0.175154 0
M  V30 3043 C 280.591 -2.01082 -0.474283 0
M  V30 3044 C 280.999 -1.05447 -1.57091 0
M  V30 3045 O 280.342 -0.0480595 -1.83637 0
M  V30 3046 C 280.404 -3.41963 -1.10911 0
M  V30 3047 C 280.068 -4.56742 -0.153666 0
M  V30 3048 C 281.065 -5.16076 0.629448 0
M  V30 3049 C 278.75 -5.02277 -0.0483776 0
M  V30 3050 C 280.744 -6.19377 1.50501 0
M  V30 3051 C 278.431 -6.05427 0.830768 0
M  V30 3052 C 279.429 -6.63849 1.60605 0
M  V30 3053 O 279.117 -7.64998 2.47049 0
M  V30 3054 H 278.849 -0.664261 -0.125432 0
M  V30 3055 H 281.403 -2.03549 0.275163 0
M  V30 3056 H 279.633 -3.36422 -1.90676 0
M  V30 3057 H 281.322 -3.70352 -1.66114 0
M  V30 3058 H 282.088 -4.81776 0.558297 0
M  V30 3059 H 277.967 -4.56513 -0.641611 0
M  V30 3060 H 281.511 -6.64906 2.1106 0
M  V30 3061 H 277.408 -6.39151 0.903107 0
M  V30 3062 H 278.176 -7.82336 2.40607 0
M  V30 3063 N 280.839 0.0985539 -1.57292 0
M  V30 3064 C 281.787 1.1387 -2.02821 0
M  V30 3065 C 282.781 1.41676 -0.928666 0
M  V30 3066 O 283.987 1.41398 -1.11385 0
M  V30 3067 H 280.362 0.384419 -0.646317 0
M  V30 3068 H 282.333 0.728347 -2.89375 0
M  V30 3069 C 281.082 2.45166 -2.46554 0
M  V30 3070 H 280.405 2.24613 -3.3074 0
M  V30 3071 H 281.845 3.16456 -2.8219 0
M  V30 3072 C 280.304 3.09216 -1.33742 0
M  V30 3073 O 280.834 3.96163 -0.66464 0
M  V30 3074 N 279.04 2.69413 -1.08928 0
M  V30 3075 H 278.587 1.98801 -1.63817 0
M  V30 3076 H 278.545 3.12594 -0.336458 0
M  V30 3077 N 282.317 1.53212 0.369288 0
M  V30 3078 C 283.247 1.82365 1.45826 0
M  V30 3079 C 284.228 0.676907 1.56051 0
M  V30 3080 O 285.413 0.926401 1.70679 0
M  V30 3081 C 282.543 2.01023 2.83208 0
M  V30 3082 C 281.497 3.1678 2.8781 0
M  V30 3083 C 280.823 3.20724 4.27832 0
M  V30 3084 C 282.123 4.55447 2.55667 0
M  V30 3085 H 283.817 2.73559 1.21678 0
M  V30 3086 H 281.363 1.3163 0.583911 0
M  V30 3087 H 283.316 2.20001 3.59413 0
M  V30 3088 H 282.04 1.06536 3.08736 0
M  V30 3089 H 280.699 2.97616 2.14056 0
M  V30 3090 H 280.347 2.23882 4.50429 0
M  V30 3091 H 280.047 3.98496 4.31827 0
M  V30 3092 H 281.571 3.41881 5.05915 0
M  V30 3093 H 282.985 4.74611 3.21586 0
M  V30 3094 H 281.382 5.35432 2.70984 0
M  V30 3095 H 282.452 4.60812 1.5093 0
M  V30 3096 N 283.795 -0.628877 1.44509 0
M  V30 3097 C 284.725 -1.75187 1.54376 0
M  V30 3098 C 285.706 -1.65411 0.396618 0
M  V30 3099 O 286.891 -1.84137 0.617031 0
M  V30 3100 C 284.021 -3.13725 1.48976 0
M  V30 3101 C 282.975 -3.38291 2.62189 0
M  V30 3102 C 282.301 -4.76883 2.41841 0
M  V30 3103 C 283.601 -3.30632 4.04326 0
M  V30 3104 H 285.295 -1.67187 2.48373 0
M  V30 3105 H 282.841 -0.802909 1.19538 0
M  V30 3106 H 284.794 -3.92064 1.54478 0
M  V30 3107 H 283.518 -3.22515 0.514961 0
M  V30 3108 H 282.177 -2.62334 2.56079 0
M  V30 3109 H 281.825 -4.82378 1.42548 0
M  V30 3110 H 281.525 -4.94278 3.17747 0
M  V30 3111 H 283.049 -5.57449 2.49165 0
M  V30 3112 H 284.463 -3.98873 4.11793 0
M  V30 3113 H 282.86 -3.59561 4.80454 0
M  V30 3114 H 283.93 -2.28404 4.27738 0
M  V30 3115 N 285.273 -1.31445 -0.869486 0
M  V30 3116 C 286.498 -1.24256 -1.66058 0
M  V30 3117 C 286.923 0.188928 -1.87149 0
M  V30 3118 O 286.281 1.13522 -1.4136 0
M  V30 3119 C 286.329 -1.9924 -3.00559 0
M  V30 3120 O 285.433 -1.33007 -3.90362 0
M  V30 3121 H 284.774 -0.428973 -0.506831 0
M  V30 3122 H 287.304 -1.73521 -1.08404 0
M  V30 3123 H 287.314 -2.08854 -3.50491 0
M  V30 3124 H 285.989 -3.03342 -2.84528 0
M  V30 3125 H 284.566 -1.31848 -3.48813 0
M  V30 3126 N 286.751 1.08385 -1.14413 0
M  V30 3127 C 287.661 2.18856 -0.844951 0
M  V30 3128 C 288.677 1.73121 0.174668 0
M  V30 3129 O 289.853 2.014 0.00312857 0
M  V30 3130 C 286.918 3.45155 -0.32696 0
M  V30 3131 C 285.979 4.05513 -1.40916 0
M  V30 3132 C 285.212 5.25784 -0.915793 0
M  V30 3133 O 285.435 5.69884 0.242651 0
M  V30 3134 O 284.369 5.77545 -1.69487 0
M  V30 3135 H 288.195 2.46919 -1.76818 0
M  V30 3136 H 285.78 1.17524 -0.922411 0
M  V30 3137 H 287.662 4.21377 -0.0440211 0
M  V30 3138 H 286.337 3.18668 0.568539 0
M  V30 3139 H 285.244 3.30879 -1.74556 0
M  V30 3140 H 286.577 4.3625 -2.27919 0
M  V30 3141 N 288.23 0.939286 1.26551 0
M  V30 3142 C 289.646 0.641304 1.46149 0
M  V30 3143 C 289.846 -0.805964 1.84679 0
M  V30 3144 O 288.902 -1.58278 1.96734 0
M  V30 3145 C 290.215 1.6011 2.54529 0
M  V30 3146 C 291.763 1.6106 2.68382 0
M  V30 3147 C 292.238 2.55765 3.79932 0
M  V30 3148 N 293.729 2.5404 3.87322 0
M  V30 3149 C 294.464 3.24004 4.73085 0
M  V30 3150 N 293.96 4.03388 5.63249 0
M  V30 3151 N 295.753 3.12965 4.66914 0
M  V30 3152 H 287.904 1.87478 0.998285 0
M  V30 3153 H 290.167 0.805559 0.499779 0
M  V30 3154 H 289.873 2.63412 2.33039 0
M  V30 3155 H 289.747 1.35171 3.52149 0
M  V30 3156 H 292.134 0.584835 2.89247 0
M  V30 3157 H 292.215 1.90053 1.71212 0
M  V30 3158 H 291.859 3.58458 3.5982 0
M  V30 3159 H 291.789 2.24063 4.76554 0
M  V30 3160 H 294.28 1.96396 3.22858 0
M  V30 3161 H 294.593 4.5373 6.25579 0
M  V30 3162 H 292.938 4.07489 5.63008 0
M  V30 3163 H 296.129 2.50432 3.95476 0
M  V30 3164 H 296.302 3.67759 5.33533 0
M  V30 3165 N 289.708 -1.40897 0.706093 0
M  V30 3166 C 290.954 -2.01849 0.250681 0
M  V30 3167 C 291.309 -1.5496 -1.14041 0
M  V30 3168 O 290.602 -0.755566 -1.76073 0
M  V30 3169 C 290.796 -3.5646 0.259099 0
M  V30 3170 C 290.625 -4.18357 1.64947 0
M  V30 3171 C 289.395 -4.522 2.25485 0
M  V30 3172 C 291.593 -4.43856 2.598 0
M  V30 3173 N 289.575 -4.9944 3.56977 0
M  V30 3174 C 290.946 -4.92986 3.75985 0
M  V30 3175 C 293.001 -4.25882 2.57933 0
M  V30 3176 C 291.704 -5.2603 4.90597 0
M  V30 3177 C 293.73 -4.6002 3.71665 0
M  V30 3178 C 293.092 -5.09331 4.86581 0
M  V30 3179 H 289.191 -0.769843 0.137353 0
M  V30 3180 H 291.775 -1.71278 0.925845 0
M  V30 3181 H 289.946 -3.86481 -0.385592 0
M  V30 3182 H 291.678 -4.04144 -0.21213 0
M  V30 3183 H 288.433 -4.3901 1.77671 0
M  V30 3184 H 288.857 -5.27454 4.24407 0
M  V30 3185 H 293.499 -3.86986 1.70298 0
M  V30 3186 H 291.217 -5.63843 5.78884 0
M  V30 3187 H 294.803 -4.47762 3.71484 0
M  V30 3188 H 293.683 -5.35251 5.73129 0
M  V30 3189 N 291.186 -0.45159 -1.50991 0
M  V30 3190 C 292.433 0.110074 -2.02201 0
M  V30 3191 C 292.761 1.4146 -1.33489 0
M  V30 3192 O 292.016 1.90617 -0.443125 0
M  V30 3193 C 292.315 0.361728 -3.55565 0
M  V30 3194 C 291.981 -0.858717 -4.42648 0
M  V30 3195 C 290.643 -1.19338 -4.66167 0
M  V30 3196 C 292.995 -1.67221 -4.93646 0
M  V30 3197 C 290.323 -2.34195 -5.37931 0
M  V30 3198 C 292.675 -2.8119 -5.6667 0
M  V30 3199 C 291.339 -3.15094 -5.88449 0
M  V30 3200 H 290.609 0.040279 -0.739904 0
M  V30 3201 H 293.256 -0.601696 -1.81802 0
M  V30 3202 H 291.561 1.15554 -3.74372 0
M  V30 3203 H 293.258 0.80996 -3.92735 0
M  V30 3204 H 289.848 -0.58796 -4.24548 0
M  V30 3205 H 294.032 -1.42686 -4.75347 0
M  V30 3206 H 289.288 -2.6076 -5.53005 0
M  V30 3207 H 293.462 -3.44585 -6.05173 0
M  V30 3208 H 291.089 -4.04204 -6.43835 0
M  V30 3209 N 292.664 1.56529 -0.183458 0
M  V30 3210 C 293.892 2.01623 0.464285 0
M  V30 3211 C 294.307 1.06366 1.55986 0
M  V30 3212 O 293.664 0.0665398 1.82379 0
M  V30 3213 C 293.715 3.46475 1.03139 0
M  V30 3214 O 293.436 4.38095 -0.0204675 0
M  V30 3215 C 294.937 4.0703 1.75617 0
M  V30 3216 H 292.157 0.660596 0.117704 0
M  V30 3217 H 294.701 2.02451 -0.288751 0
M  V30 3218 H 292.856 3.46383 1.73486 0
M  V30 3219 H 293.27 5.22973 0.399952 0
M  V30 3220 H 294.744 5.10271 2.10542 0
M  V30 3221 H 295.221 3.49819 2.65563 0
M  V30 3222 H 295.827 4.1086 1.09882 0
M  V30 3223 N 294.142 -0.090211 1.57342 0
M  V30 3224 C 295.092 -1.11557 1.98844 0
M  V30 3225 C 296.076 -1.35503 0.867624 0
M  V30 3226 O 297.268 -1.36113 1.13148 0
M  V30 3227 C 294.397 -2.43446 2.42051 0
M  V30 3228 C 293.483 -2.22853 3.60828 0
M  V30 3229 N 293.874 -1.72141 4.75606 0
M  V30 3230 C 292.172 -2.53401 3.67021 0
M  V30 3231 C 292.873 -1.65932 5.57531 0
M  V30 3232 N 291.849 -2.11323 5.00843 0
M  V30 3233 H 295.651 -0.716499 2.85032 0
M  V30 3234 H 293.165 -0.297567 1.59651 0
M  V30 3235 H 295.162 -3.17644 2.70014 0
M  V30 3236 H 293.822 -2.84087 1.57241 0
M  V30 3237 H 294.833 -1.41268 4.98261 0
M  V30 3238 H 291.51 -2.97532 2.92884 0
M  V30 3239 H 292.9 -1.27733 6.59647 0
M  V30 3240 N 295.62 -1.53406 -0.361157 0
M  V30 3241 C 296.583 -1.79479 -1.42548 0
M  V30 3242 C 297.583 -0.665327 -1.4639 0
M  V30 3243 O 298.773 -0.933549 -1.47073 0
M  V30 3244 C 295.905 -1.92087 -2.8163 0
M  V30 3245 H 297.098 -2.74538 -1.20701 0
M  V30 3246 H 294.651 -1.4455 -0.594546 0
M  V30 3247 H 295.386 -0.991099 -3.08784 0
M  V30 3248 H 295.171 -2.74241 -2.80239 0
M  V30 3249 H 296.661 -2.13836 -3.58697 0
M  V30 3250 N 297.098 0.621204 -1.44841 0
M  V30 3251 C 298.323 1.41244 -1.51871 0
M  V30 3252 C 298.748 1.87519 -0.147764 0
M  V30 3253 O 298.106 1.59334 0.865 0
M  V30 3254 C 298.154 2.60221 -2.49634 0
M  V30 3255 O 297.258 3.60395 -2.00473 0
M  V30 3256 H 296.599 0.42223 -0.512463 0
M  V30 3257 H 299.129 0.757305 -1.90069 0
M  V30 3258 H 299.139 3.0764 -2.67996 0
M  V30 3259 H 297.814 2.25887 -3.4921 0
M  V30 3260 H 296.391 3.19717 -1.91925 0
M  V30 3261 N 298.576 1.31904 0.862503 0
M  V30 3262 C 299.987 1.19803 1.43193 0
M  V30 3263 C 300.338 -0.192567 1.95253 0
M  V30 3264 O 299.463 -1.09081 1.86896 0
M  V30 3265 C 300.058 2.16883 2.60283 0
M  V30 3266 C 298.617 2.08692 3.13248 0
M  V30 3267 C 297.764 2.05691 1.85975 0
M  V30 3268 H 300.715 1.43846 0.670365 0
M  V30 3269 H 300.736 1.76278 3.37204 0
M  V30 3270 H 300.248 3.18083 2.22363 0
M  V30 3271 H 298.349 1.10713 3.55771 0
M  V30 3272 H 298.462 2.9815 3.75025 0
M  V30 3273 H 296.826 1.50814 2.05249 0
M  V30 3274 H 297.609 3.08659 1.50282 0
M  V30 3275 N 300.054 -1.07777 1.14986 0
M  V30 3276 C 301.282 -1.84018 0.945773 0
M  V30 3277 C 301.697 -1.81897 -0.505863 0
M  V30 3278 O 301.054 -1.22726 -1.35072 0
M  V30 3279 C 301.105 -3.31287 1.44677 0
M  V30 3280 O 300.826 -3.33449 2.84154 0
M  V30 3281 C 302.327 -4.24311 1.28355 0
M  V30 3282 H 299.547 -0.580716 0.336169 0
M  V30 3283 H 302.091 -1.36077 1.52654 0
M  V30 3284 H 300.246 -3.76594 0.908625 0
M  V30 3285 H 300.66 -4.25427 3.06777 0
M  V30 3286 H 302.134 -5.2573 1.68261 0
M  V30 3287 H 302.611 -4.38612 0.227184 0
M  V30 3288 H 303.217 -3.84836 1.81056 0
M  V30 3289 N 301.532 -0.945985 -1.26051 0
M  V30 3290 C 302.462 -0.477172 -2.28572 0
M  V30 3291 C 303.443 0.472032 -1.63419 0
M  V30 3292 O 304.628 0.372853 -1.90587 0
M  V30 3293 C 301.758 0.253975 -3.4637 0
M  V30 3294 C 300.712 -0.609135 -4.23643 0
M  V30 3295 C 300.038 0.252252 -5.34105 0
M  V30 3296 C 301.338 -1.8829 -4.8718 0
M  V30 3297 H 303.032 -1.33402 -2.68038 0
M  V30 3298 H 300.578 -0.642904 -1.28852 0
M  V30 3299 H 302.531 0.593016 -4.17207 0
M  V30 3300 H 301.255 1.145 -3.05871 0
M  V30 3301 H 299.914 -0.931138 -3.54578 0
M  V30 3302 H 299.562 1.14278 -4.89846 0
M  V30 3303 H 299.262 -0.32188 -5.86718 0
M  V30 3304 H 300.786 0.586454 -6.07777 0
M  V30 3305 H 302.2 -1.61081 -5.50205 0
M  V30 3306 H 300.597 -2.40199 -5.49931 0
M  V30 3307 H 301.667 -2.59134 -4.09851 0
M  V30 3308 N 303.011 1.40521 -0.713556 0
M  V30 3309 C 304.258 2.00923 -0.25219 0
M  V30 3310 C 304.586 1.56571 1.15395 0
M  V30 3311 O 303.841 0.775874 1.79663 0
M  V30 3312 C 304.14 3.56317 -0.278 0
M  V30 3313 C 303.806 4.20246 -1.63415 0
M  V30 3314 C 302.468 4.37422 -2.00538 0
M  V30 3315 C 304.82 4.55923 -2.52554 0
M  V30 3316 C 302.148 4.87558 -3.2635 0
M  V30 3317 C 304.5 5.07458 -3.77716 0
M  V30 3318 C 303.164 5.22843 -4.14959 0
M  V30 3319 H 302.434 0.735231 -0.0922829 0
M  V30 3320 H 305.081 1.68161 -0.916188 0
M  V30 3321 H 303.386 3.88976 0.469567 0
M  V30 3322 H 305.083 4.00883 0.0967819 0
M  V30 3323 H 301.673 4.07263 -1.33546 0
M  V30 3324 H 305.857 4.42291 -2.25149 0
M  V30 3325 H 301.113 4.97654 -3.55176 0
M  V30 3326 H 305.287 5.34041 -4.4696 0
M  V30 3327 H 302.914 5.61454 -5.12516 0
M  V30 3328 N 304.489 0.459591 1.5075 0
M  V30 3329 C 305.437 -0.354678 2.2988 0
M  V30 3330 C 306.431 -1.00086 1.36672 0
M  V30 3331 O 307.637 -0.933277 1.53915 0
M  V30 3332 H 304.012 -0.13321 0.740107 0
M  V30 3333 H 305.983 0.333269 2.96533 0
M  V30 3334 C 304.732 -1.43073 3.169 0
M  V30 3335 H 304.055 -0.942882 3.88523 0
M  V30 3336 H 305.495 -1.97328 3.75284 0
M  V30 3337 C 303.954 -2.42633 2.33732 0
M  V30 3338 O 304.484 -3.47658 2.01238 0
M  V30 3339 N 302.69 -2.14066 1.9653 0
M  V30 3340 H 302.237 -1.28685 2.23155 0
M  V30 3341 H 302.195 -2.80917 1.41185 0
M  V30 3342 N 305.967 -1.56429 0.191757 0
M  V30 3343 C 306.93 -2.17707 -0.716688 0
M  V30 3344 C 307.93 -1.13061 -1.14341 0
M  V30 3345 O 309.12 -1.38464 -1.05704 0
M  V30 3346 C 306.252 -2.77644 -1.97804 0
M  V30 3347 H 307.445 -2.99342 -0.1829 0
M  V30 3348 H 304.998 -1.56193 -0.0578566 0
M  V30 3349 H 305.733 -1.99799 -2.55443 0
M  V30 3350 H 305.518 -3.54246 -1.68083 0
M  V30 3351 H 307.008 -3.24708 -2.62592 0
M  V30 3352 N 307.445 0.0818655 -1.57387 0
M  V30 3353 C 308.693 0.781368 -1.86384 0
M  V30 3354 C 309.014 1.78618 -0.782342 0
M  V30 3355 O 308.284 1.94976 0.190061 0
M  V30 3356 H 306.864 0.291562 -0.687751 0
M  V30 3357 H 309.526 0.060348 -1.94807 0
M  V30 3358 H 308.622 1.3038 -2.83562 0
M  V30 3359 N 308.923 1.53595 0.353017 0
M  V30 3360 C 310.151 1.74311 1.1146 0
M  V30 3361 C 310.566 0.477854 1.82653 0
M  V30 3362 O 309.923 -0.549977 1.74016 0
M  V30 3363 C 309.974 2.91694 2.13534 0
M  V30 3364 O 309.695 4.13325 1.45238 0
M  V30 3365 C 311.196 3.24384 3.02142 0
M  V30 3366 H 308.416 0.582669 0.332773 0
M  V30 3367 H 310.96 2.00386 0.408107 0
M  V30 3368 H 309.115 2.67977 2.79763 0
M  V30 3369 H 309.529 4.79148 2.13349 0
M  V30 3370 H 311.003 4.09893 3.69718 0
M  V30 3371 H 311.48 2.40282 3.67643 0
M  V30 3372 H 312.086 3.50073 2.41514 0
M  V30 3373 N 310.401 -0.613514 1.45168 0
M  V30 3374 C 311.349 -1.74572 1.53712 0
M  V30 3375 C 312.343 -1.64426 0.407505 0
M  V30 3376 O 313.549 -1.70291 0.583176 0
M  V30 3377 H 309.924 -0.576641 0.48269 0
M  V30 3378 H 311.895 -1.64492 2.48968 0
M  V30 3379 C 310.644 -3.12943 1.51532 0
M  V30 3380 H 309.967 -3.21407 2.37776 0
M  V30 3381 H 311.407 -3.9201 1.61569 0
M  V30 3382 C 309.866 -3.36053 0.238798 0
M  V30 3383 O 310.396 -3.95837 -0.6838 0
M  V30 3384 N 308.602 -2.9028 0.136359 0
M  V30 3385 H 308.149 -2.41811 0.887999 0
M  V30 3386 H 308.107 -3.06116 -0.716944 0
M  V30 3387 N 311.879 -1.3236 -0.855495 0
M  V30 3388 C 313.295 -1.11332 -1.14356 0
M  V30 3389 C 313.495 0.106751 -2.01217 0
M  V30 3390 O 312.551 0.791891 -2.39761 0
M  V30 3391 C 313.864 -2.39237 -1.82171 0
M  V30 3392 C 315.412 -2.44986 -1.9481 0
M  V30 3393 C 315.887 -3.7281 -2.66039 0
M  V30 3394 N 317.378 -3.73787 -2.73565 0
M  V30 3395 C 318.113 -4.69394 -3.29327 0
M  V30 3396 N 317.609 -5.75367 -3.85907 0
M  V30 3397 N 319.402 -4.56893 -3.27423 0
M  V30 3398 H 311.553 -2.10586 -0.277027 0
M  V30 3399 H 313.816 -0.929701 -0.185364 0
M  V30 3400 H 313.522 -3.28431 -1.25802 0
M  V30 3401 H 313.396 -2.50134 -2.82335 0
M  V30 3402 H 315.783 -1.56252 -2.50338 0
M  V30 3403 H 315.864 -2.38043 -0.936448 0
M  V30 3404 H 315.508 -4.61918 -2.11174 0
M  V30 3405 H 315.438 -3.77024 -3.67642 0
M  V30 3406 H 317.929 -2.97189 -2.33424 0
M  V30 3407 H 318.242 -6.44378 -4.26611 0
M  V30 3408 H 316.587 -5.79123 -3.84242 0
M  V30 3409 H 319.778 -3.73269 -2.82467 0
M  V30 3410 H 319.951 -5.31577 -3.7058 0
M  V30 3411 N 313.357 1.07166 -1.15556 0
M  V30 3412 C 314.768 1.6127 -0.940693 0
M  V30 3413 C 315.119 1.89251 0.517551 0
M  V30 3414 O 314.244 1.65937 1.38903 0
M  V30 3415 C 314.839 2.92993 -1.7012 0
M  V30 3416 C 313.398 3.43832 -1.53156 0
M  V30 3417 C 312.545 2.1786 -1.71558 0
M  V30 3418 H 315.496 0.90229 -1.30554 0
M  V30 3419 H 315.517 3.62007 -1.17181 0
M  V30 3420 H 315.029 2.72596 -2.76248 0
M  V30 3421 H 313.13 3.69307 -0.494294 0
M  V30 3422 H 313.243 4.19747 -2.30975 0
M  V30 3423 H 311.607 2.2765 -1.14225 0
M  V30 3424 H 312.39 1.99956 -2.79056 0
M  V30 3425 N 314.835 0.952656 1.25548 0
M  V30 3426 C 315.767 0.428609 2.25157 0
M  V30 3427 C 316.78 -0.454428 1.56329 0
M  V30 3428 O 317.969 -0.263023 1.76552 0
M  V30 3429 C 315.069 -0.401972 3.36508 0
M  V30 3430 C 314.242 0.467601 4.34893 0
M  V30 3431 C 313.301 -0.30445 5.25319 0
M  V30 3432 O 312.327 0.296473 5.68427 0
M  V30 3433 N 313.529 -1.59805 5.5807 0
M  V30 3434 H 316.294 1.28497 2.70756 0
M  V30 3435 H 313.855 0.822798 1.39433 0
M  V30 3436 H 315.847 -0.926134 3.9396 0
M  V30 3437 H 314.417 -1.15918 2.90313 0
M  V30 3438 H 313.637 1.17288 3.76347 0
M  V30 3439 H 314.925 1.06119 4.97611 0
M  V30 3440 H 314.323 -2.10823 5.24948 0
M  V30 3441 H 312.88 -2.06822 6.18116 0
M  V30 3442 N 316.313 -1.40141 0.720998 0
M  V30 3443 C 317.243 -2.33339 0.0867621 0
M  V30 3444 C 318.224 -1.53178 -0.739622 0
M  V30 3445 O 319.409 -1.81625 -0.687449 0
M  V30 3446 C 316.539 -3.37194 -0.831728 0
M  V30 3447 C 315.493 -4.27857 -0.110558 0
M  V30 3448 C 314.819 -5.22294 -1.14513 0
M  V30 3449 C 316.119 -5.11872 1.0385 0
M  V30 3450 H 317.813 -2.86626 0.865219 0
M  V30 3451 H 315.359 -1.37814 0.417516 0
M  V30 3452 H 317.312 -4.01335 -1.28485 0
M  V30 3453 H 316.036 -2.82314 -1.64214 0
M  V30 3454 H 314.695 -3.65176 0.322797 0
M  V30 3455 H 314.343 -4.63717 -1.94874 0
M  V30 3456 H 314.043 -5.83797 -0.667446 0
M  V30 3457 H 315.567 -5.89312 -1.59824 0
M  V30 3458 H 316.981 -5.69436 0.664482 0
M  V30 3459 H 315.378 -5.82445 1.4449 0
M  V30 3460 H 316.448 -4.4753 1.86668 0
M  V30 3461 N 317.792 -0.46758 -1.50504 0
M  V30 3462 C 319.017 0.0886943 -2.0721 0
M  V30 3463 C 319.442 1.33057 -1.32956 0
M  V30 3464 O 318.8 1.77354 -0.376197 0
M  V30 3465 C 318.848 0.359202 -3.58806 0
M  V30 3466 O 317.952 1.44034 -3.8643 0
M  V30 3467 H 317.293 -0.0114349 -0.663902 0
M  V30 3468 H 319.823 -0.657613 -1.93744 0
M  V30 3469 H 319.833 0.600742 -4.03553 0
M  V30 3470 H 318.508 -0.548311 -4.1227 0
M  V30 3471 H 317.085 1.18638 -3.53524 0
M  V30 3472 N 319.27 1.56325 -0.20005 0
M  V30 3473 C 320.495 2.02548 0.44597 0
M  V30 3474 C 320.92 1.07922 1.5406 0
M  V30 3475 O 320.278 0.0635775 1.81188 0
M  V30 3476 C 320.326 3.47175 0.974761 0
M  V30 3477 O 319.43 3.55671 2.08739 0
M  V30 3478 H 318.771 0.655862 0.103638 0
M  V30 3479 H 321.301 2.02201 -0.312381 0
M  V30 3480 H 321.311 3.87067 1.2901 0
M  V30 3481 H 319.986 4.15538 0.17347 0
M  V30 3482 H 318.563 3.27657 1.78032 0
M  V30 3483 N 320.748 -0.0735177 1.57428 0
M  V30 3484 C 321.988 -0.778363 1.89 0
M  V30 3485 C 322.352 -1.7483 0.793634 0
M  V30 3486 O 323.553 -2.49811 0.992367 0
M  V30 3487 C 321.824 -1.46929 3.25802 0
M  V30 3488 S 323.383 -2.20943 3.79117 0
M  V30 3489 H 320.201 -0.258874 0.662197 0
M  V30 3490 H 322.803 -0.0345338 1.95469 0
M  V30 3491 H 321.507 -0.749532 4.03497 0
M  V30 3492 H 321.038 -2.25258 3.22525 0
M  V30 3493 H 323.053 -3.47435 3.54265 0
M  V30 3494 N 322.226 -1.5378 -0.344866 0
M  V30 3495 C 323.473 -1.70963 -1.08526 0
M  V30 3496 C 323.801 -0.472126 -1.88683 0
M  V30 3497 O 323.056 0.546116 -1.87926 0
M  V30 3498 C 323.355 -2.92407 -2.05506 0
M  V30 3499 C 323.021 -4.28066 -1.41671 0
M  V30 3500 C 321.683 -4.64951 -1.2399 0
M  V30 3501 C 324.035 -5.12344 -0.956726 0
M  V30 3502 C 321.363 -5.83733 -0.589277 0
M  V30 3503 C 323.715 -6.3179 -0.320015 0
M  V30 3504 C 322.379 -6.67372 -0.130881 0
M  V30 3505 H 321.649 -0.625598 -0.397124 0
M  V30 3506 H 324.296 -1.87995 -0.36469 0
M  V30 3507 H 322.601 -2.69973 -2.8394 0
M  V30 3508 H 324.298 -3.02895 -2.62784 0
M  V30 3509 H 320.888 -3.99034 -1.56429 0
M  V30 3510 H 325.072 -4.8438 -1.08118 0
M  V30 3511 H 320.328 -6.09877 -0.431344 0
M  V30 3512 H 324.502 -6.96386 0.0445072 0
M  V30 3513 H 322.129 -7.59273 0.375318 0
M  V30 3514 N 323.704 0.605807 -1.45491 0
M  V30 3515 C 324.634 1.72709 -1.57143 0
M  V30 3516 C 325.615 1.6476 -0.422884 0
M  V30 3517 O 326.8 1.83132 -0.646247 0
M  V30 3518 C 323.93 3.11316 -1.53948 0
M  V30 3519 C 322.884 3.34077 -2.67537 0
M  V30 3520 C 322.21 4.72975 -2.49397 0
M  V30 3521 C 323.51 3.24158 -4.09535 0
M  V30 3522 H 325.204 1.63214 -2.51001 0
M  V30 3523 H 322.75 0.78379 -1.208 0
M  V30 3524 H 324.703 3.89557 -1.60696 0
M  V30 3525 H 323.427 3.21655 -0.566205 0
M  V30 3526 H 322.086 2.58227 -2.6022 0
M  V30 3527 H 321.734 4.8005 -1.50205 0
M  V30 3528 H 321.434 4.8916 -3.25571 0
M  V30 3529 H 322.958 5.53414 -2.58002 0
M  V30 3530 H 324.372 3.92271 -4.18086 0
M  V30 3531 H 322.769 3.51872 -4.86113 0
M  V30 3532 H 323.839 2.2157 -4.31317 0
M  V30 3533 N 325.182 1.32811 0.848464 0
M  V30 3534 C 326.112 1.24882 1.97299 0
M  V30 3535 C 327.093 0.131357 1.69592 0
M  V30 3536 O 328.278 0.319553 1.91553 0
M  V30 3537 C 325.408 0.97746 3.33261 0
M  V30 3538 C 324.362 2.05682 3.75338 0
M  V30 3539 C 323.688 1.63777 5.09 0
M  V30 3540 C 324.988 3.47254 3.90144 0
M  V30 3541 H 326.682 2.18966 2.04191 0
M  V30 3542 H 324.228 1.05413 0.981029 0
M  V30 3543 H 326.181 0.908513 4.1149 0
M  V30 3544 H 324.905 0.000980011 3.266 0
M  V30 3545 H 323.564 2.11603 2.99366 0
M  V30 3546 H 323.212 0.648569 4.98801 0
M  V30 3547 H 322.912 2.36 5.38124 0
M  V30 3548 H 324.436 1.5833 5.89715 0
M  V30 3549 H 325.85 3.43888 4.58709 0
M  V30 3550 H 324.247 4.1788 4.30693 0
M  V30 3551 H 325.317 3.86462 2.92874 0
M  V30 3552 N 326.66 -1.06551 1.16123 0
M  V30 3553 C 327.885 -1.83544 0.965735 0
M  V30 3554 C 328.31 -1.81843 -0.481102 0
M  V30 3555 O 327.668 -1.21732 -1.34354 0
M  V30 3556 C 327.716 -3.28169 1.49457 0
M  V30 3557 O 326.82 -4.0643 0.699157 0
M  V30 3558 H 326.161 -0.568026 0.343864 0
M  V30 3559 H 328.691 -1.34362 1.54299 0
M  V30 3560 H 328.701 -3.78992 1.51092 0
M  V30 3561 H 327.376 -3.28722 2.54784 0
M  V30 3562 H 325.953 -3.65216 0.7531 0
M  V30 3563 N 328.138 -0.959301 -1.25041 0
M  V30 3564 C 329.071 -0.427418 -2.24161 0
M  V30 3565 C 330.049 0.493837 -1.54919 0
M  V30 3566 O 331.233 0.427144 -1.83597 0
M  V30 3567 C 328.36 0.383893 -3.36517 0
M  V30 3568 C 327.406 -0.478431 -4.23808 0
M  V30 3569 S 328.239 -1.91353 -5.00144 0
M  V30 3570 C 329.395 -1.11077 -6.15965 0
M  V30 3571 H 329.628 -1.26743 -2.6893 0
M  V30 3572 H 327.161 -0.763714 -1.34189 0
M  V30 3573 H 329.119 0.846039 -4.01687 0
M  V30 3574 H 327.78 1.19878 -2.90324 0
M  V30 3575 H 326.973 0.14406 -5.03794 0
M  V30 3576 H 326.575 -0.87597 -3.63597 0
M  V30 3577 H 328.867 -0.361699 -6.76534 0
M  V30 3578 H 329.81 -1.88472 -6.82557 0
M  V30 3579 H 330.218 -0.638843 -5.60873 0
M  V30 3580 N 329.616 1.39756 -0.72842 0
M  V30 3581 C 330.563 2.30647 -0.0841519 0
M  V30 3582 C 331.533 1.48869 0.7367 0
M  V30 3583 O 332.718 1.77574 0.698015 0
M  V30 3584 C 329.858 3.35165 0.822091 0
M  V30 3585 C 328.971 4.31999 -0.0106663 0
M  V30 3586 C 328.106 5.23585 0.896241 0
M  V30 3587 C 327.145 6.12072 0.0583381 0
M  V30 3588 N 326.282 6.96035 0.920818 0
M  V30 3589 H 331.122 2.85173 -0.864891 0
M  V30 3590 H 328.659 1.40422 -0.438179 0
M  V30 3591 H 330.617 3.94345 1.36189 0
M  V30 3592 H 329.247 2.8211 1.56888 0
M  V30 3593 H 328.299 3.74492 -0.66781 0
M  V30 3594 H 329.611 4.9443 -0.658825 0
M  V30 3595 H 328.765 5.87759 1.50412 0
M  V30 3596 H 327.504 4.61459 1.57819 0
M  V30 3597 H 326.509 5.46916 -0.562389 0
M  V30 3598 H 327.734 6.76261 -0.6203 0
M  V30 3599 H 325.68 6.36485 1.58818 0
M  V30 3600 H 325.597 7.55284 0.32899 0
M  V30 3601 H 326.865 7.64646 1.51447 0
M  V30 3602 N 331.094 0.475555 1.50254 0
M  V30 3603 C 332.371 -0.139685 1.95101 0
M  V30 3604 C 332.751 -1.56555 1.41611 0
M  V30 3605 O 332.099 -2.19956 0.618993 0
M  V30 3606 C 332.309 -0.0784298 3.48912 0
M  V30 3607 C 333.657 -0.265095 4.23772 0
M  V30 3608 O 334.681 -0.154808 3.55863 0
M  V30 3609 O 333.54 -0.488327 5.44314 0
M  V30 3610 H 330.634 -0.109236 0.819754 0
M  V30 3611 H 333.18 0.536276 1.61004 0
M  V30 3612 H 331.952 0.916918 3.80405 0
M  V30 3613 H 331.575 -0.795655 3.89558 0
M  V30 3614 N 332.573 -1.56217 0.208337 0
M  V30 3615 C 333.85 -1.89739 -0.475234 0
M  V30 3616 C 334.23 -1.1238 -1.78701 0
M  V30 3617 O 333.578 -0.228979 -2.2735 0
M  V30 3618 C 333.788 -3.42289 -0.681101 0
M  V30 3619 C 335.136 -4.12789 -0.994507 0
M  V30 3620 O 336.16 -3.47814 -0.768357 0
M  V30 3621 O 335.019 -5.27649 -1.42299 0
M  V30 3622 H 332.113 -0.788478 -0.249461 0
M  V30 3623 H 334.659 -1.67855 0.249538 0
M  V30 3624 H 333.431 -3.90534 0.244722 0
M  V30 3625 H 333.054 -3.69909 -1.45785 0
M  V30 3626 N 334.051 0.0651679 -1.57465 0
M  V30 3627 C 335.276 0.779605 -1.9219 0
M  V30 3628 C 335.701 1.69988 -0.805333 0
M  V30 3629 O 335.059 1.79685 0.241435 0
M  V30 3630 C 335.107 1.54364 -3.2589 0
M  V30 3631 O 334.211 2.65474 -3.1559 0
M  V30 3632 H 333.552 0.212249 -0.629163 0
M  V30 3633 H 336.082 0.0314294 -2.04576 0
M  V30 3634 H 336.092 1.92146 -3.59922 0
M  V30 3635 H 334.767 0.868457 -4.06732 0
M  V30 3636 H 333.344 2.30501 -2.93128 0
M  V30 3637 N 335.529 1.53961 0.336706 0
M  V30 3638 C 336.778 1.70751 1.07363 0
M  V30 3639 C 337.091 0.481061 1.89592 0
M  V30 3640 O 338.297 0.530046 2.66276 0
M  V30 3641 C 336.753 3.01965 1.95818 0
M  V30 3642 C 336.361 4.31971 1.18764 0
M  V30 3643 C 338.105 3.28121 2.69327 0
M  V30 3644 C 336.012 5.54255 2.06289 0
M  V30 3645 H 334.942 0.636292 0.404535 0
M  V30 3646 H 337.593 1.80459 0.332681 0
M  V30 3647 H 335.975 2.86132 2.7376 0
M  V30 3648 H 337.149 4.5853 0.456849 0
M  V30 3649 H 335.464 4.12481 0.569946 0
M  V30 3650 H 338.061 4.16673 3.35094 0
M  V30 3651 H 338.404 2.45426 3.36261 0
M  V30 3652 H 338.937 3.44762 1.98454 0
M  V30 3653 H 335.676 6.39513 1.43885 0
M  V30 3654 H 335.196 5.31935 2.77138 0
M  V30 3655 H 336.875 5.90159 2.65182 0
M  V30 3656 N 337.007 -0.598083 1.45811 0
M  V30 3657 C 337.917 -1.73632 1.57763 0
M  V30 3658 C 338.933 -1.67763 0.461676 0
M  V30 3659 O 340.109 -1.87949 0.723685 0
M  V30 3660 C 337.174 -3.10114 1.55018 0
M  V30 3661 C 336.235 -3.27364 2.77726 0
M  V30 3662 C 335.468 -4.57334 2.75102 0
M  V30 3663 O 335.691 -5.40258 1.8297 0
M  V30 3664 O 334.625 -4.77502 3.66437 0
M  V30 3665 H 338.451 -1.66498 2.53992 0
M  V30 3666 H 336.036 -0.763308 1.28429 0
M  V30 3667 H 337.918 -3.9141 1.56129 0
M  V30 3668 H 336.593 -3.17718 0.619431 0
M  V30 3669 H 335.5 -2.45619 2.82174 0
M  V30 3670 H 336.833 -3.24641 3.69958 0
M  V30 3671 N 338.485 -1.33259 -0.841409 0
M  V30 3672 C 339.733 -1.24326 -1.59334 0
M  V30 3673 C 340.054 0.191564 -1.94057 0
M  V30 3674 O 339.324 1.11967 -1.60749 0
M  V30 3675 H 337.904 -0.457174 -0.590763 0
M  V30 3676 H 340.566 -1.66947 -1.00571 0
M  V30 3677 H 339.662 -1.8352 -2.52442 0
M  V30 3678 N 339.963 1.05934 -1.16686 0
M  V30 3679 C 341.212 1.78188 -0.945085 0
M  V30 3680 C 341.525 1.88338 0.528021 0
M  V30 3681 O 342.731 2.57258 0.867799 0
M  V30 3682 C 341.187 3.20277 -1.64167 0
M  V30 3683 C 340.795 3.18281 -3.15279 0
M  V30 3684 C 342.539 3.97039 -1.502 0
M  V30 3685 C 340.446 4.55112 -3.7766 0
M  V30 3686 H 339.376 0.667866 -0.349959 0
M  V30 3687 H 342.027 1.18794 -1.39858 0
M  V30 3688 H 340.409 3.79952 -1.11589 0
M  V30 3689 H 341.583 2.68167 -3.74731 0
M  V30 3690 H 339.898 2.55018 -3.29173 0
M  V30 3691 H 342.495 4.98194 -1.94183 0
M  V30 3692 H 342.838 4.13845 -0.451461 0
M  V30 3693 H 343.371 3.43894 -1.99954 0
M  V30 3694 H 340.11 4.43512 -4.82677 0
M  V30 3695 H 339.63 5.05406 -3.22994 0
M  V30 3696 H 341.309 5.24064 -3.79428 0
M  V30 3697 N 341.441 0.965919 1.2453 0
M  V30 3698 C 342.671 0.643451 1.96324 0
M  V30 3699 C 343.079 -0.790927 1.71875 0
M  V30 3700 O 342.422 -1.54208 0.998273 0
M  V30 3701 C 342.484 0.836078 3.49643 0
M  V30 3702 C 342.148 2.24975 3.97788 0
M  V30 3703 C 343.145 3.22735 4.07601 0
M  V30 3704 C 340.83 2.57697 4.31158 0
M  V30 3705 C 342.824 4.51303 4.50116 0
M  V30 3706 C 340.511 3.86492 4.73357 0
M  V30 3707 C 341.509 4.83107 4.828 0
M  V30 3708 O 341.197 6.09605 5.24058 0
M  V30 3709 H 340.929 0.239223 0.632257 0
M  V30 3710 H 343.483 1.29587 1.59362 0
M  V30 3711 H 341.713 0.12649 3.86493 0
M  V30 3712 H 343.402 0.512965 4.02646 0
M  V30 3713 H 344.168 2.98783 3.82039 0
M  V30 3714 H 340.047 1.83216 4.23028 0
M  V30 3715 H 343.591 5.26716 4.57401 0
M  V30 3716 H 339.488 4.10245 4.98366 0
M  V30 3717 H 340.256 6.13146 5.42213 0
M  V30 3718 N 342.919 -1.39368 0.735821 0
M  V30 3719 C 344.196 -1.94465 0.210395 0
M  V30 3720 C 344.576 -1.67254 -1.28799 0
M  V30 3721 O 343.924 -1.00123 -2.05396 0
M  V30 3722 C 344.134 -3.4472 0.544897 0
M  V30 3723 C 345.482 -4.21708 0.494689 0
M  V30 3724 O 346.506 -3.52922 0.482136 0
M  V30 3725 O 345.365 -5.44299 0.489947 0
M  V30 3726 H 342.459 -0.826096 0.0386666 0
M  V30 3727 H 345.005 -1.48863 0.814735 0
M  V30 3728 H 343.777 -3.57963 1.58045 0
M  V30 3729 H 343.4 -3.97502 -0.08837 0
M  V30 3730 N 344.397 -0.483516 -1.5 0
M  V30 3731 C 345.625 0.0644831 -2.06799 0
M  V30 3732 C 346.04 1.32399 -1.34596 0
M  V30 3733 O 345.397 1.77626 -0.418946 0
M  V30 3734 C 345.448 0.339927 -3.59898 0
M  V30 3735 O 345.169 -0.869635 -4.29382 0
M  V30 3736 C 346.67 0.933515 -4.33359 0
M  V30 3737 H 343.89 -0.0126333 -0.670881 0
M  V30 3738 H 346.434 -0.675864 -1.93009 0
M  V30 3739 H 344.589 1.03022 -3.7345 0
M  V30 3740 H 345.003 -0.62179 -5.20801 0
M  V30 3741 H 346.477 1.07593 -5.41413 0
M  V30 3742 H 346.954 1.92685 -3.94676 0
M  V30 3743 H 347.56 0.281221 -4.24369 0
M  V30 3744 N 345.875 1.56104 -0.216619 0
M  V30 3745 C 346.805 2.23063 0.690296 0
M  V30 3746 C 347.786 1.20072 1.20485 0
M  V30 3747 O 348.971 1.48643 1.24976 0
M  V30 3748 C 346.101 2.90672 1.90072 0
M  V30 3749 C 345.055 4.00092 1.5202 0
M  V30 3750 C 344.381 4.54972 2.80899 0
M  V30 3751 C 345.681 5.17398 0.71391 0
M  V30 3752 H 347.375 2.99109 0.132038 0
M  V30 3753 H 344.921 1.43866 0.0620664 0
M  V30 3754 H 346.874 3.36204 2.54057 0
M  V30 3755 H 345.598 2.12066 2.48386 0
M  V30 3756 H 344.257 3.55283 0.903839 0
M  V30 3757 H 343.905 3.73102 3.37348 0
M  V30 3758 H 343.605 5.28817 2.56176 0
M  V30 3759 H 345.129 5.0322 3.45836 0
M  V30 3760 H 346.543 5.59342 1.25735 0
M  V30 3761 H 344.94 5.97444 0.563951 0
M  V30 3762 H 346.01 4.84088 -0.280527 0
M  V30 3763 N 347.353 -0.0568162 1.57498 0
M  V30 3764 C 348.3 -1.06591 2.04712 0
M  V30 3765 C 349.27 -1.3758 0.930644 0
M  V30 3766 O 350.455 -1.48392 1.19935 0
M  V30 3767 C 347.595 -2.3701 2.50839 0
M  V30 3768 C 346.708 -2.12421 3.76167 0
M  V30 3769 C 345.843 -3.36511 4.11015 0
M  V30 3770 C 344.882 -3.07353 5.2934 0
M  V30 3771 N 344.019 -4.23816 5.59754 0
M  V30 3772 H 348.859 -0.65631 2.90683 0
M  V30 3773 H 346.396 -0.312481 1.43743 0
M  V30 3774 H 348.354 -3.13175 2.7564 0
M  V30 3775 H 346.984 -2.75744 1.67825 0
M  V30 3776 H 346.036 -1.2688 3.58616 0
M  V30 3777 H 347.348 -1.86894 4.62463 0
M  V30 3778 H 346.502 -4.21062 4.36797 0
M  V30 3779 H 345.241 -3.65128 3.23315 0
M  V30 3780 H 344.246 -2.212 5.03339 0
M  V30 3781 H 345.471 -2.80043 6.1867 0
M  V30 3782 H 343.417 -4.52436 4.75014 0
M  V30 3783 H 343.334 -4.01614 6.40501 0
M  V30 3784 H 344.602 -5.0932 5.90096 0
M  V30 3785 N 348.832 -1.54138 -0.328536 0
M  V30 3786 C 349.764 -1.79509 -1.4251 0
M  V30 3787 C 350.777 -0.67688 -1.48061 0
M  V30 3788 O 351.966 -0.953898 -1.50874 0
M  V30 3789 C 349.066 -1.89337 -2.81078 0
M  V30 3790 C 348.239 -3.19443 -2.98789 0
M  V30 3791 C 347.298 -3.20036 -4.17688 0
M  V30 3792 O 346.324 -3.93697 -4.11086 0
M  V30 3793 N 347.526 -2.43467 -5.26976 0
M  V30 3794 H 350.291 -2.74139 -1.21111 0
M  V30 3795 H 347.852 -1.53373 -0.518499 0
M  V30 3796 H 349.844 -1.87167 -3.58818 0
M  V30 3797 H 348.414 -1.01826 -2.95551 0
M  V30 3798 H 347.634 -3.34614 -2.08391 0
M  V30 3799 H 348.922 -4.05354 -3.07515 0
M  V30 3800 H 348.32 -1.83201 -5.35214 0
M  V30 3801 H 346.877 -2.4708 -6.03154 0
M  V30 3802 N 350.31 0.590341 -1.46126 0
M  V30 3803 C 351.55 1.35995 -1.52593 0
M  V30 3804 C 351.914 1.91243 -0.170368 0
M  V30 3805 O 353.115 2.68576 -0.109775 0
M  V30 3806 C 351.386 2.46465 -2.58823 0
M  V30 3807 S 352.945 3.33953 -2.84641 0
M  V30 3808 H 349.763 0.463425 -0.53922 0
M  V30 3809 H 352.365 0.67944 -1.83314 0
M  V30 3810 H 351.069 2.04256 -3.5596 0
M  V30 3811 H 350.6 3.19297 -2.2981 0
M  V30 3812 H 352.615 4.45094 -2.19331 0
M  V30 3813 N 351.788 1.33704 0.83433 0
M  V30 3814 C 352.751 1.24244 1.92603 0
M  V30 3815 C 353.751 0.160383 1.59998 0
M  V30 3816 O 354.941 0.412228 1.69252 0
M  V30 3817 C 352.073 0.91555 3.28376 0
M  V30 3818 H 353.266 2.21287 2.02416 0
M  V30 3819 H 350.819 1.17827 1.02696 0
M  V30 3820 H 351.554 -0.0521886 3.24258 0
M  V30 3821 H 351.339 1.69811 3.53422 0
M  V30 3822 H 352.829 0.874231 4.08347 0
M  V30 3823 N 353.266 -1.05314 1.17247 0
M  V30 3824 C 354.196 -2.1498 0.911362 0
M  V30 3825 C 355.177 -1.69471 -0.146169 0
M  V30 3826 O 356.362 -1.942 0.003812 0
M  V30 3827 C 353.492 -3.4472 0.422528 0
M  V30 3828 C 352.446 -4.03789 1.4191 0
M  V30 3829 C 351.772 -5.28858 0.788274 0
M  V30 3830 C 353.072 -4.41418 2.7919 0
M  V30 3831 H 354.766 -2.3708 1.82848 0
M  V30 3832 H 352.312 -1.13938 0.880569 0
M  V30 3833 H 354.265 -4.20787 0.227289 0
M  V30 3834 H 352.989 -3.22269 -0.530123 0
M  V30 3835 H 351.648 -3.2979 1.60106 0
M  V30 3836 H 351.296 -5.02709 -0.171173 0
M  V30 3837 H 350.996 -5.69338 1.45353 0
M  V30 3838 H 352.52 -6.07612 0.603282 0
M  V30 3839 H 353.934 -5.08524 2.64719 0
M  V30 3840 H 352.331 -4.92913 3.42282 0
M  V30 3841 H 353.401 -3.51819 3.33693 0
M  V30 3842 N 354.744 -0.972509 -1.24016 0
M  V30 3843 C 355.993 -0.632603 -1.91523 0
M  V30 3844 C 356.306 0.836641 -1.76804 0
M  V30 3845 O 357.512 1.28728 -2.39043 0
M  V30 3846 C 355.968 -1.08082 -3.43287 0
M  V30 3847 C 355.576 -2.57386 -3.66683 0
M  V30 3848 C 357.32 -0.814288 -4.16617 0
M  V30 3849 C 355.227 -2.95915 -5.12043 0
M  V30 3850 H 354.157 -0.232898 -0.717129 0
M  V30 3851 H 356.808 -1.17936 -1.40582 0
M  V30 3852 H 355.19 -0.462339 -3.93292 0
M  V30 3853 H 356.364 -3.24405 -3.27258 0
M  V30 3854 H 354.679 -2.81701 -3.06649 0
M  V30 3855 H 357.276 -1.0781 -5.23718 0
M  V30 3856 H 357.619 0.24955 -4.15551 0
M  V30 3857 H 358.152 -1.39397 -3.72577 0
M  V30 3858 H 354.891 -4.0139 -5.18234 0
M  V30 3859 H 354.411 -2.33584 -5.52448 0
M  V30 3860 H 356.09 -2.86086 -5.80314 0
M  V30 3861 N 356.222 1.38976 -0.743202 0
M  V30 3862 C 357.447 2.05161 -0.303936 0
M  V30 3863 C 357.872 1.55677 1.05576 0
M  V30 3864 O 357.23 0.704131 1.67068 0
M  V30 3865 C 357.278 3.59138 -0.324373 0
M  V30 3866 O 356.382 4.06668 0.685204 0
M  V30 3867 H 355.723 0.649815 -0.136518 0
M  V30 3868 H 358.253 1.77852 -1.01142 0
M  V30 3869 H 358.263 4.07639 -0.171618 0
M  V30 3870 H 356.938 3.94515 -1.31647 0
M  V30 3871 H 355.515 3.69561 0.497913 0
M  V30 3872 N 357.7 0.491464 1.49741 0
M  V30 3873 C 358.647 -0.292027 2.28945 0
M  V30 3874 C 359.617 -0.968973 1.34908 0
M  V30 3875 O 360.802 -0.97748 1.6386 0
M  V30 3876 C 357.942 -1.35617 3.17336 0
M  V30 3877 C 357.055 -0.691957 4.26422 0
M  V30 3878 C 356.19 -1.73572 5.02042 0
M  V30 3879 C 355.229 -1.05286 6.02977 0
M  V30 3880 N 354.366 -2.0404 6.71798 0
M  V30 3881 H 359.206 0.389654 2.95442 0
M  V30 3882 H 356.743 0.204003 1.45679 0
M  V30 3883 H 358.701 -1.98502 3.66951 0
M  V30 3884 H 357.331 -2.00674 2.52844 0
M  V30 3885 H 356.383 0.0499523 3.80367 0
M  V30 3886 H 357.695 -0.153946 4.98562 0
M  V30 3887 H 356.849 -2.43987 5.55478 0
M  V30 3888 H 355.588 -2.30757 4.29654 0
M  V30 3889 H 354.593 -0.334446 5.48782 0
M  V30 3890 H 355.818 -0.487636 6.77347 0
M  V30 3891 H 353.764 -2.60205 6.02187 0
M  V30 3892 H 353.681 -1.55279 7.39881 0
M  V30 3893 H 354.949 -2.73772 7.29842 0
M  V30 3894 N 359.178 -1.55987 0.224894 0
M  V30 3895 C 360.403 -2.03232 -0.41369 0
M  V30 3896 C 360.828 -1.10359 -1.52323 0
M  V30 3897 O 360.186 -0.092395 -1.81064 0
M  V30 3898 C 360.234 -3.48682 -0.919405 0
M  V30 3899 O 359.338 -3.58947 -2.03054 0
M  V30 3900 H 358.679 -0.657428 -0.0931903 0
M  V30 3901 H 361.209 -2.01679 0.34451 0
M  V30 3902 H 361.219 -3.8907 -1.22835 0
M  V30 3903 H 359.894 -4.15761 -0.107339 0
M  V30 3904 H 358.471 -3.30448 -1.72796 0
M  V30 3905 N 360.656 0.0484629 -1.57525 0
M  V30 3906 C 361.619 1.03956 -2.04269 0
M  V30 3907 C 362.619 1.30211 -0.943496 0
M  V30 3908 O 363.809 1.25539 -1.20771 0
M  V30 3909 C 360.941 2.37742 -2.44319 0
M  V30 3910 H 362.134 0.636182 -2.93075 0
M  V30 3911 H 359.687 0.294811 -1.53494 0
M  V30 3912 H 360.422 2.82866 -1.5861 0
M  V30 3913 H 360.207 2.20021 -3.24551 0
M  V30 3914 H 361.697 3.08936 -2.80978 0
M  V30 3915 N 362.134 1.5431 0.320358 0
M  V30 3916 C 363.382 1.72327 1.05583 0
M  V30 3917 C 363.703 0.50149 1.88441 0
M  V30 3918 O 362.973 -0.48448 1.89815 0
M  V30 3919 H 361.553 0.635387 0.3928 0
M  V30 3920 H 364.215 1.91621 0.356019 0
M  V30 3921 H 363.311 2.60426 1.72003 0
M  V30 3922 N 363.613 -0.582584 1.46437 0
M  V30 3923 C 364.861 -1.33814 1.51453 0
M  V30 3924 C 365.182 -1.94277 0.167792 0
M  V30 3925 O 364.452 -1.78566 -0.805677 0
M  V30 3926 H 363.032 -0.496838 0.557818 0
M  V30 3927 H 365.694 -0.682281 1.82568 0
M  V30 3928 H 364.79 -2.14479 2.26728 0
M  V30 3929 N 365.091 -1.34144 -0.827227 0
M  V30 3930 C 366.34 -1.25602 -1.5782 0
M  V30 3931 C 366.653 0.173445 -1.94829 0
M  V30 3932 O 367.859 0.380984 -2.68814 0
M  V30 3933 C 366.315 -2.20151 -2.84713 0
M  V30 3934 C 365.923 -3.68331 -2.55021 0
M  V30 3935 C 367.667 -2.20508 -3.62735 0
M  V30 3936 C 365.574 -4.54762 -3.78082 0
M  V30 3937 H 364.504 -0.466573 -0.592306 0
M  V30 3938 H 367.155 -1.59283 -0.911116 0
M  V30 3939 H 365.537 -1.79417 -3.53023 0
M  V30 3940 H 366.711 -4.17577 -1.94849 0
M  V30 3941 H 365.026 -3.7038 -1.90283 0
M  V30 3942 H 367.623 -2.82306 -4.54101 0
M  V30 3943 H 367.966 -1.20322 -3.98533 0
M  V30 3944 H 368.499 -2.59664 -3.01362 0
M  V30 3945 H 365.238 -5.55867 -3.47407 0
M  V30 3946 H 364.758 -4.10254 -4.37552 0
M  V30 3947 H 366.437 -4.69153 -4.45538 0
M  V30 3948 N 366.569 1.04691 -1.17803 0
M  V30 3949 C 367.817 1.7743 -0.967617 0
M  V30 3950 C 368.138 1.88359 0.504574 0
M  V30 3951 O 367.408 1.40402 1.36617 0
M  V30 3952 H 365.988 0.657242 -0.355024 0
M  V30 3953 H 368.65 1.2638 -1.48371 0
M  V30 3954 H 367.746 2.78924 -1.40027 0
M  V30 3955 N 368.047 0.979072 1.23499 0
M  V30 3956 C 369.293 0.648178 1.92163 0
M  V30 3957 C 369.626 -0.816049 1.76222 0
M  V30 3958 O 368.901 -1.58849 1.12237 0
M  V30 3959 C 369.184 1.03773 3.44824 0
M  V30 3960 C 369.037 2.55948 3.69879 0
M  V30 3961 C 370.356 0.580653 4.36253 0
M  V30 3962 H 367.475 0.236952 0.69787 0
M  V30 3963 H 370.117 1.22012 1.45647 0
M  V30 3964 H 368.267 0.551058 3.84572 0
M  V30 3965 H 369.939 3.12179 3.3962 0
M  V30 3966 H 368.182 2.98641 3.14636 0
M  V30 3967 H 368.853 2.78255 4.76737 0
M  V30 3968 H 371.329 0.998465 4.03943 0
M  V30 3969 H 370.205 0.881663 5.41773 0
M  V30 3970 H 370.466 -0.519052 4.39042 0
M  V30 3971 N 369.525 -1.3858 0.750561 0
M  V30 3972 C 370.488 -2.28836 0.129152 0
M  V30 3973 C 371.488 -1.47045 -0.650714 0
M  V30 3974 O 372.678 -1.6753 -0.477428 0
M  V30 3975 C 369.81 -3.30751 -0.825622 0
M  V30 3976 H 371.003 -2.85294 0.924516 0
M  V30 3977 H 368.556 -1.47489 0.517376 0
M  V30 3978 H 369.291 -2.79378 -1.64677 0
M  V30 3979 H 369.076 -3.91177 -0.268852 0
M  V30 3980 H 370.566 -3.98249 -1.2565 0
M  V30 3981 N 371.003 -0.499398 -1.49478 0
M  V30 3982 C 372.249 0.0457576 -2.02748 0
M  V30 3983 C 372.582 1.36793 -1.37846 0
M  V30 3984 O 371.857 1.87596 -0.513601 0
M  V30 3985 C 372.14 0.199986 -3.59544 0
M  V30 3986 C 371.993 -1.1452 -4.34977 0
M  V30 3987 C 373.312 0.94137 -4.29914 0
M  V30 3988 H 370.431 0.0151552 -0.736844 0
M  V30 3989 H 373.073 -0.650498 -1.78518 0
M  V30 3990 H 371.223 0.793007 -3.8032 0
M  V30 3991 H 372.895 -1.77697 -4.25701 0
M  V30 3992 H 371.138 -1.73488 -3.97598 0
M  V30 3993 H 371.809 -0.990607 -5.43039 0
M  V30 3994 H 374.285 0.43844 -4.13784 0
M  V30 3995 H 373.161 1.01812 -5.39375 0
M  V30 3996 H 373.422 1.98471 -3.95046 0
M  V30 3997 N 372.481 1.55866 -0.233164 0
M  V30 3998 C 373.706 2.03449 0.402906 0
M  V30 3999 C 374.131 1.11166 1.51736 0
M  V30 4000 O 373.489 0.101996 1.81013 0
M  V30 4001 C 373.537 3.49165 0.9009 0
M  V30 4002 O 372.641 3.60019 2.01147 0
M  V30 4003 H 371.982 0.657913 0.0897025 0
M  V30 4004 H 374.512 2.01493 -0.355201 0
M  V30 4005 H 374.522 3.89716 1.2077 0
M  V30 4006 H 373.197 4.15813 0.0852889 0
M  V30 4007 H 371.774 3.3136 1.71042 0
M  V30 4008 N 373.959 -0.0401083 1.57549 0
M  V30 4009 C 375.199 -0.738098 1.90608 0
M  V30 4010 C 375.563 -1.73107 0.830539 0
M  V30 4011 O 376.764 -2.4765 1.04513 0
M  V30 4012 C 375.035 -1.39985 3.28845 0
M  V30 4013 S 376.594 -2.12852 3.83718 0
M  V30 4014 H 373.412 -0.24477 0.667539 0
M  V30 4015 H 376.014 0.00693599 1.95499 0
M  V30 4016 H 374.718 -0.663775 4.04997 0
M  V30 4017 H 374.249 -2.18366 3.2723 0
M  V30 4018 H 376.264 -3.39842 3.61555 0
M  V30 4019 N 375.437 -1.54477 -0.31217 0
M  V30 4020 C 376.686 -1.72438 -1.04633 0
M  V30 4021 C 376.999 -0.511163 -1.88803 0
M  V30 4022 O 378.205 -0.572341 -2.65399 0
M  V30 4023 C 376.661 -3.05043 -1.9099 0
M  V30 4024 C 376.269 -4.33806 -1.11877 0
M  V30 4025 C 378.013 -3.32364 -2.64073 0
M  V30 4026 C 375.92 -5.57467 -1.97445 0
M  V30 4027 H 374.85 -0.642647 -0.394361 0
M  V30 4028 H 377.501 -1.80966 -0.303929 0
M  V30 4029 H 375.883 -2.90451 -2.69173 0
M  V30 4030 H 377.057 -4.59199 -0.383843 0
M  V30 4031 H 375.372 -4.13336 -0.504252 0
M  V30 4032 H 377.969 -4.21951 -3.28423 0
M  V30 4033 H 378.312 -2.50745 -3.32314 0
M  V30 4034 H 378.845 -3.47875 -1.92944 0
M  V30 4035 H 375.584 -6.41722 -1.33692 0
M  V30 4036 H 375.104 -5.36277 -2.6864 0
M  V30 4037 H 376.783 -5.94303 -2.5576 0
M  V30 4038 N 376.915 0.57481 -1.46744 0
M  V30 4039 C 378.331 0.898981 -1.31873 0
M  V30 4040 C 378.531 1.99313 -0.29605 0
M  V30 4041 O 377.587 2.50728 0.298621 0
M  V30 4042 C 378.9 1.30886 -2.7072 0
M  V30 4043 C 380.448 1.42127 -2.78871 0
M  V30 4044 C 380.923 1.86478 -4.18318 0
M  V30 4045 N 382.414 1.93658 -4.20774 0
M  V30 4046 C 383.149 2.29267 -5.2557 0
M  V30 4047 N 382.645 2.63612 -6.40688 0
M  V30 4048 N 384.438 2.29889 -5.1294 0
M  V30 4049 H 376.589 -0.147839 -2.11885 0
M  V30 4050 H 378.852 -0.00347013 -0.947994 0
M  V30 4051 H 378.558 0.578853 -3.46904 0
M  V30 4052 H 378.432 2.26874 -3.01343 0
M  V30 4053 H 380.819 2.14213 -2.0297 0
M  V30 4054 H 380.9 0.443705 -2.51922 0
M  V30 4055 H 380.544 1.14968 -4.94717 0
M  V30 4056 H 380.474 2.85207 -4.42679 0
M  V30 4057 H 382.965 1.69574 -3.37718 0
M  V30 4058 H 383.278 2.89759 -7.16421 0
M  V30 4059 H 381.623 2.61232 -6.44036 0
M  V30 4060 H 384.814 2.02485 -4.22039 0
M  V30 4061 H 384.987 2.57312 -5.94722 0
M  V30 4062 N 378.394 1.34581 0.820102 0
M  V30 4063 C 379.357 1.2628 1.91275 0
M  V30 4064 C 380.357 0.177344 1.59819 0
M  V30 4065 O 381.547 0.430156 1.68806 0
M  V30 4066 C 378.679 0.950327 3.27386 0
M  V30 4067 H 379.872 2.23421 2.00057 0
M  V30 4068 H 377.425 1.1891 1.0144 0
M  V30 4069 H 378.16 -0.0177938 3.24295 0
M  V30 4070 H 377.945 1.73549 3.51601 0
M  V30 4071 H 379.435 0.917492 4.07396 0
M  V30 4072 N 379.872 -1.04064 1.18357 0
M  V30 4073 C 381.1 -1.80916 1.00384 0
M  V30 4074 C 381.515 -1.83414 -0.447738 0
M  V30 4075 O 380.872 -1.26962 -1.31099 0
M  V30 4076 C 380.923 -3.26516 1.55144 0
M  V30 4077 O 380.644 -3.2424 2.94618 0
M  V30 4078 C 382.145 -4.20013 1.41789 0
M  V30 4079 H 379.365 -0.569728 0.354474 0
M  V30 4080 H 381.909 -1.31151 1.56906 0
M  V30 4081 H 380.064 -3.73512 1.02798 0
M  V30 4082 H 380.478 -4.15452 3.20156 0
M  V30 4083 H 381.952 -5.20111 1.84901 0
M  V30 4084 H 382.429 -4.37667 0.36661 0
M  V30 4085 H 383.035 -3.78881 1.93207 0
M  V30 4086 N 381.35 -0.985608 -1.22978 0
M  V30 4087 C 382.598 -0.656087 -1.91154 0
M  V30 4088 C 382.919 0.813561 -1.77218 0
M  V30 4089 O 382.189 1.58244 -1.1548 0
M  V30 4090 H 380.769 -0.239674 -0.707506 0
M  V30 4091 H 383.431 -1.25054 -1.49491 0
M  V30 4092 H 382.527 -0.912253 -2.9847 0
M  V30 4093 N 382.828 1.3818 -0.7579 0
M  V30 4094 C 384.053 2.04827 -0.325679 0
M  V30 4095 C 384.478 1.56788 1.03919 0
M  V30 4096 O 383.836 0.721811 1.66312 0
M  V30 4097 C 383.884 3.58774 -0.362447 0
M  V30 4098 O 382.988 4.07372 0.642033 0
M  V30 4099 H 382.329 0.64833 -0.143402 0
M  V30 4100 H 384.859 1.7677 -1.03023 0
M  V30 4101 H 384.869 4.07434 -0.214844 0
M  V30 4102 H 383.544 3.93096 -1.35824 0
M  V30 4103 H 382.121 3.70068 0.458688 0
M  V30 4104 N 384.306 0.507319 1.49211 0
M  V30 4105 C 385.536 -0.0315292 2.06576 0
M  V30 4106 C 385.944 -1.30791 1.36713 0
M  V30 4107 O 385.287 -1.78324 0.441181 0
M  V30 4108 C 385.349 -0.349104 3.57801 0
M  V30 4109 C 385.013 0.830475 4.49391 0
M  V30 4110 C 386.01 1.72271 4.90529 0
M  V30 4111 C 383.695 1.03107 4.91604 0
M  V30 4112 C 385.689 2.79964 5.72625 0
M  V30 4113 C 383.376 2.11116 5.73475 0
M  V30 4114 C 384.374 2.99379 6.1389 0
M  V30 4115 O 384.062 4.05523 6.94123 0
M  V30 4116 H 383.794 0.0201002 0.675701 0
M  V30 4117 H 386.348 0.705737 1.92895 0
M  V30 4118 H 384.578 -1.14005 3.69513 0
M  V30 4119 H 386.267 -0.827319 3.97379 0
M  V30 4120 H 387.033 1.57958 4.58557 0
M  V30 4121 H 382.912 0.353417 4.59643 0
M  V30 4122 H 386.456 3.48884 6.04091 0
M  V30 4123 H 382.353 2.25421 6.0486 0
M  V30 4124 H 383.121 4.02953 7.1244 0
M  V30 4125 N 385.784 -1.5574 0.241426 0
M  V30 4126 C 387.033 -1.97986 -0.385295 0
M  V30 4127 C 387.346 -1.13267 -1.59468 0
M  V30 4128 O 388.552 -1.45501 -2.2922 0
M  V30 4129 C 387.008 -3.52275 -0.736884 0
M  V30 4130 C 386.616 -4.45726 0.450796 0
M  V30 4131 C 388.36 -4.03189 -1.3281 0
M  V30 4132 C 386.267 -5.91352 0.0756662 0
M  V30 4133 H 385.197 -0.739386 -0.147731 0
M  V30 4134 H 387.848 -1.80308 0.340779 0
M  V30 4135 H 386.23 -3.65628 -1.52094 0
M  V30 4136 H 387.404 -4.44131 1.22819 0
M  V30 4137 H 385.719 -4.05264 0.956573 0
M  V30 4138 H 388.316 -5.09505 -1.62201 0
M  V30 4139 H 388.659 -3.50212 -2.25071 0
M  V30 4140 H 389.192 -3.93141 -0.607069 0
M  V30 4141 H 385.931 -6.48354 0.965272 0
M  V30 4142 H 385.451 -5.96095 -0.665635 0
M  V30 4143 H 387.13 -6.46084 -0.344075 0
M  V30 4144 N 387.262 0.0317525 -1.57568 0
M  V30 4145 C 388.225 1.01783 -2.0536 0
M  V30 4146 C 389.225 1.29203 -0.957253 0
M  V30 4147 O 390.415 1.24251 -1.22095 0
M  V30 4148 C 387.547 2.35137 -2.46827 0
M  V30 4149 H 388.74 0.605062 -2.93733 0
M  V30 4150 H 386.293 0.278514 -1.53799 0
M  V30 4151 H 387.028 2.81168 -1.61602 0
M  V30 4152 H 386.813 2.16566 -3.26866 0
M  V30 4153 H 388.303 3.05938 -2.84239 0
M  V30 4154 N 388.74 1.54641 0.303973 0
M  V30 4155 C 389.988 1.73437 1.0375 0
M  V30 4156 C 390.309 0.521449 1.87899 0
M  V30 4157 O 389.579 -0.46432 1.90318 0
M  V30 4158 H 388.159 0.639518 0.386039 0
M  V30 4159 H 390.821 1.91988 0.335675 0
M  V30 4160 H 389.917 2.62235 1.69231 0
M  V30 4161 N 390.218 -0.567019 1.47046 0
M  V30 4162 C 391.446 -1.35027 1.56765 0
M  V30 4163 C 391.861 -1.8758 0.214316 0
M  V30 4164 O 391.218 -1.64471 -0.790919 0
M  V30 4165 C 391.269 -2.52698 2.58507 0
M  V30 4166 O 390.99 -2.0232 3.88585 0
M  V30 4167 C 392.491 -3.45043 2.78316 0
M  V30 4168 H 389.711 -0.41195 0.529658 0
M  V30 4169 H 392.255 -0.687832 1.92585 0
M  V30 4170 H 390.41 -3.149 2.25648 0
M  V30 4171 H 390.824 -2.79068 4.44096 0
M  V30 4172 H 392.298 -4.2405 3.53391 0
M  V30 4173 H 392.775 -3.97971 1.85784 0
M  V30 4174 H 393.381 -2.88665 3.12334 0
M  V30 4175 N 391.696 -1.35014 -0.812953 0
M  V30 4176 C 392.644 -1.27435 -1.94585 0
M  V30 4177 C 393.638 -0.170494 -1.6854 0
M  V30 4178 O 394.844 -0.336085 -1.76835 0
M  V30 4179 H 391.219 -0.396144 -0.639198 0
M  V30 4180 H 393.19 -2.23158 -1.98098 0
M  V30 4181 C 391.939 -1.05677 -3.31252 0
M  V30 4182 H 391.262 -1.89853 -3.51846 0
M  V30 4183 H 392.702 -1.04413 -4.10943 0
M  V30 4184 C 391.161 0.239615 -3.36047 0
M  V30 4185 O 391.691 1.23759 -3.8216 0
M  V30 4186 N 389.897 0.276186 -2.89285 0
M  V30 4187 H 389.444 -0.53653 -2.51951 0
M  V30 4188 H 389.402 1.14332 -2.92875 0
M  V30 4189 N 393.175 1.03435 -1.18907 0
M  V30 4190 C 394.423 1.76394 -0.986382 0
M  V30 4191 C 394.744 1.88883 0.484567 0
M  V30 4192 O 394.014 1.41843 1.3512 0
M  V30 4193 H 392.594 0.65344 -0.361975 0
M  V30 4194 H 395.256 1.248 -1.49703 0
M  V30 4195 H 394.352 2.77424 -1.42978 0
M  V30 4196 N 394.653 0.992116 1.22453 0
M  V30 4197 C 395.601 0.534644 2.26372 0
M  V30 4198 C 396.595 -0.414293 1.64256 0
M  V30 4199 O 397.801 -0.286899 1.77699 0
M  V30 4200 H 394.176 0.154502 0.735957 0
M  V30 4201 H 396.147 1.42256 2.62309 0
M  V30 4202 C 394.896 -0.135815 3.47435 0
M  V30 4203 H 394.219 0.585311 3.95492 0
M  V30 4204 H 395.659 -0.419374 4.21921 0
M  V30 4205 C 394.118 -1.37089 3.07747 0
M  V30 4206 O 394.648 -2.46629 3.17076 0
M  V30 4207 N 392.854 -1.24585 2.62539 0
M  V30 4208 H 392.401 -0.354542 2.55149 0
M  V30 4209 H 392.359 -2.07327 2.36353 0
M  V30 4210 N 396.131 -1.37776 0.765217 0
M  V30 4211 C 397.356 -2.04651 0.336537 0
M  V30 4212 C 397.781 -1.57337 -1.03086 0
M  V30 4213 O 397.139 -0.730621 -1.65927 0
M  V30 4214 C 397.187 -3.58577 0.381468 0
M  V30 4215 O 396.291 -4.07706 -0.62042 0
M  V30 4216 H 395.632 -0.64756 0.146838 0
M  V30 4217 H 398.162 -1.76221 1.03959 0
M  V30 4218 H 398.172 -4.07314 0.236448 0
M  V30 4219 H 396.847 -3.9237 1.37907 0
M  V30 4220 H 395.424 -3.70306 -0.439056 0
M  V30 4221 N 397.609 -0.515225 -1.4894 0
M  V30 4222 C 398.557 0.269115 -2.31038 0
M  V30 4223 C 399.551 0.949443 -1.40292 0
M  V30 4224 O 400.757 0.87551 -1.57273 0
M  V30 4225 H 397.132 0.10565 -0.744542 0
M  V30 4226 H 399.103 -0.443096 -2.95092 0
M  V30 4227 C 397.852 1.31213 -3.21991 0
M  V30 4228 H 397.175 0.798034 -3.91754 0
M  V30 4229 H 398.615 1.83263 -3.82349 0
M  V30 4230 C 397.074 2.33791 -2.42576 0
M  V30 4231 O 397.604 3.3995 -2.14003 0
M  V30 4232 N 395.81 2.06625 -2.0434 0
M  V30 4233 H 395.357 1.20314 -2.27777 0
M  V30 4234 H 395.315 2.75483 -1.51514 0
M  V30 4235 N 399.087 1.5561 -0.249682 0
M  V30 4236 C 400.335 1.98618 0.373548 0
M  V30 4237 C 400.656 1.13919 1.58264 0
M  V30 4238 O 399.926 0.222637 1.94631 0
M  V30 4239 H 398.506 0.733571 0.141006 0
M  V30 4240 H 401.168 1.91748 -0.349117 0
M  V30 4241 H 400.264 3.04584 0.680796 0
M  V30 4242 N 400.565 -0.0233959 1.57583 0
M  V30 4243 C 401.495 -1.02162 2.09965 0
M  V30 4244 C 402.476 -1.3735 1.00344 0
M  V30 4245 O 403.661 -1.46135 1.27899 0
M  V30 4246 C 400.791 -2.32081 2.58371 0
M  V30 4247 C 399.745 -2.1112 3.72307 0
M  V30 4248 C 399.071 -3.46848 4.06941 0
M  V30 4249 C 400.371 -1.49276 5.00514 0
M  V30 4250 H 402.065 -0.585557 2.93618 0
M  V30 4251 H 399.611 -0.280218 1.41247 0
M  V30 4252 H 401.564 -3.02249 2.93639 0
M  V30 4253 H 400.288 -2.77758 1.71808 0
M  V30 4254 H 398.947 -1.43384 3.37397 0
M  V30 4255 H 398.595 -3.90184 3.17436 0
M  V30 4256 H 398.295 -3.33646 4.83688 0
M  V30 4257 H 399.819 -4.18369 4.44747 0
M  V30 4258 H 401.233 -2.09368 5.33702 0
M  V30 4259 H 399.63 -1.46632 5.8191 0
M  V30 4260 H 400.7 -0.459217 4.82721 0
M  V30 4261 N 402.043 -1.548 -0.295768 0
M  V30 4262 C 403.289 -1.74588 -1.03184 0
M  V30 4263 C 403.622 -0.532962 -1.86744 0
M  V30 4264 O 402.897 0.469872 -1.88739 0
M  V30 4265 C 403.18 -3.03791 -1.93347 0
M  V30 4266 C 403.033 -4.35392 -1.12933 0
M  V30 4267 C 404.352 -3.28892 -2.92435 0
M  V30 4268 H 401.471 -0.635221 -0.373715 0
M  V30 4269 H 404.113 -1.87519 -0.30606 0
M  V30 4270 H 402.263 -2.92898 -2.55232 0
M  V30 4271 H 403.935 -4.58211 -0.532943 0
M  V30 4272 H 402.178 -4.31642 -0.432168 0
M  V30 4273 H 402.849 -5.22074 -1.79284 0
M  V30 4274 H 405.325 -3.39429 -2.4068 0
M  V30 4275 H 404.201 -4.20603 -3.52682 0
M  V30 4276 H 404.462 -2.47437 -3.6637 0
M  V30 4277 N 403.521 0.559213 -1.47345 0
M  V30 4278 C 404.932 1.14134 -1.47751 0
M  V30 4279 C 405.283 1.94834 -0.231103 0
M  V30 4280 O 404.408 2.05957 0.664137 0
M  V30 4281 C 405.003 2.07653 -2.67705 0
M  V30 4282 C 403.562 2.61141 -2.71076 0
M  V30 4283 C 402.709 1.3748 -2.40821 0
M  V30 4284 H 405.66 0.345917 -1.54884 0
M  V30 4285 H 405.681 2.91497 -2.44561 0
M  V30 4286 H 405.193 1.4889 -3.58404 0
M  V30 4287 H 403.294 3.23707 -1.84511 0
M  V30 4288 H 403.407 3.02272 -3.7171 0
M  V30 4289 H 401.771 1.68086 -1.91362 0
M  V30 4290 H 402.554 0.805135 -3.33725 0
M  V30 4291 N 404.999 1.35443 0.805782 0
M  V30 4292 C 405.932 1.22783 1.92353 0
M  V30 4293 C 406.91 0.115543 1.62189 0
M  V30 4294 O 408.094 0.283778 1.86352 0
M  V30 4295 C 405.221 0.890746 3.26777 0
M  V30 4296 C 404.267 2.01519 3.75889 0
M  V30 4297 S 405.1 3.63101 3.93596 0
M  V30 4298 C 406.256 3.31472 5.30921 0
M  V30 4299 H 406.489 2.17394 2.02798 0
M  V30 4300 H 404.022 1.20669 0.963245 0
M  V30 4301 H 405.98 0.703068 4.04434 0
M  V30 4302 H 404.641 -0.0373152 3.14078 0
M  V30 4303 H 403.834 1.7335 4.7325 0
M  V30 4304 H 403.436 2.16124 3.05231 0
M  V30 4305 H 405.728 2.8435 6.1494 0
M  V30 4306 H 406.671 4.28036 5.64084 0
M  V30 4307 H 407.079 2.67221 4.97246 0
M  V30 4308 N 406.477 -1.02803 1.19454 0
M  V30 4309 C 407.407 -2.12999 0.956758 0
M  V30 4310 C 408.388 -1.69743 -0.110188 0
M  V30 4311 O 409.573 -1.94148 0.0450038 0
M  V30 4312 C 406.703 -3.43746 0.495553 0
M  V30 4313 C 405.657 -4.00688 1.50443 0
M  V30 4314 C 404.983 -5.27067 0.900275 0
M  V30 4315 C 406.283 -4.35397 2.8849 0
M  V30 4316 H 407.977 -2.33148 1.87836 0
M  V30 4317 H 405.523 -1.12045 0.904539 0
M  V30 4318 H 407.476 -4.2021 0.316493 0
M  V30 4319 H 406.2 -3.23321 -0.461646 0
M  V30 4320 H 404.859 -3.2632 1.67065 0
M  V30 4321 H 404.507 -5.02959 -0.064503 0
M  V30 4322 H 404.207 -5.66127 1.57397 0
M  V30 4323 H 405.731 -6.06196 0.73203 0
M  V30 4324 H 407.145 -5.02795 2.75446 0
M  V30 4325 H 405.542 -4.85541 3.52661 0
M  V30 4326 H 406.612 -3.44662 3.41081 0
M  V30 4327 N 407.956 -0.998596 -1.21925 0
M  V30 4328 C 409.372 -0.710303 -1.42923 0
M  V30 4329 C 409.572 0.716933 -1.88314 0
M  V30 4330 O 408.628 1.48712 -2.04062 0
M  V30 4331 C 409.941 -1.72072 -2.466 0
M  V30 4332 C 411.489 -1.73681 -2.60392 0
M  V30 4333 C 411.964 -2.73601 -3.67296 0
M  V30 4334 N 413.455 -2.7223 -3.7476 0
M  V30 4335 C 414.19 -3.46206 -4.57087 0
M  V30 4336 N 413.686 -4.29802 -5.43362 0
M  V30 4337 N 415.479 -3.34886 -4.51451 0
M  V30 4338 H 407.63 -1.92028 -0.9077 0
M  V30 4339 H 409.893 -0.828487 -0.460775 0
M  V30 4340 H 409.599 -2.74231 -2.20206 0
M  V30 4341 H 409.473 -1.51818 -3.45299 0
M  V30 4342 H 411.86 -0.722173 -2.86127 0
M  V30 4343 H 411.941 -1.98005 -1.61949 0
M  V30 4344 H 411.585 -3.75217 -3.42307 0
M  V30 4345 H 411.515 -2.46545 -4.65321 0
M  V30 4346 H 414.006 -2.11576 -3.1312 0
M  V30 4347 H 414.319 -4.83061 -6.03218 0
M  V30 4348 H 412.664 -4.33887 -5.42925 0
M  V30 4349 H 415.855 -2.69015 -3.83078 0
M  V30 4350 H 416.028 -3.92796 -5.15379 0
M  V30 4351 N 409.434 1.37368 -0.772513 0
M  V30 4352 C 410.68 1.99969 -0.337681 0
M  V30 4353 C 411.013 1.61184 1.08321 0
M  V30 4354 O 410.288 0.858395 1.74533 0
M  V30 4355 C 410.571 3.56858 -0.482121 0
M  V30 4356 C 410.424 4.0555 -1.94549 0
M  V30 4357 C 411.743 4.39955 0.113143 0
M  V30 4358 H 408.862 0.726464 -0.124171 0
M  V30 4359 H 411.504 1.63034 -0.975699 0
M  V30 4360 H 409.654 3.88452 0.0610361 0
M  V30 4361 H 411.326 3.84518 -2.54841 0
M  V30 4362 H 409.569 3.57715 -2.45403 0
M  V30 4363 H 410.24 5.14587 -1.9976 0
M  V30 4364 H 412.716 4.14623 -0.35031 0
M  V30 4365 H 411.592 5.48897 -0.0180514 0
M  V30 4366 H 411.853 4.25403 1.20354 0
M  V30 4367 N 410.912 0.523116 1.48665 0
M  V30 4368 C 412.142 -0.00961724 2.06598 0
M  V30 4369 C 412.55 -1.29333 1.38093 0
M  V30 4370 O 411.893 -1.77846 0.46007 0
M  V30 4371 C 411.955 -0.311135 3.58151 0
M  V30 4372 C 411.619 0.878092 4.48485 0
M  V30 4373 C 412.616 1.77464 4.88674 0
M  V30 4374 C 410.301 1.08315 4.90483 0
M  V30 4375 C 412.295 2.86021 5.69623 0
M  V30 4376 C 409.982 2.17187 5.71203 0
M  V30 4377 C 410.98 3.05873 6.10681 0
M  V30 4378 O 410.668 4.12862 6.89783 0
M  V30 4379 H 410.4 0.0272658 0.67545 0
M  V30 4380 H 412.954 0.726156 1.92136 0
M  V30 4381 H 411.184 -1.10079 3.70701 0
M  V30 4382 H 412.873 -0.785125 3.98234 0
M  V30 4383 H 413.639 1.62813 4.56855 0
M  V30 4384 H 409.518 0.402149 4.59243 0
M  V30 4385 H 413.062 3.55272 6.00356 0
M  V30 4386 H 408.959 2.31824 6.02435 0
M  V30 4387 H 409.727 4.10487 7.08126 0
M  V30 4388 N 412.39 -1.55475 0.257931 0
M  V30 4389 C 413.338 -2.23244 -0.653076 0
M  V30 4390 C 414.332 -1.22366 -1.17144 0
M  V30 4391 O 415.538 -1.40347 -1.12706 0
M  V30 4392 H 411.913 -0.716247 -0.229117 0
M  V30 4393 H 413.884 -2.98343 -0.0584788 0
M  V30 4394 C 412.633 -2.95401 -1.83395 0
M  V30 4395 H 411.956 -3.72802 -1.44424 0
M  V30 4396 H 413.396 -3.46165 -2.44838 0
M  V30 4397 C 411.855 -1.99895 -2.71189 0
M  V30 4398 O 412.385 -1.53909 -3.71046 0
M  V30 4399 N 410.591 -1.6676 -2.3799 0
M  V30 4400 H 410.138 -2.04352 -1.56837 0
M  V30 4401 H 410.096 -1.03127 -2.97005 0
M  V30 4402 N 413.868 0.0150385 -1.57593 0
M  V30 4403 C 414.816 1.02958 -2.08572 0
M  V30 4404 C 415.81 1.36554 -1.00246 0
M  V30 4405 O 417.016 1.35295 -1.18724 0
M  V30 4406 H 413.391 0.349619 -0.665786 0
M  V30 4407 H 415.362 0.573932 -2.92829 0
M  V30 4408 C 414.111 2.31752 -2.59203 0
M  V30 4409 H 413.434 2.06765 -3.42182 0
M  V30 4410 H 414.874 3.01053 -2.98568 0
M  V30 4411 C 413.333 3.01692 -1.49945 0
M  V30 4412 O 413.863 3.92083 -0.873704 0
M  V30 4413 N 412.069 2.6326 -1.23056 0
M  V30 4414 H 411.616 1.89838 -1.74125 0
M  V30 4415 H 411.574 3.10372 -0.501685 0
M  V30 4416 N 415.346 1.54954 0.287554 0
M  V30 4417 C 416.574 1.78881 1.03967 0
M  V30 4418 C 416.989 0.554894 1.80462 0
M  V30 4419 O 416.346 -0.475676 1.76192 0
M  V30 4420 C 416.397 3.00488 2.0097 0
M  V30 4421 O 416.118 4.19113 1.27577 0
M  V30 4422 C 417.619 3.36907 2.88112 0
M  V30 4423 H 414.839 0.596259 0.307761 0
M  V30 4424 H 417.383 2.01937 0.322749 0
M  V30 4425 H 415.538 2.79601 2.68145 0
M  V30 4426 H 415.952 4.87765 1.92835 0
M  V30 4427 H 417.426 4.25205 3.52001 0
M  V30 4428 H 417.903 2.55659 3.57121 0
M  V30 4429 H 418.509 3.60001 2.26449 0
M  V30 4430 N 416.824 -0.551391 1.4764 0
M  V30 4431 C 417.787 -1.64007 1.60107 0
M  V30 4432 C 418.787 -1.53601 0.47576 0
M  V30 4433 O 419.977 -1.57655 0.740988 0
M  V30 4434 C 417.109 -3.03569 1.55108 0
M  V30 4435 H 418.302 -1.543 2.57161 0
M  V30 4436 H 415.855 -0.771776 1.35917 0
M  V30 4437 H 416.59 -3.18804 0.594519 0
M  V30 4438 H 416.375 -3.12532 2.36783 0
M  V30 4439 H 417.865 -3.82762 1.66982 0
M  V30 4440 N 418.302 -1.35869 -0.798587 0
M  V30 4441 C 419.718 -1.16082 -1.09532 0
M  V30 4442 C 419.918 0.0213124 -2.01489 0
M  V30 4443 O 418.974 0.689488 -2.42904 0
M  V30 4444 C 420.287 -2.46748 -1.7186 0
M  V30 4445 C 421.835 -2.53028 -1.84244 0
M  V30 4446 C 422.31 -3.83758 -2.49988 0
M  V30 4447 N 423.801 -3.85053 -2.57465 0
M  V30 4448 C 424.536 -4.8294 -3.09122 0
M  V30 4449 N 424.032 -5.91217 -3.61157 0
M  V30 4450 N 425.825 -4.70369 -3.0775 0
M  V30 4451 H 417.976 -2.11571 -0.187461 0
M  V30 4452 H 420.239 -0.936726 -0.145765 0
M  V30 4453 H 419.945 -3.33471 -1.11759 0
M  V30 4454 H 419.819 -2.61883 -2.71472 0
M  V30 4455 H 422.206 -1.66729 -2.43486 0
M  V30 4456 H 422.287 -2.418 -0.834643 0
M  V30 4457 H 421.931 -4.70459 -1.91393 0
M  V30 4458 H 421.861 -3.92278 -3.5132 0
M  V30 4459 H 424.352 -3.06822 -2.20609 0
M  V30 4460 H 424.665 -6.61892 -3.98896 0
M  V30 4461 H 423.01 -5.94899 -3.59333 0
M  V30 4462 H 426.201 -3.84914 -2.66381 0
M  V30 4463 H 426.374 -5.46816 -3.47701 0
M  V30 4464 N 419.78 1.02168 -1.19998 0
M  V30 4465 C 421.01 1.79036 -1.031 0
M  V30 4466 C 421.418 1.84409 0.423078 0
M  V30 4467 O 420.761 1.29228 1.30559 0
M  V30 4468 C 420.823 3.25185 -1.53281 0
M  V30 4469 C 420.487 3.43431 -3.01503 0
M  V30 4470 C 421.484 3.33063 -3.99206 0
M  V30 4471 C 419.169 3.69412 -3.40353 0
M  V30 4472 C 421.163 3.48413 -5.33748 0
M  V30 4473 C 418.85 3.84406 -4.75053 0
M  V30 4474 C 419.848 3.7391 -5.71559 0
M  V30 4475 O 419.536 3.88452 -7.03818 0
M  V30 4476 H 419.268 0.570043 -0.363355 0
M  V30 4477 H 421.822 1.29524 -1.59414 0
M  V30 4478 H 420.052 3.75756 -0.913483 0
M  V30 4479 H 421.741 3.83671 -1.32481 0
M  V30 4480 H 422.507 3.12934 -3.70537 0
M  V30 4481 H 418.386 3.76671 -2.65782 0
M  V30 4482 H 421.93 3.40137 -6.09059 0
M  V30 4483 H 417.827 4.04035 -5.03415 0
M  V30 4484 H 418.595 4.055 -7.10993 0
M  V30 4485 N 421.258 1.00505 1.21394 0
M  V30 4486 C 422.504 0.688793 1.90745 0
M  V30 4487 C 422.837 -0.778486 1.77914 0
M  V30 4488 O 422.112 -1.56433 1.15581 0
M  V30 4489 C 422.395 1.11063 3.42545 0
M  V30 4490 C 422.248 2.63737 3.64367 0
M  V30 4491 C 423.567 0.673059 4.34923 0
M  V30 4492 H 420.686 0.251702 0.692687 0
M  V30 4493 H 423.328 1.25074 1.43026 0
M  V30 4494 H 421.478 0.632508 3.83317 0
M  V30 4495 H 423.15 3.19313 3.32922 0
M  V30 4496 H 421.393 3.05248 3.08231 0
M  V30 4497 H 422.064 2.88305 4.70727 0
M  V30 4498 H 424.54 1.08392 4.01734 0
M  V30 4499 H 423.416 0.996383 5.39781 0
M  V30 4500 H 423.677 -0.425808 4.40045 0
M  V30 4501 N 422.737 -1.36956 0.779787 0
M  V30 4502 C 424.014 -1.93697 0.272156 0
M  V30 4503 C 424.394 -1.71267 -1.23413 0
M  V30 4504 O 423.742 -1.06607 -2.02107 0
M  V30 4505 C 423.952 -3.42812 0.654291 0
M  V30 4506 C 425.3 -4.19921 0.628602 0
M  V30 4507 O 426.324 -3.51209 0.594172 0
M  V30 4508 O 425.183 -5.42465 0.662864 0
M  V30 4509 H 422.277 -0.824447 0.0649286 0
M  V30 4510 H 424.823 -1.46196 0.861682 0
M  V30 4511 H 423.595 -3.52754 1.69353 0
M  V30 4512 H 423.218 -3.97582 0.0381369 0
M  V30 4513 N 424.215 -0.530993 -1.48385 0
M  V30 4514 C 425.147 0.268353 -2.27624 0
M  V30 4515 C 426.16 0.903525 -1.35426 0
M  V30 4516 O 427.349 0.781796 -1.60469 0
M  V30 4517 C 424.449 1.39535 -3.08842 0
M  V30 4518 C 423.622 0.861913 -4.28824 0
M  V30 4519 C 422.681 1.87016 -4.91845 0
M  V30 4520 O 421.707 1.4267 -5.5103 0
M  V30 4521 N 422.909 3.20238 -4.84178 0
M  V30 4522 H 425.674 -0.41123 -2.96865 0
M  V30 4523 H 423.235 -0.365387 -1.57723 0
M  V30 4524 H 425.227 2.06803 -3.47871 0
M  V30 4525 H 423.797 1.97859 -2.42014 0
M  V30 4526 H 423.017 0.0132126 -3.94198 0
M  V30 4527 H 424.305 0.484415 -5.06489 0
M  V30 4528 H 423.703 3.58932 -4.37246 0
M  V30 4529 H 422.26 3.83136 -5.27305 0
M  V30 4530 N 425.693 1.55336 -0.266172 0
M  V30 4531 C 426.941 1.99003 0.35246 0
M  V30 4532 C 427.262 1.15591 1.57047 0
M  V30 4533 O 426.532 0.243268 1.94384 0
M  V30 4534 H 425.112 0.735025 0.133217 0
M  V30 4535 H 427.774 1.91367 -0.369434 0
M  V30 4536 H 426.87 3.05289 0.648453 0
M  V30 4537 N 427.171 -0.0066808 1.57599 0
M  V30 4538 C 428.419 -0.691552 1.899 0
M  V30 4539 C 428.74 -1.74682 0.866672 0
M  V30 4540 O 428.01 -1.95661 -0.0968189 0
M  V30 4541 H 426.59 -0.258416 0.700878 0
M  V30 4542 H 429.252 0.0326655 1.94873 0
M  V30 4543 H 428.348 -1.16702 2.8946 0
M  V30 4544 N 428.649 -1.55105 -0.279332 0
M  V30 4545 C 429.597 -1.88333 -1.36505 0
M  V30 4546 C 430.591 -0.759043 -1.51443 0
M  V30 4547 O 431.797 -0.943312 -1.53302 0
M  V30 4548 H 428.172 -0.59766 -0.456406 0
M  V30 4549 H 430.143 -2.79041 -1.05728 0
M  V30 4550 C 428.892 -2.16628 -2.7197 0
M  V30 4551 H 428.215 -3.02624 -2.61264 0
M  V30 4552 H 429.655 -2.43803 -3.46895 0
M  V30 4553 C 428.114 -0.971807 -3.22579 0
M  V30 4554 O 428.644 -0.203228 -4.01186 0
M  V30 4555 N 426.85 -0.771238 -2.80179 0
M  V30 4556 H 426.397 -1.39792 -2.1637 0
M  V30 4557 H 426.355 0.0263667 -3.14389 0
M  V30 4558 N 430.127 0.543554 -1.4793 0
M  V30 4559 C 431.074 1.64942 -1.6144 0
M  V30 4560 C 432.044 1.59692 -0.456903 0
M  V30 4561 O 433.229 1.78321 -0.678688 0
M  V30 4562 C 430.369 3.03238 -1.64744 0
M  V30 4563 C 429.482 3.18823 -2.91506 0
M  V30 4564 C 428.617 4.47599 -2.86057 0
M  V30 4565 C 427.656 4.56664 -4.07584 0
M  V30 4566 N 426.793 5.76811 -4.00292 0
M  V30 4567 H 431.633 1.52733 -2.55884 0
M  V30 4568 H 429.17 0.7438 -1.2691 0
M  V30 4569 H 431.128 3.83339 -1.64641 0
M  V30 4570 H 429.758 3.1425 -0.738017 0
M  V30 4571 H 428.81 2.32064 -3.01414 0
M  V30 4572 H 430.122 3.21384 -3.81463 0
M  V30 4573 H 429.276 5.35975 -2.84281 0
M  V30 4574 H 428.015 4.47538 -1.93807 0
M  V30 4575 H 427.02 3.66697 -4.09651 0
M  V30 4576 H 428.245 4.58474 -5.00978 0
M  V30 4577 H 426.191 5.77673 -3.10853 0
M  V30 4578 H 426.108 5.80808 -4.8394 0
M  V30 4579 H 427.376 6.67512 -4.02553 0
M  V30 4580 N 431.605 1.3629 0.791371 0
M  V30 4581 C 433.021 1.16661 1.08914 0
M  V30 4582 C 433.221 -0.0106266 2.01497 0
M  V30 4583 O 432.277 -0.676596 2.43266 0
M  V30 4584 C 433.59 2.47656 1.70549 0
M  V30 4585 C 435.138 2.54002 1.82899 0
M  V30 4586 C 435.613 3.85078 2.47949 0
M  V30 4587 N 437.104 3.86413 2.5542 0
M  V30 4588 C 437.839 4.84572 3.06557 0
M  V30 4589 N 437.335 5.93124 3.58016 0
M  V30 4590 N 439.128 4.71994 3.05251 0
M  V30 4591 H 431.279 2.11668 0.176238 0
M  V30 4592 H 433.542 0.937486 0.140796 0
M  V30 4593 H 433.248 3.34059 1.09989 0
M  V30 4594 H 433.122 2.63319 2.70079 0
M  V30 4595 H 435.509 1.68018 2.42598 0
M  V30 4596 H 435.59 2.42239 0.821808 0
M  V30 4597 H 435.234 4.71467 1.88895 0
M  V30 4598 H 435.164 3.94135 3.49235 0
M  V30 4599 H 437.655 3.07988 2.18979 0
M  V30 4600 H 437.968 6.63999 3.95381 0
M  V30 4601 H 436.313 5.96796 3.56173 0
M  V30 4602 H 439.504 3.86321 2.64336 0
M  V30 4603 H 439.677 5.48653 3.44796 0
M  V30 4604 N 433.083 -1.0153 1.20538 0
M  V30 4605 C 434.494 -1.56598 1.01657 0
M  V30 4606 C 434.845 -1.91505 -0.426668 0
M  V30 4607 O 433.97 -1.72375 -1.30827 0
M  V30 4608 C 434.565 -2.84542 1.83905 0
M  V30 4609 C 433.124 -3.36133 1.69386 0
M  V30 4610 C 432.271 -2.09427 1.81757 0
M  V30 4611 H 435.222 -0.838974 1.34711 0
M  V30 4612 H 435.243 -3.56004 1.34319 0
M  V30 4613 H 434.755 -2.59105 2.8894 0
M  V30 4614 H 432.856 -3.66528 0.669933 0
M  V30 4615 H 432.969 -4.08248 2.50739 0
M  V30 4616 H 431.333 -2.21941 1.24957 0
M  V30 4617 H 432.116 -1.86414 2.88279 0
M  V30 4618 N 434.561 -1.01147 -1.20859 0
M  V30 4619 C 435.809 -0.696486 -1.89719 0
M  V30 4620 C 436.13 0.775788 -1.78904 0
M  V30 4621 O 435.4 1.55759 -1.18811 0
M  V30 4622 H 433.98 -0.254628 -0.702263 0
M  V30 4623 H 436.642 -1.28197 -1.46804 0
M  V30 4624 H 435.738 -0.975357 -2.96468 0
M  V30 4625 N 436.039 1.36541 -0.78704 0
M  V30 4626 C 437.002 2.28413 -0.189778 0
M  V30 4627 C 438.002 1.48719 0.611499 0
M  V30 4628 O 439.192 1.68737 0.432842 0
M  V30 4629 C 436.324 3.32824 0.737638 0
M  V30 4630 H 437.517 2.82743 -0.999831 0
M  V30 4631 H 435.07 1.46065 -0.556298 0
M  V30 4632 H 435.805 2.83646 1.57212 0
M  V30 4633 H 435.59 3.91752 0.165044 0
M  V30 4634 H 437.08 4.0144 1.15047 0
M  V30 4635 N 437.518 0.538854 1.48102 0
M  V30 4636 C 438.765 0.0080018 2.02498 0
M  V30 4637 C 439.093 -1.33437 1.41509 0
M  V30 4638 O 438.348 -1.87709 0.553507 0
M  V30 4639 C 438.647 -0.153808 3.57069 0
M  V30 4640 C 438.313 1.11533 4.36888 0
M  V30 4641 C 436.975 1.46314 4.58417 0
M  V30 4642 C 439.327 1.95718 4.83057 0
M  V30 4643 C 436.655 2.6516 5.23361 0
M  V30 4644 C 439.007 3.13751 5.49312 0
M  V30 4645 C 437.671 3.48866 5.69077 0
M  V30 4646 H 436.941 0.00292807 0.740994 0
M  V30 4647 H 439.588 0.706668 1.77984 0
M  V30 4648 H 437.893 -0.935309 3.80472 0
M  V30 4649 H 439.59 -0.579607 3.96789 0
M  V30 4650 H 436.18 0.834484 4.20398 0
M  V30 4651 H 440.364 1.70158 4.66219 0
M  V30 4652 H 435.62 2.92558 5.36861 0
M  V30 4653 H 439.794 3.79282 5.84053 0
M  V30 4654 H 437.421 4.41054 6.19173 0
M  V30 4655 N 438.996 -1.55193 0.274407 0
M  V30 4656 C 439.959 -2.212 -0.600279 0
M  V30 4657 C 440.959 -1.18963 -1.08187 0
M  V30 4658 O 442.149 -1.43873 -0.982158 0
M  V30 4659 C 439.281 -2.87739 -1.82809 0
M  V30 4660 H 440.474 -2.9989 -0.0239682 0
M  V30 4661 H 438.027 -1.5628 0.0250192 0
M  V30 4662 H 438.762 -2.13058 -2.44493 0
M  V30 4663 H 438.547 -3.62658 -1.49069 0
M  V30 4664 H 440.037 -3.38171 -2.45011 0
M  V30 4665 N 440.474 -0.00167713 -1.576 0
M  V30 4666 C 441.723 0.682021 -1.89819 0
M  V30 4667 C 442.036 1.74844 -0.876871 0
M  V30 4668 O 443.242 2.48688 -1.08934 0
M  V30 4669 C 441.698 1.26425 -3.36964 0
M  V30 4670 C 441.306 0.232568 -4.47396 0
M  V30 4671 C 443.05 1.92604 -3.78291 0
M  V30 4672 C 440.957 0.824882 -5.85619 0
M  V30 4673 H 439.887 0.258499 -0.708304 0
M  V30 4674 H 442.538 -0.0624957 -1.83394 0
M  V30 4675 H 440.92 2.05949 -3.38232 0
M  V30 4676 H 442.094 -0.5382 -4.57646 0
M  V30 4677 H 440.409 -0.32888 -4.15099 0
M  V30 4678 H 443.006 2.37827 -4.78897 0
M  V30 4679 H 443.349 2.75732 -3.11894 0
M  V30 4680 H 443.882 1.19812 -3.79328 0
M  V30 4681 H 440.621 0.0323542 -6.55492 0
M  V30 4682 H 440.141 1.56477 -5.79029 0
M  V30 4683 H 441.82 1.32301 -6.33329 0
M  V30 4684 N 441.952 1.55251 0.271103 0
M  V30 4685 C 443.182 1.79713 1.01916 0
M  V30 4686 C 443.59 0.571613 1.80359 0
M  V30 4687 O 442.933 -0.468853 1.77616 0
M  V30 4688 C 442.995 2.97138 2.02359 0
M  V30 4689 C 442.659 4.34104 1.42837 0
M  V30 4690 C 443.656 5.13019 0.843071 0
M  V30 4691 C 441.341 4.80765 1.455 0
M  V30 4692 C 443.335 6.36729 0.292333 0
M  V30 4693 C 441.022 6.0443 0.900402 0
M  V30 4694 C 442.02 6.8225 0.32007 0
M  V30 4695 O 441.708 8.03582 -0.226031 0
M  V30 4696 H 441.44 0.602431 0.306681 0
M  V30 4697 H 443.994 2.03097 0.306701 0
M  V30 4698 H 442.224 2.6945 2.77369 0
M  V30 4699 H 443.913 3.08907 2.63309 0
M  V30 4700 H 444.679 4.781 0.815178 0
M  V30 4701 H 440.558 4.20202 1.89609 0
M  V30 4702 H 444.102 6.97414 -0.161274 0
M  V30 4703 H 439.999 6.3883 0.925541 0
M  V30 4704 H 440.767 8.18418 -0.115572 0
M  V30 4705 N 443.43 -0.535701 1.48216 0
M  V30 4706 C 444.36 -1.65014 1.65204 0
M  V30 4707 C 445.341 -1.62554 0.501011 0
M  V30 4708 O 446.526 -1.7984 0.732886 0
M  V30 4709 C 443.656 -3.03616 1.68626 0
M  V30 4710 C 442.61 -3.20932 2.83172 0
M  V30 4711 C 441.936 -4.60537 2.71679 0
M  V30 4712 C 443.236 -3.04249 4.24535 0
M  V30 4713 H 444.93 -1.51053 2.58502 0
M  V30 4714 H 442.476 -0.725262 1.24402 0
M  V30 4715 H 444.429 -3.81446 1.79099 0
M  V30 4716 H 443.153 -3.18587 0.719026 0
M  V30 4717 H 441.812 -2.45517 2.72244 0
M  V30 4718 H 441.46 -4.72336 1.72937 0
M  V30 4719 H 441.16 -4.73069 3.48538 0
M  V30 4720 H 442.684 -5.40475 2.84112 0
M  V30 4721 H 444.098 -3.71877 4.36326 0
M  V30 4722 H 442.495 -3.28278 5.02348 0
M  V30 4723 H 443.565 -2.00739 4.41397 0
M  V30 4724 N 444.908 -1.36708 -0.784132 0
M  V30 4725 C 445.818 -1.3363 -1.92822 0
M  V30 4726 C 446.834 -0.237686 -1.72369 0
M  V30 4727 O 448.01 -0.470962 -1.95816 0
M  V30 4728 C 445.075 -1.13011 -3.27764 0
M  V30 4729 C 444.136 -2.32397 -3.60957 0
M  V30 4730 C 443.369 -2.12752 -4.89461 0
M  V30 4731 O 443.592 -1.10541 -5.59586 0
M  V30 4732 O 442.526 -3.00653 -5.21432 0
M  V30 4733 H 446.352 -2.29964 -1.98369 0
M  V30 4734 H 443.937 -1.1731 -0.925136 0
M  V30 4735 H 445.819 -1.03451 -4.08504 0
M  V30 4736 H 444.494 -0.19743 -3.23097 0
M  V30 4737 H 443.401 -2.47527 -2.80502 0
M  V30 4738 H 444.734 -3.2419 -3.70354 0
M  V30 4739 N 446.386 1.0089 -1.21074 0
M  V30 4740 C 447.797 1.56056 -1.02486 0
M  V30 4741 C 448.148 1.91728 0.416506 0
M  V30 4742 O 447.273 1.73066 1.29912 0
M  V30 4743 C 447.868 2.83563 -1.85411 0
M  V30 4744 C 446.427 3.3523 -1.71166 0
M  V30 4745 C 445.574 2.0846 -1.82865 0
M  V30 4746 H 448.525 0.831818 -1.35154 0
M  V30 4747 H 448.546 3.55286 -1.36205 0
M  V30 4748 H 448.058 2.57569 -2.9031 0
M  V30 4749 H 446.159 3.66167 -0.689361 0
M  V30 4750 H 446.272 4.06913 -2.52901 0
M  V30 4751 H 444.636 2.21275 -1.26132 0
M  V30 4752 H 445.419 1.84883 -2.89263 0
M  V30 4753 N 447.864 1.01787 1.20321 0
M  V30 4754 C 449.11 0.718699 1.90279 0
M  V30 4755 C 449.465 -0.743669 1.77447 0
M  V30 4756 O 448.758 -1.53345 1.14874 0
M  V30 4757 C 448.952 1.09076 3.40349 0
M  V30 4758 C 448.781 2.58775 3.67784 0
M  V30 4759 C 447.551 3.25578 3.86428 0
M  V30 4760 C 449.749 3.56966 3.70243 0
M  V30 4761 N 447.731 4.64495 4.01395 0
M  V30 4762 C 449.102 4.8145 3.90649 0
M  V30 4763 C 451.157 3.5092 3.53213 0
M  V30 4764 C 449.86 6.00619 3.95789 0
M  V30 4765 C 451.886 4.69493 3.59625 0
M  V30 4766 C 451.248 5.92786 3.80505 0
M  V30 4767 H 447.347 0.31468 0.715891 0
M  V30 4768 H 449.931 1.30295 1.44677 0
M  V30 4769 H 448.102 0.534839 3.847 0
M  V30 4770 H 449.834 0.744997 3.97784 0
M  V30 4771 H 446.589 2.76003 3.84862 0
M  V30 4772 H 447.013 5.36624 4.12752 0
M  V30 4773 H 451.655 2.56593 3.36035 0
M  V30 4774 H 449.373 6.95326 4.11762 0
M  V30 4775 H 452.959 4.66432 3.47754 0
M  V30 4776 H 451.839 6.83003 3.85327 0
M  V30 4777 N 449.342 -1.36122 0.79427 0
M  V30 4778 C 450.292 -2.27373 0.169017 0
M  V30 4779 C 451.276 -1.4719 -0.649913 0
M  V30 4780 O 452.468 -1.69518 -0.50919 0
M  V30 4781 C 449.597 -3.36264 -0.691455 0
M  V30 4782 C 448.683 -4.2388 0.13653 0
M  V30 4783 N 449.074 -4.91519 1.19345 0
M  V30 4784 C 447.372 -4.45921 -0.0838499 0
M  V30 4785 C 448.073 -5.56369 1.6979 0
M  V30 4786 N 447.049 -5.34204 1.00634 0
M  V30 4787 H 450.851 -2.77154 0.977897 0
M  V30 4788 H 448.365 -1.49504 0.634208 0
M  V30 4789 H 450.362 -4.00572 -1.15534 0
M  V30 4790 H 449.022 -2.88037 -1.49883 0
M  V30 4791 H 450.033 -4.9334 1.57594 0
M  V30 4792 H 446.71 -4.08518 -0.861341 0
M  V30 4793 H 448.1 -6.20368 2.58055 0
M  V30 4794 N 450.82 -0.546701 -1.47814 0
M  V30 4795 C 451.75 0.195317 -2.32682 0
M  V30 4796 C 452.731 0.918981 -1.43139 0
M  V30 4797 O 453.916 0.901501 -1.72008 0
M  V30 4798 C 451.046 1.23237 -3.247 0
M  V30 4799 C 450 0.625818 -4.234 0
M  V30 4800 C 449.326 1.76674 -5.04669 0
M  V30 4801 C 450.626 -0.413515 -5.2066 0
M  V30 4802 H 452.32 -0.513184 -2.94969 0
M  V30 4803 H 449.866 -0.248241 -1.41844 0
M  V30 4804 H 451.819 1.75955 -3.82907 0
M  V30 4805 H 450.543 1.97067 -2.60446 0
M  V30 4806 H 449.202 0.120023 -3.66403 0
M  V30 4807 H 448.85 2.49383 -4.36826 0
M  V30 4808 H 448.55 1.36673 -5.71484 0
M  V30 4809 H 450.074 2.29738 -5.65732 0
M  V30 4810 H 451.488 0.0272042 -5.73294 0
M  V30 4811 H 449.885 -0.731825 -5.95621 0
M  V30 4812 H 450.955 -1.31325 -4.66778 0
M  V30 4813 N 452.299 1.55045 -0.282633 0
M  V30 4814 C 453.576 1.9179 0.384166 0
M  V30 4815 C 453.956 1.20778 1.73136 0
M  V30 4816 O 453.304 0.33719 2.25998 0
M  V30 4817 C 453.514 3.45149 0.517014 0
M  V30 4818 C 454.862 4.17064 0.796427 0
M  V30 4819 O 455.886 3.51084 0.601535 0
M  V30 4820 O 454.745 5.33837 1.16962 0
M  V30 4821 H 451.839 0.799483 0.211558 0
M  V30 4822 H 454.385 1.66474 -0.32934 0
M  V30 4823 H 453.157 3.88922 -0.430772 0
M  V30 4824 H 452.78 3.76443 1.2797 0
M  V30 4825 N 453.777 0.010035 1.57597 0
M  V30 4826 C 455.026 -0.671945 1.90178 0
M  V30 4827 C 455.339 -1.74376 0.886131 0
M  V30 4828 O 456.545 -2.48107 1.10252 0
M  V30 4829 C 455.001 -1.24636 3.3763 0
M  V30 4830 C 454.609 -0.208838 4.47513 0
M  V30 4831 C 456.353 -1.90595 3.79307 0
M  V30 4832 C 454.26 -0.793814 5.86048 0
M  V30 4833 H 453.19 -0.25474 0.709665 0
M  V30 4834 H 455.841 0.0722206 1.83358 0
M  V30 4835 H 454.223 -2.04152 3.3932 0
M  V30 4836 H 455.397 0.562463 4.57354 0
M  V30 4837 H 453.712 0.350889 4.14919 0
M  V30 4838 H 456.309 -2.35284 4.80151 0
M  V30 4839 H 456.652 -2.74074 3.13352 0
M  V30 4840 H 457.185 -1.17798 3.79958 0
M  V30 4841 H 453.924 0.00240855 6.555 0
M  V30 4842 H 453.444 -1.53404 5.79851 0
M  V30 4843 H 455.123 -1.2894 6.34022 0
M  V30 4844 N 455.255 -1.55392 -0.262866 0
M  V30 4845 C 456.502 -1.76476 -0.993109 0
M  V30 4846 C 456.83 -0.571479 -1.85915 0
M  V30 4847 O 456.085 0.445733 -1.90556 0
M  V30 4848 C 456.384 -3.02889 -1.89718 0
M  V30 4849 C 456.05 -4.34974 -1.18781 0
M  V30 4850 C 454.712 -4.7087 -0.991699 0
M  V30 4851 C 457.064 -5.16695 -0.683798 0
M  V30 4852 C 454.392 -5.86036 -0.279024 0
M  V30 4853 C 456.744 -6.32598 0.0153327 0
M  V30 4854 C 455.408 -6.67127 0.223062 0
M  V30 4855 H 454.678 -0.64577 -0.363404 0
M  V30 4856 H 457.325 -1.89664 -0.264525 0
M  V30 4857 H 455.63 -2.84644 -2.6923 0
M  V30 4858 H 457.327 -3.16399 -2.46359 0
M  V30 4859 H 453.917 -4.06765 -1.35058 0
M  V30 4860 H 458.101 -4.8943 -0.8229 0
M  V30 4861 H 453.357 -6.11306 -0.107456 0
M  V30 4862 H 457.531 -6.95171 0.413584 0
M  V30 4863 H 455.158 -7.56216 0.777265 0
M  V30 4864 N 456.733 0.527833 -1.48498 0
M  V30 4865 C 457.643 1.65907 -1.65867 0
M  V30 4866 C 458.659 1.6537 -0.541192 0
M  V30 4867 O 459.835 1.84282 -0.812534 0
M  V30 4868 C 456.9 3.02364 -1.69637 0
M  V30 4869 C 455.961 3.1374 -2.93028 0
M  V30 4870 C 455.194 4.43688 -2.96609 0
M  V30 4871 O 455.417 5.30913 -2.08538 0
M  V30 4872 O 454.351 4.59475 -3.88802 0
M  V30 4873 H 458.177 1.5419 -2.61647 0
M  V30 4874 H 455.762 0.701163 -1.31924 0
M  V30 4875 H 457.644 3.83515 -1.74625 0
M  V30 4876 H 456.319 3.14401 -0.770312 0
M  V30 4877 H 455.226 2.31877 -2.93571 0
M  V30 4878 H 456.559 3.06621 -3.85026 0
M  V30 4879 N 458.211 1.37122 0.776871 0
M  V30 4880 C 459.458 1.32047 1.53524 0
M  V30 4881 C 459.786 -0.0965631 1.9426 0
M  V30 4882 O 459.041 -1.06866 1.63945 0
M  V30 4883 C 459.34 2.20068 2.81611 0
M  V30 4884 C 459.006 3.68423 2.59953 0
M  V30 4885 C 457.668 4.08854 2.53755 0
M  V30 4886 C 460.02 4.62431 2.40431 0
M  V30 4887 C 457.348 5.41417 2.26018 0
M  V30 4888 C 459.7 5.95225 2.14219 0
M  V30 4889 C 458.364 6.34767 2.06462 0
M  V30 4890 H 457.634 0.483196 0.561785 0
M  V30 4891 H 460.281 1.69284 0.895268 0
M  V30 4892 H 458.586 1.75809 3.50141 0
M  V30 4893 H 460.283 2.13458 3.39465 0
M  V30 4894 H 456.873 3.36354 2.65638 0
M  V30 4895 H 461.057 4.32057 2.44213 0
M  V30 4896 H 456.313 5.71022 2.18504 0
M  V30 4897 H 460.487 6.67626 1.98112 0
M  V30 4898 H 458.114 7.37413 1.84733 0
M  V30 4899 N 459.689 -1.00246 1.21608 0
M  V30 4900 C 460.619 -2.10921 1.00172 0
M  V30 4901 C 461.6 -1.69938 -0.0741587 0
M  V30 4902 O 462.785 -1.94009 0.0861753 0
M  V30 4903 C 459.915 -3.42618 0.568355 0
M  V30 4904 C 458.869 -3.97407 1.58909 0
M  V30 4905 C 458.195 -5.25038 1.01187 0
M  V30 4906 C 459.495 -4.2918 2.97661 0
M  V30 4907 H 461.189 -2.29112 1.92739 0
M  V30 4908 H 458.735 -1.10101 0.928102 0
M  V30 4909 H 460.688 -4.19444 0.405555 0
M  V30 4910 H 459.412 -3.24227 -0.392961 0
M  V30 4911 H 458.071 -3.22703 1.73949 0
M  V30 4912 H 457.719 -5.02982 0.0421965 0
M  V30 4913 H 457.419 -5.62661 1.6937 0
M  V30 4914 H 458.943 -6.04507 0.860448 0
M  V30 4915 H 460.357 -4.96839 2.86049 0
M  V30 4916 H 458.754 -4.77952 3.6288 0
M  V30 4917 H 459.824 -3.3735 3.48315 0
M  V30 4918 N 461.167 -1.02423 -1.1978 0
M  V30 4919 C 462.444 -0.632802 -1.85081 0
M  V30 4920 C 462.824 0.888745 -1.9148 0
M  V30 4921 O 462.172 1.78357 -1.42832 0
M  V30 4922 C 462.382 -1.28947 -3.24305 0
M  V30 4923 C 463.73 -1.40976 -4.00513 0
M  V30 4924 O 464.754 -1.24628 -3.33686 0
M  V30 4925 O 463.613 -1.67467 -5.20209 0
M  V30 4926 H 460.707 -0.219348 -0.79738 0
M  V30 4927 H 463.253 -1.12209 -1.27307 0
M  V30 4928 H 462.025 -2.3288 -3.14456 0
M  V30 4929 H 461.648 -0.787748 -3.89718 0
M  V30 4930 N 462.645 1.35699 -0.801477 0
M  V30 4931 C 463.575 2.32436 -0.222658 0
M  V30 4932 C 464.556 1.5723 0.649057 0
M  V30 4933 O 465.741 1.85324 0.580387 0
M  V30 4934 C 462.871 3.41469 0.633719 0
M  V30 4935 C 461.825 4.27774 -0.139083 0
M  V30 4936 C 461.151 5.28082 0.838666 0
M  V30 4937 C 462.451 5.04946 -1.33517 0
M  V30 4938 H 464.145 2.81094 -1.03086 0
M  V30 4939 H 461.691 1.35146 -0.497155 0
M  V30 4940 H 463.644 4.08143 1.04868 0
M  V30 4941 H 462.368 2.91408 1.47475 0
M  V30 4942 H 461.027 3.62673 -0.535156 0
M  V30 4943 H 460.675 4.7429 1.67506 0
M  V30 4944 H 460.375 5.86695 0.32594 0
M  V30 4945 H 461.899 5.97628 1.25194 0
M  V30 4946 H 463.313 5.64593 -0.995349 0
M  V30 4947 H 461.71 5.7303 -1.78202 0
M  V30 4948 H 462.78 4.35886 -2.12442 0
M  V30 4949 N 464.123 0.554532 1.47522 0
M  V30 4950 C 465.07 -0.19466 2.29978 0
M  V30 4951 C 466.04 -0.910882 1.38896 0
M  V30 4952 O 467.225 -0.907102 1.67858 0
M  V30 4953 C 464.365 -1.22035 3.22802 0
M  V30 4954 C 463.478 -0.510474 4.28973 0
M  V30 4955 C 462.613 -1.52123 5.08952 0
M  V30 4956 C 461.652 -0.796173 6.069 0
M  V30 4957 N 460.789 -1.75363 6.79847 0
M  V30 4958 H 465.629 0.51461 2.93523 0
M  V30 4959 H 463.166 0.265607 1.44682 0
M  V30 4960 H 465.124 -1.8276 3.7504 0
M  V30 4961 H 463.754 -1.89769 2.61127 0
M  V30 4962 H 462.806 0.211234 3.79813 0
M  V30 4963 H 464.118 0.0576503 4.98767 0
M  V30 4964 H 463.272 -2.20207 5.65326 0
M  V30 4965 H 462.011 -2.12327 4.39054 0
M  V30 4966 H 461.016 -0.101388 5.49707 0
M  V30 4967 H 462.241 -0.199911 6.78806 0
M  V30 4968 H 460.187 -2.3443 6.12682 0
M  V30 4969 H 460.104 -1.23759 7.45801 0
M  V30 4970 H 461.372 -2.4257 7.40797 0
M  V30 4971 N 465.601 -1.54893 0.290851 0
M  V30 4972 C 466.548 -2.23138 -0.58974 0
M  V30 4973 C 467.518 -1.21036 -1.13752 0
M  V30 4974 O 468.703 -1.49626 -1.18392 0
M  V30 4975 C 465.843 -2.96811 -1.76061 0
M  V30 4976 C 464.956 -4.13665 -1.24519 0
M  V30 4977 C 464.091 -4.74944 -2.3791 0
M  V30 4978 C 463.13 -5.83963 -1.83451 0
M  V30 4979 N 462.267 -6.39239 -2.90376 0
M  V30 4980 H 467.107 -2.98 -0.00114915 0
M  V30 4981 H 464.644 -1.47096 0.0112006 0
M  V30 4982 H 466.602 -3.37751 -2.44909 0
M  V30 4983 H 465.232 -2.24344 -2.32098 0
M  V30 4984 H 464.284 -3.77737 -0.449288 0
M  V30 4985 H 465.596 -4.92238 -0.806424 0
M  V30 4986 H 464.75 -5.18684 -3.14724 0
M  V30 4987 H 463.489 -3.95682 -2.85109 0
M  V30 4988 H 462.494 -5.39657 -1.05122 0
M  V30 4989 H 463.719 -6.65103 -1.37169 0
M  V30 4990 H 461.665 -5.62864 -3.36927 0
M  V30 4991 H 461.582 -7.13129 -2.50965 0
M  V30 4992 H 462.85 -6.87637 -3.67118 0
M  V30 4993 N 467.08 -0.0183926 -1.57589 0
M  V30 4994 C 468.028 0.985111 -2.10709 0
M  V30 4995 C 469.022 1.34397 -1.0312 0
M  V30 4996 O 470.228 1.32746 -1.21567 0
M  V30 4997 H 466.603 0.335418 -0.673052 0
M  V30 4998 H 468.574 0.511689 -2.9398 0
M  V30 4999 C 467.323 2.26202 -2.64061 0
M  V30 5000 H 466.646 1.9946 -3.4649 0
M  V30 5001 H 468.086 2.94652 -3.04887 0
M  V30 5002 C 466.545 2.98444 -1.5631 0
M  V30 5003 O 467.075 3.90142 -0.956674 0
M  V30 5004 N 465.281 2.6059 -1.28612 0
M  V30 5005 H 464.828 1.86101 -1.78112 0
M  V30 5006 H 464.786 3.09238 -0.567406 0
M  V30 5007 N 468.558 1.5553 0.254621 0
M  V30 5008 C 469.786 1.81046 1.00149 0
M  V30 5009 C 470.201 0.593047 1.79244 0
M  V30 5010 O 469.558 -0.438196 1.77161 0
M  V30 5011 C 469.609 3.04684 1.94551 0
M  V30 5012 O 469.33 4.21725 1.18658 0
M  V30 5013 C 470.831 3.42943 2.80901 0
M  V30 5014 H 468.051 0.602653 0.295044 0
M  V30 5015 H 470.595 2.02576 0.279842 0
M  V30 5016 H 468.75 2.85226 2.62154 0
M  V30 5017 H 469.164 4.91746 1.82445 0
M  V30 5018 H 470.638 4.32576 3.42902 0
M  V30 5019 H 471.115 2.63176 3.51617 0
M  V30 5020 H 471.721 3.64724 2.18762 0
M  V30 5021 N 470.036 -0.519951 1.48776 0
M  V30 5022 C 471.284 -1.2727 1.56993 0
M  V30 5023 C 471.605 -1.9339 0.25004 0
M  V30 5024 O 470.875 -1.81822 -0.729216 0
M  V30 5025 H 469.455 -0.472732 0.578389 0
M  V30 5026 H 472.117 -0.604234 1.85297 0
M  V30 5027 H 471.213 -2.04669 2.3562 0
M  V30 5028 N 471.514 -1.37532 -0.769588 0
M  V30 5029 C 472.461 -1.3347 -1.88293 0
M  V30 5030 C 473.431 -0.199891 -1.64893 0
M  V30 5031 O 474.616 -0.389594 -1.8678 0
M  V30 5032 C 471.756 -1.14968 -3.25387 0
M  V30 5033 C 470.869 -2.37698 -3.60727 0
M  V30 5034 C 470.004 -2.12051 -4.8704 0
M  V30 5035 C 469.043 -3.30636 -5.15117 0
M  V30 5036 N 468.18 -3.04527 -6.3262 0
M  V30 5037 H 473.02 -2.28658 -1.911 0
M  V30 5038 H 470.557 -1.13622 -0.934257 0
M  V30 5039 H 472.515 -1.02261 -4.04473 0
M  V30 5040 H 471.145 -0.234263 -3.21949 0
M  V30 5041 H 470.197 -2.61137 -2.76608 0
M  V30 5042 H 471.509 -3.26131 -3.77413 0
M  V30 5043 H 470.663 -1.96388 -5.74035 0
M  V30 5044 H 469.402 -1.20959 -4.72462 0
M  V30 5045 H 468.407 -3.46836 -4.26597 0
M  V30 5046 H 469.632 -4.22582 -5.31603 0
M  V30 5047 H 467.578 -2.16067 -6.19396 0
M  V30 5048 H 467.495 -3.86503 -6.49732 0
M  V30 5049 H 468.763 -2.92485 -7.22546 0
M  V30 5050 N 472.992 0.995999 -1.22138 0
M  V30 5051 C 473.902 2.11985 -1.00496 0
M  V30 5052 C 474.918 1.7394 0.0457701 0
M  V30 5053 O 476.094 2.00868 -0.146273 0
M  V30 5054 C 473.159 3.41779 -0.582086 0
M  V30 5055 C 472.22 3.93943 -1.70608 0
M  V30 5056 C 471.453 5.17542 -1.30328 0
M  V30 5057 O 471.676 5.70114 -0.180743 0
M  V30 5058 O 470.61 5.63382 -2.11861 0
M  V30 5059 H 474.436 2.33123 -1.94647 0
M  V30 5060 H 472.021 1.10358 -1.00705 0
M  V30 5061 H 473.903 4.1989 -0.356467 0
M  V30 5062 H 472.578 3.22007 0.330592 0
M  V30 5063 H 471.485 3.17019 -1.98619 0
M  V30 5064 H 472.818 4.18141 -2.59651 0
M  V30 5065 N 474.47 1.03057 1.19235 0
M  V30 5066 C 475.38 0.622922 2.26179 0
M  V30 5067 C 476.396 -0.346113 1.70523 0
M  V30 5068 O 477.572 -0.203572 2.00369 0
M  V30 5069 C 474.637 -0.0182063 3.46695 0
M  V30 5070 C 473.698 0.998546 4.17526 0
M  V30 5071 C 472.931 0.387917 5.32288 0
M  V30 5072 O 473.154 -0.808668 5.64639 0
M  V30 5073 O 472.088 1.1116 5.91546 0
M  V30 5074 H 475.914 1.51363 2.63292 0
M  V30 5075 H 473.499 0.800856 1.26122 0
M  V30 5076 H 475.381 -0.375606 4.19723 0
M  V30 5077 H 474.056 -0.882895 3.11427 0
M  V30 5078 H 472.963 1.40756 3.4661 0
M  V30 5079 H 474.296 1.83366 4.56769 0
M  V30 5080 N 475.948 -1.35272 0.808662 0
M  V30 5081 C 476.88 -2.28507 0.178149 0
M  V30 5082 C 477.893 -1.50377 -0.623754 0
M  V30 5083 O 479.082 -1.72583 -0.455774 0
M  V30 5084 C 476.182 -3.30038 -0.769959 0
M  V30 5085 C 475.355 -4.37398 -0.0139749 0
M  V30 5086 C 474.414 -5.18775 -0.880875 0
M  V30 5087 O 473.44 -5.68236 -0.331059 0
M  V30 5088 N 474.642 -5.37087 -2.20267 0
M  V30 5089 H 477.407 -2.83255 0.979106 0
M  V30 5090 H 474.968 -1.47643 0.664308 0
M  V30 5091 H 476.96 -3.81371 -1.35418 0
M  V30 5092 H 475.53 -2.75789 -1.47171 0
M  V30 5093 H 474.75 -3.86971 0.751468 0
M  V30 5094 H 476.038 -5.06268 0.506965 0
M  V30 5095 H 475.436 -4.9855 -2.67328 0
M  V30 5096 H 473.993 -5.91593 -2.73608 0
M  V30 5097 N 477.426 -0.562348 -1.47226 0
M  V30 5098 C 478.842 -0.222492 -1.58042 0
M  V30 5099 C 479.042 1.27505 -1.56028 0
M  V30 5100 O 478.098 2.05555 -1.46641 0
M  V30 5101 C 479.411 -0.853694 -2.88327 0
M  V30 5102 C 480.959 -0.825397 -3.01921 0
M  V30 5103 C 481.434 -1.43576 -4.34914 0
M  V30 5104 N 482.925 -1.39918 -4.41562 0
M  V30 5105 C 483.66 -1.84103 -5.43041 0
M  V30 5106 N 483.156 -2.36167 -6.51304 0
M  V30 5107 N 484.949 -1.75142 -5.34118 0
M  V30 5108 H 477.1 -1.53525 -1.46778 0
M  V30 5109 H 479.363 -0.640527 -0.698877 0
M  V30 5110 H 479.069 -1.90635 -2.95552 0
M  V30 5111 H 478.943 -0.34977 -3.75575 0
M  V30 5112 H 481.33 0.218583 -2.94289 0
M  V30 5113 H 481.411 -1.36713 -2.16202 0
M  V30 5114 H 481.055 -2.47884 -4.43301 0
M  V30 5115 H 480.985 -0.869427 -5.19373 0
M  V30 5116 H 483.476 -1.0184 -3.63919 0
M  V30 5117 H 483.789 -2.67793 -7.24919 0
M  V30 5118 H 482.134 -2.40181 -6.52179 0
M  V30 5119 H 485.325 -1.34241 -4.48439 0
M  V30 5120 H 485.498 -2.09895 -6.13065 0
M  V30 5121 N 478.904 1.54736 -0.299062 0
M  V30 5122 C 479.867 2.22127 0.565012 0
M  V30 5123 C 480.867 1.20669 1.06281 0
M  V30 5124 O 482.057 1.45417 0.959145 0
M  V30 5125 C 479.189 2.90611 1.78208 0
M  V30 5126 H 480.382 2.99891 -0.0237448 0
M  V30 5127 H 477.935 1.5622 -0.0498788 0
M  V30 5128 H 478.67 2.16921 2.41072 0
M  V30 5129 H 478.455 3.64984 1.43281 0
M  V30 5130 H 479.945 3.42026 2.396 0
M  V30 5131 N 480.382 0.0267497 1.57577 0
M  V30 5132 C 481.798 -0.32962 1.56159 0
M  V30 5133 C 481.998 -1.73059 1.03213 0
M  V30 5134 O 481.054 -2.43233 0.677804 0
M  V30 5135 C 482.367 -0.18039 3.00158 0
M  V30 5136 C 483.915 -0.253334 3.11973 0
M  V30 5137 C 484.39 -0.132921 4.57807 0
M  V30 5138 N 485.881 -0.189979 4.6281 0
M  V30 5139 C 486.616 -0.120554 5.73273 0
M  V30 5140 N 486.112 -0.000180315 6.928 0
M  V30 5141 N 487.905 -0.174369 5.61829 0
M  V30 5142 H 480.056 0.942896 1.90324 0
M  V30 5143 H 482.319 0.3639 0.875375 0
M  V30 5144 H 482.025 0.784576 3.42837 0
M  V30 5145 H 481.899 -0.951565 3.65 0
M  V30 5146 H 484.286 -1.20876 2.69208 0
M  V30 5147 H 484.367 0.548177 2.49857 0
M  V30 5148 H 484.011 0.819073 5.01252 0
M  V30 5149 H 483.941 -0.953264 5.179 0
M  V30 5150 H 486.432 -0.283257 3.76837 0
M  V30 5151 H 486.745 0.0461666 7.72786 0
M  V30 5152 H 485.09 0.034569 6.94991 0
M  V30 5153 H 488.281 -0.266794 4.67339 0
M  V30 5154 H 488.454 -0.116802 6.47895 0
M  V30 5155 N 481.861 -1.55662 -0.24637 0
M  V30 5156 C 483.138 -1.68272 -0.997198 0
M  V30 5157 C 483.518 -0.566785 -2.03349 0
M  V30 5158 O 482.866 0.429688 -2.24424 0
M  V30 5159 C 483.076 -3.08594 -1.63006 0
M  V30 5160 C 484.424 -3.6721 -2.13171 0
M  V30 5161 O 485.448 -3.11397 -1.72946 0
M  V30 5162 O 484.307 -4.65054 -2.87031 0
M  V30 5163 H 481.401 -0.684429 -0.464205 0
M  V30 5164 H 483.947 -1.67993 -0.240114 0
M  V30 5165 H 482.719 -3.81264 -0.880527 0
M  V30 5166 H 482.342 -3.12886 -2.45333 0
M  V30 5167 N 483.339 0.512053 -1.4905 0
M  V30 5168 C 484.269 1.62365 -1.67809 0
M  V30 5169 C 485.25 1.61737 -0.526809 0
M  V30 5170 O 486.435 1.78651 -0.761404 0
M  V30 5171 C 483.565 3.00895 -1.73435 0
M  V30 5172 C 482.519 3.16387 -2.88242 0
M  V30 5173 C 481.845 4.56157 -2.78971 0
M  V30 5174 C 483.145 2.97457 -4.29321 0
M  V30 5175 H 484.839 1.46921 -2.60873 0
M  V30 5176 H 482.385 0.705379 -1.2554 0
M  V30 5177 H 484.338 3.78549 -1.85145 0
M  V30 5178 H 483.062 3.17403 -0.769619 0
M  V30 5179 H 481.721 2.41155 -2.76116 0
M  V30 5180 H 481.369 4.69525 -1.8043 0
M  V30 5181 H 481.069 4.67465 -3.5602 0
M  V30 5182 H 482.593 5.35886 -2.92675 0
M  V30 5183 H 484.007 3.64888 -4.42187 0
M  V30 5184 H 482.404 3.20245 -5.07507 0
M  V30 5185 H 483.474 1.93692 -4.44535 0
M  V30 5186 N 484.817 1.37938 0.762283 0
M  V30 5187 C 486.064 1.33668 1.52115 0
M  V30 5188 C 486.392 -0.0759538 1.94352 0
M  V30 5189 O 485.647 -1.05121 1.6507 0
M  V30 5190 C 485.946 2.23042 2.79261 0
M  V30 5191 C 485.612 3.71159 2.56031 0
M  V30 5192 C 484.274 4.11523 2.49404 0
M  V30 5193 C 486.626 4.64955 2.35513 0
M  V30 5194 C 483.954 5.43784 2.20263 0
M  V30 5195 C 486.306 5.97464 2.07894 0
M  V30 5196 C 484.97 6.36922 1.99718 0
M  V30 5197 H 484.24 0.489127 0.556629 0
M  V30 5198 H 486.887 1.70224 0.877262 0
M  V30 5199 H 485.192 1.79512 3.48256 0
M  V30 5200 H 486.889 2.17047 3.37182 0
M  V30 5201 H 483.479 3.39153 2.62056 0
M  V30 5202 H 487.663 4.34623 2.39617 0
M  V30 5203 H 482.919 5.73307 2.12435 0
M  V30 5204 H 487.093 6.6969 1.91019 0
M  V30 5205 H 484.72 7.39331 1.76902 0
M  V30 5206 N 486.295 -0.989507 1.22664 0
M  V30 5207 C 487.542 -1.72953 1.05325 0
M  V30 5208 C 487.87 -1.90104 -0.411168 0
M  V30 5209 O 487.125 -1.44386 -1.32103 0
M  V30 5210 C 487.424 -3.13649 1.71345 0
M  V30 5211 C 487.09 -3.16403 3.21248 0
M  V30 5212 C 485.752 -3.16862 3.62149 0
M  V30 5213 C 488.104 -3.12428 4.17179 0
M  V30 5214 C 485.432 -3.11051 4.97458 0
M  V30 5215 C 487.784 -3.08159 5.52468 0
M  V30 5216 C 486.448 -3.06935 5.92746 0
M  V30 5217 H 485.718 -0.632881 0.385412 0
M  V30 5218 H 488.365 -1.15863 1.52473 0
M  V30 5219 H 486.67 -3.74069 1.16532 0
M  V30 5220 H 488.367 -3.69658 1.55416 0
M  V30 5221 H 484.957 -3.16798 2.88682 0
M  V30 5222 H 489.141 -3.11221 3.86595 0
M  V30 5223 H 484.397 -3.0845 5.27891 0
M  V30 5224 H 488.571 -3.04039 6.26525 0
M  V30 5225 H 486.198 -3.02186 6.97558 0
M  V30 5226 N 487.773 -1.03688 -1.18687 0
M  V30 5227 C 488.736 -0.629115 -2.20397 0
M  V30 5228 C 489.736 0.311495 -1.57754 0
M  V30 5229 O 490.926 0.0974107 -1.73927 0
M  V30 5230 C 488.058 0.0782231 -3.4081 0
M  V30 5231 H 489.251 -1.52915 -2.57987 0
M  V30 5232 H 486.804 -0.828988 -1.32505 0
M  V30 5233 H 487.539 0.992233 -3.08748 0
M  V30 5234 H 487.324 -0.597776 -3.87517 0
M  V30 5235 H 488.814 0.350156 -4.16129 0
M  V30 5236 N 489.251 1.34841 -0.815825 0
M  V30 5237 C 490.181 2.32187 -0.247298 0
M  V30 5238 C 491.162 1.5791 0.632344 0
M  V30 5239 O 492.347 1.8593 0.560698 0
M  V30 5240 C 489.477 3.42122 0.597466 0
M  V30 5241 C 488.431 4.27602 -0.184446 0
M  V30 5242 C 487.757 5.28942 0.782609 0
M  V30 5243 C 489.057 5.03502 -1.38865 0
M  V30 5244 H 490.751 2.79985 -1.06061 0
M  V30 5245 H 488.297 1.34611 -0.511461 0
M  V30 5246 H 490.25 4.09232 1.00533 0
M  V30 5247 H 488.974 2.92956 1.44376 0
M  V30 5248 H 487.633 3.62085 -0.573592 0
M  V30 5249 H 487.281 4.7604 1.62466 0
M  V30 5250 H 486.981 5.87008 0.263695 0
M  V30 5251 H 488.505 5.98922 1.18848 0
M  V30 5252 H 489.919 5.63506 -1.05518 0
M  V30 5253 H 488.316 5.71108 -1.8427 0
M  V30 5254 H 489.386 4.33608 -2.17054 0
M  V30 5255 N 490.729 0.570148 1.46925 0
M  V30 5256 C 491.975 0.0593124 2.03314 0
M  V30 5257 C 492.33 -1.28139 1.43521 0
M  V30 5258 O 491.623 -1.82411 0.586245 0
M  V30 5259 C 491.817 -0.0780336 3.57315 0
M  V30 5260 C 491.646 1.2478 4.32042 0
M  V30 5261 C 490.416 1.81859 4.7144 0
M  V30 5262 C 492.614 2.16808 4.66368 0
M  V30 5263 N 490.596 3.08313 5.30864 0
M  V30 5264 C 491.967 3.27845 5.2623 0
M  V30 5265 C 494.022 2.16643 4.48297 0
M  V30 5266 C 492.725 4.38832 5.69929 0
M  V30 5267 C 494.751 3.26652 4.93004 0
M  V30 5268 C 494.113 4.36408 5.52926 0
M  V30 5269 H 490.212 0.0641804 0.779362 0
M  V30 5270 H 492.796 0.760285 1.79242 0
M  V30 5271 H 490.967 -0.748151 3.81126 0
M  V30 5272 H 492.699 -0.59211 4.00345 0
M  V30 5273 H 489.454 1.35502 4.53802 0
M  V30 5274 H 489.878 3.72802 5.65108 0
M  V30 5275 H 494.52 1.33065 4.01315 0
M  V30 5276 H 492.238 5.23162 6.15896 0
M  V30 5277 H 495.824 3.27627 4.80782 0
M  V30 5278 H 494.704 5.20127 5.86888 0
M  V30 5279 N 492.207 -1.54576 0.307264 0
M  V30 5280 C 493.456 -1.99442 -0.300976 0
M  V30 5281 C 493.769 -1.19928 -1.5452 0
M  V30 5282 O 494.975 -1.55092 -2.22842 0
M  V30 5283 C 493.431 -3.55084 -0.586809 0
M  V30 5284 C 493.039 -4.43413 0.639438 0
M  V30 5285 C 494.783 -4.0846 -1.1559 0
M  V30 5286 C 492.69 -5.90499 0.326411 0
M  V30 5287 H 491.62 -0.744986 -0.116238 0
M  V30 5288 H 494.271 -1.787 0.416947 0
M  V30 5289 H 492.653 -3.71749 -1.36449 0
M  V30 5290 H 493.827 -4.38522 1.41545 0
M  V30 5291 H 492.142 -4.00842 1.1276 0
M  V30 5292 H 494.739 -5.15926 -1.40445 0
M  V30 5293 H 495.082 -3.59443 -2.10015 0
M  V30 5294 H 495.615 -3.95362 -0.439778 0
M  V30 5295 H 492.354 -6.43676 1.23939 0
M  V30 5296 H 491.874 -5.98382 -0.412212 0
M  V30 5297 H 493.553 -6.46962 -0.0697393 0
M  V30 5298 N 493.685 -0.035106 -1.57561 0
M  V30 5299 C 495.096 0.502885 -1.798 0
M  V30 5300 C 495.447 1.71892 -0.945921 0
M  V30 5301 O 494.572 2.15822 -0.157991 0
M  V30 5302 C 495.167 0.919097 -3.26095 0
M  V30 5303 C 493.726 1.40216 -3.49308 0
M  V30 5304 C 492.873 0.369709 -2.74824 0
M  V30 5305 H 495.824 -0.261102 -1.56537 0
M  V30 5306 H 495.845 1.78308 -3.36135 0
M  V30 5307 H 495.357 0.0338526 -3.88085 0
M  V30 5308 H 493.458 2.30714 -2.92578 0
M  V30 5309 H 493.571 1.40541 -4.58023 0
M  V30 5310 H 491.935 0.839113 -2.40481 0
M  V30 5311 H 492.718 -0.507173 -3.39533 0
M  V30 5312 N 495.163 1.55791 0.238111 0
M  V30 5313 C 496.44 1.68798 0.98826 0
M  V30 5314 C 496.82 0.577562 2.03045 0
M  V30 5315 O 496.168 -0.41778 2.24648 0
M  V30 5316 C 496.378 3.09454 1.61367 0
M  V30 5317 C 497.726 3.68335 2.11221 0
M  V30 5318 O 498.75 3.1231 1.71292 0
M  V30 5319 O 497.609 4.6657 2.84561 0
M  V30 5320 H 494.703 0.686881 0.460568 0
M  V30 5321 H 497.249 1.68118 0.231202 0
M  V30 5322 H 496.021 3.81726 0.860295 0
M  V30 5323 H 495.644 3.14182 2.4367 0
M  V30 5324 N 496.642 -0.504142 1.49319 0
M  V30 5325 C 497.572 -1.61473 1.68667 0
M  V30 5326 C 498.553 -1.61455 0.535378 0
M  V30 5327 O 499.738 -1.78245 0.770868 0
M  V30 5328 C 496.868 -2.99971 1.75028 0
M  V30 5329 C 495.822 -3.14854 2.89916 0
M  V30 5330 C 495.148 -4.54671 2.81387 0
M  V30 5331 C 496.448 -2.95176 4.30893 0
M  V30 5332 H 498.142 -1.45535 2.61648 0
M  V30 5333 H 495.688 -0.698711 1.25913 0
M  V30 5334 H 497.641 -3.77562 1.8715 0
M  V30 5335 H 496.365 -3.1699 0.786441 0
M  V30 5336 H 495.024 -2.39687 2.77391 0
M  V30 5337 H 494.672 -4.68562 1.82917 0
M  V30 5338 H 494.372 -4.6557 3.58494 0
M  V30 5339 H 495.896 -5.34327 2.95512 0
M  V30 5340 H 497.31 -3.62538 4.44116 0
M  V30 5341 H 495.707 -3.17549 5.09198 0
M  V30 5342 H 496.777 -1.91332 4.45556 0
M  V30 5343 N 498.12 -1.38341 -0.754957 0
M  V30 5344 C 499.367 -1.34473 -1.51404 0
M  V30 5345 C 499.695 0.0656458 -1.94389 0
M  V30 5346 O 498.95 1.04244 -1.65625 0
M  V30 5347 C 499.249 -2.2452 -2.78075 0
M  V30 5348 C 498.915 -3.72512 -2.54059 0
M  V30 5349 C 497.577 -4.1284 -2.47218 0
M  V30 5350 C 499.929 -4.66197 -2.33044 0
M  V30 5351 C 497.257 -5.44945 -2.17376 0
M  V30 5352 C 499.609 -5.98558 -2.04723 0
M  V30 5353 C 498.273 -6.37972 -1.96337 0
M  V30 5354 H 497.543 -0.492072 -0.554027 0
M  V30 5355 H 500.19 -1.70687 -0.868223 0
M  V30 5356 H 498.495 -1.81357 -3.473 0
M  V30 5357 H 500.192 -2.18832 -3.36026 0
M  V30 5358 H 496.782 -3.40538 -2.60253 0
M  V30 5359 H 500.966 -4.35888 -2.37309 0
M  V30 5360 H 496.222 -5.74426 -2.09391 0
M  V30 5361 H 500.396 -6.70693 -1.87465 0
M  V30 5362 H 498.023 -7.40258 -1.72978 0
M  V30 5363 N 499.598 0.982988 -1.23187 0
M  V30 5364 C 500.531 2.07302 -0.953993 0
M  V30 5365 C 501.509 1.62249 0.106753 0
M  V30 5366 O 502.693 1.88481 -0.0269525 0
M  V30 5367 C 499.82 3.35873 -0.436716 0
M  V30 5368 C 498.866 3.99862 -1.48367 0
M  V30 5369 S 499.699 4.39443 -3.06023 0
M  V30 5370 C 500.855 5.7117 -2.55959 0
M  V30 5371 H 501.088 2.30554 -1.87702 0
M  V30 5372 H 498.621 1.11883 -1.06403 0
M  V30 5373 H 500.579 4.10244 -0.144872 0
M  V30 5374 H 499.24 3.10634 0.465351 0
M  V30 5375 H 498.433 4.92471 -1.07182 0
M  V30 5376 H 498.035 3.31857 -1.72473 0
M  V30 5377 H 500.327 6.47977 -1.97818 0
M  V30 5378 H 501.27 6.17194 -3.47098 0
M  V30 5379 H 501.678 5.29046 -1.96902 0
M  V30 5380 N 501.076 1.04316 1.18135 0
M  V30 5381 C 502.023 0.636398 2.21853 0
M  V30 5382 C 502.993 -0.357039 1.62217 0
M  V30 5383 O 504.178 -0.250453 1.89149 0
M  V30 5384 C 501.318 0.00812779 3.45099 0
M  V30 5385 C 500.431 1.04933 4.19062 0
M  V30 5386 C 499.566 0.389313 5.29771 0
M  V30 5387 C 498.605 1.41544 5.9551 0
M  V30 5388 N 497.742 0.78021 6.97751 0
M  V30 5389 H 502.582 1.52536 2.56002 0
M  V30 5390 H 500.119 0.76304 1.25762 0
M  V30 5391 H 502.077 -0.373497 4.15525 0
M  V30 5392 H 500.707 -0.844336 3.11562 0
M  V30 5393 H 499.759 1.54888 3.47439 0
M  V30 5394 H 501.071 1.82862 4.64072 0
M  V30 5395 H 500.225 -0.0463805 6.06682 0
M  V30 5396 H 498.964 -0.422038 4.8587 0
M  V30 5397 H 497.969 1.86124 5.17337 0
M  V30 5398 H 499.194 2.22854 6.41493 0
M  V30 5399 H 497.14 -0.0107899 6.55999 0
M  V30 5400 H 497.057 1.49716 7.41027 0
M  V30 5401 H 498.325 0.368996 7.78626 0
M  V30 5402 N 502.554 -1.34406 0.822964 0
M  V30 5403 C 503.97 -1.51275 0.508727 0
M  V30 5404 C 504.17 -1.76776 -0.967083 0
M  V30 5405 O 503.226 -1.81871 -1.75155 0
M  V30 5406 C 504.539 -2.67765 1.36829 0
M  V30 5407 C 506.087 -2.81647 1.36542 0
M  V30 5408 C 506.562 -4.01181 2.20947 0
M  V30 5409 N 508.053 -4.08388 2.18571 0
M  V30 5410 C 508.788 -5.00036 2.80627 0
M  V30 5411 N 508.284 -5.96906 3.51674 0
M  V30 5412 N 510.077 -4.92908 2.70181 0
M  V30 5413 H 502.228 -1.16113 1.77852 0
M  V30 5414 H 504.491 -0.56947 0.757897 0
M  V30 5415 H 504.197 -2.55551 2.41633 0
M  V30 5416 H 504.071 -3.62779 1.03303 0
M  V30 5417 H 506.458 -2.93303 0.325163 0
M  V30 5418 H 506.539 -1.87443 1.74066 0
M  V30 5419 H 506.183 -3.90286 3.25022 0
M  V30 5420 H 506.113 -4.94599 1.80774 0
M  V30 5421 H 508.604 -3.39051 1.66891 0
M  V30 5422 H 508.917 -6.63468 3.96271 0
M  V30 5423 H 507.262 -5.9703 3.5578 0
M  V30 5424 H 510.453 -4.1619 2.14251 0
M  V30 5425 H 510.626 -5.64137 3.18831 0
M  V30 5426 N 504.032 -0.577932 -1.46621 0
M  V30 5427 C 505.278 -0.0617793 -2.02706 0
M  V30 5428 C 505.611 1.29294 -1.44903 0
M  V30 5429 O 504.886 1.8461 -0.61232 0
M  V30 5430 C 505.169 0.00911824 -3.60099 0
M  V30 5431 C 505.022 -1.37416 -4.28295 0
M  V30 5432 C 506.341 0.712159 -4.343 0
M  V30 5433 H 503.46 -0.0239246 -0.736612 0
M  V30 5434 H 506.102 -0.744211 -1.74818 0
M  V30 5435 H 504.252 0.590292 -3.83989 0
M  V30 5436 H 505.924 -2.00013 -4.15683 0
M  V30 5437 H 504.167 -1.94319 -3.87843 0
M  V30 5438 H 504.838 -1.27707 -5.37024 0
M  V30 5439 H 507.314 0.218486 -4.15526 0
M  V30 5440 H 506.19 0.730782 -5.44014 0
M  V30 5441 H 506.451 1.77251 -4.05012 0
M  V30 5442 N 505.51 1.54411 -0.315457 0
M  V30 5443 C 506.42 2.27737 0.56329 0
M  V30 5444 C 507.436 1.31787 1.13614 0
M  V30 5445 O 508.612 1.64791 1.15784 0
M  V30 5446 C 505.677 3.01478 1.71207 0
M  V30 5447 C 504.738 4.12997 1.17185 0
M  V30 5448 C 503.971 4.83212 2.26588 0
M  V30 5449 O 504.194 4.52884 3.46775 0
M  V30 5450 O 503.128 5.70299 1.92463 0
M  V30 5451 H 506.954 3.03683 -0.0319614 0
M  V30 5452 H 504.539 1.49178 -0.0814188 0
M  V30 5453 H 506.421 3.47683 2.38106 0
M  V30 5454 H 505.096 2.28414 2.29366 0
M  V30 5455 H 504.003 3.71159 0.468174 0
M  V30 5456 H 505.336 4.8808 0.635501 0
M  V30 5457 N 506.988 0.0434614 1.5754 0
M  V30 5458 C 508.216 -0.641835 1.96693 0
M  V30 5459 C 508.631 -1.64832 0.920652 0
M  V30 5460 O 507.988 -1.82247 -0.095993 0
M  V30 5461 C 508.039 -1.33557 3.35924 0
M  V30 5462 O 507.76 -0.369403 4.3654 0
M  V30 5463 C 509.261 -2.11135 3.89791 0
M  V30 5464 H 506.481 -0.176013 0.647503 0
M  V30 5465 H 509.025 0.107478 2.04217 0
M  V30 5466 H 507.18 -2.03617 3.29574 0
M  V30 5467 H 507.594 -0.863674 5.1734 0
M  V30 5468 H 509.068 -2.55107 4.89514 0
M  V30 5469 H 509.545 -2.95634 3.24803 0
M  V30 5470 H 510.151 -1.46002 3.99454 0
M  V30 5471 N 508.466 -1.55915 -0.229846 0
M  V30 5472 C 509.414 -1.9258 -1.30444 0
M  V30 5473 C 510.408 -0.806839 -1.48951 0
M  V30 5474 O 511.614 -0.991606 -1.50224 0
M  V30 5475 H 507.989 -0.611878 -0.437161 0
M  V30 5476 H 509.96 -2.82264 -0.96797 0
M  V30 5477 C 508.709 -2.25171 -2.6494 0
M  V30 5478 H 508.032 -3.10782 -2.51504 0
M  V30 5479 H 509.472 -2.54716 -3.38963 0
M  V30 5480 C 507.931 -1.07394 -3.19324 0
M  V30 5481 O 508.461 -0.330759 -4.00336 0
M  V30 5482 N 506.667 -0.859984 -2.77584 0
M  V30 5483 H 506.214 -1.46605 -2.11813 0
M  V30 5484 H 506.172 -0.0736671 -3.14314 0
M  V30 5485 N 509.944 0.496216 -1.49584 0
M  V30 5486 C 510.876 1.61404 -1.62731 0
M  V30 5487 C 511.889 1.54613 -0.50978 0
M  V30 5488 O 513.078 1.60458 -0.782017 0
M  V30 5489 C 510.178 3.00212 -1.57245 0
M  V30 5490 C 509.351 3.32138 -2.84611 0
M  V30 5491 C 508.41 4.5038 -2.72112 0
M  V30 5492 O 507.436 4.51926 -3.46051 0
M  V30 5493 N 508.638 5.50575 -1.83977 0
M  V30 5494 H 511.403 1.50552 -2.59141 0
M  V30 5495 H 508.964 0.684182 -1.46733 0
M  V30 5496 H 510.956 3.77241 -1.4653 0
M  V30 5497 H 509.526 3.04964 -0.686729 0
M  V30 5498 H 508.746 2.4396 -3.09641 0
M  V30 5499 H 510.034 3.50268 -3.69039 0
M  V30 5500 H 509.432 5.52128 -1.23171 0
M  V30 5501 H 507.989 6.26687 -1.79182 0
M  V30 5502 N 511.423 1.38739 0.74761 0
M  V30 5503 C 512.7 1.25791 1.49786 0
M  V30 5504 C 513.08 -0.138075 2.10648 0
M  V30 5505 O 512.428 -1.14815 1.9756 0
M  V30 5506 C 512.638 2.37265 2.55942 0
M  V30 5507 C 513.986 2.75978 3.22679 0
M  V30 5508 O 515.01 2.36621 2.6625 0
M  V30 5509 O 513.869 3.43867 4.24756 0
M  V30 5510 H 510.963 0.492251 0.664543 0
M  V30 5511 H 513.509 1.50582 0.782511 0
M  V30 5512 H 512.281 3.30644 2.0926 0
M  V30 5513 H 511.904 2.14071 3.35051 0
M  V30 5514 N 512.901 -0.976442 1.23707 0
M  V30 5515 C 514.147 -1.72158 1.08319 0
M  V30 5516 C 514.502 -1.88701 -0.375445 0
M  V30 5517 O 513.795 -1.43107 -1.274 0
M  V30 5518 C 513.989 -3.11814 1.74662 0
M  V30 5519 C 513.818 -3.08892 3.26827 0
M  V30 5520 C 512.588 -3.13861 3.96004 0
M  V30 5521 C 514.786 -2.9175 4.2354 0
M  V30 5522 N 512.768 -3.00867 5.35119 0
M  V30 5523 C 514.139 -2.8696 5.49595 0
M  V30 5524 C 516.194 -2.76265 4.14225 0
M  V30 5525 C 514.897 -2.68268 6.67401 0
M  V30 5526 C 516.923 -2.58938 5.317 0
M  V30 5527 C 516.285 -2.54849 6.56682 0
M  V30 5528 H 512.384 -0.638896 0.450927 0
M  V30 5529 H 514.968 -1.15835 1.56494 0
M  V30 5530 H 513.139 -3.66347 1.29014 0
M  V30 5531 H 514.871 -3.74984 1.52215 0
M  V30 5532 H 511.626 -3.22198 3.4711 0
M  V30 5533 H 512.05 -2.97634 6.08065 0
M  V30 5534 H 516.692 -2.78213 3.18366 0
M  V30 5535 H 514.41 -2.65063 7.63392 0
M  V30 5536 H 517.996 -2.47914 5.26336 0
M  V30 5537 H 516.876 -2.41611 7.46052 0
M  V30 5538 N 514.379 -1.04941 -1.1758 0
M  V30 5539 C 515.604 -0.778253 -1.92245 0
M  V30 5540 C 516.029 0.659707 -1.76152 0
M  V30 5541 O 515.387 1.45803 -1.07755 0
M  V30 5542 C 515.435 -1.16051 -3.41416 0
M  V30 5543 O 514.539 -0.291153 -4.11371 0
M  V30 5544 H 513.88 -0.285619 -0.599431 0
M  V30 5545 H 516.41 -1.40159 -1.49052 0
M  V30 5546 H 516.42 -1.12619 -3.92149 0
M  V30 5547 H 515.095 -2.208 -3.52449 0
M  V30 5548 H 513.672 -0.385851 -3.70898 0
M  V30 5549 N 515.857 1.33968 -0.830081 0
M  V30 5550 C 516.787 2.31911 -0.271911 0
M  V30 5551 C 517.768 1.58571 0.61556 0
M  V30 5552 O 518.953 1.86514 0.540946 0
M  V30 5553 C 516.083 3.42737 0.561146 0
M  V30 5554 C 515.037 4.27383 -0.229789 0
M  V30 5555 C 514.363 5.29742 0.726463 0
M  V30 5556 C 515.663 5.02 -1.44197 0
M  V30 5557 H 517.357 2.78844 -1.09025 0
M  V30 5558 H 514.903 1.34061 -0.52571 0
M  V30 5559 H 516.856 4.10276 0.961867 0
M  V30 5560 H 515.58 2.94471 1.41261 0
M  V30 5561 H 514.239 3.61456 -0.611964 0
M  V30 5562 H 513.887 4.77736 1.57408 0
M  V30 5563 H 513.587 5.87255 0.20142 0
M  V30 5564 H 515.111 6.00149 1.12489 0
M  V30 5565 H 516.525 5.62355 -1.11488 0
M  V30 5566 H 514.922 5.69122 -1.90317 0
M  V30 5567 H 515.992 4.31281 -2.2164 0
M  V30 5568 N 517.335 0.585699 1.46312 0
M  V30 5569 C 518.268 -0.194257 2.27372 0
M  V30 5570 C 519.246 -0.894116 1.3581 0
M  V30 5571 O 520.43 -0.907402 1.65222 0
M  V30 5572 C 517.557 -1.27901 3.13622 0
M  V30 5573 C 516.603 -0.684666 4.20969 0
M  V30 5574 S 517.436 0.490745 5.33247 0
M  V30 5575 C 518.592 -0.595137 6.23064 0
M  V30 5576 H 518.825 0.493515 2.93175 0
M  V30 5577 H 516.358 0.372666 1.49835 0
M  V30 5578 H 518.316 -1.90008 3.63878 0
M  V30 5579 H 516.977 -1.93875 2.47126 0
M  V30 5580 H 516.17 -1.50015 4.81156 0
M  V30 5581 H 515.772 -0.139204 3.73741 0
M  V30 5582 H 518.064 -1.48002 6.61137 0
M  V30 5583 H 519.007 -0.0299446 7.08094 0
M  V30 5584 H 519.415 -0.900627 5.57269 0
M  V30 5585 N 518.813 -1.54241 0.323641 0
M  V30 5586 C 520.053 -2.0248 -0.279502 0
M  V30 5587 C 520.417 -1.20672 -1.49339 0
M  V30 5588 O 521.618 -1.58715 -2.1694 0
M  V30 5589 C 519.889 -3.52238 -0.605266 0
M  V30 5590 S 521.448 -4.22411 -1.18805 0
M  V30 5591 H 518.266 -0.705957 -0.0845313 0
M  V30 5592 H 520.868 -1.90089 0.456781 0
M  V30 5593 H 519.572 -4.094 0.286339 0
M  V30 5594 H 519.103 -3.6871 -1.37174 0
M  V30 5595 H 521.118 -4.30075 -2.47487 0
M  V30 5596 N 520.291 -0.0518155 -1.57515 0
M  V30 5597 C 521.702 0.483787 -1.80323 0
M  V30 5598 C 522.053 1.70879 -0.964099 0
M  V30 5599 O 521.178 2.15643 -0.180872 0
M  V30 5600 C 521.773 0.884459 -3.27052 0
M  V30 5601 C 520.332 1.36504 -3.50776 0
M  V30 5602 C 519.479 0.340539 -2.75201 0
M  V30 5603 H 522.43 -0.277691 -1.56252 0
M  V30 5604 H 522.451 1.74733 -3.38007 0
M  V30 5605 H 521.963 -0.00731093 -3.88099 0
M  V30 5606 H 520.064 2.27598 -2.95009 0
M  V30 5607 H 520.177 1.35675 -4.59488 0
M  V30 5608 H 518.541 0.81356 -2.41357 0
M  V30 5609 H 519.324 -0.543156 -3.38976 0
M  V30 5610 N 521.769 1.56035 0.221574 0
M  V30 5611 C 522.717 1.93269 1.29421 0
M  V30 5612 C 523.711 0.814727 1.48521 0
M  V30 5613 O 524.917 0.999559 1.49696 0
M  V30 5614 H 521.292 0.614188 0.43391 0
M  V30 5615 H 523.263 2.82773 0.952987 0
M  V30 5616 C 522.012 2.26573 2.63742 0
M  V30 5617 H 521.335 3.12112 2.49853 0
M  V30 5618 H 522.775 2.5651 3.37607 0
M  V30 5619 C 521.234 1.09086 3.1875 0
M  V30 5620 O 521.764 0.351985 4.00155 0
M  V30 5621 N 519.97 0.874693 2.77124 0
M  V30 5622 H 519.517 1.47726 2.11033 0
M  V30 5623 H 519.475 0.0903349 3.1427 0
M  V30 5624 N 523.247 -0.488276 1.49845 0
M  V30 5625 C 524.157 -1.61451 1.70207 0
M  V30 5626 C 525.173 -1.63877 0.584846 0
M  V30 5627 O 526.349 -1.82063 0.861107 0
M  V30 5628 C 523.414 -2.9776 1.77594 0
M  V30 5629 C 522.475 -3.05861 3.01243 0
M  V30 5630 C 521.708 -4.35668 3.08268 0
M  V30 5631 O 521.931 -5.25197 2.22541 0
M  V30 5632 O 520.865 -4.49005 4.00847 0
M  V30 5633 H 524.691 -1.47199 2.65643 0
M  V30 5634 H 522.276 -0.665939 1.33737 0
M  V30 5635 H 524.158 -3.7875 1.84732 0
M  V30 5636 H 522.833 -3.12248 0.8534 0
M  V30 5637 H 521.74 -2.24012 2.99616 0
M  V30 5638 H 523.073 -2.96304 3.9302 0
M  V30 5639 N 524.725 -1.39134 -0.740242 0
M  V30 5640 C 525.965 -1.37499 -1.51239 0
M  V30 5641 C 526.329 0.0310084 -1.91975 0
M  V30 5642 O 527.53 0.172319 -2.68247 0
M  V30 5643 C 525.801 -2.31566 -2.72235 0
M  V30 5644 S 527.36 -2.48073 -3.61947 0
M  V30 5645 H 524.178 -0.48768 -0.517387 0
M  V30 5646 H 526.78 -1.75183 -0.867826 0
M  V30 5647 H 525.484 -3.32592 -2.40439 0
M  V30 5648 H 525.015 -1.9508 -3.41625 0
M  V30 5649 H 527.03 -1.71473 -4.6563 0
M  V30 5650 N 526.204 0.969867 -1.24223 0
M  V30 5651 C 527.615 1.52717 -1.07399 0
M  V30 5652 C 527.966 1.92956 0.355298 0
M  V30 5653 O 527.091 1.77112 1.2434 0
M  V30 5654 C 527.686 2.77521 -1.94339 0
M  V30 5655 C 526.245 3.29615 -1.81744 0
M  V30 5656 C 525.392 2.02537 -1.89405 0
M  V30 5657 H 528.343 0.788399 -1.37732 0
M  V30 5658 H 528.364 3.50773 -1.47439 0
M  V30 5659 H 527.876 2.48203 -2.98357 0
M  V30 5660 H 525.977 3.63789 -0.805505 0
M  V30 5661 H 526.09 3.98661 -2.65718 0
M  V30 5662 H 524.454 2.17151 -1.33108 0
M  V30 5663 H 525.237 1.75587 -2.94999 0
M  V30 5664 N 527.682 1.05563 1.17022 0
M  V30 5665 C 528.93 0.76642 1.87004 0
M  V30 5666 C 529.251 -0.708854 1.8166 0
M  V30 5667 O 528.521 -1.51242 1.2451 0
M  V30 5668 H 527.101 0.280516 0.692329 0
M  V30 5669 H 529.763 1.33557 1.41945 0
M  V30 5670 H 528.859 1.08472 2.92644 0
M  V30 5671 N 529.16 -1.33526 0.837174 0
M  V30 5672 C 530.09 -2.31764 0.284206 0
M  V30 5673 C 531.071 -1.58896 -0.607142 0
M  V30 5674 O 532.256 -1.86798 -0.531047 0
M  V30 5675 C 529.386 -3.43029 -0.542962 0
M  V30 5676 C 528.34 -4.27255 0.252451 0
M  V30 5677 C 527.666 -5.3012 -0.69836 0
M  V30 5678 C 528.966 -5.01229 1.46858 0
M  V30 5679 H 530.66 -2.78262 1.10502 0
M  V30 5680 H 528.206 -1.3378 0.532812 0
M  V30 5681 H 530.159 -4.1078 -0.940096 0
M  V30 5682 H 528.883 -2.95216 -1.39697 0
M  V30 5683 H 527.542 -3.61127 0.631124 0
M  V30 5684 H 527.19 -4.78564 -1.54872 0
M  V30 5685 H 526.89 -5.87353 -0.170274 0
M  V30 5686 H 528.414 -6.00737 -1.09305 0
M  V30 5687 H 529.828 -5.61756 1.14469 0
M  V30 5688 H 528.225 -5.68104 1.93333 0
M  V30 5689 H 529.295 -4.301 2.23924 0
M  V30 5690 N 530.638 -0.59345 -1.46 0
M  V30 5691 C 531.915 -0.0157933 -1.95594 0
M  V30 5692 C 532.295 1.44807 -1.53604 0
M  V30 5693 O 531.643 2.14342 -0.791824 0
M  V30 5694 C 531.853 -0.199081 -3.48432 0
M  V30 5695 C 533.201 -0.0724943 -4.24538 0
M  V30 5696 O 534.225 -0.128469 -3.55968 0
M  V30 5697 O 533.084 0.0542426 -5.46473 0
M  V30 5698 H 530.178 0.043749 -0.825842 0
M  V30 5699 H 532.724 -0.662522 -1.56233 0
M  V30 5700 H 531.496 -1.21631 -3.71916 0
M  V30 5701 H 531.119 0.483576 -3.94648 0
M  V30 5702 N 532.116 1.54067 -0.331816 0
M  V30 5703 C 533.026 2.28322 0.539104 0
M  V30 5704 C 534.042 1.32985 1.1221 0
M  V30 5705 O 535.218 1.6601 1.1403 0
M  V30 5706 C 532.283 3.03277 1.68 0
M  V30 5707 C 531.344 4.14216 1.12798 0
M  V30 5708 C 530.577 4.85588 2.2145 0
M  V30 5709 O 530.8 4.56536 3.41952 0
M  V30 5710 O 529.734 5.72309 1.86404 0
M  V30 5711 H 533.56 3.03632 -0.0641692 0
M  V30 5712 H 531.145 1.49083 -0.0972365 0
M  V30 5713 H 533.027 3.50189 2.34405 0
M  V30 5714 H 531.702 2.30834 2.2693 0
M  V30 5715 H 530.609 3.71635 0.428782 0
M  V30 5716 H 531.942 4.88727 0.583698 0
M  V30 5717 N 533.594 0.0601682 1.57485 0
M  V30 5718 C 534.84 -0.612501 1.93329 0
M  V30 5719 C 535.173 -1.6996 0.939526 0
M  V30 5720 O 534.448 -1.94472 -0.0330957 0
M  V30 5721 C 534.731 -1.20025 3.39508 0
M  V30 5722 C 534.584 -0.12059 4.49638 0
M  V30 5723 C 535.903 -2.10923 3.86264 0
M  V30 5724 H 533.022 -0.221185 0.703027 0
M  V30 5725 H 535.664 0.123768 1.89596 0
M  V30 5726 H 533.814 -1.82774 3.42821 0
M  V30 5727 H 535.486 0.51185 4.58452 0
M  V30 5728 H 533.729 0.550251 4.30296 0
M  V30 5729 H 534.4 -0.572019 5.49028 0
M  V30 5730 H 536.876 -1.58124 3.84884 0
M  V30 5731 H 535.752 -2.48987 4.8918 0
M  V30 5732 H 536.013 -3.01292 3.23536 0
M  V30 5733 N 535.072 -1.5615 -0.213296 0
M  V30 5734 C 536.318 -1.80718 -0.933402 0
M  V30 5735 C 536.673 -0.634441 -1.81639 0
M  V30 5736 O 535.966 0.371182 -1.8797 0
M  V30 5737 C 536.16 -3.08772 -1.79985 0
M  V30 5738 C 535.989 -4.38389 -1.00224 0
M  V30 5739 C 534.759 -5.00513 -0.693885 0
M  V30 5740 C 536.957 -5.13013 -0.363598 0
M  V30 5741 N 534.939 -6.13774 0.124266 0
M  V30 5742 C 536.31 -6.19186 0.31757 0
M  V30 5743 C 538.365 -4.97126 -0.277468 0
M  V30 5744 C 537.068 -7.11197 1.07664 0
M  V30 5745 C 539.094 -5.89544 0.468155 0
M  V30 5746 C 538.456 -6.95149 1.13784 0
M  V30 5747 H 534.555 -0.712833 -0.321549 0
M  V30 5748 H 537.139 -1.93633 -0.203588 0
M  V30 5749 H 535.31 -2.97126 -2.50142 0
M  V30 5750 H 537.042 -3.21499 -2.45806 0
M  V30 5751 H 533.797 -4.62619 -1.01391 0
M  V30 5752 H 534.221 -6.74981 0.522418 0
M  V30 5753 H 538.863 -4.15526 -0.78087 0
M  V30 5754 H 536.581 -7.92273 1.59153 0
M  V30 5755 H 540.167 -5.79327 0.535911 0
M  V30 5756 H 539.047 -7.65428 1.70557 0
M  V30 5757 N 536.55 0.480323 -1.50102 0
M  V30 5758 C 537.798 1.23063 -1.60312 0
M  V30 5759 C 538.119 1.92659 -0.301226 0
M  V30 5760 O 537.389 1.83691 0.680753 0
M  V30 5761 H 535.969 0.457231 -0.590719 0
M  V30 5762 H 538.631 0.554893 -1.86834 0
M  V30 5763 H 537.727 1.9835 -2.40964 0
M  V30 5764 N 538.028 1.39524 0.732853 0
M  V30 5765 C 538.938 1.40695 1.87729 0
M  V30 5766 C 539.954 0.301496 1.71368 0
M  V30 5767 O 541.13 0.543313 1.93933 0
M  V30 5768 C 538.195 1.25098 3.23344 0
M  V30 5769 C 537.256 2.45634 3.52083 0
M  V30 5770 C 536.489 2.30772 4.81228 0
M  V30 5771 O 536.712 1.31233 5.55098 0
M  V30 5772 O 535.646 3.19799 5.09914 0
M  V30 5773 H 539.472 2.37168 1.89697 0
M  V30 5774 H 537.057 1.20663 0.880959 0
M  V30 5775 H 538.939 1.18541 4.04383 0
M  V30 5776 H 537.614 0.317209 3.22142 0
M  V30 5777 H 536.521 2.57767 2.71122 0
M  V30 5778 H 537.854 3.37712 3.58066 0
M  V30 5779 N 539.506 -0.963266 1.24736 0
M  V30 5780 C 540.416 -2.09246 1.06082 0
M  V30 5781 C 541.432 -1.74 0.000363101 0
M  V30 5782 O 542.608 -2.0041 0.199479 0
M  V30 5783 C 539.673 -3.40115 0.672498 0
M  V30 5784 C 538.734 -3.89282 1.80993 0
M  V30 5785 C 537.967 -5.13905 1.44004 0
M  V30 5786 O 538.19 -5.69434 0.331835 0
M  V30 5787 O 537.124 -5.57566 2.26723 0
M  V30 5788 H 540.95 -2.27881 2.00759 0
M  V30 5789 H 538.535 -1.07649 1.03595 0
M  V30 5790 H 540.417 -4.18797 0.467668 0
M  V30 5791 H 539.092 -3.22771 -0.245102 0
M  V30 5792 H 537.999 -3.11642 2.06955 0
M  V30 5793 H 539.332 -4.1111 2.70646 0
M  V30 5794 N 540.985 -1.06182 -1.16461 0
M  V30 5795 C 542.232 -0.777863 -1.86964 0
M  V30 5796 C 542.56 0.695602 -1.81636 0
M  V30 5797 O 541.815 1.52532 -1.22607 0
M  V30 5798 C 542.114 -1.21633 -3.36066 0
M  V30 5799 C 541.78 -2.69371 -3.61594 0
M  V30 5800 C 540.442 -3.09727 -3.6827 0
M  V30 5801 C 542.794 -3.64791 -3.7226 0
M  V30 5802 C 540.122 -4.44345 -3.83112 0
M  V30 5803 C 542.474 -4.99155 -3.88623 0
M  V30 5804 C 541.138 -5.39149 -3.93541 0
M  V30 5805 H 540.408 -0.28464 -0.68415 0
M  V30 5806 H 543.055 -1.33071 -1.37711 0
M  V30 5807 H 541.36 -0.582651 -3.87443 0
M  V30 5808 H 543.057 -0.973682 -3.88999 0
M  V30 5809 H 539.647 -2.37124 -3.57029 0
M  V30 5810 H 543.831 -3.34746 -3.66413 0
M  V30 5811 H 539.087 -4.74819 -3.85172 0
M  V30 5812 H 543.261 -5.72976 -3.95817 0
M  V30 5813 H 540.888 -6.43464 -4.04794 0
M  V30 5814 N 542.463 1.3308 -0.844243 0
M  V30 5815 C 543.373 2.32876 -0.283922 0
M  V30 5816 C 544.389 1.63589 0.592846 0
M  V30 5817 O 545.565 1.95205 0.495693 0
M  V30 5818 C 542.63 3.42667 0.527283 0
M  V30 5819 C 541.691 4.27664 -0.374394 0
M  V30 5820 C 540.924 5.32212 0.39819 0
M  V30 5821 O 541.147 5.46635 1.62932 0
M  V30 5822 O 540.081 6.01458 -0.2306 0
M  V30 5823 H 543.907 2.82671 -1.11045 0
M  V30 5824 H 541.492 1.36518 -0.606903 0
M  V30 5825 H 543.374 4.09652 0.988078 0
M  V30 5826 H 542.049 2.95079 1.33078 0
M  V30 5827 H 540.956 3.63526 -0.883144 0
M  V30 5828 H 542.289 4.78749 -1.1428 0
M  V30 5829 N 543.941 0.601185 1.45683 0
M  V30 5830 C 544.888 -0.121396 2.30481 0
M  V30 5831 C 545.858 -0.866232 1.41724 0
M  V30 5832 O 547.043 -0.85324 1.70659 0
M  V30 5833 C 544.183 -1.11704 3.26521 0
M  V30 5834 C 543.296 -0.373741 4.3038 0
M  V30 5835 C 542.431 -1.35854 5.13534 0
M  V30 5836 C 541.47 -0.602689 6.09126 0
M  V30 5837 N 540.607 -1.53645 6.85082 0
M  V30 5838 H 545.447 0.607732 2.91737 0
M  V30 5839 H 542.984 0.311502 1.43764 0
M  V30 5840 H 544.942 -1.70735 3.80664 0
M  V30 5841 H 543.572 -1.81366 2.67032 0
M  V30 5842 H 542.624 0.331962 3.78949 0
M  V30 5843 H 543.936 0.2163 4.98331 0
M  V30 5844 H 543.09 -2.02111 5.72046 0
M  V30 5845 H 541.829 -1.98251 4.45587 0
M  V30 5846 H 540.834 0.0735482 5.49751 0
M  V30 5847 H 542.059 0.0161467 6.79098 0
M  V30 5848 H 540.005 -2.14819 6.1983 0
M  V30 5849 H 539.922 -0.999688 7.49361 0
M  V30 5850 H 541.19 -2.1888 7.48139 0
M  V30 5851 N 545.419 -1.53889 0.339982 0
M  V30 5852 C 546.349 -2.27843 -0.510856 0
M  V30 5853 C 547.33 -1.29267 -1.10563 0
M  V30 5854 O 548.515 -1.58104 -1.12768 0
M  V30 5855 C 545.645 -3.04857 -1.66372 0
M  V30 5856 C 544.599 -4.10907 -1.19746 0
M  V30 5857 C 543.925 -4.75855 -2.43857 0
M  V30 5858 C 545.225 -5.21435 -0.300501 0
M  V30 5859 H 546.919 -2.99212 0.106067 0
M  V30 5860 H 544.465 -1.43904 0.0524533 0
M  V30 5861 H 546.418 -3.5533 -2.26537 0
M  V30 5862 H 545.142 -2.31133 -2.30749 0
M  V30 5863 H 543.801 -3.61342 -0.618654 0
M  V30 5864 H 543.449 -3.9873 -3.06633 0
M  V30 5865 H 543.149 -5.47502 -2.13343 0
M  V30 5866 H 544.673 -5.2911 -3.04754 0
M  V30 5867 H 546.087 -5.67565 -0.80889 0
M  V30 5868 H 544.484 -6.00036 -0.0874076 0
M  V30 5869 H 545.554 -4.80328 0.664321 0
M  V30 5870 N 546.897 -0.0685191 -1.57451 0
M  V30 5871 C 548.127 0.609577 -1.97402 0
M  V30 5872 C 548.535 1.63882 -0.945489 0
M  V30 5873 O 547.878 1.8354 0.0766052 0
M  V30 5874 C 547.94 1.3385 -3.33653 0
M  V30 5875 C 547.604 0.463103 -4.54648 0
M  V30 5876 C 548.601 -0.277964 -5.19156 0
M  V30 5877 C 546.286 0.388941 -5.00792 0
M  V30 5878 C 548.28 -1.08145 -6.28159 0
M  V30 5879 C 545.967 -0.418217 -6.09667 0
M  V30 5880 C 546.965 -1.15208 -6.73213 0
M  V30 5881 O 546.653 -1.94594 -7.79993 0
M  V30 5882 H 546.385 0.170197 -0.654224 0
M  V30 5883 H 548.939 -0.13647 -2.04946 0
M  V30 5884 H 547.169 2.13055 -3.22714 0
M  V30 5885 H 548.858 1.90851 -3.58233 0
M  V30 5886 H 549.624 -0.230241 -4.84453 0
M  V30 5887 H 545.503 0.949769 -4.5111 0
M  V30 5888 H 549.047 -1.65476 -6.7769 0
M  V30 5889 H 544.944 -0.467515 -6.43805 0
M  V30 5890 H 545.712 -1.8699 -7.96854 0
M  V30 5891 N 548.375 1.56261 0.205012 0
M  V30 5892 C 549.338 1.92908 1.23771 0
M  V30 5893 C 550.338 0.809208 1.38955 0
M  V30 5894 O 551.528 1.07676 1.36936 0
M  V30 5895 C 548.66 2.19442 2.60879 0
M  V30 5896 H 549.853 2.85287 0.924728 0
M  V30 5897 H 547.406 1.49798 0.446125 0
M  V30 5898 H 548.141 1.29668 2.97248 0
M  V30 5899 H 547.926 3.0104 2.51232 0
M  V30 5900 H 549.416 2.48833 3.35368 0
M  V30 5901 N 549.853 -0.472356 1.50355 0
M  V30 5902 C 551.078 -1.25251 1.65309 0
M  V30 5903 C 551.503 -1.85081 0.335643 0
M  V30 5904 O 550.861 -1.67227 -0.700335 0
M  V30 5905 C 550.909 -2.3379 2.74544 0
M  V30 5906 O 550.013 -3.38401 2.35709 0
M  V30 5907 H 549.354 -0.368539 0.552336 0
M  V30 5908 H 551.884 -0.562271 1.96722 0
M  V30 5909 H 551.894 -2.79121 2.97583 0
M  V30 5910 H 550.569 -1.89614 3.70161 0
M  V30 5911 H 549.146 -2.9879 2.23112 0
M  V30 5912 N 551.331 -1.39911 -0.725443 0
M  V30 5913 C 552.561 -1.40744 -1.51244 0
M  V30 5914 C 552.969 -0.00275403 -1.892 0
M  V30 5915 O 552.312 0.981299 -1.55294 0
M  V30 5916 C 552.374 -2.22527 -2.82351 0
M  V30 5917 C 552.038 -3.71053 -2.66774 0
M  V30 5918 C 553.035 -4.63916 -2.34686 0
M  V30 5919 C 550.72 -4.14753 -2.83347 0
M  V30 5920 C 552.714 -5.98463 -2.19366 0
M  V30 5921 C 550.401 -5.49372 -2.67644 0
M  V30 5922 C 551.399 -6.41042 -2.357 0
M  V30 5923 O 551.087 -7.73181 -2.20107 0
M  V30 5924 H 550.819 -0.482314 -0.473655 0
M  V30 5925 H 553.373 -1.84472 -0.903284 0
M  V30 5926 H 551.603 -1.73563 -3.45562 0
M  V30 5927 H 553.292 -2.15421 -3.44018 0
M  V30 5928 H 554.058 -4.31453 -2.21525 0
M  V30 5929 H 549.937 -3.43728 -3.072 0
M  V30 5930 H 553.481 -6.69979 -1.94354 0
M  V30 5931 H 549.378 -5.81424 -2.80387 0
M  V30 5932 H 550.146 -7.84008 -2.35103 0
M  V30 5933 N 552.809 0.956637 -1.25245 0
M  V30 5934 C 553.719 2.0868 -1.0719 0
M  V30 5935 C 554.735 1.73997 -0.00959074 0
M  V30 5936 O 555.911 2.00301 -0.210104 0
M  V30 5937 C 552.976 3.39754 -0.690526 0
M  V30 5938 C 552.037 3.88316 -1.83055 0
M  V30 5939 C 551.27 5.13134 -1.46728 0
M  V30 5940 O 551.493 5.6925 -0.362029 0
M  V30 5941 O 550.427 5.56356 -2.29677 0
M  V30 5942 H 554.253 2.26813 -2.01965 0
M  V30 5943 H 551.838 1.07098 -1.04165 0
M  V30 5944 H 553.72 4.18543 -0.489871 0
M  V30 5945 H 552.395 3.22896 0.227981 0
M  V30 5946 H 551.302 3.1054 -2.08604 0
M  V30 5947 H 552.635 4.09669 -2.72822 0
M  V30 5948 N 554.287 1.06798 1.15896 0
M  V30 5949 C 555.234 0.683314 2.20453 0
M  V30 5950 C 556.204 -0.32255 1.62938 0
M  V30 5951 O 557.389 -0.210276 1.89638 0
M  V30 5952 C 554.529 0.0813266 3.45004 0
M  V30 5953 C 553.642 1.13799 4.16742 0
M  V30 5954 C 552.777 0.501598 5.28826 0
M  V30 5955 C 551.816 1.54144 5.92373 0
M  V30 5956 N 550.953 0.928038 6.9594 0
M  V30 5957 H 555.793 1.57932 2.52708 0
M  V30 5958 H 553.33 0.789544 1.24115 0
M  V30 5959 H 555.288 -0.285274 4.16224 0
M  V30 5960 H 553.918 -0.77806 3.13283 0
M  V30 5961 H 552.97 1.62223 3.44075 0
M  V30 5962 H 554.282 1.92664 4.60089 0
M  V30 5963 H 553.436 0.0823162 6.06644 0
M  V30 5964 H 552.175 -0.318883 4.86656 0
M  V30 5965 H 551.18 1.97056 5.13273 0
M  V30 5966 H 552.405 2.3641 6.36621 0
M  V30 5967 H 550.351 0.12836 6.55874 0
M  V30 5968 H 550.268 1.65401 7.37685 0
M  V30 5969 H 551.536 0.534071 7.77668 0
M  V30 5970 N 555.766 -1.3263 0.851289 0
M  V30 5971 C 556.698 -2.27824 0.250757 0
M  V30 5972 C 557.711 -1.52285 -0.575598 0
M  V30 5973 O 558.9 -1.73946 -0.400638 0
M  V30 5974 C 556 -3.3232 -0.664571 0
M  V30 5975 C 555.173 -4.37221 0.125187 0
M  V30 5976 C 554.232 -5.21314 -0.715385 0
M  V30 5977 O 553.258 -5.69002 -0.150111 0
M  V30 5978 N 554.46 -5.43823 -2.03069 0
M  V30 5979 H 557.225 -2.79997 1.06873 0
M  V30 5980 H 554.786 -1.45455 0.710943 0
M  V30 5981 H 556.778 -3.85486 -1.23216 0
M  V30 5982 H 555.348 -2.80331 -1.38323 0
M  V30 5983 H 554.568 -3.84384 0.874199 0
M  V30 5984 H 555.856 -5.04399 0.667774 0
M  V30 5985 H 555.254 -5.06803 -2.51332 0
M  V30 5986 H 553.811 -5.99998 -2.54648 0
M  V30 5987 N 557.244 -0.608902 -1.45362 0
M  V30 5988 C 558.492 -0.104401 -2.0183 0
M  V30 5989 C 558.813 1.27007 -1.47967 0
M  V30 5990 O 558.083 1.83924 -0.674455 0
M  V30 5991 H 556.663 -0.0356042 -0.746151 0
M  V30 5992 H 559.325 -0.790596 -1.78145 0
M  V30 5993 H 558.421 -0.0551793 -3.12051 0
M  V30 5994 N 558.722 1.53707 -0.348139 0
M  V30 5995 C 560.138 1.596 0.00361134 0
M  V30 5996 C 560.338 1.36394 1.4832 0
M  V30 5997 O 559.394 1.16046 2.24253 0
M  V30 5998 C 560.707 2.97512 -0.436682 0
M  V30 5999 C 562.255 3.10568 -0.389416 0
M  V30 6000 C 562.73 4.50866 -0.805249 0
M  V30 6001 N 564.221 4.56929 -0.759616 0
M  V30 6002 C 564.956 5.63643 -1.05327 0
M  V30 6003 N 564.452 6.78189 -1.41531 0
M  V30 6004 N 566.245 5.5354 -0.977207 0
M  V30 6005 H 558.396 1.67044 -1.31187 0
M  V30 6006 H 560.659 0.782559 -0.535075 0
M  V30 6007 H 560.365 3.19575 -1.46849 0
M  V30 6008 H 560.239 3.76742 0.185744 0
M  V30 6009 H 562.626 2.88226 0.633228 0
M  V30 6010 H 562.707 2.33387 -1.04711 0
M  V30 6011 H 562.351 4.73943 -1.82593 0
M  V30 6012 H 562.281 5.26452 -0.124989 0
M  V30 6013 H 564.772 3.74675 -0.49265 0
M  V30 6014 H 565.085 7.55541 -1.62411 0
M  V30 6015 H 563.43 6.79624 -1.45381 0
M  V30 6016 H 566.621 4.62932 -0.693675 0
M  V30 6017 H 566.794 6.36614 -1.2094 0
M  V30 6018 N 560.2 0.0768682 1.57412 0
M  V30 6019 C 561.446 -0.591961 1.93968 0
M  V30 6020 C 561.779 -1.68954 0.9575 0
M  V30 6021 O 561.054 -1.94496 -0.0124675 0
M  V30 6022 C 561.337 -1.16418 3.40762 0
M  V30 6023 C 561.19 -0.0728933 4.49741 0
M  V30 6024 C 562.509 -2.06814 3.88479 0
M  V30 6025 H 559.628 -0.213716 0.705333 0
M  V30 6026 H 562.27 0.14387 1.89455 0
M  V30 6027 H 560.42 -1.79128 3.4474 0
M  V30 6028 H 562.092 0.560446 4.57883 0
M  V30 6029 H 560.335 0.595859 4.29688 0
M  V30 6030 H 561.006 -0.513755 5.49604 0
M  V30 6031 H 563.482 -1.54033 3.8654 0
M  V30 6032 H 562.358 -2.43785 4.91793 0
M  V30 6033 H 562.619 -2.97844 3.26713 0
M  V30 6034 N 561.678 -1.56367 -0.196722 0
M  V30 6035 C 563.094 -1.49916 -0.54749 0
M  V30 6036 C 563.294 -0.77659 -1.85934 0
M  V30 6037 O 562.35 -0.32644 -2.50381 0
M  V30 6038 C 563.663 -2.94577 -0.603734 0
M  V30 6039 C 565.211 -3.05239 -0.692677 0
M  V30 6040 C 565.686 -4.51308 -0.780046 0
M  V30 6041 N 567.177 -4.55453 -0.843616 0
M  V30 6042 C 567.912 -5.65786 -0.931358 0
M  V30 6043 N 567.408 -6.85812 -0.981503 0
M  V30 6044 N 569.201 -5.53695 -0.968421 0
M  V30 6045 H 561.352 -2.01761 0.663803 0
M  V30 6046 H 563.615 -0.918094 0.236238 0
M  V30 6047 H 563.321 -3.50494 0.29105 0
M  V30 6048 H 563.195 -3.47841 -1.45898 0
M  V30 6049 H 565.582 -2.49372 -1.57789 0
M  V30 6050 H 565.663 -2.55103 0.188736 0
M  V30 6051 H 565.307 -5.078 0.100811 0
M  V30 6052 H 565.237 -4.99176 -1.67724 0
M  V30 6053 H 567.728 -3.69025 -0.814176 0
M  V30 6054 H 568.041 -7.65648 -1.04892 0
M  V30 6055 H 566.386 -6.88474 -0.950208 0
M  V30 6056 H 569.577 -4.58848 -0.926072 0
M  V30 6057 H 569.75 -6.39708 -1.03334 0
M  V30 6058 N 563.156 0.464375 -1.50603 0
M  V30 6059 C 564.103 1.56152 -1.69956 0
M  V30 6060 C 565.073 1.57046 -0.54091 0
M  V30 6061 O 566.258 1.74473 -0.772258 0
M  V30 6062 C 563.398 2.94079 -1.80586 0
M  V30 6063 C 562.511 3.02923 -3.07996 0
M  V30 6064 C 561.646 4.31806 -3.09382 0
M  V30 6065 C 560.685 4.34417 -4.31218 0
M  V30 6066 N 559.822 5.54782 -4.30304 0
M  V30 6067 H 564.662 1.38955 -2.6362 0
M  V30 6068 H 562.199 0.675482 -1.30674 0
M  V30 6069 H 564.157 3.74073 -1.8473 0
M  V30 6070 H 562.787 3.09896 -0.903556 0
M  V30 6071 H 561.839 2.1576 -3.13292 0
M  V30 6072 H 563.151 3.00712 -3.97962 0
M  V30 6073 H 562.305 5.20153 -3.12292 0
M  V30 6074 H 561.044 4.36636 -2.17257 0
M  V30 6075 H 560.049 3.44467 -4.28512 0
M  V30 6076 H 561.274 4.31273 -5.24576 0
M  V30 6077 H 559.22 5.60384 -3.41037 0
M  V30 6078 H 559.137 5.54339 -5.14047 0
M  V30 6079 H 560.405 6.45235 -4.3737 0
M  V30 6080 N 564.634 1.40294 0.718013 0
M  V30 6081 C 565.88 1.38645 1.48005 0
M  V30 6082 C 566.213 -0.0121202 1.94196 0
M  V30 6083 O 565.488 -0.980309 1.67989 0
M  V30 6084 C 565.771 2.37379 2.70782 0
M  V30 6085 C 565.624 3.8625 2.30501 0
M  V30 6086 C 566.943 2.33685 3.72933 0
M  V30 6087 H 564.062 0.504928 0.536858 0
M  V30 6088 H 566.704 1.71411 0.819649 0
M  V30 6089 H 564.854 2.09568 3.27129 0
M  V30 6090 H 566.526 4.24879 1.79655 0
M  V30 6091 H 564.769 4.02202 1.6253 0
M  V30 6092 H 565.44 4.50847 3.18498 0
M  V30 6093 H 567.916 2.58314 3.2621 0
M  V30 6094 H 566.792 3.0482 4.56482 0
M  V30 6095 H 567.053 1.34765 4.21059 0
M  V30 6096 N 566.112 -0.949982 1.2575 0
M  V30 6097 C 567.358 -1.69766 1.10938 0
M  V30 6098 C 567.691 -1.91056 -0.348028 0
M  V30 6099 O 566.966 -1.48488 -1.25625 0
M  V30 6100 C 567.249 -3.07779 1.86933 0
M  V30 6101 C 567.102 -2.9387 3.4053 0
M  V30 6102 C 568.421 -4.07749 1.65616 0
M  V30 6103 H 565.54 -0.616144 0.404396 0
M  V30 6104 H 568.182 -1.10394 1.54639 0
M  V30 6105 H 566.332 -3.58462 1.4979 0
M  V30 6106 H 568.004 -2.50476 3.87375 0
M  V30 6107 H 566.247 -2.29686 3.68004 0
M  V30 6108 H 566.918 -3.91719 3.88922 0
M  V30 6109 H 569.394 -3.65994 1.97959 0
M  V30 6110 H 568.27 -5.02348 2.21218 0
M  V30 6111 H 568.531 -4.38029 0.598595 0
M  V30 6112 N 567.59 -1.07411 -1.15328 0
M  V30 6113 C 568.537 -0.694995 -2.20087 0
M  V30 6114 C 569.507 0.313904 -1.63107 0
M  V30 6115 O 570.692 0.200216 -1.89747 0
M  V30 6116 C 567.832 -0.0996218 -3.44956 0
M  V30 6117 C 566.945 -1.16007 -4.16133 0
M  V30 6118 C 566.08 -0.529636 -5.28553 0
M  V30 6119 C 565.119 -1.57283 -5.91548 0
M  V30 6120 N 564.256 -0.964932 -6.95438 0
M  V30 6121 H 569.096 -1.5927 -2.51867 0
M  V30 6122 H 566.633 -0.796115 -1.23695 0
M  V30 6123 H 568.591 0.263197 -4.16369 0
M  V30 6124 H 567.221 0.761435 -3.13691 0
M  V30 6125 H 566.273 -1.64045 -3.4321 0
M  V30 6126 H 567.585 -1.95101 -4.59061 0
M  V30 6127 H 566.739 -0.114487 -6.06592 0
M  V30 6128 H 565.478 0.29307 -4.86819 0
M  V30 6129 H 564.483 -1.99775 -5.12221 0
M  V30 6130 H 565.708 -2.39783 -6.35359 0
M  V30 6131 H 563.654 -0.16314 -6.55797 0
M  V30 6132 H 563.571 -1.69311 -7.36797 0
M  V30 6133 H 564.839 -0.575305 -7.77374 0
M  V30 6134 N 569.068 1.32177 -0.85831 0
M  V30 6135 C 570.031 2.27086 -0.310588 0
M  V30 6136 C 571.031 1.51751 0.531806 0
M  V30 6137 O 572.221 1.70794 0.34279 0
M  V30 6138 C 569.353 3.36266 0.560179 0
M  V30 6139 H 570.546 2.77045 -1.1483 0
M  V30 6140 H 568.099 1.42911 -0.632942 0
M  V30 6141 H 568.834 2.9158 1.41956 0
M  V30 6142 H 568.619 3.92077 -0.0428473 0
M  V30 6143 H 570.109 4.06974 0.936056 0
M  V30 6144 N 570.547 0.616602 1.45037 0
M  V30 6145 C 571.479 -0.135186 2.28801 0
M  V30 6146 C 572.492 -0.82303 1.40464 0
M  V30 6147 O 573.681 -0.686909 1.64754 0
M  V30 6148 C 570.781 -1.21292 3.16451 0
M  V30 6149 C 569.954 -0.61043 4.3312 0
M  V30 6150 C 569.013 -1.58022 5.01912 0
M  V30 6151 O 568.039 -1.10301 5.58411 0
M  V30 6152 N 569.241 -2.91464 5.02025 0
M  V30 6153 H 572.006 0.583612 2.93963 0
M  V30 6154 H 569.567 0.456723 1.55324 0
M  V30 6155 H 571.559 -1.86169 3.59337 0
M  V30 6156 H 570.129 -1.83412 2.53138 0
M  V30 6157 H 569.349 0.216638 3.93604 0
M  V30 6158 H 570.637 -0.188293 5.08451 0
M  V30 6159 H 570.035 -3.32829 4.57429 0
M  V30 6160 H 568.592 -3.51741 5.48745 0
M  V30 6161 N 572.025 -1.5352 0.356285 0
M  V30 6162 C 572.957 -2.23009 -0.529127 0
M  V30 6163 C 573.97 -1.241 -1.05371 0
M  V30 6164 O 575.159 -1.50379 -0.961679 0
M  V30 6165 C 572.259 -2.90685 -1.74229 0
M  V30 6166 C 571.432 -4.16019 -1.35081 0
M  V30 6167 C 570.491 -4.66989 -2.42502 0
M  V30 6168 O 569.517 -5.30895 -2.05279 0
M  V30 6169 N 570.719 -4.44006 -3.7395 0
M  V30 6170 H 573.484 -2.99627 0.0660501 0
M  V30 6171 H 571.045 -1.60885 0.181014 0
M  V30 6172 H 573.037 -3.21695 -2.4555 0
M  V30 6173 H 571.607 -2.17575 -2.24454 0
M  V30 6174 H 570.827 -3.91414 -0.467833 0
M  V30 6175 H 572.115 -4.9752 -1.06542 0
M  V30 6176 H 571.513 -3.92924 -4.06973 0
M  V30 6177 H 570.07 -4.7959 -4.41403 0
M  V30 6178 N 573.503 -0.0852151 -1.57369 0
M  V30 6179 C 574.433 0.874556 -2.16503 0
M  V30 6180 C 575.414 1.30111 -1.09568 0
M  V30 6181 O 576.599 1.36977 -1.37662 0
M  V30 6182 C 573.729 2.13731 -2.73745 0
M  V30 6183 C 572.683 1.84971 -3.85966 0
M  V30 6184 C 572.009 3.17991 -4.29867 0
M  V30 6185 C 573.309 1.14442 -5.09608 0
M  V30 6186 H 575.003 0.381899 -2.96954 0
M  V30 6187 H 572.549 0.18225 -1.42842 0
M  V30 6188 H 574.502 2.81302 -3.13763 0
M  V30 6189 H 573.226 2.65263 -1.90534 0
M  V30 6190 H 571.885 1.19801 -3.46473 0
M  V30 6191 H 571.533 3.6739 -3.4356 0
M  V30 6192 H 571.233 2.99534 -5.05523 0
M  V30 6193 H 572.757 3.86737 -4.72511 0
M  V30 6194 H 574.171 1.72105 -5.46857 0
M  V30 6195 H 572.568 1.06197 -5.90629 0
M  V30 6196 H 573.638 0.12559 -4.84737 0
M  V30 6197 N 574.981 1.5647 0.188427 0
M  V30 6198 C 576.227 1.82181 0.904534 0
M  V30 6199 C 576.582 0.663258 1.80606 0
M  V30 6200 O 575.875 -0.341231 1.88537 0
M  V30 6201 C 576.069 3.11596 1.7505 0
M  V30 6202 C 575.898 4.39928 0.932372 0
M  V30 6203 C 574.668 5.01554 0.61417 0
M  V30 6204 C 576.866 5.13527 0.281936 0
M  V30 6205 N 574.848 6.13499 -0.221896 0
M  V30 6206 C 576.219 6.18603 -0.416037 0
M  V30 6207 C 578.274 4.97505 0.198345 0
M  V30 6208 C 576.977 7.09394 -1.18965 0
M  V30 6209 C 579.003 5.88725 -0.561887 0
M  V30 6210 C 578.365 6.93251 -1.24828 0
M  V30 6211 H 574.464 0.717858 0.310168 0
M  V30 6212 H 577.048 1.93932 0.172757 0
M  V30 6213 H 575.219 3.01068 2.45383 0
M  V30 6214 H 576.951 3.25369 2.4066 0
M  V30 6215 H 573.706 4.64174 0.940187 0
M  V30 6216 H 574.13 6.74065 -0.629735 0
M  V30 6217 H 578.772 4.16716 0.714665 0
M  V30 6218 H 576.49 7.8964 -1.71737 0
M  V30 6219 H 580.076 5.78401 -0.628009 0
M  V30 6220 H 578.956 7.62618 -1.82712 0
M  V30 6221 N 576.459 -0.456382 1.50847 0
M  V30 6222 C 577.689 -1.22848 1.66108 0
M  V30 6223 C 578.097 -1.85936 0.349897 0
M  V30 6224 O 577.44 -1.70664 -0.679665 0
M  V30 6225 C 577.502 -2.36722 2.70561 0
M  V30 6226 C 577.166 -1.94154 4.13707 0
M  V30 6227 C 578.163 -1.4557 4.99105 0
M  V30 6228 C 575.848 -2.02426 4.59705 0
M  V30 6229 C 577.842 -1.0582 6.28555 0
M  V30 6230 C 575.529 -1.62287 5.89157 0
M  V30 6231 C 576.527 -1.14064 6.73408 0
M  V30 6232 O 576.215 -0.744873 8.00442 0
M  V30 6233 H 575.947 -0.377105 0.561042 0
M  V30 6234 H 578.501 -0.549431 1.97915 0
M  V30 6235 H 576.731 -3.07844 2.34027 0
M  V30 6236 H 578.42 -2.98646 2.74892 0
M  V30 6237 H 579.186 -1.38589 4.64777 0
M  V30 6238 H 575.065 -2.38908 3.94264 0
M  V30 6239 H 578.609 -0.6811 6.94267 0
M  V30 6240 H 574.506 -1.68932 6.23003 0
M  V30 6241 H 575.274 -0.87242 8.13837 0
M  V30 6242 N 577.937 -1.40673 -0.710563 0
M  V30 6243 C 578.9 -1.4108 -1.80635 0
M  V30 6244 C 579.9 -0.303783 -1.57904 0
M  V30 6245 O 581.09 -0.562937 -1.64853 0
M  V30 6246 C 578.222 -1.20748 -3.18799 0
M  V30 6247 H 579.415 -2.38612 -1.81671 0
M  V30 6248 H 576.968 -1.26595 -0.916704 0
M  V30 6249 H 577.703 -0.239964 -3.23411 0
M  V30 6250 H 577.488 -2.00941 -3.36698 0
M  V30 6251 H 578.978 -1.23833 -3.98817 0
M  V30 6252 N 579.415 0.9433 -1.26252 0
M  V30 6253 C 580.664 1.68369 -1.11062 0
M  V30 6254 C 580.977 1.92514 0.346104 0
M  V30 6255 O 582.183 2.64358 0.618646 0
M  V30 6256 C 580.639 3.03171 -1.93946 0
M  V30 6257 C 580.247 2.86782 -3.4418 0
M  V30 6258 C 581.991 3.80916 -1.87359 0
M  V30 6259 C 579.898 4.17044 -4.19319 0
M  V30 6260 H 578.828 0.631469 -0.412023 0
M  V30 6261 H 581.479 1.04922 -1.50544 0
M  V30 6262 H 579.861 3.67587 -1.47296 0
M  V30 6263 H 581.035 2.31229 -3.98585 0
M  V30 6264 H 579.35 2.22482 -3.51981 0
M  V30 6265 H 581.947 4.77417 -2.40784 0
M  V30 6266 H 582.29 4.07658 -0.843857 0
M  V30 6267 H 582.823 3.2327 -2.31821 0
M  V30 6268 H 579.562 3.95487 -5.22753 0
M  V30 6269 H 579.082 4.72319 -3.69696 0
M  V30 6270 H 580.761 4.85513 -4.27651 0
M  V30 6271 N 580.893 1.08022 1.14757 0
M  V30 6272 C 582.142 0.802468 1.8505 0
M  V30 6273 C 582.455 -0.674061 1.83619 0
M  V30 6274 O 583.661 -1.06683 2.49662 0
M  V30 6275 C 582.117 1.38551 3.32162 0
M  V30 6276 C 581.725 2.89354 3.42021 0
M  V30 6277 C 583.469 1.18608 4.07594 0
M  V30 6278 C 581.376 3.40815 4.83321 0
M  V30 6279 H 580.306 0.296518 0.693248 0
M  V30 6280 H 582.957 1.30114 1.29393 0
M  V30 6281 H 581.339 0.814556 3.87532 0
M  V30 6282 H 582.513 3.52552 2.96722 0
M  V30 6283 H 580.828 3.08165 2.80041 0
M  V30 6284 H 583.425 1.54525 5.11885 0
M  V30 6285 H 583.768 0.125599 4.1611 0
M  V30 6286 H 584.301 1.72375 3.58513 0
M  V30 6287 H 581.04 4.46418 4.79991 0
M  V30 6288 H 580.56 2.82374 5.29174 0
M  V30 6289 H 582.239 3.37171 5.522 0
M  V30 6290 N 582.371 -1.3172 0.865308 0
M  V30 6291 C 583.281 -2.32394 0.320935 0
M  V30 6292 C 584.297 -1.64511 -0.566746 0
M  V30 6293 O 585.473 -1.95969 -0.464575 0
M  V30 6294 C 582.538 -3.43462 -0.472701 0
M  V30 6295 C 581.599 -4.27015 0.442385 0
M  V30 6296 C 580.832 -5.32779 -0.313469 0
M  V30 6297 O 581.055 -5.49158 -1.54214 0
M  V30 6298 O 579.989 -6.01015 0.326257 0
M  V30 6299 H 583.815 -2.80868 1.15528 0
M  V30 6300 H 581.4 -1.35535 0.628545 0
M  V30 6301 H 583.282 -4.11172 -0.922781 0
M  V30 6302 H 581.957 -2.97159 -1.28367 0
M  V30 6303 H 580.864 -3.62075 0.940866 0
M  V30 6304 H 582.197 -4.76871 1.21882 0
M  V30 6305 N 583.85 -0.624285 -1.44708 0
M  V30 6306 C 585.075 -0.131171 -2.06985 0
M  V30 6307 C 585.5 1.18234 -1.46295 0
M  V30 6308 O 584.858 1.72375 -0.561842 0
M  V30 6309 C 584.906 -0.0226724 -3.60593 0
M  V30 6310 O 584.01 1.02314 -3.99507 0
M  V30 6311 H 583.351 -0.0816556 -0.65896 0
M  V30 6312 H 585.88 -0.859027 -1.85693 0
M  V30 6313 H 585.891 0.170138 -4.07645 0
M  V30 6314 H 584.566 -0.981685 -4.04148 0
M  V30 6315 H 583.143 0.805452 -3.64097 0
M  V30 6316 N 585.328 1.53329 -0.364422 0
M  V30 6317 C 586.26 2.23286 0.517293 0
M  V30 6318 C 587.273 1.24657 1.04711 0
M  V30 6319 O 588.462 1.50887 0.95369 0
M  V30 6320 C 585.562 2.91604 1.72685 0
M  V30 6321 C 584.735 4.1673 1.32873 0
M  V30 6322 C 583.794 4.68269 2.40022 0
M  V30 6323 O 582.82 5.31976 2.02461 0
M  V30 6324 N 584.022 4.45983 3.7159 0
M  V30 6325 H 586.787 2.99588 -0.0819391 0
M  V30 6326 H 584.348 1.60787 -0.189544 0
M  V30 6327 H 586.34 3.22992 2.4384 0
M  V30 6328 H 584.91 2.18763 2.23297 0
M  V30 6329 H 584.13 3.91657 0.447069 0
M  V30 6330 H 585.418 4.98078 1.03902 0
M  V30 6331 H 584.816 3.95077 4.04883 0
M  V30 6332 H 583.373 4.81924 4.38854 0
M  V30 6333 N 586.806 0.0935595 1.57322 0
M  V30 6334 C 588.034 -0.578934 1.98635 0
M  V30 6335 C 588.449 -1.61819 0.972626 0
M  V30 6336 O 587.806 -1.82461 -0.0379638 0
M  V30 6337 C 587.857 -1.22802 3.40003 0
M  V30 6338 O 587.578 -0.230334 4.37494 0
M  V30 6339 C 589.079 -1.98627 3.96311 0
M  V30 6340 H 586.299 -0.155324 0.652775 0
M  V30 6341 H 588.843 0.172393 2.03772 0
M  V30 6342 H 586.998 -1.93029 3.35885 0
M  V30 6343 H 587.412 -0.698649 5.19826 0
M  V30 6344 H 588.886 -2.39405 4.97382 0
M  V30 6345 H 589.363 -2.85151 3.34044 0
M  V30 6346 H 589.969 -1.3322 4.03897 0
M  V30 6347 N 588.284 -1.56567 -0.180126 0
M  V30 6348 C 589.194 -1.98947 -1.24327 0
M  V30 6349 C 590.21 -0.899446 -1.4895 0
M  V30 6350 O 591.386 -1.20639 -1.61271 0
M  V30 6351 C 588.451 -2.33328 -2.56435 0
M  V30 6352 C 587.512 -3.56114 -2.39752 0
M  V30 6353 C 586.745 -3.88845 -3.65561 0
M  V30 6354 O 586.968 -3.22662 -4.70368 0
M  V30 6355 O 585.902 -4.82226 -3.60197 0
M  V30 6356 H 589.728 -2.89634 -0.913565 0
M  V30 6357 H 587.313 -1.44319 -0.386306 0
M  V30 6358 H 589.195 -2.5645 -3.34382 0
M  V30 6359 H 587.87 -1.45806 -2.89002 0
M  V30 6360 H 586.777 -3.38221 -1.59866 0
M  V30 6361 H 588.11 -4.4415 -2.12113 0
M  V30 6362 N 589.762 0.448376 -1.51087 0
M  V30 6363 C 590.99 1.22143 -1.66999 0
M  V30 6364 C 591.405 1.85283 -0.362699 0
M  V30 6365 O 590.762 1.70236 0.65772 0
M  V30 6366 C 590.813 2.31357 -2.7777 0
M  V30 6367 O 590.534 1.70801 -4.03434 0
M  V30 6368 C 592.035 3.21836 -3.04855 0
M  V30 6369 H 589.255 0.368558 -0.560719 0
M  V30 6370 H 591.799 0.532618 -1.97442 0
M  V30 6371 H 589.954 2.95973 -2.49958 0
M  V30 6372 H 590.368 2.42895 -4.64868 0
M  V30 6373 H 591.842 3.94627 -3.85971 0
M  V30 6374 H 592.319 3.81949 -2.16821 0
M  V30 6375 H 592.925 2.62933 -3.34285 0
M  V30 6376 N 591.24 1.41047 0.703093 0
M  V30 6377 C 592.488 1.39723 1.4602 0
M  V30 6378 C 592.809 0.00461257 1.94999 0
M  V30 6379 O 592.079 -0.952292 1.71196 0
M  V30 6380 H 590.659 0.514281 0.541779 0
M  V30 6381 H 593.321 1.76217 0.832678 0
M  V30 6382 H 592.417 2.07982 2.32701 0
M  V30 6383 N 592.718 -0.936591 1.26751 0
M  V30 6384 C 593.946 -1.71758 1.15355 0
M  V30 6385 C 594.361 -1.86549 -0.290683 0
M  V30 6386 O 593.718 -1.37616 -1.19868 0
M  V30 6387 C 593.769 -3.12193 1.82258 0
M  V30 6388 O 593.49 -2.98105 3.21038 0
M  V30 6389 C 594.991 -4.06485 1.76875 0
M  V30 6390 H 592.211 -0.537636 0.401483 0
M  V30 6391 H 594.755 -1.17382 1.67457 0
M  V30 6392 H 592.91 -3.63456 1.34083 0
M  V30 6393 H 593.324 -3.86824 3.54214 0
M  V30 6394 H 594.798 -5.02569 2.28316 0
M  V30 6395 H 595.275 -4.32986 0.736216 0
M  V30 6396 H 595.881 -3.61144 2.24623 0
M  V30 6397 N 594.196 -1.08629 -1.14182 0
M  V30 6398 C 595.607 -0.838003 -1.66836 0
M  V30 6399 C 595.958 0.634885 -1.85644 0
M  V30 6400 O 595.083 1.49008 -1.56926 0
M  V30 6401 C 595.678 -1.51465 -3.03058 0
M  V30 6402 C 594.237 -1.31355 -3.52736 0
M  V30 6403 C 593.384 -1.57599 -2.28162 0
M  V30 6404 H 596.335 -1.24656 -0.982165 0
M  V30 6405 H 596.356 -0.943134 -3.68626 0
M  V30 6406 H 595.868 -2.58661 -2.89337 0
M  V30 6407 H 593.969 -0.262384 -3.71675 0
M  V30 6408 H 594.082 -2.04275 -4.33369 0
M  V30 6409 H 592.446 -0.997659 -2.34348 0
M  V30 6410 H 593.229 -2.66006 -2.17015 0
M  V30 6411 N 595.674 1.31259 -0.872281 0
M  V30 6412 C 596.904 2.00504 -0.498183 0
M  V30 6413 C 597.312 1.65632 0.914479 0
M  V30 6414 O 596.655 0.882849 1.61095 0
M  V30 6415 C 596.717 3.5482 -0.578194 0
M  V30 6416 C 596.381 4.13172 -1.95289 0
M  V30 6417 C 597.378 4.30107 -2.92069 0
M  V30 6418 C 595.063 4.48846 -2.25483 0
M  V30 6419 C 597.057 4.81908 -4.17185 0
M  V30 6420 C 594.744 5.00349 -3.50847 0
M  V30 6421 C 595.742 5.16831 -4.46514 0
M  V30 6422 O 595.43 5.67228 -5.69656 0
M  V30 6423 H 595.162 0.648055 -0.192354 0
M  V30 6424 H 597.716 1.6841 -1.17589 0
M  V30 6425 H 595.946 3.86383 0.156438 0
M  V30 6426 H 597.635 4.05318 -0.217192 0
M  V30 6427 H 598.401 4.02862 -2.7005 0
M  V30 6428 H 594.28 4.35292 -1.51795 0
M  V30 6429 H 597.824 4.94688 -4.91863 0
M  V30 6430 H 593.721 5.27028 -3.72708 0
M  V30 6431 H 594.489 5.85592 -5.7186 0
M  V30 6432 N 597.152 0.631951 1.44375 0
M  V30 6433 C 598.085 -0.121822 2.27875 0
M  V30 6434 C 599.063 -0.850457 1.38586 0
M  V30 6435 O 600.247 -0.854378 1.68026 0
M  V30 6436 C 597.374 -1.17859 3.17533 0
M  V30 6437 C 596.42 -0.550391 4.22934 0
M  V30 6438 S 597.253 0.660145 5.31415 0
M  V30 6439 C 598.409 -0.396613 6.24642 0
M  V30 6440 H 598.642 0.586537 2.91457 0
M  V30 6441 H 596.175 0.420146 1.48574 0
M  V30 6442 H 598.133 -1.78335 3.69739 0
M  V30 6443 H 596.794 -1.85915 2.53169 0
M  V30 6444 H 595.987 -1.34631 4.85685 0
M  V30 6445 H 595.589 -0.0202306 3.73995 0
M  V30 6446 H 597.881 -1.26893 6.65511 0
M  V30 6447 H 598.824 0.195345 7.0783 0
M  V30 6448 H 599.232 -0.72288 5.59852 0
M  V30 6449 N 598.631 -1.53133 0.372548 0
M  V30 6450 C 599.561 -2.28876 -0.462412 0
M  V30 6451 C 600.542 -1.31583 -1.07796 0
M  V30 6452 O 601.727 -1.60461 -1.09389 0
M  V30 6453 C 598.857 -3.08317 -1.59868 0
M  V30 6454 C 597.811 -4.13355 -1.11003 0
M  V30 6455 C 597.137 -4.8092 -2.33708 0
M  V30 6456 C 598.437 -5.21955 -0.18983 0
M  V30 6457 H 600.131 -2.9892 0.169511 0
M  V30 6458 H 597.677 -1.43761 0.0829658 0
M  V30 6459 H 599.63 -3.60055 -2.18949 0
M  V30 6460 H 598.354 -2.35976 -2.25794 0
M  V30 6461 H 597.013 -3.62573 -0.541869 0
M  V30 6462 H 596.661 -4.05144 -2.98106 0
M  V30 6463 H 596.361 -5.51904 -2.01682 0
M  V30 6464 H 597.885 -5.35455 -2.93462 0
M  V30 6465 H 599.299 -5.69153 -0.688319 0
M  V30 6466 H 597.696 -6.00087 0.0398887 0
M  V30 6467 H 598.766 -4.78811 0.766057 0
M  V30 6468 N 600.109 -0.101901 -1.5727 0
M  V30 6469 C 601.339 0.567568 -1.98651 0
M  V30 6470 C 601.747 1.61839 -0.980037 0
M  V30 6471 O 601.09 1.83661 0.0376564 0
M  V30 6472 C 601.152 1.26742 -3.36417 0
M  V30 6473 C 600.816 0.366561 -4.55528 0
M  V30 6474 C 601.813 -0.388022 -5.1845 0
M  V30 6475 C 599.498 0.282629 -5.01504 0
M  V30 6476 C 601.492 -1.21445 -6.25724 0
M  V30 6477 C 599.179 -0.547443 -6.08643 0
M  V30 6478 C 600.177 -1.29462 -6.70618 0
M  V30 6479 O 599.865 -2.11095 -7.7569 0
M  V30 6480 H 599.597 0.156282 -0.657687 0
M  V30 6481 H 602.151 -0.179912 -2.04611 0
M  V30 6482 H 600.381 2.06162 -3.27161 0
M  V30 6483 H 602.07 1.8321 -3.622 0
M  V30 6484 H 602.836 -0.332949 -4.83856 0
M  V30 6485 H 598.715 0.853868 -4.53023 0
M  V30 6486 H 602.259 -1.79814 -6.74027 0
M  V30 6487 H 598.156 -0.603971 -6.42668 0
M  V30 6488 H 598.924 -2.03851 -7.92709 0
M  V30 6489 N 601.587 1.56661 0.17182 0
M  V30 6490 C 602.534 1.96371 1.21273 0
M  V30 6491 C 603.504 0.82756 1.44016 0
M  V30 6492 O 604.689 1.08764 1.56764 0
M  V30 6493 C 601.829 2.32838 2.54716 0
M  V30 6494 C 600.942 3.59628 2.39356 0
M  V30 6495 C 600.077 3.85311 3.65662 0
M  V30 6496 C 599.116 5.0545 3.45234 0
M  V30 6497 N 598.253 5.27268 4.63608 0
M  V30 6498 H 603.093 2.85106 0.86709 0
M  V30 6499 H 600.63 1.41073 0.416744 0
M  V30 6500 H 602.588 2.52004 3.3249 0
M  V30 6501 H 601.218 1.47214 2.87277 0
M  V30 6502 H 600.27 3.4838 1.52761 0
M  V30 6503 H 601.582 4.4756 2.20207 0
M  V30 6504 H 600.736 4.04841 4.51872 0
M  V30 6505 H 599.475 2.95753 3.8779 0
M  V30 6506 H 598.48 4.85819 2.5741 0
M  V30 6507 H 599.705 5.96538 3.24529 0
M  V30 6508 H 597.651 4.40662 4.85956 0
M  V30 6509 H 597.568 6.09422 4.4737 0
M  V30 6510 H 598.836 5.51277 5.51103 0
M  V30 6511 N 603.065 -0.440357 1.51323 0
M  V30 6512 C 604.342 -1.20109 1.5438 0
M  V30 6513 C 604.722 -2.08866 0.306303 0
M  V30 6514 O 604.07 -2.1723 -0.708773 0
M  V30 6515 C 604.28 -2.00555 2.8562 0
M  V30 6516 C 605.628 -2.577 3.37455 0
M  V30 6517 O 606.652 -2.10769 2.8715 0
M  V30 6518 O 605.511 -3.43289 4.25224 0
M  V30 6519 H 602.605 -0.546668 0.620551 0
M  V30 6520 H 605.151 -0.449672 1.63634 0
M  V30 6521 H 603.923 -1.35346 3.67147 0
M  V30 6522 H 603.546 -2.82768 2.79514 0
M  V30 6523 N 604.543 -1.41418 -0.695603 0
M  V30 6524 C 605.768 -1.44329 -1.48942 0
M  V30 6525 C 606.193 -0.0501579 -1.88033 0
M  V30 6526 O 605.551 0.946598 -1.54626 0
M  V30 6527 C 605.599 -2.3578 -2.72837 0
M  V30 6528 O 604.703 -1.81482 -3.70322 0
M  V30 6529 H 604.044 -0.489838 -0.44828 0
M  V30 6530 H 606.574 -1.85878 -0.855014 0
M  V30 6531 H 606.584 -2.51654 -3.21145 0
M  V30 6532 H 605.259 -3.37005 -2.43722 0
M  V30 6533 H 603.836 -1.75058 -3.29255 0
M  V30 6534 N 606.021 0.929856 -1.27246 0
M  V30 6535 C 607.261 1.6919 -1.14691 0
M  V30 6536 C 607.625 1.896 0.302621 0
M  V30 6537 O 608.826 2.63102 0.550543 0
M  V30 6538 C 607.097 3.02291 -1.9067 0
M  V30 6539 S 608.656 3.93436 -1.94303 0
M  V30 6540 H 605.474 0.581248 -0.409477 0
M  V30 6541 H 608.076 1.10722 -1.61124 0
M  V30 6542 H 606.78 2.85125 -2.95181 0
M  V30 6543 H 606.311 3.65813 -1.44723 0
M  V30 6544 H 608.326 4.85224 -1.0379 0
M  V30 6545 N 607.499 1.09233 1.13605 0
M  V30 6546 C 608.447 0.724572 2.21027 0
M  V30 6547 C 609.441 -0.273595 1.67176 0
M  V30 6548 O 610.647 -0.135266 1.79491 0
M  V30 6549 H 607.022 0.216319 0.720215 0
M  V30 6550 H 608.993 1.63975 2.49309 0
M  V30 6551 C 607.742 0.159126 3.47336 0
M  V30 6552 H 607.065 0.918387 3.89109 0
M  V30 6553 H 608.505 -0.0602851 4.23957 0
M  V30 6554 C 606.964 -1.10514 3.18258 0
M  V30 6555 O 607.494 -2.18869 3.36837 0
M  V30 6556 N 605.7 -1.01886 2.72154 0
M  V30 6557 H 605.247 -0.137027 2.57235 0
M  V30 6558 H 605.205 -1.8655 2.53074 0
M  V30 6559 N 608.977 -1.30795 0.87923 0
M  V30 6560 C 610.393 -1.48981 0.57243 0
M  V30 6561 C 610.593 -1.80719 -0.891236 0
M  V30 6562 O 609.649 -1.89136 -1.67283 0
M  V30 6563 C 610.962 -2.61721 1.48063 0
M  V30 6564 C 612.51 -2.75603 1.48365 0
M  V30 6565 C 612.985 -3.91449 2.37763 0
M  V30 6566 N 614.476 -3.98751 2.35695 0
M  V30 6567 C 615.211 -4.87684 3.01583 0
M  V30 6568 N 614.707 -5.81454 3.76674 0
M  V30 6569 N 616.5 -4.81005 2.90844 0
M  V30 6570 H 608.651 -1.08465 1.82617 0
M  V30 6571 H 610.914 -0.536813 0.781368 0
M  V30 6572 H 610.62 -2.45073 2.52254 0
M  V30 6573 H 610.494 -3.58071 1.18596 0
M  V30 6574 H 612.881 -2.9166 0.44927 0
M  V30 6575 H 612.962 -1.79891 1.81859 0
M  V30 6576 H 612.606 -3.76149 3.41283 0
M  V30 6577 H 612.536 -4.86487 2.01589 0
M  V30 6578 H 615.027 -3.31668 1.81121 0
M  V30 6579 H 615.34 -6.46063 4.24054 0
M  V30 6580 H 613.685 -5.81403 3.80782 0
M  V30 6581 H 616.876 -4.06728 2.31711 0
M  V30 6582 H 617.049 -5.50107 3.42471 0
M  V30 6583 N 610.455 -0.639598 -1.44038 0
M  V30 6584 C 611.402 0.0602458 -2.30721 0
M  V30 6585 C 612.372 0.828352 -1.43971 0
M  V30 6586 O 613.557 0.807693 -1.72861 0
M  V30 6587 C 610.697 1.03008 -3.29368 0
M  V30 6588 C 609.81 0.259502 -4.3122 0
M  V30 6589 C 608.945 1.22191 -5.16955 0
M  V30 6590 C 607.984 0.440978 -6.10509 0
M  V30 6591 N 607.121 1.35428 -6.88915 0
M  V30 6592 H 611.961 -0.684867 -2.90023 0
M  V30 6593 H 609.498 -0.349509 -1.42888 0
M  V30 6594 H 611.456 1.60583 -3.85057 0
M  V30 6595 H 610.086 1.74222 -2.71747 0
M  V30 6596 H 609.138 -0.432317 -3.77935 0
M  V30 6597 H 610.45 -0.348347 -4.97582 0
M  V30 6598 H 609.604 1.86873 -5.77203 0
M  V30 6599 H 608.343 1.86367 -4.50687 0
M  V30 6600 H 607.348 -0.219279 -5.49363 0
M  V30 6601 H 608.573 -0.196192 -6.78817 0
M  V30 6602 H 606.519 1.9831 -6.25307 0
M  V30 6603 H 606.436 0.800657 -7.51748 0
M  V30 6604 H 607.704 1.98967 -7.53679 0
M  V30 6605 N 611.933 1.52934 -0.380664 0
M  V30 6606 C 613.158 2.06363 0.207157 0
M  V30 6607 C 613.583 1.25122 1.4045 0
M  V30 6608 O 612.941 0.274062 1.79217 0
M  V30 6609 C 612.989 3.56162 0.563996 0
M  V30 6610 O 612.093 3.77552 1.65917 0
M  V30 6611 H 611.434 0.663468 0.0265859 0
M  V30 6612 H 613.964 1.9719 -0.545635 0
M  V30 6613 H 613.974 3.99453 0.830752 0
M  V30 6614 H 612.649 4.14732 -0.311427 0
M  V30 6615 H 611.226 3.46154 1.3868 0
M  V30 6616 N 613.412 0.11024 1.57214 0
M  V30 6617 C 614.36 -0.860586 2.16094 0
M  V30 6618 C 615.354 -1.28156 1.1078 0
M  V30 6619 O 616.56 -1.25433 1.29099 0
M  V30 6620 H 612.935 -0.295606 0.691463 0
M  V30 6621 H 614.906 -0.33942 2.96463 0
M  V30 6622 C 613.655 -2.10421 2.768 0
M  V30 6623 H 612.978 -1.7892 3.5753 0
M  V30 6624 H 614.418 -2.76375 3.21547 0
M  V30 6625 C 612.877 -2.88823 1.73444 0
M  V30 6626 O 613.407 -3.839 1.18251 0
M  V30 6627 N 611.613 -2.52649 1.43586 0
M  V30 6628 H 611.16 -1.754 1.8866 0
M  V30 6629 H 611.118 -3.05403 0.746735 0
M  V30 6630 N 614.89 -1.56749 -0.16351 0
M  V30 6631 C 615.822 -1.93587 -1.22705 0
M  V30 6632 C 616.835 -0.829824 -1.40063 0
M  V30 6633 O 618.024 -1.10826 -1.39928 0
M  V30 6634 C 615.124 -2.1803 -2.59454 0
M  V30 6635 C 614.297 -3.4928 -2.63292 0
M  V30 6636 C 613.356 -3.62457 -3.8146 0
M  V30 6637 O 612.382 -4.35004 -3.67096 0
M  V30 6638 N 613.584 -2.97888 -4.9824 0
M  V30 6639 H 616.349 -2.8542 -0.914081 0
M  V30 6640 H 613.91 -1.58 -0.353214 0
M  V30 6641 H 615.902 -2.24102 -3.36987 0
M  V30 6642 H 614.472 -1.32543 -2.8311 0
M  V30 6643 H 613.692 -3.54795 -1.71796 0
M  V30 6644 H 614.98 -4.35632 -2.62873 0
M  V30 6645 H 614.378 -2.38833 -5.12811 0
M  V30 6646 H 612.935 -3.09545 -5.73607 0
M  V30 6647 N 616.368 0.432326 -1.51554 0
M  V30 6648 C 617.3 1.54357 -1.6943 0
M  V30 6649 C 618.313 1.52311 -0.574897 0
M  V30 6650 O 619.502 1.56997 -0.849369 0
M  V30 6651 C 616.602 2.93273 -1.69836 0
M  V30 6652 C 615.775 3.19768 -2.98442 0
M  V30 6653 C 614.834 4.38433 -2.90969 0
M  V30 6654 O 613.86 4.36842 -3.64908 0
M  V30 6655 N 615.062 5.42276 -2.07163 0
M  V30 6656 H 617.827 1.39426 -2.65293 0
M  V30 6657 H 615.388 0.621331 -1.49503 0
M  V30 6658 H 617.38 3.70687 -1.62399 0
M  V30 6659 H 615.95 3.01777 -0.815456 0
M  V30 6660 H 615.17 2.30607 -3.19709 0
M  V30 6661 H 616.458 3.343 -3.83563 0
M  V30 6662 H 615.856 5.46407 -1.46477 0
M  V30 6663 H 614.413 6.18524 -2.05601 0
M  V30 6664 N 617.846 1.41785 0.688094 0
M  V30 6665 C 618.794 1.44436 1.82321 0
M  V30 6666 C 619.788 0.321544 1.6632 0
M  V30 6667 O 620.994 0.493931 1.73091 0
M  V30 6668 H 617.369 0.452084 0.600936 0
M  V30 6669 H 619.34 2.40087 1.77202 0
M  V30 6670 C 618.089 1.35071 3.20392 0
M  V30 6671 H 617.412 2.2076 3.33324 0
M  V30 6672 H 618.852 1.40988 3.99873 0
M  V30 6673 C 617.311 0.0639127 3.36839 0
M  V30 6674 O 617.841 -0.888495 3.91751 0
M  V30 6675 N 616.047 -0.0146114 2.90596 0
M  V30 6676 H 615.594 0.761191 2.46097 0
M  V30 6677 H 615.552 -0.874988 3.01979 0
M  V30 6678 N 619.324 -0.923095 1.27737 0
M  V30 6679 C 620.254 -2.04124 1.13383 0
M  V30 6680 C 621.235 -1.70066 0.0340658 0
M  V30 6681 O 622.42 -1.93068 0.209383 0
M  V30 6682 C 619.55 -3.3831 0.785097 0
M  V30 6683 C 618.504 -3.86496 1.8386 0
M  V30 6684 C 617.83 -5.1754 1.34373 0
M  V30 6685 C 619.13 -4.09381 3.24353 0
M  V30 6686 H 620.824 -2.1639 2.06919 0
M  V30 6687 H 618.37 -1.03976 0.996243 0
M  V30 6688 H 620.323 -4.16016 0.671485 0
M  V30 6689 H 619.047 -3.2607 -0.185969 0
M  V30 6690 H 617.706 -3.10987 1.9412 0
M  V30 6691 H 617.354 -5.01696 0.361989 0
M  V30 6692 H 617.054 -5.50751 2.04811 0
M  V30 6693 H 618.578 -5.97811 1.24315 0
M  V30 6694 H 619.992 -4.77641 3.17067 0
M  V30 6695 H 618.389 -4.53906 3.92542 0
M  V30 6696 H 619.459 -3.14515 3.69064 0
M  V30 6697 N 620.802 -1.09834 -1.13024 0
M  V30 6698 C 622.05 -0.835297 -1.8403 0
M  V30 6699 C 622.371 0.640944 -1.84165 0
M  V30 6700 O 621.641 1.46517 -1.30037 0
M  V30 6701 H 620.221 -0.306018 -0.681441 0
M  V30 6702 H 622.883 -1.38734 -1.36891 0
M  V30 6703 H 621.979 -1.19258 -2.88416 0
M  V30 6704 N 622.28 1.30327 -0.886154 0
M  V30 6705 C 623.508 2.00254 -0.520176 0
M  V30 6706 C 623.923 1.66419 0.891637 0
M  V30 6707 O 623.28 0.901951 1.58654 0
M  V30 6708 C 623.331 3.54916 -0.686775 0
M  V30 6709 O 623.052 3.87547 -2.04301 0
M  V30 6710 C 624.553 4.42115 -0.323945 0
M  V30 6711 H 621.773 0.640204 -0.200947 0
M  V30 6712 H 624.317 1.66183 -1.19178 0
M  V30 6713 H 622.472 3.8735 -0.0625273 0
M  V30 6714 H 622.886 4.82247 -2.06249 0
M  V30 6715 H 624.36 5.49808 -0.491407 0
M  V30 6716 H 624.837 4.32953 0.73811 0
M  V30 6717 H 625.443 4.15129 -0.924565 0
M  V30 6718 N 623.758 0.647228 1.43697 0
M  V30 6719 C 625.007 0.155552 2.01099 0
M  V30 6720 C 625.32 -1.23569 1.51624 0
M  V30 6721 O 626.526 -1.82226 2.01261 0
M  V30 6722 C 624.982 0.227296 3.59182 0
M  V30 6723 C 624.59 1.62086 4.17651 0
M  V30 6724 C 626.334 -0.207085 4.23995 0
M  V30 6725 C 624.241 1.64685 5.68008 0
M  V30 6726 H 623.171 0.0543895 0.752036 0
M  V30 6727 H 625.822 0.808386 1.64734 0
M  V30 6728 H 624.204 -0.492937 3.9292 0
M  V30 6729 H 625.378 2.36597 3.95422 0
M  V30 6730 H 623.693 2.0007 3.65186 0
M  V30 6731 H 626.29 -0.207426 5.34298 0
M  V30 6732 H 626.633 -1.23742 3.97484 0
M  V30 6733 H 627.166 0.461193 3.95118 0
M  V30 6734 H 623.905 2.65608 5.99277 0
M  V30 6735 H 623.425 0.944914 5.9231 0
M  V30 6736 H 625.104 1.38792 6.31938 0
M  V30 6737 N 625.236 -1.5273 0.388769 0
M  V30 6738 C 626.183 -2.26437 -0.446639 0
M  V30 6739 C 627.153 -1.28025 -1.05824 0
M  V30 6740 O 628.338 -1.56852 -1.08637 0
M  V30 6741 C 625.478 -3.07407 -1.56828 0
M  V30 6742 C 624.591 -4.20747 -0.979589 0
M  V30 6743 C 623.726 -4.89113 -2.07224 0
M  V30 6744 C 622.765 -5.94447 -1.45942 0
M  V30 6745 N 621.902 -6.56411 -2.49135 0
M  V30 6746 H 626.742 -2.97404 0.18837 0
M  V30 6747 H 624.279 -1.46727 0.104725 0
M  V30 6748 H 626.237 -3.52642 -2.22934 0
M  V30 6749 H 624.867 -2.3865 -2.17361 0
M  V30 6750 H 623.919 -3.7983 -0.208151 0
M  V30 6751 H 625.231 -4.9637 -0.491747 0
M  V30 6752 H 624.385 -5.3765 -2.81101 0
M  V30 6753 H 623.124 -4.13013 -2.59368 0
M  V30 6754 H 622.129 -5.4525 -0.705894 0
M  V30 6755 H 623.354 -6.7248 -0.945932 0
M  V30 6756 H 621.3 -5.83152 -3.00449 0
M  V30 6757 H 621.217 -7.27645 -2.05105 0
M  V30 6758 H 622.485 -7.09592 -3.22644 0
M  V30 6759 N 626.714 -0.118576 -1.57153 0
M  V30 6760 C 627.954 0.542618 -1.97066 0
M  V30 6761 C 628.318 1.63874 -1.00046 0
M  V30 6762 O 629.519 2.3588 -1.28895 0
M  V30 6763 C 627.79 1.06196 -3.41258 0
M  V30 6764 S 629.349 1.73174 -4.03183 0
M  V30 6765 H 626.167 0.17638 -0.688775 0
M  V30 6766 H 628.769 -0.203556 -1.94437 0
M  V30 6767 H 627.473 0.253016 -4.09619 0
M  V30 6768 H 627.004 1.84342 -3.47536 0
M  V30 6769 H 629.019 3.01749 -3.93906 0
M  V30 6770 N 628.193 1.56834 0.155195 0
M  V30 6771 C 629.418 1.87412 0.888337 0
M  V30 6772 C 629.843 0.70671 1.74319 0
M  V30 6773 O 629.201 -0.343892 1.78009 0
M  V30 6774 C 629.249 3.1652 1.72765 0
M  V30 6775 O 628.353 2.99877 2.83103 0
M  V30 6776 H 627.694 0.615983 0.247914 0
M  V30 6777 H 630.224 2.04061 0.148478 0
M  V30 6778 H 630.234 3.48334 2.12433 0
M  V30 6779 H 628.909 4.01094 1.09985 0
M  V30 6780 H 627.486 2.79453 2.46902 0
M  V30 6781 N 629.671 -0.424282 1.51781 0
M  V30 6782 C 630.619 -1.53649 1.74628 0
M  V30 6783 C 631.613 -1.57923 0.612922 0
M  V30 6784 O 632.819 -1.61511 0.794618 0
M  V30 6785 H 629.194 -0.510706 0.551981 0
M  V30 6786 H 631.165 -1.31558 2.67834 0
M  V30 6787 C 629.914 -2.91177 1.9003 0
M  V30 6788 H 629.237 -2.88625 2.76651 0
M  V30 6789 H 630.677 -3.6833 2.10021 0
M  V30 6790 C 629.136 -3.30303 0.663435 0
M  V30 6791 O 629.666 -4.01315 -0.175812 0
M  V30 6792 N 627.872 -2.86201 0.503723 0
M  V30 6793 H 627.419 -2.28583 1.18776 0
M  V30 6794 H 627.377 -3.12741 -0.322575 0
M  V30 6795 N 631.149 -1.42148 -0.680565 0
M  V30 6796 C 632.079 -1.4796 -1.80638 0
M  V30 6797 C 633.06 -0.336728 -1.66734 0
M  V30 6798 O 634.245 -0.550247 -1.86242 0
M  V30 6799 C 631.375 -1.37569 -3.18892 0
M  V30 6800 C 630.329 -2.49823 -3.47524 0
M  V30 6801 C 629.655 -2.24491 -4.85291 0
M  V30 6802 C 630.955 -3.92144 -3.44994 0
M  V30 6803 H 632.649 -2.42184 -1.76032 0
M  V30 6804 H 630.195 -1.16566 -0.845481 0
M  V30 6805 H 632.148 -1.40243 -3.97379 0
M  V30 6806 H 630.872 -0.398357 -3.24162 0
M  V30 6807 H 629.531 -2.46455 -2.71395 0
M  V30 6808 H 629.179 -1.25066 -4.87204 0
M  V30 6809 H 628.879 -2.99722 -5.05411 0
M  V30 6810 H 630.403 -2.28906 -5.66069 0
M  V30 6811 H 631.817 -3.97145 -4.13459 0
M  V30 6812 H 630.214 -4.67179 -3.76648 0
M  V30 6813 H 631.284 -4.19225 -2.43676 0
M  V30 6814 N 632.627 0.916307 -1.28225 0
M  V30 6815 C 633.867 1.67964 -1.16479 0
M  V30 6816 C 634.231 1.8991 0.282494 0
M  V30 6817 O 635.432 2.63671 0.522607 0
M  V30 6818 C 633.703 3.00251 -1.93866 0
M  V30 6819 S 635.262 3.91353 -1.98465 0
M  V30 6820 H 632.08 0.576873 -0.415619 0
M  V30 6821 H 634.682 1.09006 -1.62289 0
M  V30 6822 H 633.386 2.81978 -2.98189 0
M  V30 6823 H 632.917 3.64257 -1.48595 0
M  V30 6824 H 634.932 4.84096 -1.0893 0
M  V30 6825 N 634.105 1.10431 1.1244 0
M  V30 6826 C 635.333 0.868872 1.87772 0
M  V30 6827 C 635.748 -0.580645 1.7965 0
M  V30 6828 O 635.105 -1.40031 1.17036 0
M  V30 6829 C 635.156 1.30855 3.36986 0
M  V30 6830 O 634.877 2.70123 3.44914 0
M  V30 6831 C 636.378 1.107 4.29256 0
M  V30 6832 H 633.598 0.311868 0.59412 0
M  V30 6833 H 636.142 1.46897 1.42273 0
M  V30 6834 H 634.297 0.752126 3.80029 0
M  V30 6835 H 634.711 2.88923 4.37748 0
M  V30 6836 H 636.185 1.46378 5.32238 0
M  V30 6837 H 636.662 0.0456228 4.39176 0
M  V30 6838 H 637.268 1.64988 3.91994 0
M  V30 6839 N 635.583 -1.29855 0.893053 0
M  V30 6840 C 636.493 -2.31661 0.370157 0
M  V30 6841 C 637.509 -1.65677 -0.531723 0
M  V30 6842 O 638.685 -1.9691 -0.422902 0
M  V30 6843 C 635.75 -3.44388 -0.399741 0
M  V30 6844 C 634.811 -4.2598 0.532861 0
M  V30 6845 C 634.044 -5.33324 -0.200388 0
M  V30 6846 O 634.267 -5.52305 -1.42531 0
M  V30 6847 O 633.201 -6.00188 0.453668 0
M  V30 6848 H 637.027 -2.78354 1.2146 0
M  V30 6849 H 634.612 -1.34171 0.657153 0
M  V30 6850 H 636.494 -4.13037 -0.835358 0
M  V30 6851 H 635.169 -2.99815 -1.22035 0
M  V30 6852 H 634.076 -3.59998 1.01746 0
M  V30 6853 H 635.409 -4.74178 1.3197 0
M  V30 6854 N 637.061 -0.65484 -1.43351 0
M  V30 6855 C 638.31 -0.166215 -2.01014 0
M  V30 6856 C 638.623 1.22764 -1.52278 0
M  V30 6857 O 639.829 1.81156 -2.02224 0
M  V30 6858 C 638.285 -0.246341 -3.59056 0
M  V30 6859 C 637.893 -1.64299 -4.16785 0
M  V30 6860 C 639.637 0.184597 -4.24098 0
M  V30 6861 C 637.544 -1.67695 -5.67126 0
M  V30 6862 H 636.474 -0.0583769 -0.751737 0
M  V30 6863 H 639.125 -0.817111 -1.64303 0
M  V30 6864 H 637.507 0.472092 -3.93176 0
M  V30 6865 H 638.681 -2.3869 -3.94162 0
M  V30 6866 H 636.996 -2.02004 -3.6412 0
M  V30 6867 H 639.593 0.179088 -5.344 0
M  V30 6868 H 639.936 1.21632 -3.98135 0
M  V30 6869 H 640.469 -0.482141 -3.94867 0
M  V30 6870 H 637.208 -2.68783 -5.9786 0
M  V30 6871 H 636.728 -0.976313 -5.91801 0
M  V30 6872 H 638.407 -1.42142 -6.31193 0
M  V30 6873 N 638.539 1.52521 -0.396863 0
M  V30 6874 C 639.785 2.01971 0.183169 0
M  V30 6875 C 640.118 1.2825 1.45827 0
M  V30 6876 O 639.393 0.385179 1.90648 0
M  V30 6877 C 639.676 3.5736 0.443391 0
M  V30 6878 C 639.529 4.41743 -0.84753 0
M  V30 6879 C 640.848 4.22539 1.2308 0
M  V30 6880 H 637.967 0.734119 0.0650976 0
M  V30 6881 H 640.609 1.82519 -0.527918 0
M  V30 6882 H 638.759 3.74066 1.04914 0
M  V30 6883 H 640.431 4.36773 -1.48414 0
M  V30 6884 H 638.674 4.0845 -1.4612 0
M  V30 6885 H 639.345 5.48507 -0.620003 0
M  V30 6886 H 641.821 4.09857 0.718084 0
M  V30 6887 H 640.697 5.31227 1.38162 0
M  V30 6888 H 640.958 3.80675 2.24808 0
M  V30 6889 N 640.017 0.126909 1.57088 0
M  V30 6890 C 640.927 -0.833867 2.1928 0
M  V30 6891 C 641.943 -1.2868 1.17122 0
M  V30 6892 O 643.119 -1.34815 1.49622 0
M  V30 6893 C 640.184 -2.0632 2.78627 0
M  V30 6894 C 639.245 -1.66143 3.95847 0
M  V30 6895 C 638.478 -2.83217 4.52354 0
M  V30 6896 O 638.701 -3.98868 4.0775 0
M  V30 6897 O 637.635 -2.59846 5.42922 0
M  V30 6898 H 641.461 -0.334564 3.01852 0
M  V30 6899 H 639.046 -0.0991091 1.49071 0
M  V30 6900 H 640.928 -2.78304 3.16425 0
M  V30 6901 H 639.603 -2.55242 1.99082 0
M  V30 6902 H 638.51 -0.912435 3.62802 0
M  V30 6903 H 639.843 -1.21957 4.76852 0
M  V30 6904 N 641.495 -1.56914 -0.146875 0
M  V30 6905 C 642.725 -1.87243 -0.873126 0
M  V30 6906 C 643.133 -0.713127 -1.75246 0
M  V30 6907 O 642.476 0.326228 -1.8078 0
M  V30 6908 C 642.538 -3.12279 -1.78107 0
M  V30 6909 C 642.202 -4.44082 -1.07889 0
M  V30 6910 C 643.199 -5.18096 -0.432734 0
M  V30 6911 C 640.884 -4.90807 -1.06836 0
M  V30 6912 C 642.878 -6.37039 0.214569 0
M  V30 6913 C 640.565 -6.09674 -0.417243 0
M  V30 6914 C 641.563 -6.82636 0.223093 0
M  V30 6915 O 641.251 -7.99245 0.863884 0
M  V30 6916 H 640.983 -0.624896 -0.257839 0
M  V30 6917 H 643.537 -2.04892 -0.14434 0
M  V30 6918 H 641.767 -2.90639 -2.5508 0
M  V30 6919 H 643.456 -3.28854 -2.37929 0
M  V30 6920 H 644.222 -4.83066 -0.432677 0
M  V30 6921 H 640.101 -4.3394 -1.55618 0
M  V30 6922 H 643.645 -6.93927 0.714965 0
M  V30 6923 H 639.542 -6.44165 -0.414967 0
M  V30 6924 H 640.31 -8.14912 0.765564 0
M  V30 6925 N 642.974 0.416227 -1.52004 0
M  V30 6926 C 644.202 1.18573 -1.69553 0
M  V30 6927 C 644.617 1.84472 -0.401919 0
M  V30 6928 O 643.974 1.71593 0.621463 0
M  V30 6929 C 644.025 2.25413 -2.82615 0
M  V30 6930 O 643.746 1.62205 -4.06966 0
M  V30 6931 C 645.247 3.15297 -3.11613 0
M  V30 6932 H 642.467 0.356582 -0.56841 0
M  V30 6933 H 645.011 0.490618 -1.98528 0
M  V30 6934 H 643.166 2.90604 -2.56179 0
M  V30 6935 H 643.58 2.3298 -4.69916 0
M  V30 6936 H 645.054 3.86351 -3.94255 0
M  V30 6937 H 645.531 3.77264 -2.24874 0
M  V30 6938 H 646.137 2.55783 -3.39787 0
M  V30 6939 N 644.452 1.42507 0.673017 0
M  V30 6940 C 645.677 1.4668 1.46627 0
M  V30 6941 C 646.102 0.080066 1.8793 0
M  V30 6942 O 645.46 -0.921879 1.56112 0
M  V30 6943 C 645.508 2.40091 2.69051 0
M  V30 6944 O 644.612 1.8735 3.67387 0
M  V30 6945 H 643.953 0.496908 0.44043 0
M  V30 6946 H 646.483 1.87215 0.825334 0
M  V30 6947 H 646.493 2.56731 3.17101 0
M  V30 6948 H 645.168 3.4084 2.3833 0
M  V30 6949 H 643.745 1.80274 3.26429 0
M  V30 6950 N 645.93 -0.909495 1.28709 0
M  V30 6951 C 646.877 -2.01245 1.13 0
M  V30 6952 C 647.847 -1.6608 0.0259684 0
M  V30 6953 O 649.032 -1.89835 0.191687 0
M  V30 6954 C 646.172 -3.35644 0.802315 0
M  V30 6955 C 645.285 -3.83653 1.98582 0
M  V30 6956 C 644.42 -5.06582 1.59837 0
M  V30 6957 C 643.459 -5.46934 2.74827 0
M  V30 6958 N 642.596 -6.61053 2.36546 0
M  V30 6959 H 647.436 -2.14013 2.0737 0
M  V30 6960 H 644.973 -1.0482 1.03205 0
M  V30 6961 H 646.931 -4.12963 0.593057 0
M  V30 6962 H 645.561 -3.22631 -0.104457 0
M  V30 6963 H 644.613 -3.02454 2.30708 0
M  V30 6964 H 645.925 -4.09515 2.84779 0
M  V30 6965 H 645.079 -5.91457 1.35143 0
M  V30 6966 H 643.818 -4.82537 0.707753 0
M  V30 6967 H 642.823 -4.60599 3.00215 0
M  V30 6968 H 644.048 -5.72965 3.64538 0
M  V30 6969 H 641.994 -6.3863 1.49959 0
M  V30 6970 H 641.911 -6.86662 3.16277 0
M  V30 6971 H 643.179 -7.49221 2.15146 0
M  V30 6972 N 647.408 -1.11026 -1.11852 0
M  V30 6973 C 648.685 -0.768347 -1.79877 0
M  V30 6974 C 649.065 0.744261 -1.97545 0
M  V30 6975 O 648.413 1.67271 -1.55669 0
M  V30 6976 C 648.623 -1.52648 -3.13846 0
M  V30 6977 C 649.971 -1.70297 -3.88953 0
M  V30 6978 O 650.995 -1.49037 -3.23522 0
M  V30 6979 O 649.854 -2.05593 -5.06353 0
M  V30 6980 H 646.948 -0.277891 -0.778913 0
M  V30 6981 H 649.494 -1.21343 -1.18633 0
M  V30 6982 H 648.266 -2.55564 -2.96315 0
M  V30 6983 H 647.889 -1.07466 -3.82801 0
M  V30 6984 N 648.886 1.2938 -0.899927 0
M  V30 6985 C 649.796 2.31462 -0.382437 0
M  V30 6986 C 650.812 1.65956 0.522929 0
M  V30 6987 O 651.988 1.97131 0.412454 0
M  V30 6988 C 649.053 3.44595 0.381472 0
M  V30 6989 C 648.114 4.25692 -0.555444 0
M  V30 6990 C 647.347 5.33422 0.172102 0
M  V30 6991 O 647.57 5.53053 1.396 0
M  V30 6992 O 646.504 5.99939 -0.485491 0
M  V30 6993 H 650.33 2.77706 -1.22934 0
M  V30 6994 H 647.915 1.33821 -0.664259 0
M  V30 6995 H 649.797 4.13474 0.813442 0
M  V30 6996 H 648.472 3.00458 1.20443 0
M  V30 6997 H 647.379 3.59453 -1.03653 0
M  V30 6998 H 648.712 4.73471 -1.34483 0
M  V30 6999 N 650.364 0.662433 1.43002 0
M  V30 7000 C 651.61 0.179857 2.02001 0
M  V30 7001 C 651.943 -1.20625 1.52195 0
M  V30 7002 O 651.218 -1.80726 0.718911 0
M  V30 7003 C 651.501 0.200845 3.59539 0
M  V30 7004 C 651.354 1.62153 4.19555 0
M  V30 7005 C 652.673 -0.457738 4.37713 0
M  V30 7006 H 649.792 0.0668305 0.733964 0
M  V30 7007 H 652.434 0.84487 1.70182 0
M  V30 7008 H 650.584 -0.365411 3.86778 0
M  V30 7009 H 652.256 2.23908 4.03315 0
M  V30 7010 H 650.499 2.16601 3.75854 0
M  V30 7011 H 651.17 1.58799 5.28665 0
M  V30 7012 H 653.646 0.0241495 4.16093 0
M  V30 7013 H 652.522 -0.412363 5.47349 0
M  V30 7014 H 652.783 -1.53336 4.14657 0
M  V30 7015 N 651.842 -1.52309 0.404946 0
M  V30 7016 C 652.805 -2.25491 -0.410651 0
M  V30 7017 C 653.805 -1.27704 -0.977154 0
M  V30 7018 O 654.995 -1.51679 -0.856691 0
M  V30 7019 C 652.127 -3.02197 -1.57765 0
M  V30 7020 H 653.32 -2.99015 0.230277 0
M  V30 7021 H 650.873 -1.55506 0.157377 0
M  V30 7022 H 651.608 -2.33013 -2.25556 0
M  V30 7023 H 651.393 -3.73987 -1.17797 0
M  V30 7024 H 652.883 -3.57719 -2.15469 0
M  V30 7025 N 653.32 -0.135238 -1.57019 0
M  V30 7026 C 654.566 0.519563 -1.96032 0
M  V30 7027 C 654.899 1.65284 -1.01955 0
M  V30 7028 O 654.174 1.94408 -0.059727 0
M  V30 7029 C 654.457 1.0369 -3.44848 0
M  V30 7030 C 654.31 -0.0940754 -4.49702 0
M  V30 7031 C 655.629 1.92254 -3.95887 0
M  V30 7032 H 652.748 0.18739 -0.712779 0
M  V30 7033 H 655.39 -0.214086 -1.8879 0
M  V30 7034 H 653.54 1.66209 -3.5115 0
M  V30 7035 H 655.212 -0.73 -4.55487 0
M  V30 7036 H 653.455 -0.754924 -4.27181 0
M  V30 7037 H 654.126 0.309419 -5.51132 0
M  V30 7038 H 656.602 1.39581 -3.9199 0
M  V30 7039 H 655.478 2.25364 -5.00502 0
M  V30 7040 H 655.739 2.85513 -3.37543 0
M  V30 7041 N 654.798 1.5699 0.138552 0
M  V30 7042 C 656.038 1.85619 0.855849 0
M  V30 7043 C 656.402 0.720663 1.77962 0
M  V30 7044 O 657.603 0.888221 2.53701 0
M  V30 7045 C 655.874 3.19447 1.60275 0
M  V30 7046 S 657.433 3.69656 2.36431 0
M  V30 7047 H 654.251 0.650926 0.286035 0
M  V30 7048 H 656.853 1.9516 0.115331 0
M  V30 7049 H 655.557 4.00053 0.915737 0
M  V30 7050 H 655.088 3.12935 2.38402 0
M  V30 7051 H 657.103 3.39595 3.61787 0
M  V30 7052 N 656.276 -0.40816 1.52223 0
M  V30 7053 C 657.224 -1.51788 1.76248 0
M  V30 7054 C 658.218 -1.57264 0.629638 0
M  V30 7055 O 659.424 -1.60659 0.811704 0
M  V30 7056 H 655.799 -0.504823 0.557367 0
M  V30 7057 H 657.77 -1.2871 2.69214 0
M  V30 7058 C 656.519 -2.89145 1.93107 0
M  V30 7059 H 655.842 -2.85674 2.79697 0
M  V30 7060 H 657.282 -3.66082 2.13916 0
M  V30 7061 C 655.741 -3.29581 0.698431 0
M  V30 7062 O 656.271 -4.01479 -0.133238 0
M  V30 7063 N 654.477 -2.85651 0.53405 0
M  V30 7064 H 654.024 -2.2731 1.21194 0
M  V30 7065 H 653.982 -3.13065 -0.289387 0
M  V30 7066 N 657.755 -1.42862 -0.66545 0
M  V30 7067 C 658.685 -1.49867 -1.79059 0
M  V30 7068 C 659.666 -0.354394 -1.66367 0
M  V30 7069 O 660.851 -0.569969 -1.85647 0
M  V30 7070 C 657.981 -1.40943 -3.17415 0
M  V30 7071 C 656.935 -2.53495 -3.44854 0
M  V30 7072 C 656.261 -2.29626 -4.82883 0
M  V30 7073 C 657.561 -3.95781 -3.40815 0
M  V30 7074 H 659.255 -2.44037 -1.73453 0
M  V30 7075 H 656.801 -1.17456 -0.833071 0
M  V30 7076 H 658.754 -1.4445 -3.95869 0
M  V30 7077 H 657.478 -0.432716 -3.23721 0
M  V30 7078 H 656.137 -2.4932 -2.68766 0
M  V30 7079 H 655.785 -1.30226 -4.8585 0
M  V30 7080 H 655.485 -3.05065 -5.02204 0
M  V30 7081 H 657.009 -2.34897 -5.63609 0
M  V30 7082 H 658.423 -4.01508 -4.09224 0
M  V30 7083 H 656.82 -4.71148 -3.71672 0
M  V30 7084 H 657.89 -4.21786 -2.39216 0
M  V30 7085 N 659.233 0.902656 -1.29189 0
M  V30 7086 C 660.196 1.98797 -1.14071 0
M  V30 7087 C 661.196 1.60615 -0.0770549 0
M  V30 7088 O 662.386 1.71165 -0.323753 0
M  V30 7089 C 659.518 3.32688 -0.743739 0
M  V30 7090 H 660.711 2.13637 -2.10473 0
M  V30 7091 H 658.264 1.08678 -1.12334 0
M  V30 7092 H 658.999 3.23549 0.220554 0
M  V30 7093 H 658.784 3.61765 -1.51223 0
M  V30 7094 H 660.274 4.12337 -0.660935 0
M  V30 7095 N 660.711 1.11618 1.11262 0
M  V30 7096 C 661.936 0.889013 1.8738 0
M  V30 7097 C 662.361 -0.555884 1.79698 0
M  V30 7098 O 661.719 -1.39272 1.16073 0
M  V30 7099 C 661.767 1.35759 3.34069 0
M  V30 7100 O 660.871 0.530499 4.08974 0
M  V30 7101 H 660.212 0.320082 0.581759 0
M  V30 7102 H 662.742 1.48611 1.40627 0
M  V30 7103 H 662.752 1.35291 3.84916 0
M  V30 7104 H 661.427 2.40973 3.38976 0
M  V30 7105 H 660.004 0.601439 3.68018 0
M  V30 7106 N 662.189 -1.289 0.906776 0
M  V30 7107 C 663.119 -2.29932 0.406659 0
M  V30 7108 C 664.1 -1.6189 -0.522061 0
M  V30 7109 O 665.285 -1.8935 -0.431283 0
M  V30 7110 C 662.415 -3.45425 -0.360366 0
M  V30 7111 C 661.369 -4.25316 0.478574 0
M  V30 7112 C 660.695 -5.33076 -0.416373 0
M  V30 7113 C 661.995 -4.92739 1.7322 0
M  V30 7114 H 663.689 -2.72013 1.25097 0
M  V30 7115 H 661.235 -1.30768 0.602977 0
M  V30 7116 H 663.188 -4.15186 -0.721029 0
M  V30 7117 H 661.912 -3.02206 -1.23852 0
M  V30 7118 H 660.571 -3.57273 0.821662 0
M  V30 7119 H 660.219 -4.86101 -1.29287 0
M  V30 7120 H 659.919 -5.8743 0.141309 0
M  V30 7121 H 661.443 -6.05686 -0.773072 0
M  V30 7122 H 662.857 -5.54898 1.44086 0
M  V30 7123 H 661.254 -5.57057 2.23175 0
M  V30 7124 H 662.324 -4.17625 2.46408 0
M  V30 7125 N 663.667 -0.670007 -1.42649 0
M  V30 7126 C 664.63 0.00204659 -2.292 0
M  V30 7127 C 665.63 0.733817 -1.4308 0
M  V30 7128 O 666.82 0.57254 -1.64522 0
M  V30 7129 C 663.952 1.01359 -3.25483 0
M  V30 7130 H 665.145 -0.759696 -2.90118 0
M  V30 7131 H 662.698 -0.432105 -1.50208 0
M  V30 7132 H 663.433 1.80399 -2.69493 0
M  V30 7133 H 663.218 0.492323 -3.88997 0
M  V30 7134 H 664.708 1.4824 -3.90403 0
M  V30 7135 N 665.145 1.52092 -0.413018 0
M  V30 7136 C 666.075 2.30021 0.401567 0
M  V30 7137 C 667.056 1.34395 1.04269 0
M  V30 7138 O 668.241 1.63304 1.05097 0
M  V30 7139 C 665.371 3.12447 1.51638 0
M  V30 7140 C 664.325 4.16153 1.00005 0
M  V30 7141 C 663.651 4.86948 2.20875 0
M  V30 7142 C 664.951 5.22275 0.0513757 0
M  V30 7143 H 666.645 2.98365 -0.248704 0
M  V30 7144 H 664.191 1.4349 -0.121052 0
M  V30 7145 H 666.144 3.65733 2.09326 0
M  V30 7146 H 664.868 2.41879 2.19458 0
M  V30 7147 H 663.527 3.63882 0.445549 0
M  V30 7148 H 663.175 4.12905 2.8726 0
M  V30 7149 H 662.875 5.57057 1.86978 0
M  V30 7150 H 664.399 5.43048 2.79162 0
M  V30 7151 H 665.813 5.70778 0.537176 0
M  V30 7152 H 664.21 5.9977 -0.198977 0
M  V30 7153 H 665.28 4.76611 -0.892736 0
M  V30 7154 N 666.623 0.143563 1.56945 0
M  V30 7155 C 667.571 -0.814556 2.17871 0
M  V30 7156 C 668.565 -1.25778 1.13474 0
M  V30 7157 O 669.771 -1.22666 1.31731 0
M  V30 7158 H 666.146 -0.280873 0.697578 0
M  V30 7159 H 668.117 -0.276459 2.97117 0
M  V30 7160 C 666.866 -2.04503 2.81201 0
M  V30 7161 H 666.189 -1.71296 3.61245 0
M  V30 7162 H 667.629 -2.69493 3.27337 0
M  V30 7163 C 666.088 -2.85079 1.79532 0
M  V30 7164 O 666.618 -3.81306 1.26368 0
M  V30 7165 N 664.824 -2.49546 1.48913 0
M  V30 7166 H 664.371 -1.71359 1.92338 0
M  V30 7167 H 664.329 -3.03751 0.811348 0
M  V30 7168 N 668.101 -1.57061 -0.130224 0
M  V30 7169 C 669.034 -1.94698 -1.19029 0
M  V30 7170 C 670.012 -0.815074 -1.40696 0
M  V30 7171 O 671.196 -1.07223 -1.55034 0
M  V30 7172 C 668.323 -2.23352 -2.5462 0
M  V30 7173 C 667.369 -3.45945 -2.49448 0
M  V30 7174 S 668.202 -4.98927 -1.94505 0
M  V30 7175 C 669.358 -5.30721 -3.31792 0
M  V30 7176 H 669.591 -2.84308 -0.869272 0
M  V30 7177 H 667.124 -1.50688 -0.336531 0
M  V30 7178 H 669.082 -2.40539 -3.32643 0
M  V30 7179 H 667.743 -1.34376 -2.83905 0
M  V30 7180 H 666.936 -3.63324 -3.49302 0
M  V30 7181 H 666.538 -3.28086 -1.79543 0
M  V30 7182 H 668.83 -5.25215 -4.27966 0
M  V30 7183 H 669.773 -6.32048 -3.19251 0
M  V30 7184 H 670.181 -4.5821 -3.29703 0
M  V30 7185 N 669.579 0.400081 -1.52437 0
M  V30 7186 C 670.809 1.16598 -1.70553 0
M  V30 7187 C 671.217 1.8451 -0.418665 0
M  V30 7188 O 670.56 1.73069 0.615855 0
M  V30 7189 C 670.622 2.26517 -2.7916 0
M  V30 7190 C 670.286 1.78666 -4.20628 0
M  V30 7191 C 671.283 1.26946 -5.04163 0
M  V30 7192 C 668.968 1.85225 -4.66902 0
M  V30 7193 C 670.962 0.824187 -6.32049 0
M  V30 7194 C 668.649 1.40309 -5.94774 0
M  V30 7195 C 669.647 0.889922 -6.77178 0
M  V30 7196 O 669.335 0.447281 -8.02655 0
M  V30 7197 H 669.067 0.356023 -0.574651 0
M  V30 7198 H 671.621 0.475598 -1.99818 0
M  V30 7199 H 669.851 2.98946 -2.45292 0
M  V30 7200 H 671.54 2.88237 -2.85787 0
M  V30 7201 H 672.306 1.21244 -4.69601 0
M  V30 7202 H 668.185 2.24111 -4.02859 0
M  V30 7203 H 671.729 0.422958 -6.96317 0
M  V30 7204 H 667.626 1.45693 -6.28843 0
M  V30 7205 H 668.394 0.569768 -8.16514 0
M  V30 7206 N 671.057 1.43213 0.657864 0
M  V30 7207 C 672.303 1.44798 1.41991 0
M  V30 7208 C 672.636 0.070256 1.94073 0
M  V30 7209 O 671.911 -0.908177 1.71995 0
M  V30 7210 C 672.194 2.4865 2.60471 0
M  V30 7211 C 672.047 3.95679 2.13911 0
M  V30 7212 C 673.366 2.49292 3.62686 0
M  V30 7213 H 670.485 0.527244 0.514959 0
M  V30 7214 H 673.127 1.74733 0.74621 0
M  V30 7215 H 671.277 2.23254 3.17946 0
M  V30 7216 H 672.949 4.32116 1.61472 0
M  V30 7217 H 671.192 4.08733 1.45325 0
M  V30 7218 H 671.863 4.6395 2.99089 0
M  V30 7219 H 674.339 2.71917 3.14961 0
M  V30 7220 H 673.215 3.23907 4.43143 0
M  V30 7221 H 673.476 1.52502 4.14964 0
M  V30 7222 N 672.536 -0.895792 1.29666 0
M  V30 7223 C 673.764 -1.68001 1.20761 0
M  V30 7224 C 674.179 -1.87379 -0.231187 0
M  V30 7225 O 673.536 -1.41359 -1.15429 0
M  V30 7226 C 673.587 -3.06236 1.92098 0
M  V30 7227 O 673.308 -2.8774 3.30359 0
M  V30 7228 C 674.809 -4.00652 1.89717 0
M  V30 7229 H 672.029 -0.524591 0.418384 0
M  V30 7230 H 674.573 -1.11995 1.71106 0
M  V30 7231 H 672.728 -3.59007 1.45578 0
M  V30 7232 H 673.142 -3.75359 3.66342 0
M  V30 7233 H 674.616 -4.95051 2.44189 0
M  V30 7234 H 675.093 -4.30424 0.873595 0
M  V30 7235 H 675.699 -3.53815 2.35998 0
M  V30 7236 N 674.014 -1.12206 -1.10668 0
M  V30 7237 C 675.239 -0.898938 -1.86906 0
M  V30 7238 C 675.664 0.546346 -1.79991 0
M  V30 7239 O 675.022 1.38655 -1.1681 0
M  V30 7240 C 675.07 -1.37529 -3.33344 0
M  V30 7241 O 674.174 -0.55218 -4.08687 0
M  V30 7242 H 673.515 -0.323163 -0.580053 0
M  V30 7243 H 676.045 -1.49355 -1.39837 0
M  V30 7244 H 676.055 -1.3733 -3.84193 0
M  V30 7245 H 674.73 -2.42767 -3.37693 0
M  V30 7246 H 673.307 -0.620947 -3.67694 0
M  V30 7247 N 675.492 1.28418 -0.913599 0
M  V30 7248 C 676.402 2.31043 -0.406965 0
M  V30 7249 C 677.418 1.66501 0.505298 0
M  V30 7250 O 678.594 1.97558 0.391522 0
M  V30 7251 C 675.659 3.4498 0.344901 0
M  V30 7252 C 674.72 4.25078 -0.600563 0
M  V30 7253 C 673.953 5.33575 0.115516 0
M  V30 7254 O 674.176 5.54503 1.33727 0
M  V30 7255 O 673.11 5.9939 -0.549095 0
M  V30 7256 H 676.936 2.76387 -1.25873 0
M  V30 7257 H 674.521 1.33109 -0.678415 0
M  V30 7258 H 676.403 4.14314 0.769542 0
M  V30 7259 H 675.078 3.01719 1.1725 0
M  V30 7260 H 673.985 3.58334 -1.0746 0
M  V30 7261 H 675.318 4.72018 -1.39497 0
M  V30 7262 N 676.97 0.677563 1.42291 0
M  V30 7263 C 677.92 -0.0218641 2.2799 0
M  V30 7264 C 678.904 -0.770816 1.41235 0
M  V30 7265 O 680.096 -0.649273 1.64662 0
M  V30 7266 C 677.225 -0.970449 3.29298 0
M  V30 7267 C 676.311 -0.218695 4.23536 0
M  V30 7268 N 676.702 0.777908 4.99782 0
M  V30 7269 C 675 -0.456748 4.43655 0
M  V30 7270 C 675.701 1.22632 5.68627 0
M  V30 7271 N 674.677 0.55573 5.40752 0
M  V30 7272 H 678.479 0.742516 2.84366 0
M  V30 7273 H 675.993 0.506862 1.54288 0
M  V30 7274 H 677.99 -1.48652 3.89497 0
M  V30 7275 H 676.65 -1.73463 2.74483 0
M  V30 7276 H 677.661 1.15754 5.04798 0
M  V30 7277 H 674.338 -1.20021 3.99877 0
M  V30 7278 H 675.728 2.05231 6.39789 0
M  V30 7279 N 678.448 -1.51871 0.421078 0
M  V30 7280 C 679.676 -2.06356 -0.14994 0
M  V30 7281 C 680.091 -1.29006 -1.37851 0
M  V30 7282 O 679.448 -0.345139 -1.79207 0
M  V30 7283 C 679.499 -3.58185 -0.488454 0
M  V30 7284 O 679.22 -4.32611 0.691341 0
M  V30 7285 C 680.721 -4.29129 -1.11191 0
M  V30 7286 H 677.941 -0.67083 -0.0151186 0
M  V30 7287 H 680.485 -1.95638 0.595476 0
M  V30 7288 H 678.64 -3.68871 -1.18376 0
M  V30 7289 H 679.054 -5.22927 0.405906 0
M  V30 7290 H 680.528 -5.36501 -1.29889 0
M  V30 7291 H 681.005 -3.86371 -2.0884 0
M  V30 7292 H 681.611 -4.22843 -0.456458 0
M  V30 7293 N 679.926 -0.151884 -1.56866 0
M  V30 7294 C 681.156 0.504081 -2.00356 0
M  V30 7295 C 681.564 1.58639 -1.03103 0
M  V30 7296 O 680.907 1.83688 -0.0207931 0
M  V30 7297 C 680.969 1.15975 -3.40279 0
M  V30 7298 C 680.633 0.221453 -4.56463 0
M  V30 7299 C 681.63 -0.552766 -5.16953 0
M  V30 7300 C 679.315 0.122936 -5.0215 0
M  V30 7301 C 681.309 -1.4129 -6.21543 0
M  V30 7302 C 678.996 -0.740801 -6.06593 0
M  V30 7303 C 679.994 -1.50732 -6.6616 0
M  V30 7304 O 679.682 -2.35666 -7.68581 0
M  V30 7305 H 679.414 0.135279 -0.662326 0
M  V30 7306 H 681.968 -0.244916 -2.03935 0
M  V30 7307 H 680.198 1.95649 -3.33554 0
M  V30 7308 H 681.887 1.71594 -3.67846 0
M  V30 7309 H 682.653 -0.486716 -4.82552 0
M  V30 7310 H 678.532 0.70931 -4.5551 0
M  V30 7311 H 682.076 -2.01166 -6.67966 0
M  V30 7312 H 677.973 -0.808125 -6.40421 0
M  V30 7313 H 678.741 -2.28967 -7.85822 0
M  V30 7314 N 681.404 1.57128 0.121893 0
M  V30 7315 C 682.681 1.75664 0.860327 0
M  V30 7316 C 683.061 0.726585 1.98202 0
M  V30 7317 O 682.409 -0.24999 2.27128 0
M  V30 7318 C 682.619 3.20571 1.37968 0
M  V30 7319 C 683.967 3.82988 1.83317 0
M  V30 7320 O 684.991 3.24156 1.47654 0
M  V30 7321 O 683.85 4.86393 2.49168 0
M  V30 7322 H 680.944 0.719153 0.408348 0
M  V30 7323 H 683.49 1.6937 0.105859 0
M  V30 7324 H 682.262 3.87056 0.57477 0
M  V30 7325 H 681.885 3.31392 2.19694 0
M  V30 7326 N 682.882 -0.391992 1.52647 0
M  V30 7327 C 684.129 -1.13732 1.67545 0
M  V30 7328 C 684.457 -1.90045 0.413881 0
M  V30 7329 O 683.712 -1.86157 -0.603646 0
M  V30 7330 C 684.011 -2.14401 2.85949 0
M  V30 7331 C 683.677 -1.54767 4.23507 0
M  V30 7332 C 682.339 -1.38229 4.60919 0
M  V30 7333 C 684.691 -1.11382 5.0916 0
M  V30 7334 C 682.019 -0.7685 5.81645 0
M  V30 7335 C 684.371 -0.514143 6.30507 0
M  V30 7336 C 683.035 -0.33604 6.66654 0
M  V30 7337 H 682.305 -0.416174 0.613091 0
M  V30 7338 H 684.952 -0.422327 1.86785 0
M  V30 7339 H 683.257 -2.92108 2.61114 0
M  V30 7340 H 684.954 -2.71974 2.94671 0
M  V30 7341 H 681.544 -1.68626 3.94035 0
M  V30 7342 H 685.728 -1.22962 4.80826 0
M  V30 7343 H 680.984 -0.618681 6.08262 0
M  V30 7344 H 685.158 -0.169657 6.96193 0
M  V30 7345 H 682.785 0.14166 7.60068 0
M  V30 7346 N 684.36 -1.4356 -0.65026 0
M  V30 7347 C 685.307 -1.48948 -1.76304 0
M  V30 7348 C 686.277 -0.338919 -1.62605 0
M  V30 7349 O 687.462 -0.54649 -1.82806 0
M  V30 7350 C 684.602 -1.42131 -3.14472 0
M  V30 7351 C 683.715 -2.67415 -3.39284 0
M  V30 7352 C 682.85 -2.52565 -4.67316 0
M  V30 7353 C 681.889 -3.73103 -4.85243 0
M  V30 7354 N 681.026 -3.57046 -6.04535 0
M  V30 7355 H 685.866 -2.44032 -1.71034 0
M  V30 7356 H 683.403 -1.21131 -0.834601 0
M  V30 7357 H 685.361 -1.36172 -3.94351 0
M  V30 7358 H 683.991 -0.506273 -3.18805 0
M  V30 7359 H 683.043 -2.8364 -2.53481 0
M  V30 7360 H 684.355 -3.56943 -3.48415 0
M  V30 7361 H 683.509 -2.44331 -5.55326 0
M  V30 7362 H 682.248 -1.60566 -4.60511 0
M  V30 7363 H 681.253 -3.81743 -3.95667 0
M  V30 7364 H 682.478 -4.66115 -4.93876 0
M  V30 7365 H 680.424 -2.67783 -5.98856 0
M  V30 7366 H 680.341 -4.40178 -6.14638 0
M  V30 7367 H 681.609 -3.52669 -6.95158 0
M  V30 7368 N 685.838 0.888903 -1.30139 0
M  V30 7369 C 686.785 1.99422 -1.16188 0
M  V30 7370 C 687.755 1.66017 -0.0523869 0
M  V30 7371 O 688.94 1.89506 -0.221864 0
M  V30 7372 C 686.08 3.34325 -0.855612 0
M  V30 7373 C 685.193 3.80445 -2.0466 0
M  V30 7374 C 684.328 5.03975 -1.67876 0
M  V30 7375 C 683.367 5.42492 -2.83493 0
M  V30 7376 N 682.504 6.57206 -2.47032 0
M  V30 7377 H 687.344 2.10687 -2.10749 0
M  V30 7378 H 684.881 1.03165 -1.04859 0
M  V30 7379 H 686.839 4.11968 -0.658681 0
M  V30 7380 H 685.469 3.22756 0.0531155 0
M  V30 7381 H 684.521 2.98745 -2.3549 0
M  V30 7382 H 685.833 4.04933 -2.91257 0
M  V30 7383 H 684.987 5.89232 -1.44535 0
M  V30 7384 H 683.726 4.8135 -0.784431 0
M  V30 7385 H 682.731 4.55764 -3.07505 0
M  V30 7386 H 683.956 5.67093 -3.73607 0
M  V30 7387 H 681.902 6.36164 -1.601 0
M  V30 7388 H 681.819 6.81543 -3.27161 0
M  V30 7389 H 683.087 7.45704 -2.27038 0
M  V30 7390 N 687.317 1.12792 1.10072 0
M  V30 7391 C 688.247 0.821688 2.18565 0
M  V30 7392 C 689.228 -0.21612 1.68721 0
M  V30 7393 O 690.413 -0.0764932 1.94049 0
M  V30 7394 C 687.543 0.279624 3.46172 0
M  V30 7395 C 686.497 1.25092 4.09312 0
M  V30 7396 C 685.823 0.568916 5.31665 0
M  V30 7397 C 687.123 2.60699 4.52585 0
M  V30 7398 H 688.817 1.72888 2.44438 0
M  V30 7399 H 686.363 0.832702 1.17482 0
M  V30 7400 H 688.316 0.053099 4.21367 0
M  V30 7401 H 687.04 -0.662929 3.19801 0
M  V30 7402 H 685.699 1.46332 3.36129 0
M  V30 7403 H 685.347 -0.378898 5.01571 0
M  V30 7404 H 685.047 1.21687 5.74862 0
M  V30 7405 H 686.571 0.351517 6.09587 0
M  V30 7406 H 687.985 2.43465 5.19035 0
M  V30 7407 H 686.382 3.21608 5.06644 0
M  V30 7408 H 687.452 3.1886 3.65317 0
M  V30 7409 N 688.795 -1.27931 0.920396 0
M  V30 7410 C 689.758 -2.25345 0.41858 0
M  V30 7411 C 690.758 -1.54116 -0.458798 0
M  V30 7412 O 691.948 -1.72235 -0.260912 0
M  V30 7413 C 689.08 -3.38556 -0.399104 0
M  V30 7414 H 690.273 -2.71251 1.27918 0
M  V30 7415 H 687.826 -1.39728 0.700406 0
M  V30 7416 H 688.561 -2.98021 -1.27882 0
M  V30 7417 H 688.346 -3.91426 0.229863 0
M  V30 7418 H 689.836 -4.10976 -0.740817 0
M  V30 7419 N 690.273 -0.685099 -1.4193 0
M  V30 7420 C 691.183 -0.013404 -2.34596 0
M  V30 7421 C 692.199 0.777589 -1.55658 0
M  V30 7422 O 693.375 0.717553 -1.88184 0
M  V30 7423 C 690.44 0.919031 -3.34297 0
M  V30 7424 C 689.501 0.121417 -4.29128 0
M  V30 7425 C 688.734 1.00944 -5.24067 0
M  V30 7426 O 688.957 2.24898 -5.24192 0
M  V30 7427 O 687.891 0.464724 -6.00103 0
M  V30 7428 H 691.717 -0.776978 -2.93593 0
M  V30 7429 H 689.302 -0.445379 -1.42607 0
M  V30 7430 H 691.184 1.45402 -3.9552 0
M  V30 7431 H 689.859 1.66228 -2.77759 0
M  V30 7432 H 688.766 -0.45792 -3.71287 0
M  V30 7433 H 690.099 -0.582937 -4.88736 0
M  V30 7434 N 691.751 1.51645 -0.429126 0
M  V30 7435 C 692.997 2.02314 0.140286 0
M  V30 7436 C 693.33 1.31314 1.43074 0
M  V30 7437 O 692.605 0.425531 1.89788 0
M  V30 7438 C 692.888 3.5822 0.36749 0
M  V30 7439 C 692.741 4.39846 -0.941039 0
M  V30 7440 C 694.06 4.25055 1.14089 0
M  V30 7441 H 691.179 0.735335 0.0495112 0
M  V30 7442 H 693.821 1.81358 -0.566514 0
M  V30 7443 H 691.971 3.76207 0.969556 0
M  V30 7444 H 693.643 4.33527 -1.57646 0
M  V30 7445 H 691.886 4.05259 -1.54751 0
M  V30 7446 H 692.557 5.47069 -0.73621 0
M  V30 7447 H 695.033 4.11288 0.630986 0
M  V30 7448 H 693.909 5.34038 1.26863 0
M  V30 7449 H 694.17 3.85358 2.16683 0
M  V30 7450 N 693.229 0.160201 1.56784 0
M  V30 7451 C 694.457 -0.494165 2.00912 0
M  V30 7452 C 694.872 -1.57548 1.04038 0
M  V30 7453 O 694.229 -1.82457 0.0394581 0
M  V30 7454 C 694.28 -1.08271 3.44905 0
M  V30 7455 O 694.001 -0.0445704 4.38077 0
M  V30 7456 C 695.502 -1.8164 4.04378 0
M  V30 7457 H 692.722 -0.127498 0.658776 0
M  V30 7458 H 695.266 0.258665 2.02858 0
M  V30 7459 H 693.421 -1.78609 3.4377 0
M  V30 7460 H 693.835 -0.477544 5.22322 0
M  V30 7461 H 695.309 -2.18094 5.07089 0
M  V30 7462 H 695.786 -2.70727 3.45838 0
M  V30 7463 H 696.392 -1.15969 4.09184 0
M  V30 7464 N 694.707 -1.5719 -0.113559 0
M  V30 7465 C 695.654 -2.00736 -1.13901 0
M  V30 7466 C 696.624 -0.88044 -1.40846 0
M  V30 7467 O 697.809 -1.14507 -1.5262 0
M  V30 7468 C 694.949 -2.42132 -2.45899 0
M  V30 7469 C 694.062 -3.68264 -2.25844 0
M  V30 7470 C 693.197 -3.98617 -3.5111 0
M  V30 7471 C 692.236 -5.17915 -3.26236 0
M  V30 7472 N 691.373 -5.44111 -4.4372 0
M  V30 7473 H 696.213 -2.88128 -0.760677 0
M  V30 7474 H 693.75 -1.42523 -0.364099 0
M  V30 7475 H 695.708 -2.6417 -3.22908 0
M  V30 7476 H 694.338 -1.57775 -2.81615 0
M  V30 7477 H 693.39 -3.53809 -1.39726 0
M  V30 7478 H 694.702 -4.55425 -2.03444 0
M  V30 7479 H 693.856 -4.21333 -4.36536 0
M  V30 7480 H 692.595 -3.09942 -3.76546 0
M  V30 7481 H 691.6 -4.95038 -2.39202 0
M  V30 7482 H 692.825 -6.08172 -3.02165 0
M  V30 7483 H 690.771 -4.58394 -4.69266 0
M  V30 7484 H 690.688 -6.25606 -4.24444 0
M  V30 7485 H 691.956 -5.71351 -5.30263 0
M  V30 7486 N 696.185 0.383891 -1.52853 0
M  V30 7487 C 697.431 1.13009 -1.68395 0
M  V30 7488 C 697.764 1.89488 -0.425195 0
M  V30 7489 O 697.039 1.8574 0.577136 0
M  V30 7490 C 697.322 2.10419 -2.92226 0
M  V30 7491 C 697.175 1.3767 -4.28214 0
M  V30 7492 C 698.494 3.10781 -3.11614 0
M  V30 7493 H 695.613 0.409463 -0.612788 0
M  V30 7494 H 698.255 0.412895 -1.85459 0
M  V30 7495 H 696.405 2.71579 -2.77808 0
M  V30 7496 H 698.077 0.794352 -4.54409 0
M  V30 7497 H 696.32 0.678533 -4.2846 0
M  V30 7498 H 696.991 2.08874 -5.10956 0
M  V30 7499 H 699.467 2.59715 -3.25096 0
M  V30 7500 H 698.343 3.76179 -3.99725 0
M  V30 7501 H 698.604 3.79933 -2.2606 0
M  V30 7502 N 697.663 1.43903 0.642637 0
M  V30 7503 C 698.909 1.46296 1.40447 0
M  V30 7504 C 699.242 0.0908361 1.93987 0
M  V30 7505 O 698.517 -0.889884 1.72949 0
M  V30 7506 C 698.8 2.51399 2.57819 0
M  V30 7507 C 698.653 3.97926 2.09702 0
M  V30 7508 C 699.972 2.53125 3.60022 0
M  V30 7509 H 697.091 0.532676 0.509338 0
M  V30 7510 H 699.733 1.75515 0.727635 0
M  V30 7511 H 697.883 2.26614 3.1556 0
M  V30 7512 H 699.555 4.33804 1.5688 0
M  V30 7513 H 697.798 4.10252 1.40982 0
M  V30 7514 H 698.469 4.67096 2.94152 0
M  V30 7515 H 700.945 2.75242 3.12059 0
M  V30 7516 H 699.821 3.28589 4.39682 0
M  V30 7517 H 700.082 1.56895 4.13324 0
M  V30 7518 N 699.141 -0.881989 1.30609 0
M  V30 7519 C 700.387 -1.63647 1.19781 0
M  V30 7520 C 700.72 -1.92632 -0.246265 0
M  V30 7521 O 699.995 -1.54938 -1.17577 0
M  V30 7522 C 700.278 -2.97437 2.02985 0
M  V30 7523 C 700.131 -2.75406 3.55628 0
M  V30 7524 C 701.45 -3.98397 1.86997 0
M  V30 7525 H 698.569 -0.593841 0.436488 0
M  V30 7526 H 701.211 -1.02041 1.60273 0
M  V30 7527 H 699.361 -3.50018 1.68581 0
M  V30 7528 H 701.033 -2.2959 4.00107 0
M  V30 7529 H 699.276 -2.09856 3.79662 0
M  V30 7530 H 699.947 -3.70552 4.09139 0
M  V30 7531 H 702.423 -3.54986 2.17081 0
M  V30 7532 H 701.299 -4.89916 2.47536 0
M  V30 7533 H 701.56 -4.3424 0.829943 0
M  V30 7534 N 700.619 -1.13374 -1.09472 0
M  V30 7535 C 702.035 -0.871846 -1.33682 0
M  V30 7536 C 702.235 0.492847 -1.9538 0
M  V30 7537 O 701.291 1.23946 -2.19985 0
M  V30 7538 C 702.604 -1.99608 -2.24893 0
M  V30 7539 C 704.152 -2.02812 -2.38404 0
M  V30 7540 C 704.627 -3.14497 -3.3295 0
M  V30 7541 N 706.118 -3.14004 -3.40523 0
M  V30 7542 C 706.853 -3.97061 -4.13679 0
M  V30 7543 N 706.349 -4.90131 -4.89636 0
M  V30 7544 N 708.142 -3.85162 -4.09398 0
M  V30 7545 H 700.293 -2.01288 -0.677995 0
M  V30 7546 H 702.556 -0.876492 -0.361201 0
M  V30 7547 H 702.262 -2.98 -1.86786 0
M  V30 7548 H 702.136 -1.90981 -3.25278 0
M  V30 7549 H 704.523 -1.05034 -2.75775 0
M  V30 7550 H 704.604 -2.15511 -1.37799 0
M  V30 7551 H 704.248 -4.12514 -2.96302 0
M  V30 7552 H 704.178 -2.99035 -4.33458 0
M  V30 7553 H 706.669 -2.46587 -2.86362 0
M  V30 7554 H 706.982 -5.49996 -5.42885 0
M  V30 7555 H 705.327 -4.94138 -4.88726 0
M  V30 7556 H 708.518 -3.11779 -3.49158 0
M  V30 7557 H 708.691 -4.5012 -4.6615 0
M  V30 7558 N 702.098 1.27442 -0.927168 0
M  V30 7559 C 703.046 2.28844 -0.416333 0
M  V30 7560 C 704.04 1.61882 0.499057 0
M  V30 7561 O 705.246 1.75969 0.378817 0
M  V30 7562 H 701.621 0.742989 -0.116065 0
M  V30 7563 H 703.592 2.69344 -1.28438 0
M  V30 7564 C 702.341 3.4626 0.316107 0
M  V30 7565 H 701.664 3.97999 -0.379082 0
M  V30 7566 H 703.104 4.19173 0.637975 0
M  V30 7567 C 701.563 3.00211 1.5289 0
M  V30 7568 O 702.093 3.03837 2.62766 0
M  V30 7569 N 700.299 2.55713 1.38054 0
M  V30 7570 H 699.846 2.52962 0.4866 0
M  V30 7571 H 699.804 2.25264 2.19325 0
M  V30 7572 N 703.576 0.692616 1.41565 0
M  V30 7573 C 704.506 0.0397325 2.33466 0
M  V30 7574 C 705.487 -0.770334 1.51657 0
M  V30 7575 O 706.672 -0.723903 1.80203 0
M  V30 7576 C 703.802 -0.899495 3.3545 0
M  V30 7577 C 702.756 -0.196738 4.27548 0
M  V30 7578 C 702.082 -1.25012 5.19881 0
M  V30 7579 C 703.382 0.935158 5.1386 0
M  V30 7580 H 705.076 0.807296 2.88311 0
M  V30 7581 H 702.622 0.389665 1.38628 0
M  V30 7582 H 704.575 -1.36545 3.98665 0
M  V30 7583 H 703.299 -1.69869 2.78948 0
M  V30 7584 H 701.958 0.249158 3.65752 0
M  V30 7585 H 701.606 -2.04177 4.59696 0
M  V30 7586 H 701.306 -0.784931 5.82334 0
M  V30 7587 H 702.83 -1.71665 5.85972 0
M  V30 7588 H 704.244 0.549619 5.70659 0
M  V30 7589 H 702.641 1.32726 5.85238 0
M  V30 7590 H 703.711 1.77613 4.512 0
M  V30 7591 N 705.054 -1.51416 0.437162 0
M  V30 7592 C 706.002 -2.29328 -0.388765 0
M  V30 7593 C 706.996 -1.35171 -1.02104 0
M  V30 7594 O 708.202 -1.52513 -0.956024 0
M  V30 7595 H 704.577 -0.738048 -0.144183 0
M  V30 7596 H 706.548 -2.96995 0.289212 0
M  V30 7597 C 705.297 -3.14741 -1.47761 0
M  V30 7598 H 704.62 -3.8708 -1.00045 0
M  V30 7599 H 706.06 -3.72313 -2.02877 0
M  V30 7600 C 704.519 -2.30105 -2.46076 0
M  V30 7601 O 705.049 -1.96055 -3.50607 0
M  V30 7602 N 703.255 -1.93331 -2.1696 0
M  V30 7603 H 702.802 -2.2122 -1.31983 0
M  V30 7604 H 702.76 -1.36999 -2.82982 0
M  V30 7605 N 706.532 -0.168513 -1.56696 0
M  V30 7606 C 707.479 0.762875 -2.17828 0
M  V30 7607 C 708.449 1.22892 -1.11745 0
M  V30 7608 O 709.634 1.29759 -1.39883 0
M  V30 7609 C 706.774 1.9879 -2.82093 0
M  V30 7610 C 705.887 1.56568 -4.02629 0
M  V30 7611 C 705.022 2.74416 -4.54829 0
M  V30 7612 C 704.061 2.28671 -5.67782 0
M  V30 7613 N 703.198 3.39602 -6.14504 0
M  V30 7614 H 708.038 0.23479 -2.97074 0
M  V30 7615 H 705.575 0.104163 -1.46731 0
M  V30 7616 H 707.533 2.70636 -3.17509 0
M  V30 7617 H 706.163 2.48973 -2.05456 0
M  V30 7618 H 705.215 0.744067 -3.73052 0
M  V30 7619 H 706.527 1.18988 -4.844 0
M  V30 7620 H 705.681 3.54423 -4.92412 0
M  V30 7621 H 704.42 3.15254 -3.7211 0
M  V30 7622 H 703.425 1.4711 -5.29753 0
M  V30 7623 H 704.65 1.88894 -6.52301 0
M  V30 7624 H 702.596 3.80021 -5.34715 0
M  V30 7625 H 702.513 3.06105 -6.91257 0
M  V30 7626 H 703.781 4.19902 -6.56737 0
M  V30 7627 N 708.01 1.57248 0.105221 0
M  V30 7628 C 709.259 1.84756 0.809198 0
M  V30 7629 C 709.572 0.756262 1.80389 0
M  V30 7630 O 710.778 0.918158 2.55504 0
M  V30 7631 C 709.234 3.27613 1.48989 0
M  V30 7632 C 708.842 4.44788 0.535484 0
M  V30 7633 C 710.586 3.64356 2.17819 0
M  V30 7634 C 708.493 5.78676 1.22019 0
M  V30 7635 H 707.423 0.689139 0.305946 0
M  V30 7636 H 710.074 1.83395 0.0620371 0
M  V30 7637 H 708.456 3.23485 2.28415 0
M  V30 7638 H 709.63 4.60243 -0.226557 0
M  V30 7639 H 707.945 4.16374 -0.0465769 0
M  V30 7640 H 710.542 4.61663 2.69761 0
M  V30 7641 H 710.885 2.92474 2.96251 0
M  V30 7642 H 711.418 3.70328 1.45264 0
M  V30 7643 H 708.157 6.53763 0.476875 0
M  V30 7644 H 707.677 5.67083 1.9539 0
M  V30 7645 H 709.356 6.22897 1.74952 0
M  V30 7646 N 709.488 -0.375779 1.53054 0
M  V30 7647 C 710.737 -1.11674 1.67964 0
M  V30 7648 C 711.05 -1.90755 0.432655 0
M  V30 7649 O 712.256 -2.67538 0.462109 0
M  V30 7650 C 710.712 -2.0344 2.96884 0
M  V30 7651 C 710.32 -1.29719 4.28809 0
M  V30 7652 C 712.064 -2.7759 3.2116 0
M  V30 7653 C 709.971 -2.20327 5.48826 0
M  V30 7654 H 708.901 -0.420597 0.625791 0
M  V30 7655 H 711.552 -0.378499 1.79554 0
M  V30 7656 H 709.934 -2.80953 2.79072 0
M  V30 7657 H 711.108 -0.573394 4.57219 0
M  V30 7658 H 709.423 -0.674735 4.10897 0
M  V30 7659 H 712.02 -3.4559 4.0801 0
M  V30 7660 H 712.363 -3.42399 2.36789 0
M  V30 7661 H 712.896 -2.07164 3.396 0
M  V30 7662 H 709.635 -1.60113 6.35645 0
M  V30 7663 H 709.155 -2.90585 5.2471 0
M  V30 7664 H 710.834 -2.80116 5.83219 0
M  V30 7665 N 710.966 -1.44241 -0.634997 0
M  V30 7666 C 712.243 -1.37296 -1.39317 0
M  V30 7667 C 712.623 -0.0297532 -2.11079 0
M  V30 7668 O 711.971 0.987524 -2.06059 0
M  V30 7669 C 712.181 -2.56853 -2.36279 0
M  V30 7670 C 713.529 -3.00747 -2.99728 0
M  V30 7671 O 714.553 -2.5703 -2.46605 0
M  V30 7672 O 713.412 -3.76533 -3.96087 0
M  V30 7673 H 710.506 -0.543503 -0.623325 0
M  V30 7674 H 713.052 -1.56324 -0.660376 0
M  V30 7675 H 711.824 -3.46228 -1.82324 0
M  V30 7676 H 711.447 -2.40019 -3.16981 0
M  V30 7677 N 712.444 0.87505 -1.31075 0
M  V30 7678 C 713.693 1.62245 -1.19831 0
M  V30 7679 C 714.006 1.94078 0.24357 0
M  V30 7680 O 715.212 2.67265 0.477646 0
M  V30 7681 C 713.668 2.92464 -2.09744 0
M  V30 7682 C 713.276 2.68134 -3.58898 0
M  V30 7683 C 715.02 3.70449 -2.07287 0
M  V30 7684 C 712.927 3.9423 -4.40836 0
M  V30 7685 H 711.857 0.608741 -0.444916 0
M  V30 7686 H 714.508 0.967947 -1.55894 0
M  V30 7687 H 712.89 3.59262 -1.66574 0
M  V30 7688 H 714.064 2.09776 -4.10281 0
M  V30 7689 H 712.379 2.03511 -3.6328 0
M  V30 7690 H 714.976 4.63983 -2.65752 0
M  V30 7691 H 715.319 4.02611 -1.05876 0
M  V30 7692 H 715.852 3.10528 -2.48631 0
M  V30 7693 H 712.591 3.67221 -5.42982 0
M  V30 7694 H 712.111 4.52058 -3.94213 0
M  V30 7695 H 713.79 4.62162 -4.52786 0
M  V30 7696 N 713.922 1.13953 1.08869 0
M  V30 7697 C 714.87 0.817664 2.17754 0
M  V30 7698 C 715.864 -0.202444 1.68186 0
M  V30 7699 O 717.07 -0.0590159 1.79903 0
M  V30 7700 H 713.445 0.246671 0.710392 0
M  V30 7701 H 715.416 1.74401 2.4213 0
M  V30 7702 C 714.165 0.3063 3.46348 0
M  V30 7703 H 713.488 1.08259 3.84864 0
M  V30 7704 H 714.928 0.119584 4.23831 0
M  V30 7705 C 713.387 -0.969158 3.22659 0
M  V30 7706 O 713.917 -2.04386 3.45817 0
M  V30 7707 N 712.123 -0.902516 2.7623 0
M  V30 7708 H 711.67 -0.027801 2.57585 0
M  V30 7709 H 711.628 -1.75649 2.60758 0
M  V30 7710 N 715.4 -1.26948 0.933913 0
M  V30 7711 C 716.63 -1.97898 0.593279 0
M  V30 7712 C 717.038 -1.69806 -0.834412 0
M  V30 7713 O 716.381 -0.958704 -1.56699 0
M  V30 7714 C 716.443 -3.51657 0.746825 0
M  V30 7715 C 716.107 -4.03384 2.14779 0
M  V30 7716 C 717.104 -4.15682 3.12257 0
M  V30 7717 C 714.789 -4.37577 2.46641 0
M  V30 7718 C 716.783 -4.61455 4.39702 0
M  V30 7719 C 714.47 -4.8304 3.7432 0
M  V30 7720 C 715.468 -4.94939 4.70664 0
M  V30 7721 O 715.156 -5.39403 5.96071 0
M  V30 7722 H 714.888 -0.63814 0.223055 0
M  V30 7723 H 717.442 -1.62608 1.2549 0
M  V30 7724 H 715.672 -3.8669 0.0280889 0
M  V30 7725 H 717.361 -4.03821 0.410328 0
M  V30 7726 H 718.127 -3.89519 2.88964 0
M  V30 7727 H 714.006 -4.27554 1.72391 0
M  V30 7728 H 717.55 -4.70658 5.14905 0
M  V30 7729 H 713.447 -5.08646 3.97429 0
M  V30 7730 H 714.215 -5.57641 5.99148 0
M  V30 7731 N 716.879 -0.700114 -1.41195 0
M  V30 7732 C 718.109 -0.241828 -2.0518 0
M  V30 7733 C 718.517 1.1157 -1.52803 0
M  V30 7734 O 717.86 1.70926 -0.673042 0
M  V30 7735 C 717.922 -0.12695 -3.59276 0
M  V30 7736 C 717.586 -1.41725 -4.34469 0
M  V30 7737 C 718.583 -2.35604 -4.63451 0
M  V30 7738 C 716.268 -1.67189 -4.73659 0
M  V30 7739 C 718.262 -3.53204 -5.3059 0
M  V30 7740 C 715.949 -2.85073 -5.40534 0
M  V30 7741 C 716.947 -3.77904 -5.68927 0
M  V30 7742 O 716.635 -4.93723 -6.34424 0
M  V30 7743 H 716.367 -0.109247 -0.667114 0
M  V30 7744 H 718.921 -0.954538 -1.81873 0
M  V30 7745 H 717.151 0.641571 -3.81341 0
M  V30 7746 H 718.84 0.294748 -4.04828 0
M  V30 7747 H 719.606 -2.1719 -4.33651 0
M  V30 7748 H 715.485 -0.957935 -4.50937 0
M  V30 7749 H 719.029 -4.25679 -5.52669 0
M  V30 7750 H 714.926 -3.03402 -5.69752 0
M  V30 7751 H 715.694 -4.93597 -6.5292 0
M  V30 7752 N 718.357 1.51182 -0.445186 0
M  V30 7753 C 719.768 1.86693 0.0160999 0
M  V30 7754 C 720.119 1.36183 1.4124 0
M  V30 7755 O 719.244 0.715895 2.04215 0
M  V30 7756 C 719.839 3.38781 0.0359918 0
M  V30 7757 C 718.398 3.73799 0.441715 0
M  V30 7758 C 717.545 2.74947 -0.360511 0
M  V30 7759 H 720.496 1.44294 -0.660674 0
M  V30 7760 H 720.517 3.71026 0.843813 0
M  V30 7761 H 720.029 3.75513 -0.980378 0
M  V30 7762 H 718.13 3.42659 1.4634 0
M  V30 7763 H 718.243 4.78829 0.16106 0
M  V30 7764 H 716.607 2.54047 0.182269 0
M  V30 7765 H 717.39 3.14521 -1.3759 0
M  V30 7766 N 719.835 0.176821 1.56605 0
M  V30 7767 C 721.081 -0.467406 1.9734 0
M  V30 7768 C 721.414 -1.62523 1.06301 0
M  V30 7769 O 720.689 -1.94182 0.11125 0
M  V30 7770 C 720.972 -0.945106 3.47476 0
M  V30 7771 C 720.825 0.213273 4.49294 0
M  V30 7772 C 722.144 -1.8169 4.00845 0
M  V30 7773 H 719.263 -0.168426 0.717497 0
M  V30 7774 H 721.905 0.264065 1.88156 0
M  V30 7775 H 720.055 -1.56841 3.55434 0
M  V30 7776 H 721.727 0.850508 4.53392 0
M  V30 7777 H 719.97 0.867918 4.25029 0
M  V30 7778 H 720.641 -0.163187 5.51759 0
M  V30 7779 H 723.117 -1.29139 3.95553 0
M  V30 7780 H 721.993 -2.12015 5.06301 0
M  V30 7781 H 722.254 -2.76463 3.44994 0
M  V30 7782 N 721.313 -1.57302 -0.09688 0
M  V30 7783 C 722.724 -1.7496 -0.651595 0
M  V30 7784 C 723.075 -0.798746 -1.79205 0
M  V30 7785 O 722.2 0.0231858 -2.16388 0
M  V30 7786 C 722.795 -3.17259 -1.18878 0
M  V30 7787 C 721.354 -3.36348 -1.68958 0
M  V30 7788 C 720.501 -2.70766 -0.598413 0
M  V30 7789 H 723.452 -1.58173 0.12918 0
M  V30 7790 H 723.473 -3.20033 -2.05814 0
M  V30 7791 H 722.985 -3.8644 -0.358523 0
M  V30 7792 H 721.086 -2.72243 -2.5439 0
M  V30 7793 H 721.199 -4.44654 -1.7838 0
M  V30 7794 H 719.563 -2.32615 -1.03743 0
M  V30 7795 H 720.346 -3.42586 0.221238 0
M  V30 7796 N 722.791 0.367657 -1.53252 0
M  V30 7797 C 723.701 1.47415 -1.82499 0
M  V30 7798 C 724.717 1.58711 -0.713222 0
M  V30 7799 O 725.893 1.74644 -1.00306 0
M  V30 7800 C 722.958 2.82706 -2.00694 0
M  V30 7801 C 722.019 2.80955 -3.24596 0
M  V30 7802 C 721.252 4.09793 -3.41914 0
M  V30 7803 O 721.475 5.05852 -2.63572 0
M  V30 7804 O 720.409 4.15731 -4.3526 0
M  V30 7805 H 724.235 1.25624 -2.765 0
M  V30 7806 H 721.82 0.557559 -1.38606 0
M  V30 7807 H 723.702 3.62873 -2.14246 0
M  V30 7808 H 722.377 3.04479 -1.09883 0
M  V30 7809 H 721.284 1.99494 -3.16469 0
M  V30 7810 H 722.617 2.64136 -4.15323 0
M  V30 7811 N 724.269 1.44576 0.627338 0
M  V30 7812 C 725.232 1.51372 1.72102 0
M  V30 7813 C 726.232 0.395329 1.55865 0
M  V30 7814 O 727.422 0.658094 1.61291 0
M  V30 7815 C 724.554 1.39129 3.11217 0
M  V30 7816 H 725.747 2.48798 1.6745 0
M  V30 7817 H 723.3 1.31724 0.841336 0
M  V30 7818 H 724.035 0.428114 3.21462 0
M  V30 7819 H 723.82 2.20229 3.24409 0
M  V30 7820 H 725.31 1.46874 3.90919 0
M  V30 7821 N 725.747 -0.868086 1.31537 0
M  V30 7822 C 726.987 -1.63526 1.22632 0
M  V30 7823 C 727.351 -1.90828 -0.211815 0
M  V30 7824 O 728.552 -2.65429 -0.424387 0
M  V30 7825 C 726.823 -2.92849 2.04876 0
M  V30 7826 S 728.382 -3.83717 2.12853 0
M  V30 7827 H 725.2 -0.56105 0.436743 0
M  V30 7828 H 727.802 -1.02908 1.66223 0
M  V30 7829 H 726.506 -2.70717 3.08449 0
M  V30 7830 H 726.037 -3.58491 1.62011 0
M  V30 7831 H 728.052 -4.79719 1.26822 0
M  V30 7832 N 727.225 -1.14528 -1.08264 0
M  V30 7833 C 728.155 -0.856356 -2.1723 0
M  V30 7834 C 729.136 0.189251 -1.69044 0
M  V30 7835 O 730.321 0.0456119 -1.94146 0
M  V30 7836 C 727.451 -0.334662 -3.45684 0
M  V30 7837 C 726.405 -1.31588 -4.0727 0
M  V30 7838 C 725.731 -0.653428 -5.30692 0
M  V30 7839 C 727.031 -2.67866 -4.48381 0
M  V30 7840 H 728.725 -1.76755 -2.41657 0
M  V30 7841 H 726.271 -0.851287 -1.16143 0
M  V30 7842 H 728.224 -0.120128 -4.21229 0
M  V30 7843 H 726.948 0.611967 -3.20815 0
M  V30 7844 H 725.607 -1.51661 -3.33758 0
M  V30 7845 H 725.255 0.299054 -5.0211 0
M  V30 7846 H 724.955 -1.30817 -5.72853 0
M  V30 7847 H 726.479 -0.448453 -6.08951 0
M  V30 7848 H 727.893 -2.51692 -5.15096 0
M  V30 7849 H 726.29 -3.29627 -5.01464 0
M  V30 7850 H 727.36 -3.24632 -3.60198 0
M  V30 7851 N 728.703 1.26451 -0.940633 0
M  V30 7852 C 729.928 1.98407 -0.60412 0
M  V30 7853 C 730.353 1.69584 0.81382 0
M  V30 7854 O 729.711 0.943553 1.54812 0
M  V30 7855 C 729.759 3.50387 -0.852136 0
M  V30 7856 O 728.863 4.1233 0.076013 0
M  V30 7857 H 728.204 0.622466 -0.231153 0
M  V30 7858 H 730.734 1.60932 -1.26342 0
M  V30 7859 H 730.744 4.00614 -0.772816 0
M  V30 7860 H 729.419 3.70696 -1.88566 0
M  V30 7861 H 727.996 3.7286 -0.0543187 0
M  V30 7862 N 730.181 0.707592 1.40822 0
M  V30 7863 C 731.129 0.0386643 2.32568 0
M  V30 7864 C 732.123 -0.755653 1.51612 0
M  V30 7865 O 733.329 -0.659921 1.67467 0
M  V30 7866 H 729.704 -0.00629912 0.751974 0
M  V30 7867 H 731.675 0.8293 2.86645 0
M  V30 7868 C 730.424 -0.87496 3.36511 0
M  V30 7869 H 729.747 -0.273157 3.98866 0
M  V30 7870 H 731.187 -1.31111 4.03219 0
M  V30 7871 C 729.646 -1.99672 2.71353 0
M  V30 7872 O 730.176 -3.08676 2.57064 0
M  V30 7873 N 728.382 -1.77799 2.29861 0
M  V30 7874 H 727.929 -0.89147 2.41683 0
M  V30 7875 H 727.887 -2.53036 1.86601 0
M  V30 7876 N 731.66 -1.50943 0.453197 0
M  V30 7877 C 732.607 -2.28128 -0.350197 0
M  V30 7878 C 733.577 -1.32398 -1.00299 0
M  V30 7879 O 734.762 -1.61319 -1.01887 0
M  V30 7880 C 731.902 -3.13782 -1.43649 0
M  V30 7881 C 731.015 -4.24523 -0.800255 0
M  V30 7882 C 730.15 -4.97462 -1.86293 0
M  V30 7883 C 729.189 -6.00102 -1.20598 0
M  V30 7884 N 728.326 -6.66387 -2.21071 0
M  V30 7885 H 733.166 -2.96337 0.31434 0
M  V30 7886 H 730.703 -1.46151 0.166863 0
M  V30 7887 H 732.661 -3.6178 -2.07776 0
M  V30 7888 H 731.291 -2.47655 -2.07044 0
M  V30 7889 H 730.343 -3.80371 -0.0468651 0
M  V30 7890 H 731.655 -4.98009 -0.280777 0
M  V30 7891 H 730.809 -5.49088 -2.58044 0
M  V30 7892 H 729.548 -4.23642 -2.41617 0
M  V30 7893 H 728.553 -5.47753 -0.474 0
M  V30 7894 H 729.778 -6.75887 -0.659859 0
M  V30 7895 H 727.724 -5.9537 -2.75446 0
M  V30 7896 H 727.641 -7.3569 -1.74058 0
M  V30 7897 H 728.909 -7.22638 -2.92257 0
M  V30 7898 N 733.138 -0.185124 -1.56509 0
M  V30 7899 C 734.554 0.170865 -1.58683 0
M  V30 7900 C 734.754 1.61799 -1.20098 0
M  V30 7901 O 733.81 2.35181 -0.919038 0
M  V30 7902 C 735.123 -0.122459 -3.00451 0
M  V30 7903 C 736.671 -0.0617699 -3.12939 0
M  V30 7904 C 737.146 -0.328269 -4.56822 0
M  V30 7905 N 738.637 -0.276533 -4.62374 0
M  V30 7906 C 739.372 -0.456722 -5.71578 0
M  V30 7907 N 738.868 -0.69672 -6.89288 0
M  V30 7908 N 740.661 -0.391669 -5.60734 0
M  V30 7909 H 732.812 -1.12956 -1.79874 0
M  V30 7910 H 735.075 -0.45011 -0.834329 0
M  V30 7911 H 734.781 -1.12546 -3.33206 0
M  V30 7912 H 734.655 0.579578 -3.72721 0
M  V30 7913 H 737.042 0.931826 -2.80002 0
M  V30 7914 H 737.123 -0.796732 -2.43076 0
M  V30 7915 H 736.767 -1.31914 -4.9047 0
M  V30 7916 H 736.697 0.427465 -5.24862 0
M  V30 7917 H 739.188 -0.0972458 -3.77775 0
M  V30 7918 H 739.501 -0.823291 -7.68402 0
M  V30 7919 H 737.846 -0.733497 -6.91119 0
M  V30 7920 H 741.037 -0.204663 -4.67652 0
M  V30 7921 H 741.21 -0.535518 -6.45783 0
M  V30 7922 N 734.616 1.57351 0.0885366 0
M  V30 7923 C 735.566 1.98963 1.11346 0
M  V30 7924 C 736.55 0.869065 1.35411 0
M  V30 7925 O 737.742 1.13292 1.35992 0
M  V30 7926 C 734.871 2.4231 2.43189 0
M  V30 7927 C 733.957 3.61065 2.22469 0
M  V30 7928 N 734.348 4.75789 1.71635 0
M  V30 7929 C 732.646 3.6729 2.5301 0
M  V30 7930 C 733.347 5.57708 1.65339 0
M  V30 7931 N 732.323 5.01067 2.1079 0
M  V30 7932 H 736.125 2.85109 0.713465 0
M  V30 7933 H 733.639 1.59682 0.295868 0
M  V30 7934 H 735.636 2.70352 3.17357 0
M  V30 7935 H 734.296 1.57544 2.83919 0
M  V30 7936 H 735.307 4.98411 1.40738 0
M  V30 7937 H 731.984 2.932 2.9722 0
M  V30 7938 H 733.374 6.59782 1.27031 0
M  V30 7939 N 736.094 -0.359525 1.53444 0
M  V30 7940 C 737.51 -0.701599 1.43352 0
M  V30 7941 C 737.71 -1.93049 0.577439 0
M  V30 7942 O 736.766 -2.52423 0.0622224 0
M  V30 7943 C 738.079 -0.90915 2.86627 0
M  V30 7944 C 739.627 -1.00878 2.96298 0
M  V30 7945 C 740.102 -1.24876 4.40647 0
M  V30 7946 N 741.593 -1.31632 4.44103 0
M  V30 7947 C 742.328 -1.51922 5.52908 0
M  V30 7948 N 741.824 -1.69489 6.71748 0
M  V30 7949 N 743.617 -1.54341 5.40496 0
M  V30 7950 H 735.768 0.448685 2.07607 0
M  V30 7951 H 738.031 0.138713 0.937797 0
M  V30 7952 H 737.737 -0.0778997 3.51614 0
M  V30 7953 H 737.611 -1.81551 3.30634 0
M  V30 7954 H 739.998 -1.83057 2.31461 0
M  V30 7955 H 740.079 -0.0796721 2.55676 0
M  V30 7956 H 739.723 -0.431961 5.0606 0
M  V30 7957 H 739.653 -2.19118 4.78848 0
M  V30 7958 H 742.144 -1.19646 3.5846 0
M  V30 7959 H 742.457 -1.84561 7.50438 0
M  V30 7960 H 740.802 -1.66655 6.74723 0
M  V30 7961 H 743.993 -1.40188 4.46615 0
M  V30 7962 H 744.166 -1.69812 6.25354 0
M  V30 7963 N 737.572 -1.44907 -0.619662 0
M  V30 7964 C 738.983 -1.42905 -1.20146 0
M  V30 7965 C 739.334 -0.150341 -1.95623 0
M  V30 7966 O 738.459 0.748732 -2.03034 0
M  V30 7967 C 739.054 -2.58889 -2.18545 0
M  V30 7968 C 737.613 -2.60046 -2.72127 0
M  V30 7969 C 736.76 -2.3493 -1.4732 0
M  V30 7970 H 739.711 -1.53321 -0.409666 0
M  V30 7971 H 739.732 -2.32298 -3.0136 0
M  V30 7972 H 739.244 -3.51941 -1.63583 0
M  V30 7973 H 737.345 -1.70968 -3.3106 0
M  V30 7974 H 737.458 -3.58893 -3.17384 0
M  V30 7975 H 735.822 -1.84248 -1.75855 0
M  V30 7976 H 736.605 -3.3011 -0.942442 0
M  V30 7977 N 739.05 0.861098 -1.31996 0
M  V30 7978 C 740.299 1.60965 -1.21545 0
M  V30 7979 C 740.612 1.94325 0.222972 0
M  V30 7980 O 741.818 2.67757 0.449272 0
M  V30 7981 C 740.274 2.90223 -2.12834 0
M  V30 7982 C 739.882 2.64313 -3.61722 0
M  V30 7983 C 741.626 3.68229 -2.11205 0
M  V30 7984 C 739.533 3.89532 -4.44993 0
M  V30 7985 H 738.463 0.603988 -0.451348 0
M  V30 7986 H 741.114 0.951358 -1.56912 0
M  V30 7987 H 739.496 3.57475 -1.70375 0
M  V30 7988 H 740.67 2.05413 -4.12483 0
M  V30 7989 H 738.985 1.99647 -3.65418 0
M  V30 7990 H 741.582 4.61138 -2.70658 0
M  V30 7991 H 741.925 4.01466 -1.1014 0
M  V30 7992 H 742.458 3.07873 -2.51911 0
M  V30 7993 H 739.197 3.61441 -5.46846 0
M  V30 7994 H 738.717 4.47851 -3.98985 0
M  V30 7995 H 740.396 4.57334 -4.57663 0
M  V30 7996 N 740.528 1.15101 1.07655 0
M  V30 7997 C 741.776 0.922149 1.79836 0
M  V30 7998 C 742.097 -0.552346 1.87014 0
M  V30 7999 O 741.367 -1.40145 1.3688 0
M  V30 8000 H 739.947 0.338182 0.666064 0
M  V30 8001 H 742.609 1.45107 1.30115 0
M  V30 8002 H 741.705 1.32883 2.82398 0
M  V30 8003 N 742.006 -1.2595 0.947325 0
M  V30 8004 C 743.255 -1.92759 0.593887 0
M  V30 8005 C 743.568 -1.75083 -0.872093 0
M  V30 8006 O 744.774 -2.36401 -1.33518 0
M  V30 8007 C 743.23 -3.45395 1.01144 0
M  V30 8008 C 742.838 -3.71795 2.49946 0
M  V30 8009 C 744.582 -4.18173 0.730185 0
M  V30 8010 C 742.489 -5.17901 2.85539 0
M  V30 8011 H 741.419 -0.721676 0.218403 0
M  V30 8012 H 744.07 -1.4293 1.15079 0
M  V30 8013 H 742.452 -3.94143 0.383007 0
M  V30 8014 H 743.626 -3.33728 3.17746 0
M  V30 8015 H 741.941 -3.12263 2.75465 0
M  V30 8016 H 744.538 -5.25784 0.972367 0
M  V30 8017 H 744.881 -4.14964 -0.333223 0
M  V30 8018 H 745.414 -3.75309 1.31862 0
M  V30 8019 H 742.153 -5.26216 3.90867 0
M  V30 8020 H 741.673 -5.57042 2.22406 0
M  V30 8021 H 743.352 -5.8596 2.74336 0
M  V30 8022 N 743.484 -0.715051 -1.40445 0
M  V30 8023 C 744.732 -0.253826 -2.005 0
M  V30 8024 C 745.053 1.15681 -1.5698 0
M  V30 8025 O 744.323 1.78414 -0.809027 0
M  V30 8026 H 742.903 -0.0908537 -0.741454 0
M  V30 8027 H 745.565 -0.920561 -1.7179 0
M  V30 8028 H 744.661 -0.286499 -3.10782 0
M  V30 8029 N 744.962 1.50701 -0.461195 0
M  V30 8030 C 746.208 2.02566 0.0973411 0
M  V30 8031 C 746.541 1.3432 1.40257 0
M  V30 8032 O 745.816 0.465692 1.88843 0
M  V30 8033 C 746.099 3.58919 0.291423 0
M  V30 8034 C 745.952 4.37751 -1.03413 0
M  V30 8035 C 747.271 4.27379 1.05048 0
M  V30 8036 H 744.39 0.73622 0.0339026 0
M  V30 8037 H 747.032 1.80115 -0.604855 0
M  V30 8038 H 745.182 3.78179 0.889539 0
M  V30 8039 H 746.854 4.30085 -1.66806 0
M  V30 8040 H 745.097 4.01885 -1.63313 0
M  V30 8041 H 745.768 5.45384 -0.852085 0
M  V30 8042 H 748.244 4.12534 0.543603 0
M  V30 8043 H 747.12 5.36609 1.15506 0
M  V30 8044 H 747.381 3.89868 2.0846 0
M  V30 8045 N 746.441 0.193421 1.56409 0
M  V30 8046 C 747.373 -0.759944 2.16235 0
M  V30 8047 C 748.386 -1.17797 1.12373 0
M  V30 8048 O 749.575 -1.11399 1.39472 0
M  V30 8049 C 746.675 -2.03735 2.70823 0
M  V30 8050 C 745.848 -1.77939 3.9957 0
M  V30 8051 C 744.907 -2.90111 4.39001 0
M  V30 8052 O 743.933 -2.59791 5.06456 0
M  V30 8053 N 745.135 -4.18426 4.02368 0
M  V30 8054 H 747.9 -0.248348 2.98669 0
M  V30 8055 H 745.461 0.0113966 1.61896 0
M  V30 8056 H 747.453 -2.77914 2.94187 0
M  V30 8057 H 746.023 -2.46022 1.92852 0
M  V30 8058 H 745.243 -0.875491 3.84355 0
M  V30 8059 H 746.531 -1.58099 4.83614 0
M  V30 8060 H 745.929 -4.45913 3.48106 0
M  V30 8061 H 744.486 -4.89237 4.30686 0
M  V30 8062 N 747.919 -1.57396 -0.0801906 0
M  V30 8063 C 749.167 -1.86467 -0.779384 0
M  V30 8064 C 749.488 -0.784243 -1.78535 0
M  V30 8065 O 748.758 0.187986 -1.94996 0
M  V30 8066 H 747.338 -0.68806 -0.29083 0
M  V30 8067 H 750 -1.94813 -0.0582749 0
M  V30 8068 H 749.096 -2.83701 -1.30078 0
M  V30 8069 N 749.397 0.351382 -1.53633 0
M  V30 8070 C 750.327 1.43688 -1.84055 0
M  V30 8071 C 751.308 1.55251 -0.695073 0
M  V30 8072 O 752.493 1.69587 -0.946257 0
M  V30 8073 C 749.623 2.80843 -2.04315 0
M  V30 8074 C 748.577 2.84094 -3.20117 0
M  V30 8075 C 747.903 4.2406 -3.25696 0
M  V30 8076 C 749.203 2.50334 -4.58399 0
M  V30 8077 H 750.897 1.18478 -2.74961 0
M  V30 8078 H 748.443 0.568509 -1.32303 0
M  V30 8079 H 750.396 3.56821 -2.2418 0
M  V30 8080 H 749.12 3.07471 -1.10132 0
M  V30 8081 H 747.779 2.10568 -3.00094 0
M  V30 8082 H 747.427 4.47785 -2.29123 0
M  V30 8083 H 747.127 4.27147 -4.03509 0
M  V30 8084 H 748.651 5.0189 -3.47762 0
M  V30 8085 H 750.065 3.16025 -4.78332 0
M  V30 8086 H 748.462 2.64717 -5.38558 0
M  V30 8087 H 749.532 1.45542 -4.62543 0
M  V30 8088 N 750.875 1.45233 0.611969 0
M  V30 8089 C 751.838 1.53189 1.70487 0
M  V30 8090 C 752.838 0.411839 1.55437 0
M  V30 8091 O 754.028 0.675164 1.60584 0
M  V30 8092 C 751.16 1.42422 3.09723 0
M  V30 8093 H 752.353 2.5056 1.64802 0
M  V30 8094 H 749.906 1.32609 0.827318 0
M  V30 8095 H 750.641 0.462185 3.2099 0
M  V30 8096 H 750.426 2.23658 3.22055 0
M  V30 8097 H 751.916 1.51012 3.89339 0
M  V30 8098 N 752.353 -0.854086 1.3245 0
M  V30 8099 C 753.63 -1.59188 1.1366 0
M  V30 8100 C 754.01 -2.08917 -0.302807 0
M  V30 8101 O 753.358 -1.8795 -1.29951 0
M  V30 8102 C 753.568 -2.73757 2.16467 0
M  V30 8103 C 754.916 -3.43323 2.49829 0
M  V30 8104 O 755.94 -2.83983 2.15017 0
M  V30 8105 O 754.799 -4.50409 3.09506 0
M  V30 8106 H 751.893 -0.701092 0.438633 0
M  V30 8107 H 754.439 -0.898165 1.43983 0
M  V30 8108 H 753.211 -2.3454 3.1322 0
M  V30 8109 H 752.834 -3.50804 1.87142 0
M  V30 8110 N 753.831 -1.1567 -1.07043 0
M  V30 8111 C 754.794 -0.858906 -2.12498 0
M  V30 8112 C 755.794 0.142735 -1.60165 0
M  V30 8113 O 756.984 -0.0872678 -1.73981 0
M  V30 8114 C 754.116 -0.283021 -3.39723 0
M  V30 8115 H 755.309 -1.79368 -2.40348 0
M  V30 8116 H 752.862 -0.964608 -1.22984 0
M  V30 8117 H 753.597 0.659796 -3.17517 0
M  V30 8118 H 753.382 -1.00467 -3.7901 0
M  V30 8119 H 754.872 -0.0923543 -4.17498 0
M  V30 8120 N 755.309 1.25446 -0.953992 0
M  V30 8121 C 756.556 1.93143 -0.608429 0
M  V30 8122 C 756.884 1.74727 0.854451 0
M  V30 8123 O 756.139 1.0855 1.62836 0
M  V30 8124 C 756.438 3.45555 -0.912496 0
M  V30 8125 C 756.104 3.84126 -2.36131 0
M  V30 8126 C 754.766 3.94367 -2.75732 0
M  V30 8127 C 757.118 4.0324 -3.30223 0
M  V30 8128 C 754.446 4.21127 -4.08496 0
M  V30 8129 C 756.798 4.31493 -4.62598 0
M  V30 8130 C 755.462 4.3995 -5.01996 0
M  V30 8131 H 754.732 0.706762 -0.22264 0
M  V30 8132 H 757.379 1.49005 -1.20291 0
M  V30 8133 H 755.684 3.91091 -0.235618 0
M  V30 8134 H 757.381 3.9612 -0.623714 0
M  V30 8135 H 753.971 3.76711 -2.04418 0
M  V30 8136 H 758.155 3.94744 -3.00817 0
M  V30 8137 H 753.411 4.2589 -4.38665 0
M  V30 8138 H 757.585 4.45227 -5.35486 0
M  V30 8139 H 755.212 4.60439 -6.04896 0
M  V30 8140 N 756.787 0.722489 1.40064 0
M  V30 8141 C 758.036 0.261932 1.99992 0
M  V30 8142 C 758.349 -1.15358 1.57961 0
M  V30 8143 O 759.555 -1.71301 2.10637 0
M  V30 8144 C 758.011 0.41737 3.57472 0
M  V30 8145 C 757.619 1.83997 4.08472 0
M  V30 8146 C 759.363 0.0179561 4.24496 0
M  V30 8147 C 757.27 1.94563 5.5848 0
M  V30 8148 H 756.2 0.0941768 0.748095 0
M  V30 8149 H 758.851 0.894572 1.60218 0
M  V30 8150 H 757.233 -0.283965 3.94981 0
M  V30 8151 H 758.407 2.57224 3.82325 0
M  V30 8152 H 756.722 2.19147 3.54067 0
M  V30 8153 H 759.319 0.076085 5.34646 0
M  V30 8154 H 759.662 -1.02498 4.03485 0
M  V30 8155 H 760.195 0.669988 3.92117 0
M  V30 8156 H 756.934 2.97001 5.84355 0
M  V30 8157 H 756.454 1.25756 5.86469 0
M  V30 8158 H 758.133 1.72095 6.23692 0
M  V30 8159 N 758.265 -1.50454 0.469181 0
M  V30 8160 C 759.195 -2.31353 -0.31592 0
M  V30 8161 C 760.176 -1.38172 -0.992094 0
M  V30 8162 O 761.361 -1.67093 -0.989633 0
M  V30 8163 C 758.491 -3.1786 -1.39937 0
M  V30 8164 C 757.445 -4.19578 -0.844909 0
M  V30 8165 C 756.771 -4.9481 -2.0265 0
M  V30 8166 C 758.071 -5.22106 0.142499 0
M  V30 8167 H 759.765 -2.97237 0.359269 0
M  V30 8168 H 757.311 -1.42942 0.174224 0
M  V30 8169 H 759.264 -3.7325 -1.95607 0
M  V30 8170 H 757.988 -2.49858 -2.1033 0
M  V30 8171 H 756.647 -3.65285 -0.310189 0
M  V30 8172 H 756.295 -4.23282 -2.71737 0
M  V30 8173 H 755.995 -5.63613 -1.66174 0
M  V30 8174 H 757.519 -5.53035 -2.58815 0
M  V30 8175 H 758.933 -5.72378 -0.324966 0
M  V30 8176 H 757.33 -5.98618 0.421441 0
M  V30 8177 H 758.4 -4.7297 1.06901 0
M  V30 8178 N 759.743 -0.201713 -1.56304 0
M  V30 8179 C 760.676 0.755976 -2.15314 0
M  V30 8180 C 761.654 1.20497 -1.09175 0
M  V30 8181 O 762.838 1.2913 -1.37323 0
M  V30 8182 C 759.965 2.02177 -2.71739 0
M  V30 8183 C 759.011 1.71436 -3.90528 0
M  V30 8184 S 759.844 0.856624 -5.28604 0
M  V30 8185 C 761 2.13242 -5.88455 0
M  V30 8186 H 761.233 0.254348 -2.9621 0
M  V30 8187 H 758.766 0.0133669 -1.54394 0
M  V30 8188 H 760.724 2.74867 -3.04891 0
M  V30 8189 H 759.385 2.49452 -1.90873 0
M  V30 8190 H 758.578 2.65433 -4.28441 0
M  V30 8191 H 758.18 1.06823 -3.5842 0
M  V30 8192 H 760.472 3.08435 -6.0322 0
M  V30 8193 H 761.415 1.7975 -6.84905 0
M  V30 8194 H 761.823 2.2639 -5.17115 0
M  V30 8195 N 761.222 1.57436 0.0718424 0
M  V30 8196 C 762.638 1.53792 0.426628 0
M  V30 8197 C 762.838 0.921887 1.79174 0
M  V30 8198 O 761.894 0.524374 2.46995 0
M  V30 8199 C 763.207 2.98443 0.367739 0
M  V30 8200 C 764.755 3.09778 0.447928 0
M  V30 8201 C 765.23 4.5608 0.418946 0
M  V30 8202 N 766.721 4.60716 0.479022 0
M  V30 8203 C 767.456 5.71397 0.47881 0
M  V30 8204 N 766.952 6.91443 0.433417 0
M  V30 8205 N 768.745 5.59639 0.525364 0
M  V30 8206 H 760.896 1.95848 -0.822033 0
M  V30 8207 H 763.159 0.896418 -0.308447 0
M  V30 8208 H 762.865 3.47072 -0.56865 0
M  V30 8209 H 762.739 3.58335 1.17795 0
M  V30 8210 H 765.126 2.61122 1.37474 0
M  V30 8211 H 765.207 2.52796 -0.390857 0
M  V30 8212 H 764.851 5.05393 -0.504016 0
M  V30 8213 H 764.781 5.10925 1.27526 0
M  V30 8214 H 767.272 3.74328 0.518355 0
M  V30 8215 H 767.585 7.71562 0.43718 0
M  V30 8216 H 765.93 6.93847 0.400106 0
M  V30 8217 H 769.121 4.64756 0.558519 0
M  V30 8218 H 769.294 6.45896 0.52173 0
M  V30 8219 N 762.7 -0.34323 1.53817 0
M  V30 8220 C 763.93 -1.10188 1.74763 0
M  V30 8221 C 764.338 -1.82829 0.486856 0
M  V30 8222 O 763.681 -1.75236 -0.551198 0
M  V30 8223 C 763.743 -2.16 2.87375 0
M  V30 8224 C 763.407 -1.62931 4.26969 0
M  V30 8225 C 764.404 -1.08147 5.08528 0
M  V30 8226 C 762.089 -1.67769 4.73454 0
M  V30 8227 C 764.083 -0.589039 6.34672 0
M  V30 8228 C 761.77 -1.18138 5.99572 0
M  V30 8229 C 762.768 -0.637979 6.80014 0
M  V30 8230 O 762.456 -0.149073 8.03762 0
M  V30 8231 H 762.188 -0.33445 0.587469 0
M  V30 8232 H 764.742 -0.401109 2.01445 0
M  V30 8233 H 762.972 -2.89637 2.56218 0
M  V30 8234 H 764.661 -2.77432 2.96287 0
M  V30 8235 H 765.427 -1.03732 4.73777 0
M  V30 8236 H 761.306 -2.09004 4.10899 0
M  V30 8237 H 764.85 -0.164233 6.97407 0
M  V30 8238 H 760.747 -1.22254 6.33817 0
M  V30 8239 H 761.515 -0.266332 8.18067 0
M  V30 8240 N 764.178 -1.45556 -0.604258 0
M  V30 8241 C 765.589 -1.44171 -1.18624 0
M  V30 8242 C 765.94 -0.171081 -1.95453 0
M  V30 8243 O 765.065 0.727156 -2.03817 0
M  V30 8244 C 765.66 -2.61193 -2.15786 0
M  V30 8245 C 764.219 -2.62918 -2.69353 0
M  V30 8246 C 763.366 -2.36479 -1.4482 0
M  V30 8247 H 766.317 -1.53747 -0.393381 0
M  V30 8248 H 766.338 -2.35481 -2.98879 0
M  V30 8249 H 765.85 -3.53656 -1.59841 0
M  V30 8250 H 763.951 -1.7447 -3.29228 0
M  V30 8251 H 764.064 -3.6224 -3.13559 0
M  V30 8252 H 762.428 -1.86103 -1.73891 0
M  V30 8253 H 763.211 -3.31091 -0.907376 0
M  V30 8254 N 765.656 0.84705 -1.32902 0
M  V30 8255 C 766.903 1.60176 -1.23894 0
M  V30 8256 C 767.231 1.93496 0.197341 0
M  V30 8257 O 766.486 1.58173 1.15238 0
M  V30 8258 C 766.785 2.92663 -2.05142 0
M  V30 8259 C 766.451 2.7874 -3.54422 0
M  V30 8260 C 765.113 2.7465 -3.95121 0
M  V30 8261 C 767.465 2.64128 -4.49317 0
M  V30 8262 C 764.793 2.53837 -5.28946 0
M  V30 8263 C 767.145 2.44849 -5.83294 0
M  V30 8264 C 765.809 2.39156 -6.23186 0
M  V30 8265 H 765.079 0.586127 -0.453361 0
M  V30 8266 H 767.726 0.981994 -1.64405 0
M  V30 8267 H 766.031 3.588 -1.57383 0
M  V30 8268 H 767.728 3.50095 -1.95537 0
M  V30 8269 H 764.318 2.82751 -3.22102 0
M  V30 8270 H 768.502 2.66327 -4.18788 0
M  V30 8271 H 763.758 2.4787 -5.58901 0
M  V30 8272 H 767.932 2.32524 -6.56434 0
M  V30 8273 H 765.559 2.22789 -7.26821 0
M  V30 8274 N 767.134 1.16236 1.06428 0
M  V30 8275 C 768.044 0.881976 2.1739 0
M  V30 8276 C 769.06 -0.145259 1.73393 0
M  V30 8277 O 770.236 0.0310558 2.01376 0
M  V30 8278 C 767.301 0.385496 3.4455 0
M  V30 8279 C 766.362 1.47779 4.03063 0
M  V30 8280 C 765.595 1.0049 5.24154 0
M  V30 8281 O 765.818 -0.145889 5.70213 0
M  V30 8282 O 764.752 1.79265 5.74585 0
M  V30 8283 H 768.578 1.80983 2.43883 0
M  V30 8284 H 766.163 0.942226 1.15942 0
M  V30 8285 H 768.045 0.115536 4.21242 0
M  V30 8286 H 766.72 -0.514369 3.19587 0
M  V30 8287 H 765.627 1.80147 3.27869 0
M  V30 8288 H 766.96 2.35291 4.32318 0
M  V30 8289 N 768.612 -1.24939 0.960631 0
M  V30 8290 C 769.837 -1.9742 0.635608 0
M  V30 8291 C 770.262 -1.70857 -0.786737 0
M  V30 8292 O 769.62 -0.968063 -1.53291 0
M  V30 8293 C 769.668 -3.48987 0.907771 0
M  V30 8294 O 768.772 -4.12399 -0.0104053 0
M  V30 8295 H 768.113 -0.61871 0.241027 0
M  V30 8296 H 770.643 -1.58901 1.28886 0
M  V30 8297 H 770.653 -3.99334 0.836453 0
M  V30 8298 H 769.328 -3.6765 1.94439 0
M  V30 8299 H 767.905 -3.72727 0.113631 0
M  V30 8300 N 770.09 -0.729906 -1.39679 0
M  V30 8301 C 771.053 -0.0951668 -2.29002 0
M  V30 8302 C 772.053 0.672471 -1.46063 0
M  V30 8303 O 773.243 0.502245 -1.66803 0
M  V30 8304 C 770.375 0.874631 -3.29489 0
M  V30 8305 H 771.568 -0.882062 -2.86635 0
M  V30 8306 H 769.121 -0.495424 -1.4824 0
M  V30 8307 H 769.856 1.68807 -2.76902 0
M  V30 8308 H 769.641 0.326893 -3.90735 0
M  V30 8309 H 771.131 1.31548 -3.96339 0
M  V30 8310 N 771.568 1.50203 -0.477153 0
M  V30 8311 C 772.478 2.32421 0.319027 0
M  V30 8312 C 773.494 1.43075 0.990233 0
M  V30 8313 O 774.67 1.76123 0.976873 0
M  V30 8314 C 771.735 3.17909 1.38328 0
M  V30 8315 C 770.796 4.23082 0.728036 0
M  V30 8316 C 770.029 5.04484 1.74158 0
M  V30 8317 O 770.252 4.8705 2.96881 0
M  V30 8318 O 769.186 5.8747 1.31006 0
M  V30 8319 H 773.012 3.01638 -0.353281 0
M  V30 8320 H 770.597 1.47478 -0.238891 0
M  V30 8321 H 772.479 3.70937 1.9996 0
M  V30 8322 H 771.154 2.51413 2.03895 0
M  V30 8323 H 770.061 3.7403 0.07261 0
M  V30 8324 H 771.394 4.92065 0.115216 0
M  V30 8325 N 773.046 0.209999 1.56195 0
M  V30 8326 C 774.009 -0.691232 2.18528 0
M  V30 8327 C 775.009 -1.13013 1.14388 0
M  V30 8328 O 776.199 -1.04081 1.39688 0
M  V30 8329 C 773.331 -1.94551 2.79934 0
M  V30 8330 H 774.524 -0.147953 2.99535 0
M  V30 8331 H 772.077 -0.0396243 1.5625 0
M  V30 8332 H 772.812 -2.53094 2.02766 0
M  V30 8333 H 772.597 -1.63938 3.56184 0
M  V30 8334 H 774.087 -2.58785 3.2775 0
M  V30 8335 N 774.524 -1.57472 -0.0634922 0
M  V30 8336 C 775.456 -2.00999 -1.10145 0
M  V30 8337 C 776.469 -0.917219 -1.34503 0
M  V30 8338 O 777.658 -1.19501 -1.32596 0
M  V30 8339 C 774.758 -2.34089 -2.45063 0
M  V30 8340 C 773.931 -3.65317 -2.40546 0
M  V30 8341 C 772.99 -3.85982 -3.57637 0
M  V30 8342 O 772.016 -4.5747 -3.38689 0
M  V30 8343 N 773.218 -3.28971 -4.78287 0
M  V30 8344 H 775.983 -2.90656 -0.730714 0
M  V30 8345 H 773.544 -1.59926 -0.252017 0
M  V30 8346 H 775.536 -2.4508 -3.22053 0
M  V30 8347 H 774.106 -1.50279 -2.74107 0
M  V30 8348 H 773.326 -3.65003 -1.48885 0
M  V30 8349 H 774.614 -4.51468 -2.34636 0
M  V30 8350 H 774.012 -2.70962 -4.96584 0
M  V30 8351 H 772.569 -3.45398 -5.5276 0
M  V30 8352 N 776.003 0.335068 -1.53997 0
M  V30 8353 C 776.933 1.41727 -1.85568 0
M  V30 8354 C 777.914 1.54505 -0.7115 0
M  V30 8355 O 779.099 1.68573 -0.964191 0
M  V30 8356 C 776.229 2.7866 -2.07282 0
M  V30 8357 C 775.183 2.80682 -3.23112 0
M  V30 8358 C 774.509 4.20581 -3.30175 0
M  V30 8359 C 775.809 2.45458 -4.61029 0
M  V30 8360 H 777.503 1.15555 -2.76202 0
M  V30 8361 H 775.049 0.554445 -1.32898 0
M  V30 8362 H 777.002 3.54423 -2.27952 0
M  V30 8363 H 775.726 3.06286 -1.13387 0
M  V30 8364 H 774.385 2.07373 -3.02311 0
M  V30 8365 H 774.033 4.4533 -2.33859 0
M  V30 8366 H 773.733 4.22843 -4.08016 0
M  V30 8367 H 775.257 4.98174 -3.53066 0
M  V30 8368 H 776.671 3.10934 -4.81656 0
M  V30 8369 H 775.068 2.5899 -5.41336 0
M  V30 8370 H 776.138 1.40628 -4.6406 0
M  V30 8371 N 777.481 1.45874 0.596531 0
M  V30 8372 C 778.411 1.5824 1.71705 0
M  V30 8373 C 779.392 0.433366 1.64487 0
M  V30 8374 O 780.577 0.657895 1.82717 0
M  V30 8375 C 777.707 1.55927 3.10329 0
M  V30 8376 C 776.661 2.69659 3.32367 0
M  V30 8377 C 775.987 2.52403 4.71377 0
M  V30 8378 C 777.287 4.11591 3.21544 0
M  V30 8379 H 778.981 2.52035 1.61613 0
M  V30 8380 H 776.527 1.21297 0.776082 0
M  V30 8381 H 778.48 1.63173 3.88526 0
M  V30 8382 H 777.204 0.586674 3.21288 0
M  V30 8383 H 775.863 2.61859 2.56564 0
M  V30 8384 H 775.511 1.53258 4.79083 0
M  V30 8385 H 775.211 3.28679 4.87077 0
M  V30 8386 H 776.735 2.6152 5.5176 0
M  V30 8387 H 778.149 4.20576 3.89601 0
M  V30 8388 H 776.546 4.88344 3.4877 0
M  V30 8389 H 777.616 4.32719 2.1882 0
M  V30 8390 N 778.959 -0.83999 1.33349 0
M  V30 8391 C 779.907 -1.97113 1.23488 0
M  V30 8392 C 780.901 -1.68849 0.136503 0
M  V30 8393 O 782.107 -1.77476 0.300389 0
M  V30 8394 H 778.482 -0.647049 0.383185 0
M  V30 8395 H 780.453 -2.02554 2.19122 0
M  V30 8396 C 779.202 -3.33314 0.989815 0
M  V30 8397 H 778.525 -3.556 1.82726 0
M  V30 8398 H 779.965 -4.12963 0.961123 0
M  V30 8399 C 778.424 -3.35496 -0.307272 0
M  V30 8400 O 778.954 -3.79589 -1.31434 0
M  V30 8401 N 777.16 -2.88669 -0.334414 0
M  V30 8402 H 776.707 -2.5298 0.485659 0
M  V30 8403 H 776.665 -2.90512 -1.20209 0
M  V30 8404 N 780.437 -1.16799 -1.0581 0
M  V30 8405 C 781.384 -0.87902 -2.13405 0
M  V30 8406 C 782.354 0.174541 -1.6518 0
M  V30 8407 O 783.539 0.0386843 -1.90761 0
M  V30 8408 C 780.679 -0.391616 -3.42871 0
M  V30 8409 C 779.792 -1.50857 -4.04804 0
M  V30 8410 C 778.927 -0.975682 -5.22163 0
M  V30 8411 C 777.966 -2.06851 -5.76089 0
M  V30 8412 N 777.103 -1.55085 -6.84758 0
M  V30 8413 H 781.943 -1.80043 -2.37463 0
M  V30 8414 H 779.48 -0.898083 -1.16503 0
M  V30 8415 H 781.438 -0.0906247 -4.17102 0
M  V30 8416 H 780.068 0.49284 -3.19016 0
M  V30 8417 H 779.12 -1.92542 -3.28073 0
M  V30 8418 H 780.432 -2.33305 -4.40874 0
M  V30 8419 H 779.586 -0.628165 -6.03439 0
M  V30 8420 H 778.325 -0.120566 -4.87551 0
M  V30 8421 H 777.33 -2.42467 -4.93447 0
M  V30 8422 H 778.555 -2.92768 -6.12751 0
M  V30 8423 H 776.501 -0.718345 -6.52055 0
M  V30 8424 H 776.418 -2.31145 -7.19797 0
M  V30 8425 H 777.686 -1.23206 -7.69702 0
M  V30 8426 N 781.915 1.24427 -0.967243 0
M  V30 8427 C 782.847 2.24641 -0.454856 0
M  V30 8428 C 783.86 1.56849 0.436152 0
M  V30 8429 O 785.049 1.76846 0.242401 0
M  V30 8430 C 782.149 3.36954 0.362672 0
M  V30 8431 C 781.322 4.34318 -0.518324 0
M  V30 8432 C 780.381 5.25638 0.243122 0
M  V30 8433 O 779.407 5.68043 -0.362791 0
M  V30 8434 N 780.609 5.59897 1.53282 0
M  V30 8435 H 783.374 2.69238 -1.31648 0
M  V30 8436 H 780.935 1.38464 -0.839015 0
M  V30 8437 H 782.927 3.95014 0.880094 0
M  V30 8438 H 781.497 2.91646 1.12522 0
M  V30 8439 H 780.717 3.74953 -1.21672 0
M  V30 8440 H 782.005 4.96338 -1.11919 0
M  V30 8441 H 781.403 5.27373 2.04682 0
M  V30 8442 H 779.96 6.20488 1.99594 0
M  V30 8443 N 783.393 0.737304 1.3929 0
M  V30 8444 C 784.642 0.283129 1.99703 0
M  V30 8445 C 784.955 -1.13677 1.59176 0
M  V30 8446 O 786.161 -1.69058 2.12442 0
M  V30 8447 C 784.617 0.455262 3.57009 0
M  V30 8448 C 784.225 1.88319 4.06497 0
M  V30 8449 C 785.969 0.0629786 4.24453 0
M  V30 8450 C 783.876 2.00475 5.56385 0
M  V30 8451 H 782.806 0.102106 0.747054 0
M  V30 8452 H 785.457 0.911515 1.5926 0
M  V30 8453 H 783.839 -0.242057 3.9526 0
M  V30 8454 H 785.013 2.61265 3.79575 0
M  V30 8455 H 783.328 2.2289 3.51723 0
M  V30 8456 H 785.925 0.132787 5.34535 0
M  V30 8457 H 786.268 -0.982128 4.04549 0
M  V30 8458 H 786.801 0.71154 3.91385 0
M  V30 8459 H 783.54 3.03182 5.81172 0
M  V30 8460 H 783.06 1.31969 5.85102 0
M  V30 8461 H 784.739 1.787 6.21832 0
M  V30 8462 N 784.871 -1.49948 0.485112 0
M  V30 8463 C 786.118 -2.02396 -0.0650059 0
M  V30 8464 C 786.446 -1.36606 -1.38452 0
M  V30 8465 O 785.701 -0.485476 -1.89583 0
M  V30 8466 C 786 -3.56282 -0.282434 0
M  V30 8467 C 785.666 -4.40625 0.957106 0
M  V30 8468 C 784.328 -4.63393 1.29692 0
M  V30 8469 C 786.68 -4.89799 1.78176 0
M  V30 8470 C 784.008 -5.3258 2.4612 0
M  V30 8471 C 786.36 -5.60266 2.93743 0
M  V30 8472 C 785.024 -5.81284 3.28124 0
M  V30 8473 H 784.294 -0.740618 -0.0237873 0
M  V30 8474 H 786.941 -1.80416 0.642044 0
M  V30 8475 H 785.246 -3.76853 -1.07186 0
M  V30 8476 H 786.943 -3.94442 -0.722276 0
M  V30 8477 H 783.533 -4.23133 0.682384 0
M  V30 8478 H 787.717 -4.7205 1.53239 0
M  V30 8479 H 782.973 -5.47059 2.73014 0
M  V30 8480 H 787.147 -5.97347 3.5798 0
M  V30 8481 H 784.774 -6.34671 4.18446 0
M  V30 8482 N 786.349 -0.21828 -1.56081 0
M  V30 8483 C 787.259 0.704602 -2.23769 0
M  V30 8484 C 788.275 1.21633 -1.24425 0
M  V30 8485 O 789.451 1.25862 -1.57228 0
M  V30 8486 C 786.516 1.89725 -2.90182 0
M  V30 8487 C 785.577 1.42782 -4.0486 0
M  V30 8488 C 784.81 2.56361 -4.68097 0
M  V30 8489 O 785.033 3.74417 -4.30312 0
M  V30 8490 O 783.967 2.2775 -5.57148 0
M  V30 8491 H 787.793 0.158007 -3.03289 0
M  V30 8492 H 785.378 0.0120279 -1.49395 0
M  V30 8493 H 787.26 2.59382 -3.32113 0
M  V30 8494 H 785.935 2.432 -2.13624 0
M  V30 8495 H 784.842 0.699359 -3.67505 0
M  V30 8496 H 786.175 0.939474 -4.83151 0
M  V30 8497 N 787.827 1.57504 0.0551401 0
M  V30 8498 C 789.055 1.92294 0.76358 0
M  V30 8499 C 789.47 0.815774 1.70266 0
M  V30 8500 O 788.827 -0.209772 1.8129 0
M  V30 8501 C 788.878 3.26914 1.54302 0
M  V30 8502 O 788.599 4.33375 0.641666 0
M  V30 8503 C 790.1 3.75825 2.35097 0
M  V30 8504 H 787.32 0.635229 0.216159 0
M  V30 8505 H 789.864 2.0449 0.0204385 0
M  V30 8506 H 788.019 3.16196 2.23828 0
M  V30 8507 H 788.433 5.10927 1.1855 0
M  V30 8508 H 789.907 4.72603 2.8522 0
M  V30 8509 H 790.384 3.0568 3.15367 0
M  V30 8510 H 790.99 3.89542 1.70696 0
M  V30 8511 N 789.305 -0.326896 1.54172 0
M  V30 8512 C 790.554 -1.06274 1.71431 0
M  V30 8513 C 790.867 -1.89282 0.493123 0
M  V30 8514 O 792.073 -2.65933 0.54699 0
M  V30 8515 C 790.529 -1.93892 3.03206 0
M  V30 8516 C 790.137 -1.16011 4.32719 0
M  V30 8517 C 791.881 -2.67232 3.29829 0
M  V30 8518 C 789.788 -2.02755 5.55558 0
M  V30 8519 H 788.718 -0.400475 0.638855 0
M  V30 8520 H 791.369 -0.321184 1.80667 0
M  V30 8521 H 789.751 -2.71933 2.87869 0
M  V30 8522 H 790.925 -0.427643 4.58811 0
M  V30 8523 H 789.24 -0.54367 4.12836 0
M  V30 8524 H 791.837 -3.32434 4.18798 0
M  V30 8525 H 792.18 -3.34692 2.47562 0
M  V30 8526 H 792.713 -1.96255 3.46018 0
M  V30 8527 H 789.452 -1.3981 6.40417 0
M  V30 8528 H 788.972 -2.73745 5.33689 0
M  V30 8529 H 790.651 -2.61419 5.91835 0
M  V30 8530 N 790.784 -1.46188 -0.588786 0
M  V30 8531 C 792.014 -1.54519 -1.3714 0
M  V30 8532 C 792.422 -0.183075 -1.88312 0
M  V30 8533 O 791.765 0.828815 -1.6394 0
M  V30 8534 C 791.827 -2.48426 -2.59856 0
M  V30 8535 C 791.491 -3.94791 -2.30193 0
M  V30 8536 C 792.488 -4.84173 -1.894 0
M  V30 8537 C 790.173 -4.39872 -2.42525 0
M  V30 8538 C 792.167 -6.16647 -1.61325 0
M  V30 8539 C 789.854 -5.72381 -2.14063 0
M  V30 8540 C 790.852 -6.60589 -1.73527 0
M  V30 8541 O 790.54 -7.9064 -1.4541 0
M  V30 8542 H 790.272 -0.525264 -0.425527 0
M  V30 8543 H 792.826 -1.92242 -0.723344 0
M  V30 8544 H 791.056 -2.05709 -3.27446 0
M  V30 8545 H 792.745 -2.4723 -3.21919 0
M  V30 8546 H 793.511 -4.50603 -1.79393 0
M  V30 8547 H 789.39 -3.71444 -2.7304 0
M  V30 8548 H 792.934 -6.85454 -1.29611 0
M  V30 8549 H 788.831 -6.05501 -2.23693 0
M  V30 8550 H 789.599 -8.02847 -1.59306 0
M  V30 8551 N 792.262 0.832906 -1.33792 0
M  V30 8552 C 793.492 1.61813 -1.28453 0
M  V30 8553 C 793.9 1.88639 0.145595 0
M  V30 8554 O 793.243 1.47122 1.10004 0
M  V30 8555 C 793.305 2.98929 -1.99704 0
M  V30 8556 C 792.969 2.95045 -3.48995 0
M  V30 8557 C 793.966 2.70337 -4.44088 0
M  V30 8558 C 791.651 3.14993 -3.91261 0
M  V30 8559 C 793.645 2.65612 -5.79421 0
M  V30 8560 C 791.332 3.09893 -5.26697 0
M  V30 8561 C 792.33 2.85235 -6.20588 0
M  V30 8562 O 792.018 2.8005 -7.53543 0
M  V30 8563 H 791.75 0.510013 -0.443693 0
M  V30 8564 H 794.304 1.04514 -1.76822 0
M  V30 8565 H 792.534 3.58106 -1.45935 0
M  V30 8566 H 794.223 3.59849 -1.87786 0
M  V30 8567 H 794.989 2.54671 -4.12756 0
M  V30 8568 H 790.868 3.33204 -3.18584 0
M  V30 8569 H 794.412 2.46285 -6.52679 0
M  V30 8570 H 790.309 3.2511 -5.5765 0
M  V30 8571 H 791.077 2.95849 -7.63162 0
M  V30 8572 N 793.74 1.17359 1.05189 0
M  V30 8573 C 794.988 0.960087 1.77839 0
M  V30 8574 C 795.309 -0.512554 1.88143 0
M  V30 8575 O 794.579 -1.3721 1.39822 0
M  V30 8576 H 793.159 0.352234 0.658741 0
M  V30 8577 H 795.821 1.47834 1.27008 0
M  V30 8578 H 794.917 1.38843 2.79516 0
M  V30 8579 N 795.218 -1.23913 0.973828 0
M  V30 8580 C 796.181 -2.23367 0.51378 0
M  V30 8581 C 797.181 -1.55923 -0.39302 0
M  V30 8582 O 798.371 -1.73187 -0.187626 0
M  V30 8583 C 795.503 -3.39944 -0.255152 0
M  V30 8584 H 796.696 -2.65581 1.39307 0
M  V30 8585 H 794.249 -1.36632 0.759039 0
M  V30 8586 H 794.984 -3.03177 -1.15127 0
M  V30 8587 H 794.769 -3.90098 0.395673 0
M  V30 8588 H 796.259 -4.13749 -0.565842 0
M  V30 8589 N 796.696 -0.74468 -1.38897 0
M  V30 8590 C 797.626 -0.126355 -2.33158 0
M  V30 8591 C 798.607 0.713517 -1.54412 0
M  V30 8592 O 799.792 0.656523 -1.82766 0
M  V30 8593 C 796.922 0.774375 -3.38557 0
M  V30 8594 C 795.876 0.0379214 -4.27983 0
M  V30 8595 C 795.202 1.05631 -5.24162 0
M  V30 8596 C 796.502 -1.12523 -5.10035 0
M  V30 8597 H 798.196 -0.913744 -2.85116 0
M  V30 8598 H 795.742 -0.440847 -1.37086 0
M  V30 8599 H 797.695 1.21655 -4.03458 0
M  V30 8600 H 796.419 1.59399 -2.85061 0
M  V30 8601 H 795.078 -0.384733 -3.64576 0
M  V30 8602 H 794.726 1.86975 -4.66958 0
M  V30 8603 H 794.426 0.568261 -5.84846 0
M  V30 8604 H 795.95 1.49799 -5.9194 0
M  V30 8605 H 797.364 -0.761037 -5.68226 0
M  V30 8606 H 795.761 -1.54355 -5.79909 0
M  V30 8607 H 796.831 -1.94237 -4.44297 0
M  V30 8608 N 798.174 1.49689 -0.493057 0
M  V30 8609 C 799.084 2.32746 0.294358 0
M  V30 8610 C 800.1 1.44117 0.975003 0
M  V30 8611 O 801.276 1.77149 0.958138 0
M  V30 8612 C 798.341 3.19358 1.34949 0
M  V30 8613 C 797.402 4.2383 0.683122 0
M  V30 8614 C 796.635 5.06303 1.68798 0
M  V30 8615 O 796.858 4.90172 2.91698 0
M  V30 8616 O 795.792 5.88826 1.24768 0
M  V30 8617 H 799.618 3.01247 -0.385254 0
M  V30 8618 H 797.203 1.47216 -0.254519 0
M  V30 8619 H 799.085 3.73037 1.96014 0
M  V30 8620 H 797.76 2.53561 2.01217 0
M  V30 8621 H 796.667 3.74086 0.0329351 0
M  V30 8622 H 798 4.9216 0.0630192 0
M  V30 8623 N 799.652 0.226554 1.55963 0
M  V30 8624 C 800.615 -0.668015 2.19249 0
M  V30 8625 C 801.615 -1.11794 1.1558 0
M  V30 8626 O 802.805 -1.02593 1.40784 0
M  V30 8627 C 799.937 -1.91571 2.81981 0
M  V30 8628 H 801.13 -0.116175 2.99675 0
M  V30 8629 H 798.683 -0.0230497 1.56283 0
M  V30 8630 H 799.418 -2.50929 2.05439 0
M  V30 8631 H 799.203 -1.6015 3.57903 0
M  V30 8632 H 800.693 -2.55294 3.30477 0
M  V30 8633 N 801.13 -1.57531 -0.0467866 0
M  V30 8634 C 802.355 -1.93087 -0.757123 0
M  V30 8635 C 802.78 -0.825116 -1.69037 0
M  V30 8636 O 802.138 0.220449 -1.79955 0
M  V30 8637 C 802.186 -3.27669 -1.5055 0
M  V30 8638 O 801.29 -3.18667 -2.61773 0
M  V30 8639 H 800.631 -0.631597 -0.204892 0
M  V30 8640 H 803.161 -2.04599 -0.00755232 0
M  V30 8641 H 803.171 -3.6214 -1.87932 0
M  V30 8642 H 801.846 -4.07717 -0.820931 0
M  V30 8643 H 800.423 -2.95798 -2.27064 0
M  V30 8644 N 802.608 0.318715 -1.54344 0
M  V30 8645 C 803.848 1.06425 -1.74508 0
M  V30 8646 C 804.212 1.85087 -0.510572 0
M  V30 8647 O 805.413 2.62253 -0.589647 0
M  V30 8648 C 803.684 1.96054 -2.98827 0
M  V30 8649 S 805.243 2.77493 -3.39916 0
M  V30 8650 H 802.061 0.35921 -0.613587 0
M  V30 8651 H 804.663 0.339679 -1.92526 0
M  V30 8652 H 803.367 1.37109 -3.8682 0
M  V30 8653 H 802.898 2.72908 -2.83346 0
M  V30 8654 H 804.913 3.98544 -2.95596 0
M  V30 8655 N 804.086 1.46499 0.581025 0
M  V30 8656 C 805.363 1.42372 1.34125 0
M  V30 8657 C 805.743 0.108073 2.10823 0
M  V30 8658 O 805.091 -0.910366 2.09582 0
M  V30 8659 C 805.301 2.65445 2.26583 0
M  V30 8660 C 806.649 3.11664 2.88359 0
M  V30 8661 O 807.673 2.66006 2.36896 0
M  V30 8662 O 806.532 3.90974 3.81839 0
M  V30 8663 H 803.626 0.566262 0.602724 0
M  V30 8664 H 806.172 1.58667 0.601903 0
M  V30 8665 H 804.944 3.52756 1.69348 0
M  V30 8666 H 804.567 2.51618 3.07854 0
M  V30 8667 N 805.565 -0.825799 1.34232 0
M  V30 8668 C 806.495 -1.95151 1.28212 0
M  V30 8669 C 807.476 -1.69345 0.160123 0
M  V30 8670 O 808.661 -1.90983 0.352019 0
M  V30 8671 C 805.791 -3.31554 1.03388 0
M  V30 8672 C 804.745 -3.71793 2.12023 0
M  V30 8673 C 804.071 -5.06147 1.72392 0
M  V30 8674 C 805.371 -3.84193 3.53826 0
M  V30 8675 H 807.065 -2.00445 2.22401 0
M  V30 8676 H 804.611 -0.962996 1.07063 0
M  V30 8677 H 806.564 -4.09889 0.978225 0
M  V30 8678 H 805.288 -3.26551 0.0564142 0
M  V30 8679 H 803.947 -2.95731 2.16654 0
M  V30 8680 H 803.595 -4.97628 0.733137 0
M  V30 8681 H 803.295 -5.34041 2.451 0
M  V30 8682 H 804.819 -5.86943 1.68317 0
M  V30 8683 H 806.233 -4.52806 3.51624 0
M  V30 8684 H 804.63 -4.23538 4.2513 0
M  V30 8685 H 805.7 -2.86272 3.91377 0
M  V30 8686 N 807.043 -1.17915 -1.04565 0
M  V30 8687 C 808.006 -0.903787 -2.10628 0
M  V30 8688 C 809.006 0.10873 -1.60432 0
M  V30 8689 O 810.196 -0.124152 -1.73757 0
M  V30 8690 C 807.328 -0.355017 -3.39046 0
M  V30 8691 H 808.521 -1.84425 -2.3649 0
M  V30 8692 H 806.074 -0.990477 -1.2091 0
M  V30 8693 H 806.809 0.592297 -3.18845 0
M  V30 8694 H 806.594 -1.08484 -3.76794 0
M  V30 8695 H 808.084 -0.180891 -4.17208 0
M  V30 8696 N 808.521 1.23394 -0.980386 0
M  V30 8697 C 809.468 2.24859 -0.520298 0
M  V30 8698 C 810.438 1.60144 0.440821 0
M  V30 8699 O 811.623 1.87593 0.348369 0
M  V30 8700 C 808.763 3.44675 0.171145 0
M  V30 8701 C 807.876 4.23947 -0.830233 0
M  V30 8702 C 807.011 5.31079 -0.113597 0
M  V30 8703 C 806.05 6.02058 -1.10419 0
M  V30 8704 N 805.187 7.00862 -0.416709 0
M  V30 8705 H 810.027 2.63579 -1.39032 0
M  V30 8706 H 807.564 1.29556 -0.696682 0
M  V30 8707 H 809.522 4.13024 0.588838 0
M  V30 8708 H 808.152 3.06755 1.00504 0
M  V30 8709 H 807.204 3.55016 -1.36631 0
M  V30 8710 H 808.516 4.72945 -1.58508 0
M  V30 8711 H 807.67 6.05622 0.36146 0
M  V30 8712 H 806.409 4.83022 0.673854 0
M  V30 8713 H 805.414 5.26307 -1.59 0
M  V30 8714 H 806.639 6.52203 -1.8923 0
M  V30 8715 H 804.585 6.55057 0.351535 0
M  V30 8716 H 804.502 7.47804 -1.11021 0
M  V30 8717 H 805.77 7.79492 0.0359606 0
M  V30 8718 N 809.999 0.752036 1.385 0
M  V30 8719 C 810.909 0.125318 2.34265 0
M  V30 8720 C 811.925 -0.702437 1.59191 0
M  V30 8721 O 813.101 -0.626951 1.91393 0
M  V30 8722 C 810.166 -0.758486 3.38301 0
M  V30 8723 C 809.227 0.0834636 4.29219 0
M  V30 8724 C 808.46 -0.758252 5.28286 0
M  V30 8725 O 808.683 -1.99632 5.34325 0
M  V30 8726 O 807.617 -0.177878 6.01637 0
M  V30 8727 H 811.443 0.91617 2.89551 0
M  V30 8728 H 809.028 0.512911 1.4032 0
M  V30 8729 H 810.91 -1.26365 4.02007 0
M  V30 8730 H 809.585 -1.52786 2.85374 0
M  V30 8731 H 808.492 0.634545 3.68679 0
M  V30 8732 H 809.825 0.815455 4.85398 0
M  V30 8733 N 811.477 -1.49425 0.500989 0
M  V30 8734 C 812.409 -2.27037 -0.314159 0
M  V30 8735 C 813.422 -1.33578 -0.930626 0
M  V30 8736 O 814.611 -1.58861 -0.813968 0
M  V30 8737 C 811.711 -3.05968 -1.45729 0
M  V30 8738 C 810.884 -4.27 -0.948135 0
M  V30 8739 C 809.943 -4.87977 -1.96888 0
M  V30 8740 O 808.969 -5.48044 -1.53743 0
M  V30 8741 N 810.171 -4.77627 -3.29928 0
M  V30 8742 H 812.936 -2.97634 0.351336 0
M  V30 8743 H 810.497 -1.58427 0.333536 0
M  V30 8744 H 812.489 -3.43634 -2.1377 0
M  V30 8745 H 811.059 -2.37978 -2.02695 0
M  V30 8746 H 810.279 -3.94091 -0.0926311 0
M  V30 8747 H 811.567 -5.0541 -0.586362 0
M  V30 8748 H 810.965 -4.29926 -3.67669 0
M  V30 8749 H 809.522 -5.19478 -3.93682 0
M  V30 8750 N 812.955 -0.234822 -1.55841 0
M  V30 8751 C 814.203 0.392483 -1.98252 0
M  V30 8752 C 814.524 1.59344 -1.12404 0
M  V30 8753 O 813.794 1.94834 -0.204055 0
M  V30 8754 H 812.374 0.147999 -0.732192 0
M  V30 8755 H 815.036 -0.330804 -1.92072 0
M  V30 8756 H 814.132 0.709829 -3.03921 0
M  V30 8757 N 814.433 1.57553 0.0384317 0
M  V30 8758 C 815.844 1.77258 0.586211 0
M  V30 8759 C 816.195 0.864706 1.76117 0
M  V30 8760 O 815.32 0.057141 2.16325 0
M  V30 8761 C 815.915 3.21453 1.07021 0
M  V30 8762 C 814.474 3.42387 1.56358 0
M  V30 8763 C 813.621 2.72801 0.497508 0
M  V30 8764 H 816.572 1.57585 -0.187796 0
M  V30 8765 H 816.593 3.27451 1.93794 0
M  V30 8766 H 816.105 3.87505 0.214851 0
M  V30 8767 H 814.206 2.81497 2.44111 0
M  V30 8768 H 814.319 4.50968 1.61754 0
M  V30 8769 H 812.683 2.36305 0.95038 0
M  V30 8770 H 813.466 3.41529 -0.348234 0
M  V30 8771 N 815.911 -0.310526 1.54511 0
M  V30 8772 C 817.141 -1.06456 1.77061 0
M  V30 8773 C 817.549 -1.81755 0.525528 0
M  V30 8774 O 816.892 -1.76365 -0.513904 0
M  V30 8775 C 816.954 -2.09856 2.91892 0
M  V30 8776 C 816.618 -1.53838 4.30329 0
M  V30 8777 C 817.615 -0.973358 5.10707 0
M  V30 8778 C 815.3 -1.57688 4.76906 0
M  V30 8779 C 817.294 -0.454283 6.35779 0
M  V30 8780 C 814.981 -1.05393 6.01943 0
M  V30 8781 C 815.979 -0.493595 6.81214 0
M  V30 8782 O 815.667 0.0214506 8.03897 0
M  V30 8783 H 815.399 -0.321913 0.594431 0
M  V30 8784 H 817.953 -0.358289 2.02251 0
M  V30 8785 H 816.183 -2.84137 2.62304 0
M  V30 8786 H 817.872 -2.71085 3.02106 0
M  V30 8787 H 818.638 -0.936588 4.75871 0
M  V30 8788 H 814.517 -2.00242 4.1524 0
M  V30 8789 H 818.061 -0.0162657 6.97598 0
M  V30 8790 H 813.958 -1.08782 6.36268 0
M  V30 8791 H 814.726 -0.0927478 8.18447 0
M  V30 8792 N 817.389 -1.46805 -0.573248 0
M  V30 8793 C 818.299 -1.60687 -1.70929 0
M  V30 8794 C 819.315 -0.490084 -1.66956 0
M  V30 8795 O 820.491 -0.755482 -1.86693 0
M  V30 8796 C 817.556 -1.60259 -3.07438 0
M  V30 8797 C 816.617 -2.83242 -3.22603 0
M  V30 8798 C 815.85 -2.82825 -4.52599 0
M  V30 8799 O 816.073 -1.92113 -5.37074 0
M  V30 8800 O 815.007 -3.74489 -4.71213 0
M  V30 8801 H 818.833 -2.56782 -1.62163 0
M  V30 8802 H 816.418 -1.29706 -0.741399 0
M  V30 8803 H 818.3 -1.6275 -3.88704 0
M  V30 8804 H 816.975 -0.673268 -3.16621 0
M  V30 8805 H 815.882 -2.86302 -2.40794 0
M  V30 8806 H 817.215 -3.75415 -3.18315 0
M  V30 8807 N 818.867 0.818669 -1.34668 0
M  V30 8808 C 820.095 1.60674 -1.30351 0
M  V30 8809 C 820.51 1.88408 0.121546 0
M  V30 8810 O 819.867 1.47849 1.06991 0
M  V30 8811 C 819.918 2.94516 -2.09625 0
M  V30 8812 O 819.639 2.6799 -3.46573 0
M  V30 8813 C 821.14 3.8891 -2.12754 0
M  V30 8814 H 818.36 0.499306 -0.448258 0
M  V30 8815 H 820.904 1.01828 -1.77345 0
M  V30 8816 H 819.059 3.49908 -1.66262 0
M  V30 8817 H 819.473 3.53361 -3.87603 0
M  V30 8818 H 820.947 4.79972 -2.72637 0
M  V30 8819 H 821.424 4.24599 -1.12306 0
M  V30 8820 H 822.03 3.39453 -2.56225 0
M  V30 8821 N 820.346 1.18468 1.03938 0
M  V30 8822 C 821.576 1.0043 1.80547 0
M  V30 8823 C 821.984 -0.450407 1.83761 0
M  V30 8824 O 821.327 -1.32463 1.27276 0
M  V30 8825 C 821.389 1.48437 3.27424 0
M  V30 8826 C 821.053 2.96372 3.47869 0
M  V30 8827 C 822.05 3.94217 3.38953 0
M  V30 8828 C 819.735 3.34831 3.74424 0
M  V30 8829 C 821.729 5.28517 3.56298 0
M  V30 8830 C 819.416 4.69294 3.91416 0
M  V30 8831 C 820.414 5.65946 3.82354 0
M  V30 8832 O 820.102 6.97974 3.98858 0
M  V30 8833 H 819.834 0.354853 0.575374 0
M  V30 8834 H 822.388 1.57473 1.31876 0
M  V30 8835 H 820.618 0.857601 3.7707 0
M  V30 8836 H 822.307 1.2677 3.85596 0
M  V30 8837 H 823.073 3.6585 3.184 0
M  V30 8838 H 818.952 2.60161 3.80575 0
M  V30 8839 H 822.496 6.03943 3.49141 0
M  V30 8840 H 818.393 4.97361 4.11463 0
M  V30 8841 H 819.161 7.04895 4.1601 0
M  V30 8842 N 821.824 -1.22873 0.986916 0
M  V30 8843 C 822.734 -2.28277 0.540978 0
M  V30 8844 C 823.75 -1.69164 -0.407363 0
M  V30 8845 O 824.926 -1.99504 -0.275674 0
M  V30 8846 C 821.991 -3.46404 -0.143181 0
M  V30 8847 C 821.052 -4.20854 0.847375 0
M  V30 8848 C 820.285 -5.33341 0.19577 0
M  V30 8849 O 820.508 -5.61356 -1.0117 0
M  V30 8850 O 819.442 -5.95169 0.897623 0
M  V30 8851 H 823.268 -2.68578 1.41773 0
M  V30 8852 H 820.853 -1.28927 0.754867 0
M  V30 8853 H 822.735 -4.18096 -0.526676 0
M  V30 8854 H 821.41 -3.08041 -0.994593 0
M  V30 8855 H 820.317 -3.51459 1.28169 0
M  V30 8856 H 821.65 -4.63082 1.6678 0
M  V30 8857 N 823.302 -0.75937 -1.38099 0
M  V30 8858 C 824.55 -0.317485 -1.99591 0
M  V30 8859 C 824.871 1.10628 -1.60581 0
M  V30 8860 O 824.141 1.7575 -0.865378 0
M  V30 8861 H 822.721 -0.114397 -0.738189 0
M  V30 8862 H 825.383 -0.974749 -1.68774 0
M  V30 8863 H 824.479 -0.385227 -3.09713 0
M  V30 8864 N 824.78 1.49157 -0.508906 0
M  V30 8865 C 826.005 2.07376 0.0315182 0
M  V30 8866 C 826.43 1.36575 1.2934 0
M  V30 8867 O 825.788 0.424963 1.76249 0
M  V30 8868 C 825.836 3.59661 0.260118 0
M  V30 8869 O 824.94 3.90255 1.33322 0
M  V30 8870 H 824.281 0.663334 -0.029739 0
M  V30 8871 H 826.811 1.91857 -0.710791 0
M  V30 8872 H 826.821 4.05056 0.489225 0
M  V30 8873 H 825.496 4.10601 -0.661794 0
M  V30 8874 H 824.073 3.56661 1.08844 0
M  V30 8875 N 826.258 0.243083 1.55714 0
M  V30 8876 C 827.669 -0.260788 1.8487 0
M  V30 8877 C 828.02 -1.57879 1.16485 0
M  V30 8878 O 827.145 -2.1184 0.441908 0
M  V30 8879 C 827.74 -0.479954 3.35383 0
M  V30 8880 C 826.299 -0.928096 3.64778 0
M  V30 8881 C 825.446 -0.00316416 2.773 0
M  V30 8882 H 828.397 0.465743 1.51712 0
M  V30 8883 H 828.418 -1.32308 3.56756 0
M  V30 8884 H 827.93 0.479468 3.85127 0
M  V30 8885 H 826.031 -1.90012 3.20509 0
M  V30 8886 H 826.144 -0.7876 4.72582 0
M  V30 8887 H 824.508 -0.513849 2.49463 0
M  V30 8888 H 825.291 0.951562 3.29849 0
M  V30 8889 N 827.736 -1.57571 -0.0300757 0
M  V30 8890 C 828.982 -1.89506 -0.722159 0
M  V30 8891 C 829.315 -0.840699 -1.7506 0
M  V30 8892 O 828.59 0.144358 -1.93964 0
M  V30 8893 C 828.873 -3.32081 -1.39262 0
M  V30 8894 C 828.726 -4.48211 -0.377768 0
M  V30 8895 C 830.045 -3.73557 -2.32687 0
M  V30 8896 H 827.164 -0.689213 -0.261064 0
M  V30 8897 H 829.806 -1.89994 0.0150388 0
M  V30 8898 H 827.956 -3.31796 -2.02098 0
M  V30 8899 H 829.628 -4.6063 0.248591 0
M  V30 8900 H 827.871 -4.3274 0.303045 0
M  V30 8901 H 828.542 -5.44854 -0.885347 0
M  V30 8902 H 831.018 -3.75202 -1.79896 0
M  V30 8903 H 829.894 -4.74125 -2.7658 0
M  V30 8904 H 830.155 -3.05759 -3.19317 0
M  V30 8905 N 829.214 0.302327 -1.54673 0
M  V30 8906 C 830.439 1.06103 -1.78205 0
M  V30 8907 C 830.864 1.80204 -0.53926 0
M  V30 8908 O 830.222 1.73975 0.510142 0
M  V30 8909 C 830.27 2.01829 -2.98827 0
M  V30 8910 O 829.374 3.10108 -2.71858 0
M  V30 8911 H 828.715 0.30487 -0.589873 0
M  V30 8912 H 831.245 0.340153 -2.01753 0
M  V30 8913 H 831.255 2.44319 -3.2676 0
M  V30 8914 H 829.93 1.473 -3.88942 0
M  V30 8915 H 828.507 2.72142 -2.54937 0
M  V30 8916 N 830.692 1.47107 0.565454 0
M  V30 8917 C 831.639 1.58974 1.6732 0
M  V30 8918 C 832.609 0.433146 1.60353 0
M  V30 8919 O 833.794 0.652141 1.79309 0
M  V30 8920 C 830.934 1.60224 3.05651 0
M  V30 8921 C 830.047 2.86741 3.23116 0
M  V30 8922 C 829.182 2.79381 4.51796 0
M  V30 8923 C 828.221 4.0076 4.62664 0
M  V30 8924 N 827.358 3.91685 5.8269 0
M  V30 8925 H 832.198 2.53588 1.56515 0
M  V30 8926 H 829.735 1.25791 0.762558 0
M  V30 8927 H 831.693 1.58933 3.85741 0
M  V30 8928 H 830.323 0.691285 3.15311 0
M  V30 8929 H 829.375 2.97936 2.36513 0
M  V30 8930 H 830.687 3.7665 3.27011 0
M  V30 8931 H 829.841 2.76293 5.40136 0
M  V30 8932 H 828.58 1.87142 4.50366 0
M  V30 8933 H 827.585 4.04162 3.72738 0
M  V30 8934 H 828.81 4.94117 4.6586 0
M  V30 8935 H 826.756 3.02243 5.82224 0
M  V30 8936 H 826.673 4.75264 5.87929 0
M  V30 8937 H 827.941 3.92599 6.73414 0
M  V30 8938 N 832.17 -0.811516 1.35101 0
M  V30 8939 C 833.418 -1.56525 1.27845 0
M  V30 8940 C 833.739 -1.94435 -0.14829 0
M  V30 8941 O 833.009 -1.63203 -1.08359 0
M  V30 8942 H 831.589 -0.580433 0.47022 0
M  V30 8943 H 834.251 -0.968277 1.69146 0
M  V30 8944 H 833.347 -2.48291 1.89097 0
M  V30 8945 N 833.648 -1.19017 -1.03309 0
M  V30 8946 C 834.897 -0.984542 -1.76039 0
M  V30 8947 C 835.21 0.485937 -1.89468 0
M  V30 8948 O 836.416 0.810278 -2.59127 0
M  V30 8949 C 834.872 -1.71261 -3.1654 0
M  V30 8950 C 834.48 -3.22291 -3.11179 0
M  V30 8951 C 836.224 -1.59007 -3.93595 0
M  V30 8952 C 834.131 -3.87704 -4.46587 0
M  V30 8953 H 833.061 -0.364749 -0.659905 0
M  V30 8954 H 835.712 -1.4247 -1.15649 0
M  V30 8955 H 834.094 -1.20025 -3.77373 0
M  V30 8956 H 835.268 -3.80611 -2.59753 0
M  V30 8957 H 833.583 -3.34772 -2.47622 0
M  V30 8958 H 836.18 -2.05232 -4.93745 0
M  V30 8959 H 836.523 -0.543534 -4.12736 0
M  V30 8960 H 837.056 -2.07564 -3.39355 0
M  V30 8961 H 833.795 -4.92437 -4.3265 0
M  V30 8962 H 833.315 -3.34172 -4.98085 0
M  V30 8963 H 834.994 -3.91008 -5.15482 0
M  V30 8964 N 835.127 1.22348 -0.993418 0
M  V30 8965 C 836.057 2.26584 -0.564088 0
M  V30 8966 C 837.038 1.65102 0.409298 0
M  V30 8967 O 838.223 1.91872 0.299819 0
M  V30 8968 C 835.353 3.47087 0.121554 0
M  V30 8969 C 834.307 4.21009 -0.770429 0
M  V30 8970 C 833.633 5.34678 0.0481586 0
M  V30 8971 C 834.933 4.79636 -2.06752 0
M  V30 8972 H 836.627 2.62749 -1.43538 0
M  V30 8973 H 834.173 1.26303 -0.691628 0
M  V30 8974 H 836.126 4.19166 0.433303 0
M  V30 8975 H 834.85 3.1002 1.0274 0
M  V30 8976 H 833.509 3.50764 -1.06583 0
M  V30 8977 H 833.157 4.93852 0.954933 0
M  V30 8978 H 832.857 5.85061 -0.545641 0
M  V30 8979 H 834.381 6.09573 0.353991 0
M  V30 8980 H 835.795 5.43654 -1.81969 0
M  V30 8981 H 834.192 5.4036 -2.61019 0
M  V30 8982 H 835.262 3.99659 -2.74592 0
M  V30 8983 N 836.605 0.766683 1.37694 0
M  V30 8984 C 837.537 0.107798 2.28946 0
M  V30 8985 C 838.55 -0.669701 1.48387 0
M  V30 8986 O 839.739 -0.508629 1.711 0
M  V30 8987 C 836.839 -0.871084 3.27514 0
M  V30 8988 C 836.012 -0.148471 4.37148 0
M  V30 8989 C 835.071 -1.03998 5.1582 0
M  V30 8990 O 834.097 -0.505639 5.6695 0
M  V30 8991 N 835.299 -2.36679 5.3006 0
M  V30 8992 H 838.064 0.89154 2.86132 0
M  V30 8993 H 835.625 0.618593 1.49616 0
M  V30 8994 H 837.617 -1.47081 3.77027 0
M  V30 8995 H 836.187 -1.55582 2.71133 0
M  V30 8996 H 835.407 0.632117 3.89099 0
M  V30 8997 H 836.695 0.351045 5.07588 0
M  V30 8998 H 836.093 -2.82532 4.90094 0
M  V30 8999 H 834.65 -2.9167 5.82899 0
M  V30 9000 N 838.083 -1.48885 0.516809 0
M  V30 9001 C 839.313 -2.06592 -0.018375 0
M  V30 9002 C 839.721 -1.37543 -1.29917 0
M  V30 9003 O 839.064 -0.452527 -1.78039 0
M  V30 9004 C 839.126 -3.58016 -0.326315 0
M  V30 9005 C 838.79 -4.48853 0.859072 0
M  V30 9006 C 839.787 -4.89422 1.75391 0
M  V30 9007 C 837.472 -4.90937 1.06235 0
M  V30 9008 C 839.466 -5.70831 2.83604 0
M  V30 9009 C 837.153 -5.72119 2.14763 0
M  V30 9010 C 838.151 -6.11972 3.03281 0
M  V30 9011 O 837.839 -6.91527 4.09934 0
M  V30 9012 H 837.571 -0.675559 0.0244023 0
M  V30 9013 H 840.125 -1.92442 0.718005 0
M  V30 9014 H 838.355 -3.70231 -1.1165 0
M  V30 9015 H 840.044 -3.97898 -0.801999 0
M  V30 9016 H 840.81 -4.57542 1.60875 0
M  V30 9017 H 836.689 -4.59409 0.382677 0
M  V30 9018 H 840.233 -6.01857 3.52724 0
M  V30 9019 H 836.13 -6.03412 2.29268 0
M  V30 9020 H 836.898 -7.0986 4.07482 0
M  V30 9021 N 839.561 -0.251338 -1.55583 0
M  V30 9022 C 840.838 0.422729 -1.90977 0
M  V30 9023 C 841.218 1.75534 -1.17265 0
M  V30 9024 O 840.566 2.26632 -0.291588 0
M  V30 9025 C 840.776 0.586448 -3.44037 0
M  V30 9026 C 842.124 0.880294 -4.15375 0
M  V30 9027 O 843.148 0.672148 -3.49801 0
M  V30 9028 O 842.007 1.27694 -5.31372 0
M  V30 9029 H 839.101 0.227622 -0.795058 0
M  V30 9030 H 841.647 -0.295733 -1.67103 0
M  V30 9031 H 840.419 -0.352327 -3.89711 0
M  V30 9032 H 840.042 1.35528 -3.73789 0
M  V30 9033 N 841.039 1.57585 0.0217189 0
M  V30 9034 C 841.972 2.02435 1.05334 0
M  V30 9035 C 842.95 0.91006 1.34747 0
M  V30 9036 O 844.134 1.17648 1.47279 0
M  V30 9037 C 841.261 2.40362 2.38629 0
M  V30 9038 C 840.307 3.62307 2.25025 0
M  V30 9039 S 841.14 5.11141 1.59673 0
M  V30 9040 C 842.296 5.52316 2.94444 0
M  V30 9041 H 842.529 2.89621 0.671354 0
M  V30 9042 H 840.062 1.52648 0.231925 0
M  V30 9043 H 842.02 2.62883 3.15282 0
M  V30 9044 H 840.681 1.53615 2.73973 0
M  V30 9045 H 839.874 3.86523 3.23443 0
M  V30 9046 H 839.476 3.39675 1.56515 0
M  V30 9047 H 841.768 5.53449 3.90768 0
M  V30 9048 H 842.711 6.52539 2.74952 0
M  V30 9049 H 843.119 4.79834 2.97355 0
M  V30 9050 N 842.517 -0.29412 1.54831 0
M  V30 9051 C 843.763 -1.02602 1.75626 0
M  V30 9052 C 844.118 -1.84689 0.539232 0
M  V30 9053 O 843.411 -1.85788 -0.468322 0
M  V30 9054 C 843.605 -1.95782 2.99006 0
M  V30 9055 C 843.434 -1.22861 4.32591 0
M  V30 9056 C 842.204 -0.95294 4.96233 0
M  V30 9057 C 844.402 -0.629592 5.10432 0
M  V30 9058 N 842.384 -0.194728 6.13591 0
M  V30 9059 C 843.755 -0.00449586 6.2 0
M  V30 9060 C 845.81 -0.535327 4.95014 0
M  V30 9061 C 844.513 0.705754 7.15829 0
M  V30 9062 C 846.539 0.161284 5.9118 0
M  V30 9063 C 845.901 0.775203 7.00121 0
M  V30 9064 H 842 -0.358143 0.695167 0
M  V30 9065 H 844.584 -0.303896 1.92314 0
M  V30 9066 H 842.755 -2.65238 2.83731 0
M  V30 9067 H 844.487 -2.62175 3.08296 0
M  V30 9068 H 841.242 -1.25285 4.56728 0
M  V30 9069 H 841.666 0.171093 6.76784 0
M  V30 9070 H 846.308 -0.995662 4.10909 0
M  V30 9071 H 844.026 1.17784 7.9947 0
M  V30 9072 H 847.612 0.234256 5.81328 0
M  V30 9073 H 846.492 1.30566 7.73254 0
M  V30 9074 N 843.995 -1.47404 -0.557645 0
M  V30 9075 C 844.943 -1.60265 -1.68576 0
M  V30 9076 C 845.937 -0.469982 -1.6275 0
M  V30 9077 O 847.143 -0.647764 -1.67941 0
M  V30 9078 H 843.518 -0.504353 -0.557792 0
M  V30 9079 H 845.489 -2.55066 -1.54867 0
M  V30 9080 C 844.238 -1.63369 -3.0693 0
M  V30 9081 H 843.561 -2.49874 -3.12095 0
M  V30 9082 H 845.001 -1.76417 -3.85556 0
M  V30 9083 C 843.46 -0.366921 -3.34896 0
M  V30 9084 O 843.99 0.53218 -3.98159 0
M  V30 9085 N 842.196 -0.247082 -2.89548 0
M  V30 9086 H 841.743 -0.979669 -2.38244 0
M  V30 9087 H 841.701 0.599552 -3.0863 0
M  V30 9088 N 845.473 0.80434 -1.35529 0
M  V30 9089 C 846.719 1.56385 -1.29118 0
M  V30 9090 C 847.052 1.9374 0.133536 0
M  V30 9091 O 846.327 1.6153 1.08344 0
M  V30 9092 C 846.61 2.85097 -2.19981 0
M  V30 9093 C 846.463 2.54204 -3.7108 0
M  V30 9094 C 847.782 3.86817 -2.09907 0
M  V30 9095 H 844.901 0.567382 -0.470368 0
M  V30 9096 H 847.543 0.925235 -1.6595 0
M  V30 9097 H 845.693 3.39594 -1.88701 0
M  V30 9098 H 847.365 2.05872 -4.12813 0
M  V30 9099 H 845.608 1.87364 -3.91251 0
M  V30 9100 H 846.279 3.46068 -4.30048 0
M  V30 9101 H 848.755 3.41725 -2.37409 0
M  V30 9102 H 847.631 4.7465 -2.75678 0
M  V30 9103 H 847.892 4.28663 -1.08171 0
M  V30 9104 N 846.951 1.19563 1.02676 0
M  V30 9105 C 848.179 1.02488 1.79732 0
M  V30 9106 C 848.594 -0.426302 1.83924 0
M  V30 9107 O 847.951 -1.29609 1.28483 0
M  V30 9108 C 848.002 1.58944 3.24683 0
M  V30 9109 O 847.723 2.98382 3.2078 0
M  V30 9110 C 849.224 1.46681 4.1833 0
M  V30 9111 H 846.444 0.361098 0.565552 0
M  V30 9112 H 848.988 1.58426 1.29311 0
M  V30 9113 H 847.143 1.0715 3.72287 0
M  V30 9114 H 847.557 3.24983 4.11687 0
M  V30 9115 H 849.031 1.90959 5.17918 0
M  V30 9116 H 849.508 0.417663 4.3721 0
M  V30 9117 H 850.114 1.97616 3.76601 0
M  V30 9118 N 848.429 -1.21819 0.999893 0
M  V30 9119 C 849.84 -1.72517 0.713775 0
M  V30 9120 C 850.191 -1.80505 -0.768922 0
M  V30 9121 O 849.316 -1.45611 -1.60083 0
M  V30 9122 C 849.911 -3.13321 1.28901 0
M  V30 9123 C 848.47 -3.61396 1.05212 0
M  V30 9124 C 847.617 -2.39074 1.40494 0
M  V30 9125 H 850.568 -1.07068 1.17141 0
M  V30 9126 H 850.589 -3.74535 0.671084 0
M  V30 9127 H 850.101 -3.07475 2.36814 0
M  V30 9128 H 848.202 -3.72599 -0.0100732 0
M  V30 9129 H 848.315 -4.47145 1.72042 0
M  V30 9130 H 846.679 -2.41015 0.823642 0
M  V30 9131 H 847.462 -2.35884 2.49427 0
M  V30 9132 N 849.908 -0.773975 -1.37286 0
M  V30 9133 C 851.136 -0.350758 -2.03905 0
M  V30 9134 C 851.551 1.02779 -1.58373 0
M  V30 9135 O 850.908 1.65646 -0.766009 0
M  V30 9136 C 850.959 -0.387335 -3.59419 0
M  V30 9137 O 850.68 -1.7115 -4.03286 0
M  V30 9138 C 852.181 0.047198 -4.43275 0
M  V30 9139 H 849.401 -0.146663 -0.654775 0
M  V30 9140 H 851.945 -1.04852 -1.75574 0
M  V30 9141 H 850.1 0.261865 -3.86514 0
M  V30 9142 H 850.514 -1.65166 -4.97816 0
M  V30 9143 H 851.988 -0.0295474 -5.51992 0
M  V30 9144 H 852.465 1.09786 -4.25257 0
M  V30 9145 H 853.071 -0.573899 -4.2141 0
M  V30 9146 N 851.386 1.48609 -0.524698 0
M  V30 9147 C 852.663 1.95454 0.075465 0
M  V30 9148 C 853.043 1.46682 1.51814 0
M  V30 9149 O 852.391 0.690975 2.17802 0
M  V30 9150 C 852.601 3.48981 -0.0363273 0
M  V30 9151 C 853.949 4.24414 0.125624 0
M  V30 9152 O 854.973 3.5618 0.0377239 0
M  V30 9153 O 853.832 5.45625 0.309104 0
M  V30 9154 H 850.926 0.822902 0.0822256 0
M  V30 9155 H 853.472 1.59153 -0.588921 0
M  V30 9156 H 852.244 3.77185 -1.04149 0
M  V30 9157 H 851.867 3.91963 0.667146 0
M  V30 9158 N 852.864 0.259585 1.55447 0
M  V30 9159 C 853.794 -0.62852 2.24882 0
M  V30 9160 C 854.775 -1.17128 1.23349 0
M  V30 9161 O 855.96 -1.20829 1.52033 0
M  V30 9162 C 853.09 -1.81983 2.95803 0
M  V30 9163 C 852.044 -1.40929 4.04132 0
M  V30 9164 C 851.37 -2.68246 4.62545 0
M  V30 9165 C 852.67 -0.570956 5.1917 0
M  V30 9166 H 854.364 -0.0495021 2.99359 0
M  V30 9167 H 851.91 -0.0223688 1.43983 0
M  V30 9168 H 853.863 -2.44689 3.43082 0
M  V30 9169 H 852.587 -2.42444 2.18835 0
M  V30 9170 H 851.246 -0.805519 3.57641 0
M  V30 9171 H 850.894 -3.26931 3.82263 0
M  V30 9172 H 850.594 -2.41495 5.35681 0
M  V30 9173 H 852.118 -3.31827 5.12565 0
M  V30 9174 H 853.532 -1.10262 5.62597 0
M  V30 9175 H 851.929 -0.398979 5.98772 0
M  V30 9176 H 852.999 0.413918 4.8313 0
M  V30 9177 N 854.342 -1.57594 -0.0133615 0
M  V30 9178 C 855.588 -1.91105 -0.696457 0
M  V30 9179 C 855.943 -0.859872 -1.72116 0
M  V30 9180 O 855.236 0.129579 -1.91161 0
M  V30 9181 C 855.43 -3.29121 -1.39336 0
M  V30 9182 C 855.259 -4.47565 -0.437666 0
M  V30 9183 C 854.029 -5.05272 -0.0529454 0
M  V30 9184 C 856.227 -5.13479 0.290537 0
M  V30 9185 N 854.209 -6.07232 0.902355 0
M  V30 9186 C 855.58 -6.10147 1.10097 0
M  V30 9187 C 857.635 -4.96627 0.355804 0
M  V30 9188 C 856.338 -6.91778 1.97069 0
M  V30 9189 C 858.364 -5.78833 1.21271 0
M  V30 9190 C 857.726 -6.75083 2.01102 0
M  V30 9191 H 853.825 -0.747882 -0.228464 0
M  V30 9192 H 856.409 -1.94651 0.0438462 0
M  V30 9193 H 854.58 -3.26474 -2.10403 0
M  V30 9194 H 856.312 -3.501 -2.03008 0
M  V30 9195 H 853.067 -4.71747 -0.418486 0
M  V30 9196 H 853.491 -6.6289 1.37498 0
M  V30 9197 H 858.133 -4.22077 -0.247105 0
M  V30 9198 H 855.851 -7.65662 2.58433 0
M  V30 9199 H 859.437 -5.67838 1.26694 0
M  V30 9200 H 858.317 -7.37587 2.66337 0
M  V30 9201 N 855.82 0.285905 -1.54985 0
M  V30 9202 C 857.097 1.0397 -1.65679 0
M  V30 9203 C 857.477 2.04725 -0.514851 0
M  V30 9204 O 856.825 2.23257 0.486663 0
M  V30 9205 C 857.035 1.70807 -3.04345 0
M  V30 9206 C 858.383 2.22447 -3.61666 0
M  V30 9207 O 859.407 1.80815 -3.06895 0
M  V30 9208 O 858.266 2.98773 -4.57599 0
M  V30 9209 H 855.36 0.481473 -0.672394 0
M  V30 9210 H 857.906 0.282789 -1.67327 0
M  V30 9211 H 856.678 0.977271 -3.789 0
M  V30 9212 H 856.301 2.53217 -3.06541 0
M  V30 9213 N 857.298 1.47698 0.54982 0
M  V30 9214 C 858.544 1.55914 1.30624 0
M  V30 9215 C 858.899 0.221596 1.9112 0
M  V30 9216 O 858.192 -0.77351 1.75292 0
M  V30 9217 C 858.386 2.61903 2.4319 0
M  V30 9218 C 858.215 4.05833 1.93725 0
M  V30 9219 C 856.985 4.73199 1.77231 0
M  V30 9220 C 859.183 4.92624 1.47738 0
M  V30 9221 N 857.165 6.01618 1.22183 0
M  V30 9222 C 858.536 6.11129 1.04505 0
M  V30 9223 C 860.591 4.79006 1.35857 0
M  V30 9224 C 859.294 7.1752 0.505722 0
M  V30 9225 C 861.32 5.85501 0.833254 0
M  V30 9226 C 860.682 7.03201 0.410894 0
M  V30 9227 H 856.781 0.625194 0.469741 0
M  V30 9228 H 859.365 1.84485 0.622369 0
M  V30 9229 H 857.536 2.35188 3.09098 0
M  V30 9230 H 859.268 2.59919 3.102 0
M  V30 9231 H 856.023 4.29221 2.00166 0
M  V30 9232 H 856.447 6.70054 0.967263 0
M  V30 9233 H 861.089 3.88369 1.67122 0
M  V30 9234 H 858.807 8.07898 0.180721 0
M  V30 9235 H 862.393 5.77013 0.744781 0
M  V30 9236 H 861.273 7.84199 0.0107086 0
M  V30 9237 N 858.776 -0.797141 1.35954 0
M  V30 9238 C 859.723 -1.90944 1.2965 0
M  V30 9239 C 860.693 -1.65262 0.166628 0
M  V30 9240 O 861.878 -1.87527 0.351883 0
M  V30 9241 C 859.018 -3.27637 1.08389 0
M  V30 9242 C 858.131 -3.65442 2.30382 0
M  V30 9243 C 857.266 -4.91213 2.02195 0
M  V30 9244 C 856.305 -5.21674 3.20191 0
M  V30 9245 N 855.442 -6.38627 2.91719 0
M  V30 9246 H 860.282 -1.95668 2.24762 0
M  V30 9247 H 857.819 -0.95696 1.11717 0
M  V30 9248 H 859.777 -4.06451 0.940912 0
M  V30 9249 H 858.407 -3.22355 0.169351 0
M  V30 9250 H 857.459 -2.81813 2.55511 0
M  V30 9251 H 858.771 -3.83907 3.18461 0
M  V30 9252 H 857.925 -5.77876 1.84783 0
M  V30 9253 H 856.664 -4.74803 1.11416 0
M  V30 9254 H 855.669 -4.33498 3.38171 0
M  V30 9255 H 856.894 -5.40009 4.11786 0
M  V30 9256 H 854.84 -6.23623 2.03543 0
M  V30 9257 H 854.757 -6.57387 3.73334 0
M  V30 9258 H 856.025 -7.28292 2.77868 0
M  V30 9259 N 860.254 -1.20106 -1.0204 0
M  V30 9260 C 861.5 -1.01039 -1.75838 0
M  V30 9261 C 861.833 0.456819 -1.88751 0
M  V30 9262 O 861.108 1.33919 -1.41053 0
M  V30 9263 C 861.391 -1.69009 -3.17975 0
M  V30 9264 C 861.244 -3.2315 -3.1288 0
M  V30 9265 C 862.563 -1.42005 -4.16561 0
M  V30 9266 H 859.682 -0.368465 -0.638281 0
M  V30 9267 H 862.324 -1.48066 -1.19064 0
M  V30 9268 H 860.474 -1.29026 -3.66449 0
M  V30 9269 H 862.146 -3.72402 -2.72239 0
M  V30 9270 H 860.389 -3.54253 -2.50374 0
M  V30 9271 H 861.06 -3.65862 -4.13339 0
M  V30 9272 H 863.536 -1.76685 -3.76725 0
M  V30 9273 H 862.412 -1.92101 -5.14187 0
M  V30 9274 H 862.673 -0.346884 -4.40737 0
M  V30 9275 N 861.732 1.21287 -1.00634 0
M  V30 9276 C 862.662 2.25973 -0.588089 0
M  V30 9277 C 863.643 1.65527 0.391764 0
M  V30 9278 O 864.828 1.92179 0.279452 0
M  V30 9279 C 861.958 3.47197 0.0847336 0
M  V30 9280 C 860.912 4.20168 -0.815039 0
M  V30 9281 C 860.238 5.34699 -0.00855393 0
M  V30 9282 C 861.538 4.77416 -2.11828 0
M  V30 9283 H 863.232 2.61212 -1.46317 0
M  V30 9284 H 860.778 1.25563 -0.704985 0
M  V30 9285 H 862.731 4.19602 0.388821 0
M  V30 9286 H 861.455 3.11092 0.994456 0
M  V30 9287 H 860.114 3.49614 -1.10297 0
M  V30 9288 H 859.762 4.94837 0.902499 0
M  V30 9289 H 859.462 5.84449 -0.607664 0
M  V30 9290 H 860.986 6.09914 0.289317 0
M  V30 9291 H 862.4 5.41694 -1.87725 0
M  V30 9292 H 860.797 5.37561 -2.66736 0
M  V30 9293 H 861.867 3.96724 -2.78816 0
M  V30 9294 N 863.21 0.781244 1.36873 0
M  V30 9295 C 864.157 0.172146 2.30157 0
M  V30 9296 C 865.127 -0.679328 1.51573 0
M  V30 9297 O 866.312 -0.629713 1.80109 0
M  V30 9298 C 863.452 -0.693534 3.38059 0
M  V30 9299 C 862.565 0.175586 4.31643 0
M  V30 9300 C 861.7 -0.695695 5.26625 0
M  V30 9301 C 860.739 0.17538 6.11849 0
M  V30 9302 N 859.876 -0.654416 6.99043 0
M  V30 9303 H 864.716 0.973133 2.81663 0
M  V30 9304 H 862.253 0.491469 1.38647 0
M  V30 9305 H 864.211 -1.21035 3.99257 0
M  V30 9306 H 862.841 -1.46003 2.87894 0
M  V30 9307 H 861.893 0.810295 3.7167 0
M  V30 9308 H 863.205 0.847107 4.91554 0
M  V30 9309 H 862.359 -1.27863 5.93073 0
M  V30 9310 H 861.098 -1.40087 4.67148 0
M  V30 9311 H 860.103 0.77078 5.4437 0
M  V30 9312 H 861.328 0.87803 6.734 0
M  V30 9313 H 859.274 -1.34403 6.42084 0
M  V30 9314 H 859.191 -0.0403998 7.55989 0
M  V30 9315 H 860.459 -1.22144 7.69871 0
M  V30 9316 N 864.689 -1.48329 0.532571 0
M  V30 9317 C 865.599 -2.33445 -0.232546 0
M  V30 9318 C 866.615 -1.46651 -0.93645 0
M  V30 9319 O 867.791 -1.79627 -0.910834 0
M  V30 9320 C 864.856 -3.22824 -1.26434 0
M  V30 9321 C 863.917 -4.25492 -0.570511 0
M  V30 9322 C 863.15 -5.10601 -1.55315 0
M  V30 9323 O 863.373 -4.97733 -2.78599 0
M  V30 9324 O 862.307 -5.91927 -1.09112 0
M  V30 9325 H 866.133 -3.00119 0.464988 0
M  V30 9326 H 863.718 -1.46489 0.293462 0
M  V30 9327 H 865.6 -3.78103 -1.86055 0
M  V30 9328 H 864.275 -2.58807 -1.94424 0
M  V30 9329 H 863.182 -3.74041 0.0662587 0
M  V30 9330 H 864.515 -4.92154 0.0674904 0
M  V30 9331 N 866.167 -0.267825 -1.55308 0
M  V30 9332 C 867.114 0.6228 -2.22238 0
M  V30 9333 C 868.084 1.15536 -1.19334 0
M  V30 9334 O 869.269 1.206 -1.47852 0
M  V30 9335 C 866.409 1.80447 -2.94164 0
M  V30 9336 C 865.522 1.30646 -4.11771 0
M  V30 9337 C 864.657 2.44935 -4.7136 0
M  V30 9338 C 863.696 1.92099 -5.81175 0
M  V30 9339 N 862.833 2.99834 -6.34857 0
M  V30 9340 H 867.673 0.0453874 -2.97965 0
M  V30 9341 H 865.21 0.0106371 -1.47096 0
M  V30 9342 H 867.168 2.49896 -3.34078 0
M  V30 9343 H 865.798 2.35403 -2.20874 0
M  V30 9344 H 864.85 0.505314 -3.77029 0
M  V30 9345 H 866.162 0.879409 -4.90987 0
M  V30 9346 H 865.316 3.2239 -5.13955 0
M  V30 9347 H 864.055 2.90951 -3.91406 0
M  V30 9348 H 863.06 1.13122 -5.38037 0
M  V30 9349 H 864.285 1.47027 -6.62993 0
M  V30 9350 H 862.231 3.45246 -5.578 0
M  V30 9351 H 862.148 2.61524 -7.09324 0
M  V30 9352 H 863.416 3.77286 -6.82111 0
M  V30 9353 N 867.645 1.57599 0.00500368 0
M  V30 9354 C 868.894 1.89528 0.690061 0
M  V30 9355 C 869.207 0.869451 1.75214 0
M  V30 9356 O 870.413 1.07879 2.49147 0
M  V30 9357 C 868.869 3.36425 1.27852 0
M  V30 9358 C 868.477 4.47293 0.251531 0
M  V30 9359 C 870.221 3.77471 1.94206 0
M  V30 9360 C 868.128 5.85264 0.8497 0
M  V30 9361 H 867.058 0.707201 0.2615 0
M  V30 9362 H 869.709 1.83418 -0.0547209 0
M  V30 9363 H 868.091 3.37356 2.07381 0
M  V30 9364 H 869.265 4.5787 -0.518796 0
M  V30 9365 H 867.58 4.15235 -0.311281 0
M  V30 9366 H 870.177 4.77884 2.39855 0
M  V30 9367 H 870.52 3.10722 2.77051 0
M  V30 9368 H 871.053 3.78817 1.21419 0
M  V30 9369 H 867.792 6.55472 0.0601408 0
M  V30 9370 H 867.312 5.78361 1.5893 0
M  V30 9371 H 868.991 6.32762 1.34984 0
M  V30 9372 N 869.123 -0.277682 1.55134 0
M  V30 9373 C 870.086 -1.32635 1.86924 0
M  V30 9374 C 871.086 -1.42578 0.743507 0
M  V30 9375 O 872.276 -1.4181 1.01171 0
M  V30 9376 C 869.408 -2.70832 2.07034 0
M  V30 9377 H 870.601 -1.0568 2.80663 0
M  V30 9378 H 868.154 -0.515517 1.47554 0
M  V30 9379 H 868.889 -3.02974 1.15661 0
M  V30 9380 H 868.674 -2.65001 2.88993 0
M  V30 9381 H 870.164 -3.46611 2.32918 0
M  V30 9382 N 870.601 -1.47988 -0.541979 0
M  V30 9383 C 871.548 -1.61615 -1.6477 0
M  V30 9384 C 872.518 -0.458602 -1.59644 0
M  V30 9385 O 873.703 -0.680585 -1.78249 0
M  V30 9386 C 870.843 -1.65066 -3.03063 0
M  V30 9387 C 869.956 -2.91845 -3.18513 0
M  V30 9388 C 869.091 -2.86534 -4.47294 0
M  V30 9389 C 868.13 -4.0807 -4.5623 0
M  V30 9390 N 867.267 -4.00905 -5.76385 0
M  V30 9391 H 872.107 -2.56046 -1.52461 0
M  V30 9392 H 869.644 -1.26989 -0.742449 0
M  V30 9393 H 871.602 -1.65049 -3.83164 0
M  V30 9394 H 870.232 -0.74136 -3.14171 0
M  V30 9395 H 869.284 -3.01661 -2.31743 0
M  V30 9396 H 870.596 -3.81804 -3.20978 0
M  V30 9397 H 869.75 -2.84851 -5.35672 0
M  V30 9398 H 868.489 -1.94283 -4.47332 0
M  V30 9399 H 867.494 -4.10041 -3.66261 0
M  V30 9400 H 868.719 -5.01465 -4.5794 0
M  V30 9401 H 866.665 -3.11467 -5.77342 0
M  V30 9402 H 866.582 -4.84557 -5.80293 0
M  V30 9403 H 867.85 -4.03263 -6.67083 0
M  V30 9404 N 872.079 0.78992 -1.36375 0
M  V30 9405 C 873.309 1.57644 -1.33536 0
M  V30 9406 C 873.717 1.89007 0.0855075 0
M  V30 9407 O 873.06 1.50547 1.05267 0
M  V30 9408 C 873.122 2.92424 -2.09113 0
M  V30 9409 C 872.786 2.83793 -3.58205 0
M  V30 9410 C 873.783 2.56072 -4.52464 0
M  V30 9411 C 871.468 3.02386 -4.01084 0
M  V30 9412 C 873.462 2.47044 -5.87578 0
M  V30 9413 C 871.149 2.9298 -5.36289 0
M  V30 9414 C 872.147 2.65347 -6.29349 0
M  V30 9415 O 871.835 2.55935 -7.62071 0
M  V30 9416 H 871.567 0.495639 -0.459694 0
M  V30 9417 H 874.121 0.988354 -1.80058 0
M  V30 9418 H 872.351 3.53282 -1.57254 0
M  V30 9419 H 874.04 3.53693 -1.99139 0
M  V30 9420 H 874.806 2.4141 -4.2065 0
M  V30 9421 H 870.685 3.229 -3.29023 0
M  V30 9422 H 874.229 2.25396 -6.60184 0
M  V30 9423 H 870.126 3.07204 -5.67711 0
M  V30 9424 H 870.894 2.7142 -7.72187 0
M  V30 9425 N 873.557 1.20646 1.01402 0
M  V30 9426 C 874.805 1.01618 1.74695 0
M  V30 9427 C 875.126 -0.452438 1.89679 0
M  V30 9428 O 874.396 -1.32693 1.44116 0
M  V30 9429 H 872.976 0.373013 0.647202 0
M  V30 9430 H 875.638 1.518 1.22241 0
M  V30 9431 H 874.734 1.47666 2.74957 0
M  V30 9432 N 875.035 -1.20752 1.01276 0
M  V30 9433 C 876.284 -1.8934 0.695229 0
M  V30 9434 C 876.597 -1.79459 -0.77806 0
M  V30 9435 O 877.803 -2.43146 -1.20799 0
M  V30 9436 C 876.259 -3.39548 1.1931 0
M  V30 9437 C 875.867 -3.58023 2.69302 0
M  V30 9438 C 877.611 -4.13714 0.950823 0
M  V30 9439 C 875.518 -5.02037 3.1259 0
M  V30 9440 H 874.448 -0.709084 0.25635 0
M  V30 9441 H 877.099 -1.36629 1.22494 0
M  V30 9442 H 875.481 -3.91559 0.591395 0
M  V30 9443 H 876.655 -3.16416 3.34989 0
M  V30 9444 H 874.97 -2.97222 2.9163 0
M  V30 9445 H 877.567 -5.19891 1.24971 0
M  V30 9446 H 877.91 -4.16147 -0.112791 0
M  V30 9447 H 878.443 -3.67792 1.51571 0
M  V30 9448 H 875.182 -5.04757 4.18211 0
M  V30 9449 H 874.702 -5.44469 2.51621 0
M  V30 9450 H 876.381 -5.70594 3.0501 0
M  V30 9451 N 876.513 -0.788492 -1.36457 0
M  V30 9452 C 877.929 -0.470063 -1.52521 0
M  V30 9453 C 878.129 1.01176 -1.74258 0
M  V30 9454 O 877.185 1.79726 -1.77355 0
M  V30 9455 C 878.498 -1.2997 -2.71161 0
M  V30 9456 C 880.046 -1.2933 -2.85031 0
M  V30 9457 C 880.521 -2.10665 -4.06674 0
M  V30 9458 N 882.012 -2.08107 -4.13819 0
M  V30 9459 C 882.747 -2.6781 -5.07016 0
M  V30 9460 N 882.243 -3.36369 -6.05663 0
M  V30 9461 N 884.036 -2.57549 -4.99625 0
M  V30 9462 H 876.187 -1.7484 -1.20602 0
M  V30 9463 H 878.45 -0.743159 -0.588574 0
M  V30 9464 H 878.156 -2.35051 -2.61618 0
M  V30 9465 H 878.03 -0.940367 -3.6529 0
M  V30 9466 H 880.417 -0.250414 -2.94036 0
M  V30 9467 H 880.498 -1.69239 -1.91812 0
M  V30 9468 H 880.142 -3.14984 -3.98431 0
M  V30 9469 H 880.072 -1.68128 -4.9904 0
M  V30 9470 H 882.563 -1.58208 -3.43189 0
M  V30 9471 H 882.876 -3.79258 -6.73338 0
M  V30 9472 H 881.221 -3.40471 -6.05891 0
M  V30 9473 H 884.412 -2.0359 -4.21508 0
M  V30 9474 H 884.585 -3.0437 -5.72069 0
M  V30 9475 N 877.991 1.48044 -0.54043 0
M  V30 9476 C 878.939 2.31461 0.229862 0
M  V30 9477 C 879.933 1.41884 0.925495 0
M  V30 9478 O 881.139 1.58736 0.848689 0
M  V30 9479 H 877.514 0.746227 0.0929975 0
M  V30 9480 H 879.485 2.94297 -0.493118 0
M  V30 9481 C 878.234 3.24172 1.25729 0
M  V30 9482 H 877.557 3.93052 0.731426 0
M  V30 9483 H 878.997 3.85404 1.76747 0
M  V30 9484 C 877.456 2.4651 2.2964 0
M  V30 9485 O 877.986 2.19742 3.36268 0
M  V30 9486 N 876.192 2.07817 2.03127 0
M  V30 9487 H 875.739 2.29786 1.1643 0
M  V30 9488 H 875.697 1.56168 2.72872 0
M  V30 9489 N 879.47 0.276058 1.55163 0
M  V30 9490 C 880.695 -0.346648 2.04483 0
M  V30 9491 C 881.12 -1.48613 1.15308 0
M  V30 9492 O 880.478 -1.80663 0.151875 0
M  V30 9493 C 880.526 -0.804268 3.51517 0
M  V30 9494 O 879.63 -1.91143 3.65429 0
M  V30 9495 H 878.971 -0.0715251 0.660136 0
M  V30 9496 H 881.501 0.410631 2.00437 0
M  V30 9497 H 881.511 -1.09977 3.92898 0
M  V30 9498 H 880.186 0.0294123 4.1589 0
M  V30 9499 H 878.763 -1.61839 3.3595 0
M  V30 9500 N 880.948 -1.576 0.00335426 0
M  V30 9501 C 881.878 -2.11668 -0.985839 0
M  V30 9502 C 882.859 -1.02661 -1.35627 0
M  V30 9503 O 884.044 -1.30361 -1.43943 0
M  V30 9504 C 881.174 -2.62273 -2.27662 0
M  V30 9505 C 880.128 -3.75837 -2.0477 0
M  V30 9506 C 879.454 -4.12769 -3.39891 0
M  V30 9507 C 880.754 -5.02975 -1.40759 0
M  V30 9508 H 882.448 -2.9457 -0.535637 0
M  V30 9509 H 879.994 -1.41702 -0.256204 0
M  V30 9510 H 881.947 -2.98727 -2.97221 0
M  V30 9511 H 880.671 -1.76498 -2.74802 0
M  V30 9512 H 879.33 -3.39782 -1.37636 0
M  V30 9513 H 878.978 -3.24013 -3.8474 0
M  V30 9514 H 878.678 -4.89281 -3.25389 0
M  V30 9515 H 880.202 -4.51784 -4.1076 0
M  V30 9516 H 881.616 -5.37179 -2.00279 0
M  V30 9517 H 880.013 -5.84315 -1.36734 0
M  V30 9518 H 881.083 -4.83431 -0.377218 0
M  V30 9519 N 882.426 0.269451 -1.5528 0
M  V30 9520 C 883.356 1.33729 -1.91413 0
M  V30 9521 C 884.337 1.51348 -0.776391 0
M  V30 9522 O 885.522 1.64332 -1.03482 0
M  V30 9523 C 882.652 2.69618 -2.18914 0
M  V30 9524 C 881.606 2.66725 -3.34726 0
M  V30 9525 C 880.932 4.06199 -3.47716 0
M  V30 9526 C 882.232 2.25684 -4.71025 0
M  V30 9527 H 883.926 1.03736 -2.80854 0
M  V30 9528 H 881.472 0.497579 -1.3513 0
M  V30 9529 H 883.425 3.44436 -2.42779 0
M  V30 9530 H 882.149 3.01201 -1.26275 0
M  V30 9531 H 880.808 1.94365 -3.10834 0
M  V30 9532 H 880.456 4.3501 -2.52537 0
M  V30 9533 H 880.156 4.05157 -4.25583 0
M  V30 9534 H 881.68 4.8275 -3.73877 0
M  V30 9535 H 883.094 2.90225 -4.94411 0
M  V30 9536 H 881.491 2.35797 -5.51833 0
M  V30 9537 H 882.561 1.20819 -4.69607 0
M  V30 9538 N 883.904 1.48273 0.534124 0
M  V30 9539 C 885.153 1.55334 1.28663 0
M  V30 9540 C 885.466 0.230345 1.94239 0
M  V30 9541 O 886.672 0.179161 2.70908 0
M  V30 9542 C 885.128 2.73927 2.33435 0
M  V30 9543 C 884.736 4.12852 1.73947 0
M  V30 9544 C 886.48 2.90298 3.09722 0
M  V30 9545 C 884.387 5.22711 2.76636 0
M  V30 9546 H 883.317 0.578262 0.483869 0
M  V30 9547 H 885.968 1.74598 0.564602 0
M  V30 9548 H 884.35 2.48089 3.08655 0
M  V30 9549 H 885.524 4.48691 1.04944 0
M  V30 9550 H 883.839 4.01562 1.10167 0
M  V30 9551 H 886.436 3.69542 3.86449 0
M  V30 9552 H 886.779 1.99598 3.6533 0
M  V30 9553 H 887.312 3.16017 2.41616 0
M  V30 9554 H 884.051 6.15362 2.25852 0
M  V30 9555 H 883.571 4.91364 3.43979 0
M  V30 9556 H 885.25 5.50648 3.39699 0
M  V30 9557 N 885.382 -0.782676 1.36792 0
M  V30 9558 C 886.345 -1.8772 1.31507 0
M  V30 9559 C 887.345 -1.59269 0.221349 0
M  V30 9560 O 888.535 -1.67555 0.476544 0
M  V30 9561 C 885.667 -3.24641 1.04025 0
M  V30 9562 H 886.86 -1.9382 2.28853 0
M  V30 9563 H 884.413 -0.981226 1.21662 0
M  V30 9564 H 885.148 -3.24221 0.0716439 0
M  V30 9565 H 884.933 -3.46681 1.8318 0
M  V30 9566 H 886.423 -4.04711 1.02949 0
M  V30 9567 N 886.86 -1.21182 -1.00761 0
M  V30 9568 C 888.271 -1.02652 -1.55947 0
M  V30 9569 C 888.622 0.414466 -1.91772 0
M  V30 9570 O 887.747 1.29727 -1.73204 0
M  V30 9571 C 888.342 -1.85713 -2.83366 0
M  V30 9572 C 886.901 -1.71523 -3.35048 0
M  V30 9573 C 886.048 -1.83087 -2.08265 0
M  V30 9574 H 888.999 -1.35242 -0.830379 0
M  V30 9575 H 889.02 -1.36583 -3.55141 0
M  V30 9576 H 888.532 -2.90584 -2.5726 0
M  V30 9577 H 886.633 -0.693257 -3.66094 0
M  V30 9578 H 886.746 -2.53333 -4.06644 0
M  V30 9579 H 885.11 -1.26367 -2.21141 0
M  V30 9580 H 885.893 -2.8946 -1.84575 0
M  V30 9581 N 888.338 1.20213 -1.01915 0
M  V30 9582 C 889.271 2.2181 -0.536243 0
M  V30 9583 C 890.249 1.57144 0.417689 0
M  V30 9584 O 891.433 1.85461 0.337088 0
M  V30 9585 C 888.56 3.37989 0.219303 0
M  V30 9586 C 887.606 4.2097 -0.684571 0
M  V30 9587 S 888.439 4.90216 -2.15519 0
M  V30 9588 C 889.595 6.09814 -1.40988 0
M  V30 9589 H 889.828 2.62429 -1.39709 0
M  V30 9590 H 887.361 1.30305 -0.828254 0
M  V30 9591 H 889.319 4.05335 0.649112 0
M  V30 9592 H 887.98 2.95825 1.05575 0
M  V30 9593 H 887.173 5.03897 -0.101833 0
M  V30 9594 H 886.775 3.58892 -1.05227 0
M  V30 9595 H 889.067 6.73964 -0.691243 0
M  V30 9596 H 890.01 6.72552 -2.21539 0
M  V30 9597 H 890.418 5.5709 -0.911645 0
M  V30 9598 N 889.816 0.795718 1.36037 0
M  V30 9599 C 891.227 0.433379 1.816 0
M  V30 9600 C 891.578 -1.04341 1.66155 0
M  V30 9601 O 890.703 -1.81004 1.18603 0
M  V30 9602 C 891.298 0.77985 3.29703 0
M  V30 9603 C 889.857 0.470256 3.73451 0
M  V30 9604 C 889.004 1.01119 2.58206 0
M  V30 9605 H 891.955 0.988317 1.24169 0
M  V30 9606 H 891.976 0.0732898 3.80429 0
M  V30 9607 H 891.488 1.85473 3.40913 0
M  V30 9608 H 889.589 -0.596332 3.67797 0
M  V30 9609 H 889.702 0.995276 4.68648 0
M  V30 9610 H 888.066 0.434077 2.50974 0
M  V30 9611 H 888.849 2.09196 2.72198 0
M  V30 9612 N 891.294 -1.47756 0.548274 0
M  V30 9613 C 892.522 -2.06884 0.0254873 0
M  V30 9614 C 892.937 -1.40225 -1.26422 0
M  V30 9615 O 892.294 -0.495776 -1.75637 0
M  V30 9616 C 892.345 -3.61036 -0.183134 0
M  V30 9617 O 892.066 -4.25195 1.05549 0
M  V30 9618 C 893.567 -4.37008 -0.744222 0
M  V30 9619 H 890.787 -0.669697 0.041789 0
M  V30 9620 H 893.331 -1.89888 0.759138 0
M  V30 9621 H 891.486 -3.77576 -0.866886 0
M  V30 9622 H 891.9 -5.17606 0.847629 0
M  V30 9623 H 893.374 -5.45579 -0.839529 0
M  V30 9624 H 893.851 -4.0268 -1.75344 0
M  V30 9625 H 894.457 -4.25191 -0.0964542 0
M  V30 9626 N 892.772 -0.284283 -1.55015 0
M  V30 9627 C 893.735 0.586182 -2.21577 0
M  V30 9628 C 894.735 1.07427 -1.1965 0
M  V30 9629 O 895.925 0.972977 -1.44495 0
M  V30 9630 C 893.057 1.80973 -2.88897 0
M  V30 9631 H 894.25 0.00487253 -2.999 0
M  V30 9632 H 891.803 -0.0349696 -1.56261 0
M  V30 9633 H 892.538 2.43131 -2.14611 0
M  V30 9634 H 892.323 1.46757 -3.636 0
M  V30 9635 H 893.813 2.42853 -3.39724 0
M  V30 9636 N 894.251 1.57596 -0.0117121 0
M  V30 9637 C 895.476 1.95764 0.684938 0
M  V30 9638 C 895.901 0.887285 1.65858 0
M  V30 9639 O 895.259 -0.153508 1.80649 0
M  V30 9640 C 895.307 3.33031 1.38285 0
M  V30 9641 O 894.411 3.28163 2.49765 0
M  V30 9642 H 893.752 0.638767 0.181309 0
M  V30 9643 H 896.282 2.04486 -0.0683883 0
M  V30 9644 H 896.292 3.68866 1.74362 0
M  V30 9645 H 894.967 4.10483 0.669043 0
M  V30 9646 H 893.544 3.04021 2.15929 0
M  V30 9647 N 895.729 -0.261212 1.5542 0
M  V30 9648 C 896.957 -1.00916 1.8062 0
M  V30 9649 C 897.372 -1.79494 0.585444 0
M  V30 9650 O 896.729 -1.76974 -0.445702 0
M  V30 9651 C 896.78 -1.95841 3.03856 0
M  V30 9652 O 896.501 -1.20445 4.21218 0
M  V30 9653 C 898.002 -2.82352 3.41749 0
M  V30 9654 H 895.222 -0.297596 0.601397 0
M  V30 9655 H 897.766 -0.288427 2.02456 0
M  V30 9656 H 895.921 -2.63361 2.84112 0
M  V30 9657 H 896.335 -1.84528 4.90968 0
M  V30 9658 H 897.809 -3.44733 4.31118 0
M  V30 9659 H 898.286 -3.5273 2.61683 0
M  V30 9660 H 898.892 -2.20306 3.63793 0
M  V30 9661 N 897.207 -1.48554 -0.526253 0
M  V30 9662 C 898.17 -1.62868 -1.61266 0
M  V30 9663 C 899.17 -0.501762 -1.52771 0
M  V30 9664 O 900.36 -0.76764 -1.56374 0
M  V30 9665 C 897.492 -1.60238 -3.00893 0
M  V30 9666 H 898.685 -2.59742 -1.49913 0
M  V30 9667 H 896.238 -1.37207 -0.748595 0
M  V30 9668 H 896.973 -0.648545 -3.17749 0
M  V30 9669 H 896.758 -2.42054 -3.08468 0
M  V30 9670 H 898.248 -1.73455 -3.79872 0
M  V30 9671 N 898.685 0.775411 -1.37205 0
M  V30 9672 C 899.617 1.89761 -1.28544 0
M  V30 9673 C 900.63 1.61542 -0.201996 0
M  V30 9674 O 901.819 1.72528 -0.457848 0
M  V30 9675 C 898.919 3.24904 -0.963885 0
M  V30 9676 C 898.092 3.80796 -2.15205 0
M  V30 9677 C 897.151 4.94407 -1.80135 0
M  V30 9678 O 896.177 5.10185 -2.52388 0
M  V30 9679 N 897.379 5.75722 -0.743298 0
M  V30 9680 H 900.144 1.97708 -2.25237 0
M  V30 9681 H 897.705 0.954348 -1.30782 0
M  V30 9682 H 899.697 3.9842 -0.710182 0
M  V30 9683 H 898.267 3.12483 -0.085632 0
M  V30 9684 H 897.487 2.99101 -2.56773 0
M  V30 9685 H 898.775 4.1487 -2.94552 0
M  V30 9686 H 898.173 5.65518 -0.143655 0
M  V30 9687 H 896.73 6.4948 -0.549446 0
M  V30 9688 N 900.163 1.21714 1.00117 0
M  V30 9689 C 901.412 1.03087 1.73367 0
M  V30 9690 C 901.725 -0.435532 1.90689 0
M  V30 9691 O 902.931 -0.741291 2.61184 0
M  V30 9692 C 901.387 1.79593 3.11888 0
M  V30 9693 C 900.995 3.30428 3.02525 0
M  V30 9694 C 902.739 1.69386 3.89241 0
M  V30 9695 C 900.646 3.99408 4.3615 0
M  V30 9696 H 899.576 0.382117 0.650002 0
M  V30 9697 H 902.227 1.45486 1.11831 0
M  V30 9698 H 900.609 1.29988 3.74058 0
M  V30 9699 H 901.783 3.87364 2.49571 0
M  V30 9700 H 900.098 3.4122 2.38659 0
M  V30 9701 H 902.695 2.18251 4.8813 0
M  V30 9702 H 903.038 0.652773 4.1115 0
M  V30 9703 H 903.571 2.16489 3.33733 0
M  V30 9704 H 900.31 5.03735 4.19442 0
M  V30 9705 H 899.83 3.47261 4.8905 0
M  V30 9706 H 901.509 4.04537 5.04934 0
M  V30 9707 N 901.641 -1.19671 1.02551 0
M  V30 9708 C 902.571 -2.25009 0.623965 0
M  V30 9709 C 903.552 -1.66129 -0.36538 0
M  V30 9710 O 904.737 -1.92599 -0.248842 0
M  V30 9711 C 901.867 -3.47287 -0.0294869 0
M  V30 9712 C 900.821 -4.18818 0.881781 0
M  V30 9713 C 900.147 -5.34618 0.0936189 0
M  V30 9714 C 901.447 -4.73986 2.19396 0
M  V30 9715 H 903.141 -2.58851 1.50454 0
M  V30 9716 H 900.687 -1.24425 0.724872 0
M  V30 9717 H 902.64 -4.20168 -0.322016 0
M  V30 9718 H 901.364 -3.12635 -0.944838 0
M  V30 9719 H 900.023 -3.47815 1.15845 0
M  V30 9720 H 899.671 -4.9621 -0.823661 0
M  V30 9721 H 899.371 -5.83409 0.700568 0
M  V30 9722 H 900.895 -6.10297 -0.192249 0
M  V30 9723 H 902.309 -5.38639 1.96319 0
M  V30 9724 H 900.706 -5.3325 2.75254 0
M  V30 9725 H 901.776 -3.92238 2.85092 0
M  V30 9726 N 903.119 -0.802921 -1.35613 0
M  V30 9727 C 904.367 -0.380822 -1.9848 0
M  V30 9728 C 904.688 1.05464 -1.6402 0
M  V30 9729 O 903.958 1.72908 -0.920854 0
M  V30 9730 H 902.538 -0.137824 -0.734176 0
M  V30 9731 H 905.2 -1.02795 -1.65587 0
M  V30 9732 H 904.296 -0.483565 -3.08331 0
M  V30 9733 N 904.597 1.47463 -0.556102 0
M  V30 9734 C 905.545 2.31692 0.205299 0
M  V30 9735 C 906.539 1.42857 0.910394 0
M  V30 9736 O 907.745 1.59628 0.831806 0
M  V30 9737 H 904.12 0.747172 0.0850775 0
M  V30 9738 H 906.091 2.93758 -0.524305 0
M  V30 9739 C 904.84 3.25487 1.22283 0
M  V30 9740 H 904.163 3.93806 0.689697 0
M  V30 9741 H 905.603 3.87257 1.7265 0
M  V30 9742 C 904.062 2.48931 2.27013 0
M  V30 9743 O 904.592 2.23296 3.33919 0
M  V30 9744 N 902.798 2.0996 2.00911 0
M  V30 9745 H 902.345 2.31008 1.13986 0
M  V30 9746 H 902.303 1.59053 2.712 0
M  V30 9747 N 906.075 0.2925 1.54862 0
M  V30 9748 C 907.023 -0.603186 2.24643 0
M  V30 9749 C 908.017 -1.1439 1.24946 0
M  V30 9750 O 909.223 -1.09552 1.42823 0
M  V30 9751 H 905.598 -0.213105 0.721173 0
M  V30 9752 H 907.569 0.00799278 2.98399 0
M  V30 9753 C 906.318 -1.76769 2.99413 0
M  V30 9754 H 905.641 -1.36084 3.75927 0
M  V30 9755 H 907.081 -2.37066 3.51533 0
M  V30 9756 C 905.54 -2.66669 2.05886 0
M  V30 9757 O 906.07 -3.67525 1.62136 0
M  V30 9758 N 904.276 -2.34216 1.7202 0
M  V30 9759 H 903.823 -1.52246 2.07795 0
M  V30 9760 H 903.781 -2.94635 1.09717 0
M  V30 9761 N 907.553 -1.57587 0.0200696 0
M  V30 9762 C 908.463 -2.13119 -0.980676 0
M  V30 9763 C 909.479 -1.08124 -1.36328 0
M  V30 9764 O 910.655 -1.40134 -1.44653 0
M  V30 9765 C 907.72 -2.63991 -2.24743 0
M  V30 9766 C 906.781 -3.83667 -1.9261 0
M  V30 9767 C 906.014 -4.32103 -3.13246 0
M  V30 9768 O 906.237 -3.79758 -4.25606 0
M  V30 9769 O 905.171 -5.24047 -2.96072 0
M  V30 9770 H 908.997 -2.98887 -0.538528 0
M  V30 9771 H 906.582 -1.48055 -0.19999 0
M  V30 9772 H 908.464 -2.9682 -2.99125 0
M  V30 9773 H 907.139 -1.81311 -2.68157 0
M  V30 9774 H 906.046 -3.55778 -1.15641 0
M  V30 9775 H 907.379 -4.67482 -1.54019 0
M  V30 9776 N 909.032 0.252966 -1.55557 0
M  V30 9777 C 910.257 1.0038 -1.8149 0
M  V30 9778 C 910.682 1.78397 -0.596318 0
M  V30 9779 O 910.04 1.7551 0.454535 0
M  V30 9780 C 910.088 1.9222 -3.05096 0
M  V30 9781 O 909.192 3.01302 -2.81587 0
M  V30 9782 H 908.533 0.285949 -0.599274 0
M  V30 9783 H 911.063 0.275795 -2.02733 0
M  V30 9784 H 911.073 2.338 -3.34368 0
M  V30 9785 H 909.748 1.34852 -3.93431 0
M  V30 9786 H 908.325 2.63894 -2.63466 0
M  V30 9787 N 910.51 1.48831 0.518367 0
M  V30 9788 C 911.759 1.5669 1.27008 0
M  V30 9789 C 912.072 0.250934 1.93984 0
M  V30 9790 O 913.278 0.207884 2.70703 0
M  V30 9791 C 911.734 2.76387 2.30517 0
M  V30 9792 C 911.342 4.14673 1.69559 0
M  V30 9793 C 913.086 2.93566 3.06625 0
M  V30 9794 C 910.993 5.25616 2.71076 0
M  V30 9795 H 909.923 0.583362 0.477708 0
M  V30 9796 H 912.574 1.75187 0.546052 0
M  V30 9797 H 910.956 2.51348 3.06006 0
M  V30 9798 H 912.13 4.49779 1.00179 0
M  V30 9799 H 910.445 4.02708 1.05902 0
M  V30 9800 H 913.042 3.7362 3.82508 0
M  V30 9801 H 913.385 2.03462 3.63193 0
M  V30 9802 H 913.918 3.18562 2.38251 0
M  V30 9803 H 910.657 6.17723 2.19313 0
M  V30 9804 H 910.177 4.94985 3.38748 0
M  V30 9805 H 911.856 5.5422 3.3384 0
M  V30 9806 N 911.988 -0.768124 1.37614 0
M  V30 9807 C 912.898 -1.91249 1.35871 0
M  V30 9808 C 913.914 -1.7208 0.257786 0
M  V30 9809 O 915.09 -1.95253 0.493782 0
M  V30 9810 C 912.155 -3.26423 1.16829 0
M  V30 9811 C 911.216 -3.5822 2.36594 0
M  V30 9812 C 910.449 -4.86945 2.1845 0
M  V30 9813 O 910.672 -5.58258 1.17064 0
M  V30 9814 O 909.606 -5.17888 3.06718 0
M  V30 9815 H 913.432 -1.95671 2.32264 0
M  V30 9816 H 911.017 -0.911382 1.18382 0
M  V30 9817 H 912.899 -4.07269 1.08212 0
M  V30 9818 H 911.574 -3.22845 0.235123 0
M  V30 9819 H 910.481 -2.77594 2.50783 0
M  V30 9820 H 911.814 -3.66545 3.2849 0
M  V30 9821 N 913.466 -1.22244 -0.994698 0
M  V30 9822 C 914.877 -1.043 -1.5485 0
M  V30 9823 C 915.228 0.394102 -1.92201 0
M  V30 9824 O 914.353 1.27883 -1.74571 0
M  V30 9825 C 914.948 -1.88708 -2.8138 0
M  V30 9826 C 913.507 -1.75067 -3.3321 0
M  V30 9827 C 912.654 -1.85286 -2.06312 0
M  V30 9828 H 915.605 -1.36115 -0.815988 0
M  V30 9829 H 915.626 -1.40342 -3.53673 0
M  V30 9830 H 915.138 -2.93296 -2.54164 0
M  V30 9831 H 913.239 -0.732047 -3.65338 0
M  V30 9832 H 913.352 -2.57632 -4.03934 0
M  V30 9833 H 911.716 -1.28706 -2.19788 0
M  V30 9834 H 912.499 -2.91401 -1.81494 0
M  V30 9835 N 914.944 1.19125 -1.03184 0
M  V30 9836 C 916.174 1.92558 -0.748663 0
M  V30 9837 C 916.582 1.759 0.696837 0
M  V30 9838 O 915.925 1.08019 1.48585 0
M  V30 9839 C 915.987 3.4461 -1.02391 0
M  V30 9840 C 915.651 3.85041 -2.46155 0
M  V30 9841 C 916.648 3.89554 -3.44302 0
M  V30 9842 C 914.333 4.16594 -2.80633 0
M  V30 9843 C 916.327 4.25055 -4.74981 0
M  V30 9844 C 914.014 4.51767 -4.11521 0
M  V30 9845 C 915.012 4.55972 -5.08506 0
M  V30 9846 O 914.7 4.9033 -6.37049 0
M  V30 9847 H 914.432 0.618397 -0.273059 0
M  V30 9848 H 916.986 1.52122 -1.38015 0
M  V30 9849 H 915.216 3.85244 -0.335284 0
M  V30 9850 H 916.905 3.99283 -0.729927 0
M  V30 9851 H 917.671 3.65324 -3.19003 0
M  V30 9852 H 913.55 4.12503 -2.05821 0
M  V30 9853 H 917.094 4.28252 -5.50678 0
M  V30 9854 H 912.991 4.75455 -4.36592 0
M  V30 9855 H 913.759 5.08266 -6.41566 0
M  V30 9856 N 916.422 0.810101 1.35185 0
M  V30 9857 C 917.65 0.404696 2.02903 0
M  V30 9858 C 918.065 -0.985434 1.61042 0
M  V30 9859 O 917.422 -1.63557 0.809658 0
M  V30 9860 C 917.473 0.482493 3.58266 0
M  V30 9861 O 917.194 1.81782 3.98606 0
M  V30 9862 C 918.695 0.070345 4.43244 0
M  V30 9863 H 915.915 0.163972 0.650657 0
M  V30 9864 H 918.459 1.0947 1.72733 0
M  V30 9865 H 916.614 -0.159296 3.87072 0
M  V30 9866 H 917.028 1.78306 4.93262 0
M  V30 9867 H 918.502 0.175888 5.5172 0
M  V30 9868 H 918.979 -0.984724 4.28018 0
M  V30 9869 H 919.585 0.685427 4.1974 0
M  V30 9870 N 917.9 -1.47166 0.563914 0
M  V30 9871 C 919.125 -2.0735 0.0454698 0
M  V30 9872 C 919.55 -1.41281 -1.24182 0
M  V30 9873 O 918.908 -0.490084 -1.7455 0
M  V30 9874 C 918.956 -3.60378 -0.126453 0
M  V30 9875 O 918.06 -3.94934 -1.18746 0
M  V30 9876 H 917.401 -0.661773 0.0543377 0
M  V30 9877 H 919.931 -1.89086 0.781508 0
M  V30 9878 H 919.941 -4.06593 -0.338554 0
M  V30 9879 H 918.616 -4.07862 0.81373 0
M  V30 9880 H 917.193 -3.60455 -0.955318 0
M  V30 9881 N 919.378 -0.300708 -1.54705 0
M  V30 9882 C 920.326 0.591264 -2.2496 0
M  V30 9883 C 921.32 1.13725 -1.2555 0
M  V30 9884 O 922.526 1.08793 -1.43402 0
M  V30 9885 H 918.901 0.209278 -0.722293 0
M  V30 9886 H 920.872 -0.0238175 -2.9839 0
M  V30 9887 C 919.621 1.75179 -3.00346 0
M  V30 9888 H 918.944 1.34089 -3.76643 0
M  V30 9889 H 920.384 2.35198 -3.52786 0
M  V30 9890 C 918.843 2.65574 -2.07298 0
M  V30 9891 O 919.373 3.6666 -1.64083 0
M  V30 9892 N 917.579 2.33301 -1.7326 0
M  V30 9893 H 917.126 1.51142 -2.08599 0
M  V30 9894 H 917.084 2.94049 -1.11278 0
M  V30 9895 N 920.856 1.57574 -0.0284266 0
M  V30 9896 C 922.105 1.9095 0.649704 0
M  V30 9897 C 922.418 0.906421 1.7333 0
M  V30 9898 O 923.624 1.1314 2.46803 0
M  V30 9899 C 922.08 3.39061 1.20687 0
M  V30 9900 C 921.688 4.47726 0.156597 0
M  V30 9901 C 923.432 3.81505 1.86156 0
M  V30 9902 C 921.339 5.86935 0.725365 0
M  V30 9903 H 920.269 0.712589 0.24644 0
M  V30 9904 H 922.92 1.83261 -0.0936143 0
M  V30 9905 H 921.302 3.41679 2.00178 0
M  V30 9906 H 922.476 4.56667 -0.6158 0
M  V30 9907 H 920.791 4.14481 -0.399288 0
M  V30 9908 H 923.388 4.82865 2.29665 0
M  V30 9909 H 923.731 3.16529 2.70398 0
M  V30 9910 H 924.264 3.81307 1.13356 0
M  V30 9911 H 921.003 6.55453 -0.0789081 0
M  V30 9912 H 920.523 5.81602 1.46627 0
M  V30 9913 H 922.202 6.35483 1.21532 0
M  V30 9914 N 922.334 -0.244713 1.55689 0
M  V30 9915 C 923.564 -0.988508 1.81417 0
M  V30 9916 C 923.972 -1.79362 0.602143 0
M  V30 9917 O 923.315 -1.78386 -0.438639 0
M  V30 9918 C 923.377 -1.97287 3.0053 0
M  V30 9919 C 923.041 -1.35448 4.36466 0
M  V30 9920 C 924.038 -0.755874 5.14376 0
M  V30 9921 C 921.723 -1.37319 4.83165 0
M  V30 9922 C 923.717 -0.184218 6.37134 0
M  V30 9923 C 921.404 -0.797681 6.05871 0
M  V30 9924 C 922.402 -0.204224 6.82695 0
M  V30 9925 O 922.09 0.362392 8.03083 0
M  V30 9926 H 921.822 -0.296412 0.607549 0
M  V30 9927 H 924.376 -0.272185 2.03589 0
M  V30 9928 H 922.606 -2.72756 2.74119 0
M  V30 9929 H 924.295 -2.58028 3.13331 0
M  V30 9930 H 925.061 -0.733912 4.79415 0
M  V30 9931 H 920.94 -1.8245 4.23359 0
M  V30 9932 H 924.484 0.279624 6.97039 0
M  V30 9933 H 920.381 -0.816978 6.40309 0
M  V30 9934 H 921.149 0.254467 8.18104 0
M  V30 9935 N 923.813 -1.49104 -0.510467 0
M  V30 9936 C 925.041 -1.61806 -1.28944 0
M  V30 9937 C 925.456 -0.285774 -1.86625 0
M  V30 9938 O 924.813 0.727551 -1.67371 0
M  V30 9939 C 924.864 -2.67966 -2.42645 0
M  V30 9940 O 924.585 -3.96026 -1.87337 0
M  V30 9941 C 926.086 -2.91286 -3.34166 0
M  V30 9942 H 923.306 -0.544999 -0.391429 0
M  V30 9943 H 925.85 -1.95071 -0.613805 0
M  V30 9944 H 924.005 -2.37505 -3.06056 0
M  V30 9945 H 924.419 -4.54427 -2.61909 0
M  V30 9946 H 925.893 -3.69323 -4.1025 0
M  V30 9947 H 926.37 -2.00842 -3.90588 0
M  V30 9948 H 926.976 -3.23127 -2.76531 0
M  V30 9949 N 925.291 0.760815 -1.38019 0
M  V30 9950 C 926.707 1.06289 -1.19058 0
M  V30 9951 C 926.907 2.01471 -0.0342603 0
M  V30 9952 O 925.963 2.44713 0.62224 0
M  V30 9953 C 927.276 1.6499 -2.51394 0
M  V30 9954 C 928.824 1.77196 -2.58013 0
M  V30 9955 C 929.299 2.3931 -3.90506 0
M  V30 9956 N 930.79 2.46749 -3.92007 0
M  V30 9957 C 931.525 2.95687 -4.91281 0
M  V30 9958 N 931.021 3.44715 -6.00952 0
M  V30 9959 N 932.814 2.94661 -4.78677 0
M  V30 9960 H 924.965 0.129045 -2.12008 0
M  V30 9961 H 927.228 0.119878 -0.94039 0
M  V30 9962 H 926.934 1.0252 -3.36426 0
M  V30 9963 H 926.808 2.64146 -2.6927 0
M  V30 9964 H 929.195 2.38796 -1.7338 0
M  V30 9965 H 929.276 0.767645 -2.4401 0
M  V30 9966 H 928.92 1.78346 -4.75558 0
M  V30 9967 H 928.85 3.40369 -4.01817 0
M  V30 9968 H 931.341 2.12064 -3.12789 0
M  V30 9969 H 931.654 3.80492 -6.72641 0
M  V30 9970 H 929.999 3.42791 -6.04582 0
M  V30 9971 H 933.19 2.55665 -3.92113 0
M  V30 9972 H 933.363 3.32489 -5.56197 0
M  V30 9973 N 926.769 1.22769 0.988202 0
M  V30 9974 C 928.185 0.988665 1.2529 0
M  V30 9975 C 928.385 -0.314938 1.99024 0
M  V30 9976 O 927.441 -1.03637 2.30251 0
M  V30 9977 C 928.754 2.19046 2.06009 0
M  V30 9978 C 930.302 2.23452 2.19176 0
M  V30 9979 C 930.777 3.43196 3.03283 0
M  V30 9980 N 932.268 3.43387 3.10869 0
M  V30 9981 C 933.003 4.32693 3.7625 0
M  V30 9982 N 932.499 5.32224 4.43519 0
M  V30 9983 N 934.292 4.20457 3.73058 0
M  V30 9984 H 926.443 2.06575 0.494014 0
M  V30 9985 H 928.706 0.905452 0.28082 0
M  V30 9986 H 928.412 3.13607 1.59197 0
M  V30 9987 H 928.286 2.19492 3.06763 0
M  V30 9988 H 930.673 1.29436 2.65199 0
M  V30 9989 H 930.754 2.27042 1.17836 0
M  V30 9990 H 930.398 4.37515 2.57959 0
M  V30 9991 H 930.328 3.36847 4.04774 0
M  V30 9992 H 932.819 2.71368 2.62998 0
M  V30 9993 H 933.132 5.9664 4.91163 0
M  V30 9994 H 931.477 5.36133 4.42252 0
M  V30 9995 H 934.668 3.41949 3.19669 0
M  V30 9996 H 934.841 4.90261 4.23731 0
M  V30 9997 N 928.247 -1.18576 1.03814 0
M  V30 9998 C 929.493 -1.88773 0.741132 0
M  V30 9999 C 929.826 -1.79993 -0.729127 0
M  V30 10000 O 929.101 -1.19851 -1.53186 0
M  V30 10001 C 929.384 -3.39352 1.20468 0
M  V30 10002 C 929.237 -3.56955 2.73684 0
M  V30 10003 C 930.556 -4.32901 0.792741 0
M  V30 10004 H 927.675 -0.685482 0.270708 0
M  V30 10005 H 930.317 -1.39523 1.2897 0
M  V30 10006 H 928.467 -3.81427 0.737974 0
M  V30 10007 H 930.139 -3.2399 3.28372 0
M  V30 10008 H 928.382 -2.99696 3.13632 0
M  V30 10009 H 929.053 -4.62598 3.01176 0
M  V30 10010 H 931.529 -3.98592 1.1943 0
M  V30 10011 H 930.405 -5.36828 1.14486 0
M  V30 10012 H 930.666 -4.41052 -0.304295 0
M  V30 10013 N 929.725 -0.817259 -1.34754 0
M  V30 10014 C 930.655 -0.249769 -2.3216 0
M  V30 10015 C 931.636 0.630663 -1.57977 0
M  V30 10016 O 932.821 0.558719 -1.85989 0
M  V30 10017 C 929.951 0.593825 -3.42186 0
M  V30 10018 C 928.905 -0.188997 -4.27583 0
M  V30 10019 C 928.231 0.776979 -5.29025 0
M  V30 10020 C 929.531 -1.39401 -5.03354 0
M  V30 10021 H 931.225 -1.06359 -2.79872 0
M  V30 10022 H 928.771 -0.512894 -1.34556 0
M  V30 10023 H 930.724 1.00097 -4.09339 0
M  V30 10024 H 929.448 1.44064 -2.93109 0
M  V30 10025 H 928.107 -0.577445 -3.62024 0
M  V30 10026 H 927.755 1.61959 -4.76212 0
M  V30 10027 H 927.455 0.257448 -5.87036 0
M  V30 10028 H 928.979 1.18211 -5.99048 0
M  V30 10029 H 930.393 -1.06117 -5.63393 0
M  V30 10030 H 928.79 -1.84878 -5.70912 0
M  V30 10031 H 929.86 -2.17515 -4.33377 0
M  V30 10032 N 931.203 1.46865 -0.571711 0
M  V30 10033 C 932.428 2.07323 -0.0564655 0
M  V30 10034 C 932.853 1.41938 1.23431 0
M  V30 10035 O 932.211 0.499334 1.74288 0
M  V30 10036 C 932.259 3.6044 0.107339 0
M  V30 10037 O 931.363 3.95558 1.1665 0
M  V30 10038 H 930.704 0.661475 -0.0578465 0
M  V30 10039 H 933.234 1.88669 -0.791524 0
M  V30 10040 H 933.244 4.06767 0.316987 0
M  V30 10041 H 931.919 4.07425 -0.835348 0
M  V30 10042 H 930.496 3.60957 0.936189 0
M  V30 10043 N 932.681 0.308908 1.54543 0
M  V30 10044 C 933.929 -0.297447 1.99899 0
M  V30 10045 C 934.25 -1.53799 1.19878 0
M  V30 10046 O 933.52 -1.93639 0.29678 0
M  V30 10047 H 932.1 -0.112897 0.738419 0
M  V30 10048 H 934.762 0.422067 1.90275 0
M  V30 10049 H 933.858 -0.564016 3.06961 0
M  V30 10050 N 934.159 -1.57557 0.0367827 0
M  V30 10051 C 935.069 -2.14148 -0.958017 0
M  V30 10052 C 936.085 -1.09564 -1.35173 0
M  V30 10053 O 937.261 -1.4166 -1.43158 0
M  V30 10054 C 934.326 -2.6636 -2.21931 0
M  V30 10055 C 933.387 -3.85688 -1.8853 0
M  V30 10056 C 932.62 -4.35401 -3.08645 0
M  V30 10057 O 932.843 -3.8425 -4.21554 0
M  V30 10058 O 931.777 -5.27158 -2.90497 0
M  V30 10059 H 935.603 -2.99442 -0.506797 0
M  V30 10060 H 933.188 -1.48259 -0.184275 0
M  V30 10061 H 935.07 -2.99976 -2.9596 0
M  V30 10062 H 933.745 -1.84145 -2.66219 0
M  V30 10063 H 932.652 -3.56985 -1.11861 0
M  V30 10064 H 933.985 -4.69089 -1.49052 0
M  V30 10065 N 935.637 0.236453 -1.55816 0
M  V30 10066 C 936.884 0.963012 -1.78136 0
M  V30 10067 C 937.212 1.84918 -0.602952 0
M  V30 10068 O 936.467 1.91285 0.413325 0
M  V30 10069 C 936.766 1.84549 -3.06066 0
M  V30 10070 C 936.432 1.11381 -4.36927 0
M  V30 10071 C 935.094 0.911635 -4.72486 0
M  V30 10072 C 937.446 0.596 -5.17781 0
M  V30 10073 C 934.774 0.179515 -5.86425 0
M  V30 10074 C 937.126 -0.122702 -6.32481 0
M  V30 10075 C 935.79 -0.336263 -6.66652 0
M  V30 10076 H 935.06 0.352391 -0.651845 0
M  V30 10077 H 937.707 0.232295 -1.90086 0
M  V30 10078 H 936.012 2.6436 -2.89173 0
M  V30 10079 H 937.709 2.40953 -3.20535 0
M  V30 10080 H 934.299 1.28134 -4.08998 0
M  V30 10081 H 938.483 0.73971 -4.90757 0
M  V30 10082 H 933.739 0.00368224 -6.114 0
M  V30 10083 H 937.913 -0.531516 -6.94369 0
M  V30 10084 H 935.54 -0.905507 -7.54788 0
M  V30 10085 N 937.115 1.49373 0.502552 0
M  V30 10086 C 938.047 1.62045 1.62093 0
M  V30 10087 C 939.06 0.503221 1.54827 0
M  V30 10088 O 940.249 0.775208 1.60788 0
M  V30 10089 C 937.349 1.55971 3.00876 0
M  V30 10090 C 936.522 2.832 3.33341 0
M  V30 10091 C 935.581 2.702 4.51529 0
M  V30 10092 O 934.607 3.44132 4.53389 0
M  V30 10093 N 935.809 1.81642 5.5135 0
M  V30 10094 H 938.574 2.58501 1.51649 0
M  V30 10095 H 936.135 1.46442 0.690396 0
M  V30 10096 H 938.127 1.4493 3.77859 0
M  V30 10097 H 936.697 0.673795 3.05252 0
M  V30 10098 H 935.917 3.08604 2.4527 0
M  V30 10099 H 937.205 3.67551 3.51829 0
M  V30 10100 H 936.603 1.20829 5.52645 0
M  V30 10101 H 935.16 1.76524 6.27441 0
M  V30 10102 N 938.594 -0.753485 1.38421 0
M  V30 10103 C 939.843 -1.50797 1.33952 0
M  V30 10104 C 940.156 -1.95482 -0.0678464 0
M  V30 10105 O 941.362 -2.7048 -0.235078 0
M  V30 10106 C 939.818 -2.72393 2.35224 0
M  V30 10107 C 939.426 -2.34733 3.81582 0
M  V30 10108 C 941.17 -3.50281 2.39798 0
M  V30 10109 C 939.077 -3.52939 4.7454 0
M  V30 10110 H 938.007 -0.566211 0.497916 0
M  V30 10111 H 940.658 -0.823659 1.63976 0
M  V30 10112 H 939.04 -3.42806 1.98243 0
M  V30 10113 H 940.214 -1.71985 4.27502 0
M  V30 10114 H 938.529 -1.69978 3.80127 0
M  V30 10115 H 941.126 -4.38172 3.06447 0
M  V30 10116 H 941.469 -3.91444 1.41695 0
M  V30 10117 H 942.002 -2.86881 2.75579 0
M  V30 10118 H 938.741 -3.16843 5.73839 0
M  V30 10119 H 938.261 -4.1473 4.33312 0
M  V30 10120 H 939.94 -4.19519 4.92557 0
M  V30 10121 N 940.072 -1.23292 -0.981677 0
M  V30 10122 C 941.318 -1.06582 -1.72535 0
M  V30 10123 C 941.651 0.396538 -1.90108 0
M  V30 10124 O 940.926 1.29363 -1.45243 0
M  V30 10125 C 941.209 -1.7904 -3.12437 0
M  V30 10126 C 941.062 -3.32941 -3.02441 0
M  V30 10127 C 942.381 -1.55185 -4.11832 0
M  V30 10128 H 939.5 -0.388585 -0.626236 0
M  V30 10129 H 942.142 -1.51779 -1.14293 0
M  V30 10130 H 940.292 -1.40619 -3.62158 0
M  V30 10131 H 941.964 -3.80875 -2.60254 0
M  V30 10132 H 940.207 -3.62039 -2.38977 0
M  V30 10133 H 940.878 -3.78827 -4.0149 0
M  V30 10134 H 943.354 -1.88581 -3.70913 0
M  V30 10135 H 942.23 -2.08362 -5.07815 0
M  V30 10136 H 942.491 -0.486925 -4.3941 0
M  V30 10137 N 941.55 1.18024 -1.04442 0
M  V30 10138 C 942.498 2.23834 -0.632557 0
M  V30 10139 C 943.492 1.65902 0.342488 0
M  V30 10140 O 944.698 1.78778 0.20937 0
M  V30 10141 H 941.073 0.728544 -0.186353 0
M  V30 10142 H 943.044 2.55876 -1.53526 0
M  V30 10143 C 941.793 3.47697 -0.0153661 0
M  V30 10144 H 941.116 3.92574 -0.756704 0
M  V30 10145 H 942.556 4.23345 0.235541 0
M  V30 10146 C 941.015 3.13416 1.23579 0
M  V30 10147 O 941.545 3.27499 2.3261 0
M  V30 10148 N 939.751 2.67708 1.13053 0
M  V30 10149 H 939.298 2.56449 0.243277 0
M  V30 10150 H 939.256 2.45143 1.96855 0
M  V30 10151 N 943.028 0.824394 1.34319 0
M  V30 10152 C 944.439 0.471802 1.8064 0
M  V30 10153 C 944.79 -1.00793 1.6833 0
M  V30 10154 O 943.915 -1.78447 1.22416 0
M  V30 10155 C 944.51 0.849609 3.27974 0
M  V30 10156 C 943.069 0.549365 3.72369 0
M  V30 10157 C 942.216 1.06573 2.56003 0
M  V30 10158 H 945.167 1.01443 1.22045 0
M  V30 10159 H 945.188 0.153968 3.80188 0
M  V30 10160 H 944.7 1.92663 3.36902 0
M  V30 10161 H 942.801 -0.518182 3.68979 0
M  V30 10162 H 942.914 1.09446 4.66432 0
M  V30 10163 H 941.278 0.487214 2.49997 0
M  V30 10164 H 942.061 2.14923 2.677 0
M  V30 10165 N 944.506 -1.46559 0.579492 0
M  V30 10166 C 945.456 -2.27316 -0.17645 0
M  V30 10167 C 946.44 -1.35681 -0.864835 0
M  V30 10168 O 947.632 -1.59879 -0.759462 0
M  V30 10169 C 944.761 -3.21957 -1.19157 0
M  V30 10170 C 943.847 -4.21077 -0.505459 0
M  V30 10171 N 944.238 -5.03908 0.437133 0
M  V30 10172 C 942.536 -4.39535 -0.75661 0
M  V30 10173 C 943.237 -5.75635 0.837819 0
M  V30 10174 N 942.213 -5.43276 0.187679 0
M  V30 10175 H 946.015 -2.88747 0.547932 0
M  V30 10176 H 943.529 -1.5737 0.401048 0
M  V30 10177 H 945.526 -3.78518 -1.74728 0
M  V30 10178 H 944.186 -2.62085 -1.9168 0
M  V30 10179 H 945.197 -5.11487 0.812488 0
M  V30 10180 H 941.874 -3.90815 -1.46867 0
M  V30 10181 H 943.264 -6.52235 1.61364 0
M  V30 10182 N 945.984 -0.3171 -1.54377 0
M  V30 10183 C 946.914 0.544623 -2.2706 0
M  V30 10184 C 947.895 1.12469 -1.27611 0
M  V30 10185 O 949.08 1.15103 -1.56413 0
M  V30 10186 C 946.21 1.70879 -3.02353 0
M  V30 10187 C 945.164 1.25833 -4.09084 0
M  V30 10188 C 944.49 2.50894 -4.72182 0
M  V30 10189 C 945.79 0.377876 -5.20931 0
M  V30 10190 H 947.484 -0.0616372 -2.99337 0
M  V30 10191 H 945.03 -0.0310848 -1.43966 0
M  V30 10192 H 946.983 2.31787 -3.51927 0
M  V30 10193 H 945.707 2.34155 -2.27682 0
M  V30 10194 H 944.366 0.672228 -3.60384 0
M  V30 10195 H 944.014 3.12518 -3.94134 0
M  V30 10196 H 943.714 2.21447 -5.44275 0
M  V30 10197 H 945.238 3.12575 -5.24528 0
M  V30 10198 H 946.652 0.893056 -5.66302 0
M  V30 10199 H 945.049 0.176474 -5.9984 0
M  V30 10200 H 946.119 -0.592943 -4.81261 0
M  V30 10201 N 947.462 1.57535 -0.0451378 0
M  V30 10202 C 948.392 2.14208 0.929372 0
M  V30 10203 C 949.373 1.06221 1.32858 0
M  V30 10204 O 950.558 1.34132 1.40436 0
M  V30 10205 C 947.688 2.68217 2.20629 0
M  V30 10206 C 946.642 3.81134 1.94734 0
M  V30 10207 C 945.968 4.21636 3.28828 0
M  V30 10208 C 947.268 5.06531 1.27374 0
M  V30 10209 H 948.962 2.95886 0.457348 0
M  V30 10210 H 946.508 1.42332 0.218544 0
M  V30 10211 H 948.461 3.06502 2.89196 0
M  V30 10212 H 947.185 1.83722 2.70026 0
M  V30 10213 H 945.844 3.43312 1.28579 0
M  V30 10214 H 945.492 3.34099 3.76014 0
M  V30 10215 H 945.192 4.97736 3.12302 0
M  V30 10216 H 946.716 4.62516 3.98637 0
M  V30 10217 H 948.13 5.423 1.85967 0
M  V30 10218 H 946.527 5.87735 1.21194 0
M  V30 10219 H 947.597 4.84261 0.248913 0
M  V30 10220 N 948.94 -0.228186 1.55939 0
M  V30 10221 C 949.887 -1.28274 1.91871 0
M  V30 10222 C 950.857 -1.46906 0.775103 0
M  V30 10223 O 952.042 -1.60583 1.03042 0
M  V30 10224 C 949.182 -2.62945 2.23504 0
M  V30 10225 C 948.295 -2.52166 3.50766 0
M  V30 10226 C 947.43 -3.79316 3.71878 0
M  V30 10227 C 946.469 -3.63231 4.92676 0
M  V30 10228 N 945.606 -4.82315 5.10212 0
M  V30 10229 H 950.446 -0.96931 2.81795 0
M  V30 10230 H 947.983 -0.467331 1.39479 0
M  V30 10231 H 949.941 -3.41359 2.39854 0
M  V30 10232 H 948.571 -2.92397 1.36762 0
M  V30 10233 H 947.623 -1.65221 3.42646 0
M  V30 10234 H 948.935 -2.36199 4.39331 0
M  V30 10235 H 948.089 -4.66173 3.88288 0
M  V30 10236 H 946.828 -3.982 2.81581 0
M  V30 10237 H 945.833 -2.74757 4.76223 0
M  V30 10238 H 947.058 -3.45823 5.84451 0
M  V30 10239 H 945.004 -5.01526 4.22856 0
M  V30 10240 H 944.921 -4.6905 5.92898 0
M  V30 10241 H 946.189 -5.70618 5.31051 0
M  V30 10242 N 950.418 -1.49637 -0.494624 0
M  V30 10243 C 951.695 -1.4995 -1.25596 0
M  V30 10244 C 952.075 -0.230805 -2.09834 0
M  V30 10245 O 951.423 0.786625 -2.14533 0
M  V30 10246 C 951.633 -2.78204 -2.10721 0
M  V30 10247 C 952.981 -3.27946 -2.69698 0
M  V30 10248 O 954.005 -2.79365 -2.20984 0
M  V30 10249 O 952.864 -4.12571 -3.58395 0
M  V30 10250 H 949.958 -0.60044 -0.568684 0
M  V30 10251 H 952.504 -1.61906 -0.508371 0
M  V30 10252 H 951.276 -3.62029 -1.48494 0
M  V30 10253 H 950.899 -2.69139 -2.92661 0
M  V30 10254 N 951.896 0.746133 -1.38819 0
M  V30 10255 C 952.826 1.87344 -1.39372 0
M  V30 10256 C 953.807 1.68123 -0.258583 0
M  V30 10257 O 954.992 1.88606 -0.462769 0
M  V30 10258 C 952.122 3.24962 -1.22543 0
M  V30 10259 C 951.076 3.58799 -2.33339 0
M  V30 10260 C 950.402 4.95235 -2.01609 0
M  V30 10261 C 951.702 3.62911 -3.75624 0
M  V30 10262 H 953.396 1.87138 -2.33709 0
M  V30 10263 H 950.942 0.898937 -1.12495 0
M  V30 10264 H 952.895 4.03488 -1.21554 0
M  V30 10265 H 951.619 3.25667 -0.246707 0
M  V30 10266 H 950.278 2.82596 -2.33527 0
M  V30 10267 H 949.926 4.92508 -1.02202 0
M  V30 10268 H 949.626 5.18843 -2.75819 0
M  V30 10269 H 951.15 5.76131 -2.02251 0
M  V30 10270 H 952.564 4.31535 -3.77426 0
M  V30 10271 H 950.961 3.98031 -4.491 0
M  V30 10272 H 952.031 2.62967 -4.07402 0
M  V30 10273 N 953.375 1.23811 0.975125 0
M  V30 10274 C 954.603 1.10019 1.75224 0
M  V30 10275 C 955.018 -0.34791 1.85567 0
M  V30 10276 O 954.375 -1.24043 1.33864 0
M  V30 10277 C 954.426 1.72572 3.1765 0
M  V30 10278 O 954.147 3.11719 3.07836 0
M  V30 10279 C 955.648 1.64292 4.11732 0
M  V30 10280 H 952.868 0.38476 0.549728 0
M  V30 10281 H 955.412 1.63768 1.22476 0
M  V30 10282 H 953.567 1.22843 3.67408 0
M  V30 10283 H 953.981 3.42152 3.97533 0
M  V30 10284 H 955.455 2.12754 5.09352 0
M  V30 10285 H 955.932 0.602722 4.35045 0
M  V30 10286 H 956.538 2.13411 3.6788 0
M  V30 10287 N 954.853 -1.17469 1.05066 0
M  V30 10288 C 955.763 -2.25089 0.661222 0
M  V30 10289 C 956.779 -1.71086 -0.31712 0
M  V30 10290 O 957.955 -2.00685 -0.169534 0
M  V30 10291 C 955.02 -3.46676 0.0406415 0
M  V30 10292 C 954.081 -4.15771 1.06927 0
M  V30 10293 C 953.314 -5.31553 0.478208 0
M  V30 10294 O 953.537 -5.6593 -0.712714 0
M  V30 10295 O 952.471 -5.89574 1.21185 0
M  V30 10296 H 956.297 -2.60685 1.5581 0
M  V30 10297 H 953.882 -1.24744 0.822147 0
M  V30 10298 H 955.764 -4.203 -0.304312 0
M  V30 10299 H 954.439 -3.1288 -0.829909 0
M  V30 10300 H 953.346 -3.44171 1.46619 0
M  V30 10301 H 954.679 -4.53591 1.91092 0
M  V30 10302 N 956.331 -0.831506 -1.3388 0
M  V30 10303 C 957.747 -0.518349 -1.50948 0
M  V30 10304 C 957.947 0.955807 -1.77388 0
M  V30 10305 O 957.003 1.73993 -1.82983 0
M  V30 10306 C 958.316 -1.38531 -2.66889 0
M  V30 10307 C 959.864 -1.38332 -2.80772 0
M  V30 10308 C 960.339 -2.23497 -3.99766 0
M  V30 10309 N 961.83 -2.21167 -4.06988 0
M  V30 10310 C 962.565 -2.83805 -4.98239 0
M  V30 10311 N 962.061 -3.55468 -5.94655 0
M  V30 10312 N 963.854 -2.73314 -4.91178 0
M  V30 10313 H 956.005 -1.78588 -1.14978 0
M  V30 10314 H 958.268 -0.761508 -0.564633 0
M  V30 10315 H 957.974 -2.43255 -2.54007 0
M  V30 10316 H 957.848 -1.05611 -3.62114 0
M  V30 10317 H 960.235 -0.343832 -2.9309 0
M  V30 10318 H 960.316 -1.75256 -1.86331 0
M  V30 10319 H 959.96 -3.27501 -3.88208 0
M  V30 10320 H 959.89 -1.83919 -4.93438 0
M  V30 10321 H 962.381 -1.69046 -3.37982 0
M  V30 10322 H 962.694 -4.00487 -6.60931 0
M  V30 10323 H 961.039 -3.59575 -5.94753 0
M  V30 10324 H 964.23 -2.16897 -4.14817 0
M  V30 10325 H 964.403 -3.22416 -5.62096 0
M  V30 10326 N 957.809 1.4625 -0.587256 0
M  V30 10327 C 959.057 2.01963 -0.0744273 0
M  V30 10328 C 959.378 1.46065 1.29189 0
M  V30 10329 O 958.648 0.647077 1.84905 0
M  V30 10330 H 957.228 0.746597 -0.0245236 0
M  V30 10331 H 959.89 1.79299 -0.764063 0
M  V30 10332 H 958.986 3.12099 -0.00884894 0
M  V30 10333 N 959.287 0.325282 1.54207 0
M  V30 10334 C 960.217 -0.532574 2.27345 0
M  V30 10335 C 961.198 -1.11791 1.28206 0
M  V30 10336 O 962.383 -1.14272 1.57021 0
M  V30 10337 C 959.513 -1.69274 3.03255 0
M  V30 10338 C 958.467 -1.23662 4.09746 0
M  V30 10339 C 957.793 -2.48386 4.73506 0
M  V30 10340 C 959.093 -0.350244 5.21124 0
M  V30 10341 H 960.787 0.0775108 2.993 0
M  V30 10342 H 958.333 0.0387193 1.43948 0
M  V30 10343 H 960.286 -2.29917 3.53152 0
M  V30 10344 H 959.01 -2.32944 2.28921 0
M  V30 10345 H 957.669 -0.653106 3.60735 0
M  V30 10346 H 957.317 -3.10424 3.95786 0
M  V30 10347 H 957.017 -2.18558 5.45441 0
M  V30 10348 H 958.541 -3.09789 5.26178 0
M  V30 10349 H 959.955 -0.863011 5.66767 0
M  V30 10350 H 958.352 -0.14466 5.99926 0
M  V30 10351 H 959.422 0.618457 4.8094 0
M  V30 10352 N 960.765 -1.57509 0.0534917 0
M  V30 10353 C 962.011 -1.93887 -0.614776 0
M  V30 10354 C 962.366 -0.932098 -1.68314 0
M  V30 10355 O 961.659 0.0483848 -1.91539 0
M  V30 10356 C 961.853 -3.34734 -1.25251 0
M  V30 10357 C 961.682 -4.49019 -0.247444 0
M  V30 10358 C 960.452 -5.05042 0.161406 0
M  V30 10359 C 962.65 -5.11784 0.508059 0
M  V30 10360 N 960.632 -6.02858 1.15909 0
M  V30 10361 C 962.003 -6.04928 1.35876 0
M  V30 10362 C 964.058 -4.94671 0.56612 0
M  V30 10363 C 962.761 -6.82797 2.26232 0
M  V30 10364 C 964.787 -5.73168 1.45712 0
M  V30 10365 C 964.149 -6.65946 2.29554 0
M  V30 10366 H 960.248 -0.756899 -0.196538 0
M  V30 10367 H 962.832 -1.94289 0.126365 0
M  V30 10368 H 961.003 -3.35104 -1.96367 0
M  V30 10369 H 962.735 -3.58395 -1.87977 0
M  V30 10370 H 959.49 -4.73098 -0.218025 0
M  V30 10371 H 959.914 -6.56462 1.6549 0
M  V30 10372 H 964.556 -4.22746 -0.0678652 0
M  V30 10373 H 962.274 -7.54012 2.90675 0
M  V30 10374 H 965.86 -5.61953 1.50664 0
M  V30 10375 H 964.74 -7.25627 2.97381 0
M  V30 10376 N 962.243 0.219913 -1.56058 0
M  V30 10377 C 963.193 1.27606 -1.88946 0
M  V30 10378 C 964.177 1.42209 -0.752691 0
M  V30 10379 O 965.369 1.44996 -1.01514 0
M  V30 10380 C 962.498 2.62614 -2.21108 0
M  V30 10381 C 961.584 2.51906 -3.4118 0
M  V30 10382 N 961.975 2.10851 -4.59756 0
M  V30 10383 C 960.273 2.82861 -3.44827 0
M  V30 10384 C 960.974 2.11434 -5.41914 0
M  V30 10385 N 959.95 2.51985 -4.81669 0
M  V30 10386 H 963.752 0.94957 -2.78137 0
M  V30 10387 H 961.266 0.428468 -1.56646 0
M  V30 10388 H 963.263 3.38869 -2.42844 0
M  V30 10389 H 961.923 2.96108 -1.3323 0
M  V30 10390 H 962.934 1.81956 -4.84884 0
M  V30 10391 H 959.611 3.20716 -2.67297 0
M  V30 10392 H 961.001 1.81803 -6.46836 0
M  V30 10393 N 963.721 1.49897 0.486681 0
M  V30 10394 C 964.631 1.70379 1.6127 0
M  V30 10395 C 965.647 0.58659 1.63814 0
M  V30 10396 O 966.823 0.863044 1.81971 0
M  V30 10397 C 963.888 1.77911 2.97571 0
M  V30 10398 C 962.949 3.01569 3.0554 0
M  V30 10399 C 962.182 3.08732 4.35339 0
M  V30 10400 O 962.405 2.23099 5.2496 0
M  V30 10401 O 961.339 4.01325 4.48578 0
M  V30 10402 H 965.165 2.65799 1.46916 0
M  V30 10403 H 962.75 1.33808 0.664516 0
M  V30 10404 H 964.632 1.85135 3.78554 0
M  V30 10405 H 963.307 0.856722 3.12157 0
M  V30 10406 H 962.214 2.99854 2.23693 0
M  V30 10407 H 963.547 3.93335 2.95886 0
M  V30 10408 N 965.199 -0.738761 1.39212 0
M  V30 10409 C 966.109 -1.88324 1.39897 0
M  V30 10410 C 967.125 -1.71494 0.294229 0
M  V30 10411 O 968.301 -1.94162 0.535087 0
M  V30 10412 C 965.366 -3.23871 1.23726 0
M  V30 10413 C 964.427 -3.53121 2.44139 0
M  V30 10414 C 963.66 -4.82202 2.2873 0
M  V30 10415 O 963.883 -5.55649 1.28879 0
M  V30 10416 O 962.817 -5.11265 3.17634 0
M  V30 10417 H 966.643 -1.90701 2.36362 0
M  V30 10418 H 964.228 -0.886067 1.20288 0
M  V30 10419 H 966.11 -4.04882 1.16826 0
M  V30 10420 H 964.785 -3.22274 0.303551 0
M  V30 10421 H 963.692 -2.72212 2.56615 0
M  V30 10422 H 965.025 -3.59495 3.36191 0
M  V30 10423 N 966.677 -1.24326 -0.968545 0
M  V30 10424 C 967.61 -0.978121 -2.06175 0
M  V30 10425 C 968.588 0.0878107 -1.62363 0
M  V30 10426 O 969.772 -0.0489472 -1.88436 0
M  V30 10427 C 966.899 -0.475884 -3.3534 0
M  V30 10428 C 965.945 -1.53023 -3.98103 0
M  V30 10429 S 966.778 -3.11131 -4.35841 0
M  V30 10430 C 967.934 -2.62608 -5.68144 0
M  V30 10431 H 968.167 -1.9038 -2.28348 0
M  V30 10432 H 965.7 -1.07701 -1.10633 0
M  V30 10433 H 967.658 -0.192739 -4.10047 0
M  V30 10434 H 966.319 0.429067 -3.11156 0
M  V30 10435 H 965.512 -1.12922 -4.91187 0
M  V30 10436 H 965.114 -1.76334 -3.29822 0
M  V30 10437 H 967.406 -2.05367 -6.45624 0
M  V30 10438 H 968.349 -3.54277 -6.13101 0
M  V30 10439 H 968.757 -2.03063 -5.26712 0
M  V30 10440 N 968.156 1.1691 -1.05688 0
M  V30 10441 C 969.103 2.21095 -0.662246 0
M  V30 10442 C 970.073 1.62623 0.338083 0
M  V30 10443 O 971.258 1.89428 0.228362 0
M  V30 10444 C 968.398 3.45066 -0.0484018 0
M  V30 10445 C 967.511 4.17809 -1.09817 0
M  V30 10446 C 966.646 5.29281 -0.451114 0
M  V30 10447 C 965.685 5.93817 -1.48484 0
M  V30 10448 N 964.822 6.96793 -0.861588 0
M  V30 10449 H 969.662 2.54204 -1.55513 0
M  V30 10450 H 967.199 1.24863 -0.777665 0
M  V30 10451 H 969.157 4.15932 0.324978 0
M  V30 10452 H 967.787 3.12526 0.807918 0
M  V30 10453 H 966.839 3.45608 -1.58932 0
M  V30 10454 H 968.151 4.61907 -1.88265 0
M  V30 10455 H 967.305 6.06695 -0.0244251 0
M  V30 10456 H 966.044 4.8633 0.365306 0
M  V30 10457 H 965.049 5.1513 -1.92149 0
M  V30 10458 H 966.274 6.38848 -2.30325 0
M  V30 10459 H 964.22 6.55967 -0.0657688 0
M  V30 10460 H 964.137 7.39229 -1.58354 0
M  V30 10461 H 965.405 7.78142 -0.45984 0
M  V30 10462 N 969.634 0.838594 1.33437 0
M  V30 10463 C 970.582 0.260158 2.31141 0
M  V30 10464 C 971.576 -0.607706 1.58124 0
M  V30 10465 O 972.782 -0.497298 1.72994 0
M  V30 10466 H 969.157 0.0654031 0.74915 0
M  V30 10467 H 971.128 1.09874 2.77435 0
M  V30 10468 C 969.877 -0.550234 3.43319 0
M  V30 10469 H 969.2 0.108262 3.99653 0
M  V30 10470 H 970.64 -0.920815 4.1388 0
M  V30 10471 C 969.099 -1.729 2.89149 0
M  V30 10472 O 969.629 -2.82769 2.85315 0
M  V30 10473 N 967.835 -1.5508 2.45761 0
M  V30 10474 H 967.382 -0.657055 2.49079 0
M  V30 10475 H 967.34 -2.34099 2.0987 0
M  V30 10476 N 971.112 -1.45937 0.595003 0
M  V30 10477 C 972.044 -2.28575 -0.169137 0
M  V30 10478 C 973.057 -1.39226 -0.843792 0
M  V30 10479 O 974.246 -1.63716 -0.711291 0
M  V30 10480 C 971.346 -3.14616 -1.25976 0
M  V30 10481 C 970.519 -4.32166 -0.67466 0
M  V30 10482 C 969.578 -4.99511 -1.65456 0
M  V30 10483 O 968.604 -5.56712 -1.18578 0
M  V30 10484 N 969.806 -4.97643 -2.98885 0
M  V30 10485 H 972.571 -2.94797 0.539908 0
M  V30 10486 H 970.132 -1.55985 0.433614 0
M  V30 10487 H 972.124 -3.56534 -1.91483 0
M  V30 10488 H 970.694 -2.50387 -1.8715 0
M  V30 10489 H 969.914 -3.93882 0.158184 0
M  V30 10490 H 971.202 -5.08116 -0.263753 0
M  V30 10491 H 970.6 -4.52438 -3.39583 0
M  V30 10492 H 969.157 -5.43463 -3.59848 0
M  V30 10493 N 972.59 -0.333456 -1.54032 0
M  V30 10494 C 973.839 0.267081 -1.99924 0
M  V30 10495 C 974.152 1.52463 -1.22534 0
M  V30 10496 O 975.358 2.20178 -1.58852 0
M  V30 10497 C 973.814 0.526456 -3.56029 0
M  V30 10498 C 973.422 -0.714607 -4.42264 0
M  V30 10499 C 975.166 1.0864 -4.10363 0
M  V30 10500 C 973.073 -0.42659 -5.89859 0
M  V30 10501 H 972.003 0.103577 -0.746852 0
M  V30 10502 H 974.654 -0.447218 -1.77967 0
M  V30 10503 H 973.036 1.3012 -3.74012 0
M  V30 10504 H 974.21 -1.48968 -4.36056 0
M  V30 10505 H 972.525 -1.19547 -3.9887 0
M  V30 10506 H 975.122 1.31668 -5.18235 0
M  V30 10507 H 975.465 2.03884 -3.62956 0
M  V30 10508 H 975.998 0.37261 -3.96051 0
M  V30 10509 H 972.737 -1.34847 -6.4148 0
M  V30 10510 H 972.257 0.310588 -5.98995 0
M  V30 10511 H 973.936 -0.0400807 -6.46988 0
M  V30 10512 N 974.068 1.57479 -0.061844 0
M  V30 10513 C 975.317 1.92285 0.609055 0
M  V30 10514 C 975.63 0.942983 1.71369 0
M  V30 10515 O 976.836 1.18349 2.44348 0
M  V30 10516 C 975.292 3.41545 1.13468 0
M  V30 10517 C 974.9 4.47958 0.0615926 0
M  V30 10518 C 976.644 3.85368 1.78022 0
M  V30 10519 C 974.551 5.88341 0.600705 0
M  V30 10520 H 973.481 0.717656 0.23127 0
M  V30 10521 H 976.132 1.83021 -0.132466 0
M  V30 10522 H 974.514 3.45848 1.92886 0
M  V30 10523 H 975.688 4.55258 -0.712527 0
M  V30 10524 H 974.003 4.13541 -0.487116 0
M  V30 10525 H 976.6 4.87627 2.19371 0
M  V30 10526 H 976.943 3.22193 2.63623 0
M  V30 10527 H 977.476 3.83626 1.05242 0
M  V30 10528 H 974.215 6.55138 -0.217922 0
M  V30 10529 H 973.735 5.84581 1.34257 0
M  V30 10530 H 975.414 6.37918 1.08025 0
M  V30 10531 N 975.546 -0.211634 1.56173 0
M  V30 10532 C 976.509 -1.24588 1.92381 0
M  V30 10533 C 977.509 -1.39297 0.803311 0
M  V30 10534 O 978.699 -1.37392 1.07094 0
M  V30 10535 C 975.831 -2.61807 2.18335 0
M  V30 10536 H 977.024 -0.936814 2.84893 0
M  V30 10537 H 974.577 -0.452471 1.49607 0
M  V30 10538 H 975.312 -2.97795 1.28407 0
M  V30 10539 H 975.097 -2.52506 2.99972 0
M  V30 10540 H 976.587 -3.3642 2.4741 0
M  V30 10541 N 977.024 -1.50153 -0.478725 0
M  V30 10542 C 978.264 -1.62393 -1.24129 0
M  V30 10543 C 978.628 -0.313774 -1.89419 0
M  V30 10544 O 979.829 -0.311537 -2.66989 0
M  V30 10545 C 978.1 -2.76633 -2.26293 0
M  V30 10546 S 979.659 -3.08961 -3.11591 0
M  V30 10547 H 976.477 -0.572559 -0.421541 0
M  V30 10548 H 979.079 -1.87906 -0.539592 0
M  V30 10549 H 977.783 -3.70319 -1.76896 0
M  V30 10550 H 977.314 -2.53182 -3.01102 0
M  V30 10551 H 979.329 -2.52197 -4.2733 0
M  V30 10552 N 978.502 0.731368 -1.39602 0
M  V30 10553 C 979.45 1.86676 -1.38761 0
M  V30 10554 C 980.444 1.6723 -0.270247 0
M  V30 10555 O 981.65 1.74528 -0.440471 0
M  V30 10556 H 978.025 0.614553 -0.433391 0
M  V30 10557 H 979.996 1.84501 -2.34525 0
M  V30 10558 C 978.745 3.24394 -1.25155 0
M  V30 10559 H 978.068 3.39955 -2.10406 0
M  V30 10560 H 979.508 4.04019 -1.28625 0
M  V30 10561 C 977.967 3.36877 0.0396976 0
M  V30 10562 O 978.497 3.88833 1.00854 0
M  V30 10563 N 976.703 2.90414 0.103965 0
M  V30 10564 H 976.25 2.48321 -0.685155 0
M  V30 10565 H 976.208 2.99146 0.967435 0
M  V30 10566 N 979.98 1.24838 0.961938 0
M  V30 10567 C 981.228 1.08936 1.70227 0
M  V30 10568 C 981.549 -0.371582 1.91427 0
M  V30 10569 O 980.819 -1.26461 1.49614 0
M  V30 10570 H 979.399 0.400128 0.630799 0
M  V30 10571 H 982.061 1.56848 1.15692 0
M  V30 10572 H 981.157 1.59195 2.68446 0
M  V30 10573 N 981.458 -1.16348 1.06306 0
M  V30 10574 C 982.683 -1.91323 0.800636 0
M  V30 10575 C 983.108 -1.7691 -0.639105 0
M  V30 10576 O 982.466 -1.0945 -1.44535 0
M  V30 10577 C 982.514 -3.40038 1.20027 0
M  V30 10578 O 981.618 -4.11003 0.339142 0
M  V30 10579 H 980.959 -0.596057 0.292595 0
M  V30 10580 H 983.489 -1.47406 1.41889 0
M  V30 10581 H 983.499 -3.90808 1.17188 0
M  V30 10582 H 982.174 -3.49848 2.24898 0
M  V30 10583 H 980.751 -3.70423 0.42911 0
M  V30 10584 N 982.937 -0.845659 -1.3299 0
M  V30 10585 C 984.186 -0.440928 -1.96822 0
M  V30 10586 C 984.499 1.00668 -1.67706 0
M  V30 10587 O 985.705 1.51641 -2.25205 0
M  V30 10588 C 984.161 -0.73752 -3.52262 0
M  V30 10589 C 983.769 -2.20026 -3.90247 0
M  V30 10590 C 985.513 -0.400072 -4.22611 0
M  V30 10591 C 983.42 -2.44054 -5.38694 0
M  V30 10592 H 982.35 -0.161148 -0.736578 0
M  V30 10593 H 985.001 -1.03519 -1.51513 0
M  V30 10594 H 983.383 -0.0728025 -3.95933 0
M  V30 10595 H 984.557 -2.90602 -3.57613 0
M  V30 10596 H 982.872 -2.50135 -3.32899 0
M  V30 10597 H 985.469 -0.557136 -5.3179 0
M  V30 10598 H 985.812 0.657547 -4.11074 0
M  V30 10599 H 986.345 -1.0203 -3.84493 0
M  V30 10600 H 983.084 -3.48407 -5.55241 0
M  V30 10601 H 982.604 -1.78047 -5.72765 0
M  V30 10602 H 984.283 -2.27549 -6.05665 0
M  V30 10603 N 984.415 1.45619 -0.602734 0
M  V30 10604 C 985.347 2.28662 0.157012 0
M  V30 10605 C 986.36 1.39672 0.836396 0
M  V30 10606 O 987.549 1.64091 0.702599 0
M  V30 10607 C 984.649 3.1528 1.24306 0
M  V30 10608 C 983.822 4.32517 0.651731 0
M  V30 10609 C 982.881 5.00381 1.62804 0
M  V30 10610 O 981.907 5.57333 1.15624 0
M  V30 10611 N 983.109 4.99221 2.96241 0
M  V30 10612 H 985.874 2.94506 -0.555535 0
M  V30 10613 H 983.435 1.55753 -0.441881 0
M  V30 10614 H 985.427 3.57544 1.8959 0
M  V30 10615 H 983.997 2.51376 1.85819 0
M  V30 10616 H 983.217 3.93793 -0.17907 0
M  V30 10617 H 984.505 5.08249 0.236802 0
M  V30 10618 H 983.903 4.54232 3.37179 0
M  V30 10619 H 982.46 5.45364 3.56961 0
M  V30 10620 N 985.893 0.34162 1.53853 0
M  V30 10621 C 987.118 -0.259608 2.05769 0
M  V30 10622 C 987.543 -1.43588 1.21507 0
M  V30 10623 O 986.901 -1.79856 0.228364 0
M  V30 10624 C 986.949 -0.654455 3.54611 0
M  V30 10625 O 986.053 -1.75472 3.73207 0
M  V30 10626 H 985.394 -0.0434621 0.662576 0
M  V30 10627 H 987.924 0.495274 1.98515 0
M  V30 10628 H 987.934 -0.932142 3.97209 0
M  V30 10629 H 986.609 0.205779 4.15391 0
M  V30 10630 H 985.186 -1.47444 3.42512 0
M  V30 10631 N 987.371 -1.57444 0.0701946 0
M  V30 10632 C 988.62 -1.92605 -0.598849 0
M  V30 10633 C 988.933 -0.952058 -1.70866 0
M  V30 10634 O 990.139 -1.19643 -2.43716 0
M  V30 10635 C 988.595 -3.42142 -1.11655 0
M  V30 10636 C 988.203 -4.47984 -0.0378355 0
M  V30 10637 C 989.947 -3.86307 -1.75975 0
M  V30 10638 C 987.854 -5.88652 -0.569495 0
M  V30 10639 H 986.784 -0.718873 -0.22746 0
M  V30 10640 H 989.435 -1.82948 0.14217 0
M  V30 10641 H 987.817 -3.46866 -1.91049 0
M  V30 10642 H 988.991 -4.54874 0.736661 0
M  V30 10643 H 987.306 -4.13277 0.50904 0
M  V30 10644 H 989.903 -4.88784 -2.16782 0
M  V30 10645 H 990.246 -3.23587 -2.61911 0
M  V30 10646 H 990.779 -3.84179 -1.03206 0
M  V30 10647 H 987.518 -6.55013 0.252662 0
M  V30 10648 H 987.038 -5.85285 -1.31155 0
M  V30 10649 H 988.717 -6.38482 -1.04641 0
M  V30 10650 N 988.849 0.203349 -1.56283 0
M  V30 10651 C 990.26 0.768764 -1.70138 0
M  V30 10652 C 990.611 1.8421 -0.675358 0
M  V30 10653 O 989.736 2.15732 0.1699 0
M  V30 10654 C 990.331 1.40123 -3.08466 0
M  V30 10655 C 988.89 1.91382 -3.24114 0
M  V30 10656 C 988.037 0.780685 -2.66084 0
M  V30 10657 H 990.988 -0.0215997 -1.58685 0
M  V30 10658 H 991.009 2.27046 -3.05336 0
M  V30 10659 H 990.521 0.619805 -3.83119 0
M  V30 10660 H 988.622 2.7227 -2.54362 0
M  V30 10661 H 988.735 2.08128 -4.31531 0
M  V30 10662 H 987.099 1.19281 -2.25042 0
M  V30 10663 H 987.882 0.0116351 -3.43298 0
M  V30 10664 N 990.327 1.50405 0.470755 0
M  V30 10665 C 991.237 1.7208 1.59454 0
M  V30 10666 C 992.253 0.603932 1.63183 0
M  V30 10667 O 993.429 0.882296 1.81046 0
M  V30 10668 C 990.494 1.81057 2.95667 0
M  V30 10669 C 989.555 3.04792 3.02324 0
M  V30 10670 C 988.788 3.13332 4.3204 0
M  V30 10671 O 989.011 2.28655 5.22564 0
M  V30 10672 O 987.945 4.0606 4.44296 0
M  V30 10673 H 991.771 2.67343 1.44089 0
M  V30 10674 H 989.356 1.34505 0.650286 0
M  V30 10675 H 991.238 1.8914 3.76569 0
M  V30 10676 H 989.913 0.889782 3.11231 0
M  V30 10677 H 988.82 3.0221 2.205 0
M  V30 10678 H 990.153 3.96451 2.91698 0
M  V30 10679 N 991.805 -0.723954 1.39988 0
M  V30 10680 C 993.054 -1.47922 1.3712 0
M  V30 10681 C 993.367 -1.95582 -0.0263665 0
M  V30 10682 O 994.573 -2.70918 -0.177652 0
M  V30 10683 C 993.029 -2.67342 2.40949 0
M  V30 10684 C 992.637 -2.26586 3.86475 0
M  V30 10685 C 994.381 -3.45116 2.47174 0
M  V30 10686 C 992.288 -3.42794 4.81919 0
M  V30 10687 H 991.218 -0.555522 0.509815 0
M  V30 10688 H 993.869 -0.788692 1.65686 0
M  V30 10689 H 992.251 -3.38524 2.0547 0
M  V30 10690 H 993.425 -1.62878 4.31054 0
M  V30 10691 H 991.74 -1.61876 3.83647 0
M  V30 10692 H 994.337 -4.31573 3.15672 0
M  V30 10693 H 994.68 -3.8835 1.49966 0
M  V30 10694 H 995.213 -2.80971 2.81602 0
M  V30 10695 H 991.952 -3.046 5.8043 0
M  V30 10696 H 991.472 -4.05445 4.42012 0
M  V30 10697 H 993.151 -4.08977 5.01345 0
M  V30 10698 N 993.283 -1.25346 -0.955304 0
M  V30 10699 C 994.694 -1.09173 -1.51453 0
M  V30 10700 C 995.045 0.332755 -1.93358 0
M  V30 10701 O 994.17 1.22264 -1.78551 0
M  V30 10702 C 994.765 -1.97564 -2.75234 0
M  V30 10703 C 993.324 -1.85579 -3.27471 0
M  V30 10704 C 992.471 -1.91755 -2.00313 0
M  V30 10705 H 995.422 -1.38642 -0.772271 0
M  V30 10706 H 995.443 -1.51523 -3.49029 0
M  V30 10707 H 994.955 -3.01233 -2.44704 0
M  V30 10708 H 993.056 -0.847906 -3.62824 0
M  V30 10709 H 993.169 -2.70353 -3.95533 0
M  V30 10710 H 991.533 -1.35633 -2.15582 0
M  V30 10711 H 992.316 -2.97028 -1.72132 0
M  V30 10712 N 994.761 1.15782 -1.06922 0
M  V30 10713 C 996.038 1.8253 -0.703 0
M  V30 10714 C 996.418 1.94733 0.814994 0
M  V30 10715 O 995.766 1.49537 1.72774 0
M  V30 10716 C 995.976 3.19145 -1.41234 0
M  V30 10717 C 997.324 3.94839 -1.56164 0
M  V30 10718 O 998.348 3.28685 -1.37277 0
M  V30 10719 O 997.207 5.13436 -1.87205 0
M  V30 10720 H 994.301 0.788425 -0.24963 0
M  V30 10721 H 996.847 1.22931 -1.16988 0
M  V30 10722 H 995.619 3.05336 -2.44715 0
M  V30 10723 H 995.242 3.86427 -0.935959 0
M  V30 10724 N 996.239 0.8527 1.3254 0
M  V30 10725 C 997.516 0.376491 1.91942 0
M  V30 10726 C 997.896 -1.13972 1.7769 0
M  V30 10727 O 997.244 -1.96047 1.17379 0
M  V30 10728 C 997.454 0.838694 3.38773 0
M  V30 10729 C 998.802 0.854736 4.15908 0
M  V30 10730 O 999.826 0.783203 3.47483 0
M  V30 10731 O 998.685 0.955207 5.38087 0
M  V30 10732 H 995.779 0.109412 0.81973 0
M  V30 10733 H 998.325 0.93947 1.41322 0
M  V30 10734 H 997.097 1.88179 3.43081 0
M  V30 10735 H 996.72 0.253055 3.96794 0
M  V30 10736 N 997.718 -1.45297 0.610449 0
M  V30 10737 C 998.648 -2.33311 -0.0939698 0
M  V30 10738 C 999.629 -1.46999 -0.85588 0
M  V30 10739 O 1000.81 -1.75764 -0.825865 0
M  V30 10740 C 997.944 -3.29751 -1.09003 0
M  V30 10741 C 996.898 -4.2572 -0.441146 0
M  V30 10742 C 996.224 -5.11873 -1.54566 0
M  V30 10743 C 997.524 -5.1837 0.639489 0
M  V30 10744 H 999.218 -2.92459 0.640941 0
M  V30 10745 H 996.764 -1.40631 0.309675 0
M  V30 10746 H 998.717 -3.90195 -1.59141 0
M  V30 10747 H 997.441 -2.68768 -1.85557 0
M  V30 10748 H 996.1 -3.66579 0.0393908 0
M  V30 10749 H 995.748 -4.47256 -2.30155 0
M  V30 10750 H 995.448 -5.76886 -1.11698 0
M  V30 10751 H 996.972 -5.75185 -2.04925 0
M  V30 10752 H 998.386 -5.7287 0.22207 0
M  V30 10753 H 996.783 -5.91876 0.990089 0
M  V30 10754 H 997.853 -4.60627 1.51495 0
M  V30 10755 N 999.196 -0.349774 -1.5367 0
M  V30 10756 C 1000.14 0.504121 -2.25227 0
M  V30 10757 C 1001.11 1.09048 -1.2529 0
M  V30 10758 O 1002.3 1.12594 -1.54037 0
M  V30 10759 C 999.438 1.64601 -3.03316 0
M  V30 10760 C 998.551 1.08635 -4.18118 0
M  V30 10761 C 997.686 2.19605 -4.83681 0
M  V30 10762 C 996.725 1.61023 -5.90541 0
M  V30 10763 N 995.862 2.6576 -6.49858 0
M  V30 10764 H 1000.7 -0.112621 -2.97787 0
M  V30 10765 H 998.239 -0.0673503 -1.46946 0
M  V30 10766 H 1000.2 2.31836 -3.46854 0
M  V30 10767 H 998.827 2.23364 -2.33041 0
M  V30 10768 H 997.879 0.304748 -3.79177 0
M  V30 10769 H 999.191 0.617911 -4.94958 0
M  V30 10770 H 998.345 2.94693 -5.30322 0
M  V30 10771 H 997.084 2.69795 -4.06278 0
M  V30 10772 H 996.089 0.844428 -5.43277 0
M  V30 10773 H 997.314 1.11677 -6.69855 0
M  V30 10774 H 995.26 3.15193 -5.75317 0
M  V30 10775 H 995.177 2.23557 -7.2219 0
M  V30 10776 H 996.445 3.40598 -7.01151 0
M  V30 10777 N 1000.67 1.57404 -0.0785433 0
M  V30 10778 C 1001.61 2.101 0.916013 0
M  V30 10779 C 1002.62 1.03459 1.25698 0
M  V30 10780 O 1003.81 1.30954 1.21299 0
M  V30 10781 C 1000.91 2.55202 2.22992 0
M  V30 10782 C 1000.08 3.85491 2.06678 0
M  V30 10783 C 999.14 4.16614 3.21433 0
M  V30 10784 O 998.166 4.86105 2.96126 0
M  V30 10785 N 999.368 3.70697 4.46726 0
M  V30 10786 H 1002.13 2.96054 0.466059 0
M  V30 10787 H 999.694 1.61546 0.107006 0
M  V30 10788 H 1001.69 2.7308 2.9868 0
M  V30 10789 H 1000.26 1.74348 2.59464 0
M  V30 10790 H 999.476 3.76925 1.15417 0
M  V30 10791 H 1000.76 4.70759 1.93036 0
M  V30 10792 H 1000.16 3.14571 4.70172 0
M  V30 10793 H 998.719 3.93762 5.19418 0
M  V30 10794 N 1002.15 -0.195058 1.56388 0
M  V30 10795 C 1003.08 -1.24444 1.97575 0
M  V30 10796 C 1004.06 -1.47471 0.847717 0
M  V30 10797 O 1005.25 -1.59208 1.11205 0
M  V30 10798 C 1002.38 -2.58866 2.31529 0
M  V30 10799 C 1001.33 -2.50451 3.47071 0
M  V30 10800 C 1000.66 -3.89146 3.667 0
M  V30 10801 C 1001.96 -2.02953 4.81256 0
M  V30 10802 H 1003.65 -0.902178 2.85484 0
M  V30 10803 H 1001.2 -0.43254 1.3735 0
M  V30 10804 H 1003.15 -3.3246 2.58936 0
M  V30 10805 H 1001.87 -2.94833 1.40502 0
M  V30 10806 H 1000.53 -1.79313 3.19754 0
M  V30 10807 H 1000.18 -4.22466 2.73004 0
M  V30 10808 H 999.882 -3.84391 4.44429 0
M  V30 10809 H 1001.41 -4.64363 3.96484 0
M  V30 10810 H 1002.82 -2.66306 5.07695 0
M  V30 10811 H 1001.22 -2.092 5.62455 0
M  V30 10812 H 1002.29 -0.982757 4.74837 0
M  V30 10813 N 1003.63 -1.50653 -0.462772 0
M  V30 10814 C 1004.86 -1.65586 -1.23551 0
M  V30 10815 C 1005.27 -0.342012 -1.86083 0
M  V30 10816 O 1004.61 0.686893 -1.70374 0
M  V30 10817 C 1004.67 -2.69555 -2.37867 0
M  V30 10818 C 1004.34 -4.1288 -1.95906 0
M  V30 10819 C 1005.33 -4.98483 -1.47685 0
M  V30 10820 C 1003.02 -4.58843 -2.04373 0
M  V30 10821 C 1005.01 -6.281 -1.08484 0
M  V30 10822 C 1002.7 -5.88464 -1.64783 0
M  V30 10823 C 1003.7 -6.72918 -1.16918 0
M  V30 10824 O 1003.39 -8.00119 -0.778798 0
M  V30 10825 H 1003.12 -0.559438 -0.37948 0
M  V30 10826 H 1005.67 -1.9768 -0.557816 0
M  V30 10827 H 1003.9 -2.3272 -3.08834 0
M  V30 10828 H 1005.59 -2.73624 -2.99808 0
M  V30 10829 H 1006.36 -4.64186 -1.40558 0
M  V30 10830 H 1002.24 -3.93247 -2.40577 0
M  V30 10831 H 1005.78 -6.93972 -0.710524 0
M  V30 10832 H 1001.68 -6.22281 -1.71571 0
M  V30 10833 H 1002.44 -8.1346 -0.906911 0
M  V30 10834 N 1005.11 0.71652 -1.4037 0
M  V30 10835 C 1006.06 1.8306 -1.40562 0
M  V30 10836 C 1007.03 1.64009 -0.262697 0
M  V30 10837 O 1008.21 1.85157 -0.460619 0
M  V30 10838 C 1005.35 3.2076 -1.27307 0
M  V30 10839 C 1004.46 3.51389 -2.51296 0
M  V30 10840 C 1003.6 4.78589 -2.30491 0
M  V30 10841 C 1002.64 5.02119 -3.50061 0
M  V30 10842 N 1001.77 6.20533 -3.28457 0
M  V30 10843 H 1006.61 1.82231 -2.35788 0
M  V30 10844 H 1004.15 0.890198 -1.17106 0
M  V30 10845 H 1006.11 4.00274 -1.17628 0
M  V30 10846 H 1004.74 3.2082 -0.357005 0
M  V30 10847 H 1003.79 2.66436 -2.71507 0
M  V30 10848 H 1005.1 3.64686 -3.40302 0
M  V30 10849 H 1004.26 5.66119 -2.1816 0
M  V30 10850 H 1003 4.67499 -1.38909 0
M  V30 10851 H 1002 4.13044 -3.6287 0
M  V30 10852 H 1003.23 5.15082 -4.42569 0
M  V30 10853 H 1001.17 6.10695 -2.39556 0
M  V30 10854 H 1001.09 6.34502 -4.11027 0
M  V30 10855 H 1002.36 7.10853 -3.19857 0
M  V30 10856 N 1006.59 1.25851 0.948643 0
M  V30 10857 C 1007.81 1.13711 1.72851 0
M  V30 10858 C 1008.23 -0.308471 1.86263 0
M  V30 10859 O 1007.59 -1.21175 1.36465 0
M  V30 10860 C 1007.64 1.79271 3.13918 0
M  V30 10861 O 1007.36 3.18179 3.01154 0
M  V30 10862 C 1008.86 1.72988 4.08154 0
M  V30 10863 H 1006.08 0.396334 0.541443 0
M  V30 10864 H 1008.62 1.66329 1.18974 0
M  V30 10865 H 1006.78 1.30609 3.64719 0
M  V30 10866 H 1007.19 3.50507 3.90186 0
M  V30 10867 H 1008.67 2.2351 5.04725 0
M  V30 10868 H 1009.14 0.694866 4.33668 0
M  V30 10869 H 1009.75 2.21166 3.63271 0
M  V30 10870 N 1008.06 -1.15214 1.07534 0
M  V30 10871 C 1009.31 -1.86319 0.800814 0
M  V30 10872 C 1009.64 -1.82221 -0.671494 0
M  V30 10873 O 1008.92 -1.24664 -1.49295 0
M  V30 10874 C 1009.2 -3.35347 1.31203 0
M  V30 10875 C 1009.05 -3.48067 2.84902 0
M  V30 10876 C 1010.37 -4.3016 0.930064 0
M  V30 10877 H 1007.49 -0.676523 0.292379 0
M  V30 10878 H 1010.13 -1.35349 1.33344 0
M  V30 10879 H 1008.28 -3.78886 0.858949 0
M  V30 10880 H 1009.96 -3.13379 3.38514 0
M  V30 10881 H 1008.2 -2.89566 3.23008 0
M  V30 10882 H 1008.87 -4.52782 3.15741 0
M  V30 10883 H 1011.35 -3.94591 1.3205 0
M  V30 10884 H 1010.22 -5.32914 1.31507 0
M  V30 10885 H 1010.48 -4.41796 -0.163824 0
M  V30 10886 N 1009.54 -0.859717 -1.32086 0
M  V30 10887 C 1010.79 -0.475565 -1.97762 0
M  V30 10888 C 1011.14 0.959348 -1.66776 0
M  V30 10889 O 1010.44 1.66484 -0.948343 0
M  V30 10890 C 1010.63 -0.657397 -3.51302 0
M  V30 10891 C 1010.46 -2.10843 -3.97209 0
M  V30 10892 C 1009.23 -2.74796 -4.24046 0
M  V30 10893 C 1011.43 -3.07959 -4.11905 0
M  V30 10894 N 1009.41 -4.10758 -4.56236 0
M  V30 10895 C 1010.78 -4.28922 -4.4769 0
M  V30 10896 C 1012.84 -3.04086 -3.94254 0
M  V30 10897 C 1011.54 -5.46518 -4.67665 0
M  V30 10898 C 1013.56 -4.20931 -4.15416 0
M  V30 10899 C 1012.93 -5.40654 -4.51522 0
M  V30 10900 H 1009.03 -0.222859 -0.749572 0
M  V30 10901 H 1011.61 -1.11217 -1.59809 0
M  V30 10902 H 1009.78 -0.0504597 -3.88367 0
M  V30 10903 H 1011.51 -0.242642 -4.03972 0
M  V30 10904 H 1008.27 -2.25805 -4.16304 0
M  V30 10905 H 1008.69 -4.80905 -4.76507 0
M  V30 10906 H 1013.33 -2.12641 -3.65436 0
M  V30 10907 H 1011.05 -6.3849 -4.95335 0
M  V30 10908 H 1014.64 -4.19376 -4.03255 0
M  V30 10909 H 1013.52 -6.29563 -4.67568 0
M  V30 10910 N 1011.02 1.44971 -0.618145 0
M  V30 10911 C 1011.93 2.34403 0.0960457 0
M  V30 10912 C 1012.95 1.51862 0.849355 0
M  V30 10913 O 1014.12 1.84632 0.804557 0
M  V30 10914 C 1011.19 3.29646 1.07397 0
M  V30 10915 C 1010.25 4.28095 0.321466 0
M  V30 10916 C 1009.48 5.18787 1.25281 0
M  V30 10917 O 1009.7 5.1313 2.49106 0
M  V30 10918 O 1008.64 5.97282 0.744156 0
M  V30 10919 H 1012.46 2.96898 -0.639176 0
M  V30 10920 H 1010.05 1.44529 -0.37837 0
M  V30 10921 H 1011.93 3.88307 1.63694 0
M  V30 10922 H 1010.61 2.69702 1.79004 0
M  V30 10923 H 1009.51 3.73019 -0.284223 0
M  V30 10924 H 1010.85 4.90923 -0.354315 0
M  V30 10925 N 1012.5 0.357919 1.53482 0
M  V30 10926 C 1013.75 -0.235241 2.00324 0
M  V30 10927 C 1014.06 -1.50494 1.24944 0
M  V30 10928 O 1015.27 -2.17623 1.62335 0
M  V30 10929 C 1013.72 -0.469748 3.56821 0
M  V30 10930 C 1013.33 0.784877 4.41071 0
M  V30 10931 C 1015.07 -1.02098 4.12039 0
M  V30 10932 C 1012.98 0.520377 5.89106 0
M  V30 10933 H 1011.91 -0.0916816 0.748405 0
M  V30 10934 H 1014.56 0.475474 1.77233 0
M  V30 10935 H 1012.94 -1.24153 3.76035 0
M  V30 10936 H 1014.12 1.55886 4.33631 0
M  V30 10937 H 1012.43 1.25878 3.96918 0
M  V30 10938 H 1015.03 -1.23406 5.20264 0
M  V30 10939 H 1015.37 -1.98084 3.66154 0
M  V30 10940 H 1015.91 -0.309554 3.96594 0
M  V30 10941 H 1012.65 1.45035 6.39254 0
M  V30 10942 H 1012.17 -0.215254 5.99414 0
M  V30 10943 H 1013.84 0.143006 6.46842 0
M  V30 10944 N 1013.98 -1.5736 0.0868897 0
M  V30 10945 C 1015.2 -1.98809 -0.590757 0
M  V30 10946 C 1015.63 -0.965407 -1.61436 0
M  V30 10947 O 1014.98 0.067143 -1.81176 0
M  V30 10948 C 1015.03 -3.39249 -1.22238 0
M  V30 10949 O 1014.14 -3.39706 -2.33824 0
M  V30 10950 H 1013.48 -0.64669 -0.150626 0
M  V30 10951 H 1016.01 -2.03927 0.165873 0
M  V30 10952 H 1016.02 -3.76765 -1.56564 0
M  V30 10953 H 1014.69 -4.13208 -0.472434 0
M  V30 10954 H 1013.27 -3.13977 -2.01178 0
M  V30 10955 N 1015.45 0.186762 -1.56489 0
M  V30 10956 C 1016.39 1.25565 -1.91745 0
M  V30 10957 C 1017.4 1.4128 -0.80894 0
M  V30 10958 O 1018.59 1.41558 -1.08737 0
M  V30 10959 C 1015.69 2.62662 -2.14154 0
M  V30 10960 C 1014.86 2.68448 -3.45333 0
M  V30 10961 C 1013.92 3.86798 -3.56754 0
M  V30 10962 O 1012.95 3.73514 -4.29507 0
M  V30 10963 N 1014.15 5.02607 -2.90459 0
M  V30 10964 H 1016.91 0.956351 -2.84032 0
M  V30 10965 H 1014.47 0.376631 -1.57458 0
M  V30 10966 H 1016.47 3.40277 -2.19075 0
M  V30 10967 H 1015.04 2.85046 -1.28326 0
M  V30 10968 H 1014.26 1.77044 -3.52206 0
M  V30 10969 H 1015.54 2.69311 -4.31682 0
M  V30 10970 H 1014.94 5.163 -2.31194 0
M  V30 10971 H 1013.5 5.78139 -3.00996 0
M  V30 10972 N 1016.93 1.50896 0.454776 0
M  V30 10973 C 1017.88 1.70947 1.55067 0
M  V30 10974 C 1018.85 0.550899 1.56698 0
M  V30 10975 O 1020.03 0.783352 1.73978 0
M  V30 10976 C 1017.17 1.82455 2.92924 0
M  V30 10977 C 1016.29 3.09919 3.00956 0
M  V30 10978 C 1015.42 3.12125 4.29827 0
M  V30 10979 C 1014.46 4.33975 4.31662 0
M  V30 10980 N 1013.6 4.33828 5.5203 0
M  V30 10981 H 1018.44 2.645 1.37273 0
M  V30 10982 H 1015.98 1.31101 0.667148 0
M  V30 10983 H 1017.93 1.87108 3.72889 0
M  V30 10984 H 1016.56 0.92327 3.09315 0
M  V30 10985 H 1015.62 3.14659 2.13761 0
M  V30 10986 H 1016.93 3.99869 2.98172 0
M  V30 10987 H 1016.08 3.15598 5.18154 0
M  V30 10988 H 1014.82 2.20033 4.35243 0
M  V30 10989 H 1013.83 4.30697 3.41731 0
M  V30 10990 H 1015.05 5.27312 4.27924 0
M  V30 10991 H 1013 3.44598 5.58201 0
M  V30 10992 H 1012.91 5.17566 5.51055 0
M  V30 10993 H 1014.18 4.4147 6.42437 0
M  V30 10994 N 1018.41 -0.709066 1.40748 0
M  V30 10995 C 1019.64 -1.49808 1.42707 0
M  V30 10996 C 1020.05 -1.88778 0.0285574 0
M  V30 10997 O 1019.41 -1.55883 -0.949035 0
M  V30 10998 C 1019.46 -2.76926 2.32366 0
M  V30 10999 O 1019.18 -2.39602 3.66773 0
M  V30 11000 C 1020.68 -3.70773 2.42986 0
M  V30 11001 H 1017.9 -0.462106 0.486517 0
M  V30 11002 H 1020.45 -0.874135 1.84876 0
M  V30 11003 H 1018.6 -3.3559 1.93541 0
M  V30 11004 H 1019.02 -3.21443 4.14457 0
M  V30 11005 H 1020.49 -4.56789 3.09916 0
M  V30 11006 H 1020.97 -4.14332 1.45691 0
M  V30 11007 H 1021.57 -3.18019 2.8239 0
M  V30 11008 N 1019.89 -1.26353 -0.941956 0
M  V30 11009 C 1021.14 -1.12017 -1.69056 0
M  V30 11010 C 1021.47 0.335856 -1.91274 0
M  V30 11011 O 1020.74 1.24677 -1.49285 0
M  V30 11012 C 1021.03 -1.88889 -3.06583 0
M  V30 11013 C 1020.88 -3.42394 -2.91696 0
M  V30 11014 C 1022.2 -1.68209 -4.06686 0
M  V30 11015 H 1019.32 -0.408311 -0.613556 0
M  V30 11016 H 1021.96 -1.55339 -1.09407 0
M  V30 11017 H 1020.11 -1.5207 -3.57501 0
M  V30 11018 H 1021.78 -3.88962 -2.48005 0
M  V30 11019 H 1020.02 -3.69459 -2.27338 0
M  V30 11020 H 1020.7 -3.91408 -3.89235 0
M  V30 11021 H 1023.17 -2.00286 -3.64726 0
M  V30 11022 H 1022.05 -2.24412 -5.00929 0
M  V30 11023 H 1022.31 -0.626474 -4.37639 0
M  V30 11024 N 1021.37 1.14642 -1.08144 0
M  V30 11025 C 1022.3 2.21775 -0.730609 0
M  V30 11026 C 1023.28 1.67683 0.285702 0
M  V30 11027 O 1024.46 1.93567 0.156667 0
M  V30 11028 C 1021.59 3.47033 -0.136242 0
M  V30 11029 C 1020.55 4.14134 -1.0806 0
M  V30 11030 C 1019.87 5.33563 -0.348585 0
M  V30 11031 C 1021.17 4.62978 -2.41761 0
M  V30 11032 H 1022.87 2.51378 -1.62633 0
M  V30 11033 H 1020.41 1.20825 -0.783411 0
M  V30 11034 H 1022.37 4.21226 0.121182 0
M  V30 11035 H 1021.09 3.16786 0.7946 0
M  V30 11036 H 1019.75 3.41892 -1.32308 0
M  V30 11037 H 1019.4 4.99575 0.585974 0
M  V30 11038 H 1019.1 5.79402 -0.978122 0
M  V30 11039 H 1020.62 6.10519 -0.0991508 0
M  V30 11040 H 1022.04 5.28659 -2.21795 0
M  V30 11041 H 1020.43 5.1951 -3.00383 0
M  V30 11042 H 1021.5 3.78189 -3.03482 0
M  V30 11043 N 1022.85 0.866709 1.31628 0
M  V30 11044 C 1023.79 0.318169 2.28596 0
M  V30 11045 C 1024.76 -0.581558 1.55586 0
M  V30 11046 O 1025.95 -0.513895 1.83749 0
M  V30 11047 C 1023.09 -0.477137 3.41786 0
M  V30 11048 C 1022.2 0.449739 4.29653 0
M  V30 11049 C 1021.34 -0.359373 5.29983 0
M  V30 11050 C 1020.37 0.564138 6.09495 0
M  V30 11051 N 1019.51 -0.208526 7.0179 0
M  V30 11052 H 1024.35 1.15029 2.74904 0
M  V30 11053 H 1021.89 0.578649 1.35241 0
M  V30 11054 H 1023.85 -0.953985 4.06146 0
M  V30 11055 H 1022.48 -1.27398 2.96597 0
M  V30 11056 H 1021.53 1.04502 3.65764 0
M  V30 11057 H 1022.84 1.158 4.85172 0
M  V30 11058 H 1021.99 -0.89887 6.00004 0
M  V30 11059 H 1020.73 -1.10094 4.75111 0
M  V30 11060 H 1019.74 1.11542 5.38366 0
M  V30 11061 H 1020.96 1.30451 6.66453 0
M  V30 11062 H 1018.91 -0.932969 6.49332 0
M  V30 11063 H 1018.83 0.440463 7.54716 0
M  V30 11064 H 1020.09 -0.72936 7.7608 0
M  V30 11065 N 1024.32 -1.44642 0.625825 0
M  V30 11066 C 1025.26 -2.27821 -0.131481 0
M  V30 11067 C 1026.23 -1.38224 -0.856324 0
M  V30 11068 O 1027.42 -1.67662 -0.861493 0
M  V30 11069 C 1024.55 -3.1703 -1.19204 0
M  V30 11070 C 1023.59 -4.22697 -0.568315 0
M  V30 11071 S 1024.42 -5.3169 0.637612 0
M  V30 11072 C 1025.58 -6.24468 -0.423088 0
M  V30 11073 H 1025.81 -2.91703 0.574177 0
M  V30 11074 H 1023.35 -1.4875 0.413844 0
M  V30 11075 H 1025.3 -3.6898 -1.79901 0
M  V30 11076 H 1023.97 -2.52379 -1.86986 0
M  V30 11077 H 1023.16 -4.8511 -1.36689 0
M  V30 11078 H 1022.76 -3.73983 -0.0360843 0
M  V30 11079 H 1025.05 -6.64967 -1.29713 0
M  V30 11080 H 1026 -7.07907 0.165338 0
M  V30 11081 H 1026.4 -5.59541 -0.746606 0
M  V30 11082 N 1025.8 -0.366053 -1.5329 0
M  V30 11083 C 1026.76 0.467904 -2.24373 0
M  V30 11084 C 1027.76 1.00934 -1.25176 0
M  V30 11085 O 1028.95 0.895015 -1.49449 0
M  V30 11086 C 1026.09 1.65405 -2.98084 0
M  V30 11087 H 1027.28 -0.154105 -2.99504 0
M  V30 11088 H 1024.83 -0.117751 -1.55856 0
M  V30 11089 H 1025.57 2.31413 -2.27197 0
M  V30 11090 H 1025.35 1.27277 -3.70868 0
M  V30 11091 H 1026.84 2.24503 -3.52119 0
M  V30 11092 N 1027.28 1.57312 -0.0952337 0
M  V30 11093 C 1028.24 2.12889 0.849161 0
M  V30 11094 C 1029.24 1.05819 1.21075 0
M  V30 11095 O 1030.43 1.31704 1.14016 0
M  V30 11096 C 1027.56 2.6496 2.14498 0
M  V30 11097 H 1028.76 2.97651 0.366566 0
M  V30 11098 H 1026.31 1.55542 0.153762 0
M  V30 11099 H 1027.05 1.83718 2.67242 0
M  V30 11100 H 1026.83 3.43244 1.89542 0
M  V30 11101 H 1028.32 3.07952 2.82056 0
M  V30 11102 N 1028.76 -0.17846 1.56586 0
M  V30 11103 C 1029.67 -1.24115 1.9908 0
M  V30 11104 C 1030.68 -1.48854 0.901031 0
M  V30 11105 O 1031.86 -1.61142 1.2081 0
M  V30 11106 C 1028.92 -2.56187 2.33601 0
M  V30 11107 C 1027.99 -2.39373 3.56369 0
M  V30 11108 C 1027.22 -3.65147 3.89234 0
M  V30 11109 O 1027.44 -4.70024 3.23162 0
M  V30 11110 O 1026.38 -3.59683 4.82609 0
M  V30 11111 H 1030.2 -0.910482 2.89731 0
M  V30 11112 H 1027.79 -0.38477 1.4436 0
M  V30 11113 H 1029.67 -3.34109 2.56806 0
M  V30 11114 H 1028.34 -2.88847 1.46113 0
M  V30 11115 H 1027.25 -1.59506 3.38391 0
M  V30 11116 H 1028.58 -2.1164 4.44375 0
M  V30 11117 N 1030.24 -1.51135 -0.446768 0
M  V30 11118 C 1031.65 -1.39101 -0.782504 0
M  V30 11119 C 1031.85 -0.46599 -1.96038 0
M  V30 11120 O 1030.91 0.0823679 -2.52366 0
M  V30 11121 C 1032.22 -2.80953 -1.07173 0
M  V30 11122 C 1033.77 -2.90038 -1.17673 0
M  V30 11123 C 1034.24 -4.32777 -1.49894 0
M  V30 11124 N 1035.73 -4.3584 -1.56837 0
M  V30 11125 C 1036.47 -5.43305 -1.83322 0
M  V30 11126 N 1035.97 -6.60945 -2.07662 0
M  V30 11127 N 1037.76 -5.30775 -1.85026 0
M  V30 11128 H 1029.91 -2.09835 0.329114 0
M  V30 11129 H 1032.17 -0.944199 0.0848054 0
M  V30 11130 H 1031.88 -3.50591 -0.279037 0
M  V30 11131 H 1031.75 -3.197 -2.00179 0
M  V30 11132 H 1034.14 -2.20603 -1.96005 0
M  V30 11133 H 1034.22 -2.54801 -0.225892 0
M  V30 11134 H 1033.86 -5.02757 -0.720924 0
M  V30 11135 H 1033.79 -4.6552 -2.46168 0
M  V30 11136 H 1036.29 -3.51023 -1.39968 0
M  V30 11137 H 1036.6 -7.38643 -2.27214 0
M  V30 11138 H 1034.94 -6.64077 -2.05003 0
M  V30 11139 H 1038.13 -4.37858 -1.65523 0
M  V30 11140 H 1038.31 -6.14609 -2.05329 0
M  V30 11141 N 1031.71 0.701592 -1.41122 0
M  V30 11142 C 1032.96 1.45871 -1.39879 0
M  V30 11143 C 1033.28 1.94999 -0.00668769 0
M  V30 11144 O 1032.55 1.71298 0.95047 0
M  V30 11145 H 1031.13 0.541231 -0.514857 0
M  V30 11146 H 1033.79 0.830803 -1.76306 0
M  V30 11147 H 1032.89 2.32479 -2.0823 0
M  V30 11148 N 1033.19 1.2685 0.935242 0
M  V30 11149 C 1034.15 1.08975 2.01636 0
M  V30 11150 C 1035.15 0.0361543 1.60759 0
M  V30 11151 O 1036.34 0.280087 1.71934 0
M  V30 11152 C 1033.48 0.658831 3.34473 0
M  V30 11153 H 1034.67 2.04968 2.18925 0
M  V30 11154 H 1032.22 1.09531 1.11501 0
M  V30 11155 H 1032.96 -0.302824 3.22883 0
M  V30 11156 H 1032.74 1.41967 3.65497 0
M  V30 11157 H 1034.23 0.555783 4.13885 0
M  V30 11158 N 1034.67 -1.14067 1.0875 0
M  V30 11159 C 1035.92 -1.85185 0.819317 0
M  V30 11160 C 1036.25 -1.8314 -0.654969 0
M  V30 11161 O 1035.5 -1.25974 -1.49763 0
M  V30 11162 C 1035.8 -3.33273 1.29089 0
M  V30 11163 C 1035.47 -3.55504 2.77359 0
M  V30 11164 C 1034.13 -3.61279 3.17853 0
M  V30 11165 C 1036.48 -3.64041 3.72992 0
M  V30 11166 C 1033.81 -3.73119 4.52768 0
M  V30 11167 C 1036.16 -3.77407 5.07687 0
M  V30 11168 C 1034.82 -3.81433 5.47782 0
M  V30 11169 H 1034.09 -0.67764 0.299809 0
M  V30 11170 H 1036.74 -1.34713 1.36106 0
M  V30 11171 H 1035.05 -3.86049 0.668811 0
M  V30 11172 H 1036.74 -3.86734 1.06009 0
M  V30 11173 H 1033.33 -3.51659 2.45019 0
M  V30 11174 H 1037.52 -3.58866 3.42825 0
M  V30 11175 H 1032.77 -3.74499 4.83281 0
M  V30 11176 H 1036.95 -3.82956 5.81651 0
M  V30 11177 H 1034.57 -3.9036 6.52321 0
M  V30 11178 N 1036.15 -0.873678 -1.31166 0
M  V30 11179 C 1037.4 -0.482577 -1.95842 0
M  V30 11180 C 1037.71 0.970881 -1.69804 0
M  V30 11181 O 1038.92 1.4683 -2.28371 0
M  V30 11182 C 1037.37 -0.812074 -3.50619 0
M  V30 11183 C 1036.98 -2.28254 -3.85492 0
M  V30 11184 C 1038.72 -0.489624 -4.21667 0
M  V30 11185 C 1036.63 -2.55426 -5.33396 0
M  V30 11186 H 1035.56 -0.176736 -0.732994 0
M  V30 11187 H 1038.21 -1.06709 -1.49283 0
M  V30 11188 H 1036.59 -0.156769 -3.9569 0
M  V30 11189 H 1037.77 -2.98122 -3.51369 0
M  V30 11190 H 1036.08 -2.5714 -3.27518 0
M  V30 11191 H 1038.68 -0.669811 -5.30488 0
M  V30 11192 H 1039.02 0.570204 -4.12376 0
M  V30 11193 H 1039.56 -1.10163 -3.82242 0
M  V30 11194 H 1036.3 -3.60106 -5.47726 0
M  V30 11195 H 1035.82 -1.90156 -5.68859 0
M  V30 11196 H 1037.49 -2.40345 -6.00702 0
M  V30 11197 N 1037.63 1.44308 -0.633487 0
M  V30 11198 C 1038.9 1.95476 -0.0697262 0
M  V30 11199 C 1039.28 1.57539 1.40516 0
M  V30 11200 O 1038.63 0.850632 2.12077 0
M  V30 11201 C 1038.84 3.4775 -0.295093 0
M  V30 11202 C 1040.19 4.24177 -0.189542 0
M  V30 11203 O 1041.21 3.55479 -0.226586 0
M  V30 11204 O 1040.07 5.46415 -0.096479 0
M  V30 11205 H 1037.17 0.826734 0.0209582 0
M  V30 11206 H 1039.71 1.54347 -0.705354 0
M  V30 11207 H 1038.48 3.6842 -1.31841 0
M  V30 11208 H 1038.11 3.95832 0.37456 0
M  V30 11209 N 1039.1 0.374177 1.53094 0
M  V30 11210 C 1040.04 -0.503065 2.23611 0
M  V30 11211 C 1041.05 -1.03915 1.25321 0
M  V30 11212 O 1042.24 -0.944064 1.51492 0
M  V30 11213 C 1039.34 -1.70825 2.92698 0
M  V30 11214 C 1038.51 -1.30217 4.17567 0
M  V30 11215 C 1037.57 -2.37036 4.69788 0
M  V30 11216 O 1036.6 -1.99069 5.33254 0
M  V30 11217 N 1037.8 -3.68743 4.4834 0
M  V30 11218 H 1040.56 0.101013 2.9953 0
M  V30 11219 H 1038.12 0.199778 1.60663 0
M  V30 11220 H 1040.12 -2.41779 3.24538 0
M  V30 11221 H 1038.69 -2.219 2.2018 0
M  V30 11222 H 1037.91 -0.422121 3.91933 0
M  V30 11223 H 1039.19 -1.00728 4.9873 0
M  V30 11224 H 1038.59 -4.0236 3.97647 0
M  V30 11225 H 1037.15 -4.35776 4.84709 0
M  V30 11226 N 1040.58 -1.57259 0.103575 0
M  V30 11227 C 1041.81 -1.99424 -0.569638 0
M  V30 11228 C 1042.23 -0.982475 -1.60403 0
M  V30 11229 O 1041.59 0.0479231 -1.81237 0
M  V30 11230 C 1041.64 -3.40527 -1.18633 0
M  V30 11231 O 1040.74 -3.42167 -2.30208 0
M  V30 11232 H 1040.08 -0.648251 -0.143759 0
M  V30 11233 H 1042.61 -2.03739 0.187493 0
M  V30 11234 H 1042.62 -3.78404 -1.5256 0
M  V30 11235 H 1041.3 -4.13686 -0.428582 0
M  V30 11236 H 1039.88 -3.16093 -1.97837 0
M  V30 11237 N 1042.06 0.170153 -1.56679 0
M  V30 11238 C 1042.99 1.23525 -1.93066 0
M  V30 11239 C 1044.01 1.40414 -0.823879 0
M  V30 11240 O 1045.19 1.40396 -1.10232 0
M  V30 11241 C 1042.29 2.60376 -2.16928 0
M  V30 11242 C 1041.47 2.6477 -3.4816 0
M  V30 11243 C 1040.53 3.82993 -3.60837 0
M  V30 11244 O 1039.55 3.68937 -4.33444 0
M  V30 11245 N 1040.75 4.99498 -2.95773 0
M  V30 11246 H 1043.52 0.926172 -2.8503 0
M  V30 11247 H 1041.08 0.359909 -1.57849 0
M  V30 11248 H 1043.07 3.37934 -2.22672 0
M  V30 11249 H 1041.64 2.83669 -1.31342 0
M  V30 11250 H 1040.86 1.73298 -3.54064 0
M  V30 11251 H 1042.15 2.64717 -4.34514 0
M  V30 11252 H 1041.55 5.13819 -2.36657 0
M  V30 11253 H 1040.11 5.74914 -3.07111 0
M  V30 11254 N 1043.54 1.5137 0.438746 0
M  V30 11255 C 1044.76 1.68058 1.21537 0
M  V30 11256 C 1045.19 0.376787 1.84288 0
M  V30 11257 O 1044.55 -0.662911 1.68746 0
M  V30 11258 C 1044.59 2.79684 2.27616 0
M  V30 11259 O 1043.7 2.43189 3.33066 0
M  V30 11260 H 1043.04 0.560408 0.356144 0
M  V30 11261 H 1045.57 1.97926 0.518311 0
M  V30 11262 H 1045.58 3.03726 2.72423 0
M  V30 11263 H 1044.25 3.74293 1.81321 0
M  V30 11264 H 1042.83 2.29713 2.93746 0
M  V30 11265 N 1045.02 -0.694098 1.41492 0
M  V30 11266 C 1045.95 -1.82042 1.46229 0
M  V30 11267 C 1046.93 -1.67047 0.320803 0
M  V30 11268 O 1048.11 -1.86758 0.53245 0
M  V30 11269 C 1045.24 -3.2019 1.34519 0
M  V30 11270 C 1044.2 -3.49892 2.46495 0
M  V30 11271 C 1043.52 -4.87411 2.1985 0
M  V30 11272 C 1044.82 -3.4872 3.88834 0
M  V30 11273 H 1046.52 -1.78335 2.40493 0
M  V30 11274 H 1044.06 -0.856566 1.15754 0
M  V30 11275 H 1046.02 -3.98699 1.36445 0
M  V30 11276 H 1044.74 -3.24527 0.367406 0
M  V30 11277 H 1043.4 -2.73734 2.43854 0
M  V30 11278 H 1043.05 -4.88375 1.20411 0
M  V30 11279 H 1042.75 -5.08248 2.94885 0
M  V30 11280 H 1044.27 -5.68228 2.23494 0
M  V30 11281 H 1045.68 -4.1723 3.93182 0
M  V30 11282 H 1044.08 -3.81089 4.63564 0
M  V30 11283 H 1045.15 -2.47665 4.16881 0
M  V30 11284 N 1046.49 -1.27344 -0.928501 0
M  V30 11285 C 1047.44 -1.09835 -2.05034 0
M  V30 11286 C 1048.44 -0.0216643 -1.69386 0
M  V30 11287 O 1049.64 -0.179323 -1.79105 0
M  V30 11288 H 1046.02 -0.338416 -0.671549 0
M  V30 11289 H 1047.99 -2.04879 -2.1695 0
M  V30 11290 C 1046.74 -0.761462 -3.3926 0
M  V30 11291 H 1046.06 -1.58186 -3.67175 0
M  V30 11292 H 1047.5 -0.678812 -4.18531 0
M  V30 11293 C 1045.96 0.534118 -3.32639 0
M  V30 11294 O 1046.49 1.56877 -3.69801 0
M  V30 11295 N 1044.7 0.529437 -2.85736 0
M  V30 11296 H 1044.24 -0.312954 -2.55692 0
M  V30 11297 H 1044.2 1.39637 -2.81689 0
M  V30 11298 N 1047.97 1.13488 -1.09353 0
M  V30 11299 C 1049.22 1.841 -0.82401 0
M  V30 11300 C 1049.53 1.84393 0.652586 0
M  V30 11301 O 1050.74 2.5089 1.03762 0
M  V30 11302 C 1049.2 3.30523 -1.42418 0
M  V30 11303 C 1048.8 3.38621 -2.93326 0
M  V30 11304 C 1050.55 4.06182 -1.23356 0
M  V30 11305 C 1048.46 4.79311 -3.46432 0
M  V30 11306 H 1047.39 0.68974 -0.304589 0
M  V30 11307 H 1050.04 1.27866 -1.31615 0
M  V30 11308 H 1048.42 3.86555 -0.859727 0
M  V30 11309 H 1049.59 2.92587 -3.5599 0
M  V30 11310 H 1047.91 2.76426 -3.11412 0
M  V30 11311 H 1050.5 5.10047 -1.60488 0
M  V30 11312 H 1050.85 4.15936 -0.174152 0
M  V30 11313 H 1051.38 3.56477 -1.76547 0
M  V30 11314 H 1048.12 4.74748 -4.5199 0
M  V30 11315 H 1047.64 5.25842 -2.8853 0
M  V30 11316 H 1049.32 5.48227 -3.43593 0
M  V30 11317 N 1049.45 0.880621 1.30701 0
M  V30 11318 C 1050.4 0.315679 2.25804 0
M  V30 11319 C 1051.39 -0.553382 1.51084 0
M  V30 11320 O 1052.58 -0.398518 1.72455 0
M  V30 11321 C 1049.71 -0.472586 3.40032 0
M  V30 11322 C 1048.79 0.410318 4.2211 0
M  V30 11323 N 1049.18 1.50876 4.82773 0
M  V30 11324 C 1047.48 0.20465 4.4553 0
M  V30 11325 C 1048.18 2.05409 5.44226 0
M  V30 11326 N 1047.16 1.34964 5.26579 0
M  V30 11327 H 1050.96 1.15505 2.70251 0
M  V30 11328 H 1048.47 0.729547 1.45091 0
M  V30 11329 H 1050.47 -0.893918 4.07204 0
M  V30 11330 H 1049.13 -1.30945 2.97125 0
M  V30 11331 H 1050.14 1.89163 4.82118 0
M  V30 11332 H 1046.82 -0.595398 4.13233 0
M  V30 11333 H 1048.21 2.97627 6.02385 0
M  V30 11334 N 1050.93 -1.4397 0.641131 0
M  V30 11335 C 1052.18 -2.01163 0.147026 0
M  V30 11336 C 1052.49 -1.51099 -1.24211 0
M  V30 11337 O 1053.7 -2.00487 -1.83078 0
M  V30 11338 C 1052.15 -3.59275 0.212068 0
M  V30 11339 C 1051.76 -4.18334 1.60314 0
M  V30 11340 C 1053.51 -4.23903 -0.225057 0
M  V30 11341 C 1051.41 -5.68701 1.62276 0
M  V30 11342 H 1050.34 -0.75226 0.051201 0
M  V30 11343 H 1052.99 -1.65075 0.801396 0
M  V30 11344 H 1051.38 -3.92708 -0.509589 0
M  V30 11345 H 1052.55 -3.96422 2.34918 0
M  V30 11346 H 1050.86 -3.66031 1.9852 0
M  V30 11347 H 1053.46 -5.34205 -0.230074 0
M  V30 11348 H 1053.8 -3.96956 -1.25426 0
M  V30 11349 H 1054.34 -3.95309 0.44444 0
M  V30 11350 H 1051.08 -6.00397 2.63066 0
M  V30 11351 H 1050.6 -5.92705 0.919797 0
M  V30 11352 H 1052.28 -6.32521 1.36112 0
M  V30 11353 N 1052.41 -0.382291 -1.52893 0
M  V30 11354 C 1053.37 0.44408 -2.24857 0
M  V30 11355 C 1054.37 0.996004 -1.26239 0
M  V30 11356 O 1055.56 0.879114 -1.5039 0
M  V30 11357 C 1052.69 1.62234 -2.99822 0
M  V30 11358 H 1053.89 -0.185862 -2.99324 0
M  V30 11359 H 1051.44 -0.134275 -1.55722 0
M  V30 11360 H 1052.17 2.28991 -2.29638 0
M  V30 11361 H 1051.96 1.23336 -3.72197 0
M  V30 11362 H 1053.45 2.20756 -3.54481 0
M  V30 11363 N 1053.89 1.57202 -0.111913 0
M  V30 11364 C 1054.8 2.18475 0.854753 0
M  V30 11365 C 1055.81 1.15888 1.29792 0
M  V30 11366 O 1056.99 1.48329 1.36237 0
M  V30 11367 C 1054.05 2.76645 2.0897 0
M  V30 11368 C 1053.11 3.94244 1.69913 0
M  V30 11369 C 1052.35 4.49631 2.8752 0
M  V30 11370 O 1052.57 4.03926 4.02741 0
M  V30 11371 O 1051.5 5.40417 2.65015 0
M  V30 11372 H 1055.33 3.01519 0.363352 0
M  V30 11373 H 1052.91 1.4897 0.113329 0
M  V30 11374 H 1054.8 3.13755 2.81311 0
M  V30 11375 H 1053.47 1.96637 2.5713 0
M  V30 11376 H 1052.38 3.61915 0.947013 0
M  V30 11377 H 1053.71 4.75666 1.26501 0
M  V30 11378 N 1055.36 -0.161842 1.56767 0
M  V30 11379 C 1056.77 -0.723385 1.72116 0
M  V30 11380 C 1057.13 -1.82355 0.723961 0
M  V30 11381 O 1056.25 -2.16107 -0.112643 0
M  V30 11382 C 1056.85 -1.31895 3.12072 0
M  V30 11383 C 1055.4 -1.82722 3.29074 0
M  V30 11384 C 1054.55 -0.709863 2.6806 0
M  V30 11385 H 1057.5 0.0636647 1.58572 0
M  V30 11386 H 1057.52 -2.18871 3.11249 0
M  V30 11387 H 1057.04 -0.51801 3.84627 0
M  V30 11388 H 1055.14 -2.6543 2.61491 0
M  V30 11389 H 1055.25 -1.96614 4.36898 0
M  V30 11390 H 1053.61 -1.13273 2.28126 0
M  V30 11391 H 1054.4 0.0793884 3.43208 0
M  V30 11392 N 1056.84 -1.516 -0.430713 0
M  V30 11393 C 1057.79 -1.73975 -1.54387 0
M  V30 11394 C 1058.78 -0.606222 -1.58181 0
M  V30 11395 O 1059.99 -0.787764 -1.61846 0
M  V30 11396 H 1056.36 -0.549811 -0.513041 0
M  V30 11397 H 1058.34 -2.67274 -1.32692 0
M  V30 11398 C 1057.08 -1.88794 -2.9198 0
M  V30 11399 H 1056.41 -2.75425 -2.89795 0
M  V30 11400 H 1057.85 -2.08458 -3.69217 0
M  V30 11401 C 1056.31 -0.649427 -3.30581 0
M  V30 11402 O 1056.84 0.192823 -4.01237 0
M  V30 11403 N 1055.04 -0.491586 -2.86412 0
M  V30 11404 H 1054.59 -1.17806 -2.29084 0
M  V30 11405 H 1054.55 0.33583 -3.12601 0
M  V30 11406 N 1058.32 0.686584 -1.41858 0
M  V30 11407 C 1059.55 1.47305 -1.44862 0
M  V30 11408 C 1059.96 1.8912 -0.0549286 0
M  V30 11409 O 1059.3 1.57941 0.938101 0
M  V30 11410 C 1059.36 2.76107 -2.30229 0
M  V30 11411 C 1059.03 2.5644 -3.78269 0
M  V30 11412 C 1060.02 2.21803 -4.70212 0
M  V30 11413 C 1057.71 2.71801 -4.22409 0
M  V30 11414 C 1059.7 2.02778 -6.04284 0
M  V30 11415 C 1057.39 2.52392 -5.56544 0
M  V30 11416 C 1058.39 2.17933 -6.47298 0
M  V30 11417 O 1058.08 1.98701 -7.78956 0
M  V30 11418 H 1057.81 0.460174 -0.495193 0
M  V30 11419 H 1060.36 0.852069 -1.86893 0
M  V30 11420 H 1058.59 3.40644 -1.83026 0
M  V30 11421 H 1060.28 3.37947 -2.24826 0
M  V30 11422 H 1061.05 2.09542 -4.37398 0
M  V30 11423 H 1056.93 2.97605 -3.52069 0
M  V30 11424 H 1060.47 1.75805 -6.75084 0
M  V30 11425 H 1056.37 2.64246 -5.88935 0
M  V30 11426 H 1057.13 2.13393 -7.90193 0
M  V30 11427 N 1059.8 1.27835 0.921735 0
M  V30 11428 C 1061.05 1.14296 1.66676 0
M  V30 11429 C 1061.37 -0.310493 1.92512 0
M  V30 11430 O 1060.64 -1.21637 1.53562 0
M  V30 11431 H 1059.22 0.419994 0.617749 0
M  V30 11432 H 1061.88 1.60449 1.10644 0
M  V30 11433 H 1060.97 1.67654 2.63246 0
M  V30 11434 N 1061.28 -1.12907 1.09954 0
M  V30 11435 C 1062.22 -2.18485 0.743848 0
M  V30 11436 C 1063.19 -1.63766 -0.277494 0
M  V30 11437 O 1064.38 -1.90146 -0.157899 0
M  V30 11438 C 1061.52 -3.44649 0.176437 0
M  V30 11439 C 1060.63 -4.13445 1.25248 0
M  V30 11440 C 1059.77 -5.27242 0.647242 0
M  V30 11441 C 1058.8 -5.87897 1.70421 0
M  V30 11442 N 1057.94 -6.93116 1.1196 0
M  V30 11443 H 1062.78 -2.48257 1.64841 0
M  V30 11444 H 1060.32 -1.21891 0.823471 0
M  V30 11445 H 1062.28 -4.16852 -0.170384 0
M  V30 11446 H 1060.91 -3.15309 -0.69137 0
M  V30 11447 H 1059.96 -3.39471 1.7165 0
M  V30 11448 H 1061.27 -4.54601 2.05279 0
M  V30 11449 H 1060.42 -6.06186 0.249579 0
M  V30 11450 H 1059.16 -4.87351 -0.184556 0
M  V30 11451 H 1058.17 -5.07643 2.11136 0
M  V30 11452 H 1059.39 -6.2986 2.53877 0
M  V30 11453 H 1057.34 -6.55271 0.309181 0
M  V30 11454 H 1057.26 -7.32843 1.85681 0
M  V30 11455 H 1058.52 -7.759 0.748326 0
M  V30 11456 N 1062.75 -0.88754 -1.30232 0
M  V30 11457 C 1063.68 -0.372481 -2.3051 0
M  V30 11458 C 1064.66 0.546037 -1.61098 0
M  V30 11459 O 1065.85 0.459345 -1.88689 0
M  V30 11460 C 1062.98 0.411605 -3.44852 0
M  V30 11461 C 1061.93 -0.415383 -4.2598 0
M  V30 11462 C 1061.26 0.495463 -5.324 0
M  V30 11463 C 1062.56 -1.65886 -4.95257 0
M  V30 11464 H 1064.25 -1.21045 -2.7384 0
M  V30 11465 H 1061.8 -0.583498 -1.31648 0
M  V30 11466 H 1063.75 0.782584 -4.1407 0
M  V30 11467 H 1062.48 1.28325 -3.00334 0
M  V30 11468 H 1061.14 -0.768534 -3.58454 0
M  V30 11469 H 1060.78 1.36489 -4.84128 0
M  V30 11470 H 1060.48 -0.0540885 -5.87575 0
M  V30 11471 H 1062.01 0.862901 -6.04472 0
M  V30 11472 H 1063.42 -1.35832 -5.56976 0
M  V30 11473 H 1061.82 -2.14881 -5.60309 0
M  V30 11474 H 1062.89 -2.40181 -4.21237 0
M  V30 11475 N 1064.23 1.43628 -0.648757 0
M  V30 11476 C 1065.46 2.06217 -0.167945 0
M  V30 11477 C 1065.88 1.486 1.16462 0
M  V30 11478 O 1065.23 0.61559 1.71804 0
M  V30 11479 C 1065.28 3.6144 -0.0660114 0
M  V30 11480 O 1065 4.16914 -1.34589 0
M  V30 11481 C 1066.51 4.41097 0.441408 0
M  V30 11482 H 1063.73 0.665228 -0.0878237 0
M  V30 11483 H 1066.27 1.84207 -0.888144 0
M  V30 11484 H 1064.42 3.82651 0.604722 0
M  V30 11485 H 1064.84 5.10537 -1.20218 0
M  V30 11486 H 1066.31 5.50066 0.461697 0
M  V30 11487 H 1066.79 4.13803 1.47187 0
M  V30 11488 H 1067.4 4.24845 -0.19668 0
M  V30 11489 N 1065.71 0.390394 1.52688 0
M  V30 11490 C 1066.94 -0.194013 2.06491 0
M  V30 11491 C 1067.36 -1.3965 1.26014 0
M  V30 11492 O 1066.72 -1.79038 0.285468 0
M  V30 11493 C 1066.77 -0.541306 3.56514 0
M  V30 11494 O 1065.87 -1.63509 3.78601 0
M  V30 11495 H 1065.21 -0.0223608 0.663623 0
M  V30 11496 H 1067.74 0.558179 1.96839 0
M  V30 11497 H 1067.75 -0.805301 3.99974 0
M  V30 11498 H 1066.43 0.337828 4.14526 0
M  V30 11499 H 1065 -1.36473 3.4703 0
M  V30 11500 N 1067.19 -1.57141 0.120249 0
M  V30 11501 C 1068.12 -2.11097 -0.8668 0
M  V30 11502 C 1069.1 -1.02768 -1.26006 0
M  V30 11503 O 1070.28 -1.3043 -1.36089 0
M  V30 11504 C 1067.41 -2.6087 -2.1602 0
M  V30 11505 C 1066.46 -3.81095 -1.91491 0
M  V30 11506 S 1067.29 -5.23441 -1.13005 0
M  V30 11507 C 1068.45 -5.76583 -2.43521 0
M  V30 11508 H 1068.68 -2.94489 -0.407871 0
M  V30 11509 H 1066.21 -1.54116 -0.0935491 0
M  V30 11510 H 1068.17 -2.90201 -2.90333 0
M  V30 11511 H 1066.83 -1.77657 -2.5903 0
M  V30 11512 H 1066.02 -4.14074 -2.8733 0
M  V30 11513 H 1065.63 -3.52387 -1.25297 0
M  V30 11514 H 1067.92 -5.86384 -3.39352 0
M  V30 11515 H 1068.86 -6.74644 -2.15085 0
M  V30 11516 H 1069.27 -5.04657 -2.52946 0
M  V30 11517 N 1068.67 0.153526 -1.5685 0
M  V30 11518 C 1069.62 1.19478 -1.94188 0
M  V30 11519 C 1070.6 1.38889 -0.812329 0
M  V30 11520 O 1071.79 1.4056 -1.07572 0
M  V30 11521 C 1068.92 2.53 -2.32047 0
M  V30 11522 C 1068.01 2.37209 -3.51557 0
M  V30 11523 N 1068.4 1.91162 -4.68285 0
M  V30 11524 C 1066.7 2.67981 -3.56514 0
M  V30 11525 C 1067.4 1.88259 -5.50394 0
M  V30 11526 N 1066.37 2.31329 -4.91923 0
M  V30 11527 H 1070.18 0.830748 -2.81915 0
M  V30 11528 H 1067.69 0.361643 -1.58322 0
M  V30 11529 H 1069.69 3.28264 -2.56998 0
M  V30 11530 H 1068.35 2.90191 -1.45669 0
M  V30 11531 H 1069.36 1.61227 -4.92165 0
M  V30 11532 H 1066.03 3.0909 -2.80659 0
M  V30 11533 H 1067.42 1.54205 -6.53965 0
M  V30 11534 N 1070.14 1.51827 0.422667 0
M  V30 11535 C 1071.39 1.6522 1.17084 0
M  V30 11536 C 1071.72 0.375508 1.90841 0
M  V30 11537 O 1070.97 -0.641029 1.84903 0
M  V30 11538 C 1071.27 2.81572 2.20119 0
M  V30 11539 C 1070.94 4.20303 1.63268 0
M  V30 11540 C 1069.6 4.5804 1.47488 0
M  V30 11541 C 1071.95 5.06812 1.21618 0
M  V30 11542 C 1069.28 5.79979 0.885531 0
M  V30 11543 C 1071.63 6.29343 0.641071 0
M  V30 11544 C 1070.3 6.65841 0.470286 0
M  V30 11545 H 1069.57 0.604581 0.428442 0
M  V30 11546 H 1072.21 1.85896 0.459874 0
M  V30 11547 H 1070.52 2.55175 2.97309 0
M  V30 11548 H 1072.22 2.89132 2.77856 0
M  V30 11549 H 1068.81 3.90557 1.76531 0
M  V30 11550 H 1072.99 4.78251 1.32624 0
M  V30 11551 H 1068.25 6.06892 0.741105 0
M  V30 11552 H 1072.42 6.9571 0.309888 0
M  V30 11553 H 1070.05 7.60199 0.0115038 0
M  V30 11554 N 1071.62 -0.679052 1.4222 0
M  V30 11555 C 1072.85 -1.46534 1.45641 0
M  V30 11556 C 1073.26 -1.89088 0.0649574 0
M  V30 11557 O 1072.6 -1.58436 -0.929712 0
M  V30 11558 C 1072.67 -2.74882 2.3169 0
M  V30 11559 C 1072.33 -2.5443 3.79624 0
M  V30 11560 C 1073.33 -2.19307 4.71382 0
M  V30 11561 C 1071.01 -2.69557 4.23845 0
M  V30 11562 C 1073.01 -1.99571 6.05351 0
M  V30 11563 C 1070.69 -2.49437 5.57875 0
M  V30 11564 C 1071.69 -2.14497 6.48444 0
M  V30 11565 O 1071.38 -1.94567 7.79999 0
M  V30 11566 H 1071.11 -0.457542 0.497626 0
M  V30 11567 H 1073.66 -0.842145 1.87342 0
M  V30 11568 H 1071.89 -3.39669 1.8483 0
M  V30 11569 H 1073.58 -3.3675 2.26615 0
M  V30 11570 H 1074.35 -2.0722 4.38503 0
M  V30 11571 H 1070.23 -2.95733 3.53642 0
M  V30 11572 H 1073.77 -1.72222 6.76007 0
M  V30 11573 H 1069.67 -2.61119 5.90328 0
M  V30 11574 H 1070.44 -2.092 7.91314 0
M  V30 11575 N 1073.1 -1.28322 -0.914942 0
M  V30 11576 C 1074.35 -1.15179 -1.66067 0
M  V30 11577 C 1074.67 0.300279 -1.92674 0
M  V30 11578 O 1073.94 1.20821 -1.54205 0
M  V30 11579 H 1072.52 -0.423264 -0.615513 0
M  V30 11580 H 1075.18 -1.61034 -1.09791 0
M  V30 11581 H 1074.28 -1.69048 -2.62353 0
M  V30 11582 N 1074.58 1.12322 -1.10551 0
M  V30 11583 C 1075.82 1.84333 -0.859826 0
M  V30 11584 C 1076.18 1.82539 0.608052 0
M  V30 11585 O 1075.47 1.26086 1.44267 0
M  V30 11586 C 1075.67 3.31177 -1.34375 0
M  V30 11587 C 1075.5 3.47272 -2.85714 0
M  V30 11588 C 1074.27 3.60837 -3.5373 0
M  V30 11589 C 1076.46 3.42336 -3.83811 0
M  V30 11590 N 1074.45 3.65309 -4.93378 0
M  V30 11591 C 1075.82 3.53318 -5.09477 0
M  V30 11592 C 1077.87 3.25809 -3.76501 0
M  V30 11593 C 1076.57 3.49477 -6.28695 0
M  V30 11594 C 1078.6 3.23282 -4.9522 0
M  V30 11595 C 1077.96 3.34826 -6.19735 0
M  V30 11596 H 1074.06 0.690186 -0.367651 0
M  V30 11597 H 1076.65 1.34463 -1.40811 0
M  V30 11598 H 1074.82 3.79585 -0.822767 0
M  V30 11599 H 1076.55 3.91051 -1.04217 0
M  V30 11600 H 1073.3 3.63005 -3.04178 0
M  V30 11601 H 1073.73 3.71207 -5.66157 0
M  V30 11602 H 1078.37 3.15777 -2.81149 0
M  V30 11603 H 1076.09 3.5828 -7.24335 0
M  V30 11604 H 1079.67 3.11674 -4.91274 0
M  V30 11605 H 1078.55 3.32847 -7.10058 0
M  V30 11606 N 1076.06 0.894434 1.2976 0
M  V30 11607 C 1077 0.366586 2.2787 0
M  V30 11608 C 1077.97 -0.548425 1.56785 0
M  V30 11609 O 1079.16 -0.474804 1.84798 0
M  V30 11610 C 1076.3 -0.404531 3.42721 0
M  V30 11611 C 1075.41 0.540774 4.28602 0
M  V30 11612 C 1074.55 -0.246875 5.30626 0
M  V30 11613 C 1073.59 0.693294 6.08161 0
M  V30 11614 N 1072.72 -0.059619 7.02075 0
M  V30 11615 H 1077.56 1.20834 2.72402 0
M  V30 11616 H 1075.1 0.607205 1.33983 0
M  V30 11617 H 1077.06 -0.86762 4.08079 0
M  V30 11618 H 1075.69 -1.21078 2.99232 0
M  V30 11619 H 1074.74 1.12237 3.63465 0
M  V30 11620 H 1076.05 1.26065 4.82606 0
M  V30 11621 H 1075.21 -0.771398 6.01776 0
M  V30 11622 H 1073.94 -0.999918 4.77339 0
M  V30 11623 H 1072.95 1.22936 5.35879 0
M  V30 11624 H 1074.17 1.44558 6.63536 0
M  V30 11625 H 1072.12 -0.795026 6.51165 0
M  V30 11626 H 1072.04 0.60045 7.53612 0
M  V30 11627 H 1073.31 -0.564577 7.77453 0
M  V30 11628 N 1077.53 -1.43282 0.656365 0
M  V30 11629 C 1078.47 -2.29087 -0.0720378 0
M  V30 11630 C 1079.48 -1.4268 -0.783982 0
M  V30 11631 O 1080.67 -1.66585 -0.641213 0
M  V30 11632 C 1077.77 -3.19676 -1.12519 0
M  V30 11633 C 1076.94 -4.34638 -0.490756 0
M  V30 11634 C 1076 -5.06079 -1.44121 0
M  V30 11635 O 1075.03 -5.6124 -0.948595 0
M  V30 11636 N 1076.23 -5.09872 -2.77509 0
M  V30 11637 H 1078.99 -2.92241 0.664456 0
M  V30 11638 H 1076.55 -1.54006 0.499383 0
M  V30 11639 H 1078.55 -3.64334 -1.76189 0
M  V30 11640 H 1077.12 -2.581 -1.76362 0
M  V30 11641 H 1076.34 -3.92857 0.3251 0
M  V30 11642 H 1077.62 -5.08777 -0.0480061 0
M  V30 11643 H 1077.02 -4.66433 -3.20088 0
M  V30 11644 H 1075.58 -5.58237 -3.36474 0
M  V30 11645 N 1079.01 -0.398486 -1.52479 0
M  V30 11646 C 1080.26 0.180394 -2.01293 0
M  V30 11647 C 1080.58 1.46548 -1.28641 0
M  V30 11648 O 1079.85 1.91579 -0.409173 0
M  V30 11649 H 1078.43 0.0696528 -0.743746 0
M  V30 11650 H 1081.09 -0.532285 -1.87491 0
M  V30 11651 H 1080.19 0.38409 -3.09728 0
M  V30 11652 N 1080.49 1.57075 -0.12858 0
M  V30 11653 C 1081.42 2.18833 0.814519 0
M  V30 11654 C 1082.4 1.13114 1.2704 0
M  V30 11655 O 1083.59 1.41387 1.33129 0
M  V30 11656 C 1080.72 2.79535 2.06101 0
M  V30 11657 C 1079.67 3.9092 1.74257 0
M  V30 11658 C 1079 4.38473 3.06015 0
M  V30 11659 C 1080.3 5.1257 1.00345 0
M  V30 11660 H 1081.99 2.97895 0.299862 0
M  V30 11661 H 1079.54 1.4329 0.14279 0
M  V30 11662 H 1081.49 3.21401 2.72543 0
M  V30 11663 H 1080.21 1.97777 2.59907 0
M  V30 11664 H 1078.87 3.49645 1.102 0
M  V30 11665 H 1078.52 3.53561 3.57776 0
M  V30 11666 H 1078.22 5.13591 2.85479 0
M  V30 11667 H 1079.75 4.82997 3.7356 0
M  V30 11668 H 1081.16 5.51395 1.56959 0
M  V30 11669 H 1079.56 5.93333 0.898693 0
M  V30 11670 H 1080.63 4.84899 -0.0081335 0
M  V30 11671 N 1081.97 -0.145205 1.5693 0
M  V30 11672 C 1082.92 -1.17923 1.98401 0
M  V30 11673 C 1083.89 -1.42591 0.851885 0
M  V30 11674 O 1085.07 -1.54896 1.11409 0
M  V30 11675 C 1082.21 -2.50727 2.37128 0
M  V30 11676 C 1081.32 -2.33218 3.63639 0
M  V30 11677 C 1080.46 -3.5907 3.91462 0
M  V30 11678 C 1079.5 -3.36605 5.11237 0
M  V30 11679 N 1078.64 -4.54592 5.35061 0
M  V30 11680 H 1083.48 -0.818573 2.86537 0
M  V30 11681 H 1081.01 -0.392739 1.4176 0
M  V30 11682 H 1082.97 -3.28165 2.57611 0
M  V30 11683 H 1081.6 -2.84736 1.52069 0
M  V30 11684 H 1080.65 -1.46826 3.50922 0
M  V30 11685 H 1081.96 -2.12579 4.51234 0
M  V30 11686 H 1081.12 -4.44936 4.12453 0
M  V30 11687 H 1079.86 -3.82715 3.02293 0
M  V30 11688 H 1078.86 -2.49127 4.90118 0
M  V30 11689 H 1080.09 -3.14357 6.01961 0
M  V30 11690 H 1078.03 -4.78406 4.48847 0
M  V30 11691 H 1077.95 -4.36962 6.16928 0
M  V30 11692 H 1079.22 -5.41666 5.60551 0
M  V30 11693 N 1083.45 -1.52049 -0.414609 0
M  V30 11694 C 1084.68 -1.69679 -1.18392 0
M  V30 11695 C 1085.09 -0.403881 -1.84429 0
M  V30 11696 O 1084.45 0.619636 -1.71659 0
M  V30 11697 C 1084.5 -2.82855 -2.25112 0
M  V30 11698 O 1084.22 -4.07138 -1.61772 0
M  V30 11699 C 1085.72 -3.11948 -3.14965 0
M  V30 11700 H 1082.94 -0.56879 -0.355977 0
M  V30 11701 H 1085.48 -1.9858 -0.488505 0
M  V30 11702 H 1083.64 -2.56488 -2.90332 0
M  V30 11703 H 1084.05 -4.70163 -2.32479 0
M  V30 11704 H 1085.53 -3.94665 -3.85932 0
M  V30 11705 H 1086 -2.25276 -3.77024 0
M  V30 11706 H 1086.61 -3.40059 -2.55421 0
M  V30 11707 N 1084.93 0.6715 -1.42579 0
M  V30 11708 C 1086.17 1.42871 -1.42941 0
M  V30 11709 C 1086.49 1.94941 -0.0480483 0
M  V30 11710 O 1085.76 1.73275 0.913921 0
M  V30 11711 H 1084.34 0.530189 -0.526221 0
M  V30 11712 H 1087.01 0.793219 -1.78028 0
M  V30 11713 H 1086.1 2.2801 -2.13114 0
M  V30 11714 N 1086.4 1.28806 0.908124 0
M  V30 11715 C 1087.34 1.07538 2.01273 0
M  V30 11716 C 1088.31 -0.0102454 1.62597 0
M  V30 11717 O 1089.5 0.138797 1.87988 0
M  V30 11718 C 1086.63 0.635337 3.32688 0
M  V30 11719 C 1085.67 1.71843 3.90349 0
M  V30 11720 S 1086.5 3.31571 4.20501 0
M  V30 11721 C 1087.66 2.89416 5.54968 0
M  V30 11722 H 1087.89 2.01058 2.19005 0
M  V30 11723 H 1085.43 1.12857 1.05369 0
M  V30 11724 H 1087.38 0.388159 4.08661 0
M  V30 11725 H 1086.05 -0.280122 3.12848 0
M  V30 11726 H 1085.24 1.36228 4.8524 0
M  V30 11727 H 1084.84 1.91869 3.21033 0
M  V30 11728 H 1087.13 2.35936 6.35091 0
M  V30 11729 H 1088.08 3.83126 5.955 0
M  V30 11730 H 1088.48 2.27962 5.16424 0
M  V30 11731 N 1087.88 -1.11734 1.11145 0
M  V30 11732 C 1089.11 -1.86943 0.879534 0
M  V30 11733 C 1089.52 -1.80283 -0.574007 0
M  V30 11734 O 1088.86 -1.17998 -1.40791 0
M  V30 11735 C 1088.92 -3.36738 1.25887 0
M  V30 11736 C 1088.59 -3.67169 2.72095 0
M  V30 11737 C 1089.59 -3.6491 3.7032 0
M  V30 11738 C 1087.27 -3.96272 3.08665 0
M  V30 11739 C 1089.26 -3.91325 5.03134 0
M  V30 11740 C 1086.95 -4.22345 4.41665 0
M  V30 11741 C 1087.95 -4.19859 5.38709 0
M  V30 11742 O 1087.64 -4.4528 6.69314 0
M  V30 11743 H 1087.37 -0.598117 0.315011 0
M  V30 11744 H 1089.92 -1.42253 1.48166 0
M  V30 11745 H 1088.15 -3.82019 0.599873 0
M  V30 11746 H 1089.84 -3.93306 1.00325 0
M  V30 11747 H 1090.61 -3.42481 3.43412 0
M  V30 11748 H 1086.49 -3.97344 2.33749 0
M  V30 11749 H 1090.03 -3.893 5.78871 0
M  V30 11750 H 1085.93 -4.4425 4.68308 0
M  V30 11751 H 1086.7 -4.62863 6.75056 0
M  V30 11752 N 1089.36 -0.901303 -1.29284 0
M  V30 11753 C 1090.59 -0.542723 -1.99344 0
M  V30 11754 C 1091 0.877357 -1.67628 0
M  V30 11755 O 1090.34 1.59088 -0.918515 0
M  V30 11756 C 1090.4 -0.657088 -3.53444 0
M  V30 11757 C 1090.07 -2.04444 -4.0872 0
M  V30 11758 C 1091.06 -3.01577 -4.23494 0
M  V30 11759 C 1088.75 -2.35425 -4.43712 0
M  V30 11760 C 1090.74 -4.27816 -4.72496 0
M  V30 11761 C 1088.43 -3.61906 -4.9241 0
M  V30 11762 C 1089.43 -4.57916 -5.06757 0
M  V30 11763 O 1089.12 -5.8215 -5.54397 0
M  V30 11764 H 1088.85 -0.206742 -0.64361 0
M  V30 11765 H 1091.4 -1.21311 -1.65749 0
M  V30 11766 H 1089.63 0.0703305 -3.86636 0
M  V30 11767 H 1091.32 -0.307425 -4.04734 0
M  V30 11768 H 1092.09 -2.78957 -3.96747 0
M  V30 11769 H 1087.97 -1.61454 -4.31803 0
M  V30 11770 H 1091.51 -5.0276 -4.83609 0
M  V30 11771 H 1087.41 -3.84356 -5.18595 0
M  V30 11772 H 1088.17 -5.84762 -5.72709 0
M  V30 11773 N 1090.84 1.42931 -0.663954 0
M  V30 11774 C 1091.77 2.33499 0.00731327 0
M  V30 11775 C 1092.75 1.50074 0.800733 0
M  V30 11776 O 1093.93 1.78708 0.760062 0
M  V30 11777 C 1091.06 3.33569 0.966897 0
M  V30 11778 C 1090.02 4.27064 0.282839 0
M  V30 11779 C 1089.34 5.17257 1.35461 0
M  V30 11780 C 1090.64 5.1564 -0.831438 0
M  V30 11781 H 1092.34 2.89879 -0.749044 0
M  V30 11782 H 1089.88 1.39385 -0.361656 0
M  V30 11783 H 1091.84 3.95833 1.44549 0
M  V30 11784 H 1090.56 2.75469 1.75455 0
M  V30 11785 H 1089.22 3.6618 -0.175417 0
M  V30 11786 H 1088.87 4.5549 2.13397 0
M  V30 11787 H 1088.57 5.80634 0.902098 0
M  V30 11788 H 1090.09 5.82395 1.83436 0
M  V30 11789 H 1091.51 5.71651 -0.434534 0
M  V30 11790 H 1089.9 5.87794 -1.20908 0
M  V30 11791 H 1090.97 4.54687 -1.68487 0
M  V30 11792 N 1092.32 0.406567 1.52266 0
M  V30 11793 C 1093.73 0.0573228 1.59497 0
M  V30 11794 C 1093.93 -1.43005 1.41957 0
M  V30 11795 O 1092.99 -2.19659 1.24523 0
M  V30 11796 C 1094.3 0.549947 2.95628 0
M  V30 11797 C 1095.85 0.5077 3.08855 0
M  V30 11798 C 1096.32 0.976792 4.47463 0
M  V30 11799 N 1097.81 0.933508 4.53696 0
M  V30 11800 C 1098.55 1.26769 5.59211 0
M  V30 11801 N 1098.05 1.6732 6.72292 0
M  V30 11802 N 1099.84 1.18782 5.49406 0
M  V30 11803 H 1091.99 1.37468 1.61914 0
M  V30 11804 H 1094.25 0.564562 0.76156 0
M  V30 11805 H 1093.96 1.58943 3.13736 0
M  V30 11806 H 1093.83 -0.0417767 3.77177 0
M  V30 11807 H 1096.22 -0.522728 2.90433 0
M  V30 11808 H 1096.3 1.13545 2.29219 0
M  V30 11809 H 1095.94 2.00554 4.66627 0
M  V30 11810 H 1095.87 0.325885 5.25591 0
M  V30 11811 H 1098.37 0.635333 3.72521 0
M  V30 11812 H 1098.68 1.91137 7.4879 0
M  V30 11813 H 1097.02 1.71221 6.73579 0
M  V30 11814 H 1100.21 0.869906 4.59946 0
M  V30 11815 H 1100.39 1.45157 6.31533 0
M  V30 11816 N 1093.79 -1.57004 0.136909 0
M  V30 11817 C 1095.02 -2.00156 -0.523936 0
M  V30 11818 C 1095.44 -1.01688 -1.59075 0
M  V30 11819 O 1094.79 -0.0123678 -1.82496 0
M  V30 11820 C 1094.85 -3.4326 -1.13379 0
M  V30 11821 O 1094.57 -4.37963 -0.109598 0
M  V30 11822 C 1096.07 -4.01637 -1.87623 0
M  V30 11823 H 1093.29 -0.65681 -0.137263 0
M  V30 11824 H 1095.83 -2.03219 0.228522 0
M  V30 11825 H 1093.99 -3.4108 -1.83693 0
M  V30 11826 H 1094.4 -5.21555 -0.55503 0
M  V30 11827 H 1095.87 -5.03795 -2.25597 0
M  V30 11828 H 1096.35 -3.41781 -2.75831 0
M  V30 11829 H 1096.96 -4.07417 -1.22031 0
M  V30 11830 N 1095.27 0.136881 -1.57004 0
M  V30 11831 C 1096.69 0.489856 -1.51897 0
M  V30 11832 C 1096.89 1.82833 -0.847009 0
M  V30 11833 O 1095.94 2.48952 -0.421792 0
M  V30 11834 C 1097.26 0.490831 -2.96667 0
M  V30 11835 C 1098.81 0.575639 -3.07661 0
M  V30 11836 C 1099.28 0.607178 -4.53957 0
M  V30 11837 N 1100.77 0.66912 -4.58342 0
M  V30 11838 C 1101.51 0.714675 -5.68929 0
M  V30 11839 N 1101 0.718959 -6.89059 0
M  V30 11840 N 1102.8 0.756326 -5.56988 0
M  V30 11841 H 1094.95 -0.740347 -1.99079 0
M  V30 11842 H 1097.21 -0.271116 -0.908405 0
M  V30 11843 H 1096.92 -0.424648 -3.49127 0
M  V30 11844 H 1096.79 1.32512 -3.53158 0
M  V30 11845 H 1099.18 1.48154 -2.55215 0
M  V30 11846 H 1099.26 -0.285991 -2.54196 0
M  V30 11847 H 1098.9 -0.294604 -5.07045 0
M  V30 11848 H 1098.83 1.48544 -5.05215 0
M  V30 11849 H 1101.32 0.672697 -3.71864 0
M  V30 11850 H 1101.64 0.755848 -7.69095 0
M  V30 11851 H 1099.98 0.686671 -6.91599 0
M  V30 11852 H 1103.17 0.750219 -4.62049 0
M  V30 11853 H 1103.34 0.788363 -6.43186 0
M  V30 11854 N 1096.75 1.52266 0.40654 0
M  V30 11855 C 1098.16 1.58587 0.985241 0
M  V30 11856 C 1098.51 0.427955 1.91476 0
M  V30 11857 O 1097.64 -0.451341 2.11641 0
M  V30 11858 C 1098.23 2.87426 1.79365 0
M  V30 11859 C 1096.79 2.96217 2.32233 0
M  V30 11860 C 1095.94 2.53548 1.12288 0
M  V30 11861 H 1098.89 1.57598 0.186685 0
M  V30 11862 H 1098.91 2.72925 2.65127 0
M  V30 11863 H 1098.42 3.71682 1.11687 0
M  V30 11864 H 1096.52 2.1646 3.03275 0
M  V30 11865 H 1096.64 4.00511 2.62922 0
M  V30 11866 H 1095 2.07457 1.47763 0
M  V30 11867 H 1095.78 3.40181 0.461731 0
M  V30 11868 N 1098.23 -0.663929 1.42933 0
M  V30 11869 C 1099.19 -1.75899 1.46943 0
M  V30 11870 C 1100.19 -1.5682 0.355535 0
M  V30 11871 O 1101.38 -1.62914 0.616833 0
M  V30 11872 C 1098.51 -3.14657 1.31164 0
M  V30 11873 H 1099.71 -1.73727 2.44456 0
M  V30 11874 H 1097.26 -0.874587 1.2954 0
M  V30 11875 H 1097.99 -3.22447 0.346165 0
M  V30 11876 H 1097.78 -3.29909 2.11902 0
M  V30 11877 H 1099.27 -3.9453 1.36878 0
M  V30 11878 N 1099.71 -1.29285 -0.901281 0
M  V30 11879 C 1100.67 -1.14283 -1.98676 0
M  V30 11880 C 1101.67 -0.0787641 -1.60607 0
M  V30 11881 O 1102.86 -0.325574 -1.71131 0
M  V30 11882 C 1099.99 -0.747279 -3.32609 0
M  V30 11883 H 1101.18 -2.10701 -2.13413 0
M  V30 11884 H 1098.74 -1.12449 -1.08558 0
M  V30 11885 H 1099.47 0.217111 -3.23572 0
M  V30 11886 H 1099.26 -1.51608 -3.61604 0
M  V30 11887 H 1100.75 -0.665322 -4.12266 0
M  V30 11888 N 1101.18 1.11143 -1.11736 0
M  V30 11889 C 1102.13 2.19358 -0.773626 0
M  V30 11890 C 1103.13 1.67744 0.236288 0
M  V30 11891 O 1104.33 1.79748 0.09525 0
M  V30 11892 H 1100.71 0.715218 -0.232309 0
M  V30 11893 H 1102.68 2.45594 -1.69487 0
M  V30 11894 C 1101.43 3.46895 -0.236457 0
M  V30 11895 H 1100.75 3.86967 -1.00483 0
M  V30 11896 H 1102.19 4.23986 -0.034168 0
M  V30 11897 C 1100.65 3.20641 1.03397 0
M  V30 11898 O 1101.18 3.41629 2.11312 0
M  V30 11899 N 1099.39 2.74356 0.957986 0
M  V30 11900 H 1098.93 2.57477 0.0796924 0
M  V30 11901 H 1098.89 2.57166 1.80867 0
M  V30 11902 N 1102.66 0.908147 1.28804 0
M  V30 11903 C 1104.07 0.585727 1.77274 0
M  V30 11904 C 1104.42 -0.898842 1.744 0
M  V30 11905 O 1103.55 -1.70301 1.33516 0
M  V30 11906 C 1104.14 1.05647 3.21907 0
M  V30 11907 C 1102.7 0.785066 3.68122 0
M  V30 11908 C 1101.85 1.22638 2.48707 0
M  V30 11909 H 1104.8 1.09 1.15346 0
M  V30 11910 H 1104.82 0.395442 3.7844 0
M  V30 11911 H 1104.33 2.13698 3.23967 0
M  V30 11912 H 1102.44 -0.282477 3.71528 0
M  V30 11913 H 1102.55 1.38888 4.58527 0
M  V30 11914 H 1100.91 0.645217 2.46392 0
M  V30 11915 H 1101.7 2.31512 2.5349 0
M  V30 11916 N 1104.14 -1.42577 0.671525 0
M  V30 11917 C 1105.39 -2.00806 0.189663 0
M  V30 11918 C 1105.7 -1.537 -1.20978 0
M  V30 11919 O 1106.91 -2.04325 -1.78784 0
M  V30 11920 C 1105.36 -3.58744 0.288227 0
M  V30 11921 C 1104.97 -4.14839 1.69152 0
M  V30 11922 C 1106.72 -4.24285 -0.13509 0
M  V30 11923 C 1104.62 -5.65131 1.74302 0
M  V30 11924 H 1103.55 -0.751004 0.067146 0
M  V30 11925 H 1106.2 -1.63338 0.83623 0
M  V30 11926 H 1104.59 -3.937 -0.426175 0
M  V30 11927 H 1105.76 -3.91349 2.43274 0
M  V30 11928 H 1104.08 -3.61738 2.0624 0
M  V30 11929 H 1106.67 -5.34573 -0.116709 0
M  V30 11930 H 1107.02 -3.99527 -1.16977 0
M  V30 11931 H 1107.55 -3.94278 0.528191 0
M  V30 11932 H 1104.29 -5.94682 2.75742 0
M  V30 11933 H 1103.81 -5.90621 1.04531 0
M  V30 11934 H 1105.49 -6.29491 1.49498 0
M  V30 11935 N 1105.62 -0.414636 -1.52048 0
M  V30 11936 C 1106.55 0.443601 -2.24866 0
M  V30 11937 C 1107.56 1.00556 -1.28032 0
M  V30 11938 O 1108.75 0.903566 -1.53941 0
M  V30 11939 C 1105.85 1.63004 -2.97124 0
M  V30 11940 C 1105.03 1.191 -4.20873 0
M  V30 11941 C 1104.08 2.24497 -4.75907 0
M  V30 11942 O 1103.11 1.84861 -5.38345 0
M  V30 11943 N 1104.31 3.56727 -4.57959 0
M  V30 11944 H 1107.08 -0.180393 -2.99157 0
M  V30 11945 H 1104.64 -0.242305 -1.60077 0
M  V30 11946 H 1106.63 2.33089 -3.30835 0
M  V30 11947 H 1105.2 2.15984 -2.25986 0
M  V30 11948 H 1104.42 0.318059 -3.92915 0
M  V30 11949 H 1105.71 0.874699 -5.01225 0
M  V30 11950 H 1105.11 3.91675 -4.08175 0
M  V30 11951 H 1103.66 4.22772 -4.96092 0
M  V30 11952 N 1107.1 1.56929 -0.145233 0
M  V30 11953 C 1108.34 1.96068 0.50632 0
M  V30 11954 C 1108.67 1.02999 1.64989 0
M  V30 11955 O 1107.93 0.0588581 1.95611 0
M  V30 11956 C 1108.23 3.41467 1.05522 0
M  V30 11957 C 1107.89 4.5089 0.0302827 0
M  V30 11958 C 1106.55 4.80542 -0.251475 0
M  V30 11959 C 1108.91 5.16917 -0.666783 0
M  V30 11960 C 1106.23 5.7353 -1.23614 0
M  V30 11961 C 1108.59 6.10965 -1.64025 0
M  V30 11962 C 1107.25 6.38998 -1.92973 0
M  V30 11963 H 1106.52 0.717464 0.185276 0
M  V30 11964 H 1109.17 1.90093 -0.23169 0
M  V30 11965 H 1107.47 3.44265 1.87053 0
M  V30 11966 H 1109.17 3.69077 1.5679 0
M  V30 11967 H 1105.76 4.2781 0.260069 0
M  V30 11968 H 1109.94 4.94142 -0.462297 0
M  V30 11969 H 1105.2 5.93543 -1.46687 0
M  V30 11970 H 1109.37 6.61204 -2.18591 0
M  V30 11971 H 1107 7.10855 -2.69423 0
M  V30 11972 N 1108.58 -0.128553 1.57075 0
M  V30 11973 C 1109.8 -0.85245 1.88523 0
M  V30 11974 C 1110.22 -1.73886 0.735459 0
M  V30 11975 O 1109.58 -1.80114 -0.294113 0
M  V30 11976 C 1109.63 -1.69384 3.19361 0
M  V30 11977 O 1109.35 -0.84313 4.2991 0
M  V30 11978 C 1110.85 -2.52373 3.64449 0
M  V30 11979 H 1108.07 -0.245556 0.624454 0
M  V30 11980 H 1110.61 -0.115807 2.04172 0
M  V30 11981 H 1108.77 -2.38335 3.0541 0
M  V30 11982 H 1109.18 -1.42255 5.0484 0
M  V30 11983 H 1110.66 -3.06955 4.58784 0
M  V30 11984 H 1111.13 -3.29283 2.90636 0
M  V30 11985 H 1111.74 -1.88681 3.81155 0
M  V30 11986 N 1110.05 -1.5248 -0.398459 0
M  V30 11987 C 1110.98 -1.79549 -1.49279 0
M  V30 11988 C 1111.96 -0.647004 -1.57315 0
M  V30 11989 O 1113.15 -0.893661 -1.72416 0
M  V30 11990 C 1110.28 -1.95582 -2.86993 0
M  V30 11991 C 1109.23 -3.1123 -2.93803 0
M  V30 11992 C 1108.56 -3.12501 -4.33874 0
M  V30 11993 C 1109.86 -4.50485 -2.64312 0
M  V30 11994 H 1111.55 -2.71187 -1.26877 0
M  V30 11995 H 1109.1 -1.30492 -0.608924 0
M  V30 11996 H 1111.05 -2.13102 -3.63546 0
M  V30 11997 H 1109.78 -1.00625 -3.10712 0
M  V30 11998 H 1108.44 -2.93477 -2.19697 0
M  V30 11999 H 1108.08 -2.15245 -4.54619 0
M  V30 12000 H 1107.78 -3.90183 -4.39353 0
M  V30 12001 H 1109.31 -3.32164 -5.12347 0
M  V30 12002 H 1110.72 -4.68387 -3.30585 0
M  V30 12003 H 1109.12 -5.30163 -2.81153 0
M  V30 12004 H 1110.19 -4.57848 -1.59696 0
M  V30 12005 N 1111.53 0.65634 -1.43283 0
M  V30 12006 C 1112.48 1.79058 -1.48462 0
M  V30 12007 C 1113.47 1.65563 -0.358512 0
M  V30 12008 O 1114.68 1.71947 -0.532365 0
M  V30 12009 H 1111.05 0.590716 -0.465358 0
M  V30 12010 H 1113.03 1.7181 -2.43975 0
M  V30 12011 C 1111.77 3.17304 -1.42175 0
M  V30 12012 H 1111.1 3.28324 -2.2813 0
M  V30 12013 H 1112.54 3.96633 -1.4986 0
M  V30 12014 C 1111 3.36613 -0.138929 0
M  V30 12015 O 1111.53 3.93633 0.80101 0
M  V30 12016 N 1109.73 2.90557 -0.0501237 0
M  V30 12017 H 1109.28 2.4434 -0.815821 0
M  V30 12018 H 1109.24 3.03853 0.807504 0
M  V30 12019 N 1113.01 1.29761 0.894412 0
M  V30 12020 C 1113.96 1.15341 1.99912 0
M  V30 12021 C 1114.93 0.0453488 1.66038 0
M  V30 12022 O 1116.11 0.213829 1.89598 0
M  V30 12023 C 1113.25 0.841432 3.34685 0
M  V30 12024 C 1112.36 2.03046 3.81309 0
M  V30 12025 C 1111.5 1.65739 5.04682 0
M  V30 12026 C 1110.54 2.81191 5.43689 0
M  V30 12027 N 1109.68 2.44244 6.58247 0
M  V30 12028 H 1114.52 2.09854 2.11578 0
M  V30 12029 H 1112.05 1.04421 1.03608 0
M  V30 12030 H 1114.01 0.641211 4.12243 0
M  V30 12031 H 1112.64 -0.066797 3.22731 0
M  V30 12032 H 1111.69 2.34222 2.9974 0
M  V30 12033 H 1113 2.89538 4.06164 0
M  V30 12034 H 1112.16 1.42036 5.8984 0
M  V30 12035 H 1110.9 0.764019 4.81678 0
M  V30 12036 H 1109.9 3.0557 4.57064 0
M  V30 12037 H 1111.13 3.712 5.68672 0
M  V30 12038 H 1109.07 1.57402 6.36837 0
M  V30 12039 H 1108.99 3.24269 6.82924 0
M  V30 12040 H 1110.26 2.23875 7.46659 0
M  V30 12041 N 1114.49 -1.10549 1.12324 0
M  V30 12042 C 1115.4 -2.20428 0.803032 0
M  V30 12043 C 1116.41 -1.72756 -0.207674 0
M  V30 12044 O 1117.59 -2.01357 -0.0415623 0
M  V30 12045 C 1114.65 -3.45716 0.261032 0
M  V30 12046 C 1113.72 -4.08129 1.33152 0
M  V30 12047 C 1112.95 -5.27436 0.815288 0
M  V30 12048 O 1113.17 -5.69317 -0.351361 0
M  V30 12049 O 1112.11 -5.80674 1.58434 0
M  V30 12050 H 1115.93 -2.50249 1.72073 0
M  V30 12051 H 1113.52 -1.19263 0.899815 0
M  V30 12052 H 1115.4 -4.21384 -0.0364007 0
M  V30 12053 H 1114.07 -3.17525 -0.629249 0
M  V30 12054 H 1112.98 -3.3415 1.6821 0
M  V30 12055 H 1114.31 -4.4052 2.19552 0
M  V30 12056 N 1115.97 -0.914965 -1.28321 0
M  V30 12057 C 1116.91 -0.402792 -2.27258 0
M  V30 12058 C 1117.88 0.523412 -1.57638 0
M  V30 12059 O 1119.07 0.445344 -1.8553 0
M  V30 12060 C 1116.21 0.349956 -3.43321 0
M  V30 12061 C 1115.32 -0.608892 -4.27687 0
M  V30 12062 C 1114.46 0.162425 -5.30952 0
M  V30 12063 C 1113.49 -0.789959 -6.06981 0
M  V30 12064 N 1112.63 -0.0520826 -7.02081 0
M  V30 12065 H 1117.47 -1.25153 -2.70446 0
M  V30 12066 H 1115.01 -0.628444 -1.33 0
M  V30 12067 H 1116.97 0.802589 -4.09407 0
M  V30 12068 H 1115.6 1.16303 -3.01121 0
M  V30 12069 H 1114.65 -1.18005 -3.61634 0
M  V30 12070 H 1115.96 -1.33727 -4.8054 0
M  V30 12071 H 1115.11 0.675563 -6.02927 0
M  V30 12072 H 1113.85 0.923851 -4.7887 0
M  V30 12073 H 1112.86 -1.31446 -5.33856 0
M  V30 12074 H 1114.08 -1.55096 -6.61152 0
M  V30 12075 H 1112.03 0.691331 -6.52347 0
M  V30 12076 H 1111.95 -0.720267 -7.52561 0
M  V30 12077 H 1113.21 0.44082 -7.78253 0
M  V30 12078 N 1117.44 1.42219 -0.679077 0
M  V30 12079 C 1118.37 2.33493 -0.0174528 0
M  V30 12080 C 1119.35 1.50915 0.78477 0
M  V30 12081 O 1120.54 1.79504 0.741065 0
M  V30 12082 C 1117.67 3.34576 0.931463 0
M  V30 12083 C 1116.62 4.2734 0.237527 0
M  V30 12084 C 1115.95 5.18664 1.29967 0
M  V30 12085 C 1117.25 5.14729 -0.886082 0
M  V30 12086 H 1118.94 2.89068 -0.779748 0
M  V30 12087 H 1116.49 1.38993 -0.376419 0
M  V30 12088 H 1118.44 3.97343 1.40343 0
M  V30 12089 H 1117.17 2.77315 1.72523 0
M  V30 12090 H 1115.83 3.65973 -0.214245 0
M  V30 12091 H 1115.47 4.57727 2.08554 0
M  V30 12092 H 1115.17 5.81558 0.840463 0
M  V30 12093 H 1116.7 5.84308 1.77249 0
M  V30 12094 H 1118.11 5.71158 -0.495141 0
M  V30 12095 H 1116.51 5.86478 -1.27135 0
M  V30 12096 H 1117.58 4.52874 -1.733 0
M  V30 12097 N 1118.92 0.422693 1.51826 0
M  V30 12098 C 1119.87 -0.396088 2.27376 0
M  V30 12099 C 1120.84 -1.02946 1.30351 0
M  V30 12100 O 1122.02 -1.05116 1.59233 0
M  V30 12101 C 1119.16 -1.49942 3.10824 0
M  V30 12102 C 1118.28 -0.885623 4.22825 0
M  V30 12103 C 1117.41 -1.96278 4.93608 0
M  V30 12104 C 1116.45 -1.32664 5.97551 0
M  V30 12105 N 1115.59 -2.34452 6.61798 0
M  V30 12106 H 1120.43 0.254571 2.96911 0
M  V30 12107 H 1117.96 0.137383 1.46457 0
M  V30 12108 H 1119.92 -2.15023 3.57521 0
M  V30 12109 H 1118.55 -2.11991 2.43433 0
M  V30 12110 H 1117.6 -0.123491 3.80199 0
M  V30 12111 H 1118.92 -0.381057 4.97342 0
M  V30 12112 H 1118.07 -2.69055 5.43778 0
M  V30 12113 H 1116.81 -2.50103 4.18688 0
M  V30 12114 H 1115.81 -0.584262 5.46687 0
M  V30 12115 H 1117.04 -0.7959 6.7442 0
M  V30 12116 H 1114.99 -2.87385 5.897 0
M  V30 12117 H 1114.9 -1.88845 7.32034 0
M  V30 12118 H 1116.17 -3.06757 7.16603 0
M  V30 12119 N 1120.4 -1.5685 0.153553 0
M  V30 12120 C 1121.68 -1.8796 -0.541328 0
M  V30 12121 C 1122.06 -1.06059 -1.82523 0
M  V30 12122 O 1121.4 -0.149295 -2.28012 0
M  V30 12123 C 1121.61 -3.39697 -0.800442 0
M  V30 12124 C 1122.96 -4.09057 -1.13832 0
M  V30 12125 O 1123.99 -3.44913 -0.889578 0
M  V30 12126 O 1122.85 -5.22347 -1.60673 0
M  V30 12127 H 1119.94 -0.779268 -0.276895 0
M  V30 12128 H 1122.49 -1.68626 0.190657 0
M  V30 12129 H 1121.26 -3.91151 0.107935 0
M  V30 12130 H 1120.88 -3.64582 -1.58638 0
M  V30 12131 N 1121.88 0.120221 -1.57141 0
M  V30 12132 C 1122.82 1.14751 -2.00252 0
M  V30 12133 C 1123.79 1.41217 -0.874462 0
M  V30 12134 O 1124.98 1.53104 -1.13859 0
M  V30 12135 C 1122.12 2.46923 -2.41087 0
M  V30 12136 C 1121.23 2.27403 -3.67303 0
M  V30 12137 C 1120.37 3.52797 -3.97125 0
M  V30 12138 C 1119.41 3.28429 -5.16528 0
M  V30 12139 N 1118.54 4.46022 -5.42226 0
M  V30 12140 H 1123.38 0.772884 -2.87803 0
M  V30 12141 H 1120.92 0.370137 -1.42367 0
M  V30 12142 H 1122.88 3.24025 -2.62799 0
M  V30 12143 H 1121.51 2.82281 -1.5658 0
M  V30 12144 H 1120.56 1.41224 -3.53214 0
M  V30 12145 H 1121.87 2.05373 -4.54558 0
M  V30 12146 H 1121.03 4.38318 -4.19479 0
M  V30 12147 H 1119.77 3.77857 -3.08343 0
M  V30 12148 H 1118.77 2.41299 -4.94019 0
M  V30 12149 H 1120 3.0474 -6.06886 0
M  V30 12150 H 1117.94 4.71205 -4.56401 0
M  V30 12151 H 1117.86 4.27092 -6.23802 0
M  V30 12152 H 1119.13 5.3268 -5.69098 0
M  V30 12153 N 1123.36 1.52689 0.390367 0
M  V30 12154 C 1124.27 1.8029 1.50108 0
M  V30 12155 C 1125.28 0.689582 1.59752 0
M  V30 12156 O 1126.46 0.977024 1.76114 0
M  V30 12157 C 1123.52 1.96475 2.85654 0
M  V30 12158 C 1122.58 3.2039 2.85743 0
M  V30 12159 C 1121.82 3.35793 4.14824 0
M  V30 12160 O 1122.04 2.56033 5.09709 0
M  V30 12161 O 1120.97 4.2904 4.22147 0
M  V30 12162 H 1124.8 2.74605 1.29715 0
M  V30 12163 H 1122.39 1.37763 0.578074 0
M  V30 12164 H 1124.27 2.08835 3.66013 0
M  V30 12165 H 1122.94 1.05351 3.06077 0
M  V30 12166 H 1121.85 3.13473 2.0417 0
M  V30 12167 H 1123.18 4.11356 2.70272 0
M  V30 12168 N 1124.83 -0.648732 1.43629 0
M  V30 12169 C 1125.78 -1.76145 1.49136 0
M  V30 12170 C 1126.75 -1.62569 0.340649 0
M  V30 12171 O 1127.94 -1.82748 0.548435 0
M  V30 12172 C 1125.08 -3.14321 1.42466 0
M  V30 12173 C 1124.19 -3.38999 2.67776 0
M  V30 12174 C 1123.32 -4.67047 2.53062 0
M  V30 12175 C 1122.36 -4.84845 3.7362 0
M  V30 12176 N 1121.5 -6.04155 3.57689 0
M  V30 12177 H 1126.34 -1.70774 2.44213 0
M  V30 12178 H 1123.88 -0.833311 1.2122 0
M  V30 12179 H 1125.84 -3.94206 1.36592 0
M  V30 12180 H 1124.47 -3.18751 0.509666 0
M  V30 12181 H 1123.52 -2.53179 2.83909 0
M  V30 12182 H 1124.83 -3.48035 3.57314 0
M  V30 12183 H 1123.98 -5.55066 2.44922 0
M  V30 12184 H 1122.72 -4.60339 1.61056 0
M  V30 12185 H 1121.73 -3.95261 3.82163 0
M  V30 12186 H 1122.95 -4.9338 4.6664 0
M  V30 12187 H 1120.9 -5.9857 2.6842 0
M  V30 12188 H 1120.82 -6.14169 4.40832 0
M  V30 12189 H 1122.08 -6.94782 3.53409 0
M  V30 12190 N 1126.31 -1.30234 -0.887518 0
M  V30 12191 C 1127.56 -1.19086 -1.64153 0
M  V30 12192 C 1127.89 0.254428 -1.92526 0
M  V30 12193 O 1127.17 1.18233 -1.54438 0
M  V30 12194 C 1127.45 -2.01723 -2.98295 0
M  V30 12195 C 1127.3 -3.54458 -2.76911 0
M  V30 12196 C 1128.62 -1.85307 -3.99186 0
M  V30 12197 H 1125.74 -0.433967 -0.595686 0
M  V30 12198 H 1128.38 -1.59839 -1.0272 0
M  V30 12199 H 1126.53 -1.67096 -3.5073 0
M  V30 12200 H 1128.2 -3.99131 -2.31284 0
M  V30 12201 H 1126.45 -3.78768 -2.11464 0
M  V30 12202 H 1127.12 -4.07565 -3.72283 0
M  V30 12203 H 1129.59 -2.15575 -3.55903 0
M  V30 12204 H 1128.47 -2.45456 -4.90961 0
M  V30 12205 H 1128.73 -0.811528 -4.34588 0
M  V30 12206 N 1127.79 1.09952 -1.12909 0
M  V30 12207 C 1129.02 1.8633 -0.910821 0
M  V30 12208 C 1129.44 1.80335 0.534874 0
M  V30 12209 O 1128.8 1.1769 1.37908 0
M  V30 12210 C 1128.85 3.32462 -1.39648 0
M  V30 12211 O 1127.95 4.08327 -0.578192 0
M  V30 12212 H 1127.29 0.577984 -0.32685 0
M  V30 12213 H 1129.82 1.38883 -1.50242 0
M  V30 12214 H 1129.83 3.83311 -1.39774 0
M  V30 12215 H 1128.51 3.36141 -2.44913 0
M  V30 12216 H 1127.08 3.67291 -0.644347 0
M  V30 12217 N 1129.27 0.921757 1.27833 0
M  V30 12218 C 1130.22 0.414838 2.27041 0
M  V30 12219 C 1131.19 -0.515045 1.57913 0
M  V30 12220 O 1132.37 -0.435499 1.85763 0
M  V30 12221 C 1129.51 -0.331744 3.43502 0
M  V30 12222 C 1128.62 0.631565 4.27358 0
M  V30 12223 C 1127.76 -0.134265 5.3103 0
M  V30 12224 C 1126.8 0.822138 6.06554 0
M  V30 12225 N 1125.93 0.0893149 7.02043 0
M  V30 12226 H 1130.77 1.26585 2.69778 0
M  V30 12227 H 1128.31 0.635488 1.32665 0
M  V30 12228 H 1130.27 -0.780866 4.09827 0
M  V30 12229 H 1128.9 -1.14704 3.01733 0
M  V30 12230 H 1127.95 1.19922 3.61003 0
M  V30 12231 H 1129.26 1.36274 4.79824 0
M  V30 12232 H 1128.42 -0.643579 6.03277 0
M  V30 12233 H 1127.16 -0.898443 4.79353 0
M  V30 12234 H 1126.16 1.34275 5.33151 0
M  V30 12235 H 1127.39 1.586 6.6032 0
M  V30 12236 H 1125.33 -0.656725 6.52704 0
M  V30 12237 H 1125.25 0.760167 7.52169 0
M  V30 12238 H 1126.52 -0.399541 7.78475 0
M  V30 12239 N 1130.75 -1.41857 0.686609 0
M  V30 12240 C 1131.66 -2.34595 0.0159005 0
M  V30 12241 C 1132.67 -1.55741 -0.775933 0
M  V30 12242 O 1133.85 -1.8826 -0.71555 0
M  V30 12243 C 1130.91 -3.34395 -0.915473 0
M  V30 12244 C 1129.97 -4.29141 -0.116851 0
M  V30 12245 C 1129.21 -5.24174 -1.00386 0
M  V30 12246 O 1129.43 -5.24431 -2.2434 0
M  V30 12247 O 1128.36 -6.00152 -0.458337 0
M  V30 12248 H 1132.19 -2.9351 0.780101 0
M  V30 12249 H 1129.78 -1.42559 0.446896 0
M  V30 12250 H 1131.66 -3.95675 -1.44981 0
M  V30 12251 H 1130.33 -2.77936 -1.65932 0
M  V30 12252 H 1129.24 -3.71238 0.461871 0
M  V30 12253 H 1130.57 -4.88673 0.588138 0
M  V30 12254 N 1132.22 -0.430739 -1.51599 0
M  V30 12255 C 1133.13 0.390347 -2.3133 0
M  V30 12256 C 1134.15 1.03376 -1.39962 0
M  V30 12257 O 1135.33 1.03057 -1.73035 0
M  V30 12258 C 1132.39 1.48039 -3.13505 0
M  V30 12259 C 1131.45 0.857792 -4.20643 0
M  V30 12260 C 1130.69 1.89589 -4.9889 0
M  V30 12261 O 1130.91 3.11717 -4.77691 0
M  V30 12262 O 1129.84 1.49009 -5.83164 0
M  V30 12263 H 1133.67 -0.260358 -3.02582 0
M  V30 12264 H 1131.25 -0.193428 -1.48143 0
M  V30 12265 H 1133.14 2.11272 -3.64612 0
M  V30 12266 H 1131.81 2.1153 -2.45024 0
M  V30 12267 H 1130.72 0.187592 -3.73629 0
M  V30 12268 H 1132.05 0.266474 -4.91478 0
M  V30 12269 N 1133.7 1.56767 -0.161869 0
M  V30 12270 C 1134.61 2.21083 0.784814 0
M  V30 12271 C 1135.63 1.19959 1.26039 0
M  V30 12272 O 1136.8 1.52588 1.31449 0
M  V30 12273 C 1133.87 2.83153 2.00063 0
M  V30 12274 C 1132.93 3.9945 1.57285 0
M  V30 12275 C 1132.16 4.5855 2.7307 0
M  V30 12276 O 1132.39 4.16534 3.89686 0
M  V30 12277 O 1131.32 5.48575 2.47688 0
M  V30 12278 H 1135.15 3.02522 0.267243 0
M  V30 12279 H 1132.73 1.49255 0.0658783 0
M  V30 12280 H 1134.61 3.22546 2.71186 0
M  V30 12281 H 1133.29 2.04718 2.50744 0
M  V30 12282 H 1132.2 3.64745 0.831393 0
M  V30 12283 H 1133.53 4.7945 1.11304 0
M  V30 12284 N 1135.18 -0.111886 1.57202 0
M  V30 12285 C 1136.09 -1.1556 2.04165 0
M  V30 12286 C 1137.11 -1.44898 0.963354 0
M  V30 12287 O 1138.28 -1.55873 1.27536 0
M  V30 12288 C 1135.35 -2.46048 2.44256 0
M  V30 12289 C 1134.41 -2.24043 3.66201 0
M  V30 12290 C 1133.64 -3.4831 4.04371 0
M  V30 12291 O 1133.86 -4.55895 3.42806 0
M  V30 12292 O 1132.8 -3.38891 4.9743 0
M  V30 12293 H 1136.62 -0.786778 2.93332 0
M  V30 12294 H 1134.21 -0.323196 1.45862 0
M  V30 12295 H 1136.09 -3.22916 2.70745 0
M  V30 12296 H 1134.77 -2.8239 1.58233 0
M  V30 12297 H 1133.67 -1.4501 3.44852 0
M  V30 12298 H 1135.01 -1.92602 4.52952 0
M  V30 12299 N 1136.66 -1.52894 -0.382264 0
M  V30 12300 C 1137.61 -1.78151 -1.46734 0
M  V30 12301 C 1138.58 -0.625034 -1.53891 0
M  V30 12302 O 1139.76 -0.865467 -1.70042 0
M  V30 12303 C 1136.9 -1.96223 -2.83885 0
M  V30 12304 C 1136.01 -3.23925 -2.85826 0
M  V30 12305 C 1135.15 -3.32277 -4.14446 0
M  V30 12306 C 1134.19 -4.54076 -4.10465 0
M  V30 12307 N 1133.32 -4.59672 -5.30703 0
M  V30 12308 H 1138.16 -2.70748 -1.24497 0
M  V30 12309 H 1135.7 -1.34135 -0.603838 0
M  V30 12310 H 1137.66 -2.04686 -3.63537 0
M  V30 12311 H 1136.29 -1.0698 -3.04557 0
M  V30 12312 H 1135.34 -3.245 -1.98505 0
M  V30 12313 H 1136.65 -4.1364 -2.78754 0
M  V30 12314 H 1135.81 -3.3996 -5.02506 0
M  V30 12315 H 1134.55 -2.40548 -4.2425 0
M  V30 12316 H 1133.55 -4.46511 -3.20793 0
M  V30 12317 H 1134.78 -5.47128 -4.02278 0
M  V30 12318 H 1132.72 -3.70838 -5.41124 0
M  V30 12319 H 1132.64 -5.43268 -5.25734 0
M  V30 12320 H 1133.91 -4.71618 -6.20642 0
M  V30 12321 N 1138.14 0.641106 -1.43971 0
M  V30 12322 C 1139.05 1.78239 -1.52538 0
M  V30 12323 C 1140.06 1.6906 -0.411668 0
M  V30 12324 O 1141.24 1.90014 -0.66757 0
M  V30 12325 C 1138.3 3.14579 -1.45743 0
M  V30 12326 C 1137.37 3.35464 -2.67885 0
M  V30 12327 C 1136.6 4.65299 -2.61404 0
M  V30 12328 O 1136.82 5.45451 -1.66851 0
M  V30 12329 O 1135.76 4.8817 -3.521 0
M  V30 12330 H 1139.58 1.73965 -2.48937 0
M  V30 12331 H 1137.17 0.801098 -1.26106 0
M  V30 12332 H 1139.05 3.95873 -1.4444 0
M  V30 12333 H 1137.72 3.19417 -0.524837 0
M  V30 12334 H 1136.63 2.53888 -2.74758 0
M  V30 12335 H 1137.96 3.35481 -3.60157 0
M  V30 12336 N 1139.62 1.30703 0.880598 0
M  V30 12337 C 1141.03 1.09129 1.1646 0
M  V30 12338 C 1141.23 -0.145131 2.00977 0
M  V30 12339 O 1140.29 -0.837502 2.38206 0
M  V30 12340 C 1141.6 2.35717 1.86703 0
M  V30 12341 C 1143.15 2.41224 1.9945 0
M  V30 12342 C 1143.62 3.67665 2.73105 0
M  V30 12343 N 1145.11 3.68498 2.80648 0
M  V30 12344 C 1145.85 4.63024 3.38225 0
M  V30 12345 N 1145.35 5.67898 3.96817 0
M  V30 12346 N 1147.14 4.50561 3.36082 0
M  V30 12347 H 1139.29 2.10019 0.317164 0
M  V30 12348 H 1141.55 0.925994 0.203072 0
M  V30 12349 H 1141.26 3.2597 1.32046 0
M  V30 12350 H 1141.13 2.447 2.87057 0
M  V30 12351 H 1143.52 1.51446 2.53275 0
M  V30 12352 H 1143.6 2.36212 0.981704 0
M  V30 12353 H 1143.24 4.57803 2.19951 0
M  V30 12354 H 1143.17 3.69939 3.7477 0
M  V30 12355 H 1145.67 2.92681 2.39053 0
M  V30 12356 H 1145.98 6.3612 4.3883 0
M  V30 12357 H 1144.32 5.71685 3.95223 0
M  V30 12358 H 1147.51 3.67811 2.89539 0
M  V30 12359 H 1147.69 5.24408 3.80657 0
M  V30 12360 N 1141.09 -1.09351 1.1349 0
M  V30 12361 C 1142.04 -2.18099 0.808426 0
M  V30 12362 C 1143.04 -1.68099 -0.209571 0
M  V30 12363 O 1144.24 -1.79877 -0.0666417 0
M  V30 12364 H 1140.62 -0.711432 0.243658 0
M  V30 12365 H 1142.59 -2.42867 1.73373 0
M  V30 12366 C 1141.34 -3.46475 0.291615 0
M  V30 12367 H 1140.66 -3.85319 1.06627 0
M  V30 12368 H 1142.1 -4.23878 0.101616 0
M  V30 12369 C 1140.56 -3.22245 -0.982827 0
M  V30 12370 O 1141.09 -3.44947 -2.0585 0
M  V30 12371 N 1139.29 -2.75845 -0.914218 0
M  V30 12372 H 1138.84 -2.57571 -0.03872 0
M  V30 12373 H 1138.8 -2.60011 -1.76753 0
M  V30 12374 N 1142.57 -0.928524 -1.27343 0
M  V30 12375 C 1143.8 -0.585734 -1.98436 0
M  V30 12376 C 1144.21 0.83644 -1.69261 0
M  V30 12377 O 1143.57 1.55603 -0.953626 0
M  V30 12378 C 1143.62 -0.803092 -3.52467 0
M  V30 12379 O 1143.34 -2.16932 -3.80621 0
M  V30 12380 C 1144.84 -0.469127 -4.40811 0
M  V30 12381 H 1142.06 -0.221887 -0.633251 0
M  V30 12382 H 1144.61 -1.24577 -1.62175 0
M  V30 12383 H 1142.76 -0.189846 -3.86935 0
M  V30 12384 H 1143.18 -2.21992 -4.75205 0
M  V30 12385 H 1144.65 -0.671906 -5.47895 0
M  V30 12386 H 1145.13 0.595365 -4.35146 0
M  V30 12387 H 1145.73 -1.06055 -4.11865 0
M  V30 12388 N 1144.05 1.41491 -0.694123 0
M  V30 12389 C 1145.01 2.2917 -0.0368562 0
M  V30 12390 C 1146.01 1.44305 0.709426 0
M  V30 12391 O 1147.2 1.6547 0.544533 0
M  V30 12392 C 1144.33 3.27156 0.958201 0
M  V30 12393 H 1145.53 2.88787 -0.808829 0
M  V30 12394 H 1143.08 1.49453 -0.457538 0
M  V30 12395 H 1143.82 2.72516 1.75799 0
M  V30 12396 H 1143.6 3.89776 0.426227 0
M  V30 12397 H 1145.09 3.92863 1.41592 0
M  V30 12398 N 1145.53 0.438773 1.51369 0
M  V30 12399 C 1146.49 -0.36032 2.2635 0
M  V30 12400 C 1147.49 -0.948465 1.29849 0
M  V30 12401 O 1148.68 -0.822692 1.53549 0
M  V30 12402 C 1145.81 -1.50994 3.05636 0
M  V30 12403 H 1147.01 0.296826 2.98427 0
M  V30 12404 H 1144.56 0.191978 1.55117 0
M  V30 12405 H 1145.29 -2.2031 2.37979 0
M  V30 12406 H 1145.08 -1.09437 3.76518 0
M  V30 12407 H 1146.57 -2.07447 3.6243 0
M  V30 12408 N 1147.01 -1.56678 0.170181 0
M  V30 12409 C 1147.94 -2.13747 -0.799203 0
M  V30 12410 C 1148.92 -1.06725 -1.22673 0
M  V30 12411 O 1150.1 -1.34694 -1.3187 0
M  V30 12412 C 1147.23 -2.67611 -2.07611 0
M  V30 12413 C 1146.27 -3.86994 -1.7927 0
M  V30 12414 S 1147.11 -5.26771 -0.962951 0
M  V30 12415 C 1148.26 -5.84039 -2.25054 0
M  V30 12416 H 1148.5 -2.95637 -0.313976 0
M  V30 12417 H 1146.03 -1.54336 -0.0444708 0
M  V30 12418 H 1147.99 -2.99291 -2.80954 0
M  V30 12419 H 1146.65 -1.85808 -2.53247 0
M  V30 12420 H 1145.84 -4.23006 -2.74011 0
M  V30 12421 H 1145.44 -3.56195 -1.14023 0
M  V30 12422 H 1147.73 -5.96883 -3.20525 0
M  V30 12423 H 1148.68 -6.81145 -1.93513 0
M  V30 12424 H 1149.09 -5.12449 -2.36763 0
M  V30 12425 N 1148.48 0.103547 -1.57259 0
M  V30 12426 C 1149.73 0.809774 -1.85931 0
M  V30 12427 C 1150.06 1.78791 -0.758122 0
M  V30 12428 O 1149.34 1.93079 0.234682 0
M  V30 12429 C 1149.62 1.54601 -3.25224 0
M  V30 12430 C 1149.47 0.586439 -4.45961 0
M  V30 12431 C 1150.79 2.4986 -3.62296 0
M  V30 12432 H 1147.91 0.29293 -0.676285 0
M  V30 12433 H 1150.55 0.0736065 -1.89857 0
M  V30 12434 H 1148.7 2.17355 -3.22008 0
M  V30 12435 H 1150.38 -0.0334441 -4.61288 0
M  V30 12436 H 1148.62 -0.10085 -4.33683 0
M  V30 12437 H 1149.29 1.13855 -5.40131 0
M  V30 12438 H 1151.77 1.97203 -3.66402 0
M  V30 12439 H 1150.64 2.98396 -4.60707 0
M  V30 12440 H 1150.9 3.33233 -2.90531 0
M  V30 12441 N 1149.96 1.53094 0.37415 0
M  V30 12442 C 1151.2 1.70558 1.12647 0
M  V30 12443 C 1151.57 0.443515 1.86807 0
M  V30 12444 O 1152.77 0.49472 2.64208 0
M  V30 12445 C 1151.04 2.91565 2.06699 0
M  V30 12446 S 1152.6 3.29692 2.89567 0
M  V30 12447 H 1149.41 0.600238 0.381097 0
M  V30 12448 H 1152.02 1.91177 0.408865 0
M  V30 12449 H 1150.72 3.81625 1.50965 0
M  V30 12450 H 1150.25 2.73323 2.82945 0
M  V30 12451 H 1152.27 2.81036 4.08942 0
M  V30 12452 N 1151.44 -0.633461 1.44309 0
M  V30 12453 C 1152.66 -1.42527 1.50668 0
M  V30 12454 C 1153.09 -1.87637 0.131861 0
M  V30 12455 O 1152.45 -1.58595 -0.878477 0
M  V30 12456 C 1152.5 -2.62328 2.47419 0
M  V30 12457 O 1151.6 -3.62081 1.97411 0
M  V30 12458 H 1150.94 -0.426559 0.508864 0
M  V30 12459 H 1153.47 -0.773392 1.8942 0
M  V30 12460 H 1153.48 -3.09901 2.65378 0
M  V30 12461 H 1152.16 -2.2884 3.47283 0
M  V30 12462 H 1150.73 -3.21333 1.89208 0
M  V30 12463 N 1152.92 -1.31168 -0.873655 0
M  V30 12464 C 1153.85 -1.21094 -1.99646 0
M  V30 12465 C 1154.83 -0.0989684 -1.69812 0
M  V30 12466 O 1156.01 -0.282939 -1.92128 0
M  V30 12467 C 1153.14 -0.913684 -3.35066 0
M  V30 12468 C 1152.1 -1.98482 -3.79195 0
M  V30 12469 C 1151.42 -1.54033 -5.12033 0
M  V30 12470 C 1152.72 -3.39745 -3.96699 0
M  V30 12471 H 1154.42 -2.1503 -2.08333 0
M  V30 12472 H 1151.96 -1.03521 -1.00097 0
M  V30 12473 H 1153.92 -0.829821 -4.13149 0
M  V30 12474 H 1152.64 0.0613471 -3.26542 0
M  V30 12475 H 1151.3 -2.05851 -3.03349 0
M  V30 12476 H 1150.95 -0.553261 -4.99948 0
M  V30 12477 H 1150.65 -2.25688 -5.4253 0
M  V30 12478 H 1152.17 -1.47047 -5.92629 0
M  V30 12479 H 1153.59 -3.35071 -4.65188 0
M  V30 12480 H 1151.98 -4.09585 -4.38589 0
M  V30 12481 H 1153.05 -3.80802 -3.00196 0
M  V30 12482 N 1154.4 1.08748 -1.14068 0
M  V30 12483 C 1155.31 2.19123 -0.837998 0
M  V30 12484 C 1156.32 1.73065 0.180164 0
M  V30 12485 O 1157.5 2.01398 0.00952285 0
M  V30 12486 C 1154.56 3.45257 -0.316 0
M  V30 12487 C 1153.62 4.05959 -1.39628 0
M  V30 12488 C 1152.86 5.26072 -0.899095 0
M  V30 12489 O 1153.08 5.69804 0.260744 0
M  V30 12490 O 1152.01 5.7808 -1.67652 0
M  V30 12491 H 1155.84 2.4748 -1.76033 0
M  V30 12492 H 1153.43 1.17816 -0.918675 0
M  V30 12493 H 1155.31 4.21389 -0.0306425 0
M  V30 12494 H 1153.98 3.18486 0.578654 0
M  V30 12495 H 1152.89 3.31432 -1.73505 0
M  V30 12496 H 1154.22 4.36971 -2.26533 0
M  V30 12497 N 1155.87 0.935264 1.26849 0
M  V30 12498 C 1156.82 0.430895 2.28574 0
M  V30 12499 C 1157.82 -0.488739 1.62196 0
M  V30 12500 O 1159.02 -0.367605 1.76206 0
M  V30 12501 H 1155.4 0.120793 0.742235 0
M  V30 12502 H 1157.37 1.3015 2.68521 0
M  V30 12503 C 1156.12 -0.294053 3.46454 0
M  V30 12504 H 1155.44 0.404416 3.97749 0
M  V30 12505 H 1156.88 -0.611272 4.19571 0
M  V30 12506 C 1155.34 -1.50975 3.01178 0
M  V30 12507 O 1155.87 -2.60826 3.05504 0
M  V30 12508 N 1154.08 -1.36423 2.56587 0
M  V30 12509 H 1153.62 -0.470483 2.53267 0
M  V30 12510 H 1153.58 -2.17886 2.26656 0
M  V30 12511 N 1157.35 -1.41121 0.701616 0
M  V30 12512 C 1158.77 -1.55162 0.373766 0
M  V30 12513 C 1158.97 -1.6759 -1.11875 0
M  V30 12514 O 1158.02 -1.65768 -1.90465 0
M  V30 12515 C 1159.34 -2.78758 1.12759 0
M  V30 12516 C 1160.89 -2.92561 1.11253 0
M  V30 12517 C 1161.36 -4.19052 1.84822 0
M  V30 12518 N 1162.85 -4.26023 1.81821 0
M  V30 12519 C 1163.59 -5.22771 2.3558 0
M  V30 12520 N 1163.08 -6.25512 2.97836 0
M  V30 12521 N 1164.88 -5.14752 2.25802 0
M  V30 12522 H 1157.03 -1.31299 1.66956 0
M  V30 12523 H 1159.29 -0.633894 0.704898 0
M  V30 12524 H 1159 -2.75804 2.18231 0
M  V30 12525 H 1158.87 -3.70456 0.710095 0
M  V30 12526 H 1161.26 -2.95026 0.0660506 0
M  V30 12527 H 1161.34 -2.0202 1.56913 0
M  V30 12528 H 1160.98 -4.17349 2.89452 0
M  V30 12529 H 1160.91 -5.08577 1.36592 0
M  V30 12530 H 1163.4 -3.52411 1.36438 0
M  V30 12531 H 1163.72 -6.95736 3.36409 0
M  V30 12532 H 1162.06 -6.25997 3.01916 0
M  V30 12533 H 1165.25 -4.33414 1.76833 0
M  V30 12534 H 1165.42 -5.89983 2.68001 0
M  V30 12535 N 1158.83 -0.446794 -1.51134 0
M  V30 12536 C 1160.11 0.176892 -1.94798 0
M  V30 12537 C 1160.49 1.59229 -1.38598 0
M  V30 12538 O 1159.84 2.21097 -0.576905 0
M  V30 12539 C 1160.05 0.145 -3.48699 0
M  V30 12540 C 1161.39 0.345917 -4.23189 0
M  V30 12541 O 1162.42 0.222691 -3.55503 0
M  V30 12542 O 1161.28 0.592112 -5.43283 0
M  V30 12543 H 1158.37 0.12486 -0.81752 0
M  V30 12544 H 1160.92 -0.505453 -1.61998 0
M  V30 12545 H 1159.69 -0.844156 -3.82086 0
M  V30 12546 H 1159.31 0.869851 -3.87968 0
M  V30 12547 N 1160.31 1.56586 -0.178487 0
M  V30 12548 C 1161.22 2.21903 0.761321 0
M  V30 12549 C 1162.23 1.21289 1.2476 0
M  V30 12550 O 1163.41 1.53974 1.29823 0
M  V30 12551 C 1160.48 2.85259 1.97048 0
M  V30 12552 C 1159.54 4.01095 1.53039 0
M  V30 12553 C 1158.77 4.61421 2.68191 0
M  V30 12554 O 1158.99 4.20644 3.85247 0
M  V30 12555 O 1157.93 5.51171 2.41855 0
M  V30 12556 H 1161.75 3.02788 0.235141 0
M  V30 12557 H 1159.34 1.49316 0.0500442 0
M  V30 12558 H 1161.22 3.25404 2.6775 0
M  V30 12559 H 1159.89 2.07366 2.48558 0
M  V30 12560 H 1158.8 3.65606 0.792661 0
M  V30 12561 H 1160.13 4.80603 1.06213 0
M  V30 12562 N 1161.79 -0.095206 1.57312 0
M  V30 12563 C 1163.03 -0.804335 1.87909 0
M  V30 12564 C 1163.39 -1.75907 0.769465 0
M  V30 12565 O 1164.59 -2.51155 0.957846 0
M  V30 12566 C 1162.86 -1.51405 3.23746 0
M  V30 12567 S 1164.42 -2.26147 3.76036 0
M  V30 12568 H 1161.24 -0.267976 0.658567 0
M  V30 12569 H 1163.84 -0.0614682 1.95403 0
M  V30 12570 H 1162.55 -0.805066 4.02426 0
M  V30 12571 H 1162.08 -2.29681 3.1939 0
M  V30 12572 H 1164.09 -3.52284 3.49443 0
M  V30 12573 N 1163.26 -1.53291 -0.366026 0
M  V30 12574 C 1164.19 -1.82675 -1.45437 0
M  V30 12575 C 1165.18 -0.680227 -1.55907 0
M  V30 12576 O 1166.36 -0.930032 -1.70482 0
M  V30 12577 C 1163.49 -2.01626 -2.8278 0
M  V30 12578 C 1162.44 -3.17391 -2.87135 0
M  V30 12579 C 1161.77 -3.21634 -4.27148 0
M  V30 12580 C 1163.07 -4.5599 -2.54697 0
M  V30 12581 H 1164.76 -2.73818 -1.21096 0
M  V30 12582 H 1162.31 -1.31754 -0.581108 0
M  V30 12583 H 1164.26 -2.20765 -3.58944 0
M  V30 12584 H 1162.99 -1.07193 -3.08508 0
M  V30 12585 H 1161.65 -2.98071 -2.13422 0
M  V30 12586 H 1161.29 -2.2484 -4.49951 0
M  V30 12587 H 1160.99 -3.99414 -4.30978 0
M  V30 12588 H 1162.52 -3.42957 -5.05186 0
M  V30 12589 H 1163.93 -4.75294 -3.20575 0
M  V30 12590 H 1162.33 -5.36008 -2.69844 0
M  V30 12591 H 1163.4 -4.61133 -1.49949 0
M  V30 12592 N 1164.74 0.6258 -1.44643 0
M  V30 12593 C 1165.68 1.75056 -1.46392 0
M  V30 12594 C 1166.65 1.59376 -0.322179 0
M  V30 12595 O 1167.84 1.81187 -0.519956 0
M  V30 12596 C 1164.96 3.12689 -1.30166 0
M  V30 12597 C 1164.01 3.47005 -2.47972 0
M  V30 12598 S 1164.84 3.43885 -4.10491 0
M  V30 12599 C 1166 4.84129 -3.96698 0
M  V30 12600 H 1166.23 1.73306 -2.41562 0
M  V30 12601 H 1163.77 0.800879 -1.32005 0
M  V30 12602 H 1165.72 3.9211 -1.21492 0
M  V30 12603 H 1164.38 3.11972 -0.364982 0
M  V30 12604 H 1163.58 4.47171 -2.32496 0
M  V30 12605 H 1163.18 2.75059 -2.53414 0
M  V30 12606 H 1165.47 5.73488 -3.60718 0
M  V30 12607 H 1166.41 5.0466 -4.96713 0
M  V30 12608 H 1166.82 4.58954 -3.28666 0
M  V30 12609 N 1166.22 1.31629 0.866686 0
M  V30 12610 C 1167.46 1.22806 1.63395 0
M  V30 12611 C 1167.82 -0.209785 1.9085 0
M  V30 12612 O 1169.03 -0.421562 2.65474 0
M  V30 12613 C 1167.3 2.05187 2.92631 0
M  V30 12614 S 1168.86 2.13261 3.83491 0
M  V30 12615 H 1165.67 0.437339 0.560585 0
M  V30 12616 H 1168.28 1.66333 1.02731 0
M  V30 12617 H 1166.98 3.08736 2.70389 0
M  V30 12618 H 1166.51 1.62393 3.58318 0
M  V30 12619 H 1168.53 1.27333 4.79584 0
M  V30 12620 N 1167.7 -1.08142 1.14644 0
M  V30 12621 C 1168.95 -1.80225 0.914517 0
M  V30 12622 C 1169.27 -1.86778 -0.560269 0
M  V30 12623 O 1168.54 -1.36284 -1.40724 0
M  V30 12624 H 1167.12 -0.667492 0.335356 0
M  V30 12625 H 1169.78 -1.30729 1.44554 0
M  V30 12626 H 1168.88 -2.82958 1.31685 0
M  V30 12627 N 1169.18 -0.941978 -1.26351 0
M  V30 12628 C 1170.4 -0.606231 -1.98342 0
M  V30 12629 C 1170.83 0.812014 -1.6967 0
M  V30 12630 O 1170.19 1.54712 -0.9452 0
M  V30 12631 C 1170.23 -0.855864 -3.50296 0
M  V30 12632 O 1169.34 0.0716251 -4.12338 0
M  V30 12633 H 1168.68 -0.231815 -0.62222 0
M  V30 12634 H 1171.21 -1.26513 -1.60797 0
M  V30 12635 H 1171.22 -0.777079 -4.00531 0
M  V30 12636 H 1169.89 -1.8896 -3.70496 0
M  V30 12637 H 1168.47 -0.0582866 -3.72854 0
M  V30 12638 O 1170.69 1.37477 -0.84748 0
M  V30 12639 H 1171.39 1.88668 -0.438626 0
M  V30 END ATOM
M  V30 BEGIN BOND
M  V30 END BOND
M  V30 END CTAB
M  END
$$$$
