drugbank_target|Q92569 Phosphatidylinositol 3-kinase regulatory subunit gamma (DB01064; DB05210)
 OpenBabel12092120103D

  0  0  0     0  0            999 V3000
M  V30 BEGIN CTAB
M  V30 COUNTS 7546 7632 0 0 0
M  V30 BEGIN ATOM
M  V30 1 H -0.908 1.98254 -0.117106 0
M  V30 2 N 0 1.576 0 0
M  V30 3 C 0.933 2.03868 1.02534 0
M  V30 4 C 1.911 0.928543 1.3348 0
M  V30 5 O 3.095 1.19667 1.45644 0
M  V30 6 C 0.222 2.43627 2.35294 0
M  V30 7 C -0.732 3.65373 2.2001 0
M  V30 8 S 0.101 5.13292 1.52614 0
M  V30 9 C 1.257 5.56322 2.86805 0
M  V30 10 H 1.49 2.90518 0.631377 0
M  V30 11 H -0.977 1.52953 0.210867 0
M  V30 12 H 0.981 2.67203 3.11629 0
M  V30 13 H -0.358 1.57376 2.7183 0
M  V30 14 H -1.165 3.90944 3.18086 0
M  V30 15 H -1.563 3.418 1.51819 0
M  V30 16 H 0.729 5.58782 3.83104 0
M  V30 17 H 1.672 6.56266 2.65933 0
M  V30 18 H 2.08 4.83886 2.90714 0
M  V30 19 N 1.4781 -0.272755 1.55222 0
M  V30 20 C 2.7081 -1.02107 1.79604 0
M  V30 21 C 3.1161 -1.80419 0.569693 0
M  V30 22 O 2.4591 -1.77566 -0.470743 0
M  V30 23 C 2.5211 -2.02675 2.96922 0
M  V30 24 C 2.1851 -1.43299 4.33952 0
M  V30 25 C 3.1821 -0.84853 5.12929 0
M  V30 26 C 0.8671 -1.46012 4.8061 0
M  V30 27 C 2.8611 -0.299109 6.36698 0
M  V30 28 C 0.5481 -0.906833 6.04334 0
M  V30 29 C 1.5461 -0.32733 6.82215 0
M  V30 30 O 1.2341 0.217479 8.03606 0
M  V30 31 H 0.9661 -0.307322 0.602104 0
M  V30 32 H 3.5201 -0.308862 2.03065 0
M  V30 33 H 1.7501 -2.77656 2.69155 0
M  V30 34 H 3.4391 -2.63637 3.08626 0
M  V30 35 H 4.2051 -0.820265 4.78013 0
M  V30 36 H 0.0841 -1.90056 4.2 0
M  V30 37 H 3.6281 0.153852 6.9743 0
M  V30 38 H -0.4749 -0.932339 6.38731 0
M  V30 39 H 0.2931 0.106863 8.1843 0
M  V30 40 N 2.9562 -1.48159 -0.537278 0
M  V30 41 C 3.9042 -1.62573 -1.66352 0
M  V30 42 C 4.8982 -0.492366 -1.62087 0
M  V30 43 O 6.1042 -0.670847 -1.67032 0
M  V30 44 H 2.4792 -0.511992 -0.550789 0
M  V30 45 H 4.4502 -2.57176 -1.51337 0
M  V30 46 C 3.1992 -1.67583 -3.04649 0
M  V30 47 H 2.5222 -2.54151 -3.08622 0
M  V30 48 H 3.9622 -1.81713 -3.83088 0
M  V30 49 C 2.4212 -0.413039 -3.34358 0
M  V30 50 O 2.9512 0.477259 -3.98855 0
M  V30 51 N 1.1572 -0.286961 -2.8918 0
M  V30 52 H 0.7042 -1.01241 -2.36871 0
M  V30 53 H 0.6622 0.556963 -3.09427 0
M  V30 54 N 4.4343 0.785586 -1.36625 0
M  V30 55 C 5.6623 1.57448 -1.3423 0
M  V30 56 C 6.0773 1.88649 0.0755653 0
M  V30 57 O 5.4343 1.50414 1.03354 0
M  V30 58 C 5.4853 2.89316 -2.16745 0
M  V30 59 O 5.2063 2.59459 -3.53005 0
M  V30 60 C 6.7073 3.83606 -2.22174 0
M  V30 61 H 3.9273 0.488226 -0.4603 0
M  V30 62 H 6.4713 0.974733 -1.79775 0
M  V30 63 H 4.6263 3.4575 -1.74745 0
M  V30 64 H 5.0403 3.43804 -3.96105 0
M  V30 65 H 6.5143 4.73181 -2.8426 0
M  V30 66 H 6.9913 4.21734 -1.22627 0
M  V30 67 H 7.5973 3.33104 -2.64427 0
M  V30 68 N 5.9124 1.20967 1.01018 0
M  V30 69 C 7.1584 1.02526 1.74975 0
M  V30 70 C 7.4914 -0.4408 1.89131 0
M  V30 71 O 6.7664 -1.32718 1.42184 0
M  V30 72 C 7.0494 1.71699 3.1653 0
M  V30 73 C 6.9024 3.25791 3.10129 0
M  V30 74 C 8.2214 1.45531 4.15342 0
M  V30 75 H 5.3404 0.373863 0.635134 0
M  V30 76 H 7.9824 1.49071 1.17805 0
M  V30 77 H 6.1324 1.32128 3.65341 0
M  V30 78 H 7.8044 3.74697 2.69072 0
M  V30 79 H 6.0474 3.56363 2.47362 0
M  V30 80 H 6.7184 3.69353 4.10222 0
M  V30 81 H 9.1944 1.79872 3.75213 0
M  V30 82 H 8.0704 1.96453 5.1254 0
M  V30 83 H 8.3314 0.384237 4.40427 0
M  V30 84 N 7.3905 -1.2043 1.01659 0
M  V30 85 C 8.6365 -1.90356 0.716674 0
M  V30 86 C 8.9915 -1.77367 -0.745557 0
M  V30 87 O 8.2845 -1.1471 -1.53467 0
M  V30 88 C 8.4785 -3.40464 1.08714 0
M  V30 89 C 8.3075 -3.6806 2.58384 0
M  V30 90 C 7.0775 -3.86775 3.25167 0
M  V30 91 C 9.2755 -3.70623 3.56572 0
M  V30 92 N 7.2575 -4.01889 4.64067 0
M  V30 93 C 8.6285 -3.91161 4.81034 0
M  V30 94 C 10.6835 -3.53586 3.50544 0
M  V30 95 C 9.3865 -3.96428 6.00198 0
M  V30 96 C 11.4125 -3.60125 4.6911 0
M  V30 97 C 10.7745 -3.81135 5.92381 0
M  V30 98 H 6.8735 -0.716226 0.313918 0
M  V30 99 H 9.4575 -1.44815 1.30141 0
M  V30 100 H 7.6285 -3.84757 0.530745 0
M  V30 101 H 9.3605 -3.97863 0.740763 0
M  V30 102 H 6.1155 -3.85156 2.75594 0
M  V30 103 H 6.5395 -4.13323 5.36184 0
M  V30 104 H 11.1815 -3.36308 2.56235 0
M  V30 105 H 8.8995 -4.12502 6.94887 0
M  V30 106 H 12.4855 -3.4825 4.66062 0
M  V30 107 H 11.3655 -3.86054 6.82592 0
M  V30 108 N 8.8686 -0.792821 -1.36206 0
M  V30 109 C 10.0936 -0.377701 -2.03932 0
M  V30 110 C 10.5186 0.998947 -1.59382 0
M  V30 111 O 9.8766 1.64421 -0.763903 0
M  V30 112 C 9.9246 -0.453635 -3.57735 0
M  V30 113 O 9.0286 0.538151 -4.08874 0
M  V30 114 H 8.3696 -0.159855 -0.644471 0
M  V30 115 H 10.8996 -1.07488 -1.7409 0
M  V30 116 H 10.9096 -0.318464 -4.06755 0
M  V30 117 H 9.5846 -1.45784 -3.89512 0
M  V30 118 H 8.1616 0.364359 -3.71116 0
M  V30 119 N 10.3467 1.47872 -0.545128 0
M  V30 120 C 11.2797 2.2675 0.256885 0
M  V30 121 C 12.2577 1.33293 0.931228 0
M  V30 122 O 13.4417 1.62657 0.95262 0
M  V30 123 C 10.5687 3.09976 1.36501 0
M  V30 124 C 9.6147 4.1892 0.800496 0
M  V30 125 S 10.4477 5.34397 -0.343505 0
M  V30 126 C 11.6037 6.21186 0.766733 0
M  V30 127 H 11.8367 2.94425 -0.412479 0
M  V30 128 H 9.3697 1.50806 -0.331204 0
M  V30 129 H 11.3277 3.585 1.9997 0
M  V30 130 H 9.9887 2.41686 2.00616 0
M  V30 131 H 9.1817 4.76836 1.63227 0
M  V30 132 H 8.7837 3.73215 0.242217 0
M  V30 133 H 11.0757 6.56804 1.66178 0
M  V30 134 H 12.0187 7.07742 0.225204 0
M  V30 135 H 12.4267 5.54574 1.05396 0
M  V30 136 N 11.8248 0.280983 1.55075 0
M  V30 137 C 13.1018 -0.386207 1.91749 0
M  V30 138 C 13.4818 -1.73264 1.20594 0
M  V30 139 O 12.8298 -2.26034 0.334784 0
M  V30 140 C 13.0398 -0.520687 3.45094 0
M  V30 141 C 14.3878 -0.800865 4.16979 0
M  V30 142 O 15.4118 -0.605271 3.5102 0
M  V30 143 O 14.2708 -1.1753 5.33712 0
M  V30 144 H 11.3648 -0.212408 0.799257 0
M  V30 145 H 13.9108 0.327568 1.66509 0
M  V30 146 H 12.6828 0.426633 3.88967 0
M  V30 147 H 12.3058 -1.2837 3.76307 0
M  V30 148 N 13.3029 -1.57598 0.00835791 0
M  V30 149 C 14.7189 -1.55764 -0.347822 0
M  V30 150 C 14.9189 -1.01186 -1.74252 0
M  V30 151 O 13.9749 -0.649371 -2.44007 0
M  V30 152 C 15.2879 -2.99927 -0.215407 0
M  V30 153 C 16.8359 -3.11656 -0.289725 0
M  V30 154 C 17.3109 -4.57621 -0.18634 0
M  V30 155 N 18.8019 -4.62557 -0.243978 0
M  V30 156 C 19.5369 -5.73094 -0.18745 0
M  V30 157 N 19.0329 -6.92753 -0.0810331 0
M  V30 158 N 20.8259 -5.61588 -0.239925 0
M  V30 159 H 12.9769 -1.91411 0.92062 0
M  V30 160 H 15.2399 -0.879562 0.353659 0
M  V30 161 H 14.9459 -3.43729 0.744512 0
M  V30 162 H 14.8199 -3.63865 -0.994097 0
M  V30 163 H 17.2069 -2.67779 -1.24009 0
M  V30 164 H 17.2879 -2.5048 0.51898 0
M  V30 165 H 16.9319 -5.02174 0.760519 0
M  V30 166 H 16.8619 -5.16752 -1.01364 0
M  V30 167 H 19.3529 -3.76481 -0.327217 0
M  V30 168 H 19.6659 -7.72787 -0.0440241 0
M  V30 169 H 18.0109 -6.94984 -0.0465419 0
M  V30 170 H 21.2019 -4.66996 -0.321317 0
M  V30 171 H 21.3749 -6.47714 -0.192407 0
M  V30 172 N 14.781 0.264519 -1.55364 0
M  V30 173 C 16.058 1.01677 -1.67096 0
M  V30 174 C 16.438 2.03996 -0.543015 0
M  V30 175 O 15.786 2.23907 0.45585 0
M  V30 176 C 15.996 1.66596 -3.0667 0
M  V30 177 C 17.344 2.17442 -3.64697 0
M  V30 178 O 18.368 1.76568 -3.09358 0
M  V30 179 O 17.227 2.92439 -4.61673 0
M  V30 180 H 14.321 0.472161 -0.678965 0
M  V30 181 H 16.867 0.259703 -1.67701 0
M  V30 182 H 15.639 0.924962 -3.80211 0
M  V30 183 H 15.262 2.48968 -3.10001 0
M  V30 184 N 16.2591 1.48442 0.529413 0
M  V30 185 C 17.5361 1.46978 1.29062 0
M  V30 186 C 17.9161 0.181769 2.10316 0
M  V30 187 O 17.2641 -0.836481 2.12639 0
M  V30 188 C 17.4741 2.7321 2.17157 0
M  V30 189 C 18.8221 3.21562 2.77278 0
M  V30 190 O 19.8461 2.74131 2.27444 0
M  V30 191 O 18.7051 4.04094 3.67927 0
M  V30 192 H 15.7991 0.587003 0.582543 0
M  V30 193 H 18.3451 1.60676 0.546021 0
M  V30 194 H 17.1171 3.58465 1.56903 0
M  V30 195 H 16.7401 2.62235 2.98862 0
M  V30 196 N 17.7372 -0.778329 1.37039 0
M  V30 197 C 18.7002 -1.87301 1.32102 0
M  V30 198 C 19.7002 -1.59198 0.226405 0
M  V30 199 O 20.8902 -1.67403 0.481861 0
M  V30 200 C 18.0222 -3.24309 1.05055 0
M  V30 201 H 19.2152 -1.93093 2.29467 0
M  V30 202 H 16.7682 -0.977358 1.21973 0
M  V30 203 H 17.5032 -3.24196 0.0819373 0
M  V30 204 H 17.2882 -3.46098 1.84279 0
M  V30 205 H 18.7782 -4.04382 1.04234 0
M  V30 206 N 19.2153 -1.21501 -1.00376 0
M  V30 207 C 20.4923 -0.941745 -1.71437 0
M  V30 208 C 20.8723 0.546114 -2.03914 0
M  V30 209 O 20.2203 1.51128 -1.71384 0
M  V30 210 C 20.4303 -1.82812 -2.97289 0
M  V30 211 C 21.7783 -2.07771 -3.70292 0
M  V30 212 O 22.8023 -1.80171 -3.07273 0
M  V30 213 O 21.6613 -2.54456 -4.83647 0
M  V30 214 H 18.7553 -0.353243 -0.747762 0
M  V30 215 H 21.3013 -1.32436 -1.06108 0
M  V30 216 H 20.0733 -2.83501 -2.69709 0
M  V30 217 H 19.6963 -1.4464 -3.70358 0
M  V30 218 N 20.6934 1.19889 -1.02296 0
M  V30 219 C 21.9394 1.89973 -0.726759 0
M  V30 220 C 22.2944 1.7776 0.73614 0
M  V30 221 O 21.5874 1.15523 1.52856 0
M  V30 222 C 21.7814 3.39883 -1.10518 0
M  V30 223 C 21.6104 3.66684 -2.60332 0
M  V30 224 C 20.3804 3.85045 -3.27213 0
M  V30 225 C 22.5784 3.68727 -3.58532 0
M  V30 226 N 20.5604 3.99422 -4.66192 0
M  V30 227 C 21.9314 3.88604 -4.83101 0
M  V30 228 C 23.9864 3.51722 -3.52414 0
M  V30 229 C 22.6894 3.9324 -6.02292 0
M  V30 230 C 24.7154 3.57632 -4.71013 0
M  V30 231 C 24.0774 3.77988 -5.94394 0
M  V30 232 H 20.1764 0.714551 -0.317712 0
M  V30 233 H 22.7604 1.44123 -1.30907 0
M  V30 234 H 20.9314 3.8447 -0.551142 0
M  V30 235 H 22.6634 3.97464 -0.761853 0
M  V30 236 H 19.4184 3.83689 -2.77632 0
M  V30 237 H 19.8424 4.10473 -5.38368 0
M  V30 238 H 24.4844 3.34945 -2.58015 0
M  V30 239 H 22.2024 4.08811 -6.97065 0
M  V30 240 H 25.7884 3.45773 -4.67902 0
M  V30 241 H 24.6684 3.82428 -6.8463 0
M  V30 242 N 22.1715 0.800033 1.35784 0
M  V30 243 C 23.5875 0.482977 1.52117 0
M  V30 244 C 23.7875 -0.996948 1.75109 0
M  V30 245 O 22.8435 -1.78216 1.78872 0
M  V30 246 C 24.1565 1.32264 2.70049 0
M  V30 247 C 25.7045 1.31742 2.83924 0
M  V30 248 C 26.1795 2.14106 4.04874 0
M  V30 249 N 27.6705 2.11607 4.12039 0
M  V30 250 C 28.4055 2.72099 5.04727 0
M  V30 251 N 27.9015 3.41492 6.02789 0
M  V30 252 N 29.6945 2.61776 4.97423 0
M  V30 253 H 21.8455 1.75856 1.19115 0
M  V30 254 H 24.1085 0.748122 0.582252 0
M  V30 255 H 23.8145 2.37261 2.59616 0
M  V30 256 H 23.6885 0.971303 3.6448 0
M  V30 257 H 26.0755 0.275333 2.93813 0
M  V30 258 H 26.1565 1.70859 1.9037 0
M  V30 259 H 25.8005 3.18351 3.95746 0
M  V30 260 H 25.7305 1.72353 4.97596 0
M  V30 261 H 28.2215 1.61112 3.41835 0
M  V30 262 H 28.5345 3.84953 6.70098 0
M  V30 263 H 26.8795 3.45596 6.02983 0
M  V30 264 H 30.0705 2.07157 4.19766 0
M  V30 265 H 30.2435 3.0921 5.69468 0
M  V30 266 N 23.6496 -1.47581 0.552962 0
M  V30 267 C 24.5596 -2.33743 -0.200353 0
M  V30 268 C 25.5756 -1.47928 -0.916151 0
M  V30 269 O 26.7516 -1.80865 -0.885993 0
M  V30 270 C 23.8166 -3.24536 -1.21973 0
M  V30 271 C 22.8776 -4.26238 -0.511819 0
M  V30 272 C 22.1106 -5.12693 -1.48263 0
M  V30 273 O 22.3336 -5.01525 -2.71714 0
M  V30 274 O 21.2676 -5.93375 -1.00945 0
M  V30 275 H 25.0936 -2.9945 0.506304 0
M  V30 276 H 22.6786 -1.46071 0.313622 0
M  V30 277 H 24.5606 -3.80631 -1.80827 0
M  V30 278 H 23.2356 -2.61462 -1.90839 0
M  V30 279 H 22.1426 -3.73914 0.117799 0
M  V30 280 H 23.4756 -4.92014 0.135308 0
M  V30 281 N 25.1277 -0.289203 -1.54924 0
M  V30 282 C 26.3737 0.323998 -2.00195 0
M  V30 283 C 26.7067 1.54441 -1.17735 0
M  V30 284 O 25.9817 1.92875 -0.250878 0
M  V30 285 C 26.2647 0.692276 -3.53383 0
M  V30 286 C 26.1177 -0.536457 -4.46589 0
M  V30 287 C 27.4367 1.52335 -4.12895 0
M  V30 288 H 24.5557 0.116289 -0.727768 0
M  V30 289 H 27.1977 -0.398954 -1.85764 0
M  V30 290 H 25.3477 1.30822 -3.65811 0
M  V30 291 H 27.0197 -1.17499 -4.46085 0
M  V30 292 H 25.2627 -1.17192 -4.1767 0
M  V30 293 H 25.9337 -0.234806 -5.515 0
M  V30 294 H 28.4097 1.00302 -4.0383 0
M  V30 295 H 27.2857 1.74982 -5.20262 0
M  V30 296 H 27.5467 2.50886 -3.64018 0
M  V30 297 N 26.6058 1.57591 -0.0167156 0
M  V30 298 C 27.5388 2.04944 1.00366 0
M  V30 299 C 28.5168 0.942648 1.32487 0
M  V30 300 O 29.7008 1.21205 1.44367 0
M  V30 301 C 26.8278 2.46109 2.32697 0
M  V30 302 C 25.8738 3.67686 2.16123 0
M  V30 303 S 26.7068 5.14882 1.47161 0
M  V30 304 C 27.8628 5.59332 2.80888 0
M  V30 305 H 28.0958 2.91172 0.600528 0
M  V30 306 H 25.6288 1.53168 0.194632 0
M  V30 307 H 27.5868 2.70493 3.08778 0
M  V30 308 H 26.2478 1.6025 2.70146 0
M  V30 309 H 25.4408 3.94296 3.13922 0
M  V30 310 H 25.0428 3.43391 1.48185 0
M  V30 311 H 27.3348 5.62814 3.77156 0
M  V30 312 H 28.2778 6.5905 2.58958 0
M  V30 313 H 28.6858 4.86942 2.85565 0
M  V30 314 N 28.0839 -0.256276 1.55502 0
M  V30 315 C 29.0169 -1.34321 1.84481 0
M  V30 316 C 29.9949 -1.46802 0.699131 0
M  V30 317 O 31.1789 -1.63165 0.943904 0
M  V30 318 C 28.3059 -2.71779 2.02123 0
M  V30 319 C 27.3519 -2.76496 3.24734 0
M  V30 320 S 28.1849 -2.3405 4.81644 0
M  V30 321 C 29.3409 -3.73452 5.02279 0
M  V30 322 H 29.5739 -1.09539 2.76385 0
M  V30 323 H 27.1069 -0.45678 1.47489 0
M  V30 324 H 29.0649 -3.50932 2.12972 0
M  V30 325 H 27.7259 -2.93803 1.11078 0
M  V30 326 H 26.9189 -3.77424 3.34016 0
M  V30 327 H 26.5209 -2.05379 3.12563 0
M  V30 328 H 28.8129 -4.6887 4.89047 0
M  V30 329 H 29.7559 -3.6911 6.04287 0
M  V30 330 H 30.1639 -3.6553 4.30172 0
M  V30 331 N 29.562 -1.4872 -0.521534 0
M  V30 332 C 30.973 -1.50607 -1.10337 0
M  V30 333 C 31.324 -0.280612 -1.94183 0
M  V30 334 O 30.449 0.611507 -2.0758 0
M  V30 335 C 31.044 -2.72903 -2.00772 0
M  V30 336 C 29.603 -2.77634 -2.54158 0
M  V30 337 C 28.75 -2.44241 -1.31307 0
M  V30 338 H 31.701 -1.55714 -0.306388 0
M  V30 339 H 31.722 -2.519 -2.85178 0
M  V30 340 H 31.234 -3.62077 -1.39721 0
M  V30 341 H 29.335 -1.92689 -3.18907 0
M  V30 342 H 29.448 -3.79283 -2.92714 0
M  V30 343 H 27.812 -1.95577 -1.63161 0
M  V30 344 H 28.595 -3.35666 -0.719943 0
M  V30 345 N 31.0401 0.771051 -1.3745 0
M  V30 346 C 32.2701 1.55789 -1.35696 0
M  V30 347 C 32.6781 1.89107 0.0594523 0
M  V30 348 O 32.0211 1.51984 1.03183 0
M  V30 349 C 32.0831 2.89515 -2.13123 0
M  V30 350 C 31.7471 2.78829 -3.62082 0
M  V30 351 C 32.7441 2.49812 -4.5595 0
M  V30 352 C 30.4291 2.9683 -4.05213 0
M  V30 353 C 32.4231 2.38923 -5.90927 0
M  V30 354 C 30.1101 2.85562 -5.40276 0
M  V30 355 C 31.1081 2.56649 -6.32946 0
M  V30 356 O 30.7961 2.45408 -7.65526 0
M  V30 357 H 30.5281 0.489257 -0.466481 0
M  V30 358 H 33.0821 0.963446 -1.81403 0
M  V30 359 H 31.3121 3.51081 -1.62107 0
M  V30 360 H 33.0011 3.50915 -2.03994 0
M  V30 361 H 33.7671 2.3559 -4.23937 0
M  V30 362 H 29.6461 3.18335 -3.33442 0
M  V30 363 H 33.1901 2.16277 -6.63227 0
M  V30 364 H 29.0871 2.99351 -5.71891 0
M  V30 365 H 29.8551 2.60753 -7.75855 0
M  V30 366 N 32.5182 1.22032 0.997298 0
M  V30 367 C 33.7432 1.06921 1.77715 0
M  V30 368 C 34.1682 -0.376226 1.84299 0
M  V30 369 O 33.5262 -1.27165 1.29223 0
M  V30 370 C 33.5742 1.67996 3.19076 0
M  V30 371 O 32.6782 0.930653 4.01762 0
M  V30 372 H 32.0192 0.375814 0.547412 0
M  V30 373 H 34.5492 1.61737 1.25309 0
M  V30 374 H 34.5592 1.72538 3.69723 0
M  V30 375 H 33.2342 2.73182 3.13599 0
M  V30 376 H 31.8112 0.960917 3.60307 0
M  V30 377 N 33.9963 -1.19345 1.0293 0
M  V30 378 C 35.2243 -1.92997 0.745644 0
M  V30 379 C 35.6393 -1.75519 -0.695589 0
M  V30 380 O 34.9963 -1.07737 -1.47306 0
M  V30 381 C 35.0473 -3.44741 1.08792 0
M  V30 382 O 34.7683 -3.61658 2.47256 0
M  V30 383 C 36.2693 -4.35515 0.827129 0
M  V30 384 H 33.4893 -0.613042 0.272801 0
M  V30 385 H 36.0333 -1.51473 1.3739 0
M  V30 386 H 34.1883 -3.84097 0.504832 0
M  V30 387 H 34.6023 -4.55514 2.60015 0
M  V30 388 H 36.0763 -5.40589 1.11658 0
M  V30 389 H 36.5533 -4.38552 -0.238436 0
M  V30 390 H 37.1593 -4.01841 1.39297 0
M  V30 391 N 35.4744 -0.807222 -1.35358 0
M  V30 392 C 36.3844 -0.219594 -2.3357 0
M  V30 393 C 37.4004 0.637734 -1.61892 0
M  V30 394 O 38.5764 0.549336 -1.93763 0
M  V30 395 C 35.6414 0.62158 -3.41083 0
M  V30 396 C 34.7024 -0.256315 -4.28534 0
M  V30 397 C 33.9354 0.544807 -5.30912 0
M  V30 398 O 34.1584 1.77944 -5.41934 0
M  V30 399 O 33.0924 -0.0646478 -6.01865 0
M  V30 400 H 36.9184 -1.03208 -2.85625 0
M  V30 401 H 34.5034 -0.569025 -1.38139 0
M  V30 402 H 36.3854 1.10067 -4.06772 0
M  V30 403 H 35.0604 1.41165 -2.91297 0
M  V30 404 H 33.9674 -0.782559 -3.65823 0
M  V30 405 H 35.3004 -1.01034 -4.81719 0
M  V30 406 N 36.9525 1.47285 -0.560781 0
M  V30 407 C 37.8825 2.32857 0.173105 0
M  V30 408 C 38.8635 1.44009 0.905281 0
M  V30 409 O 40.0485 1.7286 0.885046 0
M  V30 410 C 37.1785 3.25861 1.20133 0
M  V30 411 C 36.1325 4.23978 0.585388 0
M  V30 412 C 35.4585 5.06332 1.7185 0
M  V30 413 C 36.7585 5.20242 -0.463178 0
M  V30 414 H 38.4525 2.94466 -0.541307 0
M  V30 415 H 35.9985 1.41601 -0.261764 0
M  V30 416 H 37.9515 3.84569 1.72293 0
M  V30 417 H 36.6755 2.62315 1.94573 0
M  V30 418 H 35.3345 3.66501 0.085054 0
M  V30 419 H 34.9825 4.39186 2.45203 0
M  V30 420 H 34.6825 5.72762 1.31213 0
M  V30 421 H 36.2065 5.67899 2.24329 0
M  V30 422 H 37.6205 5.73293 -0.027502 0
M  V30 423 H 36.0175 5.94896 -0.788627 0
M  V30 424 H 37.0875 4.65504 -1.35773 0
M  V30 425 N 38.4306 0.297415 1.54768 0
M  V30 426 C 39.6796 -0.313669 1.99246 0
M  V30 427 C 39.9926 -1.55281 1.18942 0
M  V30 428 O 41.1986 -2.23825 1.5367 0
M  V30 429 C 39.6546 -0.609407 3.54703 0
M  V30 430 C 39.2626 0.611192 4.43811 0
M  V30 431 C 41.0066 -1.18188 4.07715 0
M  V30 432 C 38.9136 0.288805 5.90694 0
M  V30 433 H 37.8436 -0.120979 0.744231 0
M  V30 434 H 40.4946 0.40556 1.78962 0
M  V30 435 H 38.8766 -1.38813 3.70873 0
M  V30 436 H 40.0506 1.3875 4.39414 0
M  V30 437 H 38.3656 1.10205 4.01552 0
M  V30 438 H 40.9626 -1.43727 5.15021 0
M  V30 439 H 41.3056 -2.12299 3.58099 0
M  V30 440 H 41.8386 -0.464944 3.95074 0
M  V30 441 H 38.5776 1.19838 6.44453 0
M  V30 442 H 38.0976 -0.450305 5.98107 0
M  V30 443 H 39.7766 -0.110933 6.46905 0
M  V30 444 N 39.9087 -1.5758 0.0250728 0
M  V30 445 C 41.1557 -1.91633 -0.654444 0
M  V30 446 C 41.4837 -0.901103 -1.72367 0
M  V30 447 O 40.7387 0.0905647 -1.9549 0
M  V30 448 C 41.0377 -3.32421 -1.31268 0
M  V30 449 C 40.7037 -4.49344 -0.374223 0
M  V30 450 C 39.3657 -4.8106 -0.115911 0
M  V30 451 C 41.7177 -5.20498 0.270432 0
M  V30 452 C 39.0457 -5.8129 0.79493 0
M  V30 453 C 41.3977 -6.21699 1.1693 0
M  V30 454 C 40.0617 -6.51859 1.43655 0
M  V30 455 H 39.3317 -0.701236 -0.239478 0
M  V30 456 H 41.9787 -1.91307 0.0859734 0
M  V30 457 H 40.2837 -3.28989 -2.12775 0
M  V30 458 H 41.9807 -3.56038 -1.84494 0
M  V30 459 H 38.5707 -4.24579 -0.58573 0
M  V30 460 H 42.7547 -4.96229 0.0839194 0
M  V30 461 H 38.0107 -6.03005 1.00973 0
M  V30 462 H 42.1847 -6.75955 1.67504 0
M  V30 463 H 39.8117 -7.2934 2.144 0
M  V30 464 N 41.3868 0.248026 -1.55636 0
M  V30 465 C 42.6168 0.992367 -1.81206 0
M  V30 466 C 43.0248 1.7949 -0.598324 0
M  V30 467 O 42.3678 1.78292 0.442434 0
M  V30 468 C 42.4298 1.97926 -3.00109 0
M  V30 469 C 42.0938 1.36377 -4.36177 0
M  V30 470 C 43.0908 0.76682 -5.14214 0
M  V30 471 C 40.7758 1.38347 -4.82872 0
M  V30 472 C 42.7698 0.197778 -6.37093 0
M  V30 473 C 40.4568 0.810574 -6.057 0
M  V30 474 C 41.4548 0.218754 -6.8265 0
M  V30 475 O 41.1428 -0.345298 -8.03158 0
M  V30 476 H 40.8748 0.297704 -0.606917 0
M  V30 477 H 43.4288 0.276517 -2.0353 0
M  V30 478 H 41.6588 2.73339 -2.73538 0
M  V30 479 H 43.3478 2.58694 -3.12781 0
M  V30 480 H 44.1138 0.744114 -4.79258 0
M  V30 481 H 39.9928 1.8335 -4.2297 0
M  V30 482 H 43.5368 -0.264788 -6.97097 0
M  V30 483 H 39.4338 0.830604 -6.40134 0
M  V30 484 H 40.2018 -0.237055 -8.18157 0
M  V30 485 N 42.8649 1.48995 0.513639 0
M  V30 486 C 44.1139 1.57093 1.2651 0
M  V30 487 C 44.4269 0.257091 1.93903 0
M  V30 488 O 45.6329 0.216478 2.70636 0
M  V30 489 C 44.0889 2.77118 2.29638 0
M  V30 490 C 43.6969 4.15209 1.68241 0
M  V30 491 C 45.4409 2.94538 3.05692 0
M  V30 492 C 43.3479 5.26474 2.69406 0
M  V30 493 H 42.2779 0.584876 0.475854 0
M  V30 494 H 44.9289 1.7536 0.540487 0
M  V30 495 H 43.3109 2.52319 3.05207 0
M  V30 496 H 44.4849 4.50094 0.987505 0
M  V30 497 H 42.7999 4.03042 1.04623 0
M  V30 498 H 45.3969 3.74832 3.8132 0
M  V30 499 H 45.7399 2.04614 3.62545 0
M  V30 500 H 46.2729 3.19316 2.37238 0
M  V30 501 H 43.0119 6.18417 2.17351 0
M  V30 502 H 42.5319 4.96058 3.37175 0
M  V30 503 H 44.2109 5.55277 3.32078 0
M  V30 504 N 44.343 -0.763751 1.37857 0
M  V30 505 C 45.253 -1.90817 1.36478 0
M  V30 506 C 46.269 -1.71997 0.263248 0
M  V30 507 O 47.445 -1.95095 0.499979 0
M  V30 508 C 44.51 -3.2605 1.17864 0
M  V30 509 C 43.571 -3.57467 2.3773 0
M  V30 510 C 42.804 -4.86249 2.19995 0
M  V30 511 O 43.027 -5.57884 1.18836 0
M  V30 512 O 41.961 -5.16911 3.08361 0
M  V30 513 H 45.787 -1.94933 2.32884 0
M  V30 514 H 43.372 -0.907619 1.1867 0
M  V30 515 H 45.254 -4.06924 1.09504 0
M  V30 516 H 43.929 -3.22769 0.245372 0
M  V30 517 H 42.836 -2.76796 2.51664 0
M  V30 518 H 44.169 -3.655 3.29652 0
M  V30 519 N 45.8211 -1.22559 -0.990812 0
M  V30 520 C 46.7541 -0.940773 -2.07905 0
M  V30 521 C 47.7321 0.117082 -1.62178 0
M  V30 522 O 48.9161 -0.0149506 -1.88494 0
M  V30 523 C 46.0431 -0.415321 -3.36144 0
M  V30 524 C 45.0891 -1.45818 -4.00799 0
M  V30 525 S 45.9221 -3.03219 -4.41382 0
M  V30 526 C 47.0781 -2.52317 -5.72789 0
M  V30 527 H 47.3111 -1.8623 -2.31745 0
M  V30 528 H 44.8441 -1.05688 -1.12558 0
M  V30 529 H 46.8021 -0.118747 -4.10328 0
M  V30 530 H 45.4631 0.485121 -3.10331 0
M  V30 531 H 44.6561 -1.04044 -4.93144 0
M  V30 532 H 44.2581 -1.70356 -3.32949 0
M  V30 533 H 46.5501 -1.93688 -6.49224 0
M  V30 534 H 47.4931 -3.43161 -6.19392 0
M  V30 535 H 47.9011 -1.93529 -5.30289 0
M  V30 536 N 47.2992 1.18797 -1.03562 0
M  V30 537 C 48.5762 1.84469 -0.650434 0
M  V30 538 C 48.9562 1.92319 0.870433 0
M  V30 539 O 48.3042 1.44528 1.76986 0
M  V30 540 C 48.5142 3.2306 -1.32036 0
M  V30 541 C 49.8622 3.9915 -1.44792 0
M  V30 542 O 50.8862 3.32481 -1.27806 0
M  V30 543 O 49.7452 5.18587 -1.72423 0
M  V30 544 H 46.8392 0.795251 -0.226946 0
M  V30 545 H 49.3852 1.26231 -1.13419 0
M  V30 546 H 48.1572 3.1222 -2.3587 0
M  V30 547 H 47.7802 3.88949 -0.8249 0
M  V30 548 N 48.7773 0.814389 1.34928 0
M  V30 549 C 50.1883 0.458364 1.80986 0
M  V30 550 C 50.5393 -1.02042 1.67577 0
M  V30 551 O 49.6643 -1.79352 1.21086 0
M  V30 552 C 50.2593 0.825212 3.28597 0
M  V30 553 C 48.8183 0.521677 3.72767 0
M  V30 554 C 47.9653 1.04668 2.56788 0
M  V30 555 H 50.9163 1.00533 1.22795 0
M  V30 556 H 50.9373 0.12571 3.80292 0
M  V30 557 H 50.4493 1.90154 3.38324 0
M  V30 558 H 48.5503 -0.545589 3.68584 0
M  V30 559 H 48.6633 1.05977 4.67232 0
M  V30 560 H 47.0273 0.468622 2.50352 0
M  V30 561 H 47.8103 2.12927 2.6929 0
M  V30 562 N 50.2554 -1.46986 0.568584 0
M  V30 563 C 51.6664 -1.86188 0.138219 0
M  V30 564 C 52.0174 -1.47388 -1.29504 0
M  V30 565 O 51.1424 -0.88219 -1.97602 0
M  V30 566 C 51.7374 -3.3792 0.244065 0
M  V30 567 C 50.2964 -3.76171 -0.131335 0
M  V30 568 C 49.4434 -2.71027 0.586465 0
M  V30 569 H 52.3944 -1.38342 0.777645 0
M  V30 570 H 52.4154 -3.76729 -0.534351 0
M  V30 571 H 51.9274 -3.66128 1.28731 0
M  V30 572 H 50.0284 -3.5358 -1.17526 0
M  V30 573 H 50.1414 -4.78523 0.235146 0
M  V30 574 H 48.5054 -2.54684 0.0282722 0
M  V30 575 H 49.2884 -3.02077 1.63109 0
M  V30 576 N 51.7335 -0.305618 -1.54608 0
M  V30 577 C 52.6965 0.555591 -2.22364 0
M  V30 578 C 53.6965 1.05768 -1.21119 0
M  V30 579 O 54.8865 0.952972 -1.45822 0
M  V30 580 C 52.0185 1.76974 -2.91364 0
M  V30 581 H 53.2115 -0.0364572 -2.99878 0
M  V30 582 H 50.7645 -0.0565007 -1.56198 0
M  V30 583 H 51.4995 2.40151 -2.17941 0
M  V30 584 H 51.2845 1.41732 -3.65588 0
M  V30 585 H 52.7745 2.38148 -3.43038 0
M  V30 586 N 53.2116 1.57565 -0.0334293 0
M  V30 587 C 54.1416 2.13511 0.945265 0
M  V30 588 C 55.1226 1.05231 1.33643 0
M  V30 589 O 56.3076 1.33084 1.41429 0
M  V30 590 C 53.4376 2.6657 2.22616 0
M  V30 591 C 52.3916 3.79676 1.97561 0
M  V30 592 C 51.7176 4.1918 3.31952 0
M  V30 593 C 53.0176 5.0557 1.31135 0
M  V30 594 H 54.7116 2.95538 0.479325 0
M  V30 595 H 52.2576 1.42166 0.229115 0
M  V30 596 H 54.2106 3.04344 2.91466 0
M  V30 597 H 52.9346 1.8171 2.71384 0
M  V30 598 H 51.5936 3.42347 1.31127 0
M  V30 599 H 51.2416 3.31296 3.78487 0
M  V30 600 H 50.9416 4.95402 3.15992 0
M  V30 601 H 52.4656 4.59541 4.02063 0
M  V30 602 H 53.8796 5.40903 1.89992 0
M  V30 603 H 52.2766 5.86818 1.25559 0
M  V30 604 H 53.3466 4.84062 0.284894 0
M  V30 605 N 54.6897 -0.239769 1.55765 0
M  V30 606 C 56.1007 -0.808263 1.68297 0
M  V30 607 C 56.4517 -1.85736 0.632181 0
M  V30 608 O 55.5767 -2.15277 -0.220204 0
M  V30 609 C 56.1717 -1.47284 3.05111 0
M  V30 610 C 54.7307 -1.98895 3.19559 0
M  V30 611 C 53.8777 -0.842575 2.64189 0
M  V30 612 H 56.8287 -0.0154422 1.58692 0
M  V30 613 H 56.8497 -2.34111 2.99954 0
M  V30 614 H 56.3617 -0.709053 3.81568 0
M  V30 615 H 54.4627 -2.78132 2.47938 0
M  V30 616 H 54.5757 -2.18143 4.26556 0
M  V30 617 H 52.9397 -1.24501 2.22197 0
M  V30 618 H 53.7227 -0.0917552 3.43177 0
M  V30 619 N 56.1678 -1.49265 -0.50573 0
M  V30 620 C 57.5788 -1.51769 -1.08734 0
M  V30 621 C 57.9298 -0.301192 -1.93874 0
M  V30 622 O 57.0548 0.589456 -2.08217 0
M  V30 623 C 57.6498 -2.75017 -1.97867 0
M  V30 624 C 56.2088 -2.80314 -2.51199 0
M  V30 625 C 55.3558 -2.4562 -1.28709 0
M  V30 626 H 58.3068 -1.56031 -0.289855 0
M  V30 627 H 58.3278 -2.5491 -2.82491 0
M  V30 628 H 57.8398 -3.63539 -1.35873 0
M  V30 629 H 55.9408 -1.96061 -3.16845 0
M  V30 630 H 56.0538 -3.82366 -2.88675 0
M  V30 631 H 54.4178 -1.97297 -1.61078 0
M  V30 632 H 55.2008 -3.36411 -0.6843 0
M  V30 633 N 57.6459 0.756429 -1.3826 0
M  V30 634 C 58.5929 1.87011 -1.35261 0
M  V30 635 C 59.5629 1.64695 -0.215616 0
M  V30 636 O 60.7479 1.864 -0.407399 0
M  V30 637 C 57.8879 3.24275 -1.18068 0
M  V30 638 C 57.0009 3.58442 -2.41129 0
M  V30 639 C 56.1359 4.84994 -2.16689 0
M  V30 640 C 55.1749 5.11939 -3.35537 0
M  V30 641 N 54.3119 6.29685 -3.10549 0
M  V30 642 H 59.1519 1.8891 -2.30472 0
M  V30 643 H 56.6889 0.923373 -1.14509 0
M  V30 644 H 58.6469 4.03479 -1.06116 0
M  V30 645 H 57.2769 3.21711 -0.264973 0
M  V30 646 H 56.3289 2.74103 -2.63764 0
M  V30 647 H 57.6409 3.74283 -3.29717 0
M  V30 648 H 56.7949 5.72135 -2.01857 0
M  V30 649 H 55.5339 4.71286 -1.25462 0
M  V30 650 H 54.5389 4.23268 -3.50891 0
M  V30 651 H 55.7639 5.27546 -4.27635 0
M  V30 652 H 53.7099 6.17306 -2.21967 0
M  V30 653 H 53.6269 6.46014 -3.92686 0
M  V30 654 H 54.8949 7.19722 -2.99367 0
M  V30 655 N 59.124 1.23083 0.984299 0
M  V30 656 C 60.535 1.05609 1.5396 0
M  V30 657 C 60.886 -0.377793 1.92528 0
M  V30 658 O 60.011 -1.26398 1.75649 0
M  V30 659 C 60.606 1.91087 2.7977 0
M  V30 660 C 59.165 1.77885 3.31713 0
M  V30 661 C 58.312 1.87028 2.04733 0
M  V30 662 H 61.263 1.36802 0.804419 0
M  V30 663 H 61.284 1.43336 3.5247 0
M  V30 664 H 60.796 2.9544 2.51668 0
M  V30 665 H 58.897 0.762995 3.64704 0
M  V30 666 H 59.01 2.61047 4.01735 0
M  V30 667 H 57.374 1.30565 2.18689 0
M  V30 668 H 58.157 2.92929 1.79017 0
M  V30 669 N 60.6021 -1.18246 1.0419 0
M  V30 670 C 62.0131 -1.69914 0.773698 0
M  V30 671 C 62.3641 -1.83085 -0.705297 0
M  V30 672 O 61.4891 -1.51123 -1.5489 0
M  V30 673 C 62.0841 -3.08619 1.39784 0
M  V30 674 C 60.6431 -3.57494 1.17792 0
M  V30 675 C 59.7901 -2.34013 1.48773 0
M  V30 676 H 62.7411 -1.02904 1.20816 0
M  V30 677 H 62.7621 -3.71958 0.801714 0
M  V30 678 H 62.2741 -2.99001 2.47426 0
M  V30 679 H 60.3751 -3.72406 0.120295 0
M  V30 680 H 60.4881 -4.40852 1.87581 0
M  V30 681 H 58.8521 -2.37986 0.907463 0
M  V30 682 H 59.6351 -2.27013 2.57527 0
M  V30 683 N 62.0802 -0.821533 -1.34494 0
M  V30 684 C 63.0272 -0.240397 -2.29545 0
M  V30 685 C 63.9972 0.634031 -1.53523 0
M  V30 686 O 65.1822 0.575966 -1.81899 0
M  V30 687 C 62.3222 0.592869 -3.39969 0
M  V30 688 C 61.4352 -0.30365 -4.30932 0
M  V30 689 C 60.5702 0.539049 -5.28458 0
M  V30 690 C 59.6092 -0.356942 -6.11058 0
M  V30 691 N 58.7462 0.446603 -7.00678 0
M  V30 692 H 63.5862 -1.05632 -2.7865 0
M  V30 693 H 61.1232 -0.532413 -1.37127 0
M  V30 694 H 63.0812 1.09129 -4.02675 0
M  V30 695 H 61.7112 1.37392 -2.92102 0
M  V30 696 H 60.7632 -0.920276 -3.691 0
M  V30 697 H 62.0752 -0.992661 -4.88823 0
M  V30 698 H 61.2292 1.102 -5.96608 0
M  V30 699 H 59.9682 1.26157 -4.71101 0
M  V30 700 H 58.9732 -0.932047 -5.41842 0
M  V30 701 H 60.1982 -1.07755 -6.70497 0
M  V30 702 H 58.1442 1.15282 -6.45791 0
M  V30 703 H 58.0612 -0.184048 -7.55776 0
M  V30 704 H 59.3292 0.992352 -7.73158 0
M  V30 705 N 63.5583 1.46682 -0.576371 0
M  V30 706 C 64.9693 1.86112 -0.148091 0
M  V30 707 C 65.3203 1.48073 1.2872 0
M  V30 708 O 64.4453 0.892656 1.97131 0
M  V30 709 C 65.0403 3.37786 -0.261982 0
M  V30 710 C 63.5993 3.76235 0.111384 0
M  V30 711 C 62.7463 2.70713 -0.60083 0
M  V30 712 H 65.6973 1.37927 -0.78497 0
M  V30 713 H 65.7183 3.77007 0.514364 0
M  V30 714 H 65.2303 3.6544 -1.30671 0
M  V30 715 H 63.3313 3.54198 1.15649 0
M  V30 716 H 63.4443 4.78391 -0.26052 0
M  V30 717 H 61.8083 2.54666 -0.0417783 0
M  V30 718 H 62.5913 3.01208 -1.64708 0
M  V30 719 N 65.0364 0.313813 1.54444 0
M  V30 720 C 65.9694 -0.598866 2.20202 0
M  V30 721 C 66.9474 -1.12318 1.17573 0
M  V30 722 O 68.1314 -1.18899 1.46271 0
M  V30 723 C 65.2584 -1.82071 2.85601 0
M  V30 724 C 64.3044 -1.42851 4.01865 0
M  V30 725 S 65.1374 -0.473512 5.33402 0
M  V30 726 C 66.2934 -1.70286 6.0229 0
M  V30 727 H 66.5264 -0.0402532 2.97273 0
M  V30 728 H 64.0594 0.0979165 1.54089 0
M  V30 729 H 66.0174 -2.52184 3.23904 0
M  V30 730 H 64.6784 -2.3505 2.08351 0
M  V30 731 H 63.8714 -2.33871 4.46453 0
M  V30 732 H 63.4734 -0.807198 3.65185 0
M  V30 733 H 65.7654 -2.64168 6.23876 0
M  V30 734 H 66.7084 -1.29932 6.96077 0
M  V30 735 H 67.1164 -1.88541 5.32083 0
M  V30 736 N 66.5145 -1.57545 0.0417849 0
M  V30 737 C 67.7425 -1.96624 -0.643928 0
M  V30 738 C 68.1575 -0.918897 -1.64929 0
M  V30 739 O 67.5145 0.0979323 -1.82237 0
M  V30 740 C 67.5655 -3.35781 -1.33914 0
M  V30 741 O 67.2865 -4.365 -0.374048 0
M  V30 742 C 68.7875 -3.89566 -2.1155 0
M  V30 743 H 66.0075 -0.647316 -0.176702 0
M  V30 744 H 68.5515 -2.04229 0.105304 0
M  V30 745 H 66.7065 -3.29357 -2.03968 0
M  V30 746 H 67.1205 -5.17248 -0.869179 0
M  V30 747 H 68.5945 -4.89242 -2.55628 0
M  V30 748 H 69.0715 -3.24488 -2.9598 0
M  V30 749 H 69.6775 -3.99298 -1.46427 0
M  V30 750 N 67.9926 0.231505 -1.5589 0
M  V30 751 C 69.2176 0.978689 -1.82856 0
M  V30 752 C 69.6426 1.77559 -0.620846 0
M  V30 753 O 69.0006 1.76119 0.430305 0
M  V30 754 C 69.0486 1.87997 -3.07716 0
M  V30 755 O 68.1526 2.97393 -2.85712 0
M  V30 756 H 67.4936 0.277663 -0.603158 0
M  V30 757 H 70.0236 0.24783 -2.03093 0
M  V30 758 H 70.0336 2.2917 -3.37558 0
M  V30 759 H 68.7086 1.29417 -3.95252 0
M  V30 760 H 67.2856 2.60238 -2.67078 0
M  V30 761 N 69.4707 1.49531 0.497807 0
M  V30 762 C 70.4337 1.65916 1.58128 0
M  V30 763 C 71.4337 0.530825 1.51786 0
M  V30 764 O 72.6237 0.797342 1.54881 0
M  V30 765 C 69.7557 1.65951 2.9778 0
M  V30 766 H 70.9487 2.62556 1.44929 0
M  V30 767 H 68.5017 1.38611 0.722275 0
M  V30 768 H 69.2367 0.709065 3.16453 0
M  V30 769 H 69.0217 2.47897 3.03792 0
M  V30 770 H 70.5117 1.80673 3.76493 0
M  V30 771 N 70.9488 -0.749086 1.3866 0
M  V30 772 C 72.1948 -1.51056 1.35314 0
M  V30 773 C 72.5278 -1.94121 -0.0553751 0
M  V30 774 O 71.8028 -1.65763 -1.01749 0
M  V30 775 C 72.0858 -2.76003 2.31288 0
M  V30 776 C 71.9388 -2.39047 3.8102 0
M  V30 777 C 73.2578 -3.78046 2.2532 0
M  V30 778 H 70.3768 -0.547972 0.492844 0
M  V30 779 H 73.0188 -0.857628 1.69543 0
M  V30 780 H 71.1688 -3.31716 2.02229 0
M  V30 781 H 72.8408 -1.89074 4.20771 0
M  V30 782 H 71.0838 -1.71449 3.98482 0
M  V30 783 H 71.7548 -3.28462 4.4364 0
M  V30 784 H 74.2308 -3.31884 2.50983 0
M  V30 785 H 73.1068 -4.63159 2.94576 0
M  V30 786 H 73.3678 -4.23957 1.25352 0
M  V30 787 N 72.4269 -1.23603 -0.977757 0
M  V30 788 C 73.8379 -1.06424 -1.53398 0
M  V30 789 C 74.1889 0.367578 -1.92726 0
M  V30 790 O 73.3139 1.25465 -1.76316 0
M  V30 791 C 73.9089 -1.92568 -2.78753 0
M  V30 792 C 72.4679 -1.79642 -3.30765 0
M  V30 793 C 71.6149 -1.88111 -2.03739 0
M  V30 794 H 74.5659 -1.37227 -0.797152 0
M  V30 795 H 74.5869 -1.45203 -3.51705 0
M  V30 796 H 74.0989 -2.96771 -2.50098 0
M  V30 797 H 72.1999 -0.782325 -3.64294 0
M  V30 798 H 72.3129 -2.63174 -4.00345 0
M  V30 799 H 70.6769 -1.31723 -2.17994 0
M  V30 800 H 71.4599 -2.93875 -1.77461 0
M  V30 801 N 73.905 1.17692 -1.04816 0
M  V30 802 C 74.853 2.23632 -0.63966 0
M  V30 803 C 75.847 1.6601 0.337219 0
M  V30 804 O 77.053 1.78844 0.203693 0
M  V30 805 H 73.428 0.727949 -0.188665 0
M  V30 806 H 75.399 2.55387 -1.54337 0
M  V30 807 C 74.148 3.4769 -0.0264051 0
M  V30 808 H 73.471 3.92331 -0.769164 0
M  V30 809 H 74.911 4.23418 0.222098 0
M  V30 810 C 73.37 3.13807 1.22584 0
M  V30 811 O 73.9 3.28236 2.31569 0
M  V30 812 N 72.106 2.68065 1.12202 0
M  V30 813 H 71.653 2.56525 0.235133 0
M  V30 814 H 71.611 2.45767 1.96076 0
M  V30 815 N 75.3831 0.828654 1.34056 0
M  V30 816 C 76.6311 0.41863 1.97717 0
M  V30 817 C 76.9521 -1.02314 1.66002 0
M  V30 818 O 76.2221 -1.71119 0.953683 0
M  V30 819 H 74.8021 0.151809 0.731412 0
M  V30 820 H 77.4641 1.05936 1.63596 0
M  V30 821 H 76.5601 0.542318 3.07352 0
M  V30 822 N 76.8612 -1.46375 0.584142 0
M  V30 823 C 77.7942 -2.27351 -0.196676 0
M  V30 824 C 78.7722 -1.35715 -0.895561 0
M  V30 825 O 79.9562 -1.65126 -0.90916 0
M  V30 826 C 77.0832 -3.13486 -1.28235 0
M  V30 827 C 76.1292 -4.20896 -0.689145 0
M  V30 828 S 76.9622 -5.33299 0.48507 0
M  V30 829 C 78.1182 -6.23 -0.601767 0
M  V30 830 H 78.3512 -2.93228 0.490395 0
M  V30 831 H 75.8842 -1.49875 0.371071 0
M  V30 832 H 77.8422 -3.63676 -1.90395 0
M  V30 833 H 76.5032 -2.4692 -1.94138 0
M  V30 834 H 75.6962 -4.80997 -1.50527 0
M  V30 835 H 75.2982 -3.73726 -0.143181 0
M  V30 836 H 77.5902 -6.60979 -1.48705 0
M  V30 837 H 78.5332 -7.0809 -0.0374799 0
M  V30 838 H 78.9412 -5.57173 -0.906557 0
M  V30 839 N 78.3393 -0.321999 -1.54275 0
M  V30 840 C 79.2863 0.544664 -2.24281 0
M  V30 841 C 80.2563 1.1129 -1.23303 0
M  V30 842 O 81.4413 1.15354 -1.51981 0
M  V30 843 C 78.5813 1.70045 -3.00298 0
M  V30 844 C 77.6943 1.16159 -4.1609 0
M  V30 845 C 76.8293 2.28293 -4.79641 0
M  V30 846 C 75.8683 1.71648 -5.8754 0
M  V30 847 N 75.0053 2.77438 -6.44959 0
M  V30 848 H 79.8453 -0.0588907 -2.97942 0
M  V30 849 H 77.3823 -0.0408345 -1.47043 0
M  V30 850 H 79.3403 2.38054 -3.42616 0
M  V30 851 H 77.9703 2.27531 -2.28975 0
M  V30 852 H 77.0223 0.373092 -3.78566 0
M  V30 853 H 78.3343 0.707087 -4.93763 0
M  V30 854 H 77.4883 3.0421 -5.2492 0
M  V30 855 H 76.2273 2.77079 -4.01346 0
M  V30 856 H 75.2323 0.942282 -5.41665 0
M  V30 857 H 76.4573 1.23741 -6.67731 0
M  V30 858 H 74.4033 3.25519 -5.69538 0
M  V30 859 H 74.3203 2.36547 -7.1804 0
M  V30 860 H 75.5883 3.53189 -6.94894 0
M  V30 861 N 79.8174 1.5752 -0.0501392 0
M  V30 862 C 81.0944 1.83996 0.663685 0
M  V30 863 C 81.4744 0.938339 1.89099 0
M  V30 864 O 80.8224 -0.00087759 2.285 0
M  V30 865 C 81.0324 3.33702 1.02196 0
M  V30 866 C 82.3804 4.00691 1.40469 0
M  V30 867 O 83.4044 3.38321 1.11433 0
M  V30 868 O 82.2634 5.10658 1.94654 0
M  V30 869 H 79.3574 0.759385 0.32751 0
M  V30 870 H 81.9034 1.69514 -0.0794238 0
M  V30 871 H 80.6754 3.91015 0.149364 0
M  V30 872 H 80.2984 3.53368 1.82255 0
M  V30 873 N 81.2955 -0.223234 1.56011 0
M  V30 874 C 82.5205 -0.968978 1.83373 0
M  V30 875 C 82.9455 -1.77227 0.630254 0
M  V30 876 O 82.3035 -1.76345 -0.420959 0
M  V30 877 C 82.3515 -1.86363 3.08709 0
M  V30 878 O 81.4555 -2.95873 2.87285 0
M  V30 879 H 80.7965 -0.274461 0.604622 0
M  V30 880 H 83.3265 -0.237056 2.03222 0
M  V30 881 H 83.3365 -2.27376 3.38768 0
M  V30 882 H 82.0115 -1.27319 3.95933 0
M  V30 883 H 80.5885 -2.58818 2.68454 0
M  V30 884 N 82.7736 -1.49793 -0.48987 0
M  V30 885 C 83.9986 -1.63836 -1.27172 0
M  V30 886 C 84.4236 -0.31402 -1.8546 0
M  V30 887 O 83.7816 0.719803 -1.66399 0
M  V30 888 C 83.8296 -2.71797 -2.36978 0
M  V30 889 O 82.9336 -2.31744 -3.41128 0
M  V30 890 H 82.2746 -0.547997 -0.37496 0
M  V30 891 H 84.8046 -1.96053 -0.585191 0
M  V30 892 H 84.8146 -2.94305 -2.82575 0
M  V30 893 H 83.4896 -3.67923 -1.93921 0
M  V30 894 H 82.0666 -2.1961 -3.01373 0
M  V30 895 N 84.2517 0.741722 -1.39055 0
M  V30 896 C 85.4977 1.50336 -1.36113 0
M  V30 897 C 85.8307 1.94148 0.0450796 0
M  V30 898 O 85.1057 1.66301 1.00868 0
M  V30 899 C 85.3887 2.74773 -2.32749 0
M  V30 900 C 85.2417 2.37023 -3.82283 0
M  V30 901 C 86.5607 3.76846 -2.27322 0
M  V30 902 H 83.6797 0.545351 -0.495743 0
M  V30 903 H 86.3217 0.848624 -1.69995 0
M  V30 904 H 84.4717 3.30639 -2.03986 0
M  V30 905 H 86.1437 1.8684 -4.21768 0
M  V30 906 H 84.3867 1.69334 -3.99385 0
M  V30 907 H 85.0577 3.26104 -4.45376 0
M  V30 908 H 87.5337 3.30548 -2.5274 0
M  V30 909 H 86.4097 4.6159 -2.97028 0
M  V30 910 H 86.6707 4.23286 -1.27599 0
M  V30 911 N 85.7298 1.2412 0.971189 0
M  V30 912 C 86.9548 1.10667 1.75407 0
M  V30 913 C 87.3798 -0.337048 1.85056 0
M  V30 914 O 86.7378 -1.24396 1.31892 0
M  V30 915 C 86.7858 1.74726 3.15441 0
M  V30 916 O 85.8898 1.01566 3.99697 0
M  V30 917 H 85.2308 0.387341 0.539317 0
M  V30 918 H 87.7608 1.64358 1.2185 0
M  V30 919 H 87.7708 1.80341 3.6598 0
M  V30 920 H 86.4458 2.79773 3.07734 0
M  V30 921 H 85.0228 1.03713 3.58187 0
M  V30 922 N 87.2079 -1.17134 1.05439 0
M  V30 923 C 88.1379 -2.2342 0.678649 0
M  V30 924 C 89.1189 -1.66971 -0.32476 0
M  V30 925 O 90.3039 -1.93149 -0.201802 0
M  V30 926 C 87.4339 -3.47256 0.0552099 0
M  V30 927 C 86.3879 -4.16543 0.98365 0
M  V30 928 C 85.7139 -5.34231 0.223961 0
M  V30 929 C 87.0139 -4.68495 2.3089 0
M  V30 930 H 88.7079 -2.55105 1.56722 0
M  V30 931 H 86.2539 -1.2262 0.754998 0
M  V30 932 H 88.2069 -4.20828 -0.21946 0
M  V30 933 H 86.9309 -3.14846 -0.868319 0
M  V30 934 H 85.5899 -3.44887 1.24293 0
M  V30 935 H 85.2379 -4.98071 -0.702412 0
M  V30 936 H 84.9379 -5.81527 0.842627 0
M  V30 937 H 86.4619 -6.10585 -0.0433671 0
M  V30 938 H 87.8759 -5.33691 2.09396 0
M  V30 939 H 86.2729 -5.26379 2.88176 0
M  V30 940 H 87.3429 -3.85169 2.94572 0
M  V30 941 N 88.686 -0.835752 -1.33615 0
M  V30 942 C 89.618 -0.224151 -2.28101 0
M  V30 943 C 90.631 0.593331 -1.51603 0
M  V30 944 O 91.82 0.420911 -1.73466 0
M  V30 945 C 88.92 0.703309 -3.31522 0
M  V30 946 C 88.093 -0.0741528 -4.37337 0
M  V30 947 C 87.152 0.776176 -5.20444 0
M  V30 948 O 86.178 0.216506 -5.68788 0
M  V30 949 N 87.38 2.09401 -5.41416 0
M  V30 950 H 90.145 -1.03598 -2.81225 0
M  V30 951 H 87.706 -0.69392 -1.46275 0
M  V30 952 H 89.698 1.27707 -3.84022 0
M  V30 953 H 88.268 1.41585 -2.78698 0
M  V30 954 H 87.488 -0.82928 -3.85378 0
M  V30 955 H 88.776 -0.608863 -5.05144 0
M  V30 956 H 88.174 2.57229 -5.03835 0
M  V30 957 H 86.731 2.61633 -5.96985 0
M  V30 958 N 90.1641 1.46063 -0.591896 0
M  V30 959 C 91.4411 1.95595 -0.0137119 0
M  V30 960 C 91.8211 1.5345 1.4497 0
M  V30 961 O 91.1691 0.789543 2.14426 0
M  V30 962 C 91.3791 3.48453 -0.195373 0
M  V30 963 C 92.7271 4.24546 -0.0679765 0
M  V30 964 O 93.7511 3.55982 -0.124681 0
M  V30 965 O 92.6101 5.46467 0.0600579 0
M  V30 966 H 89.7041 0.825795 0.0446279 0
M  V30 967 H 92.2501 1.56303 -0.660859 0
M  V30 968 H 91.0221 3.72045 -1.21235 0
M  V30 969 H 90.6451 3.94597 0.487775 0
M  V30 970 N 91.6422 0.330177 1.54103 0
M  V30 971 C 92.6052 -0.520144 2.2322 0
M  V30 972 C 93.6052 -1.03828 1.22786 0
M  V30 973 O 94.7952 -0.929652 1.4732 0
M  V30 974 C 91.9272 -1.72317 2.94142 0
M  V30 975 H 93.1202 0.0841605 2.99782 0
M  V30 976 H 90.6732 0.0813433 1.56088 0
M  V30 977 H 91.4082 -2.36653 2.21734 0
M  V30 978 H 91.1932 -1.35898 3.67796 0
M  V30 979 H 92.6832 -2.3266 3.46784 0
M  V30 980 N 93.1203 -1.57491 0.0584922 0
M  V30 981 C 94.0303 -2.15448 -0.928414 0
M  V30 982 C 95.0463 -1.11416 -1.3365 0
M  V30 983 O 96.2223 -1.4362 -1.41193 0
M  V30 984 C 93.2873 -2.69393 -2.18239 0
M  V30 985 C 92.3483 -3.88249 -1.83196 0
M  V30 986 C 91.5813 -4.39613 -3.02616 0
M  V30 987 O 91.8043 -3.90023 -4.16219 0
M  V30 988 O 90.7383 -5.31111 -2.83204 0
M  V30 989 H 94.5643 -3.00112 -0.465483 0
M  V30 990 H 92.1493 -1.48499 -0.163826 0
M  V30 991 H 94.0313 -3.04026 -2.91798 0
M  V30 992 H 92.7063 -1.87796 -2.63656 0
M  V30 993 H 91.6133 -3.58492 -1.06931 0
M  V30 994 H 92.9463 -4.71098 -1.42573 0
M  V30 995 N 94.5984 0.214957 -1.56127 0
M  V30 996 C 95.8444 0.935325 -1.80619 0
M  V30 997 C 96.1994 1.81706 -0.632507 0
M  V30 998 O 95.4924 1.87931 0.373182 0
M  V30 999 C 95.6864 1.80314 -3.0858 0
M  V30 1000 C 95.5154 1.00691 -4.38282 0
M  V30 1001 C 94.2854 0.699211 -5.00439 0
M  V30 1002 C 96.4834 0.369057 -5.12974 0
M  V30 1003 N 94.4654 -0.117734 -6.13787 0
M  V30 1004 C 95.8364 -0.310981 -6.1922 0
M  V30 1005 C 97.8914 0.282759 -4.97096 0
M  V30 1006 C 96.5944 -1.06907 -7.11311 0
M  V30 1007 C 98.6204 -0.461881 -5.89594 0
M  V30 1008 C 97.9824 -1.13044 -6.9527 0
M  V30 1009 H 94.0814 0.322307 -0.71249 0
M  V30 1010 H 96.6654 0.205649 -1.93611 0
M  V30 1011 H 94.8364 2.50458 -2.96859 0
M  V30 1012 H 96.5684 2.46148 -3.21237 0
M  V30 1013 H 93.3234 1.01884 -4.62511 0
M  V30 1014 H 93.7474 -0.515235 -6.75037 0
M  V30 1015 H 98.3894 0.785292 -4.15443 0
M  V30 1016 H 96.1074 -1.5831 -7.92442 0
M  V30 1017 H 99.6934 -0.529746 -5.79383 0
M  V30 1018 H 98.5734 -1.69742 -7.65609 0
M  V30 1019 N 96.0765 1.50051 0.48192 0
M  V30 1020 C 97.3065 1.63999 1.2565 0
M  V30 1021 C 97.7145 0.318288 1.86504 0
M  V30 1022 O 97.0575 -0.708534 1.69486 0
M  V30 1023 C 97.1195 2.66504 2.4128 0
M  V30 1024 C 96.7835 4.10352 2.01148 0
M  V30 1025 C 97.7805 4.96562 1.54021 0
M  V30 1026 C 95.4655 4.56203 2.10199 0
M  V30 1027 C 97.4595 6.26668 1.16473 0
M  V30 1028 C 95.1465 5.86318 1.72264 0
M  V30 1029 C 96.1445 6.71375 1.25477 0
M  V30 1030 O 95.8325 7.99062 0.880626 0
M  V30 1031 H 95.5645 0.55456 0.386574 0
M  V30 1032 H 98.1185 1.96954 0.582944 0
M  V30 1033 H 96.3485 2.28769 3.11772 0
M  V30 1034 H 98.0375 2.69783 3.03268 0
M  V30 1035 H 98.8035 4.62358 1.46458 0
M  V30 1036 H 94.6825 3.90152 2.45566 0
M  V30 1037 H 98.2265 6.93011 0.798841 0
M  V30 1038 H 94.1235 6.20046 1.79482 0
M  V30 1039 H 94.8915 8.12239 1.01043 0
M  V30 1040 N 97.5546 -0.734337 1.39446 0
M  V30 1041 C 98.8006 -1.49505 1.37913 0
M  V30 1042 C 99.1556 -1.92384 -0.0248416 0
M  V30 1043 O 98.4486 -1.6395 -0.991506 0
M  V30 1044 C 98.6426 -2.74711 2.28623 0
M  V30 1045 C 98.4716 -2.44075 3.777 0
M  V30 1046 C 97.2416 -2.36338 4.46623 0
M  V30 1047 C 99.4396 -2.09574 4.69663 0
M  V30 1048 N 97.4216 -1.9818 5.81032 0
M  V30 1049 C 98.7926 -1.81865 5.92727 0
M  V30 1050 C 100.848 -1.96048 4.57678 0
M  V30 1051 C 99.5506 -1.41992 7.05146 0
M  V30 1052 C 101.577 -1.57579 5.7002 0
M  V30 1053 C 100.939 -1.30754 6.92158 0
M  V30 1054 H 97.0376 -0.545896 0.55993 0
M  V30 1055 H 99.6216 -0.853373 1.75002 0
M  V30 1056 H 97.7926 -3.36657 1.93692 0
M  V30 1057 H 99.5246 -3.40916 2.18078 0
M  V30 1058 H 96.2796 -2.53456 4.00071 0
M  V30 1059 H 96.7036 -1.81691 6.52163 0
M  V30 1060 H 101.346 -2.15455 3.63784 0
M  V30 1061 H 99.0636 -1.21327 7.9894 0
M  V30 1062 H 102.65 -1.47718 5.62735 0
M  V30 1063 H 101.53 -1.01432 7.77612 0
M  V30 1064 N 99.0327 -1.24633 -0.964593 0
M  V30 1065 C 100.281 -1.08573 -1.70459 0
M  V30 1066 C 100.602 0.375655 -1.91347 0
M  V30 1067 O 99.8717 1.26779 -1.49345 0
M  V30 1068 H 98.4517 -0.398784 -0.631649 0
M  V30 1069 H 101.114 -1.56601 -1.16026 0
M  V30 1070 H 100.21 -1.58623 -2.68785 0
M  V30 1071 N 100.511 1.16574 -1.06058 0
M  V30 1072 C 101.788 1.83048 -0.689416 0
M  V30 1073 C 102.168 1.94122 0.829443 0
M  V30 1074 O 101.516 1.48249 1.7388 0
M  V30 1075 C 101.726 3.20186 -1.38859 0
M  V30 1076 C 103.074 3.95989 -1.53226 0
M  V30 1077 O 104.098 3.29696 -1.3483 0
M  V30 1078 O 102.957 5.14813 -1.83384 0
M  V30 1079 H 100.051 0.790258 -0.243764 0
M  V30 1080 H 102.597 1.23797 -1.16071 0
M  V30 1081 H 101.369 3.07146 -2.4244 0
M  V30 1082 H 100.992 3.87112 -0.907216 0
M  V30 1083 N 101.989 0.842826 1.3317 0
M  V30 1084 C 103.238 0.436738 1.96915 0
M  V30 1085 C 103.551 -1.01025 1.67491 0
M  V30 1086 O 104.757 -1.5212 2.24881 0
M  V30 1087 C 103.213 0.730021 3.52418 0
M  V30 1088 C 102.821 2.19195 3.90714 0
M  V30 1089 C 104.565 0.391076 4.22695 0
M  V30 1090 C 102.472 2.42907 5.39212 0
M  V30 1091 H 101.402 0.15958 0.736919 0
M  V30 1092 H 104.053 1.03196 1.51733 0
M  V30 1093 H 102.435 0.0643755 3.95948 0
M  V30 1094 H 103.609 2.8984 3.58231 0
M  V30 1095 H 101.924 2.49425 3.33431 0
M  V30 1096 H 104.521 0.545817 5.31907 0
M  V30 1097 H 104.864 -0.666294 4.10933 0
M  V30 1098 H 105.397 1.01212 3.84709 0
M  V30 1099 H 102.136 3.47224 5.55982 0
M  V30 1100 H 101.656 1.76827 5.73142 0
M  V30 1101 H 103.335 2.2626 6.06148 0
M  V30 1102 N 103.467 -1.45747 0.599634 0
M  V30 1103 C 104.692 -2.07178 0.0960198 0
M  V30 1104 C 105.117 -1.44268 -1.207 0
M  V30 1105 O 104.475 -0.532503 -1.73303 0
M  V30 1106 C 104.523 -3.60579 -0.0385348 0
M  V30 1107 O 103.627 -3.97713 -1.0908 0
M  V30 1108 H 102.968 -0.660251 0.0704593 0
M  V30 1109 H 105.498 -1.87124 0.827385 0
M  V30 1110 H 105.508 -4.07298 -0.239304 0
M  V30 1111 H 104.183 -4.05756 0.912947 0
M  V30 1112 H 102.76 -3.62678 -0.867135 0
M  V30 1113 N 104.945 -0.338344 -1.53925 0
M  V30 1114 C 106.361 0.0137736 -1.59594 0
M  V30 1115 C 106.561 1.49186 -1.35447 0
M  V30 1116 O 105.617 2.24987 -1.14616 0
M  V30 1117 C 106.93 -0.41773 -2.97784 0
M  V30 1118 C 108.478 -0.369633 -3.1081 0
M  V30 1119 C 108.953 -0.776524 -4.51369 0
M  V30 1120 N 110.444 -0.730506 -4.57403 0
M  V30 1121 C 111.179 -1.01736 -5.64303 0
M  V30 1122 N 110.675 -1.3721 -6.79077 0
M  V30 1123 N 112.468 -0.941942 -5.54151 0
M  V30 1124 H 104.619 -1.3012 -1.67876 0
M  V30 1125 H 106.882 -0.530082 -0.78595 0
M  V30 1126 H 106.588 -1.44811 -3.20504 0
M  V30 1127 H 106.462 0.209729 -3.76616 0
M  V30 1128 H 108.849 0.651568 -2.87817 0
M  V30 1129 H 108.93 -1.03223 -2.34049 0
M  V30 1130 H 108.574 -1.79571 -4.75096 0
M  V30 1131 H 108.504 -0.0914649 -5.26521 0
M  V30 1132 H 110.995 -0.468783 -3.74981 0
M  V30 1133 H 111.308 -1.57597 -7.5656 0
M  V30 1134 H 109.653 -1.4105 -6.80536 0
M  V30 1135 H 112.844 -0.664184 -4.63364 0
M  V30 1136 H 113.017 -1.16884 -6.37371 0
M  V30 1137 N 106.423 1.57458 -0.0668435 0
M  V30 1138 C 107.333 2.15937 0.916975 0
M  V30 1139 C 108.349 1.12123 1.33058 0
M  V30 1140 O 109.525 1.44366 1.40429 0
M  V30 1141 C 106.59 2.70547 2.16807 0
M  V30 1142 C 105.651 3.89215 1.81135 0
M  V30 1143 C 104.884 4.41211 3.0028 0
M  V30 1144 O 105.107 3.92225 4.14144 0
M  V30 1145 O 104.041 5.32605 2.80384 0
M  V30 1146 H 107.867 3.00354 0.449561 0
M  V30 1147 H 105.452 1.48584 0.155949 0
M  V30 1148 H 107.334 3.0557 2.90181 0
M  V30 1149 H 106.009 1.89192 2.62656 0
M  V30 1150 H 104.916 3.59054 1.05028 0
M  V30 1151 H 106.249 4.71848 1.40073 0
M  V30 1152 N 107.901 -0.206675 1.56239 0
M  V30 1153 C 108.811 -1.27686 1.96808 0
M  V30 1154 C 109.827 -1.50455 0.874035 0
M  V30 1155 O 111.003 -1.63295 1.17884 0
M  V30 1156 C 108.068 -2.60358 2.28942 0
M  V30 1157 C 107.129 -2.45762 3.51994 0
M  V30 1158 C 106.362 -3.72108 3.82585 0
M  V30 1159 O 106.585 -4.75776 3.14631 0
M  V30 1160 O 105.519 -3.6833 4.76043 0
M  V30 1161 H 109.345 -0.962593 2.88041 0
M  V30 1162 H 106.93 -0.410746 1.43643 0
M  V30 1163 H 108.812 -3.38687 2.50737 0
M  V30 1164 H 107.487 -2.91435 1.4088 0
M  V30 1165 H 106.394 -1.65584 3.35459 0
M  V30 1166 H 107.727 -2.19621 4.40486 0
M  V30 1167 N 109.379 -1.50304 -0.473955 0
M  V30 1168 C 110.625 -1.61389 -1.22806 0
M  V30 1169 C 110.958 -0.311955 -1.91678 0
M  V30 1170 O 110.233 0.686384 -1.81986 0
M  V30 1171 C 110.516 -2.79219 -2.27396 0
M  V30 1172 C 110.369 -4.19286 -1.62848 0
M  V30 1173 C 111.688 -2.92614 -3.28732 0
M  V30 1174 H 108.807 -0.587399 -0.445119 0
M  V30 1175 H 111.449 -1.82681 -0.522265 0
M  V30 1176 H 109.599 -2.61195 -2.87592 0
M  V30 1177 H 111.271 -4.48892 -1.06271 0
M  V30 1178 H 109.514 -4.23677 -0.931693 0
M  V30 1179 H 110.185 -4.97655 -2.38838 0
M  V30 1180 H 112.661 -3.09105 -2.78556 0
M  V30 1181 H 111.537 -3.76688 -3.99246 0
M  V30 1182 H 111.798 -2.03107 -3.92683 0
M  V30 1183 N 110.857 0.726932 -1.39834 0
M  V30 1184 C 111.805 1.86235 -1.39353 0
M  V30 1185 C 112.799 1.67144 -0.275555 0
M  V30 1186 O 114.005 1.74387 -0.44601 0
M  V30 1187 H 110.38 0.613174 -0.43534 0
M  V30 1188 H 112.351 1.83756 -2.35109 0
M  V30 1189 C 111.1 3.23995 -1.26185 0
M  V30 1190 H 110.423 3.39285 -2.11484 0
M  V30 1191 H 111.863 4.03609 -1.29907 0
M  V30 1192 C 110.322 3.36888 0.0290018 0
M  V30 1193 O 110.852 3.89152 0.99619 0
M  V30 1194 N 109.058 2.90446 0.0947437 0
M  V30 1195 H 108.605 2.48102 -0.693035 0
M  V30 1196 H 108.563 2.99451 0.957932 0
M  V30 1197 N 112.336 1.25143 0.95797 0
M  V30 1198 C 113.613 1.00472 1.67823 0
M  V30 1199 C 113.993 -0.470056 2.058 0
M  V30 1200 O 113.341 -1.44663 1.76875 0
M  V30 1201 C 113.551 1.9372 2.90299 0
M  V30 1202 C 114.899 2.21371 3.62326 0
M  V30 1203 O 115.923 1.91451 3.00375 0
M  V30 1204 O 114.782 2.72231 4.7387 0
M  V30 1205 H 111.876 0.380752 0.734137 0
M  V30 1206 H 114.422 1.36283 1.01119 0
M  V30 1207 H 113.194 2.93316 2.59001 0
M  V30 1208 H 112.817 1.58286 3.64735 0
M  V30 1209 N 113.814 -1.1601 1.06675 0
M  V30 1210 C 114.761 -2.20525 0.680967 0
M  V30 1211 C 115.731 -1.62904 -0.324283 0
M  V30 1212 O 116.916 -1.89615 -0.212294 0
M  V30 1213 C 114.056 -3.45013 0.0776551 0
M  V30 1214 C 113.169 -4.16863 1.13355 0
M  V30 1215 C 112.304 -5.2888 0.49597 0
M  V30 1216 C 111.343 -5.92537 1.53513 0
M  V30 1217 N 110.48 -6.96038 0.920631 0
M  V30 1218 H 115.32 -2.52876 1.57663 0
M  V30 1219 H 112.857 -1.24199 0.788223 0
M  V30 1220 H 114.815 -4.16193 -0.289704 0
M  V30 1221 H 113.445 -3.132 -0.781393 0
M  V30 1222 H 112.497 -3.44248 1.61857 0
M  V30 1223 H 113.809 -4.60294 1.92174 0
M  V30 1224 H 112.963 -6.06653 0.0758604 0
M  V30 1225 H 111.702 -4.86622 -0.324062 0
M  V30 1226 H 110.707 -5.13482 1.9651 0
M  V30 1227 H 111.932 -6.36873 2.35733 0
M  V30 1228 H 109.878 -6.55888 0.12138 0
M  V30 1229 H 109.795 -7.3786 1.64616 0
M  V30 1230 H 111.063 -7.77725 0.525795 0
M  V30 1231 N 115.292 -0.849877 -1.32721 0
M  V30 1232 C 116.222 -0.306308 -2.31482 0
M  V30 1233 C 117.203 0.591952 -1.59468 0
M  V30 1234 O 118.388 0.513199 -1.87296 0
M  V30 1235 C 115.518 0.510204 -3.43532 0
M  V30 1236 C 114.472 -0.293209 -4.26994 0
M  V30 1237 C 113.798 0.647743 -5.30762 0
M  V30 1238 C 115.098 -1.51634 -4.99804 0
M  V30 1239 H 116.792 -1.13153 -2.77195 0
M  V30 1240 H 114.338 -0.545553 -1.33266 0
M  V30 1241 H 116.291 0.900856 -4.11658 0
M  V30 1242 H 115.015 1.36874 -2.96535 0
M  V30 1243 H 113.674 -0.665555 -3.60508 0
M  V30 1244 H 113.322 1.50299 -4.8002 0
M  V30 1245 H 113.022 0.11422 -5.87489 0
M  V30 1246 H 114.546 1.03567 -6.01753 0
M  V30 1247 H 115.96 -1.19824 -5.60638 0
M  V30 1248 H 114.357 -1.98745 -5.66234 0
M  V30 1249 H 115.427 -2.28018 -4.27943 0
M  V30 1250 N 116.77 1.45427 -0.607355 0
M  V30 1251 C 118.186 1.57283 -0.270985 0
M  V30 1252 C 118.386 1.59875 1.22647 0
M  V30 1253 O 117.442 1.52893 2.00948 0
M  V30 1254 C 118.755 2.85566 -0.941952 0
M  V30 1255 C 120.303 2.9924 -0.917849 0
M  V30 1256 C 120.778 4.30293 -1.56882 0
M  V30 1257 N 122.269 4.37051 -1.5343 0
M  V30 1258 C 123.004 5.37123 -2.00715 0
M  V30 1259 N 122.5 6.43734 -2.56084 0
M  V30 1260 N 124.293 5.28479 -1.91484 0
M  V30 1261 H 116.444 1.41988 -1.57966 0
M  V30 1262 H 118.707 0.67885 -0.661715 0
M  V30 1263 H 118.413 2.8955 -1.99633 0
M  V30 1264 H 118.287 3.74322 -0.465096 0
M  V30 1265 H 120.674 2.94822 0.127984 0
M  V30 1266 H 120.755 2.11895 -1.43297 0
M  V30 1267 H 120.399 4.35469 -2.61398 0
M  V30 1268 H 120.329 5.16454 -1.02873 0
M  V30 1269 H 122.82 3.60615 -1.12982 0
M  V30 1270 H 123.133 7.16341 -2.89958 0
M  V30 1271 H 121.478 6.44485 -2.60122 0
M  V30 1272 H 124.669 4.44098 -1.47967 0
M  V30 1273 H 124.842 6.0632 -2.28648 0
M  V30 1274 N 118.248 0.346503 1.53744 0
M  V30 1275 C 119.525 -0.304532 1.93215 0
M  V30 1276 C 119.905 -1.67993 1.27834 0
M  V30 1277 O 119.253 -2.24411 0.430352 0
M  V30 1278 C 119.463 -0.373852 3.46992 0
M  V30 1279 C 120.811 -0.62329 4.2 0
M  V30 1280 O 121.835 -0.455847 3.53271 0
M  V30 1281 O 120.694 -0.947879 5.38217 0
M  V30 1282 H 117.788 -0.178318 0.807547 0
M  V30 1283 H 120.334 0.397895 1.64969 0
M  V30 1284 H 119.106 0.591224 3.86808 0
M  V30 1285 H 118.729 -1.12294 3.81413 0
M  V30 1286 N 119.726 -1.57421 0.075193 0
M  V30 1287 C 120.659 -2.08528 -0.926904 0
M  V30 1288 C 121.637 -0.991171 -1.28898 0
M  V30 1289 O 122.821 -1.26479 -1.39769 0
M  V30 1290 C 119.948 -2.54576 -2.23402 0
M  V30 1291 C 118.994 -3.75454 -2.02327 0
M  V30 1292 S 119.827 -5.19989 -1.27951 0
M  V30 1293 C 120.983 -5.69372 -2.59935 0
M  V30 1294 H 121.216 -2.932 -0.492048 0
M  V30 1295 H 118.749 -1.53785 -0.137651 0
M  V30 1296 H 120.707 -2.81767 -2.98526 0
M  V30 1297 H 119.368 -1.70166 -2.64012 0
M  V30 1298 H 118.561 -4.05675 -2.99071 0
M  V30 1299 H 118.163 -3.48654 -1.35339 0
M  V30 1300 H 120.455 -5.76424 -3.56008 0
M  V30 1301 H 121.398 -6.68207 -2.34319 0
M  V30 1302 H 121.806 -4.97205 -2.67296 0
M  V30 1303 N 121.204 0.198386 -1.56346 0
M  V30 1304 C 122.615 0.763358 -1.70381 0
M  V30 1305 C 122.966 1.83995 -0.681203 0
M  V30 1306 O 122.091 2.15785 0.16305 0
M  V30 1307 C 122.686 1.39143 -3.08909 0
M  V30 1308 C 121.245 1.90352 -3.2472 0
M  V30 1309 C 120.392 0.772233 -2.6633 0
M  V30 1310 H 123.343 -0.0266377 -1.58678 0
M  V30 1311 H 123.364 2.26076 -3.06055 0
M  V30 1312 H 122.876 0.607638 -3.83314 0
M  V30 1313 H 120.977 2.71461 -2.55225 0
M  V30 1314 H 121.09 2.06757 -4.3219 0
M  V30 1315 H 119.454 1.18566 -2.2542 0
M  V30 1316 H 120.237 0.00073556 -3.433 0
M  V30 1317 N 122.682 1.50554 0.465978 0
M  V30 1318 C 123.959 1.5232 1.22712 0
M  V30 1319 C 124.339 0.270807 2.09356 0
M  V30 1320 O 123.687 -0.745541 2.15995 0
M  V30 1321 C 123.897 2.82175 2.05374 0
M  V30 1322 C 125.245 3.33033 2.6339 0
M  V30 1323 O 126.269 2.83531 2.15612 0
M  V30 1324 O 125.128 4.19336 3.50456 0
M  V30 1325 H 122.222 0.611183 0.557122 0
M  V30 1326 H 124.768 1.62847 0.477381 0
M  V30 1327 H 123.54 3.64797 1.41558 0
M  V30 1328 H 123.163 2.74675 2.87471 0
M  V30 1329 N 124.16 -0.719506 1.40217 0
M  V30 1330 C 125.408 -1.47641 1.3801 0
M  V30 1331 C 125.729 -1.94992 -0.018145 0
M  V30 1332 O 124.999 -1.70073 -0.972207 0
M  V30 1333 H 123.579 -0.547744 0.507923 0
M  V30 1334 H 126.241 -0.853187 1.75233 0
M  V30 1335 H 125.337 -2.35112 2.05253 0
M  V30 1336 N 125.638 -1.25649 -0.95132 0
M  V30 1337 C 126.866 -1.13343 -1.73092 0
M  V30 1338 C 127.281 0.312434 -1.86197 0
M  V30 1339 O 126.638 1.21465 -1.36207 0
M  V30 1340 C 126.689 -1.78602 -3.14299 0
M  V30 1341 O 126.41 -3.17537 -3.01831 0
M  V30 1342 C 127.911 -1.72119 -4.08522 0
M  V30 1343 H 125.131 -0.395181 -0.542285 0
M  V30 1344 H 127.675 -1.66076 -1.19328 0
M  V30 1345 H 125.83 -1.29832 -3.64996 0
M  V30 1346 H 126.244 -3.49676 -3.90931 0
M  V30 1347 H 127.718 -2.22435 -5.052 0
M  V30 1348 H 128.195 -0.685635 -4.33815 0
M  V30 1349 H 128.801 -2.20393 -3.63741 0
M  V30 1350 N 127.117 1.15442 -1.07289 0
M  V30 1351 C 128.364 1.86213 -0.795668 0
M  V30 1352 C 128.692 1.82291 0.678238 0
M  V30 1353 O 127.947 1.24057 1.51355 0
M  V30 1354 C 128.246 3.3489 -1.24834 0
M  V30 1355 C 127.912 3.59007 -2.72809 0
M  V30 1356 C 126.574 3.65298 -3.13227 0
M  V30 1357 C 128.926 3.68762 -3.68326 0
M  V30 1358 C 126.254 3.78854 -4.4798 0
M  V30 1359 C 128.606 3.83842 -5.0284 0
M  V30 1360 C 127.27 3.88378 -5.4288 0
M  V30 1361 H 126.54 0.681403 -0.291155 0
M  V30 1362 H 129.187 1.36435 -1.34379 0
M  V30 1363 H 127.492 3.8687 -0.619595 0
M  V30 1364 H 129.189 3.88052 -1.01076 0
M  V30 1365 H 125.779 3.5475 -2.40521 0
M  V30 1366 H 129.963 3.63202 -3.38227 0
M  V30 1367 H 125.219 3.80623 -4.78472 0
M  V30 1368 H 129.393 3.90332 -5.76727 0
M  V30 1369 H 127.02 3.98635 -6.47298 0
M  V30 1370 N 128.595 0.856903 1.32268 0
M  V30 1371 C 129.525 0.31858 2.31316 0
M  V30 1372 C 130.506 -0.583487 1.59779 0
M  V30 1373 O 131.691 -0.503259 1.87566 0
M  V30 1374 C 128.821 -0.491979 3.43798 0
M  V30 1375 C 127.775 0.315849 4.26833 0
M  V30 1376 C 127.101 -0.619586 5.31098 0
M  V30 1377 C 128.401 1.54282 4.98993 0
M  V30 1378 H 130.095 1.14621 2.76591 0
M  V30 1379 H 127.641 0.552613 1.32974 0
M  V30 1380 H 129.594 -0.879012 4.1213 0
M  V30 1381 H 128.318 -1.35299 2.97257 0
M  V30 1382 H 126.977 0.684664 3.6015 0
M  V30 1383 H 126.625 -1.47751 4.8081 0
M  V30 1384 H 126.325 -0.0830621 5.87541 0
M  V30 1385 H 127.849 -1.00375 6.02293 0
M  V30 1386 H 129.263 1.22796 5.59995 0
M  V30 1387 H 127.66 2.01745 5.65172 0
M  V30 1388 H 128.73 2.30285 4.26728 0
M  V30 1389 N 130.073 -1.45103 0.615059 0
M  V30 1390 C 131.319 -2.02483 0.113347 0
M  V30 1391 C 131.652 -1.48146 -1.25564 0
M  V30 1392 O 130.927 -0.659104 -1.82992 0
M  V30 1393 C 131.21 -3.60005 0.0825278 0
M  V30 1394 C 131.063 -4.2466 1.48271 0
M  V30 1395 C 132.382 -4.35972 -0.601401 0
M  V30 1396 H 129.501 -0.735764 0.0426632 0
M  V30 1397 H 132.143 -1.72868 0.788461 0
M  V30 1398 H 130.293 -3.85367 -0.492378 0
M  V30 1399 H 131.965 -4.10458 2.10527 0
M  V30 1400 H 130.208 -3.82772 2.04127 0
M  V30 1401 H 130.879 -5.336 1.41332 0
M  V30 1402 H 133.355 -4.15947 -0.112666 0
M  V30 1403 H 132.231 -5.45697 -0.592097 0
M  V30 1404 H 132.492 -4.09391 -1.66887 0
M  V30 1405 N 131.551 -0.354651 -1.53558 0
M  V30 1406 C 132.967 -0.00315426 -1.596 0
M  V30 1407 C 133.167 1.47741 -1.37021 0
M  V30 1408 O 132.223 2.23759 -1.16996 0
M  V30 1409 C 133.536 -0.44929 -2.97325 0
M  V30 1410 C 135.084 -0.402578 -3.104 0
M  V30 1411 C 135.559 -0.824355 -4.5052 0
M  V30 1412 N 137.05 -0.778979 -4.56603 0
M  V30 1413 C 137.785 -1.07715 -5.63192 0
M  V30 1414 N 137.281 -1.44405 -6.77583 0
M  V30 1415 N 139.074 -1.00066 -5.53121 0
M  V30 1416 H 131.225 -1.31893 -1.66487 0
M  V30 1417 H 133.488 -0.538388 -0.780284 0
M  V30 1418 H 133.194 -1.48202 -3.1895 0
M  V30 1419 H 133.068 0.169772 -3.76818 0
M  V30 1420 H 135.455 0.621004 -2.88492 0
M  V30 1421 H 135.536 -1.05699 -2.32941 0
M  V30 1422 H 135.18 -1.846 -4.73165 0
M  V30 1423 H 135.11 -0.147304 -5.26394 0
M  V30 1424 H 137.601 -0.508528 -3.74463 0
M  V30 1425 H 137.914 -1.65612 -7.54846 0
M  V30 1426 H 136.259 -1.4826 -6.79002 0
M  V30 1427 H 139.45 -0.713293 -4.62633 0
M  V30 1428 H 139.623 -1.23638 -6.36096 0
M  V30 1429 N 133.029 1.57378 -0.0835403 0
M  V30 1430 C 134.306 1.85363 0.624507 0
M  V30 1431 C 134.686 0.978239 1.87066 0
M  V30 1432 O 134.034 0.0475908 2.2845 0
M  V30 1433 C 134.244 3.35795 0.950947 0
M  V30 1434 C 135.592 4.03581 1.31939 0
M  V30 1435 O 136.616 3.40609 1.04232 0
M  V30 1436 O 135.475 5.14672 1.83779 0
M  V30 1437 H 132.569 0.766162 0.311329 0
M  V30 1438 H 135.115 1.69307 -0.115362 0
M  V30 1439 H 133.887 3.91244 0.0663899 0
M  V30 1440 H 133.51 3.57154 1.74719 0
M  V30 1441 N 134.507 -0.190092 1.56449 0
M  V30 1442 C 135.47 -1.21925 1.9408 0
M  V30 1443 C 136.47 -1.38176 0.822431 0
M  V30 1444 O 137.66 -1.35903 1.08977 0
M  V30 1445 C 134.792 -2.58773 2.21922 0
M  V30 1446 H 135.985 -0.897464 2.86157 0
M  V30 1447 H 133.538 -0.43181 1.50217 0
M  V30 1448 H 134.273 -2.95998 1.32499 0
M  V30 1449 H 134.058 -2.48348 3.03424 0
M  V30 1450 H 135.548 -3.32978 2.52022 0
M  V30 1451 N 135.985 -1.50799 -0.457987 0
M  V30 1452 C 137.21 -1.66496 -1.23668 0
M  V30 1453 C 137.635 -0.353288 -1.84752 0
M  V30 1454 O 136.993 0.684346 -1.67888 0
M  V30 1455 C 137.041 -2.76763 -2.3116 0
M  V30 1456 O 136.145 -2.38928 -3.36136 0
M  V30 1457 H 135.486 -0.555828 -0.363252 0
M  V30 1458 H 138.016 -1.9725 -0.543474 0
M  V30 1459 H 138.026 -3.00232 -2.76269 0
M  V30 1460 H 136.701 -3.71954 -1.86073 0
M  V30 1461 H 135.278 -2.25953 -2.96647 0
M  V30 1462 N 137.463 0.71206 -1.40597 0
M  V30 1463 C 138.691 1.50111 -1.42388 0
M  V30 1464 C 139.106 1.88784 -0.0245395 0
M  V30 1465 O 138.463 1.55681 0.952351 0
M  V30 1466 C 138.514 2.7742 -2.31776 0
M  V30 1467 O 138.235 2.40382 -3.66262 0
M  V30 1468 C 139.736 3.7129 -2.42196 0
M  V30 1469 H 136.956 0.46314 -0.485533 0
M  V30 1470 H 139.5 0.878068 -1.8469 0
M  V30 1471 H 137.655 3.36001 -1.92827 0
M  V30 1472 H 138.069 3.22324 -4.13772 0
M  V30 1473 H 139.543 4.57448 -3.08943 0
M  V30 1474 H 140.02 4.14641 -1.44809 0
M  V30 1475 H 140.626 3.18619 -2.81712 0
M  V30 1476 N 138.941 1.26152 0.944643 0
M  V30 1477 C 139.888 1.07408 2.04285 0
M  V30 1478 C 140.858 -0.0198413 1.66088 0
M  V30 1479 O 142.043 0.139264 1.90291 0
M  V30 1480 C 139.183 0.70945 3.37729 0
M  V30 1481 C 138.296 1.87926 3.88983 0
M  V30 1482 C 137.431 1.45807 5.10797 0
M  V30 1483 C 136.47 2.5964 5.54305 0
M  V30 1484 N 135.607 2.18226 6.67324 0
M  V30 1485 H 140.447 2.01389 2.1965 0
M  V30 1486 H 137.984 1.00275 1.07626 0
M  V30 1487 H 139.942 0.478948 4.14442 0
M  V30 1488 H 138.572 -0.193389 3.2222 0
M  V30 1489 H 137.624 2.22279 3.08701 0
M  V30 1490 H 138.936 2.73377 4.17213 0
M  V30 1491 H 138.09 1.18781 5.94959 0
M  V30 1492 H 136.829 0.574414 4.84305 0
M  V30 1493 H 135.834 2.87399 4.68702 0
M  V30 1494 H 137.059 3.48599 5.828 0
M  V30 1495 H 135.005 1.3229 6.42523 0
M  V30 1496 H 134.922 2.97221 6.95123 0
M  V30 1497 H 136.19 1.94403 7.54869 0
M  V30 1498 N 140.419 -1.14872 1.07899 0
M  V30 1499 C 141.352 -2.18794 0.64841 0
M  V30 1500 C 142.33 -1.59065 -0.337189 0
M  V30 1501 O 143.514 -1.86936 -0.242284 0
M  V30 1502 C 140.641 -3.38667 -0.0470417 0
M  V30 1503 C 139.687 -4.16942 0.897884 0
M  V30 1504 S 140.52 -4.78615 2.40183 0
M  V30 1505 C 141.676 -6.0185 1.71834 0
M  V30 1506 H 141.909 -2.5498 1.52881 0
M  V30 1507 H 139.442 -1.25922 0.893484 0
M  V30 1508 H 141.4 -4.08113 -0.442027 0
M  V30 1509 H 140.061 -3.00814 -0.903861 0
M  V30 1510 H 139.254 -5.02726 0.358096 0
M  V30 1511 H 138.856 -3.53073 1.23352 0
M  V30 1512 H 141.148 -6.69574 1.03328 0
M  V30 1513 H 142.091 -6.60408 2.55473 0
M  V30 1514 H 142.499 -5.5173 1.19392 0
M  V30 1515 N 141.898 -0.863906 -1.31812 0
M  V30 1516 C 142.83 -0.272485 -2.27575 0
M  V30 1517 C 143.843 0.56104 -1.52827 0
M  V30 1518 O 145.032 0.384021 -1.7432 0
M  V30 1519 C 142.132 0.63283 -3.32939 0
M  V30 1520 C 141.305 -0.166902 -4.37081 0
M  V30 1521 C 140.364 0.665608 -5.21973 0
M  V30 1522 O 139.39 0.0958091 -5.69119 0
M  V30 1523 N 140.592 1.9787 -5.45736 0
M  V30 1524 H 143.357 -1.0954 -2.78964 0
M  V30 1525 H 140.918 -0.724791 -1.4477 0
M  V30 1526 H 142.91 1.19532 -3.86645 0
M  V30 1527 H 141.48 1.35642 -2.81638 0
M  V30 1528 H 140.7 -0.910838 -3.83533 0
M  V30 1529 H 141.988 -0.715874 -5.03739 0
M  V30 1530 H 141.386 2.46484 -5.09178 0
M  V30 1531 H 139.943 2.48911 -6.024 0
M  V30 1532 N 143.376 1.44774 -0.622745 0
M  V30 1533 C 144.624 2.01721 -0.123655 0
M  V30 1534 C 144.945 1.49172 1.25589 0
M  V30 1535 O 144.215 0.691974 1.83272 0
M  V30 1536 H 142.795 0.745777 -0.0427225 0
M  V30 1537 H 145.457 1.77382 -0.807559 0
M  V30 1538 H 144.553 3.11984 -0.0849534 0
M  V30 1539 N 144.854 0.36279 1.53368 0
M  V30 1540 C 146.131 -0.284021 1.93527 0
M  V30 1541 C 146.511 -1.66628 1.29608 0
M  V30 1542 O 145.859 -2.23942 0.45413 0
M  V30 1543 C 146.069 -0.337028 3.47369 0
M  V30 1544 C 147.417 -0.578708 4.20638 0
M  V30 1545 O 148.441 -0.418352 3.53735 0
M  V30 1546 O 147.3 -0.89074 5.39192 0
M  V30 1547 H 144.394 -0.169743 0.809393 0
M  V30 1548 H 146.94 0.41537 1.64538 0
M  V30 1549 H 145.712 0.632217 3.86159 0
M  V30 1550 H 145.335 -1.08243 3.82582 0
M  V30 1551 N 146.332 -1.57332 0.0918853 0
M  V30 1552 C 147.562 -1.98286 -0.580205 0
M  V30 1553 C 147.97 -0.969713 -1.6246 0
M  V30 1554 O 147.313 0.0493501 -1.83634 0
M  V30 1555 C 147.375 -3.35603 -1.28882 0
M  V30 1556 C 147.039 -4.55285 -0.395559 0
M  V30 1557 C 148.036 -5.18687 0.355002 0
M  V30 1558 C 145.721 -5.01314 -0.314556 0
M  V30 1559 C 147.715 -6.26484 1.17458 0
M  V30 1560 C 145.402 -6.08979 0.508677 0
M  V30 1561 C 146.4 -6.71429 1.2519 0
M  V30 1562 O 146.088 -7.77018 2.06151 0
M  V30 1563 H 145.82 -0.656678 -0.160466 0
M  V30 1564 H 148.374 -2.04721 0.16688 0
M  V30 1565 H 146.604 -3.25842 -2.08241 0
M  V30 1566 H 148.293 -3.61026 -1.85512 0
M  V30 1567 H 149.059 -4.84058 0.302134 0
M  V30 1568 H 144.938 -4.5247 -0.882697 0
M  V30 1569 H 148.482 -6.75159 1.75518 0
M  V30 1570 H 144.379 -6.4304 0.563037 0
M  V30 1571 H 145.147 -7.93991 1.98799 0
M  V30 1572 N 147.81 0.181792 -1.56548 0
M  V30 1573 C 149.038 0.915947 -1.85521 0
M  V30 1574 C 149.453 1.76282 -0.676016 0
M  V30 1575 O 148.81 1.79012 0.355077 0
M  V30 1576 C 148.861 1.80126 -3.13427 0
M  V30 1577 O 148.582 0.988562 -4.26801 0
M  V30 1578 C 150.083 2.64597 -3.55673 0
M  V30 1579 H 147.303 0.26661 -0.61576 0
M  V30 1580 H 149.847 0.185039 -2.03661 0
M  V30 1581 H 148.002 2.48563 -2.97145 0
M  V30 1582 H 148.416 1.59308 -4.99721 0
M  V30 1583 H 149.89 3.2235 -4.48101 0
M  V30 1584 H 150.367 3.38958 -2.79292 0
M  V30 1585 H 150.973 2.0151 -3.74532 0
M  V30 1586 N 149.288 1.51039 0.449983 0
M  V30 1587 C 150.218 1.74379 1.55288 0
M  V30 1588 C 151.199 0.593236 1.5942 0
M  V30 1589 O 152.384 0.834625 1.7535 0
M  V30 1590 C 149.514 1.85728 2.93466 0
M  V30 1591 C 148.468 3.01078 3.04197 0
M  V30 1592 C 147.794 2.97595 4.44231 0
M  V30 1593 C 149.094 4.41254 2.7945 0
M  V30 1594 H 150.788 2.66725 1.36008 0
M  V30 1595 H 148.334 1.2835 0.652864 0
M  V30 1596 H 150.287 2.0064 3.70569 0
M  V30 1597 H 149.011 0.900207 3.13949 0
M  V30 1598 H 147.67 2.85851 2.29531 0
M  V30 1599 H 147.318 1.99691 4.61663 0
M  V30 1600 H 147.018 3.75046 4.52343 0
M  V30 1601 H 148.542 3.14583 5.23326 0
M  V30 1602 H 149.956 4.56897 3.46292 0
M  V30 1603 H 148.353 5.20315 2.98985 0
M  V30 1604 H 149.423 4.52164 1.75144 0
M  V30 1605 N 150.766 -0.704594 1.40972 0
M  V30 1606 C 151.994 -1.49354 1.43182 0
M  V30 1607 C 152.409 -1.88768 0.0345508 0
M  V30 1608 O 151.766 -1.56184 -0.944081 0
M  V30 1609 C 151.817 -2.76187 2.33244 0
M  V30 1610 O 151.538 -2.38436 3.67532 0
M  V30 1611 C 153.039 -3.7 2.44162 0
M  V30 1612 H 150.259 -0.460559 0.487982 0
M  V30 1613 H 152.803 -0.868261 1.85153 0
M  V30 1614 H 150.958 -3.34974 1.94606 0
M  V30 1615 H 151.372 -3.20126 4.15475 0
M  V30 1616 H 152.846 -4.55803 3.11364 0
M  V30 1617 H 153.323 -4.13867 1.47006 0
M  V30 1618 H 153.929 -3.17121 2.83398 0
M  V30 1619 N 152.244 -1.26651 -0.937939 0
M  V30 1620 C 153.174 -1.10993 -2.05433 0
M  V30 1621 C 154.155 -0.0142161 -1.70094 0
M  V30 1622 O 155.34 -0.186837 -1.93299 0
M  V30 1623 C 152.47 -0.745561 -3.39203 0
M  V30 1624 C 151.424 -1.79337 -3.88616 0
M  V30 1625 C 150.75 -1.28324 -5.19073 0
M  V30 1626 C 152.05 -3.19553 -4.13138 0
M  V30 1627 H 153.744 -2.0438 -2.1879 0
M  V30 1628 H 151.29 -0.984041 -1.05131 0
M  V30 1629 H 153.243 -0.622888 -4.16771 0
M  V30 1630 H 151.967 0.22401 -3.25831 0
M  V30 1631 H 150.626 -1.90477 -3.13231 0
M  V30 1632 H 150.274 -0.303414 -5.02084 0
M  V30 1633 H 149.974 -1.98369 -5.53103 0
M  V30 1634 H 151.498 -1.1733 -5.99221 0
M  V30 1635 H 152.912 -3.11471 -4.81309 0
M  V30 1636 H 151.309 -3.87218 -4.58457 0
M  V30 1637 H 152.379 -3.65368 -3.18801 0
M  V30 1638 N 153.722 1.14298 -1.08507 0
M  V30 1639 C 155.138 1.37347 -0.812901 0
M  V30 1640 C 155.338 1.93052 0.577325 0
M  V30 1641 O 154.394 2.14389 1.33393 0
M  V30 1642 C 155.707 2.33359 -1.89642 0
M  V30 1643 C 157.255 2.46996 -1.92255 0
M  V30 1644 C 157.73 3.46309 -2.99724 0
M  V30 1645 N 159.221 3.53853 -2.98902 0
M  V30 1646 C 159.956 4.3055 -3.787 0
M  V30 1647 N 159.452 5.10482 -4.6838 0
M  V30 1648 N 161.245 4.25757 -3.66998 0
M  V30 1649 H 153.396 0.764867 -1.9815 0
M  V30 1650 H 155.659 0.398966 -0.859959 0
M  V30 1651 H 155.365 1.99565 -2.89597 0
M  V30 1652 H 155.239 3.33274 -1.76659 0
M  V30 1653 H 157.626 2.80081 -0.929445 0
M  V30 1654 H 157.707 1.47039 -2.09316 0
M  V30 1655 H 157.351 3.13957 -3.99241 0
M  V30 1656 H 157.281 4.46049 -2.79907 0
M  V30 1657 H 159.772 2.96812 -2.33904 0
M  V30 1658 H 160.085 5.66284 -5.25873 0
M  V30 1659 H 158.43 5.09747 -4.72422 0
M  V30 1660 H 161.621 3.62383 -2.96304 0
M  V30 1661 H 161.794 4.85279 -4.29427 0
M  V30 1662 N 155.201 0.870884 1.31352 0
M  V30 1663 C 156.148 0.325425 2.28494 0
M  V30 1664 C 157.118 -0.576615 1.5577 0
M  V30 1665 O 158.303 -0.508059 1.83911 0
M  V30 1666 C 155.443 -0.466283 3.41935 0
M  V30 1667 C 154.556 0.463378 4.29508 0
M  V30 1668 C 153.691 -0.342544 5.30094 0
M  V30 1669 C 152.73 0.583486 6.09313 0
M  V30 1670 N 151.867 -0.186244 7.01853 0
M  V30 1671 H 156.707 1.15901 2.74538 0
M  V30 1672 H 154.244 0.58294 1.35056 0
M  V30 1673 H 156.202 -0.941085 4.06447 0
M  V30 1674 H 154.832 -1.26456 2.97 0
M  V30 1675 H 153.884 1.05663 3.65431 0
M  V30 1676 H 155.196 1.1734 4.84802 0
M  V30 1677 H 154.35 -0.879816 6.00287 0
M  V30 1678 H 153.089 -1.08585 4.75458 0
M  V30 1679 H 152.094 1.13251 5.3801 0
M  V30 1680 H 153.319 1.32566 6.66035 0
M  V30 1681 H 151.265 -0.912348 6.49625 0
M  V30 1682 H 151.182 0.464422 7.54572 0
M  V30 1683 H 152.45 -0.704716 7.76308 0
M  V30 1684 N 156.679 -1.44442 0.630414 0
M  V30 1685 C 157.927 -2.01653 0.134351 0
M  V30 1686 C 158.248 -1.49836 -1.24796 0
M  V30 1687 O 157.518 -0.701684 -1.82902 0
M  V30 1688 H 156.098 -0.74554 0.0466769 0
M  V30 1689 H 158.76 -1.76952 0.816955 0
M  V30 1690 H 157.856 -3.11935 0.101498 0
M  V30 1691 N 158.157 -0.370918 -1.53173 0
M  V30 1692 C 159.405 0.216673 -2.00935 0
M  V30 1693 C 159.726 1.48845 -1.25977 0
M  V30 1694 O 158.996 1.92286 -0.374551 0
M  V30 1695 H 157.576 0.0830565 -0.742368 0
M  V30 1696 H 160.238 -0.49838 -1.8842 0
M  V30 1697 H 159.334 0.439893 -3.08984 0
M  V30 1698 N 159.635 1.57281 -0.100228 0
M  V30 1699 C 160.583 2.15542 0.874328 0
M  V30 1700 C 161.577 1.09962 1.28859 0
M  V30 1701 O 162.783 1.28298 1.26252 0
M  V30 1702 H 159.158 0.689567 0.300003 0
M  V30 1703 H 161.129 2.96241 0.35829 0
M  V30 1704 C 159.878 2.75454 2.1218 0
M  V30 1705 H 159.201 3.56384 1.81193 0
M  V30 1706 H 160.641 3.19781 2.78417 0
M  V30 1707 C 159.1 1.71602 2.89921 0
M  V30 1708 O 159.63 1.15804 3.84646 0
M  V30 1709 N 157.836 1.41975 2.53558 0
M  V30 1710 H 157.383 1.87539 1.76598 0
M  V30 1711 H 157.341 0.727274 3.05873 0
M  V30 1712 N 161.113 -0.173488 1.56642 0
M  V30 1713 C 162.061 -1.23417 1.97157 0
M  V30 1714 C 163.055 -1.45946 0.860013 0
M  V30 1715 O 164.261 -1.46551 1.04512 0
M  V30 1716 H 160.636 -0.414818 0.62724 0
M  V30 1717 H 162.607 -0.865582 2.8557 0
M  V30 1718 C 161.356 -2.5665 2.34576 0
M  V30 1719 H 160.679 -2.40137 3.19647 0
M  V30 1720 H 162.119 -3.2956 2.6677 0
M  V30 1721 C 160.578 -3.15245 1.18836 0
M  V30 1722 O 161.108 -3.98883 0.474869 0
M  V30 1723 N 159.314 -2.74303 0.959497 0
M  V30 1724 H 158.861 -2.0639 1.54146 0
M  V30 1725 H 158.819 -3.13844 0.186932 0
M  V30 1726 N 162.591 -1.51276 -0.441967 0
M  V30 1727 C 163.538 -1.72256 -1.53612 0
M  V30 1728 C 164.508 -0.564164 -1.56225 0
M  V30 1729 O 165.693 -0.798074 -1.73307 0
M  V30 1730 C 162.833 -1.84932 -2.91366 0
M  V30 1731 C 161.946 -3.12459 -2.98317 0
M  V30 1732 C 161.081 -3.15758 -4.27166 0
M  V30 1733 C 160.12 -4.37619 -4.27967 0
M  V30 1734 N 159.257 -4.38493 -5.48333 0
M  V30 1735 H 164.097 -2.65654 -1.35026 0
M  V30 1736 H 161.634 -1.31662 -0.656009 0
M  V30 1737 H 163.592 -1.90263 -3.7129 0
M  V30 1738 H 162.222 -0.949461 -3.08521 0
M  V30 1739 H 161.274 -3.1646 -2.11086 0
M  V30 1740 H 162.586 -4.02382 -2.94771 0
M  V30 1741 H 161.74 -3.19979 -5.15459 0
M  V30 1742 H 160.479 -2.23715 -4.33362 0
M  V30 1743 H 159.484 -4.33579 -3.38067 0
M  V30 1744 H 160.709 -5.30921 -4.23438 0
M  V30 1745 H 158.655 -3.49318 -5.55259 0
M  V30 1746 H 158.572 -5.22219 -5.46647 0
M  V30 1747 H 159.84 -4.469 -6.38671 0
M  V30 1748 N 164.069 0.697108 -1.41344 0
M  V30 1749 C 164.999 1.82353 -1.45841 0
M  V30 1750 C 165.98 1.67115 -0.317247 0
M  V30 1751 O 167.165 1.86871 -0.528474 0
M  V30 1752 C 164.295 3.20476 -1.33838 0
M  V30 1753 C 163.249 3.50415 -2.4575 0
M  V30 1754 C 162.575 4.87878 -2.18813 0
M  V30 1755 C 163.875 3.49546 -3.88091 0
M  V30 1756 H 165.569 1.78846 -2.40113 0
M  V30 1757 H 163.115 0.859028 -1.15571 0
M  V30 1758 H 165.068 3.98988 -1.35596 0
M  V30 1759 H 163.792 3.24604 -0.360498 0
M  V30 1760 H 162.451 2.74253 -2.43271 0
M  V30 1761 H 162.099 4.8863 -1.19371 0
M  V30 1762 H 161.799 5.08875 -2.93803 0
M  V30 1763 H 163.323 5.68702 -2.22284 0
M  V30 1764 H 164.737 4.18066 -3.92293 0
M  V30 1765 H 163.134 3.82075 -4.62751 0
M  V30 1766 H 164.204 2.48552 -4.16353 0
M  V30 1767 N 165.547 1.27147 0.931209 0
M  V30 1768 C 166.796 1.12664 1.67302 0
M  V30 1769 C 167.109 -0.327718 1.92835 0
M  V30 1770 O 168.315 -0.593392 2.64936 0
M  V30 1771 C 166.771 1.9683 3.01307 0
M  V30 1772 C 166.379 3.46901 2.83485 0
M  V30 1773 C 168.123 1.90985 3.79111 0
M  V30 1774 C 166.03 4.23279 4.13024 0
M  V30 1775 H 164.96 0.41803 0.627509 0
M  V30 1776 H 167.611 1.51539 1.03481 0
M  V30 1777 H 165.993 1.50797 3.66164 0
M  V30 1778 H 167.167 4.00773 2.27415 0
M  V30 1779 H 165.482 3.54088 2.19113 0
M  V30 1780 H 168.079 2.45328 4.75098 0
M  V30 1781 H 168.422 0.882718 4.06834 0
M  V30 1782 H 168.955 2.34895 3.21044 0
M  V30 1783 H 165.694 5.26503 3.90481 0
M  V30 1784 H 165.214 3.74186 4.6877 0
M  V30 1785 H 166.893 4.32265 4.81411 0
M  V30 1786 N 167.025 -1.13721 1.09112 0
M  V30 1787 C 167.972 -2.19031 0.727591 0
M  V30 1788 C 168.942 -1.63555 -0.289656 0
M  V30 1789 O 170.127 -1.90023 -0.172026 0
M  V30 1790 C 167.267 -3.4477 0.15082 0
M  V30 1791 C 166.38 -4.14365 1.22172 0
M  V30 1792 C 165.515 -5.27709 0.608042 0
M  V30 1793 C 164.554 -5.89147 1.66047 0
M  V30 1794 N 163.691 -6.93929 1.06806 0
M  V30 1795 H 168.531 -2.49475 1.62991 0
M  V30 1796 H 166.068 -1.22499 0.81439 0
M  V30 1797 H 168.026 -4.16714 -0.201358 0
M  V30 1798 H 166.656 -3.14787 -0.714783 0
M  V30 1799 H 165.708 -3.40737 1.69122 0
M  V30 1800 H 167.02 -4.56114 2.01895 0
M  V30 1801 H 166.174 -6.06355 0.204523 0
M  V30 1802 H 164.913 -4.872 -0.220769 0
M  V30 1803 H 163.918 -5.09198 2.07357 0
M  V30 1804 H 165.143 -6.31729 2.49189 0
M  V30 1805 H 163.089 -6.55483 0.260476 0
M  V30 1806 H 163.006 -7.34202 1.8023 0
M  V30 1807 H 164.274 -7.76434 0.690644 0
M  V30 1808 N 168.503 -0.877838 -1.30888 0
M  V30 1809 C 169.752 -0.488793 -1.95688 0
M  V30 1810 C 170.065 0.965485 -1.70111 0
M  V30 1811 O 171.271 1.46104 -2.28836 0
M  V30 1812 C 169.727 -0.823201 -3.50359 0
M  V30 1813 C 169.335 -2.29477 -3.84765 0
M  V30 1814 C 171.079 -0.503009 -4.21509 0
M  V30 1815 C 168.986 -2.57118 -5.32583 0
M  V30 1816 H 167.916 -0.179062 -0.732429 0
M  V30 1817 H 170.567 -1.07183 -1.48943 0
M  V30 1818 H 168.949 -0.169331 -3.95638 0
M  V30 1819 H 170.123 -2.99236 -3.5042 0
M  V30 1820 H 168.438 -2.58178 -3.267 0
M  V30 1821 H 171.035 -0.68665 -5.30273 0
M  V30 1822 H 171.378 0.557109 -4.12555 0
M  V30 1823 H 171.911 -1.11376 -3.8189 0
M  V30 1824 H 168.65 -3.61843 -5.4658 0
M  V30 1825 H 168.17 -1.91961 -5.68253 0
M  V30 1826 H 169.849 -2.42251 -5.99936 0
M  V30 1827 N 169.982 1.44106 -0.638065 0
M  V30 1828 C 171.212 2.06037 -0.152394 0
M  V30 1829 C 171.62 1.47808 1.18108 0
M  V30 1830 O 170.963 0.598092 1.73691 0
M  V30 1831 C 171.025 3.59488 0.0293714 0
M  V30 1832 C 170.689 4.4022 -1.22702 0
M  V30 1833 C 171.686 4.73256 -2.15232 0
M  V30 1834 C 169.371 4.8048 -1.46437 0
M  V30 1835 C 171.365 5.45444 -3.29802 0
M  V30 1836 C 169.052 5.52417 -2.61303 0
M  V30 1837 C 170.05 5.84819 -3.52811 0
M  V30 1838 O 169.738 6.55289 -4.65673 0
M  V30 1839 H 169.47 0.671233 -0.0801401 0
M  V30 1840 H 172.024 1.85851 -0.874563 0
M  V30 1841 H 170.254 3.78191 0.806758 0
M  V30 1842 H 171.943 4.03164 0.470475 0
M  V30 1843 H 172.709 4.42684 -1.98131 0
M  V30 1844 H 168.588 4.54676 -0.760977 0
M  V30 1845 H 172.132 5.70653 -4.01249 0
M  V30 1846 H 168.029 5.82404 -2.78344 0
M  V30 1847 H 168.797 6.73762 -4.64744 0
M  V30 1848 N 171.46 0.379036 1.52974 0
M  V30 1849 C 172.41 -0.477772 2.22938 0
M  V30 1850 C 173.394 -1.03792 1.22948 0
M  V30 1851 O 174.586 -0.965725 1.48333 0
M  V30 1852 C 171.715 -1.60994 3.03209 0
M  V30 1853 C 170.801 -1.06203 4.10587 0
M  V30 1854 N 171.192 -0.238214 5.05239 0
M  V30 1855 C 169.49 -1.33554 4.25534 0
M  V30 1856 C 170.191 0.0633235 5.81666 0
M  V30 1857 N 169.167 -0.537901 5.40932 0
M  V30 1858 H 172.969 0.158295 2.93473 0
M  V30 1859 H 170.483 0.187778 1.61311 0
M  V30 1860 H 172.48 -2.23607 3.5186 0
M  V30 1861 H 171.14 -2.24893 2.34207 0
M  V30 1862 H 172.151 0.123695 5.17752 0
M  V30 1863 H 168.828 -1.97632 3.6776 0
M  V30 1864 H 170.218 0.730161 6.67921 0
M  V30 1865 N 172.938 -1.57226 0.108567 0
M  V30 1866 C 174.354 -1.5766 -0.248058 0
M  V30 1867 C 174.554 -1.12063 -1.67464 0
M  V30 1868 O 173.61 -0.803236 -2.39383 0
M  V30 1869 C 174.923 -3.0069 -0.0242287 0
M  V30 1870 C 176.471 -3.12868 -0.0909372 0
M  V30 1871 C 176.946 -4.57879 0.105067 0
M  V30 1872 N 178.437 -4.63172 0.0506846 0
M  V30 1873 C 179.172 -5.73126 0.177396 0
M  V30 1874 N 178.668 -6.91866 0.359696 0
M  V30 1875 N 180.461 -5.61977 0.117709 0
M  V30 1876 H 172.612 -1.85169 1.04049 0
M  V30 1877 H 174.875 -0.85529 0.40888 0
M  V30 1878 H 174.581 -3.38299 0.961604 0
M  V30 1879 H 174.455 -3.6945 -0.76068 0
M  V30 1880 H 176.842 -2.75124 -1.06729 0
M  V30 1881 H 176.923 -2.46672 0.677225 0
M  V30 1882 H 176.567 -4.96321 1.07834 0
M  V30 1883 H 176.497 -5.22153 -0.682954 0
M  V30 1884 H 178.988 -3.778 -0.0871266 0
M  V30 1885 H 179.301 -7.71503 0.447529 0
M  V30 1886 H 177.646 -6.93874 0.395536 0
M  V30 1887 H 180.837 -4.68094 -0.0236741 0
M  V30 1888 H 181.01 -6.47627 0.219905 0
M  V30 1889 N 174.416 0.165178 -1.56732 0
M  V30 1890 C 175.693 0.908443 -1.73224 0
M  V30 1891 C 176.073 2.0013 -0.67165 0
M  V30 1892 O 175.421 2.26353 0.31253 0
M  V30 1893 C 175.631 1.46756 -3.16644 0
M  V30 1894 C 176.979 1.93809 -3.77787 0
M  V30 1895 O 178.003 1.56537 -3.1996 0
M  V30 1896 O 176.862 2.62486 -4.79336 0
M  V30 1897 H 173.956 0.428025 -0.707618 0
M  V30 1898 H 176.502 0.152526 -1.69013 0
M  V30 1899 H 175.274 0.68129 -3.85323 0
M  V30 1900 H 174.897 2.28749 -3.25207 0
M  V30 1901 N 175.894 1.51508 0.433938 0
M  V30 1902 C 177.142 1.6402 1.18075 0
M  V30 1903 C 177.463 0.360328 1.91642 0
M  V30 1904 O 176.733 -0.623945 1.85698 0
M  V30 1905 H 175.313 0.6045 0.43885 0
M  V30 1906 H 177.975 1.88452 0.497178 0
M  V30 1907 H 177.071 2.46949 1.90847 0
M  V30 1908 N 177.372 -0.689602 1.41712 0
M  V30 1909 C 178.319 -1.80345 1.44029 0
M  V30 1910 C 179.289 -1.63478 0.293948 0
M  V30 1911 O 180.474 -1.84244 0.495869 0
M  V30 1912 C 177.614 -3.18272 1.33405 0
M  V30 1913 C 176.727 -3.46529 2.57956 0
M  V30 1914 C 175.862 -4.74103 2.39582 0
M  V30 1915 C 174.901 -4.95347 3.5958 0
M  V30 1916 N 174.038 -6.14151 3.40239 0
M  V30 1917 H 178.878 -1.77698 2.39222 0
M  V30 1918 H 176.415 -0.867688 1.18784 0
M  V30 1919 H 178.373 -3.97956 1.25246 0
M  V30 1920 H 177.003 -3.2008 0.418164 0
M  V30 1921 H 176.055 -2.61207 2.76542 0
M  V30 1922 H 177.367 -3.58126 3.47199 0
M  V30 1923 H 176.521 -5.61853 2.28924 0
M  V30 1924 H 175.26 -4.64763 1.47805 0
M  V30 1925 H 174.265 -4.06044 3.70686 0
M  V30 1926 H 175.49 -5.06542 4.52318 0
M  V30 1927 H 173.436 -6.06013 2.51167 0
M  V30 1928 H 173.353 -6.26543 4.23061 0
M  V30 1929 H 174.621 -7.04619 3.33365 0
M  V30 1930 N 178.85 -1.27639 -0.924453 0
M  V30 1931 C 180.08 -1.16819 -1.70402 0
M  V30 1932 C 180.488 0.277191 -1.87158 0
M  V30 1933 O 179.831 1.20025 -1.39067 0
M  V30 1934 C 179.893 -1.78305 -3.12166 0
M  V30 1935 C 179.557 -3.27502 -3.18734 0
M  V30 1936 C 180.554 -4.2409 -3.00738 0
M  V30 1937 C 178.239 -3.68269 -3.4159 0
M  V30 1938 C 180.233 -5.59422 -3.05492 0
M  V30 1939 C 177.92 -5.0373 -3.45977 0
M  V30 1940 C 178.918 -5.99116 -3.27946 0
M  V30 1941 O 178.606 -7.32108 -3.32074 0
M  V30 1942 H 178.338 -0.406931 -0.539799 0
M  V30 1943 H 180.892 -1.69078 -1.16626 0
M  V30 1944 H 179.122 -1.20528 -3.67437 0
M  V30 1945 H 180.811 -1.62154 -3.72103 0
M  V30 1946 H 181.577 -3.93931 -2.82919 0
M  V30 1947 H 177.456 -2.94496 -3.54673 0
M  V30 1948 H 181 -6.33852 -2.91337 0
M  V30 1949 H 176.897 -5.33543 -3.63321 0
M  V30 1950 H 177.665 -7.40598 -3.48507 0
M  V30 1951 N 180.328 1.1314 -1.09713 0
M  V30 1952 C 181.576 1.84119 -0.833338 0
M  V30 1953 C 181.897 1.84097 0.642904 0
M  V30 1954 O 181.167 1.29881 1.46655 0
M  V30 1955 H 179.747 0.681766 -0.305293 0
M  V30 1956 H 182.409 1.37038 -1.38588 0
M  V30 1957 H 181.505 2.88543 -1.18951 0
M  V30 1958 N 181.806 0.884767 1.30421 0
M  V30 1959 C 183.053 0.503105 1.96151 0
M  V30 1960 C 183.381 -0.947676 1.69851 0
M  V30 1961 O 182.636 -1.68467 0.995861 0
M  V30 1962 C 182.935 0.724318 3.49983 0
M  V30 1963 C 182.601 2.15015 3.96332 0
M  V30 1964 C 181.263 2.54005 4.08699 0
M  V30 1965 C 183.615 3.07936 4.20505 0
M  V30 1966 C 180.943 3.85128 4.42599 0
M  V30 1967 C 183.295 4.3859 4.55874 0
M  V30 1968 C 181.959 4.77474 4.66449 0
M  V30 1969 H 181.229 0.184099 0.717766 0
M  V30 1970 H 183.876 1.12058 1.55291 0
M  V30 1971 H 182.181 0.0238086 3.91793 0
M  V30 1972 H 183.878 0.408617 3.98913 0
M  V30 1973 H 180.468 1.8375 3.87213 0
M  V30 1974 H 184.652 2.79033 4.10431 0
M  V30 1975 H 179.908 4.14996 4.48986 0
M  V30 1976 H 184.082 5.10629 4.7353 0
M  V30 1977 H 181.709 5.79115 4.92473 0
M  V30 1978 N 183.284 -1.43765 0.645699 0
M  V30 1979 C 184.509 -2.06767 0.161883 0
M  V30 1980 C 184.934 -1.48034 -1.16049 0
M  V30 1981 O 184.292 -0.587369 -1.71522 0
M  V30 1982 C 184.34 -3.60519 0.0762003 0
M  V30 1983 O 183.444 -4.00982 -0.963721 0
M  V30 1984 H 182.785 -0.657675 0.091429 0
M  V30 1985 H 185.315 -1.84397 0.886499 0
M  V30 1986 H 185.325 -4.07853 -0.109604 0
M  V30 1987 H 184 -4.02646 1.04157 0
M  V30 1988 H 182.577 -3.65253 -0.751312 0
M  V30 1989 N 184.763 -0.387143 -1.52771 0
M  V30 1990 C 186.04 0.253197 -1.93954 0
M  V30 1991 C 186.42 1.64545 -1.32243 0
M  V30 1992 O 185.768 2.23191 -0.489699 0
M  V30 1993 C 185.978 0.281722 -3.47861 0
M  V30 1994 C 187.326 0.511715 -4.21505 0
M  V30 1995 O 188.35 0.362023 -3.54356 0
M  V30 1996 O 187.209 0.804847 -5.40541 0
M  V30 1997 H 184.303 0.156845 -0.811991 0
M  V30 1998 H 186.849 -0.441494 -1.63856 0
M  V30 1999 H 185.621 -0.693571 -3.85104 0
M  V30 2000 H 185.244 1.02142 -3.84256 0
M  V30 2001 N 186.241 1.57166 -0.116904 0
M  V30 2002 C 187.652 1.82169 0.408809 0
M  V30 2003 C 188.003 1.03393 1.66746 0
M  V30 2004 O 187.128 0.269886 2.1471 0
M  V30 2005 C 187.723 3.30429 0.748466 0
M  V30 2006 C 186.282 3.5612 1.21882 0
M  V30 2007 C 185.429 2.76374 0.226452 0
M  V30 2008 H 188.38 1.5497 -0.342063 0
M  V30 2009 H 188.401 3.44943 1.60607 0
M  V30 2010 H 187.913 3.87737 -0.167784 0
M  V30 2011 H 186.014 3.04168 2.15204 0
M  V30 2012 H 186.127 4.64705 1.16559 0
M  V30 2013 H 184.491 2.44515 0.713063 0
M  V30 2014 H 185.274 3.3644 -0.682859 0
M  V30 2015 N 187.719 -0.156864 1.56817 0
M  V30 2016 C 188.649 -1.19589 2.00551 0
M  V30 2017 C 189.63 -1.4536 0.883426 0
M  V30 2018 O 190.815 -1.56449 1.15054 0
M  V30 2019 C 187.945 -2.53143 2.37773 0
M  V30 2020 C 186.899 -2.41913 3.53075 0
M  V30 2021 C 186.225 -3.80088 3.76081 0
M  V30 2022 C 187.525 -1.91157 4.86062 0
M  V30 2023 H 189.219 -0.832293 2.87599 0
M  V30 2024 H 186.765 -0.398918 1.38364 0
M  V30 2025 H 188.718 -3.26047 2.66967 0
M  V30 2026 H 187.442 -2.91319 1.4765 0
M  V30 2027 H 186.101 -1.71462 3.24031 0
M  V30 2028 H 185.749 -4.15683 2.83225 0
M  V30 2029 H 185.449 -3.73439 4.53671 0
M  V30 2030 H 186.973 -4.54556 4.0769 0
M  V30 2031 H 188.387 -2.53846 5.14038 0
M  V30 2032 H 186.784 -1.95422 5.67389 0
M  V30 2033 H 187.854 -0.866673 4.77092 0
M  V30 2034 N 189.197 -1.51736 -0.425897 0
M  V30 2035 C 190.425 -1.68794 -1.1965 0
M  V30 2036 C 190.84 -0.390164 -1.84725 0
M  V30 2037 O 190.197 0.632376 -1.71194 0
M  V30 2038 C 190.248 -2.81174 -2.27208 0
M  V30 2039 O 189.969 -4.05925 -1.64793 0
M  V30 2040 C 191.47 -3.09599 -3.17275 0
M  V30 2041 H 188.69 -0.566128 -0.360194 0
M  V30 2042 H 191.234 -1.98211 -0.503249 0
M  V30 2043 H 189.389 -2.54324 -2.9223 0
M  V30 2044 H 189.803 -4.68423 -2.35967 0
M  V30 2045 H 191.277 -3.91786 -3.88854 0
M  V30 2046 H 191.754 -2.22468 -3.78688 0
M  V30 2047 H 192.36 -3.38151 -2.57941 0
M  V30 2048 N 190.675 0.682077 -1.42076 0
M  V30 2049 C 191.922 1.44215 -1.42156 0
M  V30 2050 C 192.25 1.94468 -0.0354186 0
M  V30 2051 O 191.505 1.70816 0.955002 0
M  V30 2052 C 191.804 2.66036 -2.38662 0
M  V30 2053 C 191.47 2.34366 -3.85206 0
M  V30 2054 C 190.132 2.25439 -4.25124 0
M  V30 2055 C 192.484 2.08513 -4.77673 0
M  V30 2056 C 189.812 1.88775 -5.55501 0
M  V30 2057 C 192.164 1.73354 -6.08384 0
M  V30 2058 C 190.828 1.62933 -6.47309 0
M  V30 2059 H 190.098 0.527718 -0.520187 0
M  V30 2060 H 192.745 0.778387 -1.74967 0
M  V30 2061 H 191.05 3.3741 -1.99152 0
M  V30 2062 H 192.747 3.24205 -2.35991 0
M  V30 2063 H 189.337 2.42213 -3.53597 0
M  V30 2064 H 193.521 2.14346 -4.47626 0
M  V30 2065 H 188.777 1.7927 -5.84527 0
M  V30 2066 H 192.951 1.52373 -6.79526 0
M  V30 2067 H 190.578 1.34292 -7.48244 0
M  V30 2068 N 192.153 1.28127 0.917671 0
M  V30 2069 C 193.101 1.11569 2.04096 0
M  V30 2070 C 194.095 0.0360242 1.69362 0
M  V30 2071 O 195.301 0.194501 1.78946 0
M  V30 2072 H 191.676 0.344097 0.668656 0
M  V30 2073 H 193.647 2.06711 2.15205 0
M  V30 2074 C 192.396 0.790197 3.38602 0
M  V30 2075 H 191.719 1.61293 3.6582 0
M  V30 2076 H 193.159 0.714271 4.1794 0
M  V30 2077 C 191.618 -0.505897 3.3308 0
M  V30 2078 O 192.148 -1.53736 3.71117 0
M  V30 2079 N 190.354 -0.505193 2.86175 0
M  V30 2080 H 189.901 0.334621 2.55417 0
M  V30 2081 H 189.859 -1.37243 2.82863 0
M  V30 2082 N 193.631 -1.12557 1.10312 0
M  V30 2083 C 194.856 -1.88405 0.867085 0
M  V30 2084 C 195.281 -1.79038 -0.576817 0
M  V30 2085 O 194.639 -1.14439 -1.40618 0
M  V30 2086 C 194.687 -3.3563 1.31851 0
M  V30 2087 O 193.791 -4.09565 0.482734 0
M  V30 2088 H 193.132 -0.585455 0.313271 0
M  V30 2089 H 195.662 -1.42352 1.4696 0
M  V30 2090 H 195.672 -3.86469 1.3079 0
M  V30 2091 H 194.347 -3.41765 2.37001 0
M  V30 2092 H 192.924 -3.68695 0.558448 0
M  V30 2093 N 195.109 -0.891671 -1.2995 0
M  V30 2094 C 196.355 -0.514261 -1.96171 0
M  V30 2095 C 196.688 0.935506 -1.70182 0
M  V30 2096 O 195.963 1.66204 -1.01028 0
M  V30 2097 C 196.246 -0.797719 -3.51153 0
M  V30 2098 C 196.099 -2.2986 -3.86632 0
M  V30 2099 C 197.418 -0.278749 -4.39216 0
M  V30 2100 H 194.537 -0.188314 -0.712535 0
M  V30 2101 H 197.179 -1.11689 -1.53706 0
M  V30 2102 H 195.329 -0.284826 -3.87455 0
M  V30 2103 H 197.001 -2.88042 -3.60319 0
M  V30 2104 H 195.244 -2.76257 -3.34462 0
M  V30 2105 H 195.915 -2.44753 -4.94773 0
M  V30 2106 H 198.391 -0.717825 -4.09862 0
M  V30 2107 H 197.267 -0.506353 -5.46559 0
M  V30 2108 H 197.528 0.820266 -4.34424 0
M  V30 2109 N 196.587 1.43421 -0.653314 0
M  V30 2110 C 197.833 2.02111 -0.166992 0
M  V30 2111 C 198.166 1.51423 1.21592 0
M  V30 2112 O 197.441 0.707389 1.8118 0
M  V30 2113 C 197.724 3.5966 -0.177948 0
M  V30 2114 C 197.577 4.20579 -1.59478 0
M  V30 2115 C 198.896 4.37413 0.4856 0
M  V30 2116 H 196.015 0.734374 -0.0621557 0
M  V30 2117 H 198.657 1.70717 -0.834016 0
M  V30 2118 H 196.807 3.86537 0.390032 0
M  V30 2119 H 198.479 4.04732 -2.21336 0
M  V30 2120 H 196.722 3.77226 -2.14204 0
M  V30 2121 H 197.393 5.29665 -1.5543 0
M  V30 2122 H 199.869 4.161 0.00234528 0
M  V30 2123 H 198.745 5.47075 0.447207 0
M  V30 2124 H 199.006 4.13672 1.55974 0
M  V30 2125 N 198.065 0.39524 1.52563 0
M  V30 2126 C 198.975 -0.444232 2.30356 0
M  V30 2127 C 199.991 -1.06615 1.37511 0
M  V30 2128 O 201.167 -1.07067 1.70583 0
M  V30 2129 C 198.232 -1.55315 3.09964 0
M  V30 2130 C 197.293 -0.955734 4.18526 0
M  V30 2131 C 196.526 -2.01181 4.9433 0
M  V30 2132 O 196.749 -3.22781 4.70285 0
M  V30 2133 O 195.683 -1.62579 5.79527 0
M  V30 2134 H 199.509 0.189667 3.03107 0
M  V30 2135 H 197.094 0.1588 1.48554 0
M  V30 2136 H 198.976 -2.19724 3.59582 0
M  V30 2137 H 197.651 -2.17191 2.4002 0
M  V30 2138 H 196.558 -0.274743 3.7309 0
M  V30 2139 H 197.891 -0.381109 4.90722 0
M  V30 2140 N 199.544 -1.57102 0.125237 0
M  V30 2141 C 200.474 -2.18659 -0.819174 0
M  V30 2142 C 201.455 -1.12843 -1.27281 0
M  V30 2143 O 202.64 -1.41104 -1.33429 0
M  V30 2144 C 199.77 -2.79096 -2.06695 0
M  V30 2145 C 198.724 -3.90548 -1.75088 0
M  V30 2146 C 198.05 -4.37821 -3.06948 0
M  V30 2147 C 199.35 -5.12356 -1.01435 0
M  V30 2148 H 201.044 -2.9783 -0.306202 0
M  V30 2149 H 198.59 -1.4326 -0.145839 0
M  V30 2150 H 200.543 -3.2082 -2.73226 0
M  V30 2151 H 199.267 -1.97223 -2.60328 0
M  V30 2152 H 197.926 -3.49409 -1.10944 0
M  V30 2153 H 197.574 -3.52799 -3.58527 0
M  V30 2154 H 197.274 -5.12982 -2.86571 0
M  V30 2155 H 198.798 -4.822 -3.74587 0
M  V30 2156 H 200.212 -5.5106 -1.58132 0
M  V30 2157 H 198.609 -5.9314 -0.911319 0
M  V30 2158 H 199.679 -4.849 -0.00218681 0
M  V30 2159 N 201.022 0.148545 -1.56898 0
M  V30 2160 C 202.271 0.85984 -1.82454 0
M  V30 2161 C 202.584 1.82406 -0.706229 0
M  V30 2162 O 203.79 2.57938 -0.847349 0
M  V30 2163 C 202.246 1.57967 -3.2338 0
M  V30 2164 C 201.854 0.65794 -4.43142 0
M  V30 2165 C 203.598 2.27784 -3.58211 0
M  V30 2166 C 201.505 1.3793 -5.75091 0
M  V30 2167 H 200.435 0.324834 -0.68044 0
M  V30 2168 H 203.086 0.112588 -1.83154 0
M  V30 2169 H 201.468 2.37249 -3.17063 0
M  V30 2170 H 202.642 -0.0995497 -4.60692 0
M  V30 2171 H 200.957 0.0682643 -4.16344 0
M  V30 2172 H 203.554 2.8239 -4.54048 0
M  V30 2173 H 203.897 3.04204 -2.84193 0
M  V30 2174 H 204.43 1.55421 -3.66182 0
M  V30 2175 H 201.169 0.656982 -6.52199 0
M  V30 2176 H 200.689 2.10954 -5.61479 0
M  V30 2177 H 202.368 1.92063 -6.17835 0
M  V30 2178 N 202.5 1.5196 0.417844 0
M  V30 2179 C 203.448 1.75278 1.52907 0
M  V30 2180 C 204.442 0.619611 1.57662 0
M  V30 2181 O 205.648 0.801457 1.61173 0
M  V30 2182 H 202.023 0.554141 0.508362 0
M  V30 2183 H 203.994 2.68389 1.30422 0
M  V30 2184 C 202.743 1.91262 2.90369 0
M  V30 2185 H 202.066 2.77872 2.8745 0
M  V30 2186 H 203.506 2.11581 3.67436 0
M  V30 2187 C 201.965 0.677431 3.30019 0
M  V30 2188 O 202.495 -0.158799 4.01386 0
M  V30 2189 N 200.701 0.515851 2.85985 0
M  V30 2190 H 200.248 1.19744 2.28077 0
M  V30 2191 H 200.206 -0.309315 3.12875 0
M  V30 2192 N 203.978 -0.674533 1.42435 0
M  V30 2193 C 204.928 -1.7807 1.4239 0
M  V30 2194 C 205.912 -1.58169 0.295202 0
M  V30 2195 O 207.104 -1.68643 0.537449 0
M  V30 2196 C 204.233 -3.16532 1.32901 0
M  V30 2197 C 203.319 -3.42055 2.50717 0
M  V30 2198 N 203.71 -3.38162 3.76139 0
M  V30 2199 C 202.008 -3.72692 2.44983 0
M  V30 2200 C 202.709 -3.63177 4.54398 0
M  V30 2201 N 201.685 -3.83954 3.84812 0
M  V30 2202 H 205.487 -1.73454 2.37257 0
M  V30 2203 H 203.001 -0.875381 1.36788 0
M  V30 2204 H 204.998 -3.958 1.30951 0
M  V30 2205 H 203.658 -3.22345 0.390363 0
M  V30 2206 H 204.669 -3.18057 4.0873 0
M  V30 2207 H 201.346 -3.85749 1.59699 0
M  V30 2208 H 202.736 -3.66125 5.63384 0
M  V30 2209 N 205.456 -1.28612 -0.910864 0
M  V30 2210 C 206.686 -1.1862 -1.69153 0
M  V30 2211 C 207.094 0.257324 -1.87442 0
M  V30 2212 O 206.437 1.18543 -1.40332 0
M  V30 2213 C 206.499 -1.81606 -3.10257 0
M  V30 2214 C 206.163 -3.30864 -3.15243 0
M  V30 2215 C 207.16 -4.27256 -2.96223 0
M  V30 2216 C 204.845 -3.71871 -3.37664 0
M  V30 2217 C 206.839 -5.62631 -2.99541 0
M  V30 2218 C 204.526 -5.07371 -3.40614 0
M  V30 2219 C 205.524 -6.02561 -3.21573 0
M  V30 2220 O 205.212 -7.35589 -3.2429 0
M  V30 2221 H 204.944 -0.412633 -0.535453 0
M  V30 2222 H 207.498 -1.70306 -1.14827 0
M  V30 2223 H 205.728 -1.24418 -3.66138 0
M  V30 2224 H 207.417 -1.66092 -3.70362 0
M  V30 2225 H 208.183 -3.9691 -2.78725 0
M  V30 2226 H 204.062 -2.98241 -3.5153 0
M  V30 2227 H 207.606 -6.36907 -2.84597 0
M  V30 2228 H 203.503 -5.37366 -3.57642 0
M  V30 2229 H 204.271 -7.44252 -3.40633 0
M  V30 2230 N 206.934 1.1197 -1.10907 0
M  V30 2231 C 207.884 2.15946 -0.731538 0
M  V30 2232 C 208.868 1.58758 0.261699 0
M  V30 2233 O 210.06 1.76863 0.0696722 0
M  V30 2234 C 207.189 3.42877 -0.170299 0
M  V30 2235 C 206.275 4.07037 -1.19087 0
M  V30 2236 N 206.666 4.46135 -2.38322 0
M  V30 2237 C 204.964 4.33884 -1.03252 0
M  V30 2238 C 205.665 4.96331 -3.03366 0
M  V30 2239 N 204.641 4.9214 -2.30865 0
M  V30 2240 H 208.443 2.43947 -1.63912 0
M  V30 2241 H 205.957 1.28927 -0.987505 0
M  V30 2242 H 207.954 4.16732 0.118271 0
M  V30 2243 H 206.614 3.16343 0.731935 0
M  V30 2244 H 207.625 4.38345 -2.75815 0
M  V30 2245 H 204.302 4.17084 -0.186256 0
M  V30 2246 H 205.692 5.36257 -4.04818 0
M  V30 2247 N 208.412 0.89855 1.29475 0
M  V30 2248 C 209.362 0.346767 2.25348 0
M  V30 2249 C 210.346 -0.532509 1.51833 0
M  V30 2250 O 211.538 -0.374714 1.72988 0
M  V30 2251 C 208.667 -0.425681 3.40651 0
M  V30 2252 C 207.753 0.46845 4.21505 0
M  V30 2253 N 208.144 1.57514 4.80648 0
M  V30 2254 C 206.442 0.26603 4.45206 0
M  V30 2255 C 207.143 2.12889 5.41344 0
M  V30 2256 N 206.119 1.42208 5.24669 0
M  V30 2257 H 209.921 1.19219 2.68634 0
M  V30 2258 H 207.435 0.749473 1.44072 0
M  V30 2259 H 209.432 -0.837716 4.08397 0
M  V30 2260 H 208.092 -1.26838 2.98902 0
M  V30 2261 H 209.103 1.95789 4.79465 0
M  V30 2262 H 205.78 -0.538394 4.14014 0
M  V30 2263 H 207.17 3.05901 5.98226 0
M  V30 2264 N 209.89 -1.43072 0.660911 0
M  V30 2265 C 210.8 -2.34585 -0.0264163 0
M  V30 2266 C 211.816 -1.54316 -0.803898 0
M  V30 2267 O 212.992 -1.86939 -0.749391 0
M  V30 2268 C 210.057 -3.32689 -0.975639 0
M  V30 2269 C 209.118 -4.2886 -0.194236 0
M  V30 2270 C 208.351 -5.22278 -1.09825 0
M  V30 2271 O 208.574 -5.20299 -2.33763 0
M  V30 2272 O 207.508 -5.99228 -0.566513 0
M  V30 2273 H 211.334 -2.94869 0.727034 0
M  V30 2274 H 208.919 -1.43342 0.42111 0
M  V30 2275 H 210.801 -3.92995 -1.52094 0
M  V30 2276 H 209.476 -2.74898 -1.70918 0
M  V30 2277 H 208.383 -3.72011 0.394835 0
M  V30 2278 H 209.716 -4.89655 0.499899 0
M  V30 2279 N 211.368 -0.403325 -1.52352 0
M  V30 2280 C 212.593 0.176499 -2.06648 0
M  V30 2281 C 213.018 1.38577 -1.27193 0
M  V30 2282 O 212.376 1.7879 -0.300637 0
M  V30 2283 C 212.424 0.511061 -3.5696 0
M  V30 2284 O 211.528 1.60294 -3.79973 0
M  V30 2285 H 210.869 0.0167337 -0.663789 0
M  V30 2286 H 213.399 -0.574848 -1.96359 0
M  V30 2287 H 213.409 0.771362 -4.00642 0
M  V30 2288 H 212.084 -0.37296 -4.14224 0
M  V30 2289 H 210.661 1.33526 -3.48174 0
M  V30 2290 N 212.846 1.57033 -0.133567 0
M  V30 2291 C 213.776 2.1909 0.807567 0
M  V30 2292 C 214.757 1.13517 1.26681 0
M  V30 2293 O 215.942 1.41809 1.32679 0
M  V30 2294 C 213.072 2.80188 2.05212 0
M  V30 2295 C 212.026 3.91471 1.73015 0
M  V30 2296 C 211.352 4.39443 3.04622 0
M  V30 2297 C 212.652 5.12886 0.987168 0
M  V30 2298 H 214.346 2.97988 0.290403 0
M  V30 2299 H 211.892 1.43335 0.138239 0
M  V30 2300 H 213.845 3.22264 2.71521 0
M  V30 2301 H 212.569 1.98601 2.59278 0
M  V30 2302 H 211.228 3.49993 1.0909 0
M  V30 2303 H 210.876 3.54695 3.56651 0
M  V30 2304 H 210.576 5.14495 2.83847 0
M  V30 2305 H 212.1 4.8418 3.72024 0
M  V30 2306 H 213.514 5.51891 1.55208 0
M  V30 2307 H 211.911 5.93615 0.87985 0
M  V30 2308 H 212.981 4.84894 -0.0235286 0
M  V30 2309 N 214.325 -0.140222 1.56975 0
M  V30 2310 C 215.288 -1.15689 1.97861 0
M  V30 2311 C 216.288 -1.3549 0.865974 0
M  V30 2312 O 217.478 -1.32367 1.13246 0
M  V30 2313 C 214.61 -2.51582 2.30042 0
M  V30 2314 H 215.803 -0.805971 2.88867 0
M  V30 2315 H 213.356 -0.383801 1.51515 0
M  V30 2316 H 214.091 -2.91632 1.41849 0
M  V30 2317 H 213.876 -2.38569 3.11171 0
M  V30 2318 H 215.366 -3.24792 2.62488 0
M  V30 2319 N 215.803 -1.52179 -0.40978 0
M  V30 2320 C 216.735 -1.71703 -1.51825 0
M  V30 2321 C 217.748 -0.597445 -1.51441 0
M  V30 2322 O 218.937 -0.872582 -1.55719 0
M  V30 2323 C 216.037 -1.74171 -2.90719 0
M  V30 2324 C 215.21 -3.03156 -3.15302 0
M  V30 2325 C 214.269 -2.97445 -4.34065 0
M  V30 2326 O 213.295 -3.71352 -4.31377 0
M  V30 2327 N 214.497 -2.15191 -5.39141 0
M  V30 2328 H 217.262 -2.67334 -1.35472 0
M  V30 2329 H 214.823 -1.50409 -0.599069 0
M  V30 2330 H 216.815 -1.67884 -3.68235 0
M  V30 2331 H 215.385 -0.860166 -3.00533 0
M  V30 2332 H 214.605 -3.23097 -2.25836 0
M  V30 2333 H 215.893 -3.88484 -3.28569 0
M  V30 2334 H 215.291 -1.54573 -5.44173 0
M  V30 2335 H 213.848 -2.1476 -6.15403 0
M  V30 2336 N 217.281 0.66697 -1.42791 0
M  V30 2337 C 218.511 1.45294 -1.46878 0
M  V30 2338 C 218.919 1.89027 -0.0809861 0
M  V30 2339 O 218.262 1.59219 0.916246 0
M  V30 2340 C 218.324 2.72908 -2.34012 0
M  V30 2341 C 217.988 2.51203 -3.81767 0
M  V30 2342 C 218.985 2.15302 -4.73224 0
M  V30 2343 C 216.67 2.65954 -4.26115 0
M  V30 2344 C 218.664 1.94431 -6.07022 0
M  V30 2345 C 216.351 2.44699 -5.59969 0
M  V30 2346 C 217.349 2.08992 -6.5024 0
M  V30 2347 O 217.037 1.87948 -7.81621 0
M  V30 2348 H 216.769 0.453306 -0.501487 0
M  V30 2349 H 219.323 0.826232 -1.88049 0
M  V30 2350 H 217.553 3.38089 -1.87703 0
M  V30 2351 H 219.242 3.34816 -2.29462 0
M  V30 2352 H 220.008 2.03495 -4.40244 0
M  V30 2353 H 215.887 2.92724 -3.56137 0
M  V30 2354 H 219.431 1.66484 -6.77443 0
M  V30 2355 H 215.328 2.56105 -5.9252 0
M  V30 2356 H 216.096 2.02483 -7.93059 0
M  V30 2357 N 218.759 1.29093 0.90403 0
M  V30 2358 C 219.707 1.13727 2.02901 0
M  V30 2359 C 220.701 0.0539853 1.69314 0
M  V30 2360 O 221.907 0.213469 1.7873 0
M  V30 2361 H 218.282 0.35117 0.664969 0
M  V30 2362 H 220.253 2.08982 2.13001 0
M  V30 2363 C 219.002 0.826066 3.37745 0
M  V30 2364 H 218.325 1.65164 3.64089 0
M  V30 2365 H 219.765 0.758559 4.17159 0
M  V30 2366 C 218.224 -0.470541 3.33598 0
M  V30 2367 O 218.754 -1.49792 3.72727 0
M  V30 2368 N 216.96 -0.474812 2.86695 0
M  V30 2369 H 216.507 0.361692 2.55048 0
M  V30 2370 H 216.465 -1.34236 2.84303 0
M  V30 2371 N 220.237 -1.11381 1.11499 0
M  V30 2372 C 221.648 -1.6465 0.880191 0
M  V30 2373 C 221.999 -1.87199 -0.587434 0
M  V30 2374 O 221.124 -1.60667 -1.44966 0
M  V30 2375 C 221.719 -2.99105 1.59128 0
M  V30 2376 C 220.278 -3.49279 1.40289 0
M  V30 2377 C 219.425 -2.24077 1.63354 0
M  V30 2378 H 222.376 -0.950123 1.27116 0
M  V30 2379 H 222.397 -3.66107 1.03664 0
M  V30 2380 H 221.909 -2.82661 2.65941 0
M  V30 2381 H 220.01 -3.70887 0.356888 0
M  V30 2382 H 220.123 -4.2803 2.15238 0
M  V30 2383 H 218.487 -2.31733 1.05698 0
M  V30 2384 H 219.27 -2.10175 2.71443 0
M  V30 2385 N 221.715 -0.905404 -1.28997 0
M  V30 2386 C 222.662 -0.385892 -2.27551 0
M  V30 2387 C 223.632 0.535113 -1.57244 0
M  V30 2388 O 224.817 0.459119 -1.85194 0
M  V30 2389 C 221.957 0.375461 -3.43051 0
M  V30 2390 C 221.07 -0.577092 -4.28128 0
M  V30 2391 C 220.205 0.201879 -5.30816 0
M  V30 2392 C 219.244 -0.744829 -6.07551 0
M  V30 2393 N 218.381 9.42587e-05 -7.021 0
M  V30 2394 H 223.221 -1.23139 -2.71368 0
M  V30 2395 H 220.758 -0.618542 -1.33463 0
M  V30 2396 H 222.716 0.832992 -4.088 0
M  V30 2397 H 221.346 1.18537 -3.00248 0
M  V30 2398 H 220.398 -1.15315 -3.62501 0
M  V30 2399 H 221.71 -1.30152 -4.8152 0
M  V30 2400 H 220.864 0.720351 -6.02408 0
M  V30 2401 H 219.603 0.959413 -4.7817 0
M  V30 2402 H 218.608 -1.27475 -5.34818 0
M  V30 2403 H 219.833 -1.50178 -6.62286 0
M  V30 2404 H 217.779 0.739791 -6.51815 0
M  V30 2405 H 217.696 -0.664321 -7.53076 0
M  V30 2406 H 218.964 0.498644 -7.77903 0
M  V30 2407 N 223.193 1.4272 -0.668489 0
M  V30 2408 C 224.123 2.335 -0.000100175 0
M  V30 2409 C 225.104 1.50328 0.795964 0
M  V30 2410 O 226.289 1.78949 0.754385 0
M  V30 2411 C 223.419 3.33874 0.956302 0
M  V30 2412 C 222.373 4.27152 0.269278 0
M  V30 2413 C 221.699 5.17684 1.33818 0
M  V30 2414 C 222.999 5.15373 -0.847805 0
M  V30 2415 H 224.693 2.89639 -0.758244 0
M  V30 2416 H 222.239 1.39269 -0.366079 0
M  V30 2417 H 224.192 3.9629 1.43292 0
M  V30 2418 H 222.916 2.76025 1.74579 0
M  V30 2419 H 221.575 3.66123 -0.187042 0
M  V30 2420 H 221.223 4.56165 2.1195 0
M  V30 2421 H 220.923 5.80918 0.883659 0
M  V30 2422 H 222.447 5.82974 1.81586 0
M  V30 2423 H 223.861 5.7151 -0.452681 0
M  V30 2424 H 222.258 5.87407 -1.22773 0
M  V30 2425 H 223.328 4.5415 -1.69929 0
M  V30 2426 N 224.671 0.411399 1.52136 0
M  V30 2427 C 225.948 -0.222308 1.94333 0
M  V30 2428 C 226.328 -1.6242 1.34844 0
M  V30 2429 O 225.676 -2.22384 0.525145 0
M  V30 2430 C 225.886 -0.226345 3.48265 0
M  V30 2431 C 227.234 -0.444592 4.22266 0
M  V30 2432 O 228.258 -0.305602 3.54887 0
M  V30 2433 O 227.117 -0.718749 5.41753 0
M  V30 2434 H 224.211 -0.143907 0.814383 0
M  V30 2435 H 226.757 0.467506 1.63133 0
M  V30 2436 H 225.529 0.75475 3.83952 0
M  V30 2437 H 225.152 -0.960163 3.85832 0
M  V30 2438 N 226.149 -1.5696 0.141893 0
M  V30 2439 C 227.395 -1.9625 -0.511248 0
M  V30 2440 C 227.728 -1.02654 -1.64851 0
M  V30 2441 O 227.003 -0.0679676 -1.94381 0
M  V30 2442 C 227.286 -3.45285 -1.02227 0
M  V30 2443 C 227.139 -4.49658 0.113138 0
M  V30 2444 C 228.458 -3.96698 -1.90574 0
M  V30 2445 H 225.577 -0.713567 -0.184367 0
M  V30 2446 H 228.219 -1.88698 0.222087 0
M  V30 2447 H 226.369 -3.51852 -1.64719 0
M  V30 2448 H 228.041 -4.55174 0.749302 0
M  V30 2449 H 226.284 -4.26857 0.773026 0
M  V30 2450 H 226.955 -5.51258 -0.286053 0
M  V30 2451 H 229.431 -3.92578 -1.37918 0
M  V30 2452 H 228.307 -5.01453 -2.2324 0
M  V30 2453 H 228.568 -3.3875 -2.84079 0
M  V30 2454 N 227.627 0.131896 -1.57047 0
M  V30 2455 C 228.574 1.16236 -1.99393 0
M  V30 2456 C 229.544 1.41863 -0.863943 0
M  V30 2457 O 230.729 1.53946 -1.12718 0
M  V30 2458 C 227.869 2.48708 -2.39245 0
M  V30 2459 C 226.982 2.30127 -3.65603 0
M  V30 2460 C 226.117 3.55738 -3.94492 0
M  V30 2461 C 225.156 3.32259 -5.14073 0
M  V30 2462 N 224.293 4.50039 -5.38896 0
M  V30 2463 H 229.133 0.794251 -2.87221 0
M  V30 2464 H 226.67 0.380707 -1.42088 0
M  V30 2465 H 228.628 3.25969 -2.60384 0
M  V30 2466 H 227.258 2.83437 -1.54478 0
M  V30 2467 H 226.31 1.43845 -3.52154 0
M  V30 2468 H 227.622 2.08746 -4.5302 0
M  V30 2469 H 226.776 4.41423 -4.1621 0
M  V30 2470 H 225.515 3.80138 -3.05526 0
M  V30 2471 H 224.52 2.44963 -4.92212 0
M  V30 2472 H 225.745 3.09242 -6.04604 0
M  V30 2473 H 223.691 4.74584 -4.52886 0
M  V30 2474 H 223.608 4.31716 -6.2061 0
M  V30 2475 H 224.876 5.36895 -5.65123 0
M  V30 2476 N 229.106 1.52395 0.401703 0
M  V30 2477 C 230.036 1.79231 1.49661 0
M  V30 2478 C 231.017 0.643654 1.57452 0
M  V30 2479 O 232.202 0.889989 1.72606 0
M  V30 2480 C 229.332 1.94971 2.87409 0
M  V30 2481 C 228.286 3.10604 2.94465 0
M  V30 2482 C 227.612 3.11577 4.34538 0
M  V30 2483 C 228.912 4.49921 2.6527 0
M  V30 2484 H 230.606 2.70917 1.27454 0
M  V30 2485 H 228.152 1.30362 0.6117 0
M  V30 2486 H 230.105 2.12328 3.63999 0
M  V30 2487 H 228.829 0.999632 3.10926 0
M  V30 2488 H 227.488 2.93009 2.20321 0
M  V30 2489 H 227.136 2.14277 4.55076 0
M  V30 2490 H 226.836 3.89247 4.40183 0
M  V30 2491 H 228.36 3.31073 5.13053 0
M  V30 2492 H 229.774 4.67683 3.31581 0
M  V30 2493 H 228.171 5.29564 2.82281 0
M  V30 2494 H 229.241 4.57507 1.60671 0
M  V30 2495 N 230.584 -0.659388 1.43143 0
M  V30 2496 C 231.517 -1.78425 1.42267 0
M  V30 2497 C 232.495 -1.60085 0.284894 0
M  V30 2498 O 233.679 -1.82351 0.477527 0
M  V30 2499 C 230.806 -3.15642 1.22833 0
M  V30 2500 C 229.852 -3.52698 2.39806 0
M  V30 2501 S 230.685 -3.53372 4.02353 0
M  V30 2502 C 231.841 -4.93256 3.85291 0
M  V30 2503 H 232.074 -1.78897 2.37452 0
M  V30 2504 H 229.607 -0.831469 1.301 0
M  V30 2505 H 231.565 -3.94838 1.12308 0
M  V30 2506 H 230.226 -3.12739 0.29207 0
M  V30 2507 H 229.419 -4.52475 2.21996 0
M  V30 2508 H 229.021 -2.80899 2.46925 0
M  V30 2509 H 231.313 -5.81751 3.47235 0
M  V30 2510 H 232.256 -5.16115 4.84799 0
M  V30 2511 H 232.664 -4.665 3.17865 0
M  V30 2512 N 232.062 -1.29571 -0.897171 0
M  V30 2513 C 233.292 -1.20408 -1.67886 0
M  V30 2514 C 233.7 0.237429 -1.87704 0
M  V30 2515 O 233.043 1.17048 -1.41582 0
M  V30 2516 C 233.105 -1.84887 -3.08314 0
M  V30 2517 C 232.769 -3.34189 -3.11716 0
M  V30 2518 C 233.766 -4.30374 -2.91675 0
M  V30 2519 C 231.451 -3.75431 -3.33701 0
M  V30 2520 C 233.445 -5.65776 -2.93557 0
M  V30 2521 C 231.132 -5.10955 -3.35214 0
M  V30 2522 C 232.13 -6.05938 -3.15164 0
M  V30 2523 O 231.818 -7.38987 -3.1647 0
M  V30 2524 H 231.55 -0.418289 -0.531046 0
M  V30 2525 H 234.104 -1.71514 -1.13014 0
M  V30 2526 H 232.334 -1.28295 -3.64798 0
M  V30 2527 H 234.023 -1.70011 -3.6858 0
M  V30 2528 H 234.789 -3.99844 -2.74499 0
M  V30 2529 H 230.668 -3.01953 -3.48347 0
M  V30 2530 H 234.212 -6.39889 -2.77826 0
M  V30 2531 H 230.109 -5.4113 -3.51922 0
M  V30 2532 H 230.877 -7.47823 -3.3272 0
M  V30 2533 N 233.54 1.10788 -1.12088 0
M  V30 2534 C 234.951 1.64181 -0.88891 0
M  V30 2535 C 235.302 1.87508 0.577498 0
M  V30 2536 O 234.427 1.61434 1.44112 0
M  V30 2537 C 235.022 2.98257 -1.60712 0
M  V30 2538 C 233.581 3.4853 -1.42139 0
M  V30 2539 C 232.728 2.23208 -1.6454 0
M  V30 2540 H 235.679 0.943368 -1.27618 0
M  V30 2541 H 235.7 3.65552 -1.05604 0
M  V30 2542 H 235.212 2.81246 -2.67436 0
M  V30 2543 H 233.313 3.70692 -0.376552 0
M  V30 2544 H 233.426 4.26882 -2.17505 0
M  V30 2545 H 231.79 2.31169 -1.06925 0
M  V30 2546 H 232.573 2.08733 -2.72554 0
M  V30 2547 N 235.018 0.912232 1.28515 0
M  V30 2548 C 236.264 0.545405 1.95328 0
M  V30 2549 C 236.597 -0.908313 1.71649 0
M  V30 2550 O 235.872 -1.64575 1.03659 0
M  V30 2551 C 236.155 0.853483 3.4984 0
M  V30 2552 C 236.008 2.35982 3.82926 0
M  V30 2553 C 237.327 0.348589 4.38717 0
M  V30 2554 H 234.446 0.199626 0.709449 0
M  V30 2555 H 237.088 1.1412 1.5191 0
M  V30 2556 H 235.238 0.34643 3.86952 0
M  V30 2557 H 236.91 2.93738 3.55691 0
M  V30 2558 H 235.153 2.81543 3.30024 0
M  V30 2559 H 235.824 2.52593 4.90816 0
M  V30 2560 H 238.3 0.78294 4.08668 0
M  V30 2561 H 237.176 0.593242 5.45685 0
M  V30 2562 H 237.437 -0.751049 4.35674 0
M  V30 2563 N 236.496 -1.42363 0.676048 0
M  V30 2564 C 237.721 -2.06377 0.205705 0
M  V30 2565 C 238.146 -1.50463 -1.12883 0
M  V30 2566 O 237.504 -0.623619 -1.70237 0
M  V30 2567 C 237.552 -3.60277 0.152655 0
M  V30 2568 O 236.656 -4.02935 -0.87845 0
M  V30 2569 H 235.997 -0.655588 0.105359 0
M  V30 2570 H 238.527 -1.82475 0.925412 0
M  V30 2571 H 238.537 -4.07993 -0.0230675 0
M  V30 2572 H 237.212 -4.00346 1.12675 0
M  V30 2573 H 235.789 -3.66764 -0.673668 0
M  V30 2574 N 237.974 -0.419461 -1.51915 0
M  V30 2575 C 239.39 -0.0708431 -1.59443 0
M  V30 2576 C 239.59 1.41796 -1.43164 0
M  V30 2577 O 238.646 2.18596 -1.26381 0
M  V30 2578 C 239.959 -0.574991 -2.95151 0
M  V30 2579 C 241.507 -0.533867 -3.08413 0
M  V30 2580 C 241.982 -1.01469 -4.46618 0
M  V30 2581 N 243.473 -0.971939 -4.52888 0
M  V30 2582 C 244.208 -1.31505 -5.58116 0
M  V30 2583 N 243.704 -1.73014 -6.70849 0
M  V30 2584 N 245.497 -1.23436 -5.48379 0
M  V30 2585 H 237.648 -1.38836 -1.60743 0
M  V30 2586 H 239.911 -0.570998 -0.756747 0
M  V30 2587 H 239.617 -1.61597 -3.12377 0
M  V30 2588 H 239.491 0.00979777 -3.77199 0
M  V30 2589 H 241.878 0.498086 -2.90866 0
M  V30 2590 H 241.959 -1.15484 -2.28248 0
M  V30 2591 H 241.603 -2.04502 -4.6491 0
M  V30 2592 H 241.533 -0.370433 -5.25295 0
M  V30 2593 H 244.024 -0.666893 -3.71969 0
M  V30 2594 H 244.337 -1.97479 -7.47143 0
M  V30 2595 H 242.682 -1.76926 -6.72103 0
M  V30 2596 H 245.873 -0.908869 -4.59192 0
M  V30 2597 H 246.046 -1.50506 -6.30279 0
M  V30 2598 N 239.452 1.56882 -0.150215 0
M  V30 2599 C 240.682 2.00302 0.506213 0
M  V30 2600 C 241.09 1.02934 1.58749 0
M  V30 2601 O 240.433 0.0188384 1.8369 0
M  V30 2602 C 240.495 3.40156 1.16337 0
M  V30 2603 C 240.159 4.56439 0.226311 0
M  V30 2604 C 241.156 5.17012 -0.547265 0
M  V30 2605 C 238.841 5.02136 0.128279 0
M  V30 2606 C 240.835 6.21693 -1.40629 0
M  V30 2607 C 238.522 6.06672 -0.734345 0
M  V30 2608 C 239.52 6.6632 -1.50023 0
M  V30 2609 O 239.208 7.68831 -2.34848 0
M  V30 2610 H 238.94 0.662182 0.135984 0
M  V30 2611 H 241.494 2.03961 -0.242746 0
M  V30 2612 H 239.724 3.33346 1.96004 0
M  V30 2613 H 241.413 3.67663 1.71985 0
M  V30 2614 H 242.179 4.82603 -0.48158 0
M  V30 2615 H 238.058 4.55435 0.714157 0
M  V30 2616 H 241.602 6.68179 -2.00455 0
M  V30 2617 H 237.499 6.40507 -0.801309 0
M  V30 2618 H 238.267 7.86065 -2.28131 0
M  V30 2619 N 240.93 -0.123565 1.57115 0
M  V30 2620 C 241.862 -1.17739 1.96648 0
M  V30 2621 C 242.875 -1.37906 0.865201 0
M  V30 2622 O 244.064 -1.37062 1.14351 0
M  V30 2623 C 241.164 -2.53821 2.24562 0
M  V30 2624 C 240.337 -2.54317 3.55867 0
M  V30 2625 C 239.396 -3.72112 3.72047 0
M  V30 2626 O 238.422 -3.55907 4.44206 0
M  V30 2627 N 239.624 -4.90498 3.10471 0
M  V30 2628 H 242.389 -0.841147 2.87654 0
M  V30 2629 H 239.95 -0.31289 1.58848 0
M  V30 2630 H 241.942 -3.31175 2.32606 0
M  V30 2631 H 240.512 -2.79645 1.39705 0
M  V30 2632 H 239.732 -1.62711 3.59053 0
M  V30 2633 H 241.02 -2.51701 4.42181 0
M  V30 2634 H 240.418 -5.06567 2.51806 0
M  V30 2635 H 238.975 -5.65544 3.24043 0
M  V30 2636 N 242.408 -1.52605 -0.393616 0
M  V30 2637 C 243.34 -1.73303 -1.49995 0
M  V30 2638 C 244.353 -0.613473 -1.50799 0
M  V30 2639 O 245.542 -0.889049 -1.54784 0
M  V30 2640 C 242.642 -1.77245 -2.88855 0
M  V30 2641 C 241.815 -3.06483 -3.12069 0
M  V30 2642 C 240.874 -3.02033 -4.30886 0
M  V30 2643 O 239.9 -3.75907 -4.27414 0
M  V30 2644 N 241.102 -2.20897 -5.36828 0
M  V30 2645 H 243.867 -2.68756 -1.32629 0
M  V30 2646 H 241.428 -1.51036 -0.583083 0
M  V30 2647 H 243.42 -1.7178 -3.66434 0
M  V30 2648 H 241.99 -0.891993 -2.99603 0
M  V30 2649 H 241.21 -3.25474 -2.22396 0
M  V30 2650 H 242.498 -3.91947 -3.2443 0
M  V30 2651 H 241.896 -1.60336 -5.42502 0
M  V30 2652 H 240.453 -2.21275 -6.13091 0
M  V30 2653 N 243.887 0.651787 -1.4349 0
M  V30 2654 C 245.164 1.40909 -1.35661 0
M  V30 2655 C 245.544 2.11099 -0.00511733 0
M  V30 2656 O 244.892 2.04892 1.0115 0
M  V30 2657 C 245.102 2.3926 -2.54078 0
M  V30 2658 C 246.45 3.03217 -2.97228 0
M  V30 2659 O 247.474 2.49588 -2.54135 0
M  V30 2660 O 246.333 4.00455 -3.71885 0
M  V30 2661 H 243.427 0.629625 -0.536191 0
M  V30 2662 H 245.973 0.678575 -1.55542 0
M  V30 2663 H 244.745 1.86352 -3.44076 0
M  V30 2664 H 244.368 3.1976 -2.36303 0
M  V30 2665 N 245.365 1.30045 0.890287 0
M  V30 2666 C 246.297 1.11786 2.00091 0
M  V30 2667 C 247.31 0.0626307 1.62679 0
M  V30 2668 O 248.499 0.308112 1.75821 0
M  V30 2669 C 245.599 0.681527 3.31977 0
M  V30 2670 C 244.772 1.81735 3.97858 0
M  V30 2671 C 243.831 1.37045 5.08041 0
M  V30 2672 O 242.857 2.07677 5.29961 0
M  V30 2673 N 244.059 0.246525 5.79976 0
M  V30 2674 H 246.824 2.07441 2.16306 0
M  V30 2675 H 244.385 1.2211 1.06305 0
M  V30 2676 H 246.377 0.365675 4.03045 0
M  V30 2677 H 244.947 -0.182828 3.12065 0
M  V30 2678 H 244.167 2.30159 3.20032 0
M  V30 2679 H 245.455 2.57865 4.38615 0
M  V30 2680 H 244.853 -0.34215 5.64664 0
M  V30 2681 H 243.41 -0.00990438 6.51799 0
M  V30 2682 N 246.843 -1.10192 1.12674 0
M  V30 2683 C 247.773 -2.18652 0.819362 0
M  V30 2684 C 248.754 -1.68698 -0.217915 0
M  V30 2685 O 249.939 -1.94041 -0.0785581 0
M  V30 2686 C 247.069 -3.46202 0.27594 0
M  V30 2687 C 246.023 -4.09444 1.24656 0
M  V30 2688 C 245.349 -5.31725 0.563258 0
M  V30 2689 C 246.649 -4.52863 2.60217 0
M  V30 2690 H 248.343 -2.44622 1.72628 0
M  V30 2691 H 245.889 -1.17571 0.831451 0
M  V30 2692 H 247.842 -4.21372 0.0486149 0
M  V30 2693 H 246.566 -3.1973 -0.666331 0
M  V30 2694 H 245.225 -3.36284 1.45974 0
M  V30 2695 H 244.873 -5.0153 -0.384235 0
M  V30 2696 H 244.573 -5.74991 1.21075 0
M  V30 2697 H 246.097 -6.09624 0.34503 0
M  V30 2698 H 247.511 -5.19294 2.42913 0
M  V30 2699 H 245.908 -5.06986 3.21068 0
M  V30 2700 H 246.978 -3.65656 3.18471 0
M  V30 2701 N 248.321 -0.919034 -1.28029 0
M  V30 2702 C 249.567 -0.555757 -1.95036 0
M  V30 2703 C 249.9 0.899198 -1.72128 0
M  V30 2704 O 249.175 1.64023 -1.04531 0
M  V30 2705 C 249.458 -0.872024 -3.49382 0
M  V30 2706 C 249.311 -2.3801 -3.81669 0
M  V30 2707 C 250.63 -0.37185 -4.38526 0
M  V30 2708 H 247.749 -0.203386 -0.708381 0
M  V30 2709 H 250.391 -1.14924 -1.51303 0
M  V30 2710 H 248.541 -0.366946 -3.86763 0
M  V30 2711 H 250.213 -2.9562 -3.54128 0
M  V30 2712 H 248.456 -2.83289 -3.28526 0
M  V30 2713 H 249.127 -2.55192 -4.8947 0
M  V30 2714 H 251.603 -0.804602 -4.08247 0
M  V30 2715 H 250.479 -0.622173 -5.45362 0
M  V30 2716 H 250.74 0.727934 -4.36066 0
M  V30 2717 N 249.799 1.42003 -0.683588 0
M  V30 2718 C 250.746 2.30798 -0.0107309 0
M  V30 2719 C 251.716 1.4645 0.783688 0
M  V30 2720 O 252.901 1.75263 0.754156 0
M  V30 2721 C 250.041 3.3238 0.928306 0
M  V30 2722 C 249.154 4.31814 0.126776 0
M  V30 2723 C 248.289 5.20468 1.06236 0
M  V30 2724 C 247.328 6.11577 0.253035 0
M  V30 2725 N 246.465 6.92754 1.14179 0
M  V30 2726 H 251.305 2.8778 -0.773727 0
M  V30 2727 H 248.842 1.41745 -0.393283 0
M  V30 2728 H 250.8 3.89813 1.48666 0
M  V30 2729 H 249.43 2.76976 1.65783 0
M  V30 2730 H 248.482 3.76427 -0.54833 0
M  V30 2731 H 249.794 4.96276 -0.501192 0
M  V30 2732 H 248.948 5.82677 1.69035 0
M  V30 2733 H 247.687 4.56204 1.7242 0
M  V30 2734 H 246.692 5.48428 -0.388108 0
M  V30 2735 H 247.917 6.77892 -0.404839 0
M  V30 2736 H 245.863 6.3111 1.78987 0
M  V30 2737 H 245.78 7.53855 0.569111 0
M  V30 2738 H 247.048 7.59441 1.75697 0
M  V30 2739 N 251.277 0.427512 1.51691 0
M  V30 2740 C 252.187 -0.39527 2.31246 0
M  V30 2741 C 253.203 -1.03674 1.39742 0
M  V30 2742 O 254.379 -1.03425 1.72816 0
M  V30 2743 C 251.444 -1.48706 3.13189 0
M  V30 2744 C 250.505 -0.866743 4.20459 0
M  V30 2745 C 249.738 -1.90651 4.98486 0
M  V30 2746 O 249.961 -3.12733 4.77026 0
M  V30 2747 O 248.895 -1.5025 5.82845 0
M  V30 2748 H 252.721 0.253918 3.02637 0
M  V30 2749 H 250.306 0.190274 1.48183 0
M  V30 2750 H 252.188 -2.12047 3.64162 0
M  V30 2751 H 250.863 -2.12051 2.44573 0
M  V30 2752 H 249.77 -0.195544 3.73589 0
M  V30 2753 H 251.103 -0.276934 4.9142 0
M  V30 2754 N 252.755 -1.56801 0.158532 0
M  V30 2755 C 254.032 -1.88131 -0.535357 0
M  V30 2756 C 254.412 -1.06638 -1.82186 0
M  V30 2757 O 253.76 -0.156533 -2.27963 0
M  V30 2758 C 253.97 -3.39949 -0.789653 0
M  V30 2759 C 255.318 -4.09416 -1.12533 0
M  V30 2760 O 256.342 -3.45194 -0.878622 0
M  V30 2761 O 255.201 -5.22855 -1.59014 0
M  V30 2762 H 252.295 -0.780143 -0.27442 0
M  V30 2763 H 254.841 -1.68564 0.19601 0
M  V30 2764 H 253.613 -3.91115 0.120353 0
M  V30 2765 H 253.236 -3.65084 -1.57479 0
M  V30 2766 N 254.233 0.115231 -1.57178 0
M  V30 2767 C 255.181 1.16014 -2.01602 0
M  V30 2768 C 256.175 1.42653 -0.913587 0
M  V30 2769 O 257.381 1.42571 -1.09879 0
M  V30 2770 H 253.756 0.391252 -0.642204 0
M  V30 2771 H 255.727 0.758998 -2.88586 0
M  V30 2772 C 254.476 2.47767 -2.4394 0
M  V30 2773 H 253.799 2.28108 -3.28339 0
M  V30 2774 H 255.239 3.19432 -2.78818 0
M  V30 2775 C 253.698 3.10617 -1.30455 0
M  V30 2776 O 254.228 3.96846 -0.622585 0
M  V30 2777 N 252.434 2.70553 -1.06064 0
M  V30 2778 H 251.981 2.00527 -1.61699 0
M  V30 2779 H 251.939 3.12934 -0.303284 0
M  V30 2780 N 255.711 1.52812 0.385517 0
M  V30 2781 C 256.96 1.67249 1.12741 0
M  V30 2782 C 257.273 0.4205 1.91027 0
M  V30 2783 O 258.479 0.445064 2.67827 0
M  V30 2784 C 256.935 2.95583 2.05326 0
M  V30 2785 C 256.543 4.27974 1.32447 0
M  V30 2786 C 258.287 3.19386 2.7963 0
M  V30 2787 C 256.194 5.47412 2.23818 0
M  V30 2788 H 255.124 0.6231 0.424573 0
M  V30 2789 H 257.775 1.79309 0.389924 0
M  V30 2790 H 256.157 2.77277 2.82725 0
M  V30 2791 H 257.331 4.56844 0.602495 0
M  V30 2792 H 255.646 4.10459 0.700885 0
M  V30 2793 H 258.243 4.05801 3.48181 0
M  V30 2794 H 258.586 2.34604 3.43899 0
M  V30 2795 H 259.119 3.38274 2.09322 0
M  V30 2796 H 255.858 6.34612 1.64157 0
M  V30 2797 H 255.378 5.22849 2.93921 0
M  V30 2798 H 257.057 5.81423 2.83824 0
M  V30 2799 N 257.189 -0.644168 1.43834 0
M  V30 2800 C 258.466 -1.40188 1.36406 0
M  V30 2801 C 258.846 -2.11094 0.0163124 0
M  V30 2802 O 258.194 -2.05426 -1.00062 0
M  V30 2803 C 258.404 -2.3791 2.55343 0
M  V30 2804 C 259.752 -3.01637 2.98832 0
M  V30 2805 O 260.776 -2.48237 2.55455 0
M  V30 2806 O 259.635 -3.98477 3.74003 0
M  V30 2807 H 256.729 -0.626773 0.539523 0
M  V30 2808 H 259.275 -0.670317 1.559 0
M  V30 2809 H 258.047 -1.84525 3.4506 0
M  V30 2810 H 257.67 -3.18503 2.37995 0
M  V30 2811 N 258.668 -1.30515 -0.883378 0
M  V30 2812 C 259.631 -1.1701 -1.97082 0
M  V30 2813 C 260.631 -0.10089 -1.60483 0
M  V30 2814 O 261.821 -0.349127 -1.70666 0
M  V30 2815 C 258.953 -0.793045 -3.31547 0
M  V30 2816 H 260.146 -2.13622 -2.10489 0
M  V30 2817 H 257.699 -1.13935 -1.06998 0
M  V30 2818 H 258.434 0.172499 -3.23841 0
M  V30 2819 H 258.219 -1.56576 -3.5948 0
M  V30 2820 H 259.709 -0.722073 -4.1131 0
M  V30 2821 N 260.146 1.09593 -1.13257 0
M  V30 2822 C 261.392 1.82003 -0.89458 0
M  V30 2823 C 261.725 1.85402 0.577906 0
M  V30 2824 O 261 1.32099 1.42759 0
M  V30 2825 C 261.283 3.28237 -1.48096 0
M  V30 2826 C 261.136 3.3312 -3.02244 0
M  V30 2827 C 262.455 4.24871 -1.14774 0
M  V30 2828 H 259.574 0.66077 -0.326424 0
M  V30 2829 H 262.216 1.28389 -1.40058 0
M  V30 2830 H 260.366 3.74024 -1.05062 0
M  V30 2831 H 262.038 2.95748 -3.54021 0
M  V30 2832 H 260.281 2.72756 -3.37323 0
M  V30 2833 H 260.952 4.3613 -3.38371 0
M  V30 2834 H 263.428 3.87361 -1.51957 0
M  V30 2835 H 262.304 5.25532 -1.58452 0
M  V30 2836 H 262.565 4.42058 -0.0611849 0
M  V30 2837 N 261.624 0.925811 1.2754 0
M  V30 2838 C 262.872 0.564138 1.94067 0
M  V30 2839 C 263.193 -0.897188 1.73134 0
M  V30 2840 O 262.463 -1.63573 1.07799 0
M  V30 2841 H 261.043 0.205645 0.718136 0
M  V30 2842 H 263.705 1.1778 1.55287 0
M  V30 2843 H 262.801 0.76881 3.02483 0
M  V30 2844 N 263.102 -1.41638 0.69111 0
M  V30 2845 C 264.049 -2.30789 0.0229705 0
M  V30 2846 C 265.019 -1.46863 -0.775911 0
M  V30 2847 O 266.204 -1.75661 -0.74485 0
M  V30 2848 C 263.344 -3.32868 -0.910666 0
M  V30 2849 C 262.457 -4.31875 -0.103874 0
M  V30 2850 C 261.592 -5.21024 -1.03475 0
M  V30 2851 C 260.631 -6.11702 -0.220598 0
M  V30 2852 N 259.768 -6.93349 -1.10504 0
M  V30 2853 H 264.608 -2.87366 0.788978 0
M  V30 2854 H 262.145 -1.41535 0.400794 0
M  V30 2855 H 264.103 -3.90596 -1.46597 0
M  V30 2856 H 262.733 -2.77851 -1.64312 0
M  V30 2857 H 261.785 -3.76131 0.568285 0
M  V30 2858 H 263.097 -4.96003 0.527504 0
M  V30 2859 H 262.251 -5.83565 -1.65943 0
M  V30 2860 H 260.99 -4.57112 -1.69999 0
M  V30 2861 H 259.995 -5.48215 0.417187 0
M  V30 2862 H 261.22 -6.77668 0.440784 0
M  V30 2863 H 259.166 -6.3205 -1.75638 0
M  V30 2864 H 259.083 -7.54146 -0.529125 0
M  V30 2865 H 260.351 -7.60362 -1.71667 0
M  V30 2866 N 264.58 -0.43555 -1.51462 0
M  V30 2867 C 265.527 0.376797 -2.27703 0
M  V30 2868 C 266.497 1.01838 -1.31219 0
M  V30 2869 O 267.682 1.03762 -1.60119 0
M  V30 2870 C 264.822 1.47301 -3.12084 0
M  V30 2871 C 263.935 0.849744 -4.2356 0
M  V30 2872 C 263.07 1.92086 -4.95254 0
M  V30 2873 C 262.109 1.27593 -5.98654 0
M  V30 2874 N 261.246 2.28833 -6.63762 0
M  V30 2875 H 266.086 -0.279734 -2.96684 0
M  V30 2876 H 263.623 -0.149795 -1.46335 0
M  V30 2877 H 265.581 2.11984 -3.59331 0
M  V30 2878 H 264.211 2.0992 -2.45221 0
M  V30 2879 H 263.263 0.0912529 -3.80291 0
M  V30 2880 H 264.575 0.338878 -4.97648 0
M  V30 2881 H 263.729 2.64435 -5.46039 0
M  V30 2882 H 262.468 2.46545 -4.20793 0
M  V30 2883 H 261.473 0.537893 -5.47162 0
M  V30 2884 H 262.698 0.738693 -6.7507 0
M  V30 2885 H 260.644 2.82375 -5.92115 0
M  V30 2886 H 260.561 1.82632 -7.33608 0
M  V30 2887 H 261.829 3.00671 -7.19178 0
M  V30 2888 N 266.058 1.56714 -0.166846 0
M  V30 2889 C 266.988 2.20754 0.760913 0
M  V30 2890 C 267.969 1.16178 1.24244 0
M  V30 2891 O 269.154 1.44592 1.29641 0
M  V30 2892 C 266.284 2.84478 1.99223 0
M  V30 2893 C 265.238 3.95053 1.64672 0
M  V30 2894 C 264.564 4.45805 2.95232 0
M  V30 2895 C 265.864 5.14865 0.878155 0
M  V30 2896 H 267.558 2.98537 0.22713 0
M  V30 2897 H 265.104 1.43596 0.107805 0
M  V30 2898 H 267.057 3.27951 2.64624 0
M  V30 2899 H 265.781 2.04056 2.55007 0
M  V30 2900 H 264.44 3.52228 1.01641 0
M  V30 2901 H 264.088 3.62181 3.49047 0
M  V30 2902 H 263.788 5.204 2.7287 0
M  V30 2903 H 265.312 4.91962 3.6167 0
M  V30 2904 H 266.726 5.55059 1.43466 0
M  V30 2905 H 265.123 5.95348 0.753738 0
M  V30 2906 H 266.193 4.84735 -0.126377 0
M  V30 2907 N 267.536 -0.106894 1.57237 0
M  V30 2908 C 268.468 -1.15646 1.97885 0
M  V30 2909 C 269.481 -1.36981 0.879779 0
M  V30 2910 O 270.67 -1.35841 1.15799 0
M  V30 2911 C 267.77 -2.51425 2.27241 0
M  V30 2912 C 266.943 -2.50529 3.58545 0
M  V30 2913 C 266.002 -3.68145 3.75973 0
M  V30 2914 O 265.028 -3.51176 4.47956 0
M  V30 2915 N 266.23 -4.87177 3.15656 0
M  V30 2916 H 268.995 -0.81059 2.8853 0
M  V30 2917 H 266.556 -0.296024 1.59171 0
M  V30 2918 H 268.548 -3.28689 2.36105 0
M  V30 2919 H 267.118 -2.78147 1.42663 0
M  V30 2920 H 266.338 -1.58894 3.60758 0
M  V30 2921 H 267.626 -2.46997 4.44826 0
M  V30 2922 H 267.024 -5.03868 2.57165 0
M  V30 2923 H 265.581 -5.62075 3.30023 0
M  V30 2924 N 269.014 -1.53014 -0.377408 0
M  V30 2925 C 269.924 -1.81557 -1.48574 0
M  V30 2926 C 270.94 -0.703102 -1.59162 0
M  V30 2927 O 272.116 -0.99192 -1.75279 0
M  V30 2928 C 269.181 -1.9889 -2.83978 0
M  V30 2929 C 268.242 -3.22801 -2.83016 0
M  V30 2930 C 267.475 -3.39298 -4.11962 0
M  V30 2931 O 267.698 -2.60345 -5.0752 0
M  V30 2932 O 266.632 -4.32604 -4.18494 0
M  V30 2933 H 270.458 -2.75695 -1.27382 0
M  V30 2934 H 268.043 -1.38248 -0.566373 0
M  V30 2935 H 269.925 -2.11931 -3.6423 0
M  V30 2936 H 268.6 -1.07942 -3.05172 0
M  V30 2937 H 267.507 -3.15193 -2.01505 0
M  V30 2938 H 268.84 -4.13632 -2.66775 0
M  V30 2939 N 270.492 0.636531 -1.44174 0
M  V30 2940 C 271.722 1.42146 -1.49927 0
M  V30 2941 C 272.13 1.88812 -0.121063 0
M  V30 2942 O 271.473 1.61126 0.882267 0
M  V30 2943 C 271.535 2.67883 -2.39748 0
M  V30 2944 C 271.199 2.43048 -3.8701 0
M  V30 2945 C 272.196 2.05216 -4.77684 0
M  V30 2946 C 269.881 2.56856 -4.3166 0
M  V30 2947 C 271.875 1.81512 -6.11009 0
M  V30 2948 C 269.562 2.32766 -5.65034 0
M  V30 2949 C 270.56 1.95152 -6.54526 0
M  V30 2950 O 270.248 1.71326 -7.85431 0
M  V30 2951 H 269.98 0.442567 -0.51099 0
M  V30 2952 H 272.534 0.786158 -1.8976 0
M  V30 2953 H 270.764 3.34032 -1.94832 0
M  V30 2954 H 272.453 3.29874 -2.36513 0
M  V30 2955 H 273.219 1.94111 -4.44462 0
M  V30 2956 H 269.098 2.85104 -3.62266 0
M  V30 2957 H 272.642 1.52077 -6.80822 0
M  V30 2958 H 268.539 2.43479 -5.97819 0
M  V30 2959 H 269.307 1.85616 -7.97176 0
M  V30 2960 N 271.97 1.30982 0.876444 0
M  V30 2961 C 272.92 1.14688 1.97055 0
M  V30 2962 C 273.904 0.0596593 1.60789 0
M  V30 2963 O 275.096 0.283892 1.74708 0
M  V30 2964 C 272.225 0.849627 3.3262 0
M  V30 2965 C 271.311 1.97752 3.75173 0
M  V30 2966 N 271.702 3.22384 3.89746 0
M  V30 2967 C 270 1.8758 4.04635 0
M  V30 2968 C 270.701 3.96121 4.25985 0
M  V30 2969 N 269.677 3.24237 4.36315 0
M  V30 2970 H 273.479 2.09204 2.06424 0
M  V30 2971 H 270.993 1.22445 1.06682 0
M  V30 2972 H 272.99 0.713895 4.10742 0
M  V30 2973 H 271.65 -0.087376 3.24582 0
M  V30 2974 H 272.661 3.57575 3.74647 0
M  V30 2975 H 269.338 1.01303 4.05024 0
M  V30 2976 H 270.728 5.03491 4.44911 0
M  V30 2977 N 273.449 -1.08991 1.13837 0
M  V30 2978 C 274.674 -1.85551 0.926585 0
M  V30 2979 C 275.099 -1.80782 -0.519566 0
M  V30 2980 O 274.457 -1.18855 -1.36906 0
M  V30 2981 C 274.505 -3.31266 1.42462 0
M  V30 2982 O 273.609 -4.07822 0.612789 0
M  V30 2983 H 272.95 -0.575192 0.331738 0
M  V30 2984 H 275.48 -1.37604 1.51414 0
M  V30 2985 H 275.49 -3.82112 1.43019 0
M  V30 2986 H 274.165 -3.34052 2.47754 0
M  V30 2987 H 272.742 -3.66731 0.675463 0
M  V30 2988 N 274.927 -0.932562 -1.27047 0
M  V30 2989 C 275.859 -0.392734 -2.2581 0
M  V30 2990 C 276.872 0.479241 -1.55586 0
M  V30 2991 O 278.061 0.291078 -1.76111 0
M  V30 2992 C 275.161 0.455456 -3.35826 0
M  V30 2993 C 274.334 -0.398355 -4.35582 0
M  V30 2994 C 273.393 0.387985 -5.24768 0
M  V30 2995 O 272.419 -0.206003 -5.68827 0
M  V30 2996 N 273.621 1.68664 -5.55457 0
M  V30 2997 H 276.386 -1.24173 -2.72766 0
M  V30 2998 H 273.947 -0.800511 -1.40725 0
M  V30 2999 H 275.939 0.988692 -3.92437 0
M  V30 3000 H 274.509 1.20522 -2.88432 0
M  V30 3001 H 273.729 -1.11286 -3.78165 0
M  V30 3002 H 275.017 -0.981889 -4.99236 0
M  V30 3003 H 274.415 2.19147 -5.21528 0
M  V30 3004 H 272.972 2.1663 -6.14748 0
M  V30 3005 N 276.405 1.4127 -0.698611 0
M  V30 3006 C 277.635 2.05205 -0.239644 0
M  V30 3007 C 278.043 1.52684 1.11733 0
M  V30 3008 O 277.386 0.671222 1.70998 0
M  V30 3009 C 277.448 3.59289 -0.123126 0
M  V30 3010 C 277.112 4.34619 -1.41263 0
M  V30 3011 C 278.109 4.63701 -2.35111 0
M  V30 3012 C 275.794 4.73837 -1.66684 0
M  V30 3013 C 277.788 5.30966 -3.52639 0
M  V30 3014 C 275.475 5.40837 -2.84498 0
M  V30 3015 C 276.473 5.69329 -3.77298 0
M  V30 3016 O 276.161 6.34949 -4.93047 0
M  V30 3017 H 275.893 0.66723 -0.108537 0
M  V30 3018 H 278.447 1.81974 -0.952602 0
M  V30 3019 H 276.677 3.81272 0.645628 0
M  V30 3020 H 278.366 4.04797 0.299056 0
M  V30 3021 H 279.132 4.33882 -2.16729 0
M  V30 3022 H 275.011 4.51039 -0.953135 0
M  V30 3023 H 278.555 5.53121 -4.25091 0
M  V30 3024 H 274.452 5.70075 -3.02795 0
M  V30 3025 H 275.22 6.53445 -4.92902 0
M  V30 3026 N 277.883 0.443576 1.51229 0
M  V30 3027 C 278.815 -0.400608 2.25672 0
M  V30 3028 C 279.828 -0.980945 1.29928 0
M  V30 3029 O 281.017 -0.874024 1.55638 0
M  V30 3030 C 278.117 -1.57304 3.00181 0
M  V30 3031 C 277.29 -1.11046 4.23069 0
M  V30 3032 C 276.349 -2.15374 4.80105 0
M  V30 3033 O 275.375 -1.74554 5.41774 0
M  V30 3034 N 276.577 -3.47922 4.64683 0
M  V30 3035 H 279.342 0.23745 2.98758 0
M  V30 3036 H 276.903 0.272809 1.59585 0
M  V30 3037 H 278.895 -2.26733 3.35223 0
M  V30 3038 H 277.465 -2.11632 2.30066 0
M  V30 3039 H 276.685 -0.243019 3.9345 0
M  V30 3040 H 277.973 -0.778888 5.02803 0
M  V30 3041 H 277.371 -3.83815 4.15575 0
M  V30 3042 H 275.928 -4.13228 5.0407 0
M  V30 3043 N 279.361 -1.56624 0.175154 0
M  V30 3044 C 280.271 -2.21741 -0.766042 0
M  V30 3045 C 281.287 -1.21023 -1.25018 0
M  V30 3046 O 282.463 -1.53697 -1.3015 0
M  V30 3047 C 279.528 -2.84839 -1.97655 0
M  V30 3048 C 278.589 -4.00769 -1.53892 0
M  V30 3049 C 277.822 -4.60849 -2.69173 0
M  V30 3050 O 278.045 -4.19823 -3.86141 0
M  V30 3051 O 276.979 -5.50655 -2.43028 0
M  V30 3052 H 280.805 -3.02738 -0.241585 0
M  V30 3053 H 278.39 -1.49305 -0.053222 0
M  V30 3054 H 280.272 -3.24834 -2.68442 0
M  V30 3055 H 278.947 -2.06836 -2.48999 0
M  V30 3056 H 277.854 -3.65436 -0.80044 0
M  V30 3057 H 279.187 -4.80376 -1.07236 0
M  V30 3058 N 280.839 0.0985539 -1.57292 0
M  V30 3059 C 281.786 1.11981 -2.01814 0
M  V30 3060 C 282.756 1.39999 -0.89384 0
M  V30 3061 O 283.941 1.5152 -1.15958 0
M  V30 3062 C 281.081 2.43577 -2.44467 0
M  V30 3063 C 280.194 2.2232 -3.70402 0
M  V30 3064 C 279.329 3.4729 -4.01949 0
M  V30 3065 C 278.368 3.2128 -5.21005 0
M  V30 3066 N 277.505 4.38507 -5.48321 0
M  V30 3067 H 282.345 0.733149 -2.88841 0
M  V30 3068 H 279.882 0.350482 -1.42864 0
M  V30 3069 H 281.84 3.20373 -2.6724 0
M  V30 3070 H 280.47 2.80097 -1.60455 0
M  V30 3071 H 279.522 1.36343 -3.55126 0
M  V30 3072 H 280.834 1.99089 -4.57345 0
M  V30 3073 H 279.988 4.32495 -4.25479 0
M  V30 3074 H 278.727 3.73572 -3.13521 0
M  V30 3075 H 277.732 2.34468 -4.97298 0
M  V30 3076 H 278.957 2.96348 -6.11028 0
M  V30 3077 H 276.903 4.64871 -4.62851 0
M  V30 3078 H 276.82 4.18455 -6.29628 0
M  V30 3079 H 278.088 5.24787 -5.76385 0
M  V30 3080 N 282.317 1.53212 0.369288 0
M  V30 3081 C 283.542 1.73423 1.1375 0
M  V30 3082 C 283.967 0.460404 1.82378 0
M  V30 3083 O 283.325 -0.585298 1.71592 0
M  V30 3084 C 283.373 2.89769 2.1463 0
M  V30 3085 O 282.477 2.58119 3.21634 0
M  V30 3086 H 281.818 0.576061 0.330227 0
M  V30 3087 H 284.348 2.00083 0.427547 0
M  V30 3088 H 284.358 3.15829 2.58294 0
M  V30 3089 H 283.033 3.8217 1.64071 0
M  V30 3090 H 281.61 2.42864 2.82969 0
M  V30 3091 N 283.795 -0.628877 1.44509 0
M  V30 3092 C 284.742 -1.74074 1.51549 0
M  V30 3093 C 285.712 -1.62084 0.363021 0
M  V30 3094 O 286.897 -1.81975 0.573567 0
M  V30 3095 C 284.037 -3.12328 1.46784 0
M  V30 3096 C 283.15 -3.35277 2.72422 0
M  V30 3097 C 282.285 -4.63515 2.59475 0
M  V30 3098 C 281.324 -4.7965 3.80266 0
M  V30 3099 N 280.461 -5.99168 3.65981 0
M  V30 3100 H 285.301 -1.67392 2.46544 0
M  V30 3101 H 282.838 -0.816527 1.22357 0
M  V30 3102 H 284.796 -3.92286 1.42012 0
M  V30 3103 H 283.426 -3.18018 0.553544 0
M  V30 3104 H 282.478 -2.49242 2.87372 0
M  V30 3105 H 283.79 -3.43078 3.62076 0
M  V30 3106 H 282.944 -5.51638 2.52548 0
M  V30 3107 H 281.683 -4.58076 1.67384 0
M  V30 3108 H 280.688 -3.89957 3.87574 0
M  V30 3109 H 281.913 -4.86902 4.73395 0
M  V30 3110 H 279.859 -5.94814 2.76644 0
M  V30 3111 H 279.776 -6.08035 4.49254 0
M  V30 3112 H 281.044 -6.89846 3.6295 0
M  V30 3113 N 285.273 -1.31445 -0.869486 0
M  V30 3114 C 286.183 -1.21097 -2.0093 0
M  V30 3115 C 287.199 -0.127584 -1.73532 0
M  V30 3116 O 288.375 -0.345477 -1.98415 0
M  V30 3117 C 285.44 -0.919378 -3.34288 0
M  V30 3118 C 284.501 -2.08971 -3.75006 0
M  V30 3119 C 283.734 -1.81194 -5.02001 0
M  V30 3120 O 283.957 -0.747296 -5.65484 0
M  V30 3121 O 282.891 -2.66883 -5.39497 0
M  V30 3122 H 286.717 -2.16883 -2.12592 0
M  V30 3123 H 284.302 -1.11189 -0.997868 0
M  V30 3124 H 286.184 -0.772625 -4.14257 0
M  V30 3125 H 284.859 0.00844772 -3.23699 0
M  V30 3126 H 283.766 -2.29187 -2.95676 0
M  V30 3127 H 285.099 -2.9998 -3.90221 0
M  V30 3128 N 286.751 1.08385 -1.14413 0
M  V30 3129 C 287.981 1.8425 -0.934644 0
M  V30 3130 C 288.389 1.81907 0.520234 0
M  V30 3131 O 287.732 1.22126 1.37226 0
M  V30 3132 C 287.794 3.32853 -1.35828 0
M  V30 3133 C 287.458 3.5893 -2.82875 0
M  V30 3134 C 288.455 3.53756 -3.80989 0
M  V30 3135 C 286.14 3.86934 -3.20293 0
M  V30 3136 C 288.134 3.76216 -5.14529 0
M  V30 3137 C 285.821 4.09047 -4.54008 0
M  V30 3138 C 286.819 4.03682 -5.50936 0
M  V30 3139 O 286.507 4.25214 -6.82238 0
M  V30 3140 H 286.239 0.588502 -0.332628 0
M  V30 3141 H 288.793 1.37792 -1.52324 0
M  V30 3142 H 287.023 3.8007 -0.713019 0
M  V30 3143 H 288.712 3.90154 -1.11957 0
M  V30 3144 H 289.478 3.32135 -3.53428 0
M  V30 3145 H 285.357 3.9023 -2.45442 0
M  V30 3146 H 288.901 3.71943 -5.90173 0
M  V30 3147 H 284.798 4.30151 -4.8129 0
M  V30 3148 H 285.566 4.42619 -6.88499 0
M  V30 3149 N 288.23 0.939286 1.26551 0
M  V30 3150 C 289.507 0.5038 1.89001 0
M  V30 3151 C 289.887 -1.01854 1.84903 0
M  V30 3152 O 289.235 -1.87773 1.30206 0
M  V30 3153 C 289.445 1.063 3.32417 0
M  V30 3154 C 290.793 1.13051 4.09273 0
M  V30 3155 O 291.817 1.01345 3.41479 0
M  V30 3156 O 290.676 1.31233 5.30509 0
M  V30 3157 H 287.77 0.163897 0.810597 0
M  V30 3158 H 290.316 1.03173 1.34735 0
M  V30 3159 H 289.088 2.10665 3.29752 0
M  V30 3160 H 288.711 0.517408 3.94219 0
M  V30 3161 N 289.708 -1.40897 0.706093 0
M  V30 3162 C 291.124 -1.55042 0.37869 0
M  V30 3163 C 291.324 -1.67944 -1.11342 0
M  V30 3164 O 290.38 -1.66372 -1.89938 0
M  V30 3165 C 291.693 -2.78398 1.13643 0
M  V30 3166 C 293.241 -2.92206 1.12181 0
M  V30 3167 C 293.716 -4.18463 1.86152 0
M  V30 3168 N 295.207 -4.25443 1.83173 0
M  V30 3169 C 295.942 -5.2202 2.37239 0
M  V30 3170 N 295.438 -6.24563 2.99821 0
M  V30 3171 N 297.231 -5.14033 2.27435 0
M  V30 3172 H 289.382 -1.30769 1.67372 0
M  V30 3173 H 291.645 -0.631653 0.706907 0
M  V30 3174 H 291.351 -2.7511 2.19106 0
M  V30 3175 H 291.225 -3.70228 0.721853 0
M  V30 3176 H 293.612 -2.95004 0.0754171 0
M  V30 3177 H 293.693 -2.01521 1.57554 0
M  V30 3178 H 293.337 -4.16427 2.90776 0
M  V30 3179 H 293.267 -5.08141 1.38206 0
M  V30 3180 H 295.758 -3.51976 1.37556 0
M  V30 3181 H 296.071 -6.94665 3.38616 0
M  V30 3182 H 294.416 -6.25035 3.03902 0
M  V30 3183 H 297.607 -4.3285 1.78208 0
M  V30 3184 H 297.78 -5.89129 2.69873 0
M  V30 3185 N 291.186 -0.45159 -1.50991 0
M  V30 3186 C 292.116 0.342898 -2.30969 0
M  V30 3187 C 293.097 1.00815 -1.37005 0
M  V30 3188 O 294.282 1.00907 -1.65926 0
M  V30 3189 C 291.412 1.43637 -3.16205 0
M  V30 3190 C 290.366 0.893818 -4.18563 0
M  V30 3191 C 289.692 2.08411 -4.92411 0
M  V30 3192 C 290.992 -0.0815568 -5.22236 0
M  V30 3193 H 292.686 -0.324556 -2.97636 0
M  V30 3194 H 290.232 -0.157531 -1.43136 0
M  V30 3195 H 292.185 1.9995 -3.70942 0
M  V30 3196 H 290.909 2.13232 -2.47386 0
M  V30 3197 H 289.568 0.352798 -3.64898 0
M  V30 3198 H 289.216 2.76658 -4.20082 0
M  V30 3199 H 288.916 1.72741 -5.61636 0
M  V30 3200 H 290.44 2.65251 -5.49976 0
M  V30 3201 H 291.854 0.391742 -5.7196 0
M  V30 3202 H 290.251 -0.351551 -5.99069 0
M  V30 3203 H 291.321 -1.01374 -4.74185 0
M  V30 3204 N 292.664 1.56529 -0.183458 0
M  V30 3205 C 293.894 2.01331 0.463612 0
M  V30 3206 C 294.302 1.06278 1.5653 0
M  V30 3207 O 293.645 0.0577976 1.83609 0
M  V30 3208 C 293.707 3.42547 1.09096 0
M  V30 3209 C 293.371 4.56817 0.129442 0
M  V30 3210 C 294.368 5.15734 -0.656807 0
M  V30 3211 C 292.053 5.02295 0.02174 0
M  V30 3212 C 294.047 6.1857 -1.53784 0
M  V30 3213 C 291.734 6.04978 -0.862864 0
M  V30 3214 C 292.732 6.62988 -1.64123 0
M  V30 3215 O 292.42 7.63677 -2.51103 0
M  V30 3216 H 292.152 0.664917 0.121907 0
M  V30 3217 H 294.706 2.034 -0.285954 0
M  V30 3218 H 292.936 3.37428 1.88889 0
M  V30 3219 H 294.625 3.71228 1.64148 0
M  V30 3220 H 295.391 4.81473 -0.583839 0
M  V30 3221 H 291.27 4.56847 0.617392 0
M  V30 3222 H 294.814 6.63777 -2.14583 0
M  V30 3223 H 290.711 6.38663 -0.93699 0
M  V30 3224 H 291.479 7.81049 -2.44753 0
M  V30 3225 N 294.142 -0.090211 1.57342 0
M  V30 3226 C 295.052 -1.12735 2.05738 0
M  V30 3227 C 296.068 -1.43557 0.983231 0
M  V30 3228 O 297.244 -1.54101 1.29672 0
M  V30 3229 C 294.309 -2.42659 2.47624 0
M  V30 3230 C 293.37 -2.18975 3.69254 0
M  V30 3231 C 292.603 -3.42704 4.09133 0
M  V30 3232 O 292.826 -4.51127 3.49057 0
M  V30 3233 O 291.76 -3.32003 5.02053 0
M  V30 3234 H 295.586 -0.746279 2.94388 0
M  V30 3235 H 293.171 -0.303064 1.46294 0
M  V30 3236 H 295.053 -3.19155 2.7517 0
M  V30 3237 H 293.728 -2.80182 1.62109 0
M  V30 3238 H 292.635 -1.40244 3.46818 0
M  V30 3239 H 293.968 -1.86342 4.55563 0
M  V30 3240 N 295.62 -1.53406 -0.361157 0
M  V30 3241 C 296.53 -1.83122 -1.4664 0
M  V30 3242 C 297.546 -0.719943 -1.58407 0
M  V30 3243 O 298.722 -1.01046 -1.74218 0
M  V30 3244 C 295.787 -2.01891 -2.81853 0
M  V30 3245 C 294.848 -3.25784 -2.79577 0
M  V30 3246 C 294.081 -3.43648 -4.0834 0
M  V30 3247 O 294.304 -2.65714 -5.0473 0
M  V30 3248 O 293.238 -4.37018 -4.13883 0
M  V30 3249 H 297.064 -2.7703 -1.24451 0
M  V30 3250 H 294.649 -1.38841 -0.551678 0
M  V30 3251 H 296.531 -2.15782 -3.61962 0
M  V30 3252 H 295.206 -1.11173 -3.0401 0
M  V30 3253 H 294.113 -3.17312 -1.98151 0
M  V30 3254 H 295.446 -4.16439 -2.62373 0
M  V30 3255 N 297.098 0.621204 -1.44841 0
M  V30 3256 C 298.328 1.40548 -1.51426 0
M  V30 3257 C 298.736 1.88673 -0.141083 0
M  V30 3258 O 298.079 1.62053 0.865128 0
M  V30 3259 C 298.141 2.65325 -2.42576 0
M  V30 3260 C 297.805 2.3893 -3.89566 0
M  V30 3261 C 298.802 2.00138 -4.79834 0
M  V30 3262 C 296.487 2.52263 -4.3436 0
M  V30 3263 C 298.481 1.75021 -6.129 0
M  V30 3264 C 296.168 2.2676 -5.67471 0
M  V30 3265 C 297.166 1.88199 -6.56559 0
M  V30 3266 O 296.854 1.62986 -7.87204 0
M  V30 3267 H 296.586 0.437122 -0.515655 0
M  V30 3268 H 299.14 0.765987 -1.90583 0
M  V30 3269 H 297.37 3.31947 -1.98364 0
M  V30 3270 H 299.059 3.27347 -2.39998 0
M  V30 3271 H 299.825 1.89386 -4.46495 0
M  V30 3272 H 295.704 2.81246 -3.65269 0
M  V30 3273 H 299.248 1.44848 -6.82396 0
M  V30 3274 H 295.145 2.37125 -6.00368 0
M  V30 3275 H 295.913 1.7715 -7.991 0
M  V30 3276 N 298.576 1.31904 0.862503 0
M  V30 3277 C 299.804 1.24998 1.64873 0
M  V30 3278 C 300.219 -0.183425 1.87907 0
M  V30 3279 O 299.576 -1.11794 1.44251 0
M  V30 3280 C 299.627 1.99829 3.01248 0
M  V30 3281 O 299.348 3.37575 2.79239 0
M  V30 3282 C 300.849 1.99852 3.95694 0
M  V30 3283 H 298.069 0.431599 0.513773 0
M  V30 3284 H 300.613 1.73901 1.07604 0
M  V30 3285 H 298.768 1.54668 3.55185 0
M  V30 3286 H 299.182 3.75776 3.65914 0
M  V30 3287 H 300.656 2.56709 4.88676 0
M  V30 3288 H 301.133 0.982852 4.28062 0
M  V30 3289 H 301.739 2.44926 3.47694 0
M  V30 3290 N 300.054 -1.07777 1.14986 0
M  V30 3291 C 301.47 -1.32373 0.891596 0
M  V30 3292 C 301.67 -1.9609 -0.463788 0
M  V30 3293 O 300.726 -2.21801 -1.20667 0
M  V30 3294 C 302.039 -2.21905 2.02925 0
M  V30 3295 C 303.587 -2.35367 2.06329 0
M  V30 3296 C 304.062 -3.28245 3.19405 0
M  V30 3297 N 305.553 -3.35824 3.19024 0
M  V30 3298 C 306.288 -4.07739 4.03158 0
M  V30 3299 N 305.784 -4.82306 4.97346 0
M  V30 3300 N 307.577 -4.03635 3.91197 0
M  V30 3301 H 299.728 -0.648039 2.02273 0
M  V30 3302 H 301.991 -0.348149 0.881757 0
M  V30 3303 H 301.697 -1.82342 3.0074 0
M  V30 3304 H 301.571 -3.22407 1.95789 0
M  V30 3305 H 303.958 -2.74186 1.09116 0
M  V30 3306 H 304.039 -1.34585 2.17533 0
M  V30 3307 H 303.683 -2.90146 4.16867 0
M  V30 3308 H 303.613 -4.28971 3.05437 0
M  V30 3309 H 306.104 -2.8267 2.50811 0
M  V30 3310 H 306.417 -5.34661 5.57994 0
M  V30 3311 H 304.762 -4.81337 5.01338 0
M  V30 3312 H 307.953 -3.44491 3.16928 0
M  V30 3313 H 308.126 -4.59417 4.5699 0
M  V30 3314 N 301.532 -0.945985 -1.26051 0
M  V30 3315 C 302.76 -0.613025 -1.9761 0
M  V30 3316 C 303.175 0.813035 -1.70397 0
M  V30 3317 O 302.532 1.54274 -0.974979 0
M  V30 3318 C 302.583 -0.85159 -3.51326 0
M  V30 3319 O 302.304 -2.22157 -3.77595 0
M  V30 3320 C 303.805 -0.529831 -4.40122 0
M  V30 3321 H 301.025 -0.230593 -0.630133 0
M  V30 3322 H 303.569 -1.268 -1.60443 0
M  V30 3323 H 301.724 -0.243151 -3.86636 0
M  V30 3324 H 302.138 -2.2852 -4.721 0
M  V30 3325 H 303.612 -0.747348 -5.46917 0
M  V30 3326 H 304.089 0.535341 -4.35925 0
M  V30 3327 H 304.695 -1.11721 -4.10364 0
M  V30 3328 N 303.011 1.40521 -0.713556 0
M  V30 3329 C 304.236 2.05759 -0.26035 0
M  V30 3330 C 304.661 1.53403 1.08854 0
M  V30 3331 O 304.019 0.668535 1.68524 0
M  V30 3332 C 304.067 3.59745 -0.248122 0
M  V30 3333 O 303.171 4.05123 0.77131 0
M  V30 3334 H 302.512 0.652564 -0.122703 0
M  V30 3335 H 305.042 1.79958 -0.973467 0
M  V30 3336 H 305.052 4.07911 -0.0851129 0
M  V30 3337 H 303.727 3.97218 -1.2325 0
M  V30 3338 H 302.304 3.68422 0.57619 0
M  V30 3339 N 304.489 0.459591 1.5075 0
M  V30 3340 C 305.421 -0.37665 2.26084 0
M  V30 3341 C 306.434 -0.967109 1.30961 0
M  V30 3342 O 307.623 -0.857468 1.56556 0
M  V30 3343 C 304.723 -1.54112 3.01832 0
M  V30 3344 C 303.896 -1.06553 4.24223 0
M  V30 3345 C 302.955 -2.1027 4.82362 0
M  V30 3346 O 301.981 -1.68798 5.43595 0
M  V30 3347 N 303.183 -3.42974 4.68347 0
M  V30 3348 H 305.948 0.269124 2.98489 0
M  V30 3349 H 303.509 0.28972 1.59287 0
M  V30 3350 H 305.501 -2.23165 3.37608 0
M  V30 3351 H 304.071 -2.0918 2.32298 0
M  V30 3352 H 303.291 -0.201274 3.93686 0
M  V30 3353 H 304.579 -0.725516 5.03601 0
M  V30 3354 H 303.977 -3.79385 4.19623 0
M  V30 3355 H 302.534 -4.07858 5.08424 0
M  V30 3356 N 305.967 -1.56429 0.191757 0
M  V30 3357 C 306.877 -2.22541 -0.742481 0
M  V30 3358 C 307.893 -1.22342 -1.23727 0
M  V30 3359 O 309.069 -1.55069 -1.28513 0
M  V30 3360 C 306.134 -2.8692 -1.94623 0
M  V30 3361 C 305.195 -4.02378 -1.49633 0
M  V30 3362 C 304.428 -4.63678 -2.6427 0
M  V30 3363 O 304.651 -4.23895 -3.81666 0
M  V30 3364 O 303.585 -5.53202 -2.37174 0
M  V30 3365 H 307.411 -3.02977 -0.209462 0
M  V30 3366 H 304.996 -1.49353 -0.0373832 0
M  V30 3367 H 306.878 -3.27663 -2.64982 0
M  V30 3368 H 305.553 -2.09466 -2.46791 0
M  V30 3369 H 304.46 -3.66265 -0.761636 0
M  V30 3370 H 305.793 -4.81487 -1.02134 0
M  V30 3371 N 307.445 0.0818655 -1.57387 0
M  V30 3372 C 308.694 0.781681 -1.85937 0
M  V30 3373 C 309.007 1.79246 -0.782957 0
M  V30 3374 O 310.213 2.54112 -0.955987 0
M  V30 3375 C 308.669 1.44109 -3.29789 0
M  V30 3376 C 308.277 0.469396 -4.45534 0
M  V30 3377 C 310.021 2.12386 -3.67549 0
M  V30 3378 C 307.928 1.13415 -5.80423 0
M  V30 3379 H 306.858 0.295682 -0.693605 0
M  V30 3380 H 309.509 0.0348051 -1.83467 0
M  V30 3381 H 307.891 2.23588 -3.2684 0
M  V30 3382 H 309.065 -0.294856 -4.59856 0
M  V30 3383 H 307.38 -0.108383 -4.16259 0
M  V30 3384 H 309.977 2.62878 -4.65617 0
M  V30 3385 H 310.32 2.91877 -2.96839 0
M  V30 3386 H 310.853 1.39751 -3.72444 0
M  V30 3387 H 307.592 0.379771 -6.54399 0
M  V30 3388 H 307.112 1.8695 -5.69921 0
M  V30 3389 H 308.791 1.65686 -6.25426 0
M  V30 3390 N 308.923 1.53595 0.353017 0
M  V30 3391 C 309.855 1.77219 1.45348 0
M  V30 3392 C 310.868 0.65324 1.49119 0
M  V30 3393 O 312.057 0.929775 1.52373 0
M  V30 3394 C 309.157 1.84841 2.84055 0
M  V30 3395 C 308.33 3.14649 3.03833 0
M  V30 3396 C 307.389 3.13351 4.22727 0
M  V30 3397 O 306.415 3.87107 4.17297 0
M  V30 3398 N 307.617 2.35052 5.30783 0
M  V30 3399 H 310.382 2.72178 1.25457 0
M  V30 3400 H 307.943 1.52528 0.542833 0
M  V30 3401 H 309.935 1.81435 3.61751 0
M  V30 3402 H 308.505 0.971114 2.97133 0
M  V30 3403 H 307.725 3.31256 2.13689 0
M  V30 3404 H 309.013 4.00411 3.13925 0
M  V30 3405 H 308.411 1.74663 5.38061 0
M  V30 3406 H 306.968 2.37453 6.07009 0
M  V30 3407 N 310.401 -0.613514 1.45168 0
M  V30 3408 C 311.334 -1.73809 1.47871 0
M  V30 3409 C 312.312 -1.59097 0.33568 0
M  V30 3410 O 313.496 -1.8074 0.535299 0
M  V30 3411 C 310.623 -3.11574 1.32813 0
M  V30 3412 C 309.669 -3.4489 2.50905 0
M  V30 3413 S 310.502 -3.40393 4.13392 0
M  V30 3414 C 311.658 -4.80749 4.00789 0
M  V30 3415 H 311.891 -1.71252 2.43023 0
M  V30 3416 H 309.424 -0.789658 1.32679 0
M  V30 3417 H 311.382 -3.91065 1.24812 0
M  V30 3418 H 310.043 -3.11652 0.391418 0
M  V30 3419 H 309.236 -4.45183 2.36279 0
M  V30 3420 H 308.838 -2.72901 2.55736 0
M  V30 3421 H 311.13 -5.7041 3.65567 0
M  V30 3422 H 312.073 -5.00431 5.00974 0
M  V30 3423 H 312.481 -4.56151 3.32545 0
M  V30 3424 N 311.879 -1.3236 -0.855495 0
M  V30 3425 C 312.826 -1.21225 -1.964 0
M  V30 3426 C 313.796 -0.0946204 -1.6583 0
M  V30 3427 O 314.981 -0.27002 -1.8888 0
M  V30 3428 C 312.121 -0.940419 -3.32039 0
M  V30 3429 C 311.234 -2.14276 -3.75113 0
M  V30 3430 C 310.369 -1.80648 -4.9954 0
M  V30 3431 C 309.408 -2.97208 -5.35102 0
M  V30 3432 N 308.545 -2.63678 -6.50706 0
M  V30 3433 H 313.385 -2.16042 -2.05255 0
M  V30 3434 H 310.922 -1.07451 -1.00463 0
M  V30 3435 H 312.88 -0.763311 -4.10158 0
M  V30 3436 H 311.51 -0.0290413 -3.22787 0
M  V30 3437 H 310.562 -2.43017 -2.92655 0
M  V30 3438 H 311.874 -3.01468 -3.97389 0
M  V30 3439 H 311.028 -1.59484 -5.85363 0
M  V30 3440 H 309.767 -0.906678 -4.79198 0
M  V30 3441 H 308.772 -3.19004 -4.47791 0
M  V30 3442 H 309.997 -3.87918 -5.57401 0
M  V30 3443 H 307.943 -1.76238 -6.31883 0
M  V30 3444 H 307.86 -3.444 -6.72997 0
M  V30 3445 H 309.128 -2.45942 -7.39684 0
M  V30 3446 N 313.357 1.07166 -1.15556 0
M  V30 3447 C 314.773 1.31899 -0.898603 0
M  V30 3448 C 314.973 1.96333 0.453383 0
M  V30 3449 O 314.029 2.22438 1.19489 0
M  V30 3450 C 315.342 2.20826 -2.04099 0
M  V30 3451 C 316.89 2.34269 -2.07574 0
M  V30 3452 C 317.365 3.26546 -3.21141 0
M  V30 3453 N 318.856 3.34127 -3.20801 0
M  V30 3454 C 319.591 4.05595 -4.05315 0
M  V30 3455 N 319.087 4.79661 -4.99897 0
M  V30 3456 N 320.88 4.01555 -3.93332 0
M  V30 3457 H 313.031 0.637302 -2.02613 0
M  V30 3458 H 315.294 0.343468 -0.883591 0
M  V30 3459 H 315 1.80744 -3.01703 0
M  V30 3460 H 314.874 3.21364 -1.97496 0
M  V30 3461 H 317.261 2.73603 -1.10568 0
M  V30 3462 H 317.342 1.33429 -2.18244 0
M  V30 3463 H 316.986 2.87931 -4.184 0
M  V30 3464 H 316.916 4.27345 -3.07708 0
M  V30 3465 H 319.407 2.81336 -2.52306 0
M  V30 3466 H 319.72 5.31694 -5.60822 0
M  V30 3467 H 318.065 4.78671 -5.03884 0
M  V30 3468 H 321.256 3.42806 -3.18751 0
M  V30 3469 H 321.429 4.56987 -4.5942 0
M  V30 3470 N 314.835 0.952656 1.25548 0
M  V30 3471 C 316.063 0.623496 1.97282 0
M  V30 3472 C 316.478 -0.803987 1.70826 0
M  V30 3473 O 315.835 -1.53755 0.983147 0
M  V30 3474 C 315.886 0.870209 3.5087 0
M  V30 3475 O 315.607 2.24156 3.76412 0
M  V30 3476 C 317.108 0.553164 4.39835 0
M  V30 3477 H 314.328 0.233931 0.628902 0
M  V30 3478 H 316.872 1.27649 1.59768 0
M  V30 3479 H 315.027 0.263652 3.86502 0
M  V30 3480 H 315.441 2.31021 4.70882 0
M  V30 3481 H 316.915 0.776342 5.46513 0
M  V30 3482 H 317.392 -0.512215 4.36203 0
M  V30 3483 H 317.998 1.13896 4.09766 0
M  V30 3484 N 316.313 -1.40141 0.720998 0
M  V30 3485 C 317.276 -2.29058 0.0805834 0
M  V30 3486 C 318.276 -1.45632 -0.681758 0
M  V30 3487 O 319.466 -1.6648 -0.512856 0
M  V30 3488 C 316.598 -3.28925 -0.895593 0
M  V30 3489 H 317.791 -2.87191 0.863793 0
M  V30 3490 H 315.344 -1.48553 0.485975 0
M  V30 3491 H 316.079 -2.75822 -1.70566 0
M  V30 3492 H 315.864 -3.90519 -0.351766 0
M  V30 3493 H 317.354 -3.95494 -1.34069 0
M  V30 3494 N 317.792 -0.46758 -1.50504 0
M  V30 3495 C 319.041 0.0902868 -2.01498 0
M  V30 3496 C 319.354 1.411 -1.35463 0
M  V30 3497 O 320.56 2.0536 -1.77594 0
M  V30 3498 C 319.016 0.21142 -3.59278 0
M  V30 3499 C 318.624 -1.10065 -4.34269 0
M  V30 3500 C 320.368 0.721433 -4.18325 0
M  V30 3501 C 318.275 -0.943505 -5.83825 0
M  V30 3502 H 317.205 0.037517 -0.753066 0
M  V30 3503 H 319.856 -0.601943 -1.73346 0
M  V30 3504 H 318.238 0.967352 -3.84003 0
M  V30 3505 H 319.412 -1.86726 -4.21272 0
M  V30 3506 H 317.727 -1.5415 -3.86816 0
M  V30 3507 H 320.324 0.85598 -5.27804 0
M  V30 3508 H 320.667 1.71186 -3.79475 0
M  V30 3509 H 321.2 0.0229843 -3.97793 0
M  V30 3510 H 317.939 -1.90719 -6.27141 0
M  V30 3511 H 317.459 -0.217213 -5.99407 0
M  V30 3512 H 319.138 -0.608715 -6.4413 0
M  V30 3513 N 319.27 1.56325 -0.20005 0
M  V30 3514 C 320.18 2.22931 0.730668 0
M  V30 3515 C 321.196 1.22997 1.23076 0
M  V30 3516 O 322.372 1.55748 1.27689 0
M  V30 3517 C 319.437 2.87948 1.93098 0
M  V30 3518 C 318.498 4.03166 1.47497 0
M  V30 3519 C 317.731 4.65073 2.61807 0
M  V30 3520 O 317.954 4.25913 3.79413 0
M  V30 3521 O 316.888 5.54452 2.34237 0
M  V30 3522 H 320.714 3.03084 0.193391 0
M  V30 3523 H 318.299 1.49371 0.0294621 0
M  V30 3524 H 320.181 3.29063 2.6324 0
M  V30 3525 H 318.856 2.10771 2.45677 0
M  V30 3526 H 317.763 3.66664 0.742201 0
M  V30 3527 H 319.096 4.82022 0.995796 0
M  V30 3528 N 320.748 -0.0735177 1.57428 0
M  V30 3529 C 321.711 -1.07192 2.02589 0
M  V30 3530 C 322.711 -1.31695 0.922661 0
M  V30 3531 O 323.901 -1.27445 1.18758 0
M  V30 3532 C 321.033 -2.41599 2.40506 0
M  V30 3533 H 322.226 -0.682727 2.92025 0
M  V30 3534 H 319.779 -0.319193 1.53006 0
M  V30 3535 H 320.514 -2.85354 1.5409 0
M  V30 3536 H 320.299 -2.25156 3.21009 0
M  V30 3537 H 321.789 -3.13367 2.76027 0
M  V30 3538 N 322.226 -1.5378 -0.344866 0
M  V30 3539 C 323.473 -1.70963 -1.08526 0
M  V30 3540 C 323.801 -0.472126 -1.88683 0
M  V30 3541 O 323.056 0.546116 -1.87926 0
M  V30 3542 C 323.355 -2.92407 -2.05506 0
M  V30 3543 C 323.021 -4.28066 -1.41671 0
M  V30 3544 C 321.683 -4.64951 -1.2399 0
M  V30 3545 C 324.035 -5.12344 -0.956726 0
M  V30 3546 C 321.363 -5.83733 -0.589277 0
M  V30 3547 C 323.715 -6.3179 -0.320015 0
M  V30 3548 C 322.379 -6.67372 -0.130881 0
M  V30 3549 H 321.649 -0.625598 -0.397124 0
M  V30 3550 H 324.296 -1.87995 -0.36469 0
M  V30 3551 H 322.601 -2.69973 -2.8394 0
M  V30 3552 H 324.298 -3.02895 -2.62784 0
M  V30 3553 H 320.888 -3.99034 -1.56429 0
M  V30 3554 H 325.072 -4.8438 -1.08118 0
M  V30 3555 H 320.328 -6.09877 -0.431344 0
M  V30 3556 H 324.502 -6.96386 0.0445072 0
M  V30 3557 H 322.129 -7.59273 0.375318 0
M  V30 3558 N 323.704 0.605807 -1.45491 0
M  V30 3559 C 324.652 1.73754 -1.54636 0
M  V30 3560 C 325.646 1.64207 -0.416219 0
M  V30 3561 O 326.852 1.69979 -0.592199 0
M  V30 3562 H 323.227 0.574073 -0.485741 0
M  V30 3563 H 325.198 1.63169 -2.49837 0
M  V30 3564 C 323.947 3.12135 -1.53189 0
M  V30 3565 H 323.27 3.20141 -2.39478 0
M  V30 3566 H 324.71 3.91147 -1.63645 0
M  V30 3567 C 323.169 3.35921 -0.256616 0
M  V30 3568 O 323.699 3.96194 0.662798 0
M  V30 3569 N 321.905 2.90204 -0.151751 0
M  V30 3570 H 321.452 2.41336 -0.90081 0
M  V30 3571 H 321.41 3.06492 0.700699 0
M  V30 3572 N 325.182 1.32811 0.848464 0
M  V30 3573 C 326.092 1.24278 1.98978 0
M  V30 3574 C 327.108 0.155176 1.73307 0
M  V30 3575 O 328.284 0.376999 1.9784 0
M  V30 3576 C 325.349 0.972444 3.32783 0
M  V30 3577 C 324.41 2.14911 3.71634 0
M  V30 3578 C 323.643 1.89157 4.99054 0
M  V30 3579 O 323.866 0.837165 5.64223 0
M  V30 3580 O 322.8 2.75433 5.35183 0
M  V30 3581 H 326.626 2.20238 2.09115 0
M  V30 3582 H 324.211 1.12762 0.980052 0
M  V30 3583 H 326.093 0.838432 4.12975 0
M  V30 3584 H 324.768 0.043051 3.23671 0
M  V30 3585 H 323.675 2.33862 2.91992 0
M  V30 3586 H 325.008 3.06151 3.85399 0
M  V30 3587 N 326.66 -1.06551 1.16123 0
M  V30 3588 C 327.888 -1.83005 0.965237 0
M  V30 3589 C 328.303 -1.82423 -0.486542 0
M  V30 3590 O 327.66 -1.24152 -1.33763 0
M  V30 3591 C 327.711 -3.29733 1.48183 0
M  V30 3592 O 327.432 -3.30416 2.87674 0
M  V30 3593 C 328.933 -4.22926 1.32848 0
M  V30 3594 H 326.153 -0.577118 0.342309 0
M  V30 3595 H 328.697 -1.3445 1.54089 0
M  V30 3596 H 326.852 -3.75609 0.948517 0
M  V30 3597 H 327.266 -4.22149 3.11272 0
M  V30 3598 H 328.74 -5.23916 1.73827 0
M  V30 3599 H 329.217 -4.38346 0.273692 0
M  V30 3600 H 329.823 -3.82894 1.85127 0
M  V30 3601 N 328.138 -0.959301 -1.25041 0
M  V30 3602 C 329.387 -0.612254 -1.92183 0
M  V30 3603 C 329.7 0.855347 -1.75907 0
M  V30 3604 O 330.906 1.31256 -2.37664 0
M  V30 3605 C 329.362 -1.04435 -3.44414 0
M  V30 3606 C 328.97 -2.53482 -3.69393 0
M  V30 3607 C 330.714 -0.770055 -4.17457 0
M  V30 3608 C 328.621 -2.90468 -5.15153 0
M  V30 3609 H 327.551 -0.225279 -0.719559 0
M  V30 3610 H 330.202 -1.16438 -1.41825 0
M  V30 3611 H 328.584 -0.4206 -3.9376 0
M  V30 3612 H 329.758 -3.20916 -3.30681 0
M  V30 3613 H 328.073 -2.78432 -3.0962 0
M  V30 3614 H 330.67 -1.02249 -5.24832 0
M  V30 3615 H 331.013 0.293611 -4.15263 0
M  V30 3616 H 331.546 -1.35437 -3.74034 0
M  V30 3617 H 328.285 -3.95871 -5.22462 0
M  V30 3618 H 327.805 -2.27711 -5.54894 0
M  V30 3619 H 329.484 -2.79914 -5.83315 0
M  V30 3620 N 329.616 1.39756 -0.72842 0
M  V30 3621 C 330.563 2.30647 -0.0841519 0
M  V30 3622 C 331.533 1.48869 0.7367 0
M  V30 3623 O 332.718 1.77574 0.698015 0
M  V30 3624 C 329.858 3.35165 0.822091 0
M  V30 3625 C 328.971 4.31999 -0.0106663 0
M  V30 3626 C 328.106 5.23585 0.896241 0
M  V30 3627 C 327.145 6.12072 0.0583381 0
M  V30 3628 N 326.282 6.96035 0.920818 0
M  V30 3629 H 331.122 2.85173 -0.864891 0
M  V30 3630 H 328.659 1.40422 -0.438179 0
M  V30 3631 H 330.617 3.94345 1.36189 0
M  V30 3632 H 329.247 2.8211 1.56888 0
M  V30 3633 H 328.299 3.74492 -0.66781 0
M  V30 3634 H 329.611 4.9443 -0.658825 0
M  V30 3635 H 328.765 5.87759 1.50412 0
M  V30 3636 H 327.504 4.61459 1.57819 0
M  V30 3637 H 326.509 5.46916 -0.562389 0
M  V30 3638 H 327.734 6.76261 -0.6203 0
M  V30 3639 H 325.68 6.36485 1.58818 0
M  V30 3640 H 325.597 7.55284 0.32899 0
M  V30 3641 H 326.865 7.64646 1.51447 0
M  V30 3642 N 331.094 0.475555 1.50254 0
M  V30 3643 C 332.343 -0.0795996 2.01543 0
M  V30 3644 C 332.656 -1.4038 1.36209 0
M  V30 3645 O 333.862 -2.04415 1.7868 0
M  V30 3646 C 332.318 -0.192363 3.59386 0
M  V30 3647 C 331.926 1.12367 4.33679 0
M  V30 3648 C 333.67 -0.699238 4.18701 0
M  V30 3649 C 331.577 0.974453 5.83317 0
M  V30 3650 H 330.507 -0.0335228 0.753254 0
M  V30 3651 H 333.158 0.611128 1.73025 0
M  V30 3652 H 331.54 -0.946974 3.84511 0
M  V30 3653 H 332.714 1.88958 4.20276 0
M  V30 3654 H 331.029 1.562 3.85993 0
M  V30 3655 H 333.626 -0.827978 5.28251 0
M  V30 3656 H 333.969 -1.69171 3.80377 0
M  V30 3657 H 334.502 -0.00188807 3.978 0
M  V30 3658 H 331.241 1.94042 6.26121 0
M  V30 3659 H 330.761 0.248998 5.99283 0
M  V30 3660 H 332.44 0.642867 6.43798 0
M  V30 3661 N 332.573 -1.56217 0.208337 0
M  V30 3662 C 333.82 -1.97949 -0.42692 0
M  V30 3663 C 334.148 -1.09562 -1.60706 0
M  V30 3664 O 333.403 -0.137616 -1.95216 0
M  V30 3665 C 333.702 -3.45441 -0.916797 0
M  V30 3666 C 333.368 -4.50646 0.151391 0
M  V30 3667 C 332.03 -4.79139 0.444867 0
M  V30 3668 C 334.382 -5.13811 0.874492 0
M  V30 3669 C 331.71 -5.68084 1.46619 0
M  V30 3670 C 334.062 -6.03861 1.88506 0
M  V30 3671 C 332.726 -6.30704 2.18559 0
M  V30 3672 H 331.996 -0.724345 -0.156221 0
M  V30 3673 H 334.643 -1.89006 0.308084 0
M  V30 3674 H 332.948 -3.51521 -1.73032 0
M  V30 3675 H 334.645 -3.75094 -1.41794 0
M  V30 3676 H 331.235 -4.28511 -0.0875068 0
M  V30 3677 H 335.419 -4.91879 0.660996 0
M  V30 3678 H 330.675 -5.87151 1.7048 0
M  V30 3679 H 334.849 -6.51861 2.45051 0
M  V30 3680 H 332.476 -6.99424 2.97843 0
M  V30 3681 N 334.051 0.0651679 -1.57465 0
M  V30 3682 C 334.961 1.09448 -2.07505 0
M  V30 3683 C 335.977 1.41974 -1.00595 0
M  V30 3684 O 337.153 1.52018 -1.32107 0
M  V30 3685 C 334.218 2.38689 -2.51453 0
M  V30 3686 C 333.279 2.13073 -3.72691 0
M  V30 3687 C 332.512 3.36152 -4.14533 0
M  V30 3688 O 332.735 4.45517 -3.56189 0
M  V30 3689 O 331.669 3.23974 -5.07272 0
M  V30 3690 H 335.495 0.69935 -2.95538 0
M  V30 3691 H 333.08 0.279752 -1.46757 0
M  V30 3692 H 334.962 3.14736 -2.80212 0
M  V30 3693 H 333.637 2.77568 -1.66546 0
M  V30 3694 H 332.544 1.34709 -3.49005 0
M  V30 3695 H 333.877 1.79071 -4.5847 0
M  V30 3696 N 335.529 1.53961 0.336706 0
M  V30 3697 C 336.439 1.85432 1.43708 0
M  V30 3698 C 337.455 0.745053 1.57242 0
M  V30 3699 O 338.631 1.03804 1.72588 0
M  V30 3700 C 335.696 2.06349 2.78605 0
M  V30 3701 C 334.757 3.30191 2.74358 0
M  V30 3702 C 333.99 3.50101 4.02822 0
M  V30 3703 O 334.213 2.7371 5.00439 0
M  V30 3704 O 333.147 4.43547 4.06878 0
M  V30 3705 H 336.973 2.78975 1.20028 0
M  V30 3706 H 334.558 1.39701 0.52952 0
M  V30 3707 H 336.44 2.21513 3.58483 0
M  V30 3708 H 335.115 1.15995 3.02203 0
M  V30 3709 H 334.022 3.20425 1.93078 0
M  V30 3710 H 335.355 4.2056 2.55715 0
M  V30 3711 N 337.007 -0.598083 1.45811 0
M  V30 3712 C 337.939 -1.72231 1.51225 0
M  V30 3713 C 338.952 -1.57757 0.402059 0
M  V30 3714 O 340.141 -1.65464 0.669624 0
M  V30 3715 C 337.241 -3.10331 1.3619 0
M  V30 3716 C 336.414 -3.50955 2.61054 0
M  V30 3717 C 335.473 -4.68055 2.40439 0
M  V30 3718 O 334.499 -4.74691 3.14097 0
M  V30 3719 N 335.701 -5.61941 1.45612 0
M  V30 3720 H 338.466 -1.68046 2.48154 0
M  V30 3721 H 336.027 -0.783637 1.41671 0
M  V30 3722 H 338.019 -3.86439 1.20195 0
M  V30 3723 H 336.589 -3.0897 0.475015 0
M  V30 3724 H 335.809 -2.64711 2.92099 0
M  V30 3725 H 337.097 -3.74858 3.44034 0
M  V30 3726 H 336.495 -5.59301 0.848431 0
M  V30 3727 H 335.052 -6.37542 1.35585 0
M  V30 3728 N 338.485 -1.33259 -0.841409 0
M  V30 3729 C 339.725 -1.25902 -1.61022 0
M  V30 3730 C 340.089 0.173325 -1.91216 0
M  V30 3731 O 341.29 0.370824 -2.6623 0
M  V30 3732 C 339.561 -2.10735 -2.88662 0
M  V30 3733 S 341.12 -2.20541 -3.79351 0
M  V30 3734 H 337.938 -0.447958 -0.552137 0
M  V30 3735 H 340.54 -1.68263 -0.995382 0
M  V30 3736 H 339.244 -3.1384 -2.64448 0
M  V30 3737 H 338.775 -1.69201 -3.55154 0
M  V30 3738 H 340.79 -1.36462 -4.77067 0
M  V30 3739 N 339.963 1.05934 -1.16686 0
M  V30 3740 C 340.913 2.11764 -0.844978 0
M  V30 3741 C 341.897 1.59922 0.177178 0
M  V30 3742 O 343.089 1.76983 -0.0241768 0
M  V30 3743 C 340.218 3.41493 -0.351812 0
M  V30 3744 C 339.304 4.00152 -1.40496 0
M  V30 3745 N 339.695 4.32874 -2.61636 0
M  V30 3746 C 337.993 4.278 -1.26106 0
M  V30 3747 C 338.694 4.79552 -3.29249 0
M  V30 3748 N 337.67 4.79211 -2.56628 0
M  V30 3749 H 341.472 2.34916 -1.76612 0
M  V30 3750 H 338.986 1.23511 -1.05446 0
M  V30 3751 H 340.983 4.16773 -0.102796 0
M  V30 3752 H 339.643 3.19778 0.56322 0
M  V30 3753 H 340.654 4.23109 -2.98663 0
M  V30 3754 H 337.331 4.15511 -0.407081 0
M  V30 3755 H 338.721 5.14045 -4.32675 0
M  V30 3756 N 341.441 0.965919 1.2453 0
M  V30 3757 C 342.669 0.644385 1.96609 0
M  V30 3758 C 343.084 -0.785823 1.71669 0
M  V30 3759 O 342.441 -1.52703 0.999399 0
M  V30 3760 C 342.492 0.907375 3.49927 0
M  V30 3761 O 342.213 2.28136 3.74013 0
M  V30 3762 C 343.714 0.599784 4.39224 0
M  V30 3763 H 340.934 0.240588 0.626385 0
M  V30 3764 H 343.478 1.29337 1.58405 0
M  V30 3765 H 341.633 0.304631 3.862 0
M  V30 3766 H 342.047 2.36002 4.68405 0
M  V30 3767 H 343.521 0.834263 5.45659 0
M  V30 3768 H 343.998 -0.465921 4.36722 0
M  V30 3769 H 344.604 1.18235 4.08535 0
M  V30 3770 N 342.919 -1.39368 0.735821 0
M  V30 3771 C 343.851 -2.2913 0.0567723 0
M  V30 3772 C 344.864 -1.46859 -0.702589 0
M  V30 3773 O 346.053 -1.69925 -0.546616 0
M  V30 3774 C 343.153 -3.25492 -0.943823 0
M  V30 3775 C 342.326 -4.36709 -0.24581 0
M  V30 3776 C 341.385 -5.13376 -1.15463 0
M  V30 3777 O 340.411 -5.65683 -0.631803 0
M  V30 3778 N 341.613 -5.24656 -2.48427 0
M  V30 3779 H 344.378 -2.88047 0.827582 0
M  V30 3780 H 341.939 -1.50957 0.585112 0
M  V30 3781 H 343.931 -3.73657 -1.55443 0
M  V30 3782 H 342.501 -2.676 -1.61583 0
M  V30 3783 H 341.721 -3.9041 0.545286 0
M  V30 3784 H 343.009 -5.08244 0.237891 0
M  V30 3785 H 342.407 -4.83679 -2.93379 0
M  V30 3786 H 340.964 -5.76258 -3.04582 0
M  V30 3787 N 344.397 -0.483516 -1.5 0
M  V30 3788 C 345.307 0.309172 -2.32554 0
M  V30 3789 C 346.323 0.984159 -1.43493 0
M  V30 3790 O 347.499 0.969399 -1.76535 0
M  V30 3791 C 344.564 1.36979 -3.18493 0
M  V30 3792 C 343.625 0.710095 -4.23387 0
M  V30 3793 C 342.858 1.72018 -5.05218 0
M  V30 3794 O 343.081 2.94813 -4.88305 0
M  V30 3795 O 342.015 1.28515 -5.8802 0
M  V30 3796 H 345.841 -0.366064 -3.01486 0
M  V30 3797 H 343.426 -0.24514 -1.47375 0
M  V30 3798 H 345.308 1.98385 -3.71781 0
M  V30 3799 H 343.983 2.02828 -2.52275 0
M  V30 3800 H 342.89 0.0567539 -3.74057 0
M  V30 3801 H 344.223 0.0943557 -4.9211 0
M  V30 3802 N 345.875 1.56104 -0.216619 0
M  V30 3803 C 346.807 2.17339 0.72776 0
M  V30 3804 C 347.82 1.14109 1.16116 0
M  V30 3805 O 349.009 1.4111 1.09317 0
M  V30 3806 C 346.109 2.73818 1.99693 0
M  V30 3807 C 345.282 4.02168 1.71988 0
M  V30 3808 C 344.341 4.43259 2.83562 0
M  V30 3809 O 343.367 5.10257 2.52244 0
M  V30 3810 N 344.569 4.08535 4.12407 0
M  V30 3811 H 347.334 2.99005 0.203983 0
M  V30 3812 H 344.895 1.61861 -0.0354289 0
M  V30 3813 H 346.887 2.9828 2.73516 0
M  V30 3814 H 345.457 1.96483 2.43132 0
M  V30 3815 H 344.677 3.85612 0.818337 0
M  V30 3816 H 345.965 4.85907 1.50903 0
M  V30 3817 H 345.363 3.54687 4.40696 0
M  V30 3818 H 343.92 4.37901 4.8279 0
M  V30 3819 N 347.353 -0.0568162 1.57498 0
M  V30 3820 C 348.303 -1.07315 2.01166 0
M  V30 3821 C 349.287 -1.33632 0.896171 0
M  V30 3822 O 350.479 -1.33682 1.16009 0
M  V30 3823 C 347.608 -2.38257 2.47161 0
M  V30 3824 C 346.694 -2.1515 3.65474 0
M  V30 3825 N 347.085 -1.62014 4.7915 0
M  V30 3826 C 345.383 -2.45559 3.72313 0
M  V30 3827 C 346.084 -1.54069 5.60926 0
M  V30 3828 N 345.06 -2.00652 5.05213 0
M  V30 3829 H 348.862 -0.655878 2.86488 0
M  V30 3830 H 346.376 -0.263635 1.60246 0
M  V30 3831 H 348.373 -3.11845 2.76691 0
M  V30 3832 H 347.033 -2.80687 1.63232 0
M  V30 3833 H 348.044 -1.30667 5.01145 0
M  V30 3834 H 344.721 -2.91253 2.99129 0
M  V30 3835 H 346.111 -1.13712 6.62208 0
M  V30 3836 N 348.832 -1.54138 -0.328536 0
M  V30 3837 C 350.057 -1.76378 -1.09112 0
M  V30 3838 C 350.482 -0.508596 -1.81094 0
M  V30 3839 O 349.84 0.539598 -1.73084 0
M  V30 3840 C 349.888 -2.95358 -2.06872 0
M  V30 3841 O 348.992 -2.66556 -3.14677 0
M  V30 3842 H 348.333 -0.584614 -0.314838 0
M  V30 3843 H 350.863 -2.01146 -0.374348 0
M  V30 3844 H 350.873 -3.22566 -2.4983 0
M  V30 3845 H 349.548 -3.86385 -1.5388 0
M  V30 3846 H 348.125 -2.50282 -2.7643 0
M  V30 3847 N 350.31 0.590341 -1.46126 0
M  V30 3848 C 351.257 1.69994 -1.56111 0
M  V30 3849 C 352.227 1.61065 -0.405867 0
M  V30 3850 O 353.412 1.8039 -0.621613 0
M  V30 3851 C 350.552 3.08326 -1.55013 0
M  V30 3852 C 349.665 3.27936 -2.81215 0
M  V30 3853 C 348.8 4.56473 -2.71673 0
M  V30 3854 C 347.839 4.694 -3.92849 0
M  V30 3855 N 346.976 5.89254 -3.81738 0
M  V30 3856 H 351.816 1.60797 -2.50895 0
M  V30 3857 H 349.353 0.783799 -1.24479 0
M  V30 3858 H 351.311 3.88383 -1.52362 0
M  V30 3859 H 349.941 3.16439 -0.637667 0
M  V30 3860 H 348.993 2.41536 -2.93879 0
M  V30 3861 H 350.305 3.33357 -3.71045 0
M  V30 3862 H 349.459 5.44748 -2.67085 0
M  V30 3863 H 348.198 4.53477 -1.7947 0
M  V30 3864 H 347.203 3.79544 -3.97777 0
M  V30 3865 H 348.428 4.7418 -4.86138 0
M  V30 3866 H 346.374 5.87271 -2.92317 0
M  V30 3867 H 346.291 5.95911 -4.65217 0
M  V30 3868 H 347.559 6.79981 -3.81112 0
M  V30 3869 N 351.788 1.33704 0.83433 0
M  V30 3870 C 352.698 1.26382 1.97648 0
M  V30 3871 C 353.714 0.173548 1.73132 0
M  V30 3872 O 354.89 0.397962 1.97429 0
M  V30 3873 C 351.955 1.00769 3.31733 0
M  V30 3874 C 351.016 2.1884 3.69334 0
M  V30 3875 C 350.249 1.9444 4.9702 0
M  V30 3876 O 350.472 0.896961 5.63303 0
M  V30 3877 O 349.406 2.81093 5.32231 0
M  V30 3878 H 353.232 2.22444 2.06767 0
M  V30 3879 H 350.817 1.13795 0.968037 0
M  V30 3880 H 352.699 0.882186 4.12062 0
M  V30 3881 H 351.374 0.0773783 3.23608 0
M  V30 3882 H 350.281 2.36946 2.89495 0
M  V30 3883 H 351.614 3.10221 3.82131 0
M  V30 3884 N 353.266 -1.05314 1.17247 0
M  V30 3885 C 354.496 -1.81707 0.983166 0
M  V30 3886 C 354.904 -1.83222 -0.471822 0
M  V30 3887 O 354.247 -1.25721 -1.3394 0
M  V30 3888 C 354.309 -3.29134 1.44606 0
M  V30 3889 C 353.973 -3.51304 2.92292 0
M  V30 3890 C 354.97 -3.4353 3.90235 0
M  V30 3891 C 352.655 -3.78306 3.30439 0
M  V30 3892 C 354.649 -3.62442 5.24323 0
M  V30 3893 C 352.336 -3.96866 4.64694 0
M  V30 3894 C 353.334 -3.88933 5.61445 0
M  V30 3895 O 353.022 -4.06976 6.93272 0
M  V30 3896 H 352.754 -0.579476 0.348114 0
M  V30 3897 H 355.308 -1.33705 1.55924 0
M  V30 3898 H 353.538 -3.78046 0.813537 0
M  V30 3899 H 355.227 -3.87049 1.22262 0
M  V30 3900 H 355.993 -3.22648 3.62109 0
M  V30 3901 H 351.872 -3.83585 2.55702 0
M  V30 3902 H 355.416 -3.56165 5.99827 0
M  V30 3903 H 351.313 -4.1724 4.92525 0
M  V30 3904 H 352.081 -4.24209 6.99992 0
M  V30 3905 N 354.744 -0.972509 -1.24016 0
M  V30 3906 C 355.993 -0.632603 -1.91523 0
M  V30 3907 C 356.306 0.836641 -1.76804 0
M  V30 3908 O 357.512 1.28728 -2.39043 0
M  V30 3909 C 355.968 -1.08082 -3.43287 0
M  V30 3910 C 355.576 -2.57386 -3.66683 0
M  V30 3911 C 357.32 -0.814288 -4.16617 0
M  V30 3912 C 355.227 -2.95915 -5.12043 0
M  V30 3913 H 354.157 -0.232898 -0.717129 0
M  V30 3914 H 356.808 -1.17936 -1.40582 0
M  V30 3915 H 355.19 -0.462339 -3.93292 0
M  V30 3916 H 356.364 -3.24405 -3.27258 0
M  V30 3917 H 354.679 -2.81701 -3.06649 0
M  V30 3918 H 357.276 -1.0781 -5.23718 0
M  V30 3919 H 357.619 0.24955 -4.15551 0
M  V30 3920 H 358.152 -1.39397 -3.72577 0
M  V30 3921 H 354.891 -4.0139 -5.18234 0
M  V30 3922 H 354.411 -2.33584 -5.52448 0
M  V30 3923 H 356.09 -2.86086 -5.80314 0
M  V30 3924 N 356.222 1.38976 -0.743202 0
M  V30 3925 C 357.132 2.3434 -0.110399 0
M  V30 3926 C 358.148 1.58741 0.712559 0
M  V30 3927 O 359.324 1.9099 0.639125 0
M  V30 3928 C 356.389 3.37812 0.780012 0
M  V30 3929 C 355.45 4.29263 -0.0561319 0
M  V30 3930 C 354.683 5.27793 0.791875 0
M  V30 3931 O 354.906 5.33043 2.03031 0
M  V30 3932 O 353.84 6.01512 0.216183 0
M  V30 3933 H 357.666 2.90129 -0.897714 0
M  V30 3934 H 355.251 1.40643 -0.503966 0
M  V30 3935 H 357.133 4.01194 1.28923 0
M  V30 3936 H 355.808 2.84395 1.546 0
M  V30 3937 H 354.715 3.69076 -0.611056 0
M  V30 3938 H 356.048 4.85907 -0.784531 0
M  V30 3939 N 357.7 0.491464 1.49741 0
M  V30 3940 C 359.116 0.146835 1.58923 0
M  V30 3941 C 359.316 -1.34804 1.49767 0
M  V30 3942 O 358.372 -2.12317 1.36667 0
M  V30 3943 C 359.685 0.715157 2.92072 0
M  V30 3944 C 361.233 0.680407 3.05515 0
M  V30 3945 C 361.708 1.22663 4.41269 0
M  V30 3946 N 363.199 1.18691 4.47735 0
M  V30 3947 C 363.934 1.57984 5.51207 0
M  V30 3948 N 363.43 2.04824 6.6183 0
M  V30 3949 N 365.223 1.49459 5.41866 0
M  V30 3950 H 357.374 1.46347 1.53936 0
M  V30 3951 H 359.637 0.606453 0.728642 0
M  V30 3952 H 359.343 1.76317 3.04311 0
M  V30 3953 H 359.217 0.17018 3.76816 0
M  V30 3954 H 361.604 -0.358743 2.92911 0
M  V30 3955 H 361.685 1.26242 2.22478 0
M  V30 3956 H 361.329 2.26451 4.54623 0
M  V30 3957 H 361.259 0.620637 5.2293 0
M  V30 3958 H 363.75 0.843605 3.68364 0
M  V30 3959 H 364.063 2.32901 7.3687 0
M  V30 3960 H 362.408 2.08791 6.62896 0
M  V30 3961 H 365.599 1.12692 4.54333 0
M  V30 3962 H 365.772 1.80406 6.22381 0
M  V30 3963 N 359.178 -1.55987 0.224894 0
M  V30 3964 C 360.425 -1.9839 -0.4059 0
M  V30 3965 C 360.753 -1.11261 -1.59535 0
M  V30 3966 O 360.008 -0.158314 -1.95059 0
M  V30 3967 C 360.307 -3.46394 -0.880106 0
M  V30 3968 C 359.973 -4.5046 0.19918 0
M  V30 3969 C 358.635 -4.7864 0.495661 0
M  V30 3970 C 360.987 -5.12855 0.928939 0
M  V30 3971 C 358.315 -5.66497 1.52636 0
M  V30 3972 C 360.667 -6.01828 1.949 0
M  V30 3973 C 359.331 -6.28351 2.25236 0
M  V30 3974 H 358.601 -0.725961 -0.148529 0
M  V30 3975 H 361.248 -1.88668 0.328113 0
M  V30 3976 H 359.553 -3.53337 -1.69294 0
M  V30 3977 H 361.25 -3.76577 -1.37808 0
M  V30 3978 H 357.84 -4.28579 -0.0420526 0
M  V30 3979 H 362.024 -4.9115 0.713129 0
M  V30 3980 H 357.28 -5.8531 1.76698 0
M  V30 3981 H 361.454 -6.49225 2.51951 0
M  V30 3982 H 359.081 -6.96226 3.05244 0
M  V30 3983 N 360.656 0.0484629 -1.57525 0
M  V30 3984 C 362.072 0.40375 -1.54409 0
M  V30 3985 C 362.272 1.77786 -0.948384 0
M  V30 3986 O 361.328 2.46189 -0.560983 0
M  V30 3987 C 362.641 0.323394 -2.98956 0
M  V30 3988 C 364.189 0.401892 -3.10409 0
M  V30 3989 C 364.664 0.351195 -4.56652 0
M  V30 3990 N 366.155 0.410576 -4.61377 0
M  V30 3991 C 366.89 0.393933 -5.72045 0
M  V30 3992 N 366.386 0.330724 -6.9201 0
M  V30 3993 N 368.179 0.442227 -5.60358 0
M  V30 3994 H 360.33 -0.851016 -1.94606 0
M  V30 3995 H 362.593 -0.321721 -0.89174 0
M  V30 3996 H 362.299 -0.62011 -3.4619 0
M  V30 3997 H 362.173 1.12463 -3.60044 0
M  V30 3998 H 364.56 1.33582 -2.63134 0
M  V30 3999 H 364.641 -0.428342 -2.52188 0
M  V30 4000 H 364.285 -0.578987 -5.04589 0
M  V30 4001 H 364.215 1.19928 -5.12762 0
M  V30 4002 H 366.706 0.462729 -3.75056 0
M  V30 4003 H 367.019 0.322592 -7.72126 0
M  V30 4004 H 365.364 0.29706 -6.94365 0
M  V30 4005 H 368.555 0.489464 -4.65534 0
M  V30 4006 H 368.728 0.425788 -6.466 0
M  V30 4007 N 362.134 1.5431 0.320358 0
M  V30 4008 C 363.55 1.45091 0.664889 0
M  V30 4009 C 363.75 0.626382 1.91517 0
M  V30 4010 O 362.806 0.126443 2.52183 0
M  V30 4011 C 364.119 2.88848 0.83591 0
M  V30 4012 C 365.667 2.9877 0.933046 0
M  V30 4013 C 366.142 4.43683 1.13621 0
M  V30 4014 N 367.633 4.47309 1.20287 0
M  V30 4015 C 368.368 5.56595 1.37801 0
M  V30 4016 N 367.864 6.75844 1.52338 0
M  V30 4017 N 369.657 5.44248 1.40535 0
M  V30 4018 H 361.808 2.06398 -0.501374 0
M  V30 4019 H 364.071 0.933963 -0.162534 0
M  V30 4020 H 363.777 3.51698 -0.0116092 0
M  V30 4021 H 363.651 3.35148 1.73078 0
M  V30 4022 H 366.038 2.36045 1.77107 0
M  V30 4023 H 366.119 2.55796 0.0145782 0
M  V30 4024 H 365.763 5.06995 0.303032 0
M  V30 4025 H 365.693 4.84269 2.0686 0
M  V30 4026 H 368.184 3.61388 1.10485 0
M  V30 4027 H 368.497 7.54892 1.65403 0
M  V30 4028 H 366.842 6.78746 1.4943 0
M  V30 4029 H 370.033 4.50038 1.28777 0
M  V30 4030 H 370.206 6.29473 1.53842 0
M  V30 4031 N 363.613 -0.582584 1.46437 0
M  V30 4032 C 364.523 -1.71949 1.59595 0
M  V30 4033 C 365.539 -1.67264 0.479443 0
M  V30 4034 O 366.715 -1.87171 0.743579 0
M  V30 4035 C 363.78 -3.08452 1.58298 0
M  V30 4036 C 362.841 -3.244 2.81182 0
M  V30 4037 C 362.074 -4.54391 2.79937 0
M  V30 4038 O 362.297 -5.38287 1.8869 0
M  V30 4039 O 361.231 -4.73588 3.71481 0
M  V30 4040 H 365.057 -1.63795 2.55744 0
M  V30 4041 H 362.642 -0.749643 1.29231 0
M  V30 4042 H 364.524 -3.89732 1.60271 0
M  V30 4043 H 363.199 -3.17043 0.653094 0
M  V30 4044 H 362.106 -2.42613 2.84763 0
M  V30 4045 H 363.439 -3.20699 3.7338 0
M  V30 4046 N 365.091 -1.34144 -0.827227 0
M  V30 4047 C 366.339 -1.26009 -1.58007 0
M  V30 4048 C 366.66 0.170971 -1.94249 0
M  V30 4049 O 365.93 1.10256 -1.61927 0
M  V30 4050 H 364.51 -0.463414 -0.585881 0
M  V30 4051 H 367.172 -1.68005 -0.987951 0
M  V30 4052 H 366.268 -1.86187 -2.50481 0
M  V30 4053 N 366.569 1.04691 -1.17803 0
M  V30 4054 C 367.517 2.14665 -0.895635 0
M  V30 4055 C 368.511 1.68806 0.141679 0
M  V30 4056 O 369.717 1.79999 -0.00587914 0
M  V30 4057 H 366.092 0.701038 -0.272121 0
M  V30 4058 H 368.063 2.35685 -1.83017 0
M  V30 4059 C 366.812 3.45019 -0.430962 0
M  V30 4060 H 366.135 3.8071 -1.22064 0
M  V30 4061 H 367.575 4.23125 -0.272301 0
M  V30 4062 C 366.034 3.25943 0.852207 0
M  V30 4063 O 366.564 3.5296 1.91786 0
M  V30 4064 N 364.77 2.79304 0.802346 0
M  V30 4065 H 364.317 2.57518 -0.0650788 0
M  V30 4066 H 364.275 2.66921 1.66134 0
M  V30 4067 N 368.047 0.979072 1.23499 0
M  V30 4068 C 368.957 0.526431 2.28617 0
M  V30 4069 C 369.973 -0.418126 1.68901 0
M  V30 4070 O 371.149 -0.288372 1.99325 0
M  V30 4071 C 368.214 -0.165235 3.46306 0
M  V30 4072 C 367.275 0.82056 4.21385 0
M  V30 4073 C 366.508 0.161807 5.33455 0
M  V30 4074 O 366.731 -1.04742 5.60701 0
M  V30 4075 O 365.665 0.859708 5.95729 0
M  V30 4076 H 369.491 1.4006 2.69475 0
M  V30 4077 H 367.076 0.746643 1.29405 0
M  V30 4078 H 368.958 -0.553287 4.17752 0
M  V30 4079 H 367.633 -1.01419 3.07402 0
M  V30 4080 H 366.54 1.25929 3.52268 0
M  V30 4081 H 367.873 1.63828 4.64135 0
M  V30 4082 N 369.525 -1.3858 0.750561 0
M  V30 4083 C 370.472 -2.30483 0.120835 0
M  V30 4084 C 371.442 -1.50022 -0.712923 0
M  V30 4085 O 372.627 -1.78662 -0.669676 0
M  V30 4086 C 369.767 -3.36431 -0.768666 0
M  V30 4087 C 368.88 -4.31927 0.0793922 0
M  V30 4088 C 368.015 -5.24944 -0.81283 0
M  V30 4089 C 367.054 -6.12088 0.0390447 0
M  V30 4090 N 366.191 -6.97412 -0.809969 0
M  V30 4091 H 371.031 -2.83761 0.91015 0
M  V30 4092 H 368.568 -1.39707 0.460463 0
M  V30 4093 H 370.526 -3.96462 -1.29898 0
M  V30 4094 H 369.156 -2.8457 -1.5238 0
M  V30 4095 H 368.208 -3.73382 0.727303 0
M  V30 4096 H 369.52 -4.93319 0.737401 0
M  V30 4097 H 368.674 -5.90078 -1.41042 0
M  V30 4098 H 367.413 -4.63911 -1.50458 0
M  V30 4099 H 366.418 -5.45952 0.649328 0
M  V30 4100 H 367.643 -6.75189 0.727809 0
M  V30 4101 H 365.589 -6.38931 -1.48672 0
M  V30 4102 H 365.506 -7.55712 -0.208789 0
M  V30 4103 H 366.774 -7.66959 -1.39263 0
M  V30 4104 N 371.003 -0.499398 -1.49478 0
M  V30 4105 C 371.913 0.284489 -2.32869 0
M  V30 4106 C 372.929 0.968885 -1.44529 0
M  V30 4107 O 374.105 0.95062 -1.77553 0
M  V30 4108 C 371.17 1.33594 -3.19928 0
M  V30 4109 C 370.231 0.665149 -4.24116 0
M  V30 4110 C 369.464 1.6665 -5.07014 0
M  V30 4111 O 369.687 2.89618 -4.91404 0
M  V30 4112 O 368.621 1.22271 -5.8935 0
M  V30 4113 H 372.447 -0.39802 -3.01081 0
M  V30 4114 H 370.032 -0.260758 -1.47107 0
M  V30 4115 H 371.914 1.94431 -3.73864 0
M  V30 4116 H 370.589 2.0014 -2.54412 0
M  V30 4117 H 369.496 0.0170769 -3.74096 0
M  V30 4118 H 370.829 0.0421555 -4.92182 0
M  V30 4119 N 372.481 1.55866 -0.233164 0
M  V30 4120 C 373.73 1.97779 0.39579 0
M  V30 4121 C 374.043 1.12419 1.60066 0
M  V30 4122 O 375.249 1.44283 2.29988 0
M  V30 4123 C 373.705 3.5188 0.755556 0
M  V30 4124 C 373.313 4.45959 -0.427152 0
M  V30 4125 C 375.057 4.02479 1.34946 0
M  V30 4126 C 372.964 5.91383 -0.0443043 0
M  V30 4127 H 371.894 0.738592 0.15165 0
M  V30 4128 H 374.545 1.80486 -0.331212 0
M  V30 4129 H 372.927 3.64816 1.5403 0
M  V30 4130 H 374.101 4.44776 -1.20462 0
M  V30 4131 H 372.416 4.05765 -0.935068 0
M  V30 4132 H 375.013 5.08637 1.649 0
M  V30 4133 H 375.356 3.49014 2.26925 0
M  V30 4134 H 375.889 3.92813 0.62791 0
M  V30 4135 H 372.628 6.48857 -0.930874 0
M  V30 4136 H 372.148 5.95734 0.697238 0
M  V30 4137 H 373.827 6.45893 0.378334 0
M  V30 4138 N 373.959 -0.0401083 1.57549 0
M  V30 4139 C 374.869 -1.06133 2.0922 0
M  V30 4140 C 375.885 -1.40356 1.0284 0
M  V30 4141 O 377.061 -1.49897 1.34509 0
M  V30 4142 C 374.126 -2.34658 2.55218 0
M  V30 4143 C 373.187 -2.07117 3.76033 0
M  V30 4144 C 372.42 -3.29514 4.19829 0
M  V30 4145 O 372.643 -4.39794 3.63232 0
M  V30 4146 O 371.577 -3.15863 5.12362 0
M  V30 4147 H 375.403 -0.652244 2.96613 0
M  V30 4148 H 372.988 -0.256368 1.47184 0
M  V30 4149 H 374.87 -3.10239 2.85184 0
M  V30 4150 H 373.545 -2.74883 1.70941 0
M  V30 4151 H 372.452 -1.29139 3.51104 0
M  V30 4152 H 373.785 -1.71754 4.61261 0
M  V30 4153 N 375.437 -1.54477 -0.31217 0
M  V30 4154 C 376.853 -1.45442 -0.657185 0
M  V30 4155 C 377.053 -0.63653 -1.91182 0
M  V30 4156 O 376.109 -0.139815 -2.52113 0
M  V30 4157 C 377.422 -2.89287 -0.82058 0
M  V30 4158 C 378.97 -2.9926 -0.917188 0
M  V30 4159 C 379.445 -4.44279 -1.11267 0
M  V30 4160 N 380.936 -4.4794 -1.17914 0
M  V30 4161 C 381.671 -5.57318 -1.34848 0
M  V30 4162 N 381.167 -6.76642 -1.48752 0
M  V30 4163 N 382.96 -5.44986 -1.37647 0
M  V30 4164 H 375.111 -2.06129 0.512313 0
M  V30 4165 H 377.374 -0.933088 0.167485 0
M  V30 4166 H 377.08 -3.51687 0.0302604 0
M  V30 4167 H 376.954 -3.36061 -1.71298 0
M  V30 4168 H 379.341 -2.36981 -1.75852 0
M  V30 4169 H 379.422 -2.558 -0.00101257 0
M  V30 4170 H 379.066 -5.07149 -0.27614 0
M  V30 4171 H 378.996 -4.85359 -2.04289 0
M  V30 4172 H 381.487 -3.61969 -1.08567 0
M  V30 4173 H 381.8 -7.55758 -1.61397 0
M  V30 4174 H 380.145 -6.79529 -1.45828 0
M  V30 4175 H 383.336 -4.50715 -1.26388 0
M  V30 4176 H 383.509 -6.3028 -1.50501 0
M  V30 4177 N 376.915 0.57481 -1.46744 0
M  V30 4178 C 378.164 1.32898 -1.51727 0
M  V30 4179 C 378.477 1.948 -0.176692 0
M  V30 4180 O 379.683 2.71299 -0.104385 0
M  V30 4181 C 378.139 2.40901 -2.67385 0
M  V30 4182 C 377.747 1.85266 -4.07898 0
M  V30 4183 C 379.491 3.17609 -2.81646 0
M  V30 4184 C 377.398 2.90945 -5.14883 0
M  V30 4185 H 376.328 0.499631 -0.564699 0
M  V30 4186 H 378.979 0.612536 -1.72975 0
M  V30 4187 H 377.361 3.15379 -2.39483 0
M  V30 4188 H 378.535 1.17278 -4.45626 0
M  V30 4189 H 376.85 1.21199 -3.98371 0
M  V30 4190 H 379.447 3.96493 -3.58744 0
M  V30 4191 H 379.79 3.70696 -1.89448 0
M  V30 4192 H 380.323 2.50239 -3.09233 0
M  V30 4193 H 377.062 2.42736 -6.089 0
M  V30 4194 H 376.582 3.57398 -4.81691 0
M  V30 4195 H 378.261 3.54755 -5.41071 0
M  V30 4196 N 378.394 1.34581 0.820102 0
M  V30 4197 C 379.327 1.20735 1.93644 0
M  V30 4198 C 380.305 0.0983343 1.62302 0
M  V30 4199 O 381.489 0.263997 1.86642 0
M  V30 4200 C 378.616 0.856037 3.27704 0
M  V30 4201 C 377.662 1.97521 3.78005 0
M  V30 4202 S 378.495 3.58906 3.97425 0
M  V30 4203 C 379.651 3.25822 5.34407 0
M  V30 4204 H 379.884 2.15231 2.05093 0
M  V30 4205 H 377.417 1.1964 0.97599 0
M  V30 4206 H 379.375 0.660133 4.05157 0
M  V30 4207 H 378.036 -0.0706253 3.14021 0
M  V30 4208 H 377.229 1.68321 4.75062 0
M  V30 4209 H 376.831 2.12875 3.07507 0
M  V30 4210 H 379.123 2.77812 6.17922 0
M  V30 4211 H 380.066 4.22029 5.68592 0
M  V30 4212 H 380.474 2.61932 5.00052 0
M  V30 4213 N 379.872 -1.04064 1.18357 0
M  V30 4214 C 380.805 -2.11618 0.854 0
M  V30 4215 C 381.783 -1.61555 -0.184043 0
M  V30 4216 O 382.967 -1.88395 -0.0630048 0
M  V30 4217 C 380.094 -3.37574 0.27597 0
M  V30 4218 C 379.14 -4.06485 1.2912 0
M  V30 4219 S 379.973 -4.53543 2.84709 0
M  V30 4220 C 381.129 -5.82732 2.28417 0
M  V30 4221 H 381.362 -2.39247 1.76488 0
M  V30 4222 H 378.895 -1.16832 1.00944 0
M  V30 4223 H 380.853 -4.10468 -0.051026 0
M  V30 4224 H 379.514 -3.0806 -0.613028 0
M  V30 4225 H 378.707 -4.97024 0.835633 0
M  V30 4226 H 378.309 -3.39708 1.56443 0
M  V30 4227 H 380.601 -6.56677 1.66677 0
M  V30 4228 H 381.544 -6.33052 3.17256 0
M  V30 4229 H 381.952 -5.37838 1.71436 0
M  V30 4230 N 381.35 -0.985608 -1.22978 0
M  V30 4231 C 382.298 -0.522631 -2.26652 0
M  V30 4232 C 383.292 0.422998 -1.64034 0
M  V30 4233 O 384.498 0.296319 -1.77544 0
M  V30 4234 H 380.873 -0.150597 -0.736766 0
M  V30 4235 H 382.844 -1.40863 -2.63059 0
M  V30 4236 C 381.593 0.154238 -3.47358 0
M  V30 4237 H 380.916 -0.564329 -3.95797 0
M  V30 4238 H 382.356 0.441744 -4.21693 0
M  V30 4239 C 380.815 1.38719 -3.07016 0
M  V30 4240 O 381.345 2.48307 -3.15764 0
M  V30 4241 N 379.551 1.25975 -2.61875 0
M  V30 4242 H 379.098 0.368068 -2.54957 0
M  V30 4243 H 379.056 2.08578 -2.3525 0
M  V30 4244 N 382.828 1.3818 -0.7579 0
M  V30 4245 C 384.058 2.04004 -0.326463 0
M  V30 4246 C 384.466 1.57286 1.05156 0
M  V30 4247 O 383.809 0.743144 1.67997 0
M  V30 4248 C 383.871 3.58444 -0.275402 0
M  V30 4249 C 383.535 4.28237 -1.59569 0
M  V30 4250 C 384.532 4.53312 -2.54566 0
M  V30 4251 C 382.217 4.66341 -1.86631 0
M  V30 4252 C 384.211 5.15531 -3.74842 0
M  V30 4253 C 381.898 5.28283 -3.0718 0
M  V30 4254 C 382.896 5.52814 -4.01106 0
M  V30 4255 O 382.584 6.13465 -5.19534 0
M  V30 4256 H 382.316 0.662026 -0.136739 0
M  V30 4257 H 384.87 1.7777 -1.02893 0
M  V30 4258 H 383.1 3.83667 0.483337 0
M  V30 4259 H 384.789 4.05701 0.127099 0
M  V30 4260 H 385.555 4.24299 -2.34936 0
M  V30 4261 H 381.434 4.46591 -1.14358 0
M  V30 4262 H 384.978 5.34594 -4.48168 0
M  V30 4263 H 380.875 5.56719 -3.26702 0
M  V30 4264 H 381.643 6.31951 -5.20173 0
M  V30 4265 N 384.306 0.507319 1.49211 0
M  V30 4266 C 385.583 -0.0982702 1.95353 0
M  V30 4267 C 385.963 -1.53516 1.449 0
M  V30 4268 O 385.311 -2.18594 0.66551 0
M  V30 4269 C 385.521 -0.00440283 3.49 0
M  V30 4270 C 386.869 -0.175147 4.24239 0
M  V30 4271 O 387.893 -0.0792891 3.56112 0
M  V30 4272 O 386.752 -0.37276 5.45227 0
M  V30 4273 H 383.846 -0.0918236 0.821887 0
M  V30 4274 H 386.392 0.570307 1.5983 0
M  V30 4275 H 385.164 0.997402 3.78375 0
M  V30 4276 H 384.787 -0.712845 3.91158 0
M  V30 4277 N 385.784 -1.5574 0.241426 0
M  V30 4278 C 386.731 -2.21149 -0.660432 0
M  V30 4279 C 387.701 -1.17356 -1.17545 0
M  V30 4280 O 388.886 -1.45784 -1.23093 0
M  V30 4281 C 386.026 -2.91059 -1.85414 0
M  V30 4282 C 385.139 -4.09495 -1.37616 0
M  V30 4283 C 384.274 -4.67135 -2.529 0
M  V30 4284 C 383.313 -5.77831 -2.01936 0
M  V30 4285 N 382.45 -6.29677 -3.10566 0
M  V30 4286 H 387.29 -2.97845 -0.095955 0
M  V30 4287 H 384.827 -1.47057 -0.0356024 0
M  V30 4288 H 386.785 -3.29788 -2.5553 0
M  V30 4289 H 385.415 -2.16846 -2.39118 0
M  V30 4290 H 384.467 -3.76117 -0.569235 0
M  V30 4291 H 385.779 -4.89423 -0.962618 0
M  V30 4292 H 384.933 -5.08409 -3.31067 0
M  V30 4293 H 383.672 -3.86411 -2.97553 0
M  V30 4294 H 382.677 -5.36039 -1.22238 0
M  V30 4295 H 383.902 -6.60402 -1.58259 0
M  V30 4296 H 381.848 -5.5186 -3.54664 0
M  V30 4297 H 381.765 -7.04783 -2.73526 0
M  V30 4298 H 383.033 -6.75609 -3.88809 0
M  V30 4299 N 387.262 0.0317525 -1.57568 0
M  V30 4300 C 388.192 1.03274 -2.0942 0
M  V30 4301 C 389.173 1.3788 -0.996143 0
M  V30 4302 O 390.358 1.46811 -1.27122 0
M  V30 4303 C 387.488 2.33448 -2.57137 0
M  V30 4304 C 386.442 2.13091 -3.71182 0
M  V30 4305 C 385.768 3.49001 -4.05095 0
M  V30 4306 C 387.068 1.51928 -4.99715 0
M  V30 4307 H 388.762 0.60112 -2.93303 0
M  V30 4308 H 386.308 0.287705 -1.41097 0
M  V30 4309 H 388.261 3.03802 -2.92032 0
M  V30 4310 H 386.985 2.78665 -1.70333 0
M  V30 4311 H 385.644 1.45171 -3.36632 0
M  V30 4312 H 385.292 3.91862 -3.15362 0
M  V30 4313 H 384.992 3.36207 -4.81911 0
M  V30 4314 H 386.516 4.20721 -4.42522 0
M  V30 4315 H 387.93 2.12196 -5.32584 0
M  V30 4316 H 386.327 1.49716 -5.81124 0
M  V30 4317 H 387.397 0.484811 -4.8247 0
M  V30 4318 N 388.74 1.54641 0.303973 0
M  V30 4319 C 389.687 1.85386 1.37479 0
M  V30 4320 C 390.657 0.702528 1.50512 0
M  V30 4321 O 391.842 0.950867 1.65418 0
M  V30 4322 C 388.982 2.10413 2.73533 0
M  V30 4323 C 388.095 3.38049 2.68974 0
M  V30 4324 C 387.23 3.52934 3.97002 0
M  V30 4325 C 386.269 4.74373 3.86829 0
M  V30 4326 N 385.406 4.8608 5.06627 0
M  V30 4327 H 390.246 2.76732 1.1056 0
M  V30 4328 H 387.783 1.37034 0.534805 0
M  V30 4329 H 389.741 2.22919 3.52652 0
M  V30 4330 H 388.371 1.22338 2.98719 0
M  V30 4331 H 387.423 3.3418 1.81736 0
M  V30 4332 H 388.735 4.27288 2.57346 0
M  V30 4333 H 387.889 3.65088 4.84557 0
M  V30 4334 H 386.628 2.61824 4.1146 0
M  V30 4335 H 385.633 4.62255 2.97658 0
M  V30 4336 H 386.858 5.66888 3.73918 0
M  V30 4337 H 384.804 3.97891 5.21554 0
M  V30 4338 H 384.721 5.69315 4.9741 0
M  V30 4339 H 385.989 5.02587 5.95841 0
M  V30 4340 N 390.218 -0.567019 1.47046 0
M  V30 4341 C 391.443 -1.3551 1.57009 0
M  V30 4342 C 391.868 -1.86841 0.217259 0
M  V30 4343 O 391.226 -1.62435 -0.805268 0
M  V30 4344 C 391.274 -2.50777 2.5912 0
M  V30 4345 O 390.378 -3.52706 2.13711 0
M  V30 4346 H 389.719 -0.402919 0.52778 0
M  V30 4347 H 392.249 -0.686241 1.92748 0
M  V30 4348 H 392.259 -2.97481 2.79229 0
M  V30 4349 H 390.934 -2.12771 3.57353 0
M  V30 4350 H 389.511 -3.12374 2.03659 0
M  V30 4351 N 391.696 -1.35014 -0.812953 0
M  V30 4352 C 393.112 -1.14914 -1.10757 0
M  V30 4353 C 393.312 0.0426818 -2.01455 0
M  V30 4354 O 392.368 0.715212 -2.42159 0
M  V30 4355 C 393.681 -2.44911 -1.74468 0
M  V30 4356 C 395.229 -2.5106 -1.86917 0
M  V30 4357 C 395.704 -3.81085 -2.54044 0
M  V30 4358 N 397.195 -3.82301 -2.61535 0
M  V30 4359 C 397.93 -4.79634 -3.14227 0
M  V30 4360 N 397.426 -5.87353 -3.67407 0
M  V30 4361 N 399.219 -4.67078 -3.12721 0
M  V30 4362 H 391.37 -2.1136 -0.20989 0
M  V30 4363 H 393.633 -0.935128 -0.155692 0
M  V30 4364 H 393.339 -3.32267 -1.15289 0
M  V30 4365 H 393.213 -2.58989 -2.74234 0
M  V30 4366 H 395.6 -1.64137 -2.45241 0
M  V30 4367 H 395.681 -2.40901 -0.860242 0
M  V30 4368 H 395.325 -4.68402 -1.96372 0
M  V30 4369 H 395.255 -3.88529 -3.55461 0
M  V30 4370 H 397.746 -3.04465 -2.23851 0
M  V30 4371 H 398.059 -6.57624 -4.05894 0
M  V30 4372 H 396.404 -5.91054 -3.65623 0
M  V30 4373 H 399.595 -3.82067 -2.70449 0
M  V30 4374 H 399.768 -5.43098 -3.53481 0
M  V30 4375 N 393.175 1.03435 -1.18907 0
M  V30 4376 C 394.105 2.13503 -0.945448 0
M  V30 4377 C 395.086 1.69682 0.119189 0
M  V30 4378 O 396.271 1.94169 -0.034707 0
M  V30 4379 C 393.401 3.44004 -0.477316 0
M  V30 4380 C 392.355 4.0148 -1.48316 0
M  V30 4381 C 391.681 5.27537 -0.872311 0
M  V30 4382 C 392.981 4.36921 -2.86177 0
M  V30 4383 H 394.675 2.34141 -1.86597 0
M  V30 4384 H 392.221 1.12523 -0.898584 0
M  V30 4385 H 394.174 4.20372 -0.294204 0
M  V30 4386 H 392.898 3.23072 0.478786 0
M  V30 4387 H 391.557 3.27201 -1.65332 0
M  V30 4388 H 391.205 5.02917 0.0911752 0
M  V30 4389 H 390.905 5.66954 -1.54393 0
M  V30 4390 H 392.429 6.06576 -0.699871 0
M  V30 4391 H 393.843 5.04248 -2.72776 0
M  V30 4392 H 392.24 4.87405 -3.50081 0
M  V30 4393 H 393.31 3.46466 -3.39248 0
M  V30 4394 N 394.653 0.992116 1.22453 0
M  V30 4395 C 395.901 0.666215 1.90804 0
M  V30 4396 C 396.222 -0.804152 1.77647 0
M  V30 4397 O 395.492 -1.57629 1.16318 0
M  V30 4398 H 394.072 0.243423 0.706225 0
M  V30 4399 H 396.734 1.25845 1.48825 0
M  V30 4400 H 395.83 0.928069 2.97982 0
M  V30 4401 N 396.131 -1.37776 0.765217 0
M  V30 4402 C 397.041 -2.34135 0.147666 0
M  V30 4403 C 398.057 -1.59854 -0.687215 0
M  V30 4404 O 399.233 -1.91983 -0.608659 0
M  V30 4405 C 396.298 -3.3901 -0.72617 0
M  V30 4406 C 395.359 -4.2912 0.124417 0
M  V30 4407 C 394.592 -5.28986 -0.707807 0
M  V30 4408 O 394.815 -5.36205 -1.94525 0
M  V30 4409 O 393.749 -6.01779 -0.12046 0
M  V30 4410 H 397.575 -2.88664 0.943758 0
M  V30 4411 H 395.16 -1.39824 0.526277 0
M  V30 4412 H 397.042 -4.03195 -1.22524 0
M  V30 4413 H 395.717 -2.86819 -1.50056 0
M  V30 4414 H 394.624 -3.68057 0.669696 0
M  V30 4415 H 395.957 -4.84598 0.861736 0
M  V30 4416 N 397.609 -0.515225 -1.4894 0
M  V30 4417 C 398.858 0.0261361 -2.01683 0
M  V30 4418 C 399.171 1.36719 -1.39883 0
M  V30 4419 O 400.377 1.99606 -1.84037 0
M  V30 4420 C 398.833 0.0970111 -3.59769 0
M  V30 4421 C 398.441 -1.23825 -4.30548 0
M  V30 4422 C 400.185 0.587981 -4.20408 0
M  V30 4423 C 398.092 -1.12877 -5.80528 0
M  V30 4424 H 397.022 0.0135398 -0.753878 0
M  V30 4425 H 399.673 -0.656787 -1.71343 0
M  V30 4426 H 398.055 0.844694 -3.86886 0
M  V30 4427 H 399.229 -2.00034 -4.15118 0
M  V30 4428 H 397.544 -1.66379 -3.81716 0
M  V30 4429 H 400.141 0.68763 -5.3026 0
M  V30 4430 H 400.484 1.59026 -3.84729 0
M  V30 4431 H 401.017 -0.103582 -3.97665 0
M  V30 4432 H 397.756 -2.10575 -6.20756 0
M  V30 4433 H 397.276 -0.407799 -5.98412 0
M  V30 4434 H 398.955 -0.813332 -6.41868 0
M  V30 4435 N 399.087 1.5561 -0.249682 0
M  V30 4436 C 400.037 2.18157 0.662673 0
M  V30 4437 C 401.021 1.1383 1.13717 0
M  V30 4438 O 402.213 1.39731 1.08648 0
M  V30 4439 C 399.342 2.88672 1.85805 0
M  V30 4440 C 398.428 4.00258 1.40193 0
M  V30 4441 N 398.819 5.01473 0.660213 0
M  V30 4442 C 397.117 4.12864 1.68698 0
M  V30 4443 C 397.818 5.80155 0.423695 0
M  V30 4444 N 396.794 5.34533 0.988721 0
M  V30 4445 H 400.596 2.93769 0.0878688 0
M  V30 4446 H 398.11 1.62316 -0.0521183 0
M  V30 4447 H 400.107 3.31912 2.5227 0
M  V30 4448 H 398.767 2.14564 2.43705 0
M  V30 4449 H 399.778 5.16971 0.310047 0
M  V30 4450 H 396.455 3.4993 2.27717 0
M  V30 4451 H 397.845 6.71688 -0.168616 0
M  V30 4452 N 400.565 -0.0233959 1.57583 0
M  V30 4453 C 401.842 -0.748794 1.807 0
M  V30 4454 C 402.222 -1.9327 0.849106 0
M  V30 4455 O 401.57 -2.28247 -0.107468 0
M  V30 4456 C 401.78 -1.17651 3.28571 0
M  V30 4457 C 403.128 -1.59008 3.93702 0
M  V30 4458 O 404.152 -1.27094 3.32755 0
M  V30 4459 O 403.011 -2.18264 5.01022 0
M  V30 4460 H 400.105 -0.362578 0.743281 0
M  V30 4461 H 402.651 0.000261958 1.697 0
M  V30 4462 H 401.423 -0.331603 3.89892 0
M  V30 4463 H 401.046 -1.98541 3.44481 0
M  V30 4464 N 402.043 -1.548 -0.295768 0
M  V30 4465 C 403.268 -1.78653 -1.05346 0
M  V30 4466 C 403.693 -0.546894 -1.79974 0
M  V30 4467 O 403.051 0.502763 -1.7419 0
M  V30 4468 C 403.099 -2.99679 -2.00561 0
M  V30 4469 O 402.203 -2.7317 -3.08953 0
M  V30 4470 H 401.544 -0.59116 -0.302367 0
M  V30 4471 H 404.074 -2.01895 -0.331598 0
M  V30 4472 H 404.084 -3.27793 -2.42932 0
M  V30 4473 H 402.759 -3.89562 -1.4565 0
M  V30 4474 H 401.336 -2.56089 -2.71059 0
M  V30 4475 N 403.521 0.559213 -1.47345 0
M  V30 4476 C 404.468 1.66645 -1.59682 0
M  V30 4477 C 405.438 1.60168 -0.43994 0
M  V30 4478 O 406.623 1.79031 -0.659736 0
M  V30 4479 C 403.763 3.04969 -1.61518 0
M  V30 4480 C 402.876 3.21897 -2.88108 0
M  V30 4481 C 402.011 4.50608 -2.81294 0
M  V30 4482 C 401.05 4.60961 -4.02717 0
M  V30 4483 N 400.187 5.81024 -3.94151 0
M  V30 4484 H 405.027 1.55439 -2.54249 0
M  V30 4485 H 402.564 0.757219 -1.26113 0
M  V30 4486 H 404.522 3.85064 -1.60566 0
M  V30 4487 H 403.152 3.15015 -0.704645 0
M  V30 4488 H 402.204 2.35248 -2.98936 0
M  V30 4489 H 403.516 3.25412 -3.78032 0
M  V30 4490 H 402.67 5.3896 -2.7858 0
M  V30 4491 H 401.409 4.49568 -1.89049 0
M  V30 4492 H 400.414 3.71021 -4.05738 0
M  V30 4493 H 401.639 4.63761 -4.96087 0
M  V30 4494 H 399.585 5.80938 -3.04708 0
M  V30 4495 H 399.502 5.85909 -4.77752 0
M  V30 4496 H 400.77 6.71744 -3.9545 0
M  V30 4497 N 404.999 1.35443 0.805782 0
M  V30 4498 C 405.932 1.22783 1.92353 0
M  V30 4499 C 406.91 0.115543 1.62189 0
M  V30 4500 O 408.094 0.283778 1.86352 0
M  V30 4501 C 405.221 0.890746 3.26777 0
M  V30 4502 C 404.267 2.01519 3.75889 0
M  V30 4503 S 405.1 3.63101 3.93596 0
M  V30 4504 C 406.256 3.31472 5.30921 0
M  V30 4505 H 406.489 2.17394 2.02798 0
M  V30 4506 H 404.022 1.20669 0.963245 0
M  V30 4507 H 405.98 0.703068 4.04434 0
M  V30 4508 H 404.641 -0.0373152 3.14078 0
M  V30 4509 H 403.834 1.7335 4.7325 0
M  V30 4510 H 403.436 2.16124 3.05231 0
M  V30 4511 H 405.728 2.8435 6.1494 0
M  V30 4512 H 406.671 4.28036 5.64084 0
M  V30 4513 H 407.079 2.67221 4.97246 0
M  V30 4514 N 406.477 -1.02803 1.19454 0
M  V30 4515 C 407.893 -1.28473 0.946937 0
M  V30 4516 C 408.093 -1.97881 -0.380202 0
M  V30 4517 O 407.149 -2.26719 -1.11151 0
M  V30 4518 C 408.462 -2.13099 2.12154 0
M  V30 4519 C 410.01 -2.26404 2.16126 0
M  V30 4520 C 410.485 -3.14402 3.33039 0
M  V30 4521 N 411.976 -3.21991 3.32981 0
M  V30 4522 C 412.711 -3.90272 4.20089 0
M  V30 4523 N 412.207 -4.60777 5.17355 0
M  V30 4524 N 414 -3.8668 4.07964 0
M  V30 4525 H 406.151 -0.561665 2.04839 0
M  V30 4526 H 408.414 -0.310438 0.89573 0
M  V30 4527 H 408.12 -1.69422 3.08203 0
M  V30 4528 H 407.994 -3.13813 2.09287 0
M  V30 4529 H 410.381 -2.69311 1.20647 0
M  V30 4530 H 410.462 -1.25237 2.23045 0
M  V30 4531 H 410.106 -2.72204 4.28798 0
M  V30 4532 H 410.036 -4.1563 3.23356 0
M  V30 4533 H 412.527 -2.71778 2.62574 0
M  V30 4534 H 412.84 -5.10513 5.80169 0
M  V30 4535 H 411.185 -4.5964 5.21302 0
M  V30 4536 H 414.376 -3.30739 3.31254 0
M  V30 4537 H 414.549 -4.39621 4.76064 0
M  V30 4538 N 407.956 -0.998596 -1.21925 0
M  V30 4539 C 408.886 -0.573688 -2.26343 0
M  V30 4540 C 409.867 0.402296 -1.65274 0
M  V30 4541 O 411.052 0.291683 -1.91997 0
M  V30 4542 C 408.182 0.106839 -3.47136 0
M  V30 4543 C 407.136 -0.788269 -4.20678 0
M  V30 4544 C 406.462 0.0254927 -5.34694 0
M  V30 4545 C 407.762 -2.08784 -4.78755 0
M  V30 4546 H 409.456 -1.44651 -2.62138 0
M  V30 4547 H 407.002 -0.696975 -1.26009 0
M  V30 4548 H 408.955 0.415531 -4.19346 0
M  V30 4549 H 407.679 1.01424 -3.10452 0
M  V30 4550 H 406.338 -1.08069 -3.50309 0
M  V30 4551 H 405.986 0.933989 -4.94253 0
M  V30 4552 H 405.686 -0.570437 -5.84825 0
M  V30 4553 H 407.21 0.328147 -6.09718 0
M  V30 4554 H 408.624 -1.84272 -5.42878 0
M  V30 4555 H 407.021 -2.63307 -5.39249 0
M  V30 4556 H 408.091 -2.76284 -3.98491 0
M  V30 4557 N 409.434 1.37368 -0.772513 0
M  V30 4558 C 410.344 2.34053 -0.160081 0
M  V30 4559 C 411.36 1.60216 0.678728 0
M  V30 4560 O 412.536 1.92303 0.59847 0
M  V30 4561 C 409.601 3.3939 0.708182 0
M  V30 4562 C 408.662 4.29048 -0.147172 0
M  V30 4563 C 407.895 5.29354 0.679744 0
M  V30 4564 O 408.118 5.3723 1.91678 0
M  V30 4565 O 407.052 6.01835 0.0885444 0
M  V30 4566 H 410.878 2.88159 -0.959053 0
M  V30 4567 H 408.463 1.39543 -0.533685 0
M  V30 4568 H 410.345 4.03839 1.20384 0
M  V30 4569 H 409.02 2.8761 1.48533 0
M  V30 4570 H 407.927 3.67697 -0.689205 0
M  V30 4571 H 409.26 4.84134 -0.887423 0
M  V30 4572 N 410.912 0.523116 1.48665 0
M  V30 4573 C 411.844 -0.280421 2.27478 0
M  V30 4574 C 412.857 -0.910694 1.34945 0
M  V30 4575 O 414.046 -0.790295 1.60052 0
M  V30 4576 C 411.146 -1.41171 3.08097 0
M  V30 4577 C 410.319 -0.884642 4.28361 0
M  V30 4578 C 409.378 -1.89622 4.90846 0
M  V30 4579 O 408.404 -1.4559 5.50265 0
M  V30 4580 N 409.606 -3.22801 4.82472 0
M  V30 4581 H 412.371 0.395481 2.97079 0
M  V30 4582 H 409.932 0.357018 1.57915 0
M  V30 4583 H 411.924 -2.08645 3.4677 0
M  V30 4584 H 410.494 -1.99139 2.40961 0
M  V30 4585 H 409.714 -0.0341177 3.94185 0
M  V30 4586 H 411.002 -0.511268 5.06225 0
M  V30 4587 H 410.4 -3.61246 4.35336 0
M  V30 4588 H 408.957 -3.85927 5.25265 0
M  V30 4589 N 412.39 -1.55475 0.257931 0
M  V30 4590 C 413.667 -1.91155 -0.414629 0
M  V30 4591 C 414.047 -1.18008 -1.75035 0
M  V30 4592 O 413.395 -0.301193 -2.26506 0
M  V30 4593 C 413.605 -3.44283 -0.571859 0
M  V30 4594 C 414.953 -4.15744 -0.862678 0
M  V30 4595 O 415.977 -3.50083 -0.657314 0
M  V30 4596 O 414.836 -5.31909 -1.2544 0
M  V30 4597 H 411.93 -0.796016 -0.22425 0
M  V30 4598 H 414.476 -1.66976 0.302814 0
M  V30 4599 H 413.248 -3.89558 0.368844 0
M  V30 4600 H 412.871 -3.7436 -1.33943 0
M  V30 4601 N 413.868 0.0150385 -1.57593 0
M  V30 4602 C 414.798 1.01047 -2.10503 0
M  V30 4603 C 415.779 1.36816 -1.01071 0
M  V30 4604 O 416.964 1.45455 -1.28672 0
M  V30 4605 C 414.094 2.30708 -2.59598 0
M  V30 4606 C 413.048 2.09142 -3.73421 0
M  V30 4607 C 412.374 3.44685 -4.08774 0
M  V30 4608 C 413.674 1.46619 -5.01298 0
M  V30 4609 H 415.368 0.569978 -2.93925 0
M  V30 4610 H 412.914 0.272724 -1.41394 0
M  V30 4611 H 414.867 3.00687 -2.95238 0
M  V30 4612 H 413.591 2.76843 -1.73279 0
M  V30 4613 H 412.25 1.41592 -3.38153 0
M  V30 4614 H 411.898 3.88495 -3.195 0
M  V30 4615 H 411.598 3.31077 -4.8545 0
M  V30 4616 H 413.122 4.16004 -4.4696 0
M  V30 4617 H 414.536 2.06535 -5.34805 0
M  V30 4618 H 412.933 1.43544 -5.82679 0
M  V30 4619 H 414.003 0.433611 -4.82957 0
M  V30 4620 N 415.346 1.54954 0.287554 0
M  V30 4621 C 416.293 1.86834 1.35505 0
M  V30 4622 C 417.263 0.718452 1.49758 0
M  V30 4623 O 418.448 0.968358 1.644 0
M  V30 4624 C 415.588 2.13303 2.71286 0
M  V30 4625 C 414.701 3.40883 2.65373 0
M  V30 4626 C 413.836 3.57125 3.93236 0
M  V30 4627 C 412.875 4.78449 3.81776 0
M  V30 4628 N 412.012 4.91426 5.01443 0
M  V30 4629 H 416.852 2.77889 1.07619 0
M  V30 4630 H 414.389 1.37593 0.520241 0
M  V30 4631 H 416.347 2.26646 3.50267 0
M  V30 4632 H 414.977 1.25499 2.97405 0
M  V30 4633 H 414.029 3.36088 1.78182 0
M  V30 4634 H 415.341 4.29993 2.52799 0
M  V30 4635 H 414.495 3.70207 4.80658 0
M  V30 4636 H 413.234 2.66173 4.0866 0
M  V30 4637 H 412.239 4.65386 2.92738 0
M  V30 4638 H 413.464 5.70822 3.67884 0
M  V30 4639 H 411.41 4.03401 5.17304 0
M  V30 4640 H 411.327 5.74559 4.91343 0
M  V30 4641 H 412.595 5.08879 5.90477 0
M  V30 4642 N 416.824 -0.551391 1.4764 0
M  V30 4643 C 417.772 -1.67896 1.60978 0
M  V30 4644 C 418.766 -1.62549 0.476877 0
M  V30 4645 O 419.972 -1.67664 0.654878 0
M  V30 4646 H 416.347 -0.555649 0.506713 0
M  V30 4647 H 418.318 -1.53784 2.55721 0
M  V30 4648 C 417.067 -3.06234 1.64669 0
M  V30 4649 H 416.39 -3.11033 2.51194 0
M  V30 4650 H 417.83 -3.84804 1.7805 0
M  V30 4651 C 416.289 -3.34737 0.381115 0
M  V30 4652 O 416.819 -3.98381 -0.515297 0
M  V30 4653 N 415.025 -2.8944 0.259354 0
M  V30 4654 H 414.572 -2.37827 0.98976 0
M  V30 4655 H 414.53 -3.08882 -0.586464 0
M  V30 4656 N 418.302 -1.35869 -0.798587 0
M  V30 4657 C 419.234 -1.25305 -1.91915 0
M  V30 4658 C 420.247 -0.174548 -1.61862 0
M  V30 4659 O 421.436 -0.428499 -1.73281 0
M  V30 4660 C 418.536 -0.9086 -3.26493 0
M  V30 4661 C 417.709 -2.08711 -3.84394 0
M  V30 4662 C 416.768 -1.71717 -4.97393 0
M  V30 4663 O 415.794 -2.43692 -5.14396 0
M  V30 4664 N 416.996 -0.645473 -5.769 0
M  V30 4665 H 419.761 -2.21849 -2.01502 0
M  V30 4666 H 417.322 -1.29143 -0.976408 0
M  V30 4667 H 419.314 -0.642455 -3.99568 0
M  V30 4668 H 417.884 -0.0325815 -3.12583 0
M  V30 4669 H 417.104 -2.51659 -3.03416 0
M  V30 4670 H 418.392 -2.87468 -4.19809 0
M  V30 4671 H 417.79 -0.047648 -5.6568 0
M  V30 4672 H 416.347 -0.43913 -6.50319 0
M  V30 4673 N 419.78 1.02168 -1.19998 0
M  V30 4674 C 420.743 2.08765 -0.94604 0
M  V30 4675 C 421.743 1.60618 0.0763846 0
M  V30 4676 O 422.933 1.73472 -0.159135 0
M  V30 4677 C 420.065 3.38262 -0.423255 0
M  V30 4678 H 421.258 2.32726 -1.89153 0
M  V30 4679 H 418.811 1.1889 -1.01464 0
M  V30 4680 H 419.546 3.19974 0.527938 0
M  V30 4681 H 419.331 3.74532 -1.16053 0
M  V30 4682 H 420.821 4.16759 -0.264911 0
M  V30 4683 N 421.258 1.00505 1.21394 0
M  V30 4684 C 422.188 0.585684 2.26035 0
M  V30 4685 C 423.169 -0.393525 1.65485 0
M  V30 4686 O 424.354 -0.281497 1.92149 0
M  V30 4687 C 421.484 -0.0884283 3.47187 0
M  V30 4688 C 420.438 0.810567 4.20254 0
M  V30 4689 C 419.764 0.00286382 5.347 0
M  V30 4690 C 421.064 2.1132 4.77641 0
M  V30 4691 H 422.758 1.46039 2.61368 0
M  V30 4692 H 420.304 0.703648 1.25638 0
M  V30 4693 H 422.257 -0.393286 4.19561 0
M  V30 4694 H 420.981 -0.997766 3.10986 0
M  V30 4695 H 419.64 1.09925 3.49731 0
M  V30 4696 H 419.288 -0.907765 4.94741 0
M  V30 4697 H 418.988 0.601444 5.84514 0
M  V30 4698 H 420.512 -0.295808 6.09883 0
M  V30 4699 H 421.926 1.87148 5.41893 0
M  V30 4700 H 420.323 2.66164 5.37845 0
M  V30 4701 H 421.393 2.78393 3.9702 0
M  V30 4702 N 422.737 -1.36956 0.779787 0
M  V30 4703 C 424.014 -1.93697 0.272156 0
M  V30 4704 C 424.394 -1.71267 -1.23413 0
M  V30 4705 O 423.742 -1.06607 -2.02107 0
M  V30 4706 C 423.952 -3.42812 0.654291 0
M  V30 4707 C 425.3 -4.19921 0.628602 0
M  V30 4708 O 426.324 -3.51209 0.594172 0
M  V30 4709 O 425.183 -5.42465 0.662864 0
M  V30 4710 H 422.277 -0.824447 0.0649286 0
M  V30 4711 H 424.823 -1.46196 0.861682 0
M  V30 4712 H 423.595 -3.52754 1.69353 0
M  V30 4713 H 423.218 -3.97582 0.0381369 0
M  V30 4714 N 424.215 -0.530993 -1.48385 0
M  V30 4715 C 425.163 0.244595 -2.3131 0
M  V30 4716 C 426.157 0.93451 -1.41291 0
M  V30 4717 O 427.363 0.85878 -1.58193 0
M  V30 4718 H 423.738 0.0977472 -0.74562 0
M  V30 4719 H 425.709 -0.474369 -2.94605 0
M  V30 4720 C 424.458 1.2779 -3.23365 0
M  V30 4721 H 423.781 0.756439 -3.92579 0
M  V30 4722 H 425.221 1.79198 -3.84271 0
M  V30 4723 C 423.68 2.31205 -2.45042 0
M  V30 4724 O 424.21 3.37661 -2.17596 0
M  V30 4725 N 422.416 2.04446 -2.0652 0
M  V30 4726 H 421.963 1.17891 -2.2904 0
M  V30 4727 H 421.921 2.73861 -1.54427 0
M  V30 4728 N 425.693 1.55336 -0.266172 0
M  V30 4729 C 427.109 1.59356 0.0882065 0
M  V30 4730 C 427.309 1.2834 1.55342 0
M  V30 4731 O 426.365 1.03996 2.30089 0
M  V30 4732 C 427.678 2.99409 -0.278364 0
M  V30 4733 C 429.226 3.12196 -0.224243 0
M  V30 4734 C 429.701 4.545 -0.565123 0
M  V30 4735 N 431.192 4.60313 -0.51634 0
M  V30 4736 C 431.927 5.68434 -0.753013 0
M  V30 4737 N 431.423 6.84738 -1.05383 0
M  V30 4738 N 433.216 5.57942 -0.682414 0
M  V30 4739 H 425.367 1.73764 -1.22147 0
M  V30 4740 H 427.63 0.809822 -0.492841 0
M  V30 4741 H 427.336 3.2691 -1.29703 0
M  V30 4742 H 427.21 3.75228 0.385186 0
M  V30 4743 H 429.597 2.84464 0.78512 0
M  V30 4744 H 429.678 2.38609 -0.921922 0
M  V30 4745 H 429.322 4.82956 -1.57213 0
M  V30 4746 H 429.252 5.26374 0.154248 0
M  V30 4747 H 431.743 3.7676 -0.29335 0
M  V30 4748 H 432.056 7.63088 -1.22133 0
M  V30 4749 H 430.401 6.86375 -1.09151 0
M  V30 4750 H 433.592 4.65958 -0.44731 0
M  V30 4751 H 433.765 6.4213 -0.870248 0
M  V30 4752 N 427.171 -0.0066808 1.57599 0
M  V30 4753 C 428.081 -1.01671 2.11424 0
M  V30 4754 C 429.097 -1.38143 1.05795 0
M  V30 4755 O 430.273 -1.47011 1.37658 0
M  V30 4756 C 427.338 -2.29192 2.60139 0
M  V30 4757 C 426.399 -1.99094 3.80342 0
M  V30 4758 C 425.632 -3.20535 4.26724 0
M  V30 4759 O 425.855 -4.3199 3.72479 0
M  V30 4760 O 424.789 -3.04924 5.18946 0
M  V30 4761 H 428.615 -0.589181 2.9793 0
M  V30 4762 H 426.2 -0.225091 1.47695 0
M  V30 4763 H 428.082 -3.0412 2.917 0
M  V30 4764 H 426.757 -2.71195 1.76733 0
M  V30 4765 H 425.664 -1.21663 3.53764 0
M  V30 4766 H 426.997 -1.61931 4.648 0
M  V30 4767 N 428.649 -1.55105 -0.279332 0
M  V30 4768 C 429.898 -1.74618 -1.00952 0
M  V30 4769 C 430.211 -0.551096 -1.87676 0
M  V30 4770 O 431.417 -0.628507 -2.64125 0
M  V30 4771 C 429.873 -3.09025 -1.84476 0
M  V30 4772 C 429.481 -4.36081 -1.0265 0
M  V30 4773 C 431.225 -3.37891 -2.56963 0
M  V30 4774 C 429.132 -5.6153 -1.85576 0
M  V30 4775 H 428.062 -0.650868 -0.38064 0
M  V30 4776 H 430.713 -1.81569 -0.265475 0
M  V30 4777 H 429.095 -2.96095 -2.62952 0
M  V30 4778 H 430.269 -4.59909 -0.286354 0
M  V30 4779 H 428.584 -4.14312 -0.416464 0
M  V30 4780 H 431.181 -4.28822 -3.19399 0
M  V30 4781 H 431.524 -2.57737 -3.26921 0
M  V30 4782 H 432.057 -3.5189 -1.85522 0
M  V30 4783 H 428.796 -6.44413 -1.2005 0
M  V30 4784 H 428.316 -5.41854 -2.57204 0
M  V30 4785 H 429.995 -5.99594 -2.43096 0
M  V30 4786 N 430.127 0.543554 -1.4793 0
M  V30 4787 C 431.404 1.30458 -1.4574 0
M  V30 4788 C 431.784 2.1048 -0.161692 0
M  V30 4789 O 431.132 2.11831 0.856734 0
M  V30 4790 C 431.342 2.19754 -2.71126 0
M  V30 4791 C 432.69 2.80334 -3.18901 0
M  V30 4792 O 433.714 2.30049 -2.71948 0
M  V30 4793 O 432.573 3.71766 -4.00565 0
M  V30 4794 H 429.667 0.588117 -0.581418 0
M  V30 4795 H 432.213 0.561328 -1.60147 0
M  V30 4796 H 430.985 1.60316 -3.56952 0
M  V30 4797 H 430.608 3.01351 -2.59371 0
M  V30 4798 N 431.605 1.3629 0.791371 0
M  V30 4799 C 432.552 1.30458 1.90393 0
M  V30 4800 C 433.522 0.173632 1.6519 0
M  V30 4801 O 434.707 0.35983 1.87376 0
M  V30 4802 C 431.847 1.09777 3.27174 0
M  V30 4803 C 430.96 2.31929 3.64462 0
M  V30 4804 C 430.095 2.04276 4.90352 0
M  V30 4805 C 429.134 3.224 5.20312 0
M  V30 4806 N 428.271 2.94424 6.37385 0
M  V30 4807 H 433.111 2.25589 1.94714 0
M  V30 4808 H 430.648 1.12122 0.952216 0
M  V30 4809 H 432.606 0.958133 4.06049 0
M  V30 4810 H 431.236 0.183014 3.22281 0
M  V30 4811 H 430.288 2.56703 2.80727 0
M  V30 4812 H 431.6 3.20085 3.82553 0
M  V30 4813 H 430.754 1.87231 5.77087 0
M  V30 4814 H 429.493 1.13428 4.74326 0
M  V30 4815 H 428.498 3.40005 4.32061 0
M  V30 4816 H 429.723 4.14071 5.38258 0
M  V30 4817 H 427.669 2.06185 6.22755 0
M  V30 4818 H 427.586 3.76118 6.55798 0
M  V30 4819 H 428.854 2.80953 7.27108 0
M  V30 4820 N 433.083 -1.0153 1.20538 0
M  V30 4821 C 434.03 -2.10098 0.955383 0
M  V30 4822 C 435 -1.65702 -0.114878 0
M  V30 4823 O 436.185 -1.90776 0.0301118 0
M  V30 4824 C 433.325 -3.41236 0.514969 0
M  V30 4825 C 432.438 -3.99102 1.65353 0
M  V30 4826 C 431.573 -5.18306 1.16329 0
M  V30 4827 C 430.612 -5.68258 2.27485 0
M  V30 4828 N 429.749 -6.78722 1.7967 0
M  V30 4829 H 434.589 -2.30818 1.88486 0
M  V30 4830 H 432.126 -1.13189 0.939499 0
M  V30 4831 H 434.084 -4.16504 0.240935 0
M  V30 4832 H 432.714 -3.20585 -0.377512 0
M  V30 4833 H 431.766 -3.20918 2.04245 0
M  V30 4834 H 433.078 -4.32177 2.49047 0
M  V30 4835 H 432.232 -6.00782 0.845302 0
M  V30 4836 H 430.971 -4.86799 0.296254 0
M  V30 4837 H 429.976 -4.84385 2.60099 0
M  V30 4838 H 431.201 -6.01798 3.14667 0
M  V30 4839 H 429.147 -6.49042 0.95295 0
M  V30 4840 H 429.064 -7.10996 2.56944 0
M  V30 4841 H 430.332 -7.64759 1.50875 0
M  V30 4842 N 434.561 -1.01147 -1.20859 0
M  V30 4843 C 435.494 -0.522108 -2.22147 0
M  V30 4844 C 436.472 0.427686 -1.56874 0
M  V30 4845 O 437.656 0.34889 -1.85243 0
M  V30 4846 C 434.783 0.240819 -3.37843 0
M  V30 4847 C 433.829 -0.657752 -4.21398 0
M  V30 4848 S 434.662 -2.12393 -4.91578 0
M  V30 4849 C 435.818 -1.37102 -6.10699 0
M  V30 4850 H 436.051 -1.38035 -2.63313 0
M  V30 4851 H 433.584 -0.819941 -1.30829 0
M  V30 4852 H 435.542 0.674908 -4.04914 0
M  V30 4853 H 434.203 1.07457 -2.95147 0
M  V30 4854 H 433.396 -0.0697456 -5.03952 0
M  V30 4855 H 432.998 -1.0294 -3.59555 0
M  V30 4856 H 435.29 -0.648315 -6.74391 0
M  V30 4857 H 436.233 -2.17252 -6.73949 0
M  V30 4858 H 436.641 -0.876154 -5.57659 0
M  V30 4859 N 436.039 1.36541 -0.78704 0
M  V30 4860 C 436.987 2.31965 -0.171724 0
M  V30 4861 C 437.981 1.55689 0.667631 0
M  V30 4862 O 439.187 1.70969 0.562981 0
M  V30 4863 H 435.562 0.751101 -0.0367545 0
M  V30 4864 H 437.533 2.81428 -0.992017 0
M  V30 4865 C 436.282 3.40968 0.680904 0
M  V30 4866 H 435.605 3.99775 0.0443961 0
M  V30 4867 H 437.045 4.10063 1.07815 0
M  V30 4868 C 435.504 2.82338 1.83813 0
M  V30 4869 O 436.034 2.74311 2.93456 0
M  V30 4870 N 434.24 2.39661 1.6435 0
M  V30 4871 H 433.787 2.46389 0.751668 0
M  V30 4872 H 433.745 2.00779 2.4194 0
M  V30 4873 N 437.518 0.538854 1.48102 0
M  V30 4874 C 438.743 0.0102694 2.07397 0
M  V30 4875 C 439.168 -1.26562 1.39153 0
M  V30 4876 O 438.526 -1.75357 0.460387 0
M  V30 4877 C 438.574 -0.187602 3.60112 0
M  V30 4878 O 437.678 -1.25432 3.92862 0
M  V30 4879 H 437.019 0.0430975 0.6626 0
M  V30 4880 H 439.549 0.749301 1.90385 0
M  V30 4881 H 439.559 -0.407517 4.0596 0
M  V30 4882 H 438.234 0.744386 4.09184 0
M  V30 4883 H 436.811 -1.01636 3.58782 0
M  V30 4884 N 438.996 -1.55193 0.274407 0
M  V30 4885 C 440.245 -1.98758 -0.343213 0
M  V30 4886 C 440.558 -1.16624 -1.5703 0
M  V30 4887 O 441.764 -1.5033 -2.26082 0
M  V30 4888 C 440.22 -3.53759 -0.661996 0
M  V30 4889 C 439.828 -4.4467 0.54524 0
M  V30 4890 C 441.572 -4.05916 -1.24228 0
M  V30 4891 C 439.479 -5.91058 0.201084 0
M  V30 4892 H 438.409 -0.742353 -0.132014 0
M  V30 4893 H 441.06 -1.79545 0.378948 0
M  V30 4894 H 439.442 -3.68772 -1.44304 0
M  V30 4895 H 440.616 -4.41426 1.32212 0
M  V30 4896 H 438.931 -4.03143 1.04232 0
M  V30 4897 H 441.528 -5.12831 -1.51357 0
M  V30 4898 H 441.871 -3.54908 -2.17592 0
M  V30 4899 H 442.404 -3.9434 -0.523542 0
M  V30 4900 H 439.143 -6.46161 1.10258 0
M  V30 4901 H 438.663 -5.97373 -0.539045 0
M  V30 4902 H 440.342 -6.46669 -0.206954 0
M  V30 4903 N 440.474 -0.00167713 -1.576 0
M  V30 4904 C 441.421 0.989195 -2.08527 0
M  V30 4905 C 442.391 1.34031 -0.981065 0
M  V30 4906 O 443.576 1.43839 -1.2536 0
M  V30 4907 C 440.716 2.27537 -2.59463 0
M  V30 4908 C 439.829 1.98314 -3.83791 0
M  V30 4909 C 438.964 3.21025 -4.23222 0
M  V30 4910 C 438.003 2.87495 -5.40382 0
M  V30 4911 N 437.14 4.02749 -5.75098 0
M  V30 4912 H 441.98 0.547973 -2.92919 0
M  V30 4913 H 439.517 0.258917 -1.44803 0
M  V30 4914 H 441.475 3.02729 -2.87073 0
M  V30 4915 H 440.105 2.69325 -1.77943 0
M  V30 4916 H 439.157 1.13482 -3.63078 0
M  V30 4917 H 440.469 1.69601 -4.69081 0
M  V30 4918 H 439.623 4.04561 -4.52123 0
M  V30 4919 H 438.362 3.52877 -3.36644 0
M  V30 4920 H 437.367 2.02367 -5.11202 0
M  V30 4921 H 438.592 2.56889 -6.28637 0
M  V30 4922 H 436.538 4.34494 -4.91478 0
M  V30 4923 H 436.455 3.77566 -6.54966 0
M  V30 4924 H 437.723 4.87068 -6.08592 0
M  V30 4925 N 441.952 1.55251 0.271103 0
M  V30 4926 C 443.363 1.66635 0.842007 0
M  V30 4927 C 443.714 0.594631 1.86972 0
M  V30 4928 O 442.839 -0.263532 2.14789 0
M  V30 4929 C 443.434 3.02082 1.53401 0
M  V30 4930 C 441.993 3.15487 2.05293 0
M  V30 4931 C 441.14 2.62438 0.895631 0
M  V30 4932 H 444.091 1.58629 0.0474117 0
M  V30 4933 H 444.112 2.95176 2.40107 0
M  V30 4934 H 443.624 3.80062 0.785786 0
M  V30 4935 H 441.725 2.42284 2.83071 0
M  V30 4936 H 441.838 4.22075 2.26693 0
M  V30 4937 H 440.202 2.19644 1.28953 0
M  V30 4938 H 440.985 3.42923 0.160878 0
M  V30 4939 N 443.43 -0.535701 1.48216 0
M  V30 4940 C 444.707 -1.29683 1.46429 0
M  V30 4941 C 445.087 -2.10391 0.172852 0
M  V30 4942 O 444.435 -2.12282 -0.845488 0
M  V30 4943 C 444.645 -2.18313 2.72287 0
M  V30 4944 C 445.993 -2.78639 3.20383 0
M  V30 4945 O 447.017 -2.28604 2.73164 0
M  V30 4946 O 445.876 -3.69636 4.02531 0
M  V30 4947 H 442.97 -0.585026 0.584529 0
M  V30 4948 H 445.516 -0.552827 1.60443 0
M  V30 4949 H 444.288 -1.58421 3.57797 0
M  V30 4950 H 443.911 -2.99971 2.60966 0
M  V30 4951 N 444.908 -1.36708 -0.784132 0
M  V30 4952 C 445.838 -1.34153 -1.91116 0
M  V30 4953 C 446.819 -0.212121 -1.68772 0
M  V30 4954 O 448.004 -0.410581 -1.8981 0
M  V30 4955 C 445.134 -1.13535 -3.28218 0
M  V30 4956 C 444.088 -2.23356 -3.65097 0
M  V30 4957 C 443.414 -1.87875 -5.00607 0
M  V30 4958 C 444.714 -3.65473 -3.73131 0
M  V30 4959 H 446.408 -2.28459 -1.93512 0
M  V30 4960 H 443.954 -1.09973 -0.929618 0
M  V30 4961 H 445.907 -1.10381 -4.06687 0
M  V30 4962 H 444.631 -0.156804 -3.26223 0
M  V30 4963 H 443.29 -2.25645 -2.88929 0
M  V30 4964 H 442.938 -0.885814 -4.95139 0
M  V30 4965 H 442.638 -2.61406 -5.26252 0
M  V30 4966 H 444.162 -1.86286 -5.81489 0
M  V30 4967 H 445.576 -3.65382 -4.41779 0
M  V30 4968 H 443.973 -4.37953 -4.10265 0
M  V30 4969 H 445.043 -3.99995 -2.74102 0
M  V30 4970 N 446.386 1.0089 -1.21074 0
M  V30 4971 C 447.635 1.74019 -1.01981 0
M  V30 4972 C 447.948 1.90408 0.447665 0
M  V30 4973 O 449.154 2.60707 0.757906 0
M  V30 4974 C 447.61 3.13026 -1.77603 0
M  V30 4975 C 447.218 3.04623 -3.28495 0
M  V30 4976 C 448.962 3.90312 -1.66904 0
M  V30 4977 C 446.869 4.38685 -3.96623 0
M  V30 4978 H 445.799 0.652422 -0.377971 0
M  V30 4979 H 448.45 1.12755 -1.44771 0
M  V30 4980 H 446.832 3.74878 -1.27604 0
M  V30 4981 H 448.006 2.52032 -3.85767 0
M  V30 4982 H 446.321 2.40827 -3.39693 0
M  V30 4983 H 448.918 4.8951 -2.15138 0
M  V30 4984 H 449.261 4.11558 -0.62658 0
M  V30 4985 H 449.794 3.35104 -2.14359 0
M  V30 4986 H 446.533 4.22641 -5.01054 0
M  V30 4987 H 446.053 4.91252 -3.4414 0
M  V30 4988 H 447.732 5.075 -4.01314 0
M  V30 4989 N 447.864 1.01787 1.20321 0
M  V30 4990 C 448.796 0.547357 2.22568 0
M  V30 4991 C 449.809 -0.370922 1.58518 0
M  V30 4992 O 450.998 -0.169067 1.77698 0
M  V30 4993 C 448.098 -0.223031 3.38165 0
M  V30 4994 C 447.271 0.697472 4.31803 0
M  V30 4995 C 446.33 -0.025562 5.26194 0
M  V30 4996 O 445.356 0.597367 5.66057 0
M  V30 4997 N 446.558 -1.29999 5.65757 0
M  V30 4998 H 449.323 1.42668 2.63564 0
M  V30 4999 H 446.884 0.895552 1.34876 0
M  V30 5000 H 448.876 -0.716002 3.98316 0
M  V30 5001 H 447.446 -1.00366 2.9605 0
M  V30 5002 H 446.666 1.37073 3.69601 0
M  V30 5003 H 447.954 1.32347 4.91286 0
M  V30 5004 H 447.352 -1.827 5.35385 0
M  V30 5005 H 445.909 -1.73766 6.28211 0
M  V30 5006 N 449.342 -1.36122 0.79427 0
M  V30 5007 C 450.272 -2.32551 0.210328 0
M  V30 5008 C 451.253 -1.56884 -0.657386 0
M  V30 5009 O 452.438 -1.85014 -0.590207 0
M  V30 5010 C 449.568 -3.41128 -0.651819 0
M  V30 5011 C 448.522 -4.27842 0.116395 0
M  V30 5012 C 447.848 -5.2763 -0.86666 0
M  V30 5013 C 449.148 -5.05647 1.30837 0
M  V30 5014 H 450.842 -2.81636 1.01594 0
M  V30 5015 H 448.388 -1.35407 0.489981 0
M  V30 5016 H 450.341 -4.07581 -1.07031 0
M  V30 5017 H 449.065 -2.90622 -1.49019 0
M  V30 5018 H 447.724 -3.62952 0.515915 0
M  V30 5019 H 447.372 -4.73395 -1.70019 0
M  V30 5020 H 447.072 -5.86514 -0.35705 0
M  V30 5021 H 448.596 -5.96955 -1.28361 0
M  V30 5022 H 450.01 -5.65113 0.965393 0
M  V30 5023 H 448.407 -5.73967 1.75161 0
M  V30 5024 H 449.477 -4.37006 2.10128 0
M  V30 5025 N 450.82 -0.546701 -1.47814 0
M  V30 5026 C 452.236 -0.205717 -1.58269 0
M  V30 5027 C 452.436 1.29153 -1.54667 0
M  V30 5028 O 451.492 2.07098 -1.44453 0
M  V30 5029 C 452.805 -0.823065 -2.89216 0
M  V30 5030 C 454.353 -0.793328 -3.02779 0
M  V30 5031 C 454.828 -1.38955 -4.36412 0
M  V30 5032 N 456.319 -1.35227 -4.43021 0
M  V30 5033 C 457.054 -1.78333 -5.44963 0
M  V30 5034 N 456.55 -2.29246 -6.53772 0
M  V30 5035 N 458.343 -1.69467 -5.35945 0
M  V30 5036 H 450.494 -1.5196 -1.48398 0
M  V30 5037 H 452.757 -0.633078 -0.705632 0
M  V30 5038 H 452.463 -1.8749 -2.97558 0
M  V30 5039 H 452.337 -0.309915 -3.75925 0
M  V30 5040 H 454.724 0.249784 -2.94041 0
M  V30 5041 H 454.805 -1.34412 -2.17639 0
M  V30 5042 H 454.449 -2.43168 -4.45906 0
M  V30 5043 H 454.379 -0.814291 -5.20266 0
M  V30 5044 H 456.87 -0.979739 -3.64979 0
M  V30 5045 H 457.183 -2.60089 -7.27718 0
M  V30 5046 H 455.528 -2.3325 -6.5469 0
M  V30 5047 H 458.719 -1.29477 -4.49837 0
M  V30 5048 H 458.892 -2.03381 -6.15256 0
M  V30 5049 N 452.299 1.55045 -0.282633 0
M  V30 5050 C 453.246 2.22822 0.601566 0
M  V30 5051 C 454.216 1.20431 1.14392 0
M  V30 5052 O 455.401 1.48996 1.19184 0
M  V30 5053 C 452.541 2.95873 1.77632 0
M  V30 5054 C 451.654 4.12999 1.26711 0
M  V30 5055 C 450.789 4.73676 2.40426 0
M  V30 5056 C 449.828 5.82981 1.86545 0
M  V30 5057 N 448.965 6.3769 2.93762 0
M  V30 5058 H 453.805 2.97995 0.0169528 0
M  V30 5059 H 451.342 1.471 -0.00339964 0
M  V30 5060 H 453.3 3.36447 2.46697 0
M  V30 5061 H 451.93 2.2311 2.33285 0
M  V30 5062 H 450.982 3.77494 0.469314 0
M  V30 5063 H 452.294 4.91803 0.832518 0
M  V30 5064 H 451.448 5.17008 3.17471 0
M  V30 5065 H 450.187 3.94164 2.87203 0
M  V30 5066 H 449.192 5.39092 1.07983 0
M  V30 5067 H 450.417 6.64366 1.40694 0
M  V30 5068 H 448.363 5.61069 3.39908 0
M  V30 5069 H 448.28 7.11788 2.54744 0
M  V30 5070 H 449.548 6.8568 3.7076 0
M  V30 5071 N 453.777 0.010035 1.57597 0
M  V30 5072 C 455.026 -0.671945 1.90178 0
M  V30 5073 C 455.339 -1.74376 0.886131 0
M  V30 5074 O 456.545 -2.48107 1.10252 0
M  V30 5075 C 455.001 -1.24636 3.3763 0
M  V30 5076 C 454.609 -0.208838 4.47513 0
M  V30 5077 C 456.353 -1.90595 3.79307 0
M  V30 5078 C 454.26 -0.793814 5.86048 0
M  V30 5079 H 453.19 -0.25474 0.709665 0
M  V30 5080 H 455.841 0.0722206 1.83358 0
M  V30 5081 H 454.223 -2.04152 3.3932 0
M  V30 5082 H 455.397 0.562463 4.57354 0
M  V30 5083 H 453.712 0.350889 4.14919 0
M  V30 5084 H 456.309 -2.35284 4.80151 0
M  V30 5085 H 456.652 -2.74074 3.13352 0
M  V30 5086 H 457.185 -1.17798 3.79958 0
M  V30 5087 H 453.924 0.00240855 6.555 0
M  V30 5088 H 453.444 -1.53404 5.79851 0
M  V30 5089 H 455.123 -1.2894 6.34022 0
M  V30 5090 N 455.255 -1.55392 -0.262866 0
M  V30 5091 C 456.671 -1.47459 -0.610582 0
M  V30 5092 C 456.871 -0.697031 -1.8906 0
M  V30 5093 O 455.927 -0.219952 -2.5154 0
M  V30 5094 C 457.24 -2.91751 -0.728131 0
M  V30 5095 C 458.788 -3.02027 -0.821517 0
M  V30 5096 C 459.263 -4.47594 -0.97076 0
M  V30 5097 N 460.754 -4.51465 -1.03603 0
M  V30 5098 C 461.489 -5.61326 -1.17049 0
M  V30 5099 N 460.985 -6.81032 -1.2715 0
M  V30 5100 N 462.778 -5.49089 -1.20239 0
M  V30 5101 H 454.929 -2.04395 0.577632 0
M  V30 5102 H 457.192 -0.927287 0.197086 0
M  V30 5103 H 456.898 -3.51413 0.142132 0
M  V30 5104 H 456.772 -3.4134 -1.6052 0
M  V30 5105 H 459.159 -2.42456 -1.68224 0
M  V30 5106 H 459.24 -2.55674 0.0803688 0
M  V30 5107 H 458.884 -5.07771 -0.114655 0
M  V30 5108 H 458.814 -4.91613 -1.88745 0
M  V30 5109 H 461.305 -3.6524 -0.96996 0
M  V30 5110 H 461.618 -7.60511 -1.37271 0
M  V30 5111 H 459.963 -6.83824 -1.24136 0
M  V30 5112 H 463.154 -4.54507 -1.11985 0
M  V30 5113 H 463.327 -6.34749 -1.30373 0
M  V30 5114 N 456.733 0.527833 -1.48498 0
M  V30 5115 C 458.01 1.28905 -1.47115 0
M  V30 5116 C 458.39 2.10297 -0.184007 0
M  V30 5117 O 457.738 2.12728 0.834218 0
M  V30 5118 C 457.948 2.16866 -2.73441 0
M  V30 5119 C 459.296 2.76936 -3.21857 0
M  V30 5120 O 460.32 2.27152 -2.74373 0
M  V30 5121 O 459.179 3.67496 -4.04486 0
M  V30 5122 H 456.273 0.581918 -0.587623 0
M  V30 5123 H 458.819 0.544311 -1.60734 0
M  V30 5124 H 457.591 1.56521 -3.58632 0
M  V30 5125 H 457.214 2.98583 -2.62553 0
M  V30 5126 N 458.211 1.37122 0.776871 0
M  V30 5127 C 459.143 1.28342 1.89897 0
M  V30 5128 C 460.156 0.200277 1.61563 0
M  V30 5129 O 461.345 0.456012 1.72577 0
M  V30 5130 C 458.445 0.960427 3.25006 0
M  V30 5131 C 457.618 2.148 3.81025 0
M  V30 5132 C 456.677 1.79608 4.94598 0
M  V30 5133 O 455.703 2.51845 5.10454 0
M  V30 5134 N 456.905 0.737171 5.758 0
M  V30 5135 H 459.67 2.25027 1.97947 0
M  V30 5136 H 457.231 1.3068 0.955739 0
M  V30 5137 H 459.223 0.705942 3.98495 0
M  V30 5138 H 457.793 0.0823066 3.12492 0
M  V30 5139 H 457.013 2.56454 2.99374 0
M  V30 5140 H 458.301 2.9411 4.15183 0
M  V30 5141 H 457.699 0.137637 5.65533 0
M  V30 5142 H 456.256 0.542534 6.49538 0
M  V30 5143 N 459.689 -1.00246 1.21608 0
M  V30 5144 C 460.639 -2.07492 0.945051 0
M  V30 5145 C 461.623 -1.60585 -0.100675 0
M  V30 5146 O 462.815 -1.76667 0.10859 0
M  V30 5147 C 459.944 -3.39425 0.514342 0
M  V30 5148 C 459.03 -3.92993 1.59428 0
M  V30 5149 N 459.421 -4.19898 2.81991 0
M  V30 5150 C 457.719 -4.21297 1.46374 0
M  V30 5151 C 458.42 -4.63297 3.51754 0
M  V30 5152 N 457.396 -4.66421 2.79199 0
M  V30 5153 H 461.198 -2.26222 1.87619 0
M  V30 5154 H 458.712 -1.18339 1.11219 0
M  V30 5155 H 460.709 -4.15808 0.301527 0
M  V30 5156 H 459.369 -3.22101 -0.410008 0
M  V30 5157 H 460.38 -4.08377 3.1851 0
M  V30 5158 H 457.057 -4.13095 0.604863 0
M  V30 5159 H 458.447 -4.92816 4.56708 0
M  V30 5160 N 461.167 -1.02423 -1.1978 0
M  V30 5161 C 462.097 -0.62157 -2.25075 0
M  V30 5162 C 463.078 0.367148 -1.6609 0
M  V30 5163 O 464.263 0.250892 -1.92573 0
M  V30 5164 C 461.393 0.0331826 -3.47284 0
M  V30 5165 C 460.347 -0.877323 -4.18912 0
M  V30 5166 C 459.673 -0.0879296 -5.34628 0
M  V30 5167 C 460.973 -2.18892 -4.74219 0
M  V30 5168 H 462.667 -1.50179 -2.59011 0
M  V30 5169 H 460.213 -0.723547 -1.24502 0
M  V30 5170 H 462.166 0.326488 -4.20133 0
M  V30 5171 H 460.89 0.948164 -3.12534 0
M  V30 5172 H 459.549 -1.15475 -3.47938 0
M  V30 5173 H 459.197 0.828941 -4.96123 0
M  V30 5174 H 458.897 -0.694359 -5.83483 0
M  V30 5175 H 460.421 0.198743 -6.10276 0
M  V30 5176 H 461.835 -1.95746 -5.38847 0
M  V30 5177 H 460.232 -2.74686 -5.33542 0
M  V30 5178 H 461.302 -2.84674 -3.92541 0
M  V30 5179 N 462.645 1.35699 -0.801477 0
M  V30 5180 C 463.891 1.99208 -0.380022 0
M  V30 5181 C 464.224 1.63445 1.04878 0
M  V30 5182 O 463.499 0.895223 1.72673 0
M  V30 5183 C 463.782 3.55755 -0.557708 0
M  V30 5184 C 463.635 4.01332 -2.03107 0
M  V30 5185 C 464.954 4.40096 0.0197968 0
M  V30 5186 H 462.073 0.723667 -0.139552 0
M  V30 5187 H 464.715 1.60928 -1.01006 0
M  V30 5188 H 462.865 3.88494 -0.0213741 0
M  V30 5189 H 464.537 3.79026 -2.62939 0
M  V30 5190 H 462.78 3.52429 -2.52936 0
M  V30 5191 H 463.451 5.10234 -2.1063 0
M  V30 5192 H 465.927 4.13786 -0.438179 0
M  V30 5193 H 464.803 5.48735 -0.134477 0
M  V30 5194 H 465.064 4.2786 1.11303 0
M  V30 5195 N 464.123 0.554532 1.47522 0
M  V30 5196 C 465.369 0.0377449 2.03365 0
M  V30 5197 C 465.724 -1.29654 1.42154 0
M  V30 5198 O 465.017 -1.83022 0.566865 0
M  V30 5199 C 465.211 -0.115927 3.57212 0
M  V30 5200 C 465.04 1.20191 4.33341 0
M  V30 5201 C 463.81 1.76849 4.73342 0
M  V30 5202 C 466.008 2.11849 4.68641 0
M  V30 5203 N 463.99 3.02665 5.34104 0
M  V30 5204 C 465.361 3.22245 5.29677 0
M  V30 5205 C 467.416 2.11876 4.5057 0
M  V30 5206 C 466.119 4.32763 5.74551 0
M  V30 5207 C 468.145 3.21405 4.9644 0
M  V30 5208 C 467.507 4.30519 5.57523 0
M  V30 5209 H 463.606 0.0559107 0.779999 0
M  V30 5210 H 466.19 0.741232 1.80038 0
M  V30 5211 H 464.361 -0.788533 3.80311 0
M  V30 5212 H 466.093 -0.634538 3.99695 0
M  V30 5213 H 462.848 1.30681 4.55214 0
M  V30 5214 H 463.272 3.66788 5.69031 0
M  V30 5215 H 467.914 1.28801 4.02704 0
M  V30 5216 H 465.632 5.166 6.2141 0
M  V30 5217 H 469.218 3.22509 4.8423 0
M  V30 5218 H 468.098 5.13873 5.92371 0
M  V30 5219 N 465.601 -1.54893 0.290851 0
M  V30 5220 C 466.531 -2.26103 -0.583084 0
M  V30 5221 C 467.512 -1.25684 -1.14619 0
M  V30 5222 O 468.697 -1.54436 -1.17741 0
M  V30 5223 C 465.827 -2.99409 -1.75987 0
M  V30 5224 C 464.781 -4.0689 -1.32758 0
M  V30 5225 C 464.107 -4.67856 -2.58872 0
M  V30 5226 C 465.407 -5.20215 -0.46624 0
M  V30 5227 H 467.101 -2.99398 0.0108214 0
M  V30 5228 H 464.647 -1.43998 0.00664468 0
M  V30 5229 H 466.6 -3.47943 -2.37727 0
M  V30 5230 H 465.324 -2.23675 -2.37985 0
M  V30 5231 H 463.983 -3.59191 -0.733299 0
M  V30 5232 H 463.631 -3.88772 -3.19163 0
M  V30 5233 H 463.331 -5.40438 -2.30653 0
M  V30 5234 H 464.855 -5.19147 -3.21433 0
M  V30 5235 H 466.269 -5.64704 -0.989047 0
M  V30 5236 H 464.666 -5.99455 -0.27826 0
M  V30 5237 H 465.736 -4.82198 0.511173 0
M  V30 5238 N 467.08 -0.0183926 -1.57589 0
M  V30 5239 C 468.028 0.985111 -2.10709 0
M  V30 5240 C 469.022 1.34397 -1.0312 0
M  V30 5241 O 470.228 1.32746 -1.21567 0
M  V30 5242 H 466.603 0.335418 -0.673052 0
M  V30 5243 H 468.574 0.511689 -2.9398 0
M  V30 5244 C 467.323 2.26202 -2.64061 0
M  V30 5245 H 466.646 1.9946 -3.4649 0
M  V30 5246 H 468.086 2.94652 -3.04887 0
M  V30 5247 C 466.545 2.98444 -1.5631 0
M  V30 5248 O 467.075 3.90142 -0.956674 0
M  V30 5249 N 465.281 2.6059 -1.28612 0
M  V30 5250 H 464.828 1.86101 -1.78112 0
M  V30 5251 H 464.786 3.09238 -0.567406 0
M  V30 5252 N 468.558 1.5553 0.254621 0
M  V30 5253 C 469.508 1.86057 1.31783 0
M  V30 5254 C 470.492 0.720827 1.4385 0
M  V30 5255 O 471.684 0.982586 1.47222 0
M  V30 5256 C 468.813 2.15203 2.67475 0
M  V30 5257 C 467.899 3.35484 2.59444 0
M  V30 5258 N 468.29 4.54945 2.2104 0
M  V30 5259 C 466.588 3.38441 2.90472 0
M  V30 5260 C 467.289 5.3707 2.23453 0
M  V30 5261 N 466.265 4.75936 2.62652 0
M  V30 5262 H 470.067 2.75953 1.01129 0
M  V30 5263 H 467.581 1.55653 0.463255 0
M  V30 5264 H 469.578 2.35235 3.44195 0
M  V30 5265 H 468.238 1.26601 2.99002 0
M  V30 5266 H 469.249 4.8071 1.92712 0
M  V30 5267 H 465.926 2.60087 3.2659 0
M  V30 5268 H 467.316 6.42626 1.96166 0
M  V30 5269 N 470.036 -0.519951 1.48776 0
M  V30 5270 C 470.983 -1.62352 1.64044 0
M  V30 5271 C 471.953 -1.58945 0.482251 0
M  V30 5272 O 473.138 -1.77219 0.706971 0
M  V30 5273 C 470.278 -3.00579 1.69547 0
M  V30 5274 C 469.391 -3.14145 2.96541 0
M  V30 5275 C 468.526 -4.42991 2.93142 0
M  V30 5276 C 467.565 -4.50122 4.14797 0
M  V30 5277 N 466.702 -5.7037 4.09418 0
M  V30 5278 H 471.542 -1.48643 2.58281 0
M  V30 5279 H 469.079 -0.723516 1.28077 0
M  V30 5280 H 471.037 -3.80671 1.70719 0
M  V30 5281 H 469.667 -3.13036 0.787918 0
M  V30 5282 H 468.719 -2.27239 3.05068 0
M  V30 5283 H 470.031 -3.15275 3.86527 0
M  V30 5284 H 469.185 -5.31385 2.92772 0
M  V30 5285 H 467.924 -4.44398 2.00902 0
M  V30 5286 H 466.929 -3.60133 4.15433 0
M  V30 5287 H 468.154 -4.50445 5.08208 0
M  V30 5288 H 466.1 -5.72655 3.20004 0
M  V30 5289 H 466.017 -5.73036 4.93119 0
M  V30 5290 H 467.285 -6.61023 4.13121 0
M  V30 5291 N 471.514 -1.37532 -0.769588 0
M  V30 5292 C 472.762 -1.32597 -1.5252 0
M  V30 5293 C 473.083 0.0884294 -1.94799 0
M  V30 5294 O 472.353 1.03289 -1.66458 0
M  V30 5295 H 470.933 -0.487846 -0.565699 0
M  V30 5296 H 473.595 -1.72044 -0.915806 0
M  V30 5297 H 472.691 -1.96643 -2.42359 0
M  V30 5298 N 472.992 0.995999 -1.22138 0
M  V30 5299 C 474.238 1.73767 -1.04561 0
M  V30 5300 C 474.571 1.89633 0.418698 0
M  V30 5301 O 473.846 1.43723 1.3105 0
M  V30 5302 C 474.129 3.14505 -1.75382 0
M  V30 5303 C 473.982 3.06306 -3.29388 0
M  V30 5304 C 475.301 4.13615 -1.50369 0
M  V30 5305 H 472.42 0.630728 -0.38125 0
M  V30 5306 H 475.062 1.16057 -1.50435 0
M  V30 5307 H 473.212 3.63775 -1.36383 0
M  V30 5308 H 474.884 2.64681 -3.77812 0
M  V30 5309 H 473.127 2.43186 -3.59226 0
M  V30 5310 H 473.798 4.05884 -3.74116 0
M  V30 5311 H 476.274 3.73089 -1.84239 0
M  V30 5312 H 475.15 5.10212 -2.02421 0
M  V30 5313 H 475.411 4.39949 -0.435611 0
M  V30 5314 N 474.47 1.03057 1.19235 0
M  V30 5315 C 475.886 0.747947 1.40989 0
M  V30 5316 C 476.086 -0.666752 1.90149 0
M  V30 5317 O 475.142 -1.43249 2.07933 0
M  V30 5318 C 476.455 1.7855 2.41951 0
M  V30 5319 C 478.003 1.80524 2.55695 0
M  V30 5320 C 478.478 2.83243 3.59913 0
M  V30 5321 N 479.969 2.8207 3.67411 0
M  V30 5322 C 480.704 3.58204 4.47747 0
M  V30 5323 N 480.2 4.44057 5.31775 0
M  V30 5324 N 481.993 3.46738 4.42413 0
M  V30 5325 H 474.144 1.94367 0.856468 0
M  V30 5326 H 476.407 0.840412 0.438647 0
M  V30 5327 H 476.113 2.79973 2.12857 0
M  V30 5328 H 475.987 1.6092 3.41152 0
M  V30 5329 H 478.374 0.79778 2.84112 0
M  V30 5330 H 478.455 2.02229 1.56643 0
M  V30 5331 H 478.099 3.84161 3.32239 0
M  V30 5332 H 478.029 2.58795 4.5862 0
M  V30 5333 H 480.52 2.19803 3.074 0
M  V30 5334 H 480.833 4.98884 5.90199 0
M  V30 5335 H 479.178 4.48129 5.3123 0
M  V30 5336 H 482.369 2.79077 3.75811 0
M  V30 5337 H 482.542 4.06322 5.04783 0
M  V30 5338 N 475.948 -1.35272 0.808662 0
M  V30 5339 C 476.88 -2.28507 0.178149 0
M  V30 5340 C 477.893 -1.50377 -0.623754 0
M  V30 5341 O 479.082 -1.72583 -0.455774 0
M  V30 5342 C 476.182 -3.30038 -0.769959 0
M  V30 5343 C 475.355 -4.37398 -0.0139749 0
M  V30 5344 C 474.414 -5.18775 -0.880875 0
M  V30 5345 O 473.44 -5.68236 -0.331059 0
M  V30 5346 N 474.642 -5.37087 -2.20267 0
M  V30 5347 H 477.407 -2.83255 0.979106 0
M  V30 5348 H 474.968 -1.47643 0.664308 0
M  V30 5349 H 476.96 -3.81371 -1.35418 0
M  V30 5350 H 475.53 -2.75789 -1.47171 0
M  V30 5351 H 474.75 -3.86971 0.751468 0
M  V30 5352 H 476.038 -5.06268 0.506965 0
M  V30 5353 H 475.436 -4.9855 -2.67328 0
M  V30 5354 H 473.993 -5.91593 -2.73608 0
M  V30 5355 N 477.426 -0.562348 -1.47226 0
M  V30 5356 C 478.373 0.182461 -2.30078 0
M  V30 5357 C 479.343 0.903503 -1.39377 0
M  V30 5358 O 480.528 0.898188 -1.68337 0
M  V30 5359 C 477.668 1.20322 -3.23445 0
M  V30 5360 C 476.781 0.487717 -4.29238 0
M  V30 5361 C 475.916 1.49422 -5.09752 0
M  V30 5362 C 474.955 0.763976 -6.07314 0
M  V30 5363 N 474.092 1.71755 -6.80768 0
M  V30 5364 H 478.932 -0.530169 -2.93246 0
M  V30 5365 H 476.469 -0.273276 -1.44539 0
M  V30 5366 H 478.427 1.80768 -3.76004 0
M  V30 5367 H 477.057 1.88382 -2.6213 0
M  V30 5368 H 476.109 -0.231374 -3.79696 0
M  V30 5369 H 477.421 -0.0841003 -4.98729 0
M  V30 5370 H 476.575 2.17206 -5.66486 0
M  V30 5371 H 475.314 2.09995 -4.40174 0
M  V30 5372 H 474.319 0.0722344 -5.49753 0
M  V30 5373 H 475.544 0.16391 -6.78902 0
M  V30 5374 H 473.49 2.31177 -6.13916 0
M  V30 5375 H 473.407 1.19802 -7.46447 0
M  V30 5376 H 474.675 2.38638 -7.42073 0
M  V30 5377 N 478.904 1.54736 -0.299062 0
M  V30 5378 C 480.32 1.59507 0.0543849 0
M  V30 5379 C 480.52 1.31606 1.52585 0
M  V30 5380 O 479.576 1.08853 2.27832 0
M  V30 5381 C 480.889 2.98751 -0.34181 0
M  V30 5382 C 482.437 3.1165 -0.290414 0
M  V30 5383 C 482.912 4.53199 -0.661402 0
M  V30 5384 N 484.403 4.59114 -0.613863 0
M  V30 5385 C 485.138 5.66709 -0.873417 0
M  V30 5386 N 484.634 6.82349 -1.19884 0
M  V30 5387 N 486.427 5.56369 -0.800608 0
M  V30 5388 H 478.578 1.71133 -1.25806 0
M  V30 5389 H 480.841 0.799186 -0.509908 0
M  V30 5390 H 480.547 3.24085 -1.36608 0
M  V30 5391 H 480.421 3.75961 0.305508 0
M  V30 5392 H 482.808 2.86066 0.724605 0
M  V30 5393 H 482.889 2.366 -0.972327 0
M  V30 5394 H 482.533 4.79513 -1.67422 0
M  V30 5395 H 482.463 5.26583 0.0425612 0
M  V30 5396 H 484.954 3.76053 -0.3732 0
M  V30 5397 H 485.267 7.60326 -1.38291 0
M  V30 5398 H 483.612 6.83906 -1.23685 0
M  V30 5399 H 486.803 4.64904 -0.546045 0
M  V30 5400 H 486.976 6.40139 -1.00626 0
M  V30 5401 N 480.382 0.0267497 1.57577 0
M  V30 5402 C 481.312 -0.954308 2.13108 0
M  V30 5403 C 482.293 -1.34088 1.04663 0
M  V30 5404 O 483.478 -1.41992 1.32484 0
M  V30 5405 C 480.608 -2.23744 2.65624 0
M  V30 5406 C 479.562 -1.99168 3.78835 0
M  V30 5407 C 478.888 -3.33726 4.17769 0
M  V30 5408 C 480.188 -1.33277 5.0501 0
M  V30 5409 H 481.882 -0.491848 2.95332 0
M  V30 5410 H 479.428 -0.23514 1.42067 0
M  V30 5411 H 481.381 -2.92754 3.03106 0
M  V30 5412 H 480.105 -2.72151 1.80558 0
M  V30 5413 H 478.764 -1.32577 3.41788 0
M  V30 5414 H 478.412 -3.79888 3.29688 0
M  V30 5415 H 478.112 -3.18089 4.94058 0
M  V30 5416 H 479.636 -4.04008 4.57832 0
M  V30 5417 H 481.05 -1.92283 5.40093 0
M  V30 5418 H 479.447 -1.28045 5.8628 0
M  V30 5419 H 480.517 -0.305411 4.83937 0
M  V30 5420 N 481.861 -1.55662 -0.24637 0
M  V30 5421 C 482.809 -1.91186 -1.3248 0
M  V30 5422 C 483.803 -0.790996 -1.49799 0
M  V30 5423 O 485.009 -0.975617 -1.51267 0
M  V30 5424 H 481.384 -0.607207 -0.443626 0
M  V30 5425 H 483.355 -2.81221 -0.997853 0
M  V30 5426 C 482.104 -2.22349 -2.67313 0
M  V30 5427 H 481.427 -3.08097 -2.54786 0
M  V30 5428 H 482.867 -2.51107 -3.41645 0
M  V30 5429 C 481.326 -1.04001 -3.20446 0
M  V30 5430 O 481.856 -0.28828 -4.00664 0
M  V30 5431 N 480.062 -0.830494 -2.7848 0
M  V30 5432 H 479.609 -1.4435 -2.13356 0
M  V30 5433 H 479.567 -0.0403258 -3.14374 0
M  V30 5434 N 483.339 0.512053 -1.4905 0
M  V30 5435 C 484.585 1.26874 -1.58212 0
M  V30 5436 C 484.918 1.9241 -0.263073 0
M  V30 5437 O 484.193 1.80181 0.732476 0
M  V30 5438 C 484.476 2.34428 -2.73341 0
M  V30 5439 C 484.329 1.73466 -4.15006 0
M  V30 5440 C 485.648 3.36073 -2.84154 0
M  V30 5441 H 482.767 0.459924 -0.575881 0
M  V30 5442 H 485.409 0.568587 -1.81293 0
M  V30 5443 H 483.559 2.94146 -2.53792 0
M  V30 5444 H 485.231 1.17661 -4.46042 0
M  V30 5445 H 483.474 1.03921 -4.21168 0
M  V30 5446 H 484.145 2.51426 -4.91415 0
M  V30 5447 H 486.621 2.86332 -3.01916 0
M  V30 5448 H 485.497 4.08703 -3.66406 0
M  V30 5449 H 485.758 3.97725 -1.93048 0
M  V30 5450 N 484.817 1.37938 0.762283 0
M  V30 5451 C 486.063 1.34873 1.52253 0
M  V30 5452 C 486.418 -0.0635972 1.92295 0
M  V30 5453 O 485.711 -1.02434 1.61919 0
M  V30 5454 C 485.905 2.23042 2.79261 0
M  V30 5455 C 485.734 3.72706 2.51635 0
M  V30 5456 C 484.504 4.41771 2.45289 0
M  V30 5457 C 486.702 4.65345 2.18994 0
M  V30 5458 N 484.684 5.76921 2.09846 0
M  V30 5459 C 486.055 5.88943 1.9377 0
M  V30 5460 C 488.11 4.53636 2.0523 0
M  V30 5461 C 486.813 7.02142 1.5617 0
M  V30 5462 C 488.839 5.6673 1.69031 0
M  V30 5463 C 488.201 6.89383 1.44673 0
M  V30 5464 H 484.3 0.548818 0.557067 0
M  V30 5465 H 486.884 1.73247 0.888458 0
M  V30 5466 H 485.055 1.8687 3.40491 0
M  V30 5467 H 486.787 2.11165 3.45241 0
M  V30 5468 H 483.542 3.94883 2.61465 0
M  V30 5469 H 483.966 6.4837 1.94794 0
M  V30 5470 H 488.608 3.5937 2.2274 0
M  V30 5471 H 486.326 7.96334 1.37399 0
M  V30 5472 H 489.912 5.59645 1.59026 0
M  V30 5473 H 488.792 7.75411 1.17079 0
M  V30 5474 N 486.295 -0.989507 1.22664 0
M  V30 5475 C 487.225 -2.09847 1.02404 0
M  V30 5476 C 488.206 -1.70007 -0.0561303 0
M  V30 5477 O 489.391 -1.93906 0.106748 0
M  V30 5478 C 486.521 -3.41996 0.604663 0
M  V30 5479 C 485.475 -3.95699 1.63115 0
M  V30 5480 C 484.801 -5.23936 1.0675 0
M  V30 5481 C 486.101 -4.25999 3.02196 0
M  V30 5482 H 487.795 -2.27054 1.95158 0
M  V30 5483 H 485.341 -1.09111 0.939727 0
M  V30 5484 H 487.294 -4.1899 0.45002 0
M  V30 5485 H 486.018 -3.24626 -0.35855 0
M  V30 5486 H 484.677 -3.2084 1.77362 0
M  V30 5487 H 484.325 -5.02909 0.0955422 0
M  V30 5488 H 484.025 -5.60833 1.75328 0
M  V30 5489 H 485.549 -6.0356 0.924516 0
M  V30 5490 H 486.963 -4.93777 2.91303 0
M  V30 5491 H 485.36 -4.74076 3.67929 0
M  V30 5492 H 486.43 -3.33636 3.51873 0
M  V30 5493 N 487.773 -1.03688 -1.18687 0
M  V30 5494 C 489.021 -0.736572 -1.88199 0
M  V30 5495 C 489.342 0.737665 -1.80509 0
M  V30 5496 O 488.612 1.53204 -1.22088 0
M  V30 5497 H 487.192 -0.269466 -0.696704 0
M  V30 5498 H 489.854 -1.31282 -1.44052 0
M  V30 5499 H 488.95 -1.03802 -2.94332 0
M  V30 5500 N 489.251 1.34841 -0.815825 0
M  V30 5501 C 490.5 1.97755 -0.396976 0
M  V30 5502 C 490.813 1.65422 1.04379 0
M  V30 5503 O 492.019 2.21771 1.5662 0
M  V30 5504 C 490.475 3.53818 -0.658869 0
M  V30 5505 C 490.083 3.95051 -2.11278 0
M  V30 5506 C 491.827 4.23397 -0.305834 0
M  V30 5507 C 489.734 5.43997 -2.31994 0
M  V30 5508 H 488.664 0.739985 -0.1447 0
M  V30 5509 H 491.315 1.53781 -1.00118 0
M  V30 5510 H 489.697 3.95997 0.0154112 0
M  V30 5511 H 490.871 3.63998 -2.82564 0
M  V30 5512 H 489.186 3.38388 -2.42657 0
M  V30 5513 H 491.783 5.32899 -0.43854 0
M  V30 5514 H 492.126 4.09508 0.748952 0
M  V30 5515 H 492.659 3.8667 -0.934403 0
M  V30 5516 H 489.398 5.62865 -3.35952 0
M  V30 5517 H 488.918 5.76589 -1.65244 0
M  V30 5518 H 490.597 6.10584 -2.14001 0
M  V30 5519 N 490.729 0.570148 1.46925 0
M  V30 5520 C 491.676 -0.170257 2.30171 0
M  V30 5521 C 492.646 -0.896099 1.39855 0
M  V30 5522 O 493.831 -0.889248 1.68811 0
M  V30 5523 C 490.971 -1.18605 3.24079 0
M  V30 5524 C 490.084 -0.464947 4.29491 0
M  V30 5525 C 489.219 -1.46716 5.10537 0
M  V30 5526 C 488.258 -0.731758 6.0771 0
M  V30 5527 N 487.395 -1.68142 6.81669 0
M  V30 5528 H 492.235 0.545713 2.92961 0
M  V30 5529 H 489.772 0.280938 1.44392 0
M  V30 5530 H 491.73 -1.78771 3.76957 0
M  V30 5531 H 490.36 -1.86989 2.63125 0
M  V30 5532 H 489.412 0.251506 3.79568 0
M  V30 5533 H 490.724 0.110548 4.98677 0
M  V30 5534 H 489.878 -2.14199 5.6763 0
M  V30 5535 H 488.617 -2.07658 4.41282 0
M  V30 5536 H 487.622 -0.0430787 5.49783 0
M  V30 5537 H 488.847 -0.127904 6.7898 0
M  V30 5538 H 486.793 -2.27918 6.15134 0
M  V30 5539 H 486.71 -1.15841 7.47072 0
M  V30 5540 H 487.978 -2.347 7.43328 0
M  V30 5541 N 492.207 -1.54576 0.307264 0
M  V30 5542 C 493.155 -2.25208 -0.581723 0
M  V30 5543 C 494.149 -1.26031 -1.13192 0
M  V30 5544 O 495.355 -1.43862 -1.08184 0
M  V30 5545 H 491.73 -0.723173 -0.206214 0
M  V30 5546 H 493.701 -2.98378 0.0364663 0
M  V30 5547 C 492.45 -3.01086 -1.73904 0
M  V30 5548 H 491.773 -3.77208 -1.32491 0
M  V30 5549 H 493.213 -3.5378 -2.33701 0
M  V30 5550 C 491.672 -2.08422 -2.64692 0
M  V30 5551 O 492.202 -1.65636 -3.65961 0
M  V30 5552 N 490.408 -1.74247 -2.32564 0
M  V30 5553 H 489.955 -2.09238 -1.50257 0
M  V30 5554 H 489.913 -1.12524 -2.93574 0
M  V30 5555 N 493.685 -0.035106 -1.57561 0
M  V30 5556 C 494.595 0.960295 -2.14046 0
M  V30 5557 C 495.611 1.3529 -1.0942 0
M  V30 5558 O 496.787 1.43309 -1.41508 0
M  V30 5559 C 493.852 2.22214 -2.66124 0
M  V30 5560 C 492.913 1.8894 -3.85487 0
M  V30 5561 C 492.146 3.09109 -4.35072 0
M  V30 5562 O 492.369 4.21963 -3.83802 0
M  V30 5563 O 491.303 2.91058 -5.26848 0
M  V30 5564 H 495.129 0.509983 -2.99387 0
M  V30 5565 H 492.714 0.185853 -1.48239 0
M  V30 5566 H 494.596 2.96279 -2.99661 0
M  V30 5567 H 493.271 2.66414 -1.83862 0
M  V30 5568 H 492.178 1.12241 -3.56865 0
M  V30 5569 H 493.511 1.49551 -4.6893 0
M  V30 5570 N 495.163 1.55791 0.238111 0
M  V30 5571 C 496.44 1.68798 0.98826 0
M  V30 5572 C 496.82 0.577562 2.03045 0
M  V30 5573 O 496.168 -0.41778 2.24648 0
M  V30 5574 C 496.378 3.09454 1.61367 0
M  V30 5575 C 497.726 3.68335 2.11221 0
M  V30 5576 O 498.75 3.1231 1.71292 0
M  V30 5577 O 497.609 4.6657 2.84561 0
M  V30 5578 H 494.703 0.686881 0.460568 0
M  V30 5579 H 497.249 1.68118 0.231202 0
M  V30 5580 H 496.021 3.81726 0.860295 0
M  V30 5581 H 495.644 3.14182 2.4367 0
M  V30 5582 N 496.642 -0.504142 1.49319 0
M  V30 5583 C 497.605 -1.5883 1.65244 0
M  V30 5584 C 498.605 -1.52009 0.524386 0
M  V30 5585 O 499.795 -1.55218 0.79077 0
M  V30 5586 C 496.927 -2.98481 1.64687 0
M  V30 5587 H 498.12 -1.4604 2.61939 0
M  V30 5588 H 495.673 -0.728144 1.38303 0
M  V30 5589 H 496.408 -3.16751 0.695644 0
M  V30 5590 H 496.193 -3.0484 2.46607 0
M  V30 5591 H 497.683 -3.77256 1.79075 0
M  V30 5592 N 498.12 -1.38341 -0.754957 0
M  V30 5593 C 499.397 -1.24995 -1.50451 0
M  V30 5594 C 499.777 0.149244 -2.10572 0
M  V30 5595 O 499.125 1.15861 -1.96948 0
M  V30 5596 C 499.335 -2.35904 -2.57197 0
M  V30 5597 C 500.683 -2.74262 -3.24138 0
M  V30 5598 O 501.707 -2.35205 -2.67501 0
M  V30 5599 O 500.566 -3.4161 -4.26574 0
M  V30 5600 H 497.66 -0.48872 -0.667144 0
M  V30 5601 H 500.206 -1.50165 -0.790486 0
M  V30 5602 H 498.978 -3.2953 -2.11011 0
M  V30 5603 H 498.601 -2.12291 -3.36182 0
M  V30 5604 N 499.598 0.982988 -1.23187 0
M  V30 5605 C 500.508 2.10907 -1.02739 0
M  V30 5606 C 501.524 1.73979 0.0273188 0
M  V30 5607 O 502.7 2.00702 -0.16757 0
M  V30 5608 C 499.765 3.41142 -0.618304 0
M  V30 5609 C 498.826 3.92112 -1.74777 0
M  V30 5610 C 498.059 5.16131 -1.3581 0
M  V30 5611 O 498.282 5.6989 -0.241201 0
M  V30 5612 O 497.216 5.61103 -2.17824 0
M  V30 5613 H 501.042 2.31046 -1.97108 0
M  V30 5614 H 498.627 1.09284 -1.01869 0
M  V30 5615 H 500.509 4.19488 -0.400982 0
M  V30 5616 H 499.184 3.2234 0.296421 0
M  V30 5617 H 498.091 3.14895 -2.0197 0
M  V30 5618 H 499.424 4.15364 -2.64071 0
M  V30 5619 N 501.076 1.04316 1.18135 0
M  V30 5620 C 502.024 0.630175 2.23901 0
M  V30 5621 C 503.018 -0.344254 1.65865 0
M  V30 5622 O 504.224 -0.211273 1.78756 0
M  V30 5623 H 500.599 0.185578 0.728742 0
M  V30 5624 H 502.57 1.53253 2.56039 0
M  V30 5625 C 501.319 0.011666 3.47698 0
M  V30 5626 H 500.642 0.752526 3.92654 0
M  V30 5627 H 502.082 -0.240046 4.2332 0
M  V30 5628 C 500.541 -1.23913 3.13285 0
M  V30 5629 O 501.071 -2.32959 3.27251 0
M  V30 5630 N 499.277 -1.13338 2.67587 0
M  V30 5631 H 498.824 -0.246006 2.56423 0
M  V30 5632 H 498.782 -1.97116 2.44934 0
M  V30 5633 N 502.554 -1.34406 0.822964 0
M  V30 5634 C 503.784 -2.02214 0.423424 0
M  V30 5635 C 504.192 -1.62124 -0.975322 0
M  V30 5636 O 503.535 -0.822452 -1.6426 0
M  V30 5637 C 503.597 -3.56721 0.446107 0
M  V30 5638 C 503.261 -4.20136 1.79819 0
M  V30 5639 C 504.258 -4.4065 2.75904 0
M  V30 5640 C 501.943 -4.56906 2.08669 0
M  V30 5641 C 503.937 -4.9706 3.99012 0
M  V30 5642 C 501.624 -5.13026 3.32036 0
M  V30 5643 C 502.622 -5.33047 4.27024 0
M  V30 5644 O 502.31 -5.87979 5.48211 0
M  V30 5645 H 502.042 -0.654748 0.168169 0
M  V30 5646 H 504.596 -1.72659 1.11257 0
M  V30 5647 H 502.826 -3.85537 -0.299734 0
M  V30 5648 H 504.515 -4.05845 0.0666114 0
M  V30 5649 H 505.281 -4.12607 2.54912 0
M  V30 5650 H 501.16 -4.40626 1.35535 0
M  V30 5651 H 504.704 -5.12603 4.73164 0
M  V30 5652 H 500.601 -5.40498 3.52891 0
M  V30 5653 H 501.369 -6.06413 5.49732 0
M  V30 5654 N 504.032 -0.577932 -1.46621 0
M  V30 5655 C 505.279 -0.0616879 -2.02406 0
M  V30 5656 C 505.607 1.29638 -1.44997 0
M  V30 5657 O 504.862 1.86176 -0.60308 0
M  V30 5658 C 505.161 0.0590832 -3.57351 0
M  V30 5659 C 504.827 -1.23077 -4.33777 0
M  V30 5660 C 503.489 -1.58416 -4.54376 0
M  V30 5661 C 505.841 -2.08457 -4.77698 0
M  V30 5662 C 503.169 -2.78943 -5.16147 0
M  V30 5663 C 505.521 -3.28204 -5.408 0
M  V30 5664 C 504.185 -3.63832 -5.59627 0
M  V30 5665 H 503.455 -0.0225732 -0.740656 0
M  V30 5666 H 506.102 -0.753609 -1.76048 0
M  V30 5667 H 504.407 0.834104 -3.82818 0
M  V30 5668 H 506.104 0.474202 -3.98186 0
M  V30 5669 H 502.694 -0.945652 -4.18038 0
M  V30 5670 H 506.878 -1.82459 -4.61544 0
M  V30 5671 H 502.134 -3.06689 -5.28916 0
M  V30 5672 H 506.308 -3.94634 -5.73792 0
M  V30 5673 H 503.935 -4.57315 -6.07262 0
M  V30 5674 N 505.51 1.54411 -0.315457 0
M  V30 5675 C 506.759 1.99599 0.290395 0
M  V30 5676 C 507.072 1.20746 1.53882 0
M  V30 5677 O 508.278 1.56272 2.22017 0
M  V30 5678 C 506.734 3.5539 0.56797 0
M  V30 5679 C 506.342 4.43068 -0.662945 0
M  V30 5680 C 508.086 4.09067 1.13422 0
M  V30 5681 C 505.993 5.90317 -0.357722 0
M  V30 5682 H 504.923 0.745592 0.112286 0
M  V30 5683 H 507.574 1.78477 -0.426418 0
M  V30 5684 H 505.956 3.72468 1.34476 0
M  V30 5685 H 507.13 4.37765 -1.43869 0
M  V30 5686 H 505.445 4.00238 -1.14884 0
M  V30 5687 H 508.042 5.16663 1.37707 0
M  V30 5688 H 508.385 3.60552 2.08106 0
M  V30 5689 H 508.918 3.95589 0.418805 0
M  V30 5690 H 505.657 6.4301 -1.27351 0
M  V30 5691 H 505.177 5.98592 0.380472 0
M  V30 5692 H 506.856 6.4699 0.0354284 0
M  V30 5693 N 506.988 0.0434614 1.5754 0
M  V30 5694 C 507.936 -0.951465 2.1225 0
M  V30 5695 C 508.93 -1.3274 1.05245 0
M  V30 5696 O 510.136 -1.30795 1.23663 0
M  V30 5697 H 506.511 -0.324667 0.678303 0
M  V30 5698 H 508.482 -0.464855 2.94757 0
M  V30 5699 C 507.231 -2.21972 2.67626 0
M  V30 5700 H 506.554 -1.93923 3.4962 0
M  V30 5701 H 507.994 -2.89765 3.09536 0
M  V30 5702 C 506.453 -2.95919 1.61038 0
M  V30 5703 O 506.983 -3.8857 1.01862 0
M  V30 5704 N 505.189 -2.58511 1.32741 0
M  V30 5705 H 504.736 -1.83244 1.81051 0
M  V30 5706 H 504.694 -3.08296 0.616531 0
M  V30 5707 N 508.466 -1.55915 -0.229846 0
M  V30 5708 C 509.376 -1.94891 -1.30593 0
M  V30 5709 C 510.392 -0.851604 -1.51736 0
M  V30 5710 O 511.568 -1.15447 -1.65027 0
M  V30 5711 C 508.633 -2.25052 -2.63728 0
M  V30 5712 C 507.694 -3.48306 -2.5096 0
M  V30 5713 C 506.927 -3.77019 -3.77747 0
M  V30 5714 O 507.15 -3.07534 -4.80395 0
M  V30 5715 O 506.084 -4.70523 -3.75356 0
M  V30 5716 H 509.91 -2.86581 -1.00525 0
M  V30 5717 H 507.495 -1.43017 -0.432025 0
M  V30 5718 H 509.377 -2.45682 -3.42372 0
M  V30 5719 H 508.052 -1.36538 -2.93495 0
M  V30 5720 H 506.959 -3.32964 -1.70546 0
M  V30 5721 H 508.292 -4.37177 -2.26136 0
M  V30 5722 N 509.944 0.496216 -1.49584 0
M  V30 5723 C 510.854 1.62352 -1.69349 0
M  V30 5724 C 511.87 1.64184 -0.576147 0
M  V30 5725 O 513.046 1.82517 -0.85144 0
M  V30 5726 C 510.111 2.98698 -1.76013 0
M  V30 5727 C 509.172 3.07454 -2.99617 0
M  V30 5728 C 508.405 4.37296 -3.05953 0
M  V30 5729 O 508.628 5.2637 -2.19752 0
M  V30 5730 O 507.562 4.51124 -3.9846 0
M  V30 5731 H 511.388 1.48606 -2.64859 0
M  V30 5732 H 508.973 0.673022 -1.33382 0
M  V30 5733 H 510.855 3.79725 -1.82721 0
M  V30 5734 H 509.53 3.12696 -0.836828 0
M  V30 5735 H 508.437 2.25597 -2.98424 0
M  V30 5736 H 509.77 2.98385 -3.91443 0
M  V30 5737 N 511.423 1.38739 0.74761 0
M  V30 5738 C 512.7 1.25791 1.49786 0
M  V30 5739 C 513.08 -0.138075 2.10648 0
M  V30 5740 O 512.428 -1.14815 1.9756 0
M  V30 5741 C 512.638 2.37265 2.55942 0
M  V30 5742 C 513.986 2.75978 3.22679 0
M  V30 5743 O 515.01 2.36621 2.6625 0
M  V30 5744 O 513.869 3.43867 4.24756 0
M  V30 5745 H 510.963 0.492251 0.664543 0
M  V30 5746 H 513.509 1.50582 0.782511 0
M  V30 5747 H 512.281 3.30644 2.0926 0
M  V30 5748 H 511.904 2.14071 3.35051 0
M  V30 5749 N 512.901 -0.976442 1.23707 0
M  V30 5750 C 513.811 -2.10359 1.03856 0
M  V30 5751 C 514.827 -1.73991 -0.0180919 0
M  V30 5752 O 516.003 -2.0061 0.178211 0
M  V30 5753 C 513.068 -3.40809 0.636387 0
M  V30 5754 C 512.129 -3.91179 1.76854 0
M  V30 5755 C 511.362 -5.15404 1.38546 0
M  V30 5756 O 511.585 -5.69754 0.27142 0
M  V30 5757 O 510.519 -5.5994 2.20797 0
M  V30 5758 H 514.345 -2.29997 1.98331 0
M  V30 5759 H 511.93 -1.08742 1.02448 0
M  V30 5760 H 513.812 -4.19269 0.423223 0
M  V30 5761 H 512.487 -3.22493 -0.279322 0
M  V30 5762 H 511.394 -3.13819 2.03638 0
M  V30 5763 H 512.727 -4.13958 2.6627 0
M  V30 5764 N 514.379 -1.04941 -1.1758 0
M  V30 5765 C 515.327 -0.64204 -2.23563 0
M  V30 5766 C 516.321 0.335453 -1.66045 0
M  V30 5767 O 517.527 0.20179 -1.78865 0
M  V30 5768 H 513.902 -0.18944 -0.727748 0
M  V30 5769 H 515.873 -1.54609 -2.55223 0
M  V30 5770 C 514.622 -0.0301051 -3.47687 0
M  V30 5771 H 513.945 -0.773339 -3.92249 0
M  V30 5772 H 515.385 0.217592 -4.23441 0
M  V30 5773 C 513.844 1.2225 -3.13937 0
M  V30 5774 O 514.374 2.3122 -3.28482 0
M  V30 5775 N 512.58 1.11917 -2.68185 0
M  V30 5776 H 512.127 0.232403 -2.5655 0
M  V30 5777 H 512.085 1.95814 -2.45976 0
M  V30 5778 N 515.857 1.33968 -0.830081 0
M  V30 5779 C 516.787 2.31911 -0.271911 0
M  V30 5780 C 517.768 1.58571 0.61556 0
M  V30 5781 O 518.953 1.86514 0.540946 0
M  V30 5782 C 516.083 3.42737 0.561146 0
M  V30 5783 C 515.037 4.27383 -0.229789 0
M  V30 5784 C 514.363 5.29742 0.726463 0
M  V30 5785 C 515.663 5.02 -1.44197 0
M  V30 5786 H 517.357 2.78844 -1.09025 0
M  V30 5787 H 514.903 1.34061 -0.52571 0
M  V30 5788 H 516.856 4.10276 0.961867 0
M  V30 5789 H 515.58 2.94471 1.41261 0
M  V30 5790 H 514.239 3.61456 -0.611964 0
M  V30 5791 H 513.887 4.77736 1.57408 0
M  V30 5792 H 513.587 5.87255 0.20142 0
M  V30 5793 H 515.111 6.00149 1.12489 0
M  V30 5794 H 516.525 5.62355 -1.11488 0
M  V30 5795 H 514.922 5.69122 -1.90317 0
M  V30 5796 H 515.992 4.31281 -2.2164 0
M  V30 5797 N 517.335 0.585699 1.46312 0
M  V30 5798 C 518.746 0.159938 1.86014 0
M  V30 5799 C 519.097 -1.27775 1.48889 0
M  V30 5800 O 518.222 -1.96559 0.90519 0
M  V30 5801 C 518.817 0.283485 3.37612 0
M  V30 5802 C 517.376 -0.0874256 3.76298 0
M  V30 5803 C 516.523 0.618055 2.70325 0
M  V30 5804 H 519.474 0.793737 1.37425 0
M  V30 5805 H 519.495 -0.490348 3.77327 0
M  V30 5806 H 519.007 1.32995 3.64601 0
M  V30 5807 H 517.108 -1.13391 3.54927 0
M  V30 5808 H 517.221 0.290975 4.78216 0
M  V30 5809 H 515.585 0.057993 2.54634 0
M  V30 5810 H 516.368 1.66623 3.00153 0
M  V30 5811 N 518.813 -1.54241 0.323641 0
M  V30 5812 C 519.763 -2.21071 -0.557833 0
M  V30 5813 C 520.747 -1.19126 -1.08157 0
M  V30 5814 O 521.939 -1.44755 -1.01857 0
M  V30 5815 C 519.068 -2.97208 -1.71821 0
M  V30 5816 C 518.154 -4.06491 -1.20936 0
M  V30 5817 N 518.545 -5.04052 -0.420202 0
M  V30 5818 C 516.843 -4.20443 -1.48808 0
M  V30 5819 C 517.544 -5.81516 -0.146413 0
M  V30 5820 N 516.52 -5.38641 -0.732562 0
M  V30 5821 H 520.322 -2.93853 0.0523921 0
M  V30 5822 H 517.836 -1.61883 0.129502 0
M  V30 5823 H 519.833 -3.4357 -2.36146 0
M  V30 5824 H 518.493 -2.25947 -2.33191 0
M  V30 5825 H 519.504 -5.17862 -0.0630401 0
M  V30 5826 H 516.181 -3.60396 -2.10762 0
M  V30 5827 H 517.571 -6.70119 0.488895 0
M  V30 5828 N 520.291 -0.0518155 -1.57515 0
M  V30 5829 C 521.521 0.63048 -1.96745 0
M  V30 5830 C 521.929 1.64875 -0.928054 0
M  V30 5831 O 521.272 1.83449 0.0960678 0
M  V30 5832 C 521.334 1.37381 -3.32215 0
M  V30 5833 C 520.998 0.511298 -4.54131 0
M  V30 5834 C 521.995 -0.222884 -5.19422 0
M  V30 5835 C 519.68 0.442035 -5.00351 0
M  V30 5836 C 521.674 -1.01476 -6.2927 0
M  V30 5837 C 519.361 -0.35353 -6.10077 0
M  V30 5838 C 520.359 -1.08062 -6.74397 0
M  V30 5839 O 520.047 -1.8631 -7.82013 0
M  V30 5840 H 519.779 0.177126 -0.652382 0
M  V30 5841 H 522.333 -0.114726 -2.05079 0
M  V30 5842 H 520.563 2.16466 -3.20436 0
M  V30 5843 H 522.252 1.9464 -3.56188 0
M  V30 5844 H 523.018 -0.178846 -4.8467 0
M  V30 5845 H 518.897 0.997562 -4.50077 0
M  V30 5846 H 522.441 -1.58279 -6.79407 0
M  V30 5847 H 518.338 -0.399205 -6.44264 0
M  V30 5848 H 519.106 -1.78528 -7.98793 0
M  V30 5849 N 521.769 1.56035 0.221574 0
M  V30 5850 C 523.046 1.69837 0.970301 0
M  V30 5851 C 523.426 0.599065 2.02421 0
M  V30 5852 O 522.774 -0.393929 2.25079 0
M  V30 5853 C 522.984 3.11148 1.58076 0
M  V30 5854 C 524.332 3.70555 2.07302 0
M  V30 5855 O 525.356 3.14109 1.6797 0
M  V30 5856 O 524.215 4.69562 2.79596 0
M  V30 5857 H 521.309 0.691727 0.453257 0
M  V30 5858 H 523.855 1.68353 0.213358 0
M  V30 5859 H 522.627 3.82617 0.819759 0
M  V30 5860 H 522.25 3.16749 2.40324 0
M  V30 5861 N 523.247 -0.488276 1.49845 0
M  V30 5862 C 524.157 -1.61451 1.70207 0
M  V30 5863 C 525.173 -1.63877 0.584846 0
M  V30 5864 O 526.349 -1.82063 0.861107 0
M  V30 5865 C 523.414 -2.9776 1.77594 0
M  V30 5866 C 522.475 -3.05861 3.01243 0
M  V30 5867 C 521.708 -4.35668 3.08268 0
M  V30 5868 O 521.931 -5.25197 2.22541 0
M  V30 5869 O 520.865 -4.49005 4.00847 0
M  V30 5870 H 524.691 -1.47199 2.65643 0
M  V30 5871 H 522.276 -0.665939 1.33737 0
M  V30 5872 H 524.158 -3.7875 1.84732 0
M  V30 5873 H 522.833 -3.12248 0.8534 0
M  V30 5874 H 521.74 -2.24012 2.99616 0
M  V30 5875 H 523.073 -2.96304 3.9302 0
M  V30 5876 N 524.725 -1.39134 -0.740242 0
M  V30 5877 C 525.672 -1.37434 -1.8542 0
M  V30 5878 C 526.642 -0.234822 -1.64432 0
M  V30 5879 O 527.827 -0.429125 -1.85912 0
M  V30 5880 C 524.967 -1.21844 -3.22875 0
M  V30 5881 C 524.08 -2.45296 -3.55603 0
M  V30 5882 C 523.215 -2.22334 -4.82432 0
M  V30 5883 C 522.254 -3.41488 -5.07988 0
M  V30 5884 N 521.391 -3.17877 -6.26018 0
M  V30 5885 H 526.231 -2.3266 -1.86207 0
M  V30 5886 H 523.768 -1.15578 -0.909946 0
M  V30 5887 H 525.726 -1.10818 -4.02213 0
M  V30 5888 H 524.356 -0.3025 -3.21379 0
M  V30 5889 H 523.408 -2.66945 -2.71006 0
M  V30 5890 H 524.72 -3.34063 -3.7041 0
M  V30 5891 H 523.874 -2.0852 -5.69741 0
M  V30 5892 H 522.613 -1.30954 -4.6979 0
M  V30 5893 H 521.618 -3.55807 -4.19144 0
M  V30 5894 H 522.843 -4.33763 -5.22519 0
M  V30 5895 H 520.789 -2.29156 -6.14673 0
M  V30 5896 H 520.706 -4.00198 -6.41387 0
M  V30 5897 H 521.974 -3.07746 -7.16179 0
M  V30 5898 N 526.204 0.969867 -1.24223 0
M  V30 5899 C 527.432 1.74756 -1.10761 0
M  V30 5900 C 527.847 1.85713 0.340041 0
M  V30 5901 O 527.204 1.34389 1.23474 0
M  V30 5902 C 527.255 3.16915 -1.73917 0
M  V30 5903 O 526.976 3.06511 -3.13021 0
M  V30 5904 C 528.477 4.11032 -1.66036 0
M  V30 5905 H 525.697 0.548092 -0.387087 0
M  V30 5906 H 528.241 1.2178 -1.64286 0
M  V30 5907 H 526.396 3.66884 -1.244 0
M  V30 5908 H 526.81 3.96079 -3.43834 0
M  V30 5909 H 528.284 5.08446 -2.14911 0
M  V30 5910 H 528.761 4.34785 -0.621159 0
M  V30 5911 H 529.367 3.66972 -2.14969 0
M  V30 5912 N 527.682 1.05563 1.17022 0
M  V30 5913 C 528.928 0.778872 1.87897 0
M  V30 5914 C 529.283 -0.686839 1.79723 0
M  V30 5915 O 528.576 -1.49612 1.19694 0
M  V30 5916 C 528.77 1.19849 3.36706 0
M  V30 5917 C 528.599 2.70345 3.59366 0
M  V30 5918 C 527.369 3.37707 3.75875 0
M  V30 5919 C 529.567 3.68564 3.58699 0
M  V30 5920 N 527.549 4.7703 3.86414 0
M  V30 5921 C 528.92 4.93634 3.75134 0
M  V30 5922 C 530.975 3.6198 3.4187 0
M  V30 5923 C 529.678 6.12907 3.76481 0
M  V30 5924 C 531.704 4.80697 3.44507 0
M  V30 5925 C 531.066 6.04592 3.61453 0
M  V30 5926 H 527.165 0.337297 0.705517 0
M  V30 5927 H 529.749 1.34832 1.40458 0
M  V30 5928 H 527.92 0.656958 3.82804 0
M  V30 5929 H 529.652 0.871172 3.95212 0
M  V30 5930 H 526.407 2.88108 3.75887 0
M  V30 5931 H 526.831 5.49483 3.95471 0
M  V30 5932 H 531.473 2.67154 3.27702 0
M  V30 5933 H 529.191 7.08073 3.89432 0
M  V30 5934 H 532.777 4.77259 3.32738 0
M  V30 5935 H 531.657 6.94916 3.63403 0
M  V30 5936 N 529.16 -1.33526 0.837174 0
M  V30 5937 C 530.407 -1.97837 0.432064 0
M  V30 5938 C 530.735 -1.66324 -1.00829 0
M  V30 5939 O 529.99 -0.93448 -1.71948 0
M  V30 5940 C 530.289 -3.52367 0.597675 0
M  V30 5941 C 529.955 -4.03826 2.00587 0
M  V30 5942 C 528.617 -4.1759 2.39106 0
M  V30 5943 C 530.969 -4.31333 2.92576 0
M  V30 5944 C 528.297 -4.56195 3.68921 0
M  V30 5945 C 530.649 -4.7139 4.2187 0
M  V30 5946 C 529.313 -4.8336 4.60347 0
M  V30 5947 H 528.583 -0.723937 0.158104 0
M  V30 5948 H 531.23 -1.5923 1.06387 0
M  V30 5949 H 529.535 -3.91624 -0.117452 0
M  V30 5950 H 531.232 -4.00126 0.26454 0
M  V30 5951 H 527.822 -3.93586 1.69671 0
M  V30 5952 H 532.006 -4.20224 2.64056 0
M  V30 5953 H 527.262 -4.63655 3.9854 0
M  V30 5954 H 531.436 -4.91631 4.93226 0
M  V30 5955 H 529.063 -5.1303 5.60985 0
M  V30 5956 N 530.638 -0.59345 -1.46 0
M  V30 5957 C 531.884 -0.0832754 -2.02629 0
M  V30 5958 C 532.217 1.27749 -1.46266 0
M  V30 5959 O 531.492 1.8395 -0.631866 0
M  V30 5960 C 531.775 -0.0290756 -3.60088 0
M  V30 5961 C 531.628 -1.41951 -4.26814 0
M  V30 5962 C 532.947 0.666055 -4.35031 0
M  V30 5963 H 530.066 -0.031736 -0.736316 0
M  V30 5964 H 532.708 -0.762711 -1.74019 0
M  V30 5965 H 530.858 0.549532 -3.84594 0
M  V30 5966 H 532.53 -2.04411 -4.13538 0
M  V30 5967 H 530.773 -1.98422 -3.8576 0
M  V30 5968 H 531.444 -1.33395 -5.3564 0
M  V30 5969 H 533.92 0.174401 -4.15734 0
M  V30 5970 H 532.796 0.673041 -5.44758 0
M  V30 5971 H 533.057 1.72946 -4.06869 0
M  V30 5972 N 532.116 1.54067 -0.331816 0
M  V30 5973 C 533.026 2.28322 0.539104 0
M  V30 5974 C 534.042 1.32985 1.1221 0
M  V30 5975 O 535.218 1.6601 1.1403 0
M  V30 5976 C 532.283 3.03277 1.68 0
M  V30 5977 C 531.344 4.14216 1.12798 0
M  V30 5978 C 530.577 4.85588 2.2145 0
M  V30 5979 O 530.8 4.56536 3.41952 0
M  V30 5980 O 529.734 5.72309 1.86404 0
M  V30 5981 H 533.56 3.03632 -0.0641692 0
M  V30 5982 H 531.145 1.49083 -0.0972365 0
M  V30 5983 H 533.027 3.50189 2.34405 0
M  V30 5984 H 531.702 2.30834 2.2693 0
M  V30 5985 H 530.609 3.71635 0.428782 0
M  V30 5986 H 531.942 4.88727 0.583698 0
M  V30 5987 N 533.594 0.0601682 1.57485 0
M  V30 5988 C 534.871 -0.651956 1.84415 0
M  V30 5989 C 535.251 -1.88498 0.950361 0
M  V30 5990 O 534.599 -2.28496 0.0136719 0
M  V30 5991 C 534.809 -1.00069 3.34346 0
M  V30 5992 C 536.157 -1.37915 4.01578 0
M  V30 5993 O 537.181 -1.09277 3.39024 0
M  V30 5994 O 536.04 -1.91399 5.11887 0
M  V30 5995 H 533.134 -0.322668 0.761455 0
M  V30 5996 H 535.68 0.0902159 1.6946 0
M  V30 5997 H 534.452 -0.124463 3.91102 0
M  V30 5998 H 534.075 -1.80001 3.54521 0
M  V30 5999 N 535.072 -1.5615 -0.213296 0
M  V30 6000 C 536.321 -1.78743 -0.93455 0
M  V30 6001 C 536.634 -0.630199 -1.8517 0
M  V30 6002 O 537.84 -0.739966 -2.61222 0
M  V30 6003 C 536.296 -3.16571 -1.71203 0
M  V30 6004 C 535.904 -4.40043 -0.840617 0
M  V30 6005 C 537.648 -3.48485 -2.42401 0
M  V30 6006 C 535.555 -5.68895 -1.61592 0
M  V30 6007 H 534.485 -0.666426 -0.352692 0
M  V30 6008 H 537.136 -1.82532 -0.188227 0
M  V30 6009 H 535.518 -3.06981 -2.50157 0
M  V30 6010 H 536.692 -4.6071 -0.0910326 0
M  V30 6011 H 535.007 -4.15706 -0.240365 0
M  V30 6012 H 537.604 -4.41983 -3.00924 0
M  V30 6013 H 537.947 -2.71371 -3.15695 0
M  V30 6014 H 538.48 -3.59442 -1.7043 0
M  V30 6015 H 535.219 -6.48925 -0.926106 0
M  V30 6016 H 534.739 -5.52275 -2.33991 0
M  V30 6017 H 536.418 -6.09365 -2.17447 0
M  V30 6018 N 536.55 0.480323 -1.50102 0
M  V30 6019 C 537.498 1.60024 -1.68805 0
M  V30 6020 C 538.492 1.60089 -0.553888 0
M  V30 6021 O 539.698 1.64349 -0.734127 0
M  V30 6022 H 536.073 0.530841 -0.532646 0
M  V30 6023 H 538.044 1.41408 -2.62767 0
M  V30 6024 C 536.793 2.98029 -1.79092 0
M  V30 6025 H 536.116 2.98694 -2.65748 0
M  V30 6026 H 537.556 3.75871 -1.96206 0
M  V30 6027 C 536.015 3.32538 -0.540388 0
M  V30 6028 O 536.545 4.00386 0.324637 0
M  V30 6029 N 534.751 2.87873 -0.397154 0
M  V30 6030 H 534.298 2.32834 -1.1021 0
M  V30 6031 H 534.256 3.11328 0.438425 0
M  V30 6032 N 538.028 1.39524 0.732853 0
M  V30 6033 C 539.444 1.21176 1.03868 0
M  V30 6034 C 539.644 0.0748448 2.01361 0
M  V30 6035 O 538.7 -0.57281 2.45917 0
M  V30 6036 C 540.013 2.54667 1.59892 0
M  V30 6037 C 541.561 2.6153 1.71962 0
M  V30 6038 C 542.036 3.95248 2.31394 0
M  V30 6039 N 543.527 3.96899 2.38801 0
M  V30 6040 C 544.262 4.97138 2.85729 0
M  V30 6041 N 543.758 6.07775 3.32537 0
M  V30 6042 N 545.551 4.84516 2.84957 0
M  V30 6043 H 537.702 2.12225 0.086304 0
M  V30 6044 H 539.965 0.942614 0.100907 0
M  V30 6045 H 539.671 3.38423 0.95721 0
M  V30 6046 H 539.545 2.74538 2.58668 0
M  V30 6047 H 541.932 1.78156 2.35254 0
M  V30 6048 H 542.013 2.45507 0.718327 0
M  V30 6049 H 541.657 4.79054 1.68729 0
M  V30 6050 H 541.587 4.08593 3.32204 0
M  V30 6051 H 544.078 3.16998 2.05719 0
M  V30 6052 H 544.391 6.8017 3.66862 0
M  V30 6053 H 542.736 6.11366 3.30541 0
M  V30 6054 H 545.927 3.97185 2.47713 0
M  V30 6055 H 546.1 5.62783 3.21215 0
M  V30 6056 N 539.506 -0.963266 1.24736 0
M  V30 6057 C 540.752 -1.70933 1.09131 0
M  V30 6058 C 541.085 -1.90676 -0.368273 0
M  V30 6059 O 540.36 -1.47147 -1.27193 0
M  V30 6060 C 540.643 -3.09744 1.83658 0
M  V30 6061 C 540.496 -2.97465 3.37394 0
M  V30 6062 C 541.815 -4.09483 1.61282 0
M  V30 6063 H 538.934 -0.620398 0.397838 0
M  V30 6064 H 541.576 -1.12028 1.53459 0
M  V30 6065 H 539.726 -3.60031 1.4598 0
M  V30 6066 H 541.398 -2.54571 3.84696 0
M  V30 6067 H 539.641 -2.33576 3.65547 0
M  V30 6068 H 540.312 -3.95822 3.84745 0
M  V30 6069 H 542.788 -3.68073 1.94066 0
M  V30 6070 H 541.664 -5.04666 2.15878 0
M  V30 6071 H 541.925 -4.38639 0.552102 0
M  V30 6072 N 540.985 -1.06182 -1.16461 0
M  V30 6073 C 541.917 -0.629584 -2.20383 0
M  V30 6074 C 542.93 0.311834 -1.59786 0
M  V30 6075 O 544.119 0.103 -1.78203 0
M  V30 6076 C 541.219 0.0973695 -3.3876 0
M  V30 6077 C 540.392 -0.857252 -4.28917 0
M  V30 6078 C 539.451 -0.169749 -5.25926 0
M  V30 6079 O 538.477 -0.807044 -5.6345 0
M  V30 6080 N 539.679 1.08911 -5.70192 0
M  V30 6081 H 542.444 -1.52352 -2.58087 0
M  V30 6082 H 540.005 -0.944993 -1.31459 0
M  V30 6083 H 541.997 0.567676 -4.00699 0
M  V30 6084 H 540.567 0.893093 -2.99571 0
M  V30 6085 H 539.787 -1.50696 -3.64259 0
M  V30 6086 H 541.075 -1.50489 -4.86035 0
M  V30 6087 H 540.473 1.62703 -5.41797 0
M  V30 6088 H 539.03 1.50331 -6.34227 0
M  V30 6089 N 542.463 1.3308 -0.844243 0
M  V30 6090 C 543.426 2.27403 -0.286485 0
M  V30 6091 C 544.426 1.51179 0.547872 0
M  V30 6092 O 545.616 1.70421 0.360886 0
M  V30 6093 C 542.748 3.35653 0.595813 0
M  V30 6094 H 543.941 2.78248 -1.11885 0
M  V30 6095 H 541.494 1.43574 -0.617749 0
M  V30 6096 H 542.229 2.90058 1.4504 0
M  V30 6097 H 542.014 3.921 -0.00125994 0
M  V30 6098 H 543.504 4.05958 0.979168 0
M  V30 6099 N 543.941 0.601185 1.45683 0
M  V30 6100 C 544.851 -0.123395 2.34275 0
M  V30 6101 C 545.867 -0.86702 1.5086 0
M  V30 6102 O 547.043 -0.826049 1.8368 0
M  V30 6103 C 544.108 -1.11237 3.2837 0
M  V30 6104 C 543.169 -0.371405 4.2769 0
M  V30 6105 C 542.402 -1.31327 5.1729 0
M  V30 6106 O 542.625 -2.55078 5.10188 0
M  V30 6107 O 541.559 -0.813811 5.96373 0
M  V30 6108 H 545.385 0.604483 2.97623 0
M  V30 6109 H 542.97 0.361477 1.44961 0
M  V30 6110 H 544.852 -1.68214 3.8637 0
M  V30 6111 H 543.527 -1.82139 2.67595 0
M  V30 6112 H 542.434 0.24067 3.73325 0
M  V30 6113 H 543.767 0.296998 4.91303 0
M  V30 6114 N 545.419 -1.53889 0.339982 0
M  V30 6115 C 546.696 -1.93084 -0.312719 0
M  V30 6116 C 547.076 -1.2712 -1.68534 0
M  V30 6117 O 546.424 -0.420835 -2.24591 0
M  V30 6118 C 546.634 -3.4683 -0.388558 0
M  V30 6119 C 547.982 -4.19732 -0.641088 0
M  V30 6120 O 549.006 -3.53075 -0.470818 0
M  V30 6121 O 547.865 -5.3781 -0.970685 0
M  V30 6122 H 544.959 -0.806784 -0.18174 0
M  V30 6123 H 547.505 -1.65137 0.390898 0
M  V30 6124 H 546.277 -3.87055 0.574821 0
M  V30 6125 H 545.9 -3.80933 -1.1391 0
M  V30 6126 N 546.897 -0.0685191 -1.57451 0
M  V30 6127 C 547.827 0.89747 -2.15564 0
M  V30 6128 C 548.808 1.31266 -1.08181 0
M  V30 6129 O 549.993 1.38429 -1.36202 0
M  V30 6130 C 547.123 2.16623 -2.71463 0
M  V30 6131 C 546.077 1.89054 -3.83982 0
M  V30 6132 C 545.403 3.22532 -4.26471 0
M  V30 6133 C 546.703 1.1984 -5.08366 0
M  V30 6134 H 548.397 0.413373 -2.96533 0
M  V30 6135 H 545.943 0.197391 -1.42641 0
M  V30 6136 H 547.896 2.84614 -3.10761 0
M  V30 6137 H 546.62 2.67269 -1.8771 0
M  V30 6138 H 545.279 1.23469 -3.45183 0
M  V30 6139 H 544.927 3.71013 -3.39644 0
M  V30 6140 H 544.627 3.04879 -5.02317 0
M  V30 6141 H 546.151 3.91727 -4.68383 0
M  V30 6142 H 547.565 1.77896 -5.45001 0
M  V30 6143 H 545.962 1.12456 -5.89469 0
M  V30 6144 H 547.032 0.176996 -4.84577 0
M  V30 6145 N 548.375 1.56261 0.205012 0
M  V30 6146 C 549.305 1.96779 1.257 0
M  V30 6147 C 550.286 0.838309 1.48008 0
M  V30 6148 O 551.471 1.10189 1.59913 0
M  V30 6149 C 548.601 2.29876 2.60335 0
M  V30 6150 C 547.555 3.45469 2.52656 0
M  V30 6151 C 546.881 3.64215 3.91473 0
M  V30 6152 C 548.181 4.79954 2.06014 0
M  V30 6153 H 549.875 2.84904 0.920338 0
M  V30 6154 H 547.421 1.37072 0.441277 0
M  V30 6155 H 549.374 2.56814 3.34102 0
M  V30 6156 H 548.098 1.38622 2.95722 0
M  V30 6157 H 546.757 3.18605 1.81345 0
M  V30 6158 H 546.405 2.70309 4.24196 0
M  V30 6159 H 546.105 4.41973 3.87213 0
M  V30 6160 H 547.629 3.93519 4.66878 0
M  V30 6161 H 549.043 5.05989 2.69533 0
M  V30 6162 H 547.44 5.61111 2.12777 0
M  V30 6163 H 548.51 4.74201 1.01297 0
M  V30 6164 N 549.853 -0.472356 1.50355 0
M  V30 6165 C 551.083 -1.24603 1.64796 0
M  V30 6166 C 551.491 -1.86297 0.330156 0
M  V30 6167 O 550.834 -1.69934 -0.697728 0
M  V30 6168 C 550.896 -2.39578 2.68035 0
M  V30 6169 C 550.56 -1.98531 4.11624 0
M  V30 6170 C 551.557 -1.50856 4.97532 0
M  V30 6171 C 549.242 -2.0729 4.57532 0
M  V30 6172 C 551.236 -1.12481 6.27397 0
M  V30 6173 C 548.923 -1.68527 5.87403 0
M  V30 6174 C 549.921 -1.212 6.7216 0
M  V30 6175 O 549.609 -0.829728 7.99607 0
M  V30 6176 H 549.341 -0.383035 0.55701 0
M  V30 6177 H 551.895 -0.570392 1.97321 0
M  V30 6178 H 550.125 -3.10309 2.30749 0
M  V30 6179 H 551.814 -3.01544 2.71709 0
M  V30 6180 H 552.58 -1.43511 4.63281 0
M  V30 6181 H 548.459 -2.43076 3.91708 0
M  V30 6182 H 552.003 -0.754698 6.93506 0
M  V30 6183 H 547.9 -1.7553 6.21176 0
M  V30 6184 H 548.668 -0.958689 8.12866 0
M  V30 6185 N 551.331 -1.39911 -0.725443 0
M  V30 6186 C 552.579 -1.37382 -1.48224 0
M  V30 6187 C 552.9 0.0264107 -1.94982 0
M  V30 6188 O 552.17 0.979408 -1.6966 0
M  V30 6189 H 550.75 -0.505596 -0.549892 0
M  V30 6190 H 553.412 -1.7487 -0.860608 0
M  V30 6191 H 552.508 -2.04254 -2.3598 0
M  V30 6192 N 552.809 0.956637 -1.25245 0
M  V30 6193 C 553.756 2.053 -1.05454 0
M  V30 6194 C 554.726 1.66062 0.0356889 0
M  V30 6195 O 555.911 1.90415 -0.121099 0
M  V30 6196 C 553.051 3.38391 -0.677191 0
M  V30 6197 C 552.164 3.90758 -1.84206 0
M  V30 6198 C 551.299 5.12165 -1.40926 0
M  V30 6199 C 550.338 5.56757 -2.54338 0
M  V30 6200 N 549.475 6.69376 -2.11848 0
M  V30 6201 H 554.315 2.21562 -1.99284 0
M  V30 6202 H 551.852 1.08578 -0.992434 0
M  V30 6203 H 553.81 4.1488 -0.43938 0
M  V30 6204 H 552.44 3.22021 0.224127 0
M  V30 6205 H 551.492 3.10808 -2.19323 0
M  V30 6206 H 552.804 4.19802 -2.69383 0
M  V30 6207 H 551.958 5.96065 -1.13098 0
M  V30 6208 H 550.697 4.84832 -0.528175 0
M  V30 6209 H 549.702 4.71423 -2.82913 0
M  V30 6210 H 550.927 5.861 -3.43022 0
M  V30 6211 H 548.873 6.43756 -1.26153 0
M  V30 6212 H 548.79 6.97927 -2.90574 0
M  V30 6213 H 550.058 7.5669 -1.87191 0
M  V30 6214 N 554.287 1.06798 1.15896 0
M  V30 6215 C 555.698 0.811355 1.68149 0
M  V30 6216 C 556.049 -0.664339 1.8461 0
M  V30 6217 O 555.174 -1.51485 1.54535 0
M  V30 6218 C 555.769 1.46624 3.05429 0
M  V30 6219 C 554.328 1.25726 3.54781 0
M  V30 6220 C 553.475 1.53949 2.3064 0
M  V30 6221 H 556.426 1.23078 1.00187 0
M  V30 6222 H 556.447 0.88437 3.7008 0
M  V30 6223 H 555.959 2.54025 2.93416 0
M  V30 6224 H 554.06 0.20322 3.72045 0
M  V30 6225 H 554.173 1.97354 4.36564 0
M  V30 6226 H 552.537 0.96025 2.35905 0
M  V30 6227 H 553.32 2.6252 2.2122 0
M  V30 6228 N 555.766 -1.3263 0.851289 0
M  V30 6229 C 557.043 -1.91982 0.374448 0
M  V30 6230 C 557.423 -1.77568 -1.14161 0
M  V30 6231 O 556.771 -1.1717 -1.96172 0
M  V30 6232 C 556.981 -3.38862 0.835088 0
M  V30 6233 C 558.329 -4.15999 0.850309 0
M  V30 6234 O 559.353 -3.47566 0.779505 0
M  V30 6235 O 558.212 -5.38189 0.949481 0
M  V30 6236 H 555.306 -0.819846 0.10854 0
M  V30 6237 H 557.852 -1.41422 0.937966 0
M  V30 6238 H 556.624 -3.43281 1.87814 0
M  V30 6239 H 556.247 -3.96821 0.248833 0
M  V30 6240 N 557.244 -0.608902 -1.45362 0
M  V30 6241 C 558.492 -0.104401 -2.0183 0
M  V30 6242 C 558.813 1.27007 -1.47967 0
M  V30 6243 O 558.083 1.83924 -0.674455 0
M  V30 6244 H 556.663 -0.0356042 -0.746151 0
M  V30 6245 H 559.325 -0.790596 -1.78145 0
M  V30 6246 H 558.421 -0.0551793 -3.12051 0
M  V30 6247 N 558.722 1.53707 -0.348139 0
M  V30 6248 C 559.685 2.23812 0.494058 0
M  V30 6249 C 560.685 1.23989 1.02388 0
M  V30 6250 O 561.875 1.48395 0.912396 0
M  V30 6251 C 559.007 2.96133 1.68872 0
M  V30 6252 H 560.2 2.99663 -0.119141 0
M  V30 6253 H 557.753 1.55983 -0.0995539 0
M  V30 6254 H 558.488 2.24481 2.34049 0
M  V30 6255 H 558.273 3.69357 1.31596 0
M  V30 6256 H 559.763 3.49475 2.28597 0
M  V30 6257 N 560.2 0.0768682 1.57412 0
M  V30 6258 C 561.447 -0.591085 1.93681 0
M  V30 6259 C 561.775 -1.69311 0.957286 0
M  V30 6260 O 561.03 -1.95682 -0.0262428 0
M  V30 6261 C 561.329 -1.20268 3.36557 0
M  V30 6262 C 560.995 -0.226286 4.50332 0
M  V30 6263 C 559.657 0.0423142 4.81181 0
M  V30 6264 C 562.009 0.441415 5.19327 0
M  V30 6265 C 559.337 0.985616 5.78362 0
M  V30 6266 C 561.689 1.37307 6.17519 0
M  V30 6267 C 560.353 1.65009 6.46783 0
M  V30 6268 H 559.623 -0.216293 0.70873 0
M  V30 6269 H 562.27 0.148824 1.90921 0
M  V30 6270 H 560.575 -2.01844 3.35807 0
M  V30 6271 H 562.272 -1.72688 3.61911 0
M  V30 6272 H 558.862 -0.445821 4.26275 0
M  V30 6273 H 563.046 0.247023 4.95685 0
M  V30 6274 H 558.302 1.20743 5.99359 0
M  V30 6275 H 562.476 1.89637 6.70083 0
M  V30 6276 H 560.103 2.38263 7.21897 0
M  V30 6277 N 561.678 -1.56367 -0.196722 0
M  V30 6278 C 562.608 -1.97442 -1.24655 0
M  V30 6279 C 563.589 -0.846147 -1.47561 0
M  V30 6280 O 564.774 -1.11035 -1.59326 0
M  V30 6281 C 561.904 -2.31253 -2.59112 0
M  V30 6282 C 560.858 -3.46804 -2.50821 0
M  V30 6283 C 560.184 -3.66286 -3.89536 0
M  V30 6284 C 561.484 -4.8104 -2.03465 0
M  V30 6285 H 563.178 -2.85388 -0.905216 0
M  V30 6286 H 560.724 -1.37304 -0.434002 0
M  V30 6287 H 562.677 -2.58583 -3.32736 0
M  V30 6288 H 561.401 -1.40188 -2.94983 0
M  V30 6289 H 560.06 -3.19563 -1.79653 0
M  V30 6290 H 559.708 -2.72555 -4.22756 0
M  V30 6291 H 559.408 -4.4402 -3.84864 0
M  V30 6292 H 560.932 -3.9599 -4.64784 0
M  V30 6293 H 562.346 -5.07411 -2.66846 0
M  V30 6294 H 560.743 -5.62232 -2.09798 0
M  V30 6295 H 561.813 -4.74732 -0.98781 0
M  V30 6296 N 563.156 0.464375 -1.50603 0
M  V30 6297 C 564.405 1.21277 -1.61167 0
M  V30 6298 C 564.718 1.92953 -0.320704 0
M  V30 6299 O 565.924 2.69778 -0.30534 0
M  V30 6300 C 564.38 2.20403 -2.84518 0
M  V30 6301 C 563.988 1.54499 -4.20516 0
M  V30 6302 C 565.732 2.95843 -3.0443 0
M  V30 6303 C 563.639 2.51951 -5.35047 0
M  V30 6304 H 562.569 0.456367 -0.600204 0
M  V30 6305 H 565.22 0.48254 -1.77042 0
M  V30 6306 H 563.602 2.96746 -2.62217 0
M  V30 6307 H 564.776 0.83899 -4.53098 0
M  V30 6308 H 563.091 0.913152 -4.06264 0
M  V30 6309 H 565.688 3.6879 -3.87167 0
M  V30 6310 H 566.031 3.55622 -2.16423 0
M  V30 6311 H 566.564 2.26611 -3.26944 0
M  V30 6312 H 563.303 1.96901 -6.25228 0
M  V30 6313 H 562.823 3.20683 -5.06875 0
M  V30 6314 H 564.502 3.13643 -5.65895 0
M  V30 6315 N 564.634 1.40294 0.718013 0
M  V30 6316 C 566.05 1.2227 1.02577 0
M  V30 6317 C 566.25 0.0961976 2.0127 0
M  V30 6318 O 565.306 -0.546695 2.46511 0
M  V30 6319 C 566.619 2.56348 1.57182 0
M  V30 6320 C 568.167 2.6334 1.69178 0
M  V30 6321 C 568.642 3.9768 2.27188 0
M  V30 6322 N 570.133 3.99409 2.34578 0
M  V30 6323 C 570.868 5.00141 2.8044 0
M  V30 6324 N 570.364 6.11268 3.26073 0
M  V30 6325 N 572.157 4.87511 2.79802 0
M  V30 6326 H 564.308 2.12304 0.0637899 0
M  V30 6327 H 566.571 0.943632 0.0909036 0
M  V30 6328 H 566.277 3.3942 0.921262 0
M  V30 6329 H 566.151 2.77266 2.55741 0
M  V30 6330 H 568.538 1.80641 2.33351 0
M  V30 6331 H 568.619 2.46255 0.692247 0
M  V30 6332 H 568.263 4.80817 1.63638 0
M  V30 6333 H 568.193 4.12093 3.27852 0
M  V30 6334 H 570.684 3.19162 2.02346 0
M  V30 6335 H 570.997 6.84023 3.59628 0
M  V30 6336 H 569.342 6.14837 3.24038 0
M  V30 6337 H 572.533 3.9979 2.43487 0
M  V30 6338 H 572.706 5.66158 3.15228 0
M  V30 6339 N 566.112 -0.949982 1.2575 0
M  V30 6340 C 567.022 -2.08109 1.08295 0
M  V30 6341 C 568.038 -1.7399 0.0188181 0
M  V30 6342 O 569.214 -2.00187 0.220724 0
M  V30 6343 C 566.279 -3.39383 0.708534 0
M  V30 6344 C 565.34 -3.8734 1.85111 0
M  V30 6345 C 564.573 -5.12349 1.49447 0
M  V30 6346 O 564.796 -5.6905 0.392212 0
M  V30 6347 O 563.73 -5.5513 2.32624 0
M  V30 6348 H 567.556 -2.25738 2.03165 0
M  V30 6349 H 565.141 -1.06545 1.04731 0
M  V30 6350 H 567.023 -4.18277 0.512061 0
M  V30 6351 H 565.698 -3.23013 -0.210854 0
M  V30 6352 H 564.605 -3.09429 2.10248 0
M  V30 6353 H 565.938 -4.08216 2.74991 0
M  V30 6354 N 567.59 -1.07411 -1.15328 0
M  V30 6355 C 568.815 -0.818856 -1.90551 0
M  V30 6356 C 569.24 0.622194 -1.77512 0
M  V30 6357 O 568.598 1.43484 -1.10824 0
M  V30 6358 C 568.646 -1.23267 -3.38877 0
M  V30 6359 O 567.75 -0.378345 -4.10661 0
M  V30 6360 H 567.091 -0.29827 -0.593238 0
M  V30 6361 H 569.621 -1.43289 -1.46046 0
M  V30 6362 H 569.631 -1.20912 -3.89672 0
M  V30 6363 H 568.306 -2.28226 -3.47686 0
M  V30 6364 H 566.883 -0.464437 -3.69996 0
M  V30 6365 N 569.068 1.32177 -0.85831 0
M  V30 6366 C 570.293 2.01847 -0.476718 0
M  V30 6367 C 570.718 1.64065 0.920021 0
M  V30 6368 O 570.076 0.843189 1.60499 0
M  V30 6369 C 570.124 3.55097 -0.627578 0
M  V30 6370 O 569.228 4.11012 0.338086 0
M  V30 6371 H 568.569 0.635907 -0.191099 0
M  V30 6372 H 571.099 1.68641 -1.15851 0
M  V30 6373 H 571.109 4.04718 -0.516476 0
M  V30 6374 H 569.784 3.81938 -1.64609 0
M  V30 6375 H 568.361 3.72451 0.182917 0
M  V30 6376 N 570.547 0.616602 1.45037 0
M  V30 6377 C 571.494 -0.0969439 2.30596 0
M  V30 6378 C 572.464 -0.851151 1.42635 0
M  V30 6379 O 573.649 -0.835092 1.71554 0
M  V30 6380 C 570.789 -1.08234 3.27688 0
M  V30 6381 C 569.902 -0.328072 4.30752 0
M  V30 6382 C 569.037 -1.30399 5.14946 0
M  V30 6383 C 568.076 -0.538049 6.09731 0
M  V30 6384 N 567.213 -1.46371 6.86673 0
M  V30 6385 H 572.053 0.63864 2.91076 0
M  V30 6386 H 569.59 0.326733 1.43425 0
M  V30 6387 H 571.548 -1.66688 3.82454 0
M  V30 6388 H 570.178 -1.78523 2.68941 0
M  V30 6389 H 569.23 0.372136 3.78575 0
M  V30 6390 H 570.542 0.269142 4.98073 0
M  V30 6391 H 569.696 -1.96032 5.74157 0
M  V30 6392 H 568.435 -1.93514 4.47665 0
M  V30 6393 H 567.44 0.131852 5.49642 0
M  V30 6394 H 568.665 0.0881732 6.79043 0
M  V30 6395 H 566.611 -2.08233 6.22073 0
M  V30 6396 H 566.528 -0.920152 7.50379 0
M  V30 6397 H 567.796 -2.10932 7.50418 0
M  V30 6398 N 572.025 -1.5352 0.356285 0
M  V30 6399 C 572.972 -2.25439 -0.494569 0
M  V30 6400 C 573.942 -1.25752 -1.08516 0
M  V30 6401 O 575.127 -1.54513 -1.1194 0
M  V30 6402 C 572.267 -3.04011 -1.63313 0
M  V30 6403 C 571.38 -4.18574 -1.06862 0
M  V30 6404 C 570.515 -4.84607 -2.17552 0
M  V30 6405 C 569.554 -5.91218 -1.58518 0
M  V30 6406 N 568.691 -6.50979 -2.63003 0
M  V30 6407 H 573.531 -2.97737 0.125244 0
M  V30 6408 H 571.068 -1.46916 0.0735789 0
M  V30 6409 H 573.026 -3.47834 -2.30363 0
M  V30 6410 H 571.656 -2.33986 -2.22374 0
M  V30 6411 H 570.708 -3.79303 -0.288672 0
M  V30 6412 H 572.02 -4.95215 -0.596924 0
M  V30 6413 H 571.174 -5.31566 -2.92442 0
M  V30 6414 H 569.913 -4.07418 -2.6807 0
M  V30 6415 H 568.918 -5.4363 -0.821391 0
M  V30 6416 H 570.143 -6.70322 -1.08836 0
M  V30 6417 H 568.089 -5.76648 -3.12751 0
M  V30 6418 H 568.006 -7.23131 -2.20493 0
M  V30 6419 H 569.274 -7.02589 -3.37623 0
M  V30 6420 N 573.503 -0.0852151 -1.57369 0
M  V30 6421 C 574.751 0.579658 -1.93609 0
M  V30 6422 C 575.072 1.69332 -0.967043 0
M  V30 6423 O 574.342 1.95892 -0.0174215 0
M  V30 6424 H 572.922 0.217113 -0.714752 0
M  V30 6425 H 575.584 -0.146226 -1.94351 0
M  V30 6426 H 574.68 0.996276 -2.95771 0
M  V30 6427 N 574.981 1.5647 0.188427 0
M  V30 6428 C 576.221 1.82803 0.914469 0
M  V30 6429 C 576.585 0.663681 1.80165 0
M  V30 6430 O 577.786 0.807059 2.56398 0
M  V30 6431 C 576.057 3.14187 1.70357 0
M  V30 6432 S 577.616 3.61947 2.48072 0
M  V30 6433 H 574.434 0.641497 0.306599 0
M  V30 6434 H 577.036 1.94694 0.177361 0
M  V30 6435 H 575.74 3.96937 1.04255 0
M  V30 6436 H 575.271 3.05192 2.48237 0
M  V30 6437 H 577.286 3.27913 3.72407 0
M  V30 6438 N 576.459 -0.456382 1.50847 0
M  V30 6439 C 577.689 -1.22848 1.66108 0
M  V30 6440 C 578.097 -1.85936 0.349897 0
M  V30 6441 O 577.44 -1.70664 -0.679665 0
M  V30 6442 C 577.502 -2.36722 2.70561 0
M  V30 6443 C 577.166 -1.94154 4.13707 0
M  V30 6444 C 578.163 -1.4557 4.99105 0
M  V30 6445 C 575.848 -2.02426 4.59705 0
M  V30 6446 C 577.842 -1.0582 6.28555 0
M  V30 6447 C 575.529 -1.62287 5.89157 0
M  V30 6448 C 576.527 -1.14064 6.73408 0
M  V30 6449 O 576.215 -0.744873 8.00442 0
M  V30 6450 H 575.947 -0.377105 0.561042 0
M  V30 6451 H 578.501 -0.549431 1.97915 0
M  V30 6452 H 576.731 -3.07844 2.34027 0
M  V30 6453 H 578.42 -2.98646 2.74892 0
M  V30 6454 H 579.186 -1.38589 4.64777 0
M  V30 6455 H 575.065 -2.38908 3.94264 0
M  V30 6456 H 578.609 -0.6811 6.94267 0
M  V30 6457 H 574.506 -1.68932 6.23003 0
M  V30 6458 H 575.274 -0.87242 8.13837 0
M  V30 6459 N 577.937 -1.40673 -0.710563 0
M  V30 6460 C 578.9 -1.4108 -1.80635 0
M  V30 6461 C 579.9 -0.303783 -1.57904 0
M  V30 6462 O 581.09 -0.562937 -1.64853 0
M  V30 6463 C 578.222 -1.20748 -3.18799 0
M  V30 6464 H 579.415 -2.38612 -1.81671 0
M  V30 6465 H 576.968 -1.26595 -0.916704 0
M  V30 6466 H 577.703 -0.239964 -3.23411 0
M  V30 6467 H 577.488 -2.00941 -3.36698 0
M  V30 6468 H 578.978 -1.23833 -3.98817 0
M  V30 6469 N 579.415 0.9433 -1.26252 0
M  V30 6470 C 580.655 1.70397 -1.1289 0
M  V30 6471 C 581.019 1.89268 0.322713 0
M  V30 6472 O 582.22 2.62503 0.578418 0
M  V30 6473 C 580.491 3.04296 -1.87453 0
M  V30 6474 S 582.05 3.95475 -1.90119 0
M  V30 6475 H 578.868 0.585559 -0.403289 0
M  V30 6476 H 581.47 1.12424 -1.59941 0
M  V30 6477 H 580.174 2.8824 -2.9214 0
M  V30 6478 H 579.705 3.67327 -1.40835 0
M  V30 6479 H 581.72 4.86297 -0.986373 0
M  V30 6480 N 580.893 1.08022 1.14757 0
M  V30 6481 C 582.118 0.82895 1.90114 0
M  V30 6482 C 582.543 -0.612772 1.77839 0
M  V30 6483 O 581.901 -1.42895 1.11583 0
M  V30 6484 C 581.949 1.25062 3.38219 0
M  V30 6485 O 581.053 0.400119 4.10454 0
M  V30 6486 H 580.394 0.301412 0.591648 0
M  V30 6487 H 582.924 1.44062 1.45284 0
M  V30 6488 H 582.934 1.22977 3.89025 0
M  V30 6489 H 581.609 2.30067 3.46471 0
M  V30 6490 H 580.186 0.484052 3.69745 0
M  V30 6491 N 582.371 -1.3172 0.865308 0
M  V30 6492 C 583.617 -1.97168 0.474633 0
M  V30 6493 C 583.95 -1.68263 -0.969604 0
M  V30 6494 O 583.225 -0.976588 -1.68205 0
M  V30 6495 C 583.508 -3.52689 0.726808 0
M  V30 6496 C 583.361 -3.91185 2.22024 0
M  V30 6497 C 584.68 -4.39689 0.190201 0
M  V30 6498 H 581.799 -0.716185 0.17392 0
M  V30 6499 H 584.441 -1.55925 1.08569 0
M  V30 6500 H 582.591 -3.8795 0.206705 0
M  V30 6501 H 584.263 -3.66049 2.80724 0
M  V30 6502 H 582.506 -3.3996 2.69462 0
M  V30 6503 H 583.177 -4.99604 2.34735 0
M  V30 6504 H 585.653 -4.11225 0.635103 0
M  V30 6505 H 584.529 -5.47469 0.396132 0
M  V30 6506 H 584.79 -4.32683 -0.907625 0
M  V30 6507 N 583.85 -0.624285 -1.44708 0
M  V30 6508 C 585.096 -0.126237 -2.02407 0
M  V30 6509 C 585.428 1.24618 -1.48943 0
M  V30 6510 O 584.704 1.82569 -0.670742 0
M  V30 6511 C 584.986 -0.105449 -3.59946 0
M  V30 6512 C 584.84 -1.50972 -4.23707 0
M  V30 6513 C 586.159 0.573629 -4.36346 0
M  V30 6514 H 583.278 -0.0473472 -0.735478 0
M  V30 6515 H 585.92 -0.799452 -1.72362 0
M  V30 6516 H 584.07 0.46783 -3.85673 0
M  V30 6517 H 585.742 -2.13136 -4.0911 0
M  V30 6518 H 583.985 -2.0656 -3.81465 0
M  V30 6519 H 584.656 -1.44727 -5.32689 0
M  V30 6520 H 587.132 0.0861787 -4.16011 0
M  V30 6521 H 586.008 0.557338 -5.46063 0
M  V30 6522 H 586.269 1.64276 -4.10446 0
M  V30 6523 N 585.328 1.53329 -0.364422 0
M  V30 6524 C 586.291 2.24323 0.470292 0
M  V30 6525 C 587.291 1.25068 1.01067 0
M  V30 6526 O 588.481 1.49354 0.896605 0
M  V30 6527 C 585.613 2.97908 1.65722 0
M  V30 6528 H 586.806 2.9952 -0.150917 0
M  V30 6529 H 584.359 1.55868 -0.116092 0
M  V30 6530 H 585.094 2.2695 2.31655 0
M  V30 6531 H 584.879 3.70732 1.27671 0
M  V30 6532 H 586.369 3.5188 2.24878 0
M  V30 6533 N 586.806 0.0935595 1.57322 0
M  V30 6534 C 588.083 -0.612692 1.85756 0
M  V30 6535 C 588.463 -1.86439 0.99013 0
M  V30 6536 O 587.811 -2.28416 0.0621362 0
M  V30 6537 C 588.021 -0.929547 3.36393 0
M  V30 6538 C 589.369 -1.29366 4.04413 0
M  V30 6539 O 590.393 -1.02061 3.41265 0
M  V30 6540 O 589.252 -1.80498 5.15832 0
M  V30 6541 H 586.346 -0.306444 0.768128 0
M  V30 6542 H 588.892 0.126141 1.69231 0
M  V30 6543 H 587.664 -0.0414766 3.91278 0
M  V30 6544 H 587.287 -1.72441 3.5826 0
M  V30 6545 N 588.284 -1.56567 -0.180126 0
M  V30 6546 C 589.532 -1.81133 -0.896392 0
M  V30 6547 C 589.853 -0.669114 -1.83161 0
M  V30 6548 O 589.123 0.311616 -1.93406 0
M  V30 6549 H 587.703 -0.668172 -0.333999 0
M  V30 6550 H 590.365 -1.94048 -0.182051 0
M  V30 6551 H 589.461 -2.74854 -1.47857 0
M  V30 6552 N 589.762 0.448376 -1.51087 0
M  V30 6553 C 590.672 1.56882 -1.74428 0
M  V30 6554 C 591.688 1.62268 -0.62809 0
M  V30 6555 O 592.864 1.79716 -0.909075 0
M  V30 6556 C 589.929 2.92947 -1.85426 0
M  V30 6557 C 588.99 2.97766 -3.09247 0
M  V30 6558 C 588.223 4.27341 -3.19711 0
M  V30 6559 O 588.446 5.19112 -2.36387 0
M  V30 6560 O 587.38 4.38219 -4.12611 0
M  V30 6561 H 591.206 1.40104 -2.69452 0
M  V30 6562 H 588.791 0.630247 -1.35456 0
M  V30 6563 H 590.673 3.73719 -1.94709 0
M  V30 6564 H 589.348 3.09876 -0.935887 0
M  V30 6565 H 588.255 2.15989 -3.0545 0
M  V30 6566 H 589.588 2.8578 -4.00738 0
M  V30 6567 N 591.24 1.41047 0.703093 0
M  V30 6568 C 592.486 1.40207 1.46526 0
M  V30 6569 C 592.819 0.00847763 1.94198 0
M  V30 6570 O 592.094 -0.962437 1.69019 0
M  V30 6571 C 592.377 2.40238 2.6825 0
M  V30 6572 C 592.23 3.88674 2.26391 0
M  V30 6573 C 593.549 2.37627 3.70434 0
M  V30 6574 H 590.668 0.510594 0.531472 0
M  V30 6575 H 593.31 1.72271 0.801422 0
M  V30 6576 H 591.46 2.13026 3.24888 0
M  V30 6577 H 593.132 4.2676 1.75138 0
M  V30 6578 H 591.375 4.03903 1.58255 0
M  V30 6579 H 592.046 4.542 3.13698 0
M  V30 6580 H 594.522 2.61759 3.23452 0
M  V30 6581 H 593.398 3.09645 4.53223 0
M  V30 6582 H 593.659 1.39223 4.19606 0
M  V30 6583 N 592.718 -0.936591 1.26751 0
M  V30 6584 C 593.665 -2.03597 1.08706 0
M  V30 6585 C 594.635 -1.66097 -0.00926542 0
M  V30 6586 O 595.82 -1.90199 0.151377 0
M  V30 6587 C 592.96 -3.3727 0.73094 0
M  V30 6588 C 592.073 -3.87778 1.90399 0
M  V30 6589 C 591.208 -5.09859 1.49056 0
M  V30 6590 C 590.247 -5.5264 2.63164 0
M  V30 6591 N 589.384 -6.65921 2.22471 0
M  V30 6592 H 594.224 -2.18364 2.02784 0
M  V30 6593 H 591.761 -1.06985 1.00958 0
M  V30 6594 H 593.719 -4.14128 0.505328 0
M  V30 6595 H 592.349 -3.22337 -0.172868 0
M  V30 6596 H 591.401 -3.07279 2.2424 0
M  V30 6597 H 592.713 -4.15464 2.76028 0
M  V30 6598 H 591.867 -5.9419 1.22567 0
M  V30 6599 H 590.606 -4.8393 0.60524 0
M  V30 6600 H 589.611 -4.66863 2.90377 0
M  V30 6601 H 590.836 -5.80568 3.52303 0
M  V30 6602 H 588.782 -6.41667 1.36379 0
M  V30 6603 H 588.699 -6.93216 3.01641 0
M  V30 6604 H 589.967 -7.53616 1.99205 0
M  V30 6605 N 594.196 -1.08629 -1.14182 0
M  V30 6606 C 595.146 -0.687882 -2.17376 0
M  V30 6607 C 596.13 0.293632 -1.58198 0
M  V30 6608 O 597.322 0.105292 -1.76687 0
M  V30 6609 C 594.451 -0.101184 -3.43151 0
M  V30 6610 C 593.537 -1.10862 -4.09354 0
M  V30 6611 N 593.928 -2.29285 -4.50846 0
M  V30 6612 C 592.226 -0.944897 -4.35876 0
M  V30 6613 C 592.927 -2.93305 -5.02342 0
M  V30 6614 N 591.903 -2.20903 -4.96692 0
M  V30 6615 H 595.705 -1.58963 -2.472 0
M  V30 6616 H 593.219 -0.961329 -1.3089 0
M  V30 6617 H 595.216 0.202209 -4.16409 0
M  V30 6618 H 593.876 0.795522 -3.14804 0
M  V30 6619 H 594.887 -2.66927 -4.43813 0
M  V30 6620 H 591.564 -0.102186 -4.17375 0
M  V30 6621 H 592.954 -3.93932 -5.44304 0
M  V30 6622 N 595.674 1.31259 -0.872281 0
M  V30 6623 C 596.914 1.98418 -0.490894 0
M  V30 6624 C 597.278 1.67429 0.939755 0
M  V30 6625 O 598.479 2.27818 1.42661 0
M  V30 6626 C 596.75 3.49583 -0.743408 0
M  V30 6627 S 598.309 4.36359 -0.462226 0
M  V30 6628 H 595.127 0.687005 -0.183151 0
M  V30 6629 H 597.729 1.59619 -1.12881 0
M  V30 6630 H 596.433 3.69627 -1.78338 0
M  V30 6631 H 595.964 3.93291 -0.0925758 0
M  V30 6632 H 597.979 4.91173 0.704525 0
M  V30 6633 N 597.152 0.631951 1.44375 0
M  V30 6634 C 598.398 0.13697 2.02337 0
M  V30 6635 C 598.731 -1.23826 1.49602 0
M  V30 6636 O 598.006 -1.8221 0.680415 0
M  V30 6637 C 598.289 0.124536 3.59885 0
M  V30 6638 C 598.142 1.53217 4.229 0
M  V30 6639 C 599.461 -0.550481 4.36644 0
M  V30 6640 H 596.58 0.051247 0.735216 0
M  V30 6641 H 599.222 0.808581 1.71936 0
M  V30 6642 H 597.372 -0.44737 3.85916 0
M  V30 6643 H 599.044 2.15303 4.07973 0
M  V30 6644 H 597.287 2.0858 3.80364 0
M  V30 6645 H 597.958 1.4755 5.31914 0
M  V30 6646 H 600.434 -0.0641154 4.16051 0
M  V30 6647 H 599.31 -0.528371 5.46351 0
M  V30 6648 H 599.571 -1.62097 4.11311 0
M  V30 6649 N 598.631 -1.53133 0.372548 0
M  V30 6650 C 599.88 -2.00539 -0.216115 0
M  V30 6651 C 600.193 -1.26374 -1.49295 0
M  V30 6652 O 601.399 -1.64404 -2.16064 0
M  V30 6653 C 599.855 -3.57253 -0.435678 0
M  V30 6654 C 599.463 -4.40302 0.82693 0
M  V30 6655 C 601.207 -4.12995 -0.981618 0
M  V30 6656 C 599.114 -5.88583 0.576567 0
M  V30 6657 H 598.044 -0.749246 -0.084536 0
M  V30 6658 H 600.695 -1.76771 0.492364 0
M  V30 6659 H 599.077 -3.77202 -1.20559 0
M  V30 6660 H 600.251 -4.32124 1.60017 0
M  V30 6661 H 598.566 -3.95699 1.29659 0
M  V30 6662 H 601.163 -5.21418 -1.18436 0
M  V30 6663 H 601.506 -3.68027 -1.94581 0
M  V30 6664 H 602.039 -3.96871 -0.271696 0
M  V30 6665 H 598.778 -6.37841 1.51128 0
M  V30 6666 H 598.298 -5.99592 -0.158047 0
M  V30 6667 H 599.977 -6.46676 0.204722 0
M  V30 6668 N 600.109 -0.101901 -1.5727 0
M  V30 6669 C 601.339 0.567568 -1.98651 0
M  V30 6670 C 601.747 1.61839 -0.980037 0
M  V30 6671 O 601.09 1.83661 0.0376564 0
M  V30 6672 C 601.152 1.26742 -3.36417 0
M  V30 6673 C 600.816 0.366561 -4.55528 0
M  V30 6674 C 601.813 -0.388022 -5.1845 0
M  V30 6675 C 599.498 0.282629 -5.01504 0
M  V30 6676 C 601.492 -1.21445 -6.25724 0
M  V30 6677 C 599.179 -0.547443 -6.08643 0
M  V30 6678 C 600.177 -1.29462 -6.70618 0
M  V30 6679 O 599.865 -2.11095 -7.7569 0
M  V30 6680 H 599.597 0.156282 -0.657687 0
M  V30 6681 H 602.151 -0.179912 -2.04611 0
M  V30 6682 H 600.381 2.06162 -3.27161 0
M  V30 6683 H 602.07 1.8321 -3.622 0
M  V30 6684 H 602.836 -0.332949 -4.83856 0
M  V30 6685 H 598.715 0.853868 -4.53023 0
M  V30 6686 H 602.259 -1.79814 -6.74027 0
M  V30 6687 H 598.156 -0.603971 -6.42668 0
M  V30 6688 H 598.924 -2.03851 -7.92709 0
M  V30 6689 N 601.587 1.56661 0.17182 0
M  V30 6690 C 602.812 1.86459 0.908165 0
M  V30 6691 C 603.237 0.688181 1.75059 0
M  V30 6692 O 602.595 -0.362753 1.77634 0
M  V30 6693 C 602.643 3.14669 1.76112 0
M  V30 6694 O 601.747 2.96858 2.86268 0
M  V30 6695 H 601.088 0.613318 0.254434 0
M  V30 6696 H 603.618 2.03892 0.170113 0
M  V30 6697 H 603.628 3.46061 2.16115 0
M  V30 6698 H 602.303 3.99905 1.14233 0
M  V30 6699 H 600.88 2.76819 2.49852 0
M  V30 6700 N 603.065 -0.440357 1.51323 0
M  V30 6701 C 604.293 -1.21255 1.67645 0
M  V30 6702 C 604.708 -1.85088 0.37252 0
M  V30 6703 O 604.065 -1.70582 -0.648683 0
M  V30 6704 C 604.116 -2.29881 2.78993 0
M  V30 6705 O 603.837 -1.68659 4.04334 0
M  V30 6706 C 605.338 -3.20214 3.06558 0
M  V30 6707 H 602.558 -0.36558 0.562666 0
M  V30 6708 H 605.102 -0.52214 1.97722 0
M  V30 6709 H 603.257 -2.94643 2.51524 0
M  V30 6710 H 603.671 -2.40426 4.6615 0
M  V30 6711 H 605.145 -3.92575 3.88058 0
M  V30 6712 H 605.622 -3.80794 2.18844 0
M  V30 6713 H 606.228 -2.61156 3.35675 0
M  V30 6714 N 604.543 -1.41418 -0.695603 0
M  V30 6715 C 605.506 -1.42988 -1.79129 0
M  V30 6716 C 606.506 -0.320514 -1.57573 0
M  V30 6717 O 607.696 -0.58039 -1.64247 0
M  V30 6718 C 604.828 -1.24122 -3.175 0
M  V30 6719 H 606.021 -2.40526 -1.7913 0
M  V30 6720 H 603.574 -1.2756 -0.903225 0
M  V30 6721 H 604.309 -0.274253 -3.23138 0
M  V30 6722 H 604.094 -2.045 -3.34547 0
M  V30 6723 H 605.584 -1.28056 -3.97481 0
M  V30 6724 N 606.021 0.929856 -1.27246 0
M  V30 6725 C 607.437 1.20542 -1.04603 0
M  V30 6726 C 607.637 2.00276 0.221754 0
M  V30 6727 O 606.693 2.34835 0.927833 0
M  V30 6728 C 608.006 1.95566 -2.28417 0
M  V30 6729 C 609.554 2.08513 -2.33433 0
M  V30 6730 C 610.029 2.86943 -3.5697 0
M  V30 6731 N 611.52 2.94512 -3.57515 0
M  V30 6732 C 612.255 3.55656 -4.49774 0
M  V30 6733 N 611.751 4.18209 -5.52334 0
M  V30 6734 N 613.544 3.53038 -4.37402 0
M  V30 6735 H 605.695 0.397113 -2.08655 0
M  V30 6736 H 607.958 0.238277 -0.917566 0
M  V30 6737 H 607.664 1.44395 -3.20691 0
M  V30 6738 H 607.538 2.9619 -2.33563 0
M  V30 6739 H 609.925 2.58872 -1.41666 0
M  V30 6740 H 610.006 1.07117 -2.32292 0
M  V30 6741 H 609.65 2.37268 -4.49072 0
M  V30 6742 H 609.58 3.8862 -3.55362 0
M  V30 6743 H 612.071 2.50053 -2.83341 0
M  V30 6744 H 612.384 4.62796 -6.18902 0
M  V30 6745 H 610.729 4.16761 -5.56179 0
M  V30 6746 H 613.92 3.0337 -3.56489 0
M  V30 6747 H 614.093 4.004 -5.09493 0
M  V30 6748 N 607.499 1.09233 1.13605 0
M  V30 6749 C 608.747 0.825525 1.84471 0
M  V30 6750 C 609.068 -0.650702 1.83823 0
M  V30 6751 O 608.338 -1.47204 1.29259 0
M  V30 6752 H 606.918 0.3024 0.683054 0
M  V30 6753 H 609.58 1.38006 1.37624 0
M  V30 6754 H 608.676 1.17727 2.89045 0
M  V30 6755 N 608.977 -1.30795 0.87923 0
M  V30 6756 C 610.207 -2.00237 0.50881 0
M  V30 6757 C 610.615 -1.66115 -0.905682 0
M  V30 6758 O 609.958 -0.89138 -1.60624 0
M  V30 6759 C 610.02 -3.54508 0.597003 0
M  V30 6760 C 609.684 -4.12131 1.97477 0
M  V30 6761 C 610.681 -4.28552 2.94346 0
M  V30 6762 C 608.366 -4.47644 2.2786 0
M  V30 6763 C 610.36 -4.79689 4.19735 0
M  V30 6764 C 608.047 -4.98481 3.53496 0
M  V30 6765 C 609.045 -5.14456 4.49248 0
M  V30 6766 O 608.733 -5.64199 5.72656 0
M  V30 6767 H 608.465 -0.647026 0.195788 0
M  V30 6768 H 611.019 -1.67785 1.1848 0
M  V30 6769 H 609.249 -3.86461 -0.135945 0
M  V30 6770 H 610.938 -4.05198 0.238684 0
M  V30 6771 H 611.704 -4.01424 2.72183 0
M  V30 6772 H 607.583 -4.34481 1.54102 0
M  V30 6773 H 611.127 -4.92073 4.9448 0
M  V30 6774 H 607.024 -5.25044 3.75498 0
M  V30 6775 H 607.792 -5.82551 5.74957 0
M  V30 6776 N 610.455 -0.639598 -1.44038 0
M  V30 6777 C 611.703 -0.147188 -2.01563 0
M  V30 6778 C 612.024 1.2384 -1.50628 0
M  V30 6779 O 611.294 1.82452 -0.713316 0
M  V30 6780 H 609.874 -0.0514231 -0.745228 0
M  V30 6781 H 612.536 -0.828205 -1.76428 0
M  V30 6782 H 611.632 -0.121358 -3.11864 0
M  V30 6783 N 611.933 1.52934 -0.380664 0
M  V30 6784 C 613.18 2.01467 0.204278 0
M  V30 6785 C 613.508 1.26744 1.47533 0
M  V30 6786 O 612.763 0.353723 1.92477 0
M  V30 6787 C 613.062 3.5349 0.527199 0
M  V30 6788 C 612.728 4.46171 -0.651295 0
M  V30 6789 C 611.39 4.71227 -0.974619 0
M  V30 6790 C 613.742 5.00909 -1.44012 0
M  V30 6791 C 611.07 5.4827 -2.08847 0
M  V30 6792 C 613.422 5.7917 -2.5445 0
M  V30 6793 C 612.086 6.02507 -2.87301 0
M  V30 6794 H 611.356 0.73722 0.0747504 0
M  V30 6795 H 614.003 1.84411 -0.516234 0
M  V30 6796 H 612.308 3.68574 1.32892 0
M  V30 6797 H 614.005 3.88529 0.992283 0
M  V30 6798 H 610.595 4.26829 -0.389276 0
M  V30 6799 H 614.779 4.81485 -1.20357 0
M  V30 6800 H 610.035 5.64567 -2.34679 0
M  V30 6801 H 614.209 6.20588 -3.1598 0
M  V30 6802 H 611.836 6.61989 -3.7373 0
M  V30 6803 N 613.412 0.11024 1.57214 0
M  V30 6804 C 614.375 -0.828808 2.1369 0
M  V30 6805 C 615.375 -1.20059 1.06969 0
M  V30 6806 O 616.565 -1.12754 1.32786 0
M  V30 6807 C 613.697 -2.11959 2.66994 0
M  V30 6808 H 614.89 -0.338146 2.97988 0
M  V30 6809 H 612.443 -0.138913 1.55681 0
M  V30 6810 H 613.178 -2.65476 1.8626 0
M  V30 6811 H 612.963 -1.86258 3.45037 0
M  V30 6812 H 614.453 -2.79105 3.10629 0
M  V30 6813 N 614.89 -1.56749 -0.16351 0
M  V30 6814 C 615.8 -2.00255 -1.2221 0
M  V30 6815 C 616.816 -0.915194 -1.47987 0
M  V30 6816 O 617.992 -1.22342 -1.59982 0
M  V30 6817 C 615.057 -2.36035 -2.53946 0
M  V30 6818 C 614.118 -3.58637 -2.35962 0
M  V30 6819 C 613.351 -3.92701 -3.61416 0
M  V30 6820 O 613.574 -3.27632 -4.66919 0
M  V30 6821 O 612.508 -4.86019 -3.55062 0
M  V30 6822 H 616.334 -2.90586 -0.882794 0
M  V30 6823 H 613.919 -1.44721 -0.370978 0
M  V30 6824 H 615.801 -2.59982 -3.31643 0
M  V30 6825 H 614.476 -1.48863 -2.8744 0
M  V30 6826 H 613.383 -3.39898 -1.5627 0
M  V30 6827 H 614.716 -4.46374 -2.0739 0
M  V30 6828 N 616.368 0.432326 -1.51554 0
M  V30 6829 C 617.779 1.01202 -1.56892 0
M  V30 6830 C 618.13 1.92175 -0.395394 0
M  V30 6831 O 617.255 2.10844 0.487198 0
M  V30 6832 C 617.85 1.84217 -2.8434 0
M  V30 6833 C 616.409 2.37228 -2.92233 0
M  V30 6834 C 615.556 1.16576 -2.51606 0
M  V30 6835 H 618.507 0.213407 -1.57259 0
M  V30 6836 H 618.528 2.69721 -2.68385 0
M  V30 6837 H 618.04 1.17979 -3.69733 0
M  V30 6838 H 616.141 3.06905 -2.11282 0
M  V30 6839 H 616.254 2.69682 -3.95991 0
M  V30 6840 H 614.618 1.51263 -2.04919 0
M  V30 6841 H 615.401 0.519404 -3.39348 0
M  V30 6842 N 617.846 1.41785 0.688094 0
M  V30 6843 C 619.076 1.44705 1.47459 0
M  V30 6844 C 619.484 0.052916 1.89126 0
M  V30 6845 O 618.827 -0.939781 1.57841 0
M  V30 6846 C 618.889 2.29935 2.76352 0
M  V30 6847 C 618.553 3.77996 2.56843 0
M  V30 6848 C 619.55 4.69976 2.22304 0
M  V30 6849 C 617.235 4.2212 2.7225 0
M  V30 6850 C 619.229 6.04068 2.03421 0
M  V30 6851 C 616.916 5.56275 2.52985 0
M  V30 6852 C 617.914 6.47065 2.18621 0
M  V30 6853 O 617.602 7.78744 1.9953 0
M  V30 6854 H 617.334 0.494703 0.460701 0
M  V30 6855 H 619.888 1.86802 0.854057 0
M  V30 6856 H 618.118 1.82664 3.40839 0
M  V30 6857 H 619.807 2.24467 3.38186 0
M  V30 6858 H 620.573 4.37175 2.10008 0
M  V30 6859 H 616.452 3.51752 2.97979 0
M  V30 6860 H 619.996 6.74897 1.76523 0
M  V30 6861 H 615.893 5.88653 2.64873 0
M  V30 6862 H 616.661 7.89966 2.14234 0
M  V30 6863 N 619.324 -0.923095 1.27737 0
M  V30 6864 C 620.272 -2.04567 1.10703 0
M  V30 6865 C 621.266 -1.69375 0.0288445 0
M  V30 6866 O 622.472 -1.79027 0.186913 0
M  V30 6867 H 618.847 -0.670109 0.34126 0
M  V30 6868 H 620.818 -2.1608 2.05796 0
M  V30 6869 C 619.567 -3.38934 0.775837 0
M  V30 6870 H 618.89 -3.66501 1.59741 0
M  V30 6871 H 620.33 -4.18239 0.696548 0
M  V30 6872 C 618.789 -3.32863 -0.520012 0
M  V30 6873 O 619.319 -3.70462 -1.55308 0
M  V30 6874 N 617.525 -2.85958 -0.51732 0
M  V30 6875 H 617.072 -2.55557 0.32379 0
M  V30 6876 H 617.03 -2.82279 -1.38441 0
M  V30 6877 N 620.802 -1.09834 -1.13024 0
M  V30 6878 C 621.732 -0.763451 -2.20666 0
M  V30 6879 C 622.713 0.260778 -1.68089 0
M  V30 6880 O 623.898 0.127915 -1.93778 0
M  V30 6881 C 621.028 -0.187744 -3.46792 0
M  V30 6882 C 619.982 -1.14196 -4.12484 0
M  V30 6883 C 619.308 -0.427755 -5.32986 0
M  V30 6884 C 620.608 -2.48607 -4.59338 0
M  V30 6885 H 622.302 -1.66347 -2.48936 0
M  V30 6886 H 619.848 -0.801261 -1.19649 0
M  V30 6887 H 621.801 0.0586375 -4.21359 0
M  V30 6888 H 620.525 0.747485 -3.17931 0
M  V30 6889 H 619.184 -1.37369 -3.3989 0
M  V30 6890 H 618.832 0.511747 -5.0039 0
M  V30 6891 H 618.532 -1.06403 -5.77886 0
M  V30 6892 H 620.056 -0.189772 -6.10305 0
M  V30 6893 H 621.47 -2.29618 -5.25308 0
M  V30 6894 H 619.867 -3.08062 -5.14993 0
M  V30 6895 H 620.937 -3.09062 -3.73642 0
M  V30 6896 N 622.28 1.30327 -0.886154 0
M  V30 6897 C 623.51 1.99964 -0.519421 0
M  V30 6898 C 623.918 1.66593 0.89686 0
M  V30 6899 O 623.261 0.899886 1.60149 0
M  V30 6900 C 623.323 3.54187 -0.615795 0
M  V30 6901 C 622.987 4.11078 -1.9966 0
M  V30 6902 C 623.984 4.26985 -2.96614 0
M  V30 6903 C 621.669 4.46429 -2.30231 0
M  V30 6904 C 623.663 4.77456 -4.22273 0
M  V30 6905 C 621.35 4.966 -3.56135 0
M  V30 6906 C 622.348 5.12066 -4.5197 0
M  V30 6907 O 622.036 5.61154 -5.7564 0
M  V30 6908 H 621.768 0.645979 -0.199217 0
M  V30 6909 H 624.322 1.67154 -1.19368 0
M  V30 6910 H 622.552 3.86528 0.115448 0
M  V30 6911 H 624.241 4.05065 -0.26017 0
M  V30 6912 H 625.007 3.99975 -2.74308 0
M  V30 6913 H 620.886 4.33658 -1.56404 0
M  V30 6914 H 624.43 4.89444 -4.97082 0
M  V30 6915 H 620.327 5.23045 -3.78277 0
M  V30 6916 H 621.095 5.79494 -5.78039 0
M  V30 6917 N 623.758 0.647228 1.43697 0
M  V30 6918 C 624.983 0.164083 2.0675 0
M  V30 6919 C 625.408 -1.15892 1.48158 0
M  V30 6920 O 624.766 -1.71459 0.589194 0
M  V30 6921 C 624.814 0.0800368 3.60511 0
M  V30 6922 O 623.918 -0.959453 4.01084 0
M  V30 6923 H 623.259 0.0921288 0.657578 0
M  V30 6924 H 625.789 0.88846 1.84303 0
M  V30 6925 H 625.799 -0.105263 4.07864 0
M  V30 6926 H 624.474 1.04586 4.02535 0
M  V30 6927 H 623.051 -0.747425 3.65333 0
M  V30 6928 N 625.236 -1.5273 0.388769 0
M  V30 6929 C 626.461 -2.0647 -0.19621 0
M  V30 6930 C 626.886 -1.25865 -1.39784 0
M  V30 6931 O 626.244 -0.283562 -1.79069 0
M  V30 6932 C 626.292 -3.56456 -0.5451 0
M  V30 6933 O 625.396 -3.78426 -1.63912 0
M  V30 6934 H 624.737 -0.663599 -0.023067 0
M  V30 6935 H 627.267 -1.96898 0.556084 0
M  V30 6936 H 627.277 -3.99888 -0.809557 0
M  V30 6937 H 625.952 -4.14561 0.333417 0
M  V30 6938 H 624.529 -3.46884 -1.36842 0
M  V30 6939 N 626.714 -0.118576 -1.57153 0
M  V30 6940 C 627.644 0.828436 -2.1831 0
M  V30 6941 C 628.625 1.27758 -1.12303 0
M  V30 6942 O 629.81 1.34026 -1.40537 0
M  V30 6943 C 626.94 2.07876 -2.78217 0
M  V30 6944 C 625.894 1.76742 -3.89803 0
M  V30 6945 C 625.22 3.08801 -4.36516 0
M  V30 6946 C 626.52 1.03606 -5.11921 0
M  V30 6947 H 628.214 0.318824 -2.97698 0
M  V30 6948 H 625.76 0.151911 -1.43196 0
M  V30 6949 H 627.713 2.74584 -3.19659 0
M  V30 6950 H 626.437 2.61161 -1.96118 0
M  V30 6951 H 625.096 1.12424 -3.48936 0
M  V30 6952 H 624.744 3.6002 -3.51276 0
M  V30 6953 H 624.444 2.88743 -5.11763 0
M  V30 6954 H 625.968 3.76627 -4.80608 0
M  V30 6955 H 627.382 1.60467 -5.50385 0
M  V30 6956 H 625.779 0.936454 -5.92748 0
M  V30 6957 H 626.849 0.0227421 -4.84895 0
M  V30 6958 N 628.193 1.56834 0.155195 0
M  V30 6959 C 629.14 1.97646 1.19184 0
M  V30 6960 C 630.11 0.842788 1.4313 0
M  V30 6961 O 631.295 1.1042 1.55602 0
M  V30 6962 C 628.435 2.35527 2.52232 0
M  V30 6963 C 627.548 3.62147 2.35529 0
M  V30 6964 C 626.683 3.89167 3.61555 0
M  V30 6965 C 625.722 5.09084 3.39853 0
M  V30 6966 N 624.859 5.32156 4.5799 0
M  V30 6967 H 629.699 2.8601 0.836802 0
M  V30 6968 H 627.236 1.41507 0.401758 0
M  V30 6969 H 629.194 2.55516 3.29799 0
M  V30 6970 H 627.824 1.50253 2.85699 0
M  V30 6971 H 626.876 3.4998 1.49057 0
M  V30 6972 H 628.188 4.49871 2.15448 0
M  V30 6973 H 627.342 4.09611 4.47553 0
M  V30 6974 H 626.081 2.9985 3.84632 0
M  V30 6975 H 625.086 4.88522 2.52243 0
M  V30 6976 H 626.311 5.99947 3.18183 0
M  V30 6977 H 624.257 4.45791 4.81255 0
M  V30 6978 H 624.174 6.14133 4.40882 0
M  V30 6979 H 625.442 5.57091 5.45225 0
M  V30 6980 N 629.671 -0.424282 1.51781 0
M  V30 6981 C 630.581 -1.54087 1.76902 0
M  V30 6982 C 631.597 -1.61249 0.653826 0
M  V30 6983 O 632.773 -1.78247 0.937552 0
M  V30 6984 C 629.838 -2.8996 1.90063 0
M  V30 6985 C 628.899 -2.92809 3.13945 0
M  V30 6986 C 628.132 -4.22201 3.26469 0
M  V30 6987 O 628.355 -5.15286 2.44616 0
M  V30 6988 O 627.289 -4.31599 4.1953 0
M  V30 6989 H 631.115 -1.358 2.71647 0
M  V30 6990 H 628.7 -0.608618 1.36441 0
M  V30 6991 H 630.582 -3.70575 2.0063 0
M  V30 6992 H 629.257 -3.08347 0.985067 0
M  V30 6993 H 628.164 -2.11102 3.08847 0
M  V30 6994 H 629.497 -2.79369 4.05233 0
M  V30 6995 N 631.149 -1.42148 -0.680565 0
M  V30 6996 C 632.079 -1.4796 -1.80638 0
M  V30 6997 C 633.06 -0.336728 -1.66734 0
M  V30 6998 O 634.245 -0.550247 -1.86242 0
M  V30 6999 C 631.375 -1.37569 -3.18892 0
M  V30 7000 C 630.329 -2.49823 -3.47524 0
M  V30 7001 C 629.655 -2.24491 -4.85291 0
M  V30 7002 C 630.955 -3.92144 -3.44994 0
M  V30 7003 H 632.649 -2.42184 -1.76032 0
M  V30 7004 H 630.195 -1.16566 -0.845481 0
M  V30 7005 H 632.148 -1.40243 -3.97379 0
M  V30 7006 H 630.872 -0.398357 -3.24162 0
M  V30 7007 H 629.531 -2.46455 -2.71395 0
M  V30 7008 H 629.179 -1.25066 -4.87204 0
M  V30 7009 H 628.879 -2.99722 -5.05411 0
M  V30 7010 H 630.403 -2.28906 -5.66069 0
M  V30 7011 H 631.817 -3.97145 -4.13459 0
M  V30 7012 H 630.214 -4.67179 -3.76648 0
M  V30 7013 H 631.284 -4.19225 -2.43676 0
M  V30 7014 N 632.627 0.916307 -1.28225 0
M  V30 7015 C 633.873 1.66765 -1.154 0
M  V30 7016 C 634.206 1.91912 0.297251 0
M  V30 7017 O 633.481 1.51766 1.21644 0
M  V30 7018 C 633.764 3.02715 -1.95028 0
M  V30 7019 C 633.617 2.84738 -3.48201 0
M  V30 7020 C 634.936 4.03215 -1.76369 0
M  V30 7021 H 632.055 0.605205 -0.42059 0
M  V30 7022 H 634.697 1.06255 -1.57512 0
M  V30 7023 H 632.847 3.54365 -1.59242 0
M  V30 7024 H 634.519 2.40118 -3.9388 0
M  V30 7025 H 632.762 2.19848 -3.73964 0
M  V30 7026 H 633.433 3.8127 -3.99171 0
M  V30 7027 H 635.909 3.60617 -2.07593 0
M  V30 7028 H 634.785 4.96306 -2.34459 0
M  V30 7029 H 635.046 4.36288 -0.71452 0
M  V30 7030 N 634.105 1.10431 1.1244 0
M  V30 7031 C 635.035 0.775143 2.20258 0
M  V30 7032 C 636.016 -0.25186 1.68225 0
M  V30 7033 O 637.201 -0.117637 1.93843 0
M  V30 7034 C 634.331 0.206133 3.46688 0
M  V30 7035 C 633.285 1.16382 4.11873 0
M  V30 7036 C 632.611 0.456014 5.32752 0
M  V30 7037 C 633.911 2.5104 4.58013 0
M  V30 7038 H 635.605 1.67665 2.4805 0
M  V30 7039 H 633.151 0.807595 1.19222 0
M  V30 7040 H 635.104 -0.036291 4.21384 0
M  V30 7041 H 633.828 -0.730614 3.18323 0
M  V30 7042 H 632.487 1.39169 3.39157 0
M  V30 7043 H 632.135 -0.485203 5.00654 0
M  V30 7044 H 631.835 1.09466 5.77314 0
M  V30 7045 H 633.359 0.222135 6.10196 0
M  V30 7046 H 634.773 2.32401 5.24083 0
M  V30 7047 H 633.17 3.10789 5.13352 0
M  V30 7048 H 634.24 3.11039 3.71998 0
M  V30 7049 N 635.583 -1.29855 0.893053 0
M  V30 7050 C 636.533 -2.25493 0.337211 0
M  V30 7051 C 637.517 -1.51606 -0.53894 0
M  V30 7052 O 638.709 -1.72828 -0.382043 0
M  V30 7053 C 635.838 -3.40467 -0.440117 0
M  V30 7054 C 634.924 -4.217 0.450578 0
M  V30 7055 N 635.315 -4.81312 1.55476 0
M  V30 7056 C 633.613 -4.45315 0.247154 0
M  V30 7057 C 634.314 -5.42241 2.10593 0
M  V30 7058 N 633.29 -5.25267 1.39982 0
M  V30 7059 H 637.092 -2.69137 1.18079 0
M  V30 7060 H 634.606 -1.44388 0.743359 0
M  V30 7061 H 636.603 -4.08038 -0.855021 0
M  V30 7062 H 635.263 -2.98361 -1.28104 0
M  V30 7063 H 636.274 -4.80291 1.93755 0
M  V30 7064 H 632.951 -4.13782 -0.555939 0
M  V30 7065 H 634.341 -5.99517 3.03362 0
M  V30 7066 N 637.061 -0.65484 -1.43351 0
M  V30 7067 C 638.291 -0.176429 -2.05845 0
M  V30 7068 C 638.699 1.16375 -1.49176 0
M  V30 7069 O 638.042 1.72981 -0.618322 0
M  V30 7070 C 638.104 -0.0125844 -3.59498 0
M  V30 7071 C 637.768 -1.27831 -4.38758 0
M  V30 7072 C 638.765 -2.2074 -4.70712 0
M  V30 7073 C 636.45 -1.52035 -4.78739 0
M  V30 7074 C 638.444 -3.36145 -5.41558 0
M  V30 7075 C 636.131 -2.67732 -5.49329 0
M  V30 7076 C 637.129 -3.59612 -5.80662 0
M  V30 7077 O 636.817 -4.73289 -6.4981 0
M  V30 7078 H 636.549 -0.0879682 -0.670252 0
M  V30 7079 H 639.103 -0.896193 -1.84818 0
M  V30 7080 H 637.333 0.762567 -3.79107 0
M  V30 7081 H 639.022 0.423392 -4.03686 0
M  V30 7082 H 639.788 -2.03284 -4.40341 0
M  V30 7083 H 635.667 -0.813987 -4.53757 0
M  V30 7084 H 639.211 -4.07881 -5.65932 0
M  V30 7085 H 635.108 -2.85122 -5.79116 0
M  V30 7086 H 635.876 -4.72575 -6.68293 0
M  V30 7087 N 638.539 1.52521 -0.396863 0
M  V30 7088 C 639.471 2.24333 0.469814 0
M  V30 7089 C 640.484 1.2685 1.02043 0
M  V30 7090 O 641.673 1.52876 0.92147 0
M  V30 7091 C 638.773 2.95202 1.66461 0
M  V30 7092 C 637.946 4.19454 1.24003 0
M  V30 7093 C 637.005 4.73255 2.30036 0
M  V30 7094 O 636.031 5.36151 1.91131 0
M  V30 7095 N 637.233 4.53765 3.62047 0
M  V30 7096 H 639.998 2.99347 -0.145468 0
M  V30 7097 H 637.559 1.60348 -0.223606 0
M  V30 7098 H 639.551 3.28092 2.36934 0
M  V30 7099 H 638.121 2.2345 2.18607 0
M  V30 7100 H 637.341 3.92517 0.363892 0
M  V30 7101 H 638.629 5.0017 0.933135 0
M  V30 7102 H 638.027 4.03576 3.96412 0
M  V30 7103 H 636.584 4.91124 4.28533 0
M  V30 7104 N 640.017 0.126909 1.57088 0
M  V30 7105 C 640.949 -0.850973 2.12817 0
M  V30 7106 C 641.962 -1.22457 1.07276 0
M  V30 7107 O 643.151 -1.17215 1.34622 0
M  V30 7108 C 640.251 -2.15039 2.61938 0
M  V30 7109 C 639.424 -1.94726 3.91664 0
M  V30 7110 C 638.483 -3.0847 4.26301 0
M  V30 7111 O 637.509 -2.81038 4.94981 0
M  V30 7112 N 638.711 -4.35116 3.84259 0
M  V30 7113 H 641.476 -0.3748 2.97347 0
M  V30 7114 H 639.037 -0.0572793 1.61799 0
M  V30 7115 H 641.029 -2.90141 2.82135 0
M  V30 7116 H 639.599 -2.5398 1.82244 0
M  V30 7117 H 638.819 -1.03772 3.80296 0
M  V30 7118 H 640.107 -1.78469 4.76473 0
M  V30 7119 H 639.505 -4.60276 3.2888 0
M  V30 7120 H 638.062 -5.07064 4.09548 0
M  V30 7121 N 641.495 -1.56914 -0.146875 0
M  V30 7122 C 642.723 -1.87515 -0.874394 0
M  V30 7123 C 643.138 -0.715116 -1.74733 0
M  V30 7124 O 642.495 0.315113 -1.79759 0
M  V30 7125 C 642.546 -3.17362 -1.731 0
M  V30 7126 O 642.267 -4.28897 -0.893245 0
M  V30 7127 C 643.768 -3.61479 -2.56609 0
M  V30 7128 H 640.988 -0.621546 -0.252827 0
M  V30 7129 H 643.532 -2.04023 -0.139627 0
M  V30 7130 H 641.687 -3.02608 -2.41883 0
M  V30 7131 H 642.101 -5.03146 -1.48137 0
M  V30 7132 H 643.575 -4.5517 -3.12289 0
M  V30 7133 H 644.052 -2.86773 -3.32653 0
M  V30 7134 H 644.658 -3.78927 -1.93117 0
M  V30 7135 N 642.974 0.416227 -1.52004 0
M  V30 7136 C 644.199 1.19029 -1.69843 0
M  V30 7137 C 644.624 1.83708 -0.404103 0
M  V30 7138 O 643.982 1.69711 0.637787 0
M  V30 7139 C 644.03 2.23439 -2.83032 0
M  V30 7140 O 643.134 3.29419 -2.48106 0
M  V30 7141 H 642.475 0.347785 -0.565634 0
M  V30 7142 H 645.005 0.488871 -1.98674 0
M  V30 7143 H 645.015 2.67884 -3.07737 0
M  V30 7144 H 643.69 1.75745 -3.76944 0
M  V30 7145 H 642.267 2.90303 -2.34048 0
M  V30 7146 N 644.452 1.42507 0.673017 0
M  V30 7147 C 645.382 1.48916 1.79851 0
M  V30 7148 C 646.363 0.345566 1.66553 0
M  V30 7149 O 647.548 0.560116 1.85947 0
M  V30 7150 C 644.678 1.39258 3.18158 0
M  V30 7151 C 643.632 2.51662 3.46194 0
M  V30 7152 C 642.958 2.27062 4.84094 0
M  V30 7153 C 644.258 3.93968 3.42909 0
M  V30 7154 H 645.952 2.43114 1.74745 0
M  V30 7155 H 643.498 1.17013 0.839288 0
M  V30 7156 H 645.451 1.42349 3.96629 0
M  V30 7157 H 644.175 0.415542 3.23946 0
M  V30 7158 H 642.834 2.47891 2.70084 0
M  V30 7159 H 642.482 1.27648 4.86534 0
M  V30 7160 H 642.182 3.02398 5.03815 0
M  V30 7161 H 643.706 2.31905 5.64847 0
M  V30 7162 H 645.12 3.99332 4.11347 0
M  V30 7163 H 643.517 4.6917 3.74165 0
M  V30 7164 H 644.587 4.20512 2.41449 0
M  V30 7165 N 645.93 -0.909495 1.28709 0
M  V30 7166 C 647.176 -1.66151 1.16283 0
M  V30 7167 C 647.509 -1.92067 -0.287069 0
M  V30 7168 O 646.784 -1.52409 -1.20837 0
M  V30 7169 C 647.067 -3.01676 1.9663 0
M  V30 7170 C 646.92 -2.82888 3.49707 0
M  V30 7171 C 648.239 -4.02274 1.78504 0
M  V30 7172 H 645.358 -0.602966 0.423793 0
M  V30 7173 H 648 -1.05418 1.58073 0
M  V30 7174 H 646.15 -3.53515 1.61119 0
M  V30 7175 H 647.822 -2.38026 3.95147 0
M  V30 7176 H 646.065 -2.17862 3.75125 0
M  V30 7177 H 646.736 -3.79147 4.01187 0
M  V30 7178 H 649.212 -3.59511 2.09503 0
M  V30 7179 H 648.088 -4.95056 2.37088 0
M  V30 7180 H 648.349 -4.35903 0.737647 0
M  V30 7181 N 647.408 -1.11026 -1.11852 0
M  V30 7182 C 648.34 -0.72249 -2.17515 0
M  V30 7183 C 649.353 0.243782 -1.60964 0
M  V30 7184 O 650.542 0.0273252 -1.78479 0
M  V30 7185 C 647.642 -0.0463979 -3.38868 0
M  V30 7186 C 646.815 -1.0384 -4.24895 0
M  V30 7187 C 645.874 -0.392659 -5.24733 0
M  V30 7188 O 644.9 -1.0453 -5.5952 0
M  V30 7189 N 646.102 0.846296 -5.74298 0
M  V30 7190 H 648.867 -1.63161 -2.51393 0
M  V30 7191 H 646.428 -0.999899 -1.27333 0
M  V30 7192 H 648.42 0.397215 -4.02746 0
M  V30 7193 H 646.99 0.765231 -3.03089 0
M  V30 7194 H 646.21 -1.6601 -3.57539 0
M  V30 7195 H 647.498 -1.70968 -4.79215 0
M  V30 7196 H 646.896 1.39578 -5.4821 0
M  V30 7197 H 645.453 1.23296 -6.40032 0
M  V30 7198 N 648.886 1.2938 -0.899927 0
M  V30 7199 C 649.836 2.25311 -0.349165 0
M  V30 7200 C 650.82 1.51889 0.530892 0
M  V30 7201 O 652.012 1.73028 0.372872 0
M  V30 7202 C 649.141 3.40696 0.422055 0
M  V30 7203 C 648.227 4.21455 -0.472935 0
M  V30 7204 N 648.618 4.8048 -1.58026 0
M  V30 7205 C 646.916 4.45177 -0.270767 0
M  V30 7206 C 647.617 5.41117 -2.13465 0
M  V30 7207 N 646.593 5.24518 -1.42766 0
M  V30 7208 H 650.395 2.68507 -1.19505 0
M  V30 7209 H 647.909 1.43992 -0.751006 0
M  V30 7210 H 649.906 4.08486 0.833369 0
M  V30 7211 H 648.566 2.99037 1.2652 0
M  V30 7212 H 649.577 4.79257 -1.96299 0
M  V30 7213 H 646.254 4.14071 0.533988 0
M  V30 7214 H 647.644 5.979 -3.06537 0
M  V30 7215 N 650.364 0.662433 1.43002 0
M  V30 7216 C 651.312 -0.035345 2.32573 0
M  V30 7217 C 652.306 -0.803505 1.49131 0
M  V30 7218 O 653.512 -0.712865 1.65282 0
M  V30 7219 H 649.887 -0.0302194 0.751393 0
M  V30 7220 H 651.858 0.737686 2.89138 0
M  V30 7221 C 650.607 -0.981575 3.33557 0
M  V30 7222 H 649.93 -0.399914 3.97795 0
M  V30 7223 H 651.37 -1.43873 3.98844 0
M  V30 7224 C 649.829 -2.08204 2.64863 0
M  V30 7225 O 650.359 -3.16698 2.47113 0
M  V30 7226 N 648.565 -1.85022 2.24088 0
M  V30 7227 H 648.112 -0.967909 2.38724 0
M  V30 7228 H 648.07 -2.58845 1.78457 0
M  V30 7229 N 651.842 -1.52309 0.404946 0
M  V30 7230 C 653.119 -1.94237 -0.230544 0
M  V30 7231 C 653.499 -1.34154 -1.6299 0
M  V30 7232 O 652.847 -0.515713 -2.22604 0
M  V30 7233 C 653.057 -3.48166 -0.241106 0
M  V30 7234 C 654.405 -4.22074 -0.462488 0
M  V30 7235 O 655.429 -3.54754 -0.320644 0
M  V30 7236 O 654.288 -5.41443 -0.741708 0
M  V30 7237 H 651.382 -0.813766 -0.147358 0
M  V30 7238 H 653.928 -1.6333 0.460587 0
M  V30 7239 H 652.7 -3.84269 0.738467 0
M  V30 7240 H 652.323 -3.85422 -0.97651 0
M  V30 7241 N 653.32 -0.135238 -1.57019 0
M  V30 7242 C 654.545 0.529343 -2.00531 0
M  V30 7243 C 654.97 1.58391 -1.01459 0
M  V30 7244 O 654.328 1.81296 0.0113986 0
M  V30 7245 C 654.376 1.11748 -3.42848 0
M  V30 7246 O 653.48 2.23267 -3.46736 0
M  V30 7247 H 652.821 0.130669 -0.651016 0
M  V30 7248 H 655.351 -0.228503 -2.0332 0
M  V30 7249 H 655.361 1.44905 -3.81401 0
M  V30 7250 H 654.036 0.345147 -4.14465 0
M  V30 7251 H 652.613 1.91428 -3.20015 0
M  V30 7252 N 654.798 1.5699 0.138552 0
M  V30 7253 C 655.728 2.01933 1.17241 0
M  V30 7254 C 656.709 0.90033 1.44319 0
M  V30 7255 O 657.894 1.16872 1.55095 0
M  V30 7256 C 655.024 2.40711 2.50351 0
M  V30 7257 C 653.978 3.55874 2.37776 0
M  V30 7258 C 653.304 3.80491 3.75674 0
M  V30 7259 C 654.604 4.8826 1.85472 0
M  V30 7260 H 656.298 2.88551 0.798672 0
M  V30 7261 H 653.844 1.3882 0.382743 0
M  V30 7262 H 655.797 2.70754 3.22909 0
M  V30 7263 H 654.521 1.5104 2.89576 0
M  V30 7264 H 653.18 3.2601 1.67669 0
M  V30 7265 H 652.828 2.88057 4.12349 0
M  V30 7266 H 652.528 4.57998 3.68119 0
M  V30 7267 H 654.052 4.12967 4.49767 0
M  V30 7268 H 655.466 5.16965 2.4783 0
M  V30 7269 H 653.863 5.69631 1.88787 0
M  V30 7270 H 654.933 4.78071 0.810935 0
M  V30 7271 N 656.276 -0.40816 1.52223 0
M  V30 7272 C 657.224 -1.51788 1.76248 0
M  V30 7273 C 658.218 -1.57264 0.629638 0
M  V30 7274 O 659.424 -1.60659 0.811704 0
M  V30 7275 H 655.799 -0.504823 0.557367 0
M  V30 7276 H 657.77 -1.2871 2.69214 0
M  V30 7277 C 656.519 -2.89145 1.93107 0
M  V30 7278 H 655.842 -2.85674 2.79697 0
M  V30 7279 H 657.282 -3.66082 2.13916 0
M  V30 7280 C 655.741 -3.29581 0.698431 0
M  V30 7281 O 656.271 -4.01479 -0.133238 0
M  V30 7282 N 654.477 -2.85651 0.53405 0
M  V30 7283 H 654.024 -2.2731 1.21194 0
M  V30 7284 H 653.982 -3.13065 -0.289387 0
M  V30 7285 N 657.755 -1.42862 -0.66545 0
M  V30 7286 C 659.001 -1.44043 -1.42757 0
M  V30 7287 C 659.334 -0.0599629 -1.94107 0
M  V30 7288 O 658.609 0.917286 -1.71511 0
M  V30 7289 C 658.892 -2.47266 -2.61786 0
M  V30 7290 C 658.745 -3.94539 -2.16007 0
M  V30 7291 C 660.064 -2.47365 -3.64003 0
M  V30 7292 H 657.183 -0.524506 -0.517748 0
M  V30 7293 H 659.825 -1.74335 -0.755466 0
M  V30 7294 H 657.975 -2.21565 -3.19126 0
M  V30 7295 H 659.647 -4.31254 -1.63762 0
M  V30 7296 H 657.89 -4.07957 -1.47491 0
M  V30 7297 H 658.561 -4.62357 -3.01546 0
M  V30 7298 H 661.037 -2.70243 -3.16399 0
M  V30 7299 H 659.913 -3.21552 -4.44854 0
M  V30 7300 H 660.174 -1.50299 -4.15767 0
M  V30 7301 N 659.233 0.902656 -1.29189 0
M  V30 7302 C 660.649 1.18296 -1.07137 0
M  V30 7303 C 660.849 2.00701 0.179223 0
M  V30 7304 O 659.905 2.3675 0.877812 0
M  V30 7305 C 661.218 1.90677 -2.32514 0
M  V30 7306 C 662.766 2.03515 -2.37804 0
M  V30 7307 C 663.241 2.79307 -3.62976 0
M  V30 7308 N 664.732 2.86862 -3.63681 0
M  V30 7309 C 665.467 3.46035 -4.57217 0
M  V30 7310 N 664.963 4.06399 -5.61081 0
M  V30 7311 N 666.756 3.43681 -4.44792 0
M  V30 7312 H 658.907 0.352765 -2.0945 0
M  V30 7313 H 661.17 0.21876 -0.922414 0
M  V30 7314 H 660.876 1.3756 -3.23682 0
M  V30 7315 H 660.75 2.91169 -2.39793 0
M  V30 7316 H 663.137 2.55809 -1.47125 0
M  V30 7317 H 663.218 1.02166 -2.34512 0
M  V30 7318 H 662.862 2.2769 -4.54004 0
M  V30 7319 H 662.792 3.80995 -3.63525 0
M  V30 7320 H 665.283 2.43987 -2.88581 0
M  V30 7321 H 665.596 4.49564 -6.2858 0
M  V30 7322 H 663.941 4.0487 -5.64894 0
M  V30 7323 H 667.132 2.9574 -3.62843 0
M  V30 7324 H 667.305 3.89503 -5.17872 0
M  V30 7325 N 660.711 1.11618 1.11262 0
M  V30 7326 C 661.641 0.79846 2.19424 0
M  V30 7327 C 662.622 -0.234003 1.68483 0
M  V30 7328 O 663.807 -0.0970704 1.93957 0
M  V30 7329 C 660.937 0.242892 3.4645 0
M  V30 7330 C 659.891 1.20744 4.10615 0
M  V30 7331 C 659.217 0.512494 5.32238 0
M  V30 7332 C 660.517 2.55884 4.55325 0
M  V30 7333 H 662.211 1.70286 2.46258 0
M  V30 7334 H 659.757 0.820195 1.18359 0
M  V30 7335 H 661.71 0.00840447 4.21399 0
M  V30 7336 H 660.434 -0.696811 3.1908 0
M  V30 7337 H 659.093 1.42759 3.37662 0
M  V30 7338 H 658.741 -0.432075 5.01141 0
M  V30 7339 H 658.441 1.15583 5.7612 0
M  V30 7340 H 659.965 0.286842 6.09926 0
M  V30 7341 H 661.379 2.37946 5.21588 0
M  V30 7342 H 659.776 3.16216 5.10027 0
M  V30 7343 H 660.846 3.14968 3.68678 0
M  V30 7344 N 662.189 -1.289 0.906776 0
M  V30 7345 C 663.152 -2.25777 0.394656 0
M  V30 7346 C 664.152 -1.53621 -0.475119 0
M  V30 7347 O 665.342 -1.71949 -0.279165 0
M  V30 7348 C 662.474 -3.38113 -0.43499 0
M  V30 7349 H 663.667 -2.72592 1.25033 0
M  V30 7350 H 661.22 -1.40463 0.685547 0
M  V30 7351 H 661.955 -2.96648 -1.31036 0
M  V30 7352 H 661.74 -3.91647 0.188334 0
M  V30 7353 H 663.23 -4.10168 -0.784365 0
M  V30 7354 N 663.667 -0.670007 -1.42649 0
M  V30 7355 C 664.897 -0.198252 -2.05647 0
M  V30 7356 C 665.305 1.14786 -1.50402 0
M  V30 7357 O 664.648 1.72316 -0.636634 0
M  V30 7358 C 664.71 -0.0507132 -3.59464 0
M  V30 7359 C 664.374 -1.32478 -4.37377 0
M  V30 7360 C 665.371 -2.2572 -4.68344 0
M  V30 7361 C 663.056 -1.57104 -4.77099 0
M  V30 7362 C 665.05 -3.4187 -5.37963 0
M  V30 7363 C 662.737 -2.73543 -5.46459 0
M  V30 7364 C 663.735 -3.65751 -5.76815 0
M  V30 7365 O 663.423 -4.80154 -6.44753 0
M  V30 7366 H 663.155 -0.0950721 -0.669281 0
M  V30 7367 H 665.709 -0.915745 -1.83857 0
M  V30 7368 H 663.939 0.722314 -3.79894 0
M  V30 7369 H 665.628 0.380552 -4.04112 0
M  V30 7370 H 666.394 -2.07943 -4.38161 0
M  V30 7371 H 662.273 -0.862069 -4.52868 0
M  V30 7372 H 665.817 -4.13861 -5.61574 0
M  V30 7373 H 661.714 -2.91248 -5.7606 0
M  V30 7374 H 662.482 -4.79637 -6.63243 0
M  V30 7375 N 665.145 1.52092 -0.413018 0
M  V30 7376 C 666.556 1.86617 0.0556967 0
M  V30 7377 C 666.907 1.33156 1.44097 0
M  V30 7378 O 666.032 0.672417 2.05688 0
M  V30 7379 C 666.627 3.38628 0.107844 0
M  V30 7380 C 665.186 3.72778 0.520904 0
M  V30 7381 C 664.333 2.75649 -0.302109 0
M  V30 7382 H 667.284 1.45663 -0.629919 0
M  V30 7383 H 667.305 3.69152 0.922324 0
M  V30 7384 H 666.817 3.77508 -0.900506 0
M  V30 7385 H 664.918 3.39478 1.53575 0
M  V30 7386 H 665.031 4.7838 0.262591 0
M  V30 7387 H 663.395 2.53603 0.236115 0
M  V30 7388 H 664.178 3.17369 -1.30888 0
M  V30 7389 N 666.623 0.143563 1.56945 0
M  V30 7390 C 667.869 -0.50916 1.96304 0
M  V30 7391 C 668.202 -1.64741 1.0283 0
M  V30 7392 O 667.477 -1.94374 0.0700361 0
M  V30 7393 C 667.76 -1.0186 3.45393 0
M  V30 7394 C 667.613 0.117923 4.49645 0
M  V30 7395 C 668.932 -1.90151 3.96901 0
M  V30 7396 H 666.051 -0.183608 0.713763 0
M  V30 7397 H 668.693 0.224095 1.88674 0
M  V30 7398 H 666.843 -1.64345 3.52027 0
M  V30 7399 H 668.515 0.754145 4.55094 0
M  V30 7400 H 666.758 0.777568 4.26774 0
M  V30 7401 H 667.429 -0.280187 5.51288 0
M  V30 7402 H 669.905 -1.375 3.92725 0
M  V30 7403 H 668.781 -2.22707 5.0169 0
M  V30 7404 H 669.042 -2.83718 3.39052 0
M  V30 7405 N 668.101 -1.57061 -0.130224 0
M  V30 7406 C 669.051 -1.95941 -1.16582 0
M  V30 7407 C 670.035 -0.832858 -1.37667 0
M  V30 7408 O 671.227 -1.09647 -1.38948 0
M  V30 7409 C 668.356 -2.35777 -2.49528 0
M  V30 7410 C 667.442 -3.5504 -2.31964 0
M  V30 7411 N 667.833 -4.71071 -1.84189 0
M  V30 7412 C 666.131 -3.60453 -2.62659 0
M  V30 7413 C 666.832 -5.53128 -1.80068 0
M  V30 7414 N 665.808 -4.95303 -2.24001 0
M  V30 7415 H 669.61 -2.83117 -0.788806 0
M  V30 7416 H 667.124 -1.58842 -0.3381 0
M  V30 7417 H 669.121 -2.61843 -3.24413 0
M  V30 7418 H 667.781 -1.49961 -2.87996 0
M  V30 7419 H 668.792 -4.94504 -1.53903 0
M  V30 7420 H 665.469 -2.85217 -3.0489 0
M  V30 7421 H 666.859 -6.56182 -1.4448 0
M  V30 7422 N 669.579 0.400081 -1.52437 0
M  V30 7423 C 670.542 1.4707 -1.75793 0
M  V30 7424 C 671.542 1.48036 -0.627856 0
M  V30 7425 O 672.732 1.49401 -0.895817 0
M  V30 7426 C 669.864 2.86427 -1.84858 0
M  V30 7427 H 671.057 1.27649 -2.71377 0
M  V30 7428 H 668.61 0.631141 -1.42991 0
M  V30 7429 H 669.345 3.11207 -0.912194 0
M  V30 7430 H 669.13 2.87128 -2.6702 0
M  V30 7431 H 670.62 3.64023 -2.04638 0
M  V30 7432 N 671.057 1.43213 0.657864 0
M  V30 7433 C 671.989 1.43974 1.78337 0
M  V30 7434 C 673.002 0.336482 1.59285 0
M  V30 7435 O 674.191 0.600631 1.68091 0
M  V30 7436 C 671.291 1.23242 3.15697 0
M  V30 7437 C 670.464 2.46319 3.61449 0
M  V30 7438 C 669.523 2.2088 4.77597 0
M  V30 7439 O 668.549 2.942 4.87273 0
M  V30 7440 N 669.751 1.22251 5.67481 0
M  V30 7441 H 672.516 2.40993 1.78164 0
M  V30 7442 H 670.077 1.3831 0.841549 0
M  V30 7443 H 672.069 1.04113 3.91079 0
M  V30 7444 H 670.639 0.346849 3.1067 0
M  V30 7445 H 669.859 2.80904 2.76563 0
M  V30 7446 H 671.147 3.28239 3.88763 0
M  V30 7447 H 670.545 0.616433 5.62331 0
M  V30 7448 H 669.102 1.09107 6.42603 0
M  V30 7449 N 672.536 -0.895792 1.29666 0
M  V30 7450 C 673.469 -2.00238 1.09453 0
M  V30 7451 C 674.447 -1.62599 0.00527044 0
M  V30 7452 O 675.631 -1.87847 0.156729 0
M  V30 7453 C 672.758 -3.32066 0.667054 0
M  V30 7454 C 671.804 -3.88691 1.7556 0
M  V30 7455 S 672.637 -4.17317 3.35569 0
M  V30 7456 C 673.793 -5.52181 2.94698 0
M  V30 7457 H 674.026 -2.17076 2.03138 0
M  V30 7458 H 671.559 -1.04287 1.13858 0
M  V30 7459 H 673.517 -4.08272 0.427136 0
M  V30 7460 H 672.178 -3.13101 -0.250256 0
M  V30 7461 H 671.371 -4.83918 1.40853 0
M  V30 7462 H 670.973 -3.19187 1.94924 0
M  V30 7463 H 673.265 -6.3281 2.41986 0
M  V30 7464 H 674.208 -5.91817 3.88791 0
M  V30 7465 H 674.616 -5.14225 2.32879 0
M  V30 7466 N 674.014 -1.12206 -1.10668 0
M  V30 7467 C 675.425 -0.890657 -1.64086 0
M  V30 7468 C 675.776 0.575502 -1.8757 0
M  V30 7469 O 674.901 1.4394 -1.61587 0
M  V30 7470 C 675.496 -1.61029 -2.98085 0
M  V30 7471 C 674.055 -1.4251 -3.48379 0
M  V30 7472 C 673.202 -1.64778 -2.23033 0
M  V30 7473 H 676.153 -1.27718 -0.94201 0
M  V30 7474 H 676.174 -1.05993 -3.65439 0
M  V30 7475 H 675.686 -2.67735 -2.80962 0
M  V30 7476 H 673.787 -0.380497 -3.70652 0
M  V30 7477 H 673.9 -2.17959 -4.26651 0
M  V30 7478 H 672.264 -1.07171 -2.31055 0
M  V30 7479 H 673.047 -2.72776 -2.08443 0
M  V30 7480 N 675.492 1.28418 -0.913599 0
M  V30 7481 C 676.717 1.99643 -0.561899 0
M  V30 7482 C 677.142 1.67819 0.849608 0
M  V30 7483 O 676.5 0.910503 1.56779 0
M  V30 7484 C 676.548 3.52116 -0.777622 0
M  V30 7485 O 675.652 4.12076 0.163457 0
M  V30 7486 H 674.993 0.627229 -0.217898 0
M  V30 7487 H 677.523 1.63575 -1.229 0
M  V30 7488 H 677.533 4.02163 -0.687666 0
M  V30 7489 H 676.208 3.74613 -1.8066 0
M  V30 7490 H 674.785 3.72892 0.0247827 0
M  V30 7491 N 676.97 0.677563 1.42291 0
M  V30 7492 C 677.9 0.014968 2.33495 0
M  V30 7493 C 678.881 -0.786376 1.50831 0
M  V30 7494 O 680.066 -0.742975 1.79426 0
M  V30 7495 C 677.196 -0.935023 3.34477 0
M  V30 7496 C 676.15 -0.242074 4.27315 0
M  V30 7497 C 675.476 -1.30519 5.18526 0
M  V30 7498 C 676.776 0.880604 5.14823 0
M  V30 7499 H 678.47 0.776671 2.89151 0
M  V30 7500 H 676.016 0.37494 1.39033 0
M  V30 7501 H 677.969 -1.40766 3.97194 0
M  V30 7502 H 676.693 -1.72818 2.77131 0
M  V30 7503 H 675.352 0.210351 3.65996 0
M  V30 7504 H 675 -2.09041 4.57505 0
M  V30 7505 H 674.7 -0.846652 5.81468 0
M  V30 7506 H 676.224 -1.7787 5.84119 0
M  V30 7507 H 677.638 0.489062 5.7121 0
M  V30 7508 H 676.035 1.26511 5.86613 0
M  V30 7509 H 677.105 1.72818 4.53059 0
M  V30 7510 N 678.448 -1.51871 0.421078 0
M  V30 7511 C 679.688 -2.03848 -0.150167 0
M  V30 7512 C 680.052 -1.29925 -1.41363 0
M  V30 7513 O 681.253 -1.7219 -2.06408 0
M  V30 7514 C 679.524 -3.55374 -0.38003 0
M  V30 7515 S 681.083 -4.29111 -0.917011 0
M  V30 7516 H 677.901 -0.709904 -0.0394639 0
M  V30 7517 H 680.503 -1.86799 0.576746 0
M  V30 7518 H 679.207 -4.0675 0.546122 0
M  V30 7519 H 678.738 -3.76687 -1.13448 0
M  V30 7520 H 680.753 -4.44944 -2.19635 0
M  V30 7521 N 679.926 -0.151884 -1.56866 0
M  V30 7522 C 681.342 0.204486 -1.58285 0
M  V30 7523 C 681.542 1.6431 -1.16639 0
M  V30 7524 O 680.598 2.37077 -0.868946 0
M  V30 7525 C 681.911 -0.0587019 -3.00643 0
M  V30 7526 C 683.459 0.00462303 -3.13 0
M  V30 7527 C 683.934 -0.231297 -4.57416 0
M  V30 7528 N 685.425 -0.178394 -4.62856 0
M  V30 7529 C 686.16 -0.335379 -5.72418 0
M  V30 7530 N 685.656 -0.550355 -6.90611 0
M  V30 7531 N 687.449 -0.272641 -5.61438 0
M  V30 7532 H 679.6 -1.09116 -1.82229 0
M  V30 7533 H 681.863 -0.432311 -0.843689 0
M  V30 7534 H 681.569 -1.05453 -3.35518 0
M  V30 7535 H 681.443 0.658508 -3.71407 0
M  V30 7536 H 683.83 0.991009 -2.77962 0
M  V30 7537 H 683.911 -0.744992 -2.44711 0
M  V30 7538 H 683.555 -1.2148 -4.93158 0
M  V30 7539 H 683.485 0.5387 -5.23837 0
M  V30 7540 H 685.976 -0.0170923 -3.77896 0
M  V30 7541 H 686.289 -0.660116 -7.69976 0
M  V30 7542 H 684.634 -0.586736 -6.92519 0
M  V30 7543 H 687.825 -0.105421 -4.67981 0
M  V30 7544 H 687.998 -0.398418 -6.46774 0
M  V30 7545 O 681.443 1.61494 -0.0134355 0
M  V30 7546 H 682.134 1.84128 0.601368 0
M  V30 END ATOM
M  V30 BEGIN BOND
M  V30 END BOND
M  V30 END CTAB
M  END
$$$$
