drugbank_target|Q00975 Voltage-dependent N-type calcium channel subunit alpha-1B (DB00381; DB00661; DB01202; DB05885; DB05950; DB06283; DB08838; DB09231; DB09232)
 OpenBabel12092120073D

  0  0  0     0  0            999 V3000
M  V30 BEGIN CTAB
M  V30 COUNTS 36870 37319 0 0 0
M  V30 BEGIN ATOM
M  V30 1 H -0.908 1.98254 -0.117106 0
M  V30 2 N 0 1.576 0 0
M  V30 3 C 0.933 2.03868 1.02534 0
M  V30 4 C 1.911 0.928543 1.3348 0
M  V30 5 O 3.095 1.19667 1.45644 0
M  V30 6 C 0.222 2.43627 2.35294 0
M  V30 7 C -0.732 3.65373 2.2001 0
M  V30 8 S 0.101 5.13292 1.52614 0
M  V30 9 C 1.257 5.56322 2.86805 0
M  V30 10 H 1.49 2.90518 0.631377 0
M  V30 11 H -0.977 1.52953 0.210867 0
M  V30 12 H 0.981 2.67203 3.11629 0
M  V30 13 H -0.358 1.57376 2.7183 0
M  V30 14 H -1.165 3.90944 3.18086 0
M  V30 15 H -1.563 3.418 1.51819 0
M  V30 16 H 0.729 5.58782 3.83104 0
M  V30 17 H 1.672 6.56266 2.65933 0
M  V30 18 H 2.08 4.83886 2.90714 0
M  V30 19 N 1.4781 -0.272755 1.55222 0
M  V30 20 C 2.7241 -1.00581 1.761 0
M  V30 21 C 3.0571 -1.85932 0.560625 0
M  V30 22 O 2.3321 -1.89416 -0.441801 0
M  V30 23 C 2.6151 -1.88816 3.06628 0
M  V30 24 C 2.4681 -1.06457 4.37021 0
M  V30 25 C 3.7871 -2.8752 3.33197 0
M  V30 26 H 0.9061 -0.364244 0.640699 0
M  V30 27 H 3.5481 -0.278189 1.87952 0
M  V30 28 H 1.6981 -2.50856 2.96654 0
M  V30 29 H 3.3701 -0.464863 4.58952 0
M  V30 30 H 1.6131 -0.368043 4.32236 0
M  V30 31 H 2.2841 -1.71514 5.24678 0
M  V30 32 H 4.7601 -2.35615 3.42965 0
M  V30 33 H 3.6361 -3.46399 4.25792 0
M  V30 34 H 3.8971 -3.62657 2.52849 0
M  V30 35 N 2.9562 -1.48159 -0.537278 0
M  V30 36 C 4.3722 -1.34118 -0.865129 0
M  V30 37 C 4.5722 -0.346678 -1.98495 0
M  V30 38 O 3.6282 0.234715 -2.51407 0
M  V30 39 C 4.9412 -2.73963 -1.23954 0
M  V30 40 C 6.4892 -2.82397 -1.34984 0
M  V30 41 C 6.9642 -4.22928 -1.75772 0
M  V30 42 N 8.4552 -4.25566 -1.82887 0
M  V30 43 C 9.1902 -5.31235 -2.15817 0
M  V30 44 N 8.6862 -6.47189 -2.47222 0
M  V30 45 N 10.4792 -5.18624 -2.16761 0
M  V30 46 H 2.6302 -2.1144 0.201715 0
M  V30 47 H 4.8932 -0.947598 0.0275949 0
M  V30 48 H 4.5992 -3.48264 -0.490381 0
M  V30 49 H 4.4732 -3.0702 -2.19132 0
M  V30 50 H 6.8602 -2.08356 -2.08978 0
M  V30 51 H 6.9412 -2.5297 -0.379448 0
M  V30 52 H 6.5852 -4.97482 -1.02341 0
M  V30 53 H 6.5152 -4.49794 -2.73848 0
M  V30 54 H 9.0062 -3.41924 -1.60924 0
M  V30 55 H 9.3192 -7.23564 -2.71433 0
M  V30 56 H 7.6642 -6.50476 -2.44757 0
M  V30 57 H 10.8552 -4.27056 -1.91679 0
M  V30 58 H 11.0282 -6.01078 -2.42093 0
M  V30 59 N 4.4343 0.785586 -1.36625 0
M  V30 60 C 5.6813 1.54362 -1.31067 0
M  V30 61 C 6.0093 1.94195 0.10893 0
M  V30 62 O 5.2643 1.63262 1.07908 0
M  V30 63 C 5.5633 2.83007 -2.1827 0
M  V30 64 C 5.2293 2.62294 -3.6676 0
M  V30 65 C 3.8913 2.56353 -4.0723 0
M  V30 66 C 6.2433 2.43371 -4.6089 0
M  V30 67 C 3.5713 2.29461 -5.39967 0
M  V30 68 C 5.9233 2.18005 -5.93849 0
M  V30 69 C 4.5873 2.105 -6.3344 0
M  V30 70 H 3.8573 0.564851 -0.479609 0
M  V30 71 H 6.5043 0.906028 -1.68711 0
M  V30 72 H 4.8093 3.51253 -1.73576 0
M  V30 73 H 6.5063 3.40817 -2.11292 0
M  V30 74 H 3.0963 2.67774 -3.34656 0
M  V30 75 H 7.2803 2.46959 -4.30494 0
M  V30 76 H 2.5363 2.22135 -5.69619 0
M  V30 77 H 6.7103 2.02359 -6.66351 0
M  V30 78 H 4.3373 1.89425 -7.36222 0
M  V30 79 N 5.9124 1.20967 1.01018 0
M  V30 80 C 7.1604 1.02172 1.74371 0
M  V30 81 C 7.4814 -0.446414 1.89821 0
M  V30 82 O 6.7514 -1.32234 1.44537 0
M  V30 83 H 5.3314 0.375066 0.646014 0
M  V30 84 H 7.9934 1.52187 1.21758 0
M  V30 85 H 7.0894 1.48538 2.74487 0
M  V30 86 N 7.3905 -1.2043 1.01659 0
M  V30 87 C 8.6675 -1.8548 0.621004 0
M  V30 88 C 9.0475 -1.9091 -0.900919 0
M  V30 89 O 8.3955 -1.41694 -1.79263 0
M  V30 90 C 8.6055 -3.25119 1.2688 0
M  V30 91 C 9.9535 -4.01403 1.38423 0
M  V30 92 O 10.9775 -3.34473 1.22501 0
M  V30 93 O 9.8365 -5.21265 1.64151 0
M  V30 94 H 6.9305 -0.798761 0.214266 0
M  V30 95 H 9.4765 -1.28019 1.11396 0
M  V30 96 H 8.2485 -3.15932 2.30873 0
M  V30 97 H 7.8715 -3.90212 0.762917 0
M  V30 98 N 8.8686 -0.792821 -1.36206 0
M  V30 99 C 9.7786 -0.194808 -2.3379 0
M  V30 100 C 10.7946 0.654869 -1.61206 0
M  V30 101 O 11.9706 0.569856 -1.9317 0
M  V30 102 C 9.0356 0.657721 -3.40404 0
M  V30 103 C 8.0966 -0.210849 -4.28782 0
M  V30 104 C 7.3296 0.601086 -5.30304 0
M  V30 105 O 7.5526 1.83682 -5.40016 0
M  V30 106 O 6.4866 -0.000808277 -6.019 0
M  V30 107 H 10.3126 -1.00172 -2.86704 0
M  V30 108 H 7.8976 -0.554341 -1.38735 0
M  V30 109 H 9.7796 1.14375 -4.05581 0
M  V30 110 H 8.4546 1.44247 -2.89784 0
M  V30 111 H 7.3616 -0.743714 -3.66633 0
M  V30 112 H 8.6946 -0.959195 -4.82763 0
M  V30 113 N 10.3467 1.47872 -0.545128 0
M  V30 114 C 11.2767 2.32661 0.197793 0
M  V30 115 C 12.2577 1.43041 0.920504 0
M  V30 116 O 13.4427 1.71912 0.90333 0
M  V30 117 C 10.5727 3.24569 1.23582 0
M  V30 118 C 9.5267 4.23333 0.630323 0
M  V30 119 C 8.8527 5.0448 1.77211 0
M  V30 120 C 10.1527 5.20704 -0.407974 0
M  V30 121 H 11.8467 2.95024 -0.510045 0
M  V30 122 H 9.3927 1.4187 -0.246731 0
M  V30 123 H 11.3457 3.8272 1.76362 0
M  V30 124 H 10.0697 2.60236 1.97344 0
M  V30 125 H 8.7287 3.6639 0.123922 0
M  V30 126 H 8.3767 4.36561 2.49847 0
M  V30 127 H 8.0767 5.71339 1.37281 0
M  V30 128 H 9.6007 5.65487 2.3034 0
M  V30 129 H 11.0147 5.7329 0.033305 0
M  V30 130 H 9.4117 5.95699 -0.725486 0
M  V30 131 H 10.4817 4.66917 -1.30828 0
M  V30 132 N 11.8248 0.280983 1.55075 0
M  V30 133 C 13.0728 -0.333455 1.9933 0
M  V30 134 C 13.3938 -1.55937 1.17085 0
M  V30 135 O 12.6638 -1.94143 0.261805 0
M  V30 136 H 11.2438 -0.126197 0.736263 0
M  V30 137 H 13.9058 0.387678 1.91005 0
M  V30 138 H 13.0018 -0.619292 3.05894 0
M  V30 139 N 13.3029 -1.57598 0.00835791 0
M  V30 140 C 14.5509 -1.90551 -0.6734 0
M  V30 141 C 14.8719 -0.883301 -1.73847 0
M  V30 142 O 14.1419 0.0781442 -1.95744 0
M  V30 143 H 12.7219 -0.703312 -0.251717 0
M  V30 144 H 15.3839 -1.94833 0.0512592 0
M  V30 145 H 14.4799 -2.9056 -1.13935 0
M  V30 146 N 14.781 0.264519 -1.55364 0
M  V30 147 C 16.197 0.61215 -1.47394 0
M  V30 148 C 16.397 1.89134 -0.695018 0
M  V30 149 O 15.453 2.51563 -0.217275 0
M  V30 150 C 16.766 0.731235 -2.91674 0
M  V30 151 C 18.314 0.82473 -3.01939 0
M  V30 152 C 18.789 0.975522 -4.4749 0
M  V30 153 N 20.28 1.04083 -4.51354 0
M  V30 154 C 21.015 1.17646 -5.61201 0
M  V30 155 N 20.511 1.27874 -6.80896 0
M  V30 156 N 22.304 1.20823 -5.48961 0
M  V30 157 H 14.455 -0.575456 -2.04456 0
M  V30 158 H 16.718 -0.196099 -0.927496 0
M  V30 159 H 16.424 -0.138392 -3.51428 0
M  V30 160 H 16.298 1.60883 -3.41169 0
M  V30 161 H 18.685 1.68482 -2.42276 0
M  V30 162 H 18.766 -0.0776479 -2.55682 0
M  V30 163 H 18.41 0.120058 -5.07758 0
M  V30 164 H 18.34 1.89268 -4.91412 0
M  V30 165 H 20.831 0.973846 -3.65136 0
M  V30 166 H 21.144 1.38081 -7.60364 0
M  V30 167 H 19.489 1.24863 -6.83692 0
M  V30 168 H 22.68 1.12469 -4.54388 0
M  V30 169 H 22.853 1.31049 -6.3461 0
M  V30 170 N 16.2591 1.48442 0.529413 0
M  V30 171 C 17.4891 1.59919 1.30804 0
M  V30 172 C 17.8971 0.258792 1.87422 0
M  V30 173 O 17.2401 -0.762096 1.67146 0
M  V30 174 C 17.3021 2.58693 2.49636 0
M  V30 175 C 16.9661 4.03745 2.14101 0
M  V30 176 C 17.9631 4.9141 1.6974 0
M  V30 177 C 15.6481 4.49285 2.24607 0
M  V30 178 C 17.6421 6.22645 1.36351 0
M  V30 179 C 15.3291 5.8054 1.9083 0
M  V30 180 C 16.3271 6.67043 1.46773 0
M  V30 181 O 16.0151 7.95856 1.1344 0
M  V30 182 H 15.7471 0.541981 0.404021 0
M  V30 183 H 18.3011 1.95 0.645309 0
M  V30 184 H 16.5311 2.18734 3.18892 0
M  V30 185 H 18.2201 2.59999 3.11698 0
M  V30 186 H 18.9861 4.57465 1.61094 0
M  V30 187 H 14.8651 3.82142 2.57854 0
M  V30 188 H 18.4091 6.90119 1.01891 0
M  V30 189 H 14.3061 6.14022 1.99117 0
M  V30 190 H 15.0741 8.08613 1.26832 0
M  V30 191 N 17.7372 -0.778329 1.37039 0
M  V30 192 C 18.9852 -1.53361 1.31623 0
M  V30 193 C 19.3062 -1.94739 -0.100831 0
M  V30 194 O 18.5762 -1.65797 -1.04347 0
M  V30 195 H 17.1562 -0.568794 0.484234 0
M  V30 196 H 19.8182 -0.926742 1.71457 0
M  V30 197 H 18.9142 -2.43606 1.95096 0
M  V30 198 N 19.2153 -1.21501 -1.00376 0
M  V30 199 C 20.4633 -1.03095 -1.73827 0
M  V30 200 C 20.7843 0.436341 -1.90055 0
M  V30 201 O 20.0543 1.31466 -1.45236 0
M  V30 202 H 18.6343 -0.378487 -0.644016 0
M  V30 203 H 21.2963 -1.52831 -1.20949 0
M  V30 204 H 20.3923 -1.49991 -2.73695 0
M  V30 205 N 20.6934 1.19889 -1.02296 0
M  V30 206 C 22.1044 1.71124 -0.746568 0
M  V30 207 C 22.4554 1.81939 0.734335 0
M  V30 208 O 21.5804 1.48639 1.57275 0
M  V30 209 C 22.1754 3.10804 -1.34857 0
M  V30 210 C 20.7344 3.59323 -1.1209 0
M  V30 211 C 19.8814 2.3635 -1.45031 0
M  V30 212 H 22.8324 1.04813 -1.19163 0
M  V30 213 H 22.8534 3.73186 -0.742437 0
M  V30 214 H 22.3654 3.029 -2.42638 0
M  V30 215 H 20.4664 3.7255 -0.0610337 0
M  V30 216 H 20.5794 4.4378 -1.80544 0
M  V30 217 H 18.9434 2.39399 -0.869487 0
M  V30 218 H 19.7264 2.31081 -2.53883 0
M  V30 219 N 22.1715 0.800033 1.35784 0
M  V30 220 C 23.4195 0.376597 1.9856 0
M  V30 221 C 23.7405 -1.05812 1.63795 0
M  V30 222 O 23.0105 -1.73103 0.917171 0
M  V30 223 H 21.5905 0.136261 0.734467 0
M  V30 224 H 24.2525 1.02442 1.65806 0
M  V30 225 H 23.3485 0.477002 3.08433 0
M  V30 226 N 23.6496 -1.47581 0.552962 0
M  V30 227 C 24.8976 -2.02082 0.0272703 0
M  V30 228 C 25.2186 -1.4301 -1.32563 0
M  V30 229 O 24.4886 -0.603745 -1.86365 0
M  V30 230 H 23.0686 -0.746966 0.00709182 0
M  V30 231 H 25.7306 -1.81033 0.722008 0
M  V30 232 H 24.8266 -3.12034 -0.0639951 0
M  V30 233 N 25.1277 -0.289203 -1.54924 0
M  V30 234 C 26.3757 0.322879 -1.99504 0
M  V30 235 C 26.6967 1.55313 -1.1791 0
M  V30 236 O 25.9667 1.94001 -0.272097 0
M  V30 237 H 24.5467 0.122291 -0.736922 0
M  V30 238 H 27.2087 -0.397802 -1.90797 0
M  V30 239 H 26.3047 0.603061 -3.06218 0
M  V30 240 N 26.6058 1.57591 -0.0167156 0
M  V30 241 C 27.5158 2.1291 0.98521 0
M  V30 242 C 28.5318 1.07834 1.36557 0
M  V30 243 O 29.7078 1.39826 1.44951 0
M  V30 244 C 26.7728 2.63512 2.25305 0
M  V30 245 C 25.8338 3.83256 1.93426 0
M  V30 246 C 25.0668 4.31435 3.14165 0
M  V30 247 O 25.2898 3.78851 4.26413 0
M  V30 248 O 24.2238 5.23416 2.97186 0
M  V30 249 H 28.0498 2.98772 0.544888 0
M  V30 250 H 25.6348 1.48012 0.203141 0
M  V30 251 H 27.5168 2.96183 2.99756 0
M  V30 252 H 26.1918 1.8074 2.68542 0
M  V30 253 H 25.0988 3.55531 1.16398 0
M  V30 254 H 26.4318 4.67153 1.55013 0
M  V30 255 N 28.0839 -0.256276 1.55502 0
M  V30 256 C 29.4999 -0.604325 1.47716 0
M  V30 257 C 29.6999 -1.88763 0.705039 0
M  V30 258 O 28.7559 -2.51445 0.230613 0
M  V30 259 C 30.0689 -0.715756 2.92057 0
M  V30 260 C 31.6169 -0.808706 3.02372 0
M  V30 261 C 32.0919 -0.951777 4.48001 0
M  V30 262 N 33.5829 -1.01688 4.519 0
M  V30 263 C 34.3179 -1.14668 5.61817 0
M  V30 264 N 33.8139 -1.24261 6.81565 0
M  V30 265 N 35.6069 -1.1791 5.49594 0
M  V30 266 H 27.7579 0.586291 2.04148 0
M  V30 267 H 30.0209 0.201015 0.926443 0
M  V30 268 H 29.7269 0.157027 3.51349 0
M  V30 269 H 29.6009 -1.59071 3.42018 0
M  V30 270 H 31.9879 -1.67195 2.43166 0
M  V30 271 H 32.0689 0.0912063 2.55637 0
M  V30 272 H 31.7129 -0.0931291 5.07815 0
M  V30 273 H 31.6429 -1.86659 4.92408 0
M  V30 274 H 34.1339 -0.954468 3.65648 0
M  V30 275 H 34.4469 -1.34046 7.61086 0
M  V30 276 H 32.7919 -1.21236 6.84344 0
M  V30 277 H 35.9829 -1.10057 4.54978 0
M  V30 278 H 36.1559 -1.27681 6.35296 0
M  V30 279 N 29.562 -1.4872 -0.521534 0
M  V30 280 C 30.525 -1.63379 -1.60748 0
M  V30 281 C 31.525 -0.50661 -1.52611 0
M  V30 282 O 32.715 -0.772601 -1.5613 0
M  V30 283 C 29.847 -1.61192 -3.00383 0
M  V30 284 H 31.04 -2.60217 -1.49087 0
M  V30 285 H 28.593 -1.37444 -0.744235 0
M  V30 286 H 29.328 -0.65863 -3.17541 0
M  V30 287 H 29.113 -2.43032 -3.07698 0
M  V30 288 H 30.603 -1.7466 -3.7932 0
M  V30 289 N 31.0401 0.771051 -1.3745 0
M  V30 290 C 32.4561 1.07171 -1.18265 0
M  V30 291 C 32.6561 2.01491 -0.019287 0
M  V30 292 O 31.7121 2.44244 0.640408 0
M  V30 293 C 33.0251 1.66854 -2.50161 0
M  V30 294 C 34.5731 1.79109 -2.56689 0
M  V30 295 C 35.0481 2.42205 -3.88717 0
M  V30 296 N 36.5391 2.49655 -3.90162 0
M  V30 297 C 37.2741 2.9933 -4.8907 0
M  V30 298 N 36.7701 3.49172 -5.98374 0
M  V30 299 N 38.5631 2.9821 -4.76474 0
M  V30 300 H 30.7141 0.144796 -2.11906 0
M  V30 301 H 32.9771 0.126863 -0.939473 0
M  V30 302 H 32.6831 1.05017 -3.35655 0
M  V30 303 H 32.5571 2.6614 -2.673 0
M  V30 304 H 34.9441 2.40077 -1.71601 0
M  V30 305 H 35.0251 0.785757 -2.43433 0
M  V30 306 H 34.6691 1.81875 -4.74219 0
M  V30 307 H 34.5991 3.43345 -3.99276 0
M  V30 308 H 37.0901 2.14383 -3.11205 0
M  V30 309 H 37.4031 3.8548 -6.69795 0
M  V30 310 H 35.7481 3.47275 -6.02018 0
M  V30 311 H 38.9391 2.58572 -3.90203 0
M  V30 312 H 39.1121 3.36613 -5.53711 0
M  V30 313 N 32.5182 1.22032 0.997298 0
M  V30 314 C 33.7662 1.04016 1.73278 0
M  V30 315 C 34.0872 -0.426255 1.90284 0
M  V30 316 O 33.3572 -1.30694 1.45931 0
M  V30 317 H 31.9372 0.381897 0.642 0
M  V30 318 H 34.5992 1.5347 1.20137 0
M  V30 319 H 33.6952 1.51441 2.72896 0
M  V30 320 N 33.9963 -1.19345 1.0293 0
M  V30 321 C 35.2443 -1.88665 0.724574 0
M  V30 322 C 35.5653 -1.80036 -0.749144 0
M  V30 323 O 34.8353 -1.2111 -1.53978 0
M  V30 324 H 33.4153 -0.698406 0.265025 0
M  V30 325 H 36.0773 -1.44885 1.30362 0
M  V30 326 H 35.1733 -2.94987 1.01926 0
M  V30 327 N 35.4744 -0.807222 -1.35358 0
M  V30 328 C 36.7224 -0.387122 -1.98358 0
M  V30 329 C 37.0434 1.04942 -1.64354 0
M  V30 330 O 36.3134 1.72615 -0.926339 0
M  V30 331 H 34.8934 -0.140154 -0.733734 0
M  V30 332 H 37.5554 -1.0332 -1.6526 0
M  V30 333 H 36.6514 -0.493352 -3.08176 0
M  V30 334 N 36.9525 1.47285 -0.560781 0
M  V30 335 C 37.9155 2.28535 0.174488 0
M  V30 336 C 38.9155 1.37153 0.839388 0
M  V30 337 O 40.1055 1.59748 0.694702 0
M  V30 338 C 37.2375 3.16934 1.25561 0
M  V30 339 H 38.4305 2.95012 -0.539262 0
M  V30 340 H 35.9835 1.53034 -0.317865 0
M  V30 341 H 36.7185 2.55157 2.00164 0
M  V30 342 H 36.5035 3.8419 0.783604 0
M  V30 343 H 37.9935 3.78143 1.77193 0
M  V30 344 N 38.4306 0.297415 1.54768 0
M  V30 345 C 39.6786 -0.312295 1.99673 0
M  V30 346 C 39.9996 -1.54686 1.18732 0
M  V30 347 O 39.2696 -1.93854 0.282382 0
M  V30 348 H 37.8496 -0.118381 0.73756 0
M  V30 349 H 40.5116 0.407915 1.90583 0
M  V30 350 H 39.6076 -0.586813 3.06534 0
M  V30 351 N 39.9087 -1.5758 0.0250728 0
M  V30 352 C 41.1567 -1.91255 -0.653151 0
M  V30 353 C 41.4777 -0.901691 -1.729 0
M  V30 354 O 40.7477 0.0573785 -1.95816 0
M  V30 355 H 39.3277 -0.705942 -0.244243 0
M  V30 356 H 41.9897 -1.94767 0.0719209 0
M  V30 357 H 41.0857 -2.91752 -1.10847 0
M  V30 358 N 41.3868 0.248026 -1.55636 0
M  V30 359 C 42.3498 1.29044 -1.89421 0
M  V30 360 C 43.3498 1.41134 -0.770581 0
M  V30 361 O 44.5398 1.39854 -1.03858 0
M  V30 362 C 41.6718 2.66831 -2.12165 0
M  V30 363 H 42.8648 1.00305 -2.82629 0
M  V30 364 H 40.4178 0.487265 -1.48511 0
M  V30 365 H 41.1528 3.00711 -1.21422 0
M  V30 366 H 40.9378 2.59438 -2.93997 0
M  V30 367 H 42.4278 3.42103 -2.3949 0
M  V30 368 N 42.8649 1.48995 0.513639 0
M  V30 369 C 44.1129 1.57531 1.26604 0
M  V30 370 C 44.4339 0.258236 1.93283 0
M  V30 371 O 43.7039 -0.721502 1.8213 0
M  V30 372 H 42.2839 0.580387 0.470276 0
M  V30 373 H 44.9459 1.85552 0.596373 0
M  V30 374 H 44.0419 2.36486 2.03669 0
M  V30 375 N 44.343 -0.763751 1.37857 0
M  V30 376 C 45.591 -1.51957 1.33243 0
M  V30 377 C 45.912 -1.94835 -0.0801709 0
M  V30 378 O 45.182 -1.66894 -1.02582 0
M  V30 379 H 43.762 -0.563626 0.49024 0
M  V30 380 H 46.424 -0.908504 1.7243 0
M  V30 381 H 45.52 -2.41523 1.97669 0
M  V30 382 N 45.8211 -1.22559 -0.990812 0
M  V30 383 C 47.2321 -1.04791 -1.54518 0
M  V30 384 C 47.5831 0.387998 -1.92325 0
M  V30 385 O 46.7081 1.27328 -1.74976 0
M  V30 386 C 47.3031 -1.896 -2.80779 0
M  V30 387 C 45.8621 -1.76124 -3.32652 0
M  V30 388 C 45.0091 -1.8594 -2.05722 0
M  V30 389 H 47.9601 -1.36374 -0.811662 0
M  V30 390 H 47.9811 -1.41464 -3.53225 0
M  V30 391 H 47.4931 -2.94101 -2.53231 0
M  V30 392 H 45.5941 -0.743643 -3.65104 0
M  V30 393 H 45.7071 -2.58913 -4.03114 0
M  V30 394 H 44.0711 -1.29403 -2.19379 0
M  V30 395 H 44.8541 -2.91976 -1.80568 0
M  V30 396 N 47.2992 1.18797 -1.03562 0
M  V30 397 C 48.5472 1.88278 -0.734569 0
M  V30 398 C 48.8682 1.8043 0.739586 0
M  V30 399 O 48.1382 1.21925 1.53333 0
M  V30 400 H 46.7182 0.696991 -0.268725 0
M  V30 401 H 49.3802 1.44192 -1.31129 0
M  V30 402 H 48.4762 2.94443 -1.03489 0
M  V30 403 N 48.7773 0.814389 1.34928 0
M  V30 404 C 50.1883 0.458364 1.80986 0
M  V30 405 C 50.5393 -1.02042 1.67577 0
M  V30 406 O 49.6643 -1.79352 1.21086 0
M  V30 407 C 50.2593 0.825212 3.28597 0
M  V30 408 C 48.8183 0.521677 3.72767 0
M  V30 409 C 47.9653 1.04668 2.56788 0
M  V30 410 H 50.9163 1.00533 1.22795 0
M  V30 411 H 50.9373 0.12571 3.80292 0
M  V30 412 H 50.4493 1.90154 3.38324 0
M  V30 413 H 48.5503 -0.545589 3.68584 0
M  V30 414 H 48.6633 1.05977 4.67232 0
M  V30 415 H 47.0273 0.468622 2.50352 0
M  V30 416 H 47.8103 2.12927 2.6929 0
M  V30 417 N 50.2554 -1.46986 0.568584 0
M  V30 418 C 51.5034 -2.02041 0.0487022 0
M  V30 419 C 51.8244 -1.44408 -1.31039 0
M  V30 420 O 51.0944 -0.623477 -1.85714 0
M  V30 421 H 49.6744 -0.746849 0.015014 0
M  V30 422 H 52.3364 -1.80257 0.741168 0
M  V30 423 H 51.4324 -3.12085 -0.0308961 0
M  V30 424 N 51.7335 -0.305618 -1.54608 0
M  V30 425 C 52.9815 0.301701 -1.99835 0
M  V30 426 C 53.3025 1.54054 -1.19551 0
M  V30 427 O 52.5725 1.93702 -0.292658 0
M  V30 428 H 51.1525 0.114468 -0.738178 0
M  V30 429 H 53.8145 -0.418016 -1.90364 0
M  V30 430 H 52.9105 0.570548 -3.06841 0
M  V30 431 N 53.2116 1.57565 -0.0334293 0
M  V30 432 C 54.1416 2.13511 0.945265 0
M  V30 433 C 55.1226 1.05231 1.33643 0
M  V30 434 O 56.3076 1.33084 1.41429 0
M  V30 435 C 53.4376 2.6657 2.22616 0
M  V30 436 C 52.3916 3.79676 1.97561 0
M  V30 437 C 51.7176 4.1918 3.31952 0
M  V30 438 C 53.0176 5.0557 1.31135 0
M  V30 439 H 54.7116 2.95538 0.479325 0
M  V30 440 H 52.2576 1.42166 0.229115 0
M  V30 441 H 54.2106 3.04344 2.91466 0
M  V30 442 H 52.9346 1.8171 2.71384 0
M  V30 443 H 51.5936 3.42347 1.31127 0
M  V30 444 H 51.2416 3.31296 3.78487 0
M  V30 445 H 50.9416 4.95402 3.15992 0
M  V30 446 H 52.4656 4.59541 4.02063 0
M  V30 447 H 53.8796 5.40903 1.89992 0
M  V30 448 H 52.2766 5.86818 1.25559 0
M  V30 449 H 53.3466 4.84062 0.284894 0
M  V30 450 N 54.6897 -0.239769 1.55765 0
M  V30 451 C 55.6217 -1.32001 1.87372 0
M  V30 452 C 56.6347 -1.43944 0.760522 0
M  V30 453 O 57.8237 -1.45167 1.0387 0
M  V30 454 C 54.9237 -2.69779 2.05115 0
M  V30 455 C 54.0967 -2.80014 3.36022 0
M  V30 456 C 53.1557 -3.98684 3.4342 0
M  V30 457 O 52.1817 -3.87877 4.16582 0
M  V30 458 N 53.3837 -5.12176 2.73232 0
M  V30 459 H 56.1487 -1.0522 2.80622 0
M  V30 460 H 53.7097 -0.429857 1.56089 0
M  V30 461 H 55.7017 -3.47517 2.07399 0
M  V30 462 H 54.2717 -2.89237 1.18577 0
M  V30 463 H 53.4917 -1.88896 3.45994 0
M  V30 464 H 54.7797 -2.83808 4.22292 0
M  V30 465 H 54.1777 -5.2385 2.13536 0
M  V30 466 H 52.7347 -5.88022 2.81199 0
M  V30 467 N 56.1678 -1.49265 -0.50573 0
M  V30 468 C 57.5788 -1.51769 -1.08734 0
M  V30 469 C 57.9298 -0.301192 -1.93874 0
M  V30 470 O 57.0548 0.589456 -2.08217 0
M  V30 471 C 57.6498 -2.75017 -1.97867 0
M  V30 472 C 56.2088 -2.80314 -2.51199 0
M  V30 473 C 55.3558 -2.4562 -1.28709 0
M  V30 474 H 58.3068 -1.56031 -0.289855 0
M  V30 475 H 58.3278 -2.5491 -2.82491 0
M  V30 476 H 57.8398 -3.63539 -1.35873 0
M  V30 477 H 55.9408 -1.96061 -3.16845 0
M  V30 478 H 56.0538 -3.82366 -2.88675 0
M  V30 479 H 54.4178 -1.97297 -1.61078 0
M  V30 480 H 55.2008 -3.36411 -0.6843 0
M  V30 481 N 57.6459 0.756429 -1.3826 0
M  V30 482 C 58.8939 1.51248 -1.34047 0
M  V30 483 C 59.2149 1.94875 0.0698372 0
M  V30 484 O 58.4849 1.67436 1.01696 0
M  V30 485 H 57.0649 0.561018 -0.493222 0
M  V30 486 H 59.7269 0.899347 -1.7291 0
M  V30 487 H 58.8229 2.40472 -1.98947 0
M  V30 488 N 59.124 1.23083 0.984299 0
M  V30 489 C 60.056 0.96636 2.07832 0
M  V30 490 C 61.069 -0.0582135 1.62696 0
M  V30 491 O 62.258 0.176843 1.77622 0
M  V30 492 C 59.358 0.433397 3.36117 0
M  V30 493 C 58.531 1.51722 4.10243 0
M  V30 494 C 57.59 0.989821 5.16807 0
M  V30 495 O 56.616 1.67794 5.43906 0
M  V30 496 N 57.818 -0.184367 5.80207 0
M  V30 497 H 60.583 1.90824 2.31098 0
M  V30 498 H 58.144 1.13888 1.1507 0
M  V30 499 H 60.136 0.065699 4.04647 0
M  V30 500 H 58.706 -0.413806 3.09849 0
M  V30 501 H 57.926 2.05786 3.36223 0
M  V30 502 H 59.214 2.24619 4.56534 0
M  V30 503 H 58.612 -0.760062 5.60571 0
M  V30 504 H 57.169 -0.493366 6.4993 0
M  V30 505 N 60.6021 -1.18246 1.0419 0
M  V30 506 C 62.0181 -1.40269 0.761366 0
M  V30 507 C 62.2181 -1.90777 -0.648578 0
M  V30 508 O 61.2741 -2.0929 -1.41258 0
M  V30 509 C 62.5871 -2.40237 1.8085 0
M  V30 510 C 64.1351 -2.53961 1.82955 0
M  V30 511 C 64.6101 -3.57194 2.86664 0
M  V30 512 N 66.1011 -3.64702 2.85563 0
M  V30 513 C 66.8361 -4.44309 3.6246 0
M  V30 514 N 66.3321 -5.27514 4.49111 0
M  V30 515 N 68.1251 -4.39084 3.50944 0
M  V30 516 H 60.2761 -0.837882 1.95175 0
M  V30 517 H 62.5391 -0.430608 0.84456 0
M  V30 518 H 62.2451 -2.10176 2.81991 0
M  V30 519 H 62.1191 -3.39601 1.64168 0
M  V30 520 H 64.5061 -2.83338 0.824855 0
M  V30 521 H 64.5871 -1.54706 2.03715 0
M  V30 522 H 64.2311 -3.28558 3.87314 0
M  V30 523 H 64.1611 -4.5613 2.6316 0
M  V30 524 H 66.6521 -3.05289 2.22727 0
M  V30 525 H 66.9651 -5.85411 5.04493 0
M  V30 526 H 65.3101 -5.2693 4.53178 0
M  V30 527 H 68.5011 -3.7313 2.82651 0
M  V30 528 H 68.6741 -5.00883 4.11121 0
M  V30 529 N 62.0802 -0.821533 -1.34494 0
M  V30 530 C 63.3262 -0.409552 -1.98622 0
M  V30 531 C 63.6592 1.0244 -1.64984 0
M  V30 532 O 62.9342 1.71325 -0.920758 0
M  V30 533 C 63.2172 -0.610458 -3.54888 0
M  V30 534 C 63.0702 -2.09043 -3.98273 0
M  V30 535 C 64.3892 -0.0455379 -4.40076 0
M  V30 536 H 61.5082 -0.15028 -0.721516 0
M  V30 537 H 64.1502 -1.03384 -1.59411 0
M  V30 538 H 62.3002 -0.079044 -3.8842 0
M  V30 539 H 63.9722 -2.68537 -3.75081 0
M  V30 540 H 62.2152 -2.58139 -3.48635 0
M  V30 541 H 62.8862 -2.18182 -5.07051 0
M  V30 542 H 65.3622 -0.499557 -4.1309 0
M  V30 543 H 64.2382 -0.215922 -5.48475 0
M  V30 544 H 64.4992 1.04939 -4.29465 0
M  V30 545 N 63.5583 1.46682 -0.576371 0
M  V30 546 C 64.4883 2.33028 0.148397 0
M  V30 547 C 65.4693 1.44961 0.889956 0
M  V30 548 O 66.6543 1.73789 0.866662 0
M  V30 549 C 63.7843 3.27117 1.1667 0
M  V30 550 C 62.7383 4.24575 0.540386 0
M  V30 551 C 62.0643 5.08126 1.6647 0
M  V30 552 C 63.3643 5.19722 -0.518331 0
M  V30 553 H 65.0583 2.93875 -0.572509 0
M  V30 554 H 62.6043 1.41315 -0.276768 0
M  V30 555 H 64.5573 3.86374 1.68204 0
M  V30 556 H 63.2813 2.64364 1.9178 0
M  V30 557 H 61.9403 3.66571 0.0461769 0
M  V30 558 H 61.5883 4.41762 2.40531 0
M  V30 559 H 61.2883 5.74122 1.25131 0
M  V30 560 H 62.8123 5.70246 2.18293 0
M  V30 561 H 64.2263 5.73232 -0.0883058 0
M  V30 562 H 62.6233 5.94026 -0.851679 0
M  V30 563 H 63.6933 4.64037 -1.40703 0
M  V30 564 N 65.0364 0.313813 1.54444 0
M  V30 565 C 66.2664 -0.293491 2.04505 0
M  V30 566 C 66.6744 -1.47086 1.19005 0
M  V30 567 O 66.0174 -1.82481 0.211257 0
M  V30 568 C 66.0794 -0.800455 3.50475 0
M  V30 569 C 65.7434 0.253322 4.56297 0
M  V30 570 C 66.7404 1.08612 5.08428 0
M  V30 571 C 64.4254 0.398708 5.00715 0
M  V30 572 C 66.4194 2.05013 6.0353 0
M  V30 573 C 64.1064 1.36614 5.95634 0
M  V30 574 C 65.1044 2.19033 6.46926 0
M  V30 575 O 64.7924 3.14134 7.39983 0
M  V30 576 H 64.5244 -0.0658325 0.672787 0
M  V30 577 H 67.0784 0.455177 2.00293 0
M  V30 578 H 65.3084 -1.59987 3.52053 0
M  V30 579 H 66.9974 -1.32504 3.83663 0
M  V30 580 H 67.7634 0.984736 4.74898 0
M  V30 581 H 63.6424 -0.23289 4.60411 0
M  V30 582 H 67.1864 2.69382 6.4349 0
M  V30 583 H 63.0834 1.4682 6.28581 0
M  V30 584 H 63.8514 3.0926 7.57826 0
M  V30 585 N 66.5145 -1.57545 0.0417849 0
M  V30 586 C 67.4615 -2.10977 -0.935805 0
M  V30 587 C 68.4315 -1.01486 -1.31491 0
M  V30 588 O 69.6165 -1.2898 -1.40602 0
M  V30 589 C 66.7565 -2.65169 -2.2086 0
M  V30 590 C 65.8695 -3.88714 -1.88482 0
M  V30 591 C 65.0045 -4.31254 -3.1015 0
M  V30 592 C 64.0435 -5.47524 -2.7365 0
M  V30 593 N 63.1805 -5.85162 -3.87982 0
M  V30 594 H 68.0205 -2.94218 -0.473249 0
M  V30 595 H 65.5575 -1.45415 -0.221981 0
M  V30 596 H 67.5155 -2.94685 -2.95325 0
M  V30 597 H 66.1455 -1.8474 -2.64709 0
M  V30 598 H 65.1975 -3.65849 -1.04205 0
M  V30 599 H 66.5095 -4.73245 -1.57608 0
M  V30 600 H 65.6635 -4.62273 -3.92923 0
M  V30 601 H 64.4025 -3.45516 -3.44195 0
M  V30 602 H 63.4075 -5.16187 -1.89291 0
M  V30 603 H 64.6325 -6.34971 -2.40807 0
M  V30 604 H 62.5785 -5.02377 -4.21846 0
M  V30 605 H 62.4955 -6.64362 -3.60775 0
M  V30 606 H 63.7635 -6.20791 -4.71422 0
M  V30 607 N 67.9926 0.231505 -1.5589 0
M  V30 608 C 68.9246 1.31006 -1.8807 0
M  V30 609 C 69.9376 1.43539 -0.768145 0
M  V30 610 O 71.1266 1.44614 -1.04638 0
M  V30 611 C 68.2266 2.68688 -2.06543 0
M  V30 612 C 67.3996 2.78228 -3.37502 0
M  V30 613 C 66.4586 3.96857 -3.4553 0
M  V30 614 O 65.4846 3.85662 -4.18633 0
M  V30 615 N 66.6866 5.1072 -2.75944 0
M  V30 616 H 69.4516 1.03731 -2.81176 0
M  V30 617 H 67.0126 0.421573 -1.56315 0
M  V30 618 H 69.0046 3.46412 -2.09239 0
M  V30 619 H 67.5746 2.88605 -1.20109 0
M  V30 620 H 66.7946 1.87059 -3.46991 0
M  V30 621 H 68.0826 2.81564 -4.23791 0
M  V30 622 H 67.4806 5.2271 -2.16311 0
M  V30 623 H 66.0376 5.86523 -2.84314 0
M  V30 624 N 69.4707 1.49531 0.497807 0
M  V30 625 C 70.6957 1.63159 1.28039 0
M  V30 626 C 71.1207 0.30418 1.85624 0
M  V30 627 O 70.4787 -0.728618 1.66015 0
M  V30 628 C 70.5267 2.70537 2.38416 0
M  V30 629 O 69.6307 2.29931 3.42353 0
M  V30 630 H 68.9717 0.546001 0.377861 0
M  V30 631 H 71.5017 1.9574 0.59558 0
M  V30 632 H 71.5117 2.92802 2.84132 0
M  V30 633 H 70.1867 3.6689 1.95869 0
M  V30 634 H 68.7637 2.18009 3.02533 0
M  V30 635 N 70.9488 -0.749086 1.3866 0
M  V30 636 C 72.1978 -1.50371 1.3443 0
M  V30 637 C 72.5108 -1.95503 -0.0616397 0
M  V30 638 O 73.7168 -2.70554 -0.226489 0
M  V30 639 C 72.1728 -2.71644 2.36088 0
M  V30 640 C 71.7808 -2.3352 3.82325 0
M  V30 641 C 73.5248 -3.49518 2.40909 0
M  V30 642 C 71.4318 -3.51431 4.75658 0
M  V30 643 H 70.3618 -0.564628 0.499712 0
M  V30 644 H 73.0128 -0.818449 1.64237 0
M  V30 645 H 71.3948 -3.42175 1.9933 0
M  V30 646 H 72.5688 -1.70627 4.28046 0
M  V30 647 H 70.8838 -1.6877 3.80665 0
M  V30 648 H 73.4808 -4.37197 3.07836 0
M  V30 649 H 73.8238 -3.90992 1.42937 0
M  V30 650 H 74.3568 -2.86005 2.76489 0
M  V30 651 H 71.0958 -3.15019 5.74842 0
M  V30 652 H 70.6158 -4.13352 4.34627 0
M  V30 653 H 72.2948 -4.17953 4.93887 0
M  V30 654 N 72.4269 -1.23603 -0.977757 0
M  V30 655 C 73.3899 -1.02069 -2.05218 0
M  V30 656 C 74.3899 0.0184305 -1.60789 0
M  V30 657 O 75.5799 -0.221569 -1.72785 0
M  V30 658 C 72.7119 -0.544926 -3.36517 0
M  V30 659 H 73.9049 -1.9742 -2.25755 0
M  V30 660 H 71.4579 -1.05684 -1.15155 0
M  V30 661 H 72.1929 0.412241 -3.21669 0
M  V30 662 H 71.9779 -1.2948 -3.70105 0
M  V30 663 H 73.4679 -0.414985 -4.15533 0
M  V30 664 N 73.905 1.17692 -1.04816 0
M  V30 665 C 74.837 2.21103 -0.603822 0
M  V30 666 C 75.85 1.59411 0.33046 0
M  V30 667 O 77.039 1.7807 0.12379 0
M  V30 668 C 74.139 3.38623 0.136898 0
M  V30 669 C 73.312 4.29888 -0.807137 0
M  V30 670 C 72.371 5.26088 -0.10836 0
M  V30 671 O 71.397 5.64353 -0.741232 0
M  V30 672 N 72.599 5.68882 1.15558 0
M  V30 673 H 75.364 2.59848 -1.49329 0
M  V30 674 H 72.925 1.32553 -0.929587 0
M  V30 675 H 74.917 4.00009 0.614401 0
M  V30 676 H 73.487 2.98508 0.927993 0
M  V30 677 H 72.707 3.65993 -1.46434 0
M  V30 678 H 73.995 4.87759 -1.44807 0
M  V30 679 H 73.393 5.39861 1.69015 0
M  V30 680 H 71.95 6.32429 1.57722 0
M  V30 681 N 75.3831 0.828654 1.34056 0
M  V30 682 C 76.7991 0.515135 1.51058 0
M  V30 683 C 76.9991 -0.959581 1.77184 0
M  V30 684 O 76.0551 -1.74382 1.82612 0
M  V30 685 C 77.3681 1.37963 2.67183 0
M  V30 686 C 78.9161 1.37735 2.81066 0
M  V30 687 C 79.3911 2.22645 4.00241 0
M  V30 688 N 80.8821 2.203 4.07458 0
M  V30 689 C 81.6171 2.82744 4.98842 0
M  V30 690 N 81.1131 3.54201 5.9541 0
M  V30 691 N 82.9061 2.72268 4.91759 0
M  V30 692 H 75.0571 1.78343 1.15358 0
M  V30 693 H 77.3201 0.760304 0.566252 0
M  V30 694 H 77.0261 2.42714 2.54525 0
M  V30 695 H 76.9001 1.0484 3.62338 0
M  V30 696 H 79.2871 0.337593 2.93163 0
M  V30 697 H 79.3681 1.74859 1.86703 0
M  V30 698 H 79.0121 3.26674 3.88905 0
M  V30 699 H 78.9421 1.82869 4.93829 0
M  V30 700 H 81.4331 1.68327 3.38341 0
M  V30 701 H 81.7461 3.9908 6.61782 0
M  V30 702 H 80.0911 3.58308 5.95517 0
M  V30 703 H 83.2821 2.16014 4.15278 0
M  V30 704 H 83.4551 3.21219 5.62781 0
M  V30 705 N 76.8612 -1.46375 0.584142 0
M  V30 706 C 77.8242 -2.28784 -0.138108 0
M  V30 707 C 78.8242 -1.38471 -0.817462 0
M  V30 708 O 80.0142 -1.60833 -0.669199 0
M  V30 709 C 77.1462 -3.18892 -1.20503 0
M  V30 710 H 78.3392 -2.94117 0.586127 0
M  V30 711 H 75.8922 -1.52509 0.342171 0
M  V30 712 H 76.6272 -2.58309 -1.96079 0
M  V30 713 H 76.4122 -3.85388 -0.722384 0
M  V30 714 H 77.9022 -3.80914 -1.71155 0
M  V30 715 N 78.3393 -0.321999 -1.54275 0
M  V30 716 C 79.7553 0.0306999 -1.5957 0
M  V30 717 C 79.9553 1.50614 -1.33857 0
M  V30 718 O 79.0113 2.2619 -1.12223 0
M  V30 719 C 80.3243 -0.386122 -2.98211 0
M  V30 720 C 81.8723 -0.336647 -3.11184 0
M  V30 721 C 82.3473 -0.728607 -4.52167 0
M  V30 722 N 83.8383 -0.681952 -4.58152 0
M  V30 723 C 84.5733 -0.957449 -5.6535 0
M  V30 724 N 84.0693 -1.3 -6.80494 0
M  V30 725 N 85.8623 -0.883113 -5.55119 0
M  V30 726 H 78.0133 -1.28332 -1.69247 0
M  V30 727 H 80.2763 -0.521716 -0.791528 0
M  V30 728 H 79.9823 -1.41404 -3.22022 0
M  V30 729 H 79.8563 0.249662 -3.76373 0
M  V30 730 H 82.2433 0.682058 -2.8711 0
M  V30 731 H 82.3243 -1.00734 -2.3513 0
M  V30 732 H 81.9683 -1.74522 -4.76974 0
M  V30 733 H 81.8983 -0.0356152 -5.26588 0
M  V30 734 H 84.3893 -0.428985 -3.75457 0
M  V30 735 H 84.7023 -1.49563 -7.58189 0
M  V30 736 H 83.0473 -1.33824 -6.81994 0
M  V30 737 H 86.2383 -0.615001 -4.64042 0
M  V30 738 H 86.4113 -1.10118 -6.38575 0
M  V30 739 N 79.8174 1.5752 -0.0501392 0
M  V30 740 C 81.0454 1.96963 0.633492 0
M  V30 741 C 81.4604 0.927631 1.6444 0
M  V30 742 O 80.8174 -0.0882665 1.82286 0
M  V30 743 C 80.8684 3.36487 1.32132 0
M  V30 744 O 80.5894 4.36693 0.350894 0
M  V30 745 C 82.0904 3.90682 2.09481 0
M  V30 746 H 79.3104 0.648244 0.173266 0
M  V30 747 H 81.8544 2.0417 -0.116134 0
M  V30 748 H 80.0094 3.30434 2.02218 0
M  V30 749 H 80.4234 5.17702 0.841735 0
M  V30 750 H 81.8974 4.90591 2.5303 0
M  V30 751 H 82.3744 3.26053 2.94255 0
M  V30 752 H 82.9804 4.00069 1.44307 0
M  V30 753 N 81.2955 -0.223234 1.56011 0
M  V30 754 C 82.2285 -1.30377 1.87289 0
M  V30 755 C 83.2065 -1.45286 0.730112 0
M  V30 756 O 84.3905 -1.61126 0.978302 0
M  V30 757 C 81.5175 -2.67431 2.07843 0
M  V30 758 C 80.5635 -2.69546 3.30526 0
M  V30 759 S 81.3965 -2.23781 4.865 0
M  V30 760 C 82.5525 -3.62714 5.10088 0
M  V30 761 H 82.7855 -1.03652 2.78646 0
M  V30 762 H 80.3185 -0.425393 1.48424 0
M  V30 763 H 82.2765 -3.46336 2.20368 0
M  V30 764 H 80.9375 -2.91381 1.17285 0
M  V30 765 H 80.1305 -3.70255 3.41947 0
M  V30 766 H 79.7325 -1.98703 3.16849 0
M  V30 767 H 82.0245 -4.58391 4.98883 0
M  V30 768 H 82.9675 -3.5621 6.11981 0
M  V30 769 H 83.3755 -3.56323 4.37829 0
M  V30 770 N 82.7736 -1.49793 -0.48987 0
M  V30 771 C 83.7366 -1.66752 -1.57246 0
M  V30 772 C 84.7366 -0.538867 -1.51502 0
M  V30 773 O 85.9266 -0.805545 -1.54456 0
M  V30 774 C 83.0586 -1.67528 -2.96896 0
M  V30 775 H 84.2516 -2.63321 -1.43534 0
M  V30 776 H 81.8046 -1.38992 -0.714914 0
M  V30 777 H 82.5396 -0.725837 -3.16073 0
M  V30 778 H 82.3246 -2.49504 -3.02473 0
M  V30 779 H 83.8146 -1.82667 -3.7553 0
M  V30 780 N 84.2517 0.741722 -1.39055 0
M  V30 781 C 85.1817 1.869 -1.39966 0
M  V30 782 C 86.1627 1.6804 -0.26392 0
M  V30 783 O 87.3477 1.88458 -0.468755 0
M  V30 784 C 84.4777 3.24572 -1.23574 0
M  V30 785 C 83.4317 3.58056 -2.34477 0
M  V30 786 C 82.7577 4.94593 -2.0318 0
M  V30 787 C 84.0577 3.61716 -3.76774 0
M  V30 788 H 85.7517 1.86395 -2.34302 0
M  V30 789 H 83.2977 0.895361 -1.1278 0
M  V30 790 H 85.2507 4.031 -1.22834 0
M  V30 791 H 83.9747 3.25587 -0.257045 0
M  V30 792 H 82.6337 2.81854 -2.34423 0
M  V30 793 H 82.2817 4.92181 -1.03765 0
M  V30 794 H 81.9817 5.17964 -2.77465 0
M  V30 795 H 83.5057 5.75486 -2.04079 0
M  V30 796 H 84.9197 4.30335 -3.78794 0
M  V30 797 H 83.3167 3.96603 -4.50362 0
M  V30 798 H 84.3867 2.61672 -4.08235 0
M  V30 799 N 85.7298 1.2412 0.971189 0
M  V30 800 C 86.9598 1.10415 1.7462 0
M  V30 801 C 87.3678 -0.346462 1.86001 0
M  V30 802 O 86.7108 -1.25104 1.34517 0
M  V30 803 C 86.7728 1.66596 3.18568 0
M  V30 804 C 86.4368 3.15446 3.3067 0
M  V30 805 C 87.4338 4.12636 3.16271 0
M  V30 806 C 85.1188 3.55337 3.55022 0
M  V30 807 C 87.1128 5.47699 3.26044 0
M  V30 808 C 84.7998 4.90542 3.64434 0
M  V30 809 C 85.7978 5.86532 3.49956 0
M  V30 810 O 85.4858 7.19279 3.59017 0
M  V30 811 H 85.2178 0.386616 0.55453 0
M  V30 812 H 87.7718 1.64633 1.22821 0
M  V30 813 H 86.0018 1.06808 3.71657 0
M  V30 814 H 87.6908 1.48232 3.77865 0
M  V30 815 H 88.4568 3.8316 2.97344 0
M  V30 816 H 84.3358 2.8113 3.65359 0
M  V30 817 H 87.8798 6.22603 3.14661 0
M  V30 818 H 83.7768 5.19691 3.82873 0
M  V30 819 H 84.5448 7.27153 3.75754 0
M  V30 820 N 87.2079 -1.17134 1.05439 0
M  V30 821 C 88.1559 -2.23289 0.651511 0
M  V30 822 C 89.1499 -1.66186 -0.328411 0
M  V30 823 O 90.3559 -1.78949 -0.194206 0
M  V30 824 H 86.7309 -0.726938 0.192523 0
M  V30 825 H 88.7019 -2.54565 1.55689 0
M  V30 826 C 87.4509 -3.47671 0.0448436 0
M  V30 827 H 86.7739 -3.91918 0.78996 0
M  V30 828 H 88.2139 -4.2353 -0.19964 0
M  V30 829 C 86.6729 -3.14453 -1.20918 0
M  V30 830 O 87.2029 -3.29459 -2.29825 0
M  V30 831 N 85.4089 -2.68657 -1.10779 0
M  V30 832 H 84.9559 -2.56646 -0.221526 0
M  V30 833 H 84.9139 -2.46804 -1.9477 0
M  V30 834 N 88.686 -0.835752 -1.33615 0
M  V30 835 C 90.097 -0.487099 -1.80234 0
M  V30 836 C 90.448 0.993627 -1.69179 0
M  V30 837 O 89.573 1.77403 -1.23924 0
M  V30 838 C 90.168 -0.877385 -3.27242 0
M  V30 839 C 88.727 -0.580915 -3.7189 0
M  V30 840 C 87.874 -1.0874 -2.5509 0
M  V30 841 H 90.825 -1.02474 -1.2118 0
M  V30 842 H 90.846 -0.186195 -3.80044 0
M  V30 843 H 90.358 -1.95512 -3.35256 0
M  V30 844 H 88.459 0.486881 -3.69405 0
M  V30 845 H 88.572 -1.13396 -4.65487 0
M  V30 846 H 86.936 -0.508392 -2.49575 0
M  V30 847 H 87.719 -2.17184 -2.65868 0
M  V30 848 N 90.1641 1.46063 -0.591896 0
M  V30 849 C 91.4131 2.01547 -0.0786637 0
M  V30 850 C 91.7261 1.46796 1.29268 0
M  V30 851 O 92.9321 1.94157 1.89777 0
M  V30 852 C 91.3881 3.59787 -0.0900024 0
M  V30 853 C 90.9961 4.23534 -1.46023 0
M  V30 854 C 92.7401 4.22895 0.368806 0
M  V30 855 C 90.6471 5.73881 -1.4288 0
M  V30 856 H 89.5771 0.753564 -0.0256388 0
M  V30 857 H 92.2281 1.677 -0.744905 0
M  V30 858 H 90.6101 3.90752 0.642586 0
M  V30 859 H 91.7841 4.04167 -2.21328 0
M  V30 860 H 90.0991 3.72558 -1.85982 0
M  V30 861 H 92.6961 5.33116 0.411258 0
M  V30 862 H 93.0391 3.9247 1.38827 0
M  V30 863 H 93.5721 3.9659 -0.31001 0
M  V30 864 H 90.3111 6.0898 -2.42536 0
M  V30 865 H 89.8311 5.95486 -0.718095 0
M  V30 866 H 91.5101 6.36776 -1.14565 0
M  V30 867 N 91.6422 0.330177 1.54103 0
M  V30 868 C 93.0532 -0.15652 1.86043 0
M  V30 869 C 93.4042 -1.51086 1.2517 0
M  V30 870 O 92.5292 -2.09023 0.560217 0
M  V30 871 C 93.1242 -0.290784 3.3755 0
M  V30 872 C 91.6832 -0.721705 3.69416 0
M  V30 873 C 90.8302 0.152622 2.7688 0
M  V30 874 H 93.7812 0.550237 1.48856 0
M  V30 875 H 93.8022 -1.12058 3.63625 0
M  V30 876 H 93.3142 0.695068 3.81825 0
M  V30 877 H 91.4152 -1.71706 3.30678 0
M  V30 878 H 91.5282 -0.520869 4.7626 0
M  V30 879 H 89.8922 -0.372894 2.51956 0
M  V30 880 H 90.6752 1.13536 3.23982 0
M  V30 881 N 93.1203 -1.57491 0.0584922 0
M  V30 882 C 94.3663 -1.93264 -0.614558 0
M  V30 883 C 94.6993 -0.937717 -1.7006 0
M  V30 884 O 93.9743 0.0351652 -1.94468 0
M  V30 885 C 94.2573 -3.3938 -1.20386 0
M  V30 886 C 94.1103 -4.49625 -0.125375 0
M  V30 887 C 95.4293 -3.86039 -2.11334 0
M  V30 888 H 92.5483 -0.702791 -0.221933 0
M  V30 889 H 95.1903 -1.8961 0.12175 0
M  V30 890 H 93.3403 -3.42626 -1.83139 0
M  V30 891 H 95.0123 -4.58506 0.506971 0
M  V30 892 H 93.2553 -4.30354 0.545672 0
M  V30 893 H 93.9263 -5.48967 -0.577861 0
M  V30 894 H 96.4023 -3.84716 -1.58534 0
M  V30 895 H 95.2783 -4.88914 -2.49507 0
M  V30 896 H 95.5393 -3.23215 -3.01636 0
M  V30 897 N 94.5984 0.214957 -1.56127 0
M  V30 898 C 95.5454 1.26642 -1.92952 0
M  V30 899 C 96.5154 1.46244 -0.78753 0
M  V30 900 O 97.7004 1.59704 -1.04399 0
M  V30 901 C 94.8404 2.6104 -2.25726 0
M  V30 902 C 93.9534 2.49183 -3.52891 0
M  V30 903 C 93.0884 3.76149 -3.7508 0
M  V30 904 C 92.1274 3.59041 -4.95738 0
M  V30 905 N 91.2644 4.77972 -5.14283 0
M  V30 906 H 96.1044 0.945384 -2.82607 0
M  V30 907 H 93.6414 0.455489 -1.3987 0
M  V30 908 H 95.5994 3.39313 -2.42739 0
M  V30 909 H 94.2294 2.91227 -1.39236 0
M  V30 910 H 93.2814 1.6231 -3.44034 0
M  V30 911 H 94.5934 2.32466 -4.41318 0
M  V30 912 H 93.7474 4.62865 -3.92226 0
M  V30 913 H 92.4864 3.95799 -2.84947 0
M  V30 914 H 91.4914 2.7071 -4.78535 0
M  V30 915 H 92.7164 3.40856 -5.87362 0
M  V30 916 H 90.6624 4.97923 -4.27093 0
M  V30 917 H 90.5794 4.64006 -5.96853 0
M  V30 918 H 91.8474 5.66096 -5.35869 0
M  V30 919 N 96.0765 1.50051 0.48192 0
M  V30 920 C 97.0085 1.64263 1.59844 0
M  V30 921 C 98.0215 0.52451 1.54119 0
M  V30 922 O 99.2105 0.797293 1.59704 0
M  V30 923 C 96.3105 1.60102 2.98698 0
M  V30 924 C 95.4835 2.87767 3.29407 0
M  V30 925 C 94.5425 2.76397 4.47762 0
M  V30 926 O 93.5685 3.50348 4.48603 0
M  V30 927 N 94.7705 1.89222 5.48794 0
M  V30 928 H 97.5355 2.60566 1.48073 0
M  V30 929 H 95.0965 1.47379 0.670149 0
M  V30 930 H 97.0885 1.50123 3.75826 0
M  V30 931 H 95.6585 0.715798 3.04294 0
M  V30 932 H 94.8785 3.11954 2.40994 0
M  V30 933 H 96.1665 3.72365 3.4673 0
M  V30 934 H 95.5645 1.28434 5.50928 0
M  V30 935 H 94.1215 1.85154 6.24949 0
M  V30 936 N 97.5546 -0.734337 1.39446 0
M  V30 937 C 98.5026 -1.86971 1.38364 0
M  V30 938 C 99.4966 -1.67288 0.266687 0
M  V30 939 O 100.703 -1.74621 0.436755 0
M  V30 940 H 97.0776 -0.615474 0.432082 0
M  V30 941 H 99.0486 -1.85 2.34132 0
M  V30 942 C 97.7976 -3.2466 1.24465 0
M  V30 943 H 97.1206 -3.40402 2.09682 0
M  V30 944 H 98.5606 -4.04292 1.27764 0
M  V30 945 C 97.0196 -3.36867 -0.0468674 0
M  V30 946 O 97.5496 -3.88618 -1.01681 0
M  V30 947 N 95.7556 -2.90391 -0.110145 0
M  V30 948 H 95.3026 -2.48466 0.679868 0
M  V30 949 H 95.2606 -2.98939 -0.973799 0
M  V30 950 N 99.0327 -1.24633 -0.964593 0
M  V30 951 C 100.273 -1.09981 -1.72289 0
M  V30 952 C 100.637 0.354792 -1.88693 0
M  V30 953 O 101.838 0.62289 -2.61483 0
M  V30 954 C 100.109 -1.82262 -3.07434 0
M  V30 955 S 101.668 -1.83379 -3.98645 0
M  V30 956 H 98.4857 -0.393292 -0.59232 0
M  V30 957 H 101.088 -1.58009 -1.15123 0
M  V30 958 H 99.7917 -2.87206 -2.93157 0
M  V30 959 H 99.3227 -1.3458 -3.69664 0
M  V30 960 H 101.338 -0.903691 -4.87901 0
M  V30 961 N 100.511 1.16574 -1.06058 0
M  V30 962 C 101.758 1.87047 -0.775873 0
M  V30 963 C 102.086 1.81562 0.697534 0
M  V30 964 O 101.341 1.22445 1.52662 0
M  V30 965 C 101.64 3.36195 -1.21275 0
M  V30 966 C 101.306 3.6188 -2.68986 0
M  V30 967 C 99.9678 3.68599 -3.09335 0
M  V30 968 C 102.32 3.72648 -3.64394 0
M  V30 969 C 99.6478 3.83584 -4.43937 0
M  V30 970 C 102 3.89154 -4.98741 0
M  V30 971 C 100.664 3.94114 -5.3873 0
M  V30 972 H 99.9338 0.684452 -0.283912 0
M  V30 973 H 102.581 1.37853 -1.32925 0
M  V30 974 H 100.886 3.87505 -0.578528 0
M  V30 975 H 102.583 3.89103 -0.969542 0
M  V30 976 H 99.1728 3.57281 -2.36744 0
M  V30 977 H 103.357 3.66769 -3.34356 0
M  V30 978 H 98.6128 3.85677 -4.74409 0
M  V30 979 H 102.787 3.96427 -5.72554 0
M  V30 980 H 100.414 4.05478 -6.43033 0
M  V30 981 N 101.989 0.842826 1.3317 0
M  V30 982 C 103.217 0.454055 2.01856 0
M  V30 983 C 103.632 -0.94587 1.63397 0
M  V30 984 O 102.989 -1.61534 0.849302 0
M  V30 985 C 103.04 0.569715 3.56982 0
M  V30 986 O 102.761 1.91448 3.94055 0
M  V30 987 C 104.262 0.178412 4.42941 0
M  V30 988 H 101.482 0.17979 0.646465 0
M  V30 989 H 104.026 1.1365 1.70012 0
M  V30 990 H 102.181 -0.0648587 3.87346 0
M  V30 991 H 102.595 1.90282 4.88767 0
M  V30 992 H 104.069 0.310376 5.51127 0
M  V30 993 H 104.546 -0.880056 4.30293 0
M  V30 994 H 105.152 0.787579 4.17944 0
M  V30 995 N 103.467 -1.45747 0.599634 0
M  V30 996 C 104.713 -2.02592 0.0918643 0
M  V30 997 C 105.046 -1.46806 -1.27128 0
M  V30 998 O 104.321 -0.639658 -1.83681 0
M  V30 999 C 104.604 -3.60073 0.0443398 0
M  V30 1000 C 104.457 -4.26208 1.43759 0
M  V30 1001 C 105.776 -4.35309 -0.647608 0
M  V30 1002 H 102.895 -0.736175 0.034857 0
M  V30 1003 H 105.537 -1.73694 0.770081 0
M  V30 1004 H 103.687 -3.84823 -0.533224 0
M  V30 1005 H 105.359 -4.12668 2.06162 0
M  V30 1006 H 103.602 -3.84916 2.00056 0
M  V30 1007 H 104.273 -5.35069 1.35665 0
M  V30 1008 H 106.749 -4.15805 -0.156776 0
M  V30 1009 H 105.625 -5.45038 -0.649942 0
M  V30 1010 H 105.886 -4.07598 -1.71219 0
M  V30 1011 N 104.945 -0.338344 -1.53925 0
M  V30 1012 C 105.893 0.536231 -2.26335 0
M  V30 1013 C 106.887 1.1063 -1.28286 0
M  V30 1014 O 108.093 1.05264 -1.46012 0
M  V30 1015 H 104.468 0.191602 -0.727181 0
M  V30 1016 H 106.439 -0.0965747 -2.98244 0
M  V30 1017 C 105.188 1.67803 -3.04528 0
M  V30 1018 H 104.511 1.24864 -3.79801 0
M  V30 1019 H 105.951 2.26526 -3.58416 0
M  V30 1020 C 104.41 2.60439 -2.13712 0
M  V30 1021 O 104.94 3.6255 -1.72975 0
M  V30 1022 N 103.146 2.29006 -1.78898 0
M  V30 1023 H 102.693 1.46011 -2.12223 0
M  V30 1024 H 102.651 2.91248 -1.18416 0
M  V30 1025 N 106.423 1.57458 -0.0668435 0
M  V30 1026 C 107.839 1.56947 0.289772 0
M  V30 1027 C 108.039 1.07584 1.70376 0
M  V30 1028 O 107.095 0.739486 2.41429 0
M  V30 1029 C 108.408 3.0052 0.103943 0
M  V30 1030 C 109.956 3.12517 0.173857 0
M  V30 1031 C 110.431 4.57997 0.0163682 0
M  V30 1032 N 111.922 4.63144 0.0721352 0
M  V30 1033 C 112.657 5.73394 -0.0253794 0
M  V30 1034 N 112.153 6.92576 -0.176133 0
M  V30 1035 N 113.946 5.62091 0.0313305 0
M  V30 1036 H 106.097 1.87863 -0.991027 0
M  V30 1037 H 108.36 0.86583 -0.38606 0
M  V30 1038 H 108.066 3.40729 -0.871572 0
M  V30 1039 H 107.94 3.67304 0.858366 0
M  V30 1040 H 110.327 2.72197 1.13985 0
M  V30 1041 H 110.408 2.48381 -0.611586 0
M  V30 1042 H 110.052 4.99005 -0.946374 0
M  V30 1043 H 109.982 5.20158 0.821153 0
M  V30 1044 H 112.473 3.77436 0.187263 0
M  V30 1045 H 112.786 7.72418 -0.242821 0
M  V30 1046 H 111.131 6.94678 -0.211429 0
M  V30 1047 H 114.322 4.67867 0.147773 0
M  V30 1048 H 114.495 6.47982 -0.048121 0
M  V30 1049 N 107.901 -0.206675 1.56239 0
M  V30 1050 C 109.126 -0.949474 1.8439 0
M  V30 1051 C 109.551 -1.76549 0.649016 0
M  V30 1052 O 108.909 -1.76782 -0.402231 0
M  V30 1053 C 108.957 -1.83078 3.10668 0
M  V30 1054 O 108.061 -2.9281 2.90407 0
M  V30 1055 H 107.402 -0.268033 0.607499 0
M  V30 1056 H 109.932 -0.215488 2.03462 0
M  V30 1057 H 109.942 -2.2377 3.41161 0
M  V30 1058 H 108.617 -1.23112 3.97261 0
M  V30 1059 H 107.194 -2.55956 2.71184 0
M  V30 1060 N 109.379 -1.50304 -0.473955 0
M  V30 1061 C 110.309 -1.71886 -1.58042 0
M  V30 1062 C 111.29 -0.567799 -1.60344 0
M  V30 1063 O 112.475 -0.806623 -1.76656 0
M  V30 1064 C 109.605 -1.81036 -2.96384 0
M  V30 1065 C 108.559 -2.962 -3.08949 0
M  V30 1066 C 107.885 -2.9049 -4.48909 0
M  V30 1067 C 109.185 -4.36752 -2.86434 0
M  V30 1068 H 110.879 -2.64527 -1.40234 0
M  V30 1069 H 108.425 -1.27295 -0.673201 0
M  V30 1070 H 110.378 -1.94719 -3.73714 0
M  V30 1071 H 109.102 -0.850147 -3.15341 0
M  V30 1072 H 107.761 -2.82164 -2.3405 0
M  V30 1073 H 107.409 -1.92321 -4.64781 0
M  V30 1074 H 107.109 -3.67802 -4.58253 0
M  V30 1075 H 108.633 -3.06218 -5.28264 0
M  V30 1076 H 110.047 -4.5133 -3.53517 0
M  V30 1077 H 108.444 -5.15493 -3.07225 0
M  V30 1078 H 109.514 -4.49321 -1.82316 0
M  V30 1079 N 110.857 0.726932 -1.39834 0
M  V30 1080 C 112.104 1.48664 -1.37496 0
M  V30 1081 C 112.432 1.94482 0.0264678 0
M  V30 1082 O 111.687 1.67692 1.00886 0
M  V30 1083 C 111.986 2.73495 -2.30077 0
M  V30 1084 C 111.652 2.46502 -3.77555 0
M  V30 1085 C 110.314 2.3885 -4.17737 0
M  V30 1086 C 112.666 2.23604 -4.70798 0
M  V30 1087 C 109.994 2.06352 -5.49214 0
M  V30 1088 C 112.346 1.92622 -6.02561 0
M  V30 1089 C 111.01 1.83444 -6.41798 0
M  V30 1090 H 110.28 0.544001 -0.503135 0
M  V30 1091 H 112.927 0.833657 -1.72402 0
M  V30 1092 H 111.232 3.43575 -1.88317 0
M  V30 1093 H 112.929 3.31549 -2.25558 0
M  V30 1094 H 109.519 2.5334 -3.45712 0
M  V30 1095 H 113.703 2.28479 -4.40581 0
M  V30 1096 H 108.959 1.97776 -5.78528 0
M  V30 1097 H 113.133 1.73914 -6.74334 0
M  V30 1098 H 110.76 1.58029 -7.43593 0
M  V30 1099 N 112.336 1.25143 0.95797 0
M  V30 1100 C 113.582 1.09855 1.70469 0
M  V30 1101 C 113.915 -0.360187 1.90831 0
M  V30 1102 O 113.19 -1.26568 1.47685 0
M  V30 1103 C 113.473 1.8497 3.08963 0
M  V30 1104 C 113.326 3.38652 2.96032 0
M  V30 1105 C 114.645 1.63016 4.08795 0
M  V30 1106 H 111.764 0.400465 0.618706 0
M  V30 1107 H 114.406 1.53933 1.11376 0
M  V30 1108 H 112.556 1.47505 3.59409 0
M  V30 1109 H 114.228 3.85772 2.52938 0
M  V30 1110 H 112.471 3.66534 2.32025 0
M  V30 1111 H 113.142 3.8642 3.94187 0
M  V30 1112 H 115.618 1.95625 3.67247 0
M  V30 1113 H 114.494 2.18015 5.03747 0
M  V30 1114 H 114.755 0.570692 4.38401 0
M  V30 1115 N 113.814 -1.1601 1.06675 0
M  V30 1116 C 115.061 -1.86633 0.785781 0
M  V30 1117 C 115.389 -1.81929 -0.687896 0
M  V30 1118 O 114.644 -1.23253 -1.52011 0
M  V30 1119 C 114.943 -3.35547 1.23057 0
M  V30 1120 C 114.609 -3.60448 2.70902 0
M  V30 1121 C 113.271 -3.66954 3.11285 0
M  V30 1122 C 115.623 -3.7071 3.66365 0
M  V30 1123 C 112.951 -3.81225 4.45965 0
M  V30 1124 C 115.303 -3.86503 5.00797 0
M  V30 1125 C 113.967 -3.91252 5.40813 0
M  V30 1126 H 113.237 -0.682937 0.287538 0
M  V30 1127 H 115.884 -1.37146 1.33654 0
M  V30 1128 H 114.189 -3.87193 0.59907 0
M  V30 1129 H 115.886 -3.88583 0.990163 0
M  V30 1130 H 112.476 -3.56021 2.38636 0
M  V30 1131 H 116.66 -3.64991 3.36296 0
M  V30 1132 H 111.916 -3.83155 4.76447 0
M  V30 1133 H 116.09 -3.93385 5.74649 0
M  V30 1134 H 113.717 -4.02062 6.45174 0
M  V30 1135 N 115.292 -0.849877 -1.32721 0
M  V30 1136 C 116.517 -0.463856 -2.02146 0
M  V30 1137 C 116.942 0.930449 -1.63476 0
M  V30 1138 O 116.3 1.61033 -0.832952 0
M  V30 1139 C 116.348 -0.604955 -3.55489 0
M  V30 1140 O 115.452 0.36425 -4.10788 0
M  V30 1141 H 114.793 -0.187046 -0.637111 0
M  V30 1142 H 117.323 -1.14775 -1.69375 0
M  V30 1143 H 117.333 -0.490696 -4.05038 0
M  V30 1144 H 116.008 -1.62174 -3.82978 0
M  V30 1145 H 114.585 0.206628 -3.72327 0
M  V30 1146 N 116.77 1.45427 -0.607355 0
M  V30 1147 C 117.68 2.34325 0.113463 0
M  V30 1148 C 118.696 1.51226 0.860617 0
M  V30 1149 O 119.872 1.84029 0.818255 0
M  V30 1150 C 116.937 3.28839 1.09844 0
M  V30 1151 C 115.998 4.27844 0.353271 0
M  V30 1152 C 115.231 5.17842 1.29133 0
M  V30 1153 O 115.454 5.11264 2.52913 0
M  V30 1154 O 114.388 5.96713 0.788523 0
M  V30 1155 H 118.214 2.97364 -0.617094 0
M  V30 1156 H 115.799 1.44807 -0.367619 0
M  V30 1157 H 117.681 3.8708 1.66575 0
M  V30 1158 H 116.356 2.68365 1.81003 0
M  V30 1159 H 115.263 3.7322 -0.256494 0
M  V30 1160 H 116.596 4.91173 -0.317822 0
M  V30 1161 N 118.248 0.346503 1.53744 0
M  V30 1162 C 119.525 -0.304532 1.93215 0
M  V30 1163 C 119.905 -1.67993 1.27834 0
M  V30 1164 O 119.253 -2.24411 0.430352 0
M  V30 1165 C 119.463 -0.373852 3.46992 0
M  V30 1166 C 120.811 -0.62329 4.2 0
M  V30 1167 O 121.835 -0.455847 3.53271 0
M  V30 1168 O 120.694 -0.947879 5.38217 0
M  V30 1169 H 117.788 -0.178318 0.807547 0
M  V30 1170 H 120.334 0.397895 1.64969 0
M  V30 1171 H 119.106 0.591224 3.86808 0
M  V30 1172 H 118.729 -1.12294 3.81413 0
M  V30 1173 N 119.726 -1.57421 0.075193 0
M  V30 1174 C 120.674 -2.14124 -0.908508 0
M  V30 1175 C 121.668 -1.07898 -1.30592 0
M  V30 1176 O 122.874 -1.26273 -1.28277 0
M  V30 1177 H 119.249 -0.684707 -0.310935 0
M  V30 1178 H 121.22 -2.95634 -0.405374 0
M  V30 1179 C 119.969 -2.72044 -2.16535 0
M  V30 1180 H 119.292 -3.53456 -1.86839 0
M  V30 1181 H 120.732 -3.15311 -2.83469 0
M  V30 1182 C 119.191 -1.66968 -2.92615 0
M  V30 1183 O 119.721 -1.0967 -3.86439 0
M  V30 1184 N 117.927 -1.37923 -2.55784 0
M  V30 1185 H 117.474 -1.84706 -1.79559 0
M  V30 1186 H 117.432 -0.67852 -3.06991 0
M  V30 1187 N 121.204 0.198386 -1.56346 0
M  V30 1188 C 122.45 0.920648 -1.80698 0
M  V30 1189 C 122.783 1.83045 -0.648697 0
M  V30 1190 O 122.058 1.91308 0.350925 0
M  V30 1191 C 122.341 1.73971 -3.15287 0
M  V30 1192 C 122.194 0.85485 -4.41602 0
M  V30 1193 C 123.513 2.71296 -3.46535 0
M  V30 1194 H 120.632 0.333261 -0.657348 0
M  V30 1195 H 123.274 0.188198 -1.89066 0
M  V30 1196 H 121.424 2.36416 -3.08285 0
M  V30 1197 H 123.096 0.245362 -4.60647 0
M  V30 1198 H 121.339 0.161398 -4.335 0
M  V30 1199 H 122.01 1.46286 -5.32264 0
M  V30 1200 H 124.486 2.18983 -3.53816 0
M  V30 1201 H 123.362 3.2569 -4.41834 0
M  V30 1202 H 123.623 3.5018 -2.69864 0
M  V30 1203 N 122.682 1.50554 0.465978 0
M  V30 1204 C 123.928 1.62038 1.21949 0
M  V30 1205 C 124.261 0.322116 1.9151 0
M  V30 1206 O 123.536 -0.676723 1.82348 0
M  V30 1207 C 123.819 2.80421 2.25912 0
M  V30 1208 C 123.672 4.20144 1.60622 0
M  V30 1209 C 124.991 2.94354 3.27176 0
M  V30 1210 H 122.11 0.589752 0.441998 0
M  V30 1211 H 124.752 1.82956 0.51257 0
M  V30 1212 H 122.902 2.62717 2.86203 0
M  V30 1213 H 124.574 4.49449 1.03889 0
M  V30 1214 H 122.817 4.24165 0.909211 0
M  V30 1215 H 123.488 4.98914 2.36196 0
M  V30 1216 H 125.964 3.10578 2.76913 0
M  V30 1217 H 124.84 3.788 3.97242 0
M  V30 1218 H 125.101 2.05186 3.916 0
M  V30 1219 N 124.16 -0.719506 1.40217 0
M  V30 1220 C 125.576 -1.02707 1.22161 0
M  V30 1221 C 125.776 -2.0128 0.0940557 0
M  V30 1222 O 124.832 -2.46452 -0.549318 0
M  V30 1223 C 126.145 -1.57454 2.56181 0
M  V30 1224 C 127.693 -1.69458 2.63159 0
M  V30 1225 C 128.168 -2.27611 3.97438 0
M  V30 1226 N 129.659 -2.35002 3.99159 0
M  V30 1227 C 130.394 -2.80972 4.99842 0
M  V30 1228 N 129.89 -3.26723 6.10921 0
M  V30 1229 N 131.683 -2.80321 4.87213 0
M  V30 1230 H 123.834 -0.0660492 2.12297 0
M  V30 1231 H 126.097 -0.0919077 0.943534 0
M  V30 1232 H 125.803 -0.924873 3.39321 0
M  V30 1233 H 125.677 -2.56036 2.76993 0
M  V30 1234 H 128.064 -2.33543 1.80393 0
M  V30 1235 H 128.145 -0.694867 2.46181 0
M  V30 1236 H 127.789 -1.6415 4.80643 0
M  V30 1237 H 127.719 -3.2829 4.11744 0
M  V30 1238 H 130.21 -2.02685 3.18947 0
M  V30 1239 H 130.523 -3.60355 6.8364 0
M  V30 1240 H 128.868 -3.24692 6.14492 0
M  V30 1241 H 132.059 -2.43912 3.9953 0
M  V30 1242 H 132.232 -3.15831 5.65822 0
M  V30 1243 N 125.638 -1.25649 -0.95132 0
M  V30 1244 C 126.585 -1.06323 -2.04851 0
M  V30 1245 C 127.555 0.0286491 -1.66075 0
M  V30 1246 O 128.74 -0.12917 -1.90362 0
M  V30 1247 C 125.88 -0.691529 -3.381 0
M  V30 1248 C 124.993 -1.85861 -3.89974 0
M  V30 1249 C 124.128 -1.43096 -5.11563 0
M  V30 1250 C 123.167 -2.56696 -5.55674 0
M  V30 1251 N 122.304 -2.14684 -6.68472 0
M  V30 1252 H 127.144 -2.00222 -2.20715 0
M  V30 1253 H 124.681 -0.997027 -1.08156 0
M  V30 1254 H 126.639 -0.456963 -4.1469 0
M  V30 1255 H 125.269 0.210474 -3.22113 0
M  V30 1256 H 124.321 -2.20639 -3.09875 0
M  V30 1257 H 125.633 -2.71161 -4.18657 0
M  V30 1258 H 124.787 -1.15624 -5.9558 0
M  V30 1259 H 123.526 -0.548722 -4.84603 0
M  V30 1260 H 122.531 -2.84909 -4.7022 0
M  V30 1261 H 123.756 -3.45503 -5.8464 0
M  V30 1262 H 121.702 -1.28881 -6.43215 0
M  V30 1263 H 121.619 -2.9353 -6.96689 0
M  V30 1264 H 122.887 -1.90397 -7.5589 0
M  V30 1265 N 127.117 1.15442 -1.07289 0
M  V30 1266 C 128.347 1.89821 -0.815576 0
M  V30 1267 C 128.755 1.7823 0.634867 0
M  V30 1268 O 128.098 1.13152 1.44715 0
M  V30 1269 C 128.16 3.40817 -1.14385 0
M  V30 1270 C 127.824 3.76193 -2.59476 0
M  V30 1271 C 128.821 3.77269 -3.57721 0
M  V30 1272 C 126.506 4.0652 -2.95037 0
M  V30 1273 C 128.5 4.08176 -4.89562 0
M  V30 1274 C 126.187 4.37092 -4.27076 0
M  V30 1275 C 127.185 4.37902 -5.24148 0
M  V30 1276 O 126.873 4.67741 -6.53815 0
M  V30 1277 H 126.605 0.608465 -0.294528 0
M  V30 1278 H 129.159 1.472 -1.43252 0
M  V30 1279 H 127.389 3.83835 -0.469865 0
M  V30 1280 H 129.078 3.96485 -0.869179 0
M  V30 1281 H 129.844 3.5394 -3.3159 0
M  V30 1282 H 125.723 4.05049 -2.20128 0
M  V30 1283 H 129.267 4.08723 -5.65324 0
M  V30 1284 H 125.164 4.59889 -4.5296 0
M  V30 1285 H 125.932 4.85509 -6.58957 0
M  V30 1286 N 128.595 0.856903 1.32268 0
M  V30 1287 C 129.558 0.308171 2.27119 0
M  V30 1288 C 130.558 -0.533421 1.51695 0
M  V30 1289 O 131.748 -0.344607 1.70757 0
M  V30 1290 C 128.88 -0.563757 3.36206 0
M  V30 1291 H 130.073 1.14535 2.77167 0
M  V30 1292 H 127.626 0.631421 1.42978 0
M  V30 1293 H 128.361 -1.42266 2.91429 0
M  V30 1294 H 128.146 0.0386749 3.92081 0
M  V30 1295 H 129.636 -0.940386 4.06874 0
M  V30 1296 N 130.073 -1.45103 0.615059 0
M  V30 1297 C 131.02 -2.30586 -0.0993978 0
M  V30 1298 C 131.99 -1.42544 -0.852669 0
M  V30 1299 O 133.175 -1.71465 -0.836917 0
M  V30 1300 C 130.315 -3.27572 -1.08583 0
M  V30 1301 C 129.428 -4.30717 -0.332656 0
M  V30 1302 C 128.563 -5.14807 -1.30947 0
M  V30 1303 C 127.602 -6.09673 -0.544538 0
M  V30 1304 N 126.739 -6.86517 -1.47101 0
M  V30 1305 H 131.579 -2.91144 0.635542 0
M  V30 1306 H 129.116 -1.4346 0.325206 0
M  V30 1307 H 131.074 -3.82276 -1.67095 0
M  V30 1308 H 129.704 -2.68751 -1.78809 0
M  V30 1309 H 128.756 -3.78615 0.368107 0
M  V30 1310 H 130.068 -4.98102 0.263842 0
M  V30 1311 H 129.222 -5.73948 -1.96643 0
M  V30 1312 H 127.961 -4.47458 -1.9399 0
M  V30 1313 H 126.966 -5.49656 0.126003 0
M  V30 1314 H 128.191 -6.79052 0.080947 0
M  V30 1315 H 126.137 -6.21851 -2.08895 0
M  V30 1316 H 126.054 -7.50281 -0.928137 0
M  V30 1317 H 127.322 -7.50194 -2.11731 0
M  V30 1318 N 131.551 -0.354651 -1.53558 0
M  V30 1319 C 132.967 -0.00315426 -1.596 0
M  V30 1320 C 133.167 1.47741 -1.37021 0
M  V30 1321 O 132.223 2.23759 -1.16996 0
M  V30 1322 C 133.536 -0.44929 -2.97325 0
M  V30 1323 C 135.084 -0.402578 -3.104 0
M  V30 1324 C 135.559 -0.824355 -4.5052 0
M  V30 1325 N 137.05 -0.778979 -4.56603 0
M  V30 1326 C 137.785 -1.07715 -5.63192 0
M  V30 1327 N 137.281 -1.44405 -6.77583 0
M  V30 1328 N 139.074 -1.00066 -5.53121 0
M  V30 1329 H 131.225 -1.31893 -1.66487 0
M  V30 1330 H 133.488 -0.538388 -0.780284 0
M  V30 1331 H 133.194 -1.48202 -3.1895 0
M  V30 1332 H 133.068 0.169772 -3.76818 0
M  V30 1333 H 135.455 0.621004 -2.88492 0
M  V30 1334 H 135.536 -1.05699 -2.32941 0
M  V30 1335 H 135.18 -1.846 -4.73165 0
M  V30 1336 H 135.11 -0.147304 -5.26394 0
M  V30 1337 H 137.601 -0.508528 -3.74463 0
M  V30 1338 H 137.914 -1.65612 -7.54846 0
M  V30 1339 H 136.259 -1.4826 -6.79002 0
M  V30 1340 H 139.45 -0.713293 -4.62633 0
M  V30 1341 H 139.623 -1.23638 -6.36096 0
M  V30 1342 N 133.029 1.57378 -0.0835403 0
M  V30 1343 C 134.278 1.93106 0.582498 0
M  V30 1344 C 134.591 0.96651 1.70053 0
M  V30 1345 O 135.797 1.21705 2.42693 0
M  V30 1346 C 134.253 3.43076 1.08751 0
M  V30 1347 C 133.861 4.48 -0.000146404 0
M  V30 1348 C 135.605 3.87785 1.72694 0
M  V30 1349 C 133.512 5.89113 0.519568 0
M  V30 1350 H 132.442 0.720775 0.221358 0
M  V30 1351 H 135.093 1.82821 -0.157675 0
M  V30 1352 H 133.475 3.48474 1.88101 0
M  V30 1353 H 134.649 4.54233 -0.775199 0
M  V30 1354 H 132.964 4.1283 -0.54406 0
M  V30 1355 H 135.561 4.90604 2.1263 0
M  V30 1356 H 135.904 3.25796 2.59158 0
M  V30 1357 H 136.437 3.8504 0.999457 0
M  V30 1358 H 133.176 6.54775 -0.308186 0
M  V30 1359 H 132.696 5.86376 1.26188 0
M  V30 1360 H 134.375 6.39346 0.992237 0
M  V30 1361 N 134.507 -0.190092 1.56449 0
M  V30 1362 C 135.735 -0.925772 1.85033 0
M  V30 1363 C 136.15 -1.76638 0.666658 0
M  V30 1364 O 135.507 -1.78822 -0.364565 0
M  V30 1365 C 135.558 -1.81786 3.12468 0
M  V30 1366 O 135.279 -1.01118 4.26271 0
M  V30 1367 C 136.78 -2.6648 3.54265 0
M  V30 1368 H 134 -0.269872 0.614337 0
M  V30 1369 H 136.544 -0.195837 2.0356 0
M  V30 1370 H 134.699 -2.50136 2.95822 0
M  V30 1371 H 135.113 -1.61956 4.98869 0
M  V30 1372 H 136.587 -3.24722 4.46385 0
M  V30 1373 H 137.064 -3.40434 2.77491 0
M  V30 1374 H 137.67 -2.03493 3.73458 0
M  V30 1375 N 135.985 -1.50799 -0.457987 0
M  V30 1376 C 136.895 -1.73426 -1.57989 0
M  V30 1377 C 137.911 -0.617745 -1.62665 0
M  V30 1378 O 139.087 -0.897614 -1.80291 0
M  V30 1379 C 136.152 -1.83557 -2.94122 0
M  V30 1380 C 135.213 -3.07345 -2.99729 0
M  V30 1381 C 134.446 -3.16983 -4.29368 0
M  V30 1382 O 134.669 -2.33077 -5.20607 0
M  V30 1383 O 133.603 -4.09812 -4.40837 0
M  V30 1384 H 137.429 -2.68555 -1.41817 0
M  V30 1385 H 135.014 -1.35052 -0.638859 0
M  V30 1386 H 136.896 -1.92326 -3.74952 0
M  V30 1387 H 135.571 -0.916137 -3.10465 0
M  V30 1388 H 134.478 -3.04068 -2.1793 0
M  V30 1389 H 135.811 -3.9891 -2.88326 0
M  V30 1390 N 137.463 0.71206 -1.40597 0
M  V30 1391 C 138.709 1.47292 -1.40274 0
M  V30 1392 C 139.064 1.92399 -0.00576812 0
M  V30 1393 O 138.357 1.65507 0.965297 0
M  V30 1394 C 138.551 2.71039 -2.32965 0
M  V30 1395 C 138.38 2.38035 -3.81536 0
M  V30 1396 C 137.15 2.29203 -4.50327 0
M  V30 1397 C 139.348 2.02076 -4.72938 0
M  V30 1398 N 137.33 1.88911 -5.84111 0
M  V30 1399 C 138.701 1.72412 -5.95545 0
M  V30 1400 C 140.756 1.88742 -4.60739 0
M  V30 1401 C 139.459 1.30756 -7.07316 0
M  V30 1402 C 141.485 1.4849 -5.72455 0
M  V30 1403 C 140.847 1.19726 -6.94151 0
M  V30 1404 H 136.946 0.536919 -0.568544 0
M  V30 1405 H 139.53 0.825424 -1.76337 0
M  V30 1406 H 137.701 3.33533 -1.99023 0
M  V30 1407 H 139.433 3.37404 -2.23474 0
M  V30 1408 H 136.188 2.47059 -4.04053 0
M  V30 1409 H 136.612 1.71293 -6.54972 0
M  V30 1410 H 141.254 2.0964 -3.67166 0
M  V30 1411 H 138.972 1.08601 -8.00769 0
M  V30 1412 H 142.558 1.38747 -5.65014 0
M  V30 1413 H 141.438 0.890482 -7.79128 0
M  V30 1414 N 138.941 1.26152 0.944643 0
M  V30 1415 C 140.352 1.10454 1.50522 0
M  V30 1416 C 140.703 -0.31635 1.93633 0
M  V30 1417 O 139.828 -1.20746 1.79581 0
M  V30 1418 C 140.423 1.99891 2.73549 0
M  V30 1419 C 138.982 1.88348 3.25886 0
M  V30 1420 C 138.129 1.93447 1.9868 0
M  V30 1421 H 141.08 1.39292 0.760489 0
M  V30 1422 H 141.101 1.54477 3.47732 0
M  V30 1423 H 140.613 3.03297 2.42141 0
M  V30 1424 H 138.714 0.878636 3.62092 0
M  V30 1425 H 138.827 2.73696 3.93227 0
M  V30 1426 H 137.191 1.37456 2.14425 0
M  V30 1427 H 137.974 2.98476 1.69607 0
M  V30 1428 N 140.419 -1.14872 1.07899 0
M  V30 1429 C 141.83 -1.67367 0.827363 0
M  V30 1430 C 142.181 -1.85236 -0.646693 0
M  V30 1431 O 141.306 -1.55974 -1.50004 0
M  V30 1432 C 141.901 -3.04016 1.49532 0
M  V30 1433 C 140.46 -3.53566 1.29106 0
M  V30 1434 C 139.607 -2.29161 1.56143 0
M  V30 1435 H 142.558 -0.990083 1.24028 0
M  V30 1436 H 142.579 -3.69219 0.919643 0
M  V30 1437 H 142.091 -2.90978 2.56814 0
M  V30 1438 H 140.192 -3.71835 0.238713 0
M  V30 1439 H 140.305 -4.34661 2.01511 0
M  V30 1440 H 138.669 -2.34978 0.982717 0
M  V30 1441 H 139.452 -2.18705 2.64619 0
M  V30 1442 N 141.898 -0.863906 -1.31812 0
M  V30 1443 C 143.145 -0.471836 -1.96926 0
M  V30 1444 C 143.473 0.974578 -1.68322 0
M  V30 1445 O 142.728 1.7003 -0.968933 0
M  V30 1446 C 143.027 -0.668547 -3.51091 0
M  V30 1447 C 142.693 -2.08683 -3.99703 0
M  V30 1448 C 141.355 -2.47471 -4.12688 0
M  V30 1449 C 143.707 -3.01207 -4.25351 0
M  V30 1450 C 141.035 -3.78037 -4.4867 0
M  V30 1451 C 143.387 -4.31282 -4.62794 0
M  V30 1452 C 142.051 -4.69992 -4.73987 0
M  V30 1453 H 141.321 -0.172657 -0.720604 0
M  V30 1454 H 143.968 -1.09573 -1.57054 0
M  V30 1455 H 142.273 0.0385252 -3.91781 0
M  V30 1456 H 143.97 -0.345102 -3.99512 0
M  V30 1457 H 140.56 -1.77566 -3.90087 0
M  V30 1458 H 144.744 -2.72469 -4.14819 0
M  V30 1459 H 140 -4.078 -4.55532 0
M  V30 1460 H 144.174 -5.03031 -4.81594 0
M  V30 1461 H 141.801 -5.71207 -5.01624 0
M  V30 1462 N 143.376 1.44774 -0.622745 0
M  V30 1463 C 144.286 2.34433 0.0886031 0
M  V30 1464 C 145.302 1.52131 0.844529 0
M  V30 1465 O 146.478 1.84886 0.798691 0
M  V30 1466 C 143.543 3.29986 1.0635 0
M  V30 1467 C 142.604 4.28195 0.307873 0
M  V30 1468 C 141.837 5.19183 1.23633 0
M  V30 1469 O 142.06 5.13918 2.47476 0
M  V30 1470 O 140.994 5.97515 0.725189 0
M  V30 1471 H 144.82 2.96693 -0.648599 0
M  V30 1472 H 142.405 1.44408 -0.382957 0
M  V30 1473 H 144.287 3.88825 1.6246 0
M  V30 1474 H 142.962 2.70269 1.78146 0
M  V30 1475 H 141.869 3.72927 -0.296064 0
M  V30 1476 H 143.202 4.90808 -0.3699 0
M  V30 1477 N 144.854 0.36279 1.53368 0
M  V30 1478 C 146.084 -0.228281 2.05335 0
M  V30 1479 C 146.492 -1.43226 1.23625 0
M  V30 1480 O 145.835 -1.81717 0.269206 0
M  V30 1481 C 145.897 -0.688549 3.52845 0
M  V30 1482 C 145.561 0.398362 4.5526 0
M  V30 1483 C 146.558 1.24732 5.04716 0
M  V30 1484 C 144.243 0.557805 4.99193 0
M  V30 1485 C 146.237 2.2411 5.96702 0
M  V30 1486 C 143.924 1.55495 5.90986 0
M  V30 1487 C 144.922 2.39503 6.39631 0
M  V30 1488 O 144.61 3.37517 7.29615 0
M  V30 1489 H 144.342 -0.044395 0.674541 0
M  V30 1490 H 146.896 0.518668 1.98744 0
M  V30 1491 H 145.126 -1.48706 3.56964 0
M  V30 1492 H 146.815 -1.20231 3.87685 0
M  V30 1493 H 147.581 1.13532 4.71525 0
M  V30 1494 H 143.46 -0.0862959 4.60919 0
M  V30 1495 H 147.004 2.89718 6.34594 0
M  V30 1496 H 142.901 1.66744 6.23592 0
M  V30 1497 H 143.669 3.33213 7.47604 0
M  V30 1498 N 146.332 -1.57332 0.0918853 0
M  V30 1499 C 147.265 -2.09499 -0.904735 0
M  V30 1500 C 148.243 -1.00479 -1.27839 0
M  V30 1501 O 149.427 -1.27954 -1.38419 0
M  V30 1502 C 146.554 -2.56931 -2.2069 0
M  V30 1503 C 145.6 -3.77579 -1.98334 0
M  V30 1504 S 146.433 -5.21317 -1.22428 0
M  V30 1505 C 147.589 -5.72097 -2.53882 0
M  V30 1506 H 147.822 -2.93705 -0.460922 0
M  V30 1507 H 145.355 -1.53923 -0.121332 0
M  V30 1508 H 147.313 -2.84917 -2.95521 0
M  V30 1509 H 145.974 -1.72956 -2.62192 0
M  V30 1510 H 145.167 -4.08824 -2.94752 0
M  V30 1511 H 144.769 -3.5007 -1.31633 0
M  V30 1512 H 147.061 -5.80168 -3.49874 0
M  V30 1513 H 148.004 -6.70654 -2.27219 0
M  V30 1514 H 148.412 -5.00012 -2.62007 0
M  V30 1515 N 147.81 0.181792 -1.56548 0
M  V30 1516 C 149.059 0.898348 -1.8059 0
M  V30 1517 C 149.372 1.83862 -0.667379 0
M  V30 1518 O 150.578 2.59678 -0.792446 0
M  V30 1519 C 149.034 1.64791 -3.19956 0
M  V30 1520 C 148.642 0.751789 -4.41647 0
M  V30 1521 C 150.386 2.35331 -3.53298 0
M  V30 1522 C 148.293 1.50098 -5.72035 0
M  V30 1523 H 147.223 0.339194 -0.673397 0
M  V30 1524 H 149.874 0.151413 -1.82874 0
M  V30 1525 H 148.256 2.43921 -3.11959 0
M  V30 1526 H 149.43 -0.0018076 -4.608 0
M  V30 1527 H 147.745 0.156562 -4.16106 0
M  V30 1528 H 150.342 2.91958 -4.47956 0
M  V30 1529 H 150.685 3.10164 -2.77676 0
M  V30 1530 H 151.218 1.63154 -3.62803 0
M  V30 1531 H 147.957 0.795175 -6.50659 0
M  V30 1532 H 147.477 2.22817 -5.56878 0
M  V30 1533 H 149.156 2.05125 -6.13622 0
M  V30 1534 N 149.288 1.51039 0.449983 0
M  V30 1535 C 150.218 1.74379 1.55288 0
M  V30 1536 C 151.199 0.593236 1.5942 0
M  V30 1537 O 152.384 0.834625 1.7535 0
M  V30 1538 C 149.514 1.85728 2.93466 0
M  V30 1539 C 148.468 3.01078 3.04197 0
M  V30 1540 C 147.794 2.97595 4.44231 0
M  V30 1541 C 149.094 4.41254 2.7945 0
M  V30 1542 H 150.788 2.66725 1.36008 0
M  V30 1543 H 148.334 1.2835 0.652864 0
M  V30 1544 H 150.287 2.0064 3.70569 0
M  V30 1545 H 149.011 0.900207 3.13949 0
M  V30 1546 H 147.67 2.85851 2.29531 0
M  V30 1547 H 147.318 1.99691 4.61663 0
M  V30 1548 H 147.018 3.75046 4.52343 0
M  V30 1549 H 148.542 3.14583 5.23326 0
M  V30 1550 H 149.956 4.56897 3.46292 0
M  V30 1551 H 148.353 5.20315 2.98985 0
M  V30 1552 H 149.423 4.52164 1.75144 0
M  V30 1553 N 150.766 -0.704594 1.40972 0
M  V30 1554 C 151.729 -1.80035 1.41845 0
M  V30 1555 C 152.729 -1.57774 0.310474 0
M  V30 1556 O 153.919 -1.64613 0.56992 0
M  V30 1557 C 151.051 -3.18284 1.22098 0
M  V30 1558 H 152.244 -1.80658 2.3938 0
M  V30 1559 H 149.797 -0.911329 1.26982 0
M  V30 1560 H 150.532 -3.23306 0.253672 0
M  V30 1561 H 150.317 -3.35843 2.02366 0
M  V30 1562 H 151.807 -3.98289 1.25522 0
M  V30 1563 N 152.244 -1.26651 -0.937939 0
M  V30 1564 C 153.472 -1.15173 -1.7188 0
M  V30 1565 C 153.887 0.292668 -1.86518 0
M  V30 1566 O 153.244 1.20014 -1.37488 0
M  V30 1567 C 153.295 -1.81925 -3.12387 0
M  V30 1568 O 153.016 -3.2072 -2.98446 0
M  V30 1569 C 154.517 -1.76442 -4.06673 0
M  V30 1570 H 151.737 -0.400911 -0.538063 0
M  V30 1571 H 154.281 -1.67332 -1.1756 0
M  V30 1572 H 152.436 -1.33696 -3.63599 0
M  V30 1573 H 152.85 -3.53802 -3.872 0
M  V30 1574 H 154.324 -2.27781 -5.02812 0
M  V30 1575 H 154.801 -0.731608 -4.33064 0
M  V30 1576 H 155.407 -2.24238 -3.61382 0
M  V30 1577 N 153.722 1.14298 -1.08507 0
M  V30 1578 C 154.971 1.84708 -0.810305 0
M  V30 1579 C 155.284 1.83903 0.666271 0
M  V30 1580 O 156.49 2.50112 1.05624 0
M  V30 1581 C 154.946 3.31572 -1.39957 0
M  V30 1582 C 154.554 3.40791 -2.90801 0
M  V30 1583 C 156.298 4.07087 -1.20334 0
M  V30 1584 C 154.205 4.81872 -3.4286 0
M  V30 1585 H 153.135 0.691985 -0.299454 0
M  V30 1586 H 155.786 1.28841 -1.30661 0
M  V30 1587 H 154.168 3.87183 -0.830976 0
M  V30 1588 H 155.342 2.95225 -3.53806 0
M  V30 1589 H 153.657 2.78732 -3.0935 0
M  V30 1590 H 156.254 5.11225 -1.56693 0
M  V30 1591 H 156.597 4.16054 -0.143237 0
M  V30 1592 H 157.13 3.57779 -1.73893 0
M  V30 1593 H 153.869 4.78094 -4.48449 0
M  V30 1594 H 153.389 5.27972 -2.84615 0
M  V30 1595 H 155.068 5.50765 -3.39509 0
M  V30 1596 N 155.201 0.870884 1.31352 0
M  V30 1597 C 156.45 0.478408 1.95944 0
M  V30 1598 C 156.763 -0.974493 1.69597 0
M  V30 1599 O 157.969 -1.47316 2.28058 0
M  V30 1600 C 156.425 0.804609 3.50791 0
M  V30 1601 C 156.033 2.27433 3.85977 0
M  V30 1602 C 157.777 0.480648 4.2177 0
M  V30 1603 C 155.684 2.5429 5.33939 0
M  V30 1604 H 154.614 0.175175 0.733369 0
M  V30 1605 H 157.265 1.06391 1.4951 0
M  V30 1606 H 155.647 0.148347 3.95722 0
M  V30 1607 H 156.821 2.97373 3.52002 0
M  V30 1608 H 155.136 2.56442 3.28065 0
M  V30 1609 H 157.733 0.658519 5.30629 0
M  V30 1610 H 158.076 -0.578979 4.12254 0
M  V30 1611 H 158.609 1.09349 3.82476 0
M  V30 1612 H 155.348 3.58939 5.48491 0
M  V30 1613 H 154.868 1.88945 5.69263 0
M  V30 1614 H 156.547 2.39066 6.01212 0
M  V30 1615 N 156.679 -1.44442 0.630414 0
M  V30 1616 C 157.642 -2.29107 -0.0652523 0
M  V30 1617 C 158.642 -1.41002 -0.772995 0
M  V30 1618 O 159.832 -1.62881 -0.617692 0
M  V30 1619 C 156.964 -3.22564 -1.10296 0
M  V30 1620 H 158.157 -2.92103 0.679401 0
M  V30 1621 H 155.71 -1.51343 0.390517 0
M  V30 1622 H 156.445 -2.64416 -1.87762 0
M  V30 1623 H 156.23 -3.87491 -0.59941 0
M  V30 1624 H 157.72 -3.86167 -1.5895 0
M  V30 1625 N 158.157 -0.370918 -1.53173 0
M  V30 1626 C 159.105 0.488101 -2.27421 0
M  V30 1627 C 160.099 1.07884 -1.30604 0
M  V30 1628 O 161.305 1.02143 -1.48212 0
M  V30 1629 H 157.68 0.176134 -0.731082 0
M  V30 1630 H 159.651 -0.159815 -2.97972 0
M  V30 1631 C 158.4 1.61306 -3.08019 0
M  V30 1632 H 157.723 1.1678 -3.82364 0
M  V30 1633 H 159.163 2.18872 -3.63141 0
M  V30 1634 C 157.622 2.55848 -2.19188 0
M  V30 1635 O 158.152 3.58799 -1.80626 0
M  V30 1636 N 156.358 2.2516 -1.83715 0
M  V30 1637 H 155.905 1.41476 -2.15273 0
M  V30 1638 H 155.863 2.8867 -1.24567 0
M  V30 1639 N 159.635 1.57281 -0.100228 0
M  V30 1640 C 160.875 1.96419 0.56558 0
M  V30 1641 C 161.239 0.981265 1.65031 0
M  V30 1642 O 162.44 1.26133 2.37369 0
M  V30 1643 C 160.711 3.39996 1.10171 0
M  V30 1644 S 162.27 4.01134 1.77867 0
M  V30 1645 H 159.088 0.68667 0.184406 0
M  V30 1646 H 161.69 1.94662 -0.180851 0
M  V30 1647 H 160.394 4.09296 0.300803 0
M  V30 1648 H 159.925 3.45361 1.88385 0
M  V30 1649 H 161.94 3.90358 3.06326 0
M  V30 1650 N 161.113 -0.173488 1.56642 0
M  V30 1651 C 162.362 -0.888758 1.81063 0
M  V30 1652 C 162.675 -1.83506 0.67712 0
M  V30 1653 O 163.881 -2.59254 0.806206 0
M  V30 1654 C 162.337 -1.63091 3.20826 0
M  V30 1655 C 161.945 -0.728357 4.4204 0
M  V30 1656 C 163.689 -2.33454 3.54541 0
M  V30 1657 C 161.596 -1.47062 5.72823 0
M  V30 1658 H 160.526 -0.335618 0.675186 0
M  V30 1659 H 163.177 -0.141712 1.82952 0
M  V30 1660 H 161.559 -2.42263 3.13248 0
M  V30 1661 H 162.733 0.0262449 4.60793 0
M  V30 1662 H 161.048 -0.134492 4.16183 0
M  V30 1663 H 163.645 -2.89578 4.49498 0
M  V30 1664 H 163.988 -3.08687 2.79317 0
M  V30 1665 H 164.521 -1.61227 3.63663 0
M  V30 1666 H 161.26 -0.760658 6.51072 0
M  V30 1667 H 160.78 -2.1986 5.58052 0
M  V30 1668 H 162.459 -2.01868 6.14702 0
M  V30 1669 N 162.591 -1.51276 -0.441967 0
M  V30 1670 C 163.837 -1.63958 -1.19355 0
M  V30 1671 C 164.17 -0.352543 -1.90973 0
M  V30 1672 O 163.445 0.647627 -1.83401 0
M  V30 1673 C 163.728 -2.83979 -2.21422 0
M  V30 1674 C 163.581 -4.22646 -1.53918 0
M  V30 1675 C 164.9 -2.99521 -3.22451 0
M  V30 1676 H 162.019 -0.596709 -0.432559 0
M  V30 1677 H 164.661 -1.83748 -0.483398 0
M  V30 1678 H 162.811 -2.67237 -2.81987 0
M  V30 1679 H 164.483 -4.51045 -0.967256 0
M  V30 1680 H 162.726 -4.25558 -0.841615 0
M  V30 1681 H 163.397 -5.02609 -2.28229 0
M  V30 1682 H 165.873 -3.14944 -2.71937 0
M  V30 1683 H 164.749 -3.85072 -3.91166 0
M  V30 1684 H 165.01 -2.11391 -3.88287 0
M  V30 1685 N 164.069 0.697108 -1.41344 0
M  V30 1686 C 164.999 1.82353 -1.45841 0
M  V30 1687 C 165.98 1.67115 -0.317247 0
M  V30 1688 O 167.165 1.86871 -0.528474 0
M  V30 1689 C 164.295 3.20476 -1.33838 0
M  V30 1690 C 163.249 3.50415 -2.4575 0
M  V30 1691 C 162.575 4.87878 -2.18813 0
M  V30 1692 C 163.875 3.49546 -3.88091 0
M  V30 1693 H 165.569 1.78846 -2.40113 0
M  V30 1694 H 163.115 0.859028 -1.15571 0
M  V30 1695 H 165.068 3.98988 -1.35596 0
M  V30 1696 H 163.792 3.24604 -0.360498 0
M  V30 1697 H 162.451 2.74253 -2.43271 0
M  V30 1698 H 162.099 4.8863 -1.19371 0
M  V30 1699 H 161.799 5.08875 -2.93803 0
M  V30 1700 H 163.323 5.68702 -2.22284 0
M  V30 1701 H 164.737 4.18066 -3.92293 0
M  V30 1702 H 163.134 3.82075 -4.62751 0
M  V30 1703 H 164.204 2.48552 -4.16353 0
M  V30 1704 N 165.547 1.27147 0.931209 0
M  V30 1705 C 166.51 1.09615 2.01289 0
M  V30 1706 C 167.51 0.0412581 1.60747 0
M  V30 1707 O 168.7 0.285545 1.71844 0
M  V30 1708 C 165.832 0.669447 3.34262 0
M  V30 1709 H 167.025 2.05662 2.18273 0
M  V30 1710 H 164.578 1.09885 1.11153 0
M  V30 1711 H 165.313 -0.292572 3.22978 0
M  V30 1712 H 165.098 1.43127 3.65044 0
M  V30 1713 H 166.588 0.568921 4.13706 0
M  V30 1714 N 167.025 -1.13721 1.09112 0
M  V30 1715 C 167.955 -2.21148 0.749385 0
M  V30 1716 C 168.936 -1.6792 -0.271475 0
M  V30 1717 O 170.121 -1.93693 -0.140251 0
M  V30 1718 C 167.251 -3.46905 0.165659 0
M  V30 1719 C 166.205 -4.13203 1.11567 0
M  V30 1720 C 165.531 -5.33248 0.393809 0
M  V30 1721 C 166.831 -4.60912 2.45678 0
M  V30 1722 H 168.525 -2.4999 1.64758 0
M  V30 1723 H 166.071 -1.20156 0.793626 0
M  V30 1724 H 168.024 -4.21313 -0.085466 0
M  V30 1725 H 166.748 -3.17449 -0.767714 0
M  V30 1726 H 165.407 -3.40758 1.35202 0
M  V30 1727 H 165.055 -5.00054 -0.543599 0
M  V30 1728 H 164.755 -5.78552 1.02721 0
M  V30 1729 H 166.279 -6.10413 0.150908 0
M  V30 1730 H 167.693 -5.26759 2.26269 0
M  V30 1731 H 166.09 -5.16944 3.04776 0
M  V30 1732 H 167.16 -3.75603 3.06677 0
M  V30 1733 N 168.503 -0.877838 -1.30888 0
M  V30 1734 C 169.413 -0.343096 -2.32078 0
M  V30 1735 C 170.429 0.551022 -1.65045 0
M  V30 1736 O 171.605 0.445854 -1.96403 0
M  V30 1737 C 168.67 0.439905 -3.43898 0
M  V30 1738 C 167.731 -0.483111 -4.26573 0
M  V30 1739 C 166.964 0.262616 -5.33053 0
M  V30 1740 O 167.187 1.48967 -5.50604 0
M  V30 1741 O 166.121 -0.383593 -6.00676 0
M  V30 1742 H 169.947 -1.18203 -2.79753 0
M  V30 1743 H 167.532 -0.64145 -1.34929 0
M  V30 1744 H 169.414 0.883504 -4.12034 0
M  V30 1745 H 168.089 1.25526 -2.98371 0
M  V30 1746 H 166.996 -0.975374 -3.61161 0
M  V30 1747 H 168.329 -1.26427 -4.75686 0
M  V30 1748 N 169.982 1.44106 -0.638065 0
M  V30 1749 C 170.914 2.28976 0.101205 0
M  V30 1750 C 171.927 1.4167 0.802088 0
M  V30 1751 O 173.116 1.65755 0.662375 0
M  V30 1752 C 170.216 3.18217 1.16581 0
M  V30 1753 C 169.389 4.33978 0.546066 0
M  V30 1754 C 168.448 5.04202 1.50554 0
M  V30 1755 O 167.474 5.59986 1.01999 0
M  V30 1756 N 168.676 5.06296 2.8398 0
M  V30 1757 H 171.441 2.93064 -0.627186 0
M  V30 1758 H 169.002 1.54629 -0.479731 0
M  V30 1759 H 170.994 3.62061 1.80815 0
M  V30 1760 H 169.564 2.55833 1.79634 0
M  V30 1761 H 168.784 3.93239 -0.275046 0
M  V30 1762 H 170.072 5.08675 0.112793 0
M  V30 1763 H 169.47 4.62319 3.26002 0
M  V30 1764 H 168.027 5.53907 3.43556 0
M  V30 1765 N 171.46 0.379036 1.52974 0
M  V30 1766 C 172.41 -0.477772 2.22938 0
M  V30 1767 C 173.394 -1.03792 1.22948 0
M  V30 1768 O 174.586 -0.965725 1.48333 0
M  V30 1769 C 171.715 -1.60994 3.03209 0
M  V30 1770 C 170.801 -1.06203 4.10587 0
M  V30 1771 N 171.192 -0.238214 5.05239 0
M  V30 1772 C 169.49 -1.33554 4.25534 0
M  V30 1773 C 170.191 0.0633235 5.81666 0
M  V30 1774 N 169.167 -0.537901 5.40932 0
M  V30 1775 H 172.969 0.158295 2.93473 0
M  V30 1776 H 170.483 0.187778 1.61311 0
M  V30 1777 H 172.48 -2.23607 3.5186 0
M  V30 1778 H 171.14 -2.24893 2.34207 0
M  V30 1779 H 172.151 0.123695 5.17752 0
M  V30 1780 H 168.828 -1.97632 3.6776 0
M  V30 1781 H 170.218 0.730161 6.67921 0
M  V30 1782 N 172.938 -1.57226 0.108567 0
M  V30 1783 C 173.868 -2.17778 -0.84232 0
M  V30 1784 C 174.849 -1.11487 -1.2847 0
M  V30 1785 O 176.034 -1.39681 -1.34918 0
M  V30 1786 C 173.164 -2.76888 -2.09644 0
M  V30 1787 C 172.118 -3.88669 -1.79221 0
M  V30 1788 C 171.444 -4.34541 -3.11574 0
M  V30 1789 C 172.744 -5.11251 -1.06864 0
M  V30 1790 H 174.438 -2.97489 -0.337774 0
M  V30 1791 H 171.984 -1.43097 -0.161025 0
M  V30 1792 H 173.937 -3.17904 -2.76614 0
M  V30 1793 H 172.661 -1.94451 -2.62405 0
M  V30 1794 H 171.32 -3.48213 -1.14644 0
M  V30 1795 H 170.968 -3.48977 -3.62249 0
M  V30 1796 H 170.668 -5.09914 -2.91996 0
M  V30 1797 H 172.192 -4.782 -3.7968 0
M  V30 1798 H 173.606 -5.49352 -1.63968 0
M  V30 1799 H 172.003 -5.9214 -0.974178 0
M  V30 1800 H 173.073 -4.8487 -0.0536168 0
M  V30 1801 N 174.416 0.165178 -1.56732 0
M  V30 1802 C 175.827 0.727046 -1.71962 0
M  V30 1803 C 176.178 1.82508 -0.720078 0
M  V30 1804 O 175.303 2.16082 0.117242 0
M  V30 1805 C 175.898 1.32559 -3.11791 0
M  V30 1806 C 174.457 1.83422 -3.28684 0
M  V30 1807 C 173.604 0.715567 -2.67908 0
M  V30 1808 H 176.555 -0.0602896 -1.58585 0
M  V30 1809 H 176.576 2.19533 -3.10782 0
M  V30 1810 H 176.088 0.526195 -3.84516 0
M  V30 1811 H 174.189 2.65986 -2.60926 0
M  V30 1812 H 174.302 1.97543 -4.36478 0
M  V30 1813 H 172.666 1.13758 -2.27884 0
M  V30 1814 H 173.449 -0.0720836 -3.43224 0
M  V30 1815 N 175.894 1.51508 0.433938 0
M  V30 1816 C 177.171 1.54888 1.19453 0
M  V30 1817 C 177.551 0.315154 2.08734 0
M  V30 1818 O 176.899 -0.699558 2.17528 0
M  V30 1819 C 177.109 2.86467 1.99342 0
M  V30 1820 C 178.457 3.38545 2.56267 0
M  V30 1821 O 179.481 2.88041 2.0955 0
M  V30 1822 O 178.34 4.26675 3.41483 0
M  V30 1823 H 175.434 0.622863 0.544032 0
M  V30 1824 H 177.98 1.63823 0.442732 0
M  V30 1825 H 176.752 3.67718 1.33788 0
M  V30 1826 H 176.375 2.8071 2.8158 0
M  V30 1827 N 177.372 -0.689602 1.41712 0
M  V30 1828 C 178.62 -1.4468 1.4111 0
M  V30 1829 C 178.941 -1.94986 0.0232196 0
M  V30 1830 O 178.211 -1.72097 -0.935913 0
M  V30 1831 H 176.791 -0.536847 0.519427 0
M  V30 1832 H 179.453 -0.815825 1.77004 0
M  V30 1833 H 178.549 -2.30706 2.10193 0
M  V30 1834 N 178.85 -1.27639 -0.924453 0
M  V30 1835 C 180.127 -1.04887 -1.651 0
M  V30 1836 C 180.507 0.415327 -2.06974 0
M  V30 1837 O 179.855 1.39923 -1.80648 0
M  V30 1838 C 180.065 -2.01348 -2.85061 0
M  V30 1839 C 181.413 -2.30899 -3.56329 0
M  V30 1840 O 182.437 -1.99348 -2.95193 0
M  V30 1841 O 181.296 -2.84699 -4.66485 0
M  V30 1842 H 178.39 -0.400083 -0.723784 0
M  V30 1843 H 180.936 -1.38916 -0.974703 0
M  V30 1844 H 179.708 -3.0008 -2.51133 0
M  V30 1845 H 179.331 -1.679 -3.6041 0
M  V30 1846 N 180.328 1.1314 -1.09713 0
M  V30 1847 C 181.275 2.18642 -0.739196 0
M  V30 1848 C 182.245 1.63706 0.280978 0
M  V30 1849 O 183.43 1.90111 0.161946 0
M  V30 1850 C 180.57 3.44685 -0.169102 0
M  V30 1851 C 179.683 4.13711 -1.24367 0
M  V30 1852 C 178.818 5.27379 -0.636019 0
M  V30 1853 C 177.857 5.88259 -1.69169 0
M  V30 1854 N 176.994 6.93352 -1.10485 0
M  V30 1855 H 181.834 2.48607 -1.64312 0
M  V30 1856 H 179.371 1.22066 -0.820875 0
M  V30 1857 H 181.329 4.16815 0.179256 0
M  V30 1858 H 179.959 3.15161 0.698079 0
M  V30 1859 H 179.011 3.39835 -1.70927 0
M  V30 1860 H 180.323 4.55037 -2.04311 0
M  V30 1861 H 179.477 6.06238 -0.236677 0
M  V30 1862 H 178.216 4.8731 0.194928 0
M  V30 1863 H 177.221 5.08092 -2.10055 0
M  V30 1864 H 178.446 6.30399 -2.52536 0
M  V30 1865 H 176.392 6.55335 -0.295234 0
M  V30 1866 H 176.309 7.33236 -1.84121 0
M  V30 1867 H 177.577 7.76057 -0.73181 0
M  V30 1868 N 181.806 0.884767 1.30421 0
M  V30 1869 C 183.034 0.518044 2.0031 0
M  V30 1870 C 183.449 -0.893408 1.66324 0
M  V30 1871 O 182.806 -1.5875 0.900262 0
M  V30 1872 C 182.857 0.682997 3.54989 0
M  V30 1873 O 182.578 2.03888 3.87764 0
M  V30 1874 C 184.079 0.31924 4.42149 0
M  V30 1875 H 181.299 0.200265 0.640418 0
M  V30 1876 H 183.843 1.19001 1.6631 0
M  V30 1877 H 181.998 0.0584052 3.87356 0
M  V30 1878 H 182.412 2.05735 4.82466 0
M  V30 1879 H 183.886 0.485555 5.4986 0
M  V30 1880 H 184.363 -0.742717 4.32875 0
M  V30 1881 H 184.969 0.920147 4.15227 0
M  V30 1882 N 183.284 -1.43765 0.645699 0
M  V30 1883 C 184.695 -1.85193 0.236719 0
M  V30 1884 C 185.046 -1.54045 -1.21509 0
M  V30 1885 O 184.171 -0.985694 -1.92647 0
M  V30 1886 C 184.766 -3.36151 0.422845 0
M  V30 1887 C 183.325 -3.76338 0.0682492 0
M  V30 1888 C 182.472 -2.67538 0.729306 0
M  V30 1889 H 185.423 -1.34025 0.849883 0
M  V30 1890 H 185.444 -3.79032 -0.333904 0
M  V30 1891 H 184.956 -3.5879 1.47958 0
M  V30 1892 H 183.057 -3.59312 -0.986179 0
M  V30 1893 H 183.17 -4.76603 0.488469 0
M  V30 1894 H 181.534 -2.54176 0.163235 0
M  V30 1895 H 182.317 -2.93006 1.78892 0
M  V30 1896 N 184.763 -0.387143 -1.52771 0
M  V30 1897 C 185.696 0.493123 -2.22808 0
M  V30 1898 C 186.674 1.0658 -1.22798 0
M  V30 1899 O 187.858 1.11785 -1.51777 0
M  V30 1900 C 184.985 1.68238 -2.93962 0
M  V30 1901 C 184.031 1.23515 -4.08223 0
M  V30 1902 S 184.864 0.21848 -5.35054 0
M  V30 1903 C 186.02 1.41357 -6.09729 0
M  V30 1904 H 186.253 -0.101625 -2.97126 0
M  V30 1905 H 183.786 -0.171323 -1.53447 0
M  V30 1906 H 185.744 2.36443 -3.35567 0
M  V30 1907 H 184.405 2.24842 -2.19328 0
M  V30 1908 H 183.598 2.12304 -4.57103 0
M  V30 1909 H 183.2 0.632044 -3.68621 0
M  V30 1910 H 185.492 2.34101 -6.3577 0
M  V30 1911 H 186.435 0.965736 -7.01484 0
M  V30 1912 H 186.843 1.6294 -5.40473 0
M  V30 1913 N 186.241 1.57166 -0.116904 0
M  V30 1914 C 187.466 1.999 0.55271 0
M  V30 1915 C 187.891 0.996039 1.59564 0
M  V30 1916 O 187.249 -0.032556 1.81271 0
M  V30 1917 C 187.297 3.4152 1.15742 0
M  V30 1918 O 186.401 3.44106 2.27299 0
M  V30 1919 H 185.742 0.649447 0.138258 0
M  V30 1920 H 188.272 2.03573 -0.204759 0
M  V30 1921 H 188.282 3.79684 1.49346 0
M  V30 1922 H 186.957 4.14034 0.393493 0
M  V30 1923 H 185.534 3.17759 1.9515 0
M  V30 1924 N 187.719 -0.156864 1.56817 0
M  V30 1925 C 188.629 -1.2136 2.00771 0
M  V30 1926 C 189.645 -1.47598 0.921459 0
M  V30 1927 O 190.821 -1.59462 1.2302 0
M  V30 1928 C 187.886 -2.52943 2.37109 0
M  V30 1929 C 186.947 -2.34439 3.59634 0
M  V30 1930 C 186.18 -3.59748 3.94229 0
M  V30 1931 O 186.403 -4.65526 3.29609 0
M  V30 1932 O 185.337 -3.52998 4.8752 0
M  V30 1933 H 189.163 -0.870468 2.90958 0
M  V30 1934 H 186.748 -0.36484 1.44877 0
M  V30 1935 H 188.63 -3.30538 2.61386 0
M  V30 1936 H 187.305 -2.86806 1.5008 0
M  V30 1937 H 186.212 -1.54828 3.40557 0
M  V30 1938 H 187.545 -2.05496 4.4725 0
M  V30 1939 N 189.197 -1.51736 -0.425897 0
M  V30 1940 C 190.613 -1.40166 -0.76326 0
M  V30 1941 C 190.813 -0.492962 -1.95377 0
M  V30 1942 O 189.869 0.0475815 -2.52455 0
M  V30 1943 C 191.182 -2.82403 -1.03291 0
M  V30 1944 C 192.73 -2.91632 -1.13665 0
M  V30 1945 C 193.205 -4.34801 -1.43916 0
M  V30 1946 N 194.696 -4.3796 -1.50816 0
M  V30 1947 C 195.431 -5.4578 -1.75817 0
M  V30 1948 N 194.927 -6.63744 -1.98534 0
M  V30 1949 N 196.72 -5.33274 -1.77694 0
M  V30 1950 H 188.871 -2.09361 0.358 0
M  V30 1951 H 191.134 -0.942941 0.0978094 0
M  V30 1952 H 190.84 -3.50943 -0.230696 0
M  V30 1953 H 190.714 -3.22428 -1.95754 0
M  V30 1954 H 193.101 -2.23284 -1.92947 0
M  V30 1955 H 193.182 -2.55088 -0.190756 0
M  V30 1956 H 192.826 -5.03703 -0.65157 0
M  V30 1957 H 192.756 -4.68868 -2.39729 0
M  V30 1958 H 195.247 -3.52919 -1.35118 0
M  V30 1959 H 195.56 -7.41704 -2.17013 0
M  V30 1960 H 193.905 -6.66839 -1.95832 0
M  V30 1961 H 197.096 -4.40098 -1.59473 0
M  V30 1962 H 197.269 -6.1738 -1.9684 0
M  V30 1963 N 190.675 0.682077 -1.42076 0
M  V30 1964 C 191.605 1.80796 -1.47767 0
M  V30 1965 C 192.586 1.6677 -0.334954 0
M  V30 1966 O 193.771 1.863 -0.548264 0
M  V30 1967 C 190.901 3.19038 -1.37229 0
M  V30 1968 C 189.855 3.47789 -2.49453 0
M  V30 1969 C 189.181 4.8553 -2.23975 0
M  V30 1970 C 190.481 3.45411 -3.91776 0
M  V30 1971 H 192.175 1.7629 -2.41997 0
M  V30 1972 H 189.721 0.846721 -1.16476 0
M  V30 1973 H 191.674 3.97528 -1.39821 0
M  V30 1974 H 190.398 3.24204 -0.394907 0
M  V30 1975 H 189.057 2.71657 -2.46166 0
M  V30 1976 H 188.705 4.87337 -1.24547 0
M  V30 1977 H 188.405 5.0573 -2.99184 0
M  V30 1978 H 189.929 5.66312 -2.28304 0
M  V30 1979 H 191.343 4.13882 -3.96705 0
M  V30 1980 H 189.74 3.77145 -4.66778 0
M  V30 1981 H 190.81 2.44122 -4.18966 0
M  V30 1982 N 192.153 1.28127 0.917671 0
M  V30 1983 C 193.43 1.05761 1.64542 0
M  V30 1984 C 193.81 -0.404344 2.07191 0
M  V30 1985 O 193.158 -1.38963 1.81388 0
M  V30 1986 C 193.368 2.02857 2.83989 0
M  V30 1987 C 194.716 2.32786 3.551 0
M  V30 1988 O 195.74 2.0091 2.94132 0
M  V30 1989 O 194.599 2.87169 4.64969 0
M  V30 1990 H 191.693 0.403916 0.721652 0
M  V30 1991 H 194.239 1.39431 0.967322 0
M  V30 1992 H 193.011 3.01407 2.49538 0
M  V30 1993 H 192.634 1.69809 3.59514 0
M  V30 1994 N 193.631 -1.12557 1.10312 0
M  V30 1995 C 194.908 -1.80363 0.756878 0
M  V30 1996 C 195.288 -1.97067 -0.756824 0
M  V30 1997 O 194.636 -1.54601 -1.68259 0
M  V30 1998 C 194.846 -3.14812 1.50647 0
M  V30 1999 C 196.194 -3.90029 1.67817 0
M  V30 2000 O 197.218 -3.24464 1.46974 0
M  V30 2001 O 196.077 -5.07652 2.02365 0
M  V30 2002 H 193.171 -0.780667 0.272926 0
M  V30 2003 H 195.717 -1.19404 1.20586 0
M  V30 2004 H 194.489 -2.97936 2.53672 0
M  V30 2005 H 194.112 -3.83478 1.05026 0
M  V30 2006 N 195.109 -0.891671 -1.2995 0
M  V30 2007 C 196.337 -0.52866 -2.00032 0
M  V30 2008 C 196.752 0.884574 -1.66795 0
M  V30 2009 O 196.109 1.5827 -0.908669 0
M  V30 2010 C 196.16 -0.701814 -3.54622 0
M  V30 2011 O 195.881 -2.05942 -3.86678 0
M  V30 2012 C 197.382 -0.342683 -4.41973 0
M  V30 2013 H 194.602 -0.203659 -0.639347 0
M  V30 2014 H 197.146 -1.19881 -1.65677 0
M  V30 2015 H 195.301 -0.0789468 -3.8732 0
M  V30 2016 H 195.715 -2.08291 -4.81368 0
M  V30 2017 H 197.189 -0.514709 -5.49595 0
M  V30 2018 H 197.666 0.71975 -4.33262 0
M  V30 2019 H 198.272 -0.942154 -4.14733 0
M  V30 2020 N 196.587 1.43421 -0.653314 0
M  V30 2021 C 197.497 2.34568 0.0388565 0
M  V30 2022 C 198.513 1.53888 0.81207 0
M  V30 2023 O 199.689 1.86539 0.759294 0
M  V30 2024 C 196.754 3.32167 0.993269 0
M  V30 2025 C 195.815 4.28751 0.216977 0
M  V30 2026 C 195.048 5.21688 1.12593 0
M  V30 2027 O 195.271 5.19052 2.36519 0
M  V30 2028 O 194.205 5.98919 0.598284 0
M  V30 2029 H 198.031 2.95251 -0.711386 0
M  V30 2030 H 195.616 1.43564 -0.413502 0
M  V30 2031 H 197.498 3.92183 1.54176 0
M  V30 2032 H 196.173 2.73987 1.72374 0
M  V30 2033 H 195.08 3.72215 -0.375101 0
M  V30 2034 H 196.413 4.89913 -0.473924 0
M  V30 2035 N 198.065 0.39524 1.52563 0
M  V30 2036 C 199.476 -0.0774719 1.86539 0
M  V30 2037 C 199.827 -1.45641 1.31466 0
M  V30 2038 O 198.952 -2.06459 0.648367 0
M  V30 2039 C 199.547 -0.147356 3.38479 0
M  V30 2040 C 198.106 -0.564373 3.72145 0
M  V30 2041 C 197.253 0.269919 2.75983 0
M  V30 2042 H 200.204 0.612876 1.46388 0
M  V30 2043 H 200.225 -0.965343 3.68051 0
M  V30 2044 H 199.737 0.856387 3.78534 0
M  V30 2045 H 197.838 -1.57527 3.37663 0
M  V30 2046 H 197.951 -0.318402 4.78041 0
M  V30 2047 H 196.315 -0.265696 2.5331 0
M  V30 2048 H 197.098 1.27175 3.18875 0
M  V30 2049 N 199.544 -1.57102 0.125237 0
M  V30 2050 C 200.774 -1.99472 -0.538015 0
M  V30 2051 C 201.182 -1.00395 -1.60366 0
M  V30 2052 O 200.525 0.0103875 -1.83697 0
M  V30 2053 C 200.587 -3.38262 -1.21734 0
M  V30 2054 C 200.251 -4.56021 -0.298897 0
M  V30 2055 C 201.248 -5.17817 0.464943 0
M  V30 2056 C 198.933 -5.01869 -0.208149 0
M  V30 2057 C 200.927 -6.23852 1.3072 0
M  V30 2058 C 198.614 -6.07763 0.637736 0
M  V30 2059 C 199.612 -6.68622 1.39403 0
M  V30 2060 O 199.3 -7.7247 2.22586 0
M  V30 2061 H 199.032 -0.659934 -0.146501 0
M  V30 2062 H 201.586 -2.04321 0.210267 0
M  V30 2063 H 199.816 -3.30185 -2.01282 0
M  V30 2064 H 201.505 -3.6488 -1.77813 0
M  V30 2065 H 202.271 -4.83308 0.404741 0
M  V30 2066 H 198.15 -4.54241 -0.786522 0
M  V30 2067 H 201.694 -6.71284 1.898 0
M  V30 2068 H 197.591 -6.41701 0.699309 0
M  V30 2069 H 198.359 -7.89595 2.15596 0
M  V30 2070 N 201.022 0.148545 -1.56898 0
M  V30 2071 C 202.269 0.861418 -1.83264 0
M  V30 2072 C 202.597 1.81239 -0.705883 0
M  V30 2073 O 201.852 1.93305 0.305212 0
M  V30 2074 C 202.151 1.67064 -3.1595 0
M  V30 2075 C 201.817 0.866591 -4.42494 0
M  V30 2076 C 200.479 0.644762 -4.76861 0
M  V30 2077 C 202.831 0.30418 -5.20312 0
M  V30 2078 C 200.159 -0.15021 -5.86508 0
M  V30 2079 C 202.511 -0.477824 -6.30793 0
M  V30 2080 C 201.175 -0.710244 -6.63711 0
M  V30 2081 H 200.445 0.315215 -0.670612 0
M  V30 2082 H 203.092 0.125142 -1.91091 0
M  V30 2083 H 201.397 2.47698 -3.03567 0
M  V30 2084 H 203.094 2.22566 -3.33565 0
M  V30 2085 H 199.684 1.04955 -4.15551 0
M  V30 2086 H 203.868 0.462844 -4.94137 0
M  V30 2087 H 199.124 -0.339796 -6.10455 0
M  V30 2088 H 203.298 -0.92076 -6.90286 0
M  V30 2089 H 200.925 -1.3281 -7.48509 0
M  V30 2090 N 202.5 1.5196 0.417844 0
M  V30 2091 C 203.749 1.6482 1.16264 0
M  V30 2092 C 204.062 0.379886 1.91876 0
M  V30 2093 O 205.268 0.388154 2.68711 0
M  V30 2094 C 203.724 2.91161 2.1155 0
M  V30 2095 C 203.332 4.25068 1.41495 0
M  V30 2096 C 205.076 3.13383 2.86341 0
M  V30 2097 C 202.983 5.42541 2.35379 0
M  V30 2098 H 201.913 0.613954 0.437694 0
M  V30 2099 H 204.564 1.78442 0.427871 0
M  V30 2100 H 202.946 2.71218 2.88543 0
M  V30 2101 H 204.12 4.55463 0.699263 0
M  V30 2102 H 202.435 4.0888 0.787792 0
M  V30 2103 H 205.032 3.98324 3.5671 0
M  V30 2104 H 205.375 2.27256 3.48798 0
M  V30 2105 H 205.908 3.33757 2.1645 0
M  V30 2106 H 202.647 6.30987 1.77582 0
M  V30 2107 H 202.167 5.16497 3.04945 0
M  V30 2108 H 203.846 5.75272 2.96093 0
M  V30 2109 N 203.978 -0.674533 1.42435 0
M  V30 2110 C 205.226 -1.43175 1.42637 0
M  V30 2111 C 205.547 -1.94951 0.0438992 0
M  V30 2112 O 204.817 -1.7308 -0.917607 0
M  V30 2113 H 203.397 -0.531307 0.525092 0
M  V30 2114 H 206.059 -0.797006 1.77859 0
M  V30 2115 H 205.155 -2.28463 2.12629 0
M  V30 2116 N 205.456 -1.28612 -0.910864 0
M  V30 2117 C 206.705 -1.15311 -1.65488 0
M  V30 2118 C 207.018 0.296999 -1.93332 0
M  V30 2119 O 208.224 0.551168 -2.65847 0
M  V30 2120 C 206.68 -2.01599 -2.98137 0
M  V30 2121 C 206.288 -3.51367 -2.7793 0
M  V30 2122 C 208.032 -1.96993 -3.76024 0
M  V30 2123 C 205.939 -4.29797 -4.06237 0
M  V30 2124 H 204.869 -0.42796 -0.620779 0
M  V30 2125 H 207.52 -1.53166 -1.01057 0
M  V30 2126 H 205.902 -1.56603 -3.63719 0
M  V30 2127 H 207.076 -4.0434 -2.21011 0
M  V30 2128 H 205.391 -3.57529 -2.13452 0
M  V30 2129 H 207.988 -2.52856 -4.71135 0
M  V30 2130 H 208.331 -0.94733 -4.05378 0
M  V30 2131 H 208.864 -2.39973 -3.17266 0
M  V30 2132 H 205.603 -5.32648 -3.82055 0
M  V30 2133 H 205.123 -3.81596 -4.62757 0
M  V30 2134 H 206.802 -4.39869 -4.74473 0
M  V30 2135 N 206.934 1.1197 -1.10907 0
M  V30 2136 C 208.181 1.83588 -0.854507 0
M  V30 2137 C 208.509 1.84357 0.6199 0
M  V30 2138 O 207.764 1.28809 1.47332 0
M  V30 2139 C 208.063 3.30749 -1.35425 0
M  V30 2140 C 207.729 3.50146 -2.84093 0
M  V30 2141 C 206.391 3.55148 -3.2469 0
M  V30 2142 C 208.743 3.56857 -3.79872 0
M  V30 2143 C 206.071 3.6441 -4.59806 0
M  V30 2144 C 208.423 3.6765 -5.14797 0
M  V30 2145 C 207.087 3.7091 -5.54961 0
M  V30 2146 H 206.357 0.671795 -0.312686 0
M  V30 2147 H 209.004 1.32091 -1.38652 0
M  V30 2148 H 207.309 3.84703 -0.742361 0
M  V30 2149 H 209.006 3.8464 -1.1337 0
M  V30 2150 H 205.596 3.46919 -2.51685 0
M  V30 2151 H 209.78 3.52258 -3.49611 0
M  V30 2152 H 205.036 3.65208 -4.9034 0
M  V30 2153 H 209.21 3.71786 -5.88853 0
M  V30 2154 H 206.837 3.7784 -6.59652 0
M  V30 2155 N 208.412 0.89855 1.29475 0
M  V30 2156 C 209.652 0.530771 1.97388 0
M  V30 2157 C 210.016 -0.905832 1.69289 0
M  V30 2158 O 211.217 -1.38042 2.30646 0
M  V30 2159 C 209.488 0.81369 3.48014 0
M  V30 2160 S 211.047 0.550048 4.35339 0
M  V30 2161 H 207.865 0.196956 0.683176 0
M  V30 2162 H 210.467 1.16074 1.57312 0
M  V30 2163 H 209.171 1.85749 3.65958 0
M  V30 2164 H 208.702 0.171795 3.93025 0
M  V30 2165 H 210.717 -0.605423 4.92493 0
M  V30 2166 N 209.89 -1.43072 0.660911 0
M  V30 2167 C 211.137 -2.01721 0.177445 0
M  V30 2168 C 211.465 -1.5218 -1.21126 0
M  V30 2169 O 210.72 -0.708659 -1.82419 0
M  V30 2170 C 211.019 -3.57103 0.145563 0
M  V30 2171 C 210.685 -4.26021 1.47705 0
M  V30 2172 C 209.347 -4.44563 1.84165 0
M  V30 2173 C 211.699 -4.64983 2.35458 0
M  V30 2174 C 209.027 -4.99334 3.0803 0
M  V30 2175 C 211.379 -5.21127 3.58622 0
M  V30 2176 C 210.043 -5.37884 3.95268 0
M  V30 2177 H 209.313 -0.73815 0.0649317 0
M  V30 2178 H 211.96 -1.71446 0.853144 0
M  V30 2179 H 210.265 -3.86965 -0.61361 0
M  V30 2180 H 211.962 -4.00248 -0.2455 0
M  V30 2181 H 208.552 -4.11939 1.18339 0
M  V30 2182 H 212.736 -4.50343 2.08579 0
M  V30 2183 H 207.992 -5.10493 3.36462 0
M  V30 2184 H 212.166 -5.50262 4.26831 0
M  V30 2185 H 209.793 -5.80089 4.91325 0
M  V30 2186 N 211.368 -0.403325 -1.52352 0
M  V30 2187 C 212.278 0.432009 -2.30588 0
M  V30 2188 C 213.294 1.05884 -1.38075 0
M  V30 2189 O 214.47 1.06161 -1.71148 0
M  V30 2190 C 211.535 1.53669 -3.10784 0
M  V30 2191 C 210.596 0.933525 -4.19027 0
M  V30 2192 C 209.829 1.98557 -4.9539 0
M  V30 2193 O 210.052 3.20283 -4.71991 0
M  V30 2194 O 208.986 1.59504 -5.80381 0
M  V30 2195 H 212.812 -0.205739 -3.03002 0
M  V30 2196 H 210.397 -0.166675 -1.48467 0
M  V30 2197 H 212.279 2.17814 -3.60742 0
M  V30 2198 H 210.954 2.15915 -2.41169 0
M  V30 2199 H 209.861 0.254954 -3.7323 0
M  V30 2200 H 211.194 0.35508 -4.90918 0
M  V30 2201 N 212.846 1.57033 -0.133567 0
M  V30 2202 C 213.809 2.14897 0.796995 0
M  V30 2203 C 214.809 1.0874 1.18458 0
M  V30 2204 O 215.999 1.34446 1.1077 0
M  V30 2205 C 213.131 2.70112 2.07973 0
M  V30 2206 H 214.324 2.98457 0.293873 0
M  V30 2207 H 211.877 1.55871 0.115787 0
M  V30 2208 H 212.612 1.9018 2.62682 0
M  V30 2209 H 212.397 3.47764 1.81115 0
M  V30 2210 H 213.887 3.14738 2.74462 0
M  V30 2211 N 214.325 -0.140222 1.56975 0
M  V30 2212 C 215.573 -0.850005 1.83356 0
M  V30 2213 C 215.894 -1.81399 0.71551 0
M  V30 2214 O 215.164 -1.94136 -0.262294 0
M  V30 2215 H 213.744 -0.316886 0.676456 0
M  V30 2216 H 216.406 -0.132608 1.94448 0
M  V30 2217 H 215.502 -1.40814 2.78528 0
M  V30 2218 N 215.803 -1.52179 -0.40978 0
M  V30 2219 C 217.052 -1.65434 -1.15388 0
M  V30 2220 C 217.365 -0.390056 -1.91671 0
M  V30 2221 O 218.571 -0.402399 -2.68501 0
M  V30 2222 C 217.027 -2.92279 -2.10003 0
M  V30 2223 C 216.635 -4.25813 -1.39239 0
M  V30 2224 C 218.379 -3.14897 -2.84675 0
M  V30 2225 C 216.286 -5.43782 -2.32498 0
M  V30 2226 H 215.216 -0.616267 -0.434432 0
M  V30 2227 H 217.867 -1.78666 -0.418401 0
M  V30 2228 H 216.249 -2.72744 -2.871 0
M  V30 2229 H 217.423 -4.55828 -0.675099 0
M  V30 2230 H 215.738 -4.09292 -0.766097 0
M  V30 2231 H 218.335 -4.0021 -3.54593 0
M  V30 2232 H 218.678 -2.29103 -3.47588 0
M  V30 2233 H 219.211 -3.34901 -2.14677 0
M  V30 2234 H 215.95 -6.3192 -1.74233 0
M  V30 2235 H 215.47 -5.18106 -3.02201 0
M  V30 2236 H 217.149 -5.76834 -2.93038 0
M  V30 2237 N 217.281 0.66697 -1.42791 0
M  V30 2238 C 218.228 1.7803 -1.4688 0
M  V30 2239 C 219.198 1.6299 -0.319919 0
M  V30 2240 O 220.383 1.83432 -0.525118 0
M  V30 2241 C 217.523 3.1611 -1.38451 0
M  V30 2242 C 216.636 3.42381 -2.63437 0
M  V30 2243 C 215.771 4.70232 -2.47094 0
M  V30 2244 C 214.81 4.89564 -3.67415 0
M  V30 2245 N 213.947 6.08661 -3.49966 0
M  V30 2246 H 218.787 1.7387 -2.42019 0
M  V30 2247 H 216.324 0.84868 -1.20149 0
M  V30 2248 H 218.282 3.95914 -1.31561 0
M  V30 2249 H 216.912 3.19374 -0.469033 0
M  V30 2250 H 215.964 2.56774 -2.80662 0
M  V30 2251 H 217.276 3.52557 -3.52853 0
M  V30 2252 H 216.43 5.5814 -2.37834 0
M  V30 2253 H 215.169 4.62353 -1.5518 0
M  V30 2254 H 214.174 4.00096 -3.77099 0
M  V30 2255 H 215.399 4.99282 -4.6032 0
M  V30 2256 H 213.345 6.0194 -2.60776 0
M  V30 2257 H 213.262 6.19733 -4.32975 0
M  V30 2258 H 214.53 6.99226 -3.44532 0
M  V30 2259 N 218.759 1.29093 0.90403 0
M  V30 2260 C 220.008 1.16187 1.64874 0
M  V30 2261 C 220.321 -0.286742 1.93487 0
M  V30 2262 O 221.527 -0.537062 2.66135 0
M  V30 2263 C 219.983 2.03177 2.97064 0
M  V30 2264 C 219.591 3.52836 2.76062 0
M  V30 2265 C 221.335 1.98984 3.74974 0
M  V30 2266 C 219.242 4.31945 4.03952 0
M  V30 2267 H 218.172 0.431246 0.618501 0
M  V30 2268 H 220.823 1.53699 1.00243 0
M  V30 2269 H 219.205 1.5853 3.62883 0
M  V30 2270 H 220.379 4.05507 2.18863 0
M  V30 2271 H 218.694 3.58656 2.11553 0
M  V30 2272 H 221.291 2.55351 4.69787 0
M  V30 2273 H 221.634 0.968815 4.0487 0
M  V30 2274 H 222.167 2.41652 3.15989 0
M  V30 2275 H 218.906 5.34667 3.79225 0
M  V30 2276 H 218.426 3.84045 4.60727 0
M  V30 2277 H 220.105 4.42379 4.72133 0
M  V30 2278 N 220.237 -1.11381 1.11499 0
M  V30 2279 C 221.486 -1.82494 0.858993 0
M  V30 2280 C 221.799 -1.85605 -0.617278 0
M  V30 2281 O 223.005 -2.52824 -0.989552 0
M  V30 2282 C 221.461 -3.27745 1.48699 0
M  V30 2283 C 221.069 -3.32961 2.99735 0
M  V30 2284 C 222.813 -4.03754 1.31085 0
M  V30 2285 C 220.72 -4.72612 3.55516 0
M  V30 2286 H 219.65 -0.683802 0.317696 0
M  V30 2287 H 222.301 -1.25331 1.34031 0
M  V30 2288 H 220.683 -3.84844 0.933339 0
M  V30 2289 H 221.857 -2.85741 3.61509 0
M  V30 2290 H 220.172 -2.70433 3.16631 0
M  V30 2291 H 222.769 -5.06891 1.70192 0
M  V30 2292 H 223.112 -4.15527 0.253496 0
M  V30 2293 H 223.645 -3.53043 1.83318 0
M  V30 2294 H 220.384 -4.66036 4.60967 0
M  V30 2295 H 219.904 -5.2024 2.98513 0
M  V30 2296 H 221.583 -5.4157 3.53992 0
M  V30 2297 N 221.715 -0.905404 -1.28997 0
M  V30 2298 C 222.678 -0.392253 -2.25819 0
M  V30 2299 C 223.678 0.476753 -1.5357 0
M  V30 2300 O 224.868 0.280994 -1.71919 0
M  V30 2301 C 222 0.438588 -3.38067 0
M  V30 2302 H 223.193 -1.24743 -2.72725 0
M  V30 2303 H 220.746 -0.684051 -1.40536 0
M  V30 2304 H 221.481 1.31352 -2.96508 0
M  V30 2305 H 221.266 -0.184167 -3.91667 0
M  V30 2306 H 222.756 0.78873 -4.10084 0
M  V30 2307 N 223.193 1.4272 -0.668489 0
M  V30 2308 C 224.123 2.335 -0.000100175 0
M  V30 2309 C 225.104 1.50328 0.795964 0
M  V30 2310 O 226.289 1.78949 0.754385 0
M  V30 2311 C 223.419 3.33874 0.956302 0
M  V30 2312 C 222.373 4.27152 0.269278 0
M  V30 2313 C 221.699 5.17684 1.33818 0
M  V30 2314 C 222.999 5.15373 -0.847805 0
M  V30 2315 H 224.693 2.89639 -0.758244 0
M  V30 2316 H 222.239 1.39269 -0.366079 0
M  V30 2317 H 224.192 3.9629 1.43292 0
M  V30 2318 H 222.916 2.76025 1.74579 0
M  V30 2319 H 221.575 3.66123 -0.187042 0
M  V30 2320 H 221.223 4.56165 2.1195 0
M  V30 2321 H 220.923 5.80918 0.883659 0
M  V30 2322 H 222.447 5.82974 1.81586 0
M  V30 2323 H 223.861 5.7151 -0.452681 0
M  V30 2324 H 222.258 5.87407 -1.22773 0
M  V30 2325 H 223.328 4.5415 -1.69929 0
M  V30 2326 N 224.671 0.411399 1.52136 0
M  V30 2327 C 225.919 -0.163322 2.01439 0
M  V30 2328 C 226.24 -1.45453 1.29879 0
M  V30 2329 O 225.51 -1.91225 0.4254 0
M  V30 2330 H 224.09 -0.0633447 0.744309 0
M  V30 2331 H 226.752 0.548161 1.87033 0
M  V30 2332 H 225.848 -0.357817 3.10042 0
M  V30 2333 N 226.149 -1.5696 0.141893 0
M  V30 2334 C 227.396 -1.9596 -0.510492 0
M  V30 2335 C 227.724 -1.02648 -1.65208 0
M  V30 2336 O 226.979 -0.0546947 -1.95624 0
M  V30 2337 C 227.278 -3.41242 -1.06249 0
M  V30 2338 C 226.944 -4.50882 -0.0398791 0
M  V30 2339 C 225.606 -4.80595 0.241247 0
M  V30 2340 C 227.958 -5.17058 0.65578 0
M  V30 2341 C 225.286 -5.73792 1.22393 0
M  V30 2342 C 227.638 -6.11313 1.62724 0
M  V30 2343 C 226.302 -6.39407 1.91612 0
M  V30 2344 H 225.572 -0.717068 -0.186802 0
M  V30 2345 H 228.219 -1.90142 0.227643 0
M  V30 2346 H 226.524 -3.43866 -1.87785 0
M  V30 2347 H 228.221 -3.68742 -1.57576 0
M  V30 2348 H 224.811 -4.27754 -0.269174 0
M  V30 2349 H 228.995 -4.94239 0.451779 0
M  V30 2350 H 224.251 -5.93853 1.45424 0
M  V30 2351 H 228.425 -6.61668 2.17183 0
M  V30 2352 H 226.052 -7.11427 2.6791 0
M  V30 2353 N 227.627 0.131896 -1.57047 0
M  V30 2354 C 228.873 0.843179 -1.84441 0
M  V30 2355 C 229.206 1.80129 -0.725749 0
M  V30 2356 O 228.481 1.92624 0.269469 0
M  V30 2357 C 228.764 1.60442 -3.22382 0
M  V30 2358 C 228.617 0.666782 -4.4483 0
M  V30 2359 C 229.936 2.56354 -3.5773 0
M  V30 2360 H 227.055 0.305081 -0.670891 0
M  V30 2361 H 229.697 0.107839 -1.89694 0
M  V30 2362 H 227.847 2.23128 -3.18035 0
M  V30 2363 H 229.519 0.0497646 -4.61273 0
M  V30 2364 H 227.762 -0.022609 -4.33794 0
M  V30 2365 H 228.433 1.23579 -5.37989 0
M  V30 2366 H 230.909 2.0378 -3.62785 0
M  V30 2367 H 229.785 3.06657 -4.5525 0
M  V30 2368 H 230.046 3.38419 -2.84473 0
M  V30 2369 N 229.106 1.52395 0.401703 0
M  V30 2370 C 230.353 1.66817 1.14796 0
M  V30 2371 C 230.681 0.401772 1.90305 0
M  V30 2372 O 229.936 -0.615487 1.85769 0
M  V30 2373 C 230.235 2.84578 2.16217 0
M  V30 2374 C 229.901 4.22513 1.5746 0
M  V30 2375 C 228.563 4.60029 1.41161 0
M  V30 2376 C 230.915 5.0844 1.14622 0
M  V30 2377 C 228.243 5.81144 0.80552 0
M  V30 2378 C 230.595 6.30167 0.55428 0
M  V30 2379 C 229.259 6.66426 0.378482 0
M  V30 2380 H 228.529 0.610428 0.420069 0
M  V30 2381 H 231.176 1.86512 0.434212 0
M  V30 2382 H 229.481 2.59248 2.93764 0
M  V30 2383 H 231.178 2.92933 2.73845 0
M  V30 2384 H 227.768 3.92953 1.71132 0
M  V30 2385 H 231.952 4.80034 1.26021 0
M  V30 2386 H 227.208 6.07855 0.657399 0
M  V30 2387 H 231.382 6.96071 0.213983 0
M  V30 2388 H 229.009 7.60143 -0.0932606 0
M  V30 2389 N 230.584 -0.659388 1.43143 0
M  V30 2390 C 231.534 -1.7655 1.44271 0
M  V30 2391 C 232.518 -1.57847 0.311961 0
M  V30 2392 O 233.71 -1.68064 0.555306 0
M  V30 2393 C 230.839 -3.15104 1.36251 0
M  V30 2394 C 229.925 -3.39377 2.54331 0
M  V30 2395 N 230.316 -3.34153 3.79704 0
M  V30 2396 C 228.614 -3.70072 2.48922 0
M  V30 2397 C 229.315 -3.58337 4.58225 0
M  V30 2398 N 228.291 -3.79851 3.88863 0
M  V30 2399 H 232.093 -1.70928 2.39083 0
M  V30 2400 H 229.607 -0.860823 1.37708 0
M  V30 2401 H 231.604 -3.94389 1.35141 0
M  V30 2402 H 230.264 -3.21913 0.424531 0
M  V30 2403 H 231.275 -3.13704 4.1208 0
M  V30 2404 H 227.952 -3.84034 1.63781 0
M  V30 2405 H 229.342 -3.60129 5.67236 0
M  V30 2406 N 232.062 -1.29571 -0.897171 0
M  V30 2407 C 233.009 -1.14916 -2.00158 0
M  V30 2408 C 233.979 -0.0418149 -1.66047 0
M  V30 2409 O 235.164 -0.209793 -1.89643 0
M  V30 2410 C 232.304 -0.834307 -3.34863 0
M  V30 2411 C 231.417 -2.02234 -3.8174 0
M  V30 2412 C 230.552 -1.64664 -5.05034 0
M  V30 2413 C 229.591 -2.80033 -5.44286 0
M  V30 2414 N 228.728 -2.42843 -6.58765 0
M  V30 2415 H 233.568 -2.09403 -2.12025 0
M  V30 2416 H 231.105 -1.042 -1.0383 0
M  V30 2417 H 233.063 -0.632436 -4.12379 0
M  V30 2418 H 231.693 0.0736656 -3.22716 0
M  V30 2419 H 230.745 -2.33583 -3.00238 0
M  V30 2420 H 232.057 -2.88673 -4.06779 0
M  V30 2421 H 231.211 -1.4078 -5.9014 0
M  V30 2422 H 229.95 -0.753766 -4.8184 0
M  V30 2423 H 228.955 -3.04596 -4.57713 0
M  V30 2424 H 230.18 -3.69989 -5.6946 0
M  V30 2425 H 228.126 -1.56046 -6.3717 0
M  V30 2426 H 228.043 -3.22815 -6.83613 0
M  V30 2427 H 229.311 -2.22285 -7.47134 0
M  V30 2428 N 233.54 1.10788 -1.12088 0
M  V30 2429 C 234.788 1.8231 -0.872205 0
M  V30 2430 C 235.109 1.85419 0.603709 0
M  V30 2431 O 234.379 1.32963 1.43867 0
M  V30 2432 H 232.959 0.675137 -0.319686 0
M  V30 2433 H 235.621 1.34068 -1.41463 0
M  V30 2434 H 234.717 2.85955 -1.25045 0
M  V30 2435 N 235.018 0.912232 1.28515 0
M  V30 2436 C 236.243 0.559774 1.99703 0
M  V30 2437 C 236.668 -0.851393 1.67729 0
M  V30 2438 O 236.026 -1.56875 0.908834 0
M  V30 2439 C 236.074 0.773874 3.52198 0
M  V30 2440 O 235.178 -0.167842 4.12058 0
M  V30 2441 H 234.519 0.21723 0.627461 0
M  V30 2442 H 237.049 1.22725 1.63706 0
M  V30 2443 H 237.059 0.683386 4.02236 0
M  V30 2444 H 235.734 1.80261 3.74805 0
M  V30 2445 H 234.311 -0.0287509 3.72889 0
M  V30 2446 N 236.496 -1.42363 0.676048 0
M  V30 2447 C 237.726 -2.05561 0.206967 0
M  V30 2448 C 238.134 -1.50887 -1.14148 0
M  V30 2449 O 237.477 -0.643933 -1.72044 0
M  V30 2450 C 237.539 -3.5944 0.0659508 0
M  V30 2451 C 237.203 -4.36812 1.34331 0
M  V30 2452 C 238.2 -4.67383 2.27704 0
M  V30 2453 C 235.885 -4.76429 1.59125 0
M  V30 2454 C 237.879 -5.36509 3.44147 0
M  V30 2455 C 235.566 -5.45294 2.75857 0
M  V30 2456 C 236.564 -5.75259 3.68193 0
M  V30 2457 O 236.252 -6.42712 4.82883 0
M  V30 2458 H 235.984 -0.668872 0.0979084 0
M  V30 2459 H 238.538 -1.83467 0.923531 0
M  V30 2460 H 236.768 -3.80197 -0.706204 0
M  V30 2461 H 238.457 -4.0427 -0.363418 0
M  V30 2462 H 239.223 -4.37275 2.09799 0
M  V30 2463 H 235.102 -4.52498 0.881258 0
M  V30 2464 H 238.646 -5.59814 4.16238 0
M  V30 2465 H 234.543 -5.7482 2.93688 0
M  V30 2466 H 235.311 -6.61204 4.82444 0
M  V30 2467 N 237.974 -0.419461 -1.51915 0
M  V30 2468 C 238.904 0.391813 -2.30189 0
M  V30 2469 C 239.885 1.03699 -1.34836 0
M  V30 2470 O 241.07 1.04403 -1.63748 0
M  V30 2471 C 238.2 1.50312 -3.13087 0
M  V30 2472 C 237.154 0.9824 -4.16573 0
M  V30 2473 C 236.48 2.18809 -4.8788 0
M  V30 2474 C 237.78 0.0292356 -5.22292 0
M  V30 2475 H 239.474 -0.26135 -2.98257 0
M  V30 2476 H 237.02 -0.127134 -1.43438 0
M  V30 2477 H 238.973 2.07773 -3.66617 0
M  V30 2478 H 237.697 2.18431 -2.42807 0
M  V30 2479 H 236.356 0.430119 -3.64068 0
M  V30 2480 H 236.004 2.85507 -4.14119 0
M  V30 2481 H 235.704 1.84615 -5.57845 0
M  V30 2482 H 237.228 2.76858 -5.44226 0
M  V30 2483 H 238.642 0.512976 -5.71 0
M  V30 2484 H 237.039 -0.2244 -5.9968 0
M  V30 2485 H 238.109 -0.912931 -4.76228 0
M  V30 2486 N 239.452 1.56882 -0.150215 0
M  V30 2487 C 240.868 1.58263 0.20617 0
M  V30 2488 C 241.068 1.16464 1.64434 0
M  V30 2489 O 240.124 0.866422 2.3717 0
M  V30 2490 C 241.437 3.00649 -0.0555025 0
M  V30 2491 C 242.985 3.12999 0.00795388 0
M  V30 2492 C 243.46 4.5744 -0.226429 0
M  V30 2493 N 244.951 4.62875 -0.173469 0
M  V30 2494 C 245.686 5.72454 -0.329288 0
M  V30 2495 N 245.182 6.90669 -0.543005 0
M  V30 2496 N 246.975 5.61467 -0.266666 0
M  V30 2497 H 239.126 1.82345 -1.08922 0
M  V30 2498 H 241.389 0.844149 -0.431413 0
M  V30 2499 H 241.095 3.3563 -1.05096 0
M  V30 2500 H 240.969 3.71337 0.66246 0
M  V30 2501 H 243.356 2.77857 0.993966 0
M  V30 2502 H 243.437 2.4479 -0.742388 0
M  V30 2503 H 243.081 4.93287 -1.20956 0
M  V30 2504 H 243.011 5.2378 0.544274 0
M  V30 2505 H 245.502 3.77898 -0.0130709 0
M  V30 2506 H 245.815 7.70045 -0.651922 0
M  V30 2507 H 244.16 6.92581 -0.579366 0
M  V30 2508 H 247.351 4.67992 -0.100441 0
M  V30 2509 H 247.524 6.46816 -0.391535 0
M  V30 2510 N 240.93 -0.123565 1.57115 0
M  V30 2511 C 241.878 -1.17082 2.00984 0
M  V30 2512 C 242.872 -1.43136 0.906009 0
M  V30 2513 O 244.078 -1.43152 1.09121 0
M  V30 2514 H 240.453 -0.394653 0.64012 0
M  V30 2515 H 242.424 -0.774292 2.88179 0
M  V30 2516 C 241.173 -2.49057 2.42623 0
M  V30 2517 H 240.496 -2.29846 3.27125 0
M  V30 2518 H 241.936 -3.20906 2.7712 0
M  V30 2519 C 240.395 -3.11305 1.28805 0
M  V30 2520 O 240.925 -3.97171 0.60153 0
M  V30 2521 N 239.131 -2.71111 1.04628 0
M  V30 2522 H 238.678 -2.01382 1.60634 0
M  V30 2523 H 238.636 -3.1309 0.286685 0
M  V30 2524 N 242.408 -1.52605 -0.393616 0
M  V30 2525 C 243.656 -1.67093 -1.13685 0
M  V30 2526 C 243.977 -0.411011 -1.90619 0
M  V30 2527 O 243.247 0.574491 -1.87287 0
M  V30 2528 H 241.827 -0.615923 -0.422668 0
M  V30 2529 H 244.489 -1.89704 -0.447039 0
M  V30 2530 H 243.585 -2.51922 -1.84232 0
M  V30 2531 N 243.887 0.651787 -1.4349 0
M  V30 2532 C 245.133 1.4121 -1.46395 0
M  V30 2533 C 245.488 1.92202 -0.087366 0
M  V30 2534 O 244.781 1.69452 0.894231 0
M  V30 2535 C 244.975 2.60914 -2.44251 0
M  V30 2536 C 244.804 2.21639 -3.91288 0
M  V30 2537 C 243.574 2.09897 -4.59643 0
M  V30 2538 C 245.772 1.81835 -4.81083 0
M  V30 2539 N 243.754 1.63967 -5.91598 0
M  V30 2540 C 245.125 1.46998 -6.02322 0
M  V30 2541 C 247.18 1.69031 -4.6833 0
M  V30 2542 C 245.883 1.00638 -7.12225 0
M  V30 2543 C 247.909 1.24077 -5.78238 0
M  V30 2544 C 247.271 0.901772 -6.98604 0
M  V30 2545 H 243.37 0.512322 -0.590805 0
M  V30 2546 H 245.954 0.74989 -1.7968 0
M  V30 2547 H 244.125 3.24792 -2.1299 0
M  V30 2548 H 245.857 3.27622 -2.37584 0
M  V30 2549 H 242.612 2.297 -4.14168 0
M  V30 2550 H 243.036 1.43359 -6.61647 0
M  V30 2551 H 247.678 1.93878 -3.75727 0
M  V30 2552 H 245.396 0.745399 -8.04655 0
M  V30 2553 H 248.982 1.14657 -5.7039 0
M  V30 2554 H 247.862 0.559226 -7.82203 0
M  V30 2555 N 245.365 1.30045 0.890287 0
M  V30 2556 C 246.313 1.15873 2.01683 0
M  V30 2557 C 247.307 0.0719403 1.69247 0
M  V30 2558 O 248.513 0.232414 1.78493 0
M  V30 2559 H 244.888 0.358203 0.661207 0
M  V30 2560 H 246.859 2.11229 2.10772 0
M  V30 2561 C 245.608 0.861842 3.36849 0
M  V30 2562 H 244.931 1.69016 3.62317 0
M  V30 2563 H 246.371 0.802762 4.16331 0
M  V30 2564 C 244.83 -0.435132 3.34078 0
M  V30 2565 O 245.36 -1.4583 3.74295 0
M  V30 2566 N 243.566 -0.444377 2.87182 0
M  V30 2567 H 243.113 0.388723 2.5465 0
M  V30 2568 H 243.071 -1.31213 2.85711 0
M  V30 2569 N 246.843 -1.10192 1.12674 0
M  V30 2570 C 248.089 -1.82475 0.884915 0
M  V30 2571 C 248.422 -1.85093 -0.58773 0
M  V30 2572 O 247.697 -1.3134 -1.43457 0
M  V30 2573 C 247.98 -3.29018 1.46353 0
M  V30 2574 C 247.833 -3.34718 3.00473 0
M  V30 2575 C 249.152 -4.25473 1.12519 0
M  V30 2576 H 246.271 -0.662492 0.322915 0
M  V30 2577 H 248.913 -1.2913 1.39375 0
M  V30 2578 H 247.063 -3.74576 1.03077 0
M  V30 2579 H 248.735 -2.97622 3.52447 0
M  V30 2580 H 246.978 -2.74541 3.35872 0
M  V30 2581 H 247.649 -4.37918 3.36053 0
M  V30 2582 H 250.125 -3.88161 1.499 0
M  V30 2583 H 249.001 -5.26365 1.55663 0
M  V30 2584 H 249.262 -4.42084 0.0377407 0
M  V30 2585 N 248.321 -0.919034 -1.28029 0
M  V30 2586 C 249.254 -0.355887 -2.25408 0
M  V30 2587 C 250.232 0.542874 -1.5327 0
M  V30 2588 O 251.416 0.485338 -1.82145 0
M  V30 2589 C 248.543 0.490759 -3.35126 0
M  V30 2590 C 247.589 -0.343358 -4.25116 0
M  V30 2591 S 248.422 -1.75344 -5.05979 0
M  V30 2592 C 249.578 -0.914244 -6.19187 0
M  V30 2593 H 249.811 -1.18123 -2.72826 0
M  V30 2594 H 247.344 -0.720636 -1.36551 0
M  V30 2595 H 249.302 0.973404 -3.98792 0
M  V30 2596 H 247.963 1.29054 -2.86363 0
M  V30 2597 H 247.156 0.304266 -5.03081 0
M  V30 2598 H 246.758 -0.759851 -3.662 0
M  V30 2599 H 249.05 -0.146282 -6.77342 0
M  V30 2600 H 249.993 -1.66661 -6.88208 0
M  V30 2601 H 250.401 -0.460082 -5.62622 0
M  V30 2602 N 249.799 1.42003 -0.683588 0
M  V30 2603 C 251.076 1.95112 -0.138075 0
M  V30 2604 C 251.456 1.62359 1.34918 0
M  V30 2605 O 250.804 0.924311 2.08971 0
M  V30 2606 C 251.014 3.46505 -0.416581 0
M  V30 2607 C 252.362 4.23254 -0.337834 0
M  V30 2608 O 253.386 3.54468 -0.35082 0
M  V30 2609 O 252.245 5.45743 -0.287596 0
M  V30 2610 H 249.339 0.826961 -0.00797996 0
M  V30 2611 H 251.885 1.51784 -0.758924 0
M  V30 2612 H 250.657 3.63582 -1.4465 0
M  V30 2613 H 250.28 3.969 0.235839 0
M  V30 2614 N 251.277 0.427512 1.51691 0
M  V30 2615 C 252.524 -0.142229 2.02 0
M  V30 2616 C 252.852 -1.43566 1.31221 0
M  V30 2617 O 252.107 -1.91298 0.412744 0
M  V30 2618 C 252.406 -0.418249 3.54944 0
M  V30 2619 C 252.072 0.788187 4.43958 0
M  V30 2620 C 250.734 1.11906 4.68007 0
M  V30 2621 C 253.086 1.59347 4.96244 0
M  V30 2622 C 250.414 2.25608 5.41588 0
M  V30 2623 C 252.766 2.7214 5.71072 0
M  V30 2624 C 251.43 3.05692 5.93387 0
M  V30 2625 H 250.7 -0.0520451 0.73917 0
M  V30 2626 H 253.347 0.572697 1.82736 0
M  V30 2627 H 251.652 -1.21496 3.72486 0
M  V30 2628 H 253.349 -0.872339 3.91397 0
M  V30 2629 H 249.939 0.520344 4.2543 0
M  V30 2630 H 254.123 1.35106 4.77556 0
M  V30 2631 H 249.379 2.51929 5.57083 0
M  V30 2632 H 253.553 3.34914 6.10578 0
M  V30 2633 H 251.18 3.9391 6.50184 0
M  V30 2634 N 252.755 -1.56801 0.158532 0
M  V30 2635 C 254.001 -1.96781 -0.490405 0
M  V30 2636 C 254.334 -1.04397 -1.63753 0
M  V30 2637 O 253.609 -0.0885805 -1.94298 0
M  V30 2638 C 253.892 -3.4635 -0.985594 0
M  V30 2639 C 253.745 -4.49512 0.160824 0
M  V30 2640 C 255.064 -3.98697 -1.86355 0
M  V30 2641 H 252.183 -0.715482 -0.176788 0
M  V30 2642 H 254.825 -1.88451 0.242088 0
M  V30 2643 H 252.975 -3.53579 -1.60978 0
M  V30 2644 H 254.647 -4.54353 0.797537 0
M  V30 2645 H 252.89 -4.26013 0.818256 0
M  V30 2646 H 253.561 -5.51531 -0.227569 0
M  V30 2647 H 256.037 -3.94019 -1.33746 0
M  V30 2648 H 254.913 -5.03792 -2.17909 0
M  V30 2649 H 255.174 -3.41744 -2.8047 0
M  V30 2650 N 254.233 0.115231 -1.57178 0
M  V30 2651 C 255.479 0.82357 -1.85325 0
M  V30 2652 C 255.812 1.79349 -0.744814 0
M  V30 2653 O 255.087 1.92899 0.249024 0
M  V30 2654 C 255.37 1.57014 -3.24066 0
M  V30 2655 C 255.223 0.619565 -4.45513 0
M  V30 2656 C 256.542 2.52545 -3.60429 0
M  V30 2657 H 253.661 0.297948 -0.674089 0
M  V30 2658 H 256.303 0.0877138 -1.89797 0
M  V30 2659 H 254.453 2.19742 -3.20383 0
M  V30 2660 H 256.125 0.000837639 -4.613 0
M  V30 2661 H 254.368 -0.0686174 -4.33746 0
M  V30 2662 H 255.039 1.17866 -5.3927 0
M  V30 2663 H 257.515 1.9992 -3.64926 0
M  V30 2664 H 256.391 3.01811 -4.58477 0
M  V30 2665 H 256.652 3.35383 -2.88047 0
M  V30 2666 N 255.711 1.52812 0.385517 0
M  V30 2667 C 256.957 1.68275 1.13188 0
M  V30 2668 C 257.29 0.423179 1.89533 0
M  V30 2669 O 256.565 -0.579113 1.85679 0
M  V30 2670 C 256.848 2.92001 2.1073 0
M  V30 2671 C 256.701 4.28067 1.38125 0
M  V30 2672 C 258.02 3.11283 3.11113 0
M  V30 2673 H 255.139 0.612352 0.410115 0
M  V30 2674 H 257.781 1.85415 0.414869 0
M  V30 2675 H 255.931 2.77519 2.71874 0
M  V30 2676 H 257.603 4.54324 0.799187 0
M  V30 2677 H 255.846 4.28388 0.683092 0
M  V30 2678 H 256.517 5.10733 2.09417 0
M  V30 2679 H 258.993 3.2482 2.6006 0
M  V30 2680 H 257.869 3.99325 3.76605 0
M  V30 2681 H 258.13 2.25656 3.80173 0
M  V30 2682 N 257.189 -0.644168 1.43834 0
M  V30 2683 C 258.119 -1.76814 1.52509 0
M  V30 2684 C 259.1 -1.65823 0.379052 0
M  V30 2685 O 260.285 -1.84781 0.597466 0
M  V30 2686 C 257.415 -3.15288 1.4564 0
M  V30 2687 C 256.369 -3.41053 2.58586 0
M  V30 2688 C 255.695 -4.79421 2.36769 0
M  V30 2689 C 256.995 -3.34902 4.00797 0
M  V30 2690 H 258.689 -1.69812 2.46586 0
M  V30 2691 H 256.235 -0.815542 1.1868 0
M  V30 2692 H 258.188 -3.93681 1.50311 0
M  V30 2693 H 256.912 -3.23043 0.480725 0
M  V30 2694 H 255.571 -2.65035 2.53282 0
M  V30 2695 H 255.219 -4.83863 1.37424 0
M  V30 2696 H 254.919 -4.9762 3.12487 0
M  V30 2697 H 256.443 -5.6006 2.43238 0
M  V30 2698 H 257.857 -4.03218 4.07539 0
M  V30 2699 H 256.254 -3.64637 4.76613 0
M  V30 2700 H 257.324 -2.32928 4.25291 0
M  V30 2701 N 258.668 -1.30515 -0.883378 0
M  V30 2702 C 259.896 -1.22359 -1.66841 0
M  V30 2703 C 260.311 0.213296 -1.87591 0
M  V30 2704 O 259.668 1.14075 -1.42454 0
M  V30 2705 C 259.719 -1.95011 -3.04389 0
M  V30 2706 O 259.44 -3.3309 -2.84575 0
M  V30 2707 C 260.941 -1.93532 -3.98824 0
M  V30 2708 H 258.161 -0.423371 -0.520575 0
M  V30 2709 H 260.705 -1.72167 -1.10357 0
M  V30 2710 H 258.86 -1.48997 -3.57601 0
M  V30 2711 H 259.274 -3.69907 -3.71846 0
M  V30 2712 H 260.748 -2.48902 -4.92699 0
M  V30 2713 H 261.225 -0.914627 -4.29571 0
M  V30 2714 H 261.831 -2.39364 -3.51547 0
M  V30 2715 N 260.146 1.09593 -1.13257 0
M  V30 2716 C 261.394 1.81375 -0.891492 0
M  V30 2717 C 261.715 1.86049 0.584009 0
M  V30 2718 O 260.985 1.34481 1.42449 0
M  V30 2719 H 259.565 0.671708 -0.326828 0
M  V30 2720 H 262.227 1.3256 -1.42877 0
M  V30 2721 H 261.323 2.84612 -1.28071 0
M  V30 2722 N 261.624 0.925811 1.2754 0
M  V30 2723 C 262.873 0.561084 1.93739 0
M  V30 2724 C 263.186 -0.901685 1.73577 0
M  V30 2725 O 264.392 -1.37511 2.34101 0
M  V30 2726 C 262.848 0.952668 3.47062 0
M  V30 2727 C 262.456 2.43599 3.75983 0
M  V30 2728 C 264.2 0.659103 4.19352 0
M  V30 2729 C 262.107 2.76707 5.22673 0
M  V30 2730 H 261.037 0.206122 0.725279 0
M  V30 2731 H 263.688 1.12637 1.44863 0
M  V30 2732 H 262.07 0.316053 3.94737 0
M  V30 2733 H 263.244 3.12035 3.39073 0
M  V30 2734 H 261.559 2.70125 3.16893 0
M  V30 2735 H 264.156 0.882985 5.27359 0
M  V30 2736 H 264.499 -0.403607 4.14339 0
M  V30 2737 H 265.032 1.25473 3.77494 0
M  V30 2738 H 261.771 3.8188 5.32774 0
M  V30 2739 H 261.291 2.12919 5.60737 0
M  V30 2740 H 262.97 2.6435 5.90532 0
M  V30 2741 N 263.102 -1.41638 0.69111 0
M  V30 2742 C 264.032 -2.3347 0.037248 0
M  V30 2743 C 265.013 -1.51575 -0.771947 0
M  V30 2744 O 266.198 -1.80126 -0.72582 0
M  V30 2745 C 263.328 -3.35354 -0.903064 0
M  V30 2746 C 262.282 -4.27526 -0.201288 0
M  V30 2747 C 261.608 -5.19747 -1.25565 0
M  V30 2748 C 262.908 -5.13959 0.929689 0
M  V30 2749 H 264.602 -2.88397 0.804227 0
M  V30 2750 H 262.148 -1.38669 0.388189 0
M  V30 2751 H 264.101 -3.98519 -1.36969 0
M  V30 2752 H 262.825 -2.78767 -1.70166 0
M  V30 2753 H 261.484 -3.65779 0.245265 0
M  V30 2754 H 261.132 -4.59479 -2.04666 0
M  V30 2755 H 260.832 -5.8225 -0.791128 0
M  V30 2756 H 262.356 -5.85789 -1.72288 0
M  V30 2757 H 263.77 -5.70718 0.543546 0
M  V30 2758 H 262.167 -5.85379 1.32103 0
M  V30 2759 H 263.237 -4.51389 1.77133 0
M  V30 2760 N 264.58 -0.43555 -1.51462 0
M  V30 2761 C 265.543 0.365137 -2.26273 0
M  V30 2762 C 266.543 0.951227 -1.29647 0
M  V30 2763 O 267.733 0.825958 -1.53374 0
M  V30 2764 C 264.865 1.51645 -3.05314 0
M  V30 2765 H 266.058 -0.290474 -2.9849 0
M  V30 2766 H 263.611 -0.188676 -1.55157 0
M  V30 2767 H 264.346 2.20816 -2.3751 0
M  V30 2768 H 264.131 1.10238 -3.76284 0
M  V30 2769 H 265.621 2.08218 -3.61987 0
M  V30 2770 N 266.058 1.56714 -0.166846 0
M  V30 2771 C 267.286 2.0112 0.485644 0
M  V30 2772 C 267.701 1.04705 1.57106 0
M  V30 2773 O 267.058 0.0471923 1.82439 0
M  V30 2774 C 267.109 3.45361 1.06808 0
M  V30 2775 O 266.83 4.38092 0.0259995 0
M  V30 2776 C 268.331 4.05145 1.79924 0
M  V30 2777 H 265.551 0.65931 0.124704 0
M  V30 2778 H 268.095 2.02746 -0.267262 0
M  V30 2779 H 266.25 3.44524 1.7715 0
M  V30 2780 H 266.664 5.22519 0.455398 0
M  V30 2781 H 268.138 5.08009 2.15942 0
M  V30 2782 H 268.615 3.46982 2.69258 0
M  V30 2783 H 269.221 4.09672 1.14234 0
M  V30 2784 N 267.536 -0.106894 1.57237 0
M  V30 2785 C 268.499 -1.11466 2.0027 0
M  V30 2786 C 269.499 -1.33623 0.894519 0
M  V30 2787 O 270.689 -1.29935 1.16028 0
M  V30 2788 C 267.821 -2.46646 2.35327 0
M  V30 2789 H 269.014 -0.744516 2.90512 0
M  V30 2790 H 266.567 -0.351576 1.52295 0
M  V30 2791 H 267.302 -2.88558 1.48003 0
M  V30 2792 H 267.087 -2.31915 3.16161 0
M  V30 2793 H 268.577 -3.19151 2.69318 0
M  V30 2794 N 269.014 -1.53014 -0.377408 0
M  V30 2795 C 270.262 -1.6829 -1.11906 0
M  V30 2796 C 270.583 -0.431206 -1.90173 0
M  V30 2797 O 269.853 0.554595 -1.87886 0
M  V30 2798 H 268.433 -0.620371 -0.416112 0
M  V30 2799 H 271.095 -1.90167 -0.426893 0
M  V30 2800 H 270.191 -2.53862 -1.8155 0
M  V30 2801 N 270.492 0.636531 -1.44174 0
M  V30 2802 C 271.72 1.42353 -1.50144 0
M  V30 2803 C 272.135 1.88389 -0.124575 0
M  V30 2804 O 271.492 1.6051 0.868489 0
M  V30 2805 C 271.543 2.64744 -2.46156 0
M  V30 2806 O 271.264 2.20629 -3.7849 0
M  V30 2807 C 272.765 3.57929 -2.61537 0
M  V30 2808 H 269.985 0.436752 -0.5094 0
M  V30 2809 H 272.529 0.778933 -1.89084 0
M  V30 2810 H 270.684 3.25307 -2.10366 0
M  V30 2811 H 271.098 2.99938 -4.30276 0
M  V30 2812 H 272.572 4.40428 -3.32757 0
M  V30 2813 H 273.049 4.06382 -1.66585 0
M  V30 2814 H 273.655 3.03238 -2.98206 0
M  V30 2815 N 271.97 1.30982 0.876444 0
M  V30 2816 C 273.247 1.10942 1.61094 0
M  V30 2817 C 273.627 -0.338223 2.08373 0
M  V30 2818 O 272.975 -1.33122 1.85717 0
M  V30 2819 C 273.185 2.11789 2.77392 0
M  V30 2820 C 274.533 2.43965 3.47514 0
M  V30 2821 O 275.557 2.10166 2.87591 0
M  V30 2822 O 274.416 3.01817 4.55597 0
M  V30 2823 H 271.51 0.42667 0.708436 0
M  V30 2824 H 274.056 1.42438 0.922474 0
M  V30 2825 H 272.828 3.09194 2.39823 0
M  V30 2826 H 272.451 1.81161 3.5393 0
M  V30 2827 N 273.449 -1.08991 1.13837 0
M  V30 2828 C 274.696 -1.81258 0.902882 0
M  V30 2829 C 275.024 -1.85936 -0.570803 0
M  V30 2830 O 274.279 -1.3267 -1.43865 0
M  V30 2831 C 274.578 -3.27042 1.44147 0
M  V30 2832 C 274.244 -3.4249 2.93276 0
M  V30 2833 C 272.906 -3.46414 3.33992 0
M  V30 2834 C 275.258 -3.4666 3.892 0
M  V30 2835 C 272.586 -3.52091 4.69307 0
M  V30 2836 C 274.938 -3.53872 5.24364 0
M  V30 2837 C 273.602 -3.56066 5.646 0
M  V30 2838 H 272.872 -0.663268 0.330388 0
M  V30 2839 H 275.519 -1.28368 1.42105 0
M  V30 2840 H 273.824 -3.82599 0.844097 0
M  V30 2841 H 275.521 -3.81499 1.23528 0
M  V30 2842 H 272.111 -3.40124 2.60794 0
M  V30 2843 H 276.295 -3.42865 3.58828 0
M  V30 2844 H 271.551 -3.52079 4.9985 0
M  V30 2845 H 275.725 -3.56043 5.98503 0
M  V30 2846 H 273.352 -3.60218 6.69438 0
M  V30 2847 N 274.927 -0.932562 -1.27047 0
M  V30 2848 C 276.204 -0.49377 -1.89265 0
M  V30 2849 C 276.584 1.02833 -1.8436 0
M  V30 2850 O 275.932 1.88461 -1.29209 0
M  V30 2851 C 276.142 -1.04536 -3.32976 0
M  V30 2852 C 277.49 -1.10879 -4.09867 0
M  V30 2853 O 278.514 -0.995327 -3.42011 0
M  V30 2854 O 277.373 -1.28417 -5.31198 0
M  V30 2855 H 274.467 -0.159596 -0.811454 0
M  V30 2856 H 277.013 -1.02457 -1.3528 0
M  V30 2857 H 275.785 -2.08913 -3.30864 0
M  V30 2858 H 275.408 -0.496494 -3.94488 0
M  V30 2859 N 276.405 1.4127 -0.698611 0
M  V30 2860 C 277.335 2.33447 -0.049629 0
M  V30 2861 C 278.316 1.51982 0.763898 0
M  V30 2862 O 279.501 1.80509 0.716257 0
M  V30 2863 C 276.631 3.35828 0.885267 0
M  V30 2864 C 275.585 4.27627 0.178613 0
M  V30 2865 C 274.911 5.20406 1.22807 0
M  V30 2866 C 276.211 5.13459 -0.956933 0
M  V30 2867 H 277.905 2.87966 -0.81951 0
M  V30 2868 H 275.451 1.38461 -0.395538 0
M  V30 2869 H 277.404 3.9924 1.34854 0
M  V30 2870 H 276.128 2.79666 1.68685 0
M  V30 2871 H 274.787 3.65643 -0.26466 0
M  V30 2872 H 274.435 4.60558 2.02226 0
M  V30 2873 H 274.135 5.82661 0.760239 0
M  V30 2874 H 275.659 5.86695 1.69179 0
M  V30 2875 H 277.073 5.70421 -0.573805 0
M  V30 2876 H 275.47 5.8467 -1.35205 0
M  V30 2877 H 276.54 4.50443 -1.79524 0
M  V30 2878 N 277.883 0.443576 1.51229 0
M  V30 2879 C 279.299 0.0962001 1.5931 0
M  V30 2880 C 279.499 -1.39501 1.45402 0
M  V30 2881 O 278.555 -2.16557 1.29843 0
M  V30 2882 C 279.868 0.621875 2.94199 0
M  V30 2883 C 281.416 0.582865 3.07525 0
M  V30 2884 C 281.891 1.08562 4.44948 0
M  V30 2885 N 283.382 1.04387 4.51284 0
M  V30 2886 C 284.117 1.40368 5.55954 0
M  V30 2887 N 283.613 1.83664 6.68011 0
M  V30 2888 N 285.406 1.32145 5.46346 0
M  V30 2889 H 277.557 1.41376 1.58514 0
M  V30 2890 H 279.82 0.582965 0.747567 0
M  V30 2891 H 279.526 1.66546 3.09767 0
M  V30 2892 H 279.4 0.0502125 3.77167 0
M  V30 2893 H 281.787 -0.451749 2.91622 0
M  V30 2894 H 281.868 1.191 2.26382 0
M  V30 2895 H 281.512 2.11873 4.61598 0
M  V30 2896 H 281.442 0.453956 5.2464 0
M  V30 2897 H 283.933 0.725986 3.70861 0
M  V30 2898 H 284.246 2.0934 7.43906 0
M  V30 2899 H 282.591 1.87596 6.69203 0
M  V30 2900 H 285.782 0.981808 4.57688 0
M  V30 2901 H 285.955 1.60514 6.27805 0
M  V30 2902 N 279.361 -1.56624 0.175154 0
M  V30 2903 C 280.589 -2.01374 -0.474971 0
M  V30 2904 C 281.004 -1.05537 -1.56548 0
M  V30 2905 O 280.361 -0.0568668 -1.82411 0
M  V30 2906 C 280.412 -3.45923 -1.04975 0
M  V30 2907 O 280.133 -4.381 -0.00276605 0
M  V30 2908 C 281.634 -4.06093 -1.77773 0
M  V30 2909 H 278.854 -0.659962 -0.121206 0
M  V30 2910 H 281.398 -2.02601 0.27801 0
M  V30 2911 H 279.553 -3.45458 -1.75321 0
M  V30 2912 H 279.967 -5.22753 -0.427681 0
M  V30 2913 H 281.441 -5.09147 -2.13245 0
M  V30 2914 H 281.918 -3.48405 -2.67414 0
M  V30 2915 H 282.524 -4.10272 -1.12059 0
M  V30 2916 N 280.839 0.0985539 -1.57292 0
M  V30 2917 C 281.769 1.12064 -2.04851 0
M  V30 2918 C 282.75 1.41981 -0.936767 0
M  V30 2919 O 283.935 1.52071 -1.20781 0
M  V30 2920 C 281.065 2.44144 -2.47004 0
M  V30 2921 C 280.019 2.28643 -3.6181 0
M  V30 2922 C 279.345 3.65869 -3.89929 0
M  V30 2923 C 280.645 1.72986 -4.92822 0
M  V30 2924 H 282.339 0.724979 -2.9049 0
M  V30 2925 H 279.885 0.34729 -1.39749 0
M  V30 2926 H 281.838 3.15914 -2.78884 0
M  V30 2927 H 280.562 2.85639 -1.5836 0
M  V30 2928 H 279.221 1.59318 -3.30172 0
M  V30 2929 H 278.869 4.04885 -2.98458 0
M  V30 2930 H 278.569 3.56344 -4.67218 0
M  V30 2931 H 280.093 4.39112 -4.2428 0
M  V30 2932 H 281.507 2.34593 -5.23105 0
M  V30 2933 H 279.904 1.74229 -5.74251 0
M  V30 2934 H 280.974 0.689007 -4.7998 0
M  V30 2935 N 282.317 1.53212 0.369288 0
M  V30 2936 C 283.733 1.42902 0.710712 0
M  V30 2937 C 283.933 0.565135 1.93413 0
M  V30 2938 O 282.989 0.0461484 2.52458 0
M  V30 2939 C 284.302 2.86042 0.927382 0
M  V30 2940 C 285.85 2.9565 1.02762 0
M  V30 2941 C 286.325 4.39843 1.27679 0
M  V30 2942 N 287.816 4.43256 1.34457 0
M  V30 2943 C 288.551 5.51929 1.55439 0
M  V30 2944 N 288.047 6.70655 1.73762 0
M  V30 2945 N 289.84 5.39502 1.57779 0
M  V30 2946 H 281.991 2.07888 -0.435457 0
M  V30 2947 H 284.254 0.938661 -0.132739 0
M  V30 2948 H 283.96 3.51557 0.100287 0
M  V30 2949 H 283.834 3.29472 1.83653 0
M  V30 2950 H 286.221 2.30291 1.84527 0
M  V30 2951 H 286.302 2.5562 0.0959504 0
M  V30 2952 H 285.946 5.05774 0.464175 0
M  V30 2953 H 285.876 4.77443 2.22162 0
M  V30 2954 H 288.367 3.5769 1.21926 0
M  V30 2955 H 288.68 7.49248 1.89335 0
M  V30 2956 H 287.025 6.73648 1.70948 0
M  V30 2957 H 290.216 4.45713 1.43029 0
M  V30 2958 H 290.389 6.2426 1.7379 0
M  V30 2959 N 283.795 -0.628877 1.44509 0
M  V30 2960 C 284.758 -1.72263 1.51188 0
M  V30 2961 C 285.758 -1.55907 0.39367 0
M  V30 2962 O 286.948 -1.61361 0.656377 0
M  V30 2963 C 284.08 -3.11365 1.38798 0
M  V30 2964 H 285.273 -1.67714 2.4862 0
M  V30 2965 H 282.826 -0.842737 1.31634 0
M  V30 2966 H 283.561 -3.21507 0.424693 0
M  V30 2967 H 283.346 -3.24644 2.19884 0
M  V30 2968 H 284.836 -3.91075 1.46458 0
M  V30 2969 N 285.273 -1.31445 -0.869486 0
M  V30 2970 C 286.519 -1.21337 -1.62496 0
M  V30 2971 C 286.852 0.227872 -1.92858 0
M  V30 2972 O 286.127 1.16094 -1.56053 0
M  V30 2973 C 286.41 -2.05814 -2.95487 0
M  V30 2974 C 286.263 -3.5824 -2.72 0
M  V30 2975 C 287.582 -1.9079 -3.96594 0
M  V30 2976 H 284.701 -0.442135 -0.589649 0
M  V30 2977 H 287.343 -1.6124 -1.00507 0
M  V30 2978 H 285.493 -1.71913 -3.48394 0
M  V30 2979 H 287.165 -4.0228 -2.25762 0
M  V30 2980 H 285.408 -3.81647 -2.06224 0
M  V30 2981 H 286.079 -4.12657 -3.66631 0
M  V30 2982 H 288.555 -2.20459 -3.52898 0
M  V30 2983 H 287.431 -2.52199 -4.87531 0
M  V30 2984 H 287.692 -0.871341 -4.33428 0
M  V30 2985 N 286.751 1.08385 -1.14413 0
M  V30 2986 C 288.167 1.32844 -0.884563 0
M  V30 2987 C 288.367 1.95841 0.474181 0
M  V30 2988 O 287.423 2.21158 1.21842 0
M  V30 2989 C 288.736 2.22978 -2.01745 0
M  V30 2990 C 290.284 2.36458 -2.05077 0
M  V30 2991 C 290.759 3.29934 -3.1766 0
M  V30 2992 N 292.25 3.37511 -3.17239 0
M  V30 2993 C 292.985 4.09871 -4.0099 0
M  V30 2994 N 292.481 4.84936 -4.94781 0
M  V30 2995 N 294.274 4.05704 -3.89051 0
M  V30 2996 H 286.425 0.658756 -2.01926 0
M  V30 2997 H 288.688 0.352821 -0.879899 0
M  V30 2998 H 288.394 1.83934 -2.99769 0
M  V30 2999 H 288.268 3.23441 -1.94077 0
M  V30 3000 H 290.655 2.7476 -1.0766 0
M  V30 3001 H 290.736 1.35736 -2.16816 0
M  V30 3002 H 290.38 2.92352 -4.15322 0
M  V30 3003 H 290.31 4.30584 -3.03158 0
M  V30 3004 H 292.801 2.83996 -2.49308 0
M  V30 3005 H 293.114 5.37612 -5.55151 0
M  V30 3006 H 291.459 4.83988 -4.98779 0
M  V30 3007 H 294.65 3.46167 -3.15097 0
M  V30 3008 H 294.823 4.61834 -4.54547 0
M  V30 3009 N 288.23 0.939286 1.26551 0
M  V30 3010 C 289.476 0.586715 1.94128 0
M  V30 3011 C 289.809 -0.8717 1.73537 0
M  V30 3012 O 289.084 -1.62339 1.07127 0
M  V30 3013 C 289.367 0.927497 3.4795 0
M  V30 3014 C 289.22 2.44052 3.77834 0
M  V30 3015 C 290.539 0.441569 4.37879 0
M  V30 3016 H 287.658 0.21463 0.705055 0
M  V30 3017 H 290.3 1.17316 1.49455 0
M  V30 3018 H 288.45 0.428431 3.8613 0
M  V30 3019 H 290.122 3.01216 3.4938 0
M  V30 3020 H 288.365 2.8848 3.23978 0
M  V30 3021 H 289.036 2.62947 4.85348 0
M  V30 3022 H 291.512 0.869448 4.06915 0
M  V30 3023 H 290.388 0.708856 5.44304 0
M  V30 3024 H 290.649 -0.658467 4.37169 0
M  V30 3025 N 289.708 -1.40897 0.706093 0
M  V30 3026 C 290.638 -2.33418 0.0620085 0
M  V30 3027 C 291.619 -1.52385 -0.755827 0
M  V30 3028 O 292.804 -1.80886 -0.706674 0
M  V30 3029 C 289.934 -3.36293 -0.867445 0
M  V30 3030 C 288.888 -4.27716 -0.155932 0
M  V30 3031 C 288.214 -5.2105 -1.20046 0
M  V30 3032 C 289.514 -5.12944 0.984149 0
M  V30 3033 H 291.208 -2.87527 0.83477 0
M  V30 3034 H 288.754 -1.38249 0.402875 0
M  V30 3035 H 290.707 -3.99949 -1.32735 0
M  V30 3036 H 289.431 -2.80556 -1.67199 0
M  V30 3037 H 288.09 -3.65498 0.284047 0
M  V30 3038 H 287.738 -4.61624 -1.99781 0
M  V30 3039 H 287.438 -5.83056 -0.729328 0
M  V30 3040 H 288.962 -5.87584 -1.66066 0
M  V30 3041 H 290.376 -5.70109 0.604048 0
M  V30 3042 H 288.773 -5.83945 1.38304 0
M  V30 3043 H 289.843 -4.49485 1.81911 0
M  V30 3044 N 291.186 -0.45159 -1.50991 0
M  V30 3045 C 292.602 -0.104647 -1.59257 0
M  V30 3046 C 292.802 1.38728 -1.4614 0
M  V30 3047 O 291.858 2.15866 -1.30989 0
M  V30 3048 C 293.171 -0.637468 -2.93865 0
M  V30 3049 C 294.719 -0.599166 -3.07212 0
M  V30 3050 C 295.194 -1.1092 -4.44366 0
M  V30 3051 N 296.685 -1.06778 -4.50725 0
M  V30 3052 C 297.42 -1.43314 -5.55201 0
M  V30 3053 N 296.916 -1.87204 -6.67028 0
M  V30 3054 N 298.709 -1.3504 -5.45638 0
M  V30 3055 H 290.86 -1.42214 -1.57762 0
M  V30 3056 H 293.123 -0.586921 -0.744465 0
M  V30 3057 H 292.829 -1.68187 -3.08879 0
M  V30 3058 H 292.703 -0.0702139 -3.77135 0
M  V30 3059 H 295.09 0.436277 -2.91857 0
M  V30 3060 H 295.171 -1.20299 -2.25747 0
M  V30 3061 H 294.815 -2.14318 -4.60467 0
M  V30 3062 H 294.745 -0.481773 -5.24392 0
M  V30 3063 H 297.236 -0.745643 -3.70471 0
M  V30 3064 H 297.549 -2.13282 -7.42786 0
M  V30 3065 H 295.894 -1.91142 -6.68199 0
M  V30 3066 H 299.085 -1.00607 -4.57161 0
M  V30 3067 H 299.258 -1.63841 -6.26945 0
M  V30 3068 N 292.664 1.56529 -0.183458 0
M  V30 3069 C 294.075 1.83739 0.331177 0
M  V30 3070 C 294.426 1.10373 1.62211 0
M  V30 3071 O 293.551 0.36071 2.13373 0
M  V30 3072 C 294.146 3.33306 0.607646 0
M  V30 3073 C 292.705 3.60969 1.06668 0
M  V30 3074 C 291.852 2.77086 0.109029 0
M  V30 3075 H 294.803 1.53379 -0.407484 0
M  V30 3076 H 294.824 3.51444 1.45832 0
M  V30 3077 H 294.336 3.86677 -0.332086 0
M  V30 3078 H 292.437 3.13021 2.0211 0
M  V30 3079 H 292.55 4.69231 0.967447 0
M  V30 3080 H 290.914 2.47319 0.608714 0
M  V30 3081 H 291.697 3.33241 -0.82494 0
M  V30 3082 N 294.142 -0.090211 1.57342 0
M  V30 3083 C 295.072 -1.10976 2.05443 0
M  V30 3084 C 296.053 -1.41482 0.944284 0
M  V30 3085 O 297.238 -1.51428 1.21586 0
M  V30 3086 C 294.368 -2.42831 2.48295 0
M  V30 3087 C 293.322 -2.26721 3.63018 0
M  V30 3088 C 292.648 -3.63796 3.91863 0
M  V30 3089 C 293.948 -1.7037 4.93732 0
M  V30 3090 H 295.642 -0.709564 2.9087 0
M  V30 3091 H 293.188 -0.339874 1.39932 0
M  V30 3092 H 295.141 -3.14431 2.80555 0
M  V30 3093 H 293.865 -2.84795 1.59873 0
M  V30 3094 H 292.524 -1.57565 3.31012 0
M  V30 3095 H 292.172 -4.03297 3.00601 0
M  V30 3096 H 291.872 -3.53861 4.69101 0
M  V30 3097 H 293.396 -4.36855 4.26603 0
M  V30 3098 H 294.81 -2.31816 5.24342 0
M  V30 3099 H 293.207 -1.71181 5.75167 0
M  V30 3100 H 294.277 -0.663542 4.80339 0
M  V30 3101 N 295.62 -1.53406 -0.361157 0
M  V30 3102 C 296.567 -1.80156 -1.44265 0
M  V30 3103 C 297.537 -0.646183 -1.53015 0
M  V30 3104 O 298.722 -0.888818 -1.68833 0
M  V30 3105 C 295.862 -2.00116 -2.81154 0
M  V30 3106 C 294.975 -3.27833 -2.81335 0
M  V30 3107 C 294.11 -3.37957 -4.09828 0
M  V30 3108 C 293.149 -4.59689 -4.04168 0
M  V30 3109 N 292.286 -4.66942 -5.24318 0
M  V30 3110 H 297.126 -2.72438 -1.20754 0
M  V30 3111 H 294.663 -1.34954 -0.585296 0
M  V30 3112 H 296.621 -2.09677 -3.60682 0
M  V30 3113 H 295.251 -1.11167 -3.03054 0
M  V30 3114 H 294.303 -3.27204 -1.94014 0
M  V30 3115 H 295.615 -4.17442 -2.73027 0
M  V30 3116 H 294.769 -3.46853 -4.97773 0
M  V30 3117 H 293.508 -2.46372 -4.20894 0
M  V30 3118 H 292.513 -4.50889 -3.14609 0
M  V30 3119 H 293.738 -5.5262 -3.947 0
M  V30 3120 H 291.684 -3.7826 -5.35962 0
M  V30 3121 H 291.601 -5.50462 -5.18197 0
M  V30 3122 H 292.869 -4.80127 -6.14084 0
M  V30 3123 N 297.098 0.621204 -1.44841 0
M  V30 3124 C 298.028 1.74366 -1.55303 0
M  V30 3125 C 299.009 1.65199 -0.405385 0
M  V30 3126 O 300.194 1.83807 -0.626787 0
M  V30 3127 C 297.324 3.12931 -1.50637 0
M  V30 3128 C 296.278 3.36896 -2.63979 0
M  V30 3129 C 295.604 4.75594 -2.44366 0
M  V30 3130 C 296.904 3.28483 -4.06074 0
M  V30 3131 H 298.598 1.65867 -2.49256 0
M  V30 3132 H 296.144 0.796558 -1.19962 0
M  V30 3133 H 298.097 3.9124 -1.56555 0
M  V30 3134 H 296.821 3.22237 -0.532057 0
M  V30 3135 H 295.48 2.60972 -2.57467 0
M  V30 3136 H 295.128 4.81616 -1.45105 0
M  V30 3137 H 294.828 4.92586 -3.20364 0
M  V30 3138 H 296.352 5.5612 -2.52117 0
M  V30 3139 H 297.766 3.96684 -4.13902 0
M  V30 3140 H 296.163 3.57008 -4.82354 0
M  V30 3141 H 297.233 2.26133 -4.28943 0
M  V30 3142 N 298.576 1.31904 0.862503 0
M  V30 3143 C 299.822 1.22197 1.61851 0
M  V30 3144 C 300.155 -0.217641 1.92977 0
M  V30 3145 O 299.43 -1.15264 1.56666 0
M  V30 3146 C 299.713 2.07378 2.94391 0
M  V30 3147 C 299.566 3.59678 2.70096 0
M  V30 3148 C 300.885 1.92891 3.95577 0
M  V30 3149 H 298.004 0.445255 0.587296 0
M  V30 3150 H 300.646 1.6177 0.99651 0
M  V30 3151 H 298.796 1.73758 3.47477 0
M  V30 3152 H 300.468 4.03472 2.23625 0
M  V30 3153 H 298.711 3.82735 2.04197 0
M  V30 3154 H 299.382 4.14595 3.64438 0
M  V30 3155 H 301.858 2.22327 3.51724 0
M  V30 3156 H 300.734 2.54781 4.86187 0
M  V30 3157 H 300.995 0.894315 4.3296 0
M  V30 3158 N 300.054 -1.07777 1.14986 0
M  V30 3159 C 301.279 -1.84558 0.946213 0
M  V30 3160 C 301.704 -1.81323 -0.500362 0
M  V30 3161 O 301.062 -1.20301 -1.35637 0
M  V30 3162 C 301.11 -3.29736 1.45968 0
M  V30 3163 O 300.214 -4.07149 0.65601 0
M  V30 3164 H 299.555 -0.571641 0.33782 0
M  V30 3165 H 302.085 -1.35991 1.52865 0
M  V30 3166 H 302.095 -3.80574 1.47063 0
M  V30 3167 H 300.77 -3.31406 2.51283 0
M  V30 3168 H 299.347 -3.65994 0.714322 0
M  V30 3169 N 301.532 -0.945985 -1.26051 0
M  V30 3170 C 302.78 -0.594941 -1.93145 0
M  V30 3171 C 303.101 0.86953 -1.7454 0
M  V30 3172 O 302.371 1.61838 -1.10387 0
M  V30 3173 H 300.951 -0.217044 -0.714773 0
M  V30 3174 H 303.613 -1.20235 -1.53393 0
M  V30 3175 H 302.709 -0.816835 -3.01221 0
M  V30 3176 N 303.011 1.40521 -0.713556 0
M  V30 3177 C 304.26 2.00155 -0.249192 0
M  V30 3178 C 304.573 1.57224 1.16362 0
M  V30 3179 O 305.779 2.09542 1.72639 0
M  V30 3180 C 304.235 3.5773 -0.3946 0
M  V30 3181 C 303.843 4.09635 -1.81392 0
M  V30 3182 C 305.587 4.24499 0.00907364 0
M  V30 3183 C 303.494 5.59707 -1.91003 0
M  V30 3184 H 302.424 0.74868 -0.0894114 0
M  V30 3185 H 305.075 1.60784 -0.884352 0
M  V30 3186 H 303.457 3.94792 0.30911 0
M  V30 3187 H 304.631 3.83955 -2.54785 0
M  V30 3188 H 302.946 3.55456 -2.16888 0
M  V30 3189 H 305.543 5.34683 -0.0420404 0
M  V30 3190 H 305.886 4.02824 1.05065 0
M  V30 3191 H 306.419 3.92536 -0.645007 0
M  V30 3192 H 303.158 5.86234 -2.93275 0
M  V30 3193 H 302.678 5.87258 -1.22019 0
M  V30 3194 H 304.357 6.24776 -1.6812 0
M  V30 3195 N 304.489 0.459591 1.5075 0
M  V30 3196 C 305.9 0.00171547 1.867 0
M  V30 3197 C 306.251 -1.39934 1.37525 0
M  V30 3198 O 305.376 -2.03523 0.735349 0
M  V30 3199 C 305.971 -0.00366298 3.388 0
M  V30 3200 C 304.53 -0.406026 3.74204 0
M  V30 3201 C 303.677 0.38673 2.7459 0
M  V30 3202 H 306.628 0.674413 1.43657 0
M  V30 3203 H 306.649 -0.808371 3.71814 0
M  V30 3204 H 306.161 1.01617 3.74561 0
M  V30 3205 H 304.262 -1.43063 3.4404 0
M  V30 3206 H 304.375 -0.115362 4.78961 0
M  V30 3207 H 302.739 -0.158019 2.54209 0
M  V30 3208 H 303.522 1.40585 3.13194 0
M  V30 3209 N 305.967 -1.56429 0.191757 0
M  V30 3210 C 307.192 -2.02309 -0.456706 0
M  V30 3211 C 307.617 -1.07103 -1.5463 0
M  V30 3212 O 306.975 -0.0539677 -1.8122 0
M  V30 3213 C 307.023 -3.46654 -0.993159 0
M  V30 3214 O 306.127 -3.54559 -2.10622 0
M  V30 3215 H 305.468 -0.655303 -0.107114 0
M  V30 3216 H 307.998 -2.02364 0.301653 0
M  V30 3217 H 308.008 -3.86377 -1.31061 0
M  V30 3218 H 306.683 -4.1544 -0.195504 0
M  V30 3219 H 305.26 -3.26708 -1.79767 0
M  V30 3220 N 307.445 0.0818655 -1.57387 0
M  V30 3221 C 308.375 1.09885 -2.06028 0
M  V30 3222 C 309.356 1.4098 -0.951774 0
M  V30 3223 O 310.541 1.50781 -1.22387 0
M  V30 3224 C 307.671 2.4151 -2.4958 0
M  V30 3225 C 306.625 2.24792 -3.64215 0
M  V30 3226 C 305.951 3.61712 -3.93787 0
M  V30 3227 C 307.251 1.67749 -4.94629 0
M  V30 3228 H 308.945 0.694128 -2.91243 0
M  V30 3229 H 306.491 0.332448 -1.4011 0
M  V30 3230 H 308.444 3.12939 -2.82219 0
M  V30 3231 H 307.168 2.83943 -1.61381 0
M  V30 3232 H 305.827 1.55807 -3.31843 0
M  V30 3233 H 305.475 4.01697 -3.02735 0
M  V30 3234 H 305.175 3.51368 -4.70971 0
M  V30 3235 H 306.699 4.34587 -4.28913 0
M  V30 3236 H 308.113 2.29032 -5.25564 0
M  V30 3237 H 306.51 1.68128 -5.76067 0
M  V30 3238 H 307.58 0.638059 -4.80684 0
M  V30 3239 N 308.923 1.53595 0.353017 0
M  V30 3240 C 309.855 1.77219 1.45348 0
M  V30 3241 C 310.868 0.65324 1.49119 0
M  V30 3242 O 312.057 0.929775 1.52373 0
M  V30 3243 C 309.157 1.84841 2.84055 0
M  V30 3244 C 308.33 3.14649 3.03833 0
M  V30 3245 C 307.389 3.13351 4.22727 0
M  V30 3246 O 306.415 3.87107 4.17297 0
M  V30 3247 N 307.617 2.35052 5.30783 0
M  V30 3248 H 310.382 2.72178 1.25457 0
M  V30 3249 H 307.943 1.52528 0.542833 0
M  V30 3250 H 309.935 1.81435 3.61751 0
M  V30 3251 H 308.505 0.971114 2.97133 0
M  V30 3252 H 307.725 3.31256 2.13689 0
M  V30 3253 H 309.013 4.00411 3.13925 0
M  V30 3254 H 308.411 1.74663 5.38061 0
M  V30 3255 H 306.968 2.37453 6.07009 0
M  V30 3256 N 310.401 -0.613514 1.45168 0
M  V30 3257 C 311.647 -1.37471 1.49096 0
M  V30 3258 C 311.98 -1.93765 0.129901 0
M  V30 3259 O 311.255 -1.74707 -0.854858 0
M  V30 3260 C 311.538 -2.52701 2.56542 0
M  V30 3261 C 311.391 -2.01643 4.0207 0
M  V30 3262 C 312.71 -3.54849 2.60327 0
M  V30 3263 H 309.829 -0.498502 0.54283 0
M  V30 3264 H 312.471 -0.692125 1.76945 0
M  V30 3265 H 310.621 -3.10931 2.32926 0
M  V30 3266 H 312.293 -1.48108 4.36877 0
M  V30 3267 H 310.536 -1.32688 4.13009 0
M  V30 3268 H 311.207 -2.84681 4.72928 0
M  V30 3269 H 313.683 -3.0645 2.81474 0
M  V30 3270 H 312.559 -4.32973 3.37381 0
M  V30 3271 H 312.82 -4.10079 1.6519 0
M  V30 3272 N 311.879 -1.3236 -0.855495 0
M  V30 3273 C 313.125 -1.23054 -1.612 0
M  V30 3274 C 313.458 0.207404 -1.93089 0
M  V30 3275 O 312.733 1.14432 -1.57275 0
M  V30 3276 C 313.016 -2.08937 -2.93287 0
M  V30 3277 C 312.869 -3.61105 -2.68185 0
M  V30 3278 C 314.188 -1.94986 -3.94549 0
M  V30 3279 H 311.307 -0.448364 -0.584926 0
M  V30 3280 H 313.949 -1.62297 -0.987917 0
M  V30 3281 H 312.099 -1.75599 -3.46551 0
M  V30 3282 H 313.771 -4.04652 -2.21483 0
M  V30 3283 H 312.014 -3.83813 -2.02164 0
M  V30 3284 H 312.685 -4.16522 -3.62234 0
M  V30 3285 H 315.161 -2.24189 -3.5054 0
M  V30 3286 H 314.037 -2.57356 -4.84829 0
M  V30 3287 H 314.298 -0.917263 -4.3248 0
M  V30 3288 N 313.357 1.07166 -1.15556 0
M  V30 3289 C 314.287 2.16403 -0.877046 0
M  V30 3290 C 315.268 1.69217 0.173111 0
M  V30 3291 O 316.453 1.94181 0.027084 0
M  V30 3292 C 313.583 3.45349 -0.367632 0
M  V30 3293 C 312.537 4.05995 -1.35468 0
M  V30 3294 C 311.863 5.30045 -0.704038 0
M  V30 3295 C 313.163 4.45804 -2.72132 0
M  V30 3296 H 314.857 2.39959 -1.79053 0
M  V30 3297 H 312.403 1.15325 -0.862331 0
M  V30 3298 H 314.356 4.21095 -0.160317 0
M  V30 3299 H 313.08 3.21385 0.581326 0
M  V30 3300 H 311.739 3.32296 -1.54839 0
M  V30 3301 H 311.387 5.02373 0.251128 0
M  V30 3302 H 311.087 5.71579 -1.36277 0
M  V30 3303 H 312.611 6.08495 -0.50654 0
M  V30 3304 H 314.025 5.12671 -2.56595 0
M  V30 3305 H 312.422 4.98296 -3.34397 0
M  V30 3306 H 313.492 3.57083 -3.28054 0
M  V30 3307 N 314.835 0.952656 1.25548 0
M  V30 3308 C 315.782 0.47008 2.25962 0
M  V30 3309 C 316.752 -0.476384 1.59122 0
M  V30 3310 O 317.937 -0.39007 1.8677 0
M  V30 3311 C 315.077 -0.247881 3.44209 0
M  V30 3312 C 314.19 0.735591 4.25691 0
M  V30 3313 C 313.325 -0.0047306 5.312 0
M  V30 3314 C 312.364 0.969805 6.04368 0
M  V30 3315 N 311.501 0.260486 7.01617 0
M  V30 3316 H 316.341 1.33126 2.66611 0
M  V30 3317 H 313.878 0.66765 1.31076 0
M  V30 3318 H 315.836 -0.680695 4.1161 0
M  V30 3319 H 314.466 -1.07312 3.0444 0
M  V30 3320 H 313.518 1.28689 3.57971 0
M  V30 3321 H 314.83 1.47934 4.76358 0
M  V30 3322 H 313.984 -0.496275 6.04667 0
M  V30 3323 H 312.723 -0.781282 4.81401 0
M  V30 3324 H 311.728 1.47237 5.29718 0
M  V30 3325 H 312.953 1.74655 6.56256 0
M  V30 3326 H 310.899 -0.497364 6.54112 0
M  V30 3327 H 310.816 0.943362 7.50091 0
M  V30 3328 H 312.084 -0.209587 7.79218 0
M  V30 3329 N 316.313 -1.40141 0.720998 0
M  V30 3330 C 317.538 -2.05618 0.271258 0
M  V30 3331 C 317.963 -1.53978 -1.08039 0
M  V30 3332 O 317.321 -0.677463 -1.68167 0
M  V30 3333 C 317.369 -3.59609 0.267197 0
M  V30 3334 O 316.473 -4.05526 -0.749814 0
M  V30 3335 H 315.814 -0.651904 0.126162 0
M  V30 3336 H 318.344 -1.79439 0.982997 0
M  V30 3337 H 318.354 -4.0786 0.106744 0
M  V30 3338 H 317.029 -3.96559 1.25354 0
M  V30 3339 H 315.606 -3.68722 -0.556644 0
M  V30 3340 N 317.792 -0.46758 -1.50504 0
M  V30 3341 C 319.041 0.0902868 -2.01498 0
M  V30 3342 C 319.354 1.411 -1.35463 0
M  V30 3343 O 320.56 2.0536 -1.77594 0
M  V30 3344 C 319.016 0.21142 -3.59278 0
M  V30 3345 C 318.624 -1.10065 -4.34269 0
M  V30 3346 C 320.368 0.721433 -4.18325 0
M  V30 3347 C 318.275 -0.943505 -5.83825 0
M  V30 3348 H 317.205 0.037517 -0.753066 0
M  V30 3349 H 319.856 -0.601943 -1.73346 0
M  V30 3350 H 318.238 0.967352 -3.84003 0
M  V30 3351 H 319.412 -1.86726 -4.21272 0
M  V30 3352 H 317.727 -1.5415 -3.86816 0
M  V30 3353 H 320.324 0.85598 -5.27804 0
M  V30 3354 H 320.667 1.71186 -3.79475 0
M  V30 3355 H 321.2 0.0229843 -3.97793 0
M  V30 3356 H 317.939 -1.90719 -6.27141 0
M  V30 3357 H 317.459 -0.217213 -5.99407 0
M  V30 3358 H 319.138 -0.608715 -6.4413 0
M  V30 3359 N 319.27 1.56325 -0.20005 0
M  V30 3360 C 320.203 2.15234 0.758267 0
M  V30 3361 C 321.181 1.09046 1.20614 0
M  V30 3362 O 322.365 1.37186 1.29276 0
M  V30 3363 C 319.492 2.71524 2.02466 0
M  V30 3364 C 318.538 3.90345 1.71852 0
M  V30 3365 S 319.371 5.28513 0.862249 0
M  V30 3366 C 320.527 5.88227 2.13868 0
M  V30 3367 H 320.76 2.96183 0.2575 0
M  V30 3368 H 318.293 1.54393 0.0150099 0
M  V30 3369 H 320.251 3.04598 2.75191 0
M  V30 3370 H 318.912 1.90607 2.49655 0
M  V30 3371 H 318.105 4.28158 2.65888 0
M  V30 3372 H 317.707 3.58306 1.07205 0
M  V30 3373 H 319.999 6.02891 3.09076 0
M  V30 3374 H 320.942 6.84714 1.80479 0
M  V30 3375 H 321.35 5.16874 2.2694 0
M  V30 3376 N 320.748 -0.0735177 1.57428 0
M  V30 3377 C 321.695 -1.08756 2.0357 0
M  V30 3378 C 322.665 -1.38559 0.916 0
M  V30 3379 O 323.85 -1.49656 1.18354 0
M  V30 3380 C 320.99 -2.39657 2.48311 0
M  V30 3381 C 320.103 -2.16399 3.73892 0
M  V30 3382 C 319.238 -3.40852 4.07423 0
M  V30 3383 C 318.277 -3.1295 5.2605 0
M  V30 3384 N 317.414 -4.29729 5.55228 0
M  V30 3385 H 322.254 -0.687104 2.8997 0
M  V30 3386 H 319.791 -0.327709 1.43403 0
M  V30 3387 H 321.749 -3.16081 2.72303 0
M  V30 3388 H 320.379 -2.77508 1.64891 0
M  V30 3389 H 319.431 -1.30676 3.57251 0
M  V30 3390 H 320.743 -1.91788 4.60455 0
M  V30 3391 H 319.897 -4.25671 4.32306 0
M  V30 3392 H 318.636 -3.68537 3.19425 0
M  V30 3393 H 317.641 -2.26526 5.00965 0
M  V30 3394 H 318.866 -2.86589 6.15665 0
M  V30 3395 H 316.812 -4.57448 4.70188 0
M  V30 3396 H 316.729 -4.08385 6.36206 0
M  V30 3397 H 317.997 -5.1555 5.84661 0
M  V30 3398 N 322.226 -1.5378 -0.344866 0
M  V30 3399 C 323.189 -1.80981 -1.40637 0
M  V30 3400 C 324.189 -0.680816 -1.45676 0
M  V30 3401 O 325.379 -0.949095 -1.46075 0
M  V30 3402 C 322.511 -1.95063 -2.79577 0
M  V30 3403 H 323.704 -2.75803 -1.17783 0
M  V30 3404 H 321.257 -1.45173 -0.579181 0
M  V30 3405 H 321.992 -1.02379 -3.07716 0
M  V30 3406 H 321.777 -2.77198 -2.77315 0
M  V30 3407 H 323.267 -2.17629 -3.56409 0
M  V30 3408 N 323.704 0.605807 -1.45491 0
M  V30 3409 C 324.637 1.73022 -1.48791 0
M  V30 3410 C 325.615 1.58917 -0.344112 0
M  V30 3411 O 326.799 1.80453 -0.544876 0
M  V30 3412 C 323.926 3.10865 -1.34463 0
M  V30 3413 C 322.972 3.43554 -2.5273 0
M  V30 3414 S 323.805 3.38196 -4.15191 0
M  V30 3415 C 324.961 4.78616 -4.03333 0
M  V30 3416 H 325.194 1.69961 -2.43928 0
M  V30 3417 H 322.727 0.782611 -1.33096 0
M  V30 3418 H 324.685 3.90398 -1.26884 0
M  V30 3419 H 323.346 3.1144 -0.40794 0
M  V30 3420 H 322.539 4.43924 -2.38637 0
M  V30 3421 H 322.141 2.71541 -2.5718 0
M  V30 3422 H 324.433 5.68463 -3.68587 0
M  V30 3423 H 325.376 4.97767 -5.03621 0
M  V30 3424 H 325.784 4.54381 -3.34959 0
M  V30 3425 N 325.182 1.32811 0.848464 0
M  V30 3426 C 326.428 1.23907 1.60546 0
M  V30 3427 C 326.761 -0.197161 1.93197 0
M  V30 3428 O 326.036 -1.13596 1.5788 0
M  V30 3429 C 326.319 2.10489 2.92175 0
M  V30 3430 C 326.172 3.62522 2.66266 0
M  V30 3431 C 327.491 1.97075 3.93509 0
M  V30 3432 H 324.61 0.451459 0.58254 0
M  V30 3433 H 327.252 1.62818 0.979296 0
M  V30 3434 H 325.402 1.77434 3.45614 0
M  V30 3435 H 327.074 4.05821 2.19334 0
M  V30 3436 H 325.317 3.84879 2.00126 0
M  V30 3437 H 325.988 4.18437 3.6002 0
M  V30 3438 H 328.464 2.26045 3.49346 0
M  V30 3439 H 327.34 2.59923 4.83457 0
M  V30 3440 H 327.601 0.940186 4.31987 0
M  V30 3441 N 326.66 -1.06551 1.16123 0
M  V30 3442 C 328.071 -1.60768 0.949232 0
M  V30 3443 C 328.422 -1.89523 -0.507508 0
M  V30 3444 O 327.547 -1.66671 -1.38021 0
M  V30 3445 C 328.142 -2.92086 1.71671 0
M  V30 3446 C 326.701 -3.43015 1.54977 0
M  V30 3447 C 325.848 -2.16947 1.72711 0
M  V30 3448 H 328.799 -0.895354 1.31031 0
M  V30 3449 H 328.82 -3.6138 1.19099 0
M  V30 3450 H 328.332 -2.71127 2.7769 0
M  V30 3451 H 326.433 -3.69039 0.513873 0
M  V30 3452 H 326.546 -4.18516 2.33198 0
M  V30 3453 H 324.91 -2.27041 1.15431 0
M  V30 3454 H 325.693 -1.98473 2.80113 0
M  V30 3455 N 328.138 -0.959301 -1.25041 0
M  V30 3456 C 329.068 -0.501388 -2.28053 0
M  V30 3457 C 330.049 0.454673 -1.63911 0
M  V30 3458 O 331.234 0.352618 -1.90972 0
M  V30 3459 C 328.364 0.217224 -3.4662 0
M  V30 3460 C 327.318 -0.654034 -4.22973 0
M  V30 3461 C 326.644 0.195589 -5.34342 0
M  V30 3462 C 327.944 -1.93447 -4.85155 0
M  V30 3463 H 329.638 -1.36238 -2.66608 0
M  V30 3464 H 327.184 -0.656534 -1.28163 0
M  V30 3465 H 329.137 0.548732 -4.17812 0
M  V30 3466 H 327.861 1.1125 -3.07068 0
M  V30 3467 H 326.52 -0.968693 -3.5357 0
M  V30 3468 H 326.168 1.09076 -4.91031 0
M  V30 3469 H 325.868 -0.384091 -5.86343 0
M  V30 3470 H 327.392 0.521958 -6.08365 0
M  V30 3471 H 328.806 -1.66908 -5.48466 0
M  V30 3472 H 327.203 -2.46018 -5.47353 0
M  V30 3473 H 328.273 -2.63466 -4.07079 0
M  V30 3474 N 329.616 1.39756 -0.72842 0
M  V30 3475 C 330.546 2.33289 -0.0991354 0
M  V30 3476 C 331.527 1.53568 0.731489 0
M  V30 3477 O 332.712 1.81987 0.677807 0
M  V30 3478 C 329.842 3.3763 0.813834 0
M  V30 3479 C 328.796 4.2791 0.0878663 0
M  V30 3480 C 328.122 5.22894 1.11741 0
M  V30 3481 C 329.422 5.11314 -1.06563 0
M  V30 3482 H 331.116 2.86163 -0.880408 0
M  V30 3483 H 328.662 1.37591 -0.424819 0
M  V30 3484 H 330.615 4.0201 1.26355 0
M  V30 3485 H 329.339 2.83181 1.62715 0
M  V30 3486 H 327.998 3.65 -0.342159 0
M  V30 3487 H 327.646 4.64744 1.92412 0
M  V30 3488 H 327.346 5.84143 0.636477 0
M  V30 3489 H 328.87 5.90151 1.56697 0
M  V30 3490 H 330.284 5.69076 -0.694671 0
M  V30 3491 H 328.681 5.81671 -1.47577 0
M  V30 3492 H 329.751 4.46534 -1.89038 0
M  V30 3493 N 331.094 0.475555 1.50254 0
M  V30 3494 C 332.026 -0.352649 2.26471 0
M  V30 3495 C 333.039 -0.953165 1.3198 0
M  V30 3496 O 334.228 -0.840815 1.57457 0
M  V30 3497 C 331.328 -1.50902 3.0345 0
M  V30 3498 C 330.501 -1.02047 4.25329 0
M  V30 3499 C 329.56 -2.05142 4.84565 0
M  V30 3500 O 328.586 -1.63023 5.45355 0
M  V30 3501 N 329.788 -3.37987 4.71959 0
M  V30 3502 H 332.553 0.300767 2.98187 0
M  V30 3503 H 330.114 0.306598 1.5897 0
M  V30 3504 H 332.106 -2.19572 3.39956 0
M  V30 3505 H 330.676 -2.06705 2.34504 0
M  V30 3506 H 329.896 -0.159507 3.93877 0
M  V30 3507 H 331.184 -0.672061 5.04342 0
M  V30 3508 H 330.582 -3.74913 4.23623 0
M  V30 3509 H 329.139 -4.02443 5.12721 0
M  V30 3510 N 332.573 -1.56217 0.208337 0
M  V30 3511 C 333.822 -1.97124 -0.427204 0
M  V30 3512 C 334.135 -1.09859 -1.61835 0
M  V30 3513 O 335.341 -1.40606 -2.32255 0
M  V30 3514 C 333.797 -3.50633 -0.811442 0
M  V30 3515 C 333.405 -4.46582 0.35615 0
M  V30 3516 C 335.149 -4.00282 -1.41332 0
M  V30 3517 C 333.056 -5.91379 -0.0497852 0
M  V30 3518 H 331.986 -0.736086 -0.163381 0
M  V30 3519 H 334.637 -1.8099 0.302456 0
M  V30 3520 H 333.019 -3.62319 -1.59815 0
M  V30 3521 H 334.193 -4.46636 1.1337 0
M  V30 3522 H 332.508 -4.07202 0.870396 0
M  V30 3523 H 335.105 -5.0595 -1.72972 0
M  V30 3524 H 335.448 -3.45359 -2.32449 0
M  V30 3525 H 335.981 -3.91764 -0.690323 0
M  V30 3526 H 332.72 -6.50255 0.827529 0
M  V30 3527 H 332.24 -5.94549 -0.791926 0
M  V30 3528 H 333.919 -6.45209 -0.481042 0
M  V30 3529 N 334.051 0.0651679 -1.57465 0
M  V30 3530 C 335.299 0.761555 -1.87202 0
M  V30 3531 C 335.62 1.77778 -0.801243 0
M  V30 3532 O 334.89 1.95166 0.16937 0
M  V30 3533 H 333.47 0.284251 -0.690804 0
M  V30 3534 H 336.132 0.0396827 -1.9486 0
M  V30 3535 H 335.228 1.27365 -2.84929 0
M  V30 3536 N 335.529 1.53961 0.336706 0
M  V30 3537 C 336.459 1.85417 1.41925 0
M  V30 3538 C 337.44 0.709856 1.5458 0
M  V30 3539 O 338.625 0.962396 1.68676 0
M  V30 3540 C 335.755 2.06985 2.78881 0
M  V30 3541 C 334.709 3.22813 2.81026 0
M  V30 3542 C 334.035 3.29727 4.20932 0
M  V30 3543 C 335.335 4.60767 2.45949 0
M  V30 3544 H 337.029 2.76079 1.15848 0
M  V30 3545 H 334.575 1.32839 0.555859 0
M  V30 3546 H 336.528 2.27575 3.54665 0
M  V30 3547 H 335.252 1.13061 3.06406 0
M  V30 3548 H 333.911 3.0209 2.07695 0
M  V30 3549 H 333.559 2.33385 4.45579 0
M  V30 3550 H 333.259 4.07566 4.23277 0
M  V30 3551 H 334.783 3.52536 4.98549 0
M  V30 3552 H 336.197 4.81325 3.11446 0
M  V30 3553 H 334.594 5.4106 2.59566 0
M  V30 3554 H 335.664 4.6391 1.41122 0
M  V30 3555 N 337.007 -0.598083 1.45811 0
M  V30 3556 C 337.937 -1.71873 1.58057 0
M  V30 3557 C 338.918 -1.64533 0.431615 0
M  V30 3558 O 340.103 -1.82787 0.65595 0
M  V30 3559 C 337.233 -3.10495 1.55597 0
M  V30 3560 C 336.187 -3.32654 2.69305 0
M  V30 3561 C 335.513 -4.71646 2.51902 0
M  V30 3562 C 336.813 -3.21981 4.11248 0
M  V30 3563 H 338.507 -1.61881 2.51863 0
M  V30 3564 H 336.053 -0.777372 1.21214 0
M  V30 3565 H 338.006 -3.88699 1.6276 0
M  V30 3566 H 336.73 -3.2135 0.583255 0
M  V30 3567 H 335.389 -2.56843 2.61586 0
M  V30 3568 H 335.037 -4.79246 1.52748 0
M  V30 3569 H 334.737 -4.87426 3.2816 0
M  V30 3570 H 336.261 -5.52038 2.60933 0
M  V30 3571 H 337.675 -3.90049 4.20161 0
M  V30 3572 H 336.072 -3.49289 4.87972 0
M  V30 3573 H 337.142 -2.1928 4.32486 0
M  V30 3574 N 338.485 -1.33259 -0.841409 0
M  V30 3575 C 339.415 -1.25926 -1.96634 0
M  V30 3576 C 340.396 -0.140349 -1.6952 0
M  V30 3577 O 341.581 -0.329707 -1.91381 0
M  V30 3578 C 338.711 -0.99512 -3.32738 0
M  V30 3579 C 337.665 -2.0767 -3.74242 0
M  V30 3580 C 336.991 -1.66474 -5.08125 0
M  V30 3581 C 338.291 -3.49318 -3.88297 0
M  V30 3582 H 339.985 -2.20046 -2.03027 0
M  V30 3583 H 337.531 -1.05931 -0.975425 0
M  V30 3584 H 339.484 -0.930323 -4.11002 0
M  V30 3585 H 338.208 -0.0183004 -3.26595 0
M  V30 3586 H 336.867 -2.13187 -2.98239 0
M  V30 3587 H 336.515 -0.675012 -4.9845 0
M  V30 3588 H 336.215 -2.3885 -5.36865 0
M  V30 3589 H 337.739 -1.61455 -5.88867 0
M  V30 3590 H 339.153 -3.46316 -4.56879 0
M  V30 3591 H 337.55 -4.20158 -4.28471 0
M  V30 3592 H 338.62 -3.8801 -2.9082 0
M  V30 3593 N 339.963 1.05934 -1.16686 0
M  V30 3594 C 341.21 1.788 -0.950622 0
M  V30 3595 C 341.538 1.87384 0.521305 0
M  V30 3596 O 340.793 1.36438 1.40297 0
M  V30 3597 C 341.092 3.23105 -1.52767 0
M  V30 3598 C 340.758 3.34594 -3.02254 0
M  V30 3599 C 339.42 3.37437 -3.43059 0
M  V30 3600 C 341.772 3.36219 -3.98254 0
M  V30 3601 C 339.1 3.39525 -4.78477 0
M  V30 3602 C 341.452 3.39845 -5.33562 0
M  V30 3603 C 340.116 3.40971 -5.73842 0
M  V30 3604 H 339.386 0.654275 -0.347857 0
M  V30 3605 H 342.033 1.24555 -1.45459 0
M  V30 3606 H 340.338 3.80227 -0.94524 0
M  V30 3607 H 342.035 3.7809 -1.336 0
M  V30 3608 H 338.625 3.3309 -2.6972 0
M  V30 3609 H 342.809 3.33231 -3.67792 0
M  V30 3610 H 338.065 3.38703 -5.09009 0
M  V30 3611 H 342.239 3.4005 -6.07733 0
M  V30 3612 H 339.866 3.42342 -6.78753 0
M  V30 3613 N 341.441 0.965919 1.2453 0
M  V30 3614 C 342.688 0.626831 1.92554 0
M  V30 3615 C 343.016 -0.837739 1.75534 0
M  V30 3616 O 342.271 -1.61793 1.10098 0
M  V30 3617 C 342.57 0.945428 3.44669 0
M  V30 3618 C 342.236 2.39785 3.81856 0
M  V30 3619 C 340.898 2.79483 3.91718 0
M  V30 3620 C 343.25 3.34055 4.00071 0
M  V30 3621 C 340.578 4.12496 4.1721 0
M  V30 3622 C 342.93 4.66694 4.27059 0
M  V30 3623 C 341.594 5.06172 4.3514 0
M  V30 3624 H 340.864 0.229374 0.704605 0
M  V30 3625 H 343.511 1.21707 1.4785 0
M  V30 3626 H 341.816 0.272926 3.90848 0
M  V30 3627 H 343.513 0.661484 3.95507 0
M  V30 3628 H 340.103 2.08003 3.74743 0
M  V30 3629 H 344.287 3.04571 3.91855 0
M  V30 3630 H 339.543 4.42709 4.21685 0
M  V30 3631 H 343.717 5.3971 4.40097 0
M  V30 3632 H 341.344 6.09262 4.54646 0
M  V30 3633 N 342.919 -1.39368 0.735821 0
M  V30 3634 C 343.882 -2.2896 0.104874 0
M  V30 3635 C 344.882 -1.46347 -0.666274 0
M  V30 3636 O 346.072 -1.67014 -0.49517 0
M  V30 3637 C 343.204 -3.29857 -0.860656 0
M  V30 3638 H 344.397 -2.86259 0.894205 0
M  V30 3639 H 341.95 -1.48029 0.501704 0
M  V30 3640 H 342.685 -2.77615 -1.67631 0
M  V30 3641 H 342.47 -3.9087 -0.310327 0
M  V30 3642 H 343.96 -3.96893 -1.29867 0
M  V30 3643 N 344.397 -0.483516 -1.5 0
M  V30 3644 C 345.646 0.0689102 -2.01582 0
M  V30 3645 C 345.959 1.39655 -1.36952 0
M  V30 3646 O 347.165 2.03465 -1.79762 0
M  V30 3647 C 345.621 0.173302 -3.59483 0
M  V30 3648 C 345.229 -1.14665 -4.33077 0
M  V30 3649 C 346.973 0.677024 -4.19066 0
M  V30 3650 C 344.88 -1.00537 -5.82792 0
M  V30 3651 H 343.81 0.0295277 -0.753422 0
M  V30 3652 H 346.461 -0.620295 -1.72698 0
M  V30 3653 H 344.843 0.926569 -3.85007 0
M  V30 3654 H 346.017 -1.91184 -4.19268 0
M  V30 3655 H 344.332 -1.58244 -3.85159 0
M  V30 3656 H 346.929 0.799952 -5.28682 0
M  V30 3657 H 347.272 1.67151 -3.81269 0
M  V30 3658 H 347.805 -0.0192083 -3.97795 0
M  V30 3659 H 344.544 -1.9736 -6.25083 0
M  V30 3660 H 344.064 -0.280776 -5.99142 0
M  V30 3661 H 345.743 -0.677 -6.43448 0
M  V30 3662 N 345.875 1.56104 -0.216619 0
M  V30 3663 C 346.805 2.23063 0.690296 0
M  V30 3664 C 347.786 1.20072 1.20485 0
M  V30 3665 O 348.971 1.48643 1.24976 0
M  V30 3666 C 346.101 2.90672 1.90072 0
M  V30 3667 C 345.055 4.00092 1.5202 0
M  V30 3668 C 344.381 4.54972 2.80899 0
M  V30 3669 C 345.681 5.17398 0.71391 0
M  V30 3670 H 347.375 2.99109 0.132038 0
M  V30 3671 H 344.921 1.43866 0.0620664 0
M  V30 3672 H 346.874 3.36204 2.54057 0
M  V30 3673 H 345.598 2.12066 2.48386 0
M  V30 3674 H 344.257 3.55283 0.903839 0
M  V30 3675 H 343.905 3.73102 3.37348 0
M  V30 3676 H 343.605 5.28817 2.56176 0
M  V30 3677 H 345.129 5.0322 3.45836 0
M  V30 3678 H 346.543 5.59342 1.25735 0
M  V30 3679 H 344.94 5.97444 0.563951 0
M  V30 3680 H 346.01 4.84088 -0.280527 0
M  V30 3681 N 347.353 -0.0568162 1.57498 0
M  V30 3682 C 348.286 -1.09817 2.00039 0
M  V30 3683 C 349.264 -1.3674 0.879819 0
M  V30 3684 O 350.448 -1.49863 1.14338 0
M  V30 3685 C 347.575 -2.43924 2.34986 0
M  V30 3686 C 346.621 -2.33039 3.57204 0
M  V30 3687 S 347.454 -1.7102 5.07457 0
M  V30 3688 C 348.61 -3.06674 5.45621 0
M  V30 3689 H 348.843 -0.735701 2.88053 0
M  V30 3690 H 346.376 -0.265871 1.52094 0
M  V30 3691 H 348.334 -3.2106 2.55795 0
M  V30 3692 H 346.995 -2.77327 1.47474 0
M  V30 3693 H 346.188 -3.31973 3.79223 0
M  V30 3694 H 345.79 -1.64043 3.36104 0
M  V30 3695 H 348.082 -4.03 5.44608 0
M  V30 3696 H 349.025 -2.8942 6.46252 0
M  V30 3697 H 349.433 -3.07969 4.73091 0
M  V30 3698 N 348.832 -1.54138 -0.328536 0
M  V30 3699 C 350.079 -1.72105 -1.06706 0
M  V30 3700 C 350.407 -0.492111 -1.88171 0
M  V30 3701 O 349.662 0.526153 -1.88494 0
M  V30 3702 C 349.961 -2.9457 -2.02393 0
M  V30 3703 C 349.627 -4.29544 -1.37122 0
M  V30 3704 C 348.289 -4.6624 -1.19052 0
M  V30 3705 C 350.641 -5.1333 -0.902331 0
M  V30 3706 C 347.969 -5.84325 -0.527331 0
M  V30 3707 C 350.321 -6.32094 -0.252988 0
M  V30 3708 C 348.985 -6.67473 -0.0600901 0
M  V30 3709 H 348.255 -0.629775 -0.390466 0
M  V30 3710 H 350.902 -1.88372 -0.34473 0
M  V30 3711 H 349.207 -2.72969 -2.81061 0
M  V30 3712 H 350.904 -3.05665 -2.59557 0
M  V30 3713 H 347.494 -4.0067 -1.52188 0
M  V30 3714 H 351.678 -4.855 -1.02974 0
M  V30 3715 H 346.934 -6.103 -0.366634 0
M  V30 3716 H 351.108 -6.96299 0.118366 0
M  V30 3717 H 348.735 -7.58832 0.455828 0
M  V30 3718 N 350.31 0.590341 -1.46126 0
M  V30 3719 C 351.273 1.68194 -1.55703 0
M  V30 3720 C 352.273 1.54808 -0.434868 0
M  V30 3721 O 353.463 1.59564 -0.698928 0
M  V30 3722 C 350.595 3.07575 -1.47005 0
M  V30 3723 H 351.788 1.61064 -2.52979 0
M  V30 3724 H 349.341 0.807541 -1.33823 0
M  V30 3725 H 350.076 3.20268 -0.509785 0
M  V30 3726 H 349.861 3.187 -2.28414 0
M  V30 3727 H 351.351 3.87055 -1.56776 0
M  V30 3728 N 351.788 1.33704 0.83433 0
M  V30 3729 C 353.037 1.24763 1.58484 0
M  V30 3730 C 353.35 -0.183775 1.94735 0
M  V30 3731 O 354.556 -0.395234 2.68608 0
M  V30 3732 C 353.012 2.18638 2.85876 0
M  V30 3733 C 352.62 3.66974 2.56971 0
M  V30 3734 C 354.364 2.18581 3.63899 0
M  V30 3735 C 352.271 4.5275 3.80488 0
M  V30 3736 H 351.201 0.463425 0.594772 0
M  V30 3737 H 353.852 1.58797 0.919551 0
M  V30 3738 H 352.234 1.77542 3.5397 0
M  V30 3739 H 353.408 4.16538 1.9706 0
M  V30 3740 H 351.723 3.69366 1.92244 0
M  V30 3741 H 354.32 2.79894 4.55591 0
M  V30 3742 H 354.663 1.18207 3.99165 0
M  V30 3743 H 355.196 2.58062 3.02735 0
M  V30 3744 H 351.935 5.54017 3.5035 0
M  V30 3745 H 351.455 4.07927 4.39722 0
M  V30 3746 H 353.134 4.66784 4.4802 0
M  V30 3747 N 353.266 -1.05314 1.17247 0
M  V30 3748 C 354.515 -1.77685 0.954521 0
M  V30 3749 C 354.828 -1.88616 -0.518025 0
M  V30 3750 O 356.034 -2.57714 -0.854144 0
M  V30 3751 C 354.49 -3.19402 1.65863 0
M  V30 3752 C 354.098 -3.16605 3.16963 0
M  V30 3753 C 355.842 -3.96237 1.52303 0
M  V30 3754 C 353.749 -4.53103 3.80068 0
M  V30 3755 H 352.679 -0.666 0.353496 0
M  V30 3756 H 355.33 -1.1805 1.40486 0
M  V30 3757 H 353.712 -3.79355 1.13602 0
M  V30 3758 H 354.886 -2.66176 3.76148 0
M  V30 3759 H 353.201 -2.53268 3.30521 0
M  V30 3760 H 355.798 -4.97157 1.96822 0
M  V30 3761 H 356.141 -4.136 0.473401 0
M  V30 3762 H 356.674 -3.42829 2.01775 0
M  V30 3763 H 353.413 -4.40946 4.85023 0
M  V30 3764 H 352.933 -5.03686 3.2567 0
M  V30 3765 H 354.612 -5.22045 3.82202 0
M  V30 3766 N 354.744 -0.972509 -1.24016 0
M  V30 3767 C 355.992 -0.635776 -1.91839 0
M  V30 3768 C 356.313 0.832312 -1.76345 0
M  V30 3769 O 355.583 1.5946 -1.13795 0
M  V30 3770 H 354.163 -0.232157 -0.710009 0
M  V30 3771 H 356.825 -1.23462 -1.50809 0
M  V30 3772 H 355.921 -0.880545 -2.99421 0
M  V30 3773 N 356.222 1.38976 -0.743202 0
M  V30 3774 C 357.152 2.33171 -0.123873 0
M  V30 3775 C 358.133 1.54336 0.71516 0
M  V30 3776 O 359.318 1.82696 0.658467 0
M  V30 3777 C 356.448 3.38474 0.777978 0
M  V30 3778 C 355.402 4.27979 0.0424758 0
M  V30 3779 C 354.728 5.2405 1.06189 0
M  V30 3780 C 356.028 5.10155 -1.1198 0
M  V30 3781 H 357.722 2.85213 -0.910709 0
M  V30 3782 H 355.268 1.37133 -0.439388 0
M  V30 3783 H 357.221 4.03328 1.22084 0
M  V30 3784 H 355.945 2.84891 1.59702 0
M  V30 3785 H 354.604 3.64616 -0.380853 0
M  V30 3786 H 354.252 4.66758 1.87472 0
M  V30 3787 H 353.952 5.84785 0.574485 0
M  V30 3788 H 355.476 5.9178 1.50428 0
M  V30 3789 H 356.89 5.68307 -0.75499 0
M  V30 3790 H 355.287 5.80073 -1.53738 0
M  V30 3791 H 356.357 4.44504 -1.93764 0
M  V30 3792 N 357.7 0.491464 1.49741 0
M  V30 3793 C 358.61 -0.296835 2.32715 0
M  V30 3794 C 359.626 -0.976536 1.44013 0
M  V30 3795 O 360.802 -0.960023 1.77047 0
M  V30 3796 C 357.867 -1.35288 3.19215 0
M  V30 3797 C 356.928 -0.687632 4.23757 0
M  V30 3798 C 356.161 -1.69336 5.06123 0
M  V30 3799 O 356.384 -2.92219 4.89861 0
M  V30 3800 O 355.318 -1.25394 5.88693 0
M  V30 3801 H 359.144 0.382048 3.01287 0
M  V30 3802 H 356.729 0.252953 1.47243 0
M  V30 3803 H 358.611 -1.96411 3.72828 0
M  V30 3804 H 357.286 -2.01487 2.53347 0
M  V30 3805 H 356.193 -0.0369159 3.74082 0
M  V30 3806 H 357.526 -0.0682566 4.92153 0
M  V30 3807 N 359.178 -1.55987 0.224894 0
M  V30 3808 C 360.425 -1.9839 -0.4059 0
M  V30 3809 C 360.753 -1.11261 -1.59535 0
M  V30 3810 O 360.008 -0.158314 -1.95059 0
M  V30 3811 C 360.307 -3.46394 -0.880106 0
M  V30 3812 C 359.973 -4.5046 0.19918 0
M  V30 3813 C 358.635 -4.7864 0.495661 0
M  V30 3814 C 360.987 -5.12855 0.928939 0
M  V30 3815 C 358.315 -5.66497 1.52636 0
M  V30 3816 C 360.667 -6.01828 1.949 0
M  V30 3817 C 359.331 -6.28351 2.25236 0
M  V30 3818 H 358.601 -0.725961 -0.148529 0
M  V30 3819 H 361.248 -1.88668 0.328113 0
M  V30 3820 H 359.553 -3.53337 -1.69294 0
M  V30 3821 H 361.25 -3.76577 -1.37808 0
M  V30 3822 H 357.84 -4.28579 -0.0420526 0
M  V30 3823 H 362.024 -4.9115 0.713129 0
M  V30 3824 H 357.28 -5.8531 1.76698 0
M  V30 3825 H 361.454 -6.49225 2.51951 0
M  V30 3826 H 359.081 -6.96226 3.05244 0
M  V30 3827 N 360.656 0.0484629 -1.57525 0
M  V30 3828 C 361.886 0.754326 -1.92337 0
M  V30 3829 C 362.294 1.70443 -0.82132 0
M  V30 3830 O 361.637 1.82466 0.21254 0
M  V30 3831 C 361.699 1.58231 -3.22805 0
M  V30 3832 C 361.363 0.799074 -4.4996 0
M  V30 3833 C 362.36 0.1079 -5.19788 0
M  V30 3834 C 360.045 0.759345 -4.96527 0
M  V30 3835 C 362.039 -0.612516 -6.3445 0
M  V30 3836 C 359.726 0.0351713 -6.1109 0
M  V30 3837 C 360.724 -0.649537 -6.79904 0
M  V30 3838 O 360.412 -1.36199 -7.92278 0
M  V30 3839 H 360.144 0.218257 -0.639797 0
M  V30 3840 H 362.698 0.0159295 -2.05394 0
M  V30 3841 H 360.928 2.36406 -3.06021 0
M  V30 3842 H 362.617 2.16898 -3.43089 0
M  V30 3843 H 363.383 0.129748 -4.84826 0
M  V30 3844 H 359.262 1.28177 -4.42822 0
M  V30 3845 H 362.806 -1.14751 -6.88097 0
M  V30 3846 H 358.703 0.0113314 -6.45499 0
M  V30 3847 H 359.471 -1.27366 -8.0853 0
M  V30 3848 N 362.134 1.5431 0.320358 0
M  V30 3849 C 363.067 1.78769 1.41834 0
M  V30 3850 C 364.045 0.63783 1.49568 0
M  V30 3851 O 365.229 0.875628 1.66928 0
M  V30 3852 C 362.356 1.90712 2.79905 0
M  V30 3853 C 361.402 3.13023 2.89687 0
M  V30 3854 S 362.235 4.71554 2.53766 0
M  V30 3855 C 363.391 4.86408 3.93902 0
M  V30 3856 H 363.624 2.71619 1.20874 0
M  V30 3857 H 361.157 1.45474 0.517377 0
M  V30 3858 H 363.115 1.98279 3.59438 0
M  V30 3859 H 361.776 0.988343 2.98145 0
M  V30 3860 H 360.969 3.18124 3.90913 0
M  V30 3861 H 360.571 3.03803 2.18128 0
M  V30 3862 H 362.863 4.69241 4.88691 0
M  V30 3863 H 363.806 5.88508 3.93782 0
M  V30 3864 H 364.214 4.14689 3.83005 0
M  V30 3865 N 363.613 -0.582584 1.46437 0
M  V30 3866 C 364.861 -1.33814 1.51453 0
M  V30 3867 C 365.182 -1.94277 0.167792 0
M  V30 3868 O 364.452 -1.78566 -0.805677 0
M  V30 3869 H 363.032 -0.496838 0.557818 0
M  V30 3870 H 365.694 -0.682281 1.82568 0
M  V30 3871 H 364.79 -2.14479 2.26728 0
M  V30 3872 N 365.091 -1.34144 -0.827227 0
M  V30 3873 C 366.038 -1.25364 -1.93785 0
M  V30 3874 C 367.008 -0.129774 -1.65592 0
M  V30 3875 O 368.193 -0.310024 -1.88264 0
M  V30 3876 C 365.333 -1.01064 -3.2997 0
M  V30 3877 C 364.446 -2.22185 -3.70484 0
M  V30 3878 C 363.581 -1.91203 -4.95595 0
M  V30 3879 C 362.62 -3.08491 -5.28677 0
M  V30 3880 N 361.757 -2.77421 -6.44967 0
M  V30 3881 H 366.597 -2.20347 -2.00627 0
M  V30 3882 H 364.134 -1.09558 -0.981608 0
M  V30 3883 H 366.092 -0.850139 -4.08446 0
M  V30 3884 H 364.722 -0.0975026 -3.22653 0
M  V30 3885 H 363.774 -2.4917 -2.87434 0
M  V30 3886 H 365.086 -3.0983 -3.90905 0
M  V30 3887 H 364.24 -1.71864 -5.81848 0
M  V30 3888 H 362.979 -1.00812 -4.77167 0
M  V30 3889 H 361.984 -3.28431 -4.40923 0
M  V30 3890 H 363.209 -3.99655 -5.49047 0
M  V30 3891 H 361.155 -1.89601 -6.28003 0
M  V30 3892 H 361.072 -3.58598 -6.6554 0
M  V30 3893 H 362.34 -2.61577 -7.34301 0
M  V30 3894 N 366.569 1.04691 -1.17803 0
M  V30 3895 C 367.816 1.77782 -0.969532 0
M  V30 3896 C 368.144 1.87926 0.501401 0
M  V30 3897 O 367.399 1.37918 1.38842 0
M  V30 3898 C 367.698 3.21467 -1.56186 0
M  V30 3899 C 367.364 3.3137 -3.05786 0
M  V30 3900 C 366.026 3.3378 -3.46619 0
M  V30 3901 C 368.378 3.31976 -4.01797 0
M  V30 3902 C 365.706 3.34431 -4.82051 0
M  V30 3903 C 368.058 3.34167 -5.37136 0
M  V30 3904 C 366.722 3.34866 -5.77426 0
M  V30 3905 H 365.992 0.650549 -0.354777 0
M  V30 3906 H 368.639 1.23006 -1.46772 0
M  V30 3907 H 366.944 3.79203 -0.985515 0
M  V30 3908 H 368.641 3.76652 -1.37602 0
M  V30 3909 H 365.231 3.3021 -2.73238 0
M  V30 3910 H 369.415 3.29311 -3.71306 0
M  V30 3911 H 364.671 3.33285 -5.12573 0
M  V30 3912 H 368.845 3.33585 -6.11305 0
M  V30 3913 H 366.472 3.35124 -6.82346 0
M  V30 3914 N 368.047 0.979072 1.23499 0
M  V30 3915 C 368.997 0.489378 2.22686 0
M  V30 3916 C 369.981 -0.434871 1.54912 0
M  V30 3917 O 371.173 -0.263941 1.75021 0
M  V30 3918 C 368.302 -0.208178 3.42668 0
M  V30 3919 C 367.388 0.735563 4.17672 0
M  V30 3920 N 367.779 1.87763 4.69658 0
M  V30 3921 C 366.077 0.548625 4.42613 0
M  V30 3922 C 366.778 2.46886 5.26709 0
M  V30 3923 N 365.754 1.75287 5.14563 0
M  V30 3924 H 369.556 1.36062 2.60508 0
M  V30 3925 H 367.07 0.83958 1.39014 0
M  V30 3926 H 369.067 -0.576295 4.12898 0
M  V30 3927 H 367.727 -1.07572 3.06363 0
M  V30 3928 H 368.738 2.25885 4.66043 0
M  V30 3929 H 365.415 -0.274006 4.166 0
M  V30 3930 H 366.805 3.43326 5.77561 0
M  V30 3931 N 369.525 -1.3858 0.750561 0
M  V30 3932 C 370.472 -2.30483 0.120835 0
M  V30 3933 C 371.442 -1.50022 -0.712923 0
M  V30 3934 O 372.627 -1.78662 -0.669676 0
M  V30 3935 C 369.767 -3.36431 -0.768666 0
M  V30 3936 C 368.88 -4.31927 0.0793922 0
M  V30 3937 C 368.015 -5.24944 -0.81283 0
M  V30 3938 C 367.054 -6.12088 0.0390447 0
M  V30 3939 N 366.191 -6.97412 -0.809969 0
M  V30 3940 H 371.031 -2.83761 0.91015 0
M  V30 3941 H 368.568 -1.39707 0.460463 0
M  V30 3942 H 370.526 -3.96462 -1.29898 0
M  V30 3943 H 369.156 -2.8457 -1.5238 0
M  V30 3944 H 368.208 -3.73382 0.727303 0
M  V30 3945 H 369.52 -4.93319 0.737401 0
M  V30 3946 H 368.674 -5.90078 -1.41042 0
M  V30 3947 H 367.413 -4.63911 -1.50458 0
M  V30 3948 H 366.418 -5.45952 0.649328 0
M  V30 3949 H 367.643 -6.75189 0.727809 0
M  V30 3950 H 365.589 -6.38931 -1.48672 0
M  V30 3951 H 365.506 -7.55712 -0.208789 0
M  V30 3952 H 366.774 -7.66959 -1.39263 0
M  V30 3953 N 371.003 -0.499398 -1.49478 0
M  V30 3954 C 371.966 0.268838 -2.27618 0
M  V30 3955 C 372.966 0.895383 -1.33565 0
M  V30 3956 O 374.156 0.760164 -1.56739 0
M  V30 3957 C 371.288 1.38559 -3.11471 0
M  V30 3958 H 372.481 -0.416812 -2.96989 0
M  V30 3959 H 370.034 -0.254313 -1.54217 0
M  V30 3960 H 370.769 2.10544 -2.46661 0
M  V30 3961 H 370.554 0.941797 -3.80621 0
M  V30 3962 H 372.044 1.92678 -3.70493 0
M  V30 3963 N 372.481 1.55866 -0.233164 0
M  V30 3964 C 373.721 2.00506 0.397078 0
M  V30 3965 C 374.085 1.1176 1.56121 0
M  V30 3966 O 375.286 1.45796 2.25825 0
M  V30 3967 C 373.557 3.4811 0.809601 0
M  V30 3968 S 375.116 4.14765 1.43231 0
M  V30 3969 H 371.934 0.699828 0.125547 0
M  V30 3970 H 374.536 1.92429 -0.345177 0
M  V30 3971 H 373.24 4.10373 -0.0471601 0
M  V30 3972 H 372.771 3.60085 1.58438 0
M  V30 3973 H 374.786 4.14914 2.7214 0
M  V30 3974 N 373.959 -0.0401083 1.57549 0
M  V30 3975 C 375.206 -0.733125 1.88763 0
M  V30 3976 C 375.534 -1.75946 0.829058 0
M  V30 3977 O 374.789 -1.94949 -0.171323 0
M  V30 3978 C 375.088 -1.44902 3.26708 0
M  V30 3979 C 374.754 -0.559707 4.47413 0
M  V30 3980 C 373.416 -0.314731 4.8017 0
M  V30 3981 C 375.768 0.0549743 5.21171 0
M  V30 3982 C 373.096 0.553886 5.8408 0
M  V30 3983 C 375.448 0.911229 6.26003 0
M  V30 3984 C 374.112 1.16577 6.57241 0
M  V30 3985 H 373.382 -0.268269 0.690733 0
M  V30 3986 H 376.029 0.00679408 1.91499 0
M  V30 3987 H 374.334 -2.26197 3.1991 0
M  V30 3988 H 376.031 -1.99058 3.48105 0
M  V30 3989 H 372.621 -0.760793 4.21794 0
M  V30 3990 H 376.805 -0.121344 4.96152 0
M  V30 3991 H 372.061 0.759518 6.06664 0
M  V30 3992 H 376.235 1.3941 6.82303 0
M  V30 3993 H 373.862 1.84058 7.37582 0
M  V30 3994 N 375.437 -1.54477 -0.31217 0
M  V30 3995 C 376.848 -1.64344 -0.885891 0
M  V30 3996 C 377.199 -0.54485 -1.88483 0
M  V30 3997 O 376.324 0.320387 -2.14015 0
M  V30 3998 C 376.919 -2.97908 -1.61357 0
M  V30 3999 C 375.478 -3.09933 -2.13585 0
M  V30 4000 C 374.625 -2.59971 -0.964897 0
M  V30 4001 H 377.576 -1.58448 -0.0894528 0
M  V30 4002 H 377.597 -2.88706 -2.47848 0
M  V30 4003 H 377.109 -3.77845 -0.886277 0
M  V30 4004 H 375.21 -2.34694 -2.89395 0
M  V30 4005 H 375.323 -4.15916 -2.37804 0
M  V30 4006 H 373.687 -2.16147 -1.34731 0
M  V30 4007 H 374.47 -3.42376 -0.251742 0
M  V30 4008 N 376.915 0.57481 -1.46744 0
M  V30 4009 C 377.863 1.70435 -1.58286 0
M  V30 4010 C 378.857 1.63287 -0.450956 0
M  V30 4011 O 380.063 1.68685 -0.628121 0
M  V30 4012 H 376.438 0.56364 -0.497809 0
M  V30 4013 H 378.409 1.57833 -2.53242 0
M  V30 4014 C 377.158 3.08815 -1.59776 0
M  V30 4015 H 376.481 3.1499 -2.46214 0
M  V30 4016 H 377.921 3.87588 -1.71905 0
M  V30 4017 C 376.38 3.35301 -0.327812 0
M  V30 4018 O 376.91 3.97511 0.57861 0
M  V30 4019 N 375.116 2.89816 -0.213274 0
M  V30 4020 H 374.663 2.39371 -0.951798 0
M  V30 4021 H 374.621 3.0791 0.63553 0
M  V30 4022 N 378.394 1.34581 0.820102 0
M  V30 4023 C 379.619 1.30333 1.61332 0
M  V30 4024 C 380.044 -0.119339 1.87721 0
M  V30 4025 O 379.402 -1.08197 1.45475 0
M  V30 4026 C 379.45 2.10258 2.92957 0
M  V30 4027 O 378.554 1.47404 3.85157 0
M  V30 4028 H 377.895 0.447488 0.490561 0
M  V30 4029 H 380.425 1.77425 1.01889 0
M  V30 4030 H 380.435 2.21718 3.42498 0
M  V30 4031 H 379.11 3.13693 2.73074 0
M  V30 4032 H 377.687 1.44703 3.43679 0
M  V30 4033 N 379.872 -1.04064 1.18357 0
M  V30 4034 C 381.1 -1.80916 1.00384 0
M  V30 4035 C 381.515 -1.83414 -0.447738 0
M  V30 4036 O 380.872 -1.26962 -1.31099 0
M  V30 4037 C 380.923 -3.26516 1.55144 0
M  V30 4038 O 380.644 -3.2424 2.94618 0
M  V30 4039 C 382.145 -4.20013 1.41789 0
M  V30 4040 H 379.365 -0.569728 0.354474 0
M  V30 4041 H 381.909 -1.31151 1.56906 0
M  V30 4042 H 380.064 -3.73512 1.02798 0
M  V30 4043 H 380.478 -4.15452 3.20156 0
M  V30 4044 H 381.952 -5.20111 1.84901 0
M  V30 4045 H 382.429 -4.37667 0.36661 0
M  V30 4046 H 383.035 -3.78881 1.93207 0
M  V30 4047 N 381.35 -0.985608 -1.22978 0
M  V30 4048 C 382.627 -0.573599 -1.87001 0
M  V30 4049 C 383.007 0.949213 -1.88555 0
M  V30 4050 O 382.355 1.82811 -1.37086 0
M  V30 4051 C 382.565 -1.18564 -3.28243 0
M  V30 4052 C 383.913 -1.28163 -4.04796 0
M  V30 4053 O 384.937 -1.13949 -3.37482 0
M  V30 4054 O 383.796 -1.50832 -5.25273 0
M  V30 4055 H 380.89 -0.193868 -0.803955 0
M  V30 4056 H 383.436 -1.08102 -1.30813 0
M  V30 4057 H 382.208 -2.22758 -3.21706 0
M  V30 4058 H 381.831 -0.663363 -3.92027 0
M  V30 4059 N 382.828 1.3818 -0.7579 0
M  V30 4060 C 383.791 2.28764 -0.141286 0
M  V30 4061 C 384.791 1.47388 0.642907 0
M  V30 4062 O 385.981 1.67781 0.468536 0
M  V30 4063 C 383.113 3.31184 0.808069 0
M  V30 4064 H 384.306 2.848 -0.939633 0
M  V30 4065 H 381.859 1.47212 -0.525191 0
M  V30 4066 H 382.594 2.80247 1.63193 0
M  V30 4067 H 382.379 3.91314 0.248104 0
M  V30 4068 H 383.869 3.98909 1.23536 0
M  V30 4069 N 384.306 0.507319 1.49211 0
M  V30 4070 C 385.216 -0.272136 2.33016 0
M  V30 4071 C 386.232 -0.961206 1.45041 0
M  V30 4072 O 387.408 -0.941191 1.78055 0
M  V30 4073 C 384.473 -1.31895 3.20631 0
M  V30 4074 C 383.534 -0.642648 4.24463 0
M  V30 4075 C 382.767 -1.63959 5.07891 0
M  V30 4076 O 382.99 -2.87007 4.92933 0
M  V30 4077 O 381.924 -1.19143 5.8999 0
M  V30 4078 H 385.75 0.413982 3.00865 0
M  V30 4079 H 383.335 0.268556 1.46966 0
M  V30 4080 H 385.217 -1.92446 3.7489 0
M  V30 4081 H 383.892 -1.98788 2.5547 0
M  V30 4082 H 382.799 0.00276252 3.741 0
M  V30 4083 H 384.132 -0.0160534 4.92197 0
M  V30 4084 N 385.784 -1.5574 0.241426 0
M  V30 4085 C 387.195 -1.84842 -0.262755 0
M  V30 4086 C 387.546 -1.16317 -1.58003 0
M  V30 4087 O 386.671 -0.439653 -2.11887 0
M  V30 4088 C 387.266 -3.35332 -0.483523 0
M  V30 4089 C 385.825 -3.6468 -0.931977 0
M  V30 4090 C 384.972 -2.77299 -0.0061151 0
M  V30 4091 H 387.923 -1.51761 0.464129 0
M  V30 4092 H 387.944 -3.56615 -1.32688 0
M  V30 4093 H 387.456 -3.85178 0.47537 0
M  V30 4094 H 385.557 -3.20307 -1.90353 0
M  V30 4095 H 385.67 -4.72498 -0.792628 0
M  V30 4096 H 384.034 -2.49408 -0.516503 0
M  V30 4097 H 384.817 -3.2995 0.948052 0
M  V30 4098 N 387.262 0.0317525 -1.57568 0
M  V30 4099 C 388.508 0.724175 -1.8943 0
M  V30 4100 C 388.841 1.75149 -0.838836 0
M  V30 4101 O 388.116 1.93948 0.146422 0
M  V30 4102 C 388.399 1.39615 -3.31933 0
M  V30 4103 C 388.252 0.382537 -4.4817 0
M  V30 4104 C 389.571 2.33084 -3.73309 0
M  V30 4105 H 386.69 0.261797 -0.688935 0
M  V30 4106 H 389.332 -0.013017 -1.89996 0
M  V30 4107 H 387.482 2.02451 -3.31581 0
M  V30 4108 H 389.154 -0.243689 -4.60656 0
M  V30 4109 H 387.397 -0.29844 -4.32772 0
M  V30 4110 H 388.068 0.891145 -5.44759 0
M  V30 4111 H 390.544 1.80295 -3.7501 0
M  V30 4112 H 389.42 2.77084 -4.73831 0
M  V30 4113 H 389.681 3.19643 -3.05419 0
M  V30 4114 N 388.74 1.54641 0.303973 0
M  V30 4115 C 389.988 1.73437 1.0375 0
M  V30 4116 C 390.309 0.521449 1.87899 0
M  V30 4117 O 389.579 -0.46432 1.90318 0
M  V30 4118 H 388.159 0.639518 0.386039 0
M  V30 4119 H 390.821 1.91988 0.335675 0
M  V30 4120 H 389.917 2.62235 1.69231 0
M  V30 4121 N 390.218 -0.567019 1.47046 0
M  V30 4122 C 391.495 -1.3276 1.43646 0
M  V30 4123 C 391.875 -2.1071 0.128186 0
M  V30 4124 O 391.223 -2.10441 -0.890326 0
M  V30 4125 C 391.433 -2.2404 2.67595 0
M  V30 4126 C 392.781 -2.85372 3.14401 0
M  V30 4127 O 393.805 -2.34346 2.68254 0
M  V30 4128 O 392.664 -3.78091 3.946 0
M  V30 4129 H 389.758 -0.597293 0.571988 0
M  V30 4130 H 392.304 -0.586735 1.59234 0
M  V30 4131 H 391.076 -1.65975 3.54356 0
M  V30 4132 H 390.699 -3.05439 2.54544 0
M  V30 4133 N 391.696 -1.35014 -0.812953 0
M  V30 4134 C 392.943 -1.27931 -1.56971 0
M  V30 4135 C 393.271 0.148034 -1.93936 0
M  V30 4136 O 392.526 1.11175 -1.61054 0
M  V30 4137 C 392.825 -2.12524 -2.87347 0
M  V30 4138 C 392.491 -3.61401 -2.6963 0
M  V30 4139 C 391.153 -4.01983 -2.64506 0
M  V30 4140 C 393.505 -4.55894 -2.52607 0
M  V30 4141 C 390.833 -5.35235 -2.40293 0
M  V30 4142 C 393.185 -5.89336 -2.29925 0
M  V30 4143 C 391.849 -6.2907 -2.23219 0
M  V30 4144 H 391.119 -0.468131 -0.574399 0
M  V30 4145 H 393.766 -1.66851 -0.939836 0
M  V30 4146 H 392.071 -1.66463 -3.54679 0
M  V30 4147 H 393.768 -2.04383 -3.45005 0
M  V30 4148 H 390.358 -3.29193 -2.74463 0
M  V30 4149 H 394.542 -4.25431 -2.55583 0
M  V30 4150 H 389.798 -5.65028 -2.33566 0
M  V30 4151 H 393.972 -6.62139 -2.15743 0
M  V30 4152 H 391.599 -7.32256 -2.04219 0
M  V30 4153 N 393.175 1.03435 -1.18907 0
M  V30 4154 C 394.586 1.58195 -0.991523 0
M  V30 4155 C 394.937 1.90801 0.457081 0
M  V30 4156 O 394.062 1.70272 1.33553 0
M  V30 4157 C 394.657 2.87432 -1.79355 0
M  V30 4158 C 393.216 3.38785 -1.64017 0
M  V30 4159 C 392.363 2.12292 -1.78402 0
M  V30 4160 H 395.314 0.860299 -1.33359 0
M  V30 4161 H 395.335 3.58096 -1.28638 0
M  V30 4162 H 394.847 2.63669 -2.84781 0
M  V30 4163 H 392.948 3.67547 -0.611536 0
M  V30 4164 H 393.061 4.12186 -2.44212 0
M  V30 4165 H 391.425 2.23901 -1.2141 0
M  V30 4166 H 392.208 1.90977 -2.85277 0
M  V30 4167 N 394.653 0.992116 1.22453 0
M  V30 4168 C 395.893 0.675727 1.92907 0
M  V30 4169 C 396.257 -0.777762 1.75542 0
M  V30 4170 O 397.458 -1.20553 2.40251 0
M  V30 4171 C 395.729 1.0696 3.4102 0
M  V30 4172 S 397.288 0.871456 4.30059 0
M  V30 4173 H 394.106 0.247089 0.666684 0
M  V30 4174 H 396.708 1.27423 1.48269 0
M  V30 4175 H 395.412 2.12383 3.51172 0
M  V30 4176 H 394.943 0.462858 3.90668 0
M  V30 4177 H 396.958 -0.238436 4.95627 0
M  V30 4178 N 396.131 -1.37776 0.765217 0
M  V30 4179 C 397.379 -1.99454 0.325943 0
M  V30 4180 C 397.7 -1.61049 -1.09947 0
M  V30 4181 O 396.97 -0.872821 -1.75381 0
M  V30 4182 H 395.55 -0.737697 0.117525 0
M  V30 4183 H 398.212 -1.68359 0.981895 0
M  V30 4184 H 397.308 -3.09547 0.398353 0
M  V30 4185 N 397.609 -0.515225 -1.4894 0
M  V30 4186 C 398.556 0.255567 -2.29381 0
M  V30 4187 C 399.526 0.947387 -1.36432 0
M  V30 4188 O 400.711 0.951288 -1.65394 0
M  V30 4189 C 397.851 1.30551 -3.19453 0
M  V30 4190 C 396.964 0.624029 -4.27469 0
M  V30 4191 C 396.099 1.65563 -5.0474 0
M  V30 4192 C 395.138 0.956802 -6.04576 0
M  V30 4193 N 394.275 1.93326 -6.74959 0
M  V30 4194 H 399.115 -0.436607 -2.94784 0
M  V30 4195 H 396.652 -0.227154 -1.45336 0
M  V30 4196 H 398.61 1.92639 -3.70062 0
M  V30 4197 H 397.24 1.96626 -2.56004 0
M  V30 4198 H 396.292 -0.110459 -3.8024 0
M  V30 4199 H 397.604 0.0746092 -4.98744 0
M  V30 4200 H 396.758 2.35119 -5.59289 0
M  V30 4201 H 395.497 2.23893 -4.3327 0
M  V30 4202 H 394.502 0.247097 -5.49244 0
M  V30 4203 H 395.727 0.379814 -6.78037 0
M  V30 4204 H 393.673 2.50591 -6.06251 0
M  V30 4205 H 393.59 1.43489 -7.42258 0
M  V30 4206 H 394.858 2.62126 -7.34105 0
M  V30 4207 N 399.087 1.5561 -0.249682 0
M  V30 4208 C 399.997 2.25143 0.659375 0
M  V30 4209 C 401.013 1.2685 1.19101 0
M  V30 4210 O 402.189 1.59732 1.22669 0
M  V30 4211 C 399.254 2.93945 1.8384 0
M  V30 4212 C 398.315 4.07655 1.34596 0
M  V30 4213 C 397.548 4.73167 2.46878 0
M  V30 4214 O 397.771 4.37768 3.65671 0
M  V30 4215 O 396.705 5.61623 2.16478 0
M  V30 4216 H 400.531 3.03545 0.0968698 0
M  V30 4217 H 398.116 1.49389 -0.018074 0
M  V30 4218 H 399.998 3.37271 2.52638 0
M  V30 4219 H 398.673 2.18481 2.38847 0
M  V30 4220 H 397.58 3.68839 0.625174 0
M  V30 4221 H 398.913 4.84946 0.841941 0
M  V30 4222 N 400.565 -0.0233959 1.57583 0
M  V30 4223 C 401.528 -1.00693 2.05897 0
M  V30 4224 C 402.528 -1.28693 0.964092 0
M  V30 4225 O 403.718 -1.23602 1.22753 0
M  V30 4226 C 400.85 -2.33825 2.4807 0
M  V30 4227 H 402.043 -0.589476 2.9405 0
M  V30 4228 H 399.596 -0.270354 1.53944 0
M  V30 4229 H 400.331 -2.80307 1.6309 0
M  V30 4230 H 400.116 -2.1483 3.2801 0
M  V30 4231 H 401.606 -3.04426 2.85857 0
M  V30 4232 N 402.043 -1.548 -0.295768 0
M  V30 4233 C 403.454 -1.65274 -0.868411 0
M  V30 4234 C 403.805 -0.56481 -1.87894 0
M  V30 4235 O 402.93 0.29767 -2.14343 0
M  V30 4236 C 403.525 -2.99603 -1.58188 0
M  V30 4237 C 402.084 -3.12181 -2.10286 0
M  V30 4238 C 401.231 -2.6098 -0.93727 0
M  V30 4239 H 404.182 -1.58534 -0.0726422 0
M  V30 4240 H 404.203 -2.91319 -2.44772 0
M  V30 4241 H 403.715 -3.78764 -0.846151 0
M  V30 4242 H 401.816 -2.3775 -2.8689 0
M  V30 4243 H 401.929 -4.18415 -2.33379 0
M  V30 4244 H 400.293 -2.17564 -1.32431 0
M  V30 4245 H 401.076 -3.42623 -0.215414 0
M  V30 4246 N 403.521 0.559213 -1.47345 0
M  V30 4247 C 404.484 1.64854 -1.59235 0
M  V30 4248 C 405.484 1.53851 -0.467607 0
M  V30 4249 O 406.674 1.58045 -0.732617 0
M  V30 4250 C 403.806 3.04388 -1.53496 0
M  V30 4251 H 404.999 1.55662 -2.56339 0
M  V30 4252 H 402.552 0.778973 -1.35505 0
M  V30 4253 H 403.287 3.19115 -0.577604 0
M  V30 4254 H 403.072 3.13783 -2.35123 0
M  V30 4255 H 404.562 3.83642 -1.6495 0
M  V30 4256 N 404.999 1.35443 0.805782 0
M  V30 4257 C 406.415 1.15499 1.10146 0
M  V30 4258 C 406.615 -0.0319975 2.01475 0
M  V30 4259 O 405.671 -0.70236 2.42535 0
M  V30 4260 C 406.984 2.45833 1.73166 0
M  V30 4261 C 408.532 2.52047 1.85583 0
M  V30 4262 C 409.007 3.82427 2.52019 0
M  V30 4263 N 410.498 3.83682 2.59504 0
M  V30 4264 C 411.233 4.81294 3.11679 0
M  V30 4265 N 410.729 5.89294 3.64287 0
M  V30 4266 N 412.522 4.6873 3.1024 0
M  V30 4267 H 404.673 2.11469 0.198678 0
M  V30 4268 H 406.936 0.93594 0.150731 0
M  V30 4269 H 406.642 3.32874 1.13526 0
M  V30 4270 H 406.516 2.6044 2.72857 0
M  V30 4271 H 408.903 1.65435 2.44367 0
M  V30 4272 H 408.984 2.41354 0.847455 0
M  V30 4273 H 408.628 4.69437 1.93885 0
M  V30 4274 H 408.558 3.90409 3.53395 0
M  V30 4275 H 411.049 3.05648 2.22234 0
M  V30 4276 H 411.362 6.59768 4.02401 0
M  V30 4277 H 409.707 5.92985 3.62483 0
M  V30 4278 H 412.898 3.83496 2.68419 0
M  V30 4279 H 413.071 5.44965 3.50596 0
M  V30 4280 N 406.477 -1.02803 1.19454 0
M  V30 4281 C 407.407 -2.12999 0.956758 0
M  V30 4282 C 408.388 -1.69743 -0.110188 0
M  V30 4283 O 409.573 -1.94148 0.0450038 0
M  V30 4284 C 406.703 -3.43746 0.495553 0
M  V30 4285 C 405.657 -4.00688 1.50443 0
M  V30 4286 C 404.983 -5.27067 0.900275 0
M  V30 4287 C 406.283 -4.35397 2.8849 0
M  V30 4288 H 407.977 -2.33148 1.87836 0
M  V30 4289 H 405.523 -1.12045 0.904539 0
M  V30 4290 H 407.476 -4.2021 0.316493 0
M  V30 4291 H 406.2 -3.23321 -0.461646 0
M  V30 4292 H 404.859 -3.2632 1.67065 0
M  V30 4293 H 404.507 -5.02959 -0.064503 0
M  V30 4294 H 404.207 -5.66127 1.57397 0
M  V30 4295 H 405.731 -6.06196 0.73203 0
M  V30 4296 H 407.145 -5.02795 2.75446 0
M  V30 4297 H 405.542 -4.85541 3.52661 0
M  V30 4298 H 406.612 -3.44662 3.41081 0
M  V30 4299 N 407.956 -0.998596 -1.21925 0
M  V30 4300 C 409.196 -0.685948 -1.92546 0
M  V30 4301 C 409.56 0.768441 -1.75952 0
M  V30 4302 O 410.761 1.19277 -2.40887 0
M  V30 4303 C 409.032 -1.08767 -3.40448 0
M  V30 4304 S 410.591 -0.894251 -4.29591 0
M  V30 4305 H 407.409 -0.250622 -0.665364 0
M  V30 4306 H 410.011 -1.28207 -1.47591 0
M  V30 4307 H 408.715 -2.14242 -3.50041 0
M  V30 4308 H 408.246 -0.48357 -3.90417 0
M  V30 4309 H 410.261 0.212149 -4.95746 0
M  V30 4310 N 409.434 1.37368 -0.772513 0
M  V30 4311 C 410.344 2.34053 -0.160081 0
M  V30 4312 C 411.36 1.60216 0.678728 0
M  V30 4313 O 412.536 1.92303 0.59847 0
M  V30 4314 C 409.601 3.3939 0.708182 0
M  V30 4315 C 408.662 4.29048 -0.147172 0
M  V30 4316 C 407.895 5.29354 0.679744 0
M  V30 4317 O 408.118 5.3723 1.91678 0
M  V30 4318 O 407.052 6.01835 0.0885444 0
M  V30 4319 H 410.878 2.88159 -0.959053 0
M  V30 4320 H 408.463 1.39543 -0.533685 0
M  V30 4321 H 410.345 4.03839 1.20384 0
M  V30 4322 H 409.02 2.8761 1.48533 0
M  V30 4323 H 407.927 3.67697 -0.689205 0
M  V30 4324 H 409.26 4.84134 -0.887423 0
M  V30 4325 N 410.912 0.523116 1.48665 0
M  V30 4326 C 412.16 -0.0134497 2.02096 0
M  V30 4327 C 412.481 -1.35418 1.40311 0
M  V30 4328 O 411.751 -1.87543 0.566074 0
M  V30 4329 H 410.331 -0.00795915 0.746958 0
M  V30 4330 H 412.993 0.685388 1.82451 0
M  V30 4331 H 412.089 -0.126849 3.11842 0
M  V30 4332 N 412.39 -1.55475 0.257931 0
M  V30 4333 C 413.667 -1.91155 -0.414629 0
M  V30 4334 C 414.047 -1.18008 -1.75035 0
M  V30 4335 O 413.395 -0.301193 -2.26506 0
M  V30 4336 C 413.605 -3.44283 -0.571859 0
M  V30 4337 C 414.953 -4.15744 -0.862678 0
M  V30 4338 O 415.977 -3.50083 -0.657314 0
M  V30 4339 O 414.836 -5.31909 -1.2544 0
M  V30 4340 H 411.93 -0.796016 -0.22425 0
M  V30 4341 H 414.476 -1.66976 0.302814 0
M  V30 4342 H 413.248 -3.89558 0.368844 0
M  V30 4343 H 412.871 -3.7436 -1.33943 0
M  V30 4344 N 413.868 0.0150385 -1.57593 0
M  V30 4345 C 415.096 0.714395 -1.94175 0
M  V30 4346 C 415.511 1.68135 -0.858841 0
M  V30 4347 O 414.868 1.81766 0.163567 0
M  V30 4348 C 414.919 1.45933 -3.30735 0
M  V30 4349 O 414.64 0.531167 -4.34868 0
M  V30 4350 C 416.141 2.25456 -3.81686 0
M  V30 4351 H 413.361 0.199923 -0.640525 0
M  V30 4352 H 415.905 -0.0316096 -2.04476 0
M  V30 4353 H 414.06 2.15709 -3.21789 0
M  V30 4354 H 414.474 1.05509 -5.13778 0
M  V30 4355 H 415.948 2.731 -4.79709 0
M  V30 4356 H 416.425 3.07485 -3.13607 0
M  V30 4357 H 417.031 1.60727 -3.9376 0
M  V30 4358 N 415.346 1.54954 0.287554 0
M  V30 4359 C 416.256 1.8991 1.37736 0
M  V30 4360 C 417.272 0.794701 1.54792 0
M  V30 4361 O 418.448 1.09243 1.69198 0
M  V30 4362 C 415.513 2.15108 2.71899 0
M  V30 4363 C 414.574 3.38752 2.63715 0
M  V30 4364 C 413.807 3.62739 3.91479 0
M  V30 4365 O 414.03 2.89492 4.91478 0
M  V30 4366 O 412.964 4.56267 3.92561 0
M  V30 4367 H 416.79 2.82652 1.11092 0
M  V30 4368 H 414.375 1.41315 0.484807 0
M  V30 4369 H 416.257 2.32806 3.51254 0
M  V30 4370 H 414.932 1.25551 2.9836 0
M  V30 4371 H 413.839 3.26405 1.82786 0
M  V30 4372 H 415.172 4.28483 2.42205 0
M  V30 4373 N 416.824 -0.551391 1.4764 0
M  V30 4374 C 418.064 -1.31901 1.56145 0
M  V30 4375 C 418.428 -1.90724 0.221013 0
M  V30 4376 O 419.629 -2.6819 0.180945 0
M  V30 4377 C 417.9 -2.39517 2.65267 0
M  V30 4378 S 419.459 -3.26289 2.93395 0
M  V30 4379 H 416.277 -0.448965 0.551318 0
M  V30 4380 H 418.879 -0.630599 1.85051 0
M  V30 4381 H 417.583 -1.94747 3.6125 0
M  V30 4382 H 417.114 -3.13092 2.38195 0
M  V30 4383 H 419.129 -4.39122 2.31055 0
M  V30 4384 N 418.302 -1.35869 -0.798587 0
M  V30 4385 C 419.718 -1.16082 -1.09532 0
M  V30 4386 C 419.918 0.0213124 -2.01489 0
M  V30 4387 O 418.974 0.689488 -2.42904 0
M  V30 4388 C 420.287 -2.46748 -1.7186 0
M  V30 4389 C 421.835 -2.53028 -1.84244 0
M  V30 4390 C 422.31 -3.83758 -2.49988 0
M  V30 4391 N 423.801 -3.85053 -2.57465 0
M  V30 4392 C 424.536 -4.8294 -3.09122 0
M  V30 4393 N 424.032 -5.91217 -3.61157 0
M  V30 4394 N 425.825 -4.70369 -3.0775 0
M  V30 4395 H 417.976 -2.11571 -0.187461 0
M  V30 4396 H 420.239 -0.936726 -0.145765 0
M  V30 4397 H 419.945 -3.33471 -1.11759 0
M  V30 4398 H 419.819 -2.61883 -2.71472 0
M  V30 4399 H 422.206 -1.66729 -2.43486 0
M  V30 4400 H 422.287 -2.418 -0.834643 0
M  V30 4401 H 421.931 -4.70459 -1.91393 0
M  V30 4402 H 421.861 -3.92278 -3.5132 0
M  V30 4403 H 424.352 -3.06822 -2.20609 0
M  V30 4404 H 424.665 -6.61892 -3.98896 0
M  V30 4405 H 423.01 -5.94899 -3.59333 0
M  V30 4406 H 426.201 -3.84914 -2.66381 0
M  V30 4407 H 426.374 -5.46816 -3.47701 0
M  V30 4408 N 419.78 1.02168 -1.19998 0
M  V30 4409 C 420.69 2.14069 -0.959774 0
M  V30 4410 C 421.706 1.73804 0.082655 0
M  V30 4411 O 422.882 2.01133 -0.103633 0
M  V30 4412 C 419.947 3.42936 -0.509459 0
M  V30 4413 C 419.008 3.97474 -1.62213 0
M  V30 4414 C 418.241 5.2019 -1.19321 0
M  V30 4415 O 418.464 5.70369 -0.0597726 0
M  V30 4416 O 417.398 5.67749 -1.99863 0
M  V30 4417 H 421.224 2.37199 -1.89658 0
M  V30 4418 H 418.809 1.12469 -0.983411 0
M  V30 4419 H 420.691 4.20551 -0.267322 0
M  V30 4420 H 419.366 3.21234 0.398821 0
M  V30 4421 H 418.273 3.21161 -1.9185 0
M  V30 4422 H 419.606 4.23555 -2.50723 0
M  V30 4423 N 421.258 1.00505 1.21394 0
M  V30 4424 C 422.488 0.705584 1.94178 0
M  V30 4425 C 422.896 -0.735846 1.74304 0
M  V30 4426 O 422.239 -1.50954 1.04683 0
M  V30 4427 C 422.301 0.94689 3.46806 0
M  V30 4428 C 421.965 2.37517 3.90429 0
M  V30 4429 C 422.962 3.35539 3.97127 0
M  V30 4430 C 420.647 2.71284 4.22742 0
M  V30 4431 C 422.641 4.65395 4.3553 0
M  V30 4432 C 420.328 4.01356 4.60822 0
M  V30 4433 C 421.326 4.98223 4.67186 0
M  V30 4434 O 421.014 6.25969 5.04399 0
M  V30 4435 H 420.746 0.259216 0.624326 0
M  V30 4436 H 423.3 1.34592 1.55159 0
M  V30 4437 H 421.53 0.249386 3.85895 0
M  V30 4438 H 423.219 0.640804 4.0081 0
M  V30 4439 H 423.985 3.10786 3.7234 0
M  V30 4440 H 419.864 1.96581 4.16985 0
M  V30 4441 H 423.408 5.41002 4.40412 0
M  V30 4442 H 419.305 4.25893 4.85063 0
M  V30 4443 H 420.073 6.30085 5.22431 0
M  V30 4444 N 422.737 -1.36956 0.779787 0
M  V30 4445 C 423.983 -2.00237 0.357324 0
M  V30 4446 C 424.338 -1.60787 -1.05666 0
M  V30 4447 O 423.631 -0.847836 -1.71821 0
M  V30 4448 C 423.825 -3.54585 0.447686 0
M  V30 4449 C 423.654 -4.09025 1.86891 0
M  V30 4450 C 422.424 -4.39612 2.49138 0
M  V30 4451 C 424.622 -4.29461 2.82963 0
M  V30 4452 N 422.604 -4.79816 3.82949 0
M  V30 4453 C 423.975 -4.72363 4.01588 0
M  V30 4454 C 426.03 -4.1161 2.80145 0
M  V30 4455 C 424.733 -4.99284 5.17791 0
M  V30 4456 C 426.759 -4.39672 3.95528 0
M  V30 4457 C 426.121 -4.82822 5.12896 0
M  V30 4458 H 422.22 -0.76148 0.177968 0
M  V30 4459 H 424.804 -1.6613 1.01533 0
M  V30 4460 H 422.975 -3.87982 -0.180184 0
M  V30 4461 H 424.707 -4.047 0.0023955 0
M  V30 4462 H 421.462 -4.28975 2.00693 0
M  V30 4463 H 421.886 -5.04216 4.51769 0
M  V30 4464 H 426.528 -3.77415 1.90572 0
M  V30 4465 H 424.246 -5.32365 6.07958 0
M  V30 4466 H 427.832 -4.27441 3.94697 0
M  V30 4467 H 426.712 -5.04118 6.00695 0
M  V30 4468 N 424.215 -0.530993 -1.48385 0
M  V30 4469 C 425.626 -0.0907905 -1.86479 0
M  V30 4470 C 425.977 1.33213 -1.44044 0
M  V30 4471 O 425.102 1.99783 -0.831615 0
M  V30 4472 C 425.697 -0.157987 -3.38431 0
M  V30 4473 C 424.256 0.227026 -3.75715 0
M  V30 4474 C 423.403 -0.5173 -2.72432 0
M  V30 4475 H 426.354 -0.742186 -1.40276 0
M  V30 4476 H 426.375 0.630053 -3.75247 0
M  V30 4477 H 425.887 -1.19372 -3.69286 0
M  V30 4478 H 423.988 1.26486 -3.50474 0
M  V30 4479 H 424.101 -0.113288 -4.78966 0
M  V30 4480 H 422.465 0.0365527 -2.54674 0
M  V30 4481 H 423.248 -1.55368 -3.0613 0
M  V30 4482 N 425.693 1.55336 -0.266172 0
M  V30 4483 C 426.941 1.99003 0.35246 0
M  V30 4484 C 427.262 1.15591 1.57047 0
M  V30 4485 O 426.532 0.243268 1.94384 0
M  V30 4486 H 425.112 0.735025 0.133217 0
M  V30 4487 H 427.774 1.91367 -0.369434 0
M  V30 4488 H 426.87 3.05289 0.648453 0
M  V30 4489 N 427.171 -0.0066808 1.57599 0
M  V30 4490 C 428.582 -0.550379 1.78403 0
M  V30 4491 C 428.933 -1.74339 0.900014 0
M  V30 4492 O 428.058 -2.16166 0.100713 0
M  V30 4493 C 428.653 -1.00523 3.23544 0
M  V30 4494 C 427.212 -1.49428 3.45468 0
M  V30 4495 C 426.359 -0.442444 2.73748 0
M  V30 4496 H 429.31 0.219508 1.57175 0
M  V30 4497 H 429.331 -1.87157 3.31289 0
M  V30 4498 H 428.843 -0.136735 3.87859 0
M  V30 4499 H 426.944 -2.3839 2.86358 0
M  V30 4500 H 427.057 -1.52635 4.54136 0
M  V30 4501 H 425.421 -0.902578 2.38171 0
M  V30 4502 H 426.204 0.416973 3.40758 0
M  V30 4503 N 428.649 -1.55105 -0.279332 0
M  V30 4504 C 429.597 -1.88333 -1.36505 0
M  V30 4505 C 430.591 -0.759043 -1.51443 0
M  V30 4506 O 431.797 -0.943312 -1.53302 0
M  V30 4507 H 428.172 -0.59766 -0.456406 0
M  V30 4508 H 430.143 -2.79041 -1.05728 0
M  V30 4509 C 428.892 -2.16628 -2.7197 0
M  V30 4510 H 428.215 -3.02624 -2.61264 0
M  V30 4511 H 429.655 -2.43803 -3.46895 0
M  V30 4512 C 428.114 -0.971807 -3.22579 0
M  V30 4513 O 428.644 -0.203228 -4.01186 0
M  V30 4514 N 426.85 -0.771238 -2.80179 0
M  V30 4515 H 426.397 -1.39792 -2.1637 0
M  V30 4516 H 426.355 0.0263667 -3.14389 0
M  V30 4517 N 430.127 0.543554 -1.4793 0
M  V30 4518 C 431.374 1.30008 -1.55255 0
M  V30 4519 C 431.702 1.93245 -0.220612 0
M  V30 4520 O 430.957 1.79141 0.787843 0
M  V30 4521 C 431.256 2.42078 -2.62932 0
M  V30 4522 C 430.922 1.96583 -4.0579 0
M  V30 4523 C 429.584 1.83893 -4.44676 0
M  V30 4524 C 431.936 1.62034 -4.95373 0
M  V30 4525 C 429.264 1.34969 -5.70964 0
M  V30 4526 C 431.616 1.14577 -6.22137 0
M  V30 4527 C 430.28 1.00493 -6.59892 0
M  V30 4528 H 429.55 0.475735 -0.568117 0
M  V30 4529 H 432.197 0.608075 -1.81589 0
M  V30 4530 H 430.502 3.16892 -2.30406 0
M  V30 4531 H 432.199 3.00236 -2.65818 0
M  V30 4532 H 428.789 2.07407 -3.75074 0
M  V30 4533 H 432.973 1.70705 -4.66019 0
M  V30 4534 H 428.229 1.2274 -5.98953 0
M  V30 4535 H 432.403 0.869109 -6.90955 0
M  V30 4536 H 430.03 0.623624 -7.57638 0
M  V30 4537 N 431.605 1.3629 0.791371 0
M  V30 4538 C 432.853 1.30154 1.5461 0
M  V30 4539 C 433.174 -0.119409 1.94634 0
M  V30 4540 O 432.444 -1.05924 1.64794 0
M  V30 4541 H 431.024 0.478784 0.573389 0
M  V30 4542 H 433.686 1.70565 0.94306 0
M  V30 4543 H 432.782 1.92762 2.45457 0
M  V30 4544 N 433.083 -1.0153 1.20538 0
M  V30 4545 C 434.332 -1.74558 1.01057 0
M  V30 4546 C 434.645 -1.90168 -0.457756 0
M  V30 4547 O 435.851 -2.60301 -0.771722 0
M  V30 4548 C 434.307 -3.13963 1.75941 0
M  V30 4549 C 433.915 -3.06361 3.26875 0
M  V30 4550 C 435.659 -3.91191 1.64832 0
M  V30 4551 C 433.566 -4.40782 3.94291 0
M  V30 4552 H 432.496 -0.654417 0.374505 0
M  V30 4553 H 435.147 -1.13521 1.44171 0
M  V30 4554 H 433.529 -3.75549 1.25614 0
M  V30 4555 H 434.703 -2.54074 3.84425 0
M  V30 4556 H 433.018 -2.42625 3.38411 0
M  V30 4557 H 435.615 -4.90644 2.12539 0
M  V30 4558 H 435.958 -4.11884 0.604745 0
M  V30 4559 H 436.491 -3.36236 2.12579 0
M  V30 4560 H 433.23 -4.25292 4.98805 0
M  V30 4561 H 432.75 -4.9307 3.41529 0
M  V30 4562 H 434.429 -5.09621 3.98617 0
M  V30 4563 N 434.561 -1.01147 -1.20859 0
M  V30 4564 C 435.789 -0.716911 -1.94082 0
M  V30 4565 C 436.204 0.721568 -1.74467 0
M  V30 4566 O 435.561 1.48889 -1.05539 0
M  V30 4567 C 435.612 -1.03662 -3.46318 0
M  V30 4568 O 435.333 -2.4186 -3.65288 0
M  V30 4569 C 436.834 -0.762386 -4.36695 0
M  V30 4570 H 434.054 -0.26367 -0.617024 0
M  V30 4571 H 436.598 -1.35127 -1.53496 0
M  V30 4572 H 434.753 -0.447757 -3.84804 0
M  V30 4573 H 435.167 -2.53224 -4.59323 0
M  V30 4574 H 436.641 -1.03621 -5.42187 0
M  V30 4575 H 437.118 0.303514 -4.3815 0
M  V30 4576 H 437.724 -1.33316 -4.03865 0
M  V30 4577 N 436.039 1.36541 -0.78704 0
M  V30 4578 C 436.987 2.31965 -0.171724 0
M  V30 4579 C 437.981 1.55689 0.667631 0
M  V30 4580 O 439.187 1.70969 0.562981 0
M  V30 4581 H 435.562 0.751101 -0.0367545 0
M  V30 4582 H 437.533 2.81428 -0.992017 0
M  V30 4583 C 436.282 3.40968 0.680904 0
M  V30 4584 H 435.605 3.99775 0.0443961 0
M  V30 4585 H 437.045 4.10063 1.07815 0
M  V30 4586 C 435.504 2.82338 1.83813 0
M  V30 4587 O 436.034 2.74311 2.93456 0
M  V30 4588 N 434.24 2.39661 1.6435 0
M  V30 4589 H 433.787 2.46389 0.751668 0
M  V30 4590 H 433.745 2.00779 2.4194 0
M  V30 4591 N 437.518 0.538854 1.48102 0
M  V30 4592 C 438.765 0.0080018 2.02498 0
M  V30 4593 C 439.093 -1.33437 1.41509 0
M  V30 4594 O 438.348 -1.87709 0.553507 0
M  V30 4595 C 438.647 -0.153808 3.57069 0
M  V30 4596 C 438.313 1.11533 4.36888 0
M  V30 4597 C 436.975 1.46314 4.58417 0
M  V30 4598 C 439.327 1.95718 4.83057 0
M  V30 4599 C 436.655 2.6516 5.23361 0
M  V30 4600 C 439.007 3.13751 5.49312 0
M  V30 4601 C 437.671 3.48866 5.69077 0
M  V30 4602 H 436.941 0.00292807 0.740994 0
M  V30 4603 H 439.588 0.706668 1.77984 0
M  V30 4604 H 437.893 -0.935309 3.80472 0
M  V30 4605 H 439.59 -0.579607 3.96789 0
M  V30 4606 H 436.18 0.834484 4.20398 0
M  V30 4607 H 440.364 1.70158 4.66219 0
M  V30 4608 H 435.62 2.92558 5.36861 0
M  V30 4609 H 439.794 3.79282 5.84053 0
M  V30 4610 H 437.421 4.41054 6.19173 0
M  V30 4611 N 438.996 -1.55193 0.274407 0
M  V30 4612 C 440.273 -1.91584 -0.394331 0
M  V30 4613 C 440.653 -1.19858 -1.73774 0
M  V30 4614 O 440.001 -0.3252 -2.26174 0
M  V30 4615 C 440.211 -3.4487 -0.535311 0
M  V30 4616 C 441.559 -4.16636 -0.818534 0
M  V30 4617 O 442.583 -3.5076 -0.620146 0
M  V30 4618 O 441.442 -5.33209 -1.19792 0
M  V30 4619 H 438.536 -0.798349 -0.215794 0
M  V30 4620 H 441.082 -1.66646 0.320507 0
M  V30 4621 H 439.854 -3.89145 0.410141 0
M  V30 4622 H 439.477 -3.75759 -1.29964 0
M  V30 4623 N 440.474 -0.00167713 -1.576 0
M  V30 4624 C 441.422 1.0074 -2.09652 0
M  V30 4625 C 442.416 1.35483 -1.01689 0
M  V30 4626 O 443.622 1.34028 -1.20152 0
M  V30 4627 H 439.997 0.342537 -0.669457 0
M  V30 4628 H 441.968 0.542841 -2.93421 0
M  V30 4629 C 440.717 2.2899 -2.61647 0
M  V30 4630 H 440.04 2.03124 -3.44355 0
M  V30 4631 H 441.48 2.9787 -3.01744 0
M  V30 4632 C 439.939 3.00085 -1.53136 0
M  V30 4633 O 440.469 3.91135 -0.91524 0
M  V30 4634 N 438.675 2.6194 -1.25841 0
M  V30 4635 H 438.222 1.8798 -1.76129 0
M  V30 4636 H 438.18 3.09822 -0.534576 0
M  V30 4637 N 441.952 1.55251 0.271103 0
M  V30 4638 C 443.201 1.75151 1.00025 0
M  V30 4639 C 443.514 0.561041 1.87381 0
M  V30 4640 O 444.72 0.642506 2.63788 0
M  V30 4641 C 443.176 3.09999 1.82835 0
M  V30 4642 C 442.784 4.3662 1.00336 0
M  V30 4643 C 444.528 3.39249 2.55168 0
M  V30 4644 C 442.435 5.62506 1.82595 0
M  V30 4645 H 441.365 0.652877 0.377183 0
M  V30 4646 H 444.016 1.81708 0.255843 0
M  V30 4647 H 442.398 2.97485 2.61378 0
M  V30 4648 H 443.572 4.60055 0.261959 0
M  V30 4649 H 441.887 4.14527 0.394486 0
M  V30 4650 H 444.484 4.3051 3.1712 0
M  V30 4651 H 444.827 2.59467 3.2555 0
M  V30 4652 H 445.36 3.52869 1.83653 0
M  V30 4653 H 442.099 6.45041 1.16631 0
M  V30 4654 H 441.619 5.43211 2.54327 0
M  V30 4655 H 443.298 6.00875 2.39913 0
M  V30 4656 N 443.43 -0.535701 1.48216 0
M  V30 4657 C 444.36 -1.65014 1.65204 0
M  V30 4658 C 445.341 -1.62554 0.501011 0
M  V30 4659 O 446.526 -1.7984 0.732886 0
M  V30 4660 C 443.656 -3.03616 1.68626 0
M  V30 4661 C 442.61 -3.20932 2.83172 0
M  V30 4662 C 441.936 -4.60537 2.71679 0
M  V30 4663 C 443.236 -3.04249 4.24535 0
M  V30 4664 H 444.93 -1.51053 2.58502 0
M  V30 4665 H 442.476 -0.725262 1.24402 0
M  V30 4666 H 444.429 -3.81446 1.79099 0
M  V30 4667 H 443.153 -3.18587 0.719026 0
M  V30 4668 H 441.812 -2.45517 2.72244 0
M  V30 4669 H 441.46 -4.72336 1.72937 0
M  V30 4670 H 441.16 -4.73069 3.48538 0
M  V30 4671 H 442.684 -5.40475 2.84112 0
M  V30 4672 H 444.098 -3.71877 4.36326 0
M  V30 4673 H 442.495 -3.28278 5.02348 0
M  V30 4674 H 443.565 -2.00739 4.41397 0
M  V30 4675 N 444.908 -1.36708 -0.784132 0
M  V30 4676 C 446.155 -1.31231 -1.54222 0
M  V30 4677 C 446.483 0.106864 -1.94206 0
M  V30 4678 O 445.738 1.07734 -1.63376 0
M  V30 4679 C 446.037 -2.18571 -2.82774 0
M  V30 4680 C 445.703 -3.67039 -2.61903 0
M  V30 4681 C 444.365 -4.07503 -2.55919 0
M  V30 4682 C 446.717 -4.61149 -2.4288 0
M  V30 4683 C 444.045 -5.40211 -2.28886 0
M  V30 4684 C 446.397 -5.94081 -2.17373 0
M  V30 4685 C 445.061 -6.33664 -2.09825 0
M  V30 4686 H 444.331 -0.48021 -0.56434 0
M  V30 4687 H 446.978 -1.68807 -0.904233 0
M  V30 4688 H 445.283 -1.73949 -3.51068 0
M  V30 4689 H 446.98 -2.11655 -3.40592 0
M  V30 4690 H 443.57 -3.34941 -2.67418 0
M  V30 4691 H 447.754 -4.30756 -2.46501 0
M  V30 4692 H 443.01 -5.69855 -2.21529 0
M  V30 4693 H 447.184 -6.66566 -2.01649 0
M  V30 4694 H 444.811 -7.36423 -1.88641 0
M  V30 4695 N 446.386 1.0089 -1.21074 0
M  V30 4696 C 447.349 2.0775 -0.968129 0
M  V30 4697 C 448.349 1.6069 0.0593445 0
M  V30 4698 O 449.539 1.73293 -0.177525 0
M  V30 4699 C 446.671 3.37794 -0.459108 0
M  V30 4700 H 447.864 2.30707 -1.9161 0
M  V30 4701 H 445.417 1.17807 -1.02719 0
M  V30 4702 H 446.152 3.20516 0.49397 0
M  V30 4703 H 445.937 3.7328 -1.20019 0
M  V30 4704 H 447.427 4.16454 -0.309099 0
M  V30 4705 N 447.864 1.01787 1.20321 0
M  V30 4706 C 449.113 0.703249 1.89043 0
M  V30 4707 C 449.426 -0.770445 1.79787 0
M  V30 4708 O 450.632 -1.19767 2.43656 0
M  V30 4709 C 449.088 1.20749 3.3904 0
M  V30 4710 C 448.696 2.70817 3.56878 0
M  V30 4711 C 450.44 0.968352 4.13308 0
M  V30 4712 C 448.347 3.14716 5.00708 0
M  V30 4713 H 447.277 0.259354 0.707991 0
M  V30 4714 H 449.928 1.23072 1.36108 0
M  V30 4715 H 448.31 0.607989 3.91305 0
M  V30 4716 H 449.484 3.36327 3.14993 0
M  V30 4717 H 447.799 2.92888 2.95983 0
M  V30 4718 H 450.396 1.27173 5.19356 0
M  V30 4719 H 450.739 -0.095149 4.16191 0
M  V30 4720 H 451.272 1.53129 3.67146 0
M  V30 4721 H 448.011 4.20347 5.02979 0
M  V30 4722 H 447.531 2.53927 5.43398 0
M  V30 4723 H 449.21 3.07426 5.69296 0
M  V30 4724 N 449.342 -1.36122 0.79427 0
M  V30 4725 C 450.272 -2.32551 0.210328 0
M  V30 4726 C 451.253 -1.56884 -0.657386 0
M  V30 4727 O 452.438 -1.85014 -0.590207 0
M  V30 4728 C 449.568 -3.41128 -0.651819 0
M  V30 4729 C 448.522 -4.27842 0.116395 0
M  V30 4730 C 447.848 -5.2763 -0.86666 0
M  V30 4731 C 449.148 -5.05647 1.30837 0
M  V30 4732 H 450.842 -2.81636 1.01594 0
M  V30 4733 H 448.388 -1.35407 0.489981 0
M  V30 4734 H 450.341 -4.07581 -1.07031 0
M  V30 4735 H 449.065 -2.90622 -1.49019 0
M  V30 4736 H 447.724 -3.62952 0.515915 0
M  V30 4737 H 447.372 -4.73395 -1.70019 0
M  V30 4738 H 447.072 -5.86514 -0.35705 0
M  V30 4739 H 448.596 -5.96955 -1.28361 0
M  V30 4740 H 450.01 -5.65113 0.965393 0
M  V30 4741 H 448.407 -5.73967 1.75161 0
M  V30 4742 H 449.477 -4.37006 2.10128 0
M  V30 4743 N 450.82 -0.546701 -1.47814 0
M  V30 4744 C 452.048 -0.0232857 -2.06887 0
M  V30 4745 C 452.463 1.26571 -1.4009 0
M  V30 4746 O 451.82 1.7569 -0.493906 0
M  V30 4747 C 451.871 0.186975 -3.61016 0
M  V30 4748 O 451.592 -1.05097 -4.25307 0
M  V30 4749 C 453.093 0.748872 -4.36929 0
M  V30 4750 H 450.313 -0.0410763 -0.669742 0
M  V30 4751 H 452.857 -0.757117 -1.89968 0
M  V30 4752 H 451.012 0.870903 -3.77484 0
M  V30 4753 H 451.426 -0.842121 -5.17695 0
M  V30 4754 H 452.9 0.845334 -5.45489 0
M  V30 4755 H 453.377 1.75772 -4.02493 0
M  V30 4756 H 453.983 0.100979 -4.2518 0
M  V30 4757 N 452.299 1.55045 -0.282633 0
M  V30 4758 C 453.545 2.00056 0.332481 0
M  V30 4759 C 453.878 1.1708 1.54939 0
M  V30 4760 O 453.153 0.2427 1.9298 0
M  V30 4761 C 453.436 3.53086 0.70725 0
M  V30 4762 C 453.289 4.46813 -0.517521 0
M  V30 4763 C 454.608 4.12245 1.54084 0
M  V30 4764 H 451.727 0.727268 0.119373 0
M  V30 4765 H 454.369 1.85932 -0.391076 0
M  V30 4766 H 452.519 3.65253 1.32372 0
M  V30 4767 H 454.191 4.46579 -1.15607 0
M  V30 4768 H 452.434 4.18163 -1.1542 0
M  V30 4769 H 453.105 5.51595 -0.211426 0
M  V30 4770 H 455.581 4.03401 1.02013 0
M  V30 4771 H 454.457 5.19515 1.77186 0
M  V30 4772 H 454.718 3.62951 2.52427 0
M  V30 4773 N 453.777 0.010035 1.57597 0
M  V30 4774 C 455.024 -0.6727 1.91 0
M  V30 4775 C 455.352 -1.73219 0.884614 0
M  V30 4776 O 454.607 -1.95395 -0.109215 0
M  V30 4777 C 454.906 -1.34434 3.31153 0
M  V30 4778 C 454.572 -0.417083 4.48967 0
M  V30 4779 C 453.234 -0.161809 4.80928 0
M  V30 4780 C 455.586 0.220753 5.20732 0
M  V30 4781 C 452.914 0.739426 5.82022 0
M  V30 4782 C 455.266 1.10993 6.22787 0
M  V30 4783 C 453.93 1.37428 6.532 0
M  V30 4784 H 453.2 -0.246158 0.698918 0
M  V30 4785 H 455.847 0.0677145 1.9138 0
M  V30 4786 H 454.152 -2.15905 3.26944 0
M  V30 4787 H 455.849 -1.87883 3.54261 0
M  V30 4788 H 452.439 -0.626217 4.24001 0
M  V30 4789 H 456.623 0.0365643 4.96287 0
M  V30 4790 H 451.879 0.952139 6.03941 0
M  V30 4791 H 456.053 1.61046 6.77523 0
M  V30 4792 H 453.68 2.0743 7.31353 0
M  V30 4793 N 455.255 -1.55392 -0.262866 0
M  V30 4794 C 456.187 -1.85392 -1.34768 0
M  V30 4795 C 457.2 -0.739069 -1.45057 0
M  V30 4796 O 458.389 -1.01703 -1.46693 0
M  V30 4797 C 455.489 -2.01088 -2.72795 0
M  V30 4798 C 454.662 -3.31828 -2.84972 0
M  V30 4799 C 453.721 -3.37464 -4.03738 0
M  V30 4800 O 452.747 -4.10778 -3.94018 0
M  V30 4801 N 453.949 -2.65599 -5.16176 0
M  V30 4802 H 456.714 -2.79029 -1.09375 0
M  V30 4803 H 454.275 -1.55434 -0.452981 0
M  V30 4804 H 456.267 -2.02217 -3.50557 0
M  V30 4805 H 454.837 -1.1427 -2.90966 0
M  V30 4806 H 454.057 -3.43152 -1.94012 0
M  V30 4807 H 455.345 -4.18032 -2.90045 0
M  V30 4808 H 454.743 -2.05736 -5.26962 0
M  V30 4809 H 453.3 -2.72439 -5.92132 0
M  V30 4810 N 456.733 0.527833 -1.48498 0
M  V30 4811 C 457.973 1.29401 -1.58224 0
M  V30 4812 C 458.337 1.90348 -0.251327 0
M  V30 4813 O 459.538 2.67868 -0.223588 0
M  V30 4814 C 457.809 2.35266 -2.69044 0
M  V30 4815 S 459.368 3.2158 -2.98549 0
M  V30 4816 H 456.186 0.440138 -0.558391 0
M  V30 4817 H 458.788 0.601079 -1.8603 0
M  V30 4818 H 457.492 1.88975 -3.64303 0
M  V30 4819 H 457.023 3.09263 -2.43146 0
M  V30 4820 H 459.038 4.35391 -2.38011 0
M  V30 4821 N 458.211 1.37122 0.776871 0
M  V30 4822 C 459.46 1.31373 1.53049 0
M  V30 4823 C 459.773 -0.101016 1.95339 0
M  V30 4824 O 460.979 -0.280953 2.70042 0
M  V30 4825 C 459.435 2.30567 2.76346 0
M  V30 4826 C 459.043 3.77543 2.41175 0
M  V30 4827 C 460.787 2.33818 3.54301 0
M  V30 4828 C 458.694 4.68481 3.60943 0
M  V30 4829 H 457.624 0.488234 0.574581 0
M  V30 4830 H 460.275 1.62554 0.851372 0
M  V30 4831 H 458.657 1.92396 3.46121 0
M  V30 4832 H 459.831 4.24521 1.79216 0
M  V30 4833 H 458.146 3.77187 1.76405 0
M  V30 4834 H 460.743 2.98965 4.4331 0
M  V30 4835 H 461.086 1.3503 3.93793 0
M  V30 4836 H 461.619 2.7067 2.91518 0
M  V30 4837 H 458.358 5.68378 3.26537 0
M  V30 4838 H 457.878 4.2621 4.22025 0
M  V30 4839 H 459.557 4.85366 4.27819 0
M  V30 4840 N 459.689 -1.00246 1.21608 0
M  V30 4841 C 460.917 -1.77631 1.06089 0
M  V30 4842 C 461.332 -1.84746 -0.38916 0
M  V30 4843 O 460.689 -1.31068 -1.26994 0
M  V30 4844 C 460.74 -3.21415 1.65453 0
M  V30 4845 O 460.461 -3.14703 3.04785 0
M  V30 4846 C 461.962 -4.15289 1.55079 0
M  V30 4847 H 459.182 -0.558162 0.37242 0
M  V30 4848 H 461.726 -1.26093 1.60999 0
M  V30 4849 H 459.881 -3.70053 1.14629 0
M  V30 4850 H 460.295 -4.05056 3.33212 0
M  V30 4851 H 461.769 -5.13965 2.01355 0
M  V30 4852 H 462.246 -4.36279 0.505665 0
M  V30 4853 H 462.852 -3.72543 2.05163 0
M  V30 4854 N 461.167 -1.02423 -1.1978 0
M  V30 4855 C 462.1 -0.545641 -2.21581 0
M  V30 4856 C 463.078 0.411024 -1.57319 0
M  V30 4857 O 464.262 0.329223 -1.85603 0
M  V30 4858 C 461.389 0.204973 -3.38079 0
M  V30 4859 C 460.435 -0.70241 -4.20676 0
M  V30 4860 S 461.268 -2.17595 -4.89298 0
M  V30 4861 C 462.424 -1.43572 -6.09211 0
M  V30 4862 H 462.657 -1.4082 -2.61834 0
M  V30 4863 H 460.19 -0.833771 -1.29952 0
M  V30 4864 H 462.148 0.631924 -4.05607 0
M  V30 4865 H 460.809 1.0432 -2.9627 0
M  V30 4866 H 460.002 -0.123193 -5.03849 0
M  V30 4867 H 459.604 -1.06747 -3.58442 0
M  V30 4868 H 461.896 -0.719806 -6.73665 0
M  V30 4869 H 462.839 -2.24388 -6.71607 0
M  V30 4870 H 463.247 -0.935252 -5.56699 0
M  V30 4871 N 462.645 1.35699 -0.801477 0
M  V30 4872 C 463.555 2.33661 -0.209691 0
M  V30 4873 C 464.571 1.6162 0.644591 0
M  V30 4874 O 465.747 1.93529 0.557545 0
M  V30 4875 C 462.812 3.40816 0.636033 0
M  V30 4876 C 461.873 4.28639 -0.238147 0
M  V30 4877 C 461.106 5.30676 0.567307 0
M  V30 4878 O 461.329 5.41174 1.8024 0
M  V30 4879 O 460.263 6.01887 -0.0391336 0
M  V30 4880 H 464.089 2.8606 -1.01996 0
M  V30 4881 H 461.674 1.38379 -0.563164 0
M  V30 4882 H 463.556 4.06301 1.11791 0
M  V30 4883 H 462.231 2.90696 1.42399 0
M  V30 4884 H 461.138 3.66152 -0.767044 0
M  V30 4885 H 462.471 4.82143 -0.989915 0
M  V30 4886 N 464.123 0.554532 1.47522 0
M  V30 4887 C 465.371 0.0294208 2.02079 0
M  V30 4888 C 465.692 -1.32411 1.43151 0
M  V30 4889 O 464.962 -1.863 0.605728 0
M  V30 4890 H 463.542 0.00788672 0.746958 0
M  V30 4891 H 466.204 0.723934 1.80956 0
M  V30 4892 H 465.3 -0.0606745 3.12041 0
M  V30 4893 N 465.601 -1.54893 0.290851 0
M  V30 4894 C 466.847 -2.00949 -0.314784 0
M  V30 4895 C 467.202 -1.1757 -1.52299 0
M  V30 4896 O 466.495 -0.241558 -1.90071 0
M  V30 4897 C 466.689 -3.49815 -0.732397 0
M  V30 4898 C 466.518 -4.47603 0.433799 0
M  V30 4899 C 465.288 -4.96806 0.922599 0
M  V30 4900 C 467.486 -4.98233 1.27546 0
M  V30 4901 N 465.468 -5.78426 2.05662 0
M  V30 4902 C 466.839 -5.77455 2.25712 0
M  V30 4903 C 468.894 -4.80439 1.307 0
M  V30 4904 C 467.597 -6.40778 3.26796 0
M  V30 4905 C 469.623 -5.44574 2.30637 0
M  V30 4906 C 468.985 -6.23619 3.27533 0
M  V30 4907 H 465.084 -0.777905 -0.0799257 0
M  V30 4908 H 467.668 -1.9015 0.418458 0
M  V30 4909 H 465.839 -3.60925 -1.43483 0
M  V30 4910 H 467.571 -3.82681 -1.31671 0
M  V30 4911 H 464.326 -4.70961 0.49926 0
M  V30 4912 H 464.75 -6.23923 2.62772 0
M  V30 4913 H 469.392 -4.18918 0.571622 0
M  V30 4914 H 467.11 -7.01439 4.01258 0
M  V30 4915 H 470.696 -5.32739 2.33838 0
M  V30 4916 H 469.576 -6.72367 4.03599 0
M  V30 4917 N 467.08 -0.0183926 -1.57589 0
M  V30 4918 C 468.308 0.673046 -1.95647 0
M  V30 4919 C 468.723 1.66275 -0.894312 0
M  V30 4920 O 468.08 1.82072 0.124975 0
M  V30 4921 C 468.131 1.38884 -3.33756 0
M  V30 4922 O 467.852 0.438806 -4.35897 0
M  V30 4923 C 469.353 2.1731 -3.86383 0
M  V30 4924 H 466.573 0.186292 -0.644621 0
M  V30 4925 H 469.117 -0.0749748 -2.04363 0
M  V30 4926 H 467.272 2.08835 -3.26293 0
M  V30 4927 H 467.686 0.945869 -5.15901 0
M  V30 4928 H 469.16 2.62863 -4.85394 0
M  V30 4929 H 469.637 3.00764 -3.20059 0
M  V30 4930 H 470.243 1.52339 -3.97081 0
M  V30 4931 N 468.558 1.5553 0.254621 0
M  V30 4932 C 469.835 1.6774 1.00611 0
M  V30 4933 C 470.215 0.555993 2.03647 0
M  V30 4934 O 469.563 -0.441583 2.24193 0
M  V30 4935 C 469.773 3.07725 1.6464 0
M  V30 4936 C 471.121 3.66074 2.15116 0
M  V30 4937 O 472.145 3.10476 1.74595 0
M  V30 4938 O 471.004 4.63526 2.89493 0
M  V30 4939 H 468.098 0.681958 0.467828 0
M  V30 4940 H 470.644 1.67863 0.24902 0
M  V30 4941 H 469.416 3.80792 0.900734 0
M  V30 4942 H 469.039 3.1158 2.46989 0
M  V30 4943 N 470.036 -0.519951 1.48776 0
M  V30 4944 C 471.285 -1.27175 1.56555 0
M  V30 4945 C 471.598 -1.9401 0.248869 0
M  V30 4946 O 472.804 -2.70725 0.205004 0
M  V30 4947 C 471.26 -2.30811 2.76142 0
M  V30 4948 C 470.868 -1.7 4.14493 0
M  V30 4949 C 472.612 -3.06937 2.9324 0
M  V30 4950 C 470.519 -2.71635 5.25327 0
M  V30 4951 H 469.449 -0.478329 0.582853 0
M  V30 4952 H 472.1 -0.547916 1.75129 0
M  V30 4953 H 470.482 -3.06274 2.51023 0
M  V30 4954 H 471.656 -1.00658 4.49672 0
M  V30 4955 H 469.971 -1.06331 4.02595 0
M  V30 4956 H 472.568 -3.82905 3.73213 0
M  V30 4957 H 472.911 -3.63409 2.03075 0
M  V30 4958 H 473.444 -2.38589 3.18308 0
M  V30 4959 H 470.183 -2.1997 6.1749 0
M  V30 4960 H 469.703 -3.39275 4.94624 0
M  V30 4961 H 471.382 -3.34429 5.53865 0
M  V30 4962 N 471.514 -1.37532 -0.769588 0
M  V30 4963 C 472.444 -1.36172 -1.89682 0
M  V30 4964 C 473.425 -0.23001 -1.68538 0
M  V30 4965 O 474.61 -0.43069 -1.89364 0
M  V30 4966 C 471.74 -1.1701 -3.26995 0
M  V30 4967 C 470.694 -2.27216 -3.62708 0
M  V30 4968 C 470.02 -1.93174 -4.98586 0
M  V30 4969 C 471.32 -3.6941 -3.69234 0
M  V30 4970 H 473.014 -2.30499 -1.91078 0
M  V30 4971 H 470.56 -1.10953 -0.917902 0
M  V30 4972 H 472.513 -1.14688 -4.05493 0
M  V30 4973 H 471.237 -0.191395 -3.26039 0
M  V30 4974 H 469.896 -2.28697 -2.86519 0
M  V30 4975 H 469.544 -0.938281 -4.94171 0
M  V30 4976 H 469.244 -2.66973 -5.23449 0
M  V30 4977 H 470.768 -1.92443 -5.79481 0
M  V30 4978 H 472.182 -3.70047 -4.37879 0
M  V30 4979 H 470.579 -4.4228 -4.05597 0
M  V30 4980 H 471.649 -4.0288 -2.69844 0
M  V30 4981 N 472.992 0.995999 -1.22138 0
M  V30 4982 C 474.222 1.76809 -1.06874 0
M  V30 4983 C 474.63 1.85265 0.383866 0
M  V30 4984 O 473.973 1.31969 1.27789 0
M  V30 4985 C 474.035 3.2186 -1.60144 0
M  V30 4986 C 473.699 3.36958 -3.0872 0
M  V30 4987 C 474.696 3.2452 -4.0618 0
M  V30 4988 C 472.381 3.62109 -3.48112 0
M  V30 4989 C 474.375 3.37013 -5.41019 0
M  V30 4990 C 472.062 3.74243 -4.831 0
M  V30 4991 C 473.06 3.61702 -5.79362 0
M  V30 4992 O 472.748 3.73436 -7.119 0
M  V30 4993 H 472.48 0.562207 -0.375365 0
M  V30 4994 H 475.034 1.26113 -1.62125 0
M  V30 4995 H 473.264 3.73734 -0.992981 0
M  V30 4996 H 474.953 3.80775 -1.40589 0
M  V30 4997 H 475.719 3.05004 -3.77091 0
M  V30 4998 H 471.598 3.70949 -2.73712 0
M  V30 4999 H 475.142 3.27141 -6.16137 0
M  V30 5000 H 471.039 3.93266 -5.11872 0
M  V30 5001 H 471.807 3.90328 -7.19435 0
M  V30 5002 N 474.47 1.03057 1.19235 0
M  V30 5003 C 475.418 0.606391 2.24557 0
M  V30 5004 C 476.412 -0.361826 1.65491 0
M  V30 5005 O 477.618 -0.23022 1.78522 0
M  V30 5006 H 473.993 0.177838 0.730669 0
M  V30 5007 H 475.964 1.50529 2.5765 0
M  V30 5008 C 474.713 -0.0252127 3.47691 0
M  V30 5009 H 474.036 0.710838 3.9343 0
M  V30 5010 H 475.476 -0.284931 4.23042 0
M  V30 5011 C 473.935 -1.27229 3.11953 0
M  V30 5012 O 474.465 -2.36416 3.24762 0
M  V30 5013 N 472.671 -1.16169 2.6637 0
M  V30 5014 H 472.218 -0.273189 2.56147 0
M  V30 5015 H 472.176 -1.99703 2.42829 0
M  V30 5016 N 475.948 -1.35272 0.808662 0
M  V30 5017 C 477.176 -2.02946 0.402537 0
M  V30 5018 C 477.591 -1.60937 -0.987147 0
M  V30 5019 O 476.948 -0.807917 -1.63643 0
M  V30 5020 C 476.999 -3.58317 0.47868 0
M  V30 5021 O 476.72 -3.98799 1.81358 0
M  V30 5022 C 478.221 -4.43251 0.0656281 0
M  V30 5023 H 475.441 -0.650831 0.163279 0
M  V30 5024 H 477.985 -1.72849 1.09286 0
M  V30 5025 H 476.14 -3.87055 -0.163415 0
M  V30 5026 H 476.554 -4.93451 1.77781 0
M  V30 5027 H 478.028 -5.51738 0.170017 0
M  V30 5028 H 478.505 -4.27913 -0.989278 0
M  V30 5029 H 479.111 -4.19813 0.68096 0
M  V30 5030 N 477.426 -0.562348 -1.47226 0
M  V30 5031 C 478.374 0.195476 -2.31777 0
M  V30 5032 C 479.368 0.90433 -1.43242 0
M  V30 5033 O 480.574 0.825031 -1.59979 0
M  V30 5034 H 476.949 0.0819095 -0.747526 0
M  V30 5035 H 478.92 -0.536753 -2.93533 0
M  V30 5036 C 477.669 1.20902 -3.26003 0
M  V30 5037 H 476.992 0.672997 -3.94095 0
M  V30 5038 H 478.432 1.71006 -3.87986 0
M  V30 5039 C 476.891 2.25955 -2.49891 0
M  V30 5040 O 477.421 3.32969 -2.2471 0
M  V30 5041 N 475.627 2.00019 -2.1081 0
M  V30 5042 H 475.174 1.13006 -2.31489 0
M  V30 5043 H 475.132 2.70523 -1.60201 0
M  V30 5044 N 478.904 1.54736 -0.299062 0
M  V30 5045 C 480.181 1.92187 0.363802 0
M  V30 5046 C 480.561 1.22607 1.71845 0
M  V30 5047 O 479.909 0.361141 2.25628 0
M  V30 5048 C 480.119 3.45678 0.480377 0
M  V30 5049 C 481.467 4.17885 0.752147 0
M  V30 5050 O 482.491 3.51702 0.564264 0
M  V30 5051 O 481.35 5.35048 1.11294 0
M  V30 5052 H 478.444 0.801681 0.203066 0
M  V30 5053 H 480.99 1.66115 -0.346978 0
M  V30 5054 H 479.762 3.88443 -0.471999 0
M  V30 5055 H 479.385 3.77779 1.2397 0
M  V30 5056 N 480.382 0.0267497 1.57577 0
M  V30 5057 C 481.345 -0.940916 2.08996 0
M  V30 5058 C 482.345 -1.25561 1.00455 0
M  V30 5059 O 483.535 -1.19634 1.26623 0
M  V30 5060 C 480.667 -2.25814 2.55384 0
M  V30 5061 H 481.86 -0.495628 2.95776 0
M  V30 5062 H 479.413 -0.221241 1.54726 0
M  V30 5063 H 480.148 -2.74976 1.71926 0
M  V30 5064 H 479.933 -2.04285 3.34679 0
M  V30 5065 H 481.423 -2.95178 2.95398 0
M  V30 5066 N 481.861 -1.55662 -0.24637 0
M  V30 5067 C 482.824 -1.89558 -1.28842 0
M  V30 5068 C 483.824 -0.772082 -1.41052 0
M  V30 5069 O 485.014 -1.04007 -1.39743 0
M  V30 5070 C 482.146 -2.12449 -2.66605 0
M  V30 5071 H 483.339 -2.82735 -1.00004 0
M  V30 5072 H 480.892 -1.48562 -0.485684 0
M  V30 5073 H 481.627 -1.21742 -3.00582 0
M  V30 5074 H 481.412 -2.94273 -2.59125 0
M  V30 5075 H 482.902 -2.39854 -3.41847 0
M  V30 5076 N 483.339 0.512053 -1.4905 0
M  V30 5077 C 484.587 1.26436 -1.57665 0
M  V30 5078 C 484.908 1.93255 -0.260293 0
M  V30 5079 O 484.178 1.82206 0.719564 0
M  V30 5080 H 482.758 0.469658 -0.580888 0
M  V30 5081 H 485.42 0.594398 -1.85615 0
M  V30 5082 H 484.516 2.03417 -2.36702 0
M  V30 5083 N 484.817 1.37938 0.762283 0
M  V30 5084 C 485.765 1.34569 1.89721 0
M  V30 5085 C 486.759 0.232929 1.67791 0
M  V30 5086 O 487.965 0.401485 1.75465 0
M  V30 5087 H 484.34 0.419594 0.624055 0
M  V30 5088 H 486.311 2.30357 1.8968 0
M  V30 5089 C 485.06 1.17898 3.27101 0
M  V30 5090 H 484.383 2.02781 3.44558 0
M  V30 5091 H 485.823 1.19593 4.06784 0
M  V30 5092 C 484.282 -0.114728 3.36705 0
M  V30 5093 O 484.812 -1.0949 3.8649 0
M  V30 5094 N 483.018 -0.16863 2.9011 0
M  V30 5095 H 482.565 0.62967 2.49786 0
M  V30 5096 H 482.523 -1.03383 2.96916 0
M  V30 5097 N 486.295 -0.989507 1.22664 0
M  V30 5098 C 487.523 -1.76496 1.07967 0
M  V30 5099 C 487.938 -1.85148 -0.369543 0
M  V30 5100 O 487.295 -1.32408 -1.25596 0
M  V30 5101 C 487.346 -3.19642 1.68853 0
M  V30 5102 O 487.067 -3.11453 3.08105 0
M  V30 5103 C 488.568 -4.13621 1.59475 0
M  V30 5104 H 485.788 -0.55418 0.378319 0
M  V30 5105 H 488.332 -1.24378 1.62328 0
M  V30 5106 H 486.487 -3.68816 1.18547 0
M  V30 5107 H 486.901 -4.01499 3.37489 0
M  V30 5108 H 488.375 -5.11801 2.06795 0
M  V30 5109 H 488.852 -4.35718 0.55191 0
M  V30 5110 H 489.458 -3.70346 2.09103 0
M  V30 5111 N 487.773 -1.03688 -1.18687 0
M  V30 5112 C 489.019 -0.74888 -1.89112 0
M  V30 5113 C 489.374 0.715345 -1.78607 0
M  V30 5114 O 488.667 1.51498 -1.17299 0
M  V30 5115 C 488.861 -1.14477 -3.3857 0
M  V30 5116 C 488.69 -2.64594 -3.63621 0
M  V30 5117 C 487.46 -3.31685 -3.812 0
M  V30 5118 C 489.658 -3.62811 -3.64517 0
M  V30 5119 N 487.64 -4.70822 -3.93955 0
M  V30 5120 C 489.011 -4.87603 -3.8294 0
M  V30 5121 C 491.066 -3.56495 -3.47585 0
M  V30 5122 C 489.769 -6.0684 -3.86184 0
M  V30 5123 C 491.795 -4.75155 -3.52111 0
M  V30 5124 C 491.157 -5.98765 -3.71026 0
M  V30 5125 H 487.256 -0.32603 -0.710794 0
M  V30 5126 H 489.84 -1.3258 -1.42586 0
M  V30 5127 H 488.011 -0.595974 -3.838 0
M  V30 5128 H 489.743 -0.808187 -3.96548 0
M  V30 5129 H 486.498 -2.82091 -3.80423 0
M  V30 5130 H 486.922 -5.43122 -4.04163 0
M  V30 5131 H 491.564 -2.61907 -3.31911 0
M  V30 5132 H 489.282 -7.01788 -4.00648 0
M  V30 5133 H 492.868 -4.71905 -3.40289 0
M  V30 5134 H 491.748 -6.89047 -3.74412 0
M  V30 5135 N 489.251 1.34841 -0.815825 0
M  V30 5136 C 490.199 2.31549 -0.220888 0
M  V30 5137 C 491.193 1.5707 0.634457 0
M  V30 5138 O 492.399 1.72125 0.526589 0
M  V30 5139 H 488.774 0.750153 -0.0526782 0
M  V30 5140 H 490.745 2.7926 -1.05149 0
M  V30 5141 C 489.494 3.42335 0.608427 0
M  V30 5142 H 488.817 3.9978 -0.0404121 0
M  V30 5143 H 490.257 4.12258 0.990931 0
M  V30 5144 C 488.716 2.86173 1.77782 0
M  V30 5145 O 489.246 2.80474 2.87571 0
M  V30 5146 N 487.452 2.43093 1.59229 0
M  V30 5147 H 486.999 2.47928 0.699237 0
M  V30 5148 H 486.957 2.05866 2.37627 0
M  V30 5149 N 490.729 0.570148 1.46925 0
M  V30 5150 C 491.975 0.0593124 2.03314 0
M  V30 5151 C 492.33 -1.28139 1.43521 0
M  V30 5152 O 491.623 -1.82411 0.586245 0
M  V30 5153 C 491.817 -0.0780336 3.57315 0
M  V30 5154 C 491.646 1.2478 4.32042 0
M  V30 5155 C 490.416 1.81859 4.7144 0
M  V30 5156 C 492.614 2.16808 4.66368 0
M  V30 5157 N 490.596 3.08313 5.30864 0
M  V30 5158 C 491.967 3.27845 5.2623 0
M  V30 5159 C 494.022 2.16643 4.48297 0
M  V30 5160 C 492.725 4.38832 5.69929 0
M  V30 5161 C 494.751 3.26652 4.93004 0
M  V30 5162 C 494.113 4.36408 5.52926 0
M  V30 5163 H 490.212 0.0641804 0.779362 0
M  V30 5164 H 492.796 0.760285 1.79242 0
M  V30 5165 H 490.967 -0.748151 3.81126 0
M  V30 5166 H 492.699 -0.59211 4.00345 0
M  V30 5167 H 489.454 1.35502 4.53802 0
M  V30 5168 H 489.878 3.72802 5.65108 0
M  V30 5169 H 494.52 1.33065 4.01315 0
M  V30 5170 H 492.238 5.23162 6.15896 0
M  V30 5171 H 495.824 3.27627 4.80782 0
M  V30 5172 H 494.704 5.20127 5.86888 0
M  V30 5173 N 492.207 -1.54576 0.307264 0
M  V30 5174 C 493.137 -2.26708 -0.55907 0
M  V30 5175 C 494.118 -1.26893 -1.1328 0
M  V30 5176 O 495.303 -1.55677 -1.16097 0
M  V30 5177 C 492.433 -3.01259 -1.72801 0
M  V30 5178 C 491.387 -4.08275 -1.28435 0
M  V30 5179 C 490.713 -4.70575 -2.53895 0
M  V30 5180 C 492.013 -5.2068 -0.411038 0
M  V30 5181 H 493.707 -2.9937 0.042576 0
M  V30 5182 H 491.253 -1.43983 0.0219173 0
M  V30 5183 H 493.206 -3.50444 -2.34023 0
M  V30 5184 H 491.93 -2.26187 -2.356 0
M  V30 5185 H 490.589 -3.59949 -0.695161 0
M  V30 5186 H 490.237 -3.92136 -3.15021 0
M  V30 5187 H 489.937 -5.42854 -2.24908 0
M  V30 5188 H 491.461 -5.22527 -3.15908 0
M  V30 5189 H 492.875 -5.65721 -0.929097 0
M  V30 5190 H 491.272 -5.99716 -0.214664 0
M  V30 5191 H 492.342 -4.81629 0.562287 0
M  V30 5192 N 493.685 -0.035106 -1.57561 0
M  V30 5193 C 494.915 0.651312 -1.96065 0
M  V30 5194 C 495.323 1.6585 -0.910514 0
M  V30 5195 O 494.666 1.83336 0.11552 0
M  V30 5196 C 494.728 1.40897 -3.30739 0
M  V30 5197 C 494.392 0.559436 -4.53563 0
M  V30 5198 C 495.389 -0.16778 -5.19629 0
M  V30 5199 C 493.074 0.495079 -4.99854 0
M  V30 5200 C 495.068 -0.947963 -6.30311 0
M  V30 5201 C 492.755 -0.288804 -6.10417 0
M  V30 5202 C 493.753 -1.00903 -6.75505 0
M  V30 5203 O 493.441 -1.78005 -7.83945 0
M  V30 5204 H 493.173 0.184036 -0.650467 0
M  V30 5205 H 495.727 -0.0929677 -2.05189 0
M  V30 5206 H 493.957 2.19852 -3.18123 0
M  V30 5207 H 495.646 1.98407 -3.54104 0
M  V30 5208 H 496.412 -0.12743 -4.84833 0
M  V30 5209 H 492.291 1.04524 -4.48994 0
M  V30 5210 H 495.835 -1.51064 -6.81047 0
M  V30 5211 H 491.732 -0.33085 -6.44652 0
M  V30 5212 H 492.5 -1.70046 -8.00641 0
M  V30 5213 N 495.163 1.55791 0.238111 0
M  V30 5214 C 496.41 1.78033 0.964907 0
M  V30 5215 C 496.738 0.600984 1.84982 0
M  V30 5216 O 495.993 -0.41536 1.91241 0
M  V30 5217 C 496.292 3.05869 1.84875 0
M  V30 5218 C 495.958 4.36808 1.11846 0
M  V30 5219 C 494.62 4.72388 0.916662 0
M  V30 5220 C 496.972 5.17717 0.60151 0
M  V30 5221 C 494.3 5.86406 0.185756 0
M  V30 5222 C 496.652 6.32494 -0.115972 0
M  V30 5223 C 495.316 6.66688 -0.329168 0
M  V30 5224 H 494.586 0.651469 0.353085 0
M  V30 5225 H 497.233 1.90061 0.234318 0
M  V30 5226 H 495.538 2.88891 2.64668 0
M  V30 5227 H 497.235 3.20278 2.41294 0
M  V30 5228 H 493.825 4.08862 1.28569 0
M  V30 5229 H 498.009 4.90678 0.744932 0
M  V30 5230 H 493.265 6.11399 0.0101886 0
M  V30 5231 H 497.439 6.94425 -0.524127 0
M  V30 5232 H 495.066 7.54884 -0.897474 0
M  V30 5233 N 496.642 -0.504142 1.49319 0
M  V30 5234 C 497.891 -1.25507 1.57895 0
M  V30 5235 C 498.204 -1.93735 0.269433 0
M  V30 5236 O 499.41 -2.70492 0.233706 0
M  V30 5237 C 497.866 -2.27869 2.78574 0
M  V30 5238 C 497.474 -1.65594 4.16272 0
M  V30 5239 C 499.218 -3.0381 2.96479 0
M  V30 5240 C 497.125 -2.66048 5.28178 0
M  V30 5241 H 496.055 -0.47212 0.587894 0
M  V30 5242 H 498.706 -0.52931 1.757 0
M  V30 5243 H 497.088 -3.03594 2.54257 0
M  V30 5244 H 498.262 -0.958826 4.50714 0
M  V30 5245 H 496.577 -1.02055 4.037 0
M  V30 5246 H 499.174 -3.78925 3.77253 0
M  V30 5247 H 499.517 -3.61235 2.06918 0
M  V30 5248 H 500.05 -2.352 3.20821 0
M  V30 5249 H 496.789 -2.13408 6.19788 0
M  V30 5250 H 496.309 -3.34009 4.98195 0
M  V30 5251 H 497.988 -3.28536 5.57381 0
M  V30 5252 N 498.12 -1.38341 -0.754957 0
M  V30 5253 C 499.531 -1.30803 -1.3322 0
M  V30 5254 C 499.882 0.0368 -1.96165 0
M  V30 5255 O 499.007 0.938844 -1.94974 0
M  V30 5256 C 499.602 -2.3688 -2.42225 0
M  V30 5257 C 498.161 -2.32925 -2.95674 0
M  V30 5258 C 497.308 -2.19819 -1.69042 0
M  V30 5259 H 500.259 -1.48719 -0.553937 0
M  V30 5260 H 500.28 -2.02517 -3.22129 0
M  V30 5261 H 499.792 -3.34747 -1.96383 0
M  V30 5262 H 497.893 -1.38635 -3.45848 0
M  V30 5263 H 498.006 -3.27008 -3.50146 0
M  V30 5264 H 496.37 -1.66648 -1.92615 0
M  V30 5265 H 497.153 -3.19625 -1.25279 0
M  V30 5266 N 499.598 0.982988 -1.23187 0
M  V30 5267 C 500.528 2.09301 -1.03515 0
M  V30 5268 C 501.509 1.70035 0.0471136 0
M  V30 5269 O 502.694 1.93847 -0.117029 0
M  V30 5270 C 499.824 3.4167 -0.622791 0
M  V30 5271 C 498.778 3.94828 -1.65211 0
M  V30 5272 C 498.104 5.23362 -1.09527 0
M  V30 5273 C 499.404 4.2439 -3.04451 0
M  V30 5274 H 501.098 2.26016 -1.96359 0
M  V30 5275 H 498.644 1.08611 -0.945501 0
M  V30 5276 H 500.597 4.18746 -0.472233 0
M  V30 5277 H 499.321 3.24811 0.341329 0
M  V30 5278 H 497.98 3.19895 -1.79061 0
M  V30 5279 H 497.628 5.02852 -0.122211 0
M  V30 5280 H 497.328 5.59895 -1.783 0
M  V30 5281 H 498.852 6.03062 -0.956511 0
M  V30 5282 H 500.266 4.92225 -2.93917 0
M  V30 5283 H 498.663 4.72118 -3.70438 0
M  V30 5284 H 499.733 3.31765 -3.53638 0
M  V30 5285 N 501.076 1.04316 1.18135 0
M  V30 5286 C 502.325 0.74319 1.87509 0
M  V30 5287 C 502.638 -0.732136 1.81381 0
M  V30 5288 O 503.844 -1.14572 2.46141 0
M  V30 5289 C 502.3 1.27913 3.36402 0
M  V30 5290 C 501.908 2.78326 3.51053 0
M  V30 5291 C 503.652 1.0558 4.11161 0
M  V30 5292 C 501.559 3.25266 4.93919 0
M  V30 5293 H 500.489 0.274313 0.702331 0
M  V30 5294 H 503.14 1.25931 1.33467 0
M  V30 5295 H 501.522 0.690853 3.89927 0
M  V30 5296 H 502.696 3.42933 3.07788 0
M  V30 5297 H 501.011 2.991 2.89704 0
M  V30 5298 H 503.608 1.38161 5.16542 0
M  V30 5299 H 503.951 -0.00684729 4.16299 0
M  V30 5300 H 504.484 1.60882 3.63816 0
M  V30 5301 H 501.223 4.30922 4.9395 0
M  V30 5302 H 500.743 2.65396 5.3789 0
M  V30 5303 H 502.422 3.19433 5.62647 0
M  V30 5304 N 502.554 -1.34406 0.822964 0
M  V30 5305 C 503.803 -1.97542 0.407458 0
M  V30 5306 C 504.116 -1.65973 -1.035 0
M  V30 5307 O 505.322 -2.22598 -1.55442 0
M  V30 5308 C 503.778 -3.53463 0.677623 0
M  V30 5309 C 503.386 -3.93925 2.1337 0
M  V30 5310 C 505.13 -4.23229 0.328284 0
M  V30 5311 C 503.037 -5.42759 2.34876 0
M  V30 5312 H 501.967 -0.739207 0.148623 0
M  V30 5313 H 504.618 -1.53248 1.00932 0
M  V30 5314 H 503 -3.96 0.00558965 0
M  V30 5315 H 504.174 -3.62494 2.8449 0
M  V30 5316 H 502.489 -3.37097 2.44448 0
M  V30 5317 H 505.086 -5.32659 0.466794 0
M  V30 5318 H 505.429 -4.09899 -0.727224 0
M  V30 5319 H 505.962 -3.86169 0.954896 0
M  V30 5320 H 502.701 -5.61075 3.38932 0
M  V30 5321 H 502.221 -5.75704 1.68299 0
M  V30 5322 H 503.9 -6.0944 2.17236 0
M  V30 5323 N 504.032 -0.577932 -1.46621 0
M  V30 5324 C 505.281 -0.0594281 -2.01612 0
M  V30 5325 C 505.594 1.30663 -1.45556 0
M  V30 5326 O 506.8 1.91621 -1.92337 0
M  V30 5327 C 505.256 -0.0556666 -3.59857 0
M  V30 5328 C 504.864 -1.41975 -4.24908 0
M  V30 5329 C 506.608 0.409143 -4.22524 0
M  V30 5330 C 504.515 -1.37397 -5.75218 0
M  V30 5331 H 503.445 -0.0184469 -0.753774 0
M  V30 5332 H 506.096 -0.728869 -1.68404 0
M  V30 5333 H 504.478 0.679843 -3.90121 0
M  V30 5334 H 505.652 -2.17461 -4.0626 0
M  V30 5335 H 503.967 -1.82419 -3.74316 0
M  V30 5336 H 506.564 0.46211 -5.32699 0
M  V30 5337 H 506.907 1.42565 -3.91128 0
M  V30 5338 H 507.44 -0.272152 -3.96868 0
M  V30 5339 H 504.179 -2.36714 -6.11267 0
M  V30 5340 H 503.699 -0.661239 -5.96144 0
M  V30 5341 H 505.378 -1.08484 -6.3784 0
M  V30 5342 N 505.51 1.54411 -0.315457 0
M  V30 5343 C 506.758 2.00023 0.288971 0
M  V30 5344 C 507.079 1.20529 1.5329 0
M  V30 5345 O 506.349 0.304986 1.93511 0
M  V30 5346 H 504.929 0.738891 0.109766 0
M  V30 5347 H 507.591 1.90094 -0.430129 0
M  V30 5348 H 506.687 3.07198 0.550999 0
M  V30 5349 N 506.988 0.0434614 1.5754 0
M  V30 5350 C 508.213 -0.645358 1.97104 0
M  V30 5351 C 508.638 -1.64037 0.920521 0
M  V30 5352 O 507.996 -1.80922 -0.11708 0
M  V30 5353 C 508.044 -1.31547 3.35749 0
M  V30 5354 O 507.148 -2.43103 3.33129 0
M  V30 5355 H 506.489 -0.168403 0.64229 0
M  V30 5356 H 509.019 0.109573 2.04306 0
M  V30 5357 H 509.029 -1.66895 3.72304 0
M  V30 5358 H 507.704 -0.586205 4.11748 0
M  V30 5359 H 506.281 -2.0976 3.0831 0
M  V30 5360 N 508.466 -1.55915 -0.229846 0
M  V30 5361 C 509.713 -1.78542 -0.955452 0
M  V30 5362 C 510.041 -0.610785 -1.84661 0
M  V30 5363 O 509.296 0.405213 -1.91459 0
M  V30 5364 C 509.595 -3.06845 -1.8325 0
M  V30 5365 C 509.261 -4.37395 -1.09528 0
M  V30 5366 C 507.923 -4.72868 -0.891598 0
M  V30 5367 C 510.275 -5.18029 -0.574046 0
M  V30 5368 C 507.603 -5.86496 -0.154655 0
M  V30 5369 C 509.955 -6.32423 0.149513 0
M  V30 5370 C 508.619 -6.66504 0.364519 0
M  V30 5371 H 507.889 -0.653333 -0.349625 0
M  V30 5372 H 510.536 -1.90183 -0.224235 0
M  V30 5373 H 508.841 -2.90291 -2.63132 0
M  V30 5374 H 510.538 -3.21553 -2.39592 0
M  V30 5375 H 507.128 -4.09538 -1.26399 0
M  V30 5376 H 511.312 -4.91066 -0.718899 0
M  V30 5377 H 506.568 -6.11396 0.0222356 0
M  V30 5378 H 510.742 -6.94137 0.560947 0
M  V30 5379 H 508.369 -7.54397 0.937495 0
M  V30 5380 N 509.944 0.496216 -1.49584 0
M  V30 5381 C 511.191 1.25003 -1.59312 0
M  V30 5382 C 511.519 1.92445 -0.28198 0
M  V30 5383 O 510.774 1.81557 0.730452 0
M  V30 5384 C 511.073 2.3359 -2.705 0
M  V30 5385 C 510.739 1.83574 -4.11839 0
M  V30 5386 C 509.401 1.69653 -4.50302 0
M  V30 5387 C 511.753 1.46193 -5.00277 0
M  V30 5388 C 509.081 1.16736 -5.74969 0
M  V30 5389 C 511.433 0.947265 -6.25468 0
M  V30 5390 C 510.097 0.794485 -6.62755 0
M  V30 5391 H 509.367 0.45742 -0.582965 0
M  V30 5392 H 512.014 0.549996 -1.83432 0
M  V30 5393 H 510.319 3.09401 -2.40371 0
M  V30 5394 H 512.016 2.91627 -2.75235 0
M  V30 5395 H 508.606 1.9537 -3.81482 0
M  V30 5396 H 512.79 1.55793 -4.71214 0
M  V30 5397 H 508.046 1.03623 -6.02555 0
M  V30 5398 H 512.22 0.648846 -6.93371 0
M  V30 5399 H 509.847 0.382271 -7.59238 0
M  V30 5400 N 511.423 1.38739 0.74761 0
M  V30 5401 C 512.356 1.3083 1.86972 0
M  V30 5402 C 513.334 0.184229 1.61553 0
M  V30 5403 O 514.518 0.36256 1.8498 0
M  V30 5404 C 511.645 1.02854 3.22705 0
M  V30 5405 C 510.691 2.17281 3.67003 0
M  V30 5406 S 511.524 3.79468 3.77842 0
M  V30 5407 C 512.68 3.53692 5.16385 0
M  V30 5408 H 512.913 2.258 1.93395 0
M  V30 5409 H 510.446 1.24646 0.911199 0
M  V30 5410 H 512.404 0.87397 4.01089 0
M  V30 5411 H 511.065 0.0959295 3.13953 0
M  V30 5412 H 510.258 1.93267 4.65472 0
M  V30 5413 H 509.86 2.28876 2.9579 0
M  V30 5414 H 512.152 3.10176 6.02327 0
M  V30 5415 H 513.095 4.51576 5.45422 0
M  V30 5416 H 513.503 2.8807 4.85464 0
M  V30 5417 N 512.901 -0.976442 1.23707 0
M  V30 5418 C 513.831 -2.08749 1.04624 0
M  V30 5419 C 514.812 -1.70057 -0.0380956 0
M  V30 5420 O 515.997 -1.93782 0.127308 0
M  V30 5421 C 513.127 -3.41335 0.640902 0
M  V30 5422 C 512.081 -3.93947 1.67302 0
M  V30 5423 C 511.407 -5.22774 1.12301 0
M  V30 5424 C 512.707 -4.22769 3.06697 0
M  V30 5425 H 514.401 -2.24972 1.97555 0
M  V30 5426 H 511.947 -1.08108 0.951247 0
M  V30 5427 H 513.9 -4.18489 0.494434 0
M  V30 5428 H 512.624 -3.24988 -0.324099 0
M  V30 5429 H 511.283 -3.18941 1.80755 0
M  V30 5430 H 510.931 -5.0278 0.148877 0
M  V30 5431 H 510.631 -5.58942 1.81267 0
M  V30 5432 H 512.155 -6.02546 0.988479 0
M  V30 5433 H 513.569 -4.90659 2.96524 0
M  V30 5434 H 511.966 -4.70147 3.72937 0
M  V30 5435 H 513.036 -3.29885 3.55392 0
M  V30 5436 N 514.379 -1.04941 -1.1758 0
M  V30 5437 C 515.327 -0.64204 -2.23563 0
M  V30 5438 C 516.321 0.335453 -1.66045 0
M  V30 5439 O 517.527 0.20179 -1.78865 0
M  V30 5440 H 513.902 -0.18944 -0.727748 0
M  V30 5441 H 515.873 -1.54609 -2.55223 0
M  V30 5442 C 514.622 -0.0301051 -3.47687 0
M  V30 5443 H 513.945 -0.773339 -3.92249 0
M  V30 5444 H 515.385 0.217592 -4.23441 0
M  V30 5445 C 513.844 1.2225 -3.13937 0
M  V30 5446 O 514.374 2.3122 -3.28482 0
M  V30 5447 N 512.58 1.11917 -2.68185 0
M  V30 5448 H 512.127 0.232403 -2.5655 0
M  V30 5449 H 512.085 1.95814 -2.45976 0
M  V30 5450 N 515.857 1.33968 -0.830081 0
M  V30 5451 C 516.787 2.31911 -0.271911 0
M  V30 5452 C 517.768 1.58571 0.61556 0
M  V30 5453 O 518.953 1.86514 0.540946 0
M  V30 5454 C 516.083 3.42737 0.561146 0
M  V30 5455 C 515.037 4.27383 -0.229789 0
M  V30 5456 C 514.363 5.29742 0.726463 0
M  V30 5457 C 515.663 5.02 -1.44197 0
M  V30 5458 H 517.357 2.78844 -1.09025 0
M  V30 5459 H 514.903 1.34061 -0.52571 0
M  V30 5460 H 516.856 4.10276 0.961867 0
M  V30 5461 H 515.58 2.94471 1.41261 0
M  V30 5462 H 514.239 3.61456 -0.611964 0
M  V30 5463 H 513.887 4.77736 1.57408 0
M  V30 5464 H 513.587 5.87255 0.20142 0
M  V30 5465 H 515.111 6.00149 1.12489 0
M  V30 5466 H 516.525 5.62355 -1.11488 0
M  V30 5467 H 514.922 5.69122 -1.90317 0
M  V30 5468 H 515.992 4.31281 -2.2164 0
M  V30 5469 N 517.335 0.585699 1.46312 0
M  V30 5470 C 518.581 0.0725284 2.0267 0
M  V30 5471 C 518.914 -1.28523 1.45586 0
M  V30 5472 O 518.189 -1.84283 0.622101 0
M  V30 5473 C 518.472 0.0099788 3.60099 0
M  V30 5474 C 518.325 1.39685 4.27561 0
M  V30 5475 C 519.644 -0.689117 4.34671 0
M  V30 5476 H 516.763 0.0278307 0.736474 0
M  V30 5477 H 519.405 0.753472 1.74421 0
M  V30 5478 H 517.555 -0.56992 3.84297 0
M  V30 5479 H 519.227 2.02215 4.14617 0
M  V30 5480 H 517.47 1.96374 3.86807 0
M  V30 5481 H 518.141 1.30553 5.36339 0
M  V30 5482 H 520.617 -0.196446 4.15636 0
M  V30 5483 H 519.493 -0.701921 5.44393 0
M  V30 5484 H 519.754 -1.75101 4.05946 0
M  V30 5485 N 518.813 -1.54241 0.323641 0
M  V30 5486 C 519.743 -2.27289 -0.534993 0
M  V30 5487 C 520.724 -1.28087 -1.11927 0
M  V30 5488 O 521.909 -1.56899 -1.14439 0
M  V30 5489 C 519.039 -3.03075 -1.69596 0
M  V30 5490 C 517.993 -4.09614 -1.24098 0
M  V30 5491 C 517.319 -4.73242 -2.4889 0
M  V30 5492 C 518.619 -5.21087 -0.355789 0
M  V30 5493 H 520.313 -2.99308 0.0743257 0
M  V30 5494 H 517.859 -1.43952 0.0371874 0
M  V30 5495 H 519.812 -3.52907 -2.30293 0
M  V30 5496 H 518.536 -2.28673 -2.33187 0
M  V30 5497 H 517.195 -3.60666 -0.656945 0
M  V30 5498 H 516.843 -3.95455 -3.10845 0
M  V30 5499 H 516.543 -5.45209 -2.19138 0
M  V30 5500 H 518.067 -5.25848 -3.10348 0
M  V30 5501 H 519.481 -5.66675 -0.869042 0
M  V30 5502 H 517.878 -5.9991 -0.151045 0
M  V30 5503 H 518.948 -4.81005 0.613339 0
M  V30 5504 N 520.291 -0.0518155 -1.57515 0
M  V30 5505 C 521.539 0.620595 -1.92336 0
M  V30 5506 C 521.86 1.71345 -0.930907 0
M  V30 5507 O 521.13 1.95885 0.0241341 0
M  V30 5508 H 519.71 0.232226 -0.709986 0
M  V30 5509 H 522.372 -0.104969 -1.94617 0
M  V30 5510 H 521.468 1.05879 -2.93592 0
M  V30 5511 N 521.769 1.56035 0.221574 0
M  V30 5512 C 523.015 1.79312 0.947372 0
M  V30 5513 C 523.348 0.621453 1.83988 0
M  V30 5514 O 522.623 -0.379287 1.90766 0
M  V30 5515 C 522.906 3.1267 1.78633 0
M  V30 5516 C 522.759 4.40284 0.920312 0
M  V30 5517 C 524.078 3.4247 2.7641 0
M  V30 5518 H 521.197 0.652328 0.342982 0
M  V30 5519 H 523.839 1.88765 0.216244 0
M  V30 5520 H 521.989 3.04741 2.40967 0
M  V30 5521 H 523.661 4.60232 0.313718 0
M  V30 5522 H 521.904 4.33212 0.225734 0
M  V30 5523 H 522.575 5.30033 1.54171 0
M  V30 5524 H 525.051 3.50526 2.24211 0
M  V30 5525 H 523.927 4.3695 3.32213 0
M  V30 5526 H 524.188 2.64635 3.54148 0
M  V30 5527 N 523.247 -0.488276 1.49845 0
M  V30 5528 C 524.177 -1.59675 1.70371 0
M  V30 5529 C 525.158 -1.60878 0.552473 0
M  V30 5530 O 526.343 -1.77417 0.78973 0
M  V30 5531 C 523.473 -2.98098 1.782 0
M  V30 5532 C 522.427 -3.11761 2.93239 0
M  V30 5533 C 521.753 -4.51661 2.86193 0
M  V30 5534 C 523.053 -2.90589 4.33999 0
M  V30 5535 H 524.747 -1.42752 2.63177 0
M  V30 5536 H 522.293 -0.685317 1.26647 0
M  V30 5537 H 524.246 -3.75555 1.91144 0
M  V30 5538 H 522.97 -3.16138 0.820018 0
M  V30 5539 H 521.629 -2.36732 2.79917 0
M  V30 5540 H 521.277 -4.66595 1.87877 0
M  V30 5541 H 520.977 -4.61742 3.63412 0
M  V30 5542 H 522.501 -5.31162 3.01163 0
M  V30 5543 H 523.915 -3.57807 4.47936 0
M  V30 5544 H 522.312 -3.1213 5.12538 0
M  V30 5545 H 523.382 -1.86595 4.4756 0
M  V30 5546 N 524.725 -1.39134 -0.740242 0
M  V30 5547 C 525.95 -1.39518 -1.53459 0
M  V30 5548 C 526.375 0.00968883 -1.88098 0
M  V30 5549 O 525.733 0.995312 -1.51536 0
M  V30 5550 C 525.781 -2.26981 -2.802 0
M  V30 5551 O 524.885 -1.69609 -3.75908 0
M  V30 5552 H 524.226 -0.475328 -0.463637 0
M  V30 5553 H 526.756 -1.83064 -0.913717 0
M  V30 5554 H 526.766 -2.41309 -3.28989 0
M  V30 5555 H 525.441 -3.29081 -2.5432 0
M  V30 5556 H 524.018 -1.64495 -3.34658 0
M  V30 5557 N 526.204 0.969867 -1.24223 0
M  V30 5558 C 527.452 1.70918 -1.0785 0
M  V30 5559 C 527.773 1.91186 0.383763 0
M  V30 5560 O 527.043 1.48806 1.27411 0
M  V30 5561 H 525.623 0.633334 -0.396103 0
M  V30 5562 H 528.285 1.16689 -1.56108 0
M  V30 5563 H 527.381 2.69455 -1.57482 0
M  V30 5564 N 527.682 1.05563 1.17022 0
M  V30 5565 C 528.592 0.670758 2.24807 0
M  V30 5566 C 529.608 -0.309865 1.71219 0
M  V30 5567 O 530.784 -0.161025 2.00755 0
M  V30 5568 C 527.849 0.055337 3.46656 0
M  V30 5569 C 526.91 1.08688 4.15314 0
M  V30 5570 C 526.143 0.500736 5.31346 0
M  V30 5571 O 526.366 -0.688718 5.66227 0
M  V30 5572 O 525.3 1.23683 5.89055 0
M  V30 5573 H 529.126 1.56914 2.60023 0
M  V30 5574 H 526.711 0.827428 1.24395 0
M  V30 5575 H 528.593 -0.286492 4.20425 0
M  V30 5576 H 527.268 -0.816638 3.13229 0
M  V30 5577 H 526.175 1.48077 3.43546 0
M  V30 5578 H 527.508 1.93014 4.52777 0
M  V30 5579 N 529.16 -1.33526 0.837174 0
M  V30 5580 C 530.407 -1.97837 0.432064 0
M  V30 5581 C 530.735 -1.66324 -1.00829 0
M  V30 5582 O 529.99 -0.93448 -1.71948 0
M  V30 5583 C 530.289 -3.52367 0.597675 0
M  V30 5584 C 529.955 -4.03826 2.00587 0
M  V30 5585 C 528.617 -4.1759 2.39106 0
M  V30 5586 C 530.969 -4.31333 2.92576 0
M  V30 5587 C 528.297 -4.56195 3.68921 0
M  V30 5588 C 530.649 -4.7139 4.2187 0
M  V30 5589 C 529.313 -4.8336 4.60347 0
M  V30 5590 H 528.583 -0.723937 0.158104 0
M  V30 5591 H 531.23 -1.5923 1.06387 0
M  V30 5592 H 529.535 -3.91624 -0.117452 0
M  V30 5593 H 531.232 -4.00126 0.26454 0
M  V30 5594 H 527.822 -3.93586 1.69671 0
M  V30 5595 H 532.006 -4.20224 2.64056 0
M  V30 5596 H 527.262 -4.63655 3.9854 0
M  V30 5597 H 531.436 -4.91631 4.93226 0
M  V30 5598 H 529.063 -5.1303 5.60985 0
M  V30 5599 N 530.638 -0.59345 -1.46 0
M  V30 5600 C 531.601 0.123538 -2.28867 0
M  V30 5601 C 532.601 0.808628 -1.38989 0
M  V30 5602 O 533.791 0.658945 -1.61256 0
M  V30 5603 C 530.923 1.1847 -3.19653 0
M  V30 5604 H 532.116 -0.604843 -2.93737 0
M  V30 5605 H 529.669 -0.351875 -1.52288 0
M  V30 5606 H 530.404 1.94431 -2.59552 0
M  V30 5607 H 530.189 0.69783 -3.8584 0
M  V30 5608 H 531.679 1.68726 -3.81997 0
M  V30 5609 N 532.116 1.54067 -0.331816 0
M  V30 5610 C 533.063 2.24623 0.530372 0
M  V30 5611 C 534.033 1.24009 1.10503 0
M  V30 5612 O 535.218 1.52712 1.14384 0
M  V30 5613 C 532.358 3.01374 1.68129 0
M  V30 5614 C 531.471 4.16821 1.13507 0
M  V30 5615 C 530.606 4.81085 2.25234 0
M  V30 5616 C 529.645 5.88621 1.67903 0
M  V30 5617 N 528.782 6.46713 2.73326 0
M  V30 5618 H 533.622 2.97898 -0.0778607 0
M  V30 5619 H 531.159 1.47014 -0.0501965 0
M  V30 5620 H 533.117 3.44125 2.35868 0
M  V30 5621 H 531.747 2.30419 2.26069 0
M  V30 5622 H 530.799 3.78796 0.348979 0
M  V30 5623 H 532.111 4.94203 0.675633 0
M  V30 5624 H 531.265 5.26846 3.00862 0
M  V30 5625 H 530.004 4.03102 2.74518 0
M  V30 5626 H 529.009 5.42254 0.907773 0
M  V30 5627 H 530.234 6.68506 1.19487 0
M  V30 5628 H 528.18 5.71599 3.21886 0
M  V30 5629 H 528.097 7.19532 2.3197 0
M  V30 5630 H 529.365 6.97129 3.48758 0
M  V30 5631 N 533.594 0.0601682 1.57485 0
M  V30 5632 C 534.504 -0.926121 2.15546 0
M  V30 5633 C 535.52 -1.33532 1.11558 0
M  V30 5634 O 536.696 -1.4104 1.4377 0
M  V30 5635 C 533.761 -2.17952 2.69625 0
M  V30 5636 C 532.822 -1.82783 3.88444 0
M  V30 5637 C 532.055 -3.02148 4.39935 0
M  V30 5638 O 532.278 -4.15803 3.90466 0
M  V30 5639 O 531.212 -2.82639 5.31412 0
M  V30 5640 H 535.038 -0.462289 3.00161 0
M  V30 5641 H 532.623 -0.162246 1.48516 0
M  V30 5642 H 534.505 -2.91474 3.04337 0
M  V30 5643 H 533.18 -2.63456 1.88077 0
M  V30 5644 H 532.087 -1.06549 3.58606 0
M  V30 5645 H 533.42 -1.42072 4.7125 0
M  V30 5646 N 535.072 -1.5615 -0.213296 0
M  V30 5647 C 536.488 -1.49327 -0.56336 0
M  V30 5648 C 536.688 -0.756826 -1.86747 0
M  V30 5649 O 535.744 -0.299866 -2.50713 0
M  V30 5650 C 537.057 -2.9392 -0.634944 0
M  V30 5651 C 538.605 -3.04487 -0.725013 0
M  V30 5652 C 539.08 -4.50456 -0.82787 0
M  V30 5653 N 540.571 -4.54533 -0.891876 0
M  V30 5654 C 541.306 -5.64766 -0.991315 0
M  V30 5655 N 540.802 -6.84733 -1.05419 0
M  V30 5656 N 542.595 -5.52637 -1.02709 0
M  V30 5657 H 534.746 -2.02453 0.642366 0
M  V30 5658 H 537.009 -0.920548 0.226487 0
M  V30 5659 H 536.715 -3.50783 0.253859 0
M  V30 5660 H 536.589 -3.46274 -1.49579 0
M  V30 5661 H 538.976 -2.47685 -1.60425 0
M  V30 5662 H 539.057 -2.55289 0.161669 0
M  V30 5663 H 538.701 -5.07878 0.0469464 0
M  V30 5664 H 538.631 -4.97369 -1.73009 0
M  V30 5665 H 541.122 -3.68141 -0.85327 0
M  V30 5666 H 541.435 -7.64493 -1.13007 0
M  V30 5667 H 539.78 -6.87427 -1.02318 0
M  V30 5668 H 542.971 -4.5784 -0.974687 0
M  V30 5669 H 543.144 -6.38576 -1.10113 0
M  V30 5670 N 536.55 0.480323 -1.50102 0
M  V30 5671 C 537.46 1.60547 -1.71061 0
M  V30 5672 C 538.476 1.63564 -0.593529 0
M  V30 5673 O 539.652 1.81604 -0.870751 0
M  V30 5674 C 536.717 2.96814 -1.79171 0
M  V30 5675 C 535.778 3.04259 -3.02861 0
M  V30 5676 C 535.011 4.34027 -3.10574 0
M  V30 5677 O 535.234 5.24009 -2.25323 0
M  V30 5678 O 534.168 4.46873 -4.03223 0
M  V30 5679 H 537.994 1.45788 -2.6642 0
M  V30 5680 H 535.579 0.658838 -1.34088 0
M  V30 5681 H 537.461 3.77765 -1.86738 0
M  V30 5682 H 536.136 3.11791 -0.869947 0
M  V30 5683 H 535.043 2.22419 -3.008 0
M  V30 5684 H 536.376 2.94216 -3.94586 0
M  V30 5685 N 538.028 1.39524 0.732853 0
M  V30 5686 C 539.444 1.21176 1.03868 0
M  V30 5687 C 539.644 0.0748448 2.01361 0
M  V30 5688 O 538.7 -0.57281 2.45917 0
M  V30 5689 C 540.013 2.54667 1.59892 0
M  V30 5690 C 541.561 2.6153 1.71962 0
M  V30 5691 C 542.036 3.95248 2.31394 0
M  V30 5692 N 543.527 3.96899 2.38801 0
M  V30 5693 C 544.262 4.97138 2.85729 0
M  V30 5694 N 543.758 6.07775 3.32537 0
M  V30 5695 N 545.551 4.84516 2.84957 0
M  V30 5696 H 537.702 2.12225 0.086304 0
M  V30 5697 H 539.965 0.942614 0.100907 0
M  V30 5698 H 539.671 3.38423 0.95721 0
M  V30 5699 H 539.545 2.74538 2.58668 0
M  V30 5700 H 541.932 1.78156 2.35254 0
M  V30 5701 H 542.013 2.45507 0.718327 0
M  V30 5702 H 541.657 4.79054 1.68729 0
M  V30 5703 H 541.587 4.08593 3.32204 0
M  V30 5704 H 544.078 3.16998 2.05719 0
M  V30 5705 H 544.391 6.8017 3.66862 0
M  V30 5706 H 542.736 6.11366 3.30541 0
M  V30 5707 H 545.927 3.97185 2.47713 0
M  V30 5708 H 546.1 5.62783 3.21215 0
M  V30 5709 N 539.506 -0.963266 1.24736 0
M  V30 5710 C 540.752 -1.70933 1.09131 0
M  V30 5711 C 541.085 -1.90676 -0.368273 0
M  V30 5712 O 540.36 -1.47147 -1.27193 0
M  V30 5713 C 540.643 -3.09744 1.83658 0
M  V30 5714 C 540.496 -2.97465 3.37394 0
M  V30 5715 C 541.815 -4.09483 1.61282 0
M  V30 5716 H 538.934 -0.620398 0.397838 0
M  V30 5717 H 541.576 -1.12028 1.53459 0
M  V30 5718 H 539.726 -3.60031 1.4598 0
M  V30 5719 H 541.398 -2.54571 3.84696 0
M  V30 5720 H 539.641 -2.33576 3.65547 0
M  V30 5721 H 540.312 -3.95822 3.84745 0
M  V30 5722 H 542.788 -3.68073 1.94066 0
M  V30 5723 H 541.664 -5.04666 2.15878 0
M  V30 5724 H 541.925 -4.38639 0.552102 0
M  V30 5725 N 540.985 -1.06182 -1.16461 0
M  V30 5726 C 541.895 -0.682671 -2.24448 0
M  V30 5727 C 542.911 0.30078 -1.71381 0
M  V30 5728 O 544.087 0.150376 -2.00838 0
M  V30 5729 C 541.152 -0.0737202 -3.46622 0
M  V30 5730 C 540.213 -1.10889 -4.14731 0
M  V30 5731 C 539.446 -0.528908 -5.31073 0
M  V30 5732 O 539.669 0.65868 -5.66584 0
M  V30 5733 O 538.603 -1.26805 -5.88391 0
M  V30 5734 H 542.429 -1.58291 -2.59187 0
M  V30 5735 H 540.014 -0.834013 -1.23954 0
M  V30 5736 H 541.896 0.264192 -4.20571 0
M  V30 5737 H 540.571 0.800015 -3.13658 0
M  V30 5738 H 539.478 -1.49896 -3.42756 0
M  V30 5739 H 540.811 -1.95412 -4.51747 0
M  V30 5740 N 542.463 1.3308 -0.844243 0
M  V30 5741 C 543.411 2.31028 -0.269954 0
M  V30 5742 C 544.405 1.58381 0.600997 0
M  V30 5743 O 545.611 1.73203 0.48996 0
M  V30 5744 H 541.986 0.748866 -0.0685782 0
M  V30 5745 H 543.957 2.76967 -1.11049 0
M  V30 5746 C 542.706 3.43549 0.535676 0
M  V30 5747 H 542.029 3.99604 -0.125202 0
M  V30 5748 H 543.469 4.14267 0.903262 0
M  V30 5749 C 541.928 2.8988 1.71672 0
M  V30 5750 O 542.458 2.86511 2.81557 0
M  V30 5751 N 540.664 2.46416 1.54037 0
M  V30 5752 H 540.211 2.49356 0.64649 0
M  V30 5753 H 540.169 2.1086 2.33207 0
M  V30 5754 N 543.941 0.601185 1.45683 0
M  V30 5755 C 545.357 0.264315 1.57396 0
M  V30 5756 C 545.557 -1.23324 1.59353 0
M  V30 5757 O 544.613 -2.01594 1.52039 0
M  V30 5758 C 545.926 0.929839 2.85962 0
M  V30 5759 C 547.474 0.905156 2.99626 0
M  V30 5760 C 547.949 1.55057 4.30954 0
M  V30 5761 N 549.44 1.51576 4.37697 0
M  V30 5762 C 550.175 1.98436 5.37969 0
M  V30 5763 N 549.671 2.53352 6.44813 0
M  V30 5764 N 551.464 1.89242 5.29286 0
M  V30 5765 H 543.615 1.57363 1.42656 0
M  V30 5766 H 545.878 0.658831 0.681649 0
M  V30 5767 H 545.584 1.98404 2.90394 0
M  V30 5768 H 545.458 0.449224 3.74515 0
M  V30 5769 H 547.845 -0.14048 2.94765 0
M  V30 5770 H 547.926 1.42397 2.12501 0
M  V30 5771 H 547.57 2.5955 4.36573 0
M  V30 5772 H 547.5 1.00682 5.16886 0
M  V30 5773 H 549.991 1.11452 3.61091 0
M  V30 5774 H 550.304 2.86918 7.17564 0
M  V30 5775 H 548.649 2.57388 6.45582 0
M  V30 5776 H 551.84 1.46083 4.44722 0
M  V30 5777 H 552.013 2.26075 6.07284 0
M  V30 5778 N 545.419 -1.53889 0.339982 0
M  V30 5779 C 546.835 -1.59595 -0.0120752 0
M  V30 5780 C 547.035 -1.35605 -1.49042 0
M  V30 5781 O 546.091 -1.14856 -2.24865 0
M  V30 5782 C 547.404 -2.9774 0.420898 0
M  V30 5783 C 548.952 -3.1077 0.37294 0
M  V30 5784 C 549.427 -4.51286 0.781327 0
M  V30 5785 N 550.918 -4.57325 0.735374 0
M  V30 5786 C 551.653 -5.64194 1.02336 0
M  V30 5787 N 551.149 -6.7893 1.37933 0
M  V30 5788 N 552.942 -5.54051 0.947838 0
M  V30 5789 H 545.093 -1.67738 1.30299 0
M  V30 5790 H 547.356 -0.785385 0.530918 0
M  V30 5791 H 547.062 -3.20349 1.45152 0
M  V30 5792 H 546.936 -3.76639 -0.205721 0
M  V30 5793 H 549.323 -2.87886 -0.648505 0
M  V30 5794 H 549.404 -2.33939 1.03472 0
M  V30 5795 H 549.048 -4.74905 1.80077 0
M  V30 5796 H 548.978 -5.26511 0.0970679 0
M  V30 5797 H 551.469 -3.74931 0.472773 0
M  V30 5798 H 551.782 -7.56392 1.58402 0
M  V30 5799 H 550.127 -6.80386 1.41774 0
M  V30 5800 H 553.318 -4.63293 0.669115 0
M  V30 5801 H 553.491 -6.37246 1.17563 0
M  V30 5802 N 546.897 -0.0685191 -1.57451 0
M  V30 5803 C 547.86 0.885173 -2.11417 0
M  V30 5804 C 548.86 1.22853 -1.03748 0
M  V30 5805 O 550.05 1.16235 -1.2975 0
M  V30 5806 C 547.182 2.18964 -2.61281 0
M  V30 5807 H 548.375 0.417034 -2.96986 0
M  V30 5808 H 545.928 0.18014 -1.55258 0
M  V30 5809 H 546.663 2.70321 -1.79156 0
M  V30 5810 H 546.448 1.9534 -3.39977 0
M  V30 5811 H 547.938 2.87242 -3.0312 0
M  V30 5812 N 548.375 1.56261 0.205012 0
M  V30 5813 C 549.622 1.8004 0.926927 0
M  V30 5814 C 549.95 0.640086 1.83666 0
M  V30 5815 O 549.205 -0.374702 1.92079 0
M  V30 5816 C 549.504 3.09722 1.78345 0
M  V30 5817 C 549.17 4.39082 1.02555 0
M  V30 5818 C 547.832 4.74226 0.816256 0
M  V30 5819 C 550.184 5.18877 0.491559 0
M  V30 5820 C 547.512 5.86668 0.0613287 0
M  V30 5821 C 549.864 6.32105 -0.250107 0
M  V30 5822 C 548.528 6.6584 -0.470508 0
M  V30 5823 H 547.798 0.658812 0.339187 0
M  V30 5824 H 550.445 1.90515 0.19395 0
M  V30 5825 H 548.75 2.9444 2.5848 0
M  V30 5826 H 550.447 3.25324 2.34446 0
M  V30 5827 H 547.037 4.11497 1.19868 0
M  V30 5828 H 551.221 4.92147 0.640684 0
M  V30 5829 H 546.477 6.11283 -0.119501 0
M  V30 5830 H 550.651 6.93157 -0.671307 0
M  V30 5831 H 548.278 7.5281 -1.05739 0
M  V30 5832 N 549.853 -0.472356 1.50355 0
M  V30 5833 C 550.783 -1.57859 1.72055 0
M  V30 5834 C 551.764 -1.60283 0.569505 0
M  V30 5835 O 552.949 -1.7657 0.808503 0
M  V30 5836 C 550.079 -2.96191 1.81351 0
M  V30 5837 C 549.033 -3.08633 2.96529 0
M  V30 5838 C 548.359 -4.486 2.90968 0
M  V30 5839 C 549.659 -2.85969 4.37057 0
M  V30 5840 H 551.353 -1.39953 2.64676 0
M  V30 5841 H 548.899 -0.671846 1.27367 0
M  V30 5842 H 550.852 -3.73507 1.95117 0
M  V30 5843 H 549.576 -3.15251 0.853502 0
M  V30 5844 H 548.235 -2.33749 2.82413 0
M  V30 5845 H 547.883 -4.64577 1.92815 0
M  V30 5846 H 547.583 -4.57861 3.68289 0
M  V30 5847 H 549.107 -5.27938 3.0678 0
M  V30 5848 H 550.521 -3.53036 4.51706 0
M  V30 5849 H 548.918 -3.06677 5.15819 0
M  V30 5850 H 549.988 -1.81838 4.49514 0
M  V30 5851 N 551.331 -1.39911 -0.725443 0
M  V30 5852 C 552.278 -1.39393 -1.83952 0
M  V30 5853 C 553.248 -0.252249 -1.64173 0
M  V30 5854 O 554.433 -0.44882 -1.85446 0
M  V30 5855 C 551.573 -1.25262 -3.21564 0
M  V30 5856 C 550.686 -2.49054 -3.52982 0
M  V30 5857 C 549.821 -2.27439 -4.80047 0
M  V30 5858 C 548.86 -3.46857 -5.04338 0
M  V30 5859 N 547.997 -3.24499 -6.22611 0
M  V30 5860 H 552.837 -2.34622 -1.83729 0
M  V30 5861 H 550.374 -1.16537 -0.897636 0
M  V30 5862 H 552.332 -1.15077 -4.01015 0
M  V30 5863 H 550.962 -0.33657 -3.21041 0
M  V30 5864 H 550.014 -2.69805 -2.6816 0
M  V30 5865 H 551.326 -3.37973 -3.66846 0
M  V30 5866 H 550.48 -2.14551 -5.67497 0
M  V30 5867 H 549.219 -1.35929 -4.68374 0
M  V30 5868 H 548.224 -3.60232 -4.15346 0
M  V30 5869 H 549.449 -4.3928 -5.17889 0
M  V30 5870 H 547.395 -2.35663 -6.12208 0
M  V30 5871 H 547.312 -4.06978 -6.37106 0
M  V30 5872 H 548.58 -3.15325 -7.12875 0
M  V30 5873 N 552.809 0.956637 -1.25245 0
M  V30 5874 C 553.739 2.07058 -1.07931 0
M  V30 5875 C 554.72 1.70096 0.0110361 0
M  V30 5876 O 555.905 1.93555 -0.158121 0
M  V30 5877 C 553.035 3.40272 -0.695124 0
M  V30 5878 C 551.989 3.91235 -1.73549 0
M  V30 5879 C 551.315 5.20921 -1.20604 0
M  V30 5880 C 552.615 4.17837 -3.13385 0
M  V30 5881 H 554.309 2.218 -2.01109 0
M  V30 5882 H 551.855 1.06581 -0.968326 0
M  V30 5883 H 553.808 4.1765 -0.560949 0
M  V30 5884 H 552.532 3.25462 0.272355 0
M  V30 5885 H 551.191 3.16025 -1.85807 0
M  V30 5886 H 550.839 5.02479 -0.228846 0
M  V30 5887 H 550.539 5.55987 -1.90136 0
M  V30 5888 H 552.063 6.00897 -1.08421 0
M  V30 5889 H 553.477 4.8588 -3.04292 0
M  V30 5890 H 551.874 4.64154 -3.80369 0
M  V30 5891 H 552.944 3.2419 -3.60595 0
M  V30 5892 N 554.287 1.06798 1.15896 0
M  V30 5893 C 555.703 0.792423 1.38538 0
M  V30 5894 C 555.903 -0.60592 1.92174 0
M  V30 5895 O 554.959 -1.36561 2.12385 0
M  V30 5896 C 556.272 1.86157 2.36149 0
M  V30 5897 C 557.82 1.88567 2.49823 0
M  V30 5898 C 558.295 2.9455 3.5072 0
M  V30 5899 N 559.786 2.93616 3.58251 0
M  V30 5900 C 560.521 3.72267 4.36125 0
M  V30 5901 N 560.017 4.60751 5.17379 0
M  V30 5902 N 561.81 3.60637 4.31158 0
M  V30 5903 H 553.961 1.96993 0.794198 0
M  V30 5904 H 556.224 0.853942 0.411688 0
M  V30 5905 H 555.93 2.86603 2.03843 0
M  V30 5906 H 555.804 1.71692 3.3586 0
M  V30 5907 H 558.191 0.887765 2.8143 0
M  V30 5908 H 558.272 2.0711 1.5013 0
M  V30 5909 H 557.916 3.94537 3.19849 0
M  V30 5910 H 557.846 2.73255 4.50155 0
M  V30 5911 H 560.337 2.29472 3.00252 0
M  V30 5912 H 560.65 5.17408 5.74028 0
M  V30 5913 H 558.995 4.64803 5.16704 0
M  V30 5914 H 562.186 2.90892 3.66742 0
M  V30 5915 H 562.359 4.22176 4.91601 0
M  V30 5916 N 555.766 -1.3263 0.851289 0
M  V30 5917 C 557.182 -1.50162 0.5407 0
M  V30 5918 C 557.382 -1.78788 -0.929369 0
M  V30 5919 O 556.438 -1.85545 -1.71258 0
M  V30 5920 C 557.751 -2.64803 1.42478 0
M  V30 5921 C 559.299 -2.78688 1.42485 0
M  V30 5922 C 559.774 -3.96405 2.29407 0
M  V30 5923 N 561.265 -4.0366 2.27184 0
M  V30 5924 C 562 -4.93971 2.9117 0
M  V30 5925 N 561.496 -5.89313 3.64256 0
M  V30 5926 N 563.289 -4.87066 2.80576 0
M  V30 5927 H 555.44 -1.12315 1.80275 0
M  V30 5928 H 557.703 -0.553266 0.769806 0
M  V30 5929 H 557.409 -2.50368 2.46999 0
M  V30 5930 H 557.283 -3.60506 1.10974 0
M  V30 5931 H 559.67 -2.92547 0.387304 0
M  V30 5932 H 559.751 -1.83708 1.78002 0
M  V30 5933 H 559.395 -3.83304 3.33228 0
M  V30 5934 H 559.325 -4.90654 1.91224 0
M  V30 5935 H 561.816 -3.35435 1.74045 0
M  V30 5936 H 562.129 -6.54913 4.10255 0
M  V30 5937 H 560.474 -5.8935 3.68364 0
M  V30 5938 H 563.665 -4.11552 2.23031 0
M  V30 5939 H 563.838 -5.57248 3.30725 0
M  V30 5940 N 557.244 -0.608902 -1.45362 0
M  V30 5941 C 558.176 0.147318 -2.28726 0
M  V30 5942 C 559.189 0.830468 -1.40025 0
M  V30 5943 O 560.378 0.695636 -1.64387 0
M  V30 5944 C 557.478 1.22968 -3.15804 0
M  V30 5945 C 556.651 0.633391 -4.3279 0
M  V30 5946 C 555.71 1.60682 -5.01067 0
M  V30 5947 O 554.736 1.13261 -5.57818 0
M  V30 5948 N 555.938 2.94123 -5.00472 0
M  V30 5949 H 558.703 -0.568014 -2.94268 0
M  V30 5950 H 556.264 -0.448479 -1.55564 0
M  V30 5951 H 558.256 1.88072 -3.58345 0
M  V30 5952 H 556.826 1.84752 -2.52162 0
M  V30 5953 H 556.046 -0.195762 -3.93714 0
M  V30 5954 H 557.334 0.215255 -5.08344 0
M  V30 5955 H 556.732 3.3525 -4.55657 0
M  V30 5956 H 555.289 3.54646 -5.46872 0
M  V30 5957 N 558.722 1.53707 -0.348139 0
M  V30 5958 C 559.654 2.22725 0.540946 0
M  V30 5959 C 560.667 1.2354 1.06027 0
M  V30 5960 O 561.856 1.49867 0.96964 0
M  V30 5961 C 558.956 2.89756 1.75768 0
M  V30 5962 C 558.129 4.15297 1.37285 0
M  V30 5963 C 557.188 4.65697 2.44976 0
M  V30 5964 O 556.214 5.29798 2.08092 0
M  V30 5965 N 557.416 4.42017 3.763 0
M  V30 5966 H 560.181 2.99658 -0.0501592 0
M  V30 5967 H 557.742 1.60979 -0.17248 0
M  V30 5968 H 559.734 3.20388 2.47252 0
M  V30 5969 H 558.304 2.16382 2.25605 0
M  V30 5970 H 557.524 3.9116 0.488584 0
M  V30 5971 H 558.812 4.96948 1.09179 0
M  V30 5972 H 558.21 3.9076 4.09051 0
M  V30 5973 H 556.767 4.77242 4.4394 0
M  V30 5974 N 560.2 0.0768682 1.57412 0
M  V30 5975 C 561.132 -0.918248 2.10002 0
M  V30 5976 C 562.145 -1.25808 1.03325 0
M  V30 5977 O 563.334 -1.21438 1.30824 0
M  V30 5978 C 560.434 -2.23263 2.54964 0
M  V30 5979 C 559.607 -2.07088 3.8527 0
M  V30 5980 C 558.666 -3.21876 4.16272 0
M  V30 5981 O 557.692 -2.96643 4.8579 0
M  V30 5982 N 558.894 -4.4712 3.70221 0
M  V30 5983 H 561.659 -0.469209 2.96004 0
M  V30 5984 H 559.22 -0.108725 1.61535 0
M  V30 5985 H 561.212 -2.9897 2.72762 0
M  V30 5986 H 559.782 -2.59649 1.74072 0
M  V30 5987 H 559.002 -1.15818 3.76802 0
M  V30 5988 H 560.29 -1.93537 4.70554 0
M  V30 5989 H 559.688 -4.70506 3.1407 0
M  V30 5990 H 558.245 -5.19837 3.93209 0
M  V30 5991 N 561.678 -1.56367 -0.196722 0
M  V30 5992 C 562.927 -1.79724 -0.915539 0
M  V30 5993 C 563.24 -0.649804 -1.84491 0
M  V30 5994 O 564.446 -0.767631 -2.60422 0
M  V30 5995 C 562.902 -3.18369 -1.67836 0
M  V30 5996 C 562.51 -4.4091 -0.793897 0
M  V30 5997 C 564.254 -3.51037 -2.38691 0
M  V30 5998 C 562.161 -5.70577 -1.55549 0
M  V30 5999 H 561.091 -0.67013 -0.345604 0
M  V30 6000 H 563.742 -1.82721 -0.168856 0
M  V30 6001 H 562.124 -3.09617 -2.46887 0
M  V30 6002 H 563.298 -4.60781 -0.042163 0
M  V30 6003 H 561.613 -4.15937 -0.19626 0
M  V30 6004 H 564.21 -4.4515 -2.96219 0
M  V30 6005 H 564.553 -2.74704 -3.12799 0
M  V30 6006 H 565.086 -3.61229 -1.66608 0
M  V30 6007 H 561.825 -6.49871 -0.857226 0
M  V30 6008 H 561.345 -5.54726 -2.2812 0
M  V30 6009 H 563.024 -6.11637 -2.10971 0
M  V30 6010 N 563.156 0.464375 -1.50603 0
M  V30 6011 C 564.066 1.58723 -1.72754 0
M  V30 6012 C 565.082 1.62925 -0.610844 0
M  V30 6013 O 566.258 1.8067 -0.889963 0
M  V30 6014 C 563.323 2.94897 -1.82309 0
M  V30 6015 C 562.384 3.0103 -3.06071 0
M  V30 6016 C 561.617 4.30708 -3.1516 0
M  V30 6017 O 561.84 5.2159 -2.30868 0
M  V30 6018 O 560.774 4.42571 -4.0794 0
M  V30 6019 H 564.6 1.42954 -2.67951 0
M  V30 6020 H 562.185 0.644579 -1.3478 0
M  V30 6021 H 564.067 3.75764 -1.90735 0
M  V30 6022 H 562.742 3.10851 -0.902967 0
M  V30 6023 H 561.649 2.19217 -3.03142 0
M  V30 6024 H 562.982 2.90014 -3.97684 0
M  V30 6025 N 564.634 1.40294 0.718013 0
M  V30 6026 C 566.05 1.2227 1.02577 0
M  V30 6027 C 566.25 0.0961976 2.0127 0
M  V30 6028 O 565.306 -0.546695 2.46511 0
M  V30 6029 C 566.619 2.56348 1.57182 0
M  V30 6030 C 568.167 2.6334 1.69178 0
M  V30 6031 C 568.642 3.9768 2.27188 0
M  V30 6032 N 570.133 3.99409 2.34578 0
M  V30 6033 C 570.868 5.00141 2.8044 0
M  V30 6034 N 570.364 6.11268 3.26073 0
M  V30 6035 N 572.157 4.87511 2.79802 0
M  V30 6036 H 564.308 2.12304 0.0637899 0
M  V30 6037 H 566.571 0.943632 0.0909036 0
M  V30 6038 H 566.277 3.3942 0.921262 0
M  V30 6039 H 566.151 2.77266 2.55741 0
M  V30 6040 H 568.538 1.80641 2.33351 0
M  V30 6041 H 568.619 2.46255 0.692247 0
M  V30 6042 H 568.263 4.80817 1.63638 0
M  V30 6043 H 568.193 4.12093 3.27852 0
M  V30 6044 H 570.684 3.19162 2.02346 0
M  V30 6045 H 570.997 6.84023 3.59628 0
M  V30 6046 H 569.342 6.14837 3.24038 0
M  V30 6047 H 572.533 3.9979 2.43487 0
M  V30 6048 H 572.706 5.66158 3.15228 0
M  V30 6049 N 566.112 -0.949982 1.2575 0
M  V30 6050 C 567.022 -2.08109 1.08295 0
M  V30 6051 C 568.038 -1.7399 0.0188181 0
M  V30 6052 O 569.214 -2.00187 0.220724 0
M  V30 6053 C 566.279 -3.39383 0.708534 0
M  V30 6054 C 565.34 -3.8734 1.85111 0
M  V30 6055 C 564.573 -5.12349 1.49447 0
M  V30 6056 O 564.796 -5.6905 0.392212 0
M  V30 6057 O 563.73 -5.5513 2.32624 0
M  V30 6058 H 567.556 -2.25738 2.03165 0
M  V30 6059 H 565.141 -1.06545 1.04731 0
M  V30 6060 H 567.023 -4.18277 0.512061 0
M  V30 6061 H 565.698 -3.23013 -0.210854 0
M  V30 6062 H 564.605 -3.09429 2.10248 0
M  V30 6063 H 565.938 -4.08216 2.74991 0
M  V30 6064 N 567.59 -1.07411 -1.15328 0
M  V30 6065 C 568.52 -0.716472 -2.22236 0
M  V30 6066 C 569.501 0.296373 -1.67498 0
M  V30 6067 O 570.686 0.168989 -1.93463 0
M  V30 6068 C 567.816 -0.114142 -3.47112 0
M  V30 6069 C 566.77 -1.05421 -4.14814 0
M  V30 6070 C 566.096 -0.314604 -5.33774 0
M  V30 6071 C 567.396 -2.38808 -4.64508 0
M  V30 6072 H 569.09 -1.61029 -2.52408 0
M  V30 6073 H 566.636 -0.775702 -1.21321 0
M  V30 6074 H 568.589 0.148001 -4.2114 0
M  V30 6075 H 567.313 0.814755 -3.16274 0
M  V30 6076 H 565.972 -1.30128 -3.42728 0
M  V30 6077 H 565.62 0.617772 -4.99192 0
M  V30 6078 H 565.32 -0.941209 -5.80013 0
M  V30 6079 H 566.844 -0.0602747 -6.1057 0
M  V30 6080 H 568.258 -2.18424 -5.3006 0
M  V30 6081 H 566.655 -2.97069 -5.21412 0
M  V30 6082 H 567.725 -3.01067 -3.80114 0
M  V30 6083 N 569.068 1.32177 -0.85831 0
M  V30 6084 C 570.016 2.30729 -0.294442 0
M  V30 6085 C 571.01 1.59009 0.584165 0
M  V30 6086 O 572.216 1.73713 0.471562 0
M  V30 6087 H 568.591 0.748097 -0.0765171 0
M  V30 6088 H 570.562 2.75774 -1.1398 0
M  V30 6089 C 569.311 3.44098 0.499208 0
M  V30 6090 H 568.634 3.99449 -0.167579 0
M  V30 6091 H 570.074 4.15202 0.859273 0
M  V30 6092 C 568.533 2.91684 1.68588 0
M  V30 6093 O 569.063 2.89481 2.78503 0
M  V30 6094 N 567.269 2.48036 1.51415 0
M  V30 6095 H 566.816 2.50027 0.620006 0
M  V30 6096 H 566.774 2.13322 2.30957 0
M  V30 6097 N 570.547 0.616602 1.45037 0
M  V30 6098 C 571.795 0.115103 2.01772 0
M  V30 6099 C 572.116 -1.2622 1.48639 0
M  V30 6100 O 571.386 -1.83563 0.684199 0
M  V30 6101 H 569.966 0.0395607 0.745952 0
M  V30 6102 H 572.628 0.800032 1.77723 0
M  V30 6103 H 571.724 0.0717274 3.12018 0
M  V30 6104 N 572.025 -1.5352 0.356285 0
M  V30 6105 C 573.255 -2.05236 -0.236983 0
M  V30 6106 C 573.663 -1.23016 -1.43749 0
M  V30 6107 O 573.006 -0.2615 -1.81829 0
M  V30 6108 C 573.068 -3.52549 -0.7035 0
M  V30 6109 C 572.732 -4.55425 0.379059 0
M  V30 6110 C 573.729 -5.0524 1.22592 0
M  V30 6111 C 571.414 -4.99425 0.536638 0
M  V30 6112 C 573.408 -5.97647 2.21578 0
M  V30 6113 C 571.095 -5.9164 1.52988 0
M  V30 6114 C 572.093 -6.4064 2.3679 0
M  V30 6115 O 571.781 -7.31039 3.34421 0
M  V30 6116 H 571.513 -0.674346 -0.047254 0
M  V30 6117 H 574.067 -1.98962 0.510238 0
M  V30 6118 H 572.297 -3.56331 -1.50217 0
M  V30 6119 H 573.986 -3.87171 -1.21873 0
M  V30 6120 H 574.752 -4.72002 1.11532 0
M  V30 6121 H 570.631 -4.60879 -0.105834 0
M  V30 6122 H 574.175 -6.35816 2.87025 0
M  V30 6123 H 570.072 -6.24293 1.64099 0
M  V30 6124 H 570.84 -7.49009 3.30041 0
M  V30 6125 N 573.503 -0.0852151 -1.57369 0
M  V30 6126 C 574.433 0.874556 -2.16503 0
M  V30 6127 C 575.414 1.30111 -1.09568 0
M  V30 6128 O 576.599 1.36977 -1.37662 0
M  V30 6129 C 573.729 2.13731 -2.73745 0
M  V30 6130 C 572.683 1.84971 -3.85966 0
M  V30 6131 C 572.009 3.17991 -4.29867 0
M  V30 6132 C 573.309 1.14442 -5.09608 0
M  V30 6133 H 575.003 0.381899 -2.96954 0
M  V30 6134 H 572.549 0.18225 -1.42842 0
M  V30 6135 H 574.502 2.81302 -3.13763 0
M  V30 6136 H 573.226 2.65263 -1.90534 0
M  V30 6137 H 571.885 1.19801 -3.46473 0
M  V30 6138 H 571.533 3.6739 -3.4356 0
M  V30 6139 H 571.233 2.99534 -5.05523 0
M  V30 6140 H 572.757 3.86737 -4.72511 0
M  V30 6141 H 574.171 1.72105 -5.46857 0
M  V30 6142 H 572.568 1.06197 -5.90629 0
M  V30 6143 H 573.638 0.12559 -4.84737 0
M  V30 6144 N 574.981 1.5647 0.188427 0
M  V30 6145 C 575.891 1.98285 1.2538 0
M  V30 6146 C 576.907 0.891535 1.49424 0
M  V30 6147 O 578.083 1.19782 1.61908 0
M  V30 6148 C 575.148 2.31965 2.57669 0
M  V30 6149 C 574.209 3.54838 2.41638 0
M  V30 6150 C 573.442 3.86901 3.67618 0
M  V30 6151 O 573.665 3.20163 4.72072 0
M  V30 6152 O 572.599 4.80309 3.62749 0
M  V30 6153 H 576.425 2.89145 0.928912 0
M  V30 6154 H 574.01 1.44112 0.393955 0
M  V30 6155 H 575.892 2.54673 3.35737 0
M  V30 6156 H 574.567 1.44271 2.89771 0
M  V30 6157 H 573.474 3.37369 1.61658 0
M  V30 6158 H 574.807 4.43019 2.14465 0
M  V30 6159 N 576.459 -0.456382 1.50847 0
M  V30 6160 C 577.705 -1.20618 1.63777 0
M  V30 6161 C 578.06 -1.8936 0.340677 0
M  V30 6162 O 577.353 -1.79786 -0.662378 0
M  V30 6163 C 577.547 -2.26336 2.76599 0
M  V30 6164 C 577.376 -1.67968 4.17153 0
M  V30 6165 C 576.146 -1.47293 4.83356 0
M  V30 6166 C 578.344 -1.16643 5.00898 0
M  V30 6167 N 576.326 -0.843222 6.08081 0
M  V30 6168 C 577.697 -0.660843 6.16468 0
M  V30 6169 C 579.752 -1.05637 4.86565 0
M  V30 6170 C 578.455 -0.0560365 7.19278 0
M  V30 6171 C 580.481 -0.465485 5.89565 0
M  V30 6172 C 579.843 0.0296516 7.04394 0
M  V30 6173 H 575.942 -0.429725 0.653345 0
M  V30 6174 H 578.526 -0.505784 1.88016 0
M  V30 6175 H 576.697 -2.93785 2.54056 0
M  V30 6176 H 578.429 -2.9334 2.78808 0
M  V30 6177 H 575.184 -1.72934 4.40898 0
M  V30 6178 H 575.608 -0.546357 6.74792 0
M  V30 6179 H 580.25 -1.42508 3.98059 0
M  V30 6180 H 577.968 0.324845 8.07447 0
M  V30 6181 H 581.554 -0.382493 5.80541 0
M  V30 6182 H 580.434 0.479705 7.82731 0
M  V30 6183 N 577.937 -1.40673 -0.710563 0
M  V30 6184 C 579.186 -1.38525 -1.46607 0
M  V30 6185 C 579.499 0.0077024 -1.95598 0
M  V30 6186 O 580.705 0.151792 -2.71075 0
M  V30 6187 C 579.161 -2.43489 -2.6503 0
M  V30 6188 C 578.769 -3.88619 -2.22888 0
M  V30 6189 C 580.513 -2.50456 -3.42742 0
M  V30 6190 C 578.42 -4.85168 -3.3818 0
M  V30 6191 H 577.35 -0.515092 -0.550632 0
M  V30 6192 H 580.001 -1.66431 -0.772846 0
M  V30 6193 H 578.383 -2.0869 -3.36548 0
M  V30 6194 H 579.557 -4.32588 -1.58758 0
M  V30 6195 H 577.872 -3.85174 -1.58208 0
M  V30 6196 H 580.469 -3.19776 -4.28541 0
M  V30 6197 H 580.812 -1.53665 -3.86902 0
M  V30 6198 H 581.345 -2.84271 -2.78271 0
M  V30 6199 H 578.084 -5.8331 -2.99047 0
M  V30 6200 H 577.604 -4.4586 -4.01209 0
M  V30 6201 H 579.283 -5.05225 -4.04174 0
M  V30 6202 N 579.415 0.9433 -1.26252 0
M  V30 6203 C 580.662 1.68925 -1.11672 0
M  V30 6204 C 580.99 1.91499 0.340329 0
M  V30 6205 O 580.245 1.49189 1.26653 0
M  V30 6206 C 580.544 3.07073 -1.82868 0
M  V30 6207 C 580.21 3.04262 -3.32769 0
M  V30 6208 C 578.872 3.03203 -3.7366 0
M  V30 6209 C 581.224 2.96729 -4.28487 0
M  V30 6210 C 578.552 2.92373 -5.0866 0
M  V30 6211 C 580.904 2.87442 -5.63525 0
M  V30 6212 C 579.568 2.84724 -6.03729 0
M  V30 6213 H 578.838 0.618141 -0.408635 0
M  V30 6214 H 581.485 1.10124 -1.56668 0
M  V30 6215 H 579.79 3.69486 -1.30335 0
M  V30 6216 H 581.487 3.63635 -1.69029 0
M  V30 6217 H 578.077 3.05865 -3.00241 0
M  V30 6218 H 582.261 2.96658 -3.97879 0
M  V30 6219 H 577.517 2.88645 -5.38975 0
M  V30 6220 H 581.691 2.80576 -6.37377 0
M  V30 6221 H 579.318 2.76089 -7.08293 0
M  V30 6222 N 580.893 1.08022 1.14757 0
M  V30 6223 C 581.84 0.706657 2.19716 0
M  V30 6224 C 582.81 -0.30525 1.63271 0
M  V30 6225 O 583.995 -0.19015 1.8985 0
M  V30 6226 C 581.135 0.117914 3.44898 0
M  V30 6227 C 580.248 1.18212 4.15512 0
M  V30 6228 C 579.383 0.557659 5.28265 0
M  V30 6229 C 578.422 1.60418 5.90705 0
M  V30 6230 N 577.559 1.0018 6.94916 0
M  V30 6231 H 582.399 1.60603 2.51019 0
M  V30 6232 H 579.936 0.802664 1.23271 0
M  V30 6233 H 581.894 -0.241112 4.16503 0
M  V30 6234 H 580.524 -0.744788 3.1409 0
M  V30 6235 H 579.576 1.65863 3.42335 0
M  V30 6236 H 580.888 1.97533 4.5802 0
M  V30 6237 H 580.042 0.146654 6.06523 0
M  V30 6238 H 578.781 -0.267249 4.86967 0
M  V30 6239 H 577.786 2.02489 5.11154 0
M  V30 6240 H 579.011 2.43149 6.34078 0
M  V30 6241 H 576.957 0.197917 6.55701 0
M  V30 6242 H 576.874 1.73216 7.35889 0
M  V30 6243 H 578.142 0.616523 7.77058 0
M  V30 6244 N 582.371 -1.3172 0.865308 0
M  V30 6245 C 583.334 -2.26918 0.322627 0
M  V30 6246 C 584.334 -1.52031 -0.523751 0
M  V30 6247 O 585.524 -1.70973 -0.333727 0
M  V30 6248 C 582.656 -3.36558 -0.542338 0
M  V30 6249 H 583.849 -2.76432 1.16298 0
M  V30 6250 H 581.402 -1.42573 0.640512 0
M  V30 6251 H 582.137 -2.92329 -1.40407 0
M  V30 6252 H 581.922 -3.92048 0.0636395 0
M  V30 6253 H 583.412 -4.07465 -0.91446 0
M  V30 6254 N 583.85 -0.624285 -1.44708 0
M  V30 6255 C 584.76 0.0861083 -2.34442 0
M  V30 6256 C 585.776 0.84291 -1.5222 0
M  V30 6257 O 586.952 0.796723 -1.84971 0
M  V30 6258 C 584.017 1.05999 -3.30099 0
M  V30 6259 C 583.077 0.303316 -4.28227 0
M  V30 6260 C 582.311 1.23081 -5.19314 0
M  V30 6261 O 582.534 2.46929 -5.14181 0
M  V30 6262 O 581.468 0.71883 -5.97592 0
M  V30 6263 H 585.293 -0.651756 -2.96624 0
M  V30 6264 H 582.879 -0.384493 -1.44368 0
M  V30 6265 H 584.76 1.62046 -3.88997 0
M  V30 6266 H 583.436 1.77859 -2.70459 0
M  V30 6267 H 582.343 -0.300033 -3.72895 0
M  V30 6268 H 583.676 -0.375123 -4.90768 0
M  V30 6269 N 585.328 1.53329 -0.364422 0
M  V30 6270 C 586.238 2.29414 0.490552 0
M  V30 6271 C 587.254 1.35335 1.09363 0
M  V30 6272 O 588.43 1.68391 1.10483 0
M  V30 6273 C 585.495 3.06772 1.61529 0
M  V30 6274 C 584.556 4.16516 1.03986 0
M  V30 6275 C 583.789 4.90176 2.111 0
M  V30 6276 O 584.012 4.63687 3.32191 0
M  V30 6277 O 582.946 5.76134 1.74222 0
M  V30 6278 H 586.772 3.03428 -0.12856 0
M  V30 6279 H 584.357 1.48843 -0.128837 0
M  V30 6280 H 586.239 3.55082 2.26924 0
M  V30 6281 H 584.914 2.35596 2.21983 0
M  V30 6282 H 583.821 3.7246 0.349856 0
M  V30 6283 H 585.154 4.89855 0.4799 0
M  V30 6284 N 586.806 0.0935595 1.57322 0
M  V30 6285 C 588.052 -0.571355 1.94585 0
M  V30 6286 C 588.385 -1.67929 0.975366 0
M  V30 6287 O 587.66 -1.94498 0.00816206 0
M  V30 6288 C 587.943 -1.12797 3.41978 0
M  V30 6289 C 587.796 -0.0251881 4.49793 0
M  V30 6290 C 589.115 -2.02682 3.90651 0
M  V30 6291 H 586.234 -0.206223 0.70756 0
M  V30 6292 H 588.876 0.163956 1.89291 0
M  V30 6293 H 587.026 -1.75461 3.4662 0
M  V30 6294 H 588.698 0.608979 4.57263 0
M  V30 6295 H 586.941 0.641399 4.29032 0
M  V30 6296 H 587.612 -0.455433 5.50118 0
M  V30 6297 H 590.088 -1.49925 3.88152 0
M  V30 6298 H 588.964 -2.38555 4.94351 0
M  V30 6299 H 589.225 -2.94362 3.29854 0
M  V30 6300 N 588.284 -1.56567 -0.180126 0
M  V30 6301 C 589.217 -1.90813 -1.25163 0
M  V30 6302 C 590.195 -0.7699 -1.43218 0
M  V30 6303 O 591.379 -1.02236 -1.58367 0
M  V30 6304 C 588.506 -2.15138 -2.61597 0
M  V30 6305 C 587.552 -3.37834 -2.60328 0
M  V30 6306 S 588.385 -4.92486 -2.1028 0
M  V30 6307 C 589.541 -5.19896 -3.48509 0
M  V30 6308 H 589.774 -2.81398 -0.959283 0
M  V30 6309 H 587.307 -1.49541 -0.3843 0
M  V30 6310 H 589.265 -2.29835 -3.40127 0
M  V30 6311 H 587.926 -1.25276 -2.88036 0
M  V30 6312 H 587.119 -3.52027 -3.60684 0
M  V30 6313 H 586.721 -3.22208 -1.8989 0
M  V30 6314 H 589.013 -5.11334 -4.44459 0
M  V30 6315 H 589.956 -6.21571 -3.39198 0
M  V30 6316 H 590.364 -4.47489 -3.44114 0
M  V30 6317 N 589.762 0.448376 -1.51087 0
M  V30 6318 C 590.692 1.55102 -1.74544 0
M  V30 6319 C 591.673 1.59357 -0.594932 0
M  V30 6320 O 592.858 1.75261 -0.836491 0
M  V30 6321 C 589.988 2.93268 -1.86041 0
M  V30 6322 C 588.942 3.03877 -3.01402 0
M  V30 6323 C 588.268 4.43914 -2.98068 0
M  V30 6324 C 589.568 2.7898 -4.41551 0
M  V30 6325 H 591.262 1.35724 -2.66869 0
M  V30 6326 H 588.808 0.651498 -1.28419 0
M  V30 6327 H 590.761 3.70356 -2.01034 0
M  V30 6328 H 589.485 3.13853 -0.903548 0
M  V30 6329 H 588.144 2.29227 -2.86096 0
M  V30 6330 H 587.792 4.6145 -2.00182 0
M  V30 6331 H 587.492 4.51944 -3.75527 0
M  V30 6332 H 589.016 5.22991 -3.1514 0
M  V30 6333 H 590.43 3.45805 -4.57265 0
M  V30 6334 H 588.827 2.98431 -5.20633 0
M  V30 6335 H 589.897 1.74663 -4.5235 0
M  V30 6336 N 591.24 1.41047 0.703093 0
M  V30 6337 C 592.203 1.42036 1.79884 0
M  V30 6338 C 593.203 0.312153 1.57741 0
M  V30 6339 O 594.393 0.571672 1.64553 0
M  V30 6340 C 591.525 1.22437 3.18154 0
M  V30 6341 H 592.718 2.39572 1.80403 0
M  V30 6342 H 590.271 1.27079 0.909977 0
M  V30 6343 H 591.006 0.257112 3.23279 0
M  V30 6344 H 590.791 2.02723 3.35627 0
M  V30 6345 H 592.281 1.25946 3.98155 0
M  V30 6346 N 592.718 -0.936591 1.26751 0
M  V30 6347 C 593.628 -2.06949 1.10496 0
M  V30 6348 C 594.644 -1.7396 0.037271 0
M  V30 6349 O 595.82 -1.99941 0.241944 0
M  V30 6350 C 592.885 -3.38612 0.744491 0
M  V30 6351 C 591.946 -3.85355 1.89209 0
M  V30 6352 C 591.179 -5.10735 1.54873 0
M  V30 6353 O 591.402 -5.68602 0.452546 0
M  V30 6354 O 590.336 -5.52632 2.38499 0
M  V30 6355 H 594.162 -2.23571 2.05547 0
M  V30 6356 H 591.747 -1.05428 1.05855 0
M  V30 6357 H 593.629 -4.17711 0.556396 0
M  V30 6358 H 592.304 -3.23218 -0.176582 0
M  V30 6359 H 591.211 -3.07182 2.13518 0
M  V30 6360 H 592.544 -4.05277 2.79305 0
M  V30 6361 N 594.196 -1.08629 -1.14182 0
M  V30 6362 C 595.106 -0.730126 -2.22949 0
M  V30 6363 C 596.122 0.26436 -1.7198 0
M  V30 6364 O 597.298 0.107742 -2.01112 0
M  V30 6365 C 594.363 -0.147227 -3.46387 0
M  V30 6366 C 593.424 -1.19662 -4.12286 0
M  V30 6367 C 592.657 -0.641437 -5.29831 0
M  V30 6368 O 592.88 0.538351 -5.67854 0
M  V30 6369 O 591.814 -1.39257 -5.85569 0
M  V30 6370 H 595.64 -1.63753 -2.55771 0
M  V30 6371 H 593.225 -0.860118 -1.22157 0
M  V30 6372 H 595.107 0.174923 -4.21037 0
M  V30 6373 H 593.782 0.733304 -3.15285 0
M  V30 6374 H 592.689 -1.57133 -3.395 0
M  V30 6375 H 594.022 -2.0495 -4.475 0
M  V30 6376 N 595.674 1.31259 -0.872281 0
M  V30 6377 C 596.951 1.91362 -0.404943 0
M  V30 6378 C 597.331 1.79362 1.11321 0
M  V30 6379 O 596.679 1.20277 1.94283 0
M  V30 6380 C 596.889 3.3749 -0.888893 0
M  V30 6381 C 598.237 4.14593 -0.916384 0
M  V30 6382 O 599.261 3.46282 -0.834701 0
M  V30 6383 O 598.12 5.3661 -1.03498 0
M  V30 6384 H 595.214 0.818016 -0.121569 0
M  V30 6385 H 597.76 1.39912 -0.960346 0
M  V30 6386 H 596.532 3.40249 -1.93251 0
M  V30 6387 H 596.155 3.96375 -0.311932 0
M  V30 6388 N 597.152 0.631951 1.44375 0
M  V30 6389 C 598.568 0.297642 1.568 0
M  V30 6390 C 598.768 -1.19916 1.61934 0
M  V30 6391 O 597.824 -1.98324 1.56281 0
M  V30 6392 C 599.137 0.990286 2.83926 0
M  V30 6393 C 600.685 0.968507 2.97639 0
M  V30 6394 C 601.16 1.64163 4.27568 0
M  V30 6395 N 602.651 1.60826 4.34384 0
M  V30 6396 C 603.386 2.09802 5.33639 0
M  V30 6397 N 602.882 2.66973 6.39294 0
M  V30 6398 N 604.675 2.00426 5.25153 0
M  V30 6399 H 596.826 1.60353 1.39286 0
M  V30 6400 H 599.089 0.673142 0.667521 0
M  V30 6401 H 598.795 2.04519 2.8612 0
M  V30 6402 H 598.669 0.528563 3.73478 0
M  V30 6403 H 601.056 -0.0779247 2.94997 0
M  V30 6404 H 601.137 1.46873 2.09433 0
M  V30 6405 H 600.781 2.68752 4.3097 0
M  V30 6406 H 600.711 1.11624 5.14634 0
M  V30 6407 H 603.202 1.19087 3.58646 0
M  V30 6408 H 603.515 3.02074 7.11316 0
M  V30 6409 H 601.86 2.71024 6.39977 0
M  V30 6410 H 605.051 1.55483 4.41523 0
M  V30 6411 H 605.224 2.38906 6.02352 0
M  V30 6412 N 598.631 -1.53133 0.372548 0
M  V30 6413 C 599.579 -2.27473 -0.485681 0
M  V30 6414 C 600.573 -1.30719 -1.07745 0
M  V30 6415 O 601.779 -1.48321 -1.01985 0
M  V30 6416 H 598.154 -0.731269 -0.175356 0
M  V30 6417 H 600.125 -2.97955 0.162986 0
M  V30 6418 C 598.874 -3.08191 -1.60978 0
M  V30 6419 H 598.197 -3.82488 -1.16373 0
M  V30 6420 H 599.637 -3.63373 -2.18485 0
M  V30 6421 C 598.096 -2.19461 -2.55614 0
M  V30 6422 O 598.626 -1.81008 -3.58607 0
M  V30 6423 N 596.832 -1.83955 -2.24965 0
M  V30 6424 H 596.379 -2.15423 -1.41247 0
M  V30 6425 H 596.337 -1.24874 -2.88538 0
M  V30 6426 N 600.109 -0.101901 -1.5727 0
M  V30 6427 C 601.072 0.840129 -2.13247 0
M  V30 6428 C 602.072 1.20625 -1.06331 0
M  V30 6429 O 603.262 1.13456 -1.32186 0
M  V30 6430 C 600.394 2.13372 -2.65867 0
M  V30 6431 H 601.587 0.353945 -2.97804 0
M  V30 6432 H 599.14 0.147167 -1.55606 0
M  V30 6433 H 599.875 2.66461 -1.84849 0
M  V30 6434 H 599.66 1.88085 -3.44044 0
M  V30 6435 H 601.15 2.80748 -3.09145 0
M  V30 6436 N 601.587 1.56661 0.17182 0
M  V30 6437 C 602.497 1.99604 1.2327 0
M  V30 6438 C 603.513 0.907333 1.4847 0
M  V30 6439 O 604.689 1.21492 1.60629 0
M  V30 6440 C 601.754 2.34685 2.55194 0
M  V30 6441 C 600.815 3.57381 2.3786 0
M  V30 6442 C 600.048 3.90779 3.63494 0
M  V30 6443 O 600.271 3.25152 4.6865 0
M  V30 6444 O 599.205 4.84129 3.57634 0
M  V30 6445 H 603.031 2.90114 0.898192 0
M  V30 6446 H 600.616 1.44522 0.378647 0
M  V30 6447 H 602.498 2.5822 3.33017 0
M  V30 6448 H 601.173 1.47336 2.88225 0
M  V30 6449 H 600.08 3.39064 1.5807 0
M  V30 6450 H 601.413 4.45268 2.09754 0
M  V30 6451 N 603.065 -0.440357 1.51323 0
M  V30 6452 C 603.975 -1.55955 1.75258 0
M  V30 6453 C 604.991 -1.61933 0.636687 0
M  V30 6454 O 606.167 -1.79231 0.918593 0
M  V30 6455 C 603.232 -2.9196 1.86977 0
M  V30 6456 C 602.293 -2.96122 3.10822 0
M  V30 6457 C 601.526 -4.2564 3.21973 0
M  V30 6458 O 601.749 -5.17851 2.39137 0
M  V30 6459 O 600.683 -4.36025 4.14929 0
M  V30 6460 H 604.509 -1.38673 2.70191 0
M  V30 6461 H 602.094 -0.623055 1.35788 0
M  V30 6462 H 603.976 -3.72682 1.96688 0
M  V30 6463 H 602.651 -3.09375 0.952307 0
M  V30 6464 H 601.558 -2.14366 3.06591 0
M  V30 6465 H 602.891 -2.83651 4.02247 0
M  V30 6466 N 604.543 -1.41418 -0.695603 0
M  V30 6467 C 605.49 -1.43264 -1.80954 0
M  V30 6468 C 606.46 -0.287016 -1.63601 0
M  V30 6469 O 607.645 -0.488054 -1.84452 0
M  V30 6470 C 604.785 -1.32054 -3.18835 0
M  V30 6471 C 603.898 -2.56485 -3.4762 0
M  V30 6472 C 603.033 -2.3757 -4.75115 0
M  V30 6473 C 602.072 -3.57477 -4.96867 0
M  V30 6474 N 601.209 -3.37632 -6.15588 0
M  V30 6475 H 606.049 -2.38467 -1.78711 0
M  V30 6476 H 603.586 -1.18415 -0.872715 0
M  V30 6477 H 605.544 -1.23558 -3.98484 0
M  V30 6478 H 604.174 -0.404592 -3.20254 0
M  V30 6479 H 603.226 -2.75432 -2.62376 0
M  V30 6480 H 604.538 -3.45678 -3.59594 0
M  V30 6481 H 603.692 -2.2654 -5.62818 0
M  V30 6482 H 602.431 -1.45834 -4.65386 0
M  V30 6483 H 601.436 -3.68961 -4.07612 0
M  V30 6484 H 602.661 -4.50167 -5.08455 0
M  V30 6485 H 600.607 -2.48596 -6.07072 0
M  V30 6486 H 600.524 -4.20401 -6.2833 0
M  V30 6487 H 601.792 -3.30375 -7.06026 0
M  V30 6488 N 606.021 0.929856 -1.27246 0
M  V30 6489 C 607.246 1.71674 -1.16374 0
M  V30 6490 C 607.671 1.86064 0.276024 0
M  V30 6491 O 607.029 1.3591 1.19992 0
M  V30 6492 C 607.077 3.09526 -1.85003 0
M  V30 6493 O 606.181 3.96142 -1.14653 0
M  V30 6494 H 605.522 0.52629 -0.404863 0
M  V30 6495 H 608.052 1.16381 -1.68276 0
M  V30 6496 H 608.062 3.59852 -1.92276 0
M  V30 6497 H 606.737 2.98369 -2.89739 0
M  V30 6498 H 605.314 3.54584 -1.15433 0
M  V30 6499 N 607.499 1.09233 1.13605 0
M  V30 6500 C 608.91 0.846839 1.6639 0
M  V30 6501 C 609.261 -0.625031 1.85978 0
M  V30 6502 O 608.386 -1.48173 1.57714 0
M  V30 6503 C 608.981 1.5307 3.0225 0
M  V30 6504 C 607.54 1.33223 3.52035 0
M  V30 6505 C 606.687 1.58806 2.27323 0
M  V30 6506 H 609.638 1.25175 0.975541 0
M  V30 6507 H 609.659 0.96267 3.68121 0
M  V30 6508 H 609.171 2.60192 2.87961 0
M  V30 6509 H 607.272 0.282091 3.71531 0
M  V30 6510 H 607.385 2.0657 4.32279 0
M  V30 6511 H 605.749 1.01007 2.33815 0
M  V30 6512 H 606.532 2.67153 2.15602 0
M  V30 6513 N 608.977 -1.30795 0.87923 0
M  V30 6514 C 609.907 -2.30742 0.357796 0
M  V30 6515 C 610.888 -1.60747 -0.556283 0
M  V30 6516 O 612.073 -1.88393 -0.47135 0
M  V30 6517 C 609.203 -3.44583 -0.433555 0
M  V30 6518 C 608.157 -4.26235 0.388251 0
M  V30 6519 C 607.483 -5.32073 -0.529352 0
M  V30 6520 C 608.783 -4.96303 1.62729 0
M  V30 6521 H 610.477 -2.74605 1.19299 0
M  V30 6522 H 608.023 -1.32017 0.575104 0
M  V30 6523 H 609.976 -4.13563 -0.808934 0
M  V30 6524 H 608.7 -2.99511 -1.30234 0
M  V30 6525 H 607.359 -3.58936 0.745695 0
M  V30 6526 H 607.007 -4.83249 -1.39569 0
M  V30 6527 H 606.707 -5.87598 0.0166741 0
M  V30 6528 H 608.231 -6.0391 -0.901373 0
M  V30 6529 H 609.645 -5.5783 1.32283 0
M  V30 6530 H 608.042 -5.61666 2.11309 0
M  V30 6531 H 609.112 -4.22758 2.37494 0
M  V30 6532 N 610.455 -0.639598 -1.44038 0
M  V30 6533 C 611.732 -0.078012 -1.95444 0
M  V30 6534 C 612.112 1.39847 -1.58133 0
M  V30 6535 O 611.46 2.11714 -0.859614 0
M  V30 6536 C 611.67 -0.309832 -3.47622 0
M  V30 6537 C 613.018 -0.207521 -4.24093 0
M  V30 6538 O 614.042 -0.241653 -3.55379 0
M  V30 6539 O 612.901 -0.119641 -5.46369 0
M  V30 6540 H 609.995 0.0174534 -0.826816 0
M  V30 6541 H 612.541 -0.711891 -1.54046 0
M  V30 6542 H 611.313 -1.33401 -3.67858 0
M  V30 6543 H 610.936 0.357777 -3.95987 0
M  V30 6544 N 611.933 1.52934 -0.380664 0
M  V30 6545 C 613.179 2.01765 0.20458 0
M  V30 6546 C 613.512 1.26696 1.47179 0
M  V30 6547 O 612.787 0.364936 1.91046 0
M  V30 6548 C 613.07 3.56869 0.481269 0
M  V30 6549 C 612.923 4.42617 -0.800629 0
M  V30 6550 C 614.242 4.2121 1.27554 0
M  V30 6551 H 611.361 0.733388 0.0728803 0
M  V30 6552 H 614.003 1.83068 -0.50853 0
M  V30 6553 H 612.153 3.72932 1.08875 0
M  V30 6554 H 613.825 4.38323 -1.43773 0
M  V30 6555 H 612.068 4.09977 -1.4178 0
M  V30 6556 H 612.739 5.49134 -0.561791 0
M  V30 6557 H 615.215 4.09072 0.761514 0
M  V30 6558 H 614.091 5.29732 1.43788 0
M  V30 6559 H 614.352 3.78269 2.28833 0
M  V30 6560 N 613.412 0.11024 1.57214 0
M  V30 6561 C 614.342 -0.840002 2.17867 0
M  V30 6562 C 615.323 -1.28352 1.11624 0
M  V30 6563 O 616.508 -1.3477 1.39824 0
M  V30 6564 C 613.638 -2.09349 2.77111 0
M  V30 6565 C 612.592 -1.78807 3.8886 0
M  V30 6566 C 611.918 -3.11112 4.34872 0
M  V30 6567 C 613.218 -1.0632 5.11364 0
M  V30 6568 H 614.912 -0.334608 2.97524 0
M  V30 6569 H 612.458 -0.159502 1.43114 0
M  V30 6570 H 614.411 -2.76275 3.18198 0
M  V30 6571 H 613.135 -2.62198 1.9473 0
M  V30 6572 H 611.794 -1.14273 3.48335 0
M  V30 6573 H 611.442 -3.61877 3.49362 0
M  V30 6574 H 611.142 -2.91453 5.10224 0
M  V30 6575 H 612.666 -3.79171 4.78604 0
M  V30 6576 H 614.08 -1.63383 5.49526 0
M  V30 6577 H 612.477 -0.967876 5.92243 0
M  V30 6578 H 613.547 -0.0484569 4.84876 0
M  V30 6579 N 614.89 -1.56749 -0.16351 0
M  V30 6580 C 615.837 -1.97011 -1.2023 0
M  V30 6581 C 616.807 -0.835186 -1.43575 0
M  V30 6582 O 617.992 -1.09594 -1.56185 0
M  V30 6583 C 615.132 -2.34186 -2.53478 0
M  V30 6584 C 614.245 -3.60893 -2.37446 0
M  V30 6585 C 613.38 -3.87245 -3.63614 0
M  V30 6586 C 612.419 -5.07274 -3.42548 0
M  V30 6587 N 611.556 -5.29719 -4.60806 0
M  V30 6588 H 616.396 -2.85562 -0.851958 0
M  V30 6589 H 613.933 -1.41292 -0.409257 0
M  V30 6590 H 615.891 -2.53764 -3.31149 0
M  V30 6591 H 614.521 -1.48736 -2.86492 0
M  V30 6592 H 613.573 -3.49185 -1.50911 0
M  V30 6593 H 614.885 -4.48722 -2.1783 0
M  V30 6594 H 614.039 -4.07232 -4.49719 0
M  V30 6595 H 612.778 -2.97806 -3.86216 0
M  V30 6596 H 611.783 -4.87177 -2.5483 0
M  V30 6597 H 613.008 -5.98251 -3.2136 0
M  V30 6598 H 610.954 -4.43233 -4.83612 0
M  V30 6599 H 610.871 -6.11786 -4.44132 0
M  V30 6600 H 612.139 -5.54192 -5.48171 0
M  V30 6601 N 616.368 0.432326 -1.51554 0
M  V30 6602 C 617.784 0.769195 -1.39841 0
M  V30 6603 C 617.984 1.95584 -0.484675 0
M  V30 6604 O 617.04 2.52433 0.0582829 0
M  V30 6605 C 618.353 1.04487 -2.81963 0
M  V30 6606 C 619.901 1.149 -2.91148 0
M  V30 6607 C 620.376 1.45758 -4.34187 0
M  V30 6608 N 621.867 1.52671 -4.37317 0
M  V30 6609 C 622.602 1.78129 -5.4503 0
M  V30 6610 N 622.098 2.01345 -6.62897 0
M  V30 6611 N 623.891 1.79953 -5.32516 0
M  V30 6612 H 616.042 -0.349122 -2.09511 0
M  V30 6613 H 618.305 -0.0938113 -0.943347 0
M  V30 6614 H 618.011 0.24557 -3.50842 0
M  V30 6615 H 617.885 1.97119 -3.21596 0
M  V30 6616 H 620.272 1.93891 -2.22464 0
M  V30 6617 H 620.353 0.201568 -2.55005 0
M  V30 6618 H 619.997 0.672917 -5.03423 0
M  V30 6619 H 619.927 2.41715 -4.67848 0
M  V30 6620 H 622.418 1.36612 -3.52343 0
M  V30 6621 H 622.731 2.20155 -7.40778 0
M  V30 6622 H 621.076 1.98657 -6.66003 0
M  V30 6623 H 624.267 1.61337 -4.39418 0
M  V30 6624 H 624.44 1.99455 -6.1654 0
M  V30 6625 N 617.846 1.41785 0.688094 0
M  V30 6626 C 618.809 1.43936 1.78368 0
M  V30 6627 C 619.809 0.328866 1.57401 0
M  V30 6628 O 620.999 0.589093 1.63937 0
M  V30 6629 C 618.131 1.25804 3.16838 0
M  V30 6630 H 619.324 2.41472 1.77852 0
M  V30 6631 H 616.877 1.28037 0.896448 0
M  V30 6632 H 617.612 0.291386 3.22988 0
M  V30 6633 H 617.397 2.06272 3.33458 0
M  V30 6634 H 618.887 1.30162 3.96797 0
M  V30 6635 N 619.324 -0.923095 1.27737 0
M  V30 6636 C 620.287 -2.00587 1.10894 0
M  V30 6637 C 621.287 -1.60718 0.0514927 0
M  V30 6638 O 622.477 -1.71658 0.296481 0
M  V30 6639 C 619.609 -3.33829 0.690717 0
M  V30 6640 H 620.802 -2.16959 2.07048 0
M  V30 6641 H 618.355 -1.10451 1.1059 0
M  V30 6642 H 619.09 -3.23157 -0.272 0
M  V30 6643 H 618.875 -3.64125 1.45448 0
M  V30 6644 H 620.365 -4.13336 0.595252 0
M  V30 6645 N 620.802 -1.09834 -1.13024 0
M  V30 6646 C 622.03 -0.858902 -1.8823 0
M  V30 6647 C 622.445 0.590164 -1.79339 0
M  V30 6648 O 621.802 1.4065 -1.16292 0
M  V30 6649 C 621.853 -1.29066 -3.37675 0
M  V30 6650 O 621.574 -2.6829 -3.46341 0
M  V30 6651 C 623.075 -1.08421 -4.29837 0
M  V30 6652 H 620.295 -0.308713 -0.595766 0
M  V30 6653 H 622.839 -1.4614 -1.4305 0
M  V30 6654 H 620.994 -0.731961 -3.80422 0
M  V30 6655 H 621.408 -2.86598 -4.39274 0
M  V30 6656 H 622.882 -1.43553 -5.33007 0
M  V30 6657 H 623.359 -0.0223315 -4.39194 0
M  V30 6658 H 623.965 -1.62907 -3.92863 0
M  V30 6659 N 622.28 1.30327 -0.886154 0
M  V30 6660 C 623.227 2.28099 -0.352069 0
M  V30 6661 C 624.197 1.56433 0.558397 0
M  V30 6662 O 625.382 1.84492 0.486561 0
M  V30 6663 C 622.522 3.42456 0.426346 0
M  V30 6664 C 621.635 4.28938 -0.513472 0
M  V30 6665 C 620.77 5.30458 0.280657 0
M  V30 6666 C 619.809 6.0859 -0.654556 0
M  V30 6667 N 618.946 7.02022 0.104322 0
M  V30 6668 H 623.786 2.73166 -1.19097 0
M  V30 6669 H 621.323 1.34367 -0.598662 0
M  V30 6670 H 623.281 4.07518 0.893587 0
M  V30 6671 H 621.911 2.98455 1.22981 0
M  V30 6672 H 620.963 3.64173 -1.09921 0
M  V30 6673 H 622.275 4.83399 -1.2299 0
M  V30 6674 H 621.429 6.01273 0.8097 0
M  V30 6675 H 620.168 4.76693 1.03029 0
M  V30 6676 H 619.173 5.36651 -1.19522 0
M  V30 6677 H 620.398 6.64443 -1.4033 0
M  V30 6678 H 618.344 6.50645 0.836472 0
M  V30 6679 H 618.261 7.53979 -0.552453 0
M  V30 6680 H 619.529 7.77077 0.614069 0
M  V30 6681 N 623.758 0.647228 1.43697 0
M  V30 6682 C 624.705 -0.0480092 2.3075 0
M  V30 6683 C 625.675 -0.820705 1.44408 0
M  V30 6684 O 626.86 -0.798515 1.73287 0
M  V30 6685 C 624 -1.01259 3.2991 0
M  V30 6686 C 623.113 -0.236629 4.31351 0
M  V30 6687 C 622.248 -1.19447 5.17596 0
M  V30 6688 C 621.287 -0.408595 6.10735 0
M  V30 6689 N 620.424 -1.31772 6.89623 0
M  V30 6690 H 625.264 0.700238 2.89656 0
M  V30 6691 H 622.801 0.357082 1.427 0
M  V30 6692 H 624.759 -1.58538 3.85903 0
M  V30 6693 H 623.389 -1.72778 2.72667 0
M  V30 6694 H 622.441 0.452353 3.77701 0
M  V30 6695 H 623.753 0.374731 4.9739 0
M  V30 6696 H 622.907 -1.83809 5.78186 0
M  V30 6697 H 621.646 -1.83975 4.51669 0
M  V30 6698 H 620.651 0.24841 5.49239 0
M  V30 6699 H 621.876 0.232188 6.78703 0
M  V30 6700 H 619.822 -1.94991 6.2635 0
M  V30 6701 H 619.739 -0.760779 7.52162 0
M  V30 6702 H 621.007 -1.94967 7.54724 0
M  V30 6703 N 625.236 -1.5273 0.388769 0
M  V30 6704 C 626.461 -2.0647 -0.19621 0
M  V30 6705 C 626.886 -1.25865 -1.39784 0
M  V30 6706 O 626.244 -0.283562 -1.79069 0
M  V30 6707 C 626.292 -3.56456 -0.5451 0
M  V30 6708 O 625.396 -3.78426 -1.63912 0
M  V30 6709 H 624.737 -0.663599 -0.023067 0
M  V30 6710 H 627.267 -1.96898 0.556084 0
M  V30 6711 H 627.277 -3.99888 -0.809557 0
M  V30 6712 H 625.952 -4.14561 0.333417 0
M  V30 6713 H 624.529 -3.46884 -1.36842 0
M  V30 6714 N 626.714 -0.118576 -1.57153 0
M  V30 6715 C 628.13 0.238014 -1.57815 0
M  V30 6716 C 628.33 1.66747 -1.13127 0
M  V30 6717 O 627.386 2.38867 -0.818462 0
M  V30 6718 C 628.699 0.00508207 -3.007 0
M  V30 6719 C 630.247 0.0710139 -3.12919 0
M  V30 6720 C 630.722 -0.13422 -4.57803 0
M  V30 6721 N 632.213 -0.0801755 -4.63131 0
M  V30 6722 C 632.948 -0.213885 -5.73001 0
M  V30 6723 N 632.444 -0.403742 -6.91623 0
M  V30 6724 N 634.237 -0.15349 -5.6189 0
M  V30 6725 H 626.388 -1.05226 -1.84503 0
M  V30 6726 H 628.651 -0.414318 -0.852669 0
M  V30 6727 H 628.357 -0.983125 -3.3768 0
M  V30 6728 H 628.231 0.73714 -3.69927 0
M  V30 6729 H 630.618 1.04975 -2.75798 0
M  V30 6730 H 630.699 -0.692918 -2.46236 0
M  V30 6731 H 630.343 -1.10992 -4.95624 0
M  V30 6732 H 630.273 0.649692 -5.22577 0
M  V30 6733 H 632.764 0.0630689 -3.77847 0
M  V30 6734 H 633.077 -0.496645 -7.71202 0
M  V30 6735 H 631.422 -0.43971 -6.93608 0
M  V30 6736 H 634.613 -0.00613174 -4.681 0
M  V30 6737 H 634.786 -0.261138 -6.47474 0
M  V30 6738 N 628.193 1.56834 0.155195 0
M  V30 6739 C 629.141 1.98584 1.21107 0
M  V30 6740 C 630.135 0.876987 1.44932 0
M  V30 6741 O 631.341 1.06215 1.45322 0
M  V30 6742 H 627.716 0.632039 0.407469 0
M  V30 6743 H 629.687 2.86561 0.832195 0
M  V30 6744 C 628.436 2.37555 2.53895 0
M  V30 6745 H 627.759 3.22428 2.3639 0
M  V30 6746 H 629.199 2.70598 3.26424 0
M  V30 6747 C 627.658 1.22507 3.13837 0
M  V30 6748 O 628.188 0.521388 3.98302 0
M  V30 6749 N 626.394 0.991444 2.73164 0
M  V30 6750 H 625.941 1.56544 2.04577 0
M  V30 6751 H 625.899 0.223546 3.13604 0
M  V30 6752 N 629.671 -0.424282 1.51781 0
M  V30 6753 C 630.948 -1.18464 1.55646 0
M  V30 6754 C 631.328 -2.08529 0.328438 0
M  V30 6755 O 630.676 -2.17969 -0.685693 0
M  V30 6756 C 630.886 -1.97514 2.87731 0
M  V30 6757 C 632.234 -2.54106 3.40169 0
M  V30 6758 O 633.258 -2.07711 2.89369 0
M  V30 6759 O 632.117 -3.38759 4.28841 0
M  V30 6760 H 629.211 -0.540055 0.626314 0
M  V30 6761 H 631.757 -0.432291 1.64102 0
M  V30 6762 H 630.529 -1.31444 3.68562 0
M  V30 6763 H 630.152 -2.79787 2.82498 0
M  V30 6764 N 631.149 -1.42148 -0.680565 0
M  V30 6765 C 632.079 -1.4796 -1.80638 0
M  V30 6766 C 633.06 -0.336728 -1.66734 0
M  V30 6767 O 634.245 -0.550247 -1.86242 0
M  V30 6768 C 631.375 -1.37569 -3.18892 0
M  V30 6769 C 630.329 -2.49823 -3.47524 0
M  V30 6770 C 629.655 -2.24491 -4.85291 0
M  V30 6771 C 630.955 -3.92144 -3.44994 0
M  V30 6772 H 632.649 -2.42184 -1.76032 0
M  V30 6773 H 630.195 -1.16566 -0.845481 0
M  V30 6774 H 632.148 -1.40243 -3.97379 0
M  V30 6775 H 630.872 -0.398357 -3.24162 0
M  V30 6776 H 629.531 -2.46455 -2.71395 0
M  V30 6777 H 629.179 -1.25066 -4.87204 0
M  V30 6778 H 628.879 -2.99722 -5.05411 0
M  V30 6779 H 630.403 -2.28906 -5.66069 0
M  V30 6780 H 631.817 -3.97145 -4.13459 0
M  V30 6781 H 630.214 -4.67179 -3.76648 0
M  V30 6782 H 631.284 -4.19225 -2.43676 0
M  V30 6783 N 632.627 0.916307 -1.28225 0
M  V30 6784 C 633.876 1.65975 -1.14608 0
M  V30 6785 C 634.189 1.93204 0.305191 0
M  V30 6786 O 635.395 2.65611 0.562432 0
M  V30 6787 C 633.851 2.98989 -2.00333 0
M  V30 6788 C 633.459 2.79417 -3.50186 0
M  V30 6789 C 635.203 3.76856 -1.95397 0
M  V30 6790 C 633.11 4.08056 -4.28071 0
M  V30 6791 H 632.04 0.622587 -0.425324 0
M  V30 6792 H 634.691 1.01705 -1.52736 0
M  V30 6793 H 633.073 3.6438 -1.5506 0
M  V30 6794 H 634.247 2.22723 -4.034 0
M  V30 6795 H 632.562 2.14966 -3.56621 0
M  V30 6796 H 635.159 4.72203 -2.50856 0
M  V30 6797 H 635.502 4.05776 -0.930137 0
M  V30 6798 H 636.035 3.1828 -2.38626 0
M  V30 6799 H 632.774 3.8431 -5.31024 0
M  V30 6800 H 632.294 4.64371 -3.79631 0
M  V30 6801 H 633.973 4.76333 -4.37854 0
M  V30 6802 N 634.105 1.10431 1.1244 0
M  V30 6803 C 635.055 0.722378 2.16254 0
M  V30 6804 C 636.039 -0.268427 1.58645 0
M  V30 6805 O 637.231 -0.077169 1.76832 0
M  V30 6806 C 634.36 0.155763 3.42946 0
M  V30 6807 C 633.446 1.17361 4.07538 0
M  V30 6808 N 633.837 2.36429 4.47141 0
M  V30 6809 C 632.135 1.01412 4.34317 0
M  V30 6810 C 632.836 3.01259 4.97612 0
M  V30 6811 N 631.812 2.28777 4.93115 0
M  V30 6812 H 635.614 1.62876 2.4464 0
M  V30 6813 H 633.128 0.982031 1.29344 0
M  V30 6814 H 635.125 -0.135936 4.16678 0
M  V30 6815 H 633.785 -0.745339 3.1603 0
M  V30 6816 H 634.796 2.73954 4.39511 0
M  V30 6817 H 631.473 0.168574 4.1716 0
M  V30 6818 H 632.863 4.02541 5.37968 0
M  V30 6819 N 635.583 -1.29855 0.893053 0
M  V30 6820 C 636.546 -2.26183 0.370687 0
M  V30 6821 C 637.546 -1.53108 -0.491385 0
M  V30 6822 O 638.736 -1.71643 -0.297386 0
M  V30 6823 C 635.868 -3.37633 -0.470827 0
M  V30 6824 H 637.061 -2.73903 1.22135 0
M  V30 6825 H 634.614 -1.41183 0.67061 0
M  V30 6826 H 635.349 -2.95241 -1.34175 0
M  V30 6827 H 635.134 -3.91825 0.146784 0
M  V30 6828 H 636.624 -4.09313 -0.827825 0
M  V30 6829 N 637.061 -0.65484 -1.43351 0
M  V30 6830 C 637.971 0.0363603 -2.34572 0
M  V30 6831 C 638.987 0.810432 -1.53974 0
M  V30 6832 O 640.163 0.757308 -1.86619 0
M  V30 6833 C 637.228 0.989733 -3.32273 0
M  V30 6834 C 636.289 0.212414 -4.28774 0
M  V30 6835 C 635.522 1.12038 -5.21808 0
M  V30 6836 O 635.745 2.35967 -5.19303 0
M  V30 6837 O 634.679 0.59191 -5.98982 0
M  V30 6838 H 638.505 -0.714527 -2.95175 0
M  V30 6839 H 636.09 -0.415029 -1.4352 0
M  V30 6840 H 637.972 1.53759 -3.92347 0
M  V30 6841 H 636.647 1.72082 -2.74171 0
M  V30 6842 H 635.554 -0.379062 -3.72175 0
M  V30 6843 H 636.887 -0.479138 -4.89862 0
M  V30 6844 N 638.539 1.52521 -0.396863 0
M  V30 6845 C 639.449 2.30403 0.44178 0
M  V30 6846 C 640.465 1.37625 1.06468 0
M  V30 6847 O 641.641 1.70697 1.06886 0
M  V30 6848 C 638.706 3.1013 1.54986 0
M  V30 6849 C 637.767 4.18628 0.951279 0
M  V30 6850 C 637 4.94543 2.00655 0
M  V30 6851 O 637.223 4.70629 3.22281 0
M  V30 6852 O 636.157 5.797 1.61962 0
M  V30 6853 H 639.983 3.03087 -0.192892 0
M  V30 6854 H 637.568 1.48537 -0.16038 0
M  V30 6855 H 639.45 3.59816 2.19341 0
M  V30 6856 H 638.125 2.40251 2.16935 0
M  V30 6857 H 637.032 3.73119 0.270773 0
M  V30 6858 H 638.365 4.90763 0.375887 0
M  V30 6859 N 640.017 0.126909 1.57088 0
M  V30 6860 C 641.265 -0.528123 1.95078 0
M  V30 6861 C 641.586 -1.66708 1.0116 0
M  V30 6862 O 640.856 -1.95777 0.0693527 0
M  V30 6863 H 639.436 -0.198087 0.720257 0
M  V30 6864 H 642.098 0.197703 1.93895 0
M  V30 6865 H 641.194 -0.917507 2.98309 0
M  V30 6866 N 641.495 -1.56914 -0.146875 0
M  V30 6867 C 642.405 -2.0154 -1.20079 0
M  V30 6868 C 643.421 -0.930838 -1.47008 0
M  V30 6869 O 644.597 -1.24032 -1.58676 0
M  V30 6870 C 641.662 -2.38715 -2.51428 0
M  V30 6871 C 640.723 -3.6112 -2.32145 0
M  V30 6872 C 639.956 -3.96512 -3.57231 0
M  V30 6873 O 640.179 -3.32566 -4.63418 0
M  V30 6874 O 639.113 -4.89758 -3.49887 0
M  V30 6875 H 642.939 -2.91506 -0.851924 0
M  V30 6876 H 640.524 -1.45106 -0.355607 0
M  V30 6877 H 642.406 -2.63485 -3.28867 0
M  V30 6878 H 641.081 -1.51903 -2.85845 0
M  V30 6879 H 639.988 -3.41536 -1.52656 0
M  V30 6880 H 641.321 -4.48549 -2.02644 0
M  V30 6881 N 642.974 0.416227 -1.52004 0
M  V30 6882 C 644.251 1.17637 -1.56272 0
M  V30 6883 C 644.631 2.08352 -0.339493 0
M  V30 6884 O 643.979 2.1833 0.674124 0
M  V30 6885 C 644.189 1.95986 -2.88774 0
M  V30 6886 C 645.537 2.52299 -3.41512 0
M  V30 6887 O 646.561 2.06174 -2.90467 0
M  V30 6888 O 645.42 3.3648 -4.30631 0
M  V30 6889 H 642.514 0.536726 -0.629169 0
M  V30 6890 H 645.06 0.423583 -1.64329 0
M  V30 6891 H 643.832 1.29487 -3.69254 0
M  V30 6892 H 643.455 2.78285 -2.83978 0
M  V30 6893 N 644.452 1.42507 0.673017 0
M  V30 6894 C 645.868 1.25472 0.986355 0
M  V30 6895 C 646.068 0.160181 2.00862 0
M  V30 6896 O 645.124 -0.467993 2.48125 0
M  V30 6897 C 646.437 2.61219 1.48947 0
M  V30 6898 C 647.985 2.68589 1.60715 0
M  V30 6899 C 648.46 4.04707 2.14422 0
M  V30 6900 N 649.951 4.0667 2.21752 0
M  V30 6901 C 650.686 5.0881 2.64386 0
M  V30 6902 N 650.182 6.21332 3.0646 0
M  V30 6903 N 651.975 4.96166 2.64151 0
M  V30 6904 H 644.126 2.124 -0.00378532 0
M  V30 6905 H 646.389 0.946046 0.0608367 0
M  V30 6906 H 646.095 3.42179 0.812812 0
M  V30 6907 H 645.969 2.85261 2.46791 0
M  V30 6908 H 648.356 1.87974 2.27486 0
M  V30 6909 H 648.437 2.48333 0.613552 0
M  V30 6910 H 648.081 4.8578 1.48258 0
M  V30 6911 H 648.011 4.22315 3.14575 0
M  V30 6912 H 650.502 3.25438 1.92089 0
M  V30 6913 H 650.815 6.95118 3.37684 0
M  V30 6914 H 649.16 6.24835 3.04313 0
M  V30 6915 H 652.351 4.07334 2.30644 0
M  V30 6916 H 652.524 5.759 2.97057 0
M  V30 6917 N 645.93 -0.909495 1.28709 0
M  V30 6918 C 647.177 -1.65905 1.16111 0
M  V30 6919 C 647.505 -1.92334 -0.289436 0
M  V30 6920 O 646.76 -1.52495 -1.22653 0
M  V30 6921 C 647.059 -3.02117 1.90945 0
M  V30 6922 C 646.725 -2.95332 3.40719 0
M  V30 6923 C 645.387 -2.93189 3.81567 0
M  V30 6924 C 647.739 -2.85264 4.36204 0
M  V30 6925 C 645.067 -2.78784 5.16233 0
M  V30 6926 C 647.419 -2.724 5.70948 0
M  V30 6927 C 646.083 -2.68617 6.11066 0
M  V30 6928 H 645.353 -0.60709 0.42488 0
M  V30 6929 H 648 -1.05932 1.59533 0
M  V30 6930 H 646.305 -3.65901 1.40085 0
M  V30 6931 H 648.002 -3.59026 1.7861 0
M  V30 6932 H 644.592 -2.97797 3.08245 0
M  V30 6933 H 648.776 -2.86005 4.05605 0
M  V30 6934 H 644.032 -2.74254 5.46438 0
M  V30 6935 H 648.206 -2.63579 6.44592 0
M  V30 6936 H 645.833 -2.57213 7.15364 0
M  V30 6937 N 647.408 -1.11026 -1.11852 0
M  V30 6938 C 648.371 -0.768006 -2.1595 0
M  V30 6939 C 649.371 0.210538 -1.59416 0
M  V30 6940 O 650.561 -0.0133978 -1.74195 0
M  V30 6941 C 647.693 -0.138678 -3.40618 0
M  V30 6942 H 648.886 -1.69012 -2.4774 0
M  V30 6943 H 646.439 -0.911578 -1.26964 0
M  V30 6944 H 647.174 0.793872 -3.14433 0
M  V30 6945 H 646.959 -0.843012 -3.8293 0
M  V30 6946 H 648.449 0.0848039 -4.17514 0
M  V30 6947 N 648.886 1.2938 -0.899927 0
M  V30 6948 C 650.163 1.9046 -0.445443 0
M  V30 6949 C 650.543 1.81683 1.07492 0
M  V30 6950 O 649.891 1.24371 1.91688 0
M  V30 6951 C 650.101 3.35529 -0.960279 0
M  V30 6952 C 651.449 4.12556 -1.00412 0
M  V30 6953 O 652.473 3.44434 -0.907965 0
M  V30 6954 O 651.332 5.34294 -1.14857 0
M  V30 6955 H 648.426 0.815253 -0.138893 0
M  V30 6956 H 650.972 1.37844 -0.989808 0
M  V30 6957 H 649.744 3.36074 -2.00425 0
M  V30 6958 H 649.367 3.95624 -0.395939 0
M  V30 6959 N 650.364 0.662433 1.43002 0
M  V30 6960 C 651.294 -0.00979809 2.33498 0
M  V30 6961 C 652.275 -0.802329 1.49989 0
M  V30 6962 O 653.46 -0.761964 1.78627 0
M  V30 6963 C 650.59 -0.970446 3.33466 0
M  V30 6964 C 649.544 -0.287383 4.27034 0
M  V30 6965 C 648.87 -1.36012 5.17112 0
M  V30 6966 C 650.17 0.82595 5.15728 0
M  V30 6967 H 651.864 0.745959 2.89958 0
M  V30 6968 H 649.41 0.360172 1.39423 0
M  V30 6969 H 651.363 -1.44971 3.95679 0
M  V30 6970 H 650.087 -1.75748 2.75282 0
M  V30 6971 H 648.746 0.17152 3.66199 0
M  V30 6972 H 648.394 -2.13882 4.55262 0
M  V30 6973 H 648.094 -0.908276 5.80538 0
M  V30 6974 H 649.618 -1.84056 5.82199 0
M  V30 6975 H 651.032 0.42845 5.71697 0
M  V30 6976 H 649.429 1.20282 5.87922 0
M  V30 6977 H 650.499 1.68003 4.54866 0
M  V30 6978 N 651.842 -1.52309 0.404946 0
M  V30 6979 C 653.082 -2.03677 -0.171779 0
M  V30 6980 C 653.446 -1.28419 -1.42733 0
M  V30 6981 O 654.647 -1.69991 -2.08222 0
M  V30 6982 C 652.918 -3.54951 -0.417701 0
M  V30 6983 S 654.477 -4.28114 -0.962472 0
M  V30 6984 H 651.295 -0.709445 -0.0469912 0
M  V30 6985 H 653.897 -1.874 0.556901 0
M  V30 6986 H 652.601 -4.07306 0.50295 0
M  V30 6987 H 652.132 -3.75462 -1.17437 0
M  V30 6988 H 654.147 -4.42589 -2.24342 0
M  V30 6989 N 653.32 -0.135238 -1.57019 0
M  V30 6990 C 654.283 0.794707 -2.14981 0
M  V30 6991 C 655.283 1.18342 -1.08866 0
M  V30 6992 O 656.473 1.10627 -1.34563 0
M  V30 6993 C 653.605 2.07685 -2.70333 0
M  V30 6994 H 654.798 0.290696 -2.98488 0
M  V30 6995 H 652.351 0.114128 -1.55883 0
M  V30 6996 H 653.086 2.6248 -1.9046 0
M  V30 6997 H 652.871 1.80745 -3.47957 0
M  V30 6998 H 654.361 2.74127 -3.1503 0
M  V30 6999 N 654.798 1.5699 0.138552 0
M  V30 7000 C 656.044 1.84081 0.85099 0
M  V30 7001 C 656.377 0.718107 1.80435 0
M  V30 7002 O 655.652 -0.277633 1.92508 0
M  V30 7003 C 655.935 3.21699 1.61808 0
M  V30 7004 C 655.788 4.44544 0.685633 0
M  V30 7005 C 657.107 3.5664 2.57868 0
M  V30 7006 H 654.226 0.669592 0.307922 0
M  V30 7007 H 656.868 1.89646 0.11588 0
M  V30 7008 H 655.018 3.17086 2.24474 0
M  V30 7009 H 656.69 4.61248 0.0693179 0
M  V30 7010 H 654.933 4.338 -0.00421993 0
M  V30 7011 H 655.604 5.3746 1.25858 0
M  V30 7012 H 658.08 3.61918 2.05316 0
M  V30 7013 H 656.956 4.53946 3.08584 0
M  V30 7014 H 657.217 2.83036 3.39622 0
M  V30 7015 N 656.276 -0.40816 1.52223 0
M  V30 7016 C 657.524 -1.15274 1.66001 0
M  V30 7017 C 657.845 -1.91003 0.392803 0
M  V30 7018 O 657.115 -1.8673 -0.592336 0
M  V30 7019 H 655.695 -0.428526 0.611861 0
M  V30 7020 H 658.357 -0.46512 1.89269 0
M  V30 7021 H 657.453 -1.86628 2.50153 0
M  V30 7022 N 657.755 -1.42862 -0.66545 0
M  V30 7023 C 658.98 -1.47456 -1.45848 0
M  V30 7024 C 659.405 -0.0900312 -1.87884 0
M  V30 7025 O 658.763 0.913587 -1.56599 0
M  V30 7026 C 658.811 -2.41514 -2.67774 0
M  V30 7027 O 657.915 -1.89296 -3.66389 0
M  V30 7028 H 657.256 -0.499236 -0.437789 0
M  V30 7029 H 659.786 -1.8765 -0.815394 0
M  V30 7030 H 659.796 -2.58409 -3.15735 0
M  V30 7031 H 658.471 -3.42099 -2.36519 0
M  V30 7032 H 657.048 -1.82003 -3.25468 0
M  V30 7033 N 659.233 0.902656 -1.29189 0
M  V30 7034 C 660.644 1.46809 -1.15343 0
M  V30 7035 C 660.995 1.94568 0.252517 0
M  V30 7036 O 660.12 1.83454 1.14777 0
M  V30 7037 C 660.715 2.66829 -2.08776 0
M  V30 7038 C 659.274 3.19518 -1.98961 0
M  V30 7039 C 658.421 1.92212 -1.99874 0
M  V30 7040 H 661.372 0.714282 -1.41717 0
M  V30 7041 H 661.393 3.42465 -1.65826 0
M  V30 7042 H 660.905 2.32039 -3.11094 0
M  V30 7043 H 659.006 3.59008 -0.99721 0
M  V30 7044 H 659.119 3.84016 -2.86477 0
M  V30 7045 H 657.483 2.0979 -1.44431 0
M  V30 7046 H 658.266 1.59702 -3.03891 0
M  V30 7047 N 660.711 1.11618 1.11262 0
M  V30 7048 C 661.958 0.86618 1.8304 0
M  V30 7049 C 662.286 -0.608149 1.84748 0
M  V30 7050 O 661.541 -1.46508 1.29745 0
M  V30 7051 C 661.84 1.37529 3.2988 0
M  V30 7052 C 661.506 2.86317 3.4833 0
M  V30 7053 C 660.168 3.26945 3.53073 0
M  V30 7054 C 662.52 3.82136 3.54431 0
M  V30 7055 C 659.848 4.62117 3.61475 0
M  V30 7056 C 662.2 5.17128 3.64365 0
M  V30 7057 C 660.864 5.57312 3.67369 0
M  V30 7058 H 660.134 0.316958 0.66979 0
M  V30 7059 H 662.781 1.3949 1.31205 0
M  V30 7060 H 661.086 0.766842 3.84222 0
M  V30 7061 H 662.783 1.15817 3.83911 0
M  V30 7062 H 659.373 2.53889 3.45309 0
M  V30 7063 H 663.557 3.51847 3.50025 0
M  V30 7064 H 658.813 4.92655 3.62079 0
M  V30 7065 H 662.987 5.91208 3.68029 0
M  V30 7066 H 660.614 6.62045 3.73632 0
M  V30 7067 N 662.189 -1.289 0.906776 0
M  V30 7068 C 663.152 -2.25777 0.394656 0
M  V30 7069 C 664.152 -1.53621 -0.475119 0
M  V30 7070 O 665.342 -1.71949 -0.279165 0
M  V30 7071 C 662.474 -3.38113 -0.43499 0
M  V30 7072 H 663.667 -2.72592 1.25033 0
M  V30 7073 H 661.22 -1.40463 0.685547 0
M  V30 7074 H 661.955 -2.96648 -1.31036 0
M  V30 7075 H 661.74 -3.91647 0.188334 0
M  V30 7076 H 663.23 -4.10168 -0.784365 0
M  V30 7077 N 663.667 -0.670007 -1.42649 0
M  V30 7078 C 665.083 -0.33911 -1.55956 0
M  V30 7079 C 665.283 1.1558 -1.65056 0
M  V30 7080 O 664.339 1.94111 -1.61485 0
M  V30 7081 C 665.652 -1.06522 -2.812 0
M  V30 7082 C 667.2 -1.04708 -2.94966 0
M  V30 7083 C 667.675 -1.75442 -4.23065 0
M  V30 7084 N 669.166 -1.72286 -4.29967 0
M  V30 7085 C 669.901 -2.23877 -5.27889 0
M  V30 7086 N 669.397 -2.83829 -6.31991 0
M  V30 7087 N 671.19 -2.14279 -5.19654 0
M  V30 7088 H 663.341 -1.6399 -1.34986 0
M  V30 7089 H 665.604 -0.690603 -0.649439 0
M  V30 7090 H 665.31 -2.12033 -2.80597 0
M  V30 7091 H 665.184 -0.627398 -3.71946 0
M  V30 7092 H 667.571 -0.000315966 -2.951 0
M  V30 7093 H 667.652 -1.52374 -2.05465 0
M  V30 7094 H 667.296 -2.80084 -4.23693 0
M  V30 7095 H 667.226 -1.25229 -5.11493 0
M  V30 7096 H 669.717 -1.28554 -3.55362 0
M  V30 7097 H 670.03 -3.20827 -7.03057 0
M  V30 7098 H 668.375 -2.87896 -6.32567 0
M  V30 7099 H 671.566 -1.67135 -4.37245 0
M  V30 7100 H 671.739 -2.54792 -5.95806 0
M  V30 7101 N 665.145 1.52092 -0.413018 0
M  V30 7102 C 666.108 2.25706 0.398687 0
M  V30 7103 C 667.108 1.28221 0.970368 0
M  V30 7104 O 668.298 1.52131 0.848635 0
M  V30 7105 C 665.43 3.03029 1.5616 0
M  V30 7106 H 666.623 2.98888 -0.246131 0
M  V30 7107 H 664.176 1.5542 -0.165622 0
M  V30 7108 H 664.911 2.34205 2.24317 0
M  V30 7109 H 664.696 3.74606 1.15812 0
M  V30 7110 H 666.186 3.58857 2.13569 0
M  V30 7111 N 666.623 0.143563 1.56945 0
M  V30 7112 C 667.848 -0.518701 2.00809 0
M  V30 7113 C 668.273 -1.5785 1.02298 0
M  V30 7114 O 667.631 -1.813 -0.0017839 0
M  V30 7115 C 667.679 -1.09929 3.43436 0
M  V30 7116 O 666.783 -2.21425 3.47915 0
M  V30 7117 H 666.124 -0.127215 0.6517 0
M  V30 7118 H 668.654 0.239283 2.03196 0
M  V30 7119 H 668.664 -1.4288 3.82164 0
M  V30 7120 H 667.339 -0.323162 4.14643 0
M  V30 7121 H 665.916 -1.89728 3.21026 0
M  V30 7122 N 668.101 -1.57061 -0.130224 0
M  V30 7123 C 669.031 -2.02552 -1.16168 0
M  V30 7124 C 670.012 -0.907971 -1.4384 0
M  V30 7125 O 671.197 -1.17693 -1.54473 0
M  V30 7126 C 668.327 -2.42035 -2.49071 0
M  V30 7127 C 667.281 -3.5713 -2.35886 0
M  V30 7128 C 666.607 -3.82478 -3.7365 0
M  V30 7129 C 667.907 -4.89236 -1.8288 0
M  V30 7130 H 669.601 -2.8897 -0.783359 0
M  V30 7131 H 667.147 -1.39021 -0.375376 0
M  V30 7132 H 669.1 -2.72462 -3.21469 0
M  V30 7133 H 667.824 -1.52573 -2.88771 0
M  V30 7134 H 666.483 -3.26895 -1.65938 0
M  V30 7135 H 666.131 -2.9024 -4.10816 0
M  V30 7136 H 665.831 -4.59944 -3.65685 0
M  V30 7137 H 667.355 -4.15347 -4.47571 0
M  V30 7138 H 668.769 -5.18272 -2.45085 0
M  V30 7139 H 667.166 -5.70624 -1.85763 0
M  V30 7140 H 668.236 -4.78494 -0.785571 0
M  V30 7141 N 669.579 0.400081 -1.52437 0
M  V30 7142 C 670.526 1.48803 -1.76426 0
M  V30 7143 C 671.496 1.5461 -0.607032 0
M  V30 7144 O 672.681 1.71041 -0.845563 0
M  V30 7145 C 669.821 2.86156 -1.92896 0
M  V30 7146 C 668.934 2.89587 -3.20567 0
M  V30 7147 C 668.069 4.18296 -3.27417 0
M  V30 7148 C 667.108 4.15736 -4.49255 0
M  V30 7149 N 666.245 5.36032 -4.53447 0
M  V30 7150 H 671.085 1.27649 -2.69276 0
M  V30 7151 H 668.622 0.619451 -1.33421 0
M  V30 7152 H 670.58 3.65901 -2.00429 0
M  V30 7153 H 669.21 3.05785 -1.03418 0
M  V30 7154 H 668.262 2.02278 -3.22161 0
M  V30 7155 H 669.574 2.83562 -4.10358 0
M  V30 7156 H 668.728 5.06439 -3.34072 0
M  V30 7157 H 667.467 4.27028 -2.35581 0
M  V30 7158 H 666.472 3.25982 -4.42737 0
M  V30 7159 H 667.697 4.08636 -5.42396 0
M  V30 7160 H 665.643 5.45415 -3.64498 0
M  V30 7161 H 665.56 5.32038 -5.37096 0
M  V30 7162 H 666.828 6.26104 -4.64343 0
M  V30 7163 N 671.057 1.43213 0.657864 0
M  V30 7164 C 672.282 1.48227 1.45064 0
M  V30 7165 C 672.707 0.0999939 1.87834 0
M  V30 7166 O 672.065 -0.905269 1.57081 0
M  V30 7167 C 672.113 2.42931 2.6649 0
M  V30 7168 O 671.217 1.91237 3.6538 0
M  V30 7169 H 670.558 0.501551 0.435135 0
M  V30 7170 H 673.088 1.8808 0.805431 0
M  V30 7171 H 673.098 2.6008 3.1436 0
M  V30 7172 H 671.773 3.43348 2.34701 0
M  V30 7173 H 670.35 1.83726 3.24498 0
M  V30 7174 N 672.536 -0.895792 1.29666 0
M  V30 7175 C 673.784 -1.64339 1.17631 0
M  V30 7176 C 674.105 -1.93099 -0.271643 0
M  V30 7177 O 673.375 -1.55981 -1.18518 0
M  V30 7178 H 671.955 -0.609162 0.432354 0
M  V30 7179 H 674.617 -1.07389 1.62646 0
M  V30 7180 H 673.713 -2.59815 1.72924 0
M  V30 7181 N 674.014 -1.12206 -1.10668 0
M  V30 7182 C 674.961 -0.787716 -2.16942 0
M  V30 7183 C 675.931 0.244442 -1.64291 0
M  V30 7184 O 677.116 0.119558 -1.90425 0
M  V30 7185 C 674.256 -0.24584 -3.44223 0
M  V30 7186 C 673.369 -1.33552 -4.10838 0
M  V30 7187 C 672.504 -0.753337 -5.25831 0
M  V30 7188 C 671.543 -1.82231 -5.84344 0
M  V30 7189 N 670.68 -1.25902 -6.90719 0
M  V30 7190 H 675.52 -1.69809 -2.44885 0
M  V30 7191 H 673.057 -0.847862 -1.20207 0
M  V30 7192 H 675.015 0.0863639 -4.17111 0
M  V30 7193 H 673.645 0.627702 -3.16638 0
M  V30 7194 H 672.697 -1.78454 -3.35944 0
M  V30 7195 H 674.009 -2.14396 -4.50373 0
M  V30 7196 H 673.163 -0.37166 -6.05561 0
M  V30 7197 H 671.902 0.0863297 -4.87624 0
M  V30 7198 H 670.907 -2.2132 -5.03287 0
M  V30 7199 H 672.132 -2.66515 -6.24617 0
M  V30 7200 H 670.078 -0.44114 -6.54515 0
M  V30 7201 H 669.995 -2.00408 -7.28953 0
M  V30 7202 H 671.263 -0.904498 -7.74235 0
M  V30 7203 N 675.492 1.28418 -0.913599 0
M  V30 7204 C 676.72 1.99106 -0.562536 0
M  V30 7205 C 677.135 1.68273 0.856137 0
M  V30 7206 O 676.492 0.935401 1.56705 0
M  V30 7207 C 676.543 3.5338 -0.761903 0
M  V30 7208 O 676.264 3.83127 -2.12475 0
M  V30 7209 C 677.765 4.41328 -0.417651 0
M  V30 7210 H 674.985 0.635798 -0.214481 0
M  V30 7211 H 677.529 1.63618 -1.22676 0
M  V30 7212 H 675.684 3.8713 -0.144676 0
M  V30 7213 H 676.098 4.77763 -2.16431 0
M  V30 7214 H 677.572 5.48642 -0.607919 0
M  V30 7215 H 678.049 4.34422 0.646108 0
M  V30 7216 H 678.655 4.13074 -1.01241 0
M  V30 7217 N 676.97 0.677563 1.42291 0
M  V30 7218 C 677.88 0.000962654 2.346 0
M  V30 7219 C 678.896 -0.785833 1.55244 0
M  V30 7220 O 680.072 -0.727523 1.87801 0
M  V30 7221 C 677.137 -0.936746 3.33805 0
M  V30 7222 C 676.198 -0.144173 4.29058 0
M  V30 7223 C 675.431 -1.03722 5.23524 0
M  V30 7224 O 675.654 -2.27675 5.22992 0
M  V30 7225 O 674.588 -0.496542 5.99848 0
M  V30 7226 H 678.414 0.761397 2.94001 0
M  V30 7227 H 675.999 0.43781 1.42841 0
M  V30 7228 H 677.881 -1.47497 3.94744 0
M  V30 7229 H 676.556 -1.67698 2.76874 0
M  V30 7230 H 675.463 0.438224 3.71524 0
M  V30 7231 H 676.796 0.55701 4.89038 0
M  V30 7232 N 678.448 -1.51871 0.421078 0
M  V30 7233 C 679.673 -2.0684 -0.152371 0
M  V30 7234 C 680.098 -1.28802 -1.37083 0
M  V30 7235 O 679.456 -0.321482 -1.78427 0
M  V30 7236 C 679.504 -3.57532 -0.469368 0
M  V30 7237 O 678.608 -3.81818 -1.55848 0
M  V30 7238 H 677.949 -0.663939 -0.00898586 0
M  V30 7239 H 680.479 -1.95674 0.597724 0
M  V30 7240 H 680.489 -4.01515 -0.724553 0
M  V30 7241 H 679.164 -4.13761 0.421276 0
M  V30 7242 H 677.741 -3.49709 -1.29453 0
M  V30 7243 N 679.926 -0.151884 -1.56866 0
M  V30 7244 C 681.151 0.508044 -2.01081 0
M  V30 7245 C 681.576 1.57306 -1.03134 0
M  V30 7246 O 680.934 1.81298 -0.0078309 0
M  V30 7247 C 680.982 1.08106 -3.44014 0
M  V30 7248 O 680.086 2.19577 -3.49084 0
M  V30 7249 H 679.427 0.123757 -0.652365 0
M  V30 7250 H 681.957 -0.250055 -2.03066 0
M  V30 7251 H 681.967 1.40851 -3.82916 0
M  V30 7252 H 680.642 0.301168 -4.14808 0
M  V30 7253 H 679.219 1.88023 -3.22027 0
M  V30 7254 N 681.404 1.57128 0.121893 0
M  V30 7255 C 682.629 1.89254 0.848385 0
M  V30 7256 C 683.054 0.743527 1.72781 0
M  V30 7257 O 682.412 -0.306056 1.78698 0
M  V30 7258 C 682.46 3.20113 1.66012 0
M  V30 7259 O 681.564 3.05815 2.76679 0
M  V30 7260 H 680.905 0.621103 0.234793 0
M  V30 7261 H 683.435 2.0433 0.10516 0
M  V30 7262 H 683.445 3.52761 2.04996 0
M  V30 7263 H 682.12 4.03336 1.01452 0
M  V30 7264 H 680.697 2.84627 2.40918 0
M  V30 7265 N 682.882 -0.391992 1.52647 0
M  V30 7266 C 684.112 -1.15692 1.71169 0
M  V30 7267 C 684.52 -1.84285 0.428444 0
M  V30 7268 O 683.863 -1.73393 -0.606669 0
M  V30 7269 C 683.925 -2.25033 2.80357 0
M  V30 7270 C 683.589 -1.76433 4.21569 0
M  V30 7271 C 684.586 -1.2427 5.0483 0
M  V30 7272 C 682.271 -1.82746 4.67877 0
M  V30 7273 C 684.265 -0.790657 6.32477 0
M  V30 7274 C 681.952 -1.37153 5.9551 0
M  V30 7275 C 682.95 -0.853997 6.7764 0
M  V30 7276 O 682.638 -0.404708 8.02881 0
M  V30 7277 H 682.37 -0.35297 0.576531 0
M  V30 7278 H 684.924 -0.464994 2.00067 0
M  V30 7279 H 683.154 -2.97641 2.46874 0
M  V30 7280 H 684.843 -2.86718 2.87311 0
M  V30 7281 H 685.609 -1.18752 4.70237 0
M  V30 7282 H 681.488 -2.21971 4.04042 0
M  V30 7283 H 685.032 -0.386024 6.96531 0
M  V30 7284 H 680.929 -1.42356 6.29607 0
M  V30 7285 H 681.697 -0.526459 8.16805 0
M  V30 7286 N 684.36 -1.4356 -0.65026 0
M  V30 7287 C 685.607 -1.45333 -1.41012 0
M  V30 7288 C 685.935 -0.0787282 -1.94341 0
M  V30 7289 O 685.19 0.916715 -1.72901 0
M  V30 7290 C 685.489 -2.44528 -2.60654 0
M  V30 7291 C 685.155 -3.90331 -2.25727 0
M  V30 7292 C 683.817 -4.3004 -2.15914 0
M  V30 7293 C 686.169 -4.822 -1.97821 0
M  V30 7294 C 683.497 -5.59568 -1.76354 0
M  V30 7295 C 685.849 -6.12095 -1.59759 0
M  V30 7296 C 684.513 -6.50778 -1.48473 0
M  V30 7297 H 683.783 -0.531813 -0.516 0
M  V30 7298 H 686.43 -1.76657 -0.739219 0
M  V30 7299 H 684.735 -2.06619 -3.3289 0
M  V30 7300 H 686.432 -2.43155 -3.18868 0
M  V30 7301 H 683.022 -3.58905 -2.34276 0
M  V30 7302 H 687.206 -4.5229 -2.04322 0
M  V30 7303 H 682.462 -5.88376 -1.66205 0
M  V30 7304 H 686.636 -6.82751 -1.37198 0
M  V30 7305 H 684.263 -7.5105 -1.17591 0
M  V30 7306 N 685.838 0.888903 -1.30139 0
M  V30 7307 C 687.254 1.17153 -1.08385 0
M  V30 7308 C 687.454 2.0088 0.157925 0
M  V30 7309 O 686.51 2.37668 0.852652 0
M  V30 7310 C 687.823 1.882 -2.34523 0
M  V30 7311 C 689.371 2.00981 -2.39949 0
M  V30 7312 C 689.846 2.75441 -3.65918 0
M  V30 7313 N 691.337 2.82989 -3.66704 0
M  V30 7314 C 692.072 3.41167 -4.60861 0
M  V30 7315 N 691.568 4.00425 -5.6536 0
M  V30 7316 N 693.361 3.38944 -4.48412 0
M  V30 7317 H 685.512 0.33053 -2.09812 0
M  V30 7318 H 687.775 0.208964 -0.924683 0
M  V30 7319 H 687.481 1.34119 -3.25123 0
M  V30 7320 H 687.355 2.88609 -2.42868 0
M  V30 7321 H 689.742 2.54234 -1.4983 0
M  V30 7322 H 689.823 0.996725 -2.35582 0
M  V30 7323 H 689.467 2.22861 -4.56394 0
M  V30 7324 H 689.397 3.77118 -3.67546 0
M  V30 7325 H 691.888 2.40912 -2.91153 0
M  V30 7326 H 692.201 4.42871 -6.33313 0
M  V30 7327 H 690.546 3.98856 -5.69157 0
M  V30 7328 H 693.737 2.91875 -3.6596 0
M  V30 7329 H 693.91 3.83989 -5.21974 0
M  V30 7330 N 687.317 1.12792 1.10072 0
M  V30 7331 C 688.733 0.864745 1.34143 0
M  V30 7332 C 688.933 -0.503201 1.95116 0
M  V30 7333 O 687.989 -1.25111 2.19325 0
M  V30 7334 C 689.302 1.98413 2.25949 0
M  V30 7335 C 690.85 2.01545 2.39476 0
M  V30 7336 C 691.325 3.12727 3.34613 0
M  V30 7337 N 692.816 3.12194 3.42183 0
M  V30 7338 C 693.551 3.94862 4.15779 0
M  V30 7339 N 693.047 4.87528 4.92228 0
M  V30 7340 N 694.84 3.82985 4.11435 0
M  V30 7341 H 686.991 2.00926 0.68866 0
M  V30 7342 H 689.254 0.874564 0.365844 0
M  V30 7343 H 688.96 2.97005 1.88364 0
M  V30 7344 H 688.834 1.89254 3.26287 0
M  V30 7345 H 691.221 1.0357 2.76328 0
M  V30 7346 H 691.302 2.14777 1.3894 0
M  V30 7347 H 690.946 4.10936 2.98486 0
M  V30 7348 H 690.876 2.96732 4.35037 0
M  V30 7349 H 693.367 2.45065 2.87666 0
M  V30 7350 H 693.68 5.47109 5.45794 0
M  V30 7351 H 692.025 4.91539 4.9134 0
M  V30 7352 H 695.216 3.09923 3.50807 0
M  V30 7353 H 695.389 4.47641 4.68531 0
M  V30 7354 N 688.795 -1.27931 0.920396 0
M  V30 7355 C 689.742 -2.27085 0.412422 0
M  V30 7356 C 690.712 -1.57858 -0.516725 0
M  V30 7357 O 691.897 -1.85717 -0.437475 0
M  V30 7358 C 689.037 -3.43466 -0.335399 0
M  V30 7359 C 688.15 -4.27425 0.627017 0
M  V30 7360 C 687.285 -5.31016 -0.139916 0
M  V30 7361 C 686.324 -6.06641 0.815683 0
M  V30 7362 N 685.461 -7.02052 0.0818439 0
M  V30 7363 H 690.301 -2.69913 1.26298 0
M  V30 7364 H 687.838 -1.32732 0.634076 0
M  V30 7365 H 689.796 -4.09744 -0.785226 0
M  V30 7366 H 688.426 -3.01611 -1.15025 0
M  V30 7367 H 687.478 -3.6113 1.19537 0
M  V30 7368 H 688.79 -4.79969 1.35763 0
M  V30 7369 H 687.944 -6.03208 -0.649998 0
M  V30 7370 H 686.683 -4.79257 -0.903543 0
M  V30 7371 H 685.688 -5.33294 1.33708 0
M  V30 7372 H 686.913 -6.60489 1.57897 0
M  V30 7373 H 684.859 -6.52634 -0.663671 0
M  V30 7374 H 684.776 -7.52249 0.752163 0
M  V30 7375 H 686.044 -7.78432 -0.407825 0
M  V30 7376 N 690.273 -0.685099 -1.4193 0
M  V30 7377 C 691.183 -0.013404 -2.34596 0
M  V30 7378 C 692.199 0.777589 -1.55658 0
M  V30 7379 O 693.375 0.717553 -1.88184 0
M  V30 7380 C 690.44 0.919031 -3.34297 0
M  V30 7381 C 689.501 0.121417 -4.29128 0
M  V30 7382 C 688.734 1.00944 -5.24067 0
M  V30 7383 O 688.957 2.24898 -5.24192 0
M  V30 7384 O 687.891 0.464724 -6.00103 0
M  V30 7385 H 691.717 -0.776978 -2.93593 0
M  V30 7386 H 689.302 -0.445379 -1.42607 0
M  V30 7387 H 691.184 1.45402 -3.9552 0
M  V30 7388 H 689.859 1.66228 -2.77759 0
M  V30 7389 H 688.766 -0.45792 -3.71287 0
M  V30 7390 H 690.099 -0.582937 -4.88736 0
M  V30 7391 N 691.751 1.51645 -0.429126 0
M  V30 7392 C 692.698 2.27542 0.386446 0
M  V30 7393 C 693.668 1.30786 1.02393 0
M  V30 7394 O 694.853 1.59678 1.0444 0
M  V30 7395 C 691.993 3.11457 1.48623 0
M  V30 7396 C 691.106 4.23196 0.867691 0
M  V30 7397 C 690.241 4.94435 1.94183 0
M  V30 7398 C 689.28 5.98108 1.30129 0
M  V30 7399 N 688.417 6.62786 2.31644 0
M  V30 7400 H 693.257 2.968 -0.267155 0
M  V30 7401 H 690.794 1.46397 -0.143591 0
M  V30 7402 H 692.752 3.58429 2.13506 0
M  V30 7403 H 691.382 2.44329 2.10957 0
M  V30 7404 H 690.434 3.80248 0.107373 0
M  V30 7405 H 691.746 4.97499 0.35997 0
M  V30 7406 H 690.9 5.44914 2.66747 0
M  V30 7407 H 689.639 4.19744 2.48326 0
M  V30 7408 H 688.644 5.4693 0.561082 0
M  V30 7409 H 689.869 6.74751 0.767303 0
M  V30 7410 H 687.815 5.90913 2.84883 0
M  V30 7411 H 687.732 7.32828 1.85741 0
M  V30 7412 H 689 7.17897 3.03717 0
M  V30 7413 N 693.229 0.160201 1.56784 0
M  V30 7414 C 694.162 -0.812797 2.13234 0
M  V30 7415 C 695.14 -1.2335 1.05942 0
M  V30 7416 O 696.324 -1.32725 1.33852 0
M  V30 7417 C 693.451 -2.09311 2.66283 0
M  V30 7418 C 692.497 -1.8173 3.85845 0
M  V30 7419 S 693.33 -0.996473 5.26147 0
M  V30 7420 C 694.486 -2.28769 5.82594 0
M  V30 7421 H 694.719 -0.332794 2.95432 0
M  V30 7422 H 692.252 -0.0542971 1.54304 0
M  V30 7423 H 694.21 -2.82854 2.97496 0
M  V30 7424 H 692.871 -2.54425 1.84192 0
M  V30 7425 H 692.064 -2.76699 4.21253 0
M  V30 7426 H 691.666 -1.16289 3.55462 0
M  V30 7427 H 693.958 -3.24319 5.9483 0
M  V30 7428 H 694.901 -1.97846 6.79899 0
M  V30 7429 H 695.309 -2.40021 5.10931 0
M  V30 7430 N 694.707 -1.5719 -0.113559 0
M  V30 7431 C 695.954 -1.85138 -0.820382 0
M  V30 7432 C 696.282 -0.74608 -1.79622 0
M  V30 7433 O 695.537 0.262077 -1.93937 0
M  V30 7434 C 695.836 -3.19593 -1.59984 0
M  V30 7435 C 695.502 -4.44315 -0.767809 0
M  V30 7436 C 694.164 -4.78179 -0.538379 0
M  V30 7437 C 696.516 -5.2086 -0.188203 0
M  V30 7438 C 693.844 -5.86028 0.28082 0
M  V30 7439 C 696.196 -6.29572 0.618217 0
M  V30 7440 C 694.86 -6.61964 0.857912 0
M  V30 7441 H 694.13 -0.677467 -0.300199 0
M  V30 7442 H 696.777 -1.91322 -0.0825443 0
M  V30 7443 H 695.082 -3.0901 -2.40874 0
M  V30 7444 H 696.779 -3.3844 -2.1508 0
M  V30 7445 H 693.369 -4.17786 -0.956724 0
M  V30 7446 H 697.553 -4.95045 -0.352658 0
M  V30 7447 H 692.809 -6.09547 0.475693 0
M  V30 7448 H 696.983 -6.88064 1.0743 0
M  V30 7449 H 694.61 -7.45365 1.49451 0
M  V30 7450 N 696.185 0.383891 -1.52853 0
M  V30 7451 C 697.601 0.724316 -1.42218 0
M  V30 7452 C 697.801 1.93943 -0.546654 0
M  V30 7453 O 696.857 2.5249 -0.0220562 0
M  V30 7454 C 698.17 0.954635 -2.85144 0
M  V30 7455 C 699.718 1.05579 -2.94656 0
M  V30 7456 C 700.193 1.3187 -4.38605 0
M  V30 7457 N 701.684 1.38681 -4.41952 0
M  V30 7458 C 702.419 1.60699 -5.50421 0
M  V30 7459 N 701.915 1.80154 -6.68967 0
M  V30 7460 N 703.708 1.6292 -5.37972 0
M  V30 7461 H 695.859 -0.4156 -2.08294 0
M  V30 7462 H 698.122 -0.123776 -0.939885 0
M  V30 7463 H 697.828 0.133829 -3.51445 0
M  V30 7464 H 697.702 1.86788 -3.27704 0
M  V30 7465 H 700.089 1.86716 -2.2852 0
M  V30 7466 H 700.17 0.120338 -2.55517 0
M  V30 7467 H 699.814 0.512416 -5.05309 0
M  V30 7468 H 699.744 2.26708 -4.75301 0
M  V30 7469 H 702.235 1.25334 -3.56511 0
M  V30 7470 H 702.548 1.96476 -7.47407 0
M  V30 7471 H 700.893 1.77368 -6.71986 0
M  V30 7472 H 704.084 1.47276 -4.44328 0
M  V30 7473 H 704.257 1.79739 -6.22574 0
M  V30 7474 N 697.663 1.43903 0.642637 0
M  V30 7475 C 698.91 1.46079 1.40239 0
M  V30 7476 C 699.238 0.0890335 1.94296 0
M  V30 7477 O 698.493 -0.907533 1.73385 0
M  V30 7478 C 698.792 2.45907 2.59354 0
M  V30 7479 C 698.458 3.91522 2.23654 0
M  V30 7480 C 697.12 4.31179 2.1363 0
M  V30 7481 C 699.472 4.83242 1.95261 0
M  V30 7482 C 696.8 5.60495 1.73384 0
M  V30 7483 C 699.152 6.12933 1.56511 0
M  V30 7484 C 697.816 6.51556 1.4502 0
M  V30 7485 H 697.086 0.534542 0.513172 0
M  V30 7486 H 699.733 1.77047 0.72984 0
M  V30 7487 H 698.038 2.08381 3.3179 0
M  V30 7488 H 699.735 2.44842 3.17574 0
M  V30 7489 H 696.325 3.60142 2.32369 0
M  V30 7490 H 700.509 4.53367 2.0192 0
M  V30 7491 H 695.765 5.89249 1.63082 0
M  V30 7492 H 699.939 6.83469 1.33576 0
M  V30 7493 H 697.566 7.51663 1.13606 0
M  V30 7494 N 699.141 -0.881989 1.30609 0
M  V30 7495 C 700.388 -1.63405 1.19604 0
M  V30 7496 C 700.716 -1.92905 -0.248574 0
M  V30 7497 O 699.971 -1.55062 -1.19391 0
M  V30 7498 C 700.27 -2.97999 1.97311 0
M  V30 7499 C 699.936 -2.88039 3.46907 0
M  V30 7500 C 698.598 -2.85029 3.877 0
M  V30 7501 C 700.95 -2.75948 4.42156 0
M  V30 7502 C 698.278 -2.67772 5.2203 0
M  V30 7503 C 700.63 -2.60228 5.76597 0
M  V30 7504 C 699.294 -2.55595 6.16626 0
M  V30 7505 H 698.564 -0.597941 0.437662 0
M  V30 7506 H 701.211 -1.02524 1.61744 0
M  V30 7507 H 699.516 -3.62847 1.47815 0
M  V30 7508 H 701.213 -3.55156 1.86186 0
M  V30 7509 H 697.803 -2.91192 3.14492 0
M  V30 7510 H 701.987 -2.77337 4.1158 0
M  V30 7511 H 697.243 -2.62601 5.52133 0
M  V30 7512 H 701.417 -2.49847 6.50038 0
M  V30 7513 H 699.044 -2.41981 7.20659 0
M  V30 7514 N 700.619 -1.13374 -1.09472 0
M  V30 7515 C 701.868 -0.889844 -1.8101 0
M  V30 7516 C 702.181 0.585686 -1.86625 0
M  V30 7517 O 703.387 0.946497 -2.54467 0
M  V30 7518 C 701.843 -1.54241 -3.25174 0
M  V30 7519 C 701.451 -3.05343 -3.27826 0
M  V30 7520 C 703.195 -1.37919 -4.0147 0
M  V30 7521 C 701.102 -3.63486 -4.6651 0
M  V30 7522 H 700.032 -0.329256 -0.678311 0
M  V30 7523 H 702.683 -1.36139 -1.23038 0
M  V30 7524 H 701.065 -0.998525 -3.83204 0
M  V30 7525 H 702.239 -3.66307 -2.79563 0
M  V30 7526 H 700.554 -3.21175 -2.65019 0
M  V30 7527 H 703.151 -1.78771 -5.03929 0
M  V30 7528 H 703.494 -0.323987 -4.15037 0
M  V30 7529 H 704.027 -1.89284 -3.49881 0
M  V30 7530 H 700.766 -4.68811 -4.58145 0
M  V30 7531 H 700.286 -3.073 -5.15099 0
M  V30 7532 H 701.965 -3.63134 -5.35484 0
M  V30 7533 N 702.098 1.27442 -0.927168 0
M  V30 7534 C 703.514 1.46754 -0.627329 0
M  V30 7535 C 703.714 1.83902 0.823549 0
M  V30 7536 O 702.77 1.95215 1.60148 0
M  V30 7537 C 704.083 2.56045 -1.57674 0
M  V30 7538 C 705.631 2.69906 -1.58491 0
M  V30 7539 C 706.106 3.82355 -2.52128 0
M  V30 7540 N 707.597 3.89728 -2.50332 0
M  V30 7541 C 708.332 4.76155 -3.19475 0
M  V30 7542 N 707.828 5.67073 -3.97995 0
M  V30 7543 N 709.621 4.6988 -3.08496 0
M  V30 7544 H 701.772 1.01613 -1.86517 0
M  V30 7545 H 704.035 0.507443 -0.800753 0
M  V30 7546 H 703.741 2.35542 -2.61176 0
M  V30 7547 H 703.615 3.53423 -1.31804 0
M  V30 7548 H 706.002 2.89792 -0.557208 0
M  V30 7549 H 706.083 1.73018 -1.8841 0
M  V30 7550 H 705.727 3.63224 -3.55008 0
M  V30 7551 H 705.657 4.7867 -2.19505 0
M  V30 7552 H 708.148 3.24717 -1.93306 0
M  V30 7553 H 708.461 6.2988 -4.4774 0
M  V30 7554 H 706.806 5.6687 -4.02098 0
M  V30 7555 H 709.997 3.97848 -2.46646 0
M  V30 7556 H 710.17 5.37017 -3.62652 0
M  V30 7557 N 703.576 0.692616 1.41565 0
M  V30 7558 C 704.992 0.363878 1.55397 0
M  V30 7559 C 705.192 -1.1294 1.66874 0
M  V30 7560 O 704.248 -1.91517 1.64552 0
M  V30 7561 C 705.561 1.10982 2.7947 0
M  V30 7562 C 707.109 1.09387 2.93263 0
M  V30 7563 C 707.584 1.8215 4.20221 0
M  V30 7564 N 709.075 1.79105 4.27172 0
M  V30 7565 C 709.81 2.32247 5.2426 0
M  V30 7566 N 709.306 2.93847 6.27396 0
M  V30 7567 N 711.099 2.22519 5.1618 0
M  V30 7568 H 703.25 1.66116 1.3236 0
M  V30 7569 H 705.513 0.700848 0.63837 0
M  V30 7570 H 705.219 2.1647 2.77188 0
M  V30 7571 H 705.093 0.686492 3.709 0
M  V30 7572 H 707.48 0.0472638 2.95062 0
M  V30 7573 H 707.561 1.55623 2.03015 0
M  V30 7574 H 707.205 2.86789 4.19183 0
M  V30 7575 H 707.135 1.33351 5.09436 0
M  V30 7576 H 709.626 1.34191 3.53272 0
M  V30 7577 H 709.939 3.31972 6.97864 0
M  V30 7578 H 708.284 2.97924 6.27906 0
M  V30 7579 H 711.475 1.7407 4.34531 0
M  V30 7580 H 711.648 2.64239 5.91677 0
M  V30 7581 N 705.054 -1.51416 0.437162 0
M  V30 7582 C 705.987 -2.24309 -0.419602 0
M  V30 7583 C 706.965 -1.26236 -1.02485 0
M  V30 7584 O 708.149 -1.5537 -1.06735 0
M  V30 7585 C 705.276 -2.99335 -1.58482 0
M  V30 7586 C 704.322 -4.12064 -1.10027 0
M  V30 7587 S 705.155 -5.35483 -0.0424476 0
M  V30 7588 C 706.311 -6.14047 -1.21234 0
M  V30 7589 H 706.544 -2.96632 0.199259 0
M  V30 7590 H 704.077 -1.528 0.22168 0
M  V30 7591 H 706.035 -3.43159 -2.25282 0
M  V30 7592 H 704.696 -2.26602 -2.17509 0
M  V30 7593 H 703.889 -4.63836 -1.97161 0
M  V30 7594 H 703.491 -3.70499 -0.510507 0
M  V30 7595 H 705.783 -6.43123 -2.13072 0
M  V30 7596 H 706.726 -7.04279 -0.734582 0
M  V30 7597 H 707.134 -5.45538 -1.45082 0
M  V30 7598 N 706.532 -0.168513 -1.56696 0
M  V30 7599 C 707.778 0.477865 -1.9709 0
M  V30 7600 C 708.111 1.63084 -1.05438 0
M  V30 7601 O 707.386 1.94238 -0.10095 0
M  V30 7602 C 707.669 0.963521 -3.4697 0
M  V30 7603 C 707.522 -0.189443 -4.49401 0
M  V30 7604 C 708.841 1.83813 -3.99876 0
M  V30 7605 H 705.96 0.172229 -0.716593 0
M  V30 7606 H 708.602 -0.254083 -1.88293 0
M  V30 7607 H 706.752 1.58724 -3.54597 0
M  V30 7608 H 708.424 -0.826451 -4.53836 0
M  V30 7609 H 706.667 -0.845366 -4.25483 0
M  V30 7610 H 707.338 0.192446 -5.51664 0
M  V30 7611 H 709.814 1.31235 -3.94863 0
M  V30 7612 H 708.69 2.14697 -5.0517 0
M  V30 7613 H 708.951 2.78289 -3.43523 0
M  V30 7614 N 708.01 1.57248 0.105221 0
M  V30 7615 C 708.957 2.01338 1.12835 0
M  V30 7616 C 709.927 0.887897 1.40377 0
M  V30 7617 O 711.112 1.15315 1.5201 0
M  V30 7618 C 708.252 2.43432 2.44611 0
M  V30 7619 C 707.365 3.69457 2.23888 0
M  V30 7620 C 706.5 4.00473 3.48991 0
M  V30 7621 C 705.539 5.19638 3.23485 0
M  V30 7622 N 704.676 5.46457 4.40828 0
M  V30 7623 H 709.516 2.88527 0.745386 0
M  V30 7624 H 707.053 1.42714 0.356535 0
M  V30 7625 H 709.011 2.65879 3.21503 0
M  V30 7626 H 707.641 1.59266 2.80774 0
M  V30 7627 H 706.693 3.54545 1.37847 0
M  V30 7628 H 708.005 4.56497 2.01026 0
M  V30 7629 H 707.159 4.23642 4.34295 0
M  V30 7630 H 705.898 3.11935 3.74897 0
M  V30 7631 H 704.903 4.96299 2.36574 0
M  V30 7632 H 706.128 6.09766 2.98935 0
M  V30 7633 H 704.074 4.60876 4.66829 0
M  V30 7634 H 703.991 6.27849 4.2112 0
M  V30 7635 H 705.259 5.74155 5.27225 0
M  V30 7636 N 709.488 -0.375779 1.53054 0
M  V30 7637 C 710.451 -1.44254 1.7811 0
M  V30 7638 C 711.451 -1.47018 0.651328 0
M  V30 7639 O 712.641 -1.47957 0.919472 0
M  V30 7640 C 709.773 -2.8345 1.89391 0
M  V30 7641 H 710.966 -1.23316 2.73374 0
M  V30 7642 H 708.519 -0.608312 1.43977 0
M  V30 7643 H 709.254 -3.09716 0.961589 0
M  V30 7644 H 709.039 -2.82844 2.71555 0
M  V30 7645 H 710.529 -3.60722 2.10404 0
M  V30 7646 N 710.966 -1.44241 -0.634997 0
M  V30 7647 C 711.898 -1.46793 -1.76024 0
M  V30 7648 C 712.911 -0.361781 -1.58729 0
M  V30 7649 O 714.1 -0.627297 -1.67114 0
M  V30 7650 C 711.2 -1.28248 -3.13697 0
M  V30 7651 C 710.373 -2.52038 -3.57485 0
M  V30 7652 C 709.432 -2.2845 -4.74022 0
M  V30 7653 O 708.458 -3.01915 -4.82531 0
M  V30 7654 N 709.66 -1.31264 -5.65464 0
M  V30 7655 H 712.425 -2.43797 -1.74307 0
M  V30 7656 H 709.986 -1.39631 -0.819438 0
M  V30 7657 H 711.978 -1.10321 -3.89373 0
M  V30 7658 H 710.548 -0.39623 -3.10079 0
M  V30 7659 H 709.768 -2.85268 -2.72059 0
M  V30 7660 H 711.056 -3.34382 -3.83492 0
M  V30 7661 H 710.454 -0.705817 -5.6128 0
M  V30 7662 H 709.011 -1.19316 -6.40786 0
M  V30 7663 N 712.444 0.87505 -1.31075 0
M  V30 7664 C 713.669 1.66583 -1.23551 0
M  V30 7665 C 714.094 1.87067 0.19686 0
M  V30 7666 O 713.452 1.40877 1.1412 0
M  V30 7667 C 713.5 3.01401 -1.97965 0
M  V30 7668 O 712.604 3.90923 -1.31351 0
M  V30 7669 H 711.945 0.508645 -0.426821 0
M  V30 7670 H 714.475 1.09139 -1.7306 0
M  V30 7671 H 714.485 3.51374 -2.07366 0
M  V30 7672 H 713.16 2.85812 -3.02133 0
M  V30 7673 H 711.737 3.49369 -1.30368 0
M  V30 7674 N 713.922 1.13953 1.08869 0
M  V30 7675 C 715.169 0.90481 1.81161 0
M  V30 7676 C 715.497 -0.568824 1.85996 0
M  V30 7677 O 714.752 -1.43723 1.32823 0
M  V30 7678 C 715.051 1.44495 3.26888 0
M  V30 7679 C 714.717 2.93641 3.42178 0
M  V30 7680 C 713.379 3.34361 3.46059 0
M  V30 7681 C 715.731 3.89568 3.46246 0
M  V30 7682 C 713.059 4.69681 3.51592 0
M  V30 7683 C 715.411 5.2474 3.53314 0
M  V30 7684 C 714.075 5.64979 3.55465 0
M  V30 7685 H 713.345 0.331094 0.662916 0
M  V30 7686 H 715.992 1.42242 1.28217 0
M  V30 7687 H 714.297 0.848169 3.82509 0
M  V30 7688 H 715.994 1.23934 3.81368 0
M  V30 7689 H 712.584 2.61156 3.39846 0
M  V30 7690 H 716.768 3.59192 3.42483 0
M  V30 7691 H 712.024 5.00224 3.51547 0
M  V30 7692 H 716.198 5.98882 3.55406 0
M  V30 7693 H 713.825 6.69821 3.59505 0
M  V30 7694 N 715.4 -1.26948 0.933913 0
M  V30 7695 C 716.63 -1.97898 0.593279 0
M  V30 7696 C 717.038 -1.69806 -0.834412 0
M  V30 7697 O 716.381 -0.958704 -1.56699 0
M  V30 7698 C 716.443 -3.51657 0.746825 0
M  V30 7699 C 716.107 -4.03384 2.14779 0
M  V30 7700 C 717.104 -4.15682 3.12257 0
M  V30 7701 C 714.789 -4.37577 2.46641 0
M  V30 7702 C 716.783 -4.61455 4.39702 0
M  V30 7703 C 714.47 -4.8304 3.7432 0
M  V30 7704 C 715.468 -4.94939 4.70664 0
M  V30 7705 O 715.156 -5.39403 5.96071 0
M  V30 7706 H 714.888 -0.63814 0.223055 0
M  V30 7707 H 717.442 -1.62608 1.2549 0
M  V30 7708 H 715.672 -3.8669 0.0280889 0
M  V30 7709 H 717.361 -4.03821 0.410328 0
M  V30 7710 H 718.127 -3.89519 2.88964 0
M  V30 7711 H 714.006 -4.27554 1.72391 0
M  V30 7712 H 717.55 -4.70658 5.14905 0
M  V30 7713 H 713.447 -5.08646 3.97429 0
M  V30 7714 H 714.215 -5.57641 5.99148 0
M  V30 7715 N 716.879 -0.700114 -1.41195 0
M  V30 7716 C 718.125 -0.242122 -2.01954 0
M  V30 7717 C 718.48 1.14697 -1.54475 0
M  V30 7718 O 717.773 1.76392 -0.748095 0
M  V30 7719 C 717.967 -0.243986 -3.56566 0
M  V30 7720 C 717.796 -1.63172 -4.19053 0
M  V30 7721 C 716.566 -2.23566 -4.53152 0
M  V30 7722 C 718.764 -2.57916 -4.44954 0
M  V30 7723 N 716.746 -3.54856 -5.00949 0
M  V30 7724 C 718.117 -3.73892 -4.94576 0
M  V30 7725 C 720.172 -2.56125 -4.26971 0
M  V30 7726 C 718.875 -4.88363 -5.28104 0
M  V30 7727 C 720.901 -3.69712 -4.61592 0
M  V30 7728 C 720.263 -4.84418 -5.11389 0
M  V30 7729 H 716.362 -0.134088 -0.770418 0
M  V30 7730 H 718.946 -0.918576 -1.71669 0
M  V30 7731 H 717.117 0.401971 -3.86314 0
M  V30 7732 H 718.849 0.229261 -4.0405 0
M  V30 7733 H 715.604 -1.75809 -4.39759 0
M  V30 7734 H 716.028 -4.22167 -5.29249 0
M  V30 7735 H 720.67 -1.68656 -3.87705 0
M  V30 7736 H 718.388 -5.76488 -5.66292 0
M  V30 7737 H 721.974 -3.69583 -4.49332 0
M  V30 7738 H 720.854 -5.70855 -5.37675 0
M  V30 7739 N 718.357 1.51182 -0.445186 0
M  V30 7740 C 719.603 2.02452 0.11882 0
M  V30 7741 C 719.936 1.32824 1.41673 0
M  V30 7742 O 719.211 0.445637 1.89326 0
M  V30 7743 C 719.494 3.5859 0.329475 0
M  V30 7744 C 719.347 4.38823 -0.987638 0
M  V30 7745 C 720.666 4.26241 1.09575 0
M  V30 7746 H 717.785 0.735819 0.0417092 0
M  V30 7747 H 720.427 1.80747 -0.585718 0
M  V30 7748 H 718.577 3.77214 0.9296 0
M  V30 7749 H 720.249 4.3183 -1.62235 0
M  V30 7750 H 718.492 4.03594 -1.59041 0
M  V30 7751 H 719.163 5.46257 -0.794192 0
M  V30 7752 H 721.639 4.11934 0.587328 0
M  V30 7753 H 720.515 5.35354 1.21191 0
M  V30 7754 H 720.776 3.87635 2.12584 0
M  V30 7755 N 719.835 0.176821 1.56605 0
M  V30 7756 C 721.081 -0.467406 1.9734 0
M  V30 7757 C 721.414 -1.62523 1.06301 0
M  V30 7758 O 720.689 -1.94182 0.11125 0
M  V30 7759 C 720.972 -0.945106 3.47476 0
M  V30 7760 C 720.825 0.213273 4.49294 0
M  V30 7761 C 722.144 -1.8169 4.00845 0
M  V30 7762 H 719.263 -0.168426 0.717497 0
M  V30 7763 H 721.905 0.264065 1.88156 0
M  V30 7764 H 720.055 -1.56841 3.55434 0
M  V30 7765 H 721.727 0.850508 4.53392 0
M  V30 7766 H 719.97 0.867918 4.25029 0
M  V30 7767 H 720.641 -0.163187 5.51759 0
M  V30 7768 H 723.117 -1.29139 3.95553 0
M  V30 7769 H 721.993 -2.12015 5.06301 0
M  V30 7770 H 722.254 -2.76463 3.44994 0
M  V30 7771 N 721.313 -1.57302 -0.09688 0
M  V30 7772 C 722.243 -2.0497 -1.11846 0
M  V30 7773 C 723.224 -0.938278 -1.41882 0
M  V30 7774 O 724.409 -1.20943 -1.51942 0
M  V30 7775 C 721.539 -2.47264 -2.43881 0
M  V30 7776 C 720.493 -3.62053 -2.28257 0
M  V30 7777 C 719.819 -3.90318 -3.65453 0
M  V30 7778 C 721.119 -4.93005 -1.72461 0
M  V30 7779 H 722.813 -2.90567 -0.721888 0
M  V30 7780 H 720.359 -1.39786 -0.345803 0
M  V30 7781 H 722.312 -2.7922 -3.15617 0
M  V30 7782 H 721.036 -1.58664 -2.8547 0
M  V30 7783 H 719.695 -3.30341 -1.58967 0
M  V30 7784 H 719.343 -2.98889 -4.04567 0
M  V30 7785 H 719.043 -4.67597 -3.55846 0
M  V30 7786 H 720.567 -4.24747 -4.3866 0
M  V30 7787 H 721.981 -5.23354 -2.34036 0
M  V30 7788 H 720.378 -5.74436 -1.73618 0
M  V30 7789 H 721.448 -4.80053 -0.683898 0
M  V30 7790 N 722.791 0.367657 -1.53252 0
M  V30 7791 C 724.031 1.11923 -1.71034 0
M  V30 7792 C 724.395 1.86618 -0.45143 0
M  V30 7793 O 725.596 2.63996 -0.505915 0
M  V30 7794 C 723.867 2.05461 -2.92439 0
M  V30 7795 S 725.426 2.88167 -3.30916 0
M  V30 7796 H 722.244 0.378549 -0.601848 0
M  V30 7797 H 724.846 0.400757 -1.91348 0
M  V30 7798 H 723.55 1.49346 -3.82262 0
M  V30 7799 H 723.081 2.81784 -2.7452 0
M  V30 7800 H 725.096 4.07746 -2.82767 0
M  V30 7801 N 724.269 1.44576 0.627338 0
M  V30 7802 C 725.515 1.47777 1.38888 0
M  V30 7803 C 725.848 0.111406 1.9388 0
M  V30 7804 O 725.123 -0.87149 1.73883 0
M  V30 7805 C 725.406 2.54119 2.55138 0
M  V30 7806 C 725.259 4.00128 2.0547 0
M  V30 7807 C 726.578 2.56929 3.57317 0
M  V30 7808 H 723.697 0.538048 0.50366 0
M  V30 7809 H 726.339 1.76277 0.708978 0
M  V30 7810 H 724.489 2.29948 3.13139 0
M  V30 7811 H 726.161 4.35444 1.5227 0
M  V30 7812 H 724.404 4.11724 1.36623 0
M  V30 7813 H 725.075 4.7019 2.89181 0
M  V30 7814 H 727.551 2.78536 3.09122 0
M  V30 7815 H 726.427 3.33234 4.36173 0
M  V30 7816 H 726.688 1.6127 4.11636 0
M  V30 7817 N 725.747 -0.868086 1.31537 0
M  V30 7818 C 726.993 -1.62367 1.2151 0
M  V30 7819 C 727.326 -1.92883 -0.225819 0
M  V30 7820 O 726.601 -1.56176 -1.15927 0
M  V30 7821 C 726.884 -2.95268 2.06129 0
M  V30 7822 C 726.737 -2.71619 3.58529 0
M  V30 7823 C 728.056 -3.96391 1.91212 0
M  V30 7824 H 725.175 -0.589178 0.442762 0
M  V30 7825 H 727.817 -1.00336 1.61347 0
M  V30 7826 H 725.967 -3.4821 1.72284 0
M  V30 7827 H 727.639 -2.25334 4.0252 0
M  V30 7828 H 725.882 -2.05817 3.81866 0
M  V30 7829 H 726.553 -3.66192 4.13047 0
M  V30 7830 H 729.029 -3.52663 2.20834 0
M  V30 7831 H 727.905 -4.87263 2.52718 0
M  V30 7832 H 728.166 -4.33335 0.875953 0
M  V30 7833 N 727.225 -1.14528 -1.08264 0
M  V30 7834 C 728.188 -0.83632 -2.13397 0
M  V30 7835 C 729.188 0.159715 -1.60005 0
M  V30 7836 O 730.378 -0.0688098 -1.74064 0
M  V30 7837 C 727.51 -0.246973 -3.40004 0
M  V30 7838 H 728.703 -1.76808 -2.42237 0
M  V30 7839 H 726.256 -0.951509 -1.24 0
M  V30 7840 H 726.991 0.693436 -3.168 0
M  V30 7841 H 726.776 -0.964412 -3.80055 0
M  V30 7842 H 728.266 -0.0480679 -4.17572 0
M  V30 7843 N 728.703 1.26451 -0.940633 0
M  V30 7844 C 729.633 2.28773 -0.467479 0
M  V30 7845 C 730.614 1.63218 0.478955 0
M  V30 7846 O 731.799 1.90427 0.380929 0
M  V30 7847 C 728.929 3.46259 0.268656 0
M  V30 7848 C 727.883 4.23898 -0.591171 0
M  V30 7849 C 727.209 5.33993 0.274891 0
M  V30 7850 C 728.509 4.87974 -1.86223 0
M  V30 7851 H 730.203 2.68601 -1.32265 0
M  V30 7852 H 727.749 1.29123 -0.637436 0
M  V30 7853 H 729.702 4.16951 0.610696 0
M  V30 7854 H 728.426 3.05383 1.15796 0
M  V30 7855 H 727.085 3.54969 -0.916098 0
M  V30 7856 H 726.733 4.89358 1.16353 0
M  V30 7857 H 726.433 5.86849 -0.297006 0
M  V30 7858 H 727.957 6.07523 0.612213 0
M  V30 7859 H 729.371 5.50883 -1.58747 0
M  V30 7860 H 727.768 5.50945 -2.37866 0
M  V30 7861 H 728.838 4.10945 -2.57394 0
M  V30 7862 N 730.181 0.707592 1.40822 0
M  V30 7863 C 731.129 0.0386643 2.32568 0
M  V30 7864 C 732.123 -0.755653 1.51612 0
M  V30 7865 O 733.329 -0.659921 1.67467 0
M  V30 7866 H 729.704 -0.00629912 0.751974 0
M  V30 7867 H 731.675 0.8293 2.86645 0
M  V30 7868 C 730.424 -0.87496 3.36511 0
M  V30 7869 H 729.747 -0.273157 3.98866 0
M  V30 7870 H 731.187 -1.31111 4.03219 0
M  V30 7871 C 729.646 -1.99672 2.71353 0
M  V30 7872 O 730.176 -3.08676 2.57064 0
M  V30 7873 N 728.382 -1.77799 2.29861 0
M  V30 7874 H 727.929 -0.89147 2.41683 0
M  V30 7875 H 727.887 -2.53036 1.86601 0
M  V30 7876 N 731.66 -1.50943 0.453197 0
M  V30 7877 C 732.888 -2.06628 -0.106135 0
M  V30 7878 C 733.303 -1.31901 -1.35084 0
M  V30 7879 O 732.66 -0.383074 -1.78434 0
M  V30 7880 C 732.711 -3.5914 -0.412368 0
M  V30 7881 O 732.432 -4.31047 0.782948 0
M  V30 7882 C 733.933 -4.31391 -1.02064 0
M  V30 7883 H 731.153 -0.670999 -0.000885896 0
M  V30 7884 H 733.697 -1.94331 0.63684 0
M  V30 7885 H 731.852 -3.71299 -1.10526 0
M  V30 7886 H 732.266 -5.21948 0.516736 0
M  V30 7887 H 733.74 -5.39135 -1.1848 0
M  V30 7888 H 734.217 -3.90714 -2.00598 0
M  V30 7889 H 734.823 -4.23716 -0.366664 0
M  V30 7890 N 733.138 -0.185124 -1.56509 0
M  V30 7891 C 734.068 0.735098 -2.21627 0
M  V30 7892 C 735.049 1.2288 -1.1762 0
M  V30 7893 O 736.234 1.27945 -1.46095 0
M  V30 7894 C 733.364 1.95889 -2.86783 0
M  V30 7895 C 732.318 1.6005 -3.96948 0
M  V30 7896 C 731.644 2.90009 -4.4922 0
M  V30 7897 C 732.944 0.818008 -5.15855 0
M  V30 7898 H 734.638 0.192274 -2.98782 0
M  V30 7899 H 732.184 0.0910393 -1.43712 0
M  V30 7900 H 734.137 2.60779 -3.31017 0
M  V30 7901 H 732.861 2.52608 -2.07018 0
M  V30 7902 H 731.52 0.975237 -3.5339 0
M  V30 7903 H 731.168 3.44797 -3.6623 0
M  V30 7904 H 730.868 2.66778 -5.23549 0
M  V30 7905 H 732.392 3.55904 -4.9615 0
M  V30 7906 H 733.806 1.36979 -5.56695 0
M  V30 7907 H 732.203 0.684207 -5.96187 0
M  V30 7908 H 733.273 -0.182939 -4.84555 0
M  V30 7909 N 734.616 1.57351 0.0885366 0
M  V30 7910 C 735.856 1.88248 0.796362 0
M  V30 7911 C 736.22 0.776915 1.75579 0
M  V30 7912 O 737.421 0.968485 2.50747 0
M  V30 7913 C 735.692 3.24385 1.50031 0
M  V30 7914 S 737.251 3.76991 2.24551 0
M  V30 7915 H 734.069 0.659697 0.265181 0
M  V30 7916 H 736.671 1.95428 0.0531843 0
M  V30 7917 H 735.375 4.02764 0.788 0
M  V30 7918 H 734.906 3.20361 2.28325 0
M  V30 7919 H 736.921 3.50933 3.508 0
M  V30 7920 N 736.094 -0.359525 1.53444 0
M  V30 7921 C 737.34 -1.10315 1.70172 0
M  V30 7922 C 737.673 -1.88788 0.455287 0
M  V30 7923 O 736.948 -1.86635 -0.547514 0
M  V30 7924 C 737.231 -2.05744 2.95536 0
M  V30 7925 C 737.084 -1.3084 4.3035 0
M  V30 7926 C 738.403 -3.05784 3.16518 0
M  V30 7927 H 735.522 -0.399662 0.619225 0
M  V30 7928 H 738.164 -0.383338 1.86093 0
M  V30 7929 H 736.314 -2.67125 2.82093 0
M  V30 7930 H 737.986 -0.721959 4.55615 0
M  V30 7931 H 736.229 -0.610283 4.29486 0
M  V30 7932 H 736.9 -2.00718 5.14214 0
M  V30 7933 H 739.376 -2.5451 3.29187 0
M  V30 7934 H 738.252 -3.69772 4.05659 0
M  V30 7935 H 738.513 -3.76289 2.32076 0
M  V30 7936 N 737.572 -1.44907 -0.619662 0
M  V30 7937 C 738.535 -1.52282 -1.71297 0
M  V30 7938 C 739.535 -0.40359 -1.55653 0
M  V30 7939 O 740.725 -0.666638 -1.6094 0
M  V30 7940 C 737.857 -1.40778 -3.10474 0
M  V30 7941 H 739.05 -2.49683 -1.66128 0
M  V30 7942 H 736.603 -1.32168 -0.834339 0
M  V30 7943 H 737.338 -0.445156 -3.2123 0
M  V30 7944 H 737.123 -2.21947 -3.23237 0
M  V30 7945 H 738.613 -1.48946 -3.90135 0
M  V30 7946 N 739.05 0.861098 -1.31996 0
M  V30 7947 C 739.983 1.97266 -1.14724 0
M  V30 7948 C 740.961 1.62528 -0.0483789 0
M  V30 7949 O 742.145 1.87366 -0.206478 0
M  V30 7950 C 739.272 3.30181 -0.754861 0
M  V30 7951 C 738.318 3.839 -1.85804 0
M  V30 7952 S 739.151 4.08274 -3.46515 0
M  V30 7953 C 740.307 5.44174 -3.09235 0
M  V30 7954 H 740.54 2.11614 -2.08822 0
M  V30 7955 H 738.073 1.01232 -1.16582 0
M  V30 7956 H 740.031 4.06996 -0.535232 0
M  V30 7957 H 738.692 3.13655 0.167155 0
M  V30 7958 H 737.885 4.80013 -1.53633 0
M  V30 7959 H 737.487 3.13907 -2.03318 0
M  V30 7960 H 739.779 6.26172 -2.58679 0
M  V30 7961 H 740.722 5.81301 -4.04345 0
M  V30 7962 H 741.13 5.0787 -2.46431 0
M  V30 7963 N 740.528 1.15101 1.07655 0
M  V30 7964 C 741.774 0.925343 1.80458 0
M  V30 7965 C 742.107 -0.546354 1.86356 0
M  V30 7966 O 741.382 -1.40496 1.34503 0
M  V30 7967 C 741.665 1.53646 3.25676 0
M  V30 7968 C 741.518 3.07854 3.27942 0
M  V30 7969 C 742.837 1.21968 4.22861 0
M  V30 7970 H 739.956 0.337592 0.655134 0
M  V30 7971 H 742.598 1.42217 1.25993 0
M  V30 7972 H 740.748 1.11395 3.72187 0
M  V30 7973 H 742.42 3.58989 2.89697 0
M  V30 7974 H 740.663 3.41904 2.66991 0
M  V30 7975 H 741.334 3.45725 4.30324 0
M  V30 7976 H 743.81 1.5851 3.84726 0
M  V30 7977 H 742.686 1.67349 5.22767 0
M  V30 7978 H 742.947 0.136207 4.4189 0
M  V30 7979 N 742.006 -1.2595 0.947325 0
M  V30 7980 C 742.956 -2.23859 0.432547 0
M  V30 7981 C 743.94 -1.53755 -0.474154 0
M  V30 7982 O 745.132 -1.74293 -0.308397 0
M  V30 7983 C 742.261 -3.42027 -0.295318 0
M  V30 7984 C 741.347 -4.19409 0.62903 0
M  V30 7985 N 741.738 -4.74284 1.7575 0
M  V30 7986 C 740.036 -4.43866 0.435805 0
M  V30 7987 C 740.737 -5.32821 2.33401 0
M  V30 7988 N 739.713 -5.18858 1.62135 0
M  V30 7989 H 743.515 -2.63886 1.29388 0
M  V30 7990 H 741.029 -1.41105 0.80393 0
M  V30 7991 H 743.026 -4.11297 -0.681188 0
M  V30 7992 H 741.686 -3.03526 -1.15334 0
M  V30 7993 H 742.697 -4.71641 2.13952 0
M  V30 7994 H 739.374 -4.15768 -0.37994 0
M  V30 7995 H 740.764 -5.86111 3.28517 0
M  V30 7996 N 743.484 -0.715051 -1.40445 0
M  V30 7997 C 744.714 -0.263576 -2.04912 0
M  V30 7998 C 745.122 1.09943 -1.53978 0
M  V30 7999 O 744.465 1.70203 -0.691133 0
M  V30 8000 C 744.527 -0.165048 -3.59121 0
M  V30 8001 C 744.191 -1.46325 -4.32941 0
M  V30 8002 C 745.188 -2.40506 -4.60926 0
M  V30 8003 C 742.873 -1.72203 -4.7186 0
M  V30 8004 C 744.867 -3.58812 -5.26814 0
M  V30 8005 C 742.554 -2.9079 -5.3748 0
M  V30 8006 C 743.552 -3.83917 -5.64887 0
M  V30 8007 O 743.24 -5.00424 -6.29151 0
M  V30 8008 H 742.972 -0.116317 -0.665918 0
M  V30 8009 H 745.526 -0.973774 -1.8085 0
M  V30 8010 H 743.756 0.601088 -3.82 0
M  V30 8011 H 745.445 0.251794 -4.05118 0
M  V30 8012 H 746.211 -2.21778 -4.31323 0
M  V30 8013 H 742.09 -1.00571 -4.49896 0
M  V30 8014 H 745.634 -4.31517 -5.48123 0
M  V30 8015 H 741.531 -3.09428 -5.66502 0
M  V30 8016 H 742.299 -5.00494 -6.47648 0
M  V30 8017 N 744.962 1.50701 -0.461195 0
M  V30 8018 C 745.91 2.29918 0.352231 0
M  V30 8019 C 746.904 1.36778 0.999403 0
M  V30 8020 O 748.11 1.54015 0.931639 0
M  V30 8021 H 744.485 0.740249 0.132423 0
M  V30 8022 H 746.456 2.96497 -0.336424 0
M  V30 8023 C 745.205 3.17052 1.42736 0
M  V30 8024 H 744.528 3.88623 0.938747 0
M  V30 8025 H 745.968 3.75493 1.96928 0
M  V30 8026 C 744.427 2.3399 2.42384 0
M  V30 8027 O 744.957 2.01608 3.47444 0
M  V30 8028 N 743.163 1.96758 2.13857 0
M  V30 8029 H 742.71 2.23292 1.28447 0
M  V30 8030 H 742.668 1.41484 2.80766 0
M  V30 8031 N 746.441 0.193421 1.56409 0
M  V30 8032 C 747.373 -0.759944 2.16235 0
M  V30 8033 C 748.386 -1.17797 1.12373 0
M  V30 8034 O 749.575 -1.11399 1.39472 0
M  V30 8035 C 746.675 -2.03735 2.70823 0
M  V30 8036 C 745.848 -1.77939 3.9957 0
M  V30 8037 C 744.907 -2.90111 4.39001 0
M  V30 8038 O 743.933 -2.59791 5.06456 0
M  V30 8039 N 745.135 -4.18426 4.02368 0
M  V30 8040 H 747.9 -0.248348 2.98669 0
M  V30 8041 H 745.461 0.0113966 1.61896 0
M  V30 8042 H 747.453 -2.77914 2.94187 0
M  V30 8043 H 746.023 -2.46022 1.92852 0
M  V30 8044 H 745.243 -0.875491 3.84355 0
M  V30 8045 H 746.531 -1.58099 4.83614 0
M  V30 8046 H 745.929 -4.45913 3.48106 0
M  V30 8047 H 744.486 -4.89237 4.30686 0
M  V30 8048 N 747.919 -1.57396 -0.0801906 0
M  V30 8049 C 749.33 -1.75642 -0.633002 0
M  V30 8050 C 749.681 -0.817708 -1.78348 0
M  V30 8051 O 748.806 0.000233743 -2.164 0
M  V30 8052 C 749.401 -3.18502 -1.15507 0
M  V30 8053 C 747.96 -3.38121 -1.65381 0
M  V30 8054 C 747.107 -2.71386 -0.569661 0
M  V30 8055 H 750.058 -1.58027 0.145949 0
M  V30 8056 H 750.079 -3.22198 -2.02408 0
M  V30 8057 H 749.591 -3.86799 -0.317515 0
M  V30 8058 H 747.692 -2.74926 -2.51488 0
M  V30 8059 H 747.805 -4.46521 -1.73654 0
M  V30 8060 H 746.169 -2.33702 -1.0127 0
M  V30 8061 H 746.952 -3.42332 0.257561 0
M  V30 8062 N 749.397 0.351382 -1.53633 0
M  V30 8063 C 750.813 0.693987 -1.43722 0
M  V30 8064 C 751.013 1.9274 -0.587669 0
M  V30 8065 O 750.069 2.52387 -0.0756082 0
M  V30 8066 C 751.382 0.893937 -2.87105 0
M  V30 8067 C 752.93 0.993051 -2.96829 0
M  V30 8068 C 753.405 1.22537 -4.41303 0
M  V30 8069 N 754.896 1.29275 -4.44795 0
M  V30 8070 C 755.631 1.48988 -5.53706 0
M  V30 8071 N 755.127 1.65924 -6.72637 0
M  V30 8072 N 756.92 1.51472 -5.41306 0
M  V30 8073 H 749.071 -0.459688 -2.07366 0
M  V30 8074 H 751.334 -0.143684 -0.937048 0
M  V30 8075 H 751.04 0.0592517 -3.5165 0
M  V30 8076 H 750.914 1.79795 -3.31592 0
M  V30 8077 H 753.301 1.81827 -2.32429 0
M  V30 8078 H 753.382 0.0661119 -2.55715 0
M  V30 8079 H 753.026 0.405117 -5.06282 0
M  V30 8080 H 752.956 2.16575 -4.80003 0
M  V30 8081 H 755.447 1.17743 -3.59089 0
M  V30 8082 H 755.76 1.80578 -7.51406 0
M  V30 8083 H 754.105 1.63075 -6.75597 0
M  V30 8084 H 757.296 1.37818 -4.47352 0
M  V30 8085 H 757.469 1.66493 -6.26246 0
M  V30 8086 N 750.875 1.45233 0.611969 0
M  V30 8087 C 752.291 1.29542 0.932251 0
M  V30 8088 C 752.491 0.24523 2.00002 0
M  V30 8089 O 751.547 -0.362333 2.49887 0
M  V30 8090 C 752.86 2.67301 1.37733 0
M  V30 8091 C 754.408 2.75163 1.49178 0
M  V30 8092 C 754.883 4.13437 1.97064 0
M  V30 8093 N 756.374 4.15709 2.04304 0
M  V30 8094 C 757.109 5.19566 2.42568 0
M  V30 8095 N 756.605 6.33771 2.79832 0
M  V30 8096 N 758.398 5.06923 2.42869 0
M  V30 8097 H 750.549 2.12192 -0.0938679 0
M  V30 8098 H 752.812 0.947775 0.0206569 0
M  V30 8099 H 752.518 3.45318 0.666951 0
M  V30 8100 H 752.392 2.95472 2.3447 0
M  V30 8101 H 754.779 1.97453 2.19309 0
M  V30 8102 H 754.86 2.50712 0.507674 0
M  V30 8103 H 754.504 4.91631 1.27521 0
M  V30 8104 H 754.434 4.35277 2.9638 0
M  V30 8105 H 756.925 3.33293 1.78113 0
M  V30 8106 H 757.238 7.08815 3.07898 0
M  V30 8107 H 755.583 6.37179 2.77538 0
M  V30 8108 H 758.774 4.1675 2.1316 0
M  V30 8109 H 758.947 5.87981 2.72364 0
M  V30 8110 N 752.353 -0.854086 1.3245 0
M  V30 8111 C 753.283 -1.97827 1.24044 0
M  V30 8112 C 754.264 -1.69646 0.124166 0
M  V30 8113 O 755.449 -1.91687 0.31143 0
M  V30 8114 C 752.579 -3.33673 0.963324 0
M  V30 8115 C 751.533 -3.76207 2.04089 0
M  V30 8116 C 750.859 -5.0969 1.61618 0
M  V30 8117 C 752.159 -3.91612 3.45597 0
M  V30 8118 H 753.853 -2.05118 2.18099 0
M  V30 8119 H 751.399 -0.985489 1.04996 0
M  V30 8120 H 753.352 -4.11871 0.891061 0
M  V30 8121 H 752.076 -3.26597 -0.0128649 0
M  V30 8122 H 750.735 -3.0026 2.10332 0
M  V30 8123 H 750.383 -4.99072 0.627418 0
M  V30 8124 H 750.083 -5.3912 2.33717 0
M  V30 8125 H 751.607 -5.90381 1.55829 0
M  V30 8126 H 753.021 -4.60163 3.4194 0
M  V30 8127 H 751.418 -4.3246 4.16051 0
M  V30 8128 H 752.488 -2.9451 3.85217 0
M  V30 8129 N 753.831 -1.1567 -1.07043 0
M  V30 8130 C 755.059 -0.957471 -1.83412 0
M  V30 8131 C 755.474 0.494271 -1.82215 0
M  V30 8132 O 754.831 1.34288 -1.23584 0
M  V30 8133 C 754.882 -1.46784 -3.30359 0
M  V30 8134 O 754.603 -2.86271 -3.31633 0
M  V30 8135 C 756.104 -1.31054 -4.23485 0
M  V30 8136 H 753.324 -0.33986 -0.578564 0
M  V30 8137 H 755.868 -1.53518 -1.35102 0
M  V30 8138 H 754.023 -0.932586 -3.76007 0
M  V30 8139 H 754.437 -3.0948 -4.23465 0
M  V30 8140 H 755.911 -1.71605 -5.24648 0
M  V30 8141 H 756.388 -0.255107 -4.38458 0
M  V30 8142 H 756.994 -1.83503 -3.83676 0
M  V30 8143 N 755.309 1.25446 -0.953992 0
M  V30 8144 C 756.537 1.97215 -0.625595 0
M  V30 8145 C 756.952 1.70911 0.802168 0
M  V30 8146 O 756.309 0.984782 1.5365 0
M  V30 8147 C 756.36 3.50777 -0.873943 0
M  V30 8148 O 756.081 3.76173 -2.24556 0
M  V30 8149 C 757.582 4.39776 -0.557845 0
M  V30 8150 H 754.802 0.628652 -0.2346 0
M  V30 8151 H 757.346 1.59632 -1.27819 0
M  V30 8152 H 755.501 3.86474 -0.267765 0
M  V30 8153 H 755.915 4.70636 -2.31522 0
M  V30 8154 H 757.389 5.46431 -0.782157 0
M  V30 8155 H 757.866 4.36257 0.507573 0
M  V30 8156 H 758.472 4.09644 -1.14332 0
M  V30 8157 N 756.787 0.722489 1.40064 0
M  V30 8158 C 758.015 0.274838 2.05066 0
M  V30 8159 C 758.43 -1.08586 1.54449 0
M  V30 8160 O 757.787 -1.68375 0.704003 0
M  V30 8161 C 757.838 0.253673 3.60609 0
M  V30 8162 O 757.559 1.56064 4.0936 0
M  V30 8163 C 759.06 -0.211684 4.42794 0
M  V30 8164 H 756.28 0.12226 0.659768 0
M  V30 8165 H 758.824 0.982632 1.79345 0
M  V30 8166 H 756.979 -0.405137 3.85276 0
M  V30 8167 H 757.393 1.46576 5.03603 0
M  V30 8168 H 758.867 -0.175341 5.51721 0
M  V30 8169 H 759.344 -1.25493 4.2089 0
M  V30 8170 H 759.95 0.4171 4.2325 0
M  V30 8171 N 758.265 -1.50454 0.469181 0
M  V30 8172 C 759.195 -2.31353 -0.31592 0
M  V30 8173 C 760.176 -1.38172 -0.992094 0
M  V30 8174 O 761.361 -1.67093 -0.989633 0
M  V30 8175 C 758.491 -3.1786 -1.39937 0
M  V30 8176 C 757.445 -4.19578 -0.844909 0
M  V30 8177 C 756.771 -4.9481 -2.0265 0
M  V30 8178 C 758.071 -5.22106 0.142499 0
M  V30 8179 H 759.765 -2.97237 0.359269 0
M  V30 8180 H 757.311 -1.42942 0.174224 0
M  V30 8181 H 759.264 -3.7325 -1.95607 0
M  V30 8182 H 757.988 -2.49858 -2.1033 0
M  V30 8183 H 756.647 -3.65285 -0.310189 0
M  V30 8184 H 756.295 -4.23282 -2.71737 0
M  V30 8185 H 755.995 -5.63613 -1.66174 0
M  V30 8186 H 757.519 -5.53035 -2.58815 0
M  V30 8187 H 758.933 -5.72378 -0.324966 0
M  V30 8188 H 757.33 -5.98618 0.421441 0
M  V30 8189 H 758.4 -4.7297 1.06901 0
M  V30 8190 N 759.743 -0.201713 -1.56304 0
M  V30 8191 C 760.973 0.440084 -2.01858 0
M  V30 8192 C 761.381 1.55279 -1.08098 0
M  V30 8193 O 760.724 1.83529 -0.0792216 0
M  V30 8194 C 760.786 1.05091 -3.43797 0
M  V30 8195 C 760.45 0.0761208 -4.56937 0
M  V30 8196 C 761.447 -0.716951 -5.14933 0
M  V30 8197 C 759.132 -0.0368815 -5.02286 0
M  V30 8198 C 761.126 -1.60993 -6.16733 0
M  V30 8199 C 758.813 -0.933409 -6.03929 0
M  V30 8200 C 759.811 -1.71849 -6.61027 0
M  V30 8201 O 759.499 -2.59998 -7.60695 0
M  V30 8202 H 759.231 0.114139 -0.666294 0
M  V30 8203 H 761.785 -0.309672 -2.03052 0
M  V30 8204 H 760.015 1.84938 -3.3961 0
M  V30 8205 H 761.704 1.59804 -3.73118 0
M  V30 8206 H 762.47 -0.63999 -4.80759 0
M  V30 8207 H 758.349 0.564034 -4.57537 0
M  V30 8208 H 761.893 -2.22315 -6.61227 0
M  V30 8209 H 757.79 -1.01146 -6.37526 0
M  V30 8210 H 758.558 -2.53851 -7.7814 0
M  V30 8211 N 761.222 1.57436 0.0718424 0
M  V30 8212 C 762.469 1.87248 0.771007 0
M  V30 8213 C 762.797 0.793441 1.7758 0
M  V30 8214 O 762.052 -0.210565 1.94564 0
M  V30 8215 C 762.351 3.23723 1.51455 0
M  V30 8216 C 762.017 4.46194 0.649736 0
M  V30 8217 C 760.679 4.79438 0.411409 0
M  V30 8218 C 763.031 5.21176 0.05004 0
M  V30 8219 C 760.359 5.85077 -0.436096 0
M  V30 8220 C 762.711 6.27712 -0.784919 0
M  V30 8221 C 761.375 6.59457 -1.03312 0
M  V30 8222 H 760.645 0.685188 0.282132 0
M  V30 8223 H 763.292 1.91474 0.0317896 0
M  V30 8224 H 761.597 3.15287 2.32597 0
M  V30 8225 H 763.294 3.44023 2.06031 0
M  V30 8226 H 759.884 4.20175 0.84562 0
M  V30 8227 H 764.068 4.95806 0.221282 0
M  V30 8228 H 759.324 6.08071 -0.637136 0
M  V30 8229 H 763.498 6.84974 -1.25635 0
M  V30 8230 H 761.125 7.4114 -1.6916 0
M  V30 8231 N 762.7 -0.34323 1.53817 0
M  V30 8232 C 763.663 -1.40444 1.8113 0
M  V30 8233 C 764.663 -1.45604 0.682366 0
M  V30 8234 O 765.853 -1.45974 0.950649 0
M  V30 8235 C 762.985 -2.79369 1.95361 0
M  V30 8236 H 764.178 -1.17489 2.75928 0
M  V30 8237 H 761.731 -0.577636 1.45234 0
M  V30 8238 H 762.466 -3.07607 1.02707 0
M  V30 8239 H 762.251 -2.7702 2.77493 0
M  V30 8240 H 763.741 -3.56178 2.18008 0
M  V30 8241 N 764.178 -1.45556 -0.604258 0
M  V30 8242 C 765.088 -1.57025 -1.74299 0
M  V30 8243 C 766.104 -0.45456 -1.67958 0
M  V30 8244 O 767.28 -0.715711 -1.88254 0
M  V30 8245 C 764.345 -1.53702 -3.10768 0
M  V30 8246 C 763.406 -2.76335 -3.28538 0
M  V30 8247 C 762.639 -2.73161 -4.58496 0
M  V30 8248 O 762.862 -1.80678 -5.41028 0
M  V30 8249 O 761.796 -3.64409 -4.79051 0
M  V30 8250 H 765.622 -2.53284 -1.67573 0
M  V30 8251 H 763.207 -1.28104 -0.768745 0
M  V30 8252 H 765.089 -1.54468 -3.92068 0
M  V30 8253 H 763.764 -0.605957 -3.17978 0
M  V30 8254 H 762.671 -2.8113 -2.46813 0
M  V30 8255 H 764.004 -3.68578 -3.26207 0
M  V30 8256 N 765.656 0.84705 -1.32902 0
M  V30 8257 C 766.903 1.60176 -1.23894 0
M  V30 8258 C 767.231 1.93496 0.197341 0
M  V30 8259 O 766.486 1.58173 1.15238 0
M  V30 8260 C 766.785 2.92663 -2.05142 0
M  V30 8261 C 766.451 2.7874 -3.54422 0
M  V30 8262 C 765.113 2.7465 -3.95121 0
M  V30 8263 C 767.465 2.64128 -4.49317 0
M  V30 8264 C 764.793 2.53837 -5.28946 0
M  V30 8265 C 767.145 2.44849 -5.83294 0
M  V30 8266 C 765.809 2.39156 -6.23186 0
M  V30 8267 H 765.079 0.586127 -0.453361 0
M  V30 8268 H 767.726 0.981994 -1.64405 0
M  V30 8269 H 766.031 3.588 -1.57383 0
M  V30 8270 H 767.728 3.50095 -1.95537 0
M  V30 8271 H 764.318 2.82751 -3.22102 0
M  V30 8272 H 768.502 2.66327 -4.18788 0
M  V30 8273 H 763.758 2.4787 -5.58901 0
M  V30 8274 H 767.932 2.32524 -6.56434 0
M  V30 8275 H 765.559 2.22789 -7.26821 0
M  V30 8276 N 767.134 1.16236 1.06428 0
M  V30 8277 C 768.38 0.944431 1.79467 0
M  V30 8278 C 768.713 -0.526558 1.86925 0
M  V30 8279 O 767.988 -1.39061 1.35986 0
M  V30 8280 C 768.271 1.57092 3.24028 0
M  V30 8281 C 768.124 3.11315 3.24658 0
M  V30 8282 C 769.443 1.26447 4.21544 0
M  V30 8283 H 766.562 0.344521 0.651517 0
M  V30 8284 H 769.204 1.43545 1.24478 0
M  V30 8285 H 767.354 1.15337 3.70985 0
M  V30 8286 H 769.026 3.62042 2.85873 0
M  V30 8287 H 767.269 3.44716 2.6335 0
M  V30 8288 H 767.94 3.50269 4.26633 0
M  V30 8289 H 770.416 1.62581 3.83023 0
M  V30 8290 H 769.292 1.72885 5.20963 0
M  V30 8291 H 769.553 0.183068 4.41721 0
M  V30 8292 N 768.612 -1.24939 0.960631 0
M  V30 8293 C 769.859 -1.92818 0.618663 0
M  V30 8294 C 770.187 -1.75177 -0.845173 0
M  V30 8295 O 769.442 -1.09412 -1.62258 0
M  V30 8296 C 769.741 -3.45066 0.930809 0
M  V30 8297 C 769.407 -3.82869 2.38164 0
M  V30 8298 C 768.069 -3.92899 2.7782 0
M  V30 8299 C 770.421 -4.01483 3.32356 0
M  V30 8300 C 767.749 -4.18955 4.10723 0
M  V30 8301 C 770.101 -4.29033 4.6488 0
M  V30 8302 C 768.765 -4.37282 5.04322 0
M  V30 8303 H 768.035 -0.705571 0.226385 0
M  V30 8304 H 770.682 -1.48365 1.21079 0
M  V30 8305 H 768.987 -3.9096 0.256355 0
M  V30 8306 H 770.684 -3.95783 0.644712 0
M  V30 8307 H 767.274 -3.75622 2.06413 0
M  V30 8308 H 771.458 -3.93143 3.02907 0
M  V30 8309 H 766.714 -4.23558 4.40918 0
M  V30 8310 H 770.888 -4.42381 5.3784 0
M  V30 8311 H 768.515 -4.57225 6.0733 0
M  V30 8312 N 770.09 -0.729906 -1.39679 0
M  V30 8313 C 771.02 -0.101618 -2.33279 0
M  V30 8314 C 772.001 0.729854 -1.53646 0
M  V30 8315 O 773.186 0.67587 -1.82059 0
M  V30 8316 C 770.316 0.81024 -3.37716 0
M  V30 8317 C 769.27 0.0833126 -4.27919 0
M  V30 8318 C 768.596 1.11185 -5.23012 0
M  V30 8319 C 769.896 -1.07107 -5.112 0
M  V30 8320 H 771.59 -0.883452 -2.86069 0
M  V30 8321 H 769.136 -0.426283 -1.37546 0
M  V30 8322 H 771.089 1.25927 -4.02145 0
M  V30 8323 H 769.813 1.62413 -2.83354 0
M  V30 8324 H 768.472 -0.346043 -3.64963 0
M  V30 8325 H 768.12 1.91917 -4.64948 0
M  V30 8326 H 767.82 0.63026 -5.8421 0
M  V30 8327 H 769.344 1.56068 -5.90318 0
M  V30 8328 H 770.758 -0.700726 -5.69002 0
M  V30 8329 H 769.155 -1.48196 -5.81514 0
M  V30 8330 H 770.225 -1.89513 -4.46332 0
M  V30 8331 N 771.568 1.50203 -0.477153 0
M  V30 8332 C 772.816 2.01959 0.0755889 0
M  V30 8333 C 773.137 1.3608 1.39668 0
M  V30 8334 O 772.407 0.508136 1.89195 0
M  V30 8335 H 770.987 0.74636 0.0309248 0
M  V30 8336 H 773.649 1.84473 -0.628959 0
M  V30 8337 H 772.745 3.11305 0.222683 0
M  V30 8338 N 773.046 0.209999 1.56195 0
M  V30 8339 C 773.976 -0.699746 2.22769 0
M  V30 8340 C 774.957 -1.20993 1.1956 0
M  V30 8341 O 776.142 -1.25605 1.48112 0
M  V30 8342 C 773.272 -1.91302 2.89863 0
M  V30 8343 C 772.226 -1.53715 3.99444 0
M  V30 8344 C 771.552 -2.82826 4.53777 0
M  V30 8345 C 772.852 -0.735836 5.17091 0
M  V30 8346 H 774.546 -0.144716 2.9905 0
M  V30 8347 H 772.092 -0.0681645 1.43839 0
M  V30 8348 H 774.045 -2.5548 3.35124 0
M  V30 8349 H 772.769 -2.49283 2.11011 0
M  V30 8350 H 771.428 -0.918892 3.54897 0
M  V30 8351 H 771.076 -3.38927 3.71669 0
M  V30 8352 H 770.776 -2.58415 5.27727 0
M  V30 8353 H 772.3 -3.47966 5.01749 0
M  V30 8354 H 773.714 -1.28105 5.58804 0
M  V30 8355 H 772.111 -0.589272 5.972 0
M  V30 8356 H 773.181 0.260004 4.84202 0
M  V30 8357 N 774.524 -1.57472 -0.0634922 0
M  V30 8358 C 775.771 -1.87654 -0.761066 0
M  V30 8359 C 776.099 -0.802847 -1.77157 0
M  V30 8360 O 775.354 0.200244 -1.94673 0
M  V30 8361 C 775.653 -3.24521 -1.49736 0
M  V30 8362 C 775.319 -4.46532 -0.626065 0
M  V30 8363 C 773.981 -4.7965 -0.385978 0
M  V30 8364 C 776.333 -5.21195 -0.0224001 0
M  V30 8365 C 773.661 -5.84837 0.467118 0
M  V30 8366 C 776.013 -6.27286 0.818198 0
M  V30 8367 C 774.677 -6.58899 1.06808 0
M  V30 8368 H 773.947 -0.686675 -0.278494 0
M  V30 8369 H 776.594 -1.91488 -0.0216348 0
M  V30 8370 H 774.899 -3.16516 -2.30921 0
M  V30 8371 H 776.596 -3.45111 -2.04204 0
M  V30 8372 H 773.186 -4.20618 -0.823325 0
M  V30 8373 H 777.37 -4.95917 -0.194985 0
M  V30 8374 H 772.626 -6.07725 0.669375 0
M  V30 8375 H 776.8 -6.84298 1.29265 0
M  V30 8376 H 774.427 -7.40233 1.73088 0
M  V30 8377 N 776.003 0.335068 -1.53997 0
M  V30 8378 C 776.933 1.41727 -1.85568 0
M  V30 8379 C 777.914 1.54505 -0.7115 0
M  V30 8380 O 779.099 1.68573 -0.964191 0
M  V30 8381 C 776.229 2.7866 -2.07282 0
M  V30 8382 C 775.183 2.80682 -3.23112 0
M  V30 8383 C 774.509 4.20581 -3.30175 0
M  V30 8384 C 775.809 2.45458 -4.61029 0
M  V30 8385 H 777.503 1.15555 -2.76202 0
M  V30 8386 H 775.049 0.554445 -1.32898 0
M  V30 8387 H 777.002 3.54423 -2.27952 0
M  V30 8388 H 775.726 3.06286 -1.13387 0
M  V30 8389 H 774.385 2.07373 -3.02311 0
M  V30 8390 H 774.033 4.4533 -2.33859 0
M  V30 8391 H 773.733 4.22843 -4.08016 0
M  V30 8392 H 775.257 4.98174 -3.53066 0
M  V30 8393 H 776.671 3.10934 -4.81656 0
M  V30 8394 H 775.068 2.5899 -5.41336 0
M  V30 8395 H 776.138 1.40628 -4.6406 0
M  V30 8396 N 777.481 1.45874 0.596531 0
M  V30 8397 C 778.709 1.54013 1.38158 0
M  V30 8398 C 779.124 0.17648 1.87973 0
M  V30 8399 O 778.481 -0.823895 1.62844 0
M  V30 8400 C 778.532 2.53363 2.57855 0
M  V30 8401 O 778.253 3.8443 2.10108 0
M  V30 8402 C 779.754 2.71308 3.50581 0
M  V30 8403 H 776.974 0.521251 0.422538 0
M  V30 8404 H 779.518 1.9116 0.726493 0
M  V30 8405 H 777.673 2.19257 3.19382 0
M  V30 8406 H 778.087 4.38384 2.87958 0
M  V30 8407 H 779.561 3.44776 4.31084 0
M  V30 8408 H 780.038 1.77728 4.01633 0
M  V30 8409 H 780.644 3.06455 2.94899 0
M  V30 8410 N 778.959 -0.83999 1.33349 0
M  V30 8411 C 779.869 -1.98182 1.25543 0
M  V30 8412 C 780.885 -1.73204 0.166208 0
M  V30 8413 O 782.061 -1.97596 0.389589 0
M  V30 8414 C 779.126 -3.32157 0.993614 0
M  V30 8415 C 778.187 -3.70258 2.17273 0
M  V30 8416 C 777.42 -4.9784 1.92331 0
M  V30 8417 O 777.643 -5.63679 0.873074 0
M  V30 8418 O 776.577 -5.33418 2.78835 0
M  V30 8419 H 780.403 -2.07708 2.21565 0
M  V30 8420 H 777.988 -0.972852 1.13384 0
M  V30 8421 H 779.87 -4.12433 0.864711 0
M  V30 8422 H 778.545 -3.23637 0.0636596 0
M  V30 8423 H 777.452 -2.90497 2.35716 0
M  V30 8424 H 778.785 -3.83442 3.08598 0
M  V30 8425 N 780.437 -1.16799 -1.0581 0
M  V30 8426 C 781.37 -0.822491 -2.12862 0
M  V30 8427 C 782.348 0.208006 -1.61264 0
M  V30 8428 O 783.532 0.0909652 -1.8828 0
M  V30 8429 C 780.659 -0.225826 -3.37946 0
M  V30 8430 C 779.705 -1.23071 -4.08357 0
M  V30 8431 S 780.538 -2.77944 -4.5772 0
M  V30 8432 C 781.694 -2.19741 -5.86059 0
M  V30 8433 H 781.927 -1.72917 -2.41841 0
M  V30 8434 H 779.46 -0.991982 -1.18318 0
M  V30 8435 H 781.418 0.111955 -4.10347 0
M  V30 8436 H 780.079 0.658692 -3.07116 0
M  V30 8437 H 779.272 -0.761758 -4.9821 0
M  V30 8438 H 778.874 -1.51383 -3.41993 0
M  V30 8439 H 781.166 -1.5691 -6.59079 0
M  V30 8440 H 782.109 -3.07823 -6.37692 0
M  V30 8441 H 782.517 -1.63433 -5.40324 0
M  V30 8442 N 781.915 1.24427 -0.967243 0
M  V30 8443 C 783.14 1.9708 -0.646069 0
M  V30 8444 C 783.565 1.71272 0.777665 0
M  V30 8445 O 782.923 0.976179 1.52776 0
M  V30 8446 C 782.971 3.48501 -0.926266 0
M  V30 8447 O 782.075 4.12398 -0.0114653 0
M  V30 8448 H 781.416 0.617423 -0.244304 0
M  V30 8449 H 783.946 1.58215 -1.29727 0
M  V30 8450 H 783.956 3.98885 -0.857619 0
M  V30 8451 H 782.631 3.66613 -1.96386 0
M  V30 8452 H 781.208 3.72661 -0.133396 0
M  V30 8453 N 783.393 0.737304 1.3929 0
M  V30 8454 C 784.323 0.113988 2.33222 0
M  V30 8455 C 785.304 -0.721695 1.54031 0
M  V30 8456 O 786.489 -0.666206 1.82415 0
M  V30 8457 C 783.619 -0.792319 3.38141 0
M  V30 8458 C 782.573 -0.0606178 4.27957 0
M  V30 8459 C 781.899 -1.08409 5.23595 0
M  V30 8460 C 783.199 1.09817 5.10625 0
M  V30 8461 H 784.893 0.898611 2.85596 0
M  V30 8462 H 782.439 0.433571 1.37318 0
M  V30 8463 H 784.392 -1.23793 4.02807 0
M  V30 8464 H 783.116 -1.60908 2.84211 0
M  V30 8465 H 781.775 0.365393 3.64775 0
M  V30 8466 H 781.423 -1.89449 4.6596 0
M  V30 8467 H 781.123 -0.599269 5.84536 0
M  V30 8468 H 782.647 -1.52936 5.91137 0
M  V30 8469 H 784.061 0.730892 5.68622 0
M  V30 8470 H 782.458 1.51278 5.80719 0
M  V30 8471 H 783.528 1.91878 4.45321 0
M  V30 8472 N 784.871 -1.49948 0.485112 0
M  V30 8473 C 785.818 -2.28819 -0.301729 0
M  V30 8474 C 786.788 -1.34496 -0.974683 0
M  V30 8475 O 787.973 -1.63444 -0.984418 0
M  V30 8476 C 785.113 -3.16758 -1.36961 0
M  V30 8477 C 784.226 -4.26125 -0.710027 0
M  V30 8478 C 783.361 -5.01302 -1.75699 0
M  V30 8479 C 782.4 -6.02525 -1.07841 0
M  V30 8480 N 781.537 -6.70927 -2.06886 0
M  V30 8481 H 786.377 -2.95604 0.377127 0
M  V30 8482 H 783.914 -1.45764 0.197826 0
M  V30 8483 H 785.872 -3.66106 -2.00056 0
M  V30 8484 H 784.502 -2.51991 -2.01744 0
M  V30 8485 H 783.554 -3.80385 0.0338278 0
M  V30 8486 H 784.866 -4.98493 -0.175079 0
M  V30 8487 H 784.02 -5.54438 -2.46339 0
M  V30 8488 H 782.759 -4.28672 -2.32577 0
M  V30 8489 H 781.764 -5.48635 -0.357706 0
M  V30 8490 H 782.989 -6.77134 -0.516345 0
M  V30 8491 H 780.935 -6.01079 -2.62755 0
M  V30 8492 H 780.852 -7.39216 -1.58414 0
M  V30 8493 H 782.12 -7.28675 -2.76863 0
M  V30 8494 N 786.349 -0.21828 -1.56081 0
M  V30 8495 C 787.282 0.733096 -2.16104 0
M  V30 8496 C 788.26 1.19333 -1.10447 0
M  V30 8497 O 789.444 1.27666 -1.38685 0
M  V30 8498 C 786.571 1.99283 -2.73868 0
M  V30 8499 C 785.617 1.67285 -3.92324 0
M  V30 8500 S 786.45 0.800511 -5.29483 0
M  V30 8501 C 787.606 2.06988 -5.90683 0
M  V30 8502 H 787.839 0.222917 -2.96463 0
M  V30 8503 H 785.372 -0.00300946 -1.544 0
M  V30 8504 H 787.33 2.71618 -3.07789 0
M  V30 8505 H 785.991 2.47414 -1.93508 0
M  V30 8506 H 785.184 2.60874 -4.31232 0
M  V30 8507 H 784.786 1.03016 -3.59533 0
M  V30 8508 H 787.078 3.02019 -6.06457 0
M  V30 8509 H 788.021 1.72476 -6.86773 0
M  V30 8510 H 788.429 2.20893 -5.19487 0
M  V30 8511 N 787.827 1.57504 0.0551401 0
M  V30 8512 C 789.057 1.92015 0.762472 0
M  V30 8513 C 789.465 0.814088 1.7079 0
M  V30 8514 O 788.808 -0.220273 1.82375 0
M  V30 8515 C 788.87 3.22132 1.59598 0
M  V30 8516 C 788.534 4.49617 0.818141 0
M  V30 8517 C 789.531 5.19738 0.129933 0
M  V30 8518 C 787.216 4.96201 0.780387 0
M  V30 8519 C 789.21 6.34704 -0.585616 0
M  V30 8520 C 786.897 6.11069 0.0610756 0
M  V30 8521 C 787.895 6.80174 -0.62071 0
M  V30 8522 O 787.583 7.92849 -1.3284 0
M  V30 8523 H 787.315 0.638866 0.220967 0
M  V30 8524 H 789.869 2.05385 0.0246362 0
M  V30 8525 H 788.099 3.05016 2.37701 0
M  V30 8526 H 789.788 3.42166 2.18351 0
M  V30 8527 H 790.554 4.84767 0.150299 0
M  V30 8528 H 786.433 4.42275 1.30054 0
M  V30 8529 H 789.977 6.88578 -1.11833 0
M  V30 8530 H 785.874 6.45488 0.0386945 0
M  V30 8531 H 786.642 8.09062 -1.23938 0
M  V30 8532 N 789.305 -0.326896 1.54172 0
M  V30 8533 C 790.553 -1.06313 1.71878 0
M  V30 8534 C 790.874 -1.88652 0.493498 0
M  V30 8535 O 790.144 -1.89608 -0.492522 0
M  V30 8536 H 788.724 -0.39549 0.633716 0
M  V30 8537 H 791.386 -0.364139 1.91468 0
M  V30 8538 H 790.482 -1.73105 2.59694 0
M  V30 8539 N 790.784 -1.46188 -0.588786 0
M  V30 8540 C 791.714 -1.59148 -1.70863 0
M  V30 8541 C 792.695 -0.442083 -1.64255 0
M  V30 8542 O 793.88 -0.667575 -1.82365 0
M  V30 8543 C 791.01 -1.5757 -3.09498 0
M  V30 8544 C 789.964 -2.71418 -3.30932 0
M  V30 8545 C 789.29 -2.549 -4.70032 0
M  V30 8546 C 790.59 -4.1329 -3.19356 0
M  V30 8547 H 792.284 -2.52889 -1.60274 0
M  V30 8548 H 789.83 -1.21707 -0.769638 0
M  V30 8549 H 791.783 -1.65231 -3.87655 0
M  V30 8550 H 790.507 -0.603705 -3.20972 0
M  V30 8551 H 789.166 -2.63216 -2.55172 0
M  V30 8552 H 788.814 -1.55797 -4.78264 0
M  V30 8553 H 788.514 -3.31257 -4.85327 0
M  V30 8554 H 790.038 -2.64443 -5.50366 0
M  V30 8555 H 791.452 -4.22636 -3.87365 0
M  V30 8556 H 789.849 -4.90187 -3.46175 0
M  V30 8557 H 790.919 -4.33874 -2.16522 0
M  V30 8558 N 792.262 0.832906 -1.33792 0
M  V30 8559 C 793.51 1.58539 -1.25338 0
M  V30 8560 C 793.831 1.94175 0.179204 0
M  V30 8561 O 793.101 1.61458 1.10941 0
M  V30 8562 H 791.681 0.58784 -0.460926 0
M  V30 8563 H 794.343 0.995064 -1.67584 0
M  V30 8564 H 793.439 2.51268 -1.85123 0
M  V30 8565 N 793.74 1.17359 1.05189 0
M  V30 8566 C 795.151 0.96793 1.5965 0
M  V30 8567 C 795.502 -0.485355 1.90102 0
M  V30 8568 O 794.627 -1.36066 1.6827 0
M  V30 8569 C 795.222 1.75068 2.90063 0
M  V30 8570 C 793.781 1.58969 3.41183 0
M  V30 8571 C 792.928 1.75231 2.14917 0
M  V30 8572 H 795.879 1.32067 0.880001 0
M  V30 8573 H 795.9 1.23308 3.59966 0
M  V30 8574 H 795.412 2.80835 2.67868 0
M  V30 8575 H 793.513 0.556906 3.68415 0
M  V30 8576 H 793.626 2.38067 4.15766 0
M  V30 8577 H 791.99 1.18073 2.25679 0
M  V30 8578 H 792.773 2.8241 1.95191 0
M  V30 8579 N 795.218 -1.23913 0.973828 0
M  V30 8580 C 796.634 -1.44325 0.681363 0
M  V30 8581 C 796.834 -1.86832 -0.754728 0
M  V30 8582 O 795.89 -2.01024 -1.52793 0
M  V30 8583 C 797.203 -2.50017 1.67069 0
M  V30 8584 C 798.751 -2.63838 1.68399 0
M  V30 8585 C 799.226 -3.72734 2.66145 0
M  V30 8586 N 800.717 -3.80169 2.64624 0
M  V30 8587 C 801.452 -4.6397 3.36927 0
M  V30 8588 N 800.948 -5.51911 4.18767 0
M  V30 8589 N 802.741 -4.58106 3.25722 0
M  V30 8590 H 794.892 -0.946204 1.9016 0
M  V30 8591 H 797.155 -0.477374 0.819035 0
M  V30 8592 H 796.861 -2.25686 2.69738 0
M  V30 8593 H 796.735 -3.48287 1.4483 0
M  V30 8594 H 799.122 -2.87524 0.664379 0
M  V30 8595 H 799.203 -1.65906 1.94702 0
M  V30 8596 H 798.847 -3.49797 3.68245 0
M  V30 8597 H 798.777 -4.70193 2.3712 0
M  V30 8598 H 801.268 -3.17319 2.05224 0
M  V30 8599 H 801.581 -6.12828 4.70809 0
M  V30 8600 H 799.926 -5.51556 4.2286 0
M  V30 8601 H 803.117 -3.8842 2.61242 0
M  V30 8602 H 803.29 -5.23188 3.82333 0
M  V30 8603 N 796.696 -0.74468 -1.38897 0
M  V30 8604 C 797.921 -0.306119 -2.05128 0
M  V30 8605 C 798.346 1.0541 -1.55789 0
M  V30 8606 O 797.704 1.66993 -0.705909 0
M  V30 8607 C 797.752 -0.328195 -3.59103 0
M  V30 8608 O 796.856 0.680876 -4.06741 0
M  V30 8609 H 796.197 -0.137209 -0.649669 0
M  V30 8610 H 798.727 -1.01331 -1.77745 0
M  V30 8611 H 798.737 -0.175956 -4.0762 0
M  V30 8612 H 797.412 -1.32067 -3.94374 0
M  V30 8613 H 795.989 0.49398 -3.69614 0
M  V30 8614 N 798.174 1.49689 -0.493057 0
M  V30 8615 C 799.404 2.06536 0.0512397 0
M  V30 8616 C 799.812 1.35459 1.32089 0
M  V30 8617 O 799.155 0.424145 1.78736 0
M  V30 8618 C 799.217 3.57452 0.383231 0
M  V30 8619 C 798.881 4.50163 -0.787555 0
M  V30 8620 C 799.878 4.92151 -1.67582 0
M  V30 8621 C 797.563 4.92565 -0.984109 0
M  V30 8622 C 799.557 5.7527 -2.74487 0
M  V30 8623 C 797.244 5.75463 -2.05634 0
M  V30 8624 C 798.242 6.16719 -2.93507 0
M  V30 8625 O 797.93 6.97961 -3.98881 0
M  V30 8626 H 797.662 0.675862 -0.0136516 0
M  V30 8627 H 800.216 1.9356 -0.687298 0
M  V30 8628 H 798.446 3.68408 1.17526 0
M  V30 8629 H 800.135 3.96572 0.8652 0
M  V30 8630 H 800.901 4.60043 -1.53575 0
M  V30 8631 H 796.78 4.5996 -0.309541 0
M  V30 8632 H 800.324 6.07392 -3.43104 0
M  V30 8633 H 796.221 6.06983 -2.19639 0
M  V30 8634 H 796.989 7.16253 -3.96137 0
M  V30 8635 N 799.652 0.226554 1.55963 0
M  V30 8636 C 800.899 -0.403789 1.98433 0
M  V30 8637 C 801.227 -1.59416 1.1143 0
M  V30 8638 O 800.482 -1.95042 0.160389 0
M  V30 8639 C 800.781 -0.87642 3.46488 0
M  V30 8640 C 800.447 0.203973 4.50438 0
M  V30 8641 C 799.109 0.500754 4.78587 0
M  V30 8642 C 801.461 0.934396 5.12756 0
M  V30 8643 C 798.789 1.53239 5.66334 0
M  V30 8644 C 801.141 1.9554 6.0162 0
M  V30 8645 C 799.805 2.25905 6.28111 0
M  V30 8646 H 799.075 -0.147757 0.726119 0
M  V30 8647 H 801.722 0.330121 1.88633 0
M  V30 8648 H 800.027 -1.68918 3.53517 0
M  V30 8649 H 801.724 -1.37407 3.76723 0
M  V30 8650 H 798.314 -0.0374917 4.28584 0
M  V30 8651 H 802.498 0.718355 4.91074 0
M  V30 8652 H 797.754 1.77321 5.85122 0
M  V30 8653 H 801.928 2.52642 6.48957 0
M  V30 8654 H 799.555 3.05985 6.959 0
M  V30 8655 N 801.13 -1.57531 -0.0467866 0
M  V30 8656 C 802.546 -1.54451 -0.402107 0
M  V30 8657 C 802.746 -0.950275 -1.77685 0
M  V30 8658 O 801.802 -0.563602 -2.4613 0
M  V30 8659 C 803.115 -2.9899 -0.320212 0
M  V30 8660 C 804.663 -3.10452 -0.398588 0
M  V30 8661 C 805.138 -4.56689 -0.346335 0
M  V30 8662 N 806.629 -4.6142 -0.405666 0
M  V30 8663 C 807.364 -5.72087 -0.387845 0
M  V30 8664 N 806.86 -6.92045 -0.32336 0
M  V30 8665 N 808.653 -5.60404 -0.436263 0
M  V30 8666 H 800.804 -1.94515 0.853087 0
M  V30 8667 H 803.067 -0.891397 0.322669 0
M  V30 8668 H 802.773 -3.46124 0.623794 0
M  V30 8669 H 802.647 -3.60164 -1.1208 0
M  V30 8670 H 805.034 -2.63276 -1.33302 0
M  V30 8671 H 805.115 -2.52142 0.431026 0
M  V30 8672 H 804.759 -5.04527 0.584356 0
M  V30 8673 H 804.689 -5.12889 -1.19382 0
M  V30 8674 H 807.18 -3.75105 -0.458737 0
M  V30 8675 H 807.493 -7.7216 -0.314375 0
M  V30 8676 H 805.838 -6.94396 -0.28967 0
M  V30 8677 H 809.029 -4.65586 -0.48451 0
M  V30 8678 H 809.202 -6.46645 -0.418907 0
M  V30 8679 N 802.608 0.318715 -1.54344 0
M  V30 8680 C 803.833 1.07987 -1.77069 0
M  V30 8681 C 804.258 1.80766 -0.520117 0
M  V30 8682 O 803.616 1.73424 0.528566 0
M  V30 8683 C 803.664 2.04987 -2.96669 0
M  V30 8684 O 802.768 3.12974 -2.68554 0
M  V30 8685 H 802.109 0.311109 -0.586606 0
M  V30 8686 H 804.639 0.361533 -2.0138 0
M  V30 8687 H 804.649 2.47771 -3.2415 0
M  V30 8688 H 803.324 1.51417 -3.87357 0
M  V30 8689 H 801.901 2.74831 -2.52037 0
M  V30 8690 N 804.086 1.46499 0.581025 0
M  V30 8691 C 805.311 1.55708 1.37002 0
M  V30 8692 C 805.736 0.19942 1.8704 0
M  V30 8693 O 805.094 -0.820731 1.61659 0
M  V30 8694 C 805.142 2.56716 2.53238 0
M  V30 8695 O 804.246 2.10336 3.54729 0
M  V30 8696 H 803.587 0.523912 0.407937 0
M  V30 8697 H 806.117 1.92085 0.704602 0
M  V30 8698 H 806.127 2.76378 3.00132 0
M  V30 8699 H 804.802 3.55307 2.16171 0
M  V30 8700 H 803.379 2.00669 3.14303 0
M  V30 8701 N 805.565 -0.825799 1.34232 0
M  V30 8702 C 806.812 -1.58185 1.26427 0
M  V30 8703 C 807.14 -1.93786 -0.166533 0
M  V30 8704 O 806.395 -1.59986 -1.12707 0
M  V30 8705 C 806.694 -2.89362 2.09772 0
M  V30 8706 C 806.36 -2.73066 3.58812 0
M  V30 8707 C 805.022 -2.68329 3.99441 0
M  V30 8708 C 807.374 -2.56946 4.53462 0
M  V30 8709 C 804.702 -2.4539 5.32917 0
M  V30 8710 C 807.054 -2.35538 5.87115 0
M  V30 8711 C 805.718 -2.29212 6.26912 0
M  V30 8712 H 804.988 -0.57884 0.462629 0
M  V30 8713 H 807.635 -0.955714 1.65947 0
M  V30 8714 H 805.94 -3.56251 1.63071 0
M  V30 8715 H 807.637 -3.4694 2.01081 0
M  V30 8716 H 804.227 -2.77591 3.26559 0
M  V30 8717 H 808.411 -2.59631 4.22972 0
M  V30 8718 H 803.667 -2.38947 5.62774 0
M  V30 8719 H 807.841 -2.22051 6.6005 0
M  V30 8720 H 805.468 -2.11197 7.30274 0
M  V30 8721 N 807.043 -1.17915 -1.04565 0
M  V30 8722 C 807.991 -0.897919 -2.1457 0
M  V30 8723 C 808.985 0.139883 -1.68821 0
M  V30 8724 O 810.191 -0.00779463 -1.79998 0
M  V30 8725 H 806.566 -0.272867 -0.700748 0
M  V30 8726 H 808.537 -1.83268 -2.3549 0
M  V30 8727 C 807.286 -0.434634 -3.44973 0
M  V30 8728 H 806.609 -1.22469 -3.8058 0
M  V30 8729 H 808.049 -0.276804 -4.23095 0
M  V30 8730 C 806.508 0.848738 -3.26034 0
M  V30 8731 O 807.038 1.9141 -3.53164 0
M  V30 8732 N 805.244 0.799373 -2.79389 0
M  V30 8733 H 804.791 -0.0678192 -2.57511 0
M  V30 8734 H 804.749 1.6585 -2.67098 0
M  V30 8735 N 808.521 1.23394 -0.980386 0
M  V30 8736 C 809.761 1.93543 -0.657288 0
M  V30 8737 C 810.125 1.74791 0.794477 0
M  V30 8738 O 811.326 2.39089 1.2284 0
M  V30 8739 C 809.597 3.42025 -1.03701 0
M  V30 8740 S 811.156 4.30871 -0.830379 0
M  V30 8741 H 807.974 0.669012 -0.240717 0
M  V30 8742 H 810.576 1.49478 -1.26002 0
M  V30 8743 H 809.28 3.53183 -2.09022 0
M  V30 8744 H 808.811 3.91091 -0.425559 0
M  V30 8745 H 810.826 4.95377 0.285719 0
M  V30 8746 N 809.999 0.752036 1.385 0
M  V30 8747 C 811.246 0.307503 2.00152 0
M  V30 8748 C 811.574 -1.11033 1.59693 0
M  V30 8749 O 810.829 -1.77455 0.825125 0
M  V30 8750 C 811.128 0.376155 3.55415 0
M  V30 8751 C 810.794 1.74942 4.15579 0
M  V30 8752 C 809.456 2.12525 4.31725 0
M  V30 8753 C 811.808 2.65031 4.48785 0
M  V30 8754 C 809.136 3.39671 4.78373 0
M  V30 8755 C 811.488 3.91567 4.96848 0
M  V30 8756 C 810.152 4.2922 5.11201 0
M  V30 8757 H 809.422 0.112523 0.732407 0
M  V30 8758 H 812.069 0.962213 1.65571 0
M  V30 8759 H 810.374 -0.362121 3.90123 0
M  V30 8760 H 812.071 0.0138065 4.00998 0
M  V30 8761 H 808.661 1.44726 4.03426 0
M  V30 8762 H 812.845 2.3726 4.35914 0
M  V30 8763 H 808.101 3.68765 4.8767 0
M  V30 8764 H 812.275 4.61517 5.21512 0
M  V30 8765 H 809.902 5.27805 5.47107 0
M  V30 8766 N 811.477 -1.49425 0.500989 0
M  V30 8767 C 812.754 -1.9531 -0.106551 0
M  V30 8768 C 813.134 -1.44248 -1.54129 0
M  V30 8769 O 812.482 -0.656237 -2.18874 0
M  V30 8770 C 812.692 -3.48995 -0.0191972 0
M  V30 8771 C 814.04 -4.24161 -0.193129 0
M  V30 8772 O 815.064 -3.56075 -0.0943843 0
M  V30 8773 O 813.923 -5.45064 -0.395869 0
M  V30 8774 H 811.017 -0.82149 -0.0953068 0
M  V30 8775 H 813.563 -1.6007 0.563526 0
M  V30 8776 H 812.335 -3.78794 0.981353 0
M  V30 8777 H 811.958 -3.90852 -0.72942 0
M  V30 8778 N 812.955 -0.234822 -1.55841 0
M  V30 8779 C 814.202 0.39326 -1.98645 0
M  V30 8780 C 814.53 1.58823 -1.12274 0
M  V30 8781 O 813.785 1.94954 -0.170731 0
M  V30 8782 C 814.084 0.858032 -3.46947 0
M  V30 8783 C 813.75 -0.227858 -4.50324 0
M  V30 8784 C 812.412 -0.526128 -4.78315 0
M  V30 8785 C 814.764 -0.961576 -5.12253 0
M  V30 8786 C 812.092 -1.5624 -5.65514 0
M  V30 8787 C 814.444 -1.98728 -6.00575 0
M  V30 8788 C 813.108 -2.29233 -6.26904 0
M  V30 8789 H 812.378 0.143904 -0.726892 0
M  V30 8790 H 815.025 -0.34012 -1.88455 0
M  V30 8791 H 813.33 1.67041 -3.54408 0
M  V30 8792 H 815.027 1.35407 -3.77447 0
M  V30 8793 H 811.617 0.0147624 -4.28597 0
M  V30 8794 H 815.801 -0.744388 -4.90686 0
M  V30 8795 H 811.057 -1.80422 -5.84173 0
M  V30 8796 H 815.231 -2.5608 -6.47608 0
M  V30 8797 H 812.858 -3.09671 -6.94268 0
M  V30 8798 N 814.433 1.57553 0.0384317 0
M  V30 8799 C 815.681 1.88468 0.729672 0
M  V30 8800 C 816.002 0.831302 1.76393 0
M  V30 8801 O 815.272 -0.13622 1.95426 0
M  V30 8802 H 813.852 0.695529 0.272485 0
M  V30 8803 H 816.514 1.94899 0.0066032 0
M  V30 8804 H 815.61 2.8705 1.22511 0
M  V30 8805 N 815.911 -0.310526 1.54511 0
M  V30 8806 C 817.157 -1.04846 1.73595 0
M  V30 8807 C 817.49 -1.87244 0.515118 0
M  V30 8808 O 816.765 -1.88282 -0.48786 0
M  V30 8809 C 817.048 -1.96237 3.01932 0
M  V30 8810 C 816.901 -1.17082 4.34295 0
M  V30 8811 C 818.22 -2.9556 3.26086 0
M  V30 8812 H 815.339 -0.37976 0.631626 0
M  V30 8813 H 817.981 -0.32394 1.87218 0
M  V30 8814 H 816.131 -2.58015 2.90449 0
M  V30 8815 H 817.803 -0.576643 4.57682 0
M  V30 8816 H 816.046 -0.473336 4.3121 0
M  V30 8817 H 816.717 -1.84257 5.20339 0
M  V30 8818 H 819.193 -2.43908 3.37117 0
M  V30 8819 H 818.069 -3.5668 4.17218 0
M  V30 8820 H 818.33 -3.68715 2.4393 0
M  V30 8821 N 817.389 -1.46805 -0.573248 0
M  V30 8822 C 818.638 -1.51868 -1.32736 0
M  V30 8823 C 818.951 -0.178765 -1.94781 0
M  V30 8824 O 820.157 -0.107272 -2.71288 0
M  V30 8825 C 818.613 -2.67641 -2.40616 0
M  V30 8826 C 818.221 -4.08094 -1.84832 0
M  V30 8827 C 819.965 -2.81984 -3.17309 0
M  V30 8828 C 817.872 -5.15193 -2.90397 0
M  V30 8829 H 816.802 -0.56523 -0.49903 0
M  V30 8830 H 819.453 -1.7304 -0.610695 0
M  V30 8831 H 817.835 -2.39818 -3.15124 0
M  V30 8832 H 819.009 -4.45751 -1.16803 0
M  V30 8833 H 817.324 -3.985 -1.20775 0
M  V30 8834 H 819.921 -3.59166 -3.96111 0
M  V30 8835 H 820.264 -1.89842 -3.70494 0
M  V30 8836 H 820.797 -3.095 -2.4991 0
M  V30 8837 H 817.536 -6.09158 -2.42088 0
M  V30 8838 H 817.056 -4.82071 -3.56886 0
M  V30 8839 H 818.735 -5.41448 -3.54179 0
M  V30 8840 N 818.867 0.818669 -1.34668 0
M  V30 8841 C 820.113 1.57746 -1.27453 0
M  V30 8842 C 820.446 1.93588 0.154077 0
M  V30 8843 O 819.721 1.60371 1.10051 0
M  V30 8844 C 820.004 2.87414 -2.16945 0
M  V30 8845 C 819.857 2.58125 -3.68363 0
M  V30 8846 C 821.176 3.89021 -2.05792 0
M  V30 8847 H 818.295 0.572339 -0.464324 0
M  V30 8848 H 820.937 0.942784 -1.64959 0
M  V30 8849 H 819.087 3.41576 -1.85089 0
M  V30 8850 H 820.759 2.10239 -4.10606 0
M  V30 8851 H 819.002 1.91503 -3.89242 0
M  V30 8852 H 819.673 3.5061 -4.26353 0
M  V30 8853 H 822.149 3.44224 -2.33771 0
M  V30 8854 H 821.025 4.77548 -2.70628 0
M  V30 8855 H 821.286 4.29786 -1.03618 0
M  V30 8856 N 820.346 1.18468 1.03938 0
M  V30 8857 C 821.594 0.978895 1.76811 0
M  V30 8858 C 821.915 -0.49257 1.88676 0
M  V30 8859 O 821.185 -1.3572 1.41269 0
M  V30 8860 H 819.765 0.359201 0.654968 0
M  V30 8861 H 822.427 1.49173 1.25433 0
M  V30 8862 H 821.523 1.418 2.78027 0
M  V30 8863 N 821.824 -1.22873 0.986916 0
M  V30 8864 C 823.049 -1.96028 0.677341 0
M  V30 8865 C 823.474 -1.72487 -0.750319 0
M  V30 8866 O 822.832 -1.00036 -1.51203 0
M  V30 8867 C 822.88 -3.46983 0.981593 0
M  V30 8868 O 821.984 -4.12328 0.0770729 0
M  V30 8869 H 821.325 -0.613458 0.254096 0
M  V30 8870 H 823.855 -1.56132 1.32227 0
M  V30 8871 H 823.865 -3.9747 0.920969 0
M  V30 8872 H 822.54 -3.63442 2.02194 0
M  V30 8873 H 821.117 -3.72402 0.192666 0
M  V30 8874 N 823.302 -0.75937 -1.38099 0
M  V30 8875 C 824.548 -0.318584 -2.00282 0
M  V30 8876 C 824.881 1.09854 -1.60143 0
M  V30 8877 O 824.156 1.75344 -0.841702 0
M  V30 8878 C 824.439 -0.448047 -3.57302 0
M  V30 8879 C 824.292 -1.9067 -4.07388 0
M  V30 8880 C 825.611 0.155119 -4.39827 0
M  V30 8881 H 822.73 -0.117233 -0.727616 0
M  V30 8882 H 825.372 -0.960097 -1.63958 0
M  V30 8883 H 823.522 0.0981003 -3.88376 0
M  V30 8884 H 825.194 -2.5116 -3.86932 0
M  V30 8885 H 823.437 -2.41979 -3.6004 0
M  V30 8886 H 824.108 -1.94841 -5.1647 0
M  V30 8887 H 826.584 -0.31073 -4.14938 0
M  V30 8888 H 825.46 0.0343264 -5.48889 0
M  V30 8889 H 825.721 1.24407 -4.24235 0
M  V30 8890 N 824.78 1.49157 -0.508906 0
M  V30 8891 C 826.027 2.02473 0.0327983 0
M  V30 8892 C 826.355 1.38792 1.36261 0
M  V30 8893 O 825.61 0.515576 1.88786 0
M  V30 8894 C 825.909 3.56687 0.225717 0
M  V30 8895 C 825.575 4.39046 -1.02708 0
M  V30 8896 C 824.237 4.61271 -1.37048 0
M  V30 8897 C 826.589 4.86902 -1.85946 0
M  V30 8898 C 823.917 5.28598 -2.54562 0
M  V30 8899 C 826.269 5.55521 -3.0262 0
M  V30 8900 C 824.933 5.7599 -3.3733 0
M  V30 8901 H 824.203 0.740903 0.0120017 0
M  V30 8902 H 826.85 1.79372 -0.670665 0
M  V30 8903 H 825.155 3.78511 1.01177 0
M  V30 8904 H 826.852 3.95541 0.659433 0
M  V30 8905 H 823.442 4.21994 -0.749615 0
M  V30 8906 H 827.626 4.69553 -1.6073 0
M  V30 8907 H 822.882 5.42646 -2.81682 0
M  V30 8908 H 827.056 5.91576 -3.67438 0
M  V30 8909 H 824.683 6.27934 -4.2849 0
M  V30 8910 N 826.258 0.243083 1.55714 0
M  V30 8911 C 827.168 -0.668913 2.24862 0
M  V30 8912 C 828.184 -1.19638 1.26344 0
M  V30 8913 O 829.36 -1.23345 1.5921 0
M  V30 8914 C 826.425 -1.85084 2.93163 0
M  V30 8915 C 825.486 -1.36323 4.07081 0
M  V30 8916 C 824.719 -2.48882 4.72116 0
M  V30 8917 O 824.942 -3.67523 4.36214 0
M  V30 8918 O 823.876 -2.18857 5.60701 0
M  V30 8919 H 827.702 -0.109737 3.03502 0
M  V30 8920 H 825.287 0.0117411 1.49395 0
M  V30 8921 H 827.169 -2.54065 3.36197 0
M  V30 8922 H 825.844 -2.39771 2.17466 0
M  V30 8923 H 824.751 -0.640804 3.68571 0
M  V30 8924 H 826.084 -0.86249 4.84584 0
M  V30 8925 N 827.736 -1.57571 -0.0300757 0
M  V30 8926 C 828.982 -1.89506 -0.722159 0
M  V30 8927 C 829.315 -0.840699 -1.7506 0
M  V30 8928 O 828.59 0.144358 -1.93964 0
M  V30 8929 C 828.873 -3.32081 -1.39262 0
M  V30 8930 C 828.726 -4.48211 -0.377768 0
M  V30 8931 C 830.045 -3.73557 -2.32687 0
M  V30 8932 H 827.164 -0.689213 -0.261064 0
M  V30 8933 H 829.806 -1.89994 0.0150388 0
M  V30 8934 H 827.956 -3.31796 -2.02098 0
M  V30 8935 H 829.628 -4.6063 0.248591 0
M  V30 8936 H 827.871 -4.3274 0.303045 0
M  V30 8937 H 828.542 -5.44854 -0.885347 0
M  V30 8938 H 831.018 -3.75202 -1.79896 0
M  V30 8939 H 829.894 -4.74125 -2.7658 0
M  V30 8940 H 830.155 -3.05759 -3.19317 0
M  V30 8941 N 829.214 0.302327 -1.54673 0
M  V30 8942 C 830.46 1.03924 -1.74149 0
M  V30 8943 C 830.793 1.86968 -0.525041 0
M  V30 8944 O 830.068 1.88538 0.477868 0
M  V30 8945 C 830.351 1.94633 -3.02969 0
M  V30 8946 C 830.204 1.14778 -4.34909 0
M  V30 8947 C 831.523 2.93826 -3.27649 0
M  V30 8948 H 828.642 0.376405 -0.633631 0
M  V30 8949 H 831.284 0.314007 -1.87387 0
M  V30 8950 H 829.434 2.56471 -2.91813 0
M  V30 8951 H 831.106 0.552363 -4.57981 0
M  V30 8952 H 829.349 0.450462 -4.31455 0
M  V30 8953 H 830.02 1.81495 -5.21309 0
M  V30 8954 H 832.496 2.42117 -3.38406 0
M  V30 8955 H 831.372 3.54462 -4.19104 0
M  V30 8956 H 831.633 3.67416 -2.45882 0
M  V30 8957 N 830.692 1.47107 0.565454 0
M  V30 8958 C 831.938 1.54519 1.3227 0
M  V30 8959 C 832.293 0.201313 1.91344 0
M  V30 8960 O 831.586 -0.792058 1.74462 0
M  V30 8961 C 831.78 2.59309 2.45954 0
M  V30 8962 C 831.609 4.03756 1.98019 0
M  V30 8963 C 830.379 4.71293 1.8224 0
M  V30 8964 C 832.577 4.91029 1.52955 0
M  V30 8965 N 830.559 6.00288 1.28557 0
M  V30 8966 C 831.93 6.09986 1.10981 0
M  V30 8967 C 833.985 4.77539 1.4093 0
M  V30 8968 C 832.688 7.16943 0.581796 0
M  V30 8969 C 834.714 5.84584 0.895307 0
M  V30 8970 C 834.076 7.02725 0.485454 0
M  V30 8971 H 830.175 0.620177 0.476345 0
M  V30 8972 H 832.759 1.83814 0.641901 0
M  V30 8973 H 830.93 2.31896 3.11575 0
M  V30 8974 H 832.662 2.56614 3.1294 0
M  V30 8975 H 829.417 4.27074 2.04707 0
M  V30 8976 H 829.841 6.68991 1.03828 0
M  V30 8977 H 834.483 3.86574 1.71231 0
M  V30 8978 H 832.201 8.07661 0.266399 0
M  V30 8979 H 835.787 5.76191 0.805939 0
M  V30 8980 H 834.667 7.84144 0.0938828 0
M  V30 8981 N 832.17 -0.811516 1.35101 0
M  V30 8982 C 833.133 -1.90467 1.27495 0
M  V30 8983 C 834.133 -1.59703 0.187516 0
M  V30 8984 O 835.323 -1.68528 0.440896 0
M  V30 8985 C 832.455 -3.26774 0.971154 0
M  V30 8986 H 833.648 -1.98631 2.2469 0
M  V30 8987 H 831.201 -1.00681 1.19553 0
M  V30 8988 H 831.936 -3.243 0.0028557 0
M  V30 8989 H 831.721 -3.50488 1.75785 0
M  V30 8990 H 833.211 -4.06804 0.943414 0
M  V30 8991 N 833.648 -1.19017 -1.03309 0
M  V30 8992 C 834.611 -0.926076 -2.09658 0
M  V30 8993 C 835.611 0.0917077 -1.60538 0
M  V30 8994 O 836.801 -0.142574 -1.73616 0
M  V30 8995 C 833.933 -0.390958 -3.38651 0
M  V30 8996 H 835.126 -1.86923 -2.3452 0
M  V30 8997 H 832.679 -1.00325 -1.19853 0
M  V30 8998 H 833.414 0.558446 -3.19456 0
M  V30 8999 H 833.199 -1.12474 -3.75622 0
M  V30 9000 H 834.689 -0.225131 -4.16993 0
M  V30 9001 N 835.127 1.22348 -0.993418 0
M  V30 9002 C 836.376 1.90422 -0.665019 0
M  V30 9003 C 836.689 1.78199 0.806512 0
M  V30 9004 O 837.895 2.41193 1.24652 0
M  V30 9005 C 836.351 3.41403 -1.13893 0
M  V30 9006 C 835.959 3.62262 -2.63572 0
M  V30 9007 C 837.703 4.15175 -0.884884 0
M  V30 9008 C 835.61 5.06947 -3.04564 0
M  V30 9009 H 834.54 0.713073 -0.245037 0
M  V30 9010 H 837.191 1.3856 -1.20305 0
M  V30 9011 H 835.573 3.9245 -0.529027 0
M  V30 9012 H 836.747 3.21705 -3.29913 0
M  V30 9013 H 835.062 3.01824 -2.86865 0
M  V30 9014 H 837.659 5.21813 -1.16684 0
M  V30 9015 H 838.002 4.15915 0.178982 0
M  V30 9016 H 838.535 3.70157 -1.45701 0
M  V30 9017 H 835.274 5.11346 -4.10128 0
M  V30 9018 H 834.794 5.48404 -2.42927 0
M  V30 9019 H 836.473 5.75374 -2.95894 0
M  V30 9020 N 836.605 0.766683 1.37694 0
M  V30 9021 C 837.552 0.147725 2.30327 0
M  V30 9022 C 838.522 -0.695366 1.50844 0
M  V30 9023 O 839.707 -0.64878 1.79431 0
M  V30 9024 C 836.847 -0.72935 3.37305 0
M  V30 9025 C 835.96 0.129795 4.31805 0
M  V30 9026 C 835.095 -0.751511 5.25857 0
M  V30 9027 C 834.134 0.110475 6.12 0
M  V30 9028 N 833.271 -0.728522 6.9831 0
M  V30 9029 H 838.111 0.943204 2.82679 0
M  V30 9030 H 835.648 0.476736 1.3916 0
M  V30 9031 H 837.606 -1.25263 3.97951 0
M  V30 9032 H 836.236 -1.49048 2.86329 0
M  V30 9033 H 835.288 0.770829 3.72508 0
M  V30 9034 H 836.6 0.794923 4.92425 0
M  V30 9035 H 835.754 -1.34146 5.91684 0
M  V30 9036 H 834.493 -1.45034 4.65636 0
M  V30 9037 H 833.498 0.712999 5.45157 0
M  V30 9038 H 834.723 0.806557 6.74293 0
M  V30 9039 H 832.669 -1.41206 6.40622 0
M  V30 9040 H 832.586 -0.12058 7.55904 0
M  V30 9041 H 833.854 -1.30303 7.68532 0
M  V30 9042 N 838.083 -1.48885 0.516809 0
M  V30 9043 C 839.494 -1.86557 0.0729921 0
M  V30 9044 C 839.845 -1.42767 -1.34581 0
M  V30 9045 O 838.97 -0.812514 -2.00567 0
M  V30 9046 C 839.565 -3.38567 0.125686 0
M  V30 9047 C 838.124 -3.75481 -0.262867 0
M  V30 9048 C 837.271 -2.72913 0.491281 0
M  V30 9049 H 840.222 -1.40978 0.728767 0
M  V30 9050 H 840.243 -3.74629 -0.665831 0
M  V30 9051 H 839.755 -3.70408 1.15842 0
M  V30 9052 H 837.856 -3.49251 -1.29824 0
M  V30 9053 H 837.969 -4.79052 0.067579 0
M  V30 9054 H 836.333 -2.54627 -0.0608525 0
M  V30 9055 H 837.116 -3.07599 1.5244 0
M  V30 9056 N 839.561 -0.251338 -1.55583 0
M  V30 9057 C 840.809 0.371434 -1.98657 0
M  V30 9058 C 841.13 1.58143 -1.14087 0
M  V30 9059 O 840.4 1.94607 -0.224708 0
M  V30 9060 H 838.98 0.140225 -0.733721 0
M  V30 9061 H 841.642 -0.351157 -1.9171 0
M  V30 9062 H 840.738 0.677554 -3.04657 0
M  V30 9063 N 841.039 1.57585 0.0217189 0
M  V30 9064 C 842.264 1.94267 0.726309 0
M  V30 9065 C 842.689 0.851904 1.67703 0
M  V30 9066 O 842.047 -0.191792 1.80283 0
M  V30 9067 C 842.095 3.30023 1.45318 0
M  V30 9068 O 841.199 3.22791 2.5667 0
M  V30 9069 H 840.54 0.634777 0.194818 0
M  V30 9070 H 843.07 2.04585 -0.0249985 0
M  V30 9071 H 843.08 3.65084 1.82147 0
M  V30 9072 H 841.755 4.08972 0.755962 0
M  V30 9073 H 840.332 2.99373 2.2233 0
M  V30 9074 N 842.517 -0.29412 1.54831 0
M  V30 9075 C 843.742 -1.05156 1.78765 0
M  V30 9076 C 844.167 -1.79916 0.548809 0
M  V30 9077 O 843.525 -1.74243 -0.500909 0
M  V30 9078 C 843.573 -2.00242 2.99893 0
M  V30 9079 O 842.677 -3.08662 2.73499 0
M  V30 9080 H 842.018 -0.301737 0.591482 0
M  V30 9081 H 844.548 -0.329449 2.0193 0
M  V30 9082 H 844.558 -2.42583 3.28051 0
M  V30 9083 H 843.233 -1.45235 3.89717 0
M  V30 9084 H 841.81 -2.70786 2.56377 0
M  V30 9085 N 843.995 -1.47404 -0.557645 0
M  V30 9086 C 845.242 -1.54007 -1.31484 0
M  V30 9087 C 845.57 -0.202162 -1.93447 0
M  V30 9088 O 844.825 0.804901 -1.78381 0
M  V30 9089 C 845.124 -2.6061 -2.44575 0
M  V30 9090 C 844.79 -4.03896 -2.00446 0
M  V30 9091 C 843.452 -4.42901 -1.88127 0
M  V30 9092 C 845.804 -4.93804 -1.66754 0
M  V30 9093 C 843.132 -5.6965 -1.40411 0
M  V30 9094 C 845.484 -6.21016 -1.20509 0
M  V30 9095 C 844.148 -6.58903 -1.06786 0
M  V30 9096 H 843.418 -0.563552 -0.481134 0
M  V30 9097 H 846.065 -1.81001 -0.625375 0
M  V30 9098 H 844.37 -2.27371 -3.19076 0
M  V30 9099 H 846.067 -2.62941 -3.02759 0
M  V30 9100 H 842.657 -3.73077 -2.10977 0
M  V30 9101 H 846.841 -4.64369 -1.75144 0
M  V30 9102 H 842.097 -5.97755 -1.2845 0
M  V30 9103 H 846.271 -6.90095 -0.935001 0
M  V30 9104 H 843.898 -7.57008 -0.695891 0
M  V30 9105 N 845.473 0.80434 -1.35529 0
M  V30 9106 C 846.721 1.55845 -1.28673 0
M  V30 9107 C 847.042 1.94511 0.137976 0
M  V30 9108 O 846.312 1.63775 1.07492 0
M  V30 9109 H 844.892 0.577931 -0.473291 0
M  V30 9110 H 847.554 0.959293 -1.69657 0
M  V30 9111 H 846.65 2.47285 -1.90411 0
M  V30 9112 N 846.951 1.19563 1.02676 0
M  V30 9113 C 848.2 0.993864 1.75514 0
M  V30 9114 C 848.513 -0.475882 1.89723 0
M  V30 9115 O 849.719 -0.796525 2.59553 0
M  V30 9116 C 848.175 1.72937 3.15628 0
M  V30 9117 C 847.783 3.23937 3.09466 0
M  V30 9118 C 849.527 1.61092 3.92746 0
M  V30 9119 C 847.434 3.90067 4.44524 0
M  V30 9120 H 846.364 0.368244 0.657961 0
M  V30 9121 H 849.015 1.43081 1.14891 0
M  V30 9122 H 847.397 1.22025 3.76731 0
M  V30 9123 H 848.571 3.81983 2.57731 0
M  V30 9124 H 846.886 3.3608 2.45843 0
M  V30 9125 H 849.483 2.07848 4.92649 0
M  V30 9126 H 849.826 0.565415 4.12442 0
M  V30 9127 H 850.359 2.09361 3.3825 0
M  V30 9128 H 847.098 4.94725 4.30032 0
M  V30 9129 H 846.618 3.36809 4.96306 0
M  V30 9130 H 848.297 3.93736 5.13401 0
M  V30 9131 N 848.429 -1.21819 0.999893 0
M  V30 9132 C 849.654 -1.95298 0.698094 0
M  V30 9133 C 850.079 -1.73273 -0.731982 0
M  V30 9134 O 849.437 -1.01634 -1.50134 0
M  V30 9135 C 849.485 -3.45922 1.01834 0
M  V30 9136 O 848.589 -4.12223 0.120801 0
M  V30 9137 H 847.93 -0.610729 0.260588 0
M  V30 9138 H 850.46 -1.5472 1.33876 0
M  V30 9139 H 850.47 -3.96471 0.963074 0
M  V30 9140 H 849.145 -3.61278 2.06037 0
M  V30 9141 H 847.722 -3.72177 0.232153 0
M  V30 9142 N 849.908 -0.773975 -1.37286 0
M  V30 9143 C 851.154 -0.339809 -1.99933 0
M  V30 9144 C 851.487 1.0815 -1.61299 0
M  V30 9145 O 850.762 1.74442 -0.860252 0
M  V30 9146 C 851.045 -0.485919 -3.56806 0
M  V30 9147 C 850.898 -1.9498 -4.05343 0
M  V30 9148 C 852.217 0.108461 -4.39966 0
M  V30 9149 H 849.336 -0.124944 -0.726332 0
M  V30 9150 H 851.978 -0.977433 -1.6293 0
M  V30 9151 H 850.128 0.0569023 -3.88458 0
M  V30 9152 H 851.8 -2.5525 -3.84246 0
M  V30 9153 H 850.043 -2.45784 -3.57453 0
M  V30 9154 H 850.714 -2.00308 -5.14374 0
M  V30 9155 H 853.19 -0.354722 -4.14585 0
M  V30 9156 H 852.066 -0.0238926 -5.48895 0
M  V30 9157 H 852.327 1.19901 -4.25531 0
M  V30 9158 N 851.386 1.48609 -0.524698 0
M  V30 9159 C 852.316 2.32366 0.229837 0
M  V30 9160 C 853.297 1.41759 0.940129 0
M  V30 9161 O 854.482 1.7065 0.926936 0
M  V30 9162 C 851.612 3.22835 1.28043 0
M  V30 9163 C 850.566 4.22424 0.688603 0
M  V30 9164 C 849.892 5.0199 1.84146 0
M  V30 9165 C 851.192 5.21217 -0.336176 0
M  V30 9166 H 852.886 2.95698 -0.469339 0
M  V30 9167 H 850.432 1.42197 -0.227156 0
M  V30 9168 H 852.385 3.80253 1.8162 0
M  V30 9169 H 851.109 2.57492 2.00912 0
M  V30 9170 H 849.768 3.66185 0.174402 0
M  V30 9171 H 849.416 4.33076 2.5584 0
M  V30 9172 H 849.116 5.69392 1.45142 0
M  V30 9173 H 850.64 5.62259 2.38111 0
M  V30 9174 H 852.054 5.7319 0.112307 0
M  V30 9175 H 850.451 5.96642 -0.643324 0
M  V30 9176 H 851.521 4.68676 -1.24381 0
M  V30 9177 N 852.864 0.259585 1.55447 0
M  V30 9178 C 854.28 -0.094961 1.59317 0
M  V30 9179 C 854.48 -1.55884 1.2768 0
M  V30 9180 O 853.536 -2.30528 1.0302 0
M  V30 9181 C 854.849 0.265669 2.99524 0
M  V30 9182 C 856.397 0.211007 3.12288 0
M  V30 9183 C 856.872 0.545851 4.54736 0
M  V30 9184 N 858.363 0.496823 4.60528 0
M  V30 9185 C 859.098 0.728909 5.68748 0
M  V30 9186 N 858.594 1.02479 6.85179 0
M  V30 9187 N 860.387 0.658756 5.58226 0
M  V30 9188 H 852.538 1.2141 1.7428 0
M  V30 9189 H 854.801 0.489404 0.811904 0
M  V30 9190 H 854.507 1.28316 3.27457 0
M  V30 9191 H 854.381 -0.401089 3.75061 0
M  V30 9192 H 856.768 -0.797172 2.84129 0
M  V30 9193 H 856.849 0.911799 2.38998 0
M  V30 9194 H 856.493 1.55164 4.83618 0
M  V30 9195 H 856.423 -0.17656 5.26304 0
M  V30 9196 H 858.914 0.277376 3.76881 0
M  V30 9197 H 859.227 1.18897 7.63599 0
M  V30 9198 H 857.572 1.0624 6.86832 0
M  V30 9199 H 860.763 0.427553 4.66143 0
M  V30 9200 H 860.936 0.84302 6.42493 0
M  V30 9201 N 854.342 -1.57594 -0.0133615 0
M  V30 9202 C 855.305 -2.06534 -0.993799 0
M  V30 9203 C 856.305 -0.972267 -1.28077 0
M  V30 9204 O 857.495 -1.23537 -1.22818 0
M  V30 9205 C 854.627 -2.49554 -2.3224 0
M  V30 9206 H 855.82 -2.94419 -0.570741 0
M  V30 9207 H 853.373 -1.54113 -0.260546 0
M  V30 9208 H 854.108 -1.64872 -2.79263 0
M  V30 9209 H 853.893 -3.29371 -2.12737 0
M  V30 9210 H 855.383 -2.8779 -3.026 0
M  V30 9211 N 855.82 0.285905 -1.54985 0
M  V30 9212 C 856.75 1.35752 -1.89983 0
M  V30 9213 C 857.731 1.52163 -0.760295 0
M  V30 9214 O 858.916 1.65421 -1.01733 0
M  V30 9215 C 856.046 2.71925 -2.16042 0
M  V30 9216 C 855 2.70261 -3.31878 0
M  V30 9217 C 854.326 4.09864 -3.43388 0
M  V30 9218 C 855.626 2.30667 -4.68604 0
M  V30 9219 H 857.32 1.06709 -2.79738 0
M  V30 9220 H 854.866 0.511884 -1.34595 0
M  V30 9221 H 856.819 3.46992 -2.39113 0
M  V30 9222 H 855.543 3.02523 -1.23074 0
M  V30 9223 H 854.202 1.97651 -3.08755 0
M  V30 9224 H 853.85 4.37664 -2.47909 0
M  V30 9225 H 853.55 4.09648 -4.21262 0
M  V30 9226 H 855.074 4.86689 -3.68736 0
M  V30 9227 H 856.488 2.95453 -4.91305 0
M  V30 9228 H 854.885 2.41637 -5.49301 0
M  V30 9229 H 855.955 1.25793 -4.68299 0
M  V30 9230 N 857.298 1.47698 0.54982 0
M  V30 9231 C 858.714 1.3338 0.876468 0
M  V30 9232 C 858.914 0.329837 1.98782 0
M  V30 9233 O 857.97 -0.256022 2.51199 0
M  V30 9234 C 859.283 2.72903 1.26272 0
M  V30 9235 C 860.831 2.81243 1.37373 0
M  V30 9236 C 861.306 4.21423 1.79351 0
M  V30 9237 N 862.797 4.24 1.86489 0
M  V30 9238 C 863.532 5.29386 2.20313 0
M  V30 9239 N 863.028 6.4507 2.527 0
M  V30 9240 N 864.821 5.16768 2.2115 0
M  V30 9241 H 856.972 2.11603 -0.183781 0
M  V30 9242 H 859.235 0.947798 -0.0195601 0
M  V30 9243 H 858.941 3.47836 0.519889 0
M  V30 9244 H 858.815 3.05151 2.21727 0
M  V30 9245 H 861.202 2.06577 2.10737 0
M  V30 9246 H 861.283 2.52639 0.400882 0
M  V30 9247 H 860.927 4.96597 1.06555 0
M  V30 9248 H 860.857 4.47456 2.77652 0
M  V30 9249 H 863.348 3.40547 1.63817 0
M  V30 9250 H 863.661 7.21236 2.77557 0
M  V30 9251 H 862.006 6.48377 2.50263 0
M  V30 9252 H 865.197 4.25416 1.95293 0
M  V30 9253 H 865.37 5.99004 2.4718 0
M  V30 9254 N 858.776 -0.797141 1.35954 0
M  V30 9255 C 859.706 -1.92387 1.32323 0
M  V30 9256 C 860.687 -1.68967 0.196007 0
M  V30 9257 O 861.872 -1.90193 0.39245 0
M  V30 9258 C 859.002 -3.29286 1.10398 0
M  V30 9259 C 857.956 -3.67212 2.19862 0
M  V30 9260 C 857.282 -5.02377 1.8309 0
M  V30 9261 C 858.582 -3.76602 3.61896 0
M  V30 9262 H 860.276 -1.95683 2.26602 0
M  V30 9263 H 857.822 -0.94007 1.09081 0
M  V30 9264 H 859.775 -4.07721 1.06495 0
M  V30 9265 H 858.499 -3.26358 0.125668 0
M  V30 9266 H 857.158 -2.91069 2.22878 0
M  V30 9267 H 856.806 -4.95961 0.838527 0
M  V30 9268 H 856.506 -5.28722 2.56372 0
M  V30 9269 H 858.03 -5.8324 1.80729 0
M  V30 9270 H 859.444 -4.45246 3.6115 0
M  V30 9271 H 857.841 -4.14425 4.34018 0
M  V30 9272 H 858.911 -2.77906 3.97361 0
M  V30 9273 N 860.254 -1.20106 -1.0204 0
M  V30 9274 C 861.184 -0.970301 -2.12385 0
M  V30 9275 C 862.165 0.099378 -1.69809 0
M  V30 9276 O 863.35 -0.057365 -1.94115 0
M  V30 9277 C 860.48 -0.517431 -3.43424 0
M  V30 9278 C 859.434 -1.52992 -3.99722 0
M  V30 9279 C 858.76 -0.933817 -5.26483 0
M  V30 9280 C 860.06 -2.91257 -4.33551 0
M  V30 9281 H 861.754 -1.89316 -2.31948 0
M  V30 9282 H 859.3 -0.911655 -1.11467 0
M  V30 9283 H 861.253 -0.343243 -4.2 0
M  V30 9284 H 859.977 0.441049 -3.23608 0
M  V30 9285 H 858.636 -1.6914 -3.2525 0
M  V30 9286 H 858.284 0.0324763 -5.0299 0
M  V30 9287 H 857.984 -1.60999 -5.65113 0
M  V30 9288 H 859.508 -0.770614 -6.05718 0
M  V30 9289 H 860.922 -2.78642 -5.0103 0
M  V30 9290 H 859.319 -3.55745 -4.83286 0
M  V30 9291 H 860.389 -3.43269 -3.42483 0
M  V30 9292 N 861.732 1.21287 -1.00634 0
M  V30 9293 C 863.148 1.42467 -0.719389 0
M  V30 9294 C 863.348 1.88767 0.704927 0
M  V30 9295 O 862.404 2.05004 1.47409 0
M  V30 9296 C 863.717 2.455 -1.73639 0
M  V30 9297 C 865.265 2.59281 -1.75335 0
M  V30 9298 C 865.74 3.65547 -2.75934 0
M  V30 9299 N 867.231 3.73019 -2.74611 0
M  V30 9300 C 867.966 4.54873 -3.4911 0
M  V30 9301 N 867.462 5.40614 -4.33253 0
M  V30 9302 N 869.255 4.49309 -3.37754 0
M  V30 9303 H 861.406 0.895454 -1.92602 0
M  V30 9304 H 863.669 0.455491 -0.831404 0
M  V30 9305 H 863.375 2.18455 -2.75627 0
M  V30 9306 H 863.249 3.44325 -1.54014 0
M  V30 9307 H 865.636 2.85661 -0.740377 0
M  V30 9308 H 865.717 1.60685 -1.99032 0
M  V30 9309 H 865.361 3.39911 -3.77389 0
M  V30 9310 H 865.291 4.63741 -2.49503 0
M  V30 9311 H 867.782 3.11766 -2.13565 0
M  V30 9312 H 868.095 6.0013 -4.86892 0
M  V30 9313 H 866.44 5.40151 -4.37335 0
M  V30 9314 H 869.631 3.81357 -2.71449 0
M  V30 9315 H 869.804 5.12867 -3.9607 0
M  V30 9316 N 863.21 0.781244 1.36873 0
M  V30 9317 C 864.459 0.34652 1.98701 0
M  V30 9318 C 864.772 -1.08555 1.62712 0
M  V30 9319 O 865.978 -1.62213 2.17713 0
M  V30 9320 C 864.434 0.568611 3.5538 0
M  V30 9321 C 864.042 2.01156 4.003 0
M  V30 9322 C 865.786 0.197983 4.24038 0
M  V30 9323 C 863.693 2.18074 5.49725 0
M  V30 9324 H 862.623 0.125821 0.743428 0
M  V30 9325 H 865.274 0.961721 1.56279 0
M  V30 9326 H 863.656 -0.116185 3.9583 0
M  V30 9327 H 864.83 2.73209 3.71071 0
M  V30 9328 H 863.145 2.33967 3.44454 0
M  V30 9329 H 865.742 0.302778 5.33842 0
M  V30 9330 H 866.085 -0.852927 4.07469 0
M  V30 9331 H 866.618 0.835696 3.88923 0
M  V30 9332 H 863.357 3.21519 5.71232 0
M  V30 9333 H 862.877 1.50517 5.80607 0
M  V30 9334 H 864.556 1.98393 6.15832 0
M  V30 9335 N 864.689 -1.48329 0.532571 0
M  V30 9336 C 865.936 -2.025 -0.000582356 0
M  V30 9337 C 866.264 -1.40942 -1.34036 0
M  V30 9338 O 865.519 -0.545545 -1.87942 0
M  V30 9339 C 865.818 -3.57 -0.168943 0
M  V30 9340 C 865.484 -4.37357 1.0968 0
M  V30 9341 C 864.146 -4.59033 1.44369 0
M  V30 9342 C 866.498 -4.83882 1.93669 0
M  V30 9343 C 863.826 -5.24481 2.62939 0
M  V30 9344 C 866.178 -5.50637 3.11419 0
M  V30 9345 C 864.842 -5.70551 3.46451 0
M  V30 9346 H 864.112 -0.741 -0.000213099 0
M  V30 9347 H 866.759 -1.78282 0.699117 0
M  V30 9348 H 865.064 -3.80072 -0.951429 0
M  V30 9349 H 866.761 -3.9654 -0.596422 0
M  V30 9350 H 863.351 -4.20748 0.816655 0
M  V30 9351 H 867.535 -4.66936 1.6818 0
M  V30 9352 H 862.791 -5.38096 2.9028 0
M  V30 9353 H 866.965 -5.85655 3.76803 0
M  V30 9354 H 864.592 -6.21037 4.38425 0
M  V30 9355 N 866.167 -0.267825 -1.55308 0
M  V30 9356 C 867.114 0.6228 -2.22238 0
M  V30 9357 C 868.084 1.15536 -1.19334 0
M  V30 9358 O 869.269 1.206 -1.47852 0
M  V30 9359 C 866.409 1.80447 -2.94164 0
M  V30 9360 C 865.522 1.30646 -4.11771 0
M  V30 9361 C 864.657 2.44935 -4.7136 0
M  V30 9362 C 863.696 1.92099 -5.81175 0
M  V30 9363 N 862.833 2.99834 -6.34857 0
M  V30 9364 H 867.673 0.0453874 -2.97965 0
M  V30 9365 H 865.21 0.0106371 -1.47096 0
M  V30 9366 H 867.168 2.49896 -3.34078 0
M  V30 9367 H 865.798 2.35403 -2.20874 0
M  V30 9368 H 864.85 0.505314 -3.77029 0
M  V30 9369 H 866.162 0.879409 -4.90987 0
M  V30 9370 H 865.316 3.2239 -5.13955 0
M  V30 9371 H 864.055 2.90951 -3.91406 0
M  V30 9372 H 863.06 1.13122 -5.38037 0
M  V30 9373 H 864.285 1.47027 -6.62993 0
M  V30 9374 H 862.231 3.45246 -5.578 0
M  V30 9375 H 862.148 2.61524 -7.09324 0
M  V30 9376 H 863.416 3.77286 -6.82111 0
M  V30 9377 N 867.645 1.57599 0.00500368 0
M  V30 9378 C 868.891 1.90631 0.691919 0
M  V30 9379 C 869.224 0.868443 1.737 0
M  V30 9380 O 868.499 -0.113482 1.94169 0
M  V30 9381 C 868.782 3.34255 1.33961 0
M  V30 9382 C 868.635 4.48755 0.306413 0
M  V30 9383 C 869.954 3.77211 2.26715 0
M  V30 9384 H 867.073 0.693279 0.250066 0
M  V30 9385 H 869.715 1.89946 -0.0452634 0
M  V30 9386 H 867.865 3.3497 1.96793 0
M  V30 9387 H 869.537 4.60176 -0.321841 0
M  V30 9388 H 867.78 4.32203 -0.371852 0
M  V30 9389 H 868.451 5.46193 0.798554 0
M  V30 9390 H 870.927 3.78017 1.73904 0
M  V30 9391 H 869.803 4.78466 2.69002 0
M  V30 9392 H 870.064 3.10801 3.14413 0
M  V30 9393 N 869.123 -0.277682 1.55134 0
M  V30 9394 C 870.351 -1.02826 1.7954 0
M  V30 9395 C 870.766 -1.80105 0.566373 0
M  V30 9396 O 870.123 -1.76491 -0.464448 0
M  V30 9397 C 870.174 -1.99053 3.01762 0
M  V30 9398 O 869.895 -1.24906 4.19917 0
M  V30 9399 C 871.396 -2.85961 3.38735 0
M  V30 9400 H 868.616 -0.303958 0.598206 0
M  V30 9401 H 871.16 -0.309884 2.02138 0
M  V30 9402 H 869.315 -2.66359 2.81303 0
M  V30 9403 H 869.729 -1.89725 4.88983 0
M  V30 9404 H 871.203 -3.49286 4.27438 0
M  V30 9405 H 871.68 -3.55486 2.57928 0
M  V30 9406 H 872.286 -2.24152 3.61436 0
M  V30 9407 N 870.601 -1.47988 -0.541979 0
M  V30 9408 C 871.548 -1.61615 -1.6477 0
M  V30 9409 C 872.518 -0.458602 -1.59644 0
M  V30 9410 O 873.703 -0.680585 -1.78249 0
M  V30 9411 C 870.843 -1.65066 -3.03063 0
M  V30 9412 C 869.956 -2.91845 -3.18513 0
M  V30 9413 C 869.091 -2.86534 -4.47294 0
M  V30 9414 C 868.13 -4.0807 -4.5623 0
M  V30 9415 N 867.267 -4.00905 -5.76385 0
M  V30 9416 H 872.107 -2.56046 -1.52461 0
M  V30 9417 H 869.644 -1.26989 -0.742449 0
M  V30 9418 H 871.602 -1.65049 -3.83164 0
M  V30 9419 H 870.232 -0.74136 -3.14171 0
M  V30 9420 H 869.284 -3.01661 -2.31743 0
M  V30 9421 H 870.596 -3.81804 -3.20978 0
M  V30 9422 H 869.75 -2.84851 -5.35672 0
M  V30 9423 H 868.489 -1.94283 -4.47332 0
M  V30 9424 H 867.494 -4.10041 -3.66261 0
M  V30 9425 H 868.719 -5.01465 -4.5794 0
M  V30 9426 H 866.665 -3.11467 -5.77342 0
M  V30 9427 H 866.582 -4.84557 -5.80293 0
M  V30 9428 H 867.85 -4.03263 -6.67083 0
M  V30 9429 N 872.079 0.78992 -1.36375 0
M  V30 9430 C 873.309 1.57644 -1.33536 0
M  V30 9431 C 873.717 1.89007 0.0855075 0
M  V30 9432 O 873.06 1.50547 1.05267 0
M  V30 9433 C 873.122 2.92424 -2.09113 0
M  V30 9434 C 872.786 2.83793 -3.58205 0
M  V30 9435 C 873.783 2.56072 -4.52464 0
M  V30 9436 C 871.468 3.02386 -4.01084 0
M  V30 9437 C 873.462 2.47044 -5.87578 0
M  V30 9438 C 871.149 2.9298 -5.36289 0
M  V30 9439 C 872.147 2.65347 -6.29349 0
M  V30 9440 O 871.835 2.55935 -7.62071 0
M  V30 9441 H 871.567 0.495639 -0.459694 0
M  V30 9442 H 874.121 0.988354 -1.80058 0
M  V30 9443 H 872.351 3.53282 -1.57254 0
M  V30 9444 H 874.04 3.53693 -1.99139 0
M  V30 9445 H 874.806 2.4141 -4.2065 0
M  V30 9446 H 870.685 3.229 -3.29023 0
M  V30 9447 H 874.229 2.25396 -6.60184 0
M  V30 9448 H 870.126 3.07204 -5.67711 0
M  V30 9449 H 870.894 2.7142 -7.72187 0
M  V30 9450 N 873.557 1.20646 1.01402 0
M  V30 9451 C 874.803 1.02974 1.75408 0
M  V30 9452 C 875.158 -0.433294 1.87458 0
M  V30 9453 O 874.451 -1.31741 1.39122 0
M  V30 9454 C 874.645 1.64991 3.17037 0
M  V30 9455 C 874.474 3.17174 3.18796 0
M  V30 9456 C 873.244 3.86165 3.2589 0
M  V30 9457 C 875.442 4.14369 3.04636 0
M  V30 9458 N 873.424 5.25614 3.1718 0
M  V30 9459 C 874.795 5.4051 3.03724 0
M  V30 9460 C 876.85 4.05534 2.88872 0
M  V30 9461 C 875.553 6.58836 2.88664 0
M  V30 9462 C 877.579 5.23486 2.75166 0
M  V30 9463 C 876.941 6.48535 2.74922 0
M  V30 9464 H 873.04 0.431068 0.65246 0
M  V30 9465 H 875.624 1.52858 1.20593 0
M  V30 9466 H 873.795 1.17688 3.70141 0
M  V30 9467 H 875.527 1.40612 3.79487 0
M  V30 9468 H 872.282 3.37038 3.32719 0
M  V30 9469 H 872.706 5.98625 3.16192 0
M  V30 9470 H 877.348 3.09661 2.87872 0
M  V30 9471 H 875.066 7.5488 2.88413 0
M  V30 9472 H 878.652 5.18464 2.63982 0
M  V30 9473 H 877.532 7.3827 2.64439 0
M  V30 9474 N 875.035 -1.20752 1.01276 0
M  V30 9475 C 876.26 -1.94547 0.718769 0
M  V30 9476 C 876.685 -1.7404 -0.713563 0
M  V30 9477 O 876.043 -1.03221 -1.49047 0
M  V30 9478 C 876.091 -3.44823 1.05497 0
M  V30 9479 O 875.195 -4.12072 0.164516 0
M  V30 9480 H 874.536 -0.607931 0.267051 0
M  V30 9481 H 877.066 -1.53292 1.35509 0
M  V30 9482 H 877.076 -3.95427 1.00507 0
M  V30 9483 H 875.751 -3.59072 2.09858 0
M  V30 9484 H 874.328 -3.71909 0.271615 0
M  V30 9485 N 876.513 -0.788492 -1.36457 0
M  V30 9486 C 877.738 -0.371224 -2.04051 0
M  V30 9487 C 878.163 1.004 -1.59064 0
M  V30 9488 O 877.521 1.64663 -0.758679 0
M  V30 9489 C 877.569 -0.442275 -3.57877 0
M  V30 9490 O 876.673 0.55113 -4.08701 0
M  V30 9491 H 876.014 -0.157808 -0.644975 0
M  V30 9492 H 878.544 -1.06935 -1.74431 0
M  V30 9493 H 878.554 -0.305548 -4.06854 0
M  V30 9494 H 877.229 -1.44547 -3.89973 0
M  V30 9495 H 875.806 0.37614 -3.70998 0
M  V30 9496 N 877.991 1.48044 -0.54043 0
M  V30 9497 C 878.921 2.32597 0.205178 0
M  V30 9498 C 879.902 1.42748 0.925041 0
M  V30 9499 O 881.087 1.71624 0.908784 0
M  V30 9500 C 878.217 3.24175 1.24612 0
M  V30 9501 C 877.171 4.23131 0.64376 0
M  V30 9502 C 876.497 5.03915 1.78812 0
M  V30 9503 C 877.797 5.20831 -0.39144 0
M  V30 9504 H 879.491 2.95184 -0.500676 0
M  V30 9505 H 877.037 1.41948 -0.242225 0
M  V30 9506 H 878.99 3.82158 1.77576 0
M  V30 9507 H 877.714 2.59608 1.98169 0
M  V30 9508 H 876.373 3.66349 0.135554 0
M  V30 9509 H 876.021 4.35765 2.51232 0
M  V30 9510 H 875.721 5.709 1.39094 0
M  V30 9511 H 877.245 5.64753 2.32134 0
M  V30 9512 H 878.659 5.73277 0.0515064 0
M  V30 9513 H 877.056 5.95926 -0.706569 0
M  V30 9514 H 878.126 4.6733 -1.29345 0
M  V30 9515 N 879.47 0.276058 1.55163 0
M  V30 9516 C 880.886 -0.0780579 1.59409 0
M  V30 9517 C 881.086 -1.54521 1.29327 0
M  V30 9518 O 880.142 -2.29422 1.05459 0
M  V30 9519 C 881.455 0.297422 2.99225 0
M  V30 9520 C 883.003 0.244117 3.12047 0
M  V30 9521 C 883.478 0.594051 4.54131 0
M  V30 9522 N 884.969 0.54564 4.59975 0
M  V30 9523 C 885.704 0.789192 5.67943 0
M  V30 9524 N 885.2 1.09741 6.84053 0
M  V30 9525 N 886.993 0.717926 5.57496 0
M  V30 9526 H 879.144 1.23251 1.72982 0
M  V30 9527 H 881.407 0.497988 0.806667 0
M  V30 9528 H 881.113 1.31782 3.26077 0
M  V30 9529 H 880.987 -0.361286 3.75466 0
M  V30 9530 H 883.374 -0.766992 2.84958 0
M  V30 9531 H 883.455 0.937097 2.38017 0
M  V30 9532 H 883.099 1.60285 4.81945 0
M  V30 9533 H 883.029 -0.120728 5.26462 0
M  V30 9534 H 885.52 0.317334 3.76565 0
M  V30 9535 H 885.833 1.26989 7.62295 0
M  V30 9536 H 884.178 1.13519 6.85666 0
M  V30 9537 H 887.369 0.47697 4.65664 0
M  V30 9538 H 887.542 0.911118 6.41563 0
M  V30 9539 N 880.948 -1.576 0.00335426 0
M  V30 9540 C 881.896 -2.09759 -1.00517 0
M  V30 9541 C 882.89 -1.01833 -1.35375 0
M  V30 9542 O 884.096 -1.20294 -1.339 0
M  V30 9543 H 880.471 -0.669821 -0.341825 0
M  V30 9544 H 882.442 -2.93478 -0.539718 0
M  V30 9545 C 881.191 -2.6189 -2.28711 0
M  V30 9546 H 880.514 -3.44571 -2.02758 0
M  V30 9547 H 881.954 -3.02061 -2.97548 0
M  V30 9548 C 880.413 -1.53455 -2.99922 0
M  V30 9549 O 880.943 -0.919402 -3.91037 0
M  V30 9550 N 879.149 -1.2612 -2.61806 0
M  V30 9551 H 878.696 -1.76329 -1.87792 0
M  V30 9552 H 878.654 -0.537872 -3.09765 0
M  V30 9553 N 882.426 0.269451 -1.5528 0
M  V30 9554 C 883.356 1.33729 -1.91413 0
M  V30 9555 C 884.337 1.51348 -0.776391 0
M  V30 9556 O 885.522 1.64332 -1.03482 0
M  V30 9557 C 882.652 2.69618 -2.18914 0
M  V30 9558 C 881.606 2.66725 -3.34726 0
M  V30 9559 C 880.932 4.06199 -3.47716 0
M  V30 9560 C 882.232 2.25684 -4.71025 0
M  V30 9561 H 883.926 1.03736 -2.80854 0
M  V30 9562 H 881.472 0.497579 -1.3513 0
M  V30 9563 H 883.425 3.44436 -2.42779 0
M  V30 9564 H 882.149 3.01201 -1.26275 0
M  V30 9565 H 880.808 1.94365 -3.10834 0
M  V30 9566 H 880.456 4.3501 -2.52537 0
M  V30 9567 H 880.156 4.05157 -4.25583 0
M  V30 9568 H 881.68 4.8275 -3.73877 0
M  V30 9569 H 883.094 2.90225 -4.94411 0
M  V30 9570 H 881.491 2.35797 -5.51833 0
M  V30 9571 H 882.561 1.20819 -4.69607 0
M  V30 9572 N 883.904 1.48273 0.534124 0
M  V30 9573 C 885.15 1.56311 1.29208 0
M  V30 9574 C 885.483 0.234481 1.92779 0
M  V30 9575 O 884.758 -0.759143 1.79073 0
M  V30 9576 C 885.041 2.69831 2.3846 0
M  V30 9577 C 884.894 4.12385 1.79608 0
M  V30 9578 C 886.213 2.79133 3.40254 0
M  V30 9579 H 883.332 0.56899 0.468422 0
M  V30 9580 H 885.974 1.80429 0.595438 0
M  V30 9581 H 884.124 2.49397 2.97881 0
M  V30 9582 H 885.796 4.44246 1.24269 0
M  V30 9583 H 884.039 4.19579 1.10162 0
M  V30 9584 H 884.71 4.87629 2.58693 0
M  V30 9585 H 887.186 2.97632 2.90783 0
M  V30 9586 H 886.062 3.60298 4.14097 0
M  V30 9587 H 886.323 1.87122 4.00547 0
M  V30 9588 N 885.382 -0.782676 1.36792 0
M  V30 9589 C 886.628 -1.54311 1.3159 0
M  V30 9590 C 886.961 -1.93928 -0.102696 0
M  V30 9591 O 886.236 -1.63233 -1.05761 0
M  V30 9592 C 886.519 -2.81561 2.24489 0
M  V30 9593 C 886.372 -2.48268 3.75078 0
M  V30 9594 C 887.691 -3.83428 2.16034 0
M  V30 9595 H 884.81 -0.559828 0.479335 0
M  V30 9596 H 887.452 -0.898717 1.67401 0
M  V30 9597 H 885.602 -3.36549 1.9408 0
M  V30 9598 H 887.274 -1.99279 4.16036 0
M  V30 9599 H 885.517 -1.81116 3.94182 0
M  V30 9600 H 886.188 -3.39183 4.35499 0
M  V30 9601 H 888.664 -3.37905 2.42815 0
M  V30 9602 H 887.54 -4.70204 2.83194 0
M  V30 9603 H 887.801 -4.26887 1.14976 0
M  V30 9604 N 886.86 -1.21182 -1.00761 0
M  V30 9605 C 888.085 -1.05411 -1.78615 0
M  V30 9606 C 888.51 0.391837 -1.83973 0
M  V30 9607 O 887.868 1.28256 -1.28141 0
M  V30 9608 C 887.916 -1.65285 -3.20489 0
M  V30 9609 O 887.02 -0.896558 -4.02536 0
M  V30 9610 H 886.361 -0.37116 -0.550578 0
M  V30 9611 H 888.891 -1.60669 -1.26676 0
M  V30 9612 H 888.901 -1.69397 -3.71172 0
M  V30 9613 H 887.576 -2.70514 -3.15904 0
M  V30 9614 H 886.153 -0.930335 -3.61108 0
M  V30 9615 N 888.338 1.20213 -1.01915 0
M  V30 9616 C 889.268 2.25336 -0.612023 0
M  V30 9617 C 890.249 1.65933 0.374186 0
M  V30 9618 O 891.434 1.92464 0.259053 0
M  V30 9619 C 888.564 3.47267 0.047904 0
M  V30 9620 C 887.518 4.1928 -0.859557 0
M  V30 9621 C 886.844 5.3466 -0.0652655 0
M  V30 9622 C 888.144 4.75143 -2.1688 0
M  V30 9623 H 889.838 2.59645 -1.49079 0
M  V30 9624 H 887.384 1.24808 -0.718263 0
M  V30 9625 H 889.337 4.19991 0.344294 0
M  V30 9626 H 888.061 3.12129 0.961404 0
M  V30 9627 H 886.72 3.48425 -1.13999 0
M  V30 9628 H 886.368 4.95767 0.849964 0
M  V30 9629 H 886.068 5.83772 -0.669618 0
M  V30 9630 H 887.592 6.10187 0.224612 0
M  V30 9631 H 889.006 5.39672 -1.9346 0
M  V30 9632 H 887.403 5.34702 -2.72422 0
M  V30 9633 H 888.473 3.93744 -2.83008 0
M  V30 9634 N 889.816 0.795718 1.36037 0
M  V30 9635 C 890.746 0.212803 2.32528 0
M  V30 9636 C 891.727 -0.655716 1.56953 0
M  V30 9637 O 892.912 -0.588238 1.85077 0
M  V30 9638 C 890.042 -0.648189 3.41198 0
M  V30 9639 C 888.996 0.120948 4.27829 0
M  V30 9640 C 888.322 -0.861044 5.27722 0
M  V30 9641 C 889.622 1.31375 5.05508 0
M  V30 9642 H 891.316 1.01893 2.81528 0
M  V30 9643 H 888.862 0.491422 1.35355 0
M  V30 9644 H 890.815 -1.06597 4.07695 0
M  V30 9645 H 889.539 -1.48709 2.9078 0
M  V30 9646 H 888.198 0.519777 3.62897 0
M  V30 9647 H 887.846 -1.69515 4.73575 0
M  V30 9648 H 887.546 -0.350808 5.86552 0
M  V30 9649 H 889.07 -1.27726 5.97092 0
M  V30 9650 H 890.484 0.971406 5.6501 0
M  V30 9651 H 888.881 1.75772 5.73781 0
M  V30 9652 H 889.951 2.10593 4.36782 0
M  V30 9653 N 891.294 -1.47756 0.548274 0
M  V30 9654 C 892.242 -2.3158 -0.217584 0
M  V30 9655 C 893.236 -1.42372 -0.917957 0
M  V30 9656 O 894.442 -1.59184 -0.840259 0
M  V30 9657 H 890.817 -0.74671 -0.0890388 0
M  V30 9658 H 892.788 -2.94032 0.508719 0
M  V30 9659 C 891.537 -3.24834 -1.24008 0
M  V30 9660 H 890.86 -3.93435 -0.710572 0
M  V30 9661 H 892.3 -3.86336 -1.74701 0
M  V30 9662 C 890.759 -2.47724 -2.2833 0
M  V30 9663 O 891.289 -2.21522 -3.35098 0
M  V30 9664 N 889.495 -2.08891 -2.02022 0
M  V30 9665 H 889.042 -2.30401 -1.1521 0
M  V30 9666 H 889 -1.57613 -2.7204 0
M  V30 9667 N 892.772 -0.284283 -1.55015 0
M  V30 9668 C 893.997 0.335799 -2.04664 0
M  V30 9669 C 894.422 1.47999 -1.16094 0
M  V30 9670 O 893.78 1.8058 -0.161454 0
M  V30 9671 C 893.828 0.785615 -3.51938 0
M  V30 9672 O 892.932 1.89202 -3.66437 0
M  V30 9673 H 892.273 0.0680233 -0.660506 0
M  V30 9674 H 894.803 -0.421255 -2.00216 0
M  V30 9675 H 894.813 1.07892 -3.93476 0
M  V30 9676 H 893.488 -0.0514675 -4.15868 0
M  V30 9677 H 892.065 1.60055 -3.36804 0
M  V30 9678 N 894.251 1.57596 -0.0117121 0
M  V30 9679 C 895.184 2.04624 1.01016 0
M  V30 9680 C 896.162 0.938437 1.32786 0
M  V30 9681 O 897.346 1.20746 1.44751 0
M  V30 9682 C 894.473 2.45369 2.33477 0
M  V30 9683 C 893.519 3.66998 2.17289 0
M  V30 9684 S 894.352 5.14412 1.48795 0
M  V30 9685 C 895.508 5.58438 2.82662 0
M  V30 9686 H 895.741 2.9098 0.60977 0
M  V30 9687 H 893.274 1.53106 0.199494 0
M  V30 9688 H 895.232 2.69511 3.09635 0
M  V30 9689 H 893.893 1.59391 2.70653 0
M  V30 9690 H 893.086 3.93297 3.15172 0
M  V30 9691 H 892.688 3.42918 1.49275 0
M  V30 9692 H 894.98 5.61614 3.78941 0
M  V30 9693 H 895.923 6.58224 2.61049 0
M  V30 9694 H 896.331 4.86033 2.8711 0
M  V30 9695 N 895.729 -0.261212 1.5542 0
M  V30 9696 C 896.676 -1.32315 1.89107 0
M  V30 9697 C 897.646 -1.48517 0.743767 0
M  V30 9698 O 898.831 -1.62733 0.996123 0
M  V30 9699 C 895.971 -2.67626 2.17877 0
M  V30 9700 C 895.084 -2.59549 3.45338 0
M  V30 9701 C 894.219 -3.87118 3.63748 0
M  V30 9702 C 893.258 -3.736 4.8486 0
M  V30 9703 N 892.395 -4.93029 4.99867 0
M  V30 9704 H 897.235 -1.02886 2.79675 0
M  V30 9705 H 894.772 -0.496812 1.38456 0
M  V30 9706 H 896.73 -3.4637 2.32559 0
M  V30 9707 H 895.36 -2.95232 1.30529 0
M  V30 9708 H 894.412 -1.72452 3.39064 0
M  V30 9709 H 895.724 -2.45465 4.34222 0
M  V30 9710 H 894.878 -4.74305 3.78312 0
M  V30 9711 H 893.617 -4.04084 2.73071 0
M  V30 9712 H 892.622 -2.84797 4.70288 0
M  V30 9713 H 893.847 -3.58143 5.76984 0
M  V30 9714 H 891.793 -5.10383 4.12123 0
M  V30 9715 H 891.71 -4.81521 5.82815 0
M  V30 9716 H 892.978 -5.81754 5.18828 0
M  V30 9717 N 897.207 -1.48554 -0.526253 0
M  V30 9718 C 898.432 -1.60686 -1.31129 0
M  V30 9719 C 898.857 -0.268701 -1.86171 0
M  V30 9720 O 898.215 0.760167 -1.64594 0
M  V30 9721 C 898.263 -2.65938 -2.43536 0
M  V30 9722 O 897.367 -2.23356 -3.46678 0
M  V30 9723 H 896.708 -0.538691 -0.388211 0
M  V30 9724 H 899.238 -1.94567 -0.632826 0
M  V30 9725 H 899.248 -2.87327 -2.89668 0
M  V30 9726 H 897.923 -3.63085 -2.02835 0
M  V30 9727 H 896.5 -2.12196 -3.06639 0
M  V30 9728 N 898.685 0.775411 -1.37205 0
M  V30 9729 C 899.934 1.52909 -1.31536 0
M  V30 9730 C 900.247 1.9535 0.0989374 0
M  V30 9731 O 901.453 2.70072 0.278079 0
M  V30 9732 C 899.909 2.761 -2.30861 0
M  V30 9733 C 899.517 2.40773 -3.77799 0
M  V30 9734 C 901.261 3.54052 -2.34195 0
M  V30 9735 C 899.168 3.60444 -4.68865 0
M  V30 9736 H 898.098 0.574061 -0.488845 0
M  V30 9737 H 900.749 0.849642 -1.62645 0
M  V30 9738 H 899.131 3.45916 -1.92764 0
M  V30 9739 H 900.305 1.78764 -4.24712 0
M  V30 9740 H 898.62 1.76004 -3.77375 0
M  V30 9741 H 901.217 4.42992 -2.99437 0
M  V30 9742 H 901.56 3.93649 -1.35449 0
M  V30 9743 H 902.093 2.91229 -2.7098 0
M  V30 9744 H 898.832 3.25932 -5.68725 0
M  V30 9745 H 898.352 4.21571 -4.26659 0
M  V30 9746 H 900.031 4.27302 -4.85821 0
M  V30 9747 N 900.163 1.21714 1.00117 0
M  V30 9748 C 901.412 1.03087 1.73367 0
M  V30 9749 C 901.725 -0.435532 1.90689 0
M  V30 9750 O 902.931 -0.741291 2.61184 0
M  V30 9751 C 901.387 1.79593 3.11888 0
M  V30 9752 C 900.995 3.30428 3.02525 0
M  V30 9753 C 902.739 1.69386 3.89241 0
M  V30 9754 C 900.646 3.99408 4.3615 0
M  V30 9755 H 899.576 0.382117 0.650002 0
M  V30 9756 H 902.227 1.45486 1.11831 0
M  V30 9757 H 900.609 1.29988 3.74058 0
M  V30 9758 H 901.783 3.87364 2.49571 0
M  V30 9759 H 900.098 3.4122 2.38659 0
M  V30 9760 H 902.695 2.18251 4.8813 0
M  V30 9761 H 903.038 0.652773 4.1115 0
M  V30 9762 H 903.571 2.16489 3.33733 0
M  V30 9763 H 900.31 5.03735 4.19442 0
M  V30 9764 H 899.83 3.47261 4.8905 0
M  V30 9765 H 901.509 4.04537 5.04934 0
M  V30 9766 N 901.641 -1.19671 1.02551 0
M  V30 9767 C 902.866 -1.93774 0.739363 0
M  V30 9768 C 903.291 -1.74787 -0.695064 0
M  V30 9769 O 902.649 -1.04796 -1.47944 0
M  V30 9770 C 902.697 -3.43684 1.09149 0
M  V30 9771 O 901.801 -4.11874 0.208213 0
M  V30 9772 H 901.142 -0.605064 0.273484 0
M  V30 9773 H 903.672 -1.51846 1.37128 0
M  V30 9774 H 903.682 -3.94339 1.04695 0
M  V30 9775 H 902.357 -3.56826 2.13654 0
M  V30 9776 H 900.934 -3.716 0.311045 0
M  V30 9777 N 903.119 -0.802921 -1.35613 0
M  V30 9778 C 904.049 -0.225131 -2.32412 0
M  V30 9779 C 905.03 0.647383 -1.57299 0
M  V30 9780 O 906.215 0.578414 -1.85386 0
M  V30 9781 C 903.345 0.630085 -3.41537 0
M  V30 9782 C 902.299 -0.143635 -4.27759 0
M  V30 9783 C 901.625 0.833046 -5.28171 0
M  V30 9784 C 902.925 -1.34054 -5.04804 0
M  V30 9785 H 904.619 -1.03385 -2.80984 0
M  V30 9786 H 902.165 -0.498593 -1.35093 0
M  V30 9787 H 904.118 1.04433 -4.08254 0
M  V30 9788 H 902.842 1.47165 -2.91565 0
M  V30 9789 H 901.501 -0.539015 -3.62616 0
M  V30 9790 H 901.149 1.67001 -4.74468 0
M  V30 9791 H 900.849 0.319697 -5.8673 0
M  V30 9792 H 902.373 1.24558 -5.97761 0
M  V30 9793 H 903.787 -1.00136 -5.64487 0
M  V30 9794 H 902.184 -1.78812 -5.72841 0
M  V30 9795 H 903.254 -2.12906 -4.35659 0
M  V30 9796 N 904.597 1.47463 -0.556102 0
M  V30 9797 C 905.527 2.32801 0.180497 0
M  V30 9798 C 906.508 1.43721 0.909848 0
M  V30 9799 O 907.693 1.72578 0.89053 0
M  V30 9800 C 904.823 3.25478 1.21167 0
M  V30 9801 C 903.777 4.2379 0.598846 0
M  V30 9802 C 903.103 5.05783 1.73457 0
M  V30 9803 C 904.403 5.20387 -0.446659 0
M  V30 9804 H 906.097 2.94636 -0.531956 0
M  V30 9805 H 903.643 1.41683 -0.257267 0
M  V30 9806 H 905.596 3.8402 1.73513 0
M  V30 9807 H 904.32 2.61695 1.95405 0
M  V30 9808 H 902.979 3.66472 0.0966897 0
M  V30 9809 H 902.627 4.38405 2.46596 0
M  V30 9810 H 902.327 5.72343 1.33031 0
M  V30 9811 H 903.851 5.67183 2.26131 0
M  V30 9812 H 905.265 5.73299 -0.00930019 0
M  V30 9813 H 903.662 5.95143 -0.769735 0
M  V30 9814 H 904.732 4.65932 -1.34295 0
M  V30 9815 N 906.075 0.2925 1.54862 0
M  V30 9816 C 907.322 -0.319263 1.99967 0
M  V30 9817 C 907.65 -1.54547 1.18092 0
M  V30 9818 O 906.905 -1.94186 0.242969 0
M  V30 9819 C 907.204 -0.728674 3.49893 0
M  V30 9820 C 906.87 0.394836 4.49168 0
M  V30 9821 C 905.532 0.703289 4.76033 0
M  V30 9822 C 907.884 1.15103 5.08331 0
M  V30 9823 C 905.212 1.77121 5.59325 0
M  V30 9824 C 907.564 2.20881 5.92785 0
M  V30 9825 C 906.228 2.52342 6.17964 0
M  V30 9826 H 905.498 -0.116827 0.731733 0
M  V30 9827 H 908.145 0.40983 1.87063 0
M  V30 9828 H 906.45 -1.53772 3.60363 0
M  V30 9829 H 908.147 -1.21305 3.82212 0
M  V30 9830 H 904.737 0.144319 4.28357 0
M  V30 9831 H 908.921 0.92599 4.87585 0
M  V30 9832 H 904.177 2.01978 5.77074 0
M  V30 9833 H 908.351 2.79939 6.37657 0
M  V30 9834 H 905.978 3.35225 6.82296 0
M  V30 9835 N 907.553 -1.57587 0.0200696 0
M  V30 9836 C 908.483 -2.12702 -0.963333 0
M  V30 9837 C 909.464 -1.04094 -1.34531 0
M  V30 9838 O 910.649 -1.31881 -1.42552 0
M  V30 9839 C 907.779 -2.64673 -2.24868 0
M  V30 9840 C 906.733 -3.77987 -2.00772 0
M  V30 9841 C 906.059 -4.16351 -3.35494 0
M  V30 9842 C 907.359 -5.0444 -1.35416 0
M  V30 9843 H 909.053 -2.95121 -0.504363 0
M  V30 9844 H 906.599 -1.41966 -0.24116 0
M  V30 9845 H 908.552 -3.01862 -2.94036 0
M  V30 9846 H 907.276 -1.79403 -2.72914 0
M  V30 9847 H 905.935 -3.41223 -1.34025 0
M  V30 9848 H 905.583 -3.28075 -3.81282 0
M  V30 9849 H 905.283 -4.92705 -3.20181 0
M  V30 9850 H 906.807 -4.56115 -4.05945 0
M  V30 9851 H 908.221 -5.39273 -1.94571 0
M  V30 9852 H 906.618 -5.85732 -1.30529 0
M  V30 9853 H 907.688 -4.83803 -0.325923 0
M  V30 9854 N 909.032 0.252966 -1.55557 0
M  V30 9855 C 909.962 1.31691 -1.9282 0
M  V30 9856 C 910.943 1.50516 -0.7924 0
M  V30 9857 O 912.128 1.63225 -1.05219 0
M  V30 9858 C 909.258 2.67281 -2.21762 0
M  V30 9859 C 908.212 2.6316 -3.37536 0
M  V30 9860 C 907.538 4.02488 -3.52005 0
M  V30 9861 C 908.838 2.20675 -4.73392 0
M  V30 9862 H 910.532 1.00751 -2.81939 0
M  V30 9863 H 908.078 0.483219 -1.3565 0
M  V30 9864 H 910.031 3.41842 -2.46419 0
M  V30 9865 H 908.755 2.99845 -1.29463 0
M  V30 9866 H 907.414 1.91057 -3.12878 0
M  V30 9867 H 907.062 4.32307 -2.57137 0
M  V30 9868 H 906.762 4.00621 -4.29857 0
M  V30 9869 H 908.286 4.78758 -3.78977 0
M  V30 9870 H 909.7 2.84965 -4.97461 0
M  V30 9871 H 908.097 2.29931 -5.54303 0
M  V30 9872 H 909.167 1.15831 -4.70862 0
M  V30 9873 N 910.51 1.48831 0.518367 0
M  V30 9874 C 911.757 1.57439 1.27355 0
M  V30 9875 C 912.085 0.25338 1.92843 0
M  V30 9876 O 911.34 -0.757323 1.80452 0
M  V30 9877 C 911.639 2.67003 2.3758 0
M  V30 9878 C 911.305 4.09069 1.89667 0
M  V30 9879 C 909.967 4.47733 1.76319 0
M  V30 9880 C 912.319 4.98052 1.53603 0
M  V30 9881 C 909.647 5.73173 1.25258 0
M  V30 9882 C 911.999 6.23992 1.04001 0
M  V30 9883 C 910.663 6.61503 0.892784 0
M  V30 9884 H 909.933 0.57611 0.466023 0
M  V30 9885 H 912.58 1.82595 0.577166 0
M  V30 9886 H 910.885 2.35751 3.12936 0
M  V30 9887 H 912.582 2.70876 2.95681 0
M  V30 9888 H 909.172 3.7854 2.01011 0
M  V30 9889 H 913.356 4.68849 1.62771 0
M  V30 9890 H 908.612 6.0095 1.12557 0
M  V30 9891 H 912.786 6.92331 0.751706 0
M  V30 9892 H 910.413 7.58587 0.494939 0
M  V30 9893 N 911.988 -0.768124 1.37614 0
M  V30 9894 C 912.918 -1.89537 1.36374 0
M  V30 9895 C 913.899 -1.68513 0.231803 0
M  V30 9896 O 915.084 -1.89318 0.432705 0
M  V30 9897 C 912.214 -3.26871 1.17358 0
M  V30 9898 C 911.168 -3.62466 2.27602 0
M  V30 9899 C 910.494 -4.9838 1.93705 0
M  V30 9900 C 911.794 -3.68841 3.69802 0
M  V30 9901 H 913.488 -1.90832 2.30702 0
M  V30 9902 H 911.034 -0.91672 1.11051 0
M  V30 9903 H 912.987 -4.05371 1.15119 0
M  V30 9904 H 911.711 -3.26018 0.194865 0
M  V30 9905 H 910.37 -2.86276 2.29002 0
M  V30 9906 H 910.018 -4.94071 0.943539 0
M  V30 9907 H 909.718 -5.23165 2.6753 0
M  V30 9908 H 911.242 -5.79276 1.93059 0
M  V30 9909 H 912.656 -4.37485 3.70513 0
M  V30 9910 H 911.053 -4.05126 4.42711 0
M  V30 9911 H 912.123 -2.69415 4.03167 0
M  V30 9912 N 913.466 -1.22244 -0.994698 0
M  V30 9913 C 914.713 -1.04591 -1.73398 0
M  V30 9914 C 915.041 0.419223 -1.89928 0
M  V30 9915 O 914.296 1.32714 -1.43824 0
M  V30 9916 C 914.595 -1.70014 -3.14372 0
M  V30 9917 C 914.261 -3.19903 -3.17762 0
M  V30 9918 C 912.923 -3.60803 -3.18394 0
M  V30 9919 C 915.275 -4.15851 -3.14194 0
M  V30 9920 C 912.603 -4.96135 -3.13157 0
M  V30 9921 C 914.955 -5.51157 -3.10498 0
M  V30 9922 C 913.619 -5.91439 -3.09445 0
M  V30 9923 H 912.889 -0.382725 -0.63451 0
M  V30 9924 H 915.536 -1.51981 -1.16508 0
M  V30 9925 H 913.841 -1.14945 -3.7456 0
M  V30 9926 H 915.538 -1.53848 -3.70313 0
M  V30 9927 H 912.128 -2.87336 -3.18019 0
M  V30 9928 H 916.312 -3.85272 -3.12857 0
M  V30 9929 H 911.568 -5.26578 -3.10685 0
M  V30 9930 H 915.742 -6.2523 -3.06692 0
M  V30 9931 H 913.369 -6.96271 -3.05141 0
M  V30 9932 N 914.944 1.19125 -1.03184 0
M  V30 9933 C 916.193 1.8821 -0.725264 0
M  V30 9934 C 916.506 1.80674 0.749411 0
M  V30 9935 O 917.712 2.45037 1.16915 0
M  V30 9936 C 916.168 3.37607 -1.24697 0
M  V30 9937 C 915.776 3.53693 -2.74964 0
M  V30 9938 C 917.52 4.12149 -1.01652 0
M  V30 9939 C 915.427 4.97001 -3.20538 0
M  V30 9940 H 914.357 0.704916 -0.267599 0
M  V30 9941 H 917.008 1.34663 -1.24652 0
M  V30 9942 H 915.39 3.90569 -0.653614 0
M  V30 9943 H 916.564 3.11046 -3.39981 0
M  V30 9944 H 914.879 2.92544 -2.96322 0
M  V30 9945 H 917.476 5.17837 -1.33226 0
M  V30 9946 H 917.819 4.16274 0.0465712 0
M  V30 9947 H 918.352 3.65334 -1.57403 0
M  V30 9948 H 915.091 4.9804 -4.26189 0
M  V30 9949 H 914.611 5.40398 -2.60251 0
M  V30 9950 H 916.29 5.65669 -3.14049 0
M  V30 9951 N 916.422 0.810101 1.35185 0
M  V30 9952 C 917.668 0.392698 1.98962 0
M  V30 9953 C 918.001 -1.03835 1.64109 0
M  V30 9954 O 917.276 -1.721 0.9062 0
M  V30 9955 C 917.559 0.580349 3.55393 0
M  V30 9956 C 917.412 2.05658 4.00031 0
M  V30 9957 C 918.731 0.00822618 4.40099 0
M  V30 9958 H 915.85 0.144157 0.722764 0
M  V30 9959 H 918.492 1.02029 1.60281 0
M  V30 9960 H 916.642 0.0461106 3.88473 0
M  V30 9961 H 918.314 2.65348 3.77344 0
M  V30 9962 H 916.557 2.55174 3.50811 0
M  V30 9963 H 917.228 2.13875 5.08883 0
M  V30 9964 H 919.704 0.464517 4.13499 0
M  V30 9965 H 918.58 0.169414 5.48638 0
M  V30 9966 H 918.841 -1.08576 4.2856 0
M  V30 9967 N 917.9 -1.47166 0.563914 0
M  V30 9968 C 919.146 -2.02756 0.0424338 0
M  V30 9969 C 919.479 -1.43662 -1.3067 0
M  V30 9970 O 918.754 -0.594676 -1.85186 0
M  V30 9971 C 919.037 -3.60074 -0.0434793 0
M  V30 9972 C 918.89 -4.29587 1.33323 0
M  V30 9973 C 920.209 -4.336 -0.753568 0
M  V30 9974 H 917.328 -0.736806 0.0168946 0
M  V30 9975 H 919.97 -1.75521 0.727496 0
M  V30 9976 H 918.12 -3.83409 -0.626906 0
M  V30 9977 H 919.792 -4.17573 1.96037 0
M  V30 9978 H 918.035 -3.8968 1.9061 0
M  V30 9979 H 918.706 -5.38218 1.22576 0
M  V30 9980 H 921.182 -4.15299 -0.258126 0
M  V30 9981 H 920.058 -5.43291 -0.782659 0
M  V30 9982 H 920.319 -4.03302 -1.81108 0
M  V30 9983 N 919.378 -0.300708 -1.54705 0
M  V30 9984 C 920.625 0.308654 -2.00134 0
M  V30 9985 C 920.953 1.53918 -1.1891 0
M  V30 9986 O 920.208 1.94054 -0.253263 0
M  V30 9987 C 920.507 0.710108 -3.50275 0
M  V30 9988 C 920.173 -0.418651 -4.48952 0
M  V30 9989 C 918.835 -0.728524 -4.75653 0
M  V30 9990 C 921.187 -1.17797 -5.07714 0
M  V30 9991 C 918.515 -1.80085 -5.58378 0
M  V30 9992 C 920.867 -2.24022 -5.91606 0
M  V30 9993 C 919.531 -2.55616 -6.16617 0
M  V30 9994 H 918.801 0.112945 -0.732342 0
M  V30 9995 H 921.448 -0.419744 -1.86843 0
M  V30 9996 H 919.753 1.51859 -3.61173 0
M  V30 9997 H 921.45 1.19277 -3.8285 0
M  V30 9998 H 918.04 -0.167034 -4.28274 0
M  V30 9999 H 922.224 -0.951835 -4.87087 0
M  V30 10000 H 917.48 -2.05036 -5.75995 0
M  V30 10001 H 921.654 -2.83317 -6.36164 0
M  V30 10002 H 919.281 -3.38839 -6.80509 0
M  V30 10003 N 920.856 1.57574 -0.0284266 0
M  V30 10004 C 921.819 2.09096 0.938691 0
M  V30 10005 C 922.819 1.00588 1.25454 0
M  V30 10006 O 924.009 1.2675 1.19499 0
M  V30 10007 C 921.141 2.55624 2.25542 0
M  V30 10008 H 922.334 2.95829 0.49248 0
M  V30 10009 H 919.887 1.5475 0.219594 0
M  V30 10010 H 920.622 1.72218 2.74793 0
M  V30 10011 H 920.407 3.34896 2.03929 0
M  V30 10012 H 921.897 2.95712 2.94863 0
M  V30 10013 N 922.334 -0.244713 1.55689 0
M  V30 10014 C 923.264 -1.30667 1.93516 0
M  V30 10015 C 924.245 -1.50094 0.800371 0
M  V30 10016 O 925.43 -1.62665 1.06083 0
M  V30 10017 C 922.56 -2.66101 2.23176 0
M  V30 10018 C 921.514 -2.61366 3.38927 0
M  V30 10019 C 920.84 -4.00616 3.54134 0
M  V30 10020 C 922.14 -2.18161 4.74555 0
M  V30 10021 H 923.834 -0.992546 2.82469 0
M  V30 10022 H 921.38 -0.476018 1.35905 0
M  V30 10023 H 923.333 -3.4053 2.48228 0
M  V30 10024 H 922.057 -2.99154 1.31051 0
M  V30 10025 H 920.716 -1.89395 3.13887 0
M  V30 10026 H 920.364 -4.30938 2.59426 0
M  V30 10027 H 920.064 -3.98335 4.31975 0
M  V30 10028 H 921.588 -4.76741 3.8151 0
M  V30 10029 H 923.002 -2.82323 4.98965 0
M  V30 10030 H 921.399 -2.26988 5.55515 0
M  V30 10031 H 922.469 -1.13333 4.7147 0
M  V30 10032 N 923.813 -1.49104 -0.510467 0
M  V30 10033 C 924.743 -1.67981 -1.62187 0
M  V30 10034 C 925.724 -0.528529 -1.6168 0
M  V30 10035 O 926.909 -0.763305 -1.7857 0
M  V30 10036 C 924.039 -1.73755 -3.0071 0
M  V30 10037 C 922.993 -2.88579 -3.1608 0
M  V30 10038 C 922.319 -2.79457 -4.5586 0
M  V30 10039 C 923.619 -4.29638 -2.97 0
M  V30 10040 H 925.313 -2.61029 -1.46643 0
M  V30 10041 H 922.859 -1.25615 -0.704042 0
M  V30 10042 H 924.812 -1.85548 -3.78352 0
M  V30 10043 H 923.536 -0.772996 -3.17321 0
M  V30 10044 H 922.195 -2.76372 -2.40861 0
M  V30 10045 H 921.843 -1.80929 -4.69333 0
M  V30 10046 H 921.543 -3.56518 -4.67086 0
M  V30 10047 H 923.067 -2.93245 -5.35574 0
M  V30 10048 H 924.481 -4.42575 -3.64418 0
M  V30 10049 H 922.878 -5.07847 -3.19704 0
M  V30 10050 H 923.948 -4.44741 -1.93219 0
M  V30 10051 N 925.291 0.760815 -1.38019 0
M  V30 10052 C 926.539 1.51673 -1.33566 0
M  V30 10053 C 926.86 1.94852 0.076024 0
M  V30 10054 O 926.13 1.67112 1.02227 0
M  V30 10055 H 924.71 0.562581 -0.491438 0
M  V30 10056 H 927.372 0.904832 -1.72623 0
M  V30 10057 H 926.468 2.41102 -1.98182 0
M  V30 10058 N 926.769 1.22769 0.988202 0
M  V30 10059 C 927.702 0.945196 2.07705 0
M  V30 10060 C 928.68 -0.11363 1.62202 0
M  V30 10061 O 929.864 0.0189624 1.8849 0
M  V30 10062 C 926.991 0.422474 3.36055 0
M  V30 10063 C 926.037 1.4667 4.00487 0
M  V30 10064 S 926.87 3.04158 4.40736 0
M  V30 10065 C 928.026 2.53536 5.7225 0
M  V30 10066 H 928.259 1.86723 2.31348 0
M  V30 10067 H 925.792 1.05928 1.12333 0
M  V30 10068 H 927.75 0.12748 4.10302 0
M  V30 10069 H 926.411 -0.478515 3.10434 0
M  V30 10070 H 925.604 1.05093 4.92921 0
M  V30 10071 H 925.206 1.71064 3.32585 0
M  V30 10072 H 927.498 1.95069 6.4881 0
M  V30 10073 H 928.441 3.44479 6.1866 0
M  V30 10074 H 928.849 1.94658 5.29876 0
M  V30 10075 N 928.247 -1.18576 1.03814 0
M  V30 10076 C 929.179 -2.21607 0.585055 0
M  V30 10077 C 930.192 -1.59125 -0.343963 0
M  V30 10078 O 931.381 -1.77959 -0.138882 0
M  V30 10079 C 928.481 -3.38495 -0.165602 0
M  V30 10080 C 927.654 -4.30557 0.770662 0
M  V30 10081 C 926.713 -5.26161 0.0637534 0
M  V30 10082 O 925.739 -5.64961 0.693359 0
M  V30 10083 N 926.941 -5.67882 -1.20377 0
M  V30 10084 H 929.706 -2.61104 1.47121 0
M  V30 10085 H 927.267 -1.33336 0.918316 0
M  V30 10086 H 929.259 -3.99474 -0.648292 0
M  V30 10087 H 927.829 -2.97711 -0.953268 0
M  V30 10088 H 927.049 -3.67221 1.43326 0
M  V30 10089 H 928.337 -4.88969 1.40667 0
M  V30 10090 H 927.735 -5.38409 -1.73586 0
M  V30 10091 H 926.292 -6.31069 -1.63079 0
M  V30 10092 N 929.725 -0.817259 -1.34754 0
M  V30 10093 C 930.655 -0.249769 -2.3216 0
M  V30 10094 C 931.636 0.630663 -1.57977 0
M  V30 10095 O 932.821 0.558719 -1.85989 0
M  V30 10096 C 929.951 0.593825 -3.42186 0
M  V30 10097 C 928.905 -0.188997 -4.27583 0
M  V30 10098 C 928.231 0.776979 -5.29025 0
M  V30 10099 C 929.531 -1.39401 -5.03354 0
M  V30 10100 H 931.225 -1.06359 -2.79872 0
M  V30 10101 H 928.771 -0.512894 -1.34556 0
M  V30 10102 H 930.724 1.00097 -4.09339 0
M  V30 10103 H 929.448 1.44064 -2.93109 0
M  V30 10104 H 928.107 -0.577445 -3.62024 0
M  V30 10105 H 927.755 1.61959 -4.76212 0
M  V30 10106 H 927.455 0.257448 -5.87036 0
M  V30 10107 H 928.979 1.18211 -5.99048 0
M  V30 10108 H 930.393 -1.06117 -5.63393 0
M  V30 10109 H 928.79 -1.84878 -5.70912 0
M  V30 10110 H 929.86 -2.17515 -4.33377 0
M  V30 10111 N 931.203 1.46865 -0.571711 0
M  V30 10112 C 932.45 2.0243 -0.0531071 0
M  V30 10113 C 932.778 1.44446 1.30252 0
M  V30 10114 O 932.033 0.595182 1.8643 0
M  V30 10115 C 932.332 3.57323 0.0742311 0
M  V30 10116 C 931.998 4.34295 -1.21237 0
M  V30 10117 C 930.66 4.55044 -1.56489 0
M  V30 10118 C 933.012 4.78577 -2.0643 0
M  V30 10119 C 930.34 5.17325 -2.76752 0
M  V30 10120 C 932.692 5.42186 -3.25909 0
M  V30 10121 C 931.356 5.61165 -3.61456 0
M  V30 10122 H 930.626 0.740745 -0.0194333 0
M  V30 10123 H 933.273 1.76366 -0.74614 0
M  V30 10124 H 931.578 3.82461 0.850325 0
M  V30 10125 H 933.275 3.97982 0.491077 0
M  V30 10126 H 929.865 4.18435 -0.927922 0
M  V30 10127 H 934.049 4.62313 -1.80501 0
M  V30 10128 H 929.305 5.30211 -3.04444 0
M  V30 10129 H 933.479 5.75459 -3.92198 0
M  V30 10130 H 931.106 6.09195 -4.54737 0
M  V30 10131 N 932.681 0.308908 1.54543 0
M  V30 10132 C 933.929 -0.297447 1.99899 0
M  V30 10133 C 934.25 -1.53799 1.19878 0
M  V30 10134 O 933.52 -1.93639 0.29678 0
M  V30 10135 H 932.1 -0.112897 0.738419 0
M  V30 10136 H 934.762 0.422067 1.90275 0
M  V30 10137 H 933.858 -0.564016 3.06961 0
M  V30 10138 N 934.159 -1.57557 0.0367827 0
M  V30 10139 C 935.407 -1.91735 -0.63892 0
M  V30 10140 C 935.728 -0.914515 -1.72226 0
M  V30 10141 O 934.998 0.0428248 -1.95853 0
M  V30 10142 H 933.578 -0.707738 -0.23899 0
M  V30 10143 H 936.24 -1.94708 0.0863931 0
M  V30 10144 H 935.336 -2.92568 -1.08676 0
M  V30 10145 N 935.637 0.236453 -1.55816 0
M  V30 10146 C 936.569 1.31602 -1.87653 0
M  V30 10147 C 937.582 1.43782 -0.763584 0
M  V30 10148 O 938.771 1.44945 -1.04178 0
M  V30 10149 C 935.871 2.69342 -2.05689 0
M  V30 10150 C 935.044 2.79298 -3.36617 0
M  V30 10151 C 934.103 3.97952 -3.44268 0
M  V30 10152 O 933.129 3.86989 -4.17406 0
M  V30 10153 N 934.331 5.11594 -2.74321 0
M  V30 10154 H 937.096 1.04623 -2.80845 0
M  V30 10155 H 934.657 0.426534 -1.5618 0
M  V30 10156 H 936.649 3.47074 -2.08138 0
M  V30 10157 H 935.219 2.88984 -1.19192 0
M  V30 10158 H 934.439 1.8816 -3.46395 0
M  V30 10159 H 935.727 2.82908 -4.22895 0
M  V30 10160 H 935.125 5.23394 -2.14651 0
M  V30 10161 H 933.682 5.87422 -2.8245 0
M  V30 10162 N 937.115 1.49373 0.502552 0
M  V30 10163 C 938.362 1.58781 1.25678 0
M  V30 10164 C 938.69 0.273819 1.92563 0
M  V30 10165 O 937.945 -0.738141 1.81246 0
M  V30 10166 C 938.244 2.69508 2.34735 0
M  V30 10167 C 937.91 4.11057 1.85318 0
M  V30 10168 C 936.572 4.49578 1.7156 0
M  V30 10169 C 938.924 4.99653 1.48312 0
M  V30 10170 C 936.252 5.74469 1.19172 0
M  V30 10171 C 938.604 6.2506 0.97377 0
M  V30 10172 C 937.268 6.62412 0.822573 0
M  V30 10173 H 936.538 0.581021 0.459887 0
M  V30 10174 H 939.185 1.83197 0.557767 0
M  V30 10175 H 937.49 2.39057 3.10418 0
M  V30 10176 H 939.187 2.73997 2.92791 0
M  V30 10177 H 935.777 3.80651 1.96985 0
M  V30 10178 H 939.961 4.70549 1.57789 0
M  V30 10179 H 935.217 6.0211 1.06176 0
M  V30 10180 H 939.391 6.93089 0.678233 0
M  V30 10181 H 937.018 7.59069 0.414453 0
M  V30 10182 N 938.594 -0.753485 1.38421 0
M  V30 10183 C 939.542 -1.8886 1.35774 0
M  V30 10184 C 940.536 -1.67639 0.243608 0
M  V30 10185 O 941.742 -1.75206 0.412649 0
M  V30 10186 H 938.117 -0.62137 0.42356 0
M  V30 10187 H 940.088 -1.88209 2.3156 0
M  V30 10188 C 938.837 -3.26344 1.19979 0
M  V30 10189 H 938.16 -3.43259 2.04971 0
M  V30 10190 H 939.6 -4.06015 1.22181 0
M  V30 10191 C 938.059 -3.36771 -0.0932867 0
M  V30 10192 O 938.589 -3.8718 -1.07027 0
M  V30 10193 N 936.795 -2.90212 -0.150154 0
M  V30 10194 H 936.342 -2.4938 0.645562 0
M  V30 10195 H 936.3 -2.97569 -1.0149 0
M  V30 10196 N 940.072 -1.23292 -0.981677 0
M  V30 10197 C 941.319 -1.06424 -1.72279 0
M  V30 10198 C 941.647 0.399055 -1.90362 0
M  V30 10199 O 940.902 1.31181 -1.45224 0
M  V30 10200 C 941.201 -1.73339 -3.12551 0
M  V30 10201 C 940.867 -3.23256 -3.14351 0
M  V30 10202 C 939.529 -3.64159 -3.14549 0
M  V30 10203 C 941.881 -4.1916 -3.09765 0
M  V30 10204 C 939.209 -4.99428 -3.07877 0
M  V30 10205 C 941.561 -5.54419 -3.04635 0
M  V30 10206 C 940.225 -5.94688 -3.03154 0
M  V30 10207 H 939.495 -0.389434 -0.630415 0
M  V30 10208 H 942.142 -1.53208 -1.1489 0
M  V30 10209 H 940.447 -1.18911 -3.73319 0
M  V30 10210 H 942.144 -1.57767 -3.68661 0
M  V30 10211 H 938.734 -2.90693 -3.14953 0
M  V30 10212 H 942.918 -3.88569 -3.08753 0
M  V30 10213 H 938.174 -5.29844 -3.05083 0
M  V30 10214 H 942.348 -6.28448 -3.00043 0
M  V30 10215 H 939.975 -6.99468 -2.97739 0
M  V30 10216 N 941.55 1.18024 -1.04442 0
M  V30 10217 C 942.482 2.21294 -0.596799 0
M  V30 10218 C 943.495 1.59305 0.33552 0
M  V30 10219 O 944.684 1.7803 0.129443 0
M  V30 10220 C 941.784 3.38578 0.147648 0
M  V30 10221 C 940.957 4.30143 -0.793484 0
M  V30 10222 C 940.016 5.2612 -0.0916561 0
M  V30 10223 O 939.042 5.64586 -0.72331 0
M  V30 10224 N 940.244 5.68512 1.17364 0
M  V30 10225 H 943.009 2.6032 -1.48504 0
M  V30 10226 H 940.57 1.32847 -0.925374 0
M  V30 10227 H 942.562 3.99812 0.627098 0
M  V30 10228 H 941.132 2.98212 0.937466 0
M  V30 10229 H 940.352 3.66456 -1.45272 0
M  V30 10230 H 941.64 4.88216 -1.43258 0
M  V30 10231 H 941.038 5.39322 1.70729 0
M  V30 10232 H 939.595 6.31925 1.5973 0
M  V30 10233 N 943.028 0.824394 1.34319 0
M  V30 10234 C 944.305 0.335692 1.92698 0
M  V30 10235 C 944.685 -1.17715 1.75232 0
M  V30 10236 O 944.033 -1.98493 1.13194 0
M  V30 10237 C 944.243 0.766647 3.40475 0
M  V30 10238 C 945.591 0.766323 4.17627 0
M  V30 10239 O 946.615 0.709321 3.49066 0
M  V30 10240 O 945.474 0.840856 5.39992 0
M  V30 10241 H 942.568 0.0919996 0.821867 0
M  V30 10242 H 945.114 0.909282 1.43283 0
M  V30 10243 H 943.886 1.80859 3.46995 0
M  V30 10244 H 943.509 0.168833 3.97241 0
M  V30 10245 N 944.506 -1.46559 0.579492 0
M  V30 10246 C 945.416 -2.34066 -0.15816 0
M  V30 10247 C 946.432 -1.49556 -0.88932 0
M  V30 10248 O 947.608 -1.82434 -0.853226 0
M  V30 10249 C 944.673 -3.26683 -1.161 0
M  V30 10250 C 943.734 -4.27092 -0.434855 0
M  V30 10251 C 942.967 -5.15283 -1.38992 0
M  V30 10252 O 943.19 -5.06345 -2.62623 0
M  V30 10253 O 942.124 -5.95099 -0.902253 0
M  V30 10254 H 945.95 -2.98488 0.560234 0
M  V30 10255 H 943.535 -1.45482 0.339918 0
M  V30 10256 H 945.417 -3.8383 -1.73932 0
M  V30 10257 H 944.092 -2.64862 -1.86091 0
M  V30 10258 H 942.999 -3.73641 0.185224 0
M  V30 10259 H 944.332 -4.9169 0.224031 0
M  V30 10260 N 945.984 -0.3171 -1.54377 0
M  V30 10261 C 947.212 0.289558 -2.04864 0
M  V30 10262 C 947.627 1.46284 -1.19359 0
M  V30 10263 O 946.984 1.81135 -0.222795 0
M  V30 10264 C 947.035 0.730273 -3.54047 0
M  V30 10265 O 946.756 -0.396325 -4.36304 0
M  V30 10266 C 948.257 1.40041 -4.20599 0
M  V30 10267 H 945.477 0.0605836 -0.668259 0
M  V30 10268 H 948.021 -0.461411 -1.99227 0
M  V30 10269 H 946.176 1.43123 -3.59992 0
M  V30 10270 H 946.59 -0.0502901 -5.24476 0
M  V30 10271 H 948.064 1.65979 -5.26455 0
M  V30 10272 H 948.541 2.34565 -3.71316 0
M  V30 10273 H 949.147 0.742206 -4.18774 0
M  V30 10274 N 947.462 1.57535 -0.0451378 0
M  V30 10275 C 948.873 1.80116 0.491426 0
M  V30 10276 C 949.224 0.956846 1.71286 0
M  V30 10277 O 948.349 0.17173 2.15718 0
M  V30 10278 C 948.944 3.26674 0.898315 0
M  V30 10279 C 947.503 3.50194 1.37989 0
M  V30 10280 C 946.65 2.75054 0.352202 0
M  V30 10281 H 949.601 1.56368 -0.271065 0
M  V30 10282 H 949.622 3.37263 1.76164 0
M  V30 10283 H 949.134 3.88099 0.009141 0
M  V30 10284 H 947.235 2.94041 2.28846 0
M  V30 10285 H 947.348 4.58909 1.37622 0
M  V30 10286 H 945.712 2.4101 0.823784 0
M  V30 10287 H 946.495 3.39203 -0.528782 0
M  V30 10288 N 948.94 -0.228186 1.55939 0
M  V30 10289 C 950.168 -0.970618 1.8272 0
M  V30 10290 C 950.583 -1.78212 0.623385 0
M  V30 10291 O 949.94 -1.77879 -0.408063 0
M  V30 10292 C 949.991 -1.89352 3.07942 0
M  V30 10293 O 949.712 -1.11483 4.23678 0
M  V30 10294 C 951.213 -2.75039 3.47661 0
M  V30 10295 H 948.433 -0.284772 0.607574 0
M  V30 10296 H 950.977 -0.245419 2.03022 0
M  V30 10297 H 949.132 -2.57275 2.89635 0
M  V30 10298 H 949.546 -1.74073 4.94772 0
M  V30 10299 H 951.02 -3.35511 4.38334 0
M  V30 10300 H 951.497 -3.471 2.69106 0
M  V30 10301 H 952.103 -2.1254 3.68384 0
M  V30 10302 N 950.418 -1.49637 -0.494624 0
M  V30 10303 C 951.646 -1.63164 -1.2722 0
M  V30 10304 C 952.061 -0.305552 -1.86311 0
M  V30 10305 O 951.418 0.709758 -1.68133 0
M  V30 10306 C 951.469 -2.70524 -2.39789 0
M  V30 10307 O 951.19 -3.97991 -1.83126 0
M  V30 10308 C 952.691 -2.94814 -3.31058 0
M  V30 10309 H 949.911 -0.54912 -0.385627 0
M  V30 10310 H 952.455 -1.95711 -0.593081 0
M  V30 10311 H 950.61 -2.40738 -3.03519 0
M  V30 10312 H 951.024 -4.57179 -2.57075 0
M  V30 10313 H 952.498 -3.73653 -4.06309 0
M  V30 10314 H 952.975 -2.04974 -3.88436 0
M  V30 10315 H 953.581 -3.26042 -2.73088 0
M  V30 10316 N 951.896 0.746133 -1.38819 0
M  V30 10317 C 952.844 1.88137 -1.36774 0
M  V30 10318 C 953.838 1.67508 -0.252495 0
M  V30 10319 O 955.044 1.74985 -0.421935 0
M  V30 10320 H 951.419 0.619116 -0.426849 0
M  V30 10321 H 953.39 1.86978 -2.32555 0
M  V30 10322 C 952.139 3.25703 -1.21708 0
M  V30 10323 H 951.462 3.42168 -2.06788 0
M  V30 10324 H 952.902 4.05361 -1.24332 0
M  V30 10325 C 951.361 3.36816 0.0754257 0
M  V30 10326 O 951.891 3.87742 1.04972 0
M  V30 10327 N 950.097 2.90287 0.134761 0
M  V30 10328 H 949.644 2.49034 -0.658779 0
M  V30 10329 H 949.602 2.98103 0.999109 0
M  V30 10330 N 953.375 1.23811 0.975125 0
M  V30 10331 C 954.622 1.07336 1.71712 0
M  V30 10332 C 954.95 -0.388954 1.90571 0
M  V30 10333 O 954.205 -1.30409 1.45918 0
M  V30 10334 C 954.504 1.74994 3.11628 0
M  V30 10335 C 954.17 3.24918 3.12632 0
M  V30 10336 C 952.832 3.65822 3.12614 0
M  V30 10337 C 955.184 4.20797 3.07538 0
M  V30 10338 C 952.512 5.01054 3.05224 0
M  V30 10339 C 954.864 5.56027 3.0169 0
M  V30 10340 C 953.528 5.96287 2.99996 0
M  V30 10341 H 952.798 0.392771 0.62834 0
M  V30 10342 H 955.445 1.53815 1.14075 0
M  V30 10343 H 953.75 1.20889 3.72684 0
M  V30 10344 H 955.447 1.5972 3.67819 0
M  V30 10345 H 952.037 2.92359 3.13407 0
M  V30 10346 H 956.221 3.902 3.06688 0
M  V30 10347 H 951.477 5.31454 3.02268 0
M  V30 10348 H 955.651 6.3003 2.96706 0
M  V30 10349 H 953.278 7.01037 2.94025 0
M  V30 10350 N 954.853 -1.17469 1.05066 0
M  V30 10351 C 956.13 -1.83625 0.673872 0
M  V30 10352 C 956.51 -1.93412 -0.845871 0
M  V30 10353 O 955.858 -1.4677 -1.75131 0
M  V30 10354 C 956.068 -3.21352 1.36139 0
M  V30 10355 C 957.416 -3.97274 1.49863 0
M  V30 10356 O 958.44 -3.30827 1.3203 0
M  V30 10357 O 957.299 -5.16349 1.79013 0
M  V30 10358 H 954.393 -0.792297 0.237055 0
M  V30 10359 H 956.939 -1.24776 1.15017 0
M  V30 10360 H 955.711 -3.0919 2.39827 0
M  V30 10361 H 955.334 -3.87867 0.874364 0
M  V30 10362 N 956.331 -0.831506 -1.3388 0
M  V30 10363 C 957.559 -0.436925 -2.02234 0
M  V30 10364 C 957.974 0.959689 -1.6259 0
M  V30 10365 O 957.331 1.62248 -0.835576 0
M  V30 10366 C 957.382 -0.539429 -3.57453 0
M  V30 10367 O 957.103 -1.88101 -3.95664 0
M  V30 10368 C 958.604 -0.140852 -4.43076 0
M  V30 10369 H 955.824 -0.174302 -0.647966 0
M  V30 10370 H 958.368 -1.12204 -1.70969 0
M  V30 10371 H 956.523 0.0976959 -3.87277 0
M  V30 10372 H 956.937 -1.86131 -4.90363 0
M  V30 10373 H 958.411 -0.26364 -5.5137 0
M  V30 10374 H 958.888 0.916505 -4.29531 0
M  V30 10375 H 959.494 -0.752117 -4.18597 0
M  V30 10376 N 957.809 1.4625 -0.587256 0
M  V30 10377 C 959.056 2.02363 -0.0745746 0
M  V30 10378 C 959.384 1.4582 1.28712 0
M  V30 10379 O 958.639 0.614922 1.85788 0
M  V30 10380 C 958.938 3.57382 0.036328 0
M  V30 10381 C 958.604 4.32985 -1.25837 0
M  V30 10382 C 957.266 4.53358 -1.61306 0
M  V30 10383 C 959.618 4.76361 -2.11494 0
M  V30 10384 C 956.946 5.14361 -2.82223 0
M  V30 10385 C 959.298 5.38699 -3.31641 0
M  V30 10386 C 957.962 5.57299 -3.67388 0
M  V30 10387 H 957.232 0.740497 -0.0272888 0
M  V30 10388 H 959.879 1.75565 -0.764804 0
M  V30 10389 H 958.184 3.83342 0.809712 0
M  V30 10390 H 959.881 3.9848 0.448838 0
M  V30 10391 H 956.471 4.17427 -0.972251 0
M  V30 10392 H 960.655 4.60372 -1.85394 0
M  V30 10393 H 955.911 5.26952 -3.10051 0
M  V30 10394 H 960.085 5.71267 -3.9828 0
M  V30 10395 H 957.712 6.04338 -4.61173 0
M  V30 10396 N 959.287 0.325282 1.54207 0
M  V30 10397 C 960.698 -0.162426 1.85992 0
M  V30 10398 C 961.049 -1.51482 1.2469 0
M  V30 10399 O 960.174 -2.092 0.553578 0
M  V30 10400 C 960.769 -0.3015 3.37456 0
M  V30 10401 C 959.328 -0.73343 3.69185 0
M  V30 10402 C 958.475 0.143831 2.76927 0
M  V30 10403 H 961.426 0.545508 1.4903 0
M  V30 10404 H 961.447 -1.13212 3.63268 0
M  V30 10405 H 960.959 0.682942 3.82044 0
M  V30 10406 H 959.06 -1.72755 3.30131 0
M  V30 10407 H 959.173 -0.535987 4.76092 0
M  V30 10408 H 957.537 -0.380892 2.51836 0
M  V30 10409 H 958.32 1.12507 3.24341 0
M  V30 10410 N 960.765 -1.57509 0.0534917 0
M  V30 10411 C 961.728 -2.10563 -0.905307 0
M  V30 10412 C 962.728 -1.02571 -1.23838 0
M  V30 10413 O 963.918 -1.28635 -1.17468 0
M  V30 10414 C 961.05 -2.5918 -2.21447 0
M  V30 10415 H 962.243 -2.96575 -0.445354 0
M  V30 10416 H 959.796 -1.55079 -0.194947 0
M  V30 10417 H 960.531 -1.76568 -2.72019 0
M  V30 10418 H 960.316 -3.38098 -1.98575 0
M  V30 10419 H 961.806 -3.00365 -2.90122 0
M  V30 10420 N 962.243 0.219913 -1.56058 0
M  V30 10421 C 963.206 1.25606 -1.91718 0
M  V30 10422 C 964.206 1.39721 -0.795912 0
M  V30 10423 O 965.396 1.37958 -1.06364 0
M  V30 10424 C 962.528 2.62961 -2.16943 0
M  V30 10425 H 963.721 0.951909 -2.84392 0
M  V30 10426 H 961.274 0.460398 -1.49365 0
M  V30 10427 H 962.009 2.98472 -1.26826 0
M  V30 10428 H 961.794 2.54093 -2.98629 0
M  V30 10429 H 963.284 3.37727 -2.45622 0
M  V30 10430 N 963.721 1.49897 0.486681 0
M  V30 10431 C 964.97 1.59349 1.23656 0
M  V30 10432 C 965.283 0.292024 1.93408 0
M  V30 10433 O 966.489 0.265258 2.70201 0
M  V30 10434 C 964.945 2.81215 2.24602 0
M  V30 10435 C 964.553 4.18177 1.60725 0
M  V30 10436 C 966.297 3.00004 3.00329 0
M  V30 10437 C 964.204 5.31247 2.59866 0
M  V30 10438 H 963.134 0.593363 0.465227 0
M  V30 10439 H 965.785 1.76306 0.508769 0
M  V30 10440 H 964.167 2.57783 3.00606 0
M  V30 10441 H 965.341 4.51802 0.90616 0
M  V30 10442 H 963.656 4.04864 0.973362 0
M  V30 10443 H 966.253 3.81649 3.74497 0
M  V30 10444 H 966.596 2.1112 3.58795 0
M  V30 10445 H 967.129 3.23544 2.3144 0
M  V30 10446 H 963.868 6.22236 2.06161 0
M  V30 10447 H 963.388 5.02059 3.28172 0
M  V30 10448 H 965.067 5.61177 3.22009 0
M  V30 10449 N 965.199 -0.738761 1.39212 0
M  V30 10450 C 966.129 -1.86602 1.40364 0
M  V30 10451 C 967.11 -1.67984 0.267495 0
M  V30 10452 O 968.295 -1.88358 0.472765 0
M  V30 10453 C 965.425 -3.24308 1.24265 0
M  V30 10454 C 964.379 -3.57557 2.35239 0
M  V30 10455 C 963.705 -4.94159 2.04233 0
M  V30 10456 C 965.005 -3.60914 3.77543 0
M  V30 10457 H 966.699 -1.85896 2.34698 0
M  V30 10458 H 964.245 -0.892959 1.1297 0
M  V30 10459 H 966.198 -4.02838 1.23692 0
M  V30 10460 H 964.922 -3.25531 0.263974 0
M  V30 10461 H 963.581 -2.81354 2.35022 0
M  V30 10462 H 963.229 -4.91959 1.04813 0
M  V30 10463 H 962.929 -5.17373 2.78567 0
M  V30 10464 H 964.453 -5.7505 2.05303 0
M  V30 10465 H 965.867 -4.29528 3.79709 0
M  V30 10466 H 964.264 -3.95644 4.51205 0
M  V30 10467 H 965.334 -2.60803 4.08791 0
M  V30 10468 N 966.677 -1.24326 -0.968545 0
M  V30 10469 C 967.905 -1.10947 -1.74638 0
M  V30 10470 C 968.32 0.338064 -1.85749 0
M  V30 10471 O 967.677 1.23331 -1.3452 0
M  V30 10472 C 967.728 -1.74254 -3.1673 0
M  V30 10473 O 967.449 -3.13347 -3.06178 0
M  V30 10474 C 968.95 -1.66473 -4.10855 0
M  V30 10475 H 966.17 -0.38767 -0.547679 0
M  V30 10476 H 968.714 -1.64415 -1.21605 0
M  V30 10477 H 966.869 -1.2479 -3.66751 0
M  V30 10478 H 967.283 -3.44255 -3.95713 0
M  V30 10479 H 968.757 -2.15452 -5.08217 0
M  V30 10480 H 969.234 -0.625785 -4.34719 0
M  V30 10481 H 969.84 -2.15359 -3.66743 0
M  V30 10482 N 968.156 1.1691 -1.05688 0
M  V30 10483 C 969.402 1.8757 -0.771071 0
M  V30 10484 C 969.735 1.8113 0.700399 0
M  V30 10485 O 969.01 1.22273 1.5126 0
M  V30 10486 C 969.293 3.37392 -1.25851 0
M  V30 10487 C 969.146 3.52556 -2.79329 0
M  V30 10488 C 970.465 4.31585 -0.861512 0
M  V30 10489 H 967.584 0.681089 -0.281579 0
M  V30 10490 H 970.226 1.37453 -1.31174 0
M  V30 10491 H 968.376 3.80204 -0.798563 0
M  V30 10492 H 970.048 3.18725 -3.33485 0
M  V30 10493 H 968.291 2.94668 -3.1836 0
M  V30 10494 H 968.962 4.57748 -3.08498 0
M  V30 10495 H 971.438 3.96642 -1.25756 0
M  V30 10496 H 970.314 5.34939 -1.23012 0
M  V30 10497 H 970.575 4.4148 0.234089 0
M  V30 10498 N 969.634 0.838594 1.33437 0
M  V30 10499 C 970.881 0.434169 1.97791 0
M  V30 10500 C 971.209 -1.00652 1.66431 0
M  V30 10501 O 970.464 -1.71848 0.936309 0
M  V30 10502 C 970.763 0.601425 3.52303 0
M  V30 10503 C 970.429 2.01017 4.03612 0
M  V30 10504 C 969.091 2.39551 4.17336 0
M  V30 10505 C 971.443 2.93035 4.31022 0
M  V30 10506 C 968.771 3.69406 4.55802 0
M  V30 10507 C 971.123 4.22372 4.7094 0
M  V30 10508 C 969.787 4.60862 4.82869 0
M  V30 10509 H 969.057 0.158874 0.723768 0
M  V30 10510 H 971.704 1.06556 1.59116 0
M  V30 10511 H 970.009 -0.113284 3.91636 0
M  V30 10512 H 971.706 0.268798 4.00098 0
M  V30 10513 H 968.296 1.7009 3.93405 0
M  V30 10514 H 972.48 2.64503 4.19943 0
M  V30 10515 H 967.736 3.99033 4.63231 0
M  V30 10516 H 971.91 4.93749 4.91106 0
M  V30 10517 H 969.537 5.6153 5.12433 0
M  V30 10518 N 971.112 -1.45937 0.595003 0
M  V30 10519 C 972.044 -2.28575 -0.169137 0
M  V30 10520 C 973.057 -1.39226 -0.843792 0
M  V30 10521 O 974.246 -1.63716 -0.711291 0
M  V30 10522 C 971.346 -3.14616 -1.25976 0
M  V30 10523 C 970.519 -4.32166 -0.67466 0
M  V30 10524 C 969.578 -4.99511 -1.65456 0
M  V30 10525 O 968.604 -5.56712 -1.18578 0
M  V30 10526 N 969.806 -4.97643 -2.98885 0
M  V30 10527 H 972.571 -2.94797 0.539908 0
M  V30 10528 H 970.132 -1.55985 0.433614 0
M  V30 10529 H 972.124 -3.56534 -1.91483 0
M  V30 10530 H 970.694 -2.50387 -1.8715 0
M  V30 10531 H 969.914 -3.93882 0.158184 0
M  V30 10532 H 971.202 -5.08116 -0.263753 0
M  V30 10533 H 970.6 -4.52438 -3.39583 0
M  V30 10534 H 969.157 -5.43463 -3.59848 0
M  V30 10535 N 972.59 -0.333456 -1.54032 0
M  V30 10536 C 973.839 0.267081 -1.99924 0
M  V30 10537 C 974.152 1.52463 -1.22534 0
M  V30 10538 O 975.358 2.20178 -1.58852 0
M  V30 10539 C 973.814 0.526456 -3.56029 0
M  V30 10540 C 973.422 -0.714607 -4.42264 0
M  V30 10541 C 975.166 1.0864 -4.10363 0
M  V30 10542 C 973.073 -0.42659 -5.89859 0
M  V30 10543 H 972.003 0.103577 -0.746852 0
M  V30 10544 H 974.654 -0.447218 -1.77967 0
M  V30 10545 H 973.036 1.3012 -3.74012 0
M  V30 10546 H 974.21 -1.48968 -4.36056 0
M  V30 10547 H 972.525 -1.19547 -3.9887 0
M  V30 10548 H 975.122 1.31668 -5.18235 0
M  V30 10549 H 975.465 2.03884 -3.62956 0
M  V30 10550 H 975.998 0.37261 -3.96051 0
M  V30 10551 H 972.737 -1.34847 -6.4148 0
M  V30 10552 H 972.257 0.310588 -5.98995 0
M  V30 10553 H 973.936 -0.0400807 -6.46988 0
M  V30 10554 N 974.068 1.57479 -0.061844 0
M  V30 10555 C 974.998 2.15181 0.9066 0
M  V30 10556 C 975.979 1.07624 1.31724 0
M  V30 10557 O 977.164 1.35614 1.39006 0
M  V30 10558 C 974.294 2.70542 2.17771 0
M  V30 10559 C 973.248 3.83178 1.9068 0
M  V30 10560 C 972.574 4.25099 3.24337 0
M  V30 10561 C 973.874 5.07853 1.21994 0
M  V30 10562 H 975.568 2.96355 0.42594 0
M  V30 10563 H 973.114 1.42556 0.203435 0
M  V30 10564 H 975.067 3.09552 2.85929 0
M  V30 10565 H 973.791 1.86575 2.68062 0
M  V30 10566 H 972.45 3.44656 1.24931 0
M  V30 10567 H 972.098 3.38069 3.72449 0
M  V30 10568 H 971.798 5.01021 3.07005 0
M  V30 10569 H 973.322 4.66718 3.93709 0
M  V30 10570 H 974.736 5.44242 1.80204 0
M  V30 10571 H 973.133 5.88987 1.14954 0
M  V30 10572 H 974.203 4.84497 0.197536 0
M  V30 10573 N 975.546 -0.211634 1.56173 0
M  V30 10574 C 976.774 -0.951184 1.83739 0
M  V30 10575 C 977.189 -1.7754 0.642252 0
M  V30 10576 O 976.546 -1.78302 -0.389174 0
M  V30 10577 C 976.597 -1.86075 3.09933 0
M  V30 10578 O 976.318 -1.06983 4.24837 0
M  V30 10579 C 977.819 -2.71337 3.50559 0
M  V30 10580 H 975.039 -0.278312 0.61056 0
M  V30 10581 H 977.583 -0.223871 2.03271 0
M  V30 10582 H 975.738 -2.54189 2.92347 0
M  V30 10583 H 976.152 -1.68815 4.9659 0
M  V30 10584 H 977.626 -3.30843 4.41868 0
M  V30 10585 H 978.103 -3.44226 2.72773 0
M  V30 10586 H 978.709 -2.0862 3.70618 0
M  V30 10587 N 977.024 -1.50153 -0.478725 0
M  V30 10588 C 978.272 -1.60443 -1.22892 0
M  V30 10589 C 978.593 -0.303276 -1.92627 0
M  V30 10590 O 977.863 0.678798 -1.83764 0
M  V30 10591 H 976.443 -0.591205 -0.456602 0
M  V30 10592 H 979.105 -1.86893 -0.552905 0
M  V30 10593 H 978.201 -2.41175 -1.98094 0
M  V30 10594 N 978.502 0.731368 -1.39602 0
M  V30 10595 C 979.412 1.87579 -1.40894 0
M  V30 10596 C 980.428 1.71336 -0.303319 0
M  V30 10597 O 981.604 1.93875 -0.545377 0
M  V30 10598 C 978.669 3.23211 -1.25442 0
M  V30 10599 C 977.73 3.51822 -2.46008 0
M  V30 10600 C 976.963 4.80982 -2.31284 0
M  V30 10601 O 977.186 5.54958 -1.31824 0
M  V30 10602 O 976.12 5.09574 -3.20341 0
M  V30 10603 H 979.946 1.89444 -2.3737 0
M  V30 10604 H 977.531 0.879675 -1.20756 0
M  V30 10605 H 979.413 4.04257 -1.18972 0
M  V30 10606 H 978.088 3.22108 -0.320637 0
M  V30 10607 H 976.995 2.70847 -2.58055 0
M  V30 10608 H 978.328 3.57707 -3.38093 0
M  V30 10609 N 979.98 1.24838 0.961938 0
M  V30 10610 C 981.257 0.99939 1.68141 0
M  V30 10611 C 981.637 -0.476588 2.0565 0
M  V30 10612 O 980.985 -1.45224 1.76415 0
M  V30 10613 C 981.195 1.92797 2.90913 0
M  V30 10614 C 982.543 2.20219 3.63027 0
M  V30 10615 O 983.567 1.90496 3.00981 0
M  V30 10616 O 982.426 2.70725 4.74731 0
M  V30 10617 H 979.52 0.37842 0.735342 0
M  V30 10618 H 982.066 1.35961 1.01551 0
M  V30 10619 H 980.838 2.92492 2.59931 0
M  V30 10620 H 980.461 1.57127 3.65235 0
M  V30 10621 N 981.458 -1.16348 1.06306 0
M  V30 10622 C 982.704 -1.87397 0.79082 0
M  V30 10623 C 983.059 -1.80156 -0.675382 0
M  V30 10624 O 982.352 -1.20644 -1.48847 0
M  V30 10625 C 982.546 -3.35936 1.21991 0
M  V30 10626 C 982.375 -3.57637 2.72628 0
M  V30 10627 C 981.145 -3.73717 3.40094 0
M  V30 10628 C 983.343 -3.56345 3.70841 0
M  V30 10629 N 981.325 -3.83369 4.7948 0
M  V30 10630 C 982.696 -3.71983 4.96013 0
M  V30 10631 C 984.751 -3.39558 3.64149 0
M  V30 10632 C 983.454 -3.7257 6.15292 0
M  V30 10633 C 985.48 -3.41439 4.8288 0
M  V30 10634 C 984.842 -3.57596 6.06881 0
M  V30 10635 H 980.941 -0.703355 0.341782 0
M  V30 10636 H 983.525 -1.39597 1.35723 0
M  V30 10637 H 981.696 -3.82378 0.681319 0
M  V30 10638 H 983.428 -3.94649 0.896319 0
M  V30 10639 H 980.183 -3.74045 2.90495 0
M  V30 10640 H 980.607 -3.91964 5.5199 0
M  V30 10641 H 985.249 -3.25994 2.69235 0
M  V30 10642 H 982.967 -3.84916 7.10539 0
M  V30 10643 H 986.553 -3.29693 4.79368 0
M  V30 10644 H 985.433 -3.58971 6.97216 0
M  V30 10645 N 982.937 -0.845659 -1.3299 0
M  V30 10646 C 983.885 -0.272412 -2.30999 0
M  V30 10647 C 984.879 0.599311 -1.58444 0
M  V30 10648 O 986.085 0.488117 -1.73255 0
M  V30 10649 H 982.46 -0.0693751 -0.748793 0
M  V30 10650 H 984.431 -1.11343 -2.76849 0
M  V30 10651 C 983.18 0.532019 -3.43606 0
M  V30 10652 H 982.503 -0.129455 -3.9959 0
M  V30 10653 H 983.943 0.898853 -4.14363 0
M  V30 10654 C 982.402 1.71364 -2.90062 0
M  V30 10655 O 982.932 2.81252 -2.8681 0
M  V30 10656 N 981.138 1.53775 -2.4658 0
M  V30 10657 H 980.685 0.643836 -2.49424 0
M  V30 10658 H 980.643 2.32982 -2.11108 0
M  V30 10659 N 984.415 1.45619 -0.602734 0
M  V30 10660 C 985.378 2.28941 0.108962 0
M  V30 10661 C 986.378 1.39501 0.799762 0
M  V30 10662 O 987.568 1.61673 0.648663 0
M  V30 10663 C 984.7 3.204 1.16432 0
M  V30 10664 H 985.893 2.93346 -0.623534 0
M  V30 10665 H 983.446 1.52061 -0.361565 0
M  V30 10666 H 984.181 2.60785 1.92774 0
M  V30 10667 H 983.966 3.86277 0.673248 0
M  V30 10668 H 985.456 3.83063 1.6629 0
M  V30 10669 N 985.893 0.34162 1.53853 0
M  V30 10670 C 987.139 -0.255862 2.01179 0
M  V30 10671 C 987.472 -1.50356 1.22909 0
M  V30 10672 O 986.747 -1.91913 0.316198 0
M  V30 10673 C 987.03 -0.571934 3.55529 0
M  V30 10674 C 986.883 0.687727 4.44511 0
M  V30 10675 C 988.202 -1.38233 4.17827 0
M  V30 10676 H 985.321 -0.091521 0.731295 0
M  V30 10677 H 987.963 0.461775 1.84303 0
M  V30 10678 H 986.113 -1.18331 3.70041 0
M  V30 10679 H 987.785 1.32572 4.4184 0
M  V30 10680 H 986.028 1.313 4.13452 0
M  V30 10681 H 986.699 0.421858 5.50386 0
M  V30 10682 H 989.175 -0.865374 4.07002 0
M  V30 10683 H 988.051 -1.57223 5.25901 0
M  V30 10684 H 988.312 -2.38386 3.72323 0
M  V30 10685 N 987.371 -1.57444 0.0701946 0
M  V30 10686 C 988.304 -2.08232 -0.93352 0
M  V30 10687 C 989.282 -0.987073 -1.29212 0
M  V30 10688 O 990.466 -1.26035 -1.40169 0
M  V30 10689 C 987.593 -2.53866 -2.2421 0
M  V30 10690 C 986.639 -3.7481 -2.03518 0
M  V30 10691 S 987.472 -5.1958 -1.29601 0
M  V30 10692 C 988.628 -5.68544 -2.61742 0
M  V30 10693 H 988.861 -2.93042 -0.501354 0
M  V30 10694 H 986.394 -1.53741 -0.142533 0
M  V30 10695 H 988.352 -2.80818 -2.99419 0
M  V30 10696 H 987.013 -1.69327 -2.64551 0
M  V30 10697 H 986.206 -4.04724 -3.00358 0
M  V30 10698 H 985.808 -3.48222 -1.36445 0
M  V30 10699 H 988.1 -5.75291 -3.57836 0
M  V30 10700 H 989.043 -6.67459 -2.3644 0
M  V30 10701 H 989.451 -4.96354 -2.68873 0
M  V30 10702 N 988.849 0.203349 -1.56283 0
M  V30 10703 C 990.079 0.940061 -1.83974 0
M  V30 10704 C 990.487 1.77703 -0.649486 0
M  V30 10705 O 989.83 1.79487 0.391189 0
M  V30 10706 C 989.892 1.89249 -3.05655 0
M  V30 10707 C 989.556 1.23828 -4.39904 0
M  V30 10708 C 990.553 0.619231 -5.16199 0
M  V30 10709 C 988.238 1.2446 -4.86636 0
M  V30 10710 C 990.232 0.0152287 -6.37398 0
M  V30 10711 C 987.919 0.636764 -6.07773 0
M  V30 10712 C 988.917 0.0231481 -6.82996 0
M  V30 10713 O 988.605 -0.575187 -8.0184 0
M  V30 10714 H 988.337 0.280199 -0.615194 0
M  V30 10715 H 990.891 0.218111 -2.04239 0
M  V30 10716 H 989.121 2.65392 -2.81254 0
M  V30 10717 H 990.81 2.4963 -3.20062 0
M  V30 10718 H 991.576 0.606545 -4.81192 0
M  V30 10719 H 987.455 1.71161 -4.28048 0
M  V30 10720 H 990.999 -0.464333 -6.96053 0
M  V30 10721 H 986.896 0.646924 -6.4225 0
M  V30 10722 H 987.664 -0.471284 -8.17142 0
M  V30 10723 N 990.327 1.50405 0.470755 0
M  V30 10724 C 991.277 1.65681 1.56633 0
M  V30 10725 C 992.261 0.511424 1.52556 0
M  V30 10726 O 993.453 0.765844 1.59574 0
M  V30 10727 C 990.582 1.7546 2.95074 0
M  V30 10728 C 989.668 2.95676 3.04034 0
M  V30 10729 N 990.059 4.1935 2.82807 0
M  V30 10730 C 988.357 2.94241 3.35169 0
M  V30 10731 C 989.058 5.0032 2.96741 0
M  V30 10732 N 988.034 4.34282 3.26956 0
M  V30 10733 H 991.836 2.58994 1.38922 0
M  V30 10734 H 989.35 1.47593 0.67749 0
M  V30 10735 H 991.347 1.84508 3.73848 0
M  V30 10736 H 990.007 0.833057 3.13832 0
M  V30 10737 H 991.018 4.48842 2.58382 0
M  V30 10738 H 987.695 2.11587 3.59913 0
M  V30 10739 H 989.085 6.08664 2.84566 0
M  V30 10740 N 991.805 -0.723954 1.39988 0
M  V30 10741 C 993.053 -1.48078 1.3754 0
M  V30 10742 C 993.374 -1.94985 -0.0243358 0
M  V30 10743 O 992.644 -1.69764 -0.977602 0
M  V30 10744 H 991.224 -0.549354 0.506181 0
M  V30 10745 H 993.886 -0.858746 1.74962 0
M  V30 10746 H 992.982 -2.35763 2.04505 0
M  V30 10747 N 993.283 -1.25346 -0.955304 0
M  V30 10748 C 994.532 -1.0945 -1.69421 0
M  V30 10749 C 994.845 0.364459 -1.92175 0
M  V30 10750 O 996.051 0.643843 -2.63755 0
M  V30 10751 C 994.507 -1.91045 -3.05008 0
M  V30 10752 C 994.115 -3.41428 -2.90053 0
M  V30 10753 C 995.859 -1.83716 -3.82686 0
M  V30 10754 C 993.766 -4.1532 -4.21026 0
M  V30 10755 H 992.696 -0.405978 -0.635372 0
M  V30 10756 H 995.347 -1.49536 -1.06354 0
M  V30 10757 H 993.729 -1.43781 -3.68975 0
M  V30 10758 H 994.903 -3.9636 -2.35022 0
M  V30 10759 H 993.218 -3.49842 -2.25831 0
M  V30 10760 H 995.815 -2.36217 -4.79693 0
M  V30 10761 H 996.158 -0.804919 -4.08444 0
M  V30 10762 H 996.691 -2.28726 -3.25468 0
M  V30 10763 H 993.43 -5.18955 -4.00457 0
M  V30 10764 H 992.95 -3.65172 -4.75825 0
M  V30 10765 H 994.629 -4.22999 -4.89572 0
M  V30 10766 N 994.761 1.15782 -1.06922 0
M  V30 10767 C 995.671 2.24008 -0.696948 0
M  V30 10768 C 996.687 1.71569 0.289862 0
M  V30 10769 O 997.863 2.00929 0.137585 0
M  V30 10770 C 994.928 3.46568 -0.0957895 0
M  V30 10771 C 993.989 4.14017 -1.13528 0
M  V30 10772 C 993.222 5.30725 -0.562713 0
M  V30 10773 O 993.445 5.66992 0.62259 0
M  V30 10774 O 992.379 5.87572 -1.30549 0
M  V30 10775 H 996.205 2.58174 -1.59938 0
M  V30 10776 H 993.79 1.2342 -0.841889 0
M  V30 10777 H 995.672 4.20731 0.237407 0
M  V30 10778 H 994.347 3.14161 0.780027 0
M  V30 10779 H 993.254 3.41795 -1.52076 0
M  V30 10780 H 994.587 4.50493 -1.98285 0
M  V30 10781 N 996.239 0.8527 1.3254 0
M  V30 10782 C 997.464 0.468157 2.02047 0
M  V30 10783 C 997.889 -0.926967 1.63673 0
M  V30 10784 O 997.247 -1.60855 0.836378 0
M  V30 10785 C 997.295 0.612519 3.5536 0
M  V30 10786 O 996.399 -0.355506 4.10865 0
M  V30 10787 H 995.74 0.188401 0.636711 0
M  V30 10788 H 998.27 1.15135 1.6913 0
M  V30 10789 H 998.28 0.499315 4.04933 0
M  V30 10790 H 996.955 1.62988 3.82632 0
M  V30 10791 H 995.532 -0.198703 3.7237 0
M  V30 10792 N 997.718 -1.45297 0.610449 0
M  V30 10793 C 998.65 -2.28742 -0.144884 0
M  V30 10794 C 999.663 -1.40114 -0.828977 0
M  V30 10795 O 1000.85 -1.64461 -0.693887 0
M  V30 10796 C 997.952 -3.15934 -1.22632 0
M  V30 10797 C 997.125 -4.32857 -0.628785 0
M  V30 10798 C 996.184 -5.01237 -1.60148 0
M  V30 10799 O 995.21 -5.57938 -1.12667 0
M  V30 10800 N 996.412 -5.00785 -2.9359 0
M  V30 10801 H 999.177 -2.94207 0.571145 0
M  V30 10802 H 996.738 -1.55517 0.450134 0
M  V30 10803 H 998.73 -3.58545 -1.87691 0
M  V30 10804 H 997.3 -2.52358 -1.84483 0
M  V30 10805 H 996.52 -3.93693 0.199951 0
M  V30 10806 H 997.808 -5.08367 -0.209845 0
M  V30 10807 H 997.206 -4.56014 -3.34765 0
M  V30 10808 H 995.763 -5.4725 -3.54064 0
M  V30 10809 N 999.196 -0.349774 -1.5367 0
M  V30 10810 C 1000.44 0.244343 -2.00617 0
M  V30 10811 C 1000.76 1.50567 -1.23914 0
M  V30 10812 O 1000.03 1.92784 -0.348016 0
M  V30 10813 H 998.615 0.0932792 -0.741153 0
M  V30 10814 H 1001.28 -0.472367 -1.89089 0
M  V30 10815 H 1000.37 0.482433 -3.08349 0
M  V30 10816 N 1000.67 1.57404 -0.0785433 0
M  V30 10817 C 1001.92 1.93361 0.58786 0
M  V30 10818 C 1002.24 0.959856 1.6974 0
M  V30 10819 O 1001.51 0.0091173 1.95898 0
M  V30 10820 H 1000.09 0.713825 0.220141 0
M  V30 10821 H 1002.75 1.94411 -0.137986 0
M  V30 10822 H 1001.85 2.95346 1.00881 0
M  V30 10823 N 1002.15 -0.195058 1.56388 0
M  V30 10824 C 1003.4 -0.9168 1.80894 0
M  V30 10825 C 1003.73 -1.82907 0.652592 0
M  V30 10826 O 1003.01 -1.91382 -0.346853 0
M  V30 10827 C 1003.29 -1.733 3.15657 0
M  V30 10828 C 1003.14 -0.845449 4.41783 0
M  V30 10829 C 1004.46 -2.70557 3.47112 0
M  V30 10830 H 1001.58 -0.331861 0.658056 0
M  V30 10831 H 1004.22 -0.184174 1.89105 0
M  V30 10832 H 1002.37 -2.3576 3.08787 0
M  V30 10833 H 1004.04 -0.235557 4.60698 0
M  V30 10834 H 1002.29 -0.152172 4.33533 0
M  V30 10835 H 1002.96 -1.45152 5.32574 0
M  V30 10836 H 1005.43 -2.1823 3.54281 0
M  V30 10837 H 1004.31 -3.24749 4.42526 0
M  V30 10838 H 1004.57 -3.49605 2.70608 0
M  V30 10839 N 1003.63 -1.50653 -0.462772 0
M  V30 10840 C 1004.85 -1.66103 -1.24196 0
M  V30 10841 C 1005.28 -0.347421 -1.84864 0
M  V30 10842 O 1004.64 0.689673 -1.6767 0
M  V30 10843 C 1004.69 -2.76027 -2.32037 0
M  V30 10844 O 1003.79 -2.37859 -3.36893 0
M  V30 10845 H 1003.13 -0.554672 -0.365014 0
M  V30 10846 H 1005.66 -1.97076 -0.549734 0
M  V30 10847 H 1005.67 -2.99354 -2.77221 0
M  V30 10848 H 1004.35 -3.71361 -1.87253 0
M  V30 10849 H 1002.92 -2.2501 -2.97363 0
M  V30 10850 N 1005.11 0.71652 -1.4037 0
M  V30 10851 C 1006.06 1.8306 -1.40562 0
M  V30 10852 C 1007.03 1.64009 -0.262697 0
M  V30 10853 O 1008.21 1.85157 -0.460619 0
M  V30 10854 C 1005.35 3.2076 -1.27307 0
M  V30 10855 C 1004.46 3.51389 -2.51296 0
M  V30 10856 C 1003.6 4.78589 -2.30491 0
M  V30 10857 C 1002.64 5.02119 -3.50061 0
M  V30 10858 N 1001.77 6.20533 -3.28457 0
M  V30 10859 H 1006.61 1.82231 -2.35788 0
M  V30 10860 H 1004.15 0.890198 -1.17106 0
M  V30 10861 H 1006.11 4.00274 -1.17628 0
M  V30 10862 H 1004.74 3.2082 -0.357005 0
M  V30 10863 H 1003.79 2.66436 -2.71507 0
M  V30 10864 H 1005.1 3.64686 -3.40302 0
M  V30 10865 H 1004.26 5.66119 -2.1816 0
M  V30 10866 H 1003 4.67499 -1.38909 0
M  V30 10867 H 1002 4.13044 -3.6287 0
M  V30 10868 H 1003.23 5.15082 -4.42569 0
M  V30 10869 H 1001.17 6.10695 -2.39556 0
M  V30 10870 H 1001.09 6.34502 -4.11027 0
M  V30 10871 H 1002.36 7.10853 -3.19857 0
M  V30 10872 N 1006.59 1.25851 0.948643 0
M  V30 10873 C 1007.83 1.10735 1.69062 0
M  V30 10874 C 1008.16 -0.351257 1.9181 0
M  V30 10875 O 1007.43 -1.24867 1.50947 0
M  V30 10876 H 1006.01 0.406796 0.626519 0
M  V30 10877 H 1008.67 1.58066 1.14022 0
M  V30 10878 H 1007.76 1.62033 2.66743 0
M  V30 10879 N 1008.06 -1.15214 1.07534 0
M  V30 10880 C 1009 -2.18999 0.641461 0
M  V30 10881 C 1009.98 -1.58958 -0.342238 0
M  V30 10882 O 1011.16 -1.86859 -0.248218 0
M  V30 10883 C 1008.29 -3.38651 -0.0577939 0
M  V30 10884 C 1007.33 -4.17225 0.884641 0
M  V30 10885 S 1008.17 -4.79375 2.38663 0
M  V30 10886 C 1009.32 -6.02393 1.69923 0
M  V30 10887 H 1009.55 -2.55464 1.52071 0
M  V30 10888 H 1007.09 -1.26205 0.889481 0
M  V30 10889 H 1009.05 -4.07971 -0.454982 0
M  V30 10890 H 1007.71 -3.00526 -0.913407 0
M  V30 10891 H 1006.9 -5.02837 0.342133 0
M  V30 10892 H 1006.5 -3.53463 1.2223 0
M  V30 10893 H 1008.79 -6.69899 1.01201 0
M  V30 10894 H 1009.74 -6.61216 2.53375 0
M  V30 10895 H 1010.14 -5.52106 1.1764 0
M  V30 10896 N 1009.54 -0.859717 -1.32086 0
M  V30 10897 C 1010.79 -0.465581 -1.97075 0
M  V30 10898 C 1011.12 0.979917 -1.68012 0
M  V30 10899 O 1010.37 1.70337 -0.96353 0
M  V30 10900 C 1010.67 -0.657397 -3.51302 0
M  V30 10901 C 1010.34 -2.07413 -4.00363 0
M  V30 10902 C 1009 -2.4616 -4.13472 0
M  V30 10903 C 1011.35 -2.99855 -4.26305 0
M  V30 10904 C 1008.68 -3.76611 -4.49868 0
M  V30 10905 C 1011.03 -4.2981 -4.64161 0
M  V30 10906 C 1009.7 -4.68485 -4.75476 0
M  V30 10907 H 1008.97 -0.170368 -0.721149 0
M  V30 10908 H 1011.61 -1.09074 -1.57401 0
M  V30 10909 H 1009.92 0.0509638 -3.91767 0
M  V30 10910 H 1011.61 -0.332416 -3.9962 0
M  V30 10911 H 1008.2 -1.76327 -3.90649 0
M  V30 10912 H 1012.39 -2.7115 -4.15682 0
M  V30 10913 H 1007.64 -4.06352 -4.56824 0
M  V30 10914 H 1011.82 -5.015 -4.83188 0
M  V30 10915 H 1009.45 -5.69612 -5.03435 0
M  V30 10916 N 1011.02 1.44971 -0.618145 0
M  V30 10917 C 1012.25 2.07039 -0.122395 0
M  V30 10918 C 1012.67 1.45793 1.18853 0
M  V30 10919 O 1012.03 0.55453 1.72611 0
M  V30 10920 C 1012.08 3.60599 -0.0073864 0
M  V30 10921 O 1011.18 3.99069 1.04007 0
M  V30 10922 H 1010.52 0.6593 -0.0788615 0
M  V30 10923 H 1013.05 1.86055 -0.851147 0
M  V30 10924 H 1013.06 4.07569 0.187417 0
M  V30 10925 H 1011.74 4.04561 -0.964544 0
M  V30 10926 H 1010.31 3.63753 0.820879 0
M  V30 10927 N 1012.5 0.357919 1.53482 0
M  V30 10928 C 1013.72 -0.237769 2.06033 0
M  V30 10929 C 1014.15 -1.42292 1.23023 0
M  V30 10930 O 1013.51 -1.79604 0.247427 0
M  V30 10931 C 1013.55 -0.616806 3.55286 0
M  V30 10932 O 1012.66 -1.71503 3.75047 0
M  V30 10933 H 1012 -0.0364322 0.663 0
M  V30 10934 H 1014.53 0.516301 1.97979 0
M  V30 10935 H 1014.54 -0.88996 3.98175 0
M  V30 10936 H 1013.21 0.249825 4.15149 0
M  V30 10937 H 1011.79 -1.43803 3.44057 0
M  V30 10938 N 1013.98 -1.5736 0.0868897 0
M  V30 10939 C 1015.22 -1.94054 -0.578741 0
M  V30 10940 C 1015.55 -0.968047 -1.68698 0
M  V30 10941 O 1014.81 0.0137824 -1.95695 0
M  V30 10942 C 1015.11 -3.37316 -1.18123 0
M  V30 10943 C 1014.77 -4.50467 -0.197607 0
M  V30 10944 C 1013.43 -4.81145 0.072952 0
M  V30 10945 C 1015.79 -5.19036 0.474473 0
M  V30 10946 C 1013.11 -5.77723 1.02242 0
M  V30 10947 C 1015.47 -6.16632 1.41236 0
M  V30 10948 C 1014.13 -6.45719 1.69124 0
M  V30 10949 H 1013.4 -0.710093 -0.211776 0
M  V30 10950 H 1016.05 -1.90822 0.160978 0
M  V30 10951 H 1014.35 -3.37085 -1.99701 0
M  V30 10952 H 1016.05 -3.63003 -1.7038 0
M  V30 10953 H 1012.64 -4.2655 -0.418669 0
M  V30 10954 H 1016.82 -4.95518 0.278581 0
M  V30 10955 H 1012.08 -5.98578 1.24557 0
M  V30 10956 H 1016.25 -6.68862 1.939 0
M  V30 10957 H 1013.88 -7.20365 2.42855 0
M  V30 10958 N 1015.45 0.186762 -1.56489 0
M  V30 10959 C 1016.68 0.920495 -1.84961 0
M  V30 10960 C 1017.09 1.77004 -0.668297 0
M  V30 10961 O 1016.44 1.79891 0.37213 0
M  V30 10962 C 1016.5 1.85997 -3.07645 0
M  V30 10963 C 1016.16 1.19156 -4.41193 0
M  V30 10964 C 1017.16 0.564446 -5.16827 0
M  V30 10965 C 1014.84 1.19292 -4.87929 0
M  V30 10966 C 1016.84 -0.0523768 -6.37378 0
M  V30 10967 C 1014.52 0.572266 -6.08415 0
M  V30 10968 C 1015.52 -0.049294 -6.82982 0
M  V30 10969 O 1015.21 -0.660201 -8.01184 0
M  V30 10970 H 1014.94 0.273659 -0.618132 0
M  V30 10971 H 1017.5 0.196437 -2.04459 0
M  V30 10972 H 1015.73 2.62394 -2.84053 0
M  V30 10973 H 1017.42 2.46221 -3.22692 0
M  V30 10974 H 1018.18 0.555474 -4.81809 0
M  V30 10975 H 1014.06 1.66611 -4.29839 0
M  V30 10976 H 1017.6 -0.538133 -6.95521 0
M  V30 10977 H 1013.5 0.578769 -6.429 0
M  V30 10978 H 1014.27 -0.557926 -8.16596 0
M  V30 10979 N 1016.93 1.50896 0.454776 0
M  V30 10980 C 1018.18 1.62699 1.20562 0
M  V30 10981 C 1018.51 0.334943 1.91594 0
M  V30 10982 O 1017.76 -0.680106 1.83502 0
M  V30 10983 C 1018.06 2.76839 2.26042 0
M  V30 10984 C 1017.73 4.16745 1.72147 0
M  V30 10985 C 1016.39 4.54809 1.5717 0
M  V30 10986 C 1018.74 5.04118 1.32341 0
M  V30 10987 C 1016.07 5.7797 1.00835 0
M  V30 10988 C 1018.42 6.27842 0.774419 0
M  V30 10989 C 1017.09 6.64694 0.611415 0
M  V30 10990 H 1016.36 0.595358 0.441169 0
M  V30 10991 H 1019 1.84879 0.499202 0
M  V30 10992 H 1017.31 2.48812 3.02655 0
M  V30 10993 H 1019 2.83173 2.83926 0
M  V30 10994 H 1015.59 3.86725 1.84775 0
M  V30 10995 H 1019.78 4.75331 1.42739 0
M  V30 10996 H 1015.03 6.05183 0.869669 0
M  V30 10997 H 1019.21 6.94896 0.457389 0
M  V30 10998 H 1016.84 7.60004 0.172751 0
M  V30 10999 N 1018.41 -0.709066 1.40748 0
M  V30 11000 C 1019.66 -1.4646 1.38681 0
M  V30 11001 C 1019.97 -1.95599 -0.0056209 0
M  V30 11002 O 1021.18 -2.71091 -0.148907 0
M  V30 11003 C 1019.63 -2.64771 2.43771 0
M  V30 11004 C 1019.24 -2.22474 3.88856 0
M  V30 11005 C 1020.99 -3.42475 2.50821 0
M  V30 11006 C 1018.89 -3.37663 4.85528 0
M  V30 11007 H 1017.82 -0.550084 0.515678 0
M  V30 11008 H 1020.47 -0.771074 1.66513 0
M  V30 11009 H 1018.86 -3.36325 2.09048 0
M  V30 11010 H 1020.03 -1.58297 4.32757 0
M  V30 11011 H 1018.35 -1.57798 3.85342 0
M  V30 11012 H 1020.94 -4.28201 3.20232 0
M  V30 11013 H 1021.29 -3.86738 1.54076 0
M  V30 11014 H 1021.82 -2.77969 2.84567 0
M  V30 11015 H 1018.56 -2.98426 5.83628 0
M  V30 11016 H 1018.08 -4.00734 4.46287 0
M  V30 11017 H 1019.76 -4.03636 5.05655 0
M  V30 11018 N 1019.89 -1.26353 -0.941956 0
M  V30 11019 C 1021.14 -1.12017 -1.69056 0
M  V30 11020 C 1021.47 0.335856 -1.91274 0
M  V30 11021 O 1020.74 1.24677 -1.49285 0
M  V30 11022 C 1021.03 -1.88889 -3.06583 0
M  V30 11023 C 1020.88 -3.42394 -2.91696 0
M  V30 11024 C 1022.2 -1.68209 -4.06686 0
M  V30 11025 H 1019.32 -0.408311 -0.613556 0
M  V30 11026 H 1021.96 -1.55339 -1.09407 0
M  V30 11027 H 1020.11 -1.5207 -3.57501 0
M  V30 11028 H 1021.78 -3.88962 -2.48005 0
M  V30 11029 H 1020.02 -3.69459 -2.27338 0
M  V30 11030 H 1020.7 -3.91408 -3.89235 0
M  V30 11031 H 1023.17 -2.00286 -3.64726 0
M  V30 11032 H 1022.05 -2.24412 -5.00929 0
M  V30 11033 H 1022.31 -0.626474 -4.37639 0
M  V30 11034 N 1021.37 1.14642 -1.08144 0
M  V30 11035 C 1022.3 2.21775 -0.730609 0
M  V30 11036 C 1023.28 1.67683 0.285702 0
M  V30 11037 O 1024.46 1.93567 0.156667 0
M  V30 11038 C 1021.59 3.47033 -0.136242 0
M  V30 11039 C 1020.55 4.14134 -1.0806 0
M  V30 11040 C 1019.87 5.33563 -0.348585 0
M  V30 11041 C 1021.17 4.62978 -2.41761 0
M  V30 11042 H 1022.87 2.51378 -1.62633 0
M  V30 11043 H 1020.41 1.20825 -0.783411 0
M  V30 11044 H 1022.37 4.21226 0.121182 0
M  V30 11045 H 1021.09 3.16786 0.7946 0
M  V30 11046 H 1019.75 3.41892 -1.32308 0
M  V30 11047 H 1019.4 4.99575 0.585974 0
M  V30 11048 H 1019.1 5.79402 -0.978122 0
M  V30 11049 H 1020.62 6.10519 -0.0991508 0
M  V30 11050 H 1022.04 5.28659 -2.21795 0
M  V30 11051 H 1020.43 5.1951 -3.00383 0
M  V30 11052 H 1021.5 3.78189 -3.03482 0
M  V30 11053 N 1022.85 0.866709 1.31628 0
M  V30 11054 C 1024.07 0.49039 2.01004 0
M  V30 11055 C 1024.49 -0.916244 1.65077 0
M  V30 11056 O 1023.85 -1.59975 0.8783 0
M  V30 11057 C 1023.9 0.634011 3.55897 0
M  V30 11058 O 1023.62 1.98525 3.90537 0
M  V30 11059 C 1025.12 0.258277 4.42547 0
M  V30 11060 H 1022.34 0.191421 0.643117 0
M  V30 11061 H 1024.88 1.16698 1.67934 0
M  V30 11062 H 1023.04 0.00501801 3.874 0
M  V30 11063 H 1023.45 1.99067 4.85255 0
M  V30 11064 H 1024.93 0.409733 5.50477 0
M  V30 11065 H 1025.4 -0.802301 4.3181 0
M  V30 11066 H 1026.01 0.862837 4.16456 0
M  V30 11067 N 1024.32 -1.44642 0.625825 0
M  V30 11068 C 1025.25 -2.33397 -0.0692188 0
M  V30 11069 C 1026.23 -1.47898 -0.840241 0
M  V30 11070 O 1027.42 -1.7663 -0.807176 0
M  V30 11071 C 1024.55 -3.30888 -1.055 0
M  V30 11072 C 1023.5 -4.26164 -0.395968 0
M  V30 11073 C 1022.83 -5.13483 -1.49128 0
M  V30 11074 C 1024.13 -5.17663 0.694433 0
M  V30 11075 H 1025.82 -2.91763 0.671925 0
M  V30 11076 H 1023.37 -1.40294 0.324573 0
M  V30 11077 H 1025.32 -3.91861 -1.54993 0
M  V30 11078 H 1024.05 -2.7072 -1.82696 0
M  V30 11079 H 1022.71 -3.66516 0.0782691 0
M  V30 11080 H 1022.35 -4.49672 -2.25399 0
M  V30 11081 H 1022.05 -5.78038 -1.05573 0
M  V30 11082 H 1023.58 -5.77327 -1.98813 0
M  V30 11083 H 1024.99 -5.72602 0.282818 0
M  V30 11084 H 1023.39 -5.90793 1.05281 0
M  V30 11085 H 1024.46 -4.58994 1.56372 0
M  V30 11086 N 1025.8 -0.366053 -1.5329 0
M  V30 11087 C 1027.05 0.223493 -2.01263 0
M  V30 11088 C 1027.38 1.48736 -1.25331 0
M  V30 11089 O 1026.63 1.92805 -0.335341 0
M  V30 11090 C 1026.93 0.560906 -3.52971 0
M  V30 11091 C 1026.6 -0.60869 -4.46773 0
M  V30 11092 C 1025.26 -0.929609 -4.72135 0
M  V30 11093 C 1027.61 -1.39225 -5.02261 0
M  V30 11094 C 1024.94 -2.03606 -5.50238 0
M  V30 11095 C 1027.29 -2.48912 -5.81572 0
M  V30 11096 C 1025.95 -2.81538 -6.05221 0
M  V30 11097 H 1025.22 0.0817818 -0.736473 0
M  V30 11098 H 1027.87 -0.498613 -1.84895 0
M  V30 11099 H 1026.18 1.36403 -3.67289 0
M  V30 11100 H 1027.87 1.02931 -3.87564 0
M  V30 11101 H 1024.46 -0.348529 -4.27181 0
M  V30 11102 H 1028.65 -1.15757 -4.82612 0
M  V30 11103 H 1023.9 -2.29281 -5.6678 0
M  V30 11104 H 1028.08 -3.10044 -6.23575 0
M  V30 11105 H 1025.7 -3.67396 -6.65525 0
M  V30 11106 N 1027.28 1.57312 -0.0952337 0
M  V30 11107 C 1028.53 1.93974 0.567319 0
M  V30 11108 C 1028.85 0.977805 1.68713 0
M  V30 11109 O 1028.12 0.0298944 1.95877 0
M  V30 11110 H 1026.7 0.71612 0.212558 0
M  V30 11111 H 1029.36 1.94254 -0.158598 0
M  V30 11112 H 1028.46 2.964 0.977423 0
M  V30 11113 N 1028.76 -0.17846 1.56586 0
M  V30 11114 C 1029.71 -1.24042 1.96765 0
M  V30 11115 C 1030.7 -1.46218 0.855375 0
M  V30 11116 O 1031.91 -1.46882 1.04046 0
M  V30 11117 H 1028.28 -0.416807 0.62592 0
M  V30 11118 H 1030.25 -0.874644 2.85294 0
M  V30 11119 C 1029 -2.57394 2.3376 0
M  V30 11120 H 1028.32 -2.41151 3.18883 0
M  V30 11121 H 1029.76 -3.30405 2.65723 0
M  V30 11122 C 1028.22 -3.15621 1.17835 0
M  V30 11123 O 1028.75 -3.99032 0.462202 0
M  V30 11124 N 1026.96 -2.74606 0.950783 0
M  V30 11125 H 1026.51 -2.06878 1.5349 0
M  V30 11126 H 1026.46 -3.13902 0.176967 0
M  V30 11127 N 1030.24 -1.51135 -0.446768 0
M  V30 11128 C 1031.47 -1.66887 -1.21788 0
M  V30 11129 C 1031.87 -0.361729 -1.8571 0
M  V30 11130 O 1031.22 0.668784 -1.71093 0
M  V30 11131 C 1031.28 -2.72062 -2.34994 0
M  V30 11132 C 1030.94 -4.14935 -1.91516 0
M  V30 11133 C 1031.94 -5.00021 -1.42389 0
M  V30 11134 C 1029.62 -4.60985 -1.99495 0
M  V30 11135 C 1031.62 -6.29216 -1.01816 0
M  V30 11136 C 1029.31 -5.90179 -1.58532 0
M  V30 11137 C 1030.3 -6.74121 -1.09774 0
M  V30 11138 O 1029.99 -8.009 -0.69389 0
M  V30 11139 H 1029.72 -0.563431 -0.373525 0
M  V30 11140 H 1032.28 -1.98261 -0.536818 0
M  V30 11141 H 1030.51 -2.35983 -3.06348 0
M  V30 11142 H 1032.2 -2.76788 -2.96889 0
M  V30 11143 H 1032.96 -4.6565 -1.35627 0
M  V30 11144 H 1028.84 -3.95777 -2.36393 0
M  V30 11145 H 1032.39 -6.94687 -0.636879 0
M  V30 11146 H 1028.28 -6.24066 -1.64962 0
M  V30 11147 H 1029.05 -8.14376 -0.820582 0
M  V30 11148 N 1031.71 0.701592 -1.41122 0
M  V30 11149 C 1032.94 1.49049 -1.43499 0
M  V30 11150 C 1033.36 1.88761 -0.0385684 0
M  V30 11151 O 1032.71 1.56384 0.940755 0
M  V30 11152 C 1032.76 2.7569 -2.33832 0
M  V30 11153 O 1032.49 2.37653 -3.68039 0
M  V30 11154 C 1033.99 3.69479 -2.44949 0
M  V30 11155 H 1031.21 0.459519 -0.488961 0
M  V30 11156 H 1033.75 0.864318 -1.85337 0
M  V30 11157 H 1031.91 3.34559 -1.95318 0
M  V30 11158 H 1032.32 3.19241 -4.16156 0
M  V30 11159 H 1033.79 4.55139 -3.12334 0
M  V30 11160 H 1034.27 4.13553 -1.47887 0
M  V30 11161 H 1034.88 3.16517 -2.84072 0
M  V30 11162 N 1033.19 1.2685 0.935242 0
M  V30 11163 C 1034.12 1.1143 2.05196 0
M  V30 11164 C 1035.1 0.0178362 1.70091 0
M  V30 11165 O 1036.29 0.190951 1.93259 0
M  V30 11166 C 1033.42 0.752779 3.39044 0
M  V30 11167 C 1032.37 1.80164 3.88233 0
M  V30 11168 C 1031.7 1.29428 5.18799 0
M  V30 11169 C 1033 3.20431 4.12457 0
M  V30 11170 H 1034.69 2.04845 2.18355 0
M  V30 11171 H 1032.24 0.986276 1.04922 0
M  V30 11172 H 1034.19 0.631757 4.16637 0
M  V30 11173 H 1032.91 -0.217075 3.25878 0
M  V30 11174 H 1031.57 1.91144 3.12825 0
M  V30 11175 H 1031.22 0.3141 5.02018 0
M  V30 11176 H 1030.92 1.99546 5.5268 0
M  V30 11177 H 1032.45 1.18605 5.9897 0
M  V30 11178 H 1033.86 3.12495 4.80645 0
M  V30 11179 H 1032.26 3.88193 4.57631 0
M  V30 11180 H 1033.33 3.66046 3.18023 0
M  V30 11181 N 1034.67 -1.14067 1.0875 0
M  V30 11182 C 1035.6 -2.21385 0.74236 0
M  V30 11183 C 1036.58 -1.67833 -0.276805 0
M  V30 11184 O 1037.77 -1.93647 -0.1464 0
M  V30 11185 C 1034.9 -3.46956 0.154644 0
M  V30 11186 C 1033.85 -4.13555 1.10255 0
M  V30 11187 C 1033.18 -5.3337 0.376877 0
M  V30 11188 C 1034.48 -4.6169 2.44213 0
M  V30 11189 H 1036.17 -2.50512 1.63964 0
M  V30 11190 H 1033.72 -1.20408 0.789807 0
M  V30 11191 H 1035.67 -4.21284 -0.0988419 0
M  V30 11192 H 1034.39 -3.17203 -0.777789 0
M  V30 11193 H 1033.05 -3.41186 1.34119 0
M  V30 11194 H 1032.7 -4.99879 -0.559472 0
M  V30 11195 H 1032.4 -5.78875 1.00884 0
M  V30 11196 H 1033.92 -6.10458 0.131527 0
M  V30 11197 H 1035.34 -5.27475 2.24595 0
M  V30 11198 H 1033.74 -5.17909 3.03134 0
M  V30 11199 H 1034.81 -3.76574 3.05483 0
M  V30 11200 N 1036.15 -0.873678 -1.31166 0
M  V30 11201 C 1037.1 -0.321349 -2.3037 0
M  V30 11202 C 1038.09 0.565568 -1.5968 0
M  V30 11203 O 1039.3 0.451257 -1.74252 0
M  V30 11204 H 1035.67 -0.0852425 -0.747153 0
M  V30 11205 H 1037.64 -1.17191 -2.74425 0
M  V30 11206 C 1036.39 0.459016 -3.44657 0
M  V30 11207 H 1035.71 -0.214185 -3.99226 0
M  V30 11208 H 1037.15 0.810758 -4.16176 0
M  V30 11209 C 1035.61 1.65173 -2.93632 0
M  V30 11210 O 1036.14 2.75105 -2.92711 0
M  V30 11211 N 1034.35 1.4851 -2.49786 0
M  V30 11212 H 1033.9 0.590785 -2.50734 0
M  V30 11213 H 1033.85 2.28452 -2.16002 0
M  V30 11214 N 1037.63 1.44308 -0.633487 0
M  V30 11215 C 1038.87 2.02322 -0.139123 0
M  V30 11216 C 1039.21 1.49733 1.23667 0
M  V30 11217 O 1038.48 0.682353 1.82138 0
M  V30 11218 C 1038.76 3.59871 -0.128366 0
M  V30 11219 C 1038.62 4.22737 -1.53667 0
M  V30 11220 C 1039.94 4.36702 0.545834 0
M  V30 11221 H 1037.05 0.735161 -0.0520293 0
M  V30 11222 H 1039.7 1.7185 -0.810411 0
M  V30 11223 H 1037.85 3.85963 0.443263 0
M  V30 11224 H 1039.52 4.07744 -2.15737 0
M  V30 11225 H 1037.76 3.80142 -2.08985 0
M  V30 11226 H 1038.43 5.31757 -1.48116 0
M  V30 11227 H 1040.91 4.16057 0.0596879 0
M  V30 11228 H 1039.78 5.46407 0.522557 0
M  V30 11229 H 1040.05 4.11483 1.6166 0
M  V30 11230 N 1039.1 0.374177 1.53094 0
M  V30 11231 C 1040.35 -0.212816 2.01379 0
M  V30 11232 C 1040.68 -1.48069 1.26118 0
M  V30 11233 O 1039.93 -1.92625 0.345561 0
M  V30 11234 C 1040.23 -0.542179 3.53264 0
M  V30 11235 C 1039.9 0.632375 4.46444 0
M  V30 11236 C 1038.56 0.954635 4.71636 0
M  V30 11237 C 1040.91 1.41887 5.01515 0
M  V30 11238 C 1038.24 2.06521 5.4915 0
M  V30 11239 C 1040.59 2.51993 5.80243 0
M  V30 11240 C 1039.26 2.84744 6.03719 0
M  V30 11241 H 1038.53 -0.0778749 0.736897 0
M  V30 11242 H 1041.17 0.508412 1.84628 0
M  V30 11243 H 1039.48 -1.34454 3.68007 0
M  V30 11244 H 1041.18 -1.00874 3.88105 0
M  V30 11245 H 1037.77 0.371179 4.2699 0
M  V30 11246 H 1041.95 1.18315 4.81991 0
M  V30 11247 H 1037.21 2.32284 5.65557 0
M  V30 11248 H 1041.38 3.13346 6.21922 0
M  V30 11249 H 1039.01 3.70921 6.63568 0
M  V30 11250 N 1040.58 -1.57259 0.103575 0
M  V30 11251 C 1041.51 -2.17509 -0.84923 0
M  V30 11252 C 1042.49 -1.11079 -1.28824 0
M  V30 11253 O 1043.68 -1.39252 -1.35361 0
M  V30 11254 C 1040.81 -2.76221 -2.10522 0
M  V30 11255 C 1039.76 -3.88098 -1.80454 0
M  V30 11256 C 1039.09 -4.33549 -3.12952 0
M  V30 11257 C 1040.39 -5.10909 -1.08486 0
M  V30 11258 H 1042.08 -2.9738 -0.347217 0
M  V30 11259 H 1039.63 -1.43045 -0.165568 0
M  V30 11260 H 1041.58 -3.17024 -2.77621 0
M  V30 11261 H 1040.31 -1.93617 -2.63021 0
M  V30 11262 H 1038.96 -3.47847 -1.15749 0
M  V30 11263 H 1038.61 -3.47825 -3.63355 0
M  V30 11264 H 1038.31 -5.08984 -2.93614 0
M  V30 11265 H 1039.84 -4.76992 -3.81196 0
M  V30 11266 H 1041.25 -5.48828 -1.65711 0
M  V30 11267 H 1039.65 -5.91828 -0.992973 0
M  V30 11268 H 1040.72 -4.84851 -0.0690108 0
M  V30 11269 N 1042.06 0.170153 -1.56679 0
M  V30 11270 C 1043.02 1.19443 -1.95617 0
M  V30 11271 C 1044.02 1.37118 -0.83996 0
M  V30 11272 O 1045.21 1.34504 -1.10699 0
M  V30 11273 C 1042.35 2.55926 -2.25199 0
M  V30 11274 H 1043.54 0.86095 -2.87276 0
M  V30 11275 H 1041.09 0.412646 -1.50755 0
M  V30 11276 H 1041.83 2.94286 -1.36257 0
M  V30 11277 H 1041.61 2.44464 -3.06562 0
M  V30 11278 H 1043.1 3.29742 -2.56242 0
M  V30 11279 N 1043.54 1.5137 0.438746 0
M  V30 11280 C 1044.79 1.63202 1.18524 0
M  V30 11281 C 1045.1 0.353408 1.92381 0
M  V30 11282 O 1046.31 0.351086 2.6922 0
M  V30 11283 C 1044.76 2.88218 2.15542 0
M  V30 11284 C 1044.37 4.23078 1.47339 0
M  V30 11285 C 1046.11 3.09407 2.90633 0
M  V30 11286 C 1044.02 5.39246 2.42833 0
M  V30 11287 H 1042.95 0.607864 0.446114 0
M  V30 11288 H 1045.6 1.77835 0.452421 0
M  V30 11289 H 1043.98 2.67216 2.92253 0
M  V30 11290 H 1045.16 4.54457 0.761964 0
M  V30 11291 H 1043.47 4.07755 0.844065 0
M  V30 11292 H 1046.07 3.9337 3.62165 0
M  V30 11293 H 1046.41 2.22428 3.51897 0
M  V30 11294 H 1046.95 3.30743 2.21029 0
M  V30 11295 H 1043.69 6.2848 1.8626 0
M  V30 11296 H 1043.21 5.12245 3.12034 0
M  V30 11297 H 1044.88 5.71137 3.03992 0
M  V30 11298 N 1045.02 -0.694098 1.41492 0
M  V30 11299 C 1045.98 -1.78976 1.43179 0
M  V30 11300 C 1046.98 -1.57539 0.322191 0
M  V30 11301 O 1048.17 -1.64185 0.582138 0
M  V30 11302 C 1045.3 -3.17368 1.2446 0
M  V30 11303 H 1046.49 -1.78874 2.40716 0
M  V30 11304 H 1044.05 -0.901867 1.27656 0
M  V30 11305 H 1044.78 -3.23109 0.277691 0
M  V30 11306 H 1044.57 -3.3433 2.04856 0
M  V30 11307 H 1046.06 -3.97345 1.28479 0
M  V30 11308 N 1046.49 -1.27344 -0.928501 0
M  V30 11309 C 1047.74 -1.13804 -1.67859 0
M  V30 11310 C 1048.07 0.31555 -1.91619 0
M  V30 11311 O 1047.35 1.23087 -1.50599 0
M  V30 11312 C 1047.63 -1.9213 -3.04562 0
M  V30 11313 C 1047.48 -3.45468 -2.88048 0
M  V30 11314 C 1048.8 -1.72513 -4.04879 0
M  V30 11315 H 1045.92 -0.414796 -0.609191 0
M  V30 11316 H 1048.56 -1.5649 -1.07753 0
M  V30 11317 H 1046.71 -1.55853 -3.55868 0
M  V30 11318 H 1048.39 -3.9157 -2.43865 0
M  V30 11319 H 1046.63 -3.71849 -2.23407 0
M  V30 11320 H 1047.3 -3.95515 -3.85061 0
M  V30 11321 H 1049.78 -2.04143 -3.62581 0
M  V30 11322 H 1048.65 -2.29713 -4.98521 0
M  V30 11323 H 1048.91 -0.672856 -4.3695 0
M  V30 11324 N 1047.97 1.13488 -1.09353 0
M  V30 11325 C 1049.25 1.80998 -0.741559 0
M  V30 11326 C 1049.63 1.96418 0.773505 0
M  V30 11327 O 1048.98 1.53168 1.69563 0
M  V30 11328 C 1049.19 3.16078 -1.47972 0
M  V30 11329 C 1050.54 3.91438 -1.64504 0
M  V30 11330 O 1051.56 3.25699 -1.44218 0
M  V30 11331 O 1050.42 5.0935 -1.98054 0
M  V30 11332 H 1047.51 0.782953 -0.266297 0
M  V30 11333 H 1050.06 1.20422 -1.19569 0
M  V30 11334 H 1048.83 3.00076 -2.51137 0
M  V30 11335 H 1048.45 3.84354 -1.01772 0
M  V30 11336 N 1049.45 0.880621 1.30701 0
M  V30 11337 C 1050.4 0.333562 2.30196 0
M  V30 11338 C 1051.39 -0.557092 1.59978 0
M  V30 11339 O 1052.6 -0.442009 1.74489 0
M  V30 11340 H 1048.97 0.0892036 0.746691 0
M  V30 11341 H 1050.95 1.18644 2.73799 0
M  V30 11342 C 1049.69 -0.440731 3.44895 0
M  V30 11343 H 1049.02 0.235353 3.99107 0
M  V30 11344 H 1050.46 -0.788676 4.166 0
M  V30 11345 C 1048.92 -1.63613 2.94504 0
M  V30 11346 O 1049.45 -2.73549 2.94166 0
M  V30 11347 N 1047.65 -1.47183 2.5057 0
M  V30 11348 H 1047.2 -0.577479 2.51044 0
M  V30 11349 H 1047.16 -2.27303 2.17211 0
M  V30 11350 N 1050.93 -1.4397 0.641131 0
M  V30 11351 C 1051.86 -2.33458 -0.04446 0
M  V30 11352 C 1052.84 -1.48781 -0.824507 0
M  V30 11353 O 1054.03 -1.77477 -0.788397 0
M  V30 11354 C 1051.16 -3.31989 -1.01984 0
M  V30 11355 C 1050.11 -4.2656 -0.350745 0
M  V30 11356 C 1049.44 -5.15036 -1.43673 0
M  V30 11357 C 1050.74 -5.16897 0.749299 0
M  V30 11358 H 1052.43 -2.91034 0.702832 0
M  V30 11359 H 1049.98 -1.39942 0.339435 0
M  V30 11360 H 1051.93 -3.93483 -1.50828 0
M  V30 11361 H 1050.65 -2.72643 -1.79815 0
M  V30 11362 H 1049.31 -3.66413 0.117139 0
M  V30 11363 H 1048.96 -4.52037 -2.20617 0
M  V30 11364 H 1048.66 -5.79125 -0.994358 0
M  V30 11365 H 1050.18 -5.79403 -1.92678 0
M  V30 11366 H 1051.6 -5.7227 0.343534 0
M  V30 11367 H 1049.99 -5.89643 1.11541 0
M  V30 11368 H 1051.06 -4.5731 1.61232 0
M  V30 11369 N 1052.41 -0.382291 -1.52893 0
M  V30 11370 C 1053.37 0.44408 -2.24857 0
M  V30 11371 C 1054.37 0.996004 -1.26239 0
M  V30 11372 O 1055.56 0.879114 -1.5039 0
M  V30 11373 C 1052.69 1.62234 -2.99822 0
M  V30 11374 H 1053.89 -0.185862 -2.99324 0
M  V30 11375 H 1051.44 -0.134275 -1.55722 0
M  V30 11376 H 1052.17 2.28991 -2.29638 0
M  V30 11377 H 1051.96 1.23336 -3.72197 0
M  V30 11378 H 1053.45 2.20756 -3.54481 0
M  V30 11379 N 1053.89 1.57202 -0.111913 0
M  V30 11380 C 1054.83 2.16186 0.858286 0
M  V30 11381 C 1055.83 1.10917 1.28039 0
M  V30 11382 O 1057.03 1.29233 1.25295 0
M  V30 11383 H 1053.41 0.691777 0.29487 0
M  V30 11384 H 1055.38 2.96499 0.336265 0
M  V30 11385 C 1054.13 2.77024 2.10127 0
M  V30 11386 H 1053.45 3.5772 1.78539 0
M  V30 11387 H 1054.89 3.21841 2.76033 0
M  V30 11388 C 1053.35 1.73752 2.88638 0
M  V30 11389 O 1053.88 1.18659 3.83774 0
M  V30 11390 N 1052.09 1.43855 2.52496 0
M  V30 11391 H 1051.63 1.88846 1.75199 0
M  V30 11392 H 1051.59 0.749985 3.05324 0
M  V30 11393 N 1055.36 -0.161842 1.56767 0
M  V30 11394 C 1056.33 -1.18404 1.96247 0
M  V30 11395 C 1057.33 -1.3667 0.84722 0
M  V30 11396 O 1058.52 -1.33915 1.11411 0
M  V30 11397 C 1055.65 -2.54728 2.26553 0
M  V30 11398 H 1056.84 -0.845703 2.87729 0
M  V30 11399 H 1054.39 -0.404645 1.50971 0
M  V30 11400 H 1055.13 -2.93559 1.37816 0
M  V30 11401 H 1054.91 -2.42834 3.07854 0
M  V30 11402 H 1056.4 -3.28378 2.57987 0
M  V30 11403 N 1056.84 -1.516 -0.430713 0
M  V30 11404 C 1057.77 -1.69594 -1.54177 0
M  V30 11405 C 1058.79 -0.576518 -1.5225 0
M  V30 11406 O 1059.98 -0.85104 -1.56906 0
M  V30 11407 C 1057.08 -1.70148 -2.93092 0
M  V30 11408 C 1056.25 -2.98782 -3.1945 0
M  V30 11409 C 1055.31 -2.91435 -4.38123 0
M  V30 11410 O 1054.33 -3.65372 -4.36454 0
M  V30 11411 N 1055.54 -2.0774 -5.42056 0
M  V30 11412 H 1058.3 -2.65442 -1.39143 0
M  V30 11413 H 1055.86 -1.49569 -0.61974 0
M  V30 11414 H 1057.85 -1.62793 -3.70514 0
M  V30 11415 H 1056.42 -0.818667 -3.0169 0
M  V30 11416 H 1055.64 -3.19954 -2.30267 0
M  V30 11417 H 1056.93 -3.83919 -3.33892 0
M  V30 11418 H 1056.33 -1.47059 -5.46251 0
M  V30 11419 H 1054.89 -2.06259 -6.18305 0
M  V30 11420 N 1058.32 0.686584 -1.41858 0
M  V30 11421 C 1059.23 1.83002 -1.46791 0
M  V30 11422 C 1060.25 1.70284 -0.357675 0
M  V30 11423 O 1061.42 1.92042 -0.606781 0
M  V30 11424 C 1058.49 3.19056 -1.35661 0
M  V30 11425 C 1057.55 3.43817 -2.57077 0
M  V30 11426 C 1056.78 4.7338 -2.46469 0
M  V30 11427 O 1057 5.50483 -1.49413 0
M  V30 11428 O 1055.94 4.99124 -3.36391 0
M  V30 11429 H 1059.76 1.81797 -2.43277 0
M  V30 11430 H 1057.35 0.840812 -1.23494 0
M  V30 11431 H 1059.23 4.00267 -1.31773 0
M  V30 11432 H 1057.91 3.20925 -0.422951 0
M  V30 11433 H 1056.81 2.625 -2.66541 0
M  V30 11434 H 1058.15 3.4677 -3.49302 0
M  V30 11435 N 1059.8 1.27835 0.921735 0
M  V30 11436 C 1060.73 1.136 2.04003 0
M  V30 11437 C 1061.71 0.0358756 1.70062 0
M  V30 11438 O 1062.89 0.211438 1.93046 0
M  V30 11439 C 1060.02 0.788697 3.38226 0
M  V30 11440 C 1058.98 1.84272 3.863 0
M  V30 11441 C 1058.3 1.34923 5.17397 0
M  V30 11442 C 1059.6 3.24788 4.09035 0
M  V30 11443 H 1061.3 2.07149 2.1617 0
M  V30 11444 H 1058.84 0.997349 1.0387 0
M  V30 11445 H 1060.8 0.675911 4.15944 0
M  V30 11446 H 1059.52 -0.182499 3.2609 0
M  V30 11447 H 1058.18 1.94451 3.1078 0
M  V30 11448 H 1057.83 0.367328 5.01657 0
M  V30 11449 H 1057.53 2.05397 5.50532 0
M  V30 11450 H 1059.05 1.24951 5.97678 0
M  V30 11451 H 1060.47 3.17575 4.77304 0
M  V30 11452 H 1058.86 3.93025 4.53488 0
M  V30 11453 H 1059.93 3.69398 3.14122 0
M  V30 11454 N 1061.28 -1.12907 1.09954 0
M  V30 11455 C 1062.5 -1.88138 0.860905 0
M  V30 11456 C 1062.92 -1.79402 -0.588256 0
M  V30 11457 O 1062.28 -1.16442 -1.40526 0
M  V30 11458 C 1062.33 -3.37537 1.29425 0
M  V30 11459 O 1062.05 -3.46056 2.68658 0
M  V30 11460 C 1063.55 -4.29721 1.08879 0
M  V30 11461 H 1060.77 -0.595437 0.309347 0
M  V30 11462 H 1063.31 -1.42894 1.46292 0
M  V30 11463 H 1061.47 -3.80344 0.736009 0
M  V30 11464 H 1061.88 -4.38969 2.87065 0
M  V30 11465 H 1063.36 -5.32854 1.4412 0
M  V30 11466 H 1063.83 -4.39192 0.0270053 0
M  V30 11467 H 1064.44 -3.9269 1.63325 0
M  V30 11468 N 1062.75 -0.88754 -1.30232 0
M  V30 11469 C 1063.7 -0.354497 -2.28061 0
M  V30 11470 C 1064.67 0.556732 -1.56492 0
M  V30 11471 O 1065.86 0.484597 -1.84543 0
M  V30 11472 C 1063 0.422701 -3.42501 0
M  V30 11473 C 1062.11 -0.518036 -4.28883 0
M  V30 11474 C 1061.24 0.275011 -5.30488 0
M  V30 11475 C 1060.28 -0.661032 -6.0852 0
M  V30 11476 N 1059.42 0.0968509 -7.02033 0
M  V30 11477 H 1064.26 -1.19388 -2.73039 0
M  V30 11478 H 1061.8 -0.600091 -1.34303 0
M  V30 11479 H 1063.75 0.889249 -4.07613 0
M  V30 11480 H 1062.38 1.22664 -2.98586 0
M  V30 11481 H 1061.44 -1.10308 -3.64055 0
M  V30 11482 H 1062.75 -1.23504 -4.83268 0
M  V30 11483 H 1061.9 0.803301 -6.01358 0
M  V30 11484 H 1060.64 1.02522 -4.76802 0
M  V30 11485 H 1059.65 -1.20093 -5.36524 0
M  V30 11486 H 1060.87 -1.41037 -6.64293 0
M  V30 11487 H 1058.82 0.829548 -6.50734 0
M  V30 11488 H 1058.73 -0.560476 -7.5392 0
M  V30 11489 H 1060 0.6058 -7.77142 0
M  V30 11490 N 1064.23 1.43628 -0.648757 0
M  V30 11491 C 1065.51 1.95391 -0.0904551 0
M  V30 11492 C 1065.89 1.59021 1.38837 0
M  V30 11493 O 1065.24 0.873078 2.11163 0
M  V30 11494 C 1065.45 3.47418 -0.33196 0
M  V30 11495 C 1066.8 4.23952 -0.234521 0
M  V30 11496 O 1067.82 3.55218 -0.264276 0
M  V30 11497 O 1066.68 5.46282 -0.154428 0
M  V30 11498 H 1063.77 0.82691 0.0121884 0
M  V30 11499 H 1066.32 1.5359 -0.721685 0
M  V30 11500 H 1065.09 3.67001 -1.35741 0
M  V30 11501 H 1064.71 3.96207 0.332556 0
M  V30 11502 N 1065.71 0.390394 1.52688 0
M  V30 11503 C 1066.62 -0.451543 2.30213 0
M  V30 11504 C 1067.64 -1.07051 1.37172 0
M  V30 11505 O 1068.81 -1.07609 1.70242 0
M  V30 11506 C 1065.88 -1.56299 3.0947 0
M  V30 11507 C 1064.94 -0.969017 4.18221 0
M  V30 11508 C 1064.17 -2.0275 4.93688 0
M  V30 11509 O 1064.39 -3.24273 4.69258 0
M  V30 11510 O 1063.33 -1.64418 5.79008 0
M  V30 11511 H 1067.15 0.180042 3.03166 0
M  V30 11512 H 1064.74 0.154082 1.48603 0
M  V30 11513 H 1066.62 -2.20864 3.58883 0
M  V30 11514 H 1065.3 -2.17952 2.3933 0
M  V30 11515 H 1064.2 -0.286587 3.73001 0
M  V30 11516 H 1065.54 -0.396687 4.90599 0
M  V30 11517 N 1067.19 -1.57141 0.120249 0
M  V30 11518 C 1068.1 -2.18925 -0.843155 0
M  V30 11519 C 1069.11 -1.16575 -1.29175 0
M  V30 11520 O 1070.29 -1.4905 -1.35448 0
M  V30 11521 C 1067.36 -2.7775 -2.075 0
M  V30 11522 C 1066.42 -3.95139 -1.6782 0
M  V30 11523 C 1065.65 -4.51149 -2.85132 0
M  V30 11524 O 1065.87 -4.06056 -4.00593 0
M  V30 11525 O 1064.81 -5.41815 -2.62145 0
M  V30 11526 H 1068.63 -3.01707 -0.347357 0
M  V30 11527 H 1066.22 -1.49028 -0.105427 0
M  V30 11528 H 1068.1 -3.15243 -2.79643 0
M  V30 11529 H 1066.77 -1.97998 -2.56083 0
M  V30 11530 H 1065.68 -3.62412 -0.927807 0
M  V30 11531 H 1067.01 -4.7633 -1.23977 0
M  V30 11532 N 1068.67 0.153526 -1.5685 0
M  V30 11533 C 1069.58 1.20932 -2.01029 0
M  V30 11534 C 1070.59 1.47401 -0.924598 0
M  V30 11535 O 1071.77 1.592 -1.23359 0
M  V30 11536 C 1068.83 2.52438 -2.37647 0
M  V30 11537 C 1067.89 2.33673 -3.60132 0
M  V30 11538 C 1067.13 3.58909 -3.94994 0
M  V30 11539 O 1067.35 4.64823 -3.30599 0
M  V30 11540 O 1066.28 3.5196 -4.8827 0
M  V30 11541 H 1070.11 0.864273 -2.91143 0
M  V30 11542 H 1067.7 0.361755 -1.44954 0
M  V30 11543 H 1069.58 3.29981 -2.62088 0
M  V30 11544 H 1068.25 2.86486 -1.5069 0
M  V30 11545 H 1067.16 1.54102 -3.40886 0
M  V30 11546 H 1068.49 2.04544 -4.47686 0
M  V30 11547 N 1070.14 1.51827 0.422667 0
M  V30 11548 C 1071.08 1.68901 1.53453 0
M  V30 11549 C 1072.06 0.536549 1.53492 0
M  V30 11550 O 1073.24 0.762226 1.72402 0
M  V30 11551 C 1070.37 1.71599 2.92013 0
M  V30 11552 C 1069.41 2.92984 3.0994 0
M  V30 11553 S 1070.25 4.53559 2.84683 0
M  V30 11554 C 1071.4 4.59024 4.25498 0
M  V30 11555 H 1071.63 2.62943 1.38739 0
M  V30 11556 H 1069.17 1.41695 0.613347 0
M  V30 11557 H 1071.13 1.73838 3.71874 0
M  V30 11558 H 1069.79 0.787083 3.04079 0
M  V30 11559 H 1068.98 2.91315 4.1128 0
M  V30 11560 H 1068.58 2.88562 2.37924 0
M  V30 11561 H 1070.87 4.35567 5.18929 0
M  V30 11562 H 1071.82 5.60904 4.32195 0
M  V30 11563 H 1072.22 3.88193 4.09837 0
M  V30 11564 N 1071.62 -0.679052 1.4222 0
M  V30 11565 C 1072.53 -1.82221 1.47759 0
M  V30 11566 C 1073.55 -1.70092 0.3667 0
M  V30 11567 O 1074.72 -1.91718 0.616957 0
M  V30 11568 C 1071.79 -3.18332 1.37351 0
M  V30 11569 C 1070.85 -3.42449 2.58896 0
M  V30 11570 C 1070.08 -4.72067 2.48976 0
M  V30 11571 O 1070.31 -5.49683 1.5233 0
M  V30 11572 O 1069.24 -4.97333 3.39033 0
M  V30 11573 H 1073.07 -1.80504 2.44238 0
M  V30 11574 H 1070.65 -0.834251 1.23938 0
M  V30 11575 H 1072.53 -3.99563 1.33893 0
M  V30 11576 H 1071.21 -3.20696 0.439965 0
M  V30 11577 H 1070.12 -2.61083 2.6793 0
M  V30 11578 H 1071.45 -3.44912 3.51136 0
M  V30 11579 N 1073.1 -1.28322 -0.914942 0
M  V30 11580 C 1074.01 -1.13993 -2.05043 0
M  V30 11581 C 1075.03 -0.0667921 -1.73872 0
M  V30 11582 O 1076.2 -0.275845 -1.99502 0
M  V30 11583 C 1073.27 -0.801856 -3.373 0
M  V30 11584 C 1072.33 -1.95723 -3.82088 0
M  V30 11585 C 1071.56 -1.63519 -5.08033 0
M  V30 11586 O 1071.78 -0.54899 -5.67752 0
M  V30 11587 O 1070.72 -2.47844 -5.48504 0
M  V30 11588 H 1074.54 -2.09313 -2.2005 0
M  V30 11589 H 1072.13 -1.0763 -1.03616 0
M  V30 11590 H 1074.01 -0.627214 -4.16706 0
M  V30 11591 H 1072.69 0.121696 -3.23471 0
M  V30 11592 H 1071.59 -2.18702 -3.03514 0
M  V30 11593 H 1072.93 -2.86144 -4.00478 0
M  V30 11594 N 1074.58 1.12322 -1.10551 0
M  V30 11595 C 1075.54 2.16273 -0.758844 0
M  V30 11596 C 1076.54 1.59325 0.217294 0
M  V30 11597 O 1077.73 1.74199 -0.00601346 0
M  V30 11598 C 1074.86 3.40674 -0.124238 0
M  V30 11599 H 1076.06 2.48454 -1.6796 0
M  V30 11600 H 1073.61 1.2735 -0.906188 0
M  V30 11601 H 1074.34 3.14094 0.807194 0
M  V30 11602 H 1074.13 3.83284 -0.826772 0
M  V30 11603 H 1075.62 4.17474 0.102502 0
M  V30 11604 N 1076.06 0.894434 1.2976 0
M  V30 11605 C 1077.02 0.373094 2.26143 0
M  V30 11606 C 1078.02 -0.489756 1.5316 0
M  V30 11607 O 1079.21 -0.29556 1.71674 0
M  V30 11608 C 1076.34 -0.467234 3.37683 0
M  V30 11609 H 1077.53 1.22427 2.73773 0
M  V30 11610 H 1075.09 0.672112 1.41111 0
M  V30 11611 H 1075.82 -1.33861 2.95384 0
M  V30 11612 H 1075.61 0.150954 3.91809 0
M  V30 11613 H 1077.1 -0.823469 4.094 0
M  V30 11614 N 1077.53 -1.43282 0.656365 0
M  V30 11615 C 1078.48 -2.32556 -0.0452037 0
M  V30 11616 C 1079.48 -1.48789 -0.80982 0
M  V30 11617 O 1080.68 -1.64979 -0.719865 0
M  V30 11618 H 1077.06 -0.751258 -0.0334043 0
M  V30 11619 H 1079.03 -2.89448 0.725423 0
M  V30 11620 C 1077.78 -3.33138 -0.995706 0
M  V30 11621 H 1077.1 -3.97622 -0.416774 0
M  V30 11622 H 1078.54 -3.98231 -1.45562 0
M  V30 11623 C 1077 -2.63978 -2.09325 0
M  V30 11624 O 1077.53 -2.45769 -3.17743 0
M  V30 11625 N 1075.74 -2.23301 -1.8597 0
M  V30 11626 H 1075.28 -2.38312 -0.97802 0
M  V30 11627 H 1075.24 -1.77358 -2.59599 0
M  V30 11628 N 1079.01 -0.398486 -1.52479 0
M  V30 11629 C 1079.95 0.467426 -2.24383 0
M  V30 11630 C 1080.96 1.01908 -1.26959 0
M  V30 11631 O 1082.15 0.919843 -1.52974 0
M  V30 11632 C 1079.25 1.66146 -2.95379 0
M  V30 11633 C 1078.42 1.23557 -4.19586 0
M  V30 11634 C 1077.48 2.29532 -4.73499 0
M  V30 11635 O 1076.51 1.90561 -5.36354 0
M  V30 11636 N 1077.71 3.61564 -4.5415 0
M  V30 11637 H 1080.47 -0.148653 -2.99331 0
M  V30 11638 H 1078.03 -0.225313 -1.60325 0
M  V30 11639 H 1080.03 2.36585 -3.28344 0
M  V30 11640 H 1078.6 2.18369 -2.23682 0
M  V30 11641 H 1077.82 0.359715 -3.92555 0
M  V30 11642 H 1079.1 0.927812 -5.00269 0
M  V30 11643 H 1078.5 3.95983 -4.03998 0
M  V30 11644 H 1077.06 4.2801 -4.9158 0
M  V30 11645 N 1080.49 1.57075 -0.12858 0
M  V30 11646 C 1081.44 2.15816 0.818064 0
M  V30 11647 C 1082.41 1.08581 1.25696 0
M  V30 11648 O 1083.59 1.36535 1.33277 0
M  V30 11649 C 1080.73 2.76943 2.05905 0
M  V30 11650 C 1079.85 3.98514 1.66764 0
M  V30 11651 C 1078.98 4.47698 2.85902 0
M  V30 11652 C 1078.02 5.61778 2.43047 0
M  V30 11653 N 1077.16 6.05662 3.5513 0
M  V30 11654 H 1082 2.9638 0.310318 0
M  V30 11655 H 1079.53 1.46418 0.141472 0
M  V30 11656 H 1081.49 3.10519 2.78629 0
M  V30 11657 H 1080.12 1.99053 2.54122 0
M  V30 11658 H 1079.17 3.71038 0.838766 0
M  V30 11659 H 1080.49 4.81215 1.31277 0
M  V30 11660 H 1079.64 4.83233 3.66839 0
M  V30 11661 H 1078.38 3.63967 3.24622 0
M  V30 11662 H 1077.38 5.25838 1.60544 0
M  V30 11663 H 1078.61 6.47282 2.05433 0
M  V30 11664 H 1076.56 5.2487 3.93506 0
M  V30 11665 H 1076.47 6.83242 3.23598 0
M  V30 11666 H 1077.74 6.45838 4.36479 0
M  V30 11667 N 1081.97 -0.145205 1.5693 0
M  V30 11668 C 1082.9 -1.18096 2.01434 0
M  V30 11669 C 1083.88 -1.447 0.894204 0
M  V30 11670 O 1085.07 -1.55589 1.16214 0
M  V30 11671 C 1082.2 -2.51369 2.39647 0
M  V30 11672 C 1081.15 -2.39283 3.54863 0
M  V30 11673 C 1080.48 -3.77283 3.78895 0
M  V30 11674 C 1081.78 -1.8754 4.87469 0
M  V30 11675 H 1083.47 -0.810897 2.8821 0
M  V30 11676 H 1081.02 -0.388624 1.38657 0
M  V30 11677 H 1082.97 -3.24054 2.69382 0
M  V30 11678 H 1081.69 -2.90214 1.49811 0
M  V30 11679 H 1080.35 -1.6905 3.25296 0
M  V30 11680 H 1080 -4.13567 2.86307 0
M  V30 11681 H 1079.7 -3.70057 4.56433 0
M  V30 11682 H 1081.22 -4.51514 4.11057 0
M  V30 11683 H 1082.64 -2.50019 5.1591 0
M  V30 11684 H 1081.03 -1.912 5.68826 0
M  V30 11685 H 1082.1 -0.831194 4.77723 0
M  V30 11686 N 1083.45 -1.52049 -0.414609 0
M  V30 11687 C 1084.41 -1.74382 -1.4874 0
M  V30 11688 C 1085.41 -0.613701 -1.48628 0
M  V30 11689 O 1086.6 -0.88152 -1.50249 0
M  V30 11690 C 1083.73 -1.82116 -2.88178 0
M  V30 11691 H 1084.93 -2.70147 -1.30233 0
M  V30 11692 H 1082.48 -1.42382 -0.644756 0
M  V30 11693 H 1083.21 -0.882457 -3.12063 0
M  V30 11694 H 1083 -2.64268 -2.89663 0
M  V30 11695 H 1084.49 -2.01155 -3.65959 0
M  V30 11696 N 1084.93 0.6715 -1.42579 0
M  V30 11697 C 1085.86 1.79693 -1.49107 0
M  V30 11698 C 1086.84 1.66516 -0.347338 0
M  V30 11699 O 1088.02 1.85887 -0.562094 0
M  V30 11700 C 1085.15 3.1801 -1.39596 0
M  V30 11701 C 1084.11 3.45926 -2.5203 0
M  V30 11702 C 1083.43 4.83852 -2.27577 0
M  V30 11703 C 1084.73 3.4249 -3.94333 0
M  V30 11704 H 1086.43 1.74486 -2.433 0
M  V30 11705 H 1083.97 0.838042 -1.17102 0
M  V30 11706 H 1085.92 3.96478 -1.42771 0
M  V30 11707 H 1084.65 3.23901 -0.418989 0
M  V30 11708 H 1083.31 2.6982 -2.48178 0
M  V30 11709 H 1082.96 4.86398 -1.28165 0
M  V30 11710 H 1082.66 5.03493 -3.02934 0
M  V30 11711 H 1084.18 5.646 -2.32506 0
M  V30 11712 H 1085.59 4.10922 -3.9977 0
M  V30 11713 H 1083.99 3.73666 -4.69568 0
M  V30 11714 H 1085.06 2.41002 -4.20768 0
M  V30 11715 N 1086.4 1.28806 0.908124 0
M  V30 11716 C 1087.34 1.09018 2.01613 0
M  V30 11717 C 1088.35 0.0402059 1.6275 0
M  V30 11718 O 1089.54 0.283853 1.76229 0
M  V30 11719 C 1086.64 0.635712 3.32884 0
M  V30 11720 C 1085.81 1.76235 4.00325 0
M  V30 11721 C 1084.87 1.3003 5.09881 0
M  V30 11722 O 1083.9 2.00354 5.32773 0
M  V30 11723 N 1085.1 0.166575 5.80261 0
M  V30 11724 H 1087.86 2.0444 2.19144 0
M  V30 11725 H 1085.42 1.20633 1.07978 0
M  V30 11726 H 1087.42 0.310097 4.0351 0
M  V30 11727 H 1085.99 -0.225816 3.11783 0
M  V30 11728 H 1085.21 2.25727 3.23173 0
M  V30 11729 H 1086.49 2.51796 4.42127 0
M  V30 11730 H 1085.89 -0.419934 5.64139 0
M  V30 11731 H 1084.45 -0.0997281 6.51724 0
M  V30 11732 N 1087.88 -1.11734 1.11145 0
M  V30 11733 C 1088.83 -2.17683 0.766979 0
M  V30 11734 C 1089.8 -1.64051 -0.260108 0
M  V30 11735 O 1090.98 -1.90302 -0.137723 0
M  V30 11736 C 1088.12 -3.44442 0.212982 0
M  V30 11737 C 1087.24 -4.12094 1.29626 0
M  V30 11738 C 1086.37 -5.26526 0.703127 0
M  V30 11739 C 1085.41 -5.86057 1.76647 0
M  V30 11740 N 1084.55 -6.91889 1.19306 0
M  V30 11741 H 1089.39 -2.46495 1.67465 0
M  V30 11742 H 1086.92 -1.21011 0.836353 0
M  V30 11743 H 1088.88 -4.17009 -0.126162 0
M  V30 11744 H 1087.51 -3.16025 -0.657888 0
M  V30 11745 H 1086.56 -3.37631 1.75241 0
M  V30 11746 H 1087.88 -4.52398 2.10089 0
M  V30 11747 H 1087.03 -6.05888 0.313859 0
M  V30 11748 H 1085.77 -4.87519 -0.132856 0
M  V30 11749 H 1084.77 -5.05375 2.16508 0
M  V30 11750 H 1086 -6.27132 2.60543 0
M  V30 11751 H 1083.95 -6.54906 0.378664 0
M  V30 11752 H 1083.86 -7.30832 1.93443 0
M  V30 11753 H 1085.13 -7.75062 0.830578 0
M  V30 11754 N 1089.36 -0.901303 -1.29284 0
M  V30 11755 C 1090.32 -0.385081 -2.25942 0
M  V30 11756 C 1091.32 0.481626 -1.53418 0
M  V30 11757 O 1092.51 0.286451 -1.71829 0
M  V30 11758 C 1089.64 0.449319 -3.37926 0
M  V30 11759 H 1090.84 -1.23877 -2.7312 0
M  V30 11760 H 1088.39 -0.679586 -1.40753 0
M  V30 11761 H 1089.13 1.32292 -2.9609 0
M  V30 11762 H 1088.91 -0.171731 -3.91724 0
M  V30 11763 H 1090.4 0.801746 -4.09831 0
M  V30 11764 N 1090.84 1.42931 -0.663954 0
M  V30 11765 C 1091.78 2.3079 0.0210764 0
M  V30 11766 C 1092.75 1.45356 0.803796 0
M  V30 11767 O 1093.94 1.74207 0.778237 0
M  V30 11768 C 1091.08 3.31069 0.974023 0
M  V30 11769 C 1090.19 4.31598 0.186273 0
M  V30 11770 C 1089.33 5.18955 1.13399 0
M  V30 11771 C 1088.37 6.1117 0.337292 0
M  V30 11772 N 1087.5 6.91114 1.23715 0
M  V30 11773 H 1092.34 2.88819 -0.733995 0
M  V30 11774 H 1089.88 1.42274 -0.373711 0
M  V30 11775 H 1091.84 3.87727 1.54024 0
M  V30 11776 H 1090.47 2.74665 1.69585 0
M  V30 11777 H 1089.52 3.77147 -0.496402 0
M  V30 11778 H 1090.83 4.96919 -0.432753 0
M  V30 11779 H 1089.99 5.80292 1.77049 0
M  V30 11780 H 1088.73 4.53785 1.78691 0
M  V30 11781 H 1087.73 5.48911 -0.312492 0
M  V30 11782 H 1088.96 6.78386 -0.31138 0
M  V30 11783 H 1086.9 6.28583 1.87668 0
M  V30 11784 H 1086.82 7.52999 0.672946 0
M  V30 11785 H 1088.09 7.56948 1.86146 0
M  V30 11786 N 1092.32 0.406567 1.52266 0
M  V30 11787 C 1093.23 -0.4271 2.30679 0
M  V30 11788 C 1094.24 -1.0559 1.383 0
M  V30 11789 O 1095.42 -1.05797 1.71374 0
M  V30 11790 C 1092.48 -1.53008 3.1111 0
M  V30 11791 C 1091.54 -0.924604 4.19225 0
M  V30 11792 C 1090.78 -1.97502 4.95811 0
M  V30 11793 O 1091 -3.19277 4.72671 0
M  V30 11794 O 1089.93 -1.58268 5.80719 0
M  V30 11795 H 1093.76 0.212187 3.02958 0
M  V30 11796 H 1091.34 0.169835 1.48432 0
M  V30 11797 H 1093.23 -2.17046 3.61205 0
M  V30 11798 H 1091.9 -2.15401 2.41628 0
M  V30 11799 H 1090.81 -0.247009 3.73284 0
M  V30 11800 H 1092.14 -0.34463 4.90992 0
M  V30 11801 N 1093.79 -1.57004 0.136909 0
M  V30 11802 C 1095.04 -1.96087 -0.517477 0
M  V30 11803 C 1095.37 -1.0213 -1.65176 0
M  V30 11804 O 1094.65 -0.0617958 -1.94402 0
M  V30 11805 C 1094.93 -3.44958 -1.03323 0
M  V30 11806 C 1094.78 -4.49691 0.0988609 0
M  V30 11807 C 1096.1 -3.96091 -1.91832 0
M  V30 11808 H 1093.22 -0.712978 -0.186632 0
M  V30 11809 H 1095.86 -1.88767 0.216095 0
M  V30 11810 H 1094.01 -3.51327 -1.65836 0
M  V30 11811 H 1095.69 -4.55409 0.734847 0
M  V30 11812 H 1093.93 -4.271 0.75947 0
M  V30 11813 H 1094.6 -5.51165 -0.303554 0
M  V30 11814 H 1097.08 -3.92139 -1.39164 0
M  V30 11815 H 1095.95 -5.00742 -2.24831 0
M  V30 11816 H 1096.21 -3.37846 -2.85153 0
M  V30 11817 N 1095.27 0.136881 -1.57004 0
M  V30 11818 C 1096.24 1.15267 -1.98106 0
M  V30 11819 C 1097.24 1.35305 -0.868856 0
M  V30 11820 O 1098.43 1.32126 -1.13527 0
M  V30 11821 C 1095.56 2.51092 -2.30577 0
M  V30 11822 H 1096.75 0.799821 -2.89038 0
M  V30 11823 H 1094.3 0.380576 -1.51596 0
M  V30 11824 H 1095.04 2.9133 -1.42469 0
M  V30 11825 H 1094.82 2.37906 -3.11678 0
M  V30 11826 H 1096.31 3.24232 -2.63179 0
M  V30 11827 N 1096.75 1.52266 0.40654 0
M  V30 11828 C 1097.66 1.78688 1.52012 0
M  V30 11829 C 1098.68 0.6726 1.60475 0
M  V30 11830 O 1099.85 0.95829 1.77141 0
M  V30 11831 C 1096.92 1.93434 2.87722 0
M  V30 11832 C 1095.98 3.17341 2.89125 0
M  V30 11833 C 1095.21 3.31374 4.18362 0
M  V30 11834 O 1095.43 2.50613 5.12396 0
M  V30 11835 O 1094.37 4.24539 4.26674 0
M  V30 11836 H 1098.19 2.73213 1.3262 0
M  V30 11837 H 1095.78 1.37142 0.592653 0
M  V30 11838 H 1097.66 2.04941 3.68208 0
M  V30 11839 H 1096.34 1.02099 3.07177 0
M  V30 11840 H 1095.24 3.1129 2.07483 0
M  V30 11841 H 1096.58 4.08466 2.7462 0
M  V30 11842 N 1098.23 -0.663929 1.42933 0
M  V30 11843 C 1099.47 -1.42603 1.44195 0
M  V30 11844 C 1099.81 -1.94101 0.0620284 0
M  V30 11845 O 1099.08 -1.71609 -0.91546 0
M  V30 11846 C 1099.37 -2.61522 2.47544 0
M  V30 11847 C 1099.22 -2.15587 3.94769 0
M  V30 11848 C 1100.54 -3.6374 2.47753 0
M  V30 11849 H 1097.66 -0.517189 0.525056 0
M  V30 11850 H 1100.3 -0.75361 1.74415 0
M  V30 11851 H 1098.45 -3.1889 2.21904 0
M  V30 11852 H 1100.12 -1.63303 4.31428 0
M  V30 11853 H 1098.36 -1.47057 4.08114 0
M  V30 11854 H 1099.03 -3.01053 4.62678 0
M  V30 11855 H 1101.51 -3.16111 2.70579 0
M  V30 11856 H 1100.39 -4.44512 3.22025 0
M  V30 11857 H 1100.65 -4.15607 1.50742 0
M  V30 11858 N 1099.71 -1.29285 -0.901281 0
M  V30 11859 C 1100.93 -1.20169 -1.69039 0
M  V30 11860 C 1101.36 0.234509 -1.86632 0
M  V30 11861 O 1100.71 1.16935 -1.38549 0
M  V30 11862 C 1100.76 -1.91852 -3.05328 0
M  V30 11863 O 1099.87 -1.23448 -3.9349 0
M  V30 11864 H 1099.21 -0.416486 -0.517141 0
M  V30 11865 H 1101.74 -1.70826 -1.12603 0
M  V30 11866 H 1101.75 -2.00244 -3.5548 0
M  V30 11867 H 1100.42 -2.96313 -2.91841 0
M  V30 11868 H 1099 -1.23303 -3.51924 0
M  V30 11869 N 1101.18 1.11143 -1.11736 0
M  V30 11870 C 1102.6 1.64462 -0.883693 0
M  V30 11871 C 1102.95 1.87324 0.583448 0
M  V30 11872 O 1102.07 1.60975 1.44623 0
M  V30 11873 C 1102.67 2.98765 -1.59764 0
M  V30 11874 C 1101.23 3.4898 -1.41032 0
M  V30 11875 C 1100.37 2.23729 -1.63831 0
M  V30 11876 H 1103.32 0.947415 -1.27317 0
M  V30 11877 H 1103.34 3.65885 -1.04443 0
M  V30 11878 H 1102.86 2.82094 -2.66542 0
M  V30 11879 H 1100.96 3.7081 -0.364781 0
M  V30 11880 H 1101.07 4.27571 -2.16148 0
M  V30 11881 H 1099.43 2.31507 -1.06191 0
M  V30 11882 H 1100.22 2.09597 -2.7189 0
M  V30 11883 N 1102.66 0.908147 1.28804 0
M  V30 11884 C 1103.6 0.336764 2.25701 0
M  V30 11885 C 1104.57 -0.555849 1.52804 0
M  V30 11886 O 1105.76 -0.500763 1.81727 0
M  V30 11887 C 1102.88 -0.519154 3.34698 0
M  V30 11888 C 1101.93 0.307304 4.25391 0
M  V30 11889 S 1102.76 1.71048 5.07447 0
M  V30 11890 C 1103.92 0.861715 6.1994 0
M  V30 11891 H 1104.15 1.15806 2.73818 0
M  V30 11892 H 1101.69 0.709033 1.37157 0
M  V30 11893 H 1103.64 -1.00718 3.97952 0
M  V30 11894 H 1102.3 -1.31477 2.85259 0
M  V30 11895 H 1101.5 -0.346906 5.02805 0
M  V30 11896 H 1101.1 0.728777 3.66831 0
M  V30 11897 H 1103.39 0.088851 6.77442 0
M  V30 11898 H 1104.33 1.60821 6.89596 0
M  V30 11899 H 1104.74 0.412366 5.62992 0
M  V30 11900 N 1104.14 -1.42577 0.671525 0
M  V30 11901 C 1105.37 -2.06442 0.199152 0
M  V30 11902 C 1105.79 -1.50104 -1.1336 0
M  V30 11903 O 1105.15 -0.618211 -1.70434 0
M  V30 11904 C 1105.2 -3.60323 0.141215 0
M  V30 11905 O 1104.3 -4.02655 -0.891238 0
M  V30 11906 H 1103.64 -0.655919 0.103277 0
M  V30 11907 H 1106.17 -1.82768 0.919614 0
M  V30 11908 H 1106.18 -4.07984 -0.0360209 0
M  V30 11909 H 1104.86 -4.00702 1.11403 0
M  V30 11910 H 1103.43 -3.66549 -0.685309 0
M  V30 11911 N 1105.62 -0.414636 -1.52048 0
M  V30 11912 C 1106.58 0.396285 -2.25748 0
M  V30 11913 C 1107.58 0.969003 -1.28324 0
M  V30 11914 O 1108.77 0.847016 -1.52221 0
M  V30 11915 C 1105.9 1.55838 -3.03195 0
M  V30 11916 H 1107.1 -0.249311 -2.98862 0
M  V30 11917 H 1104.65 -0.167276 -1.55402 0
M  V30 11918 H 1105.38 2.24068 -2.34444 0
M  V30 11919 H 1105.17 1.15414 -3.74729 0
M  V30 11920 H 1106.66 2.13187 -3.59084 0
M  V30 11921 N 1107.1 1.56929 -0.145233 0
M  V30 11922 C 1108.06 2.15483 0.781002 0
M  V30 11923 C 1109.06 1.09617 1.17647 0
M  V30 11924 O 1110.25 1.35265 1.09768 0
M  V30 11925 C 1107.38 2.7165 2.05959 0
M  V30 11926 H 1108.57 2.98667 0.271685 0
M  V30 11927 H 1106.13 1.55952 0.1042 0
M  V30 11928 H 1106.86 1.92127 2.61262 0
M  V30 11929 H 1106.65 3.491 1.78526 0
M  V30 11930 H 1108.14 3.16769 2.72116 0
M  V30 11931 N 1108.58 -0.128553 1.57075 0
M  V30 11932 C 1109.52 -1.17719 2.00611 0
M  V30 11933 C 1110.52 -1.43423 0.90146 0
M  V30 11934 O 1111.72 -1.43498 1.08666 0
M  V30 11935 H 1108.1 -0.396683 0.638864 0
M  V30 11936 H 1110.07 -0.783437 2.87932 0
M  V30 11937 C 1108.82 -2.49826 2.41831 0
M  V30 11938 H 1108.14 -2.30883 3.26394 0
M  V30 11939 H 1109.58 -3.21784 2.761 0
M  V30 11940 C 1108.04 -3.11712 1.27816 0
M  V30 11941 O 1108.57 -3.9736 0.588917 0
M  V30 11942 N 1106.78 -2.71442 1.03767 0
M  V30 11943 H 1106.32 -2.01891 1.59994 0
M  V30 11944 H 1106.28 -3.1318 0.276743 0
M  V30 11945 N 1110.05 -1.5248 -0.398459 0
M  V30 11946 C 1111.3 -1.66287 -1.14155 0
M  V30 11947 C 1111.62 -0.40429 -1.91376 0
M  V30 11948 O 1112.82 -0.422341 -2.68195 0
M  V30 11949 C 1111.28 -2.93831 -2.07825 0
M  V30 11950 C 1110.89 -4.26836 -1.3607 0
M  V30 11951 C 1112.63 -3.17004 -2.82327 0
M  V30 11952 C 1110.54 -5.45495 -2.28451 0
M  V30 11953 H 1109.47 -0.619478 -0.42984 0
M  V30 11954 H 1112.12 -1.78972 -0.405112 0
M  V30 11955 H 1110.5 -2.7487 -2.85065 0
M  V30 11956 H 1111.67 -4.56317 -0.641205 0
M  V30 11957 H 1109.99 -4.0985 -0.735659 0
M  V30 11958 H 1112.59 -4.02834 -3.51609 0
M  V30 11959 H 1112.93 -2.3168 -3.45876 0
M  V30 11960 H 1113.46 -3.36487 -2.12183 0
M  V30 11961 H 1110.2 -6.33198 -1.69532 0
M  V30 11962 H 1109.72 -5.20338 -2.98343 0
M  V30 11963 H 1111.4 -5.78996 -2.88743 0
M  V30 11964 N 1111.53 0.65634 -1.43283 0
M  V30 11965 C 1112.76 1.44906 -1.48382 0
M  V30 11966 C 1113.18 1.87823 -0.101993 0
M  V30 11967 O 1112.54 1.57178 0.903597 0
M  V30 11968 C 1112.59 2.66231 -2.43215 0
M  V30 11969 O 1111.69 3.65176 -1.91625 0
M  V30 11970 H 1111.03 0.434601 -0.502014 0
M  V30 11971 H 1113.56 0.803429 -1.88165 0
M  V30 11972 H 1113.57 3.14083 -2.60414 0
M  V30 11973 H 1112.25 2.34336 -3.43598 0
M  V30 11974 H 1110.82 3.24302 -1.84072 0
M  V30 11975 N 1113.01 1.29761 0.894412 0
M  V30 11976 C 1114.26 1.17409 1.64006 0
M  V30 11977 C 1114.57 -0.272355 1.93695 0
M  V30 11978 O 1115.78 -0.517269 2.66527 0
M  V30 11979 C 1114.23 2.05379 2.95546 0
M  V30 11980 C 1113.84 3.54878 2.73433 0
M  V30 11981 C 1115.59 2.01765 3.73485 0
M  V30 11982 C 1113.49 4.34935 4.00731 0
M  V30 11983 H 1112.42 0.43583 0.615279 0
M  V30 11984 H 1115.07 1.5444 0.990983 0
M  V30 11985 H 1113.46 1.61222 3.61695 0
M  V30 11986 H 1114.63 4.07122 2.15844 0
M  V30 11987 H 1112.94 3.60218 2.08882 0
M  V30 11988 H 1115.54 2.58835 4.67877 0
M  V30 11989 H 1115.88 0.998876 4.04139 0
M  V30 11990 H 1116.42 2.43994 3.14184 0
M  V30 11991 H 1113.16 5.3747 3.75241 0
M  V30 11992 H 1112.68 3.87458 4.5786 0
M  V30 11993 H 1114.36 4.45875 4.68833 0
M  V30 11994 N 1114.49 -1.10549 1.12324 0
M  V30 11995 C 1115.45 -2.15039 0.793156 0
M  V30 11996 C 1116.45 -1.59651 -0.19192 0
M  V30 11997 O 1117.64 -1.74167 0.0337262 0
M  V30 11998 C 1114.77 -3.40433 0.17842 0
M  V30 11999 H 1115.97 -2.4575 1.71892 0
M  V30 12000 H 1113.52 -1.25892 0.926333 0
M  V30 12001 H 1114.25 -3.15338 -0.757122 0
M  V30 12002 H 1114.04 -3.81921 0.887645 0
M  V30 12003 H 1115.53 -4.17584 -0.0360724 0
M  V30 12004 N 1115.97 -0.914965 -1.28321 0
M  V30 12005 C 1116.93 -0.409024 -2.25521 0
M  V30 12006 C 1117.93 0.465327 -1.5392 0
M  V30 12007 O 1119.12 0.26821 -1.72123 0
M  V30 12008 C 1116.25 0.413452 -3.38383 0
M  V30 12009 H 1117.44 -1.26767 -2.71791 0
M  V30 12010 H 1115 -0.694477 -1.40024 0
M  V30 12011 H 1115.73 1.29145 -2.97476 0
M  V30 12012 H 1115.52 -0.213268 -3.9152 0
M  V30 12013 H 1117.01 0.758232 -4.10659 0
M  V30 12014 N 1117.44 1.42219 -0.679077 0
M  V30 12015 C 1118.86 1.55737 -0.349034 0
M  V30 12016 C 1119.06 1.65789 1.14527 0
M  V30 12017 O 1118.12 1.62717 1.93079 0
M  V30 12018 C 1119.43 2.80516 -1.0831 0
M  V30 12019 C 1120.98 2.94294 -1.06584 0
M  V30 12020 C 1121.45 4.2194 -1.78132 0
M  V30 12021 N 1122.94 4.28861 -1.75021 0
M  V30 12022 C 1123.68 5.26453 -2.27234 0
M  V30 12023 N 1123.17 6.30171 -2.87847 0
M  V30 12024 N 1124.97 5.1828 -2.17584 0
M  V30 12025 H 1117.12 1.33939 -1.64846 0
M  V30 12026 H 1119.38 0.645029 -0.694725 0
M  V30 12027 H 1119.09 2.79241 -2.13816 0
M  V30 12028 H 1118.96 3.71539 -0.651069 0
M  V30 12029 H 1121.35 2.95094 -0.0191061 0
M  V30 12030 H 1121.43 2.04491 -1.53679 0
M  V30 12031 H 1121.07 4.21901 -2.82776 0
M  V30 12032 H 1121 5.10685 -1.28483 0
M  V30 12033 H 1123.49 3.54537 -1.30814 0
M  V30 12034 H 1123.81 7.01 -3.25298 0
M  V30 12035 H 1122.15 6.30721 -2.91918 0
M  V30 12036 H 1125.34 4.36172 -1.69916 0
M  V30 12037 H 1125.52 5.94172 -2.58581 0
M  V30 12038 N 1118.92 0.422693 1.51826 0
M  V30 12039 C 1119.85 -0.43167 2.25098 0
M  V30 12040 C 1120.87 -0.998758 1.28564 0
M  V30 12041 O 1122.06 -0.89539 1.54418 0
M  V30 12042 C 1119.16 -1.61426 2.97985 0
M  V30 12043 C 1118.33 -1.16866 4.21499 0
M  V30 12044 C 1117.39 -2.2197 4.77091 0
M  V30 12045 O 1116.41 -1.82004 5.39317 0
M  V30 12046 N 1117.62 -3.54293 4.59844 0
M  V30 12047 H 1120.38 0.196255 2.99057 0
M  V30 12048 H 1117.94 0.25079 1.59946 0
M  V30 12049 H 1119.93 -2.31331 3.32066 0
M  V30 12050 H 1118.5 -2.14783 2.27128 0
M  V30 12051 H 1117.72 -0.297217 3.93078 0
M  V30 12052 H 1119.01 -0.848106 5.01682 0
M  V30 12053 H 1118.41 -3.89505 4.10247 0
M  V30 12054 H 1116.97 -4.20135 4.98327 0
M  V30 12055 N 1120.4 -1.5685 0.153553 0
M  V30 12056 C 1121.33 -2.14231 -0.814729 0
M  V30 12057 C 1122.34 -1.09339 -1.20619 0
M  V30 12058 O 1123.53 -1.36592 -1.14913 0
M  V30 12059 C 1120.63 -2.6555 -2.10562 0
M  V30 12060 C 1119.81 -3.94912 -1.8805 0
M  V30 12061 C 1118.87 -4.31476 -3.0119 0
M  V30 12062 O 1117.89 -4.9968 -2.72596 0
M  V30 12063 N 1119.09 -3.91588 -4.28531 0
M  V30 12064 H 1121.86 -2.9794 -0.324277 0
M  V30 12065 H 1119.42 -1.61873 -0.0298087 0
M  V30 12066 H 1121.41 -2.87019 -2.85311 0
M  V30 12067 H 1119.98 -1.86529 -2.5085 0
M  V30 12068 H 1119.2 -3.82002 -0.973024 0
M  V30 12069 H 1120.49 -4.79433 -1.70356 0
M  V30 12070 H 1119.89 -3.36645 -4.54628 0
M  V30 12071 H 1118.44 -4.18095 -5.00039 0
M  V30 12072 N 1121.88 0.120221 -1.57141 0
M  V30 12073 C 1122.83 1.16654 -2.01233 0
M  V30 12074 C 1123.82 1.42943 -0.909053 0
M  V30 12075 O 1125.03 1.4292 -1.09426 0
M  V30 12076 H 1121.4 0.393289 -0.640958 0
M  V30 12077 H 1123.37 0.768156 -2.88343 0
M  V30 12078 C 1122.12 2.4854 -2.43152 0
M  V30 12079 H 1121.44 2.29149 -3.27614 0
M  V30 12080 H 1122.88 3.20315 -2.77802 0
M  V30 12081 C 1121.34 3.1103 -1.29468 0
M  V30 12082 O 1121.87 3.97042 -0.609982 0
M  V30 12083 N 1120.08 2.70888 -1.05205 0
M  V30 12084 H 1119.63 2.01039 -1.61062 0
M  V30 12085 H 1119.58 3.13028 -0.293347 0
M  V30 12086 N 1123.36 1.52689 0.390367 0
M  V30 12087 C 1124.58 1.71839 1.16129 0
M  V30 12088 C 1125.01 0.435226 1.82996 0
M  V30 12089 O 1124.36 -0.60889 1.70769 0
M  V30 12090 C 1124.41 2.86784 2.18603 0
M  V30 12091 O 1123.52 2.53662 3.25161 0
M  V30 12092 H 1122.86 0.571455 0.338135 0
M  V30 12093 H 1125.39 1.99475 0.45508 0
M  V30 12094 H 1125.4 3.12239 2.62622 0
M  V30 12095 H 1124.07 3.79872 1.69322 0
M  V30 12096 H 1122.65 2.38942 2.86289 0
M  V30 12097 N 1124.83 -0.648732 1.43629 0
M  V30 12098 C 1125.8 -1.74331 1.488 0
M  V30 12099 C 1126.8 -1.56434 0.372147 0
M  V30 12100 O 1127.99 -1.6225 0.634078 0
M  V30 12101 C 1125.12 -3.13248 1.34494 0
M  V30 12102 H 1126.31 -1.71125 2.46285 0
M  V30 12103 H 1123.87 -0.860798 1.30461 0
M  V30 12104 H 1124.6 -3.22062 0.380345 0
M  V30 12105 H 1124.39 -3.27643 2.15389 0
M  V30 12106 H 1125.88 -3.93056 1.41055 0
M  V30 12107 N 1126.31 -1.30234 -0.887518 0
M  V30 12108 C 1127.26 -1.164 -1.99298 0
M  V30 12109 C 1128.23 -0.0541536 -1.66012 0
M  V30 12110 O 1129.41 -0.223881 -1.89482 0
M  V30 12111 C 1126.55 -0.859169 -3.34234 0
M  V30 12112 C 1125.67 -2.05065 -3.80227 0
M  V30 12113 C 1124.8 -1.68413 -5.03796 0
M  V30 12114 C 1123.84 -2.8407 -5.4219 0
M  V30 12115 N 1122.98 -2.47732 -6.56942 0
M  V30 12116 H 1127.82 -2.10973 -2.10463 0
M  V30 12117 H 1125.36 -1.04969 -1.03053 0
M  V30 12118 H 1127.31 -0.663064 -4.11897 0
M  V30 12119 H 1125.94 0.0496808 -3.22762 0
M  V30 12120 H 1125 -2.35808 -2.98494 0
M  V30 12121 H 1126.31 -2.91688 -4.04623 0
M  V30 12122 H 1125.46 -1.45162 -5.89078 0
M  V30 12123 H 1124.2 -0.789553 -4.81266 0
M  V30 12124 H 1123.21 -3.0799 -4.55437 0
M  V30 12125 H 1124.43 -3.74211 -5.66695 0
M  V30 12126 H 1122.38 -1.60777 -6.35993 0
M  V30 12127 H 1122.29 -3.27887 -6.81195 0
M  V30 12128 H 1123.56 -2.27831 -7.45462 0
M  V30 12129 N 1127.79 1.09952 -1.12909 0
M  V30 12130 C 1128.75 2.14615 -0.804548 0
M  V30 12131 C 1129.75 1.5975 0.18345 0
M  V30 12132 O 1130.94 1.74147 -0.0429623 0
M  V30 12133 C 1128.08 3.40333 -0.196471 0
M  V30 12134 H 1129.27 2.44835 -1.73193 0
M  V30 12135 H 1126.82 1.25399 -0.932997 0
M  V30 12136 H 1127.56 3.15735 0.740388 0
M  V30 12137 H 1127.34 3.81444 -0.907886 0
M  V30 12138 H 1128.83 4.17598 0.0139264 0
M  V30 12139 N 1129.27 0.921757 1.27833 0
M  V30 12140 C 1130.68 0.621102 1.47019 0
M  V30 12141 C 1130.88 -0.831338 1.83551 0
M  V30 12142 O 1129.94 -1.60974 1.94534 0
M  V30 12143 C 1131.25 1.56588 2.56712 0
M  V30 12144 C 1132.8 1.57346 2.70576 0
M  V30 12145 C 1133.28 2.50505 3.8342 0
M  V30 12146 N 1134.77 2.48678 3.90786 0
M  V30 12147 C 1135.5 3.17454 4.77505 0
M  V30 12148 N 1135 3.95588 5.68755 0
M  V30 12149 N 1136.79 3.06501 4.71183 0
M  V30 12150 H 1128.94 1.86085 1.02403 0
M  V30 12151 H 1131.21 0.798595 0.510833 0
M  V30 12152 H 1130.91 2.60175 2.36647 0
M  V30 12153 H 1130.79 1.30305 3.53978 0
M  V30 12154 H 1133.17 0.544919 2.90025 0
M  V30 12155 H 1133.25 1.87675 1.73815 0
M  V30 12156 H 1132.9 3.53466 3.64725 0
M  V30 12157 H 1132.83 2.17474 4.79596 0
M  V30 12158 H 1135.32 1.91928 3.25534 0
M  V30 12159 H 1135.63 4.45066 6.31772 0
M  V30 12160 H 1133.98 3.99692 5.6857 0
M  V30 12161 H 1137.17 2.44958 3.9889 0
M  V30 12162 H 1137.34 3.60372 5.3855 0
M  V30 12163 N 1130.75 -1.41857 0.686609 0
M  V30 12164 C 1131.97 -2.06219 0.221037 0
M  V30 12165 C 1132.4 -1.51298 -1.11762 0
M  V30 12166 O 1131.75 -0.636253 -1.69769 0
M  V30 12167 C 1131.8 -3.60153 0.179425 0
M  V30 12168 O 1130.91 -4.03577 -0.848481 0
M  V30 12169 H 1130.25 -0.654787 0.110228 0
M  V30 12170 H 1132.78 -1.81783 0.938948 0
M  V30 12171 H 1132.79 -4.07999 0.00725332 0
M  V30 12172 H 1131.46 -3.99498 1.15647 0
M  V30 12173 H 1130.04 -3.67255 -0.646393 0
M  V30 12174 N 1132.22 -0.430739 -1.51599 0
M  V30 12175 C 1133.47 0.138133 -2.02329 0
M  V30 12176 C 1133.8 1.42934 -1.31466 0
M  V30 12177 O 1133.08 1.89743 -0.427551 0
M  V30 12178 C 1133.36 0.363677 -3.58259 0
M  V30 12179 C 1133.21 -0.94572 -4.39746 0
M  V30 12180 C 1134.53 1.13637 -4.25176 0
M  V30 12181 H 1131.65 0.0487287 -0.735387 0
M  V30 12182 H 1134.29 -0.568444 -1.81297 0
M  V30 12183 H 1132.44 0.965552 -3.7631 0
M  V30 12184 H 1134.12 -1.58107 -4.33359 0
M  V30 12185 H 1132.36 -1.55183 -4.05094 0
M  V30 12186 H 1133.03 -0.742031 -5.4699 0
M  V30 12187 H 1135.51 0.626608 -4.11355 0
M  V30 12188 H 1134.38 1.26294 -5.34173 0
M  V30 12189 H 1134.64 2.16273 -3.85588 0
M  V30 12190 N 1133.7 1.56767 -0.161869 0
M  V30 12191 C 1134.95 1.97661 0.479751 0
M  V30 12192 C 1135.3 1.04583 1.61493 0
M  V30 12193 O 1134.6 0.0836772 1.91417 0
M  V30 12194 C 1134.79 3.42567 1.01894 0
M  V30 12195 C 1134.62 4.49657 -0.0624633 0
M  V30 12196 C 1133.39 5.0273 -0.508935 0
M  V30 12197 C 1135.59 5.07069 -0.85941 0
M  V30 12198 N 1133.57 5.93442 -1.57163 0
M  V30 12199 C 1134.94 5.94131 -1.77225 0
M  V30 12200 C 1137 4.89596 -0.905543 0
M  V30 12201 C 1135.7 6.6559 -2.72731 0
M  V30 12202 C 1137.72 5.61769 -1.8485 0
M  V30 12203 C 1137.09 6.48551 -2.74884 0
M  V30 12204 H 1133.19 0.76864 0.14393 0
M  V30 12205 H 1135.77 1.92957 -0.259906 0
M  V30 12206 H 1133.94 3.47835 1.72815 0
M  V30 12207 H 1135.67 3.70493 1.62841 0
M  V30 12208 H 1132.43 4.73476 -0.1084 0
M  V30 12209 H 1132.85 6.43502 -2.10319 0
M  V30 12210 H 1137.49 4.22209 -0.223516 0
M  V30 12211 H 1135.21 7.32197 -3.41927 0
M  V30 12212 H 1138.8 5.50239 -1.89018 0
M  V30 12213 H 1137.68 7.03417 -3.46661 0
M  V30 12214 N 1135.18 -0.111886 1.57202 0
M  V30 12215 C 1136.09 -1.1556 2.04165 0
M  V30 12216 C 1137.11 -1.44898 0.963354 0
M  V30 12217 O 1138.28 -1.55873 1.27536 0
M  V30 12218 C 1135.35 -2.46048 2.44256 0
M  V30 12219 C 1134.41 -2.24043 3.66201 0
M  V30 12220 C 1133.64 -3.4831 4.04371 0
M  V30 12221 O 1133.86 -4.55895 3.42806 0
M  V30 12222 O 1132.8 -3.38891 4.9743 0
M  V30 12223 H 1136.62 -0.786778 2.93332 0
M  V30 12224 H 1134.21 -0.323196 1.45862 0
M  V30 12225 H 1136.09 -3.22916 2.70745 0
M  V30 12226 H 1134.77 -2.8239 1.58233 0
M  V30 12227 H 1133.67 -1.4501 3.44852 0
M  V30 12228 H 1135.01 -1.92602 4.52952 0
M  V30 12229 N 1136.66 -1.52894 -0.382264 0
M  V30 12230 C 1137.59 -1.74413 -1.48703 0
M  V30 12231 C 1138.6 -0.624663 -1.50339 0
M  V30 12232 O 1139.79 -0.900527 -1.54119 0
M  V30 12233 C 1136.89 -1.79387 -2.8753 0
M  V30 12234 C 1136.07 -3.08794 -3.09783 0
M  V30 12235 C 1135.12 -3.05226 -4.2863 0
M  V30 12236 O 1134.15 -3.79073 -4.24609 0
M  V30 12237 N 1135.35 -2.2488 -5.35172 0
M  V30 12238 H 1138.12 -2.69734 -1.30628 0
M  V30 12239 H 1135.68 -1.51465 -0.571842 0
M  V30 12240 H 1137.67 -1.74498 -3.65147 0
M  V30 12241 H 1136.24 -0.914233 -2.98932 0
M  V30 12242 H 1135.46 -3.27118 -2.19971 0
M  V30 12243 H 1136.75 -3.94347 -3.21509 0
M  V30 12244 H 1136.15 -1.64363 -5.41296 0
M  V30 12245 H 1134.7 -2.25825 -6.1143 0
M  V30 12246 N 1138.14 0.641106 -1.43971 0
M  V30 12247 C 1139.55 0.958161 -1.27638 0
M  V30 12248 C 1139.75 2.00456 -0.204885 0
M  V30 12249 O 1138.81 2.49106 0.412606 0
M  V30 12250 C 1140.12 1.43091 -2.64472 0
M  V30 12251 C 1141.67 1.54692 -2.72102 0
M  V30 12252 C 1142.15 2.05353 -4.09382 0
M  V30 12253 N 1143.64 2.12638 -4.11509 0
M  V30 12254 C 1144.37 2.52987 -5.14573 0
M  V30 12255 N 1143.87 2.92544 -6.28005 0
M  V30 12256 N 1145.66 2.53033 -5.01927 0
M  V30 12257 H 1137.81 -0.0510973 -2.12339 0
M  V30 12258 H 1140.07 0.039748 -0.947166 0
M  V30 12259 H 1139.78 0.736389 -3.43904 0
M  V30 12260 H 1139.65 2.40375 -2.90688 0
M  V30 12261 H 1142.04 2.23242 -1.92994 0
M  V30 12262 H 1142.12 0.558083 -2.49638 0
M  V30 12263 H 1141.77 1.37401 -4.88962 0
M  V30 12264 H 1141.7 3.0509 -4.29218 0
M  V30 12265 H 1144.19 1.84792 -3.29636 0
M  V30 12266 H 1144.5 3.22116 -7.02468 0
M  V30 12267 H 1142.85 2.90319 -6.31458 0
M  V30 12268 H 1146.04 2.21514 -4.1237 0
M  V30 12269 H 1146.21 2.84155 -5.82375 0
M  V30 12270 N 1139.62 1.30703 0.880598 0
M  V30 12271 C 1140.58 1.17429 1.96832 0
M  V30 12272 C 1141.58 0.104305 1.60461 0
M  V30 12273 O 1142.77 0.352758 1.70591 0
M  V30 12274 C 1139.9 0.800099 3.31378 0
M  V30 12275 H 1141.09 2.14069 2.10034 0
M  V30 12276 H 1138.65 1.14162 1.06755 0
M  V30 12277 H 1139.38 -0.165606 3.23877 0
M  V30 12278 H 1139.17 1.57341 3.59146 0
M  V30 12279 H 1140.66 0.730826 4.11155 0
M  V30 12280 N 1141.09 -1.09351 1.1349 0
M  V30 12281 C 1142.32 -1.85844 0.92069 0
M  V30 12282 C 1142.74 -1.80616 -0.525303 0
M  V30 12283 O 1142.1 -1.1842 -1.37282 0
M  V30 12284 C 1142.15 -3.31716 1.4141 0
M  V30 12285 O 1141.25 -4.08014 0.599838 0
M  V30 12286 H 1140.59 -0.576242 0.32991 0
M  V30 12287 H 1143.12 -1.38084 1.50976 0
M  V30 12288 H 1143.13 -3.82564 1.41805 0
M  V30 12289 H 1141.81 -3.34837 2.46692 0
M  V30 12290 H 1140.39 -3.66944 0.663816 0
M  V30 12291 N 1142.57 -0.928524 -1.27343 0
M  V30 12292 C 1143.5 -0.385563 -2.25934 0
M  V30 12293 C 1144.52 0.484178 -1.55433 0
M  V30 12294 O 1145.71 0.296668 -1.76017 0
M  V30 12295 C 1142.81 0.466116 -3.35679 0
M  V30 12296 C 1141.98 -0.384523 -4.35707 0
M  V30 12297 C 1141.04 0.404644 -5.24642 0
M  V30 12298 O 1140.06 -0.187943 -5.6889 0
M  V30 12299 N 1141.27 1.70426 -5.54919 0
M  V30 12300 H 1144.03 -1.23306 -2.73159 0
M  V30 12301 H 1141.59 -0.796039 -1.40978 0
M  V30 12302 H 1143.58 1.00115 -3.92121 0
M  V30 12303 H 1142.15 1.21437 -2.88048 0
M  V30 12304 H 1141.37 -1.10085 -3.78517 0
M  V30 12305 H 1142.66 -0.966033 -4.99545 0
M  V30 12306 H 1142.06 2.20802 -5.20829 0
M  V30 12307 H 1140.62 2.1858 -6.14057 0
M  V30 12308 N 1144.05 1.41491 -0.694123 0
M  V30 12309 C 1144.98 2.33462 -0.0422169 0
M  V30 12310 C 1145.96 1.51739 0.76872 0
M  V30 12311 O 1147.15 1.8028 0.721985 0
M  V30 12312 C 1144.28 3.35545 0.895925 0
M  V30 12313 C 1143.23 4.27568 0.192188 0
M  V30 12314 C 1142.56 5.20014 1.24459 0
M  V30 12315 C 1143.86 5.1376 -0.940626 0
M  V30 12316 H 1145.55 2.88225 -0.810363 0
M  V30 12317 H 1143.1 1.38586 -0.39114 0
M  V30 12318 H 1145.05 3.9881 1.36121 0
M  V30 12319 H 1143.77 2.79129 1.69572 0
M  V30 12320 H 1142.43 3.65726 -0.25305 0
M  V30 12321 H 1142.08 4.59913 2.03687 0
M  V30 12322 H 1141.78 5.82417 0.778734 0
M  V30 12323 H 1143.3 5.86155 1.71041 0
M  V30 12324 H 1144.72 5.70601 -0.555692 0
M  V30 12325 H 1143.11 5.85097 -1.33349 0
M  V30 12326 H 1144.18 4.51011 -1.78093 0
M  V30 12327 N 1145.53 0.438773 1.51369 0
M  V30 12328 C 1146.94 0.0911416 1.5934 0
M  V30 12329 C 1147.14 -1.39962 1.44958 0
M  V30 12330 O 1146.2 -2.16968 1.29155 0
M  V30 12331 C 1147.51 0.612531 2.94395 0
M  V30 12332 C 1149.06 0.573098 3.07709 0
M  V30 12333 C 1149.54 1.07149 4.4529 0
M  V30 12334 N 1151.03 1.02953 4.51614 0
M  V30 12335 C 1151.76 1.38602 5.56397 0
M  V30 12336 N 1151.26 1.81543 6.68591 0
M  V30 12337 N 1153.05 1.30409 5.46763 0
M  V30 12338 H 1145.2 1.40872 1.58962 0
M  V30 12339 H 1147.46 0.580589 0.749414 0
M  V30 12340 H 1147.17 1.65562 3.10294 0
M  V30 12341 H 1147.04 0.0382375 3.77181 0
M  V30 12342 H 1149.43 -0.461006 2.91477 0
M  V30 12343 H 1149.51 1.18381 2.26759 0
M  V30 12344 H 1149.16 2.10406 4.62268 0
M  V30 12345 H 1149.09 0.437297 5.24781 0
M  V30 12346 H 1151.58 0.714208 3.7109 0
M  V30 12347 H 1151.89 2.06977 7.44567 0
M  V30 12348 H 1150.24 1.8547 6.69795 0
M  V30 12349 H 1153.43 0.967272 4.57997 0
M  V30 12350 H 1153.6 1.5852 6.28312 0
M  V30 12351 N 1147.01 -1.56678 0.170181 0
M  V30 12352 C 1147.94 -2.20916 -0.756213 0
M  V30 12353 C 1148.92 -1.16442 -1.23997 0
M  V30 12354 O 1150.1 -1.44867 -1.29333 0
M  V30 12355 C 1147.23 -2.84901 -1.98617 0
M  V30 12356 C 1146.19 -3.95403 -1.63831 0
M  V30 12357 C 1145.51 -4.46432 -2.94282 0
M  V30 12358 C 1146.81 -5.15051 -0.867195 0
M  V30 12359 H 1148.51 -2.98585 -0.220776 0
M  V30 12360 H 1146.05 -1.43619 -0.104748 0
M  V30 12361 H 1148 -3.28514 -2.63926 0
M  V30 12362 H 1146.73 -2.04598 -2.54572 0
M  V30 12363 H 1145.39 -3.52444 -1.00891 0
M  V30 12364 H 1145.04 -3.62923 -3.48276 0
M  V30 12365 H 1144.74 -5.20979 -2.71762 0
M  V30 12366 H 1146.26 -4.92731 -3.60622 0
M  V30 12367 H 1147.67 -5.55363 -1.42285 0
M  V30 12368 H 1146.07 -5.95507 -0.741065 0
M  V30 12369 H 1147.14 -4.84707 0.136693 0
M  V30 12370 N 1148.48 0.103547 -1.57259 0
M  V30 12371 C 1149.42 1.15225 -1.98131 0
M  V30 12372 C 1150.43 1.36793 -0.882692 0
M  V30 12373 O 1151.62 1.35595 -1.16088 0
M  V30 12374 C 1148.72 2.50941 -2.27776 0
M  V30 12375 C 1147.89 2.49765 -3.59077 0
M  V30 12376 C 1146.95 3.67344 -3.76756 0
M  V30 12377 O 1145.98 3.50221 -4.48702 0
M  V30 12378 N 1147.18 4.86504 -3.16692 0
M  V30 12379 H 1149.94 0.804448 -2.88702 0
M  V30 12380 H 1147.5 0.292636 -1.59233 0
M  V30 12381 H 1149.5 3.28186 -2.36804 0
M  V30 12382 H 1148.07 2.77843 -1.43255 0
M  V30 12383 H 1147.29 1.58125 -3.61096 0
M  V30 12384 H 1148.57 2.4605 -4.4535 0
M  V30 12385 H 1147.97 5.03319 -2.58236 0
M  V30 12386 H 1146.53 5.61371 -3.31218 0
M  V30 12387 N 1149.96 1.53094 0.37415 0
M  V30 12388 C 1150.91 1.79585 1.47824 0
M  V30 12389 C 1151.9 0.664513 1.55822 0
M  V30 12390 O 1153.11 0.84729 1.58811 0
M  V30 12391 H 1149.48 0.568474 0.492282 0
M  V30 12392 H 1151.46 2.72014 1.22681 0
M  V30 12393 C 1150.2 1.995 2.84772 0
M  V30 12394 H 1149.53 2.85991 2.79373 0
M  V30 12395 H 1150.97 2.22018 3.61226 0
M  V30 12396 C 1149.43 0.771673 3.27943 0
M  V30 12397 O 1149.96 -0.0437737 4.01676 0
M  V30 12398 N 1148.16 0.597547 2.8439 0
M  V30 12399 H 1147.71 1.26227 2.24554 0
M  V30 12400 H 1147.67 -0.219578 3.13632 0
M  V30 12401 N 1151.44 -0.633461 1.44309 0
M  V30 12402 C 1152.37 -1.75676 1.53819 0
M  V30 12403 C 1153.35 -1.65537 0.391365 0
M  V30 12404 O 1154.54 -1.84332 0.611181 0
M  V30 12405 C 1151.67 -3.14197 1.47979 0
M  V30 12406 C 1150.62 -3.39122 2.61113 0
M  V30 12407 C 1149.95 -4.77648 2.40325 0
M  V30 12408 C 1151.25 -3.31914 4.03274 0
M  V30 12409 H 1152.94 -1.67974 2.47841 0
M  V30 12410 H 1150.49 -0.8067 1.19283 0
M  V30 12411 H 1152.44 -3.92553 1.53233 0
M  V30 12412 H 1151.16 -3.22677 0.504718 0
M  V30 12413 H 1149.82 -2.63145 2.55245 0
M  V30 12414 H 1149.47 -4.82829 1.41016 0
M  V30 12415 H 1149.17 -4.95284 3.16177 0
M  V30 12416 H 1150.69 -5.58237 2.47394 0
M  V30 12417 H 1152.11 -4.00178 4.10524 0
M  V30 12418 H 1150.5 -3.61085 4.7931 0
M  V30 12419 H 1151.57 -2.29761 4.2701 0
M  V30 12420 N 1152.92 -1.31168 -0.873655 0
M  V30 12421 C 1154.33 -1.09745 -1.1588 0
M  V30 12422 C 1154.53 0.134471 -2.01051 0
M  V30 12423 O 1153.59 0.824857 -2.38647 0
M  V30 12424 C 1154.9 -2.36704 -1.85451 0
M  V30 12425 C 1156.45 -2.42278 -1.98167 0
M  V30 12426 C 1156.93 -3.69108 -2.71152 0
M  V30 12427 N 1158.42 -3.69981 -2.7869 0
M  V30 12428 C 1159.15 -4.64811 -3.35765 0
M  V30 12429 N 1158.65 -5.69995 -3.938 0
M  V30 12430 N 1160.44 -4.52337 -3.33688 0
M  V30 12431 H 1152.59 -2.10184 -0.306021 0
M  V30 12432 H 1154.86 -0.927058 -0.198159 0
M  V30 12433 H 1154.56 -3.26666 -1.30316 0
M  V30 12434 H 1154.44 -2.46219 -2.85755 0
M  V30 12435 H 1156.82 -1.52787 -2.52468 0
M  V30 12436 H 1156.9 -2.3673 -0.969164 0
M  V30 12437 H 1156.55 -4.58963 -2.1752 0
M  V30 12438 H 1156.48 -3.71922 -3.72803 0
M  V30 12439 H 1158.97 -2.93944 -2.37498 0
M  V30 12440 H 1159.28 -6.38438 -4.3545 0
M  V30 12441 H 1157.63 -5.73773 -3.92186 0
M  V30 12442 H 1160.82 -3.69341 -2.87584 0
M  V30 12443 H 1160.99 -5.2642 -3.77871 0
M  V30 12444 N 1154.4 1.08748 -1.14068 0
M  V30 12445 C 1155.36 2.1375 -0.827266 0
M  V30 12446 C 1156.36 1.59936 0.166496 0
M  V30 12447 O 1157.55 1.74092 -0.0614305 0
M  V30 12448 C 1154.68 3.40106 -0.232557 0
M  V30 12449 H 1155.87 2.42985 -1.7578 0
M  V30 12450 H 1153.43 1.24402 -0.946244 0
M  V30 12451 H 1154.16 3.16503 0.706859 0
M  V30 12452 H 1153.95 3.8046 -0.948293 0
M  V30 12453 H 1155.44 4.17589 -0.0303662 0
M  V30 12454 N 1155.87 0.935264 1.26849 0
M  V30 12455 C 1157.1 0.595704 1.98661 0
M  V30 12456 C 1157.52 -0.821001 1.69237 0
M  V30 12457 O 1156.88 -1.55211 0.936982 0
M  V30 12458 C 1156.93 0.837275 3.50745 0
M  V30 12459 O 1156.03 -0.0934914 4.12294 0
M  V30 12460 H 1155.38 0.228512 0.623441 0
M  V30 12461 H 1157.91 1.25658 1.61466 0
M  V30 12462 H 1157.92 0.755827 4.00938 0
M  V30 12463 H 1156.59 1.86993 3.71492 0
M  V30 12464 H 1155.17 0.0385124 3.7288 0
M  V30 12465 N 1157.35 -1.41121 0.701616 0
M  V30 12466 C 1158.59 -2.02993 0.239383 0
M  V30 12467 C 1158.96 -1.5439 -1.1414 0
M  V30 12468 O 1160.16 -2.08229 -1.69982 0
M  V30 12469 C 1158.43 -3.56128 0.301232 0
M  V30 12470 S 1159.99 -4.38716 -0.0860681 0
M  V30 12471 H 1156.81 -0.704494 0.0959645 0
M  V30 12472 H 1159.41 -1.72461 0.920736 0
M  V30 12473 H 1158.11 -3.88996 1.30805 0
M  V30 12474 H 1157.64 -3.91371 -0.399069 0
M  V30 12475 H 1159.66 -4.78537 -1.31212 0
M  V30 12476 N 1158.83 -0.446794 -1.51134 0
M  V30 12477 C 1159.74 0.36579 -2.31731 0
M  V30 12478 C 1160.76 1.01886 -1.41051 0
M  V30 12479 O 1161.93 1.01216 -1.74119 0
M  V30 12480 C 1159 1.44705 -3.15058 0
M  V30 12481 C 1158.06 0.813129 -4.21529 0
M  V30 12482 C 1157.29 1.84287 -5.00873 0
M  V30 12483 O 1157.51 3.06633 -4.8097 0
M  V30 12484 O 1156.45 1.42816 -5.84711 0
M  V30 12485 H 1160.27 -0.292436 -3.02289 0
M  V30 12486 H 1157.86 -0.209129 -1.47929 0
M  V30 12487 H 1159.74 2.07393 -3.66833 0
M  V30 12488 H 1158.42 2.08919 -2.47254 0
M  V30 12489 H 1157.32 0.147953 -3.73807 0
M  V30 12490 H 1158.66 0.214331 -4.91733 0
M  V30 12491 N 1160.31 1.56586 -0.178487 0
M  V30 12492 C 1161.27 2.17091 0.73512 0
M  V30 12493 C 1162.27 1.12088 1.15295 0
M  V30 12494 O 1163.46 1.37563 1.06874 0
M  V30 12495 C 1160.59 2.75957 2.00151 0
M  V30 12496 H 1161.79 2.99176 0.208272 0
M  V30 12497 H 1159.34 1.56138 0.0710967 0
M  V30 12498 H 1160.07 1.97626 2.57127 0
M  V30 12499 H 1159.86 3.52809 1.7108 0
M  V30 12500 H 1161.35 3.2247 2.65335 0
M  V30 12501 N 1161.79 -0.095206 1.57312 0
M  V30 12502 C 1162.72 -1.11627 2.05089 0
M  V30 12503 C 1163.7 -1.41782 0.939787 0
M  V30 12504 O 1164.88 -1.51813 1.21105 0
M  V30 12505 C 1162.01 -2.43618 2.47523 0
M  V30 12506 C 1160.97 -2.27872 3.62296 0
M  V30 12507 C 1160.29 -3.65038 3.90706 0
M  V30 12508 C 1161.59 -1.71936 4.93189 0
M  V30 12509 H 1163.29 -0.718795 2.90644 0
M  V30 12510 H 1160.83 -0.344315 1.39823 0
M  V30 12511 H 1162.79 -3.1532 2.79556 0
M  V30 12512 H 1161.51 -2.85301 1.58968 0
M  V30 12513 H 1160.17 -1.58615 3.3051 0
M  V30 12514 H 1159.82 -4.04249 2.99319 0
M  V30 12515 H 1159.52 -3.55349 4.67976 0
M  V30 12516 H 1161.04 -4.38208 4.25213 0
M  V30 12517 H 1162.45 -2.33479 5.23603 0
M  V30 12518 H 1160.85 -1.73006 5.74621 0
M  V30 12519 H 1161.92 -0.678789 4.80125 0
M  V30 12520 N 1163.26 -1.53291 -0.366026 0
M  V30 12521 C 1164.49 -1.73108 -1.1277 0
M  V30 12522 C 1164.9 -0.459662 -1.83531 0
M  V30 12523 O 1164.25 0.577151 -1.74398 0
M  V30 12524 C 1164.31 -2.84137 -2.20242 0
M  V30 12525 C 1163.97 -4.24503 -1.69252 0
M  V30 12526 C 1164.97 -5.06866 -1.15684 0
M  V30 12527 C 1162.65 -4.70912 -1.74778 0
M  V30 12528 C 1164.65 -6.33728 -0.683191 0
M  V30 12529 C 1162.33 -5.97752 -1.27025 0
M  V30 12530 C 1163.33 -6.78992 -0.738858 0
M  V30 12531 O 1163.02 -8.03452 -0.268375 0
M  V30 12532 H 1162.75 -0.582439 -0.343134 0
M  V30 12533 H 1165.31 -2.00828 -0.430969 0
M  V30 12534 H 1163.54 -2.5189 -2.93408 0
M  V30 12535 H 1165.23 -2.92136 -2.818 0
M  V30 12536 H 1165.99 -4.72185 -1.10753 0
M  V30 12537 H 1161.87 -4.07751 -2.15081 0
M  V30 12538 H 1165.41 -6.97086 -0.267746 0
M  V30 12539 H 1161.31 -6.31933 -1.31649 0
M  V30 12540 H 1162.08 -8.17581 -0.387745 0
M  V30 12541 N 1164.74 0.6258 -1.44643 0
M  V30 12542 C 1165.97 1.41726 -1.51422 0
M  V30 12543 C 1166.39 1.87565 -0.14181 0
M  V30 12544 O 1165.75 1.59059 0.870054 0
M  V30 12545 C 1165.8 2.61012 -2.48807 0
M  V30 12546 O 1164.9 3.61029 -1.99328 0
M  V30 12547 H 1164.24 0.423855 -0.511119 0
M  V30 12548 H 1166.77 0.763336 -1.89827 0
M  V30 12549 H 1166.78 3.08489 -2.67018 0
M  V30 12550 H 1165.46 2.26995 -3.48491 0
M  V30 12551 H 1164.04 3.20325 -1.90909 0
M  V30 12552 N 1166.22 1.31629 0.866686 0
M  V30 12553 C 1167.13 1.21524 2.00671 0
M  V30 12554 C 1168.15 0.131277 1.73504 0
M  V30 12555 O 1169.32 0.349699 1.98341 0
M  V30 12556 C 1166.39 0.926491 3.34091 0
M  V30 12557 C 1165.45 2.09769 3.7456 0
M  V30 12558 C 1164.68 1.82262 5.01614 0
M  V30 12559 O 1164.9 0.759329 5.65323 0
M  V30 12560 O 1163.84 2.68031 5.38928 0
M  V30 12561 H 1167.66 2.17335 2.1213 0
M  V30 12562 H 1165.25 1.11401 0.995499 0
M  V30 12563 H 1167.13 0.78144 4.14091 0
M  V30 12564 H 1165.81 -0.00155829 3.237 0
M  V30 12565 H 1164.71 2.29816 2.95187 0
M  V30 12566 H 1166.05 3.0081 3.89582 0
M  V30 12567 N 1167.7 -1.08142 1.14644 0
M  V30 12568 C 1168.63 -2.14476 0.779437 0
M  V30 12569 C 1169.61 -1.60812 -0.240454 0
M  V30 12570 O 1170.79 -1.88059 -0.128881 0
M  V30 12571 C 1167.92 -3.38333 0.157692 0
M  V30 12572 C 1166.97 -4.10754 1.14819 0
M  V30 12573 S 1167.8 -4.63227 2.68666 0
M  V30 12574 C 1168.96 -5.90367 2.07888 0
M  V30 12575 H 1169.19 -2.45276 1.68009 0
M  V30 12576 H 1166.72 -1.20292 0.967942 0
M  V30 12577 H 1168.68 -4.10038 -0.194607 0
M  V30 12578 H 1167.34 -3.05726 -0.720435 0
M  V30 12579 H 1166.53 -4.99644 0.661226 0
M  V30 12580 H 1166.14 -3.44974 1.44462 0
M  V30 12581 H 1168.43 -6.62107 1.43599 0
M  V30 12582 H 1169.37 -6.43764 2.94913 0
M  V30 12583 H 1169.78 -5.43507 1.52514 0
M  V30 12584 N 1169.18 -0.941978 -1.26351 0
M  V30 12585 C 1170.45 -0.507822 -1.88893 0
M  V30 12586 C 1170.83 1.0146 -1.85119 0
M  V30 12587 O 1170.18 1.87495 -1.30606 0
M  V30 12588 C 1170.39 -1.07007 -3.3219 0
M  V30 12589 C 1171.74 -1.13922 -4.09032 0
M  V30 12590 O 1172.76 -1.02072 -3.41262 0
M  V30 12591 O 1171.62 -1.32362 -5.30229 0
M  V30 12592 H 1168.72 -0.165621 -0.810246 0
M  V30 12593 H 1171.26 -1.03459 -1.34515 0
M  V30 12594 H 1170.04 -2.11366 -3.29302 0
M  V30 12595 H 1169.66 -0.525797 -3.94108 0
M  V30 12596 N 1170.66 1.40747 -0.709091 0
M  V30 12597 C 1172.07 1.83955 -0.318968 0
M  V30 12598 C 1172.42 1.59304 1.14527 0
M  V30 12599 O 1171.54 1.07052 1.88066 0
M  V30 12600 C 1172.14 3.33934 -0.572147 0
M  V30 12601 C 1170.7 3.75661 -0.235802 0
M  V30 12602 C 1169.84 2.64024 -0.847743 0
M  V30 12603 H 1172.79 1.30107 -0.908734 0
M  V30 12604 H 1172.82 3.80143 0.164752 0
M  V30 12605 H 1172.33 3.51844 -1.63791 0
M  V30 12606 H 1170.43 3.63348 0.825164 0
M  V30 12607 H 1170.54 4.73955 -0.700263 0
M  V30 12608 H 1168.91 2.53197 -0.276283 0
M  V30 12609 H 1169.69 2.84748 -1.91765 0
M  V30 12610 N 1172.13 0.454803 1.50895 0
M  V30 12611 C 1173.04 -0.353495 2.31921 0
M  V30 12612 C 1174.06 -1.01136 1.41589 0
M  V30 12613 O 1175.24 -1.00291 1.74653 0
M  V30 12614 C 1172.3 -1.43032 3.15821 0
M  V30 12615 C 1171.36 -0.790763 4.21954 0
M  V30 12616 C 1170.59 -1.81628 5.01843 0
M  V30 12617 O 1170.82 -3.04078 4.8259 0
M  V30 12618 O 1169.75 -1.39713 5.8546 0
M  V30 12619 H 1173.58 0.308463 3.02129 0
M  V30 12620 H 1171.16 0.216971 1.47816 0
M  V30 12621 H 1173.04 -2.05444 3.67927 0
M  V30 12622 H 1171.72 -2.07605 2.48358 0
M  V30 12623 H 1170.63 -0.128127 3.73881 0
M  V30 12624 H 1171.96 -0.188251 4.9184 0
M  V30 12625 N 1173.61 -1.56489 0.186789 0
M  V30 12626 C 1174.52 -2.22304 -0.749543 0
M  V30 12627 C 1175.54 -1.21949 -1.24115 0
M  V30 12628 O 1176.71 -1.5466 -1.29005 0
M  V30 12629 C 1173.78 -2.863 -1.95533 0
M  V30 12630 C 1172.84 -4.01901 -1.5091 0
M  V30 12631 C 1172.07 -4.62837 -2.6574 0
M  V30 12632 O 1172.3 -4.22681 -3.8301 0
M  V30 12633 O 1171.23 -5.52446 -2.38929 0
M  V30 12634 H 1175.06 -3.02909 -0.21908 0
M  V30 12635 H 1172.64 -1.49341 -0.0421249 0
M  V30 12636 H 1174.52 -3.2682 -2.6602 0
M  V30 12637 H 1173.2 -2.08681 -2.47455 0
M  V30 12638 H 1172.1 -3.66021 -0.773261 0
M  V30 12639 H 1173.44 -4.8116 -1.03663 0
M  V30 12640 N 1175.09 0.086862 -1.5736 0
M  V30 12641 C 1176.51 0.441284 -1.53378 0
M  V30 12642 C 1176.71 1.80046 -0.904748 0
M  V30 12643 O 1175.76 2.47484 -0.500781 0
M  V30 12644 C 1177.07 0.3962 -2.98078 0
M  V30 12645 C 1178.62 0.477468 -3.09337 0
M  V30 12646 C 1179.1 0.462448 -4.55659 0
M  V30 12647 N 1180.59 0.522963 -4.60238 0
M  V30 12648 C 1181.32 0.533313 -5.70914 0
M  V30 12649 N 1180.82 0.499376 -6.90998 0
M  V30 12650 N 1182.61 0.578742 -5.59113 0
M  V30 12651 H 1174.76 -0.803308 -1.96623 0
M  V30 12652 H 1177.03 -0.299879 -0.89932 0
M  V30 12653 H 1176.73 -0.535505 -3.47599 0
M  V30 12654 H 1176.61 1.21209 -3.57195 0
M  V30 12655 H 1178.99 1.39959 -2.59799 0
M  V30 12656 H 1179.07 -0.366717 -2.53158 0
M  V30 12657 H 1178.72 -0.455768 -5.05851 0
M  V30 12658 H 1178.65 1.32396 -5.09685 0
M  V30 12659 H 1181.14 0.554051 -3.73816 0
M  V30 12660 H 1181.45 0.510784 -7.7111 0
M  V30 12661 H 1179.8 0.466296 -6.93434 0
M  V30 12662 H 1182.99 0.602841 -4.64202 0
M  V30 12663 H 1183.16 0.583339 -6.45369 0
M  V30 12664 N 1176.57 1.53483 0.357892 0
M  V30 12665 C 1177.5 1.83444 1.44466 0
M  V30 12666 C 1178.48 0.688486 1.55544 0
M  V30 12667 O 1179.66 0.93906 1.69986 0
M  V30 12668 C 1176.79 2.03122 2.81707 0
M  V30 12669 C 1175.75 3.1891 2.85448 0
M  V30 12670 C 1175.07 3.23895 4.25436 0
M  V30 12671 C 1176.37 4.57334 2.52275 0
M  V30 12672 H 1178.07 2.74456 1.19642 0
M  V30 12673 H 1175.61 1.3206 0.574112 0
M  V30 12674 H 1177.57 2.22666 3.57768 0
M  V30 12675 H 1176.29 1.08827 3.07935 0
M  V30 12676 H 1174.95 2.99199 2.11838 0
M  V30 12677 H 1174.6 2.27223 4.48753 0
M  V30 12678 H 1174.3 4.01694 4.28854 0
M  V30 12679 H 1175.82 3.45632 5.0336 0
M  V30 12680 H 1177.24 4.76988 3.1805 0
M  V30 12681 H 1175.63 5.37431 2.66998 0
M  V30 12682 H 1176.7 4.61921 1.47501 0
M  V30 12683 N 1178.05 -0.61812 1.44973 0
M  V30 12684 C 1179.46 -0.937734 1.29146 0
M  V30 12685 C 1179.66 -2.00104 0.236749 0
M  V30 12686 O 1178.72 -2.49731 -0.372923 0
M  V30 12687 C 1180.03 -1.38865 2.66715 0
M  V30 12688 C 1181.58 -1.50343 2.74529 0
M  V30 12689 C 1182.05 -1.98814 4.12598 0
M  V30 12690 N 1183.54 -2.06064 4.14839 0
M  V30 12691 C 1184.28 -2.44768 5.18533 0
M  V30 12692 N 1183.78 -2.82516 6.32579 0
M  V30 12693 N 1185.57 -2.45016 5.05889 0
M  V30 12694 H 1177.72 0.084872 2.1223 0
M  V30 12695 H 1179.98 -0.0246744 0.947679 0
M  V30 12696 H 1179.69 -0.681583 3.45032 0
M  V30 12697 H 1179.56 -2.3572 2.94475 0
M  V30 12698 H 1181.95 -2.20144 1.96522 0
M  V30 12699 H 1182.03 -0.518297 2.50494 0
M  V30 12700 H 1181.67 -1.29604 4.91086 0
M  V30 12701 H 1181.6 -2.98223 4.34017 0
M  V30 12702 H 1184.1 -1.79525 3.32535 0
M  V30 12703 H 1184.41 -3.109 7.07504 0
M  V30 12704 H 1182.75 -2.80237 6.35997 0
M  V30 12705 H 1185.94 -2.14925 4.15842 0
M  V30 12706 H 1186.12 -2.74854 5.86821 0
M  V30 12707 N 1179.52 -1.32087 -0.859693 0
M  V30 12708 C 1180.77 -1.2236 -1.61351 0
M  V30 12709 C 1181.1 0.215796 -1.93299 0
M  V30 12710 O 1180.35 1.16742 -1.57066 0
M  V30 12711 C 1180.65 -2.0234 -2.94607 0
M  V30 12712 C 1180.32 -3.51746 -2.82109 0
M  V30 12713 C 1178.98 -3.92482 -2.78408 0
M  V30 12714 C 1181.33 -4.46776 -2.68403 0
M  V30 12715 C 1178.66 -5.265 -2.58873 0
M  V30 12716 C 1181.01 -5.80931 -2.50404 0
M  V30 12717 C 1179.68 -6.20875 -2.45092 0
M  V30 12718 H 1178.95 -0.447748 -0.590426 0
M  V30 12719 H 1181.59 -1.63461 -0.997637 0
M  V30 12720 H 1179.9 -1.53952 -3.60286 0
M  V30 12721 H 1181.6 -1.92187 -3.51945 0
M  V30 12722 H 1178.19 -3.19389 -2.85812 0
M  V30 12723 H 1182.37 -4.16228 -2.70311 0
M  V30 12724 H 1177.63 -5.5651 -2.53192 0
M  V30 12725 H 1181.8 -6.54185 -2.38777 0
M  V30 12726 H 1179.43 -7.24662 -2.29714 0
M  V30 12727 N 1181 1.07532 -1.15215 0
M  V30 12728 C 1181.96 2.1286 -0.84989 0
M  V30 12729 C 1182.96 1.60103 0.149524 0
M  V30 12730 O 1184.15 1.74017 -0.0798918 0
M  V30 12731 C 1181.29 3.3984 -0.268617 0
M  V30 12732 H 1182.48 2.41106 -1.78347 0
M  V30 12733 H 1180.03 1.23392 -0.959386 0
M  V30 12734 H 1180.77 3.17235 0.67325 0
M  V30 12735 H 1180.55 3.79433 -0.988592 0
M  V30 12736 H 1182.04 4.17533 -0.0746554 0
M  V30 12737 N 1182.48 0.948665 1.2585 0
M  V30 12738 C 1183.71 0.617229 1.97479 0
M  V30 12739 C 1184.12 -0.809406 1.7057 0
M  V30 12740 O 1183.48 -1.54066 0.97826 0
M  V30 12741 C 1183.53 0.859065 3.51144 0
M  V30 12742 O 1183.25 2.2296 3.77121 0
M  V30 12743 C 1184.75 0.539197 4.40009 0
M  V30 12744 H 1181.97 0.231933 0.629641 0
M  V30 12745 H 1184.52 1.27141 1.60173 0
M  V30 12746 H 1182.67 0.25138 3.86584 0
M  V30 12747 H 1183.09 2.29524 4.71613 0
M  V30 12748 H 1184.56 0.758986 5.46757 0
M  V30 12749 H 1185.04 -0.526062 4.36038 0
M  V30 12750 H 1185.64 1.12594 4.10125 0
M  V30 12751 N 1183.96 -1.40369 0.716545 0
M  V30 12752 C 1185.19 -2.05181 0.266143 0
M  V30 12753 C 1185.6 -1.53988 -1.09239 0
M  V30 12754 O 1184.96 -0.696859 -1.68672 0
M  V30 12755 C 1185.01 -3.60713 0.238384 0
M  V30 12756 O 1184.73 -4.10018 1.54328 0
M  V30 12757 C 1186.23 -4.42701 -0.230453 0
M  V30 12758 H 1183.45 -0.66028 0.119463 0
M  V30 12759 H 1186 -1.7976 0.97502 0
M  V30 12760 H 1184.15 -3.85101 -0.421466 0
M  V30 12761 H 1184.56 -5.0422 1.4444 0
M  V30 12762 H 1186.04 -5.51642 -0.198728 0
M  V30 12763 H 1186.52 -4.20354 -1.27276 0
M  V30 12764 H 1187.12 -4.23423 0.399155 0
M  V30 12765 N 1185.44 -0.462799 -1.50652 0
M  V30 12766 C 1186.85 -0.11648 -1.59174 0
M  V30 12767 C 1187.05 1.37638 -1.47167 0
M  V30 12768 O 1186.11 2.14886 -1.3259 0
M  V30 12769 C 1187.42 -0.659289 -2.93383 0
M  V30 12770 C 1188.97 -0.62198 -3.06758 0
M  V30 12771 C 1189.44 -1.14219 -4.43529 0
M  V30 12772 N 1190.94 -1.10125 -4.49919 0
M  V30 12773 C 1191.67 -1.47436 -5.54121 0
M  V30 12774 N 1191.17 -1.92156 -6.65618 0
M  V30 12775 N 1192.96 -1.39091 -5.44619 0
M  V30 12776 H 1185.11 -1.43383 -1.56701 0
M  V30 12777 H 1187.37 -0.592438 -0.740082 0
M  V30 12778 H 1187.08 -1.70477 -3.07621 0
M  V30 12779 H 1186.95 -0.0982388 -3.77072 0
M  V30 12780 H 1189.34 0.414576 -2.92173 0
M  V30 12781 H 1189.42 -1.21974 -2.24847 0
M  V30 12782 H 1189.07 -2.17734 -4.58862 0
M  V30 12783 H 1189 -0.52073 -5.24019 0
M  V30 12784 H 1191.49 -0.773154 -3.69906 0
M  V30 12785 H 1191.8 -2.18796 -7.4118 0
M  V30 12786 H 1190.14 -1.96103 -6.6676 0
M  V30 12787 H 1193.34 -1.04001 -4.564 0
M  V30 12788 H 1193.51 -1.68496 -6.2571 0
M  V30 12789 N 1186.91 1.56388 -0.195085 0
M  V30 12790 C 1187.86 2.15705 0.738595 0
M  V30 12791 C 1188.85 1.09782 1.1763 0
M  V30 12792 O 1190.04 1.35844 1.1347 0
M  V30 12793 C 1187.17 2.81994 1.95791 0
M  V30 12794 C 1186.26 3.95108 1.54111 0
M  V30 12795 N 1186.65 4.98856 0.835261 0
M  V30 12796 C 1184.94 4.06709 1.8304 0
M  V30 12797 C 1185.65 5.78317 0.626417 0
M  V30 12798 N 1184.62 5.30746 1.17513 0
M  V30 12799 H 1188.42 2.93281 0.190597 0
M  V30 12800 H 1185.94 1.62399 0.00470391 0
M  V30 12801 H 1187.93 3.22883 2.63728 0
M  V30 12802 H 1186.59 2.05906 2.51063 0
M  V30 12803 H 1187.61 5.1557 0.490732 0
M  V30 12804 H 1184.28 3.41749 2.39821 0
M  V30 12805 H 1185.67 6.71867 0.0664935 0
M  V30 12806 N 1188.39 -0.0785156 1.57404 0
M  V30 12807 C 1189.32 -1.09446 2.06262 0
M  V30 12808 C 1190.3 -1.40777 0.954772 0
M  V30 12809 O 1191.49 -1.5052 1.22708 0
M  V30 12810 C 1188.62 -2.40979 2.50093 0
M  V30 12811 C 1187.57 -2.24017 3.64692 0
M  V30 12812 C 1186.9 -3.60873 3.94556 0
M  V30 12813 C 1188.2 -1.66696 4.94985 0
M  V30 12814 H 1189.89 -0.687928 2.9139 0
M  V30 12815 H 1187.44 -0.329466 1.4018 0
M  V30 12816 H 1189.39 -3.12337 2.82884 0
M  V30 12817 H 1188.12 -2.83599 1.61985 0
M  V30 12818 H 1186.77 -1.55101 3.32174 0
M  V30 12819 H 1186.42 -4.01051 3.0359 0
M  V30 12820 H 1186.12 -3.50365 4.71718 0
M  V30 12821 H 1187.65 -4.33673 4.29837 0
M  V30 12822 H 1189.06 -2.27913 5.2605 0
M  V30 12823 H 1187.46 -1.66902 5.76423 0
M  V30 12824 H 1188.53 -0.627827 4.80818 0
M  V30 12825 N 1189.87 -1.5367 -0.349747 0
M  V30 12826 C 1191.29 -1.43796 -0.692457 0
M  V30 12827 C 1191.49 -0.58972 -1.92677 0
M  V30 12828 O 1190.54 -0.078294 -2.52379 0
M  V30 12829 C 1191.86 -2.872 -0.890881 0
M  V30 12830 C 1193.4 -2.96935 -0.989892 0
M  V30 12831 C 1193.88 -4.41433 -1.22068 0
M  V30 12832 N 1195.37 -4.44932 -1.28802 0
M  V30 12833 C 1196.1 -5.53864 -1.48398 0
M  V30 12834 N 1195.6 -6.72814 -1.65208 0
M  V30 12835 N 1197.39 -5.41467 -1.50896 0
M  V30 12836 H 1189.54 -2.07317 0.461895 0
M  V30 12837 H 1191.81 -0.936895 0.144681 0
M  V30 12838 H 1191.51 -3.51656 -0.0555095 0
M  V30 12839 H 1191.39 -3.31784 -1.79442 0
M  V30 12840 H 1193.77 -2.32622 -1.81579 0
M  V30 12841 H 1193.86 -2.55721 -0.0633906 0
M  V30 12842 H 1193.5 -5.06325 -0.399729 0
M  V30 12843 H 1193.43 -4.80233 -2.16064 0
M  V30 12844 H 1195.92 -3.59214 -1.17361 0
M  V30 12845 H 1196.23 -7.51598 -1.79779 0
M  V30 12846 H 1194.58 -6.7577 -1.62356 0
M  V30 12847 H 1197.77 -4.47498 -1.37342 0
M  V30 12848 H 1197.94 -6.26423 -1.65826 0
M  V30 12849 N 1191.35 0.610423 -1.45298 0
M  V30 12850 C 1192.76 1.19234 -1.43667 0
M  V30 12851 C 1193.11 1.95523 -0.162794 0
M  V30 12852 O 1192.24 2.03507 0.735789 0
M  V30 12853 C 1192.83 2.16892 -2.60276 0
M  V30 12854 C 1191.39 2.70465 -2.61774 0
M  V30 12855 C 1190.54 1.45821 -2.35863 0
M  V30 12856 H 1193.49 0.399895 -1.53579 0
M  V30 12857 H 1193.51 2.99875 -2.34212 0
M  V30 12858 H 1193.02 1.61339 -3.52975 0
M  V30 12859 H 1191.12 3.29965 -1.73072 0
M  V30 12860 H 1191.23 3.15092 -3.60907 0
M  V30 12861 H 1189.6 1.74678 -1.85364 0
M  V30 12862 H 1190.38 0.921403 -3.30704 0
M  V30 12863 N 1192.83 1.32541 0.852676 0
M  V30 12864 C 1194.1 1.1383 1.59067 0
M  V30 12865 C 1194.48 -0.300584 2.08949 0
M  V30 12866 O 1193.83 -1.29751 1.88088 0
M  V30 12867 C 1194.04 2.16758 2.73527 0
M  V30 12868 C 1195.39 2.50194 3.43057 0
M  V30 12869 O 1196.41 2.15319 2.83754 0
M  V30 12870 O 1195.27 3.09985 4.50079 0
M  V30 12871 H 1192.37 0.439379 0.700625 0
M  V30 12872 H 1194.91 1.44078 0.896632 0
M  V30 12873 H 1193.68 3.13469 2.34207 0
M  V30 12874 H 1193.31 1.87515 3.50605 0
M  V30 12875 N 1194.3 -1.0692 1.15784 0
M  V30 12876 C 1195.24 -2.13637 0.802141 0
M  V30 12877 C 1196.22 -1.61058 -0.223384 0
M  V30 12878 O 1197.4 -1.88185 -0.108927 0
M  V30 12879 C 1194.53 -3.38146 0.193568 0
M  V30 12880 C 1193.57 -4.09513 1.19169 0
M  V30 12881 S 1194.41 -4.60351 2.73564 0
M  V30 12882 C 1195.56 -5.88129 2.14138 0
M  V30 12883 H 1195.79 -2.4348 1.70601 0
M  V30 12884 H 1193.33 -1.19259 0.980646 0
M  V30 12885 H 1195.29 -4.10222 -0.151106 0
M  V30 12886 H 1193.95 -3.06473 -0.687968 0
M  V30 12887 H 1193.14 -4.98914 0.714183 0
M  V30 12888 H 1192.74 -3.43422 1.48113 0
M  V30 12889 H 1195.03 -6.60547 1.50614 0
M  V30 12890 H 1195.98 -6.406 3.01724 0
M  V30 12891 H 1196.38 -5.41859 1.5827 0
M  V30 12892 N 1195.78 -0.955326 -1.25345 0
M  V30 12893 C 1196.73 -0.474888 -2.25862 0
M  V30 12894 C 1197.7 0.472996 -1.59223 0
M  V30 12895 O 1198.88 0.386094 -1.86853 0
M  V30 12896 C 1196.02 0.240554 -3.44261 0
M  V30 12897 C 1195.14 -0.74465 -4.25534 0
M  V30 12898 C 1194.27 -0.00657513 -5.312 0
M  V30 12899 C 1193.31 -0.982666 -6.04161 0
M  V30 12900 N 1192.45 -0.275418 -7.0156 0
M  V30 12901 H 1197.29 -1.33693 -2.66327 0
M  V30 12902 H 1194.83 -0.670439 -1.30933 0
M  V30 12903 H 1196.78 0.671933 -4.11753 0
M  V30 12904 H 1195.41 1.06664 -3.04668 0
M  V30 12905 H 1194.47 -1.29451 -3.57696 0
M  V30 12906 H 1195.78 -1.48948 -4.76042 0
M  V30 12907 H 1194.93 0.483404 -6.04771 0
M  V30 12908 H 1193.67 0.771035 -4.81567 0
M  V30 12909 H 1192.68 -1.48364 -5.29404 0
M  V30 12910 H 1193.9 -1.76052 -6.55883 0
M  V30 12911 H 1191.85 0.483441 -6.54216 0
M  V30 12912 H 1191.76 -0.959324 -7.49889 0
M  V30 12913 H 1193.03 0.193002 -7.79261 0
M  V30 12914 N 1197.26 1.39987 -0.723979 0
M  V30 12915 C 1198.49 2.05037 -0.27702 0
M  V30 12916 C 1198.9 1.54565 1.08421 0
M  V30 12917 O 1198.26 0.705795 1.683 0
M  V30 12918 C 1198.31 3.60582 -0.25751 0
M  V30 12919 O 1198.03 4.09194 -1.565 0
M  V30 12920 C 1199.53 4.42817 0.206972 0
M  V30 12921 H 1196.75 0.659637 -0.122963 0
M  V30 12922 H 1199.3 1.7924 -0.98454 0
M  V30 12923 H 1197.45 3.85319 0.401037 0
M  V30 12924 H 1197.87 5.03447 -1.47112 0
M  V30 12925 H 1199.34 5.5174 0.16947 0
M  V30 12926 H 1199.82 4.21023 1.25045 0
M  V30 12927 H 1200.42 4.23205 -0.421604 0
M  V30 12928 N 1198.74 0.470782 1.50404 0
M  V30 12929 C 1199.69 -0.342183 2.25418 0
M  V30 12930 C 1200.67 -0.961726 1.28995 0
M  V30 12931 O 1201.87 -0.874327 1.53898 0
M  V30 12932 C 1198.99 -1.42378 3.12383 0
M  V30 12933 C 1198.08 -0.811982 4.16254 0
M  V30 12934 N 1198.47 0.0675245 5.05755 0
M  V30 12935 C 1196.77 -1.07596 4.32827 0
M  V30 12936 C 1197.47 0.414693 5.8022 0
M  V30 12937 N 1196.45 -0.210047 5.43194 0
M  V30 12938 H 1200.25 0.335344 2.91981 0
M  V30 12939 H 1197.76 0.284911 1.59881 0
M  V30 12940 H 1199.76 -2.01936 3.64729 0
M  V30 12941 H 1198.42 -2.1033 2.47369 0
M  V30 12942 H 1199.43 0.436333 5.16059 0
M  V30 12943 H 1196.11 -1.75048 3.79031 0
M  V30 12944 H 1197.5 1.13243 6.62288 0
M  V30 12945 N 1200.22 -1.56282 0.203376 0
M  V30 12946 C 1201.15 -2.2247 -0.709183 0
M  V30 12947 C 1202.13 -1.19046 -1.21499 0
M  V30 12948 O 1203.31 -1.47578 -1.26231 0
M  V30 12949 C 1200.44 -2.8905 -1.92529 0
M  V30 12950 C 1199.4 -3.98789 -1.55407 0
M  V30 12951 C 1198.72 -4.52574 -2.84747 0
M  V30 12952 C 1200.02 -5.16774 -0.75775 0
M  V30 12953 H 1201.72 -2.98986 -0.157392 0
M  V30 12954 H 1199.26 -1.43808 -0.0742613 0
M  V30 12955 H 1201.22 -3.34038 -2.56898 0
M  V30 12956 H 1199.94 -2.09952 -2.50175 0
M  V30 12957 H 1198.6 -3.54504 -0.933928 0
M  V30 12958 H 1198.25 -3.70229 -3.40499 0
M  V30 12959 H 1197.95 -5.26627 -2.6065 0
M  V30 12960 H 1199.47 -5.00269 -3.5009 0
M  V30 12961 H 1200.89 -5.58256 -1.30472 0
M  V30 12962 H 1199.28 -5.96945 -0.614583 0
M  V30 12963 H 1200.35 -4.84308 0.239476 0
M  V30 12964 N 1201.7 0.070167 -1.57444 0
M  V30 12965 C 1202.97 0.802108 -1.78397 0
M  V30 12966 C 1203.35 1.95706 -0.791356 0
M  V30 12967 O 1202.7 2.27827 0.17518 0
M  V30 12968 C 1202.91 1.27354 -3.24934 0
M  V30 12969 C 1204.26 1.70626 -3.88808 0
M  V30 12970 O 1205.28 1.36916 -3.28835 0
M  V30 12971 O 1204.14 2.33041 -4.94322 0
M  V30 12972 H 1201.24 0.384483 -0.73219 0
M  V30 12973 H 1203.78 0.0501168 -1.69626 0
M  V30 12974 H 1202.55 0.447204 -3.88736 0
M  V30 12975 H 1202.18 2.0868 -3.38435 0
M  V30 12976 N 1203.17 1.53854 0.341593 0
M  V30 12977 C 1204.59 1.44161 0.684821 0
M  V30 12978 C 1204.79 0.599929 1.92362 0
M  V30 12979 O 1203.85 0.0916771 2.52334 0
M  V30 12980 C 1205.16 2.87668 0.875637 0
M  V30 12981 C 1206.71 2.97455 0.974131 0
M  V30 12982 C 1207.18 4.42075 1.19725 0
M  V30 12983 N 1208.67 4.45609 1.2644 0
M  V30 12984 C 1209.41 5.54643 1.45459 0
M  V30 12985 N 1208.9 6.7368 1.61637 0
M  V30 12986 N 1210.7 5.4226 1.48022 0
M  V30 12987 H 1202.85 2.07069 -0.472883 0
M  V30 12988 H 1205.11 0.936114 -0.149648 0
M  V30 12989 H 1204.82 3.51681 0.0368595 0
M  V30 12990 H 1204.69 3.32731 1.7768 0
M  V30 12991 H 1207.08 2.33582 1.80343 0
M  V30 12992 H 1207.16 2.55751 0.0498282 0
M  V30 12993 H 1206.8 5.06529 0.372872 0
M  V30 12994 H 1206.73 4.81372 2.13515 0
M  V30 12995 H 1209.22 3.59831 1.15455 0
M  V30 12996 H 1209.54 7.52541 1.7579 0
M  V30 12997 H 1207.88 6.76622 1.5877 0
M  V30 12998 H 1211.07 4.48221 1.34966 0
M  V30 12999 H 1211.25 6.27293 1.62502 0
M  V30 13000 N 1204.65 -0.602709 1.4562 0
M  V30 13001 C 1206.06 -1.1847 1.44297 0
M  V30 13002 C 1206.41 -1.95434 0.17316 0
M  V30 13003 O 1205.54 -2.03894 -0.724986 0
M  V30 13004 C 1206.13 -2.15508 2.61422 0
M  V30 13005 C 1204.69 -2.69073 2.63204 0
M  V30 13006 C 1203.84 -1.44568 2.36633 0
M  V30 13007 H 1206.79 -0.391745 1.53789 0
M  V30 13008 H 1206.81 -2.98628 2.35799 0
M  V30 13009 H 1206.32 -1.59464 3.53826 0
M  V30 13010 H 1204.42 -3.29042 1.7482 0
M  V30 13011 H 1204.54 -3.13173 3.62573 0
M  V30 13012 H 1202.9 -1.73692 1.86287 0
M  V30 13013 H 1203.68 -0.903852 3.31188 0
M  V30 13014 N 1206.13 -1.32992 -0.845635 0
M  V30 13015 C 1207.06 -1.25301 -1.97033 0
M  V30 13016 C 1208.04 -0.134966 -1.69564 0
M  V30 13017 O 1209.23 -0.323629 -1.91484 0
M  V30 13018 C 1206.36 -0.984551 -3.33052 0
M  V30 13019 C 1205.31 -2.06481 -3.749 0
M  V30 13020 C 1204.64 -1.6486 -5.08651 0
M  V30 13021 C 1205.94 -3.48083 -3.89404 0
M  V30 13022 H 1207.63 -2.194 -2.03725 0
M  V30 13023 H 1205.18 -1.05621 -0.978783 0
M  V30 13024 H 1207.13 -0.917269 -4.11296 0
M  V30 13025 H 1205.85 -0.00793116 -3.26599 0
M  V30 13026 H 1204.51 -2.1224 -2.98915 0
M  V30 13027 H 1204.16 -0.659183 -4.98662 0
M  V30 13028 H 1203.86 -2.37145 -5.37621 0
M  V30 13029 H 1205.38 -1.59585 -5.89377 0
M  V30 13030 H 1206.8 -3.44863 -4.57976 0
M  V30 13031 H 1205.19 -4.18796 -4.29802 0
M  V30 13032 H 1206.26 -3.87084 -2.92051 0
M  V30 13033 N 1207.61 1.06304 -1.1635 0
M  V30 13034 C 1208.85 1.79366 -0.94634 0
M  V30 13035 C 1209.19 1.86981 0.524569 0
M  V30 13036 O 1208.46 1.36134 1.38917 0
M  V30 13037 C 1208.74 3.23861 -1.57436 0
M  V30 13038 C 1208.6 3.24327 -3.1166 0
M  V30 13039 C 1209.92 4.21409 -1.26895 0
M  V30 13040 H 1207.04 0.65115 -0.345215 0
M  V30 13041 H 1209.68 1.24325 -1.43678 0
M  V30 13042 H 1207.83 3.70862 -1.15731 0
M  V30 13043 H 1209.5 2.85488 -3.62346 0
M  V30 13044 H 1207.74 2.62983 -3.44997 0
M  V30 13045 H 1208.41 4.2626 -3.50723 0
M  V30 13046 H 1210.89 3.8285 -1.62989 0
M  V30 13047 H 1209.77 5.20778 -1.73439 0
M  V30 13048 H 1210.03 4.41701 -0.187768 0
M  V30 13049 N 1209.09 0.96196 1.24836 0
M  V30 13050 C 1210.33 0.621634 1.93038 0
M  V30 13051 C 1210.66 -0.840257 1.75081 0
M  V30 13052 O 1209.94 -1.60381 1.10038 0
M  V30 13053 C 1210.22 0.990107 3.46221 0
M  V30 13054 C 1210.08 2.50827 3.73371 0
M  V30 13055 C 1211.39 0.520478 4.37011 0
M  V30 13056 H 1208.51 0.227312 0.701069 0
M  V30 13057 H 1211.16 1.19993 1.47315 0
M  V30 13058 H 1209.31 0.498008 3.85295 0
M  V30 13059 H 1210.98 3.07469 3.4389 0
M  V30 13060 H 1209.22 2.94277 3.18722 0
M  V30 13061 H 1209.89 2.71659 4.80526 0
M  V30 13062 H 1212.37 0.942703 4.05281 0
M  V30 13063 H 1211.24 0.806918 5.42937 0
M  V30 13064 H 1211.5 -0.579507 4.38285 0
M  V30 13065 N 1210.56 -1.39601 0.731392 0
M  V30 13066 C 1211.47 -2.34425 0.090527 0
M  V30 13067 C 1212.49 -1.58131 -0.725992 0
M  V30 13068 O 1213.67 -1.90441 -0.655294 0
M  V30 13069 C 1210.73 -3.37138 -0.808624 0
M  V30 13070 C 1209.79 -4.29295 0.0197365 0
M  V30 13071 C 1209.02 -5.27102 -0.836593 0
M  V30 13072 O 1209.25 -5.31302 -2.07543 0
M  V30 13073 O 1208.18 -6.01307 -0.267172 0
M  V30 13074 H 1212.01 -2.9088 0.873084 0
M  V30 13075 H 1209.59 -1.41066 0.492024 0
M  V30 13076 H 1211.47 -4.00087 -1.32319 0
M  V30 13077 H 1210.15 -2.83074 -1.57006 0
M  V30 13078 H 1209.06 -3.69581 0.579744 0
M  V30 13079 H 1210.39 -4.86555 0.743308 0
M  V30 13080 N 1212.04 -0.478751 -1.50152 0
M  V30 13081 C 1212.97 0.301182 -2.31549 0
M  V30 13082 C 1213.95 0.983276 -1.38801 0
M  V30 13083 O 1215.14 0.978973 -1.67719 0
M  V30 13084 C 1212.27 1.3791 -3.18745 0
M  V30 13085 C 1211.22 0.818175 -4.20107 0
M  V30 13086 C 1210.55 1.99496 -4.9609 0
M  V30 13087 C 1211.85 -0.17574 -5.22004 0
M  V30 13088 H 1213.54 -0.378188 -2.97002 0
M  V30 13089 H 1211.09 -0.183323 -1.42828 0
M  V30 13090 H 1213.04 1.93227 -3.74488 0
M  V30 13091 H 1211.77 2.08735 -2.51192 0
M  V30 13092 H 1210.42 0.286924 -3.65475 0
M  V30 13093 H 1210.07 2.69036 -4.25004 0
M  V30 13094 H 1209.77 1.62582 -5.6466 0
M  V30 13095 H 1211.3 2.55288 -5.54671 0
M  V30 13096 H 1212.71 0.288513 -5.72574 0
M  V30 13097 H 1211.11 -0.459549 -5.98338 0
M  V30 13098 H 1212.18 -1.09911 -4.72279 0
M  V30 13099 N 1213.52 1.56172 -0.211661 0
M  V30 13100 C 1214.77 1.97648 0.421871 0
M  V30 13101 C 1215.09 1.10026 1.60995 0
M  V30 13102 O 1214.36 0.175109 1.95116 0
M  V30 13103 H 1212.94 0.729914 0.158852 0
M  V30 13104 H 1215.6 1.92542 -0.302254 0
M  V30 13105 H 1214.7 3.02834 0.754868 0
M  V30 13106 N 1215 -0.0618163 1.57479 0
M  V30 13107 C 1216.41 -0.416827 1.54061 0
M  V30 13108 C 1216.61 -1.78584 0.933277 0
M  V30 13109 O 1215.67 -2.46656 0.54009 0
M  V30 13110 C 1216.98 -0.348728 2.98671 0
M  V30 13111 C 1218.53 -0.428194 3.10057 0
M  V30 13112 C 1219.01 -0.389898 4.56337 0
M  V30 13113 N 1220.5 -0.449677 4.61012 0
M  V30 13114 C 1221.23 -0.442418 5.71691 0
M  V30 13115 N 1220.73 -0.389381 6.91705 0
M  V30 13116 N 1222.52 -0.489719 5.59963 0
M  V30 13117 H 1214.67 0.834487 1.9532 0
M  V30 13118 H 1216.94 0.314149 0.894435 0
M  V30 13119 H 1216.64 0.590738 3.46703 0
M  V30 13120 H 1216.52 -1.15511 3.59078 0
M  V30 13121 H 1218.9 -1.35808 2.61992 0
M  V30 13122 H 1218.98 0.406946 2.52542 0
M  V30 13123 H 1218.63 0.536186 5.05062 0
M  V30 13124 H 1218.56 -1.24271 5.11727 0
M  V30 13125 H 1221.05 -0.49451 3.74651 0
M  V30 13126 H 1221.36 -0.388042 7.71825 0
M  V30 13127 H 1219.71 -0.355918 6.94088 0
M  V30 13128 H 1222.9 -0.528915 4.65102 0
M  V30 13129 H 1223.07 -0.480592 6.46215 0
M  V30 13130 N 1216.48 -1.54033 -0.333429 0
M  V30 13131 C 1217.75 -1.62404 -1.09015 0
M  V30 13132 C 1218.13 -0.451653 -2.06212 0
M  V30 13133 O 1217.48 0.555086 -2.21655 0
M  V30 13134 C 1217.69 -2.98949 -1.80085 0
M  V30 13135 C 1219.04 -3.54655 -2.33464 0
M  V30 13136 O 1220.06 -3.0119 -1.90166 0
M  V30 13137 O 1218.92 -4.48195 -3.12703 0
M  V30 13138 H 1216.02 -0.65727 -0.501921 0
M  V30 13139 H 1218.56 -1.66378 -0.33411 0
M  V30 13140 H 1217.33 -3.75716 -1.09332 0
M  V30 13141 H 1216.96 -2.98609 -2.62523 0
M  V30 13142 N 1217.95 0.594978 -1.45938 0
M  V30 13143 C 1219.2 1.35093 -1.50314 0
M  V30 13144 C 1219.52 1.94412 -0.151315 0
M  V30 13145 O 1218.79 1.77876 0.820787 0
M  V30 13146 H 1217.37 0.501549 -0.553586 0
M  V30 13147 H 1220.04 0.697735 -1.81983 0
M  V30 13148 H 1219.13 2.16393 -2.24901 0
M  V30 13149 N 1219.43 1.33438 0.838571 0
M  V30 13150 C 1220.4 1.23632 1.92997 0
M  V30 13151 C 1221.4 0.155302 1.60048 0
M  V30 13152 O 1222.59 0.406852 1.69382 0
M  V30 13153 C 1219.72 0.90512 3.28665 0
M  V30 13154 H 1220.91 2.20643 2.03117 0
M  V30 13155 H 1218.46 1.17501 1.03069 0
M  V30 13156 H 1219.2 -0.0624833 3.2424 0
M  V30 13157 H 1218.98 1.68688 3.53959 0
M  V30 13158 H 1220.47 0.861262 4.08622 0
M  V30 13159 N 1220.91 -1.05686 1.16912 0
M  V30 13160 C 1222.33 -1.30744 0.915327 0
M  V30 13161 C 1222.53 -1.96895 -0.428344 0
M  V30 13162 O 1221.58 -2.23941 -1.16647 0
M  V30 13163 C 1222.9 -2.18209 2.06894 0
M  V30 13164 C 1224.44 -2.31607 2.1054 0
M  V30 13165 C 1224.92 -3.2243 3.25273 0
M  V30 13166 N 1226.41 -3.30015 3.2503 0
M  V30 13167 C 1227.14 -4.00401 4.10447 0
M  V30 13168 N 1226.64 -4.73256 5.05965 0
M  V30 13169 N 1228.43 -3.96514 3.98413 0
M  V30 13170 H 1220.58 -0.611449 2.03409 0
M  V30 13171 H 1222.85 -0.332188 0.887894 0
M  V30 13172 H 1222.55 -1.76887 3.0398 0
M  V30 13173 H 1222.43 -3.18823 2.01573 0
M  V30 13174 H 1224.81 -2.72173 1.14044 0
M  V30 13175 H 1224.9 -1.30639 2.19925 0
M  V30 13176 H 1224.54 -2.82579 4.22032 0
M  V30 13177 H 1224.47 -4.23392 3.13125 0
M  V30 13178 H 1226.96 -2.781 2.55869 0
M  V30 13179 H 1227.27 -5.24509 5.67547 0
M  V30 13180 H 1225.62 -4.72215 5.09939 0
M  V30 13181 H 1228.81 -3.38719 3.2309 0
M  V30 13182 H 1228.98 -4.511 4.65202 0
M  V30 13183 N 1222.39 -0.968567 -1.24324 0
M  V30 13184 C 1223.64 -0.629682 -1.9204 0
M  V30 13185 C 1223.96 0.837906 -1.7608 0
M  V30 13186 O 1223.23 1.5982 -1.13289 0
M  V30 13187 H 1221.81 -0.229901 -0.710742 0
M  V30 13188 H 1224.47 -1.22982 -1.512 0
M  V30 13189 H 1223.57 -0.871034 -2.99699 0
M  V30 13190 N 1223.87 1.39211 -0.738786 0
M  V30 13191 C 1225.28 1.83237 -0.357916 0
M  V30 13192 C 1225.63 1.61698 1.11123 0
M  V30 13193 O 1224.75 1.11017 1.85753 0
M  V30 13194 C 1225.35 3.32645 -0.64285 0
M  V30 13195 C 1223.91 3.75076 -0.315432 0
M  V30 13196 C 1223.05 2.62166 -0.903556 0
M  V30 13197 H 1226.01 1.2815 -0.936127 0
M  V30 13198 H 1226.03 3.80407 0.0840812 0
M  V30 13199 H 1225.54 3.4829 -1.71218 0
M  V30 13200 H 1223.64 3.65017 0.747907 0
M  V30 13201 H 1223.75 4.72363 -0.800638 0
M  V30 13202 H 1222.12 2.52554 -0.329927 0
M  V30 13203 H 1222.9 2.80616 -1.97761 0
M  V30 13204 N 1225.34 0.486708 1.49896 0
M  V30 13205 C 1226.59 -0.0629451 2.02702 0
M  V30 13206 C 1226.92 -1.37956 1.36681 0
M  V30 13207 O 1226.2 -1.88025 0.497678 0
M  V30 13208 C 1226.48 -0.230461 3.59362 0
M  V30 13209 C 1226.33 1.10828 4.35933 0
M  V30 13210 C 1227.65 -0.977785 4.29101 0
M  V30 13211 H 1224.77 -0.0214017 0.736689 0
M  V30 13212 H 1227.41 0.635339 1.79063 0
M  V30 13213 H 1225.56 -0.825222 3.79634 0
M  V30 13214 H 1227.24 1.74082 4.27192 0
M  V30 13215 H 1225.48 1.7011 3.99055 0
M  V30 13216 H 1226.15 0.944532 5.43859 0
M  V30 13217 H 1228.63 -0.473505 4.13397 0
M  V30 13218 H 1227.5 -1.06382 5.38492 0
M  V30 13219 H 1227.76 -2.01813 3.9335 0
M  V30 13220 N 1226.82 -1.56058 0.219941 0
M  V30 13221 C 1228.07 -1.97869 -0.411383 0
M  V30 13222 C 1228.39 -1.10878 -1.60409 0
M  V30 13223 O 1227.66 -0.185454 -1.9502 0
M  V30 13224 H 1226.24 -0.730747 -0.154979 0
M  V30 13225 H 1228.9 -1.92379 0.312461 0
M  V30 13226 H 1228 -3.0323 -0.738798 0
M  V30 13227 N 1228.3 0.053464 -1.57509 0
M  V30 13228 C 1229.55 0.747622 -1.87763 0
M  V30 13229 C 1229.87 1.77178 -0.814433 0
M  V30 13230 O 1229.14 1.95287 0.154862 0
M  V30 13231 H 1227.72 0.279109 -0.692898 0
M  V30 13232 H 1230.38 0.0252006 -1.94884 0
M  V30 13233 H 1229.48 1.25244 -2.85868 0
M  V30 13234 N 1229.78 1.54207 0.325255 0
M  V30 13235 C 1230.73 1.83474 1.40021 0
M  V30 13236 C 1231.7 0.681719 1.51466 0
M  V30 13237 O 1232.88 0.92798 1.66713 0
M  V30 13238 C 1230.02 2.06624 2.76407 0
M  V30 13239 C 1229.13 3.3431 2.73607 0
M  V30 13240 C 1228.27 3.4743 4.01828 0
M  V30 13241 C 1227.31 4.68997 3.93329 0
M  V30 13242 N 1226.45 4.79052 5.13277 0
M  V30 13243 H 1231.29 2.75182 1.14363 0
M  V30 13244 H 1228.82 1.36284 0.553639 0
M  V30 13245 H 1230.78 2.18037 3.5569 0
M  V30 13246 H 1229.41 1.18209 3.00377 0
M  V30 13247 H 1228.46 3.31643 1.86324 0
M  V30 13248 H 1229.77 4.237 2.6321 0
M  V30 13249 H 1228.93 3.58376 4.89542 0
M  V30 13250 H 1227.67 2.56128 4.1503 0
M  V30 13251 H 1226.67 4.58109 3.04 0
M  V30 13252 H 1227.9 5.61681 3.81695 0
M  V30 13253 H 1225.84 3.90666 5.26988 0
M  V30 13254 H 1225.76 5.62406 5.05208 0
M  V30 13255 H 1227.03 4.94328 6.02711 0
M  V30 13256 N 1231.26 -0.58723 1.46251 0
M  V30 13257 C 1232.22 -1.67863 1.5606 0
M  V30 13258 C 1233.22 -1.54715 0.438162 0
M  V30 13259 O 1234.41 -1.59415 0.702323 0
M  V30 13260 C 1231.54 -3.07262 1.47659 0
M  V30 13261 H 1232.74 -1.60525 2.53321 0
M  V30 13262 H 1230.29 -0.804691 1.33994 0
M  V30 13263 H 1231.02 -3.20159 0.5166 0
M  V30 13264 H 1230.81 -3.18213 2.29092 0
M  V30 13265 H 1232.3 -3.8672 1.57599 0
M  V30 13266 N 1232.74 -1.33881 -0.831482 0
M  V30 13267 C 1234.15 -1.13376 -1.1233 0
M  V30 13268 C 1234.35 0.0704402 -2.01377 0
M  V30 13269 O 1233.41 0.748516 -2.4115 0
M  V30 13270 C 1234.72 -2.42484 -1.77826 0
M  V30 13271 C 1236.27 -2.4846 -1.90359 0
M  V30 13272 C 1236.74 -3.77548 -2.59272 0
M  V30 13273 N 1238.23 -3.7866 -2.66778 0
M  V30 13274 C 1238.97 -4.75258 -3.20807 0
M  V30 13275 N 1238.47 -5.82234 -3.75466 0
M  V30 13276 N 1240.26 -4.62724 -3.19128 0
M  V30 13277 H 1232.41 -2.11051 -0.238998 0
M  V30 13278 H 1234.67 -0.932893 -0.168565 0
M  V30 13279 H 1234.38 -3.30647 -1.19857 0
M  V30 13280 H 1234.25 -2.55186 -2.77777 0
M  V30 13281 H 1236.64 -1.60742 -2.47479 0
M  V30 13282 H 1236.72 -2.39693 -0.893359 0
M  V30 13283 H 1236.36 -4.65651 -2.02808 0
M  V30 13284 H 1236.29 -3.83594 -3.60781 0
M  V30 13285 H 1238.79 -3.01351 -2.28026 0
M  V30 13286 H 1239.1 -6.51968 -4.14918 0
M  V30 13287 H 1237.44 -5.85959 -3.73733 0
M  V30 13288 H 1240.63 -3.78303 -2.75688 0
M  V30 13289 H 1240.81 -5.38175 -3.60932 0
M  V30 13290 N 1234.21 1.05064 -1.1747 0
M  V30 13291 C 1235.62 1.59547 -0.969628 0
M  V30 13292 C 1235.98 1.90153 0.483332 0
M  V30 13293 O 1235.1 1.68415 1.35887 0
M  V30 13294 C 1235.7 2.89877 -1.75377 0
M  V30 13295 C 1234.25 3.41013 -1.59332 0
M  V30 13296 C 1233.4 2.1473 -1.7546 0
M  V30 13297 H 1236.35 0.878595 -1.3216 0
M  V30 13298 H 1236.37 3.59834 -1.23691 0
M  V30 13299 H 1235.89 2.67569 -2.8112 0
M  V30 13300 H 1233.99 3.68355 -0.560827 0
M  V30 13301 H 1234.1 4.15512 -2.38509 0
M  V30 13302 H 1232.46 2.25553 -1.18313 0
M  V30 13303 H 1233.25 1.9489 -2.82618 0
M  V30 13304 N 1235.69 0.975146 1.23809 0
M  V30 13305 C 1236.6 0.51917 2.28783 0
M  V30 13306 C 1237.62 -0.423487 1.68768 0
M  V30 13307 O 1238.79 -0.294699 1.99232 0
M  V30 13308 C 1235.86 -0.176229 3.46252 0
M  V30 13309 C 1234.92 0.807177 4.21643 0
M  V30 13310 C 1234.15 0.144869 5.33503 0
M  V30 13311 O 1234.38 -1.06522 5.60365 0
M  V30 13312 O 1233.31 0.84079 5.95999 0
M  V30 13313 H 1237.14 1.39204 2.69919 0
M  V30 13314 H 1234.72 0.74253 1.29641 0
M  V30 13315 H 1236.6 -0.566547 4.17574 0
M  V30 13316 H 1235.28 -1.02394 3.07078 0
M  V30 13317 H 1234.18 1.2481 3.52666 0
M  V30 13318 H 1235.52 1.62354 4.64653 0
M  V30 13319 N 1237.17 -1.38817 0.746158 0
M  V30 13320 C 1238.13 -2.28876 0.121886 0
M  V30 13321 C 1239.13 -1.46838 -0.655379 0
M  V30 13322 O 1240.32 -1.67377 -0.482744 0
M  V30 13323 C 1237.45 -3.30487 -0.836118 0
M  V30 13324 H 1238.65 -2.85586 0.915453 0
M  V30 13325 H 1236.2 -1.47652 0.512691 0
M  V30 13326 H 1236.94 -2.78853 -1.65563 0
M  V30 13327 H 1236.72 -3.9109 -0.281271 0
M  V30 13328 H 1238.21 -3.97848 -1.26914 0
M  V30 13329 N 1238.65 -0.49465 -1.49636 0
M  V30 13330 C 1239.61 0.276064 -2.27531 0
M  V30 13331 C 1240.61 0.899619 -1.3328 0
M  V30 13332 O 1241.8 0.765136 -1.56497 0
M  V30 13333 C 1238.93 1.39547 -3.1103 0
M  V30 13334 H 1240.13 -0.407381 -2.9712 0
M  V30 13335 H 1237.68 -0.249416 -1.54297 0
M  V30 13336 H 1238.41 2.11326 -2.45992 0
M  V30 13337 H 1238.2 0.953877 -3.8032 0
M  V30 13338 H 1239.69 1.93853 -3.69879 0
M  V30 13339 N 1240.13 1.55939 -0.228214 0
M  V30 13340 C 1241.04 2.24213 0.690339 0
M  V30 13341 C 1242.05 1.25197 1.20838 0
M  V30 13342 O 1243.23 1.58026 1.24859 0
M  V30 13343 C 1240.29 2.91384 1.87873 0
M  V30 13344 C 1239.35 4.05761 1.40201 0
M  V30 13345 C 1238.59 4.6972 2.53376 0
M  V30 13346 O 1238.81 4.32687 3.71669 0
M  V30 13347 O 1237.74 5.58587 2.24198 0
M  V30 13348 H 1241.57 3.03383 0.138692 0
M  V30 13349 H 1239.15 1.494 0.00251504 0
M  V30 13350 H 1241.04 3.33758 2.57262 0
M  V30 13351 H 1239.71 2.15168 2.41835 0
M  V30 13352 H 1238.62 3.67943 0.675945 0
M  V30 13353 H 1239.95 4.83739 0.908691 0
M  V30 13354 N 1241.6 -0.0451101 1.57535 0
M  V30 13355 C 1242.57 -1.03521 2.0449 0
M  V30 13356 C 1243.57 -1.30009 0.946265 0
M  V30 13357 O 1244.76 -1.25282 1.21038 0
M  V30 13358 C 1241.89 -2.37221 2.44824 0
M  V30 13359 H 1243.08 -0.629943 2.93209 0
M  V30 13360 H 1240.64 -0.291544 1.53557 0
M  V30 13361 H 1241.37 -2.82528 1.59212 0
M  V30 13362 H 1241.16 -2.19329 3.25018 0
M  V30 13363 H 1242.65 -3.08337 2.81635 0
M  V30 13364 N 1243.08 -1.54377 -0.317073 0
M  V30 13365 C 1244.49 -1.64062 -0.891105 0
M  V30 13366 C 1244.84 -0.538863 -1.88655 0
M  V30 13367 O 1243.97 0.32718 -2.13912 0
M  V30 13368 C 1244.56 -2.97395 -1.62302 0
M  V30 13369 C 1243.12 -3.09253 -2.14568 0
M  V30 13370 C 1242.27 -2.59664 -0.973146 0
M  V30 13371 H 1245.22 -1.58418 -0.0944829 0
M  V30 13372 H 1245.24 -2.87918 -2.48764 0
M  V30 13373 H 1244.75 -3.77562 -0.898268 0
M  V30 13374 H 1242.86 -2.33774 -2.90139 0
M  V30 13375 H 1242.97 -4.15159 -2.39123 0
M  V30 13376 H 1241.33 -2.15719 -1.35416 0
M  V30 13377 H 1242.12 -3.42294 -0.262611 0
M  V30 13378 N 1244.56 0.579466 -1.4656 0
M  V30 13379 C 1245.47 1.71609 -1.59961 0
M  V30 13380 C 1246.49 1.67162 -0.483002 0
M  V30 13381 O 1247.66 1.87012 -0.747561 0
M  V30 13382 C 1244.73 3.08114 -1.58954 0
M  V30 13383 C 1243.79 3.238 -2.81872 0
M  V30 13384 C 1243.02 4.53794 -2.80904 0
M  V30 13385 O 1243.24 5.37884 -1.89835 0
M  V30 13386 O 1242.18 4.72796 -3.72488 0
M  V30 13387 H 1246 1.6325 -2.56092 0
M  V30 13388 H 1243.59 0.746891 -1.2939 0
M  V30 13389 H 1245.47 3.8939 -1.611 0
M  V30 13390 H 1244.15 3.16903 -0.65984 0
M  V30 13391 H 1243.05 2.42006 -2.85279 0
M  V30 13392 H 1244.39 3.19904 -3.74062 0
M  V30 13393 N 1246.04 1.3432 0.824371 0
M  V30 13394 C 1247.29 1.26345 1.57738 0
M  V30 13395 C 1247.61 -0.166836 1.94285 0
M  V30 13396 O 1246.88 -1.09911 1.62162 0
M  V30 13397 H 1245.46 0.46466 0.584893 0
M  V30 13398 H 1248.12 1.68214 0.984373 0
M  V30 13399 H 1247.22 1.8672 2.50084 0
M  V30 13400 N 1247.52 -1.0444 1.18026 0
M  V30 13401 C 1248.76 -1.77838 0.974756 0
M  V30 13402 C 1249.1 -1.87792 -0.494755 0
M  V30 13403 O 1248.37 -1.38327 -1.36733 0
M  V30 13404 C 1248.65 -3.21315 1.62569 0
M  V30 13405 C 1248.51 -3.19327 3.16781 0
M  V30 13406 C 1249.83 -4.19337 1.33583 0
M  V30 13407 H 1246.94 -0.645575 0.35553 0
M  V30 13408 H 1249.59 -1.22023 1.45638 0
M  V30 13409 H 1247.74 -3.68974 1.21617 0
M  V30 13410 H 1249.41 -2.79687 3.66842 0
M  V30 13411 H 1247.65 -2.57461 3.49137 0
M  V30 13412 H 1248.32 -4.20626 3.5746 0
M  V30 13413 H 1250.8 -3.80208 1.69059 0
M  V30 13414 H 1249.67 -5.17953 1.81702 0
M  V30 13415 H 1249.94 -4.41346 0.258016 0
M  V30 13416 N 1248.99 -0.981699 -1.2329 0
M  V30 13417 C 1250.27 -0.567659 -1.87182 0
M  V30 13418 C 1250.65 0.955194 -1.88253 0
M  V30 13419 O 1250 1.83245 -1.36504 0
M  V30 13420 C 1250.21 -1.17522 -3.28618 0
M  V30 13421 C 1251.56 -1.26877 -4.052 0
M  V30 13422 O 1252.58 -1.12877 -3.37842 0
M  V30 13423 O 1251.44 -1.49163 -5.2575 0
M  V30 13424 H 1248.53 -0.191315 -0.804567 0
M  V30 13425 H 1251.08 -1.07686 -1.31155 0
M  V30 13426 H 1249.85 -2.21735 -3.22411 0
M  V30 13427 H 1249.48 -0.650913 -3.92236 0
M  V30 13428 N 1250.47 1.3842 -0.753509 0
M  V30 13429 C 1251.88 1.82847 -0.377331 0
M  V30 13430 C 1252.23 1.62867 1.09401 0
M  V30 13431 O 1251.36 1.12981 1.84565 0
M  V30 13432 C 1251.95 3.31945 -0.678095 0
M  V30 13433 C 1250.51 3.7472 -0.355196 0
M  V30 13434 C 1249.66 2.61193 -0.931311 0
M  V30 13435 H 1252.61 1.2715 -0.949667 0
M  V30 13436 H 1252.63 3.80475 0.0437292 0
M  V30 13437 H 1252.14 3.46455 -1.74902 0
M  V30 13438 H 1250.25 3.65789 0.70915 0
M  V30 13439 H 1250.36 4.71487 -0.850693 0
M  V30 13440 H 1248.72 2.5219 -0.356695 0
M  V30 13441 H 1249.51 2.78503 -2.00727 0
M  V30 13442 N 1251.95 0.502579 1.49372 0
M  V30 13443 C 1253.36 0.055187 1.86618 0
M  V30 13444 C 1253.71 -1.35938 1.41476 0
M  V30 13445 O 1252.84 -2.01333 0.793338 0
M  V30 13446 C 1253.43 0.0933734 3.38671 0
M  V30 13447 C 1251.99 -0.298685 3.75213 0
M  V30 13448 C 1251.14 0.465216 2.7337 0
M  V30 13449 H 1254.09 0.715281 1.41667 0
M  V30 13450 H 1254.11 -0.701549 3.73977 0
M  V30 13451 H 1253.62 1.12303 3.71497 0
M  V30 13452 H 1251.72 -1.33151 3.47996 0
M  V30 13453 H 1251.84 0.0218637 4.79095 0
M  V30 13454 H 1250.2 -0.0851469 2.54558 0
M  V30 13455 H 1250.98 1.49498 3.09039 0
M  V30 13456 N 1253.43 -1.55816 0.23648 0
M  V30 13457 C 1254.84 -1.59159 -0.118601 0
M  V30 13458 C 1255.04 -1.25352 -1.57763 0
M  V30 13459 O 1254.1 -0.995863 -2.32032 0
M  V30 13460 C 1255.41 -2.99885 0.221175 0
M  V30 13461 C 1256.96 -3.12567 0.164624 0
M  V30 13462 C 1257.44 -4.55496 0.478285 0
M  V30 13463 N 1258.93 -4.61215 0.428402 0
M  V30 13464 C 1259.66 -5.69768 0.644398 0
M  V30 13465 N 1259.16 -6.86624 0.922966 0
M  V30 13466 N 1260.95 -5.59143 0.575814 0
M  V30 13467 H 1253.1 -1.76063 1.18809 0
M  V30 13468 H 1255.37 -0.819079 0.477297 0
M  V30 13469 H 1255.07 -3.29326 1.2344 0
M  V30 13470 H 1254.95 -3.74425 -0.456723 0
M  V30 13471 H 1257.33 -2.82914 -0.839263 0
M  V30 13472 H 1257.41 -2.40325 0.876219 0
M  V30 13473 H 1257.06 -4.85868 1.47968 0
M  V30 13474 H 1256.99 -5.25984 -0.254671 0
M  V30 13475 H 1259.48 -3.77251 0.221398 0
M  V30 13476 H 1259.79 -7.6528 1.07548 0
M  V30 13477 H 1258.14 -6.88333 0.960325 0
M  V30 13478 H 1261.33 -4.66727 0.358307 0
M  V30 13479 H 1261.5 -6.43674 0.747548 0
M  V30 13480 N 1254.91 0.036755 -1.57557 0
M  V30 13481 C 1256.32 0.392264 -1.54704 0
M  V30 13482 C 1256.52 1.77076 -0.96157 0
M  V30 13483 O 1255.58 2.45766 -0.579263 0
M  V30 13484 C 1256.89 0.301168 -2.99188 0
M  V30 13485 C 1258.44 0.378813 -3.10699 0
M  V30 13486 C 1258.91 0.317249 -4.569 0
M  V30 13487 N 1260.41 0.376277 -4.61669 0
M  V30 13488 C 1261.14 0.351411 -5.72322 0
M  V30 13489 N 1260.64 0.279288 -6.92237 0
M  V30 13490 N 1262.43 0.400571 -5.60671 0
M  V30 13491 H 1254.58 -0.865455 -1.93968 0
M  V30 13492 H 1256.84 -0.328339 -0.889324 0
M  V30 13493 H 1256.55 -0.64582 -3.4572 0
M  V30 13494 H 1256.42 1.09784 -3.6087 0
M  V30 13495 H 1258.81 1.31623 -2.6412 0
M  V30 13496 H 1258.89 -0.447072 -2.51863 0
M  V30 13497 H 1258.54 -0.616469 -5.04145 0
M  V30 13498 H 1258.47 1.16114 -5.13639 0
M  V30 13499 H 1260.96 0.434843 -3.7539 0
M  V30 13500 H 1261.27 0.265202 -7.72345 0
M  V30 13501 H 1259.61 0.24545 -6.94566 0
M  V30 13502 H 1262.81 0.454854 -4.65885 0
M  V30 13503 H 1262.98 0.377724 -6.46898 0
M  V30 13504 N 1256.39 1.54543 0.308881 0
M  V30 13505 C 1257.34 1.81332 1.38212 0
M  V30 13506 C 1258.32 0.670056 1.46284 0
M  V30 13507 O 1259.51 0.930476 1.50569 0
M  V30 13508 C 1256.64 2.05713 2.7484 0
M  V30 13509 C 1255.73 3.26202 2.71023 0
M  V30 13510 N 1256.12 4.46933 2.36822 0
M  V30 13511 C 1254.42 3.28071 3.02135 0
M  V30 13512 C 1255.12 5.28923 2.42106 0
M  V30 13513 N 1254.09 4.66455 2.79143 0
M  V30 13514 H 1257.89 2.72246 1.10722 0
M  V30 13515 H 1255.41 1.53936 0.51743 0
M  V30 13516 H 1257.41 2.23049 3.52214 0
M  V30 13517 H 1256.07 1.16062 3.03249 0
M  V30 13518 H 1257.08 4.73674 2.09413 0
M  V30 13519 H 1253.75 2.48501 3.3549 0
M  V30 13520 H 1255.14 6.35369 2.1853 0
M  V30 13521 N 1257.86 -0.571685 1.46866 0
M  V30 13522 C 1258.81 -1.6751 1.54676 0
M  V30 13523 C 1259.8 -1.55673 0.406774 0
M  V30 13524 O 1260.99 -1.64401 0.655847 0
M  V30 13525 C 1258.12 -3.06295 1.55043 0
M  V30 13526 C 1257.2 -3.23388 2.74374 0
M  V30 13527 N 1257.6 -3.10598 3.99202 0
M  V30 13528 C 1255.89 -3.54354 2.7083 0
M  V30 13529 C 1256.59 -3.29993 4.79041 0
M  V30 13530 N 1255.57 -3.55659 4.11106 0
M  V30 13531 H 1259.37 -1.56168 2.48975 0
M  V30 13532 H 1256.89 -0.776036 1.42658 0
M  V30 13533 H 1258.88 -3.85502 1.58726 0
M  V30 13534 H 1257.54 -3.18759 0.618278 0
M  V30 13535 H 1258.55 -2.8823 4.30283 0
M  V30 13536 H 1255.23 -3.73435 1.86688 0
M  V30 13537 H 1256.62 -3.25194 5.87961 0
M  V30 13538 N 1259.34 -1.34755 -0.817236 0
M  V30 13539 C 1260.76 -1.14561 -1.11121 0
M  V30 13540 C 1260.96 0.0490776 -2.0144 0
M  V30 13541 O 1260.01 0.722897 -2.41931 0
M  V30 13542 C 1261.33 -2.44356 -1.75244 0
M  V30 13543 C 1262.87 -2.50465 -1.87713 0
M  V30 13544 C 1263.35 -3.80276 -2.55253 0
M  V30 13545 N 1264.84 -3.81468 -2.62747 0
M  V30 13546 C 1265.58 -4.78634 -3.15749 0
M  V30 13547 N 1265.07 -5.86184 -3.6927 0
M  V30 13548 N 1266.86 -4.66083 -3.14203 0
M  V30 13549 H 1259.02 -2.11293 -0.2166 0
M  V30 13550 H 1261.28 -0.934629 -0.158661 0
M  V30 13551 H 1260.98 -3.31899 -1.16344 0
M  V30 13552 H 1260.86 -2.58117 -2.75055 0
M  V30 13553 H 1263.25 -1.63358 -2.45761 0
M  V30 13554 H 1263.33 -2.40627 -0.867887 0
M  V30 13555 H 1262.97 -4.67776 -1.97858 0
M  V30 13556 H 1262.9 -3.87399 -3.56693 0
M  V30 13557 H 1265.39 -3.03753 -2.24817 0
M  V30 13558 H 1265.7 -6.56332 -4.0798 0
M  V30 13559 H 1264.05 -5.8989 -3.67498 0
M  V30 13560 H 1267.24 -3.81206 -2.7166 0
M  V30 13561 H 1267.41 -5.41973 -3.55203 0
M  V30 13562 N 1260.82 1.03812 -1.18578 0
M  V30 13563 C 1261.77 2.10206 -0.883037 0
M  V30 13564 C 1262.75 1.60215 0.148303 0
M  V30 13565 O 1263.95 1.76911 -0.0560957 0
M  V30 13566 C 1261.07 3.40802 -0.41335 0
M  V30 13567 C 1260.16 3.97553 -1.47691 0
M  V30 13568 N 1260.55 4.28085 -2.69401 0
M  V30 13569 C 1258.85 4.25456 -1.33802 0
M  V30 13570 C 1259.55 4.73535 -3.37845 0
M  V30 13571 N 1258.53 4.74504 -2.6523 0
M  V30 13572 H 1262.33 2.31692 -1.80821 0
M  V30 13573 H 1259.84 1.21589 -1.07656 0
M  V30 13574 H 1261.84 4.1652 -0.177953 0
M  V30 13575 H 1260.5 3.20742 0.505449 0
M  V30 13576 H 1261.51 4.17653 -3.06246 0
M  V30 13577 H 1258.19 4.14709 -0.481961 0
M  V30 13578 H 1259.58 5.06157 -4.41876 0
M  V30 13579 N 1262.3 0.988223 1.22768 0
M  V30 13580 C 1263.71 0.69816 1.4352 0
M  V30 13581 C 1263.91 -0.732872 1.877 0
M  V30 13582 O 1262.97 -1.50436 2.02793 0
M  V30 13583 C 1264.28 1.69975 2.4805 0
M  V30 13584 C 1265.83 1.71467 2.61855 0
M  V30 13585 C 1266.31 2.70477 3.69603 0
M  V30 13586 N 1267.8 2.69043 3.77055 0
M  V30 13587 C 1268.53 3.42319 4.60006 0
M  V30 13588 N 1268.03 4.2518 5.46986 0
M  V30 13589 N 1269.82 3.31047 4.54274 0
M  V30 13590 H 1261.97 1.91251 0.923948 0
M  V30 13591 H 1264.23 0.82455 0.467783 0
M  V30 13592 H 1263.94 2.72354 2.22523 0
M  V30 13593 H 1263.81 1.48885 3.46573 0
M  V30 13594 H 1266.2 0.697889 2.86729 0
M  V30 13595 H 1266.28 1.96625 1.63622 0
M  V30 13596 H 1265.93 3.72302 3.45476 0
M  V30 13597 H 1265.86 2.42591 4.67394 0
M  V30 13598 H 1268.35 2.08914 3.14902 0
M  V30 13599 H 1268.66 4.77929 6.07292 0
M  V30 13600 H 1267.01 4.29268 5.46584 0
M  V30 13601 H 1270.2 2.65758 3.85345 0
M  V30 13602 H 1270.37 3.88413 5.1869 0
M  V30 13603 N 1263.78 -1.38018 0.760839 0
M  V30 13604 C 1265.05 -1.94054 0.245437 0
M  V30 13605 C 1265.43 -1.6955 -1.25761 0
M  V30 13606 O 1264.78 -1.03812 -2.03557 0
M  V30 13607 C 1264.99 -3.43681 0.606986 0
M  V30 13608 C 1266.34 -4.20748 0.570673 0
M  V30 13609 O 1267.36 -3.51995 0.545715 0
M  V30 13610 O 1266.22 -5.43327 0.588043 0
M  V30 13611 H 1263.32 -0.825264 0.0535607 0
M  V30 13612 H 1265.86 -1.47369 0.841453 0
M  V30 13613 H 1264.63 -3.55054 1.64476 0
M  V30 13614 H 1264.26 -3.97597 -0.0166576 0
M  V30 13615 N 1265.25 -0.510493 -1.49103 0
M  V30 13616 C 1266.2 0.262848 -2.29298 0
M  V30 13617 C 1267.17 0.951714 -1.36131 0
M  V30 13618 O 1268.36 0.956534 -1.65091 0
M  V30 13619 C 1265.5 1.31565 -3.19037 0
M  V30 13620 C 1264.61 0.637598 -4.27269 0
M  V30 13621 C 1263.74 1.67165 -5.04212 0
M  V30 13622 C 1262.78 0.975992 -6.04269 0
M  V30 13623 N 1261.92 1.95468 -6.74342 0
M  V30 13624 H 1266.76 -0.427246 -2.94921 0
M  V30 13625 H 1264.3 -0.222538 -1.45407 0
M  V30 13626 H 1266.25 1.93813 -3.69449 0
M  V30 13627 H 1264.88 1.97438 -2.55379 0
M  V30 13628 H 1263.94 -0.0983863 -3.80273 0
M  V30 13629 H 1265.25 0.0904435 -4.98718 0
M  V30 13630 H 1264.4 2.36893 -5.5854 0
M  V30 13631 H 1263.14 2.25267 -4.32557 0
M  V30 13632 H 1262.15 0.264534 -5.49163 0
M  V30 13633 H 1263.37 0.40134 -6.77913 0
M  V30 13634 H 1261.32 2.52515 -6.05452 0
M  V30 13635 H 1261.23 1.45845 -7.41799 0
M  V30 13636 H 1262.5 2.64455 -7.33269 0
M  V30 13637 N 1266.73 1.55688 -0.24474 0
M  V30 13638 C 1268.01 1.90796 0.430821 0
M  V30 13639 C 1268.39 1.1652 1.76029 0
M  V30 13640 O 1267.74 0.281978 2.26753 0
M  V30 13641 C 1267.95 3.43786 0.601027 0
M  V30 13642 C 1269.29 4.14998 0.897894 0
M  V30 13643 O 1270.32 3.49513 0.68697 0
M  V30 13644 O 1269.18 5.30826 1.29945 0
M  V30 13645 H 1266.27 0.794086 0.230991 0
M  V30 13646 H 1268.82 1.67227 -0.288646 0
M  V30 13647 H 1267.59 3.89856 -0.335804 0
M  V30 13648 H 1267.21 3.73211 1.37112 0
M  V30 13649 N 1268.21 -0.0283989 1.57574 0
M  V30 13650 C 1269.16 -1.02881 2.06601 0
M  V30 13651 C 1270.13 -1.35879 0.955308 0
M  V30 13652 O 1271.31 -1.46205 1.22592 0
M  V30 13653 C 1268.45 -2.32447 2.55073 0
M  V30 13654 C 1267.56 -2.05602 3.79937 0
M  V30 13655 C 1266.7 -3.29043 4.17018 0
M  V30 13656 C 1265.74 -2.97755 5.34797 0
M  V30 13657 N 1264.88 -4.1365 5.67308 0
M  V30 13658 H 1269.72 -0.603772 2.91819 0
M  V30 13659 H 1267.25 -0.286503 1.44283 0
M  V30 13660 H 1269.21 -3.08152 2.81244 0
M  V30 13661 H 1267.84 -2.72672 1.72771 0
M  V30 13662 H 1266.89 -1.2039 3.60847 0
M  V30 13663 H 1268.2 -1.78522 4.65759 0
M  V30 13664 H 1267.36 -4.13115 4.4432 0
M  V30 13665 H 1266.1 -3.59237 3.29849 0
M  V30 13666 H 1265.1 -2.12085 5.07247 0
M  V30 13667 H 1266.33 -2.68839 6.23621 0
M  V30 13668 H 1264.27 -4.43794 4.83097 0
M  V30 13669 H 1264.19 -3.89996 6.47641 0
M  V30 13670 H 1265.46 -4.98594 5.99186 0
M  V30 13671 N 1269.69 -1.54705 -0.300681 0
M  V30 13672 C 1270.92 -1.77993 -1.0548 0
M  V30 13673 C 1271.33 -0.539574 -1.80926 0
M  V30 13674 O 1270.69 0.490597 -1.75782 0
M  V30 13675 C 1270.74 -2.98774 -2.0351 0
M  V30 13676 O 1270.46 -4.18016 -1.31126 0
M  V30 13677 C 1271.96 -3.34452 -2.90958 0
M  V30 13678 H 1269.18 -0.593628 -0.312805 0
M  V30 13679 H 1271.72 -2.01656 -0.339858 0
M  V30 13680 H 1269.88 -2.77318 -2.70506 0
M  V30 13681 H 1270.29 -4.86113 -1.96963 0
M  V30 13682 H 1271.77 -4.22206 -3.55593 0
M  V30 13683 H 1272.24 -2.52622 -3.59275 0
M  V30 13684 H 1272.85 -3.58069 -2.29493 0
M  V30 13685 N 1271.17 0.563888 -1.47167 0
M  V30 13686 C 1272.58 1.14603 -1.47388 0
M  V30 13687 C 1272.93 1.94907 -0.224916 0
M  V30 13688 O 1272.05 2.05745 0.670672 0
M  V30 13689 C 1272.65 2.08501 -2.67044 0
M  V30 13690 C 1271.21 2.62 -2.70246 0
M  V30 13691 C 1270.35 1.38244 -2.40383 0
M  V30 13692 H 1273.31 0.350833 -1.54774 0
M  V30 13693 H 1273.33 2.92272 -2.43634 0
M  V30 13694 H 1272.84 1.50027 -3.57929 0
M  V30 13695 H 1270.94 3.24292 -1.83482 0
M  V30 13696 H 1271.05 3.0345 -3.70749 0
M  V30 13697 H 1269.42 1.68692 -1.90827 0
M  V30 13698 H 1270.2 0.815726 -3.33468 0
M  V30 13699 N 1272.64 1.35187 0.810078 0
M  V30 13700 C 1273.61 1.27698 1.90331 0
M  V30 13701 C 1274.61 0.189216 1.59683 0
M  V30 13702 O 1275.8 0.442689 1.68481 0
M  V30 13703 C 1272.93 0.974631 3.26671 0
M  V30 13704 H 1274.12 2.24902 1.98392 0
M  V30 13705 H 1271.68 1.1966 1.00554 0
M  V30 13706 H 1272.41 0.0063068 3.24299 0
M  V30 13707 H 1272.2 1.76158 3.50301 0
M  V30 13708 H 1273.69 0.947743 4.06703 0
M  V30 13709 N 1274.12 -1.03182 1.19127 0
M  V30 13710 C 1275.09 -2.09559 0.928307 0
M  V30 13711 C 1276.09 -1.60548 -0.0899992 0
M  V30 13712 O 1277.28 -1.736 0.144422 0
M  V30 13713 C 1274.41 -3.38609 0.394561 0
M  V30 13714 H 1275.6 -2.34321 1.87173 0
M  V30 13715 H 1273.15 -1.19746 1.00452 0
M  V30 13716 H 1273.89 -3.19515 -0.555046 0
M  V30 13717 H 1273.67 -3.75502 1.12873 0
M  V30 13718 H 1275.16 -4.16969 0.229569 0
M  V30 13719 N 1275.6 -0.99472 -1.22242 0
M  V30 13720 C 1276.85 -0.670275 -1.90661 0
M  V30 13721 C 1277.17 0.800369 -1.77818 0
M  V30 13722 O 1276.44 1.57381 -1.16653 0
M  V30 13723 H 1275.02 -0.244925 -0.705706 0
M  V30 13724 H 1277.68 -1.26162 -1.48557 0
M  V30 13725 H 1276.78 -0.934408 -2.97784 0
M  V30 13726 N 1277.08 1.37613 -0.768148 0
M  V30 13727 C 1278.36 1.93921 -0.255724 0
M  V30 13728 C 1278.74 1.70215 1.2486 0
M  V30 13729 O 1278.08 1.0489 2.03003 0
M  V30 13730 C 1278.29 3.43354 -0.625204 0
M  V30 13731 C 1279.64 4.20439 -0.592978 0
M  V30 13732 O 1280.67 3.51701 -0.564375 0
M  V30 13733 O 1279.52 5.43008 -0.616849 0
M  V30 13734 H 1276.62 0.824968 -0.0579366 0
M  V30 13735 H 1279.16 1.46921 -0.849257 0
M  V30 13736 H 1277.94 3.54177 -1.66356 0
M  V30 13737 H 1277.56 3.976 -0.00442816 0
M  V30 13738 N 1278.56 0.518393 1.4883 0
M  V30 13739 C 1279.49 -0.287642 2.27388 0
M  V30 13740 C 1280.5 -0.914974 1.34655 0
M  V30 13741 O 1281.69 -0.795373 1.598 0
M  V30 13742 C 1278.79 -1.42149 3.07647 0
M  V30 13743 C 1277.96 -0.898238 4.28078 0
M  V30 13744 C 1277.02 -1.91179 4.90242 0
M  V30 13745 O 1276.05 -1.47337 5.498 0
M  V30 13746 N 1277.25 -3.24331 4.81445 0
M  V30 13747 H 1280.02 0.386047 2.97203 0
M  V30 13748 H 1277.58 0.352002 1.58027 0
M  V30 13749 H 1279.57 -2.09745 3.46106 0
M  V30 13750 H 1278.14 -1.99903 2.40328 0
M  V30 13751 H 1277.36 -0.0466326 3.94172 0
M  V30 13752 H 1278.65 -0.527338 5.0606 0
M  V30 13753 H 1278.04 -3.62627 4.34187 0
M  V30 13754 H 1276.6 -3.87593 5.24037 0
M  V30 13755 N 1280.03 -1.55556 0.252993 0
M  V30 13756 C 1281.31 -1.91022 -0.420696 0
M  V30 13757 C 1281.69 -1.17452 -1.75409 0
M  V30 13758 O 1281.04 -0.294 -2.26601 0
M  V30 13759 C 1281.25 -3.441 -0.582787 0
M  V30 13760 C 1282.6 -4.15468 -0.875873 0
M  V30 13761 O 1283.62 -3.49872 -0.668425 0
M  V30 13762 O 1282.48 -5.31508 -1.27128 0
M  V30 13763 H 1279.57 -0.7953 -0.226776 0
M  V30 13764 H 1282.12 -1.67072 0.297511 0
M  V30 13765 H 1280.89 -3.89673 0.356474 0
M  V30 13766 H 1280.52 -3.73933 -1.3513 0
M  V30 13767 N 1281.51 0.0200419 -1.57587 0
M  V30 13768 C 1282.93 0.375834 -1.55112 0
M  V30 13769 C 1283.13 1.76047 -0.980297 0
M  V30 13770 O 1282.18 2.45138 -0.605297 0
M  V30 13771 C 1283.5 0.269418 -2.99491 0
M  V30 13772 C 1285.05 0.345838 -3.11084 0
M  V30 13773 C 1285.52 0.268771 -4.57211 0
M  V30 13774 N 1287.01 0.32729 -4.62042 0
M  V30 13775 C 1287.75 0.290688 -5.72663 0
M  V30 13776 N 1287.24 0.205851 -6.92494 0
M  V30 13777 N 1289.04 0.341082 -5.61064 0
M  V30 13778 H 1281.19 -0.885979 -1.93039 0
M  V30 13779 H 1283.45 -0.337753 -0.885792 0
M  V30 13780 H 1283.16 -0.682452 -3.45015 0
M  V30 13781 H 1283.03 1.0595 -3.62014 0
M  V30 13782 H 1285.42 1.28814 -2.65501 0
M  V30 13783 H 1285.5 -0.47376 -2.51375 0
M  V30 13784 H 1285.14 -0.669906 -5.03463 0
M  V30 13785 H 1285.07 1.10659 -5.14842 0
M  V30 13786 H 1287.56 0.395004 -3.7583 0
M  V30 13787 H 1287.88 0.18327 -7.72583 0
M  V30 13788 H 1286.22 0.171768 -6.94788 0
M  V30 13789 H 1289.41 0.405415 -4.66341 0
M  V30 13790 H 1289.58 0.309091 -6.47262 0
M  V30 13791 N 1282.99 1.54862 0.292472 0
M  V30 13792 C 1283.95 1.8565 1.34413 0
M  V30 13793 C 1284.95 0.729868 1.43281 0
M  V30 13794 O 1286.14 0.998128 1.42769 0
M  V30 13795 C 1283.28 2.0444 2.72795 0
M  V30 13796 H 1284.47 2.79642 1.08354 0
M  V30 13797 H 1282.02 1.47055 0.529574 0
M  V30 13798 H 1282.76 1.12765 3.04063 0
M  V30 13799 H 1282.54 2.86451 2.67747 0
M  V30 13800 H 1284.03 2.296 3.48817 0
M  V30 13801 N 1284.47 -0.556076 1.47464 0
M  V30 13802 C 1285.38 -1.69043 1.62671 0
M  V30 13803 C 1286.39 -1.66372 0.509535 0
M  V30 13804 O 1287.57 -1.85799 0.777218 0
M  V30 13805 C 1284.64 -3.05546 1.63836 0
M  V30 13806 C 1283.7 -3.19275 2.86988 0
M  V30 13807 C 1282.93 -4.49267 2.88088 0
M  V30 13808 O 1283.15 -5.34796 1.98368 0
M  V30 13809 O 1282.09 -4.66811 3.79962 0
M  V30 13810 H 1285.91 -1.59155 2.58657 0
M  V30 13811 H 1283.5 -0.726211 1.30562 0
M  V30 13812 H 1285.38 -3.86778 1.67275 0
M  V30 13813 H 1284.05 -3.15814 0.710173 0
M  V30 13814 H 1282.96 -2.37437 2.89093 0
M  V30 13815 H 1284.29 -3.13912 3.79104 0
M  V30 13816 N 1285.95 -1.35615 -0.802897 0
M  V30 13817 C 1286.91 -1.28705 -1.89651 0
M  V30 13818 C 1287.91 -0.197681 -1.5958 0
M  V30 13819 O 1289.1 -0.451618 -1.68244 0
M  V30 13820 C 1286.23 -0.991941 -3.26149 0
M  V30 13821 H 1287.43 -2.25951 -1.97196 0
M  V30 13822 H 1284.98 -1.20192 -0.999179 0
M  V30 13823 H 1285.71 -0.0235051 -3.24291 0
M  V30 13824 H 1285.5 -1.78013 -3.49362 0
M  V30 13825 H 1286.99 -0.969298 -4.06195 0
M  V30 13826 N 1287.43 1.02549 -1.19673 0
M  V30 13827 C 1288.84 1.57454 -1.00325 0
M  V30 13828 C 1289.19 1.91136 0.442889 0
M  V30 13829 O 1288.31 1.7126 1.32284 0
M  V30 13830 C 1288.91 2.86091 -1.81486 0
M  V30 13831 C 1287.47 3.37557 -1.6653 0
M  V30 13832 C 1286.61 2.1096 -1.79975 0
M  V30 13833 H 1289.56 0.850364 -1.33994 0
M  V30 13834 H 1289.59 3.5713 -1.31296 0
M  V30 13835 H 1289.1 2.61546 -2.86733 0
M  V30 13836 H 1287.2 3.67083 -0.638834 0
M  V30 13837 H 1287.31 4.1036 -2.47269 0
M  V30 13838 H 1285.68 2.22993 -1.23071 0
M  V30 13839 H 1286.46 1.88852 -2.86688 0
M  V30 13840 N 1288.9 1.00119 1.21713 0
M  V30 13841 C 1289.85 0.558388 2.23943 0
M  V30 13842 C 1290.82 -0.413576 1.60869 0
M  V30 13843 O 1292.01 -0.316478 1.88157 0
M  V30 13844 C 1289.15 -0.112618 3.44916 0
M  V30 13845 C 1288.26 0.902071 4.22477 0
M  V30 13846 C 1287.39 0.203722 5.30809 0
M  V30 13847 C 1286.43 1.20622 6.00097 0
M  V30 13848 N 1285.57 0.535607 7.00054 0
M  V30 13849 H 1290.41 1.43486 2.61182 0
M  V30 13850 H 1287.95 0.718572 1.28355 0
M  V30 13851 H 1289.9 -0.51865 4.13964 0
M  V30 13852 H 1288.53 -0.952827 3.08417 0
M  V30 13853 H 1287.59 1.42637 3.52645 0
M  V30 13854 H 1288.9 1.66513 4.70186 0
M  V30 13855 H 1288.05 -0.258614 6.06149 0
M  V30 13856 H 1286.79 -0.591773 4.84096 0
M  V30 13857 H 1285.8 1.6791 5.23532 0
M  V30 13858 H 1287.02 2.00273 6.48897 0
M  V30 13859 H 1284.97 -0.2403 6.5556 0
M  V30 13860 H 1284.88 1.23698 7.45812 0
M  V30 13861 H 1286.15 0.0963489 7.7944 0
M  V30 13862 N 1290.38 -1.37203 0.775435 0
M  V30 13863 C 1291.34 -2.28566 0.170406 0
M  V30 13864 C 1292.34 -1.48195 -0.624085 0
M  V30 13865 O 1293.53 -1.68364 -0.447132 0
M  V30 13866 C 1290.67 -3.32186 -0.765829 0
M  V30 13867 H 1291.86 -2.8358 0.975824 0
M  V30 13868 H 1289.41 -1.46531 0.543895 0
M  V30 13869 H 1290.15 -2.82303 -1.59611 0
M  V30 13870 H 1289.93 -3.91598 -0.198251 0
M  V30 13871 H 1291.42 -4.0045 -1.18446 0
M  V30 13872 N 1291.86 -0.526279 -1.48553 0
M  V30 13873 C 1292.77 0.24244 -2.33344 0
M  V30 13874 C 1293.79 0.942658 -1.46253 0
M  V30 13875 O 1294.96 0.91844 -1.79239 0
M  V30 13876 C 1292.03 1.27801 -3.22285 0
M  V30 13877 C 1291.09 0.588543 -4.25247 0
M  V30 13878 C 1290.32 1.57478 -5.09938 0
M  V30 13879 O 1290.54 2.80707 -4.96548 0
M  V30 13880 O 1289.48 1.11621 -5.9146 0
M  V30 13881 H 1293.3 -0.452262 -3.00314 0
M  V30 13882 H 1290.89 -0.287249 -1.46613 0
M  V30 13883 H 1292.77 1.87656 -3.7731 0
M  V30 13884 H 1291.45 1.95519 -2.57981 0
M  V30 13885 H 1290.35 -0.0504022 -3.74066 0
M  V30 13886 H 1291.69 -0.046627 -4.92178 0
M  V30 13887 N 1293.34 1.5542 -0.261239 0
M  V30 13888 C 1294.56 2.04142 0.366144 0
M  V30 13889 C 1294.99 1.13884 1.49706 0
M  V30 13890 O 1294.35 0.134629 1.80799 0
M  V30 13891 C 1294.39 3.50733 0.837774 0
M  V30 13892 O 1293.5 3.63588 1.94621 0
M  V30 13893 H 1292.84 0.659424 0.077821 0
M  V30 13894 H 1295.37 2.0082 -0.391487 0
M  V30 13895 H 1295.38 3.91831 1.13721 0
M  V30 13896 H 1294.05 4.15899 0.0102742 0
M  V30 13897 H 1292.63 3.34391 1.65037 0
M  V30 13898 N 1294.82 -0.0116844 1.57596 0
M  V30 13899 C 1296.06 -0.697577 1.89679 0
M  V30 13900 C 1296.38 -1.74956 0.861122 0
M  V30 13901 O 1295.65 -1.95629 -0.103031 0
M  V30 13902 H 1294.23 -0.26064 0.700054 0
M  V30 13903 H 1296.9 0.0264782 1.94882 0
M  V30 13904 H 1295.99 -1.17621 2.89088 0
M  V30 13905 N 1296.29 -1.55015 -0.284256 0
M  V30 13906 C 1297.2 -1.90203 -1.37332 0
M  V30 13907 C 1298.22 -0.797994 -1.54622 0
M  V30 13908 O 1299.4 -1.09602 -1.68965 0
M  V30 13909 C 1296.46 -2.15687 -2.71441 0
M  V30 13910 C 1295.52 -3.39313 -2.62993 0
M  V30 13911 C 1294.75 -3.63571 -3.90707 0
M  V30 13912 O 1294.98 -2.90538 -4.9086 0
M  V30 13913 O 1293.91 -4.57102 -3.91589 0
M  V30 13914 H 1297.74 -2.82888 -1.1049 0
M  V30 13915 H 1295.32 -1.41418 -0.481798 0
M  V30 13916 H 1297.2 -2.33553 -3.50758 0
M  V30 13917 H 1295.88 -1.26185 -2.98092 0
M  V30 13918 H 1294.79 -3.26793 -1.82091 0
M  V30 13919 H 1296.12 -4.28997 -2.41293 0
M  V30 13920 N 1297.77 0.548248 -1.47757 0
M  V30 13921 C 1299.18 1.13033 -1.48595 0
M  V30 13922 C 1299.53 1.94657 -0.245575 0
M  V30 13923 O 1298.66 2.06445 0.648813 0
M  V30 13924 C 1299.25 2.05657 -2.69241 0
M  V30 13925 C 1297.81 2.59119 -2.73009 0
M  V30 13926 C 1296.96 1.35686 -2.41836 0
M  V30 13927 H 1299.91 0.334397 -1.55137 0
M  V30 13928 H 1299.93 2.89671 -2.4672 0
M  V30 13929 H 1299.44 1.46222 -3.595 0
M  V30 13930 H 1297.54 3.22327 -1.86912 0
M  V30 13931 H 1297.66 2.99501 -3.73946 0
M  V30 13932 H 1296.02 1.66659 -1.92606 0
M  V30 13933 H 1296.8 0.780311 -3.34314 0
M  V30 13934 N 1299.25 1.36039 0.795694 0
M  V30 13935 C 1300.5 1.29663 1.55023 0
M  V30 13936 C 1300.82 -0.125588 1.94595 0
M  V30 13937 O 1300.09 -1.06447 1.64456 0
M  V30 13938 H 1298.67 0.476962 0.574906 0
M  V30 13939 H 1301.33 1.70265 0.948471 0
M  V30 13940 H 1300.43 1.91982 2.46068 0
M  V30 13941 N 1300.73 -1.01913 1.20215 0
M  V30 13942 C 1301.69 -2.08563 0.950481 0
M  V30 13943 C 1302.69 -1.60634 -0.0729659 0
M  V30 13944 O 1303.88 -1.73437 0.162826 0
M  V30 13945 C 1301.01 -3.38171 0.430453 0
M  V30 13946 H 1302.21 -2.32323 1.89647 0
M  V30 13947 H 1299.76 -1.18674 1.01716 0
M  V30 13948 H 1300.49 -3.20086 -0.521126 0
M  V30 13949 H 1300.28 -3.74284 1.1685 0
M  V30 13950 H 1301.77 -4.16702 0.273781 0
M  V30 13951 N 1302.21 -1.00763 -1.2118 0
M  V30 13952 C 1303.62 -0.720905 -1.42391 0
M  V30 13953 C 1303.82 0.702918 -1.88842 0
M  V30 13954 O 1302.88 1.47191 -2.05161 0
M  V30 13955 C 1304.19 -1.739 -2.45315 0
M  V30 13956 C 1305.74 -1.75611 -2.59094 0
M  V30 13957 C 1306.21 -2.76323 -3.65253 0
M  V30 13958 N 1307.71 -2.75007 -3.72727 0
M  V30 13959 C 1308.44 -3.49594 -4.54502 0
M  V30 13960 N 1307.94 -4.33828 -5.40153 0
M  V30 13961 N 1309.73 -3.38232 -4.4895 0
M  V30 13962 H 1301.88 -1.92697 -0.893404 0
M  V30 13963 H 1304.14 -0.831888 -0.454606 0
M  V30 13964 H 1303.85 -2.75859 -2.18162 0
M  V30 13965 H 1303.72 -1.5438 -3.44161 0
M  V30 13966 H 1306.11 -0.743416 -2.85582 0
M  V30 13967 H 1306.19 -1.99203 -1.60474 0
M  V30 13968 H 1305.84 -3.77751 -3.39509 0
M  V30 13969 H 1305.77 -2.49996 -4.63476 0
M  V30 13970 H 1308.26 -2.13897 -3.11539 0
M  V30 13971 H 1308.57 -4.8753 -5.99612 0
M  V30 13972 H 1306.91 -4.3791 -5.39685 0
M  V30 13973 H 1310.11 -2.71855 -3.81068 0
M  V30 13974 H 1310.28 -3.96615 -5.12445 0
M  V30 13975 N 1303.68 1.3679 -0.7827 0
M  V30 13976 C 1304.59 2.33928 -0.17747 0
M  V30 13977 C 1305.61 1.60716 0.666802 0
M  V30 13978 O 1306.79 1.92742 0.584162 0
M  V30 13979 C 1303.85 3.39907 0.68294 0
M  V30 13980 C 1302.91 4.28926 -0.179053 0
M  V30 13981 C 1302.15 5.29844 0.640386 0
M  V30 13982 O 1302.37 5.38639 1.87681 0
M  V30 13983 O 1301.3 6.01884 0.0438164 0
M  V30 13984 H 1305.13 2.87439 -0.980441 0
M  V30 13985 H 1302.71 1.39142 -0.54404 0
M  V30 13986 H 1304.6 4.04722 1.17379 0
M  V30 13987 H 1303.27 2.88706 1.46391 0
M  V30 13988 H 1302.18 3.67174 -0.716512 0
M  V30 13989 H 1303.51 4.83461 -0.923377 0
M  V30 13990 N 1305.16 0.53415 1.48272 0
M  V30 13991 C 1306.07 -0.230062 2.33469 0
M  V30 13992 C 1307.09 -0.934889 1.46751 0
M  V30 13993 O 1308.26 -0.908921 1.79724 0
M  V30 13994 C 1305.33 -1.2609 3.22958 0
M  V30 13995 C 1304.39 -0.565983 4.25553 0
M  V30 13996 C 1303.62 -1.54771 5.10766 0
M  V30 13997 O 1303.85 -2.7807 4.9803 0
M  V30 13998 O 1302.78 -1.08482 5.92043 0
M  V30 13999 H 1306.61 0.468182 3.0007 0
M  V30 14000 H 1304.19 0.29502 1.46458 0
M  V30 14001 H 1306.07 -1.85652 3.783 0
M  V30 14002 H 1304.75 -1.94148 2.59014 0
M  V30 14003 H 1303.66 0.0702391 3.74034 0
M  V30 14004 H 1304.99 0.0727277 4.92146 0
M  V30 14005 N 1306.64 -1.55279 0.269478 0
M  V30 14006 C 1308.06 -1.59374 -0.0848147 0
M  V30 14007 C 1308.26 -1.2867 -1.55068 0
M  V30 14008 O 1307.31 -1.04486 -2.29867 0
M  V30 14009 C 1308.63 -2.99349 0.284735 0
M  V30 14010 C 1310.17 -3.12147 0.230887 0
M  V30 14011 C 1310.65 -4.54379 0.574795 0
M  V30 14012 N 1312.14 -4.60202 0.526136 0
M  V30 14013 C 1312.87 -5.68273 0.765109 0
M  V30 14014 N 1312.37 -6.84512 1.0684 0
M  V30 14015 N 1314.16 -5.57796 0.694287 0
M  V30 14016 H 1306.31 -1.73503 1.22517 0
M  V30 14017 H 1308.58 -0.808771 0.494564 0
M  V30 14018 H 1308.28 -3.26633 1.30398 0
M  V30 14019 H 1308.16 -3.75309 -0.377199 0
M  V30 14020 H 1310.54 -2.84631 -0.779064 0
M  V30 14021 H 1310.63 -2.38412 0.926998 0
M  V30 14022 H 1310.27 -4.8262 1.58241 0
M  V30 14023 H 1310.2 -5.26406 -0.143044 0
M  V30 14024 H 1312.69 -3.76696 0.301368 0
M  V30 14025 H 1313 -7.62826 1.23757 0
M  V30 14026 H 1311.35 -6.86141 1.10612 0
M  V30 14027 H 1314.54 -4.65862 0.457226 0
M  V30 14028 H 1314.71 -6.41943 0.883913 0
M  V30 14029 N 1308.12 0.00332656 -1.576 0
M  V30 14030 C 1309.53 0.546581 -1.7852 0
M  V30 14031 C 1309.88 1.74147 -0.903722 0
M  V30 14032 O 1309.01 2.16144 -0.105314 0
M  V30 14033 C 1309.6 0.998344 -3.23757 0
M  V30 14034 C 1308.16 1.48693 -3.45785 0
M  V30 14035 C 1307.31 0.436617 -2.73841 0
M  V30 14036 H 1310.26 -0.222852 -1.57128 0
M  V30 14037 H 1310.28 1.86452 -3.31686 0
M  V30 14038 H 1309.79 0.128479 -3.87887 0
M  V30 14039 H 1307.89 2.3778 -2.86865 0
M  V30 14040 H 1308 1.51668 -4.5446 0
M  V30 14041 H 1306.37 0.897506 -2.38363 0
M  V30 14042 H 1307.15 -0.424225 -3.40669 0
M  V30 14043 N 1309.6 1.55164 0.276031 0
M  V30 14044 C 1311.01 1.46936 0.623061 0
M  V30 14045 C 1311.21 0.680977 1.89644 0
M  V30 14046 O 1310.27 0.198618 2.51718 0
M  V30 14047 C 1311.58 2.91123 0.752839 0
M  V30 14048 C 1313.13 3.01319 0.847093 0
M  V30 14049 C 1313.6 4.46755 1.00867 0
M  V30 14050 N 1315.1 4.5057 1.07427 0
M  V30 14051 C 1315.83 5.60314 1.21804 0
M  V30 14052 N 1315.33 6.7993 1.32919 0
M  V30 14053 N 1317.12 5.4805 1.2489 0
M  V30 14054 H 1309.27 2.04877 -0.560282 0
M  V30 14055 H 1311.53 0.928925 -0.189217 0
M  V30 14056 H 1311.24 3.51521 -0.112333 0
M  V30 14057 H 1311.11 3.39967 1.63408 0
M  V30 14058 H 1313.5 2.41021 1.70274 0
M  V30 14059 H 1313.58 2.55733 -0.0586896 0
M  V30 14060 H 1313.23 5.07655 0.1577 0
M  V30 14061 H 1313.16 4.89995 1.92906 0
M  V30 14062 H 1315.65 3.64404 1.00089 0
M  V30 14063 H 1315.96 7.59319 1.43714 0
M  V30 14064 H 1314.3 6.82747 1.29929 0
M  V30 14065 H 1317.5 4.53542 1.15834 0
M  V30 14066 H 1317.67 6.33621 1.3575 0
M  V30 14067 N 1311.07 -0.540404 1.48045 0
M  V30 14068 C 1312.49 -1.12243 1.49192 0
M  V30 14069 C 1312.84 -1.94524 0.255895 0
M  V30 14070 O 1311.96 -2.06786 -0.637855 0
M  V30 14071 C 1312.56 -2.04227 2.70327 0
M  V30 14072 C 1311.12 -2.57668 2.7438 0
M  V30 14073 C 1310.26 -1.34402 2.42552 0
M  V30 14074 H 1313.21 -0.326165 1.55312 0
M  V30 14075 H 1313.23 -2.88359 2.48253 0
M  V30 14076 H 1312.75 -1.44314 3.60271 0
M  V30 14077 H 1310.85 -3.21331 1.88618 0
M  V30 14078 H 1310.96 -2.97514 3.7553 0
M  V30 14079 H 1309.32 -1.65635 1.93487 0
M  V30 14080 H 1310.11 -0.762571 3.34723 0
M  V30 14081 N 1312.55 -1.36459 -0.788468 0
M  V30 14082 C 1313.5 -1.27391 -1.89092 0
M  V30 14083 C 1314.49 -0.165201 -1.6005 0
M  V30 14084 O 1315.68 -0.398097 -1.72465 0
M  V30 14085 C 1312.81 -1.06639 -3.26317 0
M  V30 14086 C 1311.89 -2.21981 -3.61366 0
M  V30 14087 N 1312.28 -3.47302 -3.67716 0
M  V30 14088 C 1310.58 -2.13767 -3.91433 0
M  V30 14089 C 1311.28 -4.2326 -3.99031 0
M  V30 14090 N 1310.26 -3.52211 -4.14063 0
M  V30 14091 H 1314.06 -2.22318 -1.92229 0
M  V30 14092 H 1311.58 -1.29191 -0.98404 0
M  V30 14093 H 1313.57 -0.982292 -4.05162 0
M  V30 14094 H 1312.23 -0.126129 -3.24455 0
M  V30 14095 H 1313.24 -3.81424 -3.50337 0
M  V30 14096 H 1309.92 -1.27702 -3.9749 0
M  V30 14097 H 1311.31 -5.31643 -4.1086 0
M  V30 14098 N 1314.03 1.01274 -1.20754 0
M  V30 14099 C 1315.45 1.27256 -0.963221 0
M  V30 14100 C 1315.65 1.98349 0.354972 0
M  V30 14101 O 1314.7 2.28116 1.08255 0
M  V30 14102 C 1316.02 2.1038 -2.14851 0
M  V30 14103 C 1317.56 2.23633 -2.18991 0
M  V30 14104 C 1318.04 3.10136 -3.37016 0
M  V30 14105 N 1319.53 3.17724 -3.37054 0
M  V30 14106 C 1320.26 3.84891 -4.25025 0
M  V30 14107 N 1319.76 4.54152 -5.23181 0
M  V30 14108 N 1321.55 3.81454 -4.12855 0
M  V30 14109 H 1313.7 0.535534 -2.05538 0
M  V30 14110 H 1315.97 0.299006 -0.899611 0
M  V30 14111 H 1315.67 1.65484 -3.10335 0
M  V30 14112 H 1315.55 3.11122 -2.13267 0
M  V30 14113 H 1317.93 2.67753 -1.24067 0
M  V30 14114 H 1318.02 1.22387 -2.24622 0
M  V30 14115 H 1317.66 2.66721 -4.32229 0
M  V30 14116 H 1317.59 4.11478 -3.28623 0
M  V30 14117 H 1320.08 2.68412 -2.66014 0
M  V30 14118 H 1320.39 5.03084 -5.86623 0
M  V30 14119 H 1318.74 4.52964 -5.27113 0
M  V30 14120 H 1321.93 3.26494 -3.35439 0
M  V30 14121 H 1322.1 4.33523 -4.81624 0
M  V30 14122 N 1315.51 1.01404 1.20644 0
M  V30 14123 C 1316.73 0.720839 1.9447 0
M  V30 14124 C 1317.16 -0.711711 1.74116 0
M  V30 14125 O 1316.52 -1.48938 1.03379 0
M  V30 14126 C 1316.57 1.05864 3.4471 0
M  V30 14127 O 1315.67 0.168901 4.12054 0
M  V30 14128 H 1315.01 0.267698 0.607646 0
M  V30 14129 H 1317.54 1.35672 1.53147 0
M  V30 14130 H 1317.55 1.00928 3.9532 0
M  V30 14131 H 1316.23 2.1024 3.58848 0
M  V30 14132 H 1314.8 0.275572 3.7188 0
M  V30 14133 N 1316.99 -1.36373 0.789944 0
M  V30 14134 C 1317.94 -2.27425 0.161798 0
M  V30 14135 C 1318.92 -1.46983 -0.654583 0
M  V30 14136 O 1320.11 -1.69355 -0.51457 0
M  V30 14137 C 1317.24 -3.36043 -0.702128 0
M  V30 14138 C 1316.33 -4.23921 0.123071 0
M  V30 14139 N 1316.72 -4.91895 1.17784 0
M  V30 14140 C 1315.02 -4.45892 -0.0980072 0
M  V30 14141 C 1315.72 -5.56905 1.68023 0
M  V30 14142 N 1314.69 -5.34521 0.989371 0
M  V30 14143 H 1318.5 -2.77463 0.969093 0
M  V30 14144 H 1316.01 -1.49705 0.629458 0
M  V30 14145 H 1318.01 -4.00203 -1.16805 0
M  V30 14146 H 1316.67 -2.8756 -1.50796 0
M  V30 14147 H 1317.68 -4.93838 1.56027 0
M  V30 14148 H 1314.36 -4.08243 -0.874307 0
M  V30 14149 H 1315.75 -6.21185 2.56085 0
M  V30 14150 N 1318.47 -0.542005 -1.47987 0
M  V30 14151 C 1319.69 -0.0146835 -2.07395 0
M  V30 14152 C 1320.12 1.26266 -1.39422 0
M  V30 14153 O 1319.47 1.75259 -0.464118 0
M  V30 14154 C 1319.52 0.179937 -3.60151 0
M  V30 14155 O 1318.63 1.24596 -3.93128 0
M  V30 14156 H 1317.97 -0.0445076 -0.662507 0
M  V30 14157 H 1320.5 -0.753352 -1.90226 0
M  V30 14158 H 1320.51 0.398876 -4.06046 0
M  V30 14159 H 1319.18 -0.753093 -4.09025 0
M  V30 14160 H 1317.76 1.00872 -3.58997 0
M  V30 14161 N 1319.94 1.55134 -0.277709 0
M  V30 14162 C 1320.89 2.2263 0.608637 0
M  V30 14163 C 1321.86 1.20067 1.14774 0
M  V30 14164 O 1323.05 1.48617 1.19657 0
M  V30 14165 C 1320.19 2.95308 1.78571 0
M  V30 14166 C 1319.3 4.12595 1.28021 0
M  V30 14167 C 1318.43 4.7291 2.41929 0
M  V30 14168 C 1317.47 5.82386 1.88395 0
M  V30 14169 N 1316.61 6.36754 2.95786 0
M  V30 14170 H 1321.45 2.97988 0.0264138 0
M  V30 14171 H 1318.99 1.471 0.00127068 0
M  V30 14172 H 1320.94 3.35662 2.47764 0
M  V30 14173 H 1319.57 2.22368 2.33992 0
M  V30 14174 H 1318.63 3.77343 0.481297 0
M  V30 14175 H 1319.94 4.91537 0.848128 0
M  V30 14176 H 1319.09 5.15997 3.1911 0
M  V30 14177 H 1317.83 3.93251 2.88453 0
M  V30 14178 H 1316.84 5.38746 1.09694 0
M  V30 14179 H 1318.06 6.63916 1.42803 0
M  V30 14180 H 1316.01 5.59987 3.41687 0
M  V30 14181 H 1315.92 7.10975 2.57002 0
M  V30 14182 H 1317.19 6.845 3.72935 0
M  V30 14183 N 1321.42 0.00503138 1.57599 0
M  V30 14184 C 1322.33 -1.00097 2.12174 0
M  V30 14185 C 1323.35 -1.37353 1.06818 0
M  V30 14186 O 1324.52 -1.45984 1.38747 0
M  V30 14187 C 1321.59 -2.27252 2.61835 0
M  V30 14188 C 1320.65 -1.96262 3.81811 0
M  V30 14189 C 1319.88 -3.17355 4.29094 0
M  V30 14190 O 1320.11 -4.2921 3.75679 0
M  V30 14191 O 1319.04 -3.01059 5.21198 0
M  V30 14192 H 1322.87 -0.567024 2.9836 0
M  V30 14193 H 1320.45 -0.214109 1.47858 0
M  V30 14194 H 1322.33 -3.01944 2.93952 0
M  V30 14195 H 1321.01 -2.69875 1.78744 0
M  V30 14196 H 1319.91 -1.19031 3.54658 0
M  V30 14197 H 1321.25 -1.58473 4.65991 0
M  V30 14198 N 1322.9 -1.55308 -0.267798 0
M  V30 14199 C 1323.86 -1.87765 -1.31442 0
M  V30 14200 C 1324.86 -0.752571 -1.42102 0
M  V30 14201 O 1326.05 -1.02072 -1.41163 0
M  V30 14202 C 1323.18 -2.08754 -2.69508 0
M  V30 14203 H 1324.38 -2.8133 -1.03891 0
M  V30 14204 H 1321.93 -1.47879 -0.506111 0
M  V30 14205 H 1322.67 -1.17588 -3.02231 0
M  V30 14206 H 1322.45 -2.90674 -2.63156 0
M  V30 14207 H 1323.94 -2.3512 -3.4512 0
M  V30 14208 N 1324.38 0.532545 -1.4833 0
M  V30 14209 C 1325.34 1.61955 -1.62183 0
M  V30 14210 C 1326.34 1.52982 -0.495281 0
M  V30 14211 O 1327.53 1.56698 -0.761005 0
M  V30 14212 C 1324.66 3.0157 -1.58961 0
M  V30 14213 H 1325.86 1.51013 -2.59105 0
M  V30 14214 H 1323.41 0.754405 -1.36888 0
M  V30 14215 H 1324.14 3.18021 -0.635069 0
M  V30 14216 H 1323.93 3.09491 -2.40744 0
M  V30 14217 H 1325.42 3.80604 -1.71843 0
M  V30 14218 N 1325.86 1.36875 0.78122 0
M  V30 14219 C 1327.1 1.31299 1.53639 0
M  V30 14220 C 1327.42 -0.104942 1.94717 0
M  V30 14221 O 1326.69 -1.04696 1.65576 0
M  V30 14222 H 1325.27 0.483032 0.569815 0
M  V30 14223 H 1327.94 1.71261 0.930359 0
M  V30 14224 H 1327.03 1.94581 2.44018 0
M  V30 14225 N 1327.33 -1.00632 1.21289 0
M  V30 14226 C 1328.74 -1.55838 1.02817 0
M  V30 14227 C 1329.1 -1.91816 -0.412425 0
M  V30 14228 O 1328.22 -1.73342 -1.29543 0
M  V30 14229 C 1328.82 -2.83168 1.86014 0
M  V30 14230 C 1327.37 -3.34865 1.71879 0
M  V30 14231 C 1326.52 -2.0807 1.83309 0
M  V30 14232 H 1329.47 -0.828939 1.3533 0
M  V30 14233 H 1329.49 -3.54996 1.36961 0
M  V30 14234 H 1329.01 -2.56951 2.90857 0
M  V30 14235 H 1327.11 -3.6602 0.697153 0
M  V30 14236 H 1327.22 -4.06374 2.53766 0
M  V30 14237 H 1325.58 -2.21006 1.26603 0
M  V30 14238 H 1326.37 -1.84267 2.89656 0
M  V30 14239 N 1328.81 -1.02043 -1.20104 0
M  V30 14240 C 1330.22 -0.742954 -1.71281 0
M  V30 14241 C 1330.57 0.738173 -1.81784 0
M  V30 14242 O 1329.7 1.57588 -1.48307 0
M  V30 14243 C 1330.29 -1.342 -3.11088 0
M  V30 14244 C 1328.85 -1.11331 -3.59559 0
M  V30 14245 C 1328 -1.44532 -2.36655 0
M  V30 14246 H 1330.95 -1.18942 -1.05064 0
M  V30 14247 H 1330.97 -0.734558 -3.73342 0
M  V30 14248 H 1330.48 -2.41998 -3.03411 0
M  V30 14249 H 1328.58 -0.05317 -3.72562 0
M  V30 14250 H 1328.7 -1.79606 -4.4416 0
M  V30 14251 H 1327.06 -0.864431 -2.39582 0
M  V30 14252 H 1327.84 -2.53394 -2.31616 0
M  V30 14253 N 1330.29 1.35952 -0.797165 0
M  V30 14254 C 1331.2 2.33726 -0.202271 0
M  V30 14255 C 1332.22 1.61415 0.649719 0
M  V30 14256 O 1333.39 1.93351 0.563686 0
M  V30 14257 C 1330.46 3.40612 0.64685 0
M  V30 14258 C 1329.52 4.28712 -0.224536 0
M  V30 14259 C 1328.75 5.30493 0.584153 0
M  V30 14260 O 1328.97 5.40599 1.81957 0
M  V30 14261 O 1327.91 6.01897 -0.0200239 0
M  V30 14262 H 1331.73 2.86383 -1.01087 0
M  V30 14263 H 1329.32 1.38557 -0.558768 0
M  V30 14264 H 1331.2 4.05944 1.1308 0
M  V30 14265 H 1329.88 2.90243 1.43321 0
M  V30 14266 H 1328.78 3.66394 -0.755415 0
M  V30 14267 H 1330.12 4.82454 -0.974603 0
M  V30 14268 N 1331.77 0.549846 1.47697 0
M  V30 14269 C 1332.73 -0.191427 2.28399 0
M  V30 14270 C 1333.73 -0.849533 1.36527 0
M  V30 14271 O 1334.92 -0.706526 1.59229 0
M  V30 14272 C 1332.05 -1.27907 3.15995 0
M  V30 14273 H 1333.25 0.517375 2.95404 0
M  V30 14274 H 1330.8 0.30651 1.53265 0
M  V30 14275 H 1331.53 -2.0205 2.53665 0
M  V30 14276 H 1331.32 -0.812066 3.83599 0
M  V30 14277 H 1332.81 -1.79992 3.76819 0
M  V30 14278 N 1333.25 -1.54984 0.285932 0
M  V30 14279 C 1334.66 -1.59455 -0.0679061 0
M  V30 14280 C 1334.86 -1.30308 -1.53695 0
M  V30 14281 O 1333.92 -1.06918 -2.28746 0
M  V30 14282 C 1335.23 -2.9903 0.316469 0
M  V30 14283 C 1336.78 -3.11885 0.263982 0
M  V30 14284 C 1337.25 -4.53744 0.622956 0
M  V30 14285 N 1338.75 -4.59618 0.574917 0
M  V30 14286 C 1339.48 -5.67429 0.825339 0
M  V30 14287 N 1338.98 -6.83341 1.14094 0
M  V30 14288 N 1340.77 -5.57028 0.75341 0
M  V30 14289 H 1332.92 -1.72194 1.2435 0
M  V30 14290 H 1335.18 -0.80348 0.503114 0
M  V30 14291 H 1334.89 -3.25232 1.33855 0
M  V30 14292 H 1334.76 -3.75688 -0.337371 0
M  V30 14293 H 1337.15 -2.85441 -0.748832 0
M  V30 14294 H 1337.23 -2.37416 0.952233 0
M  V30 14295 H 1336.88 -4.80915 1.63351 0
M  V30 14296 H 1336.81 -5.26528 -0.0872039 0
M  V30 14297 H 1339.3 -3.76356 0.341305 0
M  V30 14298 H 1339.61 -7.61471 1.3184 0
M  V30 14299 H 1337.95 -6.8493 1.17883 0
M  V30 14300 H 1341.15 -4.6535 0.506611 0
M  V30 14301 H 1341.32 -6.4097 0.95195 0
M  V30 14302 N 1334.72 -0.0133892 -1.57594 0
M  V30 14303 C 1335.95 0.682855 -1.95836 0
M  V30 14304 C 1336.37 1.65763 -0.889049 0
M  V30 14305 O 1335.73 1.80665 0.151585 0
M  V30 14306 C 1335.78 1.37931 -3.33178 0
M  V30 14307 O 1334.88 2.49416 -3.28429 0
M  V30 14308 H 1334.23 0.180629 -0.638959 0
M  V30 14309 H 1336.76 -0.0705644 -2.04478 0
M  V30 14310 H 1336.77 1.73969 -3.69051 0
M  V30 14311 H 1335.44 0.664675 -4.10554 0
M  V30 14312 H 1334.02 2.15606 -3.04251 0
M  V30 14313 N 1336.2 1.55448 0.259558 0
M  V30 14314 C 1337.11 1.92364 1.34289 0
M  V30 14315 C 1338.13 0.822492 1.53333 0
M  V30 14316 O 1339.3 1.12277 1.672 0
M  V30 14317 C 1336.37 2.19978 2.67975 0
M  V30 14318 C 1335.43 3.43454 2.57562 0
M  V30 14319 C 1334.66 3.69741 3.84873 0
M  V30 14320 O 1334.89 2.9831 4.86176 0
M  V30 14321 O 1333.82 4.63274 3.84267 0
M  V30 14322 H 1337.65 2.8461 1.05975 0
M  V30 14323 H 1335.23 1.42167 0.459239 0
M  V30 14324 H 1337.11 2.39104 3.46998 0
M  V30 14325 H 1335.79 1.30912 2.96047 0
M  V30 14326 H 1334.7 3.29649 1.76869 0
M  V30 14327 H 1336.03 4.32782 2.34437 0
M  V30 14328 N 1337.68 -0.524672 1.4861 0
M  V30 14329 C 1339.1 -0.853703 1.34848 0
M  V30 14330 C 1339.3 -1.98194 0.363529 0
M  V30 14331 O 1338.35 -2.51597 -0.213348 0
M  V30 14332 C 1339.67 -1.21622 2.75006 0
M  V30 14333 C 1341.21 -1.3258 2.83534 0
M  V30 14334 C 1341.69 -1.72172 4.24406 0
M  V30 14335 N 1343.18 -1.79265 4.27105 0
M  V30 14336 C 1343.91 -2.11296 5.33049 0
M  V30 14337 N 1343.41 -2.41714 6.49266 0
M  V30 14338 N 1345.2 -2.12347 5.20447 0
M  V30 14339 H 1337.35 0.219671 2.11261 0
M  V30 14340 H 1339.62 0.0356444 0.94733 0
M  V30 14341 H 1339.32 -0.460776 3.48669 0
M  V30 14342 H 1339.2 -2.16516 3.0887 0
M  V30 14343 H 1341.58 -2.072 2.10124 0
M  V30 14344 H 1341.67 -0.357943 2.53283 0
M  V30 14345 H 1341.31 -0.981108 4.98334 0
M  V30 14346 H 1341.24 -2.70017 4.52104 0
M  V30 14347 H 1343.73 -1.58013 3.43279 0
M  V30 14348 H 1344.04 -2.65276 7.25843 0
M  V30 14349 H 1342.39 -2.39222 6.52532 0
M  V30 14350 H 1345.58 -1.88044 4.28669 0
M  V30 14351 H 1345.75 -2.36978 6.03113 0
M  V30 14352 N 1339.16 -1.37287 -0.77395 0
M  V30 14353 C 1340.41 -1.32112 -1.5294 0
M  V30 14354 C 1340.73 0.0946137 -1.9477 0
M  V30 14355 O 1340 1.03817 -1.66129 0
M  V30 14356 H 1338.58 -0.486047 -0.567245 0
M  V30 14357 H 1341.24 -1.71752 -0.921263 0
M  V30 14358 H 1340.34 -1.95873 -2.42982 0
M  V30 14359 N 1340.64 0.999871 -1.21821 0
M  V30 14360 C 1342.05 1.26228 -0.976664 0
M  V30 14361 C 1342.25 1.98714 0.333915 0
M  V30 14362 O 1341.31 2.29252 1.05829 0
M  V30 14363 C 1342.62 2.08089 -2.1707 0
M  V30 14364 C 1344.17 2.21298 -2.21351 0
M  V30 14365 C 1344.64 3.06544 -3.40287 0
M  V30 14366 N 1346.14 3.14131 -3.40405 0
M  V30 14367 C 1346.87 3.80362 -4.29083 0
M  V30 14368 N 1346.37 4.48577 -5.27968 0
M  V30 14369 N 1348.16 3.77053 -4.16878 0
M  V30 14370 H 1340.31 0.513704 -2.06094 0
M  V30 14371 H 1342.57 0.289447 -0.902732 0
M  V30 14372 H 1342.28 1.62183 -3.12073 0
M  V30 14373 H 1342.15 3.08843 -2.16554 0
M  V30 14374 H 1344.54 2.66422 -1.269 0
M  V30 14375 H 1344.62 1.19997 -2.25908 0
M  V30 14376 H 1344.27 2.62122 -4.35034 0
M  V30 14377 H 1344.2 4.0797 -3.32969 0
M  V30 14378 H 1346.69 2.65576 -2.68846 0
M  V30 14379 H 1347 4.96833 -5.91926 0
M  V30 14380 H 1345.34 4.47348 -5.31888 0
M  V30 14381 H 1348.54 3.22918 -3.38883 0
M  V30 14382 H 1348.71 4.2839 -4.86195 0
M  V30 14383 N 1342.11 1.02678 1.19562 0
M  V30 14384 C 1343.36 0.72059 1.88817 0
M  V30 14385 C 1343.68 -0.752942 1.79877 0
M  V30 14386 O 1342.95 -1.54233 1.20785 0
M  V30 14387 H 1341.53 0.26355 0.698964 0
M  V30 14388 H 1344.2 1.30056 1.4516 0
M  V30 14389 H 1343.29 1.01303 2.95202 0
M  V30 14390 N 1343.59 -1.35528 0.804364 0
M  V30 14391 C 1345 -1.81321 0.444933 0
M  V30 14392 C 1345.35 -1.66816 -1.03281 0
M  V30 14393 O 1344.48 -1.19753 -1.80245 0
M  V30 14394 C 1345.07 -3.29199 0.800827 0
M  V30 14395 C 1343.63 -3.73144 0.494026 0
M  V30 14396 C 1342.78 -2.57557 1.02761 0
M  V30 14397 H 1345.73 -1.23537 0.996203 0
M  V30 14398 H 1345.75 -3.80375 0.0975117 0
M  V30 14399 H 1345.26 -3.39725 1.8764 0
M  V30 14400 H 1343.37 -3.68169 -0.572901 0
M  V30 14401 H 1343.48 -4.68005 1.0251 0
M  V30 14402 H 1341.84 -2.50692 0.450048 0
M  V30 14403 H 1342.63 -2.70861 2.10925 0
M  V30 14404 N 1345.07 -0.557671 -1.47404 0
M  V30 14405 C 1346.32 -0.0337216 -2.02072 0
M  V30 14406 C 1346.64 1.32106 -1.43433 0
M  V30 14407 O 1345.91 1.86171 -0.609692 0
M  V30 14408 H 1344.49 -0.00947648 -0.74694 0
M  V30 14409 H 1347.15 -0.727784 -1.80802 0
M  V30 14410 H 1346.25 0.0540331 -3.12053 0
M  V30 14411 N 1346.55 1.54831 -0.294147 0
M  V30 14412 C 1347.96 1.85627 0.199866 0
M  V30 14413 C 1348.31 1.21613 1.53964 0
M  V30 14414 O 1347.44 0.511317 2.10272 0
M  V30 14415 C 1348.03 3.3678 0.369428 0
M  V30 14416 C 1346.59 3.67633 0.807663 0
M  V30 14417 C 1345.74 2.7716 -0.0880078 0
M  V30 14418 H 1348.69 1.50099 -0.515371 0
M  V30 14419 H 1348.71 3.60913 1.20508 0
M  V30 14420 H 1348.22 3.83342 -0.605831 0
M  V30 14421 H 1346.32 3.26583 1.79372 0
M  V30 14422 H 1346.44 4.74916 0.631799 0
M  V30 14423 H 1344.8 2.51017 0.431553 0
M  V30 14424 H 1345.58 3.26542 -1.0595 0
M  V30 14425 N 1348.03 0.0217466 1.57585 0
M  V30 14426 C 1348.94 -0.978407 2.13224 0
M  V30 14427 C 1349.95 -1.36212 1.08269 0
M  V30 14428 O 1351.13 -1.44504 1.40288 0
M  V30 14429 C 1348.19 -2.24462 2.6423 0
M  V30 14430 C 1347.26 -1.92201 3.83871 0
M  V30 14431 C 1346.49 -3.12786 4.32436 0
M  V30 14432 O 1346.71 -4.25201 3.8021 0
M  V30 14433 O 1345.65 -2.95514 5.24362 0
M  V30 14434 H 1349.47 -0.535347 2.98944 0
M  V30 14435 H 1347.06 -0.198414 1.48077 0
M  V30 14436 H 1348.94 -2.98809 2.97138 0
M  V30 14437 H 1347.61 -2.67964 1.81596 0
M  V30 14438 H 1346.52 -1.15262 3.55901 0
M  V30 14439 H 1347.85 -1.53521 4.67645 0
M  V30 14440 N 1349.51 -1.55583 -0.251311 0
M  V30 14441 C 1350.75 -1.76859 -0.978031 0
M  V30 14442 C 1351.07 -0.584924 -1.86021 0
M  V30 14443 O 1350.34 0.399456 -1.91784 0
M  V30 14444 H 1348.92 -0.652252 -0.364111 0
M  V30 14445 H 1351.59 -1.93016 -0.270319 0
M  V30 14446 H 1350.68 -2.67828 -1.60233 0
M  V30 14447 N 1350.98 0.516783 -1.48886 0
M  V30 14448 C 1352.23 1.26936 -1.57263 0
M  V30 14449 C 1352.55 1.93337 -0.254156 0
M  V30 14450 O 1351.82 1.81977 0.725345 0
M  V30 14451 H 1350.4 0.4715 -0.579393 0
M  V30 14452 H 1353.06 0.600289 -1.85425 0
M  V30 14453 H 1352.16 2.04167 -2.36055 0
M  V30 14454 N 1352.46 1.37696 0.766659 0
M  V30 14455 C 1353.88 1.18607 1.06792 0
M  V30 14456 C 1354.08 0.0257195 2.01484 0
M  V30 14457 O 1353.13 -0.632608 2.44447 0
M  V30 14458 C 1354.45 2.50692 1.66054 0
M  V30 14459 C 1355.99 2.57259 1.78288 0
M  V30 14460 C 1356.47 3.89488 2.40963 0
M  V30 14461 N 1357.96 3.90957 2.48408 0
M  V30 14462 C 1358.7 4.90023 2.97767 0
M  V30 14463 N 1358.19 5.99485 3.4726 0
M  V30 14464 N 1359.98 4.77423 2.96688 0
M  V30 14465 H 1352.14 2.11951 0.138031 0
M  V30 14466 H 1354.4 0.939873 0.123863 0
M  V30 14467 H 1354.1 3.35989 1.03945 0
M  V30 14468 H 1353.98 2.68148 2.65286 0
M  V30 14469 H 1356.37 1.72366 2.39528 0
M  V30 14470 H 1356.45 2.43682 0.777981 0
M  V30 14471 H 1356.09 4.74797 1.8036 0
M  V30 14472 H 1356.02 4.0037 3.42069 0
M  V30 14473 H 1358.51 3.11888 2.13388 0
M  V30 14474 H 1358.82 6.71022 3.8334 0
M  V30 14475 H 1357.17 6.03123 3.45351 0
M  V30 14476 H 1360.36 3.91026 2.57325 0
M  V30 14477 H 1360.53 5.54783 3.34844 0
M  V30 14478 N 1353.94 -0.993397 1.22349 0
M  V30 14479 C 1355.36 -1.25708 0.983345 0
M  V30 14480 C 1355.56 -1.98888 -0.323372 0
M  V30 14481 O 1354.61 -2.2981 -1.04612 0
M  V30 14482 C 1355.92 -2.06935 2.1817 0
M  V30 14483 C 1357.47 -2.20121 2.22521 0
M  V30 14484 C 1357.95 -3.04735 3.41907 0
M  V30 14485 N 1359.44 -3.12322 3.42066 0
M  V30 14486 C 1360.17 -3.78081 4.31095 0
M  V30 14487 N 1359.67 -4.45771 5.3034 0
M  V30 14488 N 1361.46 -3.74837 4.18872 0
M  V30 14489 H 1353.61 -0.502767 2.06364 0
M  V30 14490 H 1355.88 -0.284656 0.904254 0
M  V30 14491 H 1355.58 -1.60525 3.12929 0
M  V30 14492 H 1355.46 -3.0769 2.18189 0
M  V30 14493 H 1357.84 -2.65745 1.28311 0
M  V30 14494 H 1357.92 -1.18798 2.26541 0
M  V30 14495 H 1357.57 -2.59811 4.36418 0
M  V30 14496 H 1357.5 -4.06198 3.35128 0
M  V30 14497 H 1359.99 -2.64146 2.7025 0
M  V30 14498 H 1360.3 -4.93687 5.94553 0
M  V30 14499 H 1358.65 -4.44521 5.34253 0
M  V30 14500 H 1361.84 -3.21116 3.40591 0
M  V30 14501 H 1362.01 -4.25806 4.8846 0
M  V30 14502 N 1355.42 -1.03311 -1.19015 0
M  V30 14503 C 1356.37 -0.588076 -2.20285 0
M  V30 14504 C 1357.35 0.365442 -1.56695 0
M  V30 14505 O 1358.54 0.185725 -1.76023 0
M  V30 14506 C 1355.67 0.0553478 -3.43255 0
M  V30 14507 C 1354.76 -0.920863 -4.13982 0
M  V30 14508 N 1355.15 -2.08495 -4.60829 0
M  V30 14509 C 1353.45 -0.74522 -4.3973 0
M  V30 14510 C 1354.15 -2.701 -5.1519 0
M  V30 14511 N 1353.12 -1.98031 -5.06246 0
M  V30 14512 H 1356.93 -1.47529 -2.54189 0
M  V30 14513 H 1354.44 -0.900663 -1.35136 0
M  V30 14514 H 1356.44 0.39182 -4.15055 0
M  V30 14515 H 1355.1 0.938199 -3.1085 0
M  V30 14516 H 1356.11 -2.46418 -4.5552 0
M  V30 14517 H 1352.79 0.088182 -4.17407 0
M  V30 14518 H 1354.18 -3.6871 -5.61696 0
M  V30 14519 N 1356.9 1.35099 -0.81154 0
M  V30 14520 C 1357.85 2.27139 -0.197958 0
M  V30 14521 C 1358.83 1.48006 0.631116 0
M  V30 14522 O 1360.02 1.70152 0.487562 0
M  V30 14523 C 1357.15 3.37118 0.648577 0
M  V30 14524 C 1356.24 4.23672 -0.190498 0
M  V30 14525 N 1356.63 4.89959 -1.25594 0
M  V30 14526 C 1354.93 4.45992 0.0270572 0
M  V30 14527 C 1355.63 5.54161 -1.76862 0
M  V30 14528 N 1354.6 5.32879 -1.07428 0
M  V30 14529 H 1358.4 2.75886 -1.01311 0
M  V30 14530 H 1355.92 1.48685 -0.653195 0
M  V30 14531 H 1357.92 4.0201 1.10423 0
M  V30 14532 H 1356.58 2.89922 1.46202 0
M  V30 14533 H 1357.59 4.91293 -1.63864 0
M  V30 14534 H 1354.26 4.09582 0.809248 0
M  V30 14535 H 1355.65 6.17032 -2.65935 0
M  V30 14536 N 1358.37 0.56548 1.47106 0
M  V30 14537 C 1359.79 0.225855 1.57994 0
M  V30 14538 C 1359.99 -1.27173 1.56299 0
M  V30 14539 O 1359.05 -2.05242 1.47078 0
M  V30 14540 C 1360.36 0.859829 2.88145 0
M  V30 14541 C 1361.91 0.831821 3.01744 0
M  V30 14542 C 1362.38 1.44502 4.34607 0
M  V30 14543 N 1363.87 1.40857 4.41263 0
M  V30 14544 C 1364.61 1.85258 5.42648 0
M  V30 14545 N 1364.1 2.37553 6.508 0
M  V30 14546 N 1365.9 1.76279 5.33744 0
M  V30 14547 H 1358.05 1.53837 1.46451 0
M  V30 14548 H 1360.31 0.642013 0.697512 0
M  V30 14549 H 1360.02 1.91264 2.95146 0
M  V30 14550 H 1359.89 0.357762 3.755 0
M  V30 14551 H 1362.28 -0.212319 2.94335 0
M  V30 14552 H 1362.36 1.37173 2.1591 0
M  V30 14553 H 1362 2.48827 4.42773 0
M  V30 14554 H 1361.93 0.880479 5.19187 0
M  V30 14555 H 1364.42 1.02614 3.63702 0
M  V30 14556 H 1364.74 2.69335 7.24347 0
M  V30 14557 H 1363.08 2.41569 6.51667 0
M  V30 14558 H 1366.27 1.35195 4.48152 0
M  V30 14559 H 1366.45 2.11199 6.12616 0
M  V30 14560 N 1359.85 -1.54672 0.302354 0
M  V30 14561 C 1361.27 -1.59519 -0.0509899 0
M  V30 14562 C 1361.47 -1.31931 -1.52304 0
M  V30 14563 O 1360.52 -1.09338 -2.27599 0
M  V30 14564 C 1361.84 -2.98678 0.348168 0
M  V30 14565 C 1363.39 -3.11587 0.297046 0
M  V30 14566 C 1363.86 -4.53057 0.671046 0
M  V30 14567 N 1365.35 -4.58983 0.623633 0
M  V30 14568 C 1366.09 -5.66522 0.885476 0
M  V30 14569 N 1365.58 -6.82092 1.21336 0
M  V30 14570 N 1367.38 -5.56198 0.812448 0
M  V30 14571 H 1359.53 -1.70865 1.2617 0
M  V30 14572 H 1361.79 -0.798099 0.511608 0
M  V30 14573 H 1361.5 -3.23794 1.37297 0
M  V30 14574 H 1361.37 -3.76025 -0.297505 0
M  V30 14575 H 1363.76 -2.86219 -0.718515 0
M  V30 14576 H 1363.84 -2.36392 0.977361 0
M  V30 14577 H 1363.48 -4.79155 1.68442 0
M  V30 14578 H 1363.41 -5.26591 -0.0313537 0
M  V30 14579 H 1365.9 -3.75972 0.381203 0
M  V30 14580 H 1366.22 -7.6003 1.39909 0
M  V30 14581 H 1364.56 -6.83641 1.25141 0
M  V30 14582 H 1367.75 -4.64787 0.555939 0
M  V30 14583 H 1367.92 -6.39924 1.01988 0
M  V30 14584 N 1361.33 -0.0301034 -1.57571 0
M  V30 14585 C 1362.58 0.647042 -1.91462 0
M  V30 14586 C 1362.9 1.72612 -0.907206 0
M  V30 14587 O 1362.17 1.95833 0.0511268 0
M  V30 14588 H 1360.75 0.241988 -0.706718 0
M  V30 14589 H 1363.41 -0.0781385 -1.94743 0
M  V30 14590 H 1362.51 1.09915 -2.92105 0
M  V30 14591 N 1362.81 1.55714 0.243056 0
M  V30 14592 C 1364.03 1.82126 0.992219 0
M  V30 14593 C 1364.46 0.607665 1.78014 0
M  V30 14594 O 1363.82 -0.443351 1.75796 0
M  V30 14595 C 1363.86 3.06314 1.90274 0
M  V30 14596 O 1362.97 2.83499 2.99503 0
M  V30 14597 H 1362.31 0.601082 0.282128 0
M  V30 14598 H 1364.84 2.02904 0.262881 0
M  V30 14599 H 1364.85 3.35849 2.31666 0
M  V30 14600 H 1363.52 3.94282 1.32344 0
M  V30 14601 H 1362.1 2.65141 2.62211 0
M  V30 14602 N 1364.29 -0.50888 1.49158 0
M  V30 14603 C 1365.7 -1.09054 1.51539 0
M  V30 14604 C 1366.05 -1.93938 0.297099 0
M  V30 14605 O 1365.17 -2.08092 -0.593849 0
M  V30 14606 C 1365.77 -1.98447 2.74599 0
M  V30 14607 C 1364.33 -2.5179 2.79783 0
M  V30 14608 C 1363.47 -1.29227 2.45348 0
M  V30 14609 H 1366.43 -0.293148 1.55969 0
M  V30 14610 H 1366.45 -2.83028 2.54314 0
M  V30 14611 H 1365.96 -1.3664 3.63251 0
M  V30 14612 H 1364.06 -3.17258 1.95392 0
M  V30 14613 H 1364.17 -2.89481 3.81756 0
M  V30 14614 H 1362.54 -1.61494 1.96957 0
M  V30 14615 H 1363.32 -0.6914 3.36266 0
M  V30 14616 N 1365.76 -1.381 -0.759346 0
M  V30 14617 C 1366.67 -1.37086 -1.9038 0
M  V30 14618 C 1367.69 -0.268738 -1.71912 0
M  V30 14619 O 1368.87 -0.506205 -1.94935 0
M  V30 14620 C 1365.93 -1.18905 -3.25672 0
M  V30 14621 C 1364.99 -2.3887 -3.56707 0
M  V30 14622 C 1364.23 -2.21546 -4.85544 0
M  V30 14623 O 1364.45 -1.20616 -5.57501 0
M  V30 14624 O 1363.38 -3.10009 -5.15924 0
M  V30 14625 H 1367.21 -2.33505 -1.94188 0
M  V30 14626 H 1364.79 -1.18959 -0.903826 0
M  V30 14627 H 1366.68 -1.10803 -4.06572 0
M  V30 14628 H 1365.35 -0.255675 -3.22689 0
M  V30 14629 H 1364.26 -2.52546 -2.75992 0
M  V30 14630 H 1365.59 -3.30817 -3.64446 0
M  V30 14631 N 1367.24 0.986894 -1.22875 0
M  V30 14632 C 1368.15 2.11232 -1.02069 0
M  V30 14633 C 1369.17 1.73969 0.0328424 0
M  V30 14634 O 1370.34 2.00754 -0.161197 0
M  V30 14635 C 1367.41 3.41337 -0.60747 0
M  V30 14636 C 1366.47 3.92665 -1.73531 0
M  V30 14637 C 1365.7 5.1656 -1.34171 0
M  V30 14638 O 1365.93 5.69964 -0.223106 0
M  V30 14639 O 1364.86 5.61791 -2.16041 0
M  V30 14640 H 1368.69 2.3167 -1.96374 0
M  V30 14641 H 1366.27 1.09607 -1.01522 0
M  V30 14642 H 1368.15 4.19613 -0.387661 0
M  V30 14643 H 1366.83 3.22244 0.306653 0
M  V30 14644 H 1365.74 3.15534 -2.0097 0
M  V30 14645 H 1367.07 4.162 -2.62751 0
M  V30 14646 N 1368.72 1.0394 1.18466 0
M  V30 14647 C 1369.68 0.633804 2.20262 0
M  V30 14648 C 1370.68 -0.308136 1.5782 0
M  V30 14649 O 1371.87 -0.0937087 1.73948 0
M  V30 14650 C 1369.01 -0.0709693 3.40826 0
M  V30 14651 H 1370.2 1.53463 2.57661 0
M  V30 14652 H 1367.75 0.831806 1.32328 0
M  V30 14653 H 1368.49 -0.985659 3.08958 0
M  V30 14654 H 1368.27 0.606023 3.87388 0
M  V30 14655 H 1369.76 -0.341298 4.16203 0
M  V30 14656 N 1370.2 -1.34667 0.818693 0
M  V30 14657 C 1371.16 -2.27908 0.243037 0
M  V30 14658 C 1372.16 -1.50106 -0.576622 0
M  V30 14659 O 1373.35 -1.69701 -0.393342 0
M  V30 14660 C 1370.48 -3.34455 -0.659759 0
M  V30 14661 H 1371.68 -2.80332 1.06555 0
M  V30 14662 H 1369.23 -1.44727 0.590237 0
M  V30 14663 H 1369.96 -2.87238 -1.50549 0
M  V30 14664 H 1369.75 -3.92031 -0.073567 0
M  V30 14665 H 1371.24 -4.04016 -1.05646 0
M  V30 14666 N 1371.68 -0.573274 -1.46804 0
M  V30 14667 C 1372.59 0.168081 -2.33997 0
M  V30 14668 C 1373.6 0.895652 -1.49178 0
M  V30 14669 O 1374.78 0.860951 -1.8207 0
M  V30 14670 C 1371.84 1.17483 -3.26188 0
M  V30 14671 C 1370.9 0.452956 -4.26904 0
M  V30 14672 C 1370.14 1.41175 -5.1469 0
M  V30 14673 O 1370.36 2.64767 -5.05227 0
M  V30 14674 O 1369.29 0.927472 -5.94711 0
M  V30 14675 H 1373.12 -0.547576 -2.98723 0
M  V30 14676 H 1370.71 -0.333747 -1.45624 0
M  V30 14677 H 1372.59 1.75557 -3.8309 0
M  V30 14678 H 1371.26 1.87213 -2.6407 0
M  V30 14679 H 1370.17 -0.169383 -3.73716 0
M  V30 14680 H 1371.5 -0.203186 -4.9178 0
M  V30 14681 N 1373.15 1.5451 -0.310553 0
M  V30 14682 C 1374.57 1.59543 0.0425296 0
M  V30 14683 C 1374.77 1.32737 1.51602 0
M  V30 14684 O 1373.83 1.10543 2.27016 0
M  V30 14685 C 1375.14 2.98489 -0.364002 0
M  V30 14686 C 1376.69 3.11425 -0.313566 0
M  V30 14687 C 1377.16 4.52695 -0.695064 0
M  V30 14688 N 1378.65 4.58645 -0.647966 0
M  V30 14689 C 1379.39 5.66044 -0.915508 0
M  V30 14690 N 1378.88 6.81439 -1.24951 0
M  V30 14691 N 1380.68 5.55759 -0.841933 0
M  V30 14692 H 1372.83 1.70194 -1.27074 0
M  V30 14693 H 1375.09 0.795374 -0.515833 0
M  V30 14694 H 1374.8 3.23061 -1.39012 0
M  V30 14695 H 1374.67 3.76177 0.27756 0
M  V30 14696 H 1377.06 2.86596 0.703326 0
M  V30 14697 H 1377.14 2.35871 -0.989883 0
M  V30 14698 H 1376.78 4.78255 -1.70981 0
M  V30 14699 H 1376.71 5.266 0.00342684 0
M  V30 14700 H 1379.2 3.75765 -0.401137 0
M  V30 14701 H 1379.52 7.59277 -1.43938 0
M  V30 14702 H 1377.86 6.82968 -1.28764 0
M  V30 14703 H 1381.05 4.64486 -0.58058 0
M  V30 14704 H 1381.23 6.39374 -1.0538 0
M  V30 14705 N 1374.63 0.0384594 1.57553 0
M  V30 14706 C 1375.54 -0.955737 2.14249 0
M  V30 14707 C 1376.56 -1.35056 1.09708 0
M  V30 14708 O 1377.74 -1.43008 1.41812 0
M  V30 14709 C 1374.8 -2.21647 2.66596 0
M  V30 14710 C 1373.86 -1.88119 3.85888 0
M  V30 14711 C 1373.09 -3.08182 4.35729 0
M  V30 14712 O 1373.32 -4.21145 3.84699 0
M  V30 14713 O 1372.25 -2.89936 5.27467 0
M  V30 14714 H 1376.08 -0.50361 2.99495 0
M  V30 14715 H 1373.66 -0.182698 1.48279 0
M  V30 14716 H 1375.54 -2.9564 3.00291 0
M  V30 14717 H 1374.22 -2.66022 1.84428 0
M  V30 14718 H 1373.13 -1.11481 3.57103 0
M  V30 14719 H 1374.46 -1.48553 4.69247 0
M  V30 14720 N 1376.11 -1.55841 -0.234795 0
M  V30 14721 C 1377.52 -1.68555 -0.802886 0
M  V30 14722 C 1377.87 -0.638107 -1.85533 0
M  V30 14723 O 1377 0.21333 -2.15346 0
M  V30 14724 C 1377.59 -3.0558 -1.46309 0
M  V30 14725 C 1376.15 -3.20192 -1.97874 0
M  V30 14726 C 1375.3 -2.64457 -0.834136 0
M  V30 14727 H 1378.25 -1.58697 -0.0103759 0
M  V30 14728 H 1378.27 -3.007 -2.33152 0
M  V30 14729 H 1377.78 -3.81792 -0.696868 0
M  V30 14730 H 1375.88 -2.48825 -2.77339 0
M  V30 14731 H 1376 -4.27251 -2.1678 0
M  V30 14732 H 1374.36 -2.22593 -1.23791 0
M  V30 14733 H 1375.14 -3.43205 -0.0807988 0
M  V30 14734 N 1377.59 0.500963 -1.49426 0
M  V30 14735 C 1379.01 0.832142 -1.36189 0
M  V30 14736 C 1379.21 1.9759 -0.395014 0
M  V30 14737 O 1378.26 2.51905 0.173294 0
M  V30 14738 C 1379.57 1.17232 -2.76907 0
M  V30 14739 C 1381.12 1.28052 -2.85607 0
M  V30 14740 C 1381.6 1.65399 -4.27092 0
M  V30 14741 N 1383.09 1.72448 -4.29902 0
M  V30 14742 C 1383.82 2.02789 -5.36343 0
M  V30 14743 N 1383.32 2.31354 -6.53029 0
M  V30 14744 N 1385.11 2.0404 -5.23759 0
M  V30 14745 H 1377.26 -0.253253 -2.10885 0
M  V30 14746 H 1379.53 -0.0507111 -0.946643 0
M  V30 14747 H 1379.23 0.405247 -3.49357 0
M  V30 14748 H 1379.11 2.11574 -3.12276 0
M  V30 14749 H 1381.49 2.03831 -2.13394 0
M  V30 14750 H 1381.57 0.317603 -2.53821 0
M  V30 14751 H 1381.22 0.901704 -4.99832 0
M  V30 14752 H 1381.15 2.6279 -4.56343 0
M  V30 14753 H 1383.64 1.52532 -3.45749 0
M  V30 14754 H 1383.95 2.53695 -7.29972 0
M  V30 14755 H 1382.3 2.28811 -6.56255 0
M  V30 14756 H 1385.49 1.812 -4.31606 0
M  V30 14757 H 1385.66 2.27353 -6.06807 0
M  V30 14758 N 1379.07 1.38501 0.752011 0
M  V30 14759 C 1380.48 1.19733 1.05529 0
M  V30 14760 C 1380.68 0.047088 2.01445 0
M  V30 14761 O 1379.74 -0.606645 2.45104 0
M  V30 14762 C 1381.05 2.52439 1.63386 0
M  V30 14763 C 1382.6 2.59136 1.7555 0
M  V30 14764 C 1383.08 3.92022 2.36819 0
M  V30 14765 N 1384.57 3.9357 2.44248 0
M  V30 14766 C 1385.3 4.93154 2.92553 0
M  V30 14767 N 1384.8 6.03135 3.40882 0
M  V30 14768 N 1386.59 4.80543 2.91607 0
M  V30 14769 H 1378.74 2.12085 0.115543 0
M  V30 14770 H 1381 0.941134 0.113888 0
M  V30 14771 H 1380.71 3.37072 1.00376 0
M  V30 14772 H 1380.58 2.70947 2.62427 0
M  V30 14773 H 1382.97 1.74897 2.37687 0
M  V30 14774 H 1383.05 2.44494 0.752092 0
M  V30 14775 H 1382.7 4.76684 1.75314 0
M  V30 14776 H 1382.63 4.03976 3.37803 0
M  V30 14777 H 1385.12 3.14133 2.10068 0
M  V30 14778 H 1385.43 6.7505 3.76201 0
M  V30 14779 H 1383.78 6.06752 3.38935 0
M  V30 14780 H 1386.97 3.93733 2.53163 0
M  V30 14781 H 1387.14 5.58303 3.28941 0
M  V30 14782 N 1380.55 -0.980364 1.23396 0
M  V30 14783 C 1381.5 -2.05753 0.982323 0
M  V30 14784 C 1382.48 -1.6074 -0.0716939 0
M  V30 14785 O 1383.67 -1.76442 0.140438 0
M  V30 14786 C 1380.8 -3.38442 0.575481 0
M  V30 14787 C 1379.89 -3.90054 1.6649 0
M  V30 14788 N 1380.28 -4.14744 2.89519 0
M  V30 14789 C 1378.58 -4.18588 1.53949 0
M  V30 14790 C 1379.28 -4.56877 3.60053 0
M  V30 14791 N 1378.25 -4.61309 2.87567 0
M  V30 14792 H 1382.05 -2.22801 1.91669 0
M  V30 14793 H 1379.57 -1.16314 1.13335 0
M  V30 14794 H 1381.57 -4.15197 0.376477 0
M  V30 14795 H 1380.23 -3.22788 -0.351844 0
M  V30 14796 H 1381.24 -4.02566 3.25824 0
M  V30 14797 H 1377.91 -4.11937 0.679275 0
M  V30 14798 H 1379.3 -4.84498 4.65523 0
M  V30 14799 N 1382.02 -1.04567 -1.17913 0
M  V30 14800 C 1383.44 -0.76584 -1.40025 0
M  V30 14801 C 1383.64 0.642484 -1.90983 0
M  V30 14802 O 1382.7 1.40589 -2.0974 0
M  V30 14803 C 1384.01 -1.81616 -2.39658 0
M  V30 14804 C 1385.56 -1.83765 -2.53376 0
M  V30 14805 C 1386.03 -2.87803 -3.56277 0
M  V30 14806 N 1387.52 -2.86726 -3.63789 0
M  V30 14807 C 1388.26 -3.63876 -4.4315 0
M  V30 14808 N 1387.75 -4.50793 -5.26077 0
M  V30 14809 N 1389.55 -3.52344 -4.37962 0
M  V30 14810 H 1381.7 -1.95442 -0.831647 0
M  V30 14811 H 1383.96 -0.84593 -0.42791 0
M  V30 14812 H 1383.67 -2.8266 -2.09275 0
M  V30 14813 H 1383.54 -1.65251 -3.39075 0
M  V30 14814 H 1385.93 -0.833896 -2.83073 0
M  V30 14815 H 1386.01 -2.04208 -1.54055 0
M  V30 14816 H 1385.65 -3.88361 -3.2732 0
M  V30 14817 H 1385.58 -2.64614 -4.55288 0
M  V30 14818 H 1388.07 -2.237 -3.04576 0
M  V30 14819 H 1388.39 -5.0636 -5.83798 0
M  V30 14820 H 1386.73 -4.54858 -5.2548 0
M  V30 14821 H 1389.92 -2.8384 -3.72226 0
M  V30 14822 H 1390.1 -4.12718 -4.99568 0
M  V30 14823 N 1383.5 1.34231 -0.825823 0
M  V30 14824 C 1384.46 2.27776 -0.25512 0
M  V30 14825 C 1385.46 1.50409 0.568654 0
M  V30 14826 O 1386.65 1.69907 0.384337 0
M  V30 14827 C 1383.79 3.348 0.642013 0
M  V30 14828 H 1384.98 2.79763 -1.0804 0
M  V30 14829 H 1382.53 1.44412 -0.597904 0
M  V30 14830 H 1383.27 2.88032 1.49024 0
M  V30 14831 H 1383.05 3.92064 0.0527756 0
M  V30 14832 H 1384.54 4.0457 1.03502 0
M  V30 14833 N 1384.98 0.581051 1.46498 0
M  V30 14834 C 1385.93 -0.174031 2.27335 0
M  V30 14835 C 1386.91 -0.863391 1.35773 0
M  V30 14836 O 1388.11 -0.75776 1.59959 0
M  V30 14837 C 1385.23 -1.18814 3.22084 0
M  V30 14838 C 1384.32 -0.500978 4.21131 0
M  V30 14839 N 1384.71 0.442495 5.03861 0
M  V30 14840 C 1383.01 -0.751932 4.39616 0
M  V30 14841 C 1383.71 0.843944 5.75545 0
M  V30 14842 N 1382.69 0.19346 5.43256 0
M  V30 14843 H 1386.49 0.551004 2.88689 0
M  V30 14844 H 1384 0.402722 1.57327 0
M  V30 14845 H 1386 -1.74325 3.78703 0
M  V30 14846 H 1384.66 -1.91401 2.62289 0
M  V30 14847 H 1385.67 0.817931 5.114 0
M  V30 14848 H 1382.35 -1.46451 3.90971 0
M  V30 14849 H 1383.74 1.62058 6.52063 0
M  V30 14850 N 1386.46 -1.54343 0.318742 0
M  V30 14851 C 1387.87 -1.59564 -0.034068 0
M  V30 14852 C 1388.07 -1.33539 -1.50896 0
M  V30 14853 O 1387.13 -1.11746 -2.26427 0
M  V30 14854 C 1388.44 -2.98291 0.379827 0
M  V30 14855 C 1389.99 -3.11255 0.330078 0
M  V30 14856 C 1390.47 -4.5232 0.719061 0
M  V30 14857 N 1391.96 -4.58295 0.67228 0
M  V30 14858 C 1392.69 -5.65551 0.945513 0
M  V30 14859 N 1392.19 -6.80767 1.28563 0
M  V30 14860 N 1393.98 -5.55305 0.871394 0
M  V30 14861 H 1386.13 -1.69518 1.27975 0
M  V30 14862 H 1388.39 -0.792627 0.520044 0
M  V30 14863 H 1388.1 -3.22319 1.40724 0
M  V30 14864 H 1387.97 -3.76319 -0.257606 0
M  V30 14865 H 1390.36 -2.86965 -0.688117 0
M  V30 14866 H 1390.44 -2.35342 1.00238 0
M  V30 14867 H 1390.09 -4.77342 1.73515 0
M  V30 14868 H 1390.02 -5.26594 0.0245001 0
M  V30 14869 H 1392.51 -3.75547 0.421059 0
M  V30 14870 H 1392.82 -7.58503 1.47963 0
M  V30 14871 H 1391.17 -6.82275 1.32385 0
M  V30 14872 H 1394.36 -4.64171 0.605205 0
M  V30 14873 H 1394.53 -6.38806 1.08769 0
M  V30 14874 N 1387.94 -0.0468143 -1.5753 0
M  V30 14875 C 1388.89 0.938619 -2.07783 0
M  V30 14876 C 1389.87 1.27454 -0.982057 0
M  V30 14877 O 1391.06 1.25769 -1.24544 0
M  V30 14878 C 1388.19 2.21499 -2.62285 0
M  V30 14879 C 1387.28 1.90665 -3.78824 0
M  V30 14880 N 1387.67 1.30174 -4.88762 0
M  V30 14881 C 1385.97 2.20559 -3.87646 0
M  V30 14882 C 1386.67 1.16872 -5.69838 0
M  V30 14883 N 1385.64 1.67016 -5.17307 0
M  V30 14884 H 1389.44 0.466179 -2.90179 0
M  V30 14885 H 1386.96 0.157752 -1.61632 0
M  V30 14886 H 1388.96 2.92987 -2.96588 0
M  V30 14887 H 1387.62 2.69353 -1.81326 0
M  V30 14888 H 1388.63 0.974495 -5.08649 0
M  V30 14889 H 1385.3 2.70964 -3.17623 0
M  V30 14890 H 1386.69 0.699463 -6.68249 0
M  V30 14891 N 1389.41 1.55964 0.226527 0
M  V30 14892 C 1390.35 1.88487 1.30405 0
M  V30 14893 C 1391.36 0.772723 1.43293 0
M  V30 14894 O 1392.55 1.05099 1.44279 0
M  V30 14895 C 1389.65 2.074 2.68027 0
M  V30 14896 C 1388.82 3.38389 2.77149 0
M  V30 14897 C 1387.88 3.46795 3.95752 0
M  V30 14898 O 1386.91 4.19862 3.84323 0
M  V30 14899 N 1388.11 2.77573 5.09836 0
M  V30 14900 H 1390.87 2.81506 1.02833 0
M  V30 14901 H 1388.43 1.56449 0.416581 0
M  V30 14902 H 1390.43 2.10344 3.45742 0
M  V30 14903 H 1389 1.2103 2.8822 0
M  V30 14904 H 1388.22 3.47586 1.8595 0
M  V30 14905 H 1389.5 4.24688 2.8021 0
M  V30 14906 H 1388.9 2.17979 5.22017 0
M  V30 14907 H 1387.46 2.86185 5.85612 0
M  V30 14908 N 1390.89 -0.493031 1.4969 0
M  V30 14909 C 1392.17 -1.25436 1.50084 0
M  V30 14910 C 1392.55 -2.0981 0.233038 0
M  V30 14911 O 1391.9 -2.14617 -0.784342 0
M  V30 14912 C 1392.11 -2.10425 2.78428 0
M  V30 14913 C 1393.46 -2.69349 3.28232 0
M  V30 14914 O 1394.48 -2.20686 2.796 0
M  V30 14915 O 1393.34 -3.57956 4.12953 0
M  V30 14916 H 1390.43 -0.568044 0.601045 0
M  V30 14917 H 1392.98 -0.506648 1.6196 0
M  V30 14918 H 1391.75 -1.48108 3.62187 0
M  V30 14919 H 1391.37 -2.92374 2.6945 0
M  V30 14920 N 1392.37 -1.38898 -0.744656 0
M  V30 14921 C 1393.78 -1.31789 -1.32244 0
M  V30 14922 C 1394.13 0.0222208 -1.96187 0
M  V30 14923 O 1393.26 0.924328 -1.95666 0
M  V30 14924 C 1393.85 -2.38674 -2.40458 0
M  V30 14925 C 1392.41 -2.35116 -2.93935 0
M  V30 14926 C 1391.56 -2.21069 -1.67403 0
M  V30 14927 H 1394.51 -1.49126 -0.54287 0
M  V30 14928 H 1394.53 -2.04905 -3.20615 0
M  V30 14929 H 1394.04 -3.36197 -1.9389 0
M  V30 14930 H 1392.14 -1.41201 -3.44809 0
M  V30 14931 H 1392.26 -3.29602 -3.47706 0
M  V30 14932 H 1390.62 -1.68074 -1.91372 0
M  V30 14933 H 1391.4 -3.20547 -1.229 0
M  V30 14934 N 1393.85 0.973806 -1.23914 0
M  V30 14935 C 1395.07 1.7564 -1.10296 0
M  V30 14936 C 1395.5 1.84984 0.340954 0
M  V30 14937 O 1394.86 1.31629 1.24674 0
M  V30 14938 C 1394.9 3.15809 -1.7406 0
M  V30 14939 O 1394.01 3.99911 -1.00722 0
M  V30 14940 H 1393.35 0.540133 -0.386202 0
M  V30 14941 H 1395.88 1.22197 -1.64101 0
M  V30 14942 H 1395.89 3.66359 -1.79568 0
M  V30 14943 H 1394.56 3.08324 -2.79122 0
M  V30 14944 H 1393.14 3.58405 -1.02956 0
M  V30 14945 N 1395.33 1.05191 1.17357 0
M  V30 14946 C 1396.27 0.652868 2.21374 0
M  V30 14947 C 1397.24 -0.344974 1.62478 0
M  V30 14948 O 1398.43 -0.23639 1.8933 0
M  V30 14949 C 1395.57 0.0337737 3.45083 0
M  V30 14950 C 1394.68 1.08045 4.18271 0
M  V30 14951 C 1393.82 0.428673 5.29468 0
M  V30 14952 C 1392.86 1.45966 5.94441 0
M  V30 14953 N 1391.99 0.832042 6.97152 0
M  V30 14954 H 1396.83 1.54434 2.54861 0
M  V30 14955 H 1394.37 0.772365 1.25192 0
M  V30 14956 H 1396.33 -0.342607 4.15791 0
M  V30 14957 H 1394.96 -0.821159 3.12181 0
M  V30 14958 H 1394.01 1.57466 3.46278 0
M  V30 14959 H 1395.32 1.86305 4.62701 0
M  V30 14960 H 1394.48 -0.00129344 6.067 0
M  V30 14961 H 1393.21 -0.385919 4.86171 0
M  V30 14962 H 1392.22 1.89964 5.1594 0
M  V30 14963 H 1393.44 2.27615 6.39819 0
M  V30 14964 H 1391.39 0.0379612 6.55989 0
M  V30 14965 H 1391.31 1.55219 7.39894 0
M  V30 14966 H 1392.58 0.42685 7.7833 0
M  V30 14967 N 1396.8 -1.33791 0.83293 0
M  V30 14968 C 1397.71 -2.33108 0.264169 0
M  V30 14969 C 1398.73 -1.6308 -0.606694 0
M  V30 14970 O 1399.91 -1.94777 -0.512225 0
M  V30 14971 C 1396.97 -3.42208 -0.556315 0
M  V30 14972 C 1396.03 -4.27966 0.338123 0
M  V30 14973 C 1395.27 -5.31856 -0.443297 0
M  V30 14974 O 1395.49 -5.45234 -1.6756 0
M  V30 14975 O 1394.42 -6.01632 0.179599 0
M  V30 14976 H 1398.25 -2.83602 1.08645 0
M  V30 14977 H 1395.83 -1.37027 0.595307 0
M  V30 14978 H 1397.72 -4.088 -1.02277 0
M  V30 14979 H 1396.39 -2.9394 -1.35575 0
M  V30 14980 H 1395.3 -3.64262 0.852293 0
M  V30 14981 H 1396.63 -4.79701 1.10217 0
M  V30 14982 N 1398.28 -0.588812 -1.46187 0
M  V30 14983 C 1399.52 -0.0794904 -2.04245 0
M  V30 14984 C 1399.89 1.25893 -1.44965 0
M  V30 14985 O 1401.09 1.85785 -1.94261 0
M  V30 14986 C 1399.36 -0.0210846 -3.57394 0
M  V30 14987 S 1400.92 0.429775 -4.3669 0
M  V30 14988 H 1397.74 -0.0404337 -0.709849 0
M  V30 14989 H 1400.34 -0.782686 -1.79149 0
M  V30 14990 H 1399.04 -0.999032 -3.98055 0
M  V30 14991 H 1398.57 0.704691 -3.87037 0
M  V30 14992 H 1400.59 1.68327 -4.66777 0
M  V30 14993 N 1399.76 1.54172 -0.326923 0
M  V30 14994 C 1400.72 2.2311 0.524855 0
M  V30 14995 C 1401.72 1.22567 1.04087 0
M  V30 14996 O 1402.91 1.47123 0.932759 0
M  V30 14997 C 1400.05 2.93778 1.72937 0
M  V30 14998 H 1401.24 2.99799 -0.0778327 0
M  V30 14999 H 1398.79 1.56105 -0.0780484 0
M  V30 15000 H 1399.53 2.21234 2.3712 0
M  V30 15001 H 1399.31 3.67509 1.36674 0
M  V30 15002 H 1400.8 3.46292 2.33392 0
M  V30 15003 N 1401.24 0.0551678 1.57503 0
M  V30 15004 C 1402.49 -0.6165 1.92467 0
M  V30 15005 C 1402.81 -1.71147 0.934552 0
M  V30 15006 O 1402.08 -1.9589 -0.0199649 0
M  V30 15007 H 1400.66 -0.230714 0.710479 0
M  V30 15008 H 1403.32 0.109111 1.94594 0
M  V30 15009 H 1402.42 -1.05254 2.93816 0
M  V30 15010 N 1402.72 -1.56081 -0.218252 0
M  V30 15011 C 1403.68 -1.91851 -1.25402 0
M  V30 15012 C 1404.68 -0.797399 -1.39636 0
M  V30 15013 O 1405.87 -1.06511 -1.37844 0
M  V30 15014 C 1403 -2.17223 -2.6273 0
M  V30 15015 H 1404.19 -2.84493 -0.948882 0
M  V30 15016 H 1401.75 -1.49414 -0.458809 0
M  V30 15017 H 1402.48 -1.27144 -2.98337 0
M  V30 15018 H 1402.27 -2.98899 -2.53775 0
M  V30 15019 H 1403.76 -2.45981 -3.37466 0
M  V30 15020 N 1404.2 0.485086 -1.49949 0
M  V30 15021 C 1405.14 1.5848 -1.67788 0
M  V30 15022 C 1406.11 1.57776 -0.519216 0
M  V30 15023 O 1407.3 1.75521 -0.748141 0
M  V30 15024 C 1404.44 2.9654 -1.76516 0
M  V30 15025 C 1403.55 3.07139 -3.03792 0
M  V30 15026 C 1402.69 4.36029 -3.03401 0
M  V30 15027 C 1401.72 4.40318 -4.2519 0
M  V30 15028 N 1400.86 5.60659 -4.22618 0
M  V30 15029 H 1405.7 1.42575 -2.6168 0
M  V30 15030 H 1403.24 0.693426 -1.29731 0
M  V30 15031 H 1405.2 3.76583 -1.79557 0
M  V30 15032 H 1403.83 3.11112 -0.860764 0
M  V30 15033 H 1402.88 2.20057 -3.10289 0
M  V30 15034 H 1404.19 3.06167 -3.9378 0
M  V30 15035 H 1403.34 5.24407 -3.05094 0
M  V30 15036 H 1402.08 4.39588 -2.11219 0
M  V30 15037 H 1401.09 3.50339 -4.23725 0
M  V30 15038 H 1402.31 4.38461 -5.18583 0
M  V30 15039 H 1400.26 5.6503 -3.33282 0
M  V30 15040 H 1400.18 5.61371 -5.06359 0
M  V30 15041 H 1401.44 6.51201 -4.28436 0
M  V30 15042 N 1405.67 1.39291 0.737279 0
M  V30 15043 C 1406.92 1.36121 1.49384 0
M  V30 15044 C 1407.24 -0.0429406 1.94953 0
M  V30 15045 O 1406.51 -0.993756 1.68823 0
M  V30 15046 H 1405.09 0.500916 0.554159 0
M  V30 15047 H 1407.75 1.74134 0.875402 0
M  V30 15048 H 1406.85 2.02246 2.37704 0
M  V30 15049 N 1407.15 -0.967221 1.24429 0
M  V30 15050 C 1408.06 -2.09582 1.05417 0
M  V30 15051 C 1409.08 -1.73999 -0.00516127 0
M  V30 15052 O 1410.25 -2.00472 0.193115 0
M  V30 15053 C 1407.32 -3.40327 0.661697 0
M  V30 15054 C 1406.38 -3.89854 1.79756 0
M  V30 15055 C 1405.61 -5.1436 1.42372 0
M  V30 15056 O 1405.84 -5.69536 0.313754 0
M  V30 15057 O 1404.77 -5.58283 2.24952 0
M  V30 15058 H 1408.6 -2.28517 2.00034 0
M  V30 15059 H 1406.18 -1.07978 1.03253 0
M  V30 15060 H 1408.06 -4.18943 0.454369 0
M  V30 15061 H 1406.74 -3.22691 -0.255348 0
M  V30 15062 H 1405.64 -3.12297 2.05964 0
M  V30 15063 H 1406.98 -4.11967 2.69339 0
M  V30 15064 N 1408.63 -1.05812 -1.16797 0
M  V30 15065 C 1410.05 -0.780649 -1.39205 0
M  V30 15066 C 1410.25 0.622191 -1.91653 0
M  V30 15067 O 1409.3 1.38357 -2.11219 0
M  V30 15068 C 1410.61 -1.84148 -2.37718 0
M  V30 15069 C 1412.16 -1.86442 -2.51413 0
M  V30 15070 C 1412.64 -2.91566 -3.53204 0
M  V30 15071 N 1414.13 -2.90568 -3.60727 0
M  V30 15072 C 1414.86 -3.68556 -4.39265 0
M  V30 15073 N 1414.36 -4.56348 -5.21266 0
M  V30 15074 N 1416.15 -3.56969 -4.342 0
M  V30 15075 H 1408.3 -1.96313 -0.810871 0
M  V30 15076 H 1410.57 -0.850421 -0.418913 0
M  V30 15077 H 1410.27 -2.84864 -2.06265 0
M  V30 15078 H 1410.15 -1.68838 -3.37303 0
M  V30 15079 H 1412.53 -0.863873 -2.82172 0
M  V30 15080 H 1412.61 -2.0583 -1.5188 0
M  V30 15081 H 1412.26 -3.91811 -3.23182 0
M  V30 15082 H 1412.19 -2.69429 -4.52455 0
M  V30 15083 H 1414.68 -2.26918 -3.02186 0
M  V30 15084 H 1414.99 -5.12523 -5.78394 0
M  V30 15085 H 1413.34 -4.60406 -5.20626 0
M  V30 15086 H 1416.53 -2.87772 -3.69195 0
M  V30 15087 H 1416.7 -4.17993 -4.95162 0
M  V30 15088 N 1410.11 1.33347 -0.840014 0
M  V30 15089 C 1411.52 1.50615 -0.52795 0
M  V30 15090 C 1411.72 1.77993 0.944493 0
M  V30 15091 O 1410.78 1.84087 1.72824 0
M  V30 15092 C 1412.09 2.66001 -1.40228 0
M  V30 15093 C 1413.64 2.79886 -1.40117 0
M  V30 15094 C 1414.12 3.98335 -2.26038 0
M  V30 15095 N 1415.61 4.05572 -2.23753 0
M  V30 15096 C 1416.34 4.96422 -2.86972 0
M  V30 15097 N 1415.84 5.9238 -3.59247 0
M  V30 15098 N 1417.63 4.89428 -2.76436 0
M  V30 15099 H 1409.78 1.13839 -1.79317 0
M  V30 15100 H 1412.04 0.559772 -0.765088 0
M  V30 15101 H 1411.75 2.52453 -2.44868 0
M  V30 15102 H 1411.62 3.61434 -1.07914 0
M  V30 15103 H 1414.01 2.92865 -0.362487 0
M  V30 15104 H 1414.09 1.85211 -1.76439 0
M  V30 15105 H 1413.74 3.86115 -3.29966 0
M  V30 15106 H 1413.67 4.92257 -1.87057 0
M  V30 15107 H 1416.16 3.36899 -1.71195 0
M  V30 15108 H 1416.47 6.58367 -4.04688 0
M  V30 15109 H 1414.82 5.92451 -3.63354 0
M  V30 15110 H 1418.01 4.13428 -2.19534 0
M  V30 15111 H 1418.18 5.60032 -3.25989 0
M  V30 15112 N 1411.59 0.596556 1.45873 0
M  V30 15113 C 1412.55 -0.118666 2.28893 0
M  V30 15114 C 1413.55 -0.805668 1.3916 0
M  V30 15115 O 1414.74 -0.655511 1.61396 0
M  V30 15116 C 1411.87 -1.17789 3.19904 0
M  V30 15117 H 1413.06 0.611093 2.93608 0
M  V30 15118 H 1410.62 0.355115 1.52212 0
M  V30 15119 H 1411.35 -1.93878 2.59965 0
M  V30 15120 H 1411.14 -0.689616 3.85988 0
M  V30 15121 H 1412.63 -1.67912 3.82355 0
M  V30 15122 N 1413.06 -1.53996 0.335095 0
M  V30 15123 C 1414.48 -1.59591 -0.0171422 0
M  V30 15124 C 1414.68 -1.35132 -1.49471 0
M  V30 15125 O 1413.74 -1.14141 -2.25229 0
M  V30 15126 C 1415.05 -2.97872 0.411443 0
M  V30 15127 C 1416.6 -3.10887 0.363072 0
M  V30 15128 C 1417.07 -4.51532 0.766995 0
M  V30 15129 N 1418.56 -4.57557 0.72085 0
M  V30 15130 C 1419.3 -5.64516 1.00544 0
M  V30 15131 N 1418.79 -6.79365 1.35777 0
M  V30 15132 N 1420.59 -5.54349 0.930243 0
M  V30 15133 H 1412.74 -1.68151 1.29766 0
M  V30 15134 H 1415 -0.787067 0.528422 0
M  V30 15135 H 1414.71 -3.20809 1.44134 0
M  V30 15136 H 1414.58 -3.76571 -0.217678 0
M  V30 15137 H 1416.97 -2.87679 -0.657642 0
M  V30 15138 H 1417.05 -2.34266 1.02728 0
M  V30 15139 H 1416.69 -4.75474 1.78568 0
M  V30 15140 H 1416.62 -5.26539 0.0803511 0
M  V30 15141 H 1419.11 -3.75079 0.460867 0
M  V30 15142 H 1419.43 -7.56891 1.55999 0
M  V30 15143 H 1417.77 -6.80833 1.39614 0
M  V30 15144 H 1420.96 -4.63503 0.654402 0
M  V30 15145 H 1421.14 -6.37616 1.15539 0
M  V30 15146 N 1414.54 -0.0635198 -1.57472 0
M  V30 15147 C 1415.49 0.916528 -2.08767 0
M  V30 15148 C 1416.48 1.26405 -0.99552 0
M  V30 15149 O 1417.67 1.24441 -1.25871 0
M  V30 15150 C 1414.8 2.18704 -2.64619 0
M  V30 15151 C 1413.88 1.86637 -3.80825 0
M  V30 15152 N 1414.27 1.24982 -4.90115 0
M  V30 15153 C 1412.57 2.16435 -3.89964 0
M  V30 15154 C 1413.27 1.10821 -5.71046 0
M  V30 15155 N 1412.25 1.61519 -5.1905 0
M  V30 15156 H 1416.05 0.435376 -2.90657 0
M  V30 15157 H 1413.56 0.1406 -1.6179 0
M  V30 15158 H 1415.56 2.89825 -2.99678 0
M  V30 15159 H 1414.22 2.67415 -1.84172 0
M  V30 15160 H 1415.23 0.920491 -5.09654 0
M  V30 15161 H 1411.91 2.6758 -3.20479 0
M  V30 15162 H 1413.3 0.628547 -6.68954 0
M  V30 15163 N 1416.02 1.56195 0.209972 0
M  V30 15164 C 1417.44 1.49446 0.56018 0
M  V30 15165 C 1417.64 0.760799 1.86585 0
M  V30 15166 O 1416.69 0.305201 2.50649 0
M  V30 15167 C 1418 2.94054 0.628687 0
M  V30 15168 C 1419.55 3.04641 0.718531 0
M  V30 15169 C 1420.03 4.50631 0.81828 0
M  V30 15170 N 1421.52 4.54721 0.8822 0
M  V30 15171 C 1422.25 5.64976 0.979292 0
M  V30 15172 N 1421.75 6.84955 1.03961 0
M  V30 15173 N 1423.54 5.52854 1.01533 0
M  V30 15174 H 1415.69 2.02316 -0.646674 0
M  V30 15175 H 1417.96 0.920063 -0.228446 0
M  V30 15176 H 1417.66 3.50728 -0.261324 0
M  V30 15177 H 1417.54 3.46592 1.48842 0
M  V30 15178 H 1419.92 2.48026 1.59898 0
M  V30 15179 H 1420 2.55254 -0.167102 0
M  V30 15180 H 1419.65 5.07867 -0.0577557 0
M  V30 15181 H 1419.58 4.97736 1.7195 0
M  V30 15182 H 1422.07 3.68322 0.845433 0
M  V30 15183 H 1422.38 7.64732 1.11379 0
M  V30 15184 H 1420.73 6.87643 1.00854 0
M  V30 15185 H 1423.92 4.58046 0.96494 0
M  V30 15186 H 1424.09 6.38809 1.08754 0
M  V30 15187 N 1417.5 -0.477127 1.50204 0
M  V30 15188 C 1418.75 -1.22722 1.60573 0
M  V30 15189 C 1419.07 -1.92595 0.305326 0
M  V30 15190 O 1418.34 -1.83836 -0.676842 0
M  V30 15191 H 1416.92 -0.455973 0.591691 0
M  V30 15192 H 1419.58 -0.550915 1.86952 0
M  V30 15193 H 1418.67 -1.97837 2.41385 0
M  V30 15194 N 1418.98 -1.3968 -0.729882 0
M  V30 15195 C 1420.22 -1.36911 -1.4866 0
M  V30 15196 C 1420.55 0.0326011 -1.94973 0
M  V30 15197 O 1419.82 0.984789 -1.69348 0
M  V30 15198 H 1418.4 -0.503848 -0.551495 0
M  V30 15199 H 1421.06 -1.74596 -0.866155 0
M  V30 15200 H 1420.15 -2.03504 -2.36628 0
M  V30 15201 N 1420.45 0.960609 -1.2494 0
M  V30 15202 C 1421.87 1.51915 -1.0853 0
M  V30 15203 C 1422.22 1.93215 0.340949 0
M  V30 15204 O 1421.34 1.78031 1.2302 0
M  V30 15205 C 1421.94 2.76069 -1.96396 0
M  V30 15206 C 1420.5 3.28255 -1.84189 0
M  V30 15207 C 1419.64 2.01124 -1.90905 0
M  V30 15208 H 1422.59 0.778141 -1.38314 0
M  V30 15209 H 1422.61 3.49668 -1.50042 0
M  V30 15210 H 1422.13 2.45979 -3.00193 0
M  V30 15211 H 1420.23 3.6318 -0.832518 0
M  V30 15212 H 1420.34 3.96675 -2.68673 0
M  V30 15213 H 1418.7 2.16155 -1.34718 0
M  V30 15214 H 1419.49 1.73389 -2.96295 0
M  V30 15215 N 1421.93 1.0643 1.16234 0
M  V30 15216 C 1423.35 0.78802 1.38789 0
M  V30 15217 C 1423.55 -0.612019 1.91981 0
M  V30 15218 O 1422.6 -1.37235 2.1195 0
M  V30 15219 C 1423.92 1.85406 2.36738 0
M  V30 15220 C 1425.47 1.87773 2.5042 0
M  V30 15221 C 1425.94 2.93435 3.51653 0
M  V30 15222 N 1427.43 2.92477 3.59181 0
M  V30 15223 C 1428.17 3.7088 4.37305 0
M  V30 15224 N 1427.66 4.59106 5.18839 0
M  V30 15225 N 1429.46 3.59267 4.32301 0
M  V30 15226 H 1421.61 1.9674 0.800449 0
M  V30 15227 H 1423.87 0.852631 0.414397 0
M  V30 15228 H 1423.58 2.85954 2.04751 0
M  V30 15229 H 1423.45 1.70625 3.36403 0
M  V30 15230 H 1425.84 0.878825 2.8171 0
M  V30 15231 H 1425.92 2.06633 1.50787 0
M  V30 15232 H 1425.56 3.93519 3.211 0
M  V30 15233 H 1425.49 2.71824 4.5102 0
M  V30 15234 H 1427.98 2.28517 3.00979 0
M  V30 15235 H 1428.3 5.15583 5.75668 0
M  V30 15236 H 1426.64 4.6316 5.18177 0
M  V30 15237 H 1429.83 2.89726 3.67663 0
M  V30 15238 H 1430 4.20613 4.92939 0
M  V30 15239 N 1423.41 -1.329 0.847073 0
M  V30 15240 C 1424.37 -2.27341 0.291324 0
M  V30 15241 C 1425.37 -1.51295 -0.544653 0
M  V30 15242 O 1426.56 -1.70497 -0.357258 0
M  V30 15243 C 1423.7 -3.35779 -0.588668 0
M  V30 15244 H 1424.89 -2.78009 1.12477 0
M  V30 15245 H 1422.44 -1.43442 0.620803 0
M  V30 15246 H 1423.18 -2.90366 -1.44423 0
M  V30 15247 H 1422.96 -3.92099 0.00960515 0
M  V30 15248 H 1424.45 -4.06166 -0.970526 0
M  V30 15249 N 1424.89 -0.604284 -1.45555 0
M  V30 15250 C 1426.14 -0.0979922 -2.01862 0
M  V30 15251 C 1426.46 1.27476 -1.47563 0
M  V30 15252 O 1425.73 1.84137 -0.668612 0
M  V30 15253 H 1424.31 -0.033235 -0.74626 0
M  V30 15254 H 1426.97 -0.784936 -1.78395 0
M  V30 15255 H 1426.07 -0.0452716 -3.12067 0
M  V30 15256 N 1426.37 1.53816 -0.343257 0
M  V30 15257 C 1427.78 1.86169 0.140709 0
M  V30 15258 C 1428.13 1.26449 1.50017 0
M  V30 15259 O 1427.25 0.577955 2.08539 0
M  V30 15260 C 1427.85 3.37785 0.262097 0
M  V30 15261 C 1426.41 3.70016 0.690294 0
M  V30 15262 C 1425.55 2.7674 -0.17614 0
M  V30 15263 H 1428.51 1.48383 -0.562863 0
M  V30 15264 H 1428.53 3.64564 1.08964 0
M  V30 15265 H 1428.04 3.81221 -0.727481 0
M  V30 15266 H 1426.14 3.32124 1.68891 0
M  V30 15267 H 1426.25 4.76686 0.480388 0
M  V30 15268 H 1424.62 2.52263 0.351476 0
M  V30 15269 H 1425.4 3.23006 -1.16285 0
M  V30 15270 N 1427.84 0.0718701 1.57436 0
M  V30 15271 C 1429.26 -0.28476 1.57039 0
M  V30 15272 C 1429.46 -1.70032 1.08127 0
M  V30 15273 O 1428.52 -2.41191 0.747189 0
M  V30 15274 C 1429.83 -0.0943482 3.00552 0
M  V30 15275 C 1431.38 -0.163879 3.12571 0
M  V30 15276 C 1431.85 -0.00174658 4.58 0
M  V30 15277 N 1433.34 -0.0573489 4.63164 0
M  V30 15278 C 1434.08 0.0436849 5.73383 0
M  V30 15279 N 1433.57 0.198243 6.92516 0
M  V30 15280 N 1435.37 -0.0133856 5.62098 0
M  V30 15281 H 1427.52 0.99702 1.87545 0
M  V30 15282 H 1429.78 0.388822 0.864593 0
M  V30 15283 H 1429.49 0.882445 3.40449 0
M  V30 15284 H 1429.36 -0.846636 3.67576 0
M  V30 15285 H 1431.75 -1.13116 2.7256 0
M  V30 15286 H 1431.83 0.619513 2.48185 0
M  V30 15287 H 1431.47 0.9623 4.98701 0
M  V30 15288 H 1431.4 -0.804543 5.20418 0
M  V30 15289 H 1433.89 -0.175212 3.77494 0
M  V30 15290 H 1434.21 0.267479 7.72337 0
M  V30 15291 H 1432.55 0.233606 6.94607 0
M  V30 15292 H 1435.74 -0.132835 4.67911 0
M  V30 15293 H 1435.92 0.0688076 6.47963 0
M  V30 15294 N 1429.32 -1.56304 -0.201686 0
M  V30 15295 C 1430.23 -1.97215 -1.27057 0
M  V30 15296 C 1431.25 -0.878834 -1.50175 0
M  V30 15297 O 1432.42 -1.18405 -1.62918 0
M  V30 15298 C 1429.49 -2.29772 -2.59626 0
M  V30 15299 C 1428.55 -3.52776 -2.44637 0
M  V30 15300 C 1427.78 -3.83771 -3.70885 0
M  V30 15301 O 1428.01 -3.16149 -4.7477 0
M  V30 15302 O 1426.94 -4.77216 -3.66808 0
M  V30 15303 H 1430.77 -2.88347 -0.953393 0
M  V30 15304 H 1428.35 -1.43773 -0.406158 0
M  V30 15305 H 1430.23 -2.51817 -3.37885 0
M  V30 15306 H 1428.91 -1.41809 -2.90984 0
M  V30 15307 H 1427.82 -3.35986 -1.64512 0
M  V30 15308 H 1429.15 -4.41184 -2.18214 0
M  V30 15309 N 1430.8 0.469154 -1.50455 0
M  V30 15310 C 1431.76 1.5493 -1.68906 0
M  V30 15311 C 1432.76 1.50744 -0.559721 0
M  V30 15312 O 1433.95 1.5333 -0.826781 0
M  V30 15313 C 1431.09 2.94556 -1.71609 0
M  V30 15314 H 1432.28 1.39887 -2.65276 0
M  V30 15315 H 1429.83 0.695667 -1.39965 0
M  V30 15316 H 1430.57 3.15041 -0.769382 0
M  V30 15317 H 1430.35 2.99002 -2.53654 0
M  V30 15318 H 1431.84 3.72973 -1.87831 0
M  V30 15319 N 1432.28 1.40065 0.722464 0
M  V30 15320 C 1433.19 1.42086 1.86678 0
M  V30 15321 C 1434.2 0.314223 1.71139 0
M  V30 15322 O 1435.38 0.55771 1.93524 0
M  V30 15323 C 1432.45 1.27498 3.22405 0
M  V30 15324 C 1431.51 2.48243 3.50248 0
M  V30 15325 C 1430.74 2.34342 4.79499 0
M  V30 15326 O 1430.96 1.35355 5.54108 0
M  V30 15327 O 1429.9 3.23579 5.07523 0
M  V30 15328 H 1433.72 2.38571 1.87929 0
M  V30 15329 H 1431.31 1.21314 0.871968 0
M  V30 15330 H 1433.19 1.21543 4.03491 0
M  V30 15331 H 1431.86 0.341141 3.21897 0
M  V30 15332 H 1430.77 2.59775 2.69199 0
M  V30 15333 H 1432.1 3.40364 3.55547 0
M  V30 15334 N 1433.76 -0.95397 1.25448 0
M  V30 15335 C 1434.98 -1.73863 1.13077 0
M  V30 15336 C 1435.41 -1.85503 -0.311481 0
M  V30 15337 O 1434.77 -1.33596 -1.22564 0
M  V30 15338 C 1434.81 -3.13 1.79062 0
M  V30 15339 O 1433.92 -3.98258 1.07072 0
M  V30 15340 H 1433.26 -0.533921 0.394746 0
M  V30 15341 H 1435.79 -1.19571 1.66024 0
M  V30 15342 H 1435.8 -3.63456 1.85374 0
M  V30 15343 H 1434.47 -3.03844 2.83992 0
M  V30 15344 H 1433.05 -3.56722 1.08645 0
M  V30 15345 N 1435.24 -1.07045 -1.15668 0
M  V30 15346 C 1436.48 -0.790172 -1.86013 0
M  V30 15347 C 1436.8 0.685663 -1.82548 0
M  V30 15348 O 1436.07 1.49644 -1.26426 0
M  V30 15349 H 1434.65 -0.28931 -0.688701 0
M  V30 15350 H 1437.32 -1.35354 -1.40233 0
M  V30 15351 H 1436.41 -1.1219 -2.91239 0
M  V30 15352 N 1436.71 1.32449 -0.85411 0
M  V30 15353 C 1437.62 2.32658 -0.301221 0
M  V30 15354 C 1438.64 1.64025 0.580673 0
M  V30 15355 O 1439.82 1.95568 0.481172 0
M  V30 15356 C 1436.88 3.43049 0.501803 0
M  V30 15357 C 1435.94 4.27374 -0.406166 0
M  V30 15358 C 1435.17 5.32494 0.358627 0
M  V30 15359 O 1435.4 5.4783 1.58865 0
M  V30 15360 O 1434.33 6.0127 -0.275291 0
M  V30 15361 H 1438.16 2.81838 -1.13143 0
M  V30 15362 H 1435.74 1.36063 -0.617032 0
M  V30 15363 H 1437.62 4.10375 0.957608 0
M  V30 15364 H 1436.3 2.9606 1.30882 0
M  V30 15365 H 1435.21 3.6286 -0.910136 0
M  V30 15366 H 1436.54 4.77887 -1.17835 0
M  V30 15367 N 1438.19 0.611994 1.45232 0
M  V30 15368 C 1439.1 -0.105981 2.3436 0
M  V30 15369 C 1440.12 -0.855785 1.515 0
M  V30 15370 O 1441.29 -0.812376 1.84289 0
M  V30 15371 C 1438.36 -1.08794 3.29188 0
M  V30 15372 C 1437.42 -0.339611 4.27955 0
M  V30 15373 C 1436.65 -1.27479 5.18252 0
M  V30 15374 O 1436.88 -2.51279 5.12069 0
M  V30 15375 O 1435.81 -0.769469 5.96961 0
M  V30 15376 H 1439.64 0.626584 2.97166 0
M  V30 15377 H 1437.22 0.37224 1.44688 0
M  V30 15378 H 1439.1 -1.65338 3.8761 0
M  V30 15379 H 1437.78 -1.80145 2.68941 0
M  V30 15380 H 1436.68 0.268408 3.73136 0
M  V30 15381 H 1438.02 0.333501 4.91069 0
M  V30 15382 N 1439.67 -1.53632 0.351409 0
M  V30 15383 C 1441.08 -1.86241 -0.130834 0
M  V30 15384 C 1441.43 -1.27243 -1.49344 0
M  V30 15385 O 1440.56 -0.589006 -2.0823 0
M  V30 15386 C 1441.15 -3.37919 -0.244179 0
M  V30 15387 C 1439.71 -3.70377 -0.670662 0
M  V30 15388 C 1438.86 -2.76643 0.190813 0
M  V30 15389 H 1441.81 -1.48083 0.570724 0
M  V30 15390 H 1441.83 -3.65137 -1.07029 0
M  V30 15391 H 1441.34 -3.8083 0.747688 0
M  V30 15392 H 1439.44 -3.33015 -1.67127 0
M  V30 15393 H 1439.56 -4.76934 -0.455102 0
M  V30 15394 H 1437.92 -2.52446 -0.338092 0
M  V30 15395 H 1438.7 -3.22385 1.17996 0
M  V30 15396 N 1441.15 -0.0802183 -1.57396 0
M  V30 15397 C 1442.11 0.869437 -2.12069 0
M  V30 15398 C 1443.11 1.22079 -1.04658 0
M  V30 15399 O 1444.3 1.15267 -1.3061 0
M  V30 15400 C 1441.43 2.17016 -2.62901 0
M  V30 15401 H 1442.63 0.394952 -2.97288 0
M  V30 15402 H 1440.18 0.168597 -1.55388 0
M  V30 15403 H 1440.91 2.68983 -1.8116 0
M  V30 15404 H 1440.7 1.92808 -3.4142 0
M  V30 15405 H 1442.19 2.84982 -3.05246 0
M  V30 15406 N 1442.63 1.56409 0.193394 0
M  V30 15407 C 1444.04 1.50032 0.544298 0
M  V30 15408 C 1444.24 0.780546 1.85768 0
M  V30 15409 O 1443.3 0.331769 2.50311 0
M  V30 15410 C 1444.61 2.94705 0.597463 0
M  V30 15411 C 1446.16 3.05386 0.686179 0
M  V30 15412 C 1446.63 4.51473 0.770439 0
M  V30 15413 N 1448.12 4.55631 0.833921 0
M  V30 15414 C 1448.86 5.65982 0.919314 0
M  V30 15415 N 1448.36 6.8602 0.966904 0
M  V30 15416 N 1450.15 5.539 0.956634 0
M  V30 15417 H 1442.3 2.01619 -0.668096 0
M  V30 15418 H 1444.56 0.917589 -0.238191 0
M  V30 15419 H 1444.27 3.50431 -0.298509 0
M  V30 15420 H 1444.14 3.48151 1.45157 0
M  V30 15421 H 1446.53 2.49708 1.57258 0
M  V30 15422 H 1446.61 2.55062 -0.194165 0
M  V30 15423 H 1446.25 5.07777 -0.111619 0
M  V30 15424 H 1446.18 4.99531 1.66661 0
M  V30 15425 H 1448.68 3.69198 0.80632 0
M  V30 15426 H 1448.99 7.6587 1.03262 0
M  V30 15427 H 1447.33 6.88674 0.935552 0
M  V30 15428 H 1450.52 4.59044 0.916304 0
M  V30 15429 H 1450.7 6.39926 1.01972 0
M  V30 15430 N 1444.1 -0.461169 1.50702 0
M  V30 15431 C 1445.52 -0.795741 1.38348 0
M  V30 15432 C 1445.72 -1.96473 0.447263 0
M  V30 15433 O 1444.78 -2.52276 -0.106445 0
M  V30 15434 C 1446.09 -1.09849 2.79917 0
M  V30 15435 C 1447.64 -1.20435 2.88902 0
M  V30 15436 C 1448.11 -1.54017 4.31327 0
M  V30 15437 N 1449.6 -1.60989 4.34323 0
M  V30 15438 C 1450.34 -1.88498 5.41531 0
M  V30 15439 N 1449.83 -2.13959 6.58933 0
M  V30 15440 N 1451.63 -1.90082 5.28985 0
M  V30 15441 H 1443.78 0.309076 2.10139 0
M  V30 15442 H 1446.04 0.0757918 0.944965 0
M  V30 15443 H 1445.75 -0.312479 3.50309 0
M  V30 15444 H 1445.62 -2.03221 3.17775 0
M  V30 15445 H 1448.01 -1.98102 2.18723 0
M  V30 15446 H 1448.09 -0.250195 2.54573 0
M  V30 15447 H 1447.73 -0.768865 5.02047 0
M  V30 15448 H 1447.66 -2.50599 4.6315 0
M  V30 15449 H 1450.15 -1.43312 3.49672 0
M  V30 15450 H 1450.47 -2.34251 7.36442 0
M  V30 15451 H 1448.81 -2.11331 6.62091 0
M  V30 15452 H 1452 -1.69693 4.36259 0
M  V30 15453 H 1452.18 -2.11184 6.12622 0
M  V30 15454 N 1445.58 -1.40446 -0.715026 0
M  V30 15455 C 1446.53 -1.37235 -1.82073 0
M  V30 15456 C 1447.52 -0.249808 -1.58949 0
M  V30 15457 O 1448.71 -0.488958 -1.70112 0
M  V30 15458 C 1445.84 -1.23786 -3.20206 0
M  V30 15459 C 1444.92 -2.40824 -3.49091 0
M  V30 15460 N 1445.31 -3.66305 -3.4879 0
M  V30 15461 C 1443.61 -2.34215 -3.79551 0
M  V30 15462 C 1444.31 -4.43817 -3.76034 0
M  V30 15463 N 1443.29 -3.73664 -3.94811 0
M  V30 15464 H 1447.09 -2.32195 -1.80174 0
M  V30 15465 H 1444.6 -1.34226 -0.914175 0
M  V30 15466 H 1446.6 -1.19568 -3.99386 0
M  V30 15467 H 1445.26 -0.297938 -3.2333 0
M  V30 15468 H 1446.27 -3.99458 -3.29626 0
M  V30 15469 H 1442.95 -1.48592 -3.90162 0
M  V30 15470 H 1444.34 -5.52674 -3.82101 0
M  V30 15471 N 1447.06 0.947303 -1.25952 0
M  V30 15472 C 1448.48 1.21972 -1.02932 0
M  V30 15473 C 1448.68 1.99951 0.249333 0
M  V30 15474 O 1447.73 2.33534 0.960108 0
M  V30 15475 C 1449.04 1.98695 -2.257 0
M  V30 15476 C 1450.59 2.11711 -2.30538 0
M  V30 15477 C 1451.07 2.91835 -3.52982 0
M  V30 15478 N 1452.56 2.99411 -3.53422 0
M  V30 15479 C 1453.29 3.6182 -4.4483 0
M  V30 15480 N 1452.79 4.25781 -5.46519 0
M  V30 15481 N 1454.58 3.59033 -4.32495 0
M  V30 15482 H 1446.73 0.42583 -2.08088 0
M  V30 15483 H 1449 0.250899 -0.914196 0
M  V30 15484 H 1448.7 1.48801 -3.18671 0
M  V30 15485 H 1448.58 2.9938 -2.29459 0
M  V30 15486 H 1450.96 2.608 -1.38085 0
M  V30 15487 H 1451.04 1.10308 -2.30794 0
M  V30 15488 H 1450.69 2.43435 -4.4576 0
M  V30 15489 H 1450.62 3.9348 -3.49973 0
M  V30 15490 H 1453.11 2.53934 -2.79868 0
M  V30 15491 H 1453.42 4.71281 -6.12466 0
M  V30 15492 H 1451.77 4.24386 -5.50383 0
M  V30 15493 H 1454.96 3.08254 -3.52274 0
M  V30 15494 H 1455.13 4.07384 -5.03927 0
M  V30 15495 N 1448.54 1.07657 1.15099 0
M  V30 15496 C 1449.5 0.703558 2.18135 0
M  V30 15497 C 1450.5 -0.257771 1.5872 0
M  V30 15498 O 1451.69 -0.0383211 1.74158 0
M  V30 15499 C 1448.82 0.0374978 3.40879 0
M  V30 15500 H 1450.02 1.61583 2.52648 0
M  V30 15501 H 1447.57 0.873484 1.29615 0
M  V30 15502 H 1448.3 -0.886868 3.11938 0
M  V30 15503 H 1448.09 0.728961 3.85264 0
M  V30 15504 H 1449.58 -0.208714 4.17078 0
M  V30 15505 N 1450.02 -1.31994 0.861122 0
M  V30 15506 C 1451.43 -1.49756 0.551844 0
M  V30 15507 C 1451.63 -1.79473 -0.916056 0
M  V30 15508 O 1450.69 -1.86813 -1.69874 0
M  V30 15509 C 1452 -2.63737 1.44442 0
M  V30 15510 C 1453.55 -2.77621 1.44552 0
M  V30 15511 C 1454.02 -3.94689 2.32346 0
M  V30 15512 N 1455.52 -4.01961 2.30177 0
M  V30 15513 C 1456.25 -4.91794 2.94833 0
M  V30 15514 N 1455.75 -5.86589 3.68626 0
M  V30 15515 N 1457.54 -4.84968 2.84188 0
M  V30 15516 H 1449.69 -1.10972 1.81105 0
M  V30 15517 H 1451.95 -0.54753 0.773896 0
M  V30 15518 H 1451.66 -2.48526 2.48853 0
M  V30 15519 H 1451.53 -3.59671 1.13651 0
M  V30 15520 H 1453.92 -2.92251 0.409034 0
M  V30 15521 H 1454 -1.8238 1.79363 0
M  V30 15522 H 1453.65 -3.80817 3.36067 0
M  V30 15523 H 1453.58 -4.89219 1.94865 0
M  V30 15524 H 1456.07 -3.34132 1.76533 0
M  V30 15525 H 1456.38 -6.51846 4.15111 0
M  V30 15526 H 1454.72 -5.86596 3.72734 0
M  V30 15527 H 1457.92 -4.09883 2.26084 0
M  V30 15528 H 1458.09 -5.54774 3.34857 0
M  V30 15529 N 1451.49 -0.619688 -1.44906 0
M  V30 15530 C 1452.44 0.113696 -2.27716 0
M  V30 15531 C 1453.43 0.82709 -1.38015 0
M  V30 15532 O 1454.62 0.715083 -1.61912 0
M  V30 15533 C 1451.75 1.10233 -3.25121 0
M  V30 15534 C 1450.84 0.389147 -4.22311 0
M  V30 15535 N 1451.23 -0.575929 -5.0251 0
M  V30 15536 C 1449.52 0.635112 -4.41455 0
M  V30 15537 C 1450.23 -0.996243 -5.73105 0
M  V30 15538 N 1449.2 -0.337427 -5.42552 0
M  V30 15539 H 1453 -0.627351 -2.87126 0
M  V30 15540 H 1450.52 -0.444293 -1.56204 0
M  V30 15541 H 1452.51 1.64223 -3.83192 0
M  V30 15542 H 1451.17 1.8438 -2.67272 0
M  V30 15543 H 1452.19 -0.953232 -5.09052 0
M  V30 15544 H 1448.86 1.36033 -3.94717 0
M  V30 15545 H 1450.25 -1.7929 -6.47537 0
M  V30 15546 N 1452.97 1.53444 -0.359552 0
M  V30 15547 C 1453.92 2.25544 0.48977 0
M  V30 15548 C 1454.89 1.25982 1.08248 0
M  V30 15549 O 1456.07 1.54751 1.1161 0
M  V30 15550 C 1453.21 3.04358 1.62666 0
M  V30 15551 C 1452.33 4.18801 1.0597 0
M  V30 15552 C 1451.46 4.85069 2.1652 0
M  V30 15553 C 1450.5 5.91554 1.57259 0
M  V30 15554 N 1449.64 6.51537 2.61617 0
M  V30 15555 H 1454.48 2.97709 -0.13158 0
M  V30 15556 H 1452.02 1.469 -0.0767056 0
M  V30 15557 H 1453.97 3.48324 2.29623 0
M  V30 15558 H 1452.6 2.34459 2.21876 0
M  V30 15559 H 1451.66 3.79364 0.280599 0
M  V30 15560 H 1452.97 4.95341 0.586383 0
M  V30 15561 H 1452.12 5.32187 2.9131 0
M  V30 15562 H 1450.86 4.07988 2.67202 0
M  V30 15563 H 1449.87 5.43803 0.809818 0
M  V30 15564 H 1451.09 6.70552 1.07409 0
M  V30 15565 H 1449.04 5.77312 3.11523 0
M  V30 15566 H 1448.95 7.23599 2.18954 0
M  V30 15567 H 1450.22 7.03306 3.36127 0
M  V30 15568 N 1454.45 0.0885642 1.57351 0
M  V30 15569 C 1455.41 -0.858178 2.12528 0
M  V30 15570 C 1456.41 -1.21522 1.05304 0
M  V30 15571 O 1457.6 -1.14573 1.3122 0
M  V30 15572 C 1454.74 -2.15619 2.64048 0
M  V30 15573 H 1455.93 -0.37918 2.97493 0
M  V30 15574 H 1453.48 -0.160354 1.55475 0
M  V30 15575 H 1454.22 -2.68018 1.82584 0
M  V30 15576 H 1454 -1.90995 3.42437 0
M  V30 15577 H 1455.49 -2.83359 3.06753 0
M  V30 15578 N 1455.93 -1.56509 -0.185096 0
M  V30 15579 C 1456.86 -1.91878 -1.25361 0
M  V30 15580 C 1457.87 -0.810443 -1.41194 0
M  V30 15581 O 1459.06 -1.08887 -1.41442 0
M  V30 15582 C 1456.16 -2.14433 -2.62434 0
M  V30 15583 C 1455.34 -3.45618 -2.6808 0
M  V30 15584 C 1454.39 -3.57165 -3.86419 0
M  V30 15585 O 1453.42 -4.29904 -3.73056 0
M  V30 15586 N 1454.62 -2.90993 -5.02298 0
M  V30 15587 H 1457.39 -2.84133 -0.953328 0
M  V30 15588 H 1454.95 -1.57498 -0.374955 0
M  V30 15589 H 1456.94 -2.19437 -3.40044 0
M  V30 15590 H 1455.51 -1.28629 -2.84909 0
M  V30 15591 H 1454.73 -3.52394 -1.76669 0
M  V30 15592 H 1456.02 -4.31968 -2.68851 0
M  V30 15593 H 1455.42 -2.31743 -5.16054 0
M  V30 15594 H 1453.97 -3.01611 -5.77819 0
M  V30 15595 N 1457.41 0.45317 -1.50944 0
M  V30 15596 C 1458.82 1.03354 -1.55482 0
M  V30 15597 C 1459.17 1.92701 -0.368873 0
M  V30 15598 O 1458.29 2.10153 0.516208 0
M  V30 15599 C 1458.89 1.88118 -2.81775 0
M  V30 15600 C 1457.45 2.41232 -2.88936 0
M  V30 15601 C 1456.59 1.20032 -2.49975 0
M  V30 15602 H 1459.55 0.235059 -1.5695 0
M  V30 15603 H 1459.57 2.73394 -2.64643 0
M  V30 15604 H 1459.08 1.23064 -3.68072 0
M  V30 15605 H 1457.18 3.09788 -2.07032 0
M  V30 15606 H 1457.29 2.75113 -3.92237 0
M  V30 15607 H 1455.66 1.54072 -2.02815 0
M  V30 15608 H 1456.44 0.56612 -3.386 0
M  V30 15609 N 1458.88 1.40823 0.707568 0
M  V30 15610 C 1459.85 1.41464 1.80334 0
M  V30 15611 C 1460.85 0.307143 1.57839 0
M  V30 15612 O 1462.04 0.566444 1.64733 0
M  V30 15613 C 1459.17 1.21426 3.18541 0
M  V30 15614 H 1460.36 2.38998 1.81162 0
M  V30 15615 H 1457.92 1.2679 0.914007 0
M  V30 15616 H 1458.65 0.246847 3.23359 0
M  V30 15617 H 1458.44 2.01657 3.36269 0
M  V30 15618 H 1459.93 1.24681 3.98553 0
M  V30 15619 N 1460.36 -0.94061 1.26453 0
M  V30 15620 C 1461.31 -2.02524 1.04728 0
M  V30 15621 C 1462.3 -1.60887 -0.0205193 0
M  V30 15622 O 1463.49 -1.75906 0.196501 0
M  V30 15623 C 1460.62 -3.3644 0.682862 0
M  V30 15624 C 1459.7 -3.84559 1.78815 0
M  V30 15625 N 1460.09 -4.05323 3.02567 0
M  V30 15626 C 1458.39 -4.13478 1.67188 0
M  V30 15627 C 1459.09 -4.45191 3.74406 0
M  V30 15628 N 1458.07 -4.51927 3.02098 0
M  V30 15629 H 1461.87 -2.1659 1.9866 0
M  V30 15630 H 1459.39 -1.12649 1.16978 0
M  V30 15631 H 1461.38 -4.13789 0.508379 0
M  V30 15632 H 1460.04 -3.23744 -0.248973 0
M  V30 15633 H 1461.05 -3.91996 3.38466 0
M  V30 15634 H 1457.73 -4.09567 0.809986 0
M  V30 15635 H 1459.12 -4.69442 4.80701 0
M  V30 15636 N 1461.84 -1.08266 -1.14527 0
M  V30 15637 C 1462.75 -0.723043 -2.2318 0
M  V30 15638 C 1463.77 0.269819 -1.71895 0
M  V30 15639 O 1464.94 0.114126 -2.01076 0
M  V30 15640 C 1462.01 -0.136229 -3.46432 0
M  V30 15641 C 1461.07 -1.18352 -4.12664 0
M  V30 15642 C 1460.3 -0.624612 -5.30032 0
M  V30 15643 O 1460.52 0.556377 -5.6768 0
M  V30 15644 O 1459.46 -1.37397 -5.86008 0
M  V30 15645 H 1463.28 -1.6294 -2.56289 0
M  V30 15646 H 1460.87 -0.856235 -1.22429 0
M  V30 15647 H 1462.75 0.18829 -4.20979 0
M  V30 15648 H 1461.43 0.74331 -3.1505 0
M  V30 15649 H 1460.33 -1.56054 -3.39997 0
M  V30 15650 H 1461.67 -2.03528 -4.48148 0
M  V30 15651 N 1463.32 1.31536 -0.86811 0
M  V30 15652 C 1464.28 2.26849 -0.327456 0
M  V30 15653 C 1465.28 1.52142 0.520514 0
M  V30 15654 O 1466.47 1.71044 0.330088 0
M  V30 15655 C 1463.6 3.36673 0.535174 0
M  V30 15656 H 1464.8 2.76184 -1.16886 0
M  V30 15657 H 1462.35 1.42437 -0.643545 0
M  V30 15658 H 1463.09 2.92627 1.39785 0
M  V30 15659 H 1462.87 3.92034 -0.0719835 0
M  V30 15660 H 1464.36 4.07658 0.905786 0
M  V30 15661 N 1464.8 0.627364 1.44575 0
M  V30 15662 C 1466.04 0.130545 2.02379 0
M  V30 15663 C 1466.38 -1.24301 1.49208 0
M  V30 15664 O 1465.65 -1.82425 0.674626 0
M  V30 15665 C 1465.93 0.11311 3.59922 0
M  V30 15666 C 1465.79 1.51874 4.23385 0
M  V30 15667 C 1467.11 -0.564341 4.36467 0
M  V30 15668 H 1464.23 0.0489125 0.735375 0
M  V30 15669 H 1466.87 0.803118 1.72192 0
M  V30 15670 H 1465.02 -0.459621 3.85772 0
M  V30 15671 H 1466.69 2.14007 4.08655 0
M  V30 15672 H 1464.93 2.07371 3.81024 0
M  V30 15673 H 1465.6 1.4586 5.3238 0
M  V30 15674 H 1468.08 -0.0773244 4.16028 0
M  V30 15675 H 1466.96 -0.545715 5.46181 0
M  V30 15676 H 1467.22 -1.63403 4.10794 0
M  V30 15677 N 1466.28 -1.53251 0.367684 0
M  V30 15678 C 1467.19 -2.29518 -0.485669 0
M  V30 15679 C 1468.2 -1.35568 -1.09075 0
M  V30 15680 O 1469.38 -1.68626 -1.10124 0
M  V30 15681 C 1466.44 -3.07115 -1.60876 0
M  V30 15682 C 1465.5 -4.16736 -1.031 0
M  V30 15683 C 1464.74 -4.90624 -2.10056 0
M  V30 15684 O 1464.96 -4.64393 -3.31203 0
M  V30 15685 O 1463.89 -5.76503 -1.72996 0
M  V30 15686 H 1467.72 -3.034 0.135017 0
M  V30 15687 H 1465.3 -1.48816 0.132005 0
M  V30 15688 H 1467.19 -3.55564 -2.26168 0
M  V30 15689 H 1465.86 -2.36068 -2.21481 0
M  V30 15690 H 1464.77 -3.72534 -0.341928 0
M  V30 15691 H 1466.1 -4.89956 -0.469473 0
M  V30 15692 N 1467.75 -0.0969077 -1.57302 0
M  V30 15693 C 1468.7 0.861379 -2.14124 0
M  V30 15694 C 1469.67 1.27858 -1.06026 0
M  V30 15695 O 1470.86 1.36001 -1.33822 0
M  V30 15696 C 1468 2.11443 -2.72738 0
M  V30 15697 C 1467.11 1.7476 -3.95074 0
M  V30 15698 C 1466.24 2.94864 -4.41847 0
M  V30 15699 C 1465.28 2.54316 -5.56767 0
M  V30 15700 N 1464.42 3.67261 -5.98384 0
M  V30 15701 H 1469.26 0.369968 -2.95694 0
M  V30 15702 H 1466.8 0.170943 -1.46103 0
M  V30 15703 H 1468.75 2.84829 -3.04842 0
M  V30 15704 H 1467.38 2.5808 -1.93893 0
M  V30 15705 H 1466.44 0.91335 -3.69272 0
M  V30 15706 H 1467.75 1.40946 -4.78472 0
M  V30 15707 H 1466.9 3.76501 -4.75744 0
M  V30 15708 H 1465.64 3.31889 -3.57352 0
M  V30 15709 H 1464.65 1.71106 -5.22497 0
M  V30 15710 H 1465.87 2.18432 -6.43012 0
M  V30 15711 H 1463.82 4.04001 -5.16836 0
M  V30 15712 H 1463.73 3.37298 -6.76584 0
M  V30 15713 H 1465 4.49403 -6.36912 0
M  V30 15714 N 1469.23 1.56605 0.176793 0
M  V30 15715 C 1470.14 1.99211 1.23903 0
M  V30 15716 C 1471.16 0.902614 1.48758 0
M  V30 15717 O 1472.33 1.20982 1.61014 0
M  V30 15718 C 1469.4 2.33873 2.55938 0
M  V30 15719 C 1468.46 3.56624 2.38994 0
M  V30 15720 C 1467.69 3.89623 3.64733 0
M  V30 15721 O 1467.92 3.23662 4.6968 0
M  V30 15722 O 1466.85 4.82992 3.5917 0
M  V30 15723 H 1470.68 2.89827 0.907398 0
M  V30 15724 H 1468.26 1.44401 0.383234 0
M  V30 15725 H 1470.14 2.57161 3.33836 0
M  V30 15726 H 1468.82 1.46421 2.88691 0
M  V30 15727 H 1467.72 3.38561 1.59146 0
M  V30 15728 H 1469.06 4.446 2.11167 0
M  V30 15729 N 1470.71 -0.445159 1.51182 0
M  V30 15730 C 1471.94 -1.21787 1.67259 0
M  V30 15731 C 1472.35 -1.85206 0.366641 0
M  V30 15732 O 1471.71 -1.70376 -0.654095 0
M  V30 15733 C 1471.76 -2.30765 2.78262 0
M  V30 15734 O 1471.48 -1.69942 4.03796 0
M  V30 15735 C 1472.98 -3.21186 3.05539 0
M  V30 15736 H 1470.2 -0.367364 0.561502 0
M  V30 15737 H 1472.75 -0.528415 1.97555 0
M  V30 15738 H 1470.9 -2.9544 2.50587 0
M  V30 15739 H 1471.32 -2.41905 4.65384 0
M  V30 15740 H 1472.79 -3.93805 3.8681 0
M  V30 15741 H 1473.27 -3.81487 2.17634 0
M  V30 15742 H 1473.87 -2.62221 3.34844 0
M  V30 15743 N 1472.19 -1.41197 -0.700089 0
M  V30 15744 C 1473.42 -1.43658 -1.48896 0
M  V30 15745 C 1473.83 -0.0405771 -1.88756 0
M  V30 15746 O 1473.19 0.93909 -1.56484 0
M  V30 15747 C 1473.24 -2.34125 -2.75441 0
M  V30 15748 O 1472.96 -3.68291 -2.37261 0
M  V30 15749 C 1474.46 -2.45342 -3.69218 0
M  V30 15750 H 1471.68 -0.48945 -0.458999 0
M  V30 15751 H 1474.22 -1.85429 -0.862345 0
M  V30 15752 H 1472.38 -1.95674 -3.34351 0
M  V30 15753 H 1472.79 -4.16495 -3.18798 0
M  V30 15754 H 1474.27 -3.12818 -4.54807 0
M  V30 15755 H 1474.74 -1.48327 -4.13395 0
M  V30 15756 H 1475.35 -2.84409 -3.16214 0
M  V30 15757 N 1473.67 0.933891 -1.2695 0
M  V30 15758 C 1474.58 2.06713 -1.10936 0
M  V30 15759 C 1475.59 1.73952 -0.0409734 0
M  V30 15760 O 1476.77 1.9989 -0.246199 0
M  V30 15761 C 1473.83 3.38453 -0.751696 0
M  V30 15762 C 1472.89 3.84951 -1.90029 0
M  V30 15763 C 1472.13 5.10404 -1.55959 0
M  V30 15764 O 1472.35 5.68504 -0.464646 0
M  V30 15765 O 1471.28 5.52123 -2.39675 0
M  V30 15766 H 1475.11 2.23133 -2.06023 0
M  V30 15767 H 1472.69 1.05202 -1.06079 0
M  V30 15768 H 1474.58 4.17591 -0.565285 0
M  V30 15769 H 1473.25 3.23255 0.169703 0
M  V30 15770 H 1472.16 3.06727 -2.14172 0
M  V30 15771 H 1473.49 4.04681 -2.80167 0
M  V30 15772 N 1475.14 1.08871 1.13951 0
M  V30 15773 C 1476.09 0.722966 2.19184 0
M  V30 15774 C 1477.06 -0.293108 1.63493 0
M  V30 15775 O 1478.25 -0.176036 1.89986 0
M  V30 15776 C 1475.39 0.143542 3.44801 0
M  V30 15777 C 1474.5 1.21297 4.14622 0
M  V30 15778 C 1473.63 0.596902 5.27836 0
M  V30 15779 C 1472.67 1.64803 5.89497 0
M  V30 15780 N 1471.81 1.05341 6.94152 0
M  V30 15781 H 1476.65 1.62464 2.49819 0
M  V30 15782 H 1474.19 0.811803 1.22671 0
M  V30 15783 H 1476.14 -0.210153 4.1667 0
M  V30 15784 H 1474.77 -0.721426 3.14635 0
M  V30 15785 H 1473.83 1.68403 3.41093 0
M  V30 15786 H 1475.14 2.00931 4.56539 0
M  V30 15787 H 1474.29 0.191724 6.06397 0
M  V30 15788 H 1473.03 -0.231052 4.87152 0
M  V30 15789 H 1472.04 2.06282 5.09635 0
M  V30 15790 H 1473.26 2.47855 6.32254 0
M  V30 15791 H 1471.21 0.24664 6.55536 0
M  V30 15792 H 1471.12 1.7868 7.34581 0
M  V30 15793 H 1472.39 0.674253 7.76578 0
M  V30 15794 N 1476.62 -1.31073 0.875073 0
M  V30 15795 C 1477.53 -2.3215 0.338196 0
M  V30 15796 C 1478.55 -1.64928 -0.554504 0
M  V30 15797 O 1479.72 -1.96308 -0.449998 0
M  V30 15798 C 1476.79 -3.43804 -0.447163 0
M  V30 15799 C 1475.85 -4.26674 0.474106 0
M  V30 15800 C 1475.08 -5.32997 -0.273867 0
M  V30 15801 O 1475.31 -5.50288 -1.50129 0
M  V30 15802 O 1474.24 -6.00756 0.370913 0
M  V30 15803 H 1478.07 -2.80002 1.17612 0
M  V30 15804 H 1475.65 -1.35064 0.6386 0
M  V30 15805 H 1477.53 -4.11847 -0.892199 0
M  V30 15806 H 1476.21 -2.98105 -1.26155 0
M  V30 15807 H 1475.11 -3.61366 0.967748 0
M  V30 15808 H 1476.45 -4.75952 1.25423 0
M  V30 15809 N 1478.1 -0.635022 -1.4424 0
M  V30 15810 C 1479.06 0.0579377 -2.29127 0
M  V30 15811 C 1480.06 0.768489 -1.41248 0
M  V30 15812 O 1481.25 0.612489 -1.63077 0
M  V30 15813 C 1478.39 1.09266 -3.22914 0
M  V30 15814 H 1479.58 -0.688723 -2.91885 0
M  V30 15815 H 1477.13 -0.395347 -1.51217 0
M  V30 15816 H 1477.87 1.86917 -2.65014 0
M  V30 15817 H 1477.65 0.587036 -3.87681 0
M  V30 15818 H 1479.14 1.57716 -3.86672 0
M  V30 15819 N 1479.58 1.53054 -0.375806 0
M  V30 15820 C 1480.81 2.0582 0.211135 0
M  V30 15821 C 1481.22 1.24856 1.4162 0
M  V30 15822 O 1480.58 0.291786 1.80152 0
M  V30 15823 C 1480.63 3.56577 0.594573 0
M  V30 15824 O 1480.35 4.34472 -0.562607 0
M  V30 15825 C 1481.85 4.25639 1.23882 0
M  V30 15826 H 1479.07 0.670085 0.0350268 0
M  V30 15827 H 1481.62 1.9732 -0.537135 0
M  V30 15828 H 1479.77 3.65194 1.29275 0
M  V30 15829 H 1480.18 5.23902 -0.250487 0
M  V30 15830 H 1481.66 5.32408 1.45759 0
M  V30 15831 H 1482.14 3.80001 2.20218 0
M  V30 15832 H 1482.74 4.21302 0.581786 0
M  V30 15833 N 1481.06 0.105248 1.57248 0
M  V30 15834 C 1481.97 -0.864007 2.1811 0
M  V30 15835 C 1482.98 -1.30282 1.15337 0
M  V30 15836 O 1484.16 -1.36864 1.4775 0
M  V30 15837 C 1481.22 -2.1014 2.75757 0
M  V30 15838 C 1480.28 -1.71583 3.9352 0
M  V30 15839 C 1479.52 -2.89424 4.48408 0
M  V30 15840 O 1479.74 -4.04449 4.02215 0
M  V30 15841 O 1478.67 -2.67303 5.39289 0
M  V30 15842 H 1482.5 -0.376131 3.01362 0
M  V30 15843 H 1480.09 -0.119643 1.4892 0
M  V30 15844 H 1481.97 -2.82638 3.1256 0
M  V30 15845 H 1480.64 -2.57961 1.95545 0
M  V30 15846 H 1479.55 -0.962347 3.6151 0
M  V30 15847 H 1480.88 -1.28517 4.75126 0
M  V30 15848 N 1482.53 -1.56697 -0.168486 0
M  V30 15849 C 1483.48 -1.96628 -1.20855 0
M  V30 15850 C 1484.45 -0.830623 -1.4384 0
M  V30 15851 O 1485.64 -1.09097 -1.56533 0
M  V30 15852 C 1482.78 -2.3338 -2.5422 0
M  V30 15853 C 1481.89 -3.60137 -2.3859 0
M  V30 15854 C 1481.02 -3.86088 -3.64842 0
M  V30 15855 C 1480.06 -5.06184 -3.44157 0
M  V30 15856 N 1479.2 -5.28254 -4.62485 0
M  V30 15857 H 1484.04 -2.8529 -0.86102 0
M  V30 15858 H 1481.58 -1.41162 -0.413741 0
M  V30 15859 H 1483.54 -2.52711 -3.31953 0
M  V30 15860 H 1482.17 -1.47825 -2.86963 0
M  V30 15861 H 1481.22 -3.48704 -1.52019 0
M  V30 15862 H 1482.53 -4.48028 -2.19254 0
M  V30 15863 H 1481.68 -4.05802 -4.5101 0
M  V30 15864 H 1480.42 -2.96578 -3.8716 0
M  V30 15865 H 1479.43 -4.86366 -2.56376 0
M  V30 15866 H 1480.65 -5.97228 -3.23258 0
M  V30 15867 H 1478.6 -4.41695 -4.85017 0
M  V30 15868 H 1478.52 -6.10373 -4.46072 0
M  V30 15869 H 1479.78 -5.52448 -5.49928 0
M  V30 15870 N 1484.01 0.437135 -1.51416 0
M  V30 15871 C 1484.92 1.55581 -1.75589 0
M  V30 15872 C 1485.94 1.61797 -0.640132 0
M  V30 15873 O 1487.11 1.79035 -0.922406 0
M  V30 15874 C 1484.18 2.91561 -1.87598 0
M  V30 15875 C 1483.24 2.9546 -3.11451 0
M  V30 15876 C 1482.47 4.24954 -3.22878 0
M  V30 15877 O 1482.7 5.17341 -2.40238 0
M  V30 15878 O 1481.63 4.35141 -4.15856 0
M  V30 15879 H 1485.46 1.38098 -2.70486 0
M  V30 15880 H 1483.04 0.620163 -1.3592 0
M  V30 15881 H 1484.92 3.72262 -1.97481 0
M  V30 15882 H 1483.6 3.09171 -0.958889 0
M  V30 15883 H 1482.51 2.13713 -3.07046 0
M  V30 15884 H 1483.84 2.82794 -4.0285 0
M  V30 15885 N 1485.49 1.41566 0.692592 0
M  V30 15886 C 1486.45 1.43369 1.78824 0
M  V30 15887 C 1487.45 0.323867 1.57505 0
M  V30 15888 O 1488.64 0.583885 1.64123 0
M  V30 15889 C 1485.78 1.24798 3.17235 0
M  V30 15890 H 1486.97 2.40906 1.78617 0
M  V30 15891 H 1484.52 1.27752 0.900508 0
M  V30 15892 H 1485.26 0.281129 3.23079 0
M  V30 15893 H 1485.04 2.05212 3.34111 0
M  V30 15894 H 1486.53 1.28902 3.97208 0
M  V30 15895 N 1486.97 -0.927146 1.27443 0
M  V30 15896 C 1487.88 -2.06122 1.12031 0
M  V30 15897 C 1488.89 -1.73928 0.0501979 0
M  V30 15898 O 1490.07 -1.99756 0.256796 0
M  V30 15899 C 1487.14 -3.3805 0.769634 0
M  V30 15900 C 1486.2 -3.83938 1.92068 0
M  V30 15901 C 1485.43 -5.0957 1.58664 0
M  V30 15902 O 1485.65 -5.6825 0.494789 0
M  V30 15903 O 1484.59 -5.50844 2.42599 0
M  V30 15904 H 1488.41 -2.22037 2.07203 0
M  V30 15905 H 1486 -1.04638 1.06636 0
M  V30 15906 H 1487.88 -4.17286 0.587423 0
M  V30 15907 H 1486.55 -3.2334 -0.152557 0
M  V30 15908 H 1485.46 -3.05587 2.15795 0
M  V30 15909 H 1486.79 -4.0319 2.8231 0
M  V30 15910 N 1488.45 -1.09474 -1.13372 0
M  V30 15911 C 1489.7 -0.825968 -1.84013 0
M  V30 15912 C 1490.01 0.650623 -1.84462 0
M  V30 15913 O 1491.21 1.03495 -2.51 0
M  V30 15914 C 1489.67 -1.42769 -3.30371 0
M  V30 15915 C 1489.28 -2.93686 -3.38308 0
M  V30 15916 C 1491.02 -1.23788 -4.0605 0
M  V30 15917 C 1488.93 -3.46942 -4.78942 0
M  V30 15918 H 1487.86 -0.305322 -0.689416 0
M  V30 15919 H 1490.51 -1.31751 -1.27726 0
M  V30 15920 H 1488.89 -0.86384 -3.86463 0
M  V30 15921 H 1490.07 -3.56302 -2.92208 0
M  V30 15922 H 1488.38 -3.11706 -2.76094 0
M  V30 15923 H 1490.98 -1.61031 -5.09876 0
M  V30 15924 H 1491.32 -0.178578 -4.15917 0
M  V30 15925 H 1491.85 -1.76927 -3.56289 0
M  V30 15926 H 1488.59 -4.52495 -4.74267 0
M  V30 15927 H 1488.11 -2.8909 -5.25535 0
M  V30 15928 H 1489.79 -3.44176 -5.47861 0
M  V30 15929 N 1489.92 1.30607 -0.882012 0
M  V30 15930 C 1491.17 1.96547 -0.499703 0
M  V30 15931 C 1491.5 1.69484 0.948098 0
M  V30 15932 O 1490.78 0.997929 1.66948 0
M  V30 15933 C 1491.06 3.51735 -0.771662 0
M  V30 15934 C 1490.91 3.88326 -2.26987 0
M  V30 15935 C 1492.23 4.39411 -0.246178 0
M  V30 15936 H 1489.35 0.713912 -0.183026 0
M  V30 15937 H 1491.99 1.5453 -1.10546 0
M  V30 15938 H 1490.14 3.87655 -0.256092 0
M  V30 15939 H 1491.82 3.62444 -2.85362 0
M  V30 15940 H 1490.06 3.36501 -2.7377 0
M  V30 15941 H 1490.73 4.96574 -2.41078 0
M  V30 15942 H 1493.21 4.10382 -0.687419 0
M  V30 15943 H 1492.08 5.4692 -0.465817 0
M  V30 15944 H 1492.34 4.33804 0.852452 0
M  V30 15945 N 1491.4 0.642663 1.43901 0
M  V30 15946 C 1492.31 -0.0562462 2.34533 0
M  V30 15947 C 1493.33 -0.823457 1.53281 0
M  V30 15948 O 1494.5 -0.773103 1.85971 0
M  V30 15949 C 1491.57 -1.01787 3.31422 0
M  V30 15950 C 1490.63 -0.248759 4.28579 0
M  V30 15951 C 1489.86 -1.16458 5.20839 0
M  V30 15952 O 1490.09 -2.40361 5.17284 0
M  V30 15953 O 1489.02 -0.642671 5.98459 0
M  V30 15954 H 1492.85 0.689476 2.9577 0
M  V30 15955 H 1490.43 0.402847 1.43866 0
M  V30 15956 H 1492.31 -1.5708 3.91029 0
M  V30 15957 H 1490.99 -1.744 2.72702 0
M  V30 15958 H 1489.9 0.347495 3.72483 0
M  V30 15959 H 1491.23 0.437589 4.90251 0
M  V30 15960 N 1492.88 -1.52852 0.383918 0
M  V30 15961 C 1493.84 -2.24904 -0.441687 0
M  V30 15962 C 1494.84 -1.26345 -0.99466 0
M  V30 15963 O 1496.03 -1.50484 -0.877513 0
M  V30 15964 C 1493.17 -2.99994 -1.61915 0
M  V30 15965 H 1494.36 -2.99304 0.189047 0
M  V30 15966 H 1491.91 -1.55708 0.135932 0
M  V30 15967 H 1492.65 -2.29882 -2.28746 0
M  V30 15968 H 1492.43 -3.72328 -1.2294 0
M  V30 15969 H 1493.92 -3.54716 -2.20378 0
M  V30 15970 N 1494.36 -0.113586 -1.5719 0
M  V30 15971 C 1495.64 0.588987 -1.86522 0
M  V30 15972 C 1496.02 1.85163 -1.01379 0
M  V30 15973 O 1495.36 2.28318 -0.0912188 0
M  V30 15974 C 1495.57 0.886633 -3.3755 0
M  V30 15975 C 1496.92 1.24206 -4.06027 0
M  V30 15976 O 1497.95 0.977068 -3.42537 0
M  V30 15977 O 1496.81 1.73914 -5.18089 0
M  V30 15978 H 1493.9 0.296637 -0.771968 0
M  V30 15979 H 1496.45 -0.147681 -1.69056 0
M  V30 15980 H 1495.22 -0.00835421 -3.91299 0
M  V30 15981 H 1494.84 1.67865 -3.60426 0
M  V30 15982 N 1495.84 1.56784 0.160173 0
M  V30 15983 C 1496.78 1.97267 1.1981 0
M  V30 15984 C 1497.75 0.83824 1.43397 0
M  V30 15985 O 1498.94 1.09926 1.55952 0
M  V30 15986 C 1496.08 2.34725 2.52979 0
M  V30 15987 C 1495.19 3.61397 2.36677 0
M  V30 15988 C 1494.33 3.88018 3.62789 0
M  V30 15989 C 1493.37 5.08002 3.41468 0
M  V30 15990 N 1492.5 5.30699 4.59677 0
M  V30 15991 H 1497.34 2.85743 0.845878 0
M  V30 15992 H 1494.88 1.41379 0.406249 0
M  V30 15993 H 1496.84 2.54468 3.30608 0
M  V30 15994 H 1495.47 1.49345 2.86175 0
M  V30 15995 H 1494.52 3.49505 1.50167 0
M  V30 15996 H 1495.83 4.49185 2.16875 0
M  V30 15997 H 1494.99 4.08188 4.48851 0
M  V30 15998 H 1493.73 2.98627 3.85582 0
M  V30 15999 H 1492.73 4.87718 2.53793 0
M  V30 16000 H 1493.96 5.98934 3.20086 0
M  V30 16001 H 1491.9 4.44261 4.82668 0
M  V30 16002 H 1491.82 6.1273 4.42829 0
M  V30 16003 H 1493.09 5.55357 5.46991 0
M  V30 16004 N 1497.32 -0.429099 1.51646 0
M  V30 16005 C 1498.23 -1.54648 1.76412 0
M  V30 16006 C 1499.24 -1.61455 0.648703 0
M  V30 16007 O 1500.42 -1.78544 0.931888 0
M  V30 16008 C 1497.48 -2.90562 1.89142 0
M  V30 16009 C 1496.54 -2.93804 3.13014 0
M  V30 16010 C 1495.78 -4.23235 3.25127 0
M  V30 16011 O 1496 -5.1606 2.42979 0
M  V30 16012 O 1494.93 -4.32929 4.18158 0
M  V30 16013 H 1498.76 -1.36661 2.71215 0
M  V30 16014 H 1496.34 -0.612946 1.36247 0
M  V30 16015 H 1498.23 -3.7121 1.99453 0
M  V30 16016 H 1496.9 -3.08659 0.975272 0
M  V30 16017 H 1495.81 -2.12082 3.08175 0
M  V30 16018 H 1497.14 -2.80654 4.04344 0
M  V30 16019 N 1498.79 -1.41931 -0.685074 0
M  V30 16020 C 1499.74 -1.44604 -1.79884 0
M  V30 16021 C 1500.71 -0.299166 -1.63384 0
M  V30 16022 O 1501.9 -0.501749 -1.84085 0
M  V30 16023 C 1499.04 -1.3442 -3.17845 0
M  V30 16024 C 1498.15 -2.59061 -3.45704 0
M  V30 16025 C 1497.28 -2.41094 -4.73336 0
M  V30 16026 C 1496.32 -3.61159 -4.94197 0
M  V30 16027 N 1495.46 -3.42198 -6.13062 0
M  V30 16028 H 1500.3 -2.39788 -1.76934 0
M  V30 16029 H 1497.84 -1.1906 -0.863891 0
M  V30 16030 H 1499.79 -1.26515 -3.97555 0
M  V30 16031 H 1498.42 -0.42838 -3.19945 0
M  V30 16032 H 1497.48 -2.77374 -2.60322 0
M  V30 16033 H 1498.79 -3.48341 -3.57016 0
M  V30 16034 H 1497.94 -2.30717 -5.61119 0
M  V30 16035 H 1496.68 -1.49288 -4.64289 0
M  V30 16036 H 1495.69 -3.7198 -4.04859 0
M  V30 16037 H 1496.91 -4.53933 -5.05096 0
M  V30 16038 H 1494.86 -2.531 -6.05208 0
M  V30 16039 H 1494.77 -4.25059 -6.25189 0
M  V30 16040 H 1496.04 -3.35612 -7.03551 0
M  V30 16041 N 1500.27 0.920374 -1.27933 0
M  V30 16042 C 1501.18 2.05525 -1.13123 0
M  V30 16043 C 1502.2 1.73899 -0.059421 0
M  V30 16044 O 1503.37 1.99617 -0.267386 0
M  V30 16045 C 1500.44 3.37637 -0.787551 0
M  V30 16046 C 1499.5 3.82914 -1.94101 0
M  V30 16047 C 1498.73 5.08721 -1.61364 0
M  V30 16048 O 1498.96 5.6798 -0.524918 0
M  V30 16049 O 1497.89 5.4955 -2.45517 0
M  V30 16050 H 1501.72 2.20935 -2.08378 0
M  V30 16051 H 1499.3 1.04071 -1.07189 0
M  V30 16052 H 1501.18 4.16968 -0.609544 0
M  V30 16053 H 1499.86 3.23417 0.135407 0
M  V30 16054 H 1498.76 3.04438 -2.17413 0
M  V30 16055 H 1500.1 4.01687 -2.84444 0
M  V30 16056 N 1501.75 1.10074 1.1279 0
M  V30 16057 C 1502.68 0.768146 2.20503 0
M  V30 16058 C 1503.66 -0.257199 1.68144 0
M  V30 16059 O 1504.85 -0.12379 1.93805 0
M  V30 16060 C 1501.98 0.195125 3.46751 0
M  V30 16061 C 1500.93 1.15074 4.1224 0
M  V30 16062 C 1500.26 0.439098 5.32894 0
M  V30 16063 C 1501.56 2.49584 4.58808 0
M  V30 16064 H 1503.25 1.66876 2.48581 0
M  V30 16065 H 1500.8 0.803806 1.19478 0
M  V30 16066 H 1502.75 -0.0496695 4.21371 0
M  V30 16067 H 1501.47 -0.740717 3.1809 0
M  V30 16068 H 1500.13 1.38092 3.39597 0
M  V30 16069 H 1499.78 -0.501096 5.00498 0
M  V30 16070 H 1499.48 1.07632 5.77658 0
M  V30 16071 H 1501 0.202761 6.10263 0
M  V30 16072 H 1502.42 2.30736 5.24818 0
M  V30 16073 H 1500.81 3.09157 5.14336 0
M  V30 16074 H 1501.88 3.09857 3.72984 0
M  V30 16075 N 1503.23 -1.30138 0.888926 0
M  V30 16076 C 1504.64 -1.48552 0.583486 0
M  V30 16077 C 1504.84 -1.81376 -0.877781 0
M  V30 16078 O 1503.9 -1.90374 -1.65873 0
M  V30 16079 C 1505.21 -2.60613 1.50004 0
M  V30 16080 C 1506.76 -2.74493 1.50409 0
M  V30 16081 C 1507.24 -3.89672 2.40666 0
M  V30 16082 N 1508.73 -3.96988 2.38652 0
M  V30 16083 C 1509.46 -4.85429 3.05199 0
M  V30 16084 N 1508.96 -5.78638 3.80985 0
M  V30 16085 N 1510.75 -4.78831 2.9441 0
M  V30 16086 H 1502.9 -1.07105 1.83418 0
M  V30 16087 H 1505.16 -0.530991 0.785336 0
M  V30 16088 H 1504.87 -2.43191 2.54069 0
M  V30 16089 H 1504.74 -3.5718 1.21254 0
M  V30 16090 H 1507.13 -2.91318 0.470933 0
M  V30 16091 H 1507.21 -1.78535 1.83191 0
M  V30 16092 H 1506.86 -3.73603 3.44069 0
M  V30 16093 H 1506.79 -4.84975 2.05198 0
M  V30 16094 H 1509.28 -3.30313 1.83581 0
M  V30 16095 H 1509.59 -6.42894 4.28844 0
M  V30 16096 H 1507.94 -5.78558 3.85092 0
M  V30 16097 H 1511.13 -4.04995 2.34727 0
M  V30 16098 H 1511.3 -5.47547 3.46549 0
M  V30 16099 N 1504.71 -0.650285 -1.43559 0
M  V30 16100 C 1505.65 0.0550615 -2.32535 0
M  V30 16101 C 1506.65 0.81612 -1.48445 0
M  V30 16102 O 1507.85 0.726853 -1.64672 0
M  V30 16103 H 1504.23 0.0365887 -0.751109 0
M  V30 16104 H 1506.2 -0.713146 -2.89753 0
M  V30 16105 C 1504.95 1.00982 -3.32713 0
M  V30 16106 H 1504.27 0.433626 -3.97441 0
M  V30 16107 H 1505.71 1.47249 -3.9761 0
M  V30 16108 C 1504.17 2.10442 -2.63089 0
M  V30 16109 O 1504.7 3.18782 -2.44419 0
M  V30 16110 N 1502.91 1.86915 -2.22511 0
M  V30 16111 H 1502.45 0.988113 -2.37895 0
M  V30 16112 H 1502.41 2.60348 -1.76256 0
M  V30 16113 N 1506.18 1.52647 -0.392018 0
M  V30 16114 C 1507.13 2.23336 0.458815 0
M  V30 16115 C 1508.12 1.23825 1.02743 0
M  V30 16116 O 1509.31 1.49148 0.953089 0
M  V30 16117 C 1506.44 3.04566 1.58412 0
M  V30 16118 C 1505.52 4.11474 1.02711 0
M  V30 16119 N 1505.92 5.05423 0.195282 0
M  V30 16120 C 1504.21 4.26654 1.29934 0
M  V30 16121 C 1504.91 5.81591 -0.112738 0
M  V30 16122 N 1503.89 5.4137 0.491926 0
M  V30 16123 H 1507.69 2.93328 -0.183222 0
M  V30 16124 H 1505.21 1.61145 -0.201476 0
M  V30 16125 H 1507.2 3.53747 2.2061 0
M  V30 16126 H 1505.86 2.36109 2.22896 0
M  V30 16127 H 1506.87 5.17628 -0.167677 0
M  V30 16128 H 1503.55 3.69426 1.94501 0
M  V30 16129 H 1504.94 6.67276 -0.786879 0
M  V30 16130 N 1507.66 0.121921 1.57128 0
M  V30 16131 C 1508.59 -0.857725 2.12546 0
M  V30 16132 C 1509.61 -1.22797 1.06886 0
M  V30 16133 O 1510.8 -1.17641 1.34249 0
M  V30 16134 C 1507.9 -2.15869 2.61254 0
M  V30 16135 C 1507.07 -1.95969 3.91043 0
M  V30 16136 C 1506.13 -3.09822 4.2532 0
M  V30 16137 O 1505.15 -2.82608 4.94087 0
M  V30 16138 N 1506.36 -4.36333 3.82875 0
M  V30 16139 H 1509.12 -0.384239 2.97227 0
M  V30 16140 H 1506.68 -0.062416 1.6178 0
M  V30 16141 H 1508.67 -2.91035 2.81213 0
M  V30 16142 H 1507.24 -2.54557 1.81437 0
M  V30 16143 H 1506.46 -1.04979 3.79965 0
M  V30 16144 H 1507.75 -1.79981 4.75904 0
M  V30 16145 H 1507.15 -4.61318 3.27417 0
M  V30 16146 H 1505.71 -5.08362 4.07936 0
M  V30 16147 N 1509.14 -1.56867 -0.151857 0
M  V30 16148 C 1510.55 -1.72573 -0.712411 0
M  V30 16149 C 1510.9 -0.735557 -1.8189 0
M  V30 16150 O 1510.03 0.09888 -2.16174 0
M  V30 16151 C 1510.62 -3.12906 -1.29905 0
M  V30 16152 C 1509.18 -3.30231 -1.80623 0
M  V30 16153 C 1508.33 -2.68507 -0.692781 0
M  V30 16154 H 1511.28 -1.58528 0.0737603 0
M  V30 16155 H 1511.3 -3.12636 -2.16885 0
M  V30 16156 H 1510.81 -3.84949 -0.493509 0
M  V30 16157 H 1508.91 -2.63176 -2.6376 0
M  V30 16158 H 1509.03 -4.38141 -1.93828 0
M  V30 16159 H 1507.39 -2.28842 -1.11818 0
M  V30 16160 H 1508.17 -3.43151 0.10124 0
M  V30 16161 N 1510.62 0.421051 -1.51871 0
M  V30 16162 C 1512.03 0.758781 -1.40409 0
M  V30 16163 C 1512.23 1.95219 -0.499197 0
M  V30 16164 O 1511.29 2.52469 0.0395216 0
M  V30 16165 C 1512.6 1.02388 -2.82731 0
M  V30 16166 C 1514.15 1.12733 -2.91994 0
M  V30 16167 C 1514.63 1.42527 -4.35259 0
M  V30 16168 N 1516.12 1.49417 -4.38439 0
M  V30 16169 C 1516.85 1.74074 -5.46339 0
M  V30 16170 N 1516.35 1.96414 -6.64375 0
M  V30 16171 N 1518.14 1.7599 -5.33839 0
M  V30 16172 H 1510.29 -0.364682 -2.09246 0
M  V30 16173 H 1512.56 -0.100819 -0.942624 0
M  V30 16174 H 1512.26 0.219491 -3.51014 0
M  V30 16175 H 1512.14 1.94724 -3.23052 0
M  V30 16176 H 1514.52 1.92233 -2.23899 0
M  V30 16177 H 1514.6 0.182611 -2.55147 0
M  V30 16178 H 1514.25 0.635486 -5.03909 0
M  V30 16179 H 1514.18 2.38231 -4.69631 0
M  V30 16180 H 1516.67 1.3399 -3.53348 0
M  V30 16181 H 1516.98 2.14644 -7.42393 0
M  V30 16182 H 1515.33 1.93702 -6.67461 0
M  V30 16183 H 1518.52 1.58067 -4.40605 0
M  V30 16184 H 1518.69 1.94868 -6.18005 0
M  V30 16185 N 1512.1 1.42293 0.677538 0
M  V30 16186 C 1513.01 1.47953 1.82063 0
M  V30 16187 C 1514.02 0.36851 1.70053 0
M  V30 16188 O 1515.2 0.618996 1.91652 0
M  V30 16189 C 1512.26 1.3769 3.18186 0
M  V30 16190 C 1511.32 2.59261 3.42173 0
M  V30 16191 C 1510.56 2.49478 4.71801 0
M  V30 16192 O 1510.78 1.52915 5.49521 0
M  V30 16193 O 1509.71 3.39562 4.96972 0
M  V30 16194 H 1513.54 2.4443 1.80244 0
M  V30 16195 H 1511.13 1.24027 0.832932 0
M  V30 16196 H 1513.01 1.34319 3.9942 0
M  V30 16197 H 1511.68 0.443377 3.20649 0
M  V30 16198 H 1510.59 2.68207 2.60798 0
M  V30 16199 H 1511.92 3.51503 3.44538 0
M  V30 16200 N 1513.57 -0.913576 1.28419 0
M  V30 16201 C 1514.99 -1.47782 1.14094 0
M  V30 16202 C 1515.34 -1.94347 -0.269004 0
M  V30 16203 O 1514.46 -1.82474 -1.16328 0
M  V30 16204 C 1515.06 -2.6859 2.06507 0
M  V30 16205 C 1513.62 -3.21193 1.96245 0
M  V30 16206 C 1512.76 -1.939 1.98238 0
M  V30 16207 H 1515.71 -0.726271 1.41106 0
M  V30 16208 H 1515.73 -3.43858 1.62916 0
M  V30 16209 H 1515.25 -2.34668 3.09116 0
M  V30 16210 H 1513.35 -3.5984 0.966737 0
M  V30 16211 H 1513.46 -3.8643 2.83211 0
M  V30 16212 H 1511.82 -2.11006 1.42648 0
M  V30 16213 H 1512.61 -1.62273 3.02527 0
M  V30 16214 N 1515.05 -1.1067 -1.12204 0
M  V30 16215 C 1516 -0.726979 -2.161 0
M  V30 16216 C 1516.99 0.26505 -1.58702 0
M  V30 16217 O 1518.18 0.0734052 -1.76848 0
M  V30 16218 C 1515.31 -0.163062 -3.42913 0
M  V30 16219 C 1514.39 -1.18228 -4.07287 0
M  V30 16220 N 1514.78 -2.3738 -4.46637 0
M  V30 16221 C 1513.08 -1.02336 -4.34101 0
M  V30 16222 C 1513.78 -3.02318 -4.9697 0
M  V30 16223 N 1512.76 -2.29826 -4.92627 0
M  V30 16224 H 1516.56 -1.63396 -2.44293 0
M  V30 16225 H 1514.08 -0.984782 -1.29135 0
M  V30 16226 H 1516.07 0.127067 -4.16706 0
M  V30 16227 H 1514.73 0.738611 -3.16188 0
M  V30 16228 H 1515.74 -2.74889 -4.38926 0
M  V30 16229 H 1512.42 -0.177452 -4.17123 0
M  V30 16230 H 1513.81 -4.03685 -5.3711 0
M  V30 16231 N 1516.53 1.29665 -0.895815 0
M  V30 16232 C 1517.77 1.975 -0.526604 0
M  V30 16233 C 1518.13 1.69097 0.909403 0
M  V30 16234 O 1519.34 2.30355 1.38529 0
M  V30 16235 C 1517.61 3.48185 -0.806342 0
M  V30 16236 S 1519.17 4.35454 -0.540857 0
M  V30 16237 H 1515.98 0.68359 -0.195513 0
M  V30 16238 H 1518.59 1.57557 -1.15741 0
M  V30 16239 H 1517.29 3.6635 -1.84976 0
M  V30 16240 H 1516.82 3.9306 -0.163499 0
M  V30 16241 H 1518.84 4.92364 0.615817 0
M  V30 16242 N 1518.01 0.657889 1.43212 0
M  V30 16243 C 1519.29 0.102895 1.95329 0
M  V30 16244 C 1519.67 -1.37821 1.59901 0
M  V30 16245 O 1519.01 -2.10602 0.886505 0
M  V30 16246 C 1519.22 0.354075 3.47199 0
M  V30 16247 C 1520.57 0.261511 4.23794 0
M  V30 16248 O 1521.6 0.286889 3.55043 0
M  V30 16249 O 1520.45 0.189209 5.46172 0
M  V30 16250 H 1517.55 -0.00692284 0.826971 0
M  V30 16251 H 1520.09 0.73145 1.53127 0
M  V30 16252 H 1518.87 1.38075 3.6613 0
M  V30 16253 H 1518.49 -0.307321 3.96411 0
M  V30 16254 N 1519.49 -1.52437 0.400108 0
M  V30 16255 C 1520.42 -2.29672 -0.421054 0
M  V30 16256 C 1521.4 -1.33506 -1.05405 0
M  V30 16257 O 1522.58 -1.62408 -1.06477 0
M  V30 16258 C 1519.71 -3.1115 -1.54281 0
M  V30 16259 C 1518.67 -4.1529 -1.0353 0
M  V30 16260 C 1517.99 -4.85058 -2.24996 0
M  V30 16261 C 1519.29 -5.22212 -0.0956529 0
M  V30 16262 H 1520.99 -2.98565 0.2234 0
M  V30 16263 H 1518.53 -1.43588 0.108883 0
M  V30 16264 H 1520.49 -3.63945 -2.12419 0
M  V30 16265 H 1519.21 -2.4001 -2.21501 0
M  V30 16266 H 1517.87 -3.63492 -0.476383 0
M  V30 16267 H 1517.52 -4.10455 -2.9075 0
M  V30 16268 H 1517.22 -5.55452 -1.91694 0
M  V30 16269 H 1518.74 -5.40661 -2.83756 0
M  V30 16270 H 1520.15 -5.70302 -0.585548 0
M  V30 16271 H 1518.55 -5.99917 0.148121 0
M  V30 16272 H 1519.62 -4.77351 0.852296 0
M  V30 16273 N 1520.96 -0.130252 -1.57061 0
M  V30 16274 C 1521.87 0.829198 -2.19457 0
M  V30 16275 C 1522.89 1.2843 -1.17395 0
M  V30 16276 O 1524.07 1.34496 -1.49909 0
M  V30 16277 C 1521.13 2.05727 -2.79065 0
M  V30 16278 C 1520.19 1.65301 -3.962 0
M  V30 16279 C 1519.43 2.82253 -4.52956 0
M  V30 16280 O 1519.65 3.97999 -4.08598 0
M  V30 16281 O 1518.58 2.5869 -5.43473 0
M  V30 16282 H 1522.41 0.328139 -3.01922 0
M  V30 16283 H 1519.99 0.0959361 -1.49092 0
M  V30 16284 H 1521.88 2.7763 -3.17017 0
M  V30 16285 H 1520.55 2.54817 -1.99624 0
M  V30 16286 H 1519.46 0.904712 -3.62996 0
M  V30 16287 H 1520.79 1.20942 -4.7711 0
M  V30 16288 N 1522.44 1.56945 0.143535 0
M  V30 16289 C 1523.67 1.87701 0.870401 0
M  V30 16290 C 1524.09 0.718833 1.7458 0
M  V30 16291 O 1523.44 -0.311286 1.79826 0
M  V30 16292 C 1523.49 3.1773 1.72424 0
M  V30 16293 O 1523.22 4.29086 0.884115 0
M  V30 16294 C 1524.72 3.62024 2.55839 0
M  V30 16295 H 1521.94 0.622083 0.251504 0
M  V30 16296 H 1524.48 2.04052 0.135285 0
M  V30 16297 H 1522.64 3.03122 2.41238 0
M  V30 16298 H 1523.05 5.0346 1.47065 0
M  V30 16299 H 1524.52 4.55834 3.11319 0
M  V30 16300 H 1525 2.87481 3.32041 0
M  V30 16301 H 1525.61 3.79338 1.9231 0
M  V30 16302 N 1523.92 -0.412991 1.52093 0
M  V30 16303 C 1525.15 -1.18667 1.70096 0
M  V30 16304 C 1525.57 -1.83622 0.408012 0
M  V30 16305 O 1524.93 -1.69847 -0.634174 0
M  V30 16306 C 1524.98 -2.22837 2.83507 0
M  V30 16307 O 1524.08 -3.2889 2.48807 0
M  V30 16308 H 1523.42 -0.346581 0.566373 0
M  V30 16309 H 1525.95 -0.484642 1.98777 0
M  V30 16310 H 1525.96 -2.67229 3.08306 0
M  V30 16311 H 1524.64 -1.74942 3.77317 0
M  V30 16312 H 1523.21 -2.89804 2.34665 0
M  V30 16313 N 1525.4 -1.4265 -0.669982 0
M  V30 16314 C 1526.65 -1.43093 -1.42719 0
M  V30 16315 C 1526.97 -0.0501228 -1.94936 0
M  V30 16316 O 1526.24 0.912077 -1.73372 0
M  V30 16317 H 1524.82 -0.526785 -0.529628 0
M  V30 16318 H 1527.48 -1.78113 -0.791324 0
M  V30 16319 H 1526.58 -2.13357 -2.27783 0
M  V30 16320 N 1526.88 0.906753 -1.28902 0
M  V30 16321 C 1528.11 1.69019 -1.19333 0
M  V30 16322 C 1528.52 1.87176 0.247065 0
M  V30 16323 O 1527.88 1.40376 1.16623 0
M  V30 16324 C 1527.93 3.07854 -1.89495 0
M  V30 16325 O 1527.65 2.90531 -3.27908 0
M  V30 16326 C 1529.15 4.02246 -1.86314 0
M  V30 16327 H 1526.37 0.528119 -0.413922 0
M  V30 16328 H 1528.91 1.13441 -1.70151 0
M  V30 16329 H 1527.07 3.60228 -1.42529 0
M  V30 16330 H 1527.48 3.78451 -3.63146 0
M  V30 16331 H 1528.96 4.97104 -2.39983 0
M  V30 16332 H 1529.43 4.31149 -0.837071 0
M  V30 16333 H 1530.04 3.55803 -2.3299 0
M  V30 16334 N 1528.36 1.11264 1.11616 0
M  V30 16335 C 1529.6 0.861639 1.83585 0
M  V30 16336 C 1529.93 -0.611221 1.8433 0
M  V30 16337 O 1529.21 -1.45116 1.29505 0
M  V30 16338 C 1529.49 1.42157 3.30852 0
M  V30 16339 C 1529.35 2.96192 3.38512 0
M  V30 16340 C 1530.66 1.07099 4.2687 0
M  V30 16341 H 1527.78 0.314464 0.666545 0
M  V30 16342 H 1530.43 1.37722 1.30892 0
M  V30 16343 H 1528.58 0.983054 3.75857 0
M  V30 16344 H 1530.25 3.48634 3.0208 0
M  V30 16345 H 1528.49 3.32353 2.7879 0
M  V30 16346 H 1529.16 3.30457 4.42156 0
M  V30 16347 H 1531.64 1.44952 3.90036 0
M  V30 16348 H 1530.51 1.48957 5.28302 0
M  V30 16349 H 1530.77 -0.018482 4.42096 0
M  V30 16350 N 1529.83 -1.29188 0.902679 0
M  V30 16351 C 1531.06 -1.99576 0.545635 0
M  V30 16352 C 1531.48 -1.67541 -0.870372 0
M  V30 16353 O 1530.83 -0.922082 -1.57493 0
M  V30 16354 C 1530.88 -3.54013 0.731916 0
M  V30 16355 O 1530.61 -3.84914 2.09219 0
M  V30 16356 C 1532.11 -4.41666 0.38022 0
M  V30 16357 H 1529.33 -0.637593 0.209083 0
M  V30 16358 H 1531.87 -1.64652 1.21284 0
M  V30 16359 H 1530.03 -3.87239 0.111849 0
M  V30 16360 H 1530.44 -4.79581 2.12373 0
M  V30 16361 H 1531.91 -5.49138 0.561382 0
M  V30 16362 H 1532.39 -4.33858 -0.682915 0
M  V30 16363 H 1533 -4.13918 0.977354 0
M  V30 16364 N 1531.31 -0.665475 -1.42861 0
M  V30 16365 C 1532.56 -0.184156 -2.01962 0
M  V30 16366 C 1532.89 1.20301 -1.52451 0
M  V30 16367 O 1532.17 1.80573 -0.722756 0
M  V30 16368 C 1532.45 -0.208497 -3.59496 0
M  V30 16369 C 1532.3 -1.63045 -4.19209 0
M  V30 16370 C 1533.62 0.448421 -4.3781 0
M  V30 16371 H 1530.74 -0.0683924 -0.73382 0
M  V30 16372 H 1533.38 -0.84849 -1.70002 0
M  V30 16373 H 1531.53 0.357179 -3.86855 0
M  V30 16374 H 1533.2 -2.24766 -4.02837 0
M  V30 16375 H 1531.45 -2.17401 -3.75392 0
M  V30 16376 H 1532.12 -1.59924 -5.28326 0
M  V30 16377 H 1534.59 -0.0330053 -4.16087 0
M  V30 16378 H 1533.47 0.400713 -5.47435 0
M  V30 16379 H 1533.73 1.52454 -4.14982 0
M  V30 16380 N 1532.79 1.52222 -0.408187 0
M  V30 16381 C 1534.04 2.01404 0.167574 0
M  V30 16382 C 1534.36 1.29572 1.45726 0
M  V30 16383 O 1533.63 0.421363 1.91315 0
M  V30 16384 H 1532.21 0.744174 0.0649156 0
M  V30 16385 H 1534.87 1.87148 -0.544212 0
M  V30 16386 H 1533.97 3.09966 0.36436 0
M  V30 16387 N 1534.27 0.138579 1.5699 0
M  V30 16388 C 1535.68 -0.383633 1.82716 0
M  V30 16389 C 1536.03 -1.65304 1.05684 0
M  V30 16390 O 1535.15 -2.14318 0.299488 0
M  V30 16391 C 1535.75 -0.7028 3.3143 0
M  V30 16392 C 1534.31 -1.16957 3.57768 0
M  V30 16393 C 1533.46 -0.188295 2.7666 0
M  V30 16394 H 1536.41 0.363415 1.54483 0
M  V30 16395 H 1536.43 -1.55832 3.47126 0
M  V30 16396 H 1535.94 0.221271 3.87469 0
M  V30 16397 H 1534.04 -2.10987 3.07108 0
M  V30 16398 H 1534.15 -1.10136 4.66269 0
M  V30 16399 H 1532.52 -0.679255 2.45475 0
M  V30 16400 H 1533.3 0.729218 3.35466 0
M  V30 16401 N 1535.75 -1.57019 -0.13521 0
M  V30 16402 C 1536.68 -1.94319 -1.19646 0
M  V30 16403 C 1537.66 -0.810603 -1.40954 0
M  V30 16404 O 1538.84 -1.0673 -1.55374 0
M  V30 16405 C 1535.97 -2.22542 -2.55328 0
M  V30 16406 C 1535.01 -3.45151 -2.50546 0
M  V30 16407 S 1535.85 -4.98307 -1.96089 0
M  V30 16408 C 1537 -5.29665 -3.33476 0
M  V30 16409 H 1537.24 -2.8403 -0.878294 0
M  V30 16410 H 1534.77 -1.5058 -0.341313 0
M  V30 16411 H 1536.73 -2.39482 -3.33405 0
M  V30 16412 H 1535.39 -1.33474 -2.8433 0
M  V30 16413 H 1534.58 -3.62213 -3.50454 0
M  V30 16414 H 1534.18 -3.27514 -1.80583 0
M  V30 16415 H 1536.47 -5.23854 -4.29631 0
M  V30 16416 H 1537.42 -6.31031 -3.21256 0
M  V30 16417 H 1537.83 -4.57161 -3.31156 0
M  V30 16418 N 1537.22 0.404919 -1.52309 0
M  V30 16419 C 1538.17 1.49281 -1.72334 0
M  V30 16420 C 1539.16 1.50188 -0.577267 0
M  V30 16421 O 1540.35 1.56093 -0.834497 0
M  V30 16422 C 1537.48 2.87166 -1.88123 0
M  V30 16423 C 1536.57 2.90891 -3.08615 0
M  V30 16424 N 1536.96 2.64307 -4.31249 0
M  V30 16425 C 1535.25 3.2206 -3.08535 0
M  V30 16426 C 1535.96 2.74708 -5.12748 0
M  V30 16427 N 1534.93 3.07766 -4.48086 0
M  V30 16428 H 1538.73 1.2753 -2.64789 0
M  V30 16429 H 1536.25 0.61268 -1.50399 0
M  V30 16430 H 1538.24 3.65473 -2.00587 0
M  V30 16431 H 1536.9 3.09913 -0.968712 0
M  V30 16432 H 1537.92 2.38624 -4.59651 0
M  V30 16433 H 1534.59 3.50373 -2.27035 0
M  V30 16434 H 1535.98 2.57835 -6.2046 0
M  V30 16435 N 1538.7 1.43003 0.662408 0
M  V30 16436 C 1539.93 1.47555 1.45035 0
M  V30 16437 C 1540.35 0.0906083 1.88582 0
M  V30 16438 O 1539.7 -0.897271 1.58919 0
M  V30 16439 C 1539.75 2.41345 2.69137 0
M  V30 16440 O 1539.47 3.74453 2.27413 0
M  V30 16441 C 1540.98 2.55045 3.62584 0
M  V30 16442 H 1538.2 0.501448 0.44586 0
M  V30 16443 H 1540.74 1.8765 0.812879 0
M  V30 16444 H 1538.89 2.0447 3.29045 0
M  V30 16445 H 1539.31 4.24801 3.07643 0
M  V30 16446 H 1540.78 3.24766 4.46353 0
M  V30 16447 H 1541.26 1.59235 4.09318 0
M  V30 16448 H 1541.87 2.92693 3.08563 0
M  V30 16449 N 1540.18 -0.899904 1.29381 0
M  V30 16450 C 1541.11 -2.02045 1.17047 0
M  V30 16451 C 1542.09 -1.69977 0.0647354 0
M  V30 16452 O 1543.28 -1.92659 0.244173 0
M  V30 16453 C 1540.41 -3.36839 0.845991 0
M  V30 16454 C 1539.36 -3.83117 1.90802 0
M  V30 16455 C 1538.69 -5.15032 1.43686 0
M  V30 16456 C 1539.99 -4.03464 3.31684 0
M  V30 16457 H 1541.68 -2.12623 2.10789 0
M  V30 16458 H 1539.23 -1.02162 1.01484 0
M  V30 16459 H 1541.18 -4.14737 0.746413 0
M  V30 16460 H 1539.9 -3.26352 -0.127125 0
M  V30 16461 H 1538.56 -3.07435 1.99698 0
M  V30 16462 H 1538.21 -5.00961 0.452422 0
M  V30 16463 H 1537.91 -5.46967 2.14711 0
M  V30 16464 H 1539.43 -5.95472 1.35078 0
M  V30 16465 H 1540.85 -4.71845 3.25631 0
M  V30 16466 H 1539.25 -4.46752 4.00665 0
M  V30 16467 H 1540.32 -3.07807 3.74677 0
M  V30 16468 N 1541.66 -1.11854 -1.11024 0
M  V30 16469 C 1543.07 -0.885443 -1.64368 0
M  V30 16470 C 1543.42 0.581455 -1.87386 0
M  V30 16471 O 1542.55 1.44452 -1.61129 0
M  V30 16472 C 1543.14 -1.60082 -2.98595 0
M  V30 16473 C 1541.7 -1.41403 -3.4883 0
M  V30 16474 C 1540.85 -1.64069 -2.23555 0
M  V30 16475 H 1543.8 -1.27418 -0.94606 0
M  V30 16476 H 1543.82 -1.04832 -3.65774 0
M  V30 16477 H 1543.33 -2.66842 -2.8181 0
M  V30 16478 H 1541.43 -0.368727 -3.70771 0
M  V30 16479 H 1541.54 -2.16603 -4.27341 0
M  V30 16480 H 1539.91 -1.06437 -2.31394 0
M  V30 16481 H 1540.69 -2.72112 -2.09308 0
M  V30 16482 N 1543.14 1.28707 -0.909517 0
M  V30 16483 C 1544.36 1.99821 -0.555557 0
M  V30 16484 C 1544.79 1.67549 0.854931 0
M  V30 16485 O 1544.14 0.905521 1.57067 0
M  V30 16486 C 1544.19 3.52361 -0.766438 0
M  V30 16487 O 1543.3 4.12022 0.17654 0
M  V30 16488 H 1542.64 0.627918 -0.215905 0
M  V30 16489 H 1545.17 1.63965 -1.2238 0
M  V30 16490 H 1545.18 4.02379 -0.674894 0
M  V30 16491 H 1543.85 3.75184 -1.7947 0
M  V30 16492 H 1542.43 3.72882 0.0366216 0
M  V30 16493 N 1544.61 0.673042 1.42506 0
M  V30 16494 C 1545.84 0.202922 2.05902 0
M  V30 16495 C 1546.26 -1.13923 1.50556 0
M  V30 16496 O 1545.61 -1.70735 0.644662 0
M  V30 16497 C 1545.67 0.12735 3.61276 0
M  V30 16498 O 1545.39 1.41646 4.1457 0
M  V30 16499 C 1546.89 -0.366477 4.41783 0
M  V30 16500 H 1544.11 0.0991021 0.663641 0
M  V30 16501 H 1546.65 0.919282 1.82673 0
M  V30 16502 H 1544.81 -0.539687 3.83622 0
M  V30 16503 H 1545.22 1.28866 5.08423 0
M  V30 16504 H 1546.69 -0.368267 5.5077 0
M  V30 16505 H 1547.17 -1.40142 4.16241 0
M  V30 16506 H 1547.78 0.268761 4.2445 0
M  V30 16507 N 1546.09 -1.52004 0.416254 0
M  V30 16508 C 1547.33 -2.03799 -0.156638 0
M  V30 16509 C 1547.7 -1.29476 -1.41775 0
M  V30 16510 O 1548.9 -1.71534 -2.06953 0
M  V30 16511 C 1547.17 -3.55251 -0.391311 0
M  V30 16512 S 1548.73 -4.28818 -0.93063 0
M  V30 16513 H 1545.55 -0.709775 -0.0417176 0
M  V30 16514 H 1548.15 -1.86981 0.570812 0
M  V30 16515 H 1546.85 -4.06921 0.533206 0
M  V30 16516 H 1546.38 -3.76325 -1.14644 0
M  V30 16517 H 1548.4 -4.44244 -2.21046 0
M  V30 16518 N 1547.57 -0.146903 -1.56914 0
M  V30 16519 C 1548.5 0.788924 -2.19769 0
M  V30 16520 C 1549.48 1.25712 -1.14589 0
M  V30 16521 O 1550.67 1.3147 -1.42931 0
M  V30 16522 C 1547.8 2.02824 -2.81921 0
M  V30 16523 C 1546.75 1.69683 -3.92927 0
M  V30 16524 C 1546.08 3.00877 -4.42015 0
M  V30 16525 C 1547.38 0.943559 -5.13706 0
M  V30 16526 H 1549.07 0.265076 -2.98224 0
M  V30 16527 H 1546.62 0.126057 -1.43447 0
M  V30 16528 H 1548.57 2.68773 -3.2456 0
M  V30 16529 H 1547.29 2.57581 -2.00797 0
M  V30 16530 H 1545.95 1.06112 -3.50907 0
M  V30 16531 H 1545.6 3.53625 -3.57713 0
M  V30 16532 H 1545.3 2.79466 -5.16888 0
M  V30 16533 H 1546.82 3.67897 -4.87323 0
M  V30 16534 H 1548.24 1.50513 -5.5319 0
M  V30 16535 H 1546.64 0.829387 -5.94341 0
M  V30 16536 H 1547.71 -0.0647228 -4.84857 0
M  V30 16537 N 1549.05 1.57088 0.126881 0
M  V30 16538 C 1549.98 1.96399 1.18153 0
M  V30 16539 C 1550.99 0.862288 1.38089 0
M  V30 16540 O 1552.18 1.14062 1.37303 0
M  V30 16541 C 1549.28 2.24026 2.54295 0
M  V30 16542 C 1548.46 3.5533 2.55068 0
M  V30 16543 C 1547.51 3.71261 3.72896 0
M  V30 16544 O 1546.54 4.43454 3.56844 0
M  V30 16545 N 1547.74 3.09435 4.91152 0
M  V30 16546 H 1550.51 2.87476 0.847217 0
M  V30 16547 H 1548.07 1.58781 0.316242 0
M  V30 16548 H 1550.06 2.31906 3.31665 0
M  V30 16549 H 1548.63 1.39114 2.79939 0
M  V30 16550 H 1547.85 3.58708 1.63468 0
M  V30 16551 H 1549.14 4.41649 2.52634 0
M  V30 16552 H 1548.54 2.50736 5.07097 0
M  V30 16553 H 1547.09 3.22848 5.66226 0
M  V30 16554 N 1550.53 -0.396836 1.52522 0
M  V30 16555 C 1551.47 -1.48427 1.76743 0
M  V30 16556 C 1552.44 -1.54481 0.610321 0
M  V30 16557 O 1553.63 -1.7086 0.849201 0
M  V30 16558 C 1550.77 -2.85744 1.93505 0
M  V30 16559 C 1549.88 -2.88904 3.21183 0
M  V30 16560 C 1549.02 -4.17598 3.28307 0
M  V30 16561 C 1548.06 -4.14779 4.50138 0
M  V30 16562 N 1547.19 -5.35065 4.54587 0
M  V30 16563 H 1552.03 -1.27075 2.69548 0
M  V30 16564 H 1549.57 -0.61661 1.33553 0
M  V30 16565 H 1551.53 -3.65474 2.01208 0
M  V30 16566 H 1550.16 -3.05564 1.04069 0
M  V30 16567 H 1549.21 -2.01592 3.22591 0
M  V30 16568 H 1550.52 -2.82688 4.10961 0
M  V30 16569 H 1549.68 -5.05727 3.35149 0
M  V30 16570 H 1548.41 -4.26526 2.36489 0
M  V30 16571 H 1547.42 -3.25039 4.4343 0
M  V30 16572 H 1548.64 -4.07481 5.43264 0
M  V30 16573 H 1546.59 -5.44638 3.65658 0
M  V30 16574 H 1546.51 -5.30894 5.38227 0
M  V30 16575 H 1547.78 -6.25114 4.65675 0
M  V30 16576 N 1552.01 -1.43353 -0.654814 0
M  V30 16577 C 1553.25 -1.451 -1.41682 0
M  V30 16578 C 1553.58 -0.0743864 -1.94057 0
M  V30 16579 O 1552.86 0.904515 -1.72188 0
M  V30 16580 C 1553.14 -2.49204 -2.59941 0
M  V30 16581 C 1553 -3.96134 -2.13069 0
M  V30 16582 C 1554.31 -2.50064 -3.62155 0
M  V30 16583 H 1551.43 -0.528339 -0.513836 0
M  V30 16584 H 1554.08 -1.74892 -0.742489 0
M  V30 16585 H 1552.23 -2.2393 -3.1747 0
M  V30 16586 H 1553.9 -4.32459 -1.60552 0
M  V30 16587 H 1552.14 -4.09042 -1.44455 0
M  V30 16588 H 1552.81 -4.64585 -2.98101 0
M  V30 16589 H 1555.29 -2.72587 -3.14382 0
M  V30 16590 H 1554.16 -3.24849 -4.42452 0
M  V30 16591 H 1554.42 -1.53385 -4.14639 0
M  V30 16592 N 1553.48 0.89303 -1.29857 0
M  V30 16593 C 1554.39 2.03079 -1.17457 0
M  V30 16594 C 1555.41 1.73733 -0.0962941 0
M  V30 16595 O 1556.59 1.99005 -0.309667 0
M  V30 16596 C 1553.65 3.3589 -0.858991 0
M  V30 16597 C 1552.71 3.78711 -2.0218 0
M  V30 16598 C 1551.94 5.05184 -1.72118 0
M  V30 16599 O 1552.17 5.66738 -0.645276 0
M  V30 16600 O 1551.1 5.44218 -2.57119 0
M  V30 16601 H 1554.93 2.16465 -2.13017 0
M  V30 16602 H 1552.51 1.01774 -1.09373 0
M  V30 16603 H 1554.39 4.15582 -0.697852 0
M  V30 16604 H 1553.07 3.23631 0.0667756 0
M  V30 16605 H 1551.98 2.99758 -2.23822 0
M  V30 16606 H 1553.31 3.95563 -2.929 0
M  V30 16607 N 1554.96 1.12442 1.10429 0
M  V30 16608 C 1555.87 0.805377 2.20343 0
M  V30 16609 C 1556.89 -0.205836 1.72778 0
M  V30 16610 O 1558.06 -0.0394195 2.01361 0
M  V30 16611 C 1555.13 0.264711 3.45688 0
M  V30 16612 C 1554.19 1.33586 4.07987 0
M  V30 16613 C 1553.42 0.8209 5.27349 0
M  V30 16614 O 1553.65 -0.345303 5.69354 0
M  V30 16615 O 1552.58 1.59052 5.80505 0
M  V30 16616 H 1556.41 1.7234 2.50065 0
M  V30 16617 H 1553.99 0.901084 1.19167 0
M  V30 16618 H 1555.87 -0.0319164 4.21388 0
M  V30 16619 H 1554.55 -0.625869 3.17592 0
M  V30 16620 H 1553.45 1.68566 3.33971 0
M  V30 16621 H 1554.79 2.20021 4.40286 0
M  V30 16622 N 1556.44 -1.28223 0.91633 0
M  V30 16623 C 1557.37 -2.26291 0.363986 0
M  V30 16624 C 1558.38 -1.54964 -0.498988 0
M  V30 16625 O 1559.57 -1.75726 -0.31345 0
M  V30 16626 C 1556.67 -3.35219 -0.498126 0
M  V30 16627 C 1555.85 -4.36054 0.34293 0
M  V30 16628 C 1554.91 -5.24232 -0.454688 0
M  V30 16629 O 1553.93 -5.69043 0.133649 0
M  V30 16630 N 1555.13 -5.53268 -1.75714 0
M  V30 16631 H 1557.9 -2.74323 1.20694 0
M  V30 16632 H 1555.46 -1.41731 0.782551 0
M  V30 16633 H 1557.45 -3.91148 -1.03852 0
M  V30 16634 H 1556.02 -2.86876 -1.2418 0
M  V30 16635 H 1555.24 -3.7955 1.06468 0
M  V30 16636 H 1556.53 -5.00444 0.918322 0
M  V30 16637 H 1555.93 -5.18698 -2.25762 0
M  V30 16638 H 1554.48 -6.11943 -2.2443 0
M  V30 16639 N 1557.92 -0.68059 -1.42147 0
M  V30 16640 C 1559.33 -0.281841 -1.8456 0
M  V30 16641 C 1559.68 1.17714 -1.56965 0
M  V30 16642 O 1558.8 1.90185 -1.03241 0
M  V30 16643 C 1559.4 -0.504751 -3.35019 0
M  V30 16644 C 1557.96 -0.160067 -3.76059 0
M  V30 16645 C 1557.11 -0.794377 -2.65678 0
M  V30 16646 H 1560.06 -0.882337 -1.31911 0
M  V30 16647 H 1560.08 0.241308 -3.79734 0
M  V30 16648 H 1559.59 -1.56669 -3.55072 0
M  V30 16649 H 1557.69 0.898202 -3.61612 0
M  V30 16650 H 1557.8 -0.60463 -4.75269 0
M  V30 16651 H 1556.17 -0.225213 -2.53702 0
M  V30 16652 H 1556.95 -1.85989 -2.88553 0
M  V30 16653 N 1559.4 1.51781 -0.424309 0
M  V30 16654 C 1560.31 2.31162 0.40015 0
M  V30 16655 C 1561.32 1.39523 1.03969 0
M  V30 16656 O 1562.5 1.72597 1.0379 0
M  V30 16657 C 1559.56 3.12875 1.49366 0
M  V30 16658 C 1558.62 4.20275 0.875616 0
M  V30 16659 C 1557.86 4.98082 1.91702 0
M  V30 16660 O 1558.08 4.76365 3.13739 0
M  V30 16661 O 1557.01 5.82527 1.5148 0
M  V30 16662 H 1560.84 3.0269 -0.247529 0
M  V30 16663 H 1558.42 1.48223 -0.187146 0
M  V30 16664 H 1560.31 3.63714 2.12815 0
M  V30 16665 H 1558.98 2.44125 2.12567 0
M  V30 16666 H 1557.89 3.73546 0.203429 0
M  V30 16667 H 1559.22 4.91361 0.287306 0
M  V30 16668 N 1560.87 0.155222 1.56834 0
M  V30 16669 C 1562.15 -0.539327 1.88018 0
M  V30 16670 C 1562.53 -1.8241 1.06253 0
M  V30 16671 O 1561.88 -2.27996 0.151721 0
M  V30 16672 C 1562.09 -0.796826 3.39782 0
M  V30 16673 C 1563.44 -1.13397 4.09178 0
M  V30 16674 O 1564.46 -0.885907 3.45007 0
M  V30 16675 O 1563.32 -1.60117 5.22518 0
M  V30 16676 H 1560.41 -0.276066 0.779562 0
M  V30 16677 H 1562.96 0.192451 1.68605 0
M  V30 16678 H 1561.73 0.112097 3.91139 0
M  V30 16679 H 1561.35 -1.5825 3.6475 0
M  V30 16680 N 1562.35 -1.57153 -0.118549 0
M  V30 16681 C 1563.31 -1.99438 -1.12947 0
M  V30 16682 C 1564.31 -0.884588 -1.34282 0
M  V30 16683 O 1565.5 -1.15062 -1.30792 0
M  V30 16684 C 1562.64 -2.33492 -2.48384 0
M  V30 16685 H 1563.83 -2.89952 -0.766034 0
M  V30 16686 H 1561.38 -1.5203 -0.362858 0
M  V30 16687 H 1562.12 -1.45859 -2.89647 0
M  V30 16688 H 1561.9 -3.14433 -2.34252 0
M  V30 16689 H 1563.39 -2.66945 -3.21139 0
M  V30 16690 N 1563.83 0.388742 -1.5273 0
M  V30 16691 C 1565.11 1.14799 -1.58368 0
M  V30 16692 C 1565.49 2.07706 -0.377018 0
M  V30 16693 O 1564.83 2.1951 0.634634 0
M  V30 16694 C 1565.04 1.90745 -2.92262 0
M  V30 16695 C 1566.39 2.46098 -3.46007 0
M  V30 16696 O 1567.42 2.00901 -2.94138 0
M  V30 16697 O 1566.28 3.28658 -4.3663 0
M  V30 16698 H 1563.37 0.52529 -0.638748 0
M  V30 16699 H 1565.92 0.393874 -1.65066 0
M  V30 16700 H 1564.69 1.22806 -3.7153 0
M  V30 16701 H 1564.31 2.73118 -2.88951 0
M  V30 16702 N 1565.31 1.43698 0.647203 0
M  V30 16703 C 1566.26 1.49599 1.78109 0
M  V30 16704 C 1567.25 0.369047 1.65331 0
M  V30 16705 O 1568.46 0.543303 1.71605 0
M  V30 16706 H 1564.83 0.46911 0.587741 0
M  V30 16707 H 1566.8 2.45064 1.70253 0
M  V30 16708 C 1565.55 1.44192 3.16392 0
M  V30 16709 H 1564.87 2.30216 3.26865 0
M  V30 16710 H 1566.31 1.52382 3.95671 0
M  V30 16711 C 1564.77 0.16036 3.36518 0
M  V30 16712 O 1565.3 -0.77593 3.94135 0
M  V30 16713 N 1563.51 0.0686236 2.90519 0
M  V30 16714 H 1563.06 0.831363 2.43816 0
M  V30 16715 H 1563.01 -0.78814 3.04361 0
M  V30 16716 N 1566.79 -0.886131 1.30328 0
M  V30 16717 C 1567.72 -1.99733 1.12425 0
M  V30 16718 C 1568.73 -1.62659 0.067824 0
M  V30 16719 O 1569.92 -1.75721 0.313723 0
M  V30 16720 C 1567.02 -3.31757 0.692122 0
M  V30 16721 C 1566.19 -3.97276 1.83004 0
M  V30 16722 C 1565.25 -5.076 1.38666 0
M  V30 16723 O 1564.28 -5.29295 2.09368 0
M  V30 16724 N 1565.48 -5.79895 0.265039 0
M  V30 16725 H 1568.25 -2.15643 2.0813 0
M  V30 16726 H 1565.81 -1.05915 1.22449 0
M  V30 16727 H 1567.8 -4.02926 0.37854 0
M  V30 16728 H 1566.37 -3.12122 -0.172864 0
M  V30 16729 H 1565.59 -3.19295 2.3118 0
M  V30 16730 H 1566.88 -4.37789 2.59264 0
M  V30 16731 H 1566.27 -5.64771 -0.324121 0
M  V30 16732 H 1564.83 -6.51799 0.0109044 0
M  V30 16733 N 1568.26 -1.13026 -1.09832 0
M  V30 16734 C 1569.68 -0.867598 -1.33959 0
M  V30 16735 C 1569.88 0.499047 -1.95222 0
M  V30 16736 O 1568.94 1.24644 -2.19591 0
M  V30 16737 C 1570.25 -1.98893 -2.25526 0
M  V30 16738 C 1571.8 -2.02054 -2.39047 0
M  V30 16739 C 1572.27 -3.13438 -3.33947 0
M  V30 16740 N 1573.76 -3.12921 -3.41518 0
M  V30 16741 C 1574.5 -3.95746 -4.14937 0
M  V30 16742 N 1573.99 -4.88574 -4.91189 0
M  V30 16743 N 1575.79 -3.8386 -4.10619 0
M  V30 16744 H 1567.94 -2.01072 -0.684382 0
M  V30 16745 H 1570.2 -0.875341 -0.363982 0
M  V30 16746 H 1569.91 -2.97405 -1.87731 0
M  V30 16747 H 1569.78 -1.89948 -3.25883 0
M  V30 16748 H 1572.17 -1.04158 -2.76107 0
M  V30 16749 H 1572.25 -2.15072 -1.38483 0
M  V30 16750 H 1571.89 -4.11571 -2.9761 0
M  V30 16751 H 1571.82 -2.97658 -4.34405 0
M  V30 16752 H 1574.31 -2.45677 -2.87144 0
M  V30 16753 H 1574.63 -5.48269 -5.44629 0
M  V30 16754 H 1572.97 -4.92583 -4.90292 0
M  V30 16755 H 1576.16 -3.10669 -3.50146 0
M  V30 16756 H 1576.34 -4.48637 -4.67577 0
M  V30 16757 N 1569.74 1.27735 -0.923117 0
M  V30 16758 C 1570.69 2.28975 -0.409065 0
M  V30 16759 C 1571.68 1.61723 0.504194 0
M  V30 16760 O 1572.89 1.75848 0.384402 0
M  V30 16761 H 1569.27 0.743354 -0.113705 0
M  V30 16762 H 1571.24 2.69751 -1.27582 0
M  V30 16763 C 1569.99 3.46158 0.327099 0
M  V30 16764 H 1569.31 3.98117 -0.366444 0
M  V30 16765 H 1570.75 4.18968 0.65128 0
M  V30 16766 C 1569.21 2.99724 1.53842 0
M  V30 16767 O 1569.74 3.03001 2.6373 0
M  V30 16768 N 1567.94 2.55274 1.38865 0
M  V30 16769 H 1567.49 2.52807 0.494629 0
M  V30 16770 H 1567.45 2.24567 2.20039 0
M  V30 16771 N 1571.22 0.688118 1.41784 0
M  V30 16772 C 1572.47 0.216263 2.01644 0
M  V30 16773 C 1572.8 -1.17861 1.54345 0
M  V30 16774 O 1572.07 -1.794 0.751392 0
M  V30 16775 C 1572.36 0.265663 3.59119 0
M  V30 16776 C 1572.21 1.69694 4.16562 0
M  V30 16777 C 1573.53 -0.378713 4.38468 0
M  V30 16778 H 1570.65 0.0800582 0.732639 0
M  V30 16779 H 1573.29 0.875428 1.68631 0
M  V30 16780 H 1571.44 -0.295588 3.87374 0
M  V30 16781 H 1573.11 2.31146 3.9921 0
M  V30 16782 H 1571.36 2.23345 3.71886 0
M  V30 16783 H 1572.03 1.68309 5.25715 0
M  V30 16784 H 1574.5 0.0991969 4.15982 0
M  V30 16785 H 1573.38 -0.31357 5.48004 0
M  V30 16786 H 1573.64 -1.45832 4.17355 0
M  V30 16787 N 1572.7 -1.51554 0.432352 0
M  V30 16788 C 1573.93 -2.06462 -0.1346 0
M  V30 16789 C 1574.34 -1.30027 -1.36889 0
M  V30 16790 O 1573.7 -0.358447 -1.78945 0
M  V30 16791 C 1573.75 -3.58538 -0.461822 0
M  V30 16792 O 1573.47 -4.32085 0.723471 0
M  V30 16793 C 1574.97 -4.29943 -1.07999 0
M  V30 16794 H 1572.19 -0.670923 -0.0101329 0
M  V30 16795 H 1574.74 -1.9519 0.609999 0
M  V30 16796 H 1572.89 -3.6974 -1.15632 0
M  V30 16797 H 1573.3 -5.22611 0.444757 0
M  V30 16798 H 1574.78 -5.37451 -1.25898 0
M  V30 16799 H 1575.26 -3.87912 -2.05963 0
M  V30 16800 H 1575.86 -4.23171 -0.425022 0
M  V30 16801 N 1574.18 -0.163538 -1.56749 0
M  V30 16802 C 1575.59 0.192717 -1.58432 0
M  V30 16803 C 1575.79 1.63438 -1.17856 0
M  V30 16804 O 1574.85 2.36425 -0.88654 0
M  V30 16805 C 1576.16 -0.0810427 -3.00591 0
M  V30 16806 C 1577.71 -0.0186378 -3.12994 0
M  V30 16807 C 1578.18 -0.265283 -4.57231 0
M  V30 16808 N 1579.68 -0.212787 -4.62711 0
M  V30 16809 C 1580.41 -0.37791 -5.72153 0
M  V30 16810 N 1579.91 -0.601663 -6.90182 0
M  V30 16811 N 1581.7 -0.314357 -5.6122 0
M  V30 16812 H 1573.85 -1.10467 -1.81413 0
M  V30 16813 H 1576.11 -0.438569 -0.840453 0
M  V30 16814 H 1575.82 -1.07944 -3.34725 0
M  V30 16815 H 1575.69 0.630888 -3.71887 0
M  V30 16816 H 1578.08 0.970324 -2.78691 0
M  V30 16817 H 1578.16 -0.763158 -2.44151 0
M  V30 16818 H 1577.81 -1.25142 -4.92242 0
M  V30 16819 H 1577.74 0.499756 -5.24223 0
M  V30 16820 H 1580.23 -0.0451754 -3.77873 0
M  V30 16821 H 1580.54 -0.717319 -7.69464 0
M  V30 16822 H 1578.88 -0.638184 -6.92064 0
M  V30 16823 H 1582.08 -0.140197 -4.6789 0
M  V30 16824 H 1582.25 -0.446472 -6.4646 0
M  V30 16825 N 1575.65 1.57214 0.110213 0
M  V30 16826 C 1576.59 1.96198 1.1654 0
M  V30 16827 C 1577.57 0.832925 1.39646 0
M  V30 16828 O 1578.75 1.09188 1.53656 0
M  V30 16829 C 1575.88 2.26576 2.51756 0
M  V30 16830 C 1574.92 3.49093 2.45023 0
M  V30 16831 S 1575.76 5.01363 1.88136 0
M  V30 16832 C 1576.91 5.34903 3.25007 0
M  V30 16833 H 1577.14 2.85392 0.832996 0
M  V30 16834 H 1574.68 1.51104 0.317314 0
M  V30 16835 H 1576.64 2.44756 3.29552 0
M  V30 16836 H 1575.3 1.37981 2.8217 0
M  V30 16837 H 1574.49 3.67743 3.44647 0
M  V30 16838 H 1574.09 3.30346 1.7535 0
M  V30 16839 H 1576.38 5.30623 4.21243 0
M  V30 16840 H 1577.33 6.36062 3.11176 0
M  V30 16841 H 1577.73 4.62371 3.23841 0
M  V30 16842 N 1577.13 -0.380637 1.52934 0
M  V30 16843 C 1578.38 -1.12261 1.68053 0
M  V30 16844 C 1578.7 -1.90263 0.427191 0
M  V30 16845 O 1577.97 -1.87768 -0.558559 0
M  V30 16846 H 1576.55 -0.41742 0.619491 0
M  V30 16847 H 1579.21 -0.430906 1.90077 0
M  V30 16848 H 1578.31 -1.82085 2.53479 0
M  V30 16849 N 1578.61 -1.44039 -0.639573 0
M  V30 16850 C 1579.84 -1.50063 -1.43164 0
M  V30 16851 C 1580.26 -0.123906 -1.87691 0
M  V30 16852 O 1579.62 0.885192 -1.58221 0
M  V30 16853 C 1579.67 -2.46305 -2.63375 0
M  V30 16854 O 1578.77 -1.95874 -3.62915 0
M  V30 16855 H 1578.11 -0.507052 -0.428713 0
M  V30 16856 H 1580.64 -1.8909 -0.781415 0
M  V30 16857 H 1580.65 -2.64062 -3.11023 0
M  V30 16858 H 1579.33 -3.46309 -2.3031 0
M  V30 16859 H 1577.9 -1.87844 -3.22132 0
M  V30 16860 N 1580.09 0.879207 -1.30796 0
M  V30 16861 C 1581.02 1.99134 -1.13482 0
M  V30 16862 C 1582.03 1.6262 -0.0764492 0
M  V30 16863 O 1583.22 1.75553 -0.323038 0
M  V30 16864 C 1580.32 3.31386 -0.709706 0
M  V30 16865 C 1579.5 3.963 -1.85108 0
M  V30 16866 C 1578.55 5.06858 -1.41356 0
M  V30 16867 O 1577.58 5.28178 -2.12172 0
M  V30 16868 N 1578.78 5.79746 -0.295789 0
M  V30 16869 H 1581.55 2.14536 -2.09271 0
M  V30 16870 H 1579.11 1.05264 -1.23009 0
M  V30 16871 H 1581.1 4.02719 -0.399903 0
M  V30 16872 H 1579.67 3.12209 0.156309 0
M  V30 16873 H 1578.89 3.18065 -2.3287 0
M  V30 16874 H 1580.18 4.36408 -2.61582 0
M  V30 16875 H 1579.58 5.64935 0.294166 0
M  V30 16876 H 1578.13 6.51784 -0.0454707 0
M  V30 16877 N 1581.57 1.13606 1.09231 0
M  V30 16878 C 1582.98 0.91148 1.62938 0
M  V30 16879 C 1583.33 -0.55157 1.88287 0
M  V30 16880 O 1582.45 -1.4187 1.63407 0
M  V30 16881 C 1583.05 1.64812 2.96011 0
M  V30 16882 C 1581.61 1.46935 3.46536 0
M  V30 16883 C 1580.76 1.67605 2.20916 0
M  V30 16884 H 1583.71 1.28907 0.925669 0
M  V30 16885 H 1583.73 1.10638 3.6406 0
M  V30 16886 H 1583.24 2.71291 2.77529 0
M  V30 16887 H 1581.34 0.427667 3.70138 0
M  V30 16888 H 1581.45 2.23374 4.2384 0
M  V30 16889 H 1579.82 1.10105 2.29672 0
M  V30 16890 H 1580.6 2.75408 2.04952 0
M  V30 16891 N 1583.05 -1.27244 0.929878 0
M  V30 16892 C 1584.46 -1.76254 0.615732 0
M  V30 16893 C 1584.81 -1.759 -0.869111 0
M  V30 16894 O 1583.93 -1.36388 -1.6801 0
M  V30 16895 C 1584.53 -3.20068 1.11095 0
M  V30 16896 C 1583.09 -3.66736 0.847435 0
M  V30 16897 C 1582.23 -2.4659 1.26842 0
M  V30 16898 H 1585.18 -1.1348 1.10942 0
M  V30 16899 H 1585.21 -3.77714 0.459618 0
M  V30 16900 H 1584.72 -3.20293 2.19166 0
M  V30 16901 H 1582.82 -3.71954 -0.219376 0
M  V30 16902 H 1582.93 -4.56104 1.4665 0
M  V30 16903 H 1581.3 -2.45261 0.686944 0
M  V30 16904 H 1582.08 -2.49524 2.35781 0
M  V30 16905 N 1584.52 -0.695628 -1.41417 0
M  V30 16906 C 1585.8 -0.154646 -1.94988 0
M  V30 16907 C 1586.18 1.33534 -1.63499 0
M  V30 16908 O 1585.53 2.08178 -0.942031 0
M  V30 16909 C 1585.74 -0.446004 -3.46138 0
M  V30 16910 C 1587.09 -0.37378 -4.22952 0
M  V30 16911 O 1588.11 -0.380921 -3.54157 0
M  V30 16912 O 1586.97 -0.33395 -5.45479 0
M  V30 16913 H 1584.06 -0.0150053 -0.826864 0
M  V30 16914 H 1586.61 -0.771792 -1.51134 0
M  V30 16915 H 1585.38 -1.47734 -3.6234 0
M  V30 16916 H 1585 0.202111 -3.97086 0
M  V30 16917 N 1586 1.51322 -0.440383 0
M  V30 16918 C 1587.41 1.86687 0.0220272 0
M  V30 16919 C 1587.76 1.35734 1.41671 0
M  V30 16920 O 1586.89 0.709408 2.04442 0
M  V30 16921 C 1587.48 3.38768 0.0467477 0
M  V30 16922 C 1586.04 3.73657 0.45358 0
M  V30 16923 C 1585.19 2.7506 -0.351779 0
M  V30 16924 H 1588.14 1.44503 -0.65609 0
M  V30 16925 H 1588.16 3.70756 0.855589 0
M  V30 16926 H 1587.67 3.75823 -0.968451 0
M  V30 16927 H 1585.77 3.42193 1.47427 0
M  V30 16928 H 1585.89 4.78776 0.176262 0
M  V30 16929 H 1584.25 2.53988 0.190334 0
M  V30 16930 H 1585.03 3.14957 -1.36591 0
M  V30 16931 N 1587.48 0.171848 1.5666 0
M  V30 16932 C 1588.43 -0.775125 2.19305 0
M  V30 16933 C 1589.42 -1.23711 1.15724 0
M  V30 16934 O 1590.63 -1.2027 1.33922 0
M  V30 16935 H 1587 -0.268245 0.70253 0
M  V30 16936 H 1588.97 -0.222823 2.97567 0
M  V30 16937 C 1587.72 -1.99397 2.84844 0
M  V30 16938 H 1587.05 -1.64752 3.64276 0
M  V30 16939 H 1588.49 -2.63545 3.32145 0
M  V30 16940 C 1586.94 -2.81794 1.84645 0
M  V30 16941 O 1587.47 -3.78964 1.33225 0
M  V30 16942 N 1585.68 -2.4682 1.5339 0
M  V30 16943 H 1585.23 -1.67862 1.95397 0
M  V30 16944 H 1585.19 -3.02238 0.866004 0
M  V30 16945 N 1588.96 -1.5727 -0.101874 0
M  V30 16946 C 1590.19 -1.89943 -0.820329 0
M  V30 16947 C 1590.6 -0.764867 -1.72613 0
M  V30 16948 O 1589.96 0.263499 -1.80588 0
M  V30 16949 C 1590.01 -3.2219 -1.63939 0
M  V30 16950 O 1589.73 -4.31279 -0.770039 0
M  V30 16951 C 1591.23 -3.6868 -2.46151 0
M  V30 16952 H 1588.45 -0.628532 -0.234922 0
M  V30 16953 H 1590.99 -2.04339 -0.0811362 0
M  V30 16954 H 1589.15 -3.09411 -2.33117 0
M  V30 16955 H 1589.56 -5.07182 -1.33665 0
M  V30 16956 H 1591.04 -4.63928 -2.99124 0
M  V30 16957 H 1591.51 -2.96183 -3.24303 0
M  V30 16958 H 1592.12 -3.84303 -1.82185 0
M  V30 16959 N 1590.44 0.372521 -1.53134 0
M  V30 16960 C 1591.68 1.11316 -1.68201 0
M  V30 16961 C 1592 1.90662 -0.436714 0
M  V30 16962 O 1593.2 2.67439 -0.467802 0
M  V30 16963 C 1591.66 2.02808 -2.97317 0
M  V30 16964 C 1591.27 1.28806 -4.29084 0
M  V30 16965 C 1593.01 2.76906 -3.2175 0
M  V30 16966 C 1590.92 2.19159 -5.49294 0
M  V30 16967 H 1589.85 0.419264 -0.626685 0
M  V30 16968 H 1592.5 0.374677 -1.79634 0
M  V30 16969 H 1590.88 2.80359 -2.79669 0
M  V30 16970 H 1592.06 0.563661 -4.5734 0
M  V30 16971 H 1590.37 0.665989 -4.1104 0
M  V30 16972 H 1592.97 3.44721 -4.08744 0
M  V30 16973 H 1593.31 3.41894 -2.37517 0
M  V30 16974 H 1593.84 2.06441 -3.4004 0
M  V30 16975 H 1590.58 1.5876 -6.35984 0
M  V30 16976 H 1590.1 2.89468 -5.25327 0
M  V30 16977 H 1591.78 2.78874 -5.83814 0
M  V30 16978 N 1591.91 1.44376 0.631925 0
M  V30 16979 C 1593.16 1.47335 1.39356 0
M  V30 16980 C 1593.49 0.10525 1.93915 0
M  V30 16981 O 1592.77 -0.877006 1.73605 0
M  V30 16982 C 1593.05 2.53308 2.55943 0
M  V30 16983 C 1592.9 3.99473 2.06739 0
M  V30 16984 C 1594.22 2.55794 3.58131 0
M  V30 16985 H 1591.34 0.536447 0.505365 0
M  V30 16986 H 1593.98 1.76051 0.714572 0
M  V30 16987 H 1592.13 2.28953 3.13868 0
M  V30 16988 H 1593.81 4.34958 1.53652 0
M  V30 16989 H 1592.05 4.11288 1.37929 0
M  V30 16990 H 1592.72 4.69269 2.90672 0
M  V30 16991 H 1595.2 2.77554 3.10005 0
M  V30 16992 H 1594.07 3.31847 4.37228 0
M  V30 16993 H 1594.33 1.59962 4.12146 0
M  V30 16994 N 1593.39 -0.872258 1.31261 0
M  V30 16995 C 1594.34 -1.96688 1.15317 0
M  V30 16996 C 1595.33 -1.60769 0.0647922 0
M  V30 16997 O 1596.52 -1.74617 0.289469 0
M  V30 16998 C 1593.65 -3.32347 0.860242 0
M  V30 16999 C 1592.73 -3.7454 1.98948 0
M  V30 17000 N 1593.12 -3.88715 3.23627 0
M  V30 17001 C 1591.42 -4.04035 1.88871 0
M  V30 17002 C 1592.12 -4.24718 3.97478 0
M  V30 17003 N 1591.1 -4.35278 3.25629 0
M  V30 17004 H 1594.9 -2.05755 2.09862 0
M  V30 17005 H 1592.41 -1.0629 1.22785 0
M  V30 17006 H 1594.41 -4.10512 0.727004 0
M  V30 17007 H 1593.07 -3.24609 -0.0770132 0
M  V30 17008 H 1594.08 -3.73504 3.58769 0
M  V30 17009 H 1590.76 -4.04698 1.02595 0
M  V30 17010 H 1592.15 -4.43302 5.04909 0
M  V30 17011 N 1594.87 -1.14184 -1.08627 0
M  V30 17012 C 1596.12 -0.903271 -1.80344 0
M  V30 17013 C 1596.43 0.571801 -1.87056 0
M  V30 17014 O 1597.64 0.92756 -2.55164 0
M  V30 17015 C 1596.09 -1.56653 -3.24018 0
M  V30 17016 C 1595.7 -3.07771 -3.25548 0
M  V30 17017 C 1597.45 -1.40899 -4.00434 0
M  V30 17018 C 1595.35 -3.66943 -4.63796 0
M  V30 17019 H 1594.28 -0.334288 -0.675846 0
M  V30 17020 H 1596.93 -1.3705 -1.22023 0
M  V30 17021 H 1595.32 -1.02698 -3.82452 0
M  V30 17022 H 1596.49 -3.68375 -2.76834 0
M  V30 17023 H 1594.8 -3.23136 -2.62625 0
M  V30 17024 H 1597.4 -1.82511 -5.02587 0
M  V30 17025 H 1597.74 -0.354822 -4.14785 0
M  V30 17026 H 1598.28 -1.91879 -3.48464 0
M  V30 17027 H 1595.02 -4.72203 -4.54648 0
M  V30 17028 H 1594.54 -3.11119 -5.12801 0
M  V30 17029 H 1596.22 -3.67103 -5.32771 0
M  V30 17030 N 1596.35 1.26749 -0.936613 0
M  V30 17031 C 1597.76 1.75925 -0.62507 0
M  V30 17032 C 1598.11 1.76359 0.859771 0
M  V30 17033 O 1597.24 1.37277 1.67284 0
M  V30 17034 C 1597.83 3.19474 -1.12791 0
M  V30 17035 C 1596.39 3.66282 -0.866872 0
M  V30 17036 C 1595.54 2.45913 -1.28148 0
M  V30 17037 H 1598.49 1.1289 -1.11542 0
M  V30 17038 H 1598.51 3.77465 -0.479643 0
M  V30 17039 H 1598.02 3.19126 -2.20862 0
M  V30 17040 H 1596.12 3.72065 0.199647 0
M  V30 17041 H 1596.23 4.55319 -1.49067 0
M  V30 17042 H 1594.6 2.44894 -0.699941 0
M  V30 17043 H 1595.38 2.4827 -2.37101 0
M  V30 17044 N 1597.83 0.703118 1.41046 0
M  V30 17045 C 1599.07 0.237638 2.01403 0
M  V30 17046 C 1599.41 -1.16217 1.55587 0
M  V30 17047 O 1598.68 -1.78593 0.770377 0
M  V30 17048 C 1598.96 0.303738 3.58817 0
M  V30 17049 C 1598.82 1.74103 4.14739 0
M  V30 17050 C 1600.14 -0.332186 4.38845 0
M  V30 17051 H 1597.25 0.0878243 0.731749 0
M  V30 17052 H 1599.9 0.893264 1.67693 0
M  V30 17053 H 1598.05 -0.254485 3.87666 0
M  V30 17054 H 1599.72 2.35368 3.96736 0
M  V30 17055 H 1597.96 2.27277 3.69496 0
M  V30 17056 H 1598.63 1.73876 5.239 0
M  V30 17057 H 1601.11 0.143312 4.15853 0
M  V30 17058 H 1599.98 -0.255429 5.48305 0
M  V30 17059 H 1600.25 -1.41397 4.18878 0
M  V30 17060 N 1599.3 -1.51086 0.448402 0
M  V30 17061 C 1600.24 -2.24615 -0.402921 0
M  V30 17062 C 1601.22 -1.26994 -1.01544 0
M  V30 17063 O 1602.4 -1.56159 -1.05577 0
M  V30 17064 C 1599.53 -3.00504 -1.56253 0
M  V30 17065 C 1598.57 -4.1287 -1.06961 0
M  V30 17066 S 1599.41 -5.355 -0.00265176 0
M  V30 17067 C 1600.56 -6.14931 -1.16667 0
M  V30 17068 H 1600.79 -2.96475 0.221298 0
M  V30 17069 H 1598.33 -1.52631 0.23303 0
M  V30 17070 H 1600.29 -3.44824 -2.22726 0
M  V30 17071 H 1598.95 -2.28212 -2.15819 0
M  V30 17072 H 1598.14 -4.65288 -1.93708 0
M  V30 17073 H 1597.74 -3.70869 -0.48296 0
M  V30 17074 H 1600.03 -6.44688 -2.08286 0
M  V30 17075 H 1600.98 -7.04806 -0.682223 0
M  V30 17076 H 1601.38 -5.46601 -1.41024 0
M  V30 17077 N 1600.78 -0.180154 -1.56567 0
M  V30 17078 C 1601.71 0.742131 -2.21393 0
M  V30 17079 C 1602.69 1.23253 -1.1723 0
M  V30 17080 O 1603.88 1.28408 -1.45688 0
M  V30 17081 C 1601.01 1.96799 -2.8616 0
M  V30 17082 C 1599.96 1.6131 -3.96438 0
M  V30 17083 C 1599.29 2.91434 -4.48297 0
M  V30 17084 C 1600.59 0.834382 -5.15592 0
M  V30 17085 H 1602.28 0.201759 -2.98719 0
M  V30 17086 H 1599.83 0.0956016 -1.43682 0
M  V30 17087 H 1601.78 2.61828 -3.30188 0
M  V30 17088 H 1600.51 2.53264 -2.06215 0
M  V30 17089 H 1599.16 0.986451 -3.53079 0
M  V30 17090 H 1598.81 3.45958 -3.65133 0
M  V30 17091 H 1598.51 2.68439 -5.22699 0
M  V30 17092 H 1600.04 3.57478 -4.95017 0
M  V30 17093 H 1601.45 1.38745 -5.56258 0
M  V30 17094 H 1599.85 0.703132 -5.95966 0
M  V30 17095 H 1600.92 -0.167554 -4.8461 0
M  V30 17096 N 1602.26 1.57322 0.0935319 0
M  V30 17097 C 1603.49 1.90375 0.810245 0
M  V30 17098 C 1603.9 0.774011 1.72205 0
M  V30 17099 O 1603.26 -0.253918 1.80725 0
M  V30 17100 C 1603.31 3.23054 1.62228 0
M  V30 17101 O 1603.03 4.31682 0.747157 0
M  V30 17102 C 1604.53 3.6998 2.44192 0
M  V30 17103 H 1601.75 0.629769 0.231586 0
M  V30 17104 H 1604.3 2.04379 0.0702984 0
M  V30 17105 H 1602.45 3.10643 2.31472 0
M  V30 17106 H 1602.87 5.07884 1.30974 0
M  V30 17107 H 1604.34 4.65507 2.96659 0
M  V30 17108 H 1604.82 2.97899 3.22727 0
M  V30 17109 H 1605.42 3.85264 1.80144 0
M  V30 17110 N 1603.74 -0.364395 1.53329 0
M  V30 17111 C 1604.99 -1.10473 1.69234 0
M  V30 17112 C 1605.31 -1.89799 0.447347 0
M  V30 17113 O 1604.58 -1.8835 -0.538612 0
M  V30 17114 H 1603.16 -0.410826 0.623884 0
M  V30 17115 H 1605.82 -0.410721 1.90523 0
M  V30 17116 H 1604.92 -1.79387 2.55396 0
M  V30 17117 N 1605.22 -1.44709 -0.62426 0
M  V30 17118 C 1606.63 -1.42523 -1.20599 0
M  V30 17119 C 1606.98 -0.144129 -1.9567 0
M  V30 17120 O 1606.1 0.755175 -2.02796 0
M  V30 17121 C 1606.7 -2.58194 -2.19365 0
M  V30 17122 C 1605.26 -2.59181 -2.72951 0
M  V30 17123 C 1604.4 -2.34461 -1.48065 0
M  V30 17124 H 1607.36 -1.5319 -0.414532 0
M  V30 17125 H 1607.38 -2.3134 -3.02096 0
M  V30 17126 H 1606.89 -3.5142 -1.64699 0
M  V30 17127 H 1604.99 -1.69916 -3.31601 0
M  V30 17128 H 1605.1 -3.57884 -3.18521 0
M  V30 17129 H 1603.47 -1.83688 -1.76439 0
M  V30 17130 H 1604.25 -3.2981 -0.952918 0
M  V30 17131 N 1606.69 0.865285 -1.31722 0
M  V30 17132 C 1607.62 1.98871 -1.22362 0
M  V30 17133 C 1608.61 1.69745 -0.109779 0
M  V30 17134 O 1609.79 1.91944 -0.295167 0
M  V30 17135 C 1606.92 3.34477 -0.935 0
M  V30 17136 C 1605.87 3.77924 -2.00892 0
M  V30 17137 C 1605.2 5.11042 -1.57291 0
M  V30 17138 C 1606.5 3.94528 -3.42264 0
M  V30 17139 H 1608.19 2.06959 -2.16352 0
M  V30 17140 H 1605.74 0.994355 -1.04157 0
M  V30 17141 H 1607.69 4.12612 -0.856111 0
M  V30 17142 H 1606.42 3.26575 0.0405536 0
M  V30 17143 H 1605.08 3.02032 -2.07779 0
M  V30 17144 H 1604.72 4.99586 -0.585084 0
M  V30 17145 H 1604.42 5.41082 -2.29138 0
M  V30 17146 H 1605.95 5.91681 -1.50818 0
M  V30 17147 H 1607.36 4.63045 -3.38027 0
M  V30 17148 H 1605.76 4.35972 -4.12369 0
M  V30 17149 H 1606.83 2.97765 -3.82706 0
M  V30 17150 N 1608.17 1.14759 1.0802 0
M  V30 17151 C 1609.42 0.916435 1.80127 0
M  V30 17152 C 1609.74 -0.558281 1.86837 0
M  V30 17153 O 1609.01 -1.40579 1.36434 0
M  V30 17154 H 1607.59 0.336066 0.667135 0
M  V30 17155 H 1610.25 1.44693 1.30576 0
M  V30 17156 H 1609.35 1.31986 2.82818 0
M  V30 17157 N 1609.65 -1.26251 0.943322 0
M  V30 17158 C 1610.56 -2.3003 0.460778 0
M  V30 17159 C 1611.58 -1.67635 -0.4663 0
M  V30 17160 O 1612.75 -1.98418 -0.345307 0
M  V30 17161 C 1609.82 -3.45691 -0.264291 0
M  V30 17162 C 1608.88 -4.23561 0.69961 0
M  V30 17163 C 1608.11 -5.33699 0.00904846 0
M  V30 17164 O 1608.33 -5.57473 -1.20748 0
M  V30 17165 O 1607.27 -5.97945 0.688839 0
M  V30 17166 H 1611.09 -2.73374 1.32289 0
M  V30 17167 H 1608.68 -1.31489 0.709297 0
M  V30 17168 H 1610.56 -4.15997 -0.672634 0
M  V30 17169 H 1609.24 -3.04373 -1.10176 0
M  V30 17170 H 1608.14 -3.55728 1.15794 0
M  V30 17171 H 1609.48 -4.68634 1.50476 0
M  V30 17172 N 1611.13 -0.710588 -1.40671 0
M  V30 17173 C 1612.09 -0.0635988 -2.29112 0
M  V30 17174 C 1613.09 0.692537 -1.45123 0
M  V30 17175 O 1614.28 0.525184 -1.66095 0
M  V30 17176 C 1611.41 0.919955 -3.28252 0
M  V30 17177 H 1612.61 -0.842477 -2.87823 0
M  V30 17178 H 1610.16 -0.474948 -1.48909 0
M  V30 17179 H 1610.9 1.72607 -2.7455 0
M  V30 17180 H 1610.68 0.38071 -3.90247 0
M  V30 17181 H 1612.17 1.36997 -3.94489 0
M  V30 17182 N 1612.61 1.50847 -0.456408 0
M  V30 17183 C 1613.84 2.0665 0.101737 0
M  V30 17184 C 1614.25 1.32188 1.34803 0
M  V30 17185 O 1613.61 0.38687 1.78352 0
M  V30 17186 C 1613.66 3.59227 0.404724 0
M  V30 17187 O 1613.38 4.30879 -0.79212 0
M  V30 17188 C 1614.88 4.31607 1.01145 0
M  V30 17189 H 1612.1 0.671 -0.000542219 0
M  V30 17190 H 1614.64 1.94195 -0.640974 0
M  V30 17191 H 1612.8 3.71533 1.09735 0
M  V30 17192 H 1613.21 5.21837 -0.527843 0
M  V30 17193 H 1614.69 5.39386 1.17332 0
M  V30 17194 H 1615.16 3.9114 1.99765 0
M  V30 17195 H 1615.77 4.23794 0.357645 0
M  V30 17196 N 1614.09 0.188454 1.56469 0
M  V30 17197 C 1615.33 -0.452728 1.97682 0
M  V30 17198 C 1615.66 -1.61729 1.07506 0
M  V30 17199 O 1614.94 -1.94094 0.125677 0
M  V30 17200 C 1615.22 -0.919257 3.48169 0
M  V30 17201 C 1615.08 0.246656 4.49123 0
M  V30 17202 C 1616.39 -1.78706 4.02184 0
M  V30 17203 H 1613.51 -0.16309 0.718729 0
M  V30 17204 H 1616.16 0.27804 1.87955 0
M  V30 17205 H 1614.31 -1.54195 3.5659 0
M  V30 17206 H 1615.98 0.884178 4.52747 0
M  V30 17207 H 1614.22 0.89948 4.24372 0
M  V30 17208 H 1614.89 -0.122179 5.51865 0
M  V30 17209 H 1617.37 -1.26196 3.96502 0
M  V30 17210 H 1616.24 -2.08247 5.07863 0
M  V30 17211 H 1616.5 -2.73891 3.47039 0
M  V30 17212 N 1615.56 -1.5737 -0.0851874 0
M  V30 17213 C 1616.81 -1.86864 -0.78802 0
M  V30 17214 C 1617.14 -0.778936 -1.77894 0
M  V30 17215 O 1616.42 0.212132 -1.9334 0
M  V30 17216 C 1616.7 -3.27006 -1.50795 0
M  V30 17217 C 1616.55 -4.46615 -0.534354 0
M  V30 17218 C 1617.87 -3.65187 -2.45614 0
M  V30 17219 H 1614.99 -0.679657 -0.285017 0
M  V30 17220 H 1617.63 -1.8993 -0.0514443 0
M  V30 17221 H 1615.78 -3.24522 -2.13583 0
M  V30 17222 H 1617.46 -4.61217 0.0872761 0
M  V30 17223 H 1615.7 -4.33536 0.151455 0
M  V30 17224 H 1616.37 -5.41423 -1.07544 0
M  V30 17225 H 1618.85 -3.68678 -1.92913 0
M  V30 17226 H 1617.72 -4.64158 -2.92999 0
M  V30 17227 H 1617.98 -2.944 -3.2982 0
M  V30 17228 N 1617.04 0.356258 -1.53521 0
M  V30 17229 C 1618.45 0.932569 -1.61741 0
M  V30 17230 C 1618.8 1.89965 -0.490677 0
M  V30 17231 O 1617.93 2.1301 0.381514 0
M  V30 17232 C 1618.52 1.69818 -2.93168 0
M  V30 17233 C 1617.08 2.22369 -3.03692 0
M  V30 17234 C 1616.23 1.03891 -2.57103 0
M  V30 17235 H 1619.18 0.134769 -1.58127 0
M  V30 17236 H 1619.2 2.56011 -2.81494 0
M  V30 17237 H 1618.71 0.994065 -3.75153 0
M  V30 17238 H 1616.81 2.95994 -2.26314 0
M  V30 17239 H 1616.93 2.49611 -4.08939 0
M  V30 17240 H 1615.29 1.40862 -2.12202 0
M  V30 17241 H 1616.07 0.349637 -3.41515 0
M  V30 17242 N 1618.52 1.45038 0.616577 0
M  V30 17243 C 1619.74 1.52321 1.40759 0
M  V30 17244 C 1620.17 0.15375 1.87471 0
M  V30 17245 O 1619.53 -0.859908 1.5961 0
M  V30 17246 C 1619.58 2.50464 2.59423 0
M  V30 17247 O 1618.68 2.01623 3.59753 0
M  V30 17248 H 1618.02 0.513808 0.420592 0
M  V30 17249 H 1620.55 1.90309 0.751234 0
M  V30 17250 H 1620.56 2.68977 3.06783 0
M  V30 17251 H 1619.24 3.4993 2.24771 0
M  V30 17252 H 1617.81 1.92945 3.19103 0
M  V30 17253 N 1620 -0.858287 1.32179 0
M  V30 17254 C 1621.25 -1.60902 1.2229 0
M  V30 17255 C 1621.57 -1.93797 -0.216227 0
M  V30 17256 O 1620.84 -1.59312 -1.14002 0
M  V30 17257 H 1619.42 -0.596529 0.449624 0
M  V30 17258 H 1622.08 -1.02686 1.65655 0
M  V30 17259 H 1621.17 -2.54755 1.80295 0
M  V30 17260 N 1621.48 -1.1533 -1.07409 0
M  V30 17261 C 1622.42 -0.845328 -2.16696 0
M  V30 17262 C 1623.42 0.181009 -1.6843 0
M  V30 17263 O 1624.62 0.0361013 -1.79964 0
M  V30 17264 H 1621 -0.255698 -0.707193 0
M  V30 17265 H 1622.97 -1.7747 -2.39889 0
M  V30 17266 C 1621.72 -0.350381 -3.4593 0
M  V30 17267 H 1621.04 -1.13152 -3.83454 0
M  V30 17268 H 1622.48 -0.173547 -4.23645 0
M  V30 17269 C 1620.94 0.927991 -3.23867 0
M  V30 17270 O 1621.47 1.99965 -3.48392 0
M  V30 17271 N 1619.68 0.867266 -2.77357 0
M  V30 17272 H 1619.22 -0.00500352 -2.576 0
M  V30 17273 H 1619.18 1.72314 -2.62974 0
M  V30 17274 N 1622.95 1.25748 -0.950004 0
M  V30 17275 C 1624.2 1.93622 -0.603186 0
M  V30 17276 C 1624.53 1.74271 0.856925 0
M  V30 17277 O 1623.81 1.08502 1.61423 0
M  V30 17278 C 1624.09 3.4715 -0.957024 0
M  V30 17279 C 1623.94 3.75747 -2.47253 0
M  V30 17280 C 1625.26 4.37488 -0.478754 0
M  V30 17281 H 1622.38 0.703206 -0.220612 0
M  V30 17282 H 1625.02 1.48453 -1.18582 0
M  V30 17283 H 1623.17 3.85753 -0.46122 0
M  V30 17284 H 1624.85 3.46808 -3.04174 0
M  V30 17285 H 1623.09 3.21516 -2.91222 0
M  V30 17286 H 1623.76 4.83097 -2.67061 0
M  V30 17287 H 1626.24 4.06162 -0.903987 0
M  V30 17288 H 1625.11 5.43682 -0.755073 0
M  V30 17289 H 1625.37 4.37712 0.621303 0
M  V30 17290 N 1624.43 0.718038 1.40292 0
M  V30 17291 C 1625.71 0.185648 1.94717 0
M  V30 17292 C 1626.09 -1.30916 1.65603 0
M  V30 17293 O 1625.44 -2.06653 0.975031 0
M  V30 17294 C 1625.65 0.501015 3.45385 0
M  V30 17295 C 1626.99 0.441021 4.22303 0
M  V30 17296 O 1628.02 0.437217 3.53507 0
M  V30 17297 O 1626.88 0.420689 5.44878 0
M  V30 17298 H 1623.97 0.0281581 0.82652 0
M  V30 17299 H 1626.52 0.795738 1.49887 0
M  V30 17300 H 1625.29 1.5348 3.59944 0
M  V30 17301 H 1624.91 -0.138913 3.97357 0
M  V30 17302 N 1625.91 -1.50602 0.464402 0
M  V30 17303 C 1626.84 -2.31252 -0.323263 0
M  V30 17304 C 1627.82 -1.37856 -0.996476 0
M  V30 17305 O 1629.01 -1.66777 -0.994933 0
M  V30 17306 C 1626.14 -3.17414 -1.40945 0
M  V30 17307 C 1625.09 -4.19307 -0.858226 0
M  V30 17308 C 1624.42 -4.94164 -2.0422 0
M  V30 17309 C 1625.72 -5.22148 0.125921 0
M  V30 17310 H 1627.41 -2.97349 0.34983 0
M  V30 17311 H 1624.96 -1.42997 0.169685 0
M  V30 17312 H 1626.91 -3.72627 -1.96791 0
M  V30 17313 H 1625.63 -2.49189 -2.11122 0
M  V30 17314 H 1624.29 -3.65185 -0.321785 0
M  V30 17315 H 1623.94 -4.22417 -2.7308 0
M  V30 17316 H 1623.64 -5.63083 -1.67963 0
M  V30 17317 H 1625.16 -5.5221 -2.60569 0
M  V30 17318 H 1626.58 -5.72272 -0.343136 0
M  V30 17319 H 1624.98 -5.98749 0.402433 0
M  V30 17320 H 1626.05 -4.73307 1.05399 0
M  V30 17321 N 1627.39 -0.19675 -1.56367 0
M  V30 17322 C 1628.3 0.735372 -2.22777 0
M  V30 17323 C 1629.31 1.23336 -1.22737 0
M  V30 17324 O 1630.49 1.28017 -1.55479 0
M  V30 17325 C 1627.56 1.93706 -2.8754 0
M  V30 17326 C 1626.62 1.48348 -4.02854 0
M  V30 17327 C 1625.85 2.62788 -4.64519 0
M  V30 17328 O 1626.07 3.80311 -4.25111 0
M  V30 17329 O 1625.01 2.35406 -5.53956 0
M  V30 17330 H 1628.83 0.199788 -3.03042 0
M  V30 17331 H 1626.42 0.0326149 -1.49364 0
M  V30 17332 H 1628.3 2.63934 -3.28507 0
M  V30 17333 H 1626.97 2.46121 -2.10252 0
M  V30 17334 H 1625.88 0.749939 -3.66506 0
M  V30 17335 H 1627.21 1.00597 -4.8181 0
M  V30 17336 N 1628.87 1.57413 0.0768405 0
M  V30 17337 C 1630.09 1.91607 0.793833 0
M  V30 17338 C 1630.52 0.792708 1.70581 0
M  V30 17339 O 1629.87 -0.25475 1.79501 0
M  V30 17340 C 1629.92 3.24736 1.56776 0
M  V30 17341 O 1629.03 3.13613 2.67807 0
M  V30 17342 H 1628.37 0.627572 0.216908 0
M  V30 17343 H 1630.9 2.04547 0.0465957 0
M  V30 17344 H 1630.91 3.58488 1.94809 0
M  V30 17345 H 1629.58 4.06077 0.898588 0
M  V30 17346 H 1628.16 2.91411 2.32668 0
M  V30 17347 N 1630.34 -0.348112 1.53707 0
M  V30 17348 C 1631.28 -1.44781 1.77682 0
M  V30 17349 C 1632.29 -1.4891 0.657997 0
M  V30 17350 O 1633.48 -1.52075 0.934635 0
M  V30 17351 C 1630.58 -2.83463 1.85747 0
M  V30 17352 C 1629.75 -3.02827 3.15618 0
M  V30 17353 C 1628.81 -4.21724 3.14698 0
M  V30 17354 O 1627.84 -4.16059 3.88437 0
M  V30 17355 N 1629.04 -5.3003 2.36746 0
M  V30 17356 H 1631.8 -1.24587 2.72577 0
M  V30 17357 H 1629.36 -0.537961 1.52701 0
M  V30 17358 H 1631.36 -3.6117 1.82589 0
M  V30 17359 H 1629.93 -2.96822 0.980595 0
M  V30 17360 H 1629.15 -2.1263 3.31937 0
M  V30 17361 H 1630.43 -3.12645 4.01411 0
M  V30 17362 H 1629.83 -5.375 1.7638 0
M  V30 17363 H 1628.39 -6.06247 2.39389 0
M  V30 17364 N 1631.82 -1.45363 -0.608876 0
M  V30 17365 C 1632.79 -1.53551 -1.70161 0
M  V30 17366 C 1633.79 -0.415146 -1.55349 0
M  V30 17367 O 1634.98 -0.67858 -1.6044 0
M  V30 17368 C 1632.11 -1.43081 -3.0942 0
M  V30 17369 H 1633.3 -2.5091 -1.64268 0
M  V30 17370 H 1630.85 -1.32785 -0.824493 0
M  V30 17371 H 1631.59 -0.469016 -3.20891 0
M  V30 17372 H 1631.37 -2.24343 -3.21579 0
M  V30 17373 H 1632.86 -1.51841 -3.89017 0
M  V30 17374 N 1633.3 0.851265 -1.32632 0
M  V30 17375 C 1634.21 1.99239 -1.23858 0
M  V30 17376 C 1635.23 1.73339 -0.151517 0
M  V30 17377 O 1636.4 1.97919 -0.372822 0
M  V30 17378 C 1633.47 3.32987 -0.965417 0
M  V30 17379 C 1632.53 3.72087 -2.14126 0
M  V30 17380 C 1631.76 4.99453 -1.88103 0
M  V30 17381 O 1631.98 5.64399 -0.825253 0
M  V30 17382 O 1630.92 5.35763 -2.74302 0
M  V30 17383 H 1634.74 2.09579 -2.19796 0
M  V30 17384 H 1632.33 0.98243 -1.12555 0
M  V30 17385 H 1634.21 4.13151 -0.829713 0
M  V30 17386 H 1632.89 3.2368 -0.036219 0
M  V30 17387 H 1631.79 2.92485 -2.33245 0
M  V30 17388 H 1633.13 3.86045 -3.05336 0
M  V30 17389 N 1634.78 1.15898 1.06796 0
M  V30 17390 C 1636.03 0.935488 1.79145 0
M  V30 17391 C 1636.35 -0.538433 1.87419 0
M  V30 17392 O 1635.62 -1.39124 1.37917 0
M  V30 17393 H 1634.2 0.343123 0.663533 0
M  V30 17394 H 1636.86 1.4607 1.29034 0
M  V30 17395 H 1635.96 1.34978 2.81402 0
M  V30 17396 N 1636.26 -1.25243 0.956659 0
M  V30 17397 C 1637.2 -2.25811 0.477292 0
M  V30 17398 C 1638.17 -1.59273 -0.471301 0
M  V30 17399 O 1639.36 -1.86894 -0.384105 0
M  V30 17400 C 1636.5 -3.44286 -0.236891 0
M  V30 17401 C 1635.61 -4.25454 0.749177 0
M  V30 17402 C 1634.75 -5.31199 0.012228 0
M  V30 17403 C 1633.79 -6.04056 0.989094 0
M  V30 17404 N 1632.92 -7.0153 0.282883 0
M  V30 17405 H 1637.76 -2.66185 1.33977 0
M  V30 17406 H 1635.3 -1.30862 0.671832 0
M  V30 17407 H 1637.26 -4.11825 -0.66755 0
M  V30 17408 H 1635.89 -3.04781 -1.06339 0
M  V30 17409 H 1634.94 -3.57558 1.29831 0
M  V30 17410 H 1636.25 -4.75883 1.49454 0
M  V30 17411 H 1635.41 -6.04822 -0.476968 0
M  V30 17412 H 1634.14 -4.81648 -0.76591 0
M  V30 17413 H 1633.15 -5.29245 1.48927 0
M  V30 17414 H 1634.37 -6.55695 1.76749 0
M  V30 17415 H 1632.32 -6.54267 -0.476479 0
M  V30 17416 H 1632.24 -7.49786 0.967304 0
M  V30 17417 H 1633.51 -7.79281 -0.184709 0
M  V30 17418 N 1637.73 -0.725468 -1.3991 0
M  V30 17419 C 1638.68 -0.0792833 -2.30664 0
M  V30 17420 C 1639.65 0.73984 -1.48713 0
M  V30 17421 O 1640.84 0.701762 -1.77426 0
M  V30 17422 C 1637.98 0.829164 -3.34991 0
M  V30 17423 C 1637.09 -0.00154779 -4.32 0
M  V30 17424 C 1636.22 0.907291 -5.23394 0
M  V30 17425 C 1635.26 0.0712573 -6.12059 0
M  V30 17426 N 1634.4 0.935508 -6.9584 0
M  V30 17427 H 1639.24 -0.858869 -2.85355 0
M  V30 17428 H 1636.78 -0.435214 -1.40514 0
M  V30 17429 H 1638.74 1.37021 -3.94057 0
M  V30 17430 H 1637.37 1.57483 -2.81778 0
M  V30 17431 H 1636.42 -0.659903 -3.74632 0
M  V30 17432 H 1637.73 -0.648387 -4.94568 0
M  V30 17433 H 1636.88 1.51652 -5.87441 0
M  V30 17434 H 1635.62 1.58793 -4.61125 0
M  V30 17435 H 1634.63 -0.550844 -5.47034 0
M  V30 17436 H 1635.85 -0.606025 -6.76391 0
M  V30 17437 H 1633.8 1.60162 -6.36148 0
M  V30 17438 H 1633.72 0.344932 -7.55213 0
M  V30 17439 H 1634.98 1.53061 -7.64325 0
M  V30 17440 N 1639.21 1.50354 -0.472382 0
M  V30 17441 C 1640.12 2.32318 0.326405 0
M  V30 17442 C 1641.14 1.4276 0.994771 0
M  V30 17443 O 1642.31 1.75811 0.98246 0
M  V30 17444 C 1639.38 3.17468 1.39337 0
M  V30 17445 C 1638.44 4.22848 0.741465 0
M  V30 17446 C 1637.67 5.03929 1.75759 0
M  V30 17447 O 1637.9 4.86105 2.98425 0
M  V30 17448 O 1636.83 5.87051 1.32871 0
M  V30 17449 H 1640.66 3.01749 -0.343702 0
M  V30 17450 H 1638.24 1.47553 -0.234207 0
M  V30 17451 H 1640.12 3.703 2.01136 0
M  V30 17452 H 1638.8 2.50764 2.04692 0
M  V30 17453 H 1637.71 3.74005 0.0844848 0
M  V30 17454 H 1639.04 4.92026 0.130838 0
M  V30 17455 N 1640.69 0.205039 1.56261 0
M  V30 17456 C 1641.94 -0.431735 1.98151 0
M  V30 17457 C 1642.27 -1.60579 1.09215 0
M  V30 17458 O 1641.55 -1.93949 0.146257 0
M  V30 17459 C 1641.83 -0.882278 3.49124 0
M  V30 17460 C 1641.68 0.294278 4.48836 0
M  V30 17461 C 1643 -1.7443 4.04057 0
M  V30 17462 H 1640.12 -0.155457 0.720418 0
M  V30 17463 H 1642.76 0.29796 1.87649 0
M  V30 17464 H 1640.91 -1.50404 3.58205 0
M  V30 17465 H 1642.58 0.932148 4.51784 0
M  V30 17466 H 1640.83 0.94444 4.23394 0
M  V30 17467 H 1641.5 -0.063639 5.51963 0
M  V30 17468 H 1643.97 -1.21983 3.97818 0
M  V30 17469 H 1642.85 -2.02848 5.10043 0
M  V30 17470 H 1643.11 -2.70195 3.49924 0
M  V30 17471 N 1642.17 -1.57451 -0.0684915 0
M  V30 17472 C 1643.08 -2.07274 -1.09885 0
M  V30 17473 C 1644.1 -1.00295 -1.42186 0
M  V30 17474 O 1645.27 -1.31786 -1.52297 0
M  V30 17475 C 1642.34 -2.50949 -2.39219 0
M  V30 17476 C 1641.4 -3.7224 -2.13859 0
M  V30 17477 C 1640.63 -4.13823 -3.37026 0
M  V30 17478 O 1640.85 -3.55248 -4.46268 0
M  V30 17479 O 1639.79 -5.06587 -3.25044 0
M  V30 17480 H 1643.61 -2.9539 -0.705587 0
M  V30 17481 H 1641.2 -1.46698 -0.282849 0
M  V30 17482 H 1643.08 -2.79547 -3.15327 0
M  V30 17483 H 1641.76 -1.6596 -2.77919 0
M  V30 17484 H 1640.66 -3.4872 -1.35445 0
M  V30 17485 H 1642 -4.58091 -1.80038 0
M  V30 17486 N 1643.65 0.339955 -1.5389 0
M  V30 17487 C 1644.61 1.40058 -1.81429 0
M  V30 17488 C 1645.61 1.45458 -0.685463 0
M  V30 17489 O 1646.8 1.45771 -0.953754 0
M  V30 17490 C 1643.93 2.78952 -1.95955 0
M  V30 17491 H 1645.13 1.16902 -2.76178 0
M  V30 17492 H 1642.68 0.574543 -1.45357 0
M  V30 17493 H 1643.41 3.07387 -1.03361 0
M  V30 17494 H 1643.2 2.76429 -2.78082 0
M  V30 17495 H 1644.69 3.55713 -2.18765 0
M  V30 17496 N 1645.13 1.45684 0.601159 0
M  V30 17497 C 1646.4 1.4051 1.36074 0
M  V30 17498 C 1646.78 0.0790095 2.10952 0
M  V30 17499 O 1646.13 -0.939162 2.08307 0
M  V30 17500 C 1646.34 2.62297 2.3022 0
M  V30 17501 C 1647.69 3.0766 2.92627 0
M  V30 17502 O 1648.71 2.62716 2.40539 0
M  V30 17503 O 1647.57 3.85675 3.87191 0
M  V30 17504 H 1644.67 0.557902 0.61047 0
M  V30 17505 H 1647.21 1.57822 0.623712 0
M  V30 17506 H 1645.98 3.50389 1.74194 0
M  V30 17507 H 1645.61 2.47351 3.11293 0
M  V30 17508 N 1646.6 -0.84422 1.33082 0
M  V30 17509 C 1647.88 -1.58339 1.1484 0
M  V30 17510 C 1648.26 -2.09136 -0.287273 0
M  V30 17511 O 1647.61 -1.8891 -1.2855 0
M  V30 17512 C 1647.82 -2.72141 2.18496 0
M  V30 17513 C 1649.17 -3.41457 2.52373 0
M  V30 17514 O 1650.19 -2.82377 2.17122 0
M  V30 17515 O 1649.05 -4.48096 3.12845 0
M  V30 17516 H 1646.14 -0.697813 0.443831 0
M  V30 17517 H 1648.69 -0.88744 1.44646 0
M  V30 17518 H 1647.46 -2.32206 3.14954 0
M  V30 17519 H 1647.08 -3.49404 1.89744 0
M  V30 17520 N 1648.08 -1.16463 -1.0618 0
M  V30 17521 C 1649.33 -0.948248 -1.79265 0
M  V30 17522 C 1649.66 0.522578 -1.87037 0
M  V30 17523 O 1648.94 1.38772 -1.36282 0
M  V30 17524 C 1649.22 -1.57781 -3.23693 0
M  V30 17525 C 1649.07 -3.12005 -3.23995 0
M  V30 17526 C 1650.39 -1.27343 -4.21274 0
M  V30 17527 H 1647.51 -0.345907 -0.650782 0
M  V30 17528 H 1650.15 -1.4381 -1.24172 0
M  V30 17529 H 1648.3 -1.16126 -3.70738 0
M  V30 17530 H 1649.97 -3.62649 -2.85102 0
M  V30 17531 H 1648.22 -3.45276 -2.62615 0
M  V30 17532 H 1648.89 -3.51176 -4.25886 0
M  V30 17533 H 1651.36 -1.63396 -3.82676 0
M  V30 17534 H 1650.24 -1.73993 -5.20594 0
M  V30 17535 H 1650.5 -0.192469 -4.41681 0
M  V30 17536 N 1649.56 1.24734 -0.963288 0
M  V30 17537 C 1650.49 2.24024 -0.434573 0
M  V30 17538 C 1651.47 1.55076 0.488889 0
M  V30 17539 O 1652.65 1.83732 0.421281 0
M  V30 17540 C 1649.78 3.36638 0.373148 0
M  V30 17541 C 1648.83 4.23653 -0.491959 0
M  V30 17542 S 1649.66 4.99531 -1.92949 0
M  V30 17543 C 1650.82 6.15607 -1.13043 0
M  V30 17544 H 1651.05 2.68524 -1.27601 0
M  V30 17545 H 1648.58 1.33945 -0.767994 0
M  V30 17546 H 1650.54 4.01955 0.833211 0
M  V30 17547 H 1649.2 2.90705 1.18951 0
M  V30 17548 H 1648.39 5.03837 0.127976 0
M  V30 17549 H 1648 3.63315 -0.887574 0
M  V30 17550 H 1650.29 6.76415 -0.383296 0
M  V30 17551 H 1651.23 6.81952 -1.9065 0
M  V30 17552 H 1651.64 5.60667 -0.656746 0
M  V30 17553 N 1651.04 0.732878 1.39523 0
M  V30 17554 C 1652.45 0.408236 1.54291 0
M  V30 17555 C 1652.65 -1.08114 1.7004 0
M  V30 17556 O 1651.71 -1.86726 1.6997 0
M  V30 17557 C 1653.02 1.1894 2.76177 0
M  V30 17558 C 1654.57 1.17742 2.9001 0
M  V30 17559 C 1655.05 1.94111 4.14831 0
M  V30 17560 N 1656.54 1.91266 4.21867 0
M  V30 17561 C 1657.27 2.47167 5.17394 0
M  V30 17562 N 1656.77 3.11696 6.18723 0
M  V30 17563 N 1658.56 2.37212 5.09595 0
M  V30 17564 H 1650.71 1.69839 1.27548 0
M  V30 17565 H 1652.97 0.718844 0.618035 0
M  V30 17566 H 1652.68 2.24321 2.70875 0
M  V30 17567 H 1652.55 0.792439 3.68782 0
M  V30 17568 H 1654.94 0.131752 2.94806 0
M  V30 17569 H 1655.02 1.61374 1.98474 0
M  V30 17570 H 1654.67 2.98677 4.10797 0
M  V30 17571 H 1654.6 1.47886 5.05408 0
M  V30 17572 H 1657.09 1.44254 3.49284 0
M  V30 17573 H 1657.4 3.51823 6.8807 0
M  V30 17574 H 1655.75 3.15785 6.19116 0
M  V30 17575 H 1658.94 1.86444 4.29367 0
M  V30 17576 H 1659.11 2.81076 5.83866 0
M  V30 17577 N 1652.52 -1.50101 0.480349 0
M  V30 17578 C 1653.74 -2.07278 -0.0710872 0
M  V30 17579 C 1654.17 -1.34082 -1.31923 0
M  V30 17580 O 1653.52 -0.391251 -1.77028 0
M  V30 17581 C 1653.57 -3.59099 -0.328706 0
M  V30 17582 O 1652.68 -3.8764 -1.40745 0
M  V30 17583 H 1652.02 -0.66378 0.0170748 0
M  V30 17584 H 1654.55 -1.93178 0.674049 0
M  V30 17585 H 1654.56 -4.04049 -0.566435 0
M  V30 17586 H 1653.23 -4.11789 0.583316 0
M  V30 17587 H 1651.81 -3.54519 -1.15631 0
M  V30 17588 N 1653.99 -0.213323 -1.5615 0
M  V30 17589 C 1655.24 0.419767 -1.97693 0
M  V30 17590 C 1655.56 1.60878 -1.10197 0
M  V30 17591 O 1654.83 1.95097 -0.177185 0
M  V30 17592 H 1653.41 0.158075 -0.730083 0
M  V30 17593 H 1656.07 -0.304303 -1.9251 0
M  V30 17594 H 1655.17 0.751645 -3.02914 0
M  V30 17595 N 1655.47 1.57485 0.0601405 0
M  V30 17596 C 1656.88 1.76433 0.610583 0
M  V30 17597 C 1657.23 0.840353 1.77292 0
M  V30 17598 O 1656.36 0.0273238 2.16383 0
M  V30 17599 C 1656.95 3.19947 1.11441 0
M  V30 17600 C 1655.51 3.402 1.61062 0
M  V30 17601 C 1654.66 2.72089 0.535055 0
M  V30 17602 H 1657.61 1.57829 -0.166062 0
M  V30 17603 H 1657.63 3.24749 1.98288 0
M  V30 17604 H 1657.14 3.87172 0.268233 0
M  V30 17605 H 1655.25 2.78106 2.47967 0
M  V30 17606 H 1655.36 4.48696 1.67954 0
M  V30 17607 H 1653.72 2.34972 0.982855 0
M  V30 17608 H 1654.51 3.41977 -0.301135 0
M  V30 17609 N 1656.95 -0.331789 1.54068 0
M  V30 17610 C 1658.37 -0.675628 1.44594 0
M  V30 17611 C 1658.57 -1.91976 0.612166 0
M  V30 17612 O 1657.62 -2.5227 0.107742 0
M  V30 17613 C 1658.94 -0.857303 2.8822 0
M  V30 17614 C 1660.48 -0.955171 2.9807 0
M  V30 17615 C 1660.96 -1.16908 4.42828 0
M  V30 17616 N 1662.45 -1.23601 4.46405 0
M  V30 17617 C 1663.18 -1.41924 5.55558 0
M  V30 17618 N 1662.68 -1.57345 6.74696 0
M  V30 17619 N 1664.47 -1.44566 5.43191 0
M  V30 17620 H 1656.62 0.486058 2.06764 0
M  V30 17621 H 1658.89 0.155605 0.935142 0
M  V30 17622 H 1658.59 -0.0144659 3.51697 0
M  V30 17623 H 1658.47 -1.75558 3.33855 0
M  V30 17624 H 1660.85 -1.78852 2.34725 0
M  V30 17625 H 1660.94 -0.0335425 2.55778 0
M  V30 17626 H 1660.58 -0.340612 5.06757 0
M  V30 17627 H 1660.51 -2.10445 4.82722 0
M  V30 17628 H 1663 -1.13161 3.60559 0
M  V30 17629 H 1663.31 -1.70995 7.53645 0
M  V30 17630 H 1661.66 -1.54458 6.77619 0
M  V30 17631 H 1664.85 -1.3211 4.49071 0
M  V30 17632 H 1665.02 -1.58505 6.28315 0
M  V30 17633 N 1658.43 -1.46001 -0.593424 0
M  V30 17634 C 1659.84 -1.45049 -1.17549 0
M  V30 17635 C 1660.19 -0.185601 -1.9532 0
M  V30 17636 O 1659.32 0.711989 -2.04352 0
M  V30 17637 C 1659.91 -2.62789 -2.13839 0
M  V30 17638 C 1658.47 -2.64912 -2.67392 0
M  V30 17639 C 1657.62 -2.37549 -1.43059 0
M  V30 17640 H 1660.57 -1.54035 -0.381944 0
M  V30 17641 H 1660.59 -2.37696 -2.97121 0
M  V30 17642 H 1660.1 -3.54834 -1.57208 0
M  V30 17643 H 1658.2 -1.76911 -3.27922 0
M  V30 17644 H 1658.31 -3.6456 -3.10858 0
M  V30 17645 H 1656.68 -1.8739 -1.72503 0
M  V30 17646 H 1657.46 -3.31757 -0.882746 0
M  V30 17647 N 1659.91 0.83715 -1.33527 0
M  V30 17648 C 1661.16 1.58747 -1.24428 0
M  V30 17649 C 1661.47 1.94696 0.187885 0
M  V30 17650 O 1662.67 2.68524 0.400903 0
M  V30 17651 C 1661.13 2.86337 -2.18035 0
M  V30 17652 C 1660.74 2.57745 -3.66431 0
M  V30 17653 C 1662.48 3.6436 -2.17812 0
M  V30 17654 C 1660.39 3.81443 -4.51946 0
M  V30 17655 H 1659.32 0.595749 -0.462168 0
M  V30 17656 H 1661.97 0.922901 -1.58603 0
M  V30 17657 H 1660.35 3.54344 -1.76795 0
M  V30 17658 H 1661.53 1.97939 -4.16121 0
M  V30 17659 H 1659.84 1.93023 -3.68959 0
M  V30 17660 H 1662.44 4.56181 -2.78932 0
M  V30 17661 H 1662.78 3.99414 -1.17364 0
M  V30 17662 H 1663.31 3.03279 -2.57423 0
M  V30 17663 H 1660.05 3.51519 -5.53276 0
M  V30 17664 H 1659.57 4.40582 -4.06998 0
M  V30 17665 H 1661.25 4.49004 -4.65837 0
M  V30 17666 N 1661.38 1.17024 1.05561 0
M  V30 17667 C 1662.63 0.957742 1.7876 0
M  V30 17668 C 1662.96 -0.512652 1.87311 0
M  V30 17669 O 1662.24 -1.38047 1.37016 0
M  V30 17670 C 1662.52 1.59495 3.22852 0
M  V30 17671 C 1662.37 3.13719 3.22336 0
M  V30 17672 C 1663.69 1.29576 4.20593 0
M  V30 17673 H 1660.81 0.349354 0.648938 0
M  V30 17674 H 1663.45 1.44467 1.23408 0
M  V30 17675 H 1661.6 1.18091 3.70117 0
M  V30 17676 H 1663.28 3.64156 2.83175 0
M  V30 17677 H 1661.52 3.46664 2.60781 0
M  V30 17678 H 1662.19 3.5343 4.24018 0
M  V30 17679 H 1664.67 1.65423 3.81804 0
M  V30 17680 H 1663.54 1.76751 5.19663 0
M  V30 17681 H 1663.8 0.21589 4.41573 0
M  V30 17682 N 1662.86 -1.24221 0.969889 0
M  V30 17683 C 1664.27 -1.74206 0.671494 0
M  V30 17684 C 1664.62 -1.78576 -0.81271 0
M  V30 17685 O 1663.75 -1.41664 -1.63586 0
M  V30 17686 C 1664.34 -3.16371 1.21222 0
M  V30 17687 C 1662.9 -3.63855 0.96368 0
M  V30 17688 C 1662.05 -2.42429 1.34623 0
M  V30 17689 H 1665 -1.09893 1.14496 0
M  V30 17690 H 1665.02 -3.7606 0.579552 0
M  V30 17691 H 1664.53 -3.13159 2.29245 0
M  V30 17692 H 1662.64 -3.72463 -0.100931 0
M  V30 17693 H 1662.75 -4.51207 1.61087 0
M  V30 17694 H 1661.11 -2.42952 0.764624 0
M  V30 17695 H 1661.9 -2.41896 2.436 0
M  V30 17696 N 1664.34 -0.740267 -1.39132 0
M  V30 17697 C 1665.57 -0.300494 -2.04403 0
M  V30 17698 C 1665.98 1.07148 -1.55936 0
M  V30 17699 O 1665.32 1.68929 -0.72172 0
M  V30 17700 C 1665.38 -0.229797 -3.58765 0
M  V30 17701 C 1665.05 -1.54111 -4.30231 0
M  V30 17702 C 1666.04 -2.48781 -4.56513 0
M  V30 17703 C 1663.73 -1.80686 -4.68677 0
M  V30 17704 C 1665.72 -3.68255 -5.20256 0
M  V30 17705 C 1663.41 -3.00437 -5.32147 0
M  V30 17706 C 1664.41 -3.94043 -5.5787 0
M  V30 17707 O 1664.1 -5.1169 -6.20023 0
M  V30 17708 H 1663.83 -0.128309 -0.663711 0
M  V30 17709 H 1666.38 -1.00624 -1.79064 0
M  V30 17710 H 1664.61 0.532089 -3.83022 0
M  V30 17711 H 1666.3 0.178681 -4.05507 0
M  V30 17712 H 1667.07 -2.29521 -4.27253 0
M  V30 17713 H 1662.95 -1.08669 -4.48009 0
M  V30 17714 H 1666.49 -4.41334 -5.4025 0
M  V30 17715 H 1662.39 -3.19595 -5.60829 0
M  V30 17716 H 1663.16 -5.12095 -6.38515 0
M  V30 17717 N 1665.82 1.49844 -0.488302 0
M  V30 17718 C 1667.04 2.07313 0.0600937 0
M  V30 17719 C 1667.47 1.3478 1.3121 0
M  V30 17720 O 1666.83 0.400634 1.76818 0
M  V30 17721 C 1666.87 3.59268 0.309658 0
M  V30 17722 O 1665.98 3.88381 1.38688 0
M  V30 17723 H 1665.32 0.663681 -0.0205947 0
M  V30 17724 H 1667.85 1.92818 -0.684284 0
M  V30 17725 H 1667.86 4.04344 0.545 0
M  V30 17726 H 1666.53 4.11474 -0.605146 0
M  V30 17727 H 1665.11 3.55128 1.13749 0
M  V30 17728 N 1667.3 0.221601 1.56034 0
M  V30 17729 C 1668.52 -0.417979 2.03145 0
M  V30 17730 C 1668.95 -1.52556 1.10038 0
M  V30 17731 O 1668.3 -1.81084 0.0885729 0
M  V30 17732 C 1668.35 -0.926762 3.48487 0
M  V30 17733 O 1667.46 -2.03811 3.58518 0
M  V30 17734 H 1666.8 -0.0945778 0.65723 0
M  V30 17735 H 1669.33 0.340252 2.01751 0
M  V30 17736 H 1669.34 -1.23656 3.8881 0
M  V30 17737 H 1668.01 -0.116115 4.15738 0
M  V30 17738 H 1666.59 -1.73494 3.30082 0
M  V30 17739 N 1668.77 -1.57515 -0.0517878 0
M  V30 17740 C 1669.71 -2.00388 -1.09178 0
M  V30 17741 C 1670.69 -0.88418 -1.36459 0
M  V30 17742 O 1671.87 -1.14816 -1.49498 0
M  V30 17743 C 1669 -2.35764 -2.43173 0
M  V30 17744 C 1668.04 -3.57947 -2.31898 0
M  V30 17745 S 1668.88 -5.08 -1.69399 0
M  V30 17746 C 1670.03 -5.46597 -3.04931 0
M  V30 17747 H 1670.26 -2.88287 -0.726501 0
M  V30 17748 H 1667.8 -1.52178 -0.261014 0
M  V30 17749 H 1669.76 -2.56818 -3.20241 0
M  V30 17750 H 1668.42 -1.48358 -2.76855 0
M  V30 17751 H 1667.61 -3.80281 -3.30761 0
M  V30 17752 H 1667.21 -3.36626 -1.62969 0
M  V30 17753 H 1669.5 -5.45891 -4.01259 0
M  V30 17754 H 1670.45 -6.47173 -2.87355 0
M  V30 17755 H 1670.85 -4.74072 -3.06457 0
M  V30 17756 N 1670.25 0.323614 -1.54242 0
M  V30 17757 C 1671.5 1.06156 -1.72444 0
M  V30 17758 C 1671.83 1.88013 -0.498116 0
M  V30 17759 O 1671.08 1.88661 0.520133 0
M  V30 17760 C 1671.38 2.01452 -2.95215 0
M  V30 17761 C 1671.05 1.3575 -4.2998 0
M  V30 17762 C 1669.71 1.17563 -4.66618 0
M  V30 17763 C 1672.06 0.885938 -5.13615 0
M  V30 17764 C 1669.39 0.508674 -5.84491 0
M  V30 17765 C 1671.74 0.232807 -6.32171 0
M  V30 17766 C 1670.41 0.0387807 -6.67489 0
M  V30 17767 H 1669.68 0.388454 -0.631019 0
M  V30 17768 H 1672.32 0.338714 -1.88481 0
M  V30 17769 H 1670.63 2.80188 -2.73865 0
M  V30 17770 H 1672.33 2.5858 -3.06492 0
M  V30 17771 H 1668.92 1.50908 -4.01154 0
M  V30 17772 H 1673.1 1.01424 -4.85826 0
M  V30 17773 H 1668.36 0.347149 -6.10414 0
M  V30 17774 H 1672.53 -0.140594 -6.96258 0
M  V30 17775 H 1670.16 -0.480052 -7.58683 0
M  V30 17776 N 1671.73 1.46313 0.585673 0
M  V30 17777 C 1672.97 1.53027 1.35507 0
M  V30 17778 C 1673.34 0.176473 1.91187 0
M  V30 17779 O 1674.54 0.118349 2.68539 0
M  V30 17780 C 1672.81 2.59609 2.45638 0
M  V30 17781 S 1674.37 2.85706 3.33043 0
M  V30 17782 H 1671.18 0.540697 0.461701 0
M  V30 17783 H 1673.79 1.8353 0.673585 0
M  V30 17784 H 1672.49 3.5661 2.03119 0
M  V30 17785 H 1672.02 2.30829 3.18562 0
M  V30 17786 H 1674.04 2.20751 4.44391 0
M  V30 17787 N 1673.21 -0.830057 1.33969 0
M  V30 17788 C 1674.14 -1.95557 1.27592 0
M  V30 17789 C 1675.12 -1.69395 0.154745 0
M  V30 17790 O 1676.31 -1.91094 0.345954 0
M  V30 17791 C 1673.44 -3.31881 1.02335 0
M  V30 17792 C 1672.39 -3.72464 2.10842 0
M  V30 17793 C 1671.72 -5.06692 1.70785 0
M  V30 17794 C 1673.02 -3.85315 3.52604 0
M  V30 17795 H 1674.71 -2.0115 2.21763 0
M  V30 17796 H 1672.26 -0.96639 1.06756 0
M  V30 17797 H 1674.21 -4.10197 0.965206 0
M  V30 17798 H 1672.93 -3.26568 0.0460462 0
M  V30 17799 H 1671.59 -2.96417 2.15714 0
M  V30 17800 H 1671.24 -4.97859 0.717334 0
M  V30 17801 H 1670.94 -5.34817 2.43403 0
M  V30 17802 H 1672.46 -5.87474 1.66452 0
M  V30 17803 H 1673.88 -4.5392 3.50185 0
M  V30 17804 H 1672.27 -4.24886 4.23783 0
M  V30 17805 H 1673.34 -2.87514 3.90466 0
M  V30 17806 N 1674.69 -1.17582 -1.04939 0
M  V30 17807 C 1675.91 -0.99097 -1.82194 0
M  V30 17808 C 1676.34 0.455965 -1.8249 0
M  V30 17809 O 1675.7 1.32661 -1.23575 0
M  V30 17810 C 1675.74 -1.53971 -3.26076 0
M  V30 17811 O 1674.85 -0.755172 -4.05427 0
M  V30 17812 H 1674.19 -0.351669 -0.563227 0
M  V30 17813 H 1676.72 -1.56138 -1.3222 0
M  V30 17814 H 1676.73 -1.56307 -3.76872 0
M  V30 17815 H 1675.4 -2.59295 -3.25175 0
M  V30 17816 H 1673.98 -0.803423 -3.64142 0
M  V30 17817 N 1676.17 1.23705 -0.976463 0
M  V30 17818 C 1677.58 1.73848 -0.680723 0
M  V30 17819 C 1677.93 1.79005 0.803228 0
M  V30 17820 O 1677.05 1.42529 1.62832 0
M  V30 17821 C 1677.65 3.15724 -1.22898 0
M  V30 17822 C 1676.21 3.63338 -0.982963 0
M  V30 17823 C 1675.35 2.41712 -1.35906 0
M  V30 17824 H 1678.3 1.09284 -1.15077 0
M  V30 17825 H 1678.33 3.75748 -0.599487 0
M  V30 17826 H 1677.84 3.11938 -2.30903 0
M  V30 17827 H 1675.94 3.72512 0.0811766 0
M  V30 17828 H 1676.05 4.50347 -1.63477 0
M  V30 17829 H 1674.42 2.42543 -0.777498 0
M  V30 17830 H 1675.2 2.40601 -2.4488 0
M  V30 17831 N 1677.64 0.747635 1.38738 0
M  V30 17832 C 1678.87 0.311781 2.04537 0
M  V30 17833 C 1679.29 -1.05782 1.56383 0
M  V30 17834 O 1678.64 -1.67077 0.734259 0
M  V30 17835 C 1678.69 0.318675 3.60093 0
M  V30 17836 O 1678.42 1.63423 4.06478 0
M  V30 17837 C 1679.92 -0.131782 4.43104 0
M  V30 17838 H 1677.14 0.134141 0.657455 0
M  V30 17839 H 1679.68 1.01482 1.77543 0
M  V30 17840 H 1677.84 -0.335578 3.85944 0
M  V30 17841 H 1678.25 1.55636 5.00877 0
M  V30 17842 H 1679.72 -0.0757978 5.51948 0
M  V30 17843 H 1680.2 -1.17881 4.23085 0
M  V30 17844 H 1680.81 0.493375 4.22429 0
M  V30 17845 N 1679.12 -1.49583 0.496242 0
M  V30 17846 C 1680.07 -2.30677 -0.298474 0
M  V30 17847 C 1681.06 -1.39074 -0.967207 0
M  V30 17848 O 1682.27 -1.56147 -0.895439 0
M  V30 17849 H 1678.64 -0.743138 -0.11511 0
M  V30 17850 H 1680.62 -2.95632 0.405533 0
M  V30 17851 C 1679.36 -3.20297 -1.35297 0
M  V30 17852 H 1678.69 -3.90708 -0.847789 0
M  V30 17853 H 1680.13 -3.79987 -1.88111 0
M  V30 17854 C 1678.59 -2.39584 -2.36857 0
M  V30 17855 O 1679.12 -2.09662 -3.42644 0
M  V30 17856 N 1677.32 -2.01695 -2.09206 0
M  V30 17857 H 1676.87 -2.26229 -1.23201 0
M  V30 17858 H 1676.83 -1.47998 -2.77388 0
M  V30 17859 N 1680.6 -0.229873 -1.55915 0
M  V30 17860 C 1681.53 0.671321 -2.23642 0
M  V30 17861 C 1682.51 1.19461 -1.21091 0
M  V30 17862 O 1683.7 1.23708 -1.49699 0
M  V30 17863 C 1680.83 1.87595 -2.92276 0
M  V30 17864 C 1679.78 1.48616 -4.01369 0
M  V30 17865 C 1679.11 2.77024 -4.57342 0
M  V30 17866 C 1680.41 0.669928 -5.17986 0
M  V30 17867 H 1682.1 0.106622 -2.9921 0
M  V30 17868 H 1679.65 0.0498418 -1.43914 0
M  V30 17869 H 1681.6 2.51191 -3.3835 0
M  V30 17870 H 1680.32 2.46576 -2.14168 0
M  V30 17871 H 1678.98 0.873623 -3.56038 0
M  V30 17872 H 1678.63 3.34166 -3.75955 0
M  V30 17873 H 1678.33 2.51674 -5.30975 0
M  V30 17874 H 1679.85 3.41548 -5.0614 0
M  V30 17875 H 1681.27 1.20978 -5.6039 0
M  V30 17876 H 1679.66 0.513174 -5.97902 0
M  V30 17877 H 1680.73 -0.321644 -4.83832 0
M  V30 17878 N 1682.08 1.5754 0.0434337 0
M  V30 17879 C 1683.01 2.08648 1.04824 0
M  V30 17880 C 1683.99 0.985894 1.38615 0
M  V30 17881 O 1685.17 1.2603 1.4775 0
M  V30 17882 C 1682.3 2.55399 2.35348 0
M  V30 17883 C 1681.26 3.69592 2.15837 0
M  V30 17884 C 1680.58 4.02497 3.51995 0
M  V30 17885 C 1681.88 4.98575 1.55629 0
M  V30 17886 H 1683.58 2.9285 0.622849 0
M  V30 17887 H 1681.12 1.40879 0.298158 0
M  V30 17888 H 1683.08 2.89771 3.05958 0
M  V30 17889 H 1681.8 1.68262 2.7992 0
M  V30 17890 H 1680.46 3.35546 1.47663 0
M  V30 17891 H 1680.11 3.12448 3.94189 0
M  V30 17892 H 1679.81 4.79406 3.39771 0
M  V30 17893 H 1681.33 4.39391 4.23991 0
M  V30 17894 H 1682.75 5.30996 2.16138 0
M  V30 17895 H 1681.14 5.79998 1.54021 0
M  V30 17896 H 1682.21 4.82098 0.520567 0
M  V30 17897 N 1683.56 -0.31543 1.54411 0
M  V30 17898 C 1684.97 -0.660254 1.45302 0
M  V30 17899 C 1685.17 -1.91316 0.632493 0
M  V30 17900 O 1684.23 -2.52142 0.134493 0
M  V30 17901 C 1685.54 -0.826685 2.89113 0
M  V30 17902 C 1687.09 -0.923503 2.99066 0
M  V30 17903 C 1687.56 -1.12204 4.44043 0
M  V30 17904 N 1689.05 -1.18859 4.47691 0
M  V30 17905 C 1689.79 -1.36024 5.57032 0
M  V30 17906 N 1689.29 -1.5018 6.76327 0
M  V30 17907 N 1691.08 -1.38797 5.44694 0
M  V30 17908 H 1683.23 0.507961 2.06237 0
M  V30 17909 H 1685.49 0.165515 0.933439 0
M  V30 17910 H 1685.2 0.0228371 3.51693 0
M  V30 17911 H 1685.07 -1.72007 3.35698 0
M  V30 17912 H 1687.46 -1.76352 2.36609 0
M  V30 17913 H 1687.54 -0.00641189 2.55799 0
M  V30 17914 H 1687.18 -0.286844 5.07089 0
M  V30 17915 H 1687.11 -2.05313 4.84927 0
M  V30 17916 H 1689.61 -1.0933 3.61739 0
M  V30 17917 H 1689.92 -1.62992 7.55416 0
M  V30 17918 H 1688.26 -1.47262 6.79219 0
M  V30 17919 H 1691.45 -1.27339 4.50447 0
M  V30 17920 H 1691.63 -1.51832 6.29961 0
M  V30 17921 N 1685.03 -1.46622 -0.577906 0
M  V30 17922 C 1686.45 -1.31683 -0.901762 0
M  V30 17923 C 1686.65 -0.291842 -1.99375 0
M  V30 17924 O 1685.71 0.303913 -2.50664 0
M  V30 17925 C 1687.02 -2.70443 -1.31457 0
M  V30 17926 C 1688.57 -2.7857 -1.42715 0
M  V30 17927 C 1689.04 -4.17923 -1.87361 0
M  V30 17928 N 1690.53 -4.20364 -1.94546 0
M  V30 17929 C 1691.27 -5.25085 -2.30376 0
M  V30 17930 N 1690.76 -6.4013 -2.64964 0
M  V30 17931 N 1692.56 -5.12453 -2.30972 0
M  V30 17932 H 1684.71 -2.11916 0.143367 0
M  V30 17933 H 1686.97 -0.947999 0.00146914 0
M  V30 17934 H 1686.68 -3.46781 -0.586174 0
M  V30 17935 H 1686.55 -3.00864 -2.2751 0
M  V30 17936 H 1688.94 -2.02518 -2.14641 0
M  V30 17937 H 1689.02 -2.51828 -0.449021 0
M  V30 17938 H 1688.66 -4.94473 -1.16012 0
M  V30 17939 H 1688.59 -4.42076 -2.8614 0
M  V30 17940 H 1691.08 -3.37359 -1.70286 0
M  V30 17941 H 1691.4 -7.15808 -2.91271 0
M  V30 17942 H 1689.74 -6.43483 -2.62591 0
M  V30 17943 H 1692.93 -4.21611 -2.03376 0
M  V30 17944 H 1693.11 -5.94178 -2.58566 0
M  V30 17945 N 1686.51 0.822941 -1.34408 0
M  V30 17946 C 1687.76 1.57916 -1.26763 0
M  V30 17947 C 1688.09 1.93821 0.162408 0
M  V30 17948 O 1687.34 1.60226 1.12366 0
M  V30 17949 C 1687.64 2.88915 -2.10388 0
M  V30 17950 C 1687.31 2.72302 -3.59392 0
M  V30 17951 C 1685.97 2.67479 -4.00011 0
M  V30 17952 C 1688.32 2.5598 -4.54008 0
M  V30 17953 C 1685.65 2.44255 -5.33438 0
M  V30 17954 C 1688 2.34288 -5.87615 0
M  V30 17955 C 1686.67 2.27877 -6.27398 0
M  V30 17956 H 1685.94 0.577854 -0.46386 0
M  V30 17957 H 1688.58 0.95218 -1.6615 0
M  V30 17958 H 1686.89 3.55903 -1.63829 0
M  V30 17959 H 1688.58 3.46511 -2.01819 0
M  V30 17960 H 1685.17 2.76896 -3.27149 0
M  V30 17961 H 1689.36 2.5873 -4.23524 0
M  V30 17962 H 1684.61 2.37749 -5.63281 0
M  V30 17963 H 1688.79 2.20646 -6.60521 0
M  V30 17964 H 1686.42 2.09643 -7.30722 0
M  V30 17965 N 1687.99 1.18137 1.04314 0
M  V30 17966 C 1689.23 0.986144 1.79038 0
M  V30 17967 C 1689.59 -0.476023 1.86005 0
M  V30 17968 O 1690.8 -0.790612 2.5691 0
M  V30 17969 C 1689.07 1.62008 3.18572 0
M  V30 17970 S 1690.63 1.57227 4.09665 0
M  V30 17971 H 1687.44 0.354181 0.616503 0
M  V30 17972 H 1690.05 1.50237 1.25096 0
M  V30 17973 H 1688.75 2.67655 3.11109 0
M  V30 17974 H 1688.28 1.10403 3.77591 0
M  V30 17975 H 1690.3 0.586418 4.92723 0
M  V30 17976 N 1689.47 -1.23186 0.98301 0
M  V30 17977 C 1690.42 -2.22529 0.496484 0
M  V30 17978 C 1691.4 -1.5505 -0.429923 0
M  V30 17979 O 1692.59 -1.75104 -0.258352 0
M  V30 17980 C 1689.72 -3.42733 -0.197237 0
M  V30 17981 C 1688.81 -4.17435 0.748894 0
M  V30 17982 N 1689.2 -4.69056 1.89261 0
M  V30 17983 C 1687.5 -4.42435 0.562753 0
M  V30 17984 C 1688.2 -5.25918 2.48566 0
M  V30 17985 N 1687.18 -5.14001 1.76929 0
M  V30 17986 H 1690.98 -2.60072 1.36893 0
M  V30 17987 H 1688.49 -1.38745 0.844014 0
M  V30 17988 H 1690.49 -4.1308 -0.56311 0
M  V30 17989 H 1689.15 -3.06705 -1.06593 0
M  V30 17990 H 1690.16 -4.6532 2.27372 0
M  V30 17991 H 1686.84 -4.16685 -0.260705 0
M  V30 17992 H 1688.23 -5.76462 3.45168 0
M  V30 17993 N 1690.95 -0.754982 -1.38339 0
M  V30 17994 C 1692.18 -0.322156 -2.04073 0
M  V30 17995 C 1692.58 1.05488 -1.57063 0
M  V30 17996 O 1691.93 1.68154 -0.739597 0
M  V30 17997 C 1691.99 -0.267836 -3.58501 0
M  V30 17998 C 1691.65 -1.58665 -4.28572 0
M  V30 17999 C 1692.65 -2.53609 -4.53849 0
M  V30 18000 C 1690.34 -1.85647 -4.66734 0
M  V30 18001 C 1692.33 -3.73753 -5.16321 0
M  V30 18002 C 1690.02 -3.06065 -5.28931 0
M  V30 18003 C 1691.01 -3.99938 -5.53659 0
M  V30 18004 O 1690.7 -5.18238 -6.14561 0
M  V30 18005 H 1690.43 -0.135341 -0.662313 0
M  V30 18006 H 1692.99 -1.02517 -1.77987 0
M  V30 18007 H 1691.22 0.491434 -3.83565 0
M  V30 18008 H 1692.91 0.135662 -4.05673 0
M  V30 18009 H 1693.67 -2.3404 -4.24794 0
M  V30 18010 H 1689.55 -1.13415 -4.46831 0
M  V30 18011 H 1693.1 -4.47039 -5.35539 0
M  V30 18012 H 1688.99 -3.25526 -5.57408 0
M  V30 18013 H 1689.76 -5.18838 -6.33047 0
M  V30 18014 N 1692.42 1.49318 -0.504168 0
M  V30 18015 C 1693.67 2.01658 0.0410881 0
M  V30 18016 C 1693.99 1.38866 1.37752 0
M  V30 18017 O 1695.19 1.82552 2.00965 0
M  V30 18018 C 1693.65 3.59687 0.123682 0
M  V30 18019 C 1693.26 4.31454 -1.2063 0
M  V30 18020 C 1695 4.19961 0.619134 0
M  V30 18021 C 1692.91 5.81349 -1.0857 0
M  V30 18022 H 1691.84 0.753757 0.0191287 0
M  V30 18023 H 1694.49 1.71826 -0.644066 0
M  V30 18024 H 1692.87 3.86249 0.873355 0
M  V30 18025 H 1694.04 4.1659 -1.96951 0
M  V30 18026 H 1692.36 3.82939 -1.63544 0
M  V30 18027 H 1694.96 5.29736 0.726925 0
M  V30 18028 H 1695.3 3.83539 1.61874 0
M  V30 18029 H 1695.83 3.97731 -0.0740966 0
M  V30 18030 H 1692.57 6.22301 -2.05967 0
M  V30 18031 H 1692.09 5.98698 -0.363422 0
M  V30 18032 H 1693.77 6.42453 -0.765722 0
M  V30 18033 N 1693.9 0.238138 1.5579 0
M  V30 18034 C 1695.15 -0.389608 1.99022 0
M  V30 18035 C 1695.48 -1.58226 1.12597 0
M  V30 18036 O 1694.76 -1.93595 0.187363 0
M  V30 18037 C 1695.04 -0.808025 3.50917 0
M  V30 18038 C 1694.89 0.389417 4.48111 0
M  V30 18039 C 1696.21 -1.6582 4.07666 0
M  V30 18040 H 1693.33 -0.140141 0.723553 0
M  V30 18041 H 1695.97 0.337696 1.86975 0
M  V30 18042 H 1694.12 -1.42772 3.61315 0
M  V30 18043 H 1695.79 1.02777 4.49705 0
M  V30 18044 H 1694.04 1.03404 4.21296 0
M  V30 18045 H 1694.71 0.0534549 5.51974 0
M  V30 18046 H 1697.18 -1.13518 4.00316 0
M  V30 18047 H 1696.06 -1.91984 5.14231 0
M  V30 18048 H 1696.32 -2.62712 3.55577 0
M  V30 18049 N 1695.38 -1.57561 -0.0350783 0
M  V30 18050 C 1696.61 -1.93251 -0.73903 0
M  V30 18051 C 1697.02 -0.83739 -1.69214 0
M  V30 18052 O 1696.38 0.186669 -1.81543 0
M  V30 18053 C 1696.43 -3.28853 -1.50127 0
M  V30 18054 O 1696.15 -4.34157 -0.586426 0
M  V30 18055 C 1697.65 -3.78788 -2.30292 0
M  V30 18056 H 1694.87 -0.63793 -0.208053 0
M  V30 18057 H 1697.42 -2.04499 0.00560398 0
M  V30 18058 H 1695.57 -3.1902 -2.19784 0
M  V30 18059 H 1695.99 -5.12395 -1.12034 0
M  V30 18060 H 1697.46 -4.76197 -2.79178 0
M  V30 18061 H 1697.94 -3.09671 -3.11449 0
M  V30 18062 H 1698.54 -3.91684 -1.65721 0
M  V30 18063 N 1696.86 0.307236 -1.54576 0
M  V30 18064 C 1697.79 1.4031 -1.79968 0
M  V30 18065 C 1698.77 1.4902 -0.650513 0
M  V30 18066 O 1699.95 1.66178 -0.889778 0
M  V30 18067 C 1697.08 2.78274 -1.93083 0
M  V30 18068 C 1696.13 2.87017 -3.15473 0
M  V30 18069 S 1696.96 2.49751 -4.73693 0
M  V30 18070 C 1698.12 3.89755 -4.89736 0
M  V30 18071 H 1698.35 1.18562 -2.72636 0
M  V30 18072 H 1695.88 0.504999 -1.45908 0
M  V30 18073 H 1697.84 3.57741 -2.01325 0
M  V30 18074 H 1696.5 2.97295 -1.01364 0
M  V30 18075 H 1695.69 3.88196 -3.21434 0
M  V30 18076 H 1695.3 2.15539 -3.05645 0
M  V30 18077 H 1697.59 4.84687 -4.73376 0
M  V30 18078 H 1698.53 3.88768 -5.91832 0
M  V30 18079 H 1698.94 3.79468 -4.17928 0
M  V30 18080 N 1698.34 1.46926 0.570122 0
M  V30 18081 C 1699.75 1.32159 0.894766 0
M  V30 18082 C 1699.95 0.302411 1.99218 0
M  V30 18083 O 1699.01 -0.290615 2.50822 0
M  V30 18084 C 1700.32 2.71136 1.30021 0
M  V30 18085 C 1701.87 2.79323 1.41236 0
M  V30 18086 C 1702.34 4.18911 1.85142 0
M  V30 18087 N 1703.84 4.2139 1.92314 0
M  V30 18088 C 1704.57 5.263 2.27588 0
M  V30 18089 N 1704.07 6.41526 2.61565 0
M  V30 18090 N 1705.86 5.13671 2.28251 0
M  V30 18091 H 1698.01 2.11837 -0.154603 0
M  V30 18092 H 1700.27 0.947978 -0.00649658 0
M  V30 18093 H 1699.98 3.47087 0.567775 0
M  V30 18094 H 1699.85 3.02066 2.25911 0
M  V30 18095 H 1702.24 2.03653 2.13564 0
M  V30 18096 H 1702.32 2.52063 0.43566 0
M  V30 18097 H 1701.97 4.95081 1.13389 0
M  V30 18098 H 1701.9 4.43587 2.83792 0
M  V30 18099 H 1704.39 3.38257 1.68495 0
M  V30 18100 H 1704.7 7.17343 2.8747 0
M  V30 18101 H 1703.04 6.44867 2.59175 0
M  V30 18102 H 1706.24 4.22684 2.01137 0
M  V30 18103 H 1706.41 5.95541 2.55412 0
M  V30 18104 N 1699.82 -0.815801 1.34842 0
M  V30 18105 C 1701.05 -1.60164 1.30503 0
M  V30 18106 C 1701.45 -1.88809 -0.121561 0
M  V30 18107 O 1700.8 -1.48511 -1.08121 0
M  V30 18108 C 1700.86 -2.96361 2.03495 0
M  V30 18109 C 1700.52 -2.90577 3.52724 0
M  V30 18110 C 1701.52 -2.6466 4.47495 0
M  V30 18111 C 1699.2 -3.09985 3.9524 0
M  V30 18112 C 1701.2 -2.58212 5.82757 0
M  V30 18113 C 1698.89 -3.03161 5.306 0
M  V30 18114 C 1699.88 -2.77309 6.2417 0
M  V30 18115 O 1699.57 -2.70431 7.57048 0
M  V30 18116 H 1699.3 -0.504321 0.450151 0
M  V30 18117 H 1701.86 -1.02254 1.78139 0
M  V30 18118 H 1700.09 -3.56219 1.50483 0
M  V30 18119 H 1701.78 -3.57429 1.92353 0
M  V30 18120 H 1702.54 -2.49394 4.15966 0
M  V30 18121 H 1698.42 -3.2912 3.22801 0
M  V30 18122 H 1701.97 -2.37954 6.55762 0
M  V30 18123 H 1697.86 -3.17982 5.61745 0
M  V30 18124 H 1698.63 -2.86107 7.66867 0
M  V30 18125 N 1701.29 -1.18689 -1.03686 0
M  V30 18126 C 1702.54 -0.984601 -1.76952 0
M  V30 18127 C 1702.87 0.485417 -1.88345 0
M  V30 18128 O 1702.12 1.37665 -1.39093 0
M  V30 18129 C 1702.42 -1.58911 -3.20128 0
M  V30 18130 C 1702.09 -3.0859 -3.2876 0
M  V30 18131 C 1700.75 -3.49442 -3.30823 0
M  V30 18132 C 1703.1 -4.04603 -3.28551 0
M  V30 18133 C 1700.43 -4.84875 -3.30323 0
M  V30 18134 C 1702.78 -5.39956 -3.29591 0
M  V30 18135 C 1701.45 -5.8025 -3.29948 0
M  V30 18136 H 1700.72 -0.360291 -0.647512 0
M  V30 18137 H 1703.36 -1.47811 -1.21754 0
M  V30 18138 H 1701.67 -1.0177 -3.78352 0
M  V30 18139 H 1703.37 -1.40797 -3.75469 0
M  V30 18140 H 1699.96 -2.76034 -3.27877 0
M  V30 18141 H 1704.14 -3.7409 -3.26145 0
M  V30 18142 H 1699.4 -5.15386 -3.28919 0
M  V30 18143 H 1703.57 -6.14117 -3.28379 0
M  V30 18144 H 1701.2 -6.85169 -3.29315 0
M  V30 18145 N 1702.77 1.22662 -0.989529 0
M  V30 18146 C 1703.68 2.28162 -0.545835 0
M  V30 18147 C 1704.7 1.69251 0.403762 0
M  V30 18148 O 1705.87 1.99563 0.271428 0
M  V30 18149 C 1702.94 3.46434 0.135808 0
M  V30 18150 C 1702 4.20673 -0.85633 0
M  V30 18151 C 1701.23 5.33298 -0.207121 0
M  V30 18152 O 1701.46 5.6157 0.99975 0
M  V30 18153 O 1700.39 5.94977 -0.910288 0
M  V30 18154 H 1704.22 2.68276 -1.42344 0
M  V30 18155 H 1701.8 1.28766 -0.757609 0
M  V30 18156 H 1703.68 4.18207 0.517776 0
M  V30 18157 H 1702.36 3.08252 0.988035 0
M  V30 18158 H 1701.26 3.51186 -1.28917 0
M  V30 18159 H 1702.6 4.62726 -1.67765 0
M  V30 18160 N 1704.25 0.762308 1.37937 0
M  V30 18161 C 1705.5 0.322846 2.00214 0
M  V30 18162 C 1705.83 -1.09513 1.60376 0
M  V30 18163 O 1705.1 -1.75165 0.845432 0
M  V30 18164 C 1705.39 0.455651 3.57206 0
M  V30 18165 C 1705.24 1.91537 4.06981 0
M  V30 18166 C 1706.56 -0.145758 4.39859 0
M  V30 18167 H 1703.68 0.118781 0.727365 0
M  V30 18168 H 1706.32 0.963585 1.63753 0
M  V30 18169 H 1704.47 -0.0898341 3.88396 0
M  V30 18170 H 1706.14 2.51983 3.86397 0
M  V30 18171 H 1704.38 2.42744 3.59524 0
M  V30 18172 H 1705.06 1.9594 5.16054 0
M  V30 18173 H 1707.53 0.31956 4.14871 0
M  V30 18174 H 1706.41 -0.0226441 5.48895 0
M  V30 18175 H 1706.67 -1.23504 4.24499 0
M  V30 18176 N 1705.73 -1.49049 0.51208 0
M  V30 18177 C 1706.97 -2.0278 -0.0285311 0
M  V30 18178 C 1707.31 -1.39003 -1.35617 0
M  V30 18179 O 1706.58 -0.52952 -1.87153 0
M  V30 18180 C 1706.86 -3.59701 -0.169433 0
M  V30 18181 C 1706.72 -4.33989 1.18211 0
M  V30 18182 C 1708.04 -4.30698 -0.904812 0
M  V30 18183 H 1705.16 -0.736946 -0.00889467 0
M  V30 18184 H 1707.8 -1.77959 0.66564 0
M  V30 18185 H 1705.95 -3.8098 -0.760667 0
M  V30 18186 H 1707.62 -4.24176 1.81307 0
M  V30 18187 H 1705.86 -3.9611 1.76859 0
M  V30 18188 H 1706.53 -5.42177 1.03671 0
M  V30 18189 H 1709.01 -4.14141 -0.40327 0
M  V30 18190 H 1707.89 -5.40221 -0.972264 0
M  V30 18191 H 1708.15 -3.96718 -1.95108 0
M  V30 18192 N 1707.21 -0.246397 -1.55662 0
M  V30 18193 C 1708.45 0.378973 -1.98108 0
M  V30 18194 C 1708.77 1.59106 -1.13775 0
M  V30 18195 O 1709.97 2.28754 -1.46232 0
M  V30 18196 C 1708.43 0.725634 -3.52509 0
M  V30 18197 C 1708.04 -0.465024 -4.4558 0
M  V30 18198 C 1709.78 1.31522 -4.03611 0
M  V30 18199 C 1707.69 -0.0945447 -5.91324 0
M  V30 18200 H 1706.62 0.14537 -0.739854 0
M  V30 18201 H 1709.27 -0.346533 -1.80198 0
M  V30 18202 H 1707.65 1.50925 -3.66111 0
M  V30 18203 H 1708.83 -1.24236 -4.43736 0
M  V30 18204 H 1707.14 -0.969507 -4.04956 0
M  V30 18205 H 1709.74 1.60573 -5.1002 0
M  V30 18206 H 1710.08 2.23952 -3.50929 0
M  V30 18207 H 1710.61 0.594515 -3.93332 0
M  V30 18208 H 1707.35 -0.985965 -6.48042 0
M  V30 18209 H 1706.87 0.646601 -5.96305 0
M  V30 18210 H 1708.55 0.323447 -6.46191 0
M  V30 18211 N 1708.68 1.57577 0.026722 0
M  V30 18212 C 1709.61 2.09748 1.02605 0
M  V30 18213 C 1710.59 1.00054 1.37562 0
M  V30 18214 O 1711.78 1.2759 1.46405 0
M  V30 18215 C 1708.91 2.57881 2.32626 0
M  V30 18216 C 1707.86 3.7186 2.11905 0
M  V30 18217 C 1707.19 4.06208 3.47706 0
M  V30 18218 C 1708.49 5.00198 1.50332 0
M  V30 18219 H 1710.18 2.93494 0.591753 0
M  V30 18220 H 1707.73 1.41188 0.283199 0
M  V30 18221 H 1709.68 2.93 3.02868 0
M  V30 18222 H 1708.41 1.71222 2.7812 0
M  V30 18223 H 1707.07 3.37094 1.44096 0
M  V30 18224 H 1706.71 3.16611 3.90853 0
M  V30 18225 H 1706.41 4.82982 3.34667 0
M  V30 18226 H 1707.94 4.43863 4.19306 0
M  V30 18227 H 1709.35 5.33259 2.10494 0
M  V30 18228 H 1707.75 5.81599 1.4786 0
M  V30 18229 H 1708.82 4.82623 0.469405 0
M  V30 18230 N 1710.16 -0.299034 1.54737 0
M  V30 18231 C 1711.41 -1.03553 1.74369 0
M  V30 18232 C 1711.74 -1.86856 0.529019 0
M  V30 18233 O 1711.02 -1.8864 -0.473854 0
M  V30 18234 C 1711.3 -1.93988 3.03382 0
M  V30 18235 C 1711.15 -1.13852 4.35153 0
M  V30 18236 C 1712.47 -2.93128 3.28274 0
M  V30 18237 H 1709.59 -0.375055 0.634431 0
M  V30 18238 H 1712.23 -0.310018 1.87454 0
M  V30 18239 H 1710.38 -2.5585 2.92358 0
M  V30 18240 H 1712.05 -0.542614 4.58098 0
M  V30 18241 H 1710.3 -0.441278 4.3155 0
M  V30 18242 H 1710.97 -1.80385 5.21694 0
M  V30 18243 H 1713.44 -2.41396 3.38921 0
M  V30 18244 H 1712.32 -3.53569 4.19857 0
M  V30 18245 H 1712.58 -3.66892 2.46663 0
M  V30 18246 N 1711.64 -1.47227 -0.562322 0
M  V30 18247 C 1712.89 -1.53816 -1.32168 0
M  V30 18248 C 1713.22 -0.197649 -1.93192 0
M  V30 18249 O 1712.49 0.793178 -1.77592 0
M  V30 18250 C 1712.78 -2.65231 -2.43566 0
M  V30 18251 C 1712.63 -4.08882 -1.87445 0
M  V30 18252 C 1713.95 -2.72589 -3.45519 0
M  V30 18253 H 1711.07 -0.559947 -0.479195 0
M  V30 18254 H 1713.71 -1.7926 -0.629762 0
M  V30 18255 H 1711.86 -2.43667 -3.02587 0
M  V30 18256 H 1713.53 -4.41794 -1.32725 0
M  V30 18257 H 1711.77 -4.17401 -1.18149 0
M  V30 18258 H 1712.45 -4.82603 -2.67952 0
M  V30 18259 H 1714.92 -2.92028 -2.9641 0
M  V30 18260 H 1713.8 -3.5233 -4.20898 0
M  V30 18261 H 1714.06 -1.79444 -4.04045 0
M  V30 18262 N 1713.12 0.808639 -1.35273 0
M  V30 18263 C 1714.37 1.56071 -1.27768 0
M  V30 18264 C 1714.68 1.9505 0.146545 0
M  V30 18265 O 1715.89 2.69314 0.343855 0
M  V30 18266 C 1714.34 2.81648 -2.24059 0
M  V30 18267 C 1713.95 2.49915 -3.71815 0
M  V30 18268 C 1715.69 3.59658 -2.25492 0
M  V30 18269 C 1713.6 3.7177 -4.59936 0
M  V30 18270 H 1712.53 0.585811 -0.474701 0
M  V30 18271 H 1715.18 0.889051 -1.60525 0
M  V30 18272 H 1713.56 3.50514 -1.84271 0
M  V30 18273 H 1714.74 1.89068 -4.20226 0
M  V30 18274 H 1713.05 1.85154 -3.72971 0
M  V30 18275 H 1715.65 4.50162 -2.88545 0
M  V30 18276 H 1715.99 3.96835 -1.2581 0
M  V30 18277 H 1716.53 2.97751 -2.63798 0
M  V30 18278 H 1713.26 3.39704 -5.60608 0
M  V30 18279 H 1712.78 4.3185 -4.16252 0
M  V30 18280 H 1714.46 4.39022 -4.75256 0
M  V30 18281 N 1714.6 1.19237 1.03055 0
M  V30 18282 C 1715.56 0.930536 2.0946 0
M  V30 18283 C 1716.56 -0.0882907 1.60557 0
M  V30 18284 O 1717.75 0.146269 1.73585 0
M  V30 18285 C 1714.88 0.398165 3.38567 0
M  V30 18286 H 1716.07 1.87422 2.34122 0
M  V30 18287 H 1713.63 1.00579 1.19639 0
M  V30 18288 H 1714.36 -0.551646 3.19574 0
M  V30 18289 H 1714.15 1.13273 3.75382 0
M  V30 18290 H 1715.64 0.234006 4.16944 0
M  V30 18291 N 1716.07 -1.22136 0.99602 0
M  V30 18292 C 1717 -2.26463 0.568909 0
M  V30 18293 C 1717.99 -1.65189 -0.405783 0
M  V30 18294 O 1719.17 -1.91935 -0.295735 0
M  V30 18295 C 1716.3 -3.47112 -0.114166 0
M  V30 18296 C 1715.25 -4.20844 0.779387 0
M  V30 18297 C 1714.58 -5.34687 -0.0367787 0
M  V30 18298 C 1715.88 -4.79195 2.07773 0
M  V30 18299 H 1717.57 -2.62443 1.44097 0
M  V30 18300 H 1715.12 -1.26156 0.694314 0
M  V30 18301 H 1717.07 -4.19258 -0.424381 0
M  V30 18302 H 1715.8 -3.10238 -1.02079 0
M  V30 18303 H 1714.46 -3.50537 1.07329 0
M  V30 18304 H 1714.1 -4.94054 -0.94442 0
M  V30 18305 H 1713.8 -5.84944 0.558092 0
M  V30 18306 H 1715.33 -6.09647 -0.341016 0
M  V30 18307 H 1716.74 -5.43266 1.83126 0
M  V30 18308 H 1715.14 -5.39803 2.62169 0
M  V30 18309 H 1716.21 -3.99073 2.75442 0
M  V30 18310 N 1717.55 -0.769612 -1.37531 0
M  V30 18311 C 1718.78 -0.343069 -2.04543 0
M  V30 18312 C 1719.2 1.02583 -1.57665 0
M  V30 18313 O 1718.56 1.65692 -0.735915 0
M  V30 18314 C 1718.61 -0.392914 -3.58453 0
M  V30 18315 O 1717.71 0.607401 -4.07902 0
M  V30 18316 H 1717.05 -0.148905 -0.647088 0
M  V30 18317 H 1719.58 -1.04521 -1.75888 0
M  V30 18318 H 1719.59 -0.24945 -4.07237 0
M  V30 18319 H 1718.27 -1.39159 -3.91928 0
M  V30 18320 H 1716.85 0.427231 -3.70445 0
M  V30 18321 N 1719.03 1.48775 -0.519977 0
M  V30 18322 C 1720.26 2.07394 0.0161061 0
M  V30 18323 C 1720.68 1.37532 1.28322 0
M  V30 18324 O 1720.04 0.438049 1.75928 0
M  V30 18325 C 1720.09 3.59844 0.233382 0
M  V30 18326 O 1719.19 3.91235 1.30418 0
M  V30 18327 H 1718.53 0.663094 -0.0346678 0
M  V30 18328 H 1721.06 1.91323 -0.725029 0
M  V30 18329 H 1721.07 4.05409 0.45911 0
M  V30 18330 H 1719.75 4.10098 -0.69229 0
M  V30 18331 H 1718.32 3.5746 1.0619 0
M  V30 18332 N 1720.51 0.254649 1.55529 0
M  V30 18333 C 1721.76 -0.368461 1.98306 0
M  V30 18334 C 1722.07 -1.585 1.14617 0
M  V30 18335 O 1723.28 -2.27975 1.47443 0
M  V30 18336 C 1721.73 -0.70693 3.52889 0
M  V30 18337 C 1721.34 0.488648 4.45327 0
M  V30 18338 C 1723.08 -1.2938 4.04303 0
M  V30 18339 C 1720.99 0.125903 5.91266 0
M  V30 18340 H 1719.92 -0.141444 0.740614 0
M  V30 18341 H 1722.57 0.356085 1.80012 0
M  V30 18342 H 1720.95 -1.48982 3.66907 0
M  V30 18343 H 1722.13 1.26587 4.43071 0
M  V30 18344 H 1720.44 0.990969 4.04436 0
M  V30 18345 H 1723.04 -1.57866 5.10864 0
M  V30 18346 H 1723.38 -2.22088 3.52112 0
M  V30 18347 H 1723.92 -0.573647 3.93642 0
M  V30 18348 H 1720.66 1.02032 6.4751 0
M  V30 18349 H 1720.18 -0.614969 5.96639 0
M  V30 18350 H 1721.85 -0.289174 6.46353 0
M  V30 18351 N 1721.99 -1.57589 -0.0183649 0
M  V30 18352 C 1722.95 -2.06217 -1.00035 0
M  V30 18353 C 1723.95 -0.968195 -1.28385 0
M  V30 18354 O 1725.14 -1.23147 -1.23209 0
M  V30 18355 C 1722.27 -2.48815 -2.33032 0
M  V30 18356 H 1723.46 -2.94236 -0.580085 0
M  V30 18357 H 1721.02 -1.5403 -0.265438 0
M  V30 18358 H 1721.75 -1.63985 -2.79785 0
M  V30 18359 H 1721.54 -3.28694 -2.13781 0
M  V30 18360 H 1723.03 -2.86828 -3.03512 0
M  V30 18361 N 1723.46 0.290824 -1.54893 0
M  V30 18362 C 1724.39 1.36354 -1.89551 0
M  V30 18363 C 1725.38 1.52403 -0.75546 0
M  V30 18364 O 1726.56 1.65743 -1.01208 0
M  V30 18365 C 1723.69 2.72609 -2.15178 0
M  V30 18366 C 1722.64 2.71313 -3.31019 0
M  V30 18367 C 1721.97 4.10952 -3.42085 0
M  V30 18368 C 1723.27 2.32153 -4.6787 0
M  V30 18369 H 1724.96 1.07597 -2.79398 0
M  V30 18370 H 1722.51 0.516154 -1.34432 0
M  V30 18371 H 1724.46 3.47749 -2.3801 0
M  V30 18372 H 1723.19 3.02913 -1.22112 0
M  V30 18373 H 1721.85 1.9863 -3.08126 0
M  V30 18374 H 1721.49 4.38449 -2.46518 0
M  V30 18375 H 1721.19 4.10984 -4.1996 0
M  V30 18376 H 1722.72 4.87857 -3.67189 0
M  V30 18377 H 1724.13 2.97011 -4.90364 0
M  V30 18378 H 1722.53 2.4338 -5.48531 0
M  V30 18379 H 1723.6 1.27279 -4.67897 0
M  V30 18380 N 1724.94 1.47523 0.554506 0
M  V30 18381 C 1725.91 1.59761 1.64345 0
M  V30 18382 C 1726.91 0.472516 1.53701 0
M  V30 18383 O 1728.1 0.737659 1.57811 0
M  V30 18384 C 1725.23 1.54467 3.03896 0
M  V30 18385 H 1726.42 2.56834 1.54842 0
M  V30 18386 H 1723.97 1.35753 0.774643 0
M  V30 18387 H 1724.71 0.587789 3.18929 0
M  V30 18388 H 1724.49 2.36123 3.13031 0
M  V30 18389 H 1725.98 1.66174 3.83113 0
M  V30 18390 N 1726.42 -0.801453 1.357 0
M  V30 18391 C 1727.38 -1.89514 1.28907 0
M  V30 18392 C 1728.38 -1.59559 0.19938 0
M  V30 18393 O 1729.57 -1.68196 0.453408 0
M  V30 18394 C 1726.71 -3.26044 0.995411 0
M  V30 18395 H 1727.9 -1.96956 2.2616 0
M  V30 18396 H 1725.45 -0.997899 1.20298 0
M  V30 18397 H 1726.19 -3.24289 0.0269561 0
M  V30 18398 H 1725.97 -3.49172 1.78385 0
M  V30 18399 H 1727.46 -4.06092 0.97362 0
M  V30 18400 N 1727.9 -1.19782 -1.02421 0
M  V30 18401 C 1728.81 -0.955253 -2.14271 0
M  V30 18402 C 1729.82 0.0863233 -1.73786 0
M  V30 18403 O 1731 -0.0993878 -2.01155 0
M  V30 18404 C 1728.07 -0.502219 -3.43043 0
M  V30 18405 C 1727.13 -1.61374 -3.97815 0
M  V30 18406 C 1726.36 -1.18223 -5.20441 0
M  V30 18407 O 1726.58 -0.0477334 -5.7038 0
M  V30 18408 O 1725.52 -1.98664 -5.68169 0
M  V30 18409 H 1729.34 -1.89157 -2.37599 0
M  V30 18410 H 1726.93 -0.981035 -1.12677 0
M  V30 18411 H 1728.81 -0.258445 -4.20607 0
M  V30 18412 H 1727.48 0.4056 -3.21149 0
M  V30 18413 H 1726.39 -1.91172 -3.21565 0
M  V30 18414 H 1727.72 -2.49829 -4.24083 0
M  V30 18415 N 1729.38 1.21606 -1.00248 0
M  V30 18416 C 1730.65 1.86191 -0.599348 0
M  V30 18417 C 1731.03 1.89847 0.923104 0
M  V30 18418 O 1730.38 1.39595 1.80902 0
M  V30 18419 C 1730.59 3.26576 -1.23082 0
M  V30 18420 C 1731.94 4.02989 -1.33736 0
M  V30 18421 O 1732.96 3.35877 -1.18595 0
M  V30 18422 O 1731.82 5.23142 -1.58065 0
M  V30 18423 H 1728.92 0.801204 -0.204943 0
M  V30 18424 H 1731.46 1.29309 -1.09897 0
M  V30 18425 H 1730.24 3.18601 -2.27176 0
M  V30 18426 H 1729.86 3.91074 -0.717394 0
M  V30 18427 N 1730.86 0.776895 1.37121 0
M  V30 18428 C 1732.27 0.408311 1.8218 0
M  V30 18429 C 1732.62 -1.06621 1.64701 0
M  V30 18430 O 1731.74 -1.82621 1.16097 0
M  V30 18431 C 1732.34 0.734339 3.30746 0
M  V30 18432 C 1730.9 0.418746 3.74063 0
M  V30 18433 C 1730.04 0.97551 2.59575 0
M  V30 18434 H 1732.99 0.971111 1.25519 0
M  V30 18435 H 1733.02 0.0208557 3.80494 0
M  V30 18436 H 1732.53 1.80757 3.43436 0
M  V30 18437 H 1730.63 -0.646961 3.6694 0
M  V30 18438 H 1730.74 0.930597 4.69975 0
M  V30 18439 H 1729.11 0.399449 2.51548 0
M  V30 18440 H 1729.89 2.05425 2.75056 0
M  V30 18441 N 1732.33 -1.48497 0.527859 0
M  V30 18442 C 1733.58 -2.02799 -0.00702196 0
M  V30 18443 C 1733.91 -1.40433 -1.34135 0
M  V30 18444 O 1733.19 -0.54934 -1.86581 0
M  V30 18445 C 1733.47 -3.59861 -0.131272 0
M  V30 18446 C 1733.32 -4.32711 1.22807 0
M  V30 18447 C 1734.64 -4.31634 -0.85908 0
M  V30 18448 H 1731.76 -0.736999 -0.00107787 0
M  V30 18449 H 1734.4 -1.77242 0.684478 0
M  V30 18450 H 1732.55 -3.81766 -0.720216 0
M  V30 18451 H 1734.23 -4.22229 1.85796 0
M  V30 18452 H 1732.47 -3.94212 1.8105 0
M  V30 18453 H 1733.14 -5.41047 1.09415 0
M  V30 18454 H 1735.62 -4.14546 -0.359322 0
M  V30 18455 H 1734.49 -5.41221 -0.914911 0
M  V30 18456 H 1734.75 -3.98765 -1.90889 0
M  V30 18457 N 1733.81 -0.262893 -1.55392 0
M  V30 18458 C 1735.23 0.09157 -1.59337 0
M  V30 18459 C 1735.43 1.55612 -1.28012 0
M  V30 18460 O 1734.48 2.30308 -1.0351 0
M  V30 18461 C 1735.8 -0.272043 -2.99467 0
M  V30 18462 C 1737.34 -0.217653 -3.12242 0
M  V30 18463 C 1737.82 -0.555528 -4.54618 0
M  V30 18464 N 1739.31 -0.506623 -4.60421 0
M  V30 18465 C 1740.05 -0.741013 -5.68592 0
M  V30 18466 N 1739.54 -1.03937 -6.84959 0
M  V30 18467 N 1741.33 -0.670636 -5.58085 0
M  V30 18468 H 1733.49 -1.2178 -1.74021 0
M  V30 18469 H 1735.75 -0.491131 -0.81086 0
M  V30 18470 H 1735.45 -1.29012 -3.27183 0
M  V30 18471 H 1735.33 0.393105 -3.75146 0
M  V30 18472 H 1737.72 0.791123 -2.84298 0
M  V30 18473 H 1737.8 -0.916884 -2.38803 0
M  V30 18474 H 1737.44 -1.56193 -4.83287 0
M  V30 18475 H 1737.37 0.165358 -5.2634 0
M  V30 18476 H 1739.86 -0.285397 -3.76821 0
M  V30 18477 H 1740.17 -1.20522 -7.63344 0
M  V30 18478 H 1738.52 -1.07702 -6.86604 0
M  V30 18479 H 1741.71 -0.437473 -4.66051 0
M  V30 18480 H 1741.88 -0.856692 -6.42312 0
M  V30 18481 N 1735.29 1.57597 0.0100073 0
M  V30 18482 C 1736.52 1.94402 0.708192 0
M  V30 18483 C 1736.93 0.864205 1.6786 0
M  V30 18484 O 1736.29 -0.157763 1.81817 0
M  V30 18485 C 1736.34 3.312 1.44876 0
M  V30 18486 O 1736.06 4.35035 0.517281 0
M  V30 18487 C 1737.56 3.82404 2.24237 0
M  V30 18488 H 1734.78 0.64116 0.197877 0
M  V30 18489 H 1737.33 2.04464 -0.0381373 0
M  V30 18490 H 1735.48 3.22476 2.1468 0
M  V30 18491 H 1735.9 5.14113 1.03868 0
M  V30 18492 H 1737.37 4.80578 2.71567 0
M  V30 18493 H 1737.85 3.14587 3.06483 0
M  V30 18494 H 1738.45 3.94271 1.59469 0
M  V30 18495 N 1736.77 -0.282606 1.55045 0
M  V30 18496 C 1738.04 -1.03617 1.659 0
M  V30 18497 C 1738.42 -2.04615 0.519207 0
M  V30 18498 O 1737.77 -2.2336 -0.48191 0
M  V30 18499 C 1737.98 -1.70159 3.04708 0
M  V30 18500 C 1739.33 -2.21677 3.62139 0
M  V30 18501 O 1740.35 -1.80161 3.07279 0
M  V30 18502 O 1739.21 -2.97799 4.58234 0
M  V30 18503 H 1736.31 -0.48004 0.673417 0
M  V30 18504 H 1738.85 -0.279228 1.67387 0
M  V30 18505 H 1737.63 -0.969205 3.79107 0
M  V30 18506 H 1737.25 -2.52564 3.07079 0
M  V30 18507 N 1738.25 -1.47815 -0.546675 0
M  V30 18508 C 1739.47 -1.58864 -1.33331 0
M  V30 18509 C 1739.9 -0.24302 -1.86524 0
M  V30 18510 O 1739.25 0.782777 -1.63531 0
M  V30 18511 C 1739.3 -2.62556 -2.47177 0
M  V30 18512 O 1738.41 -2.18558 -3.49723 0
M  V30 18513 H 1737.75 -0.53329 -0.395598 0
M  V30 18514 H 1740.28 -1.93677 -0.659579 0
M  V30 18515 H 1740.29 -2.83307 -2.936 0
M  V30 18516 H 1738.96 -3.60255 -2.0782 0
M  V30 18517 H 1737.54 -2.0795 -3.09534 0
M  V30 18518 N 1739.72 0.794246 -1.36123 0
M  V30 18519 C 1741.13 1.36909 -1.26936 0
M  V30 18520 C 1741.49 1.9598 0.0929337 0
M  V30 18521 O 1740.61 1.92206 0.994266 0
M  V30 18522 C 1741.21 2.48906 -2.2985 0
M  V30 18523 C 1739.76 3.0222 -2.24366 0
M  V30 18524 C 1738.91 1.75264 -2.1489 0
M  V30 18525 H 1741.86 0.596278 -1.47072 0
M  V30 18526 H 1741.88 3.27794 -1.93213 0
M  V30 18527 H 1741.4 2.05884 -3.28988 0
M  V30 18528 H 1739.5 3.49675 -1.28679 0
M  V30 18529 H 1739.61 3.59363 -3.16852 0
M  V30 18530 H 1737.97 1.97306 -1.61066 0
M  V30 18531 H 1738.76 1.34377 -3.15908 0
M  V30 18532 N 1741.2 1.20323 1.01785 0
M  V30 18533 C 1742.62 0.957818 1.27664 0
M  V30 18534 C 1742.82 -0.363377 1.98196 0
M  V30 18535 O 1741.87 -1.09221 2.27656 0
M  V30 18536 C 1743.19 2.13957 2.11289 0
M  V30 18537 C 1744.73 2.18041 2.2456 0
M  V30 18538 C 1745.21 3.35698 3.11562 0
M  V30 18539 N 1746.7 3.35704 3.1915 0
M  V30 18540 C 1747.44 4.2339 3.86689 0
M  V30 18541 N 1746.93 5.21251 4.56366 0
M  V30 18542 N 1748.72 4.11235 3.832 0
M  V30 18543 H 1740.88 2.05309 0.544242 0
M  V30 18544 H 1743.14 0.898335 0.302817 0
M  V30 18545 H 1742.84 3.09631 1.66798 0
M  V30 18546 H 1742.72 2.11946 3.12024 0
M  V30 18547 H 1745.11 1.22931 2.68276 0
M  V30 18548 H 1745.19 2.24101 1.23338 0
M  V30 18549 H 1744.83 4.31095 2.68551 0
M  V30 18550 H 1744.76 3.26876 4.12868 0
M  V30 18551 H 1747.25 2.64874 2.69537 0
M  V30 18552 H 1747.56 5.84485 5.05566 0
M  V30 18553 H 1745.91 5.25189 4.55195 0
M  V30 18554 H 1749.1 3.34052 3.27913 0
M  V30 18555 H 1749.27 4.79782 4.35561 0
M  V30 18556 N 1742.68 -1.21073 1.00892 0
M  V30 18557 C 1743.63 -2.25613 0.565829 0
M  V30 18558 C 1744.62 -1.64812 -0.391588 0
M  V30 18559 O 1745.83 -1.78078 -0.262352 0
M  V30 18560 H 1742.2 -0.733755 0.164643 0
M  V30 18561 H 1744.17 -2.60321 1.45862 0
M  V30 18562 C 1742.92 -3.47589 -0.087861 0
M  V30 18563 H 1742.25 -3.94647 0.639828 0
M  V30 18564 H 1743.69 -4.22459 -0.361115 0
M  V30 18565 C 1742.14 -3.09609 -1.32829 0
M  V30 18566 O 1742.67 -3.20449 -2.4223 0
M  V30 18567 N 1740.88 -2.64234 -1.2095 0
M  V30 18568 H 1740.43 -2.55613 -0.319301 0
M  V30 18569 H 1740.39 -2.39191 -2.04046 0
M  V30 18570 N 1744.16 -0.784156 -1.36707 0
M  V30 18571 C 1745.11 -0.166827 -2.32001 0
M  V30 18572 C 1746.1 0.670916 -1.55548 0
M  V30 18573 O 1747.31 0.566588 -1.7085 0
M  V30 18574 H 1743.68 -0.0351691 -0.751177 0
M  V30 18575 H 1745.65 -0.986074 -2.81637 0
M  V30 18576 C 1744.4 0.6881 -3.40823 0
M  V30 18577 H 1743.72 0.0528343 -3.99765 0
M  V30 18578 H 1745.16 1.08681 -4.09835 0
M  V30 18579 C 1743.62 1.84408 -2.81949 0
M  V30 18580 O 1744.15 2.94034 -2.73691 0
M  V30 18581 N 1742.36 1.64855 -2.39314 0
M  V30 18582 H 1741.91 0.756867 -2.4623 0
M  V30 18583 H 1741.86 2.42363 -2.00268 0
M  V30 18584 N 1745.64 1.48215 -0.535727 0
M  V30 18585 C 1746.6 2.28206 0.213212 0
M  V30 18586 C 1747.6 1.3571 0.862522 0
M  V30 18587 O 1748.79 1.58547 0.721688 0
M  V30 18588 C 1745.92 3.1476 1.30917 0
M  V30 18589 H 1747.11 2.95884 -0.489163 0
M  V30 18590 H 1744.67 1.53551 -0.291872 0
M  V30 18591 H 1745.4 2.51726 2.04462 0
M  V30 18592 H 1745.19 3.82806 0.848633 0
M  V30 18593 H 1746.68 3.75085 1.83579 0
M  V30 18594 N 1747.11 0.27113 1.5525 0
M  V30 18595 C 1748.04 -0.61179 2.25343 0
M  V30 18596 C 1749.03 -1.16208 1.24216 0
M  V30 18597 O 1750.21 -1.19696 1.52927 0
M  V30 18598 C 1747.34 -1.7978 2.97147 0
M  V30 18599 C 1746.29 -1.37922 4.05169 0
M  V30 18600 C 1745.62 -2.64801 4.64526 0
M  V30 18601 C 1746.92 -0.532357 5.1958 0
M  V30 18602 H 1748.61 -0.0272538 2.99388 0
M  V30 18603 H 1746.16 -0.0116681 1.43995 0
M  V30 18604 H 1748.11 -2.42132 3.44891 0
M  V30 18605 H 1746.84 -2.40811 2.20631 0
M  V30 18606 H 1745.5 -0.778918 3.5823 0
M  V30 18607 H 1745.14 -3.24081 3.84682 0
M  V30 18608 H 1744.84 -2.37507 5.37461 0
M  V30 18609 H 1746.37 -3.28009 5.15017 0
M  V30 18610 H 1747.78 -1.06078 5.63401 0
M  V30 18611 H 1746.18 -0.35447 5.99052 0
M  V30 18612 H 1747.25 0.44981 4.82809 0
M  V30 18613 N 1748.59 -1.576 -0.00164943 0
M  V30 18614 C 1749.54 -2.08318 -0.993594 0
M  V30 18615 C 1750.51 -0.978234 -1.34238 0
M  V30 18616 O 1751.69 -1.25056 -1.44103 0
M  V30 18617 C 1748.83 -2.58982 -2.28084 0
M  V30 18618 C 1747.95 -3.83372 -1.99123 0
M  V30 18619 C 1747.08 -4.22543 -3.21917 0
M  V30 18620 C 1746.12 -5.39774 -2.88635 0
M  V30 18621 N 1745.26 -5.74247 -4.03962 0
M  V30 18622 H 1750.1 -2.92802 -0.554154 0
M  V30 18623 H 1747.64 -1.44748 -0.261973 0
M  V30 18624 H 1749.59 -2.86434 -3.03334 0
M  V30 18625 H 1748.22 -1.77374 -2.697 0
M  V30 18626 H 1747.28 -3.62838 -1.14248 0
M  V30 18627 H 1748.59 -4.68722 -1.70591 0
M  V30 18628 H 1747.74 -4.51268 -4.05514 0
M  V30 18629 H 1746.48 -3.35899 -3.53587 0
M  V30 18630 H 1745.49 -5.10774 -2.03445 0
M  V30 18631 H 1746.71 -6.28094 -2.58215 0
M  V30 18632 H 1744.66 -4.9056 -4.35531 0
M  V30 18633 H 1744.57 -6.54167 -3.78948 0
M  V30 18634 H 1745.84 -6.07563 -4.88352 0
M  V30 18635 N 1750.07 0.274379 -1.55193 0
M  V30 18636 C 1751.3 1.02295 -1.79497 0
M  V30 18637 C 1751.71 1.80479 -0.567805 0
M  V30 18638 O 1751.05 1.77517 0.472601 0
M  V30 18639 C 1751.11 2.02986 -2.9671 0
M  V30 18640 C 1750.78 1.43753 -4.33802 0
M  V30 18641 C 1751.77 0.853898 -5.1284 0
M  V30 18642 C 1749.46 1.46514 -4.80457 0
M  V30 18643 C 1751.45 0.305773 -6.36666 0
M  V30 18644 C 1749.14 0.913158 -6.04239 0
M  V30 18645 C 1750.14 0.33447 -6.82181 0
M  V30 18646 O 1749.83 -0.209069 -8.03628 0
M  V30 18647 H 1749.56 0.307952 -0.601782 0
M  V30 18648 H 1752.11 0.310987 -2.03032 0
M  V30 18649 H 1750.34 2.77937 -2.68864 0
M  V30 18650 H 1752.03 2.6396 -3.0835 0
M  V30 18651 H 1752.8 0.825268 -4.77927 0
M  V30 18652 H 1748.68 1.90496 -4.198 0
M  V30 18653 H 1752.22 -0.146553 -6.97446 0
M  V30 18654 H 1748.12 0.939023 -6.38633 0
M  V30 18655 H 1748.89 -0.0982973 -8.18441 0
M  V30 18656 N 1751.55 1.48103 0.538828 0
M  V30 18657 C 1752.48 1.64856 1.65363 0
M  V30 18658 C 1753.46 0.497579 1.6266 0
M  V30 18659 O 1754.64 0.729088 1.79994 0
M  V30 18660 C 1751.77 1.67984 3.03971 0
M  V30 18661 C 1750.73 2.82494 3.21529 0
M  V30 18662 C 1750.05 2.70706 4.6111 0
M  V30 18663 C 1751.35 4.23892 3.05145 0
M  V30 18664 H 1753.05 2.58183 1.51598 0
M  V30 18665 H 1750.59 1.24249 0.727886 0
M  V30 18666 H 1752.55 1.78294 3.81824 0
M  V30 18667 H 1751.27 0.712299 3.18738 0
M  V30 18668 H 1749.93 2.71725 2.46091 0
M  V30 18669 H 1749.58 1.7194 4.727 0
M  V30 18670 H 1749.28 3.47539 4.73804 0
M  V30 18671 H 1750.8 2.82971 5.41073 0
M  V30 18672 H 1752.22 4.3554 3.72797 0
M  V30 18673 H 1750.61 5.01654 3.29338 0
M  V30 18674 H 1751.68 4.40973 2.01671 0
M  V30 18675 N 1753.03 -0.787016 1.36542 0
M  V30 18676 C 1754.3 -1.53325 1.21452 0
M  V30 18677 C 1754.68 -2.10166 -0.198313 0
M  V30 18678 O 1754.03 -1.94192 -1.20422 0
M  V30 18679 C 1754.24 -2.62629 2.29841 0
M  V30 18680 C 1755.59 -3.30446 2.66628 0
M  V30 18681 O 1756.61 -2.72914 2.28903 0
M  V30 18682 O 1755.47 -4.34424 3.31569 0
M  V30 18683 H 1752.57 -0.678361 0.473028 0
M  V30 18684 H 1755.11 -0.825292 1.4828 0
M  V30 18685 H 1753.88 -2.18639 3.24519 0
M  V30 18686 H 1753.51 -3.41042 2.04393 0
M  V30 18687 N 1754.5 -1.20861 -1.01145 0
M  V30 18688 C 1755.73 -1.04617 -1.78154 0
M  V30 18689 C 1756.14 0.407396 -1.84762 0
M  V30 18690 O 1755.49 1.29457 -1.30333 0
M  V30 18691 C 1755.55 -1.56038 -3.23871 0
M  V30 18692 C 1755.21 -3.0441 -3.40857 0
M  V30 18693 C 1756.21 -4.02021 -3.29659 0
M  V30 18694 C 1753.89 -3.43479 -3.66507 0
M  V30 18695 C 1755.89 -5.36689 -3.43866 0
M  V30 18696 C 1753.57 -4.78301 -3.80356 0
M  V30 18697 C 1754.57 -5.74715 -3.69041 0
M  V30 18698 O 1754.26 -7.07093 -3.82459 0
M  V30 18699 H 1753.99 -0.368185 -0.566935 0
M  V30 18700 H 1756.55 -1.60508 -1.28165 0
M  V30 18701 H 1754.78 -0.945373 -3.74966 0
M  V30 18702 H 1756.47 -1.35735 -3.82532 0
M  V30 18703 H 1757.23 -3.73182 -3.09775 0
M  V30 18704 H 1753.11 -2.68972 -3.74399 0
M  V30 18705 H 1756.65 -6.11927 -3.3495 0
M  V30 18706 H 1752.55 -5.06829 -3.99743 0
M  V30 18707 H 1753.32 -7.14413 -3.99445 0
M  V30 18708 N 1755.98 1.20536 -1.01532 0
M  V30 18709 C 1757.23 1.89191 -0.699258 0
M  V30 18710 C 1757.54 1.79624 0.774238 0
M  V30 18711 O 1758.75 2.43402 1.20281 0
M  V30 18712 C 1757.21 3.39294 -1.20033 0
M  V30 18713 C 1756.81 3.57449 -2.70064 0
M  V30 18714 C 1758.56 4.13511 -0.959626 0
M  V30 18715 C 1756.47 5.01371 -3.13658 0
M  V30 18716 H 1755.4 0.708537 -0.257859 0
M  V30 18717 H 1758.05 1.36368 -1.22785 0
M  V30 18718 H 1756.43 3.91432 -0.599728 0
M  V30 18719 H 1757.6 3.15702 -3.35662 0
M  V30 18720 H 1755.92 2.966 -2.92262 0
M  V30 18721 H 1758.51 5.19624 -1.26077 0
M  V30 18722 H 1758.86 4.1617 0.103934 0
M  V30 18723 H 1759.39 3.67469 -1.52354 0
M  V30 18724 H 1756.13 5.03866 -4.19285 0
M  V30 18725 H 1755.65 5.43933 -2.52779 0
M  V30 18726 H 1757.33 5.69944 -3.06224 0
M  V30 18727 N 1757.46 0.791395 1.36289 0
M  V30 18728 C 1758.71 0.364702 1.99189 0
M  V30 18729 C 1759.04 -1.06414 1.62808 0
M  V30 18730 O 1758.29 -1.75019 0.875611 0
M  V30 18731 C 1758.59 0.477795 3.54192 0
M  V30 18732 C 1758.26 1.86773 4.10398 0
M  V30 18733 C 1756.92 2.24802 4.25461 0
M  V30 18734 C 1759.27 2.77776 4.4101 0
M  V30 18735 C 1756.6 3.53233 4.68448 0
M  V30 18736 C 1758.95 4.05636 4.8543 0
M  V30 18737 C 1757.61 4.43685 4.98698 0
M  V30 18738 H 1756.88 0.133454 0.728883 0
M  V30 18739 H 1759.53 1.00924 1.62747 0
M  V30 18740 H 1757.84 -0.250238 3.91 0
M  V30 18741 H 1759.53 0.12865 4.00794 0
M  V30 18742 H 1756.12 1.56221 3.99115 0
M  V30 18743 H 1760.31 2.49648 4.2894 0
M  V30 18744 H 1755.56 3.82581 4.76908 0
M  V30 18745 H 1759.74 4.76264 5.0808 0
M  V30 18746 H 1757.36 5.43258 5.31766 0
M  V30 18747 N 1758.94 -1.47929 0.54358 0
M  V30 18748 C 1760.17 -2.06891 0.0189187 0
M  V30 18749 C 1760.58 -1.39822 -1.26867 0
M  V30 18750 O 1759.94 -0.490197 -1.75793 0
M  V30 18751 C 1759.99 -3.60976 -0.194595 0
M  V30 18752 O 1759.71 -4.25528 1.04199 0
M  V30 18753 C 1761.21 -4.3677 -0.758093 0
M  V30 18754 H 1758.43 -0.669827 0.0396625 0
M  V30 18755 H 1760.98 -1.90128 0.753105 0
M  V30 18756 H 1759.13 -3.77299 -0.878869 0
M  V30 18757 H 1759.55 -5.17872 0.831191 0
M  V30 18758 H 1761.02 -5.45309 -0.856846 0
M  V30 18759 H 1761.5 -4.02121 -1.76621 0
M  V30 18760 H 1762.1 -4.25158 -0.109953 0
M  V30 18761 N 1760.42 -0.27936 -1.55104 0
M  V30 18762 C 1761.67 0.335541 -1.99295 0
M  V30 18763 C 1761.99 1.56059 -1.16921 0
M  V30 18764 O 1761.26 1.9417 -0.259773 0
M  V30 18765 H 1759.84 0.126968 -0.736131 0
M  V30 18766 H 1762.5 -0.385679 -1.91046 0
M  V30 18767 H 1761.59 0.622493 -3.05829 0
M  V30 18768 N 1761.9 1.57599 -0.0067085 0
M  V30 18769 C 1763.14 1.9114 0.677733 0
M  V30 18770 C 1763.47 0.881328 1.7305 0
M  V30 18771 O 1762.75 -0.099049 1.94248 0
M  V30 18772 C 1763.03 3.35241 1.31474 0
M  V30 18773 C 1762.89 4.4897 0.273055 0
M  V30 18774 C 1764.2 3.78886 2.23905 0
M  V30 18775 H 1761.32 0.695119 0.244907 0
M  V30 18776 H 1763.97 1.89907 -0.059378 0
M  V30 18777 H 1762.12 3.36423 1.94299 0
M  V30 18778 H 1763.79 4.59924 -0.356031 0
M  V30 18779 H 1762.03 4.31915 -0.403961 0
M  V30 18780 H 1762.7 5.46772 0.757941 0
M  V30 18781 H 1765.18 3.79299 1.7109 0
M  V30 18782 H 1764.05 4.80451 2.65439 0
M  V30 18783 H 1764.31 3.13129 3.12094 0
M  V30 18784 N 1763.37 -0.266145 1.55336 0
M  V30 18785 C 1764.62 -0.996831 1.76265 0
M  V30 18786 C 1764.95 -1.86035 0.567553 0
M  V30 18787 O 1764.2 -1.90462 -0.449754 0
M  V30 18788 C 1764.5 -1.90357 3.02488 0
M  V30 18789 C 1764.17 -1.19699 4.34722 0
M  V30 18790 C 1762.83 -1.00164 4.7066 0
M  V30 18791 C 1765.18 -0.694703 5.16549 0
M  V30 18792 C 1762.51 -0.291394 5.85976 0
M  V30 18793 C 1764.86 0.00198006 6.326 0
M  V30 18794 C 1763.53 0.20898 6.67173 0
M  V30 18795 H 1762.8 -0.364766 0.645001 0
M  V30 18796 H 1765.44 -0.268528 1.89608 0
M  V30 18797 H 1763.75 -2.69831 2.84075 0
M  V30 18798 H 1765.45 -2.47026 3.15878 0
M  V30 18799 H 1762.04 -1.35916 4.06479 0
M  V30 18800 H 1766.22 -0.833229 4.89256 0
M  V30 18801 H 1761.48 -0.120359 6.11282 0
M  V30 18802 H 1765.65 0.398909 6.95257 0
M  V30 18803 H 1763.28 0.761301 7.56378 0
M  V30 18804 N 1764.85 -1.48386 -0.530967 0
M  V30 18805 C 1766.08 -1.60014 -1.31161 0
M  V30 18806 C 1766.49 -0.260028 -1.87001 0
M  V30 18807 O 1765.85 0.750547 -1.66352 0
M  V30 18808 C 1765.9 -2.64597 -2.46315 0
M  V30 18809 O 1765.62 -3.93407 -1.92777 0
M  V30 18810 C 1767.12 -2.86654 -3.38149 0
M  V30 18811 H 1764.34 -0.539553 -0.398902 0
M  V30 18812 H 1766.89 -1.94207 -0.64063 0
M  V30 18813 H 1765.04 -2.33265 -3.093 0
M  V30 18814 H 1765.46 -4.50774 -2.68147 0
M  V30 18815 H 1766.93 -3.63634 -4.153 0
M  V30 18816 H 1767.41 -1.95441 -3.93319 0
M  V30 18817 H 1768.01 -3.19285 -2.80957 0
M  V30 18818 N 1766.33 0.779763 -1.36958 0
M  V30 18819 C 1767.58 1.53803 -1.31723 0
M  V30 18820 C 1767.9 1.94239 0.100663 0
M  V30 18821 O 1767.16 1.6372 1.07212 0
M  V30 18822 C 1767.46 2.82075 -2.19473 0
M  V30 18823 C 1767.12 2.6073 -3.67873 0
M  V30 18824 C 1765.79 2.54617 -4.08318 0
M  V30 18825 C 1768.14 2.41407 -4.61922 0
M  V30 18826 C 1765.47 2.2716 -5.40939 0
M  V30 18827 C 1767.82 2.15475 -5.94772 0
M  V30 18828 C 1766.48 2.07801 -6.3433 0
M  V30 18829 H 1765.75 0.562804 -0.482009 0
M  V30 18830 H 1768.4 0.898839 -1.69095 0
M  V30 18831 H 1766.7 3.50511 -1.75069 0
M  V30 18832 H 1768.4 3.39915 -2.12741 0
M  V30 18833 H 1764.99 2.66347 -3.35793 0
M  V30 18834 H 1769.18 2.45125 -4.31541 0
M  V30 18835 H 1764.43 2.19708 -5.7056 0
M  V30 18836 H 1768.61 1.9952 -6.67207 0
M  V30 18837 H 1766.23 1.86289 -7.37021 0
M  V30 18838 N 1767.81 1.21396 1.00503 0
M  V30 18839 C 1768.72 0.989221 2.12724 0
M  V30 18840 C 1769.73 -0.0586646 1.73901 0
M  V30 18841 O 1770.91 0.131377 2.00971 0
M  V30 18842 C 1767.97 0.556731 3.42201 0
M  V30 18843 C 1767.04 1.67683 3.95197 0
M  V30 18844 C 1766.27 1.26488 5.18494 0
M  V30 18845 O 1766.49 0.13847 5.70232 0
M  V30 18846 O 1765.43 2.07678 5.64937 0
M  V30 18847 H 1769.25 1.92913 2.3456 0
M  V30 18848 H 1766.84 0.998837 1.11102 0
M  V30 18849 H 1768.72 0.325327 4.20142 0
M  V30 18850 H 1767.39 -0.354457 3.21753 0
M  V30 18851 H 1766.3 1.96263 3.18483 0
M  V30 18852 H 1767.63 2.56544 4.20055 0
M  V30 18853 N 1769.29 -1.19996 1.0217 0
M  V30 18854 C 1770.22 -2.21695 0.540962 0
M  V30 18855 C 1771.2 -1.57232 -0.414343 0
M  V30 18856 O 1772.38 -1.85533 -0.33314 0
M  V30 18857 C 1769.51 -3.38035 -0.212109 0
M  V30 18858 C 1768.55 -4.20824 0.693529 0
M  V30 18859 S 1769.39 -4.89756 2.16562 0
M  V30 18860 C 1770.54 -6.09513 1.42286 0
M  V30 18861 H 1770.78 -2.62131 1.40267 0
M  V30 18862 H 1768.31 -1.30128 0.831026 0
M  V30 18863 H 1770.27 -4.05473 -0.640484 0
M  V30 18864 H 1768.93 -2.96049 -1.04945 0
M  V30 18865 H 1768.12 -5.03874 0.112557 0
M  V30 18866 H 1767.72 -3.58667 1.05991 0
M  V30 18867 H 1770.01 -6.73816 0.705585 0
M  V30 18868 H 1770.96 -6.72079 2.22969 0
M  V30 18869 H 1771.37 -5.56895 0.923499 0
M  V30 18870 N 1770.76 -0.798611 -1.35867 0
M  V30 18871 C 1772.01 -0.375816 -1.99287 0
M  V30 18872 C 1772.34 1.05223 -1.63223 0
M  V30 18873 O 1771.62 1.72862 -0.891576 0
M  V30 18874 C 1771.9 -0.550197 -3.55872 0
M  V30 18875 C 1771.75 -2.0226 -4.0176 0
M  V30 18876 C 1773.07 0.0290862 -4.4009 0
M  V30 18877 H 1770.19 -0.138024 -0.72396 0
M  V30 18878 H 1772.83 -1.00666 -1.61141 0
M  V30 18879 H 1770.98 -0.0131739 -3.88498 0
M  V30 18880 H 1772.66 -2.62139 -3.7958 0
M  V30 18881 H 1770.9 -2.52191 -3.52962 0
M  V30 18882 H 1771.57 -2.09553 -5.10678 0
M  V30 18883 H 1774.05 -0.429444 -4.13878 0
M  V30 18884 H 1772.92 -0.122894 -5.48762 0
M  V30 18885 H 1773.18 1.12206 -4.27624 0
M  V30 18886 N 1772.24 1.47639 -0.551417 0
M  V30 18887 C 1773.49 2.01687 -0.0230887 0
M  V30 18888 C 1773.8 1.43178 1.33265 0
M  V30 18889 O 1775.01 1.88853 1.95056 0
M  V30 18890 C 1773.47 3.59899 0.00918719 0
M  V30 18891 C 1773.07 4.27398 -1.34295 0
M  V30 18892 C 1774.82 4.21718 0.485213 0
M  V30 18893 C 1772.72 5.77601 -1.2701 0
M  V30 18894 H 1771.65 0.753984 -0.00486122 0
M  V30 18895 H 1774.31 1.6969 -0.698405 0
M  V30 18896 H 1772.69 3.88832 0.75003 0
M  V30 18897 H 1773.86 4.10113 -2.10105 0
M  V30 18898 H 1772.18 3.77542 -1.75644 0
M  V30 18899 H 1774.77 5.3178 0.558025 0
M  V30 18900 H 1775.12 3.88495 1.4959 0
M  V30 18901 H 1775.65 3.97294 -0.200594 0
M  V30 18902 H 1772.39 6.15433 -2.2566 0
M  V30 18903 H 1771.91 5.97239 -0.553709 0
M  V30 18904 H 1773.59 6.39692 -0.969726 0
M  V30 18905 N 1773.72 0.287581 1.54954 0
M  V30 18906 C 1774.67 -0.594449 2.23013 0
M  V30 18907 C 1775.64 -1.14007 1.20795 0
M  V30 18908 O 1776.82 -1.18708 1.49376 0
M  V30 18909 C 1773.96 -1.76687 2.96439 0
M  V30 18910 C 1773.08 -1.25391 4.13402 0
M  V30 18911 C 1772.21 -2.38912 4.74441 0
M  V30 18912 C 1771.25 -1.84683 5.83574 0
M  V30 18913 N 1770.39 -2.91725 6.38624 0
M  V30 18914 H 1775.23 -0.00743921 2.97999 0
M  V30 18915 H 1772.76 0.00809578 1.47098 0
M  V30 18916 H 1774.72 -2.45621 3.37233 0
M  V30 18917 H 1773.35 -2.32571 2.23853 0
M  V30 18918 H 1772.4 -0.45726 3.77642 0
M  V30 18919 H 1773.72 -0.816813 4.92067 0
M  V30 18920 H 1772.87 -3.15818 5.18019 0
M  V30 18921 H 1771.61 -2.85943 3.95079 0
M  V30 18922 H 1770.61 -1.06261 5.39434 0
M  V30 18923 H 1771.84 -1.38572 6.64812 0
M  V30 18924 H 1769.78 -3.38115 5.62152 0
M  V30 18925 H 1769.7 -2.5247 7.12597 0
M  V30 18926 H 1770.97 -3.68569 6.86861 0
M  V30 18927 N 1775.2 -1.57593 0.0150662 0
M  V30 18928 C 1776.13 -2.04839 -1.0058 0
M  V30 18929 C 1777.11 -0.941261 -1.32586 0
M  V30 18930 O 1778.29 -1.21053 -1.44493 0
M  V30 18931 C 1775.42 -2.45866 -2.32954 0
M  V30 18932 C 1774.47 -3.6746 -2.16507 0
M  V30 18933 S 1775.3 -5.14728 -1.477 0
M  V30 18934 C 1776.46 -5.59038 -2.81473 0
M  V30 18935 H 1776.69 -2.91109 -0.603575 0
M  V30 18936 H 1774.22 -1.53148 -0.196235 0
M  V30 18937 H 1776.18 -2.7017 -3.09061 0
M  V30 18938 H 1774.84 -1.59967 -2.70313 0
M  V30 18939 H 1774.03 -3.93967 -3.14334 0
M  V30 18940 H 1773.64 -3.43235 -1.48545 0
M  V30 18941 H 1775.93 -5.62419 -3.77745 0
M  V30 18942 H 1776.87 -6.58778 -2.59648 0
M  V30 18943 H 1777.28 -4.86643 -2.86075 0
M  V30 18944 N 1776.68 0.257904 -1.55475 0
M  V30 18945 C 1777.93 0.985329 -1.75995 0
M  V30 18946 C 1778.24 1.86898 -0.57694 0
M  V30 18947 O 1779.44 2.63233 -0.664893 0
M  V30 18948 C 1777.9 1.80195 -3.11541 0
M  V30 18949 C 1777.51 0.966227 -4.37456 0
M  V30 18950 C 1779.25 2.52277 -3.41404 0
M  V30 18951 C 1777.16 1.7781 -5.64037 0
M  V30 18952 H 1776.09 0.371623 -0.656058 0
M  V30 18953 H 1778.74 0.240396 -1.81919 0
M  V30 18954 H 1777.12 2.58841 -2.99695 0
M  V30 18955 H 1778.3 0.222865 -4.60261 0
M  V30 18956 H 1776.61 0.359255 -4.14847 0
M  V30 18957 H 1779.21 3.13451 -4.33189 0
M  V30 18958 H 1779.55 3.23333 -2.62224 0
M  V30 18959 H 1780.08 1.80649 -3.54416 0
M  V30 18960 H 1776.82 1.11147 -6.46008 0
M  V30 18961 H 1776.34 2.49703 -5.45352 0
M  V30 18962 H 1778.02 2.348 -6.02891 0
M  V30 18963 N 1778.15 1.48666 0.52309 0
M  V30 18964 C 1779.43 1.47526 1.28435 0
M  V30 18965 C 1779.81 0.190719 2.10237 0
M  V30 18966 O 1779.16 -0.827423 2.12993 0
M  V30 18967 C 1779.37 2.74132 2.15992 0
M  V30 18968 C 1780.72 3.22739 2.75907 0
M  V30 18969 O 1781.74 2.75097 2.26275 0
M  V30 18970 O 1780.6 4.05657 3.66203 0
M  V30 18971 H 1777.69 0.589478 0.580039 0
M  V30 18972 H 1780.24 1.60907 0.539176 0
M  V30 18973 H 1779.01 3.5913 1.55375 0
M  V30 18974 H 1778.64 2.63505 2.97743 0
M  V30 18975 N 1779.63 -0.772489 1.37369 0
M  V30 18976 C 1780.56 -1.89969 1.35772 0
M  V30 18977 C 1781.54 -1.68586 0.226452 0
M  V30 18978 O 1782.73 -1.89454 0.426692 0
M  V30 18979 C 1779.86 -3.27242 1.16319 0
M  V30 18980 C 1778.81 -3.63187 2.2645 0
M  V30 18981 C 1778.14 -4.98992 1.92121 0
M  V30 18982 C 1779.44 -3.70013 3.6863 0
M  V30 18983 H 1781.13 -1.91564 2.30095 0
M  V30 18984 H 1778.68 -0.920241 1.10759 0
M  V30 18985 H 1780.63 -4.05734 1.13832 0
M  V30 18986 H 1779.36 -3.26078 0.184513 0
M  V30 18987 H 1778.01 -2.87001 2.28091 0
M  V30 18988 H 1777.66 -4.94368 0.927848 0
M  V30 18989 H 1777.36 -5.24012 2.65867 0
M  V30 18990 H 1778.89 -5.79886 1.91219 0
M  V30 18991 H 1780.3 -4.38659 3.69122 0
M  V30 18992 H 1778.7 -4.06529 4.41423 0
M  V30 18993 H 1779.77 -2.70694 4.02309 0
M  V30 18994 N 1781.11 -1.21927 -0.998575 0
M  V30 18995 C 1782.36 -1.03834 -1.73386 0
M  V30 18996 C 1782.68 0.428247 -1.90239 0
M  V30 18997 O 1781.95 1.30847 -1.45794 0
M  V30 18998 H 1780.53 -0.381225 -0.642399 0
M  V30 18999 H 1783.19 -1.53344 -1.20298 0
M  V30 19000 H 1782.29 -1.51155 -2.73054 0
M  V30 19001 N 1782.59 1.19452 -1.02805 0
M  V30 19002 C 1783.52 2.24875 -0.628752 0
M  V30 19003 C 1784.5 1.66207 0.361844 0
M  V30 19004 O 1785.68 1.92652 0.244743 0
M  V30 19005 C 1782.81 3.47293 0.0220954 0
M  V30 19006 C 1781.77 4.1863 -0.890693 0
M  V30 19007 C 1781.09 5.34597 -0.104997 0
M  V30 19008 C 1782.39 4.73518 -2.20405 0
M  V30 19009 H 1784.09 2.5853 -1.51005 0
M  V30 19010 H 1781.63 1.24271 -0.727518 0
M  V30 19011 H 1783.59 4.20235 0.313073 0
M  V30 19012 H 1782.31 3.12835 0.938182 0
M  V30 19013 H 1780.97 3.47568 -1.16585 0
M  V30 19014 H 1780.62 4.96385 0.813098 0
M  V30 19015 H 1780.32 5.83258 -0.712983 0
M  V30 19016 H 1781.84 6.10337 0.179259 0
M  V30 19017 H 1783.26 5.3822 -1.97465 0
M  V30 19018 H 1781.65 5.32663 -2.76388 0
M  V30 19019 H 1782.72 3.9163 -2.85926 0
M  V30 19020 N 1784.07 0.805805 1.35442 0
M  V30 19021 C 1785 0.230077 2.32364 0
M  V30 19022 C 1785.98 -0.644034 1.57436 0
M  V30 19023 O 1787.16 -0.574467 1.85509 0
M  V30 19024 C 1784.29 -0.622814 3.4167 0
M  V30 19025 C 1783.25 0.152739 4.27727 0
M  V30 19026 C 1782.57 -0.821803 5.28347 0
M  V30 19027 C 1783.87 1.35128 5.04517 0
M  V30 19028 H 1785.57 1.03983 2.80763 0
M  V30 19029 H 1783.11 0.501467 1.34986 0
M  V30 19030 H 1785.07 -1.03564 4.08476 0
M  V30 19031 H 1783.79 -1.46544 2.91877 0
M  V30 19032 H 1782.45 0.546732 3.625 0
M  V30 19033 H 1782.1 -1.65991 4.74822 0
M  V30 19034 H 1781.8 -0.307209 5.86796 0
M  V30 19035 H 1783.32 -1.23285 5.98024 0
M  V30 19036 H 1784.73 1.01337 5.64273 0
M  V30 19037 H 1783.13 1.80031 5.72459 0
M  V30 19038 H 1784.2 2.13833 4.35205 0
M  V30 19039 N 1785.54 -1.47344 0.559239 0
M  V30 19040 C 1786.47 -2.32839 -0.175542 0
M  V30 19041 C 1787.46 -1.43914 -0.906787 0
M  V30 19042 O 1788.64 -1.72767 -0.886855 0
M  V30 19043 C 1785.77 -3.25735 -1.20474 0
M  V30 19044 C 1784.72 -4.23916 -0.589825 0
M  V30 19045 C 1784.05 -5.06151 -1.7238 0
M  V30 19046 C 1785.35 -5.2029 0.457733 0
M  V30 19047 H 1787.04 -2.94522 0.538225 0
M  V30 19048 H 1784.59 -1.41628 0.260282 0
M  V30 19049 H 1786.54 -3.84388 -1.72695 0
M  V30 19050 H 1785.27 -2.62111 -1.94847 0
M  V30 19051 H 1783.93 -3.66492 -0.0888897 0
M  V30 19052 H 1783.57 -4.38929 -2.45663 0
M  V30 19053 H 1783.27 -5.72625 -1.31813 0
M  V30 19054 H 1784.8 -5.67663 -2.24923 0
M  V30 19055 H 1786.21 -5.73296 0.0215019 0
M  V30 19056 H 1784.61 -5.94978 0.7824 0
M  V30 19057 H 1785.68 -4.65645 1.35286 0
M  V30 19058 N 1787.02 -0.295795 -1.54799 0
M  V30 19059 C 1787.97 0.597578 -2.2003 0
M  V30 19060 C 1788.96 1.10286 -1.17158 0
M  V30 19061 O 1790.15 1.04449 -1.42896 0
M  V30 19062 C 1787.28 1.77148 -2.94064 0
M  V30 19063 C 1786.36 1.28241 -4.04246 0
M  V30 19064 N 1786.75 0.510962 -5.03213 0
M  V30 19065 C 1785.05 1.5636 -4.17693 0
M  V30 19066 C 1785.75 0.251176 -5.81157 0
M  V30 19067 N 1784.73 0.829504 -5.37234 0
M  V30 19068 H 1788.53 0.000567564 -2.939 0
M  V30 19069 H 1786.05 -0.10031 -1.6209 0
M  V30 19070 H 1788.04 2.42299 -3.39259 0
M  V30 19071 H 1786.7 2.37224 -2.21709 0
M  V30 19072 H 1787.71 0.156346 -5.17664 0
M  V30 19073 H 1784.39 2.17222 -3.5654 0
M  V30 19074 H 1785.78 -0.368063 -6.70891 0
M  V30 19075 N 1788.5 1.57583 -0.0234236 0
M  V30 19076 C 1789.91 1.79422 0.516201 0
M  V30 19077 C 1790.26 0.933151 1.72588 0
M  V30 19078 O 1789.39 0.141985 2.15934 0
M  V30 19079 C 1789.98 3.25405 0.943248 0
M  V30 19080 C 1788.54 3.48259 1.42802 0
M  V30 19081 C 1787.69 2.74543 0.390074 0
M  V30 19082 H 1790.64 1.56727 -0.24949 0
M  V30 19083 H 1790.66 3.34803 1.80795 0
M  V30 19084 H 1790.17 3.88049 0.0626242 0
M  V30 19085 H 1788.27 2.9086 2.32877 0
M  V30 19086 H 1788.39 4.56968 1.43933 0
M  V30 19087 H 1786.75 2.39852 0.856919 0
M  V30 19088 H 1787.53 3.399 -0.481986 0
M  V30 19089 N 1789.98 -0.249655 1.5561 0
M  V30 19090 C 1791.23 -0.976148 1.76963 0
M  V30 19091 C 1791.55 -1.85958 0.586903 0
M  V30 19092 O 1790.82 -1.91827 -0.397415 0
M  V30 19093 H 1789.4 -0.363416 0.652639 0
M  V30 19094 H 1792.06 -0.268264 1.93045 0
M  V30 19095 H 1791.16 -1.59948 2.67998 0
M  V30 19096 N 1791.46 -1.48941 -0.515198 0
M  V30 19097 C 1792.42 -1.64062 -1.60051 0
M  V30 19098 C 1793.42 -0.513101 -1.52394 0
M  V30 19099 O 1794.61 -0.77924 -1.558 0
M  V30 19100 C 1791.74 -1.6247 -2.99694 0
M  V30 19101 H 1792.94 -2.60849 -1.47978 0
M  V30 19102 H 1790.49 -1.37759 -0.738378 0
M  V30 19103 H 1791.22 -0.672141 -3.17258 0
M  V30 19104 H 1791.01 -2.4434 -3.0666 0
M  V30 19105 H 1792.5 -1.76273 -3.78573 0
M  V30 19106 N 1792.94 0.765193 -1.37777 0
M  V30 19107 C 1794.17 1.5521 -1.36358 0
M  V30 19108 C 1794.57 1.8913 0.0514021 0
M  V30 19109 O 1793.92 1.52422 1.02535 0
M  V30 19110 C 1793.98 2.88605 -2.14354 0
M  V30 19111 C 1793.64 2.77286 -3.63265 0
M  V30 19112 C 1794.64 2.47869 -4.57009 0
M  V30 19113 C 1792.32 2.95102 -4.06473 0
M  V30 19114 C 1794.32 2.36406 -5.91938 0
M  V30 19115 C 1792.01 2.83259 -5.41486 0
M  V30 19116 C 1793 2.53952 -6.34032 0
M  V30 19117 O 1792.69 2.42148 -7.66564 0
M  V30 19118 H 1792.42 0.487266 -0.468559 0
M  V30 19119 H 1794.98 0.955716 -1.81811 0
M  V30 19120 H 1793.21 3.50388 -1.636 0
M  V30 19121 H 1794.9 3.50043 -2.05486 0
M  V30 19122 H 1795.66 2.33784 -4.24936 0
M  V30 19123 H 1791.54 3.16913 -3.34794 0
M  V30 19124 H 1795.09 2.13452 -6.64142 0
M  V30 19125 H 1790.98 2.96914 -5.7316 0
M  V30 19126 H 1791.75 2.57448 -7.76957 0
M  V30 19127 N 1794.41 1.22455 0.992094 0
M  V30 19128 C 1795.66 1.0496 1.73175 0
M  V30 19129 C 1795.99 -0.41518 1.90017 0
M  V30 19130 O 1795.24 -1.32408 1.44107 0
M  V30 19131 C 1795.54 1.70683 3.1401 0
M  V30 19132 C 1795.21 3.20579 3.1708 0
M  V30 19133 C 1793.87 3.6148 3.17626 0
M  V30 19134 C 1796.22 4.16519 3.13308 0
M  V30 19135 C 1793.55 4.968 3.121 0
M  V30 19136 C 1795.9 5.51816 3.09324 0
M  V30 19137 C 1794.57 5.92096 3.08185 0
M  V30 19138 H 1793.84 0.384075 0.633694 0
M  V30 19139 H 1796.48 1.52228 1.16184 0
M  V30 19140 H 1794.79 1.15742 3.74314 0
M  V30 19141 H 1796.49 1.54636 3.69985 0
M  V30 19142 H 1793.08 2.88012 3.17406 0
M  V30 19143 H 1797.26 3.85937 3.12036 0
M  V30 19144 H 1792.52 5.27238 3.09564 0
M  V30 19145 H 1796.69 6.25882 3.0536 0
M  V30 19146 H 1794.32 6.96919 3.03658 0
M  V30 19147 N 1795.89 -1.18905 1.03437 0
M  V30 19148 C 1797.31 -1.4075 0.752444 0
M  V30 19149 C 1797.51 -1.90361 -0.660679 0
M  V30 19150 O 1796.56 -2.08389 -1.42584 0
M  V30 19151 C 1797.88 -2.4138 1.79321 0
M  V30 19152 C 1799.42 -2.55118 1.81339 0
M  V30 19153 C 1799.9 -3.59007 2.8439 0
M  V30 19154 N 1801.39 -3.66508 2.83242 0
M  V30 19155 C 1802.13 -4.46602 3.59631 0
M  V30 19156 N 1801.62 -5.30355 4.45753 0
M  V30 19157 N 1803.41 -4.41304 3.48148 0
M  V30 19158 H 1795.57 -0.850259 1.94639 0
M  V30 19159 H 1797.83 -0.435962 0.841808 0
M  V30 19160 H 1797.53 -2.11963 2.80651 0
M  V30 19161 H 1797.41 -3.40636 1.62008 0
M  V30 19162 H 1799.8 -2.83856 0.806847 0
M  V30 19163 H 1799.88 -1.55996 2.02728 0
M  V30 19164 H 1799.52 -3.31011 3.8522 0
M  V30 19165 H 1799.45 -4.57792 2.60258 0
M  V30 19166 H 1801.94 -3.06697 2.20784 0
M  V30 19167 H 1802.25 -5.88603 5.00766 0
M  V30 19168 H 1800.6 -5.29797 4.49823 0
M  V30 19169 H 1803.79 -3.74918 2.80275 0
M  V30 19170 H 1803.96 -5.03483 4.07932 0
M  V30 19171 N 1797.37 -0.812977 -1.35013 0
M  V30 19172 C 1798.65 -0.319343 -1.92976 0
M  V30 19173 C 1799.03 1.19196 -1.74228 0
M  V30 19174 O 1798.37 1.99445 -1.11507 0
M  V30 19175 C 1798.58 -0.737753 -3.41113 0
M  V30 19176 C 1799.93 -0.730889 -4.18262 0
M  V30 19177 O 1800.96 -0.679701 -3.49655 0
M  V30 19178 O 1799.82 -0.795045 -5.40686 0
M  V30 19179 H 1796.91 -0.0850284 -0.822617 0
M  V30 19180 H 1799.46 -0.897102 -1.44049 0
M  V30 19181 H 1798.23 -1.77911 -3.48516 0
M  V30 19182 H 1797.85 -0.135148 -3.9737 0
M  V30 19183 N 1798.85 1.47045 -0.567045 0
M  V30 19184 C 1799.78 2.32929 0.163191 0
M  V30 19185 C 1800.76 1.44393 0.899142 0
M  V30 19186 O 1801.94 1.73235 0.87768 0
M  V30 19187 C 1799.07 3.26369 1.18745 0
M  V30 19188 C 1798.03 4.24223 0.567335 0
M  V30 19189 C 1797.35 5.07058 1.69693 0
M  V30 19190 C 1798.65 5.2004 -0.485319 0
M  V30 19191 H 1800.35 2.94233 -0.553837 0
M  V30 19192 H 1797.89 1.41488 -0.267789 0
M  V30 19193 H 1799.85 3.85299 1.70654 0
M  V30 19194 H 1798.57 2.6314 1.93455 0
M  V30 19195 H 1797.23 3.66534 0.0694525 0
M  V30 19196 H 1796.88 4.40226 2.43331 0
M  V30 19197 H 1796.58 5.73316 1.28774 0
M  V30 19198 H 1798.1 5.68848 2.2191 0
M  V30 19199 H 1799.52 5.73277 -0.0519049 0
M  V30 19200 H 1797.91 5.94554 -0.813942 0
M  V30 19201 H 1798.98 4.64921 -1.37754 0
M  V30 19202 N 1800.33 0.304 1.5464 0
M  V30 19203 C 1801.57 -0.297701 2.0121 0
M  V30 19204 C 1801.93 -1.51295 1.18859 0
M  V30 19205 O 1801.22 -1.89859 0.257697 0
M  V30 19206 C 1801.41 -0.702651 3.50425 0
M  V30 19207 C 1801.24 0.47181 4.47218 0
M  V30 19208 C 1800.01 0.964773 4.96004 0
M  V30 19209 C 1802.21 1.31774 4.97132 0
M  V30 19210 N 1800.19 2.10568 5.76658 0
M  V30 19211 C 1801.56 2.3061 5.75516 0
M  V30 19212 C 1803.62 1.34777 4.79312 0
M  V30 19213 C 1802.32 3.32228 6.37979 0
M  V30 19214 C 1804.35 2.35255 5.42595 0
M  V30 19215 C 1803.71 3.3282 6.20814 0
M  V30 19216 H 1799.81 -0.073314 0.778556 0
M  V30 19217 H 1802.39 0.434597 1.89788 0
M  V30 19218 H 1800.56 -1.40412 3.62131 0
M  V30 19219 H 1802.3 -1.28415 3.83786 0
M  V30 19220 H 1799.05 0.539254 4.7052 0
M  V30 19221 H 1799.47 2.68063 6.21668 0
M  V30 19222 H 1804.12 0.607191 4.18417 0
M  V30 19223 H 1801.83 4.07203 6.98005 0
M  V30 19224 H 1805.42 2.38355 5.30733 0
M  V30 19225 H 1804.3 4.09296 6.68914 0
M  V30 19226 N 1801.8 -1.57568 0.0317802 0
M  V30 19227 C 1802.75 -2.11538 -0.967175 0
M  V30 19228 C 1803.75 -1.04258 -1.33516 0
M  V30 19229 O 1804.95 -1.2269 -1.31709 0
M  V30 19230 H 1801.33 -0.675877 -0.329687 0
M  V30 19231 H 1803.3 -2.94404 -0.486695 0
M  V30 19232 C 1802.05 -2.65973 -2.2395 0
M  V30 19233 H 1801.37 -3.48172 -1.96509 0
M  V30 19234 H 1802.81 -3.07379 -2.92052 0
M  V30 19235 C 1801.27 -1.5884 -2.97105 0
M  V30 19236 O 1801.8 -0.989784 -3.89315 0
M  V30 19237 N 1800 -1.30821 -2.59488 0
M  V30 19238 H 1799.55 -1.79687 -1.84581 0
M  V30 19239 H 1799.51 -0.593658 -3.08744 0
M  V30 19240 N 1803.28 0.241399 -1.5574 0
M  V30 19241 C 1804.53 0.966607 -1.7703 0
M  V30 19242 C 1804.84 1.86275 -0.59673 0
M  V30 19243 O 1806.05 2.62513 -0.692775 0
M  V30 19244 C 1804.51 1.7688 -3.13435 0
M  V30 19245 C 1804.11 0.919775 -4.38457 0
M  V30 19246 C 1805.86 2.48641 -3.44061 0
M  V30 19247 C 1803.77 1.71817 -5.65891 0
M  V30 19248 H 1802.7 0.364644 -0.659963 0
M  V30 19249 H 1805.35 0.221088 -1.82163 0
M  V30 19250 H 1803.73 2.55648 -3.02424 0
M  V30 19251 H 1804.9 0.174036 -4.60471 0
M  V30 19252 H 1803.22 0.315234 -4.15205 0
M  V30 19253 H 1805.81 3.08839 -4.36489 0
M  V30 19254 H 1806.16 3.20534 -2.65638 0
M  V30 19255 H 1806.69 1.7688 -3.56312 0
M  V30 19256 H 1803.43 1.04289 -6.47151 0
M  V30 19257 H 1802.95 2.43905 -5.47969 0
M  V30 19258 H 1804.63 2.28392 -6.05348 0
M  V30 19259 N 1804.76 1.49212 0.507292 0
M  V30 19260 C 1805.69 1.68326 1.61829 0
M  V30 19261 C 1806.67 0.531969 1.61568 0
M  V30 19262 O 1807.86 0.767104 1.78407 0
M  V30 19263 C 1804.99 1.74394 3.0034 0
M  V30 19264 C 1803.94 2.89251 3.15465 0
M  V30 19265 C 1803.27 2.80426 4.55264 0
M  V30 19266 C 1804.57 4.30269 2.96085 0
M  V30 19267 H 1806.26 2.6134 1.46087 0
M  V30 19268 H 1803.81 1.25765 0.701367 0
M  V30 19269 H 1805.76 1.86353 3.77956 0
M  V30 19270 H 1804.48 0.779748 3.17155 0
M  V30 19271 H 1803.14 2.76884 2.40272 0
M  V30 19272 H 1802.79 1.81928 4.68947 0
M  V30 19273 H 1802.49 3.57511 4.66326 0
M  V30 19274 H 1804.01 2.94384 5.34949 0
M  V30 19275 H 1805.43 4.4335 3.63475 0
M  V30 19276 H 1803.83 5.08527 3.18623 0
M  V30 19277 H 1804.9 4.45151 1.92272 0
M  V30 19278 N 1806.24 -0.757876 1.38181 0
M  V30 19279 C 1807.52 -1.50715 1.24677 0
M  V30 19280 C 1807.9 -2.1054 -0.153689 0
M  V30 19281 O 1807.24 -1.96703 -1.16276 0
M  V30 19282 C 1807.45 -2.57695 2.3536 0
M  V30 19283 C 1808.8 -3.24716 2.73578 0
M  V30 19284 O 1809.83 -2.67997 2.3464 0
M  V30 19285 O 1808.68 -4.27294 3.40709 0
M  V30 19286 H 1805.78 -0.668175 0.487311 0
M  V30 19287 H 1808.32 -0.793653 1.49997 0
M  V30 19288 H 1807.1 -2.11706 3.29084 0
M  V30 19289 H 1806.72 -3.36629 2.11581 0
M  V30 19290 N 1807.72 -1.22979 -0.985586 0
M  V30 19291 C 1808.96 -1.05877 -1.72616 0
M  V30 19292 C 1809.29 0.405097 -1.90235 0
M  V30 19293 O 1808.55 1.31642 -1.44807 0
M  V30 19294 C 1808.85 -1.72346 -3.131 0
M  V30 19295 C 1808.51 -3.22256 -3.15376 0
M  V30 19296 C 1807.17 -3.63159 -3.15704 0
M  V30 19297 C 1809.53 -4.18174 -3.11094 0
M  V30 19298 C 1806.85 -4.98448 -3.09461 0
M  V30 19299 C 1809.21 -5.53449 -3.06393 0
M  V30 19300 C 1807.87 -5.93722 -3.05041 0
M  V30 19301 H 1807.14 -0.38743 -0.631648 0
M  V30 19302 H 1809.79 -1.52842 -1.15375 0
M  V30 19303 H 1808.09 -1.17725 -3.73695 0
M  V30 19304 H 1809.79 -1.56595 -3.6916 0
M  V30 19305 H 1806.38 -2.89692 -3.15875 0
M  V30 19306 H 1810.56 -3.87586 -3.09985 0
M  V30 19307 H 1805.82 -5.28873 -3.06763 0
M  V30 19308 H 1809.99 -6.27492 -3.02037 0
M  V30 19309 H 1807.62 -6.98519 -2.99958 0
M  V30 19310 N 1809.19 1.18355 -1.04066 0
M  V30 19311 C 1810.44 1.87665 -0.73923 0
M  V30 19312 C 1810.76 1.81226 0.735963 0
M  V30 19313 O 1811.96 2.45899 1.15091 0
M  V30 19314 C 1810.42 3.36671 -1.27203 0
M  V30 19315 C 1810.03 3.5164 -2.77585 0
M  V30 19316 C 1811.77 4.11383 -1.04712 0
M  V30 19317 C 1809.68 4.94605 -3.24222 0
M  V30 19318 H 1808.61 0.702908 -0.27283 0
M  V30 19319 H 1811.26 1.33733 -1.25649 0
M  V30 19320 H 1809.64 3.90072 -0.682621 0
M  V30 19321 H 1810.81 3.08511 -3.42283 0
M  V30 19322 H 1809.13 2.90334 -2.98488 0
M  V30 19323 H 1811.73 5.16832 -1.37071 0
M  V30 19324 H 1812.07 4.16297 0.0156344 0
M  V30 19325 H 1812.6 3.64154 -1.60114 0
M  V30 19326 H 1809.34 4.94859 -4.29878 0
M  V30 19327 H 1808.86 5.38449 -2.6426 0
M  V30 19328 H 1810.54 5.6332 -3.18245 0
M  V30 19329 N 1810.67 0.820125 1.3458 0
M  V30 19330 C 1811.92 0.407473 1.98664 0
M  V30 19331 C 1812.25 -1.02613 1.64877 0
M  V30 19332 O 1811.53 -1.71421 0.918964 0
M  V30 19333 C 1811.81 0.606744 3.54952 0
M  V30 19334 C 1811.66 2.08626 3.98491 0
M  V30 19335 C 1812.98 0.0409321 4.40081 0
M  V30 19336 H 1810.1 0.149524 0.721673 0
M  V30 19337 H 1812.74 1.03217 1.59519 0
M  V30 19338 H 1810.89 0.0749788 3.88428 0
M  V30 19339 H 1812.56 2.68144 3.75361 0
M  V30 19340 H 1810.81 2.57774 3.48905 0
M  V30 19341 H 1811.48 2.17651 5.07279 0
M  V30 19342 H 1813.95 0.495234 4.13142 0
M  V30 19343 H 1812.83 0.210182 5.48497 0
M  V30 19344 H 1813.09 -1.05389 4.29355 0
M  V30 19345 N 1812.15 -1.46743 0.574835 0
M  V30 19346 C 1813.4 -2.02718 0.0575005 0
M  V30 19347 C 1813.73 -1.4463 -1.29599 0
M  V30 19348 O 1813 -0.608422 -1.84739 0
M  V30 19349 C 1813.29 -3.60096 -0.016719 0
M  V30 19350 C 1813.14 -4.28584 1.36511 0
M  V30 19351 C 1814.46 -4.34149 -0.721324 0
M  V30 19352 H 1811.58 -0.73666 0.0223697 0
M  V30 19353 H 1814.22 -1.74975 0.74052 0
M  V30 19354 H 1812.37 -3.83864 -0.598396 0
M  V30 19355 H 1814.04 -4.16104 1.99135 0
M  V30 19356 H 1812.29 -3.88253 1.935 0
M  V30 19357 H 1812.96 -5.37293 1.26573 0
M  V30 19358 H 1815.43 -4.15479 -0.227256 0
M  V30 19359 H 1814.31 -5.43858 -0.742263 0
M  V30 19360 H 1814.57 -4.04637 -1.78106 0
M  V30 19361 N 1813.63 -0.312197 -1.54477 0
M  V30 19362 C 1814.85 0.298829 -2.05236 0
M  V30 19363 C 1815.28 1.45881 -1.18745 0
M  V30 19364 O 1814.64 1.80259 -0.193999 0
M  V30 19365 C 1814.68 0.722008 -3.53298 0
M  V30 19366 O 1813.79 1.82562 -3.6979 0
M  V30 19367 H 1813.13 0.0560985 -0.661626 0
M  V30 19368 H 1815.66 -0.4573 -1.99424 0
M  V30 19369 H 1815.67 1.00777 -3.95358 0
M  V30 19370 H 1814.34 -0.12647 -4.15708 0
M  V30 19371 H 1812.92 1.53954 -3.39636 0
M  V30 19372 N 1815.11 1.57549 -0.040136 0
M  V30 19373 C 1816.35 1.9187 0.634838 0
M  V30 19374 C 1816.68 0.918178 1.7203 0
M  V30 19375 O 1815.95 -0.0386563 1.95862 0
M  V30 19376 H 1814.53 0.708245 0.237483 0
M  V30 19377 H 1817.19 1.9469 -0.0905369 0
M  V30 19378 H 1816.28 2.92799 1.08053 0
M  V30 19379 N 1816.58 -0.233136 1.55866 0
M  V30 19380 C 1817.55 -1.27227 1.90646 0
M  V30 19381 C 1818.55 -1.4039 0.784038 0
M  V30 19382 O 1819.74 -1.38854 1.05191 0
M  V30 19383 C 1816.87 -2.64791 2.14706 0
M  V30 19384 H 1818.06 -0.975986 2.83575 0
M  V30 19385 H 1815.62 -0.473045 1.4897 0
M  V30 19386 H 1816.35 -2.99537 1.24291 0
M  V30 19387 H 1816.14 -2.56615 2.96464 0
M  V30 19388 H 1817.63 -3.39797 2.4275 0
M  V30 19389 N 1818.06 -1.49479 -0.499372 0
M  V30 19390 C 1818.99 -1.69182 -1.60934 0
M  V30 19391 C 1819.97 -0.54053 -1.61283 0
M  V30 19392 O 1821.16 -0.776554 -1.77998 0
M  V30 19393 C 1818.29 -1.75985 -2.99411 0
M  V30 19394 C 1817.24 -2.9092 -3.13926 0
M  V30 19395 C 1816.57 -2.82837 -4.5377 0
M  V30 19396 C 1817.87 -4.31833 -2.93799 0
M  V30 19397 H 1819.56 -2.62112 -1.44699 0
M  V30 19398 H 1817.11 -1.26135 -0.694688 0
M  V30 19399 H 1819.06 -1.88354 -3.76962 0
M  V30 19400 H 1817.79 -0.796557 -3.16737 0
M  V30 19401 H 1816.45 -2.78155 -2.388 0
M  V30 19402 H 1816.09 -1.84412 -4.67976 0
M  V30 19403 H 1815.79 -3.59979 -4.64423 0
M  V30 19404 H 1817.32 -2.97217 -5.3338 0
M  V30 19405 H 1818.73 -4.45271 -3.61119 0
M  V30 19406 H 1817.13 -5.10209 -3.15922 0
M  V30 19407 H 1818.2 -4.46165 -1.89908 0
M  V30 19408 N 1819.54 0.750537 -1.38581 0
M  V30 19409 C 1820.79 1.51198 -1.35156 0
M  V30 19410 C 1821.12 1.94115 0.0574068 0
M  V30 19411 O 1820.4 1.65657 1.01922 0
M  V30 19412 C 1820.68 2.76245 -2.30999 0
M  V30 19413 C 1820.53 2.39446 -3.8077 0
M  V30 19414 C 1821.85 3.78282 -2.24924 0
M  V30 19415 H 1818.97 0.548488 -0.492271 0
M  V30 19416 H 1821.61 0.859402 -1.69453 0
M  V30 19417 H 1819.76 3.31928 -2.01882 0
M  V30 19418 H 1821.43 1.89515 -4.20573 0
M  V30 19419 H 1819.68 1.71866 -3.98302 0
M  V30 19420 H 1820.35 3.28926 -4.43296 0
M  V30 19421 H 1822.82 3.32146 -2.50636 0
M  V30 19422 H 1821.7 4.63467 -2.94091 0
M  V30 19423 H 1821.96 4.24088 -1.24908 0
M  V30 19424 N 1821.02 1.235 0.979051 0
M  V30 19425 C 1821.98 1.01854 2.05325 0
M  V30 19426 C 1822.98 -0.0201133 1.60787 0
M  V30 19427 O 1824.17 0.219761 1.72808 0
M  V30 19428 C 1821.3 0.541404 3.36573 0
M  V30 19429 H 1822.5 1.97183 2.25962 0
M  V30 19430 H 1820.05 1.05563 1.15265 0
M  V30 19431 H 1820.79 -0.415607 3.21626 0
M  V30 19432 H 1820.57 1.29092 3.7024 0
M  V30 19433 H 1822.06 0.410635 4.15576 0
M  V30 19434 N 1822.5 -1.17802 1.04693 0
M  V30 19435 C 1823.74 -1.87938 0.754024 0
M  V30 19436 C 1824.07 -1.80737 -0.718644 0
M  V30 19437 O 1823.33 -1.20657 -1.54079 0
M  V30 19438 C 1823.63 -3.37585 1.17349 0
M  V30 19439 C 1823.29 -3.6499 2.64751 0
M  V30 19440 C 1821.95 -3.72179 3.05019 0
M  V30 19441 C 1824.31 -3.76869 3.60027 0
M  V30 19442 C 1821.63 -3.88731 4.39437 0
M  V30 19443 C 1823.99 -3.94939 4.94172 0
M  V30 19444 C 1822.65 -4.00365 5.34101 0
M  V30 19445 H 1821.92 -0.687714 0.275917 0
M  V30 19446 H 1824.57 -1.39392 1.31309 0
M  V30 19447 H 1822.87 -3.88153 0.533333 0
M  V30 19448 H 1824.57 -3.90206 0.924134 0
M  V30 19449 H 1821.16 -3.60016 2.32565 0
M  V30 19450 H 1825.34 -3.70641 3.30059 0
M  V30 19451 H 1820.6 -3.91179 4.69882 0
M  V30 19452 H 1824.77 -4.03072 5.67896 0
M  V30 19453 H 1822.4 -4.12944 6.38264 0
M  V30 19454 N 1823.98 -0.827251 -1.34143 0
M  V30 19455 C 1824.94 -0.257543 -2.27748 0
M  V30 19456 C 1825.94 0.567053 -1.5047 0
M  V30 19457 O 1827.13 0.382529 -1.69948 0
M  V30 19458 C 1824.26 0.638449 -3.34868 0
M  V30 19459 H 1825.45 -1.08338 -2.79648 0
M  V30 19460 H 1823.01 -0.599441 -1.44348 0
M  V30 19461 H 1823.74 1.48717 -2.8819 0
M  V30 19462 H 1823.53 0.0486033 -3.9207 0
M  V30 19463 H 1825.02 1.03071 -4.0468 0
M  V30 19464 N 1825.45 1.46436 -0.582609 0
M  V30 19465 C 1826.7 2.02385 -0.0681494 0
M  V30 19466 C 1827.03 1.4541 1.29175 0
M  V30 19467 O 1826.28 0.609021 1.85982 0
M  V30 19468 C 1826.58 3.57368 0.0476745 0
M  V30 19469 C 1826.25 4.33382 -1.24462 0
M  V30 19470 C 1824.91 4.53868 -1.59866 0
M  V30 19471 C 1827.26 4.7703 -2.09981 0
M  V30 19472 C 1824.59 5.15254 -2.80589 0
M  V30 19473 C 1826.94 5.39749 -3.29929 0
M  V30 19474 C 1825.61 5.58463 -3.65616 0
M  V30 19475 H 1824.88 0.74058 -0.0249376 0
M  V30 19476 H 1827.52 1.75807 -0.759226 0
M  V30 19477 H 1825.83 3.83083 0.821879 0
M  V30 19478 H 1827.53 3.98336 0.461487 0
M  V30 19479 H 1824.12 4.17734 -0.958993 0
M  V30 19480 H 1828.3 4.60959 -1.83931 0
M  V30 19481 H 1823.56 5.27934 -3.08376 0
M  V30 19482 H 1827.73 5.72529 -3.96464 0
M  V30 19483 H 1825.36 6.05799 -4.59252 0
M  V30 19484 N 1826.93 0.320385 1.54309 0
M  V30 19485 C 1828.16 -0.28794 2.05391 0
M  V30 19486 C 1828.58 -1.45249 1.19517 0
M  V30 19487 O 1827.94 -1.80154 0.203556 0
M  V30 19488 C 1827.99 -0.703261 3.53676 0
M  V30 19489 O 1827.09 -1.80598 3.70753 0
M  V30 19490 H 1826.43 -0.052589 0.661914 0
M  V30 19491 H 1828.96 0.46787 1.99179 0
M  V30 19492 H 1828.97 -0.986793 3.95887 0
M  V30 19493 H 1827.65 0.148514 4.15635 0
M  V30 19494 H 1826.22 -1.5215 3.40448 0
M  V30 19495 N 1828.41 -1.57525 0.0484906 0
M  V30 19496 C 1829.66 -1.92204 -0.624654 0
M  V30 19497 C 1829.98 -0.927289 -1.71541 0
M  V30 19498 O 1829.25 0.0282687 -1.9588 0
M  V30 19499 H 1827.83 -0.709494 -0.233724 0
M  V30 19500 H 1830.49 -1.94639 0.100861 0
M  V30 19501 H 1829.59 -2.93368 -1.06498 0
M  V30 19502 N 1829.89 0.224867 -1.55988 0
M  V30 19503 C 1831.11 0.970897 -1.83271 0
M  V30 19504 C 1831.54 1.77293 -0.628399 0
M  V30 19505 O 1830.9 1.76301 0.422804 0
M  V30 19506 C 1830.94 1.86686 -3.08514 0
M  V30 19507 O 1830.05 2.96174 -2.86975 0
M  V30 19508 H 1829.39 0.275093 -0.604334 0
M  V30 19509 H 1831.92 0.239183 -2.03197 0
M  V30 19510 H 1831.93 2.27731 -3.3853 0
M  V30 19511 H 1830.6 1.27733 -3.95799 0
M  V30 19512 H 1829.18 2.59099 -2.68183 0
M  V30 19513 N 1831.37 1.49742 0.491438 0
M  V30 19514 C 1832.31 1.67115 1.59189 0
M  V30 19515 C 1833.28 0.512523 1.57995 0
M  V30 19516 O 1834.47 0.740693 1.75836 0
M  V30 19517 C 1831.61 1.75258 2.97286 0
M  V30 19518 C 1830.72 3.02488 3.08424 0
M  V30 19519 C 1829.86 3.0155 4.37311 0
M  V30 19520 C 1828.89 4.2332 4.42116 0
M  V30 19521 N 1828.03 4.20238 5.62445 0
M  V30 19522 H 1832.87 2.61073 1.43683 0
M  V30 19523 H 1830.41 1.29435 0.69892 0
M  V30 19524 H 1832.37 1.77959 3.77341 0
M  V30 19525 H 1831 0.847568 3.11474 0
M  V30 19526 H 1830.05 3.09353 2.21371 0
M  V30 19527 H 1831.36 3.92479 3.07834 0
M  V30 19528 H 1830.51 3.02868 5.25695 0
M  V30 19529 H 1829.25 2.09354 4.4048 0
M  V30 19530 H 1828.26 4.22236 3.52132 0
M  V30 19531 H 1829.48 5.1672 4.40656 0
M  V30 19532 H 1827.43 3.30884 5.66438 0
M  V30 19533 H 1827.35 5.03974 5.63512 0
M  V30 19534 H 1828.61 4.25672 6.53011 0
M  V30 19535 N 1832.84 -0.743177 1.38977 0
M  V30 19536 C 1834.09 -1.49959 1.35486 0
M  V30 19537 C 1834.41 -1.94933 -0.0512044 0
M  V30 19538 O 1833.68 -1.684 -1.0009 0
M  V30 19539 H 1832.26 -0.556277 0.498562 0
M  V30 19540 H 1834.93 -0.882776 1.73762 0
M  V30 19541 H 1834.02 -2.38559 2.01237 0
M  V30 19542 N 1834.32 -1.24018 -0.972487 0
M  V30 19543 C 1835.27 -1.02834 -2.06625 0
M  V30 19544 C 1836.24 0.056804 -1.66003 0
M  V30 19545 O 1837.42 -0.0968745 -1.90554 0
M  V30 19546 C 1834.56 -0.634103 -3.39224 0
M  V30 19547 C 1833.68 -1.79222 -3.93069 0
M  V30 19548 C 1832.81 -1.34401 -5.13916 0
M  V30 19549 C 1831.85 -2.47238 -5.59946 0
M  V30 19550 N 1830.99 -2.03319 -6.72016 0
M  V30 19551 H 1835.83 -1.96451 -2.24078 0
M  V30 19552 H 1833.37 -0.978545 -1.09831 0
M  V30 19553 H 1835.32 -0.386584 -4.15405 0
M  V30 19554 H 1833.95 0.26506 -3.2171 0
M  V30 19555 H 1833.01 -2.15353 -3.13572 0
M  V30 19556 H 1834.32 -2.64023 -4.23194 0
M  V30 19557 H 1833.47 -1.05509 -5.97455 0
M  V30 19558 H 1832.21 -0.466476 -4.85464 0
M  V30 19559 H 1831.22 -2.76895 -4.74983 0
M  V30 19560 H 1832.44 -3.35541 -5.90415 0
M  V30 19561 H 1830.39 -1.17956 -6.45308 0
M  V30 19562 H 1830.3 -2.81675 -7.01566 0
M  V30 19563 H 1831.57 -1.77553 -7.59009 0
M  V30 19564 N 1835.8 1.17245 -1.05316 0
M  V30 19565 C 1837.08 1.83482 -0.677779 0
M  V30 19566 C 1837.46 1.93592 0.841753 0
M  V30 19567 O 1836.81 1.47142 1.74818 0
M  V30 19568 C 1837.02 3.21062 -1.36823 0
M  V30 19569 C 1838.36 3.96954 -1.50708 0
M  V30 19570 O 1839.39 3.30545 -1.32734 0
M  V30 19571 O 1838.25 5.15967 -1.80111 0
M  V30 19572 H 1835.34 0.79179 -0.238741 0
M  V30 19573 H 1837.89 1.24531 -1.15283 0
M  V30 19574 H 1836.66 3.08679 -2.40484 0
M  V30 19575 H 1836.28 3.8768 -0.882617 0
M  V30 19576 N 1837.28 0.834353 1.33702 0
M  V30 19577 C 1838.53 0.424225 1.97188 0
M  V30 19578 C 1838.84 -1.02086 1.66846 0
M  V30 19579 O 1840.05 -1.53545 2.23911 0
M  V30 19580 C 1838.5 0.707628 3.52875 0
M  V30 19581 C 1838.11 2.16709 3.92098 0
M  V30 19582 C 1839.85 0.364228 4.22935 0
M  V30 19583 C 1837.76 2.39478 5.40744 0
M  V30 19584 H 1836.69 0.154897 0.737918 0
M  V30 19585 H 1839.34 1.02231 1.52385 0
M  V30 19586 H 1837.72 0.0392323 3.95981 0
M  V30 19587 H 1838.9 2.87559 3.60064 0
M  V30 19588 H 1837.21 2.47303 3.35008 0
M  V30 19589 H 1839.81 0.512031 5.32243 0
M  V30 19590 H 1840.15 -0.692375 4.10502 0
M  V30 19591 H 1840.69 0.98767 3.85344 0
M  V30 19592 H 1837.43 3.43687 5.58175 0
M  V30 19593 H 1836.95 1.73184 5.74254 0
M  V30 19594 H 1838.62 2.22406 6.07573 0
M  V30 19595 N 1838.76 -1.46125 0.590367 0
M  V30 19596 C 1839.7 -2.32108 -0.151168 0
M  V30 19597 C 1840.7 -1.44943 -0.876804 0
M  V30 19598 O 1841.9 -1.61526 -0.794323 0
M  V30 19599 H 1838.28 -0.748954 -0.0676159 0
M  V30 19600 H 1840.25 -2.92454 0.592723 0
M  V30 19601 C 1839 -3.28253 -1.14653 0
M  V30 19602 H 1838.32 -3.95309 -0.597597 0
M  V30 19603 H 1839.76 -3.91181 -1.63564 0
M  V30 19604 C 1838.22 -2.54162 -2.21141 0
M  V30 19605 O 1838.75 -2.31029 -3.28616 0
M  V30 19606 N 1836.96 -2.14592 -1.95956 0
M  V30 19607 H 1836.5 -2.33606 -1.08564 0
M  V30 19608 H 1836.46 -1.65339 -2.67414 0
M  V30 19609 N 1840.23 -0.328564 -1.54137 0
M  V30 19610 C 1841.46 0.274326 -2.05073 0
M  V30 19611 C 1841.88 1.45393 -1.20442 0
M  V30 19612 O 1841.23 1.80964 -0.23625 0
M  V30 19613 C 1841.29 0.703941 -3.5458 0
M  V30 19614 O 1841.01 -0.428738 -4.35997 0
M  V30 19615 C 1842.51 1.36912 -4.21628 0
M  V30 19616 H 1839.73 0.0556157 -0.668691 0
M  V30 19617 H 1842.27 -0.476204 -1.98878 0
M  V30 19618 H 1840.43 1.40444 -3.61046 0
M  V30 19619 H 1840.84 -0.0892654 -5.24424 0
M  V30 19620 H 1842.31 1.62062 -5.27674 0
M  V30 19621 H 1842.79 2.31799 -3.73049 0
M  V30 19622 H 1843.4 0.711064 -4.19314 0
M  V30 19623 N 1841.71 1.57497 -0.0568439 0
M  V30 19624 C 1842.96 1.9209 0.615157 0
M  V30 19625 C 1843.27 0.937538 1.71667 0
M  V30 19626 O 1844.48 1.17573 2.44722 0
M  V30 19627 C 1842.94 3.41183 1.14552 0
M  V30 19628 C 1842.54 4.47936 0.0758146 0
M  V30 19629 C 1844.29 3.84801 1.79244 0
M  V30 19630 C 1842.2 5.88148 0.619381 0
M  V30 19631 H 1841.13 0.716918 0.233547 0
M  V30 19632 H 1843.78 1.83062 -0.126654 0
M  V30 19633 H 1842.16 3.45234 1.93983 0
M  V30 19634 H 1843.33 4.55482 -0.69807 0
M  V30 19635 H 1841.65 4.13694 -0.473984 0
M  V30 19636 H 1844.24 4.86929 2.20918 0
M  V30 19637 H 1844.59 3.21355 2.64645 0
M  V30 19638 H 1845.12 3.8329 1.0646 0
M  V30 19639 H 1841.86 6.55204 -0.19712 0
M  V30 19640 H 1841.38 5.84152 1.36112 0
M  V30 19641 H 1843.06 6.37572 1.1005 0
M  V30 19642 N 1843.19 -0.216591 1.56105 0
M  V30 19643 C 1844.14 -1.26844 1.92819 0
M  V30 19644 C 1845.11 -1.46326 0.785999 0
M  V30 19645 O 1846.29 -1.59813 1.04232 0
M  V30 19646 C 1843.43 -2.61276 2.25452 0
M  V30 19647 C 1842.55 -2.49552 3.5263 0
M  V30 19648 C 1841.68 -3.76541 3.74686 0
M  V30 19649 C 1840.72 -3.5956 4.95362 0
M  V30 19650 N 1839.86 -4.7851 5.13782 0
M  V30 19651 H 1844.7 -0.948341 2.82508 0
M  V30 19652 H 1842.23 -0.456953 1.39823 0
M  V30 19653 H 1844.19 -3.39567 2.42384 0
M  V30 19654 H 1842.82 -2.91373 1.38931 0
M  V30 19655 H 1841.87 -1.6267 3.43864 0
M  V30 19656 H 1843.19 -2.32927 4.41074 0
M  V30 19657 H 1842.34 -4.63275 3.91741 0
M  V30 19658 H 1841.08 -3.96097 2.84532 0
M  V30 19659 H 1840.08 -2.71211 4.78252 0
M  V30 19660 H 1841.31 -3.41471 5.87005 0
M  V30 19661 H 1839.25 -4.9837 4.26572 0
M  V30 19662 H 1839.17 -4.64631 5.96368 0
M  V30 19663 H 1840.44 -5.66656 5.35277 0
M  V30 19664 N 1844.67 -1.5 -0.48349 0
M  V30 19665 C 1845.89 -1.64376 -1.26473 0
M  V30 19666 C 1846.32 -0.321912 -1.85325 0
M  V30 19667 O 1845.68 0.712714 -1.66704 0
M  V30 19668 C 1845.72 -2.72803 -2.35819 0
M  V30 19669 O 1844.83 -2.33194 -3.40139 0
M  V30 19670 H 1844.17 -0.549589 -0.372624 0
M  V30 19671 H 1846.7 -1.963 -0.57684 0
M  V30 19672 H 1846.71 -2.95505 -2.8132 0
M  V30 19673 H 1845.38 -3.68745 -1.92353 0
M  V30 19674 H 1843.96 -2.20891 -3.00436 0
M  V30 19675 N 1846.15 0.735796 -1.39369 0
M  V30 19676 C 1847.08 1.86303 -1.4076 0
M  V30 19677 C 1848.06 1.67926 -0.27107 0
M  V30 19678 O 1849.24 1.88257 -0.476773 0
M  V30 19679 C 1846.37 3.24043 -1.24955 0
M  V30 19680 C 1845.33 3.57055 -2.35999 0
M  V30 19681 C 1844.65 4.93723 -2.05284 0
M  V30 19682 C 1845.95 3.60109 -3.7831 0
M  V30 19683 H 1847.65 1.85396 -2.35093 0
M  V30 19684 H 1845.19 0.890552 -1.1316 0
M  V30 19685 H 1847.15 4.02574 -1.24549 0
M  V30 19686 H 1845.87 3.25475 -0.270902 0
M  V30 19687 H 1844.53 2.80853 -2.35621 0
M  V30 19688 H 1844.18 4.91734 -1.05859 0
M  V30 19689 H 1843.88 5.16779 -2.79667 0
M  V30 19690 H 1845.4 5.74612 -2.06527 0
M  V30 19691 H 1846.81 4.28718 -3.80622 0
M  V30 19692 H 1845.21 3.94683 -4.52046 0
M  V30 19693 H 1846.28 2.59932 -4.09345 0
M  V30 19694 N 1847.63 1.24532 0.965897 0
M  V30 19695 C 1849.04 1.0111 1.23486 0
M  V30 19696 C 1849.24 -0.278989 1.99559 0
M  V30 19697 O 1848.3 -0.99467 2.32083 0
M  V30 19698 C 1849.61 2.22726 2.02024 0
M  V30 19699 C 1851.16 2.27369 2.1511 0
M  V30 19700 C 1851.63 3.48611 2.97043 0
M  V30 19701 N 1853.12 3.48938 3.04625 0
M  V30 19702 C 1853.86 4.3941 3.68384 0
M  V30 19703 N 1853.36 5.40138 4.33847 0
M  V30 19704 N 1855.15 4.27117 3.65414 0
M  V30 19705 H 1847.3 2.07433 0.456674 0
M  V30 19706 H 1849.56 0.91037 0.264443 0
M  V30 19707 H 1849.27 3.16427 1.53515 0
M  V30 19708 H 1849.14 2.24989 3.02754 0
M  V30 19709 H 1851.53 1.34198 2.62821 0
M  V30 19710 H 1851.61 2.29131 1.13722 0
M  V30 19711 H 1851.25 4.42097 2.50025 0
M  V30 19712 H 1851.18 3.44093 3.98632 0
M  V30 19713 H 1853.68 2.76067 2.58061 0
M  V30 19714 H 1853.99 6.05402 4.80321 0
M  V30 19715 H 1852.33 5.44022 4.3251 0
M  V30 19716 H 1855.52 3.47659 3.1345 0
M  V30 19717 H 1855.7 4.97824 4.1482 0
M  V30 19718 N 1849.1 -1.16685 1.05936 0
M  V30 19719 C 1850.35 -1.87405 0.775061 0
M  V30 19720 C 1850.68 -1.81279 -0.696543 0
M  V30 19721 O 1849.96 -1.22595 -1.50999 0
M  V30 19722 C 1850.24 -3.37124 1.26569 0
M  V30 19723 C 1850.09 -3.5196 2.80078 0
M  V30 19724 C 1851.41 -4.31401 0.870695 0
M  V30 19725 H 1848.53 -0.680488 0.283028 0
M  V30 19726 H 1851.17 -1.37174 1.31466 0
M  V30 19727 H 1849.32 -3.80033 0.806653 0
M  V30 19728 H 1851 -3.18014 3.34163 0
M  V30 19729 H 1849.24 -2.9399 3.18986 0
M  V30 19730 H 1849.91 -4.5709 3.09471 0
M  V30 19731 H 1852.39 -3.96373 1.266 0
M  V30 19732 H 1851.26 -5.34676 1.2415 0
M  V30 19733 H 1851.52 -4.41529 -0.224692 0
M  V30 19734 N 1850.58 -0.841432 -1.33258 0
M  V30 19735 C 1851.51 -0.291603 -2.31672 0
M  V30 19736 C 1852.49 0.602066 -1.59089 0
M  V30 19737 O 1853.68 0.525081 -1.86967 0
M  V30 19738 C 1850.81 0.532008 -3.43201 0
M  V30 19739 C 1849.76 -0.26609 -4.27172 0
M  V30 19740 C 1849.09 0.681432 -5.3034 0
M  V30 19741 C 1850.39 -1.48457 -5.00757 0
M  V30 19742 H 1852.08 -1.1139 -2.77908 0
M  V30 19743 H 1849.63 -0.53708 -1.33609 0
M  V30 19744 H 1851.58 0.926977 -4.11078 0
M  V30 19745 H 1850.3 1.38754 -2.9566 0
M  V30 19746 H 1848.96 -0.64265 -3.60923 0
M  V30 19747 H 1848.61 1.53344 -4.79056 0
M  V30 19748 H 1848.31 0.151522 -5.87405 0
M  V30 19749 H 1849.84 1.07386 -6.01083 0
M  V30 19750 H 1851.25 -1.16262 -5.61388 0
M  V30 19751 H 1849.65 -1.95145 -5.67484 0
M  V30 19752 H 1850.72 -2.25296 -4.29383 0
M  V30 19753 N 1852.06 1.4581 -0.598108 0
M  V30 19754 C 1853.48 1.57452 -0.260993 0
M  V30 19755 C 1853.68 1.59093 1.2366 0
M  V30 19756 O 1852.73 1.51614 2.01915 0
M  V30 19757 C 1854.04 2.86158 -0.923801 0
M  V30 19758 C 1855.59 2.99817 -0.89883 0
M  V30 19759 C 1856.07 4.3128 -1.54147 0
M  V30 19760 N 1857.56 4.38016 -1.50652 0
M  V30 19761 C 1858.29 5.38387 -1.973 0
M  V30 19762 N 1857.79 6.45347 -2.51991 0
M  V30 19763 N 1859.58 5.29684 -1.88124 0
M  V30 19764 H 1851.73 1.42988 -1.57061 0
M  V30 19765 H 1854 0.683038 -0.657391 0
M  V30 19766 H 1853.7 2.90812 -1.97791 0
M  V30 19767 H 1853.58 3.74609 -0.441318 0
M  V30 19768 H 1855.96 2.94735 0.146702 0
M  V30 19769 H 1856.04 2.12801 -1.41949 0
M  V30 19770 H 1855.69 4.3712 -2.58628 0
M  V30 19771 H 1855.62 5.17097 -0.995911 0
M  V30 19772 H 1858.11 3.61326 -1.1069 0
M  V30 19773 H 1858.42 7.18168 -2.85403 0
M  V30 19774 H 1856.77 6.46124 -2.56025 0
M  V30 19775 H 1859.96 4.45029 -1.45144 0
M  V30 19776 H 1860.13 6.0776 -2.24793 0
M  V30 19777 N 1853.54 0.336733 1.53961 0
M  V30 19778 C 1854.78 -0.262248 2.01097 0
M  V30 19779 C 1855.12 -1.50745 1.22431 0
M  V30 19780 O 1854.39 -1.92012 0.310103 0
M  V30 19781 C 1854.67 -0.583219 3.55346 0
M  V30 19782 C 1854.53 0.67361 4.44727 0
M  V30 19783 C 1855.85 -1.39558 4.17386 0
M  V30 19784 H 1852.97 -0.0938423 0.731001 0
M  V30 19785 H 1855.61 0.455921 1.84449 0
M  V30 19786 H 1853.76 -1.19505 3.69663 0
M  V30 19787 H 1855.43 1.31168 4.42258 0
M  V30 19788 H 1853.67 1.29987 4.13867 0
M  V30 19789 H 1854.34 0.404382 5.50517 0
M  V30 19790 H 1856.82 -0.878292 4.06725 0
M  V30 19791 H 1855.7 -1.58892 5.25399 0
M  V30 19792 H 1855.96 -2.39567 3.71564 0
M  V30 19793 N 1855.02 -1.57465 0.0651956 0
M  V30 19794 C 1855.95 -2.15374 -0.902018 0
M  V30 19795 C 1856.93 -1.07904 -1.31494 0
M  V30 19796 O 1858.11 -1.35909 -1.38717 0
M  V30 19797 C 1855.24 -2.71005 -2.17195 0
M  V30 19798 C 1854.2 -3.83583 -1.89864 0
M  V30 19799 C 1853.52 -4.25789 -3.23432 0
M  V30 19800 C 1854.82 -5.08112 -1.20913 0
M  V30 19801 H 1856.52 -2.96445 -0.419631 0
M  V30 19802 H 1854.06 -1.42599 -0.200401 0
M  V30 19803 H 1856.01 -3.1016 -2.8527 0
M  V30 19804 H 1854.74 -1.87146 -2.67664 0
M  V30 19805 H 1853.4 -3.44921 -1.24197 0
M  V30 19806 H 1853.05 -3.38861 -3.71729 0
M  V30 19807 H 1852.75 -5.01673 -3.05938 0
M  V30 19808 H 1854.27 -4.67555 -3.92715 0
M  V30 19809 H 1855.68 -5.44624 -1.79046 0
M  V30 19810 H 1854.08 -5.8923 -1.137 0
M  V30 19811 H 1855.15 -4.84538 -0.187224 0
M  V30 19812 N 1856.49 0.20831 -1.56217 0
M  V30 19813 C 1857.91 0.55859 -1.49506 0
M  V30 19814 C 1858.11 1.86504 -0.762784 0
M  V30 19815 O 1857.17 2.50616 -0.307868 0
M  V30 19816 C 1858.48 0.625557 -2.94121 0
M  V30 19817 C 1860.03 0.715289 -3.04717 0
M  V30 19818 C 1860.5 0.813485 -4.50718 0
M  V30 19819 N 1861.99 0.87736 -4.54815 0
M  V30 19820 C 1862.73 0.973279 -5.65079 0
M  V30 19821 N 1862.22 1.03232 -6.85066 0
M  V30 19822 N 1864.02 1.00944 -5.52962 0
M  V30 19823 H 1856.17 -0.648826 -2.02247 0
M  V30 19824 H 1858.43 -0.229425 -0.91982 0
M  V30 19825 H 1858.14 -0.265056 -3.507 0
M  V30 19826 H 1858.01 1.48473 -3.4675 0
M  V30 19827 H 1860.4 1.59634 -2.48196 0
M  V30 19828 H 1860.48 -0.169818 -2.55236 0
M  V30 19829 H 1860.12 -0.0631602 -5.07861 0
M  V30 19830 H 1860.05 1.7142 -4.97918 0
M  V30 19831 H 1862.54 0.841513 -3.68411 0
M  V30 19832 H 1862.86 1.10566 -7.6485 0
M  V30 19833 H 1861.2 1.00122 -6.8775 0
M  V30 19834 H 1864.39 0.960065 -4.58149 0
M  V30 19835 H 1864.57 1.08074 -6.38924 0
M  V30 19836 N 1857.97 1.50255 0.475528 0
M  V30 19837 C 1859.38 1.53931 1.05651 0
M  V30 19838 C 1859.73 0.340226 1.93228 0
M  V30 19839 O 1858.86 -0.547349 2.09363 0
M  V30 19840 C 1859.45 2.78951 1.92281 0
M  V30 19841 C 1858.01 2.85323 2.45495 0
M  V30 19842 C 1857.16 2.48166 1.2373 0
M  V30 19843 H 1860.11 1.56583 0.258332 0
M  V30 19844 H 1860.13 2.60555 2.77293 0
M  V30 19845 H 1859.64 3.66205 1.28514 0
M  V30 19846 H 1857.74 2.0241 3.12827 0
M  V30 19847 H 1857.86 3.88109 2.80906 0
M  V30 19848 H 1856.22 2.00505 1.57066 0
M  V30 19849 H 1857 3.37722 0.616324 0
M  V30 19850 N 1859.45 -0.728395 1.39758 0
M  V30 19851 C 1860.38 -1.85554 1.41747 0
M  V30 19852 C 1861.36 -1.6778 0.279972 0
M  V30 19853 O 1862.55 -1.88001 0.48675 0
M  V30 19854 C 1859.68 -3.23375 1.26671 0
M  V30 19855 C 1858.63 -3.55799 2.37889 0
M  V30 19856 C 1857.96 -4.92628 2.07899 0
M  V30 19857 C 1859.26 -3.58098 3.80215 0
M  V30 19858 H 1860.95 -1.84146 2.36073 0
M  V30 19859 H 1858.5 -0.884539 1.13631 0
M  V30 19860 H 1860.45 -4.01907 1.26682 0
M  V30 19861 H 1859.17 -3.25326 0.288159 0
M  V30 19862 H 1857.83 -2.796 2.37107 0
M  V30 19863 H 1857.48 -4.91166 1.08466 0
M  V30 19864 H 1857.18 -5.15288 2.82404 0
M  V30 19865 H 1858.7 -5.73509 2.09571 0
M  V30 19866 H 1860.12 -4.26694 3.82891 0
M  V30 19867 H 1858.51 -3.9228 4.54133 0
M  V30 19868 H 1859.58 -2.57758 4.10718 0
M  V30 19869 N 1860.93 -1.25042 -0.959279 0
M  V30 19870 C 1861.87 -1.0502 -2.05522 0
M  V30 19871 C 1862.84 0.039194 -1.66054 0
M  V30 19872 O 1864.03 -0.11708 -1.9044 0
M  V30 19873 C 1861.17 -0.670047 -3.38533 0
M  V30 19874 C 1860.28 -1.83381 -3.91146 0
M  V30 19875 C 1859.42 -1.39844 -5.12462 0
M  V30 19876 C 1858.46 -2.53163 -5.57293 0
M  V30 19877 N 1857.59 -2.10435 -6.69822 0
M  V30 19878 H 1862.43 -1.98816 -2.21982 0
M  V30 19879 H 1859.97 -0.990139 -1.08787 0
M  V30 19880 H 1861.93 -0.430621 -4.14972 0
M  V30 19881 H 1860.56 0.230924 -3.21973 0
M  V30 19882 H 1859.61 -2.18667 -3.1127 0
M  V30 19883 H 1860.92 -2.68497 -4.2037 0
M  V30 19884 H 1860.08 -1.1184 -5.96303 0
M  V30 19885 H 1858.82 -0.51794 -4.84942 0
M  V30 19886 H 1857.82 -2.81918 -4.7202 0
M  V30 19887 H 1859.05 -3.41784 -5.86822 0
M  V30 19888 H 1856.99 -1.24794 -6.44021 0
M  V30 19889 H 1856.91 -2.89101 -6.98539 0
M  V30 19890 H 1858.18 -1.85593 -7.57084 0
M  V30 19891 N 1862.41 1.16121 -1.06553 0
M  V30 19892 C 1863.63 1.90611 -0.804673 0
M  V30 19893 C 1864.05 1.77576 0.641255 0
M  V30 19894 O 1863.41 1.12218 1.43921 0
M  V30 19895 C 1863.46 3.41231 -1.19348 0
M  V30 19896 O 1863.18 3.53879 -2.58266 0
M  V30 19897 C 1864.68 4.32764 -0.960738 0
M  V30 19898 H 1861.9 0.604358 -0.291534 0
M  V30 19899 H 1864.44 1.47174 -1.41986 0
M  V30 19900 H 1862.6 3.82361 -0.622772 0
M  V30 19901 H 1863.01 4.47298 -2.73907 0
M  V30 19902 H 1864.49 5.36898 -1.28238 0
M  V30 19903 H 1864.96 4.39078 0.103389 0
M  V30 19904 H 1865.57 3.97365 -1.51595 0
M  V30 19905 N 1863.88 0.848487 1.3281 0
M  V30 19906 C 1865.13 0.445116 1.96727 0
M  V30 19907 C 1865.45 -1.00311 1.6792 0
M  V30 19908 O 1866.65 -1.51162 2.25527 0
M  V30 19909 C 1865.11 0.745015 3.52104 0
M  V30 19910 C 1864.72 2.20856 3.89778 0
M  V30 19911 C 1866.46 0.409065 4.22524 0
M  V30 19912 C 1864.37 2.452 5.38174 0
M  V30 19913 H 1863.3 0.162715 0.736233 0
M  V30 19914 H 1865.95 1.03841 1.51292 0
M  V30 19915 H 1864.33 0.0812291 3.95917 0
M  V30 19916 H 1865.5 2.91362 3.56994 0
M  V30 19917 H 1863.82 2.50842 3.32366 0
M  V30 19918 H 1866.42 0.568453 5.3167 0
M  V30 19919 H 1866.76 -0.648796 4.11213 0
M  V30 19920 H 1867.29 1.02848 3.84275 0
M  V30 19921 H 1864.03 3.49588 5.54499 0
M  V30 19922 H 1863.55 1.79265 5.72384 0
M  V30 19923 H 1865.23 2.28838 6.0518 0
M  V30 19924 N 1865.36 -1.4549 0.605832 0
M  V30 19925 C 1866.31 -2.30518 -0.114038 0
M  V30 19926 C 1867.28 -1.42 -0.861703 0
M  V30 19927 O 1868.46 -1.7093 -0.847788 0
M  V30 19928 C 1865.6 -3.26876 -1.10661 0
M  V30 19929 C 1864.72 -4.30497 -0.359999 0
M  V30 19930 C 1863.85 -5.13965 -1.34214 0
M  V30 19931 C 1862.89 -6.09315 -0.58324 0
M  V30 19932 N 1862.03 -6.85569 -1.51457 0
M  V30 19933 H 1866.87 -2.91542 0.617043 0
M  V30 19934 H 1864.41 -1.43664 0.31609 0
M  V30 19935 H 1866.36 -3.81207 -1.69519 0
M  V30 19936 H 1864.99 -2.6761 -1.80512 0
M  V30 19937 H 1864.05 -3.78841 0.344058 0
M  V30 19938 H 1865.36 -4.98259 0.232208 0
M  V30 19939 H 1864.51 -5.72688 -2.00283 0
M  V30 19940 H 1863.25 -4.46218 -1.96828 0
M  V30 19941 H 1862.26 -5.49725 0.0910986 0
M  V30 19942 H 1863.48 -6.79089 0.0378268 0
M  V30 19943 H 1861.43 -6.20512 -2.12839 0
M  V30 19944 H 1861.34 -7.49677 -0.97576 0
M  V30 19945 H 1862.61 -7.48834 -2.1649 0
M  V30 19946 N 1866.84 -0.344893 -1.5378 0
M  V30 19947 C 1868.26 0.00698009 -1.59598 0
M  V30 19948 C 1868.46 1.48608 -1.36081 0
M  V30 19949 O 1867.51 2.24498 -1.15573 0
M  V30 19950 C 1868.83 -0.430402 -2.97604 0
M  V30 19951 C 1870.37 -0.38286 -3.1065 0
M  V30 19952 C 1870.85 -0.795731 -4.51035 0
M  V30 19953 N 1872.34 -0.74997 -4.57088 0
M  V30 19954 C 1873.07 -1.04137 -5.63864 0
M  V30 19955 N 1872.57 -1.401 -6.78487 0
M  V30 19956 N 1874.36 -0.965521 -5.53746 0
M  V30 19957 H 1866.51 -1.30834 -1.67321 0
M  V30 19958 H 1868.78 -0.533422 -0.783686 0
M  V30 19959 H 1868.48 -1.46174 -3.19884 0
M  V30 19960 H 1868.36 0.193696 -3.76702 0
M  V30 19961 H 1870.74 0.639311 -2.88092 0
M  V30 19962 H 1870.83 -1.04218 -2.33607 0
M  V30 19963 H 1870.47 -1.81592 -4.74328 0
M  V30 19964 H 1870.4 -0.113876 -5.26477 0
M  V30 19965 H 1872.89 -0.48474 -3.74778 0
M  V30 19966 H 1873.2 -1.60815 -7.55882 0
M  V30 19967 H 1871.55 -1.43946 -6.7993 0
M  V30 19968 H 1874.74 -0.683902 -4.63077 0
M  V30 19969 H 1874.91 -1.19596 -6.36868 0
M  V30 19970 N 1868.32 1.57428 -0.0735454 0
M  V30 19971 C 1869.25 2.15849 0.890584 0
M  V30 19972 C 1870.23 1.086 1.3092 0
M  V30 19973 O 1871.41 1.36643 1.37994 0
M  V30 19974 C 1868.54 2.72153 2.15755 0
M  V30 19975 C 1867.5 3.84584 1.87827 0
M  V30 19976 C 1866.82 4.27498 3.21169 0
M  V30 19977 C 1868.12 5.08746 1.18217 0
M  V30 19978 H 1869.82 2.96663 0.403904 0
M  V30 19979 H 1867.36 1.42703 0.192836 0
M  V30 19980 H 1869.32 3.11668 2.83621 0
M  V30 19981 H 1868.04 1.88562 2.66668 0
M  V30 19982 H 1866.7 3.45575 1.22366 0
M  V30 19983 H 1866.35 3.40827 3.69927 0
M  V30 19984 H 1866.05 5.03288 3.03273 0
M  V30 19985 H 1867.57 4.69631 3.9023 0
M  V30 19986 H 1868.99 5.45566 1.76155 0
M  V30 19987 H 1867.38 5.89825 1.10573 0
M  V30 19988 H 1868.45 4.84631 0.161525 0
M  V30 19989 N 1869.8 -0.200022 1.56326 0
M  V30 19990 C 1871.21 -0.765141 1.70301 0
M  V30 19991 C 1871.56 -1.84066 0.679277 0
M  V30 19992 O 1870.68 -2.15768 -0.165308 0
M  V30 19993 C 1871.28 -1.39466 3.08763 0
M  V30 19994 C 1869.84 -1.90692 3.2452 0
M  V30 19995 C 1868.98 -0.77502 2.66249 0
M  V30 19996 H 1871.94 0.024977 1.5868 0
M  V30 19997 H 1871.96 -2.26396 3.05819 0
M  V30 19998 H 1871.47 -0.61165 3.8325 0
M  V30 19999 H 1869.57 -2.71728 2.54941 0
M  V30 20000 H 1869.68 -2.0721 4.31973 0
M  V30 20001 H 1868.05 -1.18802 2.25296 0
M  V30 20002 H 1868.83 -0.00432851 3.433 0
M  V30 20003 N 1871.27 -1.50505 -0.467553 0
M  V30 20004 C 1872.22 -1.69626 -1.56511 0
M  V30 20005 C 1873.19 -0.537594 -1.5716 0
M  V30 20006 O 1874.38 -0.768574 -1.74636 0
M  V30 20007 C 1871.52 -1.79965 -2.9446 0
M  V30 20008 C 1870.63 -3.07356 -3.03572 0
M  V30 20009 C 1869.76 -3.08469 -4.32458 0
M  V30 20010 C 1868.8 -4.303 -4.35326 0
M  V30 20011 N 1867.94 -4.29132 -5.55689 0
M  V30 20012 H 1872.78 -2.63326 -1.39511 0
M  V30 20013 H 1870.32 -1.30531 -0.678239 0
M  V30 20014 H 1872.28 -1.8394 -3.74462 0
M  V30 20015 H 1870.91 -0.897013 -3.10086 0
M  V30 20016 H 1869.96 -3.12836 -2.16421 0
M  V30 20017 H 1871.27 -3.97327 -3.01551 0
M  V30 20018 H 1870.42 -3.11193 -5.20811 0
M  V30 20019 H 1869.16 -2.16335 -4.37093 0
M  V30 20020 H 1868.17 -4.27784 -3.4537 0
M  V30 20021 H 1869.39 -5.23665 -4.3238 0
M  V30 20022 H 1867.34 -3.39853 -5.61102 0
M  V30 20023 H 1867.26 -5.12875 -5.55423 0
M  V30 20024 H 1868.52 -4.36007 -6.46156 0
M  V30 20025 N 1872.75 0.720973 -1.40142 0
M  V30 20026 C 1873.68 1.84799 -1.42729 0
M  V30 20027 C 1874.66 1.67629 -0.288866 0
M  V30 20028 O 1875.85 1.8774 -0.496713 0
M  V30 20029 C 1872.98 3.22699 -1.28385 0
M  V30 20030 C 1871.93 3.54532 -2.39773 0
M  V30 20031 C 1871.26 4.91518 -2.10509 0
M  V30 20032 C 1872.56 3.56077 -3.82108 0
M  V30 20033 H 1874.25 1.82892 -2.37046 0
M  V30 20034 H 1871.8 0.8785 -1.14098 0
M  V30 20035 H 1873.75 4.0123 -1.28812 0
M  V30 20036 H 1872.48 3.25169 -0.305408 0
M  V30 20037 H 1871.13 2.78338 -2.38586 0
M  V30 20038 H 1870.78 4.90584 -1.11069 0
M  V30 20039 H 1870.48 5.13783 -2.85132 0
M  V30 20040 H 1872.01 5.72389 -2.1261 0
M  V30 20041 H 1873.42 4.24657 -3.85148 0
M  V30 20042 H 1871.82 3.89866 -4.56207 0
M  V30 20043 H 1872.89 2.55576 -4.12079 0
M  V30 20044 N 1874.23 1.25549 0.952634 0
M  V30 20045 C 1875.18 1.06108 2.04963 0
M  V30 20046 C 1876.15 -0.0303872 1.66072 0
M  V30 20047 O 1877.33 0.127178 1.90376 0
M  V30 20048 C 1874.47 0.68799 3.38173 0
M  V30 20049 C 1873.59 1.85452 3.90168 0
M  V30 20050 C 1872.72 1.4256 5.11713 0
M  V30 20051 C 1871.76 2.56115 5.55942 0
M  V30 20052 N 1870.9 2.13984 6.68697 0
M  V30 20053 H 1875.74 1.99991 2.20925 0
M  V30 20054 H 1873.27 0.995895 1.08261 0
M  V30 20055 H 1875.23 0.452622 4.14737 0
M  V30 20056 H 1873.86 -0.213845 3.22091 0
M  V30 20057 H 1872.91 2.20314 3.10106 0
M  V30 20058 H 1874.23 2.70722 4.1894 0
M  V30 20059 H 1873.38 1.15 5.95701 0
M  V30 20060 H 1872.12 0.54365 4.8466 0
M  V30 20061 H 1871.12 2.84417 4.70518 0
M  V30 20062 H 1872.35 3.44891 5.85002 0
M  V30 20063 H 1870.29 1.28208 6.4335 0
M  V30 20064 H 1870.21 2.92801 6.96996 0
M  V30 20065 H 1871.48 1.89605 7.56089 0
M  V30 20066 N 1875.71 -1.15554 1.07168 0
M  V30 20067 C 1876.67 -2.18431 0.694305 0
M  V30 20068 C 1877.67 -1.5861 -0.264497 0
M  V30 20069 O 1878.86 -1.7414 -0.0457035 0
M  V30 20070 C 1875.99 -3.40892 0.0230473 0
M  V30 20071 H 1877.19 -2.53331 1.60511 0
M  V30 20072 H 1874.74 -1.29984 0.867982 0
M  V30 20073 H 1875.47 -3.11559 -0.900083 0
M  V30 20074 H 1875.26 -3.8557 0.712622 0
M  V30 20075 H 1876.75 -4.16986 -0.226392 0
M  V30 20076 N 1877.19 -0.855519 -1.32358 0
M  V30 20077 C 1878.43 -0.460002 -1.97514 0
M  V30 20078 C 1878.77 0.982052 -1.67539 0
M  V30 20079 O 1878.04 1.68925 -0.964091 0
M  V30 20080 C 1878.32 -0.70064 -3.53218 0
M  V30 20081 C 1878.18 -2.19118 -3.9282 0
M  V30 20082 C 1879.5 -0.157597 -4.39818 0
M  V30 20083 H 1876.62 -0.168606 -0.717455 0
M  V30 20084 H 1879.26 -1.0741 -1.56726 0
M  V30 20085 H 1877.41 -0.177937 -3.88092 0
M  V30 20086 H 1879.08 -2.78002 -3.6812 0
M  V30 20087 H 1877.32 -2.66934 -3.41948 0
M  V30 20088 H 1877.99 -2.31024 -5.0133 0
M  V30 20089 H 1880.47 -0.604597 -4.11684 0
M  V30 20090 H 1879.35 -0.355532 -5.47747 0
M  V30 20091 H 1879.61 0.939679 -4.31998 0
M  V30 20092 N 1878.67 1.45167 -0.61354 0
M  V30 20093 C 1879.91 2.02195 -0.111063 0
M  V30 20094 C 1880.24 1.48117 1.26061 0
M  V30 20095 O 1879.5 0.648333 1.84649 0
M  V30 20096 C 1879.79 3.57389 -0.0281394 0
M  V30 20097 C 1879.46 4.30645 -1.33626 0
M  V30 20098 C 1878.12 4.50375 -1.69457 0
M  V30 20099 C 1880.47 4.72469 -2.20052 0
M  V30 20100 C 1877.8 5.09186 -2.91455 0
M  V30 20101 C 1880.15 5.3263 -3.41304 0
M  V30 20102 C 1878.82 5.50582 -3.7738 0
M  V30 20103 H 1878.09 0.739885 -0.0406408 0
M  V30 20104 H 1880.74 1.74157 -0.796346 0
M  V30 20105 H 1879.04 3.8474 0.740436 0
M  V30 20106 H 1880.74 3.99225 0.37689 0
M  V30 20107 H 1877.33 4.15605 -1.04738 0
M  V30 20108 H 1881.51 4.56954 -1.93668 0
M  V30 20109 H 1876.77 5.21274 -3.19505 0
M  V30 20110 H 1880.94 5.6399 -4.08519 0
M  V30 20111 H 1878.57 5.95921 -4.71998 0
M  V30 20112 N 1880.14 0.353044 1.53595 0
M  V30 20113 C 1881.42 -0.296304 1.93343 0
M  V30 20114 C 1881.8 -1.67448 1.28548 0
M  V30 20115 O 1881.15 -2.24226 0.4399 0
M  V30 20116 C 1881.36 -0.359079 3.47148 0
M  V30 20117 C 1882.71 -0.605406 4.20262 0
M  V30 20118 O 1883.73 -0.440805 3.53462 0
M  V30 20119 O 1882.59 -0.92496 5.38616 0
M  V30 20120 H 1879.68 -0.174879 0.808298 0
M  V30 20121 H 1882.23 0.404914 1.64798 0
M  V30 20122 H 1881 0.607684 3.86553 0
M  V30 20123 H 1880.62 -1.1067 3.81887 0
M  V30 20124 N 1881.62 -1.57387 0.0818932 0
M  V30 20125 C 1882.86 -1.95747 -0.58843 0
M  V30 20126 C 1883.23 -0.961967 -1.66163 0
M  V30 20127 O 1884.43 -1.23358 -2.38822 0
M  V30 20128 C 1882.7 -3.38689 -1.14126 0
M  V30 20129 S 1884.26 -3.99034 -1.8253 0
M  V30 20130 H 1881.07 -0.684474 -0.192395 0
M  V30 20131 H 1883.68 -1.94859 0.158155 0
M  V30 20132 H 1882.38 -4.08918 -0.348477 0
M  V30 20133 H 1881.91 -3.43143 -1.92397 0
M  V30 20134 H 1883.93 -3.86762 -3.10854 0
M  V30 20135 N 1883.1 0.191729 -1.56429 0
M  V30 20136 C 1884.35 0.912948 -1.81089 0
M  V30 20137 C 1884.68 1.82767 -0.656483 0
M  V30 20138 O 1883.95 1.91456 0.342779 0
M  V30 20139 C 1884.24 1.72628 -3.16025 0
M  V30 20140 C 1884.09 0.836045 -4.41962 0
M  V30 20141 C 1885.41 2.69818 -3.47687 0
M  V30 20142 H 1882.53 0.33046 -0.658761 0
M  V30 20143 H 1885.17 0.180148 -1.89144 0
M  V30 20144 H 1883.32 2.35102 -3.09289 0
M  V30 20145 H 1884.99 0.225751 -4.60747 0
M  V30 20146 H 1883.23 0.142944 -4.33564 0
M  V30 20147 H 1883.91 1.44019 -5.32881 0
M  V30 20148 H 1886.38 2.17475 -3.54745 0
M  V30 20149 H 1885.26 3.23806 -4.43216 0
M  V30 20150 H 1885.52 3.49028 -2.71352 0
M  V30 20151 N 1884.58 1.50751 0.459565 0
M  V30 20152 C 1885.82 1.62556 1.21258 0
M  V30 20153 C 1886.16 0.330265 1.91371 0
M  V30 20154 O 1885.43 -0.668955 1.82634 0
M  V30 20155 C 1885.71 2.8138 2.24716 0
M  V30 20156 C 1885.57 4.20823 1.58832 0
M  V30 20157 C 1886.89 2.95744 3.2592 0
M  V30 20158 H 1884.01 0.591628 0.439483 0
M  V30 20159 H 1886.65 1.83172 0.504777 0
M  V30 20160 H 1884.8 2.63933 2.85082 0
M  V30 20161 H 1886.47 4.49888 1.01975 0
M  V30 20162 H 1884.71 4.24548 0.891148 0
M  V30 20163 H 1885.38 4.99915 2.3407 0
M  V30 20164 H 1887.86 3.11754 2.75588 0
M  V30 20165 H 1886.74 3.80488 3.95626 0
M  V30 20166 H 1887 2.06852 3.90723 0
M  V30 20167 N 1886.06 -0.713531 1.40522 0
M  V30 20168 C 1887 -1.84894 1.41127 0
M  V30 20169 C 1888 -1.66873 0.291521 0
M  V30 20170 O 1889.2 -1.73952 0.46266 0
M  V30 20171 H 1885.58 -0.608985 0.441182 0
M  V30 20172 H 1887.55 -1.815 2.36855 0
M  V30 20173 C 1886.3 -3.22774 1.29276 0
M  V30 20174 H 1885.62 -3.37248 2.14718 0
M  V30 20175 H 1887.06 -4.02349 1.33759 0
M  V30 20176 C 1885.52 -3.369 0.00320525 0
M  V30 20177 O 1886.05 -3.90086 -0.958942 0
M  V30 20178 N 1884.26 -2.90523 -0.0669733 0
M  V30 20179 H 1883.8 -2.47428 0.716722 0
M  V30 20180 H 1883.76 -3.00353 -0.929262 0
M  V30 20181 N 1887.53 -1.26053 -0.945962 0
M  V30 20182 C 1888.76 -1.14181 -1.7314 0
M  V30 20183 C 1889.18 0.299663 -1.85698 0
M  V30 20184 O 1888.54 1.21711 -1.34373 0
M  V30 20185 C 1888.59 -1.81052 -3.11854 0
M  V30 20186 O 1887.69 -1.09606 -3.97568 0
M  V30 20187 H 1887.03 -0.398138 -0.531397 0
M  V30 20188 H 1889.56 -1.66782 -1.18511 0
M  V30 20189 H 1889.57 -1.87685 -3.62269 0
M  V30 20190 H 1888.25 -2.85921 -3.0203 0
M  V30 20191 H 1886.83 -1.10915 -3.56023 0
M  V30 20192 N 1889.01 1.14984 -1.07779 0
M  V30 20193 C 1889.94 2.22006 -0.723564 0
M  V30 20194 C 1890.92 1.67592 0.291024 0
M  V30 20195 O 1892.11 1.93516 0.162812 0
M  V30 20196 C 1889.24 3.47074 -0.125223 0
M  V30 20197 C 1888.19 4.14475 -1.06745 0
M  V30 20198 C 1887.52 5.33671 -0.331643 0
M  V30 20199 C 1888.82 4.63744 -2.4029 0
M  V30 20200 H 1890.51 2.51893 -1.61834 0
M  V30 20201 H 1888.06 1.21073 -0.779571 0
M  V30 20202 H 1890.01 4.21185 0.134555 0
M  V30 20203 H 1888.73 3.16533 0.804654 0
M  V30 20204 H 1887.39 3.4231 -1.31222 0
M  V30 20205 H 1887.04 4.99387 0.601833 0
M  V30 20206 H 1886.74 5.7971 -0.959721 0
M  V30 20207 H 1888.27 6.10548 -0.0797668 0
M  V30 20208 H 1889.68 5.2936 -2.20115 0
M  V30 20209 H 1888.08 5.20461 -2.98732 0
M  V30 20210 H 1889.15 3.79151 -3.02279 0
M  V30 20211 N 1890.49 0.862526 1.31902 0
M  V30 20212 C 1891.44 0.31091 2.28696 0
M  V30 20213 C 1892.41 -0.586495 1.55401 0
M  V30 20214 O 1893.59 -0.519727 1.83585 0
M  V30 20215 C 1890.73 -0.487986 3.41632 0
M  V30 20216 C 1889.84 0.436096 4.29793 0
M  V30 20217 C 1888.98 -0.376197 5.29866 0
M  V30 20218 C 1888.02 0.544784 6.09671 0
M  V30 20219 N 1887.16 -0.230806 7.01721 0
M  V30 20220 H 1892 1.14156 2.75268 0
M  V30 20221 H 1889.53 0.574352 1.35424 0
M  V30 20222 H 1891.49 -0.966875 4.05842 0
M  V30 20223 H 1890.12 -1.28339 2.96191 0
M  V30 20224 H 1889.17 1.03341 3.66094 0
M  V30 20225 H 1890.48 1.14259 4.85537 0
M  V30 20226 H 1889.64 -0.917915 5.99716 0
M  V30 20227 H 1888.38 -1.11602 4.74759 0
M  V30 20228 H 1887.38 1.09832 5.38718 0
M  V30 20229 H 1888.61 1.28334 6.66864 0
M  V30 20230 H 1886.55 -0.95358 6.49032 0
M  V30 20231 H 1886.47 0.416499 7.54852 0
M  V30 20232 H 1887.74 -0.753996 7.75845 0
M  V30 20233 N 1891.97 -1.4484 0.62123 0
M  V30 20234 C 1892.92 -2.32377 -0.1019 0
M  V30 20235 C 1893.91 -1.4677 -0.845862 0
M  V30 20236 O 1895.12 -1.63174 -0.759882 0
M  V30 20237 H 1891.49 -0.75022 -0.0517143 0
M  V30 20238 H 1893.46 -2.91131 0.654623 0
M  V30 20239 C 1892.21 -3.30611 -1.07665 0
M  V30 20240 H 1891.53 -3.96487 -0.513612 0
M  V30 20241 H 1892.97 -3.94563 -1.5523 0
M  V30 20242 C 1891.43 -2.58795 -2.157 0
M  V30 20243 O 1891.96 -2.37947 -3.23642 0
M  V30 20244 N 1890.17 -2.187 -1.9136 0
M  V30 20245 H 1889.72 -2.35856 -1.03584 0
M  V30 20246 H 1889.67 -1.70975 -2.63847 0
M  V30 20247 N 1893.45 -0.361184 -1.53405 0
M  V30 20248 C 1894.69 0.230222 -2.01489 0
M  V30 20249 C 1895.03 1.48779 -1.24814 0
M  V30 20250 O 1894.3 1.91494 -0.340612 0
M  V30 20251 C 1894.58 0.526613 -3.56229 0
M  V30 20252 C 1894.44 -0.744277 -4.436 0
M  V30 20253 C 1895.76 1.32901 -4.19554 0
M  V30 20254 H 1892.87 0.0822009 -0.732402 0
M  V30 20255 H 1895.52 -0.485208 -1.837 0
M  V30 20256 H 1893.67 1.13609 -3.71517 0
M  V30 20257 H 1895.34 -1.38188 -4.40116 0
M  V30 20258 H 1893.58 -1.36555 -4.11747 0
M  V30 20259 H 1894.25 -0.491913 -5.49804 0
M  V30 20260 H 1896.73 0.813474 -4.08071 0
M  V30 20261 H 1895.6 1.50513 -5.27861 0
M  V30 20262 H 1895.87 2.33625 -3.75329 0
M  V30 20263 N 1894.92 1.57341 -0.0902386 0
M  V30 20264 C 1895.85 2.16782 0.86764 0
M  V30 20265 C 1896.84 1.09982 1.29761 0
M  V30 20266 O 1898.02 1.38099 1.36537 0
M  V30 20267 C 1895.15 2.74426 2.12856 0
M  V30 20268 C 1894.1 3.86555 1.83738 0
M  V30 20269 C 1893.43 4.3088 3.16617 0
M  V30 20270 C 1894.73 5.09971 1.12814 0
M  V30 20271 H 1896.42 2.97075 0.372417 0
M  V30 20272 H 1893.97 1.42899 0.177689 0
M  V30 20273 H 1895.92 3.14659 2.80299 0
M  V30 20274 H 1894.65 1.9138 2.64653 0
M  V30 20275 H 1893.31 3.46853 1.18694 0
M  V30 20276 H 1892.95 3.44732 3.66291 0
M  V30 20277 H 1892.65 5.06477 2.97918 0
M  V30 20278 H 1894.18 4.73743 3.85227 0
M  V30 20279 H 1895.59 5.47404 1.70358 0
M  V30 20280 H 1893.99 5.90965 1.04311 0
M  V30 20281 H 1895.06 4.84775 0.110114 0
M  V30 20282 N 1896.4 -0.183431 1.56529 0
M  V30 20283 C 1897.35 -1.24666 1.9637 0
M  V30 20284 C 1898.34 -1.46489 0.850728 0
M  V30 20285 O 1899.55 -1.47212 1.03579 0
M  V30 20286 H 1895.93 -0.418792 0.624594 0
M  V30 20287 H 1897.9 -0.883697 2.85015 0
M  V30 20288 C 1896.65 -2.58135 2.32942 0
M  V30 20289 H 1895.97 -2.42162 3.18116 0
M  V30 20290 H 1897.41 -3.31247 2.64672 0
M  V30 20291 C 1895.87 -3.15993 1.16832 0
M  V30 20292 O 1896.4 -3.99177 0.449531 0
M  V30 20293 N 1894.6 -2.74907 0.942059 0
M  V30 20294 H 1894.15 -2.07365 1.52832 0
M  V30 20295 H 1894.11 -3.13956 0.167 0
M  V30 20296 N 1897.88 -1.50992 -0.451564 0
M  V30 20297 C 1899.13 -1.62192 -1.19903 0
M  V30 20298 C 1899.44 -0.337085 -1.92674 0
M  V30 20299 O 1900.65 -0.328248 -2.69508 0
M  V30 20300 C 1899.1 -2.8638 -2.17978 0
M  V30 20301 C 1898.71 -4.21814 -1.50921 0
M  V30 20302 C 1900.46 -3.06932 -2.93246 0
M  V30 20303 C 1898.36 -5.37168 -2.47396 0
M  V30 20304 H 1897.29 -0.60406 -0.451251 0
M  V30 20305 H 1899.94 -1.77445 -0.467482 0
M  V30 20306 H 1898.33 -2.64728 -2.94508 0
M  V30 20307 H 1899.5 -4.53794 -0.800466 0
M  V30 20308 H 1897.82 -4.07025 -0.878604 0
M  V30 20309 H 1900.41 -3.90286 -3.65487 0
M  V30 20310 H 1900.76 -2.19437 -3.5377 0
M  V30 20311 H 1901.29 -3.28857 -2.23826 0
M  V30 20312 H 1898.03 -6.26878 -1.91582 0
M  V30 20313 H 1897.55 -5.09581 -3.16365 0
M  V30 20314 H 1899.23 -5.68539 -3.08824 0
M  V30 20315 N 1899.36 0.706069 -1.40899 0
M  V30 20316 C 1900.29 1.83275 -1.44681 0
M  V30 20317 C 1901.27 1.67313 -0.306629 0
M  V30 20318 O 1902.45 1.87203 -0.516597 0
M  V30 20319 C 1899.58 3.21319 -1.318 0
M  V30 20320 C 1898.54 3.51969 -2.4352 0
M  V30 20321 C 1897.86 4.89258 -2.1571 0
M  V30 20322 C 1899.16 3.52004 -3.85864 0
M  V30 20323 H 1900.86 1.80367 -2.38973 0
M  V30 20324 H 1898.4 0.866349 -1.15023 0
M  V30 20325 H 1900.36 3.99841 -1.3306 0
M  V30 20326 H 1899.08 3.24827 -0.339879 0
M  V30 20327 H 1897.74 2.75792 -2.41525 0
M  V30 20328 H 1897.39 4.89378 -1.16266 0
M  V30 20329 H 1897.09 5.1073 -2.90566 0
M  V30 20330 H 1898.61 5.70102 -2.18669 0
M  V30 20331 H 1900.03 4.20548 -3.8963 0
M  V30 20332 H 1898.42 3.85005 -4.60316 0
M  V30 20333 H 1899.49 2.51191 -4.14766 0
M  V30 20334 N 1900.84 1.26553 0.939264 0
M  V30 20335 C 1902.09 1.11599 1.68014 0
M  V30 20336 C 1902.4 -0.339956 1.92623 0
M  V30 20337 O 1903.6 -0.610203 2.64554 0
M  V30 20338 C 1902.06 1.94913 3.02551 0
M  V30 20339 C 1901.67 3.45094 2.85682 0
M  V30 20340 C 1903.41 1.88574 3.80316 0
M  V30 20341 C 1901.32 4.20648 4.15703 0
M  V30 20342 H 1900.25 0.414037 0.630151 0
M  V30 20343 H 1902.9 1.50878 1.04441 0
M  V30 20344 H 1901.28 1.48469 3.67115 0
M  V30 20345 H 1902.46 3.99321 2.29956 0
M  V30 20346 H 1900.77 3.5269 2.21357 0
M  V30 20347 H 1903.37 2.42307 4.76646 0
M  V30 20348 H 1903.71 0.856867 4.07386 0
M  V30 20349 H 1904.24 2.32852 3.22529 0
M  V30 20350 H 1900.98 5.24013 3.93816 0
M  V30 20351 H 1900.5 3.71202 4.71136 0
M  V30 20352 H 1902.18 4.29199 4.84146 0
M  V30 20353 N 1902.31 -1.14411 1.08387 0
M  V30 20354 C 1903.56 -1.85719 0.814638 0
M  V30 20355 C 1903.89 -1.82715 -0.657934 0
M  V30 20356 O 1903.17 -1.2577 -1.48365 0
M  V30 20357 C 1903.45 -3.34363 1.33691 0
M  V30 20358 C 1903.3 -3.4594 2.87481 0
M  V30 20359 C 1904.62 -4.29457 0.962006 0
M  V30 20360 H 1901.74 -0.674332 0.297399 0
M  V30 20361 H 1904.38 -1.34354 1.34346 0
M  V30 20362 H 1902.53 -3.78237 0.887082 0
M  V30 20363 H 1904.21 -3.10854 3.40833 0
M  V30 20364 H 1902.45 -2.87158 3.25151 0
M  V30 20365 H 1903.12 -4.50423 3.19097 0
M  V30 20366 H 1905.6 -3.93599 1.34979 0
M  V30 20367 H 1904.47 -5.31922 1.35464 0
M  V30 20368 H 1904.73 -4.41906 -0.130987 0
M  V30 20369 N 1903.79 -0.869509 -1.31443 0
M  V30 20370 C 1905.02 -0.49395 -2.00608 0
M  V30 20371 C 1905.43 0.917973 -1.65439 0
M  V30 20372 O 1904.77 1.61281 -0.879447 0
M  V30 20373 C 1904.84 -0.570703 -3.54941 0
M  V30 20374 C 1904.5 -1.94416 -4.13584 0
M  V30 20375 C 1905.5 -2.9116 -4.30722 0
M  V30 20376 C 1903.18 -2.24535 -4.49321 0
M  V30 20377 C 1905.18 -4.16167 -4.82788 0
M  V30 20378 C 1902.86 -3.49791 -5.01089 0
M  V30 20379 C 1903.86 -4.45422 -5.17773 0
M  V30 20380 O 1903.55 -5.68458 -5.68429 0
M  V30 20381 H 1903.28 -0.190986 -0.64846 0
M  V30 20382 H 1905.83 -1.17233 -1.68658 0
M  V30 20383 H 1904.06 0.164593 -3.8635 0
M  V30 20384 H 1905.75 -0.208637 -4.05363 0
M  V30 20385 H 1906.52 -2.69199 -4.03431 0
M  V30 20386 H 1902.4 -1.50876 -4.35612 0
M  V30 20387 H 1905.94 -4.90818 -4.95725 0
M  V30 20388 H 1901.84 -3.71595 -5.27814 0
M  V30 20389 H 1902.61 -5.70623 -5.86798 0
M  V30 20390 N 1905.27 1.44508 -0.628902 0
M  V30 20391 C 1906.2 2.27848 0.126632 0
M  V30 20392 C 1907.18 1.38406 0.85338 0
M  V30 20393 O 1908.37 1.67845 0.857923 0
M  V30 20394 C 1905.49 3.17283 1.18529 0
M  V30 20395 C 1904.54 4.22817 0.559317 0
M  V30 20396 S 1905.37 5.31554 -0.648926 0
M  V30 20397 C 1906.53 6.24557 0.409797 0
M  V30 20398 H 1906.76 2.9158 -0.580384 0
M  V30 20399 H 1904.29 1.48662 -0.417009 0
M  V30 20400 H 1906.25 3.69362 1.79115 0
M  V30 20401 H 1904.91 2.52776 1.86449 0
M  V30 20402 H 1904.11 4.854 1.35656 0
M  V30 20403 H 1903.71 3.73989 0.0281246 0
M  V30 20404 H 1906 6.65241 1.28298 0
M  V30 20405 H 1906.94 7.0787 -0.180404 0
M  V30 20406 H 1907.35 5.59699 0.734695 0
M  V30 20407 N 1906.75 0.369315 1.53212 0
M  V30 20408 C 1907.68 -0.467242 2.28777 0
M  V30 20409 C 1908.66 -1.08073 1.31355 0
M  V30 20410 O 1909.85 -1.09728 1.60229 0
M  V30 20411 C 1906.98 -1.60519 3.07979 0
M  V30 20412 C 1905.93 -1.11876 4.1312 0
M  V30 20413 C 1905.26 -2.34723 4.80426 0
M  V30 20414 C 1906.56 -0.200846 5.21914 0
M  V30 20415 H 1908.25 0.163201 2.98955 0
M  V30 20416 H 1905.8 0.0799312 1.43778 0
M  V30 20417 H 1907.75 -2.19708 3.59592 0
M  V30 20418 H 1906.47 -2.26292 2.35499 0
M  V30 20419 H 1905.13 -0.549521 3.62458 0
M  V30 20420 H 1904.78 -2.98961 4.04514 0
M  V30 20421 H 1904.48 -2.02846 5.51477 0
M  V30 20422 H 1906 -2.94592 5.34835 0
M  V30 20423 H 1907.42 -0.700331 5.69006 0
M  V30 20424 H 1905.81 0.0272222 6.00094 0
M  V30 20425 H 1906.88 0.755948 4.78971 0
M  V30 20426 N 1908.23 -1.57291 0.0985816 0
M  V30 20427 C 1909.47 -1.94478 -0.564304 0
M  V30 20428 C 1909.8 -0.980557 -1.67974 0
M  V30 20429 O 1909.06 -0.000761176 -1.957 0
M  V30 20430 C 1909.36 -3.38184 -1.15613 0
M  V30 20431 C 1909.02 -4.50601 -0.164125 0
M  V30 20432 C 1907.68 -4.81077 0.108706 0
M  V30 20433 C 1910.04 -5.18669 0.513033 0
M  V30 20434 C 1907.36 -5.76947 1.06533 0
M  V30 20435 C 1909.72 -6.15565 1.45815 0
M  V30 20436 C 1908.38 -6.44445 1.73918 0
M  V30 20437 H 1907.65 -0.711647 -0.206493 0
M  V30 20438 H 1910.3 -1.90697 0.175155 0
M  V30 20439 H 1908.6 -3.3856 -1.97191 0
M  V30 20440 H 1910.3 -3.6426 -1.67678 0
M  V30 20441 H 1906.89 -4.2685 -0.386958 0
M  V30 20442 H 1911.07 -4.95297 0.315398 0
M  V30 20443 H 1906.33 -5.97636 1.29002 0
M  V30 20444 H 1910.5 -6.67402 1.98865 0
M  V30 20445 H 1908.13 -7.1854 2.48201 0
M  V30 20446 N 1909.71 0.175127 -1.56624 0
M  V30 20447 C 1910.64 1.24553 -1.91211 0
M  V30 20448 C 1911.62 1.42971 -0.774469 0
M  V30 20449 O 1912.8 1.58039 -1.02741 0
M  V30 20450 C 1909.93 2.60909 -2.15972 0
M  V30 20451 C 1908.97 2.59248 -3.38663 0
M  V30 20452 S 1909.81 2.08707 -4.93155 0
M  V30 20453 C 1910.96 3.46847 -5.21006 0
M  V30 20454 H 1911.2 0.950294 -2.81703 0
M  V30 20455 H 1908.73 0.379524 -1.49663 0
M  V30 20456 H 1910.69 3.39391 -2.30919 0
M  V30 20457 H 1909.35 2.87635 -1.26195 0
M  V30 20458 H 1908.54 3.59558 -3.53177 0
M  V30 20459 H 1908.14 1.8886 -3.22812 0
M  V30 20460 H 1910.43 4.42824 -5.1275 0
M  V30 20461 H 1911.38 3.37211 -6.22651 0
M  V30 20462 H 1911.79 3.42683 -4.48585 0
M  V30 20463 N 1911.18 1.5123 0.44355 0
M  V30 20464 C 1912.43 1.6359 1.1935 0
M  V30 20465 C 1912.76 0.349172 1.9134 0
M  V30 20466 O 1912.01 -0.66645 1.84003 0
M  V30 20467 C 1912.31 2.78511 2.23978 0
M  V30 20468 C 1911.98 4.18013 1.69045 0
M  V30 20469 C 1910.64 4.55964 1.53786 0
M  V30 20470 C 1912.99 5.05088 1.28591 0
M  V30 20471 C 1910.32 5.78703 0.965374 0
M  V30 20472 C 1912.67 6.284 0.72774 0
M  V30 20473 C 1911.34 6.6513 0.562001 0
M  V30 20474 H 1910.61 0.59862 0.436733 0
M  V30 20475 H 1913.25 1.85245 0.485449 0
M  V30 20476 H 1911.56 2.51054 3.00798 0
M  V30 20477 H 1913.26 2.85275 2.81814 0
M  V30 20478 H 1909.85 3.88087 1.81896 0
M  V30 20479 H 1914.03 4.76378 1.39202 0
M  V30 20480 H 1909.29 6.05813 0.824671 0
M  V30 20481 H 1913.46 6.95217 0.405735 0
M  V30 20482 H 1911.09 7.60111 0.116266 0
M  V30 20483 N 1912.66 -0.698586 1.41271 0
M  V30 20484 C 1913.91 -1.45425 1.39766 0
M  V30 20485 C 1914.22 -1.95598 0.00891528 0
M  V30 20486 O 1915.43 -2.71195 -0.128757 0
M  V30 20487 C 1913.89 -2.62952 2.45732 0
M  V30 20488 C 1913.49 -2.19578 3.90499 0
M  V30 20489 C 1915.24 -3.40602 2.53359 0
M  V30 20490 C 1913.14 -3.34046 4.88024 0
M  V30 20491 H 1912.07 -0.546236 0.519752 0
M  V30 20492 H 1914.73 -0.758678 1.67082 0
M  V30 20493 H 1913.11 -3.34762 2.11542 0
M  V30 20494 H 1914.28 -1.55077 4.33921 0
M  V30 20495 H 1912.6 -1.5493 3.86504 0
M  V30 20496 H 1915.19 -4.25809 3.23405 0
M  V30 20497 H 1915.54 -3.85582 1.56946 0
M  V30 20498 H 1916.07 -2.75846 2.86625 0
M  V30 20499 H 1912.81 -2.94081 5.8583 0
M  V30 20500 H 1912.33 -3.97407 4.49253 0
M  V30 20501 H 1914.01 -3.99867 5.0864 0
M  V30 20502 N 1914.14 -1.27049 -0.93254 0
M  V30 20503 C 1915.39 -1.13103 -1.6797 0
M  V30 20504 C 1915.71 0.324047 -1.91782 0
M  V30 20505 O 1914.97 1.25381 -1.5026 0
M  V30 20506 C 1915.27 -1.8547 -3.05509 0
M  V30 20507 C 1914.93 -3.35342 -3.01424 0
M  V30 20508 C 1913.6 -3.76222 -3.00017 0
M  V30 20509 C 1915.95 -4.30993 -2.93078 0
M  V30 20510 C 1913.28 -5.11125 -2.88041 0
M  V30 20511 C 1915.63 -5.65946 -2.82644 0
M  V30 20512 C 1914.29 -6.06126 -2.79585 0
M  V30 20513 H 1913.56 -0.413872 -0.614647 0
M  V30 20514 H 1916.21 -1.57598 -1.08789 0
M  V30 20515 H 1914.51 -1.33469 -3.68366 0
M  V30 20516 H 1916.21 -1.72112 -3.62186 0
M  V30 20517 H 1912.8 -3.02828 -3.03303 0
M  V30 20518 H 1916.99 -4.00385 -2.93267 0
M  V30 20519 H 1912.24 -5.41408 -2.84056 0
M  V30 20520 H 1916.42 -6.39738 -2.75151 0
M  V30 20521 H 1914.04 -7.10613 -2.70061 0
M  V30 20522 N 1915.62 1.13835 -1.08993 0
M  V30 20523 C 1916.58 2.17299 -0.728968 0
M  V30 20524 C 1917.58 1.5901 0.23923 0
M  V30 20525 O 1918.77 1.74191 0.0179935 0
M  V30 20526 C 1915.9 3.40812 -0.0772774 0
M  V30 20527 H 1917.1 2.50745 -1.64521 0
M  V30 20528 H 1914.65 1.28586 -0.888552 0
M  V30 20529 H 1915.38 3.12952 0.850403 0
M  V30 20530 H 1915.17 3.84387 -0.773873 0
M  V30 20531 H 1916.66 4.17293 0.160024 0
M  V30 20532 N 1917.1 0.876467 1.3098 0
M  V30 20533 C 1918.34 0.491367 1.96757 0
M  V30 20534 C 1918.67 -0.955274 1.6908 0
M  V30 20535 O 1917.95 -1.6737 0.990843 0
M  V30 20536 C 1918.23 0.756745 3.52059 0
M  V30 20537 C 1918.09 2.25339 3.89284 0
M  V30 20538 C 1919.4 0.227549 4.39511 0
M  V30 20539 H 1916.52 0.179998 0.714681 0
M  V30 20540 H 1919.17 1.0989 1.54997 0
M  V30 20541 H 1917.32 0.239657 3.8776 0
M  V30 20542 H 1918.99 2.83824 3.63651 0
M  V30 20543 H 1917.23 2.72341 3.37658 0
M  V30 20544 H 1917.9 2.38971 4.97591 0
M  V30 20545 H 1920.38 0.670016 4.1067 0
M  V30 20546 H 1919.25 0.442629 5.47112 0
M  V30 20547 H 1919.51 -0.870833 4.33438 0
M  V30 20548 N 1918.57 -1.44173 0.636557 0
M  V30 20549 C 1919.82 -2.01209 0.140639 0
M  V30 20550 C 1920.14 -1.50704 -1.2469 0
M  V30 20551 O 1921.34 -1.99904 -1.83713 0
M  V30 20552 C 1919.8 -3.5934 0.20066 0
M  V30 20553 C 1919.41 -4.18841 1.58985 0
M  V30 20554 C 1921.15 -4.23829 -0.238514 0
M  V30 20555 C 1919.06 -5.69213 1.60469 0
M  V30 20556 H 1917.99 -0.752418 0.0488124 0
M  V30 20557 H 1920.64 -1.65329 0.796151 0
M  V30 20558 H 1919.02 -3.92544 -0.522054 0
M  V30 20559 H 1920.19 -3.97165 2.33658 0
M  V30 20560 H 1918.51 -3.66659 1.97357 0
M  V30 20561 H 1921.11 -5.34129 -0.247033 0
M  V30 20562 H 1921.45 -3.96556 -1.26685 0
M  V30 20563 H 1921.98 -3.95449 0.431887 0
M  V30 20564 H 1918.72 -6.01229 2.61158 0
M  V30 20565 H 1918.24 -5.92995 0.900975 0
M  V30 20566 H 1919.92 -6.3295 1.34104 0
M  V30 20567 N 1920.05 -0.377435 -1.53014 0
M  V30 20568 C 1921.01 0.451217 -2.24715 0
M  V30 20569 C 1922.01 1.00001 -1.25923 0
M  V30 20570 O 1923.2 0.883884 -1.5011 0
M  V30 20571 C 1920.34 1.63185 -2.99305 0
M  V30 20572 H 1921.53 -0.176358 -2.99381 0
M  V30 20573 H 1919.08 -0.12933 -1.55764 0
M  V30 20574 H 1919.82 2.29718 -2.2891 0
M  V30 20575 H 1919.6 1.24517 -3.71804 0
M  V30 20576 H 1921.09 2.2188 -3.53778 0
M  V30 20577 N 1921.53 1.57237 -0.106922 0
M  V30 20578 C 1922.78 1.95064 0.554803 0
M  V30 20579 C 1923.11 0.989597 1.67095 0
M  V30 20580 O 1922.38 0.0246857 1.94484 0
M  V30 20581 C 1922.67 3.42924 1.09887 0
M  V30 20582 C 1922.52 4.49798 -0.0130257 0
M  V30 20583 C 1923.84 3.92358 1.99356 0
M  V30 20584 H 1920.96 0.709287 0.200204 0
M  V30 20585 H 1923.6 1.89145 -0.180032 0
M  V30 20586 H 1921.75 3.48098 1.7251 0
M  V30 20587 H 1923.42 4.56729 -0.647804 0
M  V30 20588 H 1921.67 4.28472 -0.677825 0
M  V30 20589 H 1922.34 5.50485 0.40868 0
M  V30 20590 H 1924.81 3.89411 1.46622 0
M  V30 20591 H 1923.69 4.9636 2.34346 0
M  V30 20592 H 1923.95 3.32343 2.91549 0
M  V30 20593 N 1923.01 -0.166818 1.56715 0
M  V30 20594 C 1923.94 -1.23113 1.93328 0
M  V30 20595 C 1924.95 -1.40238 0.826866 0
M  V30 20596 O 1926.14 -1.40161 1.10531 0
M  V30 20597 C 1923.24 -2.59914 2.17481 0
M  V30 20598 C 1922.42 -2.64028 3.48723 0
M  V30 20599 C 1921.47 -3.82224 3.61651 0
M  V30 20600 O 1920.5 -3.68014 4.34229 0
M  V30 20601 N 1921.7 -4.98868 2.96835 0
M  V30 20602 H 1924.47 -0.920103 2.85227 0
M  V30 20603 H 1922.03 -0.356548 1.57925 0
M  V30 20604 H 1924.02 -3.37459 2.2339 0
M  V30 20605 H 1922.59 -2.83389 1.31945 0
M  V30 20606 H 1921.81 -1.72544 3.54432 0
M  V30 20607 H 1923.1 -2.63792 4.35076 0
M  V30 20608 H 1922.5 -5.13314 2.3775 0
M  V30 20609 H 1921.05 -5.74259 3.08333 0
M  V30 20610 N 1924.49 -1.51463 -0.435524 0
M  V30 20611 C 1925.42 -1.75856 -1.53613 0
M  V30 20612 C 1926.4 -0.608449 -1.58846 0
M  V30 20613 O 1927.58 -0.85135 -1.74544 0
M  V30 20614 C 1924.71 -1.88525 -2.91677 0
M  V30 20615 C 1923.67 -3.03972 -3.01305 0
M  V30 20616 C 1922.99 -3.01828 -4.41366 0
M  V30 20617 C 1924.29 -4.43905 -2.75219 0
M  V30 20618 H 1925.99 -2.68013 -1.33452 0
M  V30 20619 H 1923.53 -1.28968 -0.640564 0
M  V30 20620 H 1925.49 -2.04173 -3.68634 0
M  V30 20621 H 1924.21 -0.930179 -3.13074 0
M  V30 20622 H 1922.87 -2.88033 -2.26788 0
M  V30 20623 H 1922.52 -2.04095 -4.59733 0
M  V30 20624 H 1922.22 -3.79353 -4.48737 0
M  V30 20625 H 1923.74 -3.19572 -5.20294 0
M  V30 20626 H 1925.15 -4.60187 -3.41908 0
M  V30 20627 H 1923.55 -5.2315 -2.93998 0
M  V30 20628 H 1924.62 -4.53818 -1.70814 0
M  V30 20629 N 1925.96 0.691085 -1.4164 0
M  V30 20630 C 1927.21 1.45114 -1.41238 0
M  V30 20631 C 1927.54 1.94486 -0.0230695 0
M  V30 20632 O 1926.79 1.70206 0.96583 0
M  V30 20633 C 1927.09 2.67547 -2.36967 0
M  V30 20634 C 1926.76 2.36807 -3.8371 0
M  V30 20635 C 1925.42 2.28134 -4.23684 0
M  V30 20636 C 1927.77 2.11542 -4.7634 0
M  V30 20637 C 1925.1 1.92299 -5.54291 0
M  V30 20638 C 1927.45 1.77214 -6.07271 0
M  V30 20639 C 1926.12 1.6704 -6.46262 0
M  V30 20640 H 1925.39 0.531011 -0.516825 0
M  V30 20641 H 1928.03 0.789481 -1.74469 0
M  V30 20642 H 1926.34 3.38668 -1.97006 0
M  V30 20643 H 1928.04 3.25697 -2.33928 0
M  V30 20644 H 1924.63 2.44453 -3.52052 0
M  V30 20645 H 1928.81 2.17184 -4.46256 0
M  V30 20646 H 1924.07 1.82978 -5.83377 0
M  V30 20647 H 1928.24 1.56685 -6.78545 0
M  V30 20648 H 1925.87 1.3904 -7.47377 0
M  V30 20649 N 1927.44 1.27542 0.925789 0
M  V30 20650 C 1928.39 1.10432 2.02666 0
M  V30 20651 C 1929.36 0.004846 1.66099 0
M  V30 20652 O 1930.54 0.167531 1.90063 0
M  V30 20653 C 1927.68 0.759567 3.36637 0
M  V30 20654 C 1926.8 1.93687 3.86147 0
M  V30 20655 C 1925.93 1.53382 5.08574 0
M  V30 20656 C 1924.97 2.67849 5.50385 0
M  V30 20657 N 1924.11 2.2812 6.64007 0
M  V30 20658 H 1928.95 2.04632 2.16633 0
M  V30 20659 H 1926.49 1.01863 1.06124 0
M  V30 20660 H 1928.44 0.540492 4.13684 0
M  V30 20661 H 1927.07 -0.145477 3.22472 0
M  V30 20662 H 1926.13 2.26843 3.05363 0
M  V30 20663 H 1927.44 2.79548 4.13104 0
M  V30 20664 H 1926.59 1.2761 5.93128 0
M  V30 20665 H 1925.33 0.646332 4.83398 0
M  V30 20666 H 1924.34 2.94333 4.64379 0
M  V30 20667 H 1925.56 3.57222 5.77554 0
M  V30 20668 H 1923.51 1.41825 6.40485 0
M  V30 20669 H 1923.42 3.07519 6.90629 0
M  V30 20670 H 1924.69 2.056 7.51897 0
M  V30 20671 N 1928.92 -1.13255 1.09595 0
M  V30 20672 C 1930.17 -1.84206 0.831411 0
M  V30 20673 C 1930.49 -1.8403 -0.64483 0
M  V30 20674 O 1929.76 -1.29728 -1.46791 0
M  V30 20675 H 1928.34 -0.682085 0.304579 0
M  V30 20676 H 1931 -1.37183 1.38444 0
M  V30 20677 H 1930.1 -2.88667 1.18649 0
M  V30 20678 N 1930.4 -0.883401 -1.30514 0
M  V30 20679 C 1931.35 -0.347254 -2.28173 0
M  V30 20680 C 1932.32 0.561698 -1.56314 0
M  V30 20681 O 1933.5 0.490454 -1.84389 0
M  V30 20682 C 1930.64 0.433573 -3.42366 0
M  V30 20683 C 1929.75 -0.504417 -4.29045 0
M  V30 20684 C 1928.89 0.291853 -5.30398 0
M  V30 20685 C 1927.93 -0.641708 -6.08727 0
M  V30 20686 N 1927.06 0.119139 -7.01999 0
M  V30 20687 H 1931.9 -1.1852 -2.73417 0
M  V30 20688 H 1929.44 -0.595824 -1.34493 0
M  V30 20689 H 1931.4 0.902186 -4.07328 0
M  V30 20690 H 1930.03 1.23611 -2.98195 0
M  V30 20691 H 1929.08 -1.09152 -3.64404 0
M  V30 20692 H 1930.39 -1.21969 -4.83658 0
M  V30 20693 H 1929.55 0.822389 -6.011 0
M  V30 20694 H 1928.29 1.04035 -4.76475 0
M  V30 20695 H 1927.29 -1.18389 -5.36902 0
M  V30 20696 H 1928.52 -1.38927 -6.64738 0
M  V30 20697 H 1926.46 0.850204 -6.50467 0
M  V30 20698 H 1926.38 -0.536537 -7.54094 0
M  V30 20699 H 1927.65 0.63047 -7.76946 0
M  V30 20700 N 1931.88 1.43833 -0.644194 0
M  V30 20701 C 1933.12 2.01914 -0.153927 0
M  V30 20702 C 1933.45 1.50758 1.22891 0
M  V30 20703 O 1932.71 0.687354 1.83232 0
M  V30 20704 C 1933.01 3.57249 -0.103941 0
M  V30 20705 C 1932.67 4.27713 -1.42731 0
M  V30 20706 C 1931.33 4.46679 -1.78972 0
M  V30 20707 C 1933.69 4.67695 -2.30024 0
M  V30 20708 C 1931.01 5.0289 -3.0219 0
M  V30 20709 C 1933.37 5.2527 -3.52525 0
M  V30 20710 C 1932.03 5.42453 -3.88974 0
M  V30 20711 H 1931.3 0.738856 -0.0563257 0
M  V30 20712 H 1933.95 1.72428 -0.833108 0
M  V30 20713 H 1932.25 3.86224 0.65866 0
M  V30 20714 H 1933.95 3.99935 0.292124 0
M  V30 20715 H 1930.54 4.1329 -1.1353 0
M  V30 20716 H 1934.72 4.52743 -2.03317 0
M  V30 20717 H 1929.98 5.14379 -3.3049 0
M  V30 20718 H 1934.15 5.55198 -4.2039 0
M  V30 20719 H 1931.78 5.85775 -4.84532 0
M  V30 20720 N 1933.35 0.385544 1.52811 0
M  V30 20721 C 1934.6 -0.197845 2.01531 0
M  V30 20722 C 1934.93 -1.47128 1.27215 0
M  V30 20723 O 1934.18 -1.92363 0.359866 0
M  V30 20724 C 1934.48 -0.515911 3.53657 0
M  V30 20725 C 1934.15 0.665535 4.45961 0
M  V30 20726 C 1932.81 0.989658 4.70913 0
M  V30 20727 C 1935.16 1.4561 5.00447 0
M  V30 20728 C 1932.49 2.10596 5.476 0
M  V30 20729 C 1934.84 2.56298 5.78355 0
M  V30 20730 C 1933.51 2.89223 6.01587 0
M  V30 20731 H 1932.78 -0.0723965 0.737455 0
M  V30 20732 H 1935.42 0.522118 1.84245 0
M  V30 20733 H 1933.73 -1.31715 3.68996 0
M  V30 20734 H 1935.43 -0.979874 3.88844 0
M  V30 20735 H 1932.02 0.4029 4.26702 0
M  V30 20736 H 1936.2 1.21893 4.81098 0
M  V30 20737 H 1931.46 2.3648 5.63815 0
M  V30 20738 H 1935.63 3.1796 6.19576 0
M  V30 20739 H 1933.26 3.75842 6.60793 0
M  V30 20740 N 1934.83 -1.57178 0.115259 0
M  V30 20741 C 1936.06 -1.99126 -0.550671 0
M  V30 20742 C 1936.47 -0.993751 -1.61001 0
M  V30 20743 O 1935.81 0.0220518 -1.83687 0
M  V30 20744 C 1935.88 -3.37482 -1.2388 0
M  V30 20745 C 1935.54 -4.55823 -0.327848 0
M  V30 20746 C 1936.54 -5.18102 0.432054 0
M  V30 20747 C 1934.22 -5.01726 -0.240012 0
M  V30 20748 C 1936.22 -6.24669 1.26756 0
M  V30 20749 C 1933.9 -6.08156 0.599131 0
M  V30 20750 C 1934.9 -6.69494 1.35155 0
M  V30 20751 O 1934.59 -7.73868 2.17677 0
M  V30 20752 H 1934.32 -0.658991 -0.150689 0
M  V30 20753 H 1936.87 -2.0445 0.197288 0
M  V30 20754 H 1935.1 -3.28901 -2.03375 0
M  V30 20755 H 1936.79 -3.63744 -1.80126 0
M  V30 20756 H 1937.56 -4.83555 0.374044 0
M  V30 20757 H 1933.44 -4.53732 -0.81535 0
M  V30 20758 H 1936.98 -6.72475 1.85533 0
M  V30 20759 H 1932.88 -6.42132 0.658548 0
M  V30 20760 H 1933.65 -7.90948 2.10578 0
M  V30 20761 N 1936.31 0.158505 -1.56801 0
M  V30 20762 C 1937.55 0.879385 -1.84516 0
M  V30 20763 C 1937.92 1.78864 -0.697973 0
M  V30 20764 O 1939.12 2.5481 -0.855886 0
M  V30 20765 C 1937.39 1.64324 -3.17383 0
M  V30 20766 S 1938.95 2.41113 -3.6662 0
M  V30 20767 H 1935.76 0.29429 -0.647236 0
M  V30 20768 H 1938.37 0.14014 -1.94997 0
M  V30 20769 H 1937.07 0.966538 -3.98856 0
M  V30 20770 H 1936.6 2.42362 -3.09878 0
M  V30 20771 H 1938.62 3.66076 -3.34967 0
M  V30 20772 N 1937.79 1.51692 0.427485 0
M  V30 20773 C 1939.02 1.68669 1.19827 0
M  V30 20774 C 1939.43 0.388231 1.84765 0
M  V30 20775 O 1938.79 -0.634167 1.71127 0
M  V30 20776 C 1938.84 2.80936 2.27502 0
M  V30 20777 O 1938.56 4.05752 1.65218 0
M  V30 20778 C 1940.06 3.09267 3.17599 0
M  V30 20779 H 1937.28 0.565751 0.360786 0
M  V30 20780 H 1939.83 1.98158 0.505323 0
M  V30 20781 H 1937.98 2.54018 2.92496 0
M  V30 20782 H 1938.4 4.68175 2.36457 0
M  V30 20783 H 1939.87 3.91379 3.89264 0
M  V30 20784 H 1940.35 2.22071 3.78921 0
M  V30 20785 H 1940.95 3.37881 2.58295 0
M  V30 20786 N 1939.27 -0.683564 1.42004 0
M  V30 20787 C 1940.54 -1.43894 1.32491 0
M  V30 20788 C 1940.92 -2.11058 -0.0418701 0
M  V30 20789 O 1940.27 -2.0259 -1.05686 0
M  V30 20790 C 1940.48 -2.44856 2.48689 0
M  V30 20791 C 1941.83 -3.09758 2.90405 0
M  V30 20792 O 1942.85 -2.55182 2.48516 0
M  V30 20793 O 1941.71 -4.08633 3.6288 0
M  V30 20794 H 1938.81 -0.641404 0.522044 0
M  V30 20795 H 1941.35 -0.713027 1.53994 0
M  V30 20796 H 1940.13 -1.93964 3.39843 0
M  V30 20797 H 1939.75 -3.24941 2.29127 0
M  V30 20798 N 1940.75 -1.28031 -0.919012 0
M  V30 20799 C 1941.66 -1.13341 -2.05404 0
M  V30 20800 C 1942.67 -0.0612715 -1.73892 0
M  V30 20801 O 1943.85 -0.26951 -1.99589 0
M  V30 20802 C 1940.91 -0.791143 -3.37553 0
M  V30 20803 C 1939.97 -1.94509 -3.82707 0
M  V30 20804 C 1939.21 -1.61905 -5.08549 0
M  V30 20805 O 1939.43 -0.530962 -5.67923 0
M  V30 20806 O 1938.36 -2.46102 -5.49288 0
M  V30 20807 H 1942.19 -2.08613 -2.20713 0
M  V30 20808 H 1939.77 -1.073 -1.03957 0
M  V30 20809 H 1941.66 -0.613981 -4.16903 0
M  V30 20810 H 1940.33 0.131966 -3.23431 0
M  V30 20811 H 1939.24 -2.17737 -3.04206 0
M  V30 20812 H 1940.57 -2.84871 -4.01384 0
M  V30 20813 N 1942.22 1.12672 -1.10194 0
M  V30 20814 C 1943.45 1.88496 -0.865112 0
M  V30 20815 C 1943.87 1.78977 0.578691 0
M  V30 20816 O 1943.23 1.14292 1.40737 0
M  V30 20817 C 1943.28 3.35768 -1.315 0
M  V30 20818 O 1942.38 4.09615 -0.478447 0
M  V30 20819 H 1941.72 0.585782 -0.312658 0
M  V30 20820 H 1944.25 1.42506 -1.46811 0
M  V30 20821 H 1944.26 3.86605 -1.30385 0
M  V30 20822 H 1942.94 3.42013 -2.36643 0
M  V30 20823 H 1941.52 3.68753 -0.554589 0
M  V30 20824 N 1943.7 0.89031 1.30043 0
M  V30 20825 C 1944.65 0.35935 2.27985 0
M  V30 20826 C 1945.62 -0.5534 1.5661 0
M  V30 20827 O 1946.8 -0.480669 1.84646 0
M  V30 20828 C 1943.94 -0.41541 3.42591 0
M  V30 20829 C 1943.06 0.527163 4.28771 0
M  V30 20830 C 1942.19 -0.26372 5.30545 0
M  V30 20831 C 1941.23 0.673982 6.08378 0
M  V30 20832 N 1940.37 -0.081909 7.02052 0
M  V30 20833 H 1945.21 1.19969 2.72785 0
M  V30 20834 H 1942.74 0.602948 1.34175 0
M  V30 20835 H 1944.7 -0.880572 4.07801 0
M  V30 20836 H 1943.33 -1.22028 2.98846 0
M  V30 20837 H 1942.38 1.11083 3.6382 0
M  V30 20838 H 1943.7 1.24532 4.83004 0
M  V30 20839 H 1942.85 -0.7905 6.01528 0
M  V30 20840 H 1941.59 -1.01507 4.7702 0
M  V30 20841 H 1940.59 1.21234 5.36267 0
M  V30 20842 H 1941.82 1.42451 6.63991 0
M  V30 20843 H 1939.77 -0.815696 6.50909 0
M  V30 20844 H 1939.68 0.576521 7.53799 0
M  V30 20845 H 1940.95 -0.589258 7.7727 0
M  V30 20846 N 1945.18 -1.43489 0.651812 0
M  V30 20847 C 1946.09 -2.34564 -0.0413115 0
M  V30 20848 C 1947.11 -1.53803 -0.81368 0
M  V30 20849 O 1948.28 -1.86459 -0.761246 0
M  V30 20850 C 1945.35 -3.32063 -0.996745 0
M  V30 20851 C 1944.41 -4.28728 -0.221464 0
M  V30 20852 C 1943.64 -5.2157 -1.13139 0
M  V30 20853 O 1943.86 -5.18804 -2.37062 0
M  V30 20854 O 1942.8 -5.98856 -0.604552 0
M  V30 20855 H 1946.62 -2.95325 0.708295 0
M  V30 20856 H 1944.21 -1.43607 0.411999 0
M  V30 20857 H 1946.09 -3.92022 -1.54586 0
M  V30 20858 H 1944.77 -2.73807 -1.7266 0
M  V30 20859 H 1943.67 -3.72254 0.371205 0
M  V30 20860 H 1945.01 -4.89962 0.468797 0
M  V30 20861 N 1946.66 -0.393643 -1.52605 0
M  V30 20862 C 1947.59 0.430786 -2.29492 0
M  V30 20863 C 1948.57 1.0597 -1.33058 0
M  V30 20864 O 1949.75 1.07165 -1.61955 0
M  V30 20865 C 1946.88 1.55599 -3.10494 0
M  V30 20866 C 1945.84 1.05289 -4.14847 0
M  V30 20867 C 1945.16 2.2705 -4.841 0
M  V30 20868 C 1946.46 0.117789 -5.22167 0
M  V30 20869 H 1948.16 -0.210741 -2.98657 0
M  V30 20870 H 1945.7 -0.102795 -1.43633 0
M  V30 20871 H 1947.66 2.1396 -3.63042 0
M  V30 20872 H 1946.38 2.22517 -2.39069 0
M  V30 20873 H 1945.04 0.491788 -3.63286 0
M  V30 20874 H 1944.69 2.92487 -4.09219 0
M  V30 20875 H 1944.39 1.94047 -5.54635 0
M  V30 20876 H 1945.91 2.86045 -5.39454 0
M  V30 20877 H 1947.33 0.609718 -5.70049 0
M  V30 20878 H 1945.72 -0.122689 -5.99975 0
M  V30 20879 H 1946.79 -0.832053 -4.77708 0
M  V30 20880 N 1948.14 1.57115 -0.123593 0
M  V30 20881 C 1949.05 2.19104 0.838493 0
M  V30 20882 C 1950.06 1.1685 1.28927 0
M  V30 20883 O 1951.24 1.49337 1.35131 0
M  V30 20884 C 1948.3 2.78191 2.06908 0
M  V30 20885 C 1947.36 3.95495 1.66979 0
M  V30 20886 C 1946.6 4.51755 2.84171 0
M  V30 20887 O 1946.82 4.06908 3.99728 0
M  V30 20888 O 1945.75 5.42372 2.60991 0
M  V30 20889 H 1949.58 3.0178 0.340935 0
M  V30 20890 H 1947.16 1.4905 0.102255 0
M  V30 20891 H 1949.05 3.15837 2.78971 0
M  V30 20892 H 1947.72 1.98542 2.55661 0
M  V30 20893 H 1946.63 3.62609 0.920091 0
M  V30 20894 H 1947.96 4.76593 1.22963 0
M  V30 20895 N 1949.61 -0.150187 1.56883 0
M  V30 20896 C 1951.03 -0.502717 1.51476 0
M  V30 20897 C 1951.23 -1.83545 0.831478 0
M  V30 20898 O 1950.29 -2.49301 0.400671 0
M  V30 20899 C 1951.6 -0.515965 2.9624 0
M  V30 20900 C 1953.15 -0.601702 3.07162 0
M  V30 20901 C 1953.62 -0.645643 4.53426 0
M  V30 20902 N 1955.11 -0.707954 4.57758 0
M  V30 20903 C 1955.85 -0.762883 5.68302 0
M  V30 20904 N 1955.34 -0.777353 6.88425 0
M  V30 20905 N 1957.14 -0.803521 5.56327 0
M  V30 20906 H 1949.29 0.723442 1.997 0
M  V30 20907 H 1951.55 0.263405 0.910671 0
M  V30 20908 H 1951.26 0.395034 3.49474 0
M  V30 20909 H 1951.13 -1.35501 3.52022 0
M  V30 20910 H 1953.52 -1.50312 2.53949 0
M  V30 20911 H 1953.6 0.26443 2.5443 0
M  V30 20912 H 1953.24 0.251606 5.07276 0
M  V30 20913 H 1953.17 -1.52822 5.03937 0
M  V30 20914 H 1955.66 -0.7042 3.71281 0
M  V30 20915 H 1955.98 -0.821026 7.68426 0
M  V30 20916 H 1954.32 -0.745281 6.90992 0
M  V30 20917 H 1957.51 -0.789365 4.61396 0
M  V30 20918 H 1957.69 -0.842864 6.42495 0
M  V30 20919 N 1951.09 -1.51916 -0.419434 0
M  V30 20920 C 1952.37 -1.56023 -1.17967 0
M  V30 20921 C 1952.75 -0.335094 -2.08423 0
M  V30 20922 O 1952.1 0.678731 -2.18187 0
M  V30 20923 C 1952.31 -2.8836 -1.96595 0
M  V30 20924 C 1953.66 -3.40979 -2.53019 0
M  V30 20925 O 1954.68 -2.90031 -2.06786 0
M  V30 20926 O 1953.54 -4.2992 -3.37388 0
M  V30 20927 H 1950.63 -0.628035 -0.538053 0
M  V30 20928 H 1953.18 -1.64239 -0.42705 0
M  V30 20929 H 1951.95 -3.6898 -1.30267 0
M  V30 20930 H 1951.57 -2.83389 -2.78884 0
M  V30 20931 N 1952.57 0.676023 -1.42365 0
M  V30 20932 C 1953.81 1.44811 -1.44253 0
M  V30 20933 C 1954.17 1.91917 -0.0565699 0
M  V30 20934 O 1955.38 2.68754 0.0498119 0
M  V30 20935 C 1953.65 2.61392 -2.4374 0
M  V30 20936 S 1955.21 3.50257 -2.6432 0
M  V30 20937 H 1952.02 0.494609 -0.510767 0
M  V30 20938 H 1954.63 0.787035 -1.78958 0
M  V30 20939 H 1953.33 2.25022 -3.4321 0
M  V30 20940 H 1952.86 3.32373 -2.10456 0
M  V30 20941 H 1954.88 4.57326 -1.92529 0
M  V30 20942 N 1954.05 1.28517 0.912209 0
M  V30 20943 C 1955.46 1.06257 1.19087 0
M  V30 20944 C 1955.66 -0.194098 2.00563 0
M  V30 20945 O 1954.72 -0.895341 2.36093 0
M  V30 20946 C 1956.03 2.31094 1.92396 0
M  V30 20947 C 1957.58 2.36288 2.05273 0
M  V30 20948 C 1958.06 3.60896 2.8199 0
M  V30 20949 N 1959.55 3.61545 2.89551 0
M  V30 20950 C 1960.28 4.54639 3.49416 0
M  V30 20951 N 1959.78 5.58053 4.10547 0
M  V30 20952 N 1961.57 4.42231 3.46969 0
M  V30 20953 H 1953.72 2.09183 0.368283 0
M  V30 20954 H 1955.99 0.920767 0.225593 0
M  V30 20955 H 1955.69 3.22653 1.39956 0
M  V30 20956 H 1955.57 2.37627 2.92939 0
M  V30 20957 H 1957.95 1.45225 2.56893 0
M  V30 20958 H 1958.03 2.33748 1.03901 0
M  V30 20959 H 1957.68 4.52304 2.31049 0
M  V30 20960 H 1957.61 3.6069 3.8368 0
M  V30 20961 H 1960.1 2.86764 2.46119 0
M  V30 20962 H 1960.41 6.25229 4.54212 0
M  V30 20963 H 1958.76 5.61877 4.09047 0
M  V30 20964 H 1961.95 3.60641 2.98422 0
M  V30 20965 H 1962.12 5.1497 3.93332 0
M  V30 20966 N 1955.53 -1.12086 1.1079 0
M  V30 20967 C 1956.77 -1.83314 0.850901 0
M  V30 20968 C 1957.1 -1.84703 -0.625275 0
M  V30 20969 O 1956.37 -1.31277 -1.45406 0
M  V30 20970 H 1954.95 -0.678817 0.311797 0
M  V30 20971 H 1957.61 -1.35707 1.39891 0
M  V30 20972 H 1956.7 -2.87393 1.21704 0
M  V30 20973 N 1957 -0.897194 -1.29569 0
M  V30 20974 C 1957.94 -0.330353 -2.26807 0
M  V30 20975 C 1958.95 0.521937 -1.54207 0
M  V30 20976 O 1960.14 0.339502 -1.75242 0
M  V30 20977 C 1957.24 0.547835 -3.34443 0
M  V30 20978 C 1956.41 -0.278159 -4.36515 0
M  V30 20979 C 1955.47 0.532461 -5.23499 0
M  V30 20980 O 1954.5 -0.0491596 -5.69179 0
M  V30 20981 N 1955.7 1.83908 -5.50598 0
M  V30 20982 H 1958.46 -1.16608 -2.76084 0
M  V30 20983 H 1956.02 -0.761424 -1.42877 0
M  V30 20984 H 1958.02 1.09647 -3.89563 0
M  V30 20985 H 1956.59 1.28425 -2.85001 0
M  V30 20986 H 1955.81 -1.00822 -3.81089 0
M  V30 20987 H 1957.09 -0.843929 -5.01752 0
M  V30 20988 H 1956.49 2.33437 -5.1529 0
M  V30 20989 H 1955.05 2.33489 -6.08544 0
M  V30 20990 N 1958.48 1.43142 -0.659413 0
M  V30 20991 C 1959.71 2.05788 -0.183 0
M  V30 20992 C 1960.12 1.49547 1.15898 0
M  V30 20993 O 1959.46 0.623841 1.72783 0
M  V30 20994 C 1959.53 3.59492 -0.0240613 0
M  V30 20995 C 1959.19 4.38347 -1.29231 0
M  V30 20996 C 1960.19 4.70005 -2.22242 0
M  V30 20997 C 1957.87 4.78251 -1.53562 0
M  V30 20998 C 1959.87 5.40482 -3.37872 0
M  V30 20999 C 1957.55 5.48472 -2.69484 0
M  V30 21000 C 1958.55 5.79511 -3.61464 0
M  V30 21001 O 1958.24 6.48295 -4.75361 0
M  V30 21002 H 1957.97 0.669968 -0.0901075 0
M  V30 21003 H 1960.52 1.84531 -0.902089 0
M  V30 21004 H 1958.75 3.79348 0.75046 0
M  V30 21005 H 1960.44 4.03819 0.410502 0
M  V30 21006 H 1961.21 4.3969 -2.04689 0
M  V30 21007 H 1957.09 4.53495 -0.828469 0
M  V30 21008 H 1960.63 5.64627 -4.09686 0
M  V30 21009 H 1956.53 5.78203 -2.86969 0
M  V30 21010 H 1957.3 6.66781 -4.74706 0
M  V30 21011 N 1959.96 0.40173 1.52394 0
M  V30 21012 C 1960.89 -0.41861 2.29717 0
M  V30 21013 C 1961.87 -1.05263 1.33618 0
M  V30 21014 O 1963.06 -1.06304 1.62521 0
M  V30 21015 C 1960.19 -1.5395 3.11314 0
M  V30 21016 C 1959.14 -1.03088 4.154 0
M  V30 21017 C 1958.47 -2.2448 4.85297 0
M  V30 21018 C 1959.77 -0.0900956 5.22222 0
M  V30 21019 H 1961.46 0.226577 2.98541 0
M  V30 21020 H 1959.01 0.110411 1.43576 0
M  V30 21021 H 1960.96 -2.12031 3.64171 0
M  V30 21022 H 1959.68 -2.21246 2.40246 0
M  V30 21023 H 1958.34 -0.472515 3.63542 0
M  V30 21024 H 1957.99 -2.90313 4.10764 0
M  V30 21025 H 1957.69 -1.91103 5.55656 0
M  V30 21026 H 1959.21 -2.83181 5.40963 0
M  V30 21027 H 1960.63 -0.579479 5.70364 0
M  V30 21028 H 1959.03 0.154505 5.99901 0
M  V30 21029 H 1960.1 0.857375 4.7726 0
M  V30 21030 N 1961.44 -1.57047 0.131923 0
M  V30 21031 C 1962.72 -1.87196 -0.567179 0
M  V30 21032 C 1963.1 -1.03533 -1.83968 0
M  V30 21033 O 1962.44 -0.117858 -2.28196 0
M  V30 21034 C 1962.65 -3.38561 -0.847179 0
M  V30 21035 C 1964 -4.07449 -1.19459 0
M  V30 21036 O 1965.03 -3.43654 -0.937026 0
M  V30 21037 O 1963.88 -5.20083 -1.67856 0
M  V30 21038 H 1960.98 -0.775378 -0.287608 0
M  V30 21039 H 1963.52 -1.68872 0.167401 0
M  V30 21040 H 1962.3 -3.91263 0.05402 0
M  V30 21041 H 1961.92 -3.62361 -1.63647 0
M  V30 21042 N 1962.92 0.141865 -1.5696 0
M  V30 21043 C 1964.15 0.867144 -1.87521 0
M  V30 21044 C 1964.55 1.75017 -0.718719 0
M  V30 21045 O 1963.9 1.80883 0.320455 0
M  V30 21046 C 1963.96 1.77109 -3.12846 0
M  V30 21047 C 1963.62 1.06471 -4.44424 0
M  V30 21048 C 1964.62 0.416192 -5.18231 0
M  V30 21049 C 1962.31 1.05268 -4.91145 0
M  V30 21050 C 1964.3 -0.234905 -6.36967 0
M  V30 21051 C 1961.99 0.397777 -6.09804 0
M  V30 21052 C 1962.98 -0.244885 -6.82561 0
M  V30 21053 O 1962.67 -0.889395 -7.98965 0
M  V30 21054 H 1962.4 0.255843 -0.625716 0
M  V30 21055 H 1964.96 0.137798 -2.04937 0
M  V30 21056 H 1963.19 2.54151 -2.91452 0
M  V30 21057 H 1964.88 2.36878 -3.29612 0
M  V30 21058 H 1965.64 0.417253 -4.83202 0
M  V30 21059 H 1961.52 1.54232 -4.34435 0
M  V30 21060 H 1965.07 -0.737115 -6.93695 0
M  V30 21061 H 1960.96 0.3944 -6.44294 0
M  V30 21062 H 1961.73 -0.791577 -8.14663 0
M  V30 21063 N 1964.39 1.52136 0.411372 0
M  V30 21064 C 1965.3 1.78205 1.52579 0
M  V30 21065 C 1966.32 0.667501 1.60687 0
M  V30 21066 O 1967.5 0.952661 1.77444 0
M  V30 21067 C 1964.56 1.9252 2.88335 0
M  V30 21068 C 1963.62 3.16421 2.90131 0
M  V30 21069 C 1962.86 3.30044 4.19412 0
M  V30 21070 O 1963.08 2.48985 5.13189 0
M  V30 21071 O 1962.01 4.23182 4.2802 0
M  V30 21072 H 1965.84 2.72791 1.33487 0
M  V30 21073 H 1963.42 1.36953 0.597004 0
M  V30 21074 H 1965.31 2.03771 3.68857 0
M  V30 21075 H 1963.98 1.01123 3.07499 0
M  V30 21076 H 1962.89 3.1063 2.08471 0
M  V30 21077 H 1964.22 4.07592 2.75916 0
M  V30 21078 N 1965.87 -0.668464 1.42721 0
M  V30 21079 C 1966.82 -1.78184 1.46694 0
M  V30 21080 C 1967.79 -1.63023 0.318213 0
M  V30 21081 O 1968.98 -1.83486 0.523198 0
M  V30 21082 C 1966.12 -3.16254 1.3812 0
M  V30 21083 C 1965.23 -3.42657 2.63078 0
M  V30 21084 C 1964.36 -4.7049 2.46602 0
M  V30 21085 C 1963.4 -4.89948 3.66902 0
M  V30 21086 N 1962.54 -6.09027 3.49329 0
M  V30 21087 H 1967.38 -1.74123 2.41837 0
M  V30 21088 H 1964.92 -0.849937 1.2006 0
M  V30 21089 H 1966.87 -3.96051 1.31146 0
M  V30 21090 H 1965.5 -3.19423 0.46569 0
M  V30 21091 H 1964.56 -2.57068 2.80393 0
M  V30 21092 H 1965.87 -3.52926 3.52484 0
M  V30 21093 H 1965.02 -5.58388 2.37249 0
M  V30 21094 H 1963.76 -4.62515 1.54696 0
M  V30 21095 H 1962.77 -4.0049 3.7668 0
M  V30 21096 H 1963.99 -4.99764 4.59797 0
M  V30 21097 H 1961.94 -6.02213 2.60146 0
M  V30 21098 H 1961.85 -6.20186 4.32326 0
M  V30 21099 H 1963.12 -6.99587 3.438 0
M  V30 21100 N 1967.35 -1.28999 -0.905381 0
M  V30 21101 C 1968.26 -1.15513 -2.04191 0
M  V30 21102 C 1969.28 -0.0797116 -1.73817 0
M  V30 21103 O 1970.45 -0.290664 -1.99292 0
M  V30 21104 C 1967.52 -0.826901 -3.36695 0
M  V30 21105 C 1966.58 -1.98557 -3.80623 0
M  V30 21106 C 1965.81 -1.6729 -5.06803 0
M  V30 21107 O 1966.04 -0.591168 -5.67328 0
M  V30 21108 O 1964.97 -2.51914 -5.46647 0
M  V30 21109 H 1968.8 -2.10942 -2.18488 0
M  V30 21110 H 1966.38 -1.08397 -1.02813 0
M  V30 21111 H 1968.26 -0.658165 -4.16228 0
M  V30 21112 H 1966.94 0.0976541 -3.23553 0
M  V30 21113 H 1965.84 -2.20951 -3.0188 0
M  V30 21114 H 1967.18 -2.89112 -3.9834 0
M  V30 21115 N 1968.83 1.11497 -1.11383 0
M  V30 21116 C 1969.74 2.21101 -0.784315 0
M  V30 21117 C 1970.76 1.72574 0.222313 0
M  V30 21118 O 1971.93 2.01315 0.058632 0
M  V30 21119 C 1969 3.45925 -0.231713 0
M  V30 21120 C 1968.06 4.09243 -1.29687 0
M  V30 21121 C 1967.29 5.28108 -0.770542 0
M  V30 21122 O 1967.51 5.68998 0.399616 0
M  V30 21123 O 1966.45 5.81996 -1.53505 0
M  V30 21124 H 1970.27 2.51699 -1.69946 0
M  V30 21125 H 1967.86 1.20022 -0.889672 0
M  V30 21126 H 1969.74 4.21338 0.0721248 0
M  V30 21127 H 1968.42 3.1698 0.656146 0
M  V30 21128 H 1967.32 3.35564 -1.65371 0
M  V30 21129 H 1968.66 4.42365 -2.1581 0
M  V30 21130 N 1970.31 0.904053 1.29092 0
M  V30 21131 C 1971.55 0.532992 1.95671 0
M  V30 21132 C 1971.89 -0.919194 1.71069 0
M  V30 21133 O 1971.16 -1.6523 1.02612 0
M  V30 21134 C 1971.44 0.831252 3.50374 0
M  V30 21135 C 1971.3 2.33546 3.84417 0
M  V30 21136 C 1972.62 0.320724 4.3893 0
M  V30 21137 H 1969.74 0.195117 0.710703 0
M  V30 21138 H 1972.38 1.13153 1.52632 0
M  V30 21139 H 1970.53 0.321853 3.87165 0
M  V30 21140 H 1972.2 2.91473 3.57549 0
M  V30 21141 H 1970.44 2.79442 3.31805 0
M  V30 21142 H 1971.11 2.49471 4.9241 0
M  V30 21143 H 1973.59 0.756974 4.09157 0
M  V30 21144 H 1972.47 0.55858 5.4605 0
M  V30 21145 H 1972.73 -0.778699 4.35188 0
M  V30 21146 N 1971.79 -1.4279 0.666995 0
M  V30 21147 C 1972.7 -2.34594 -0.0164305 0
M  V30 21148 C 1973.71 -1.54657 -0.797322 0
M  V30 21149 O 1974.89 -1.87256 -0.741426 0
M  V30 21150 C 1971.95 -3.33102 -0.961469 0
M  V30 21151 C 1971.01 -4.28939 -0.17598 0
M  V30 21152 C 1970.25 -5.22741 -1.076 0
M  V30 21153 O 1970.47 -5.21289 -2.31546 0
M  V30 21154 O 1969.4 -5.99464 -0.541001 0
M  V30 21155 H 1973.23 -2.94557 0.739579 0
M  V30 21156 H 1970.81 -1.43162 0.427207 0
M  V30 21157 H 1972.7 -3.93639 -1.5042 0
M  V30 21158 H 1971.37 -2.75623 -1.69746 0
M  V30 21159 H 1970.28 -3.71839 0.410667 0
M  V30 21160 H 1971.61 -4.89438 0.520737 0
M  V30 21161 N 1973.26 -0.409806 -1.52179 0
M  V30 21162 C 1974.23 0.40345 -2.25621 0
M  V30 21163 C 1975.23 0.973072 -1.28015 0
M  V30 21164 O 1976.42 0.851845 -1.51951 0
M  V30 21165 C 1973.55 1.568 -3.02699 0
M  V30 21166 H 1974.74 -0.239822 -2.9894 0
M  V30 21167 H 1972.29 -0.162341 -1.55455 0
M  V30 21168 H 1973.03 2.24811 -2.33731 0
M  V30 21169 H 1972.81 1.16603 -3.74361 0
M  V30 21170 H 1974.3 2.14326 -3.58405 0
M  V30 21171 N 1974.74 1.56975 -0.14025 0
M  V30 21172 C 1975.67 2.13532 0.832862 0
M  V30 21173 C 1976.69 1.08312 1.21542 0
M  V30 21174 O 1977.88 1.35613 1.16067 0
M  V30 21175 C 1974.98 2.63756 2.12806 0
M  V30 21176 C 1974.15 3.93304 1.91392 0
M  V30 21177 C 1973.21 4.28907 3.04837 0
M  V30 21178 O 1972.23 4.97351 2.76822 0
M  V30 21179 N 1973.44 3.87941 4.31835 0
M  V30 21180 H 1976.2 2.97655 0.349525 0
M  V30 21181 H 1973.76 1.61841 0.0435313 0
M  V30 21182 H 1975.75 2.8459 2.87734 0
M  V30 21183 H 1974.32 1.84395 2.52423 0
M  V30 21184 H 1973.54 3.81164 1.00538 0
M  V30 21185 H 1974.83 4.77972 1.74414 0
M  V30 21186 H 1974.23 3.32779 4.57466 0
M  V30 21187 H 1972.79 4.13841 5.03566 0
M  V30 21188 N 1976.22 -0.133539 1.57033 0
M  V30 21189 C 1977.63 -0.692222 1.73393 0
M  V30 21190 C 1977.98 -1.81019 0.756735 0
M  V30 21191 O 1977.11 -2.16275 -0.0736448 0
M  V30 21192 C 1977.7 -1.26245 3.144 0
M  V30 21193 C 1976.26 -1.76756 3.32316 0
M  V30 21194 C 1975.41 -0.661397 2.69297 0
M  V30 21195 H 1978.36 0.0922563 1.58432 0
M  V30 21196 H 1978.38 -2.13221 3.15146 0
M  V30 21197 H 1977.89 -0.44855 3.85499 0
M  V30 21198 H 1975.99 -2.6067 2.66236 0
M  V30 21199 H 1976.11 -1.88702 4.40373 0
M  V30 21200 H 1974.47 -1.0914 2.30132 0
M  V30 21201 H 1975.25 0.141281 3.43009 0
M  V30 21202 N 1977.7 -1.52352 -0.403298 0
M  V30 21203 C 1979.11 -1.41285 -0.742343 0
M  V30 21204 C 1979.31 -0.521946 -1.94623 0
M  V30 21205 O 1978.37 0.0100547 -2.52498 0
M  V30 21206 C 1979.68 -2.83907 -0.990819 0
M  V30 21207 C 1981.23 -2.93289 -1.09318 0
M  V30 21208 C 1981.71 -4.36892 -1.37437 0
M  V30 21209 N 1983.2 -4.40153 -1.4429 0
M  V30 21210 C 1983.93 -5.48333 -1.67686 0
M  V30 21211 N 1983.43 -6.66622 -1.88647 0
M  V30 21212 N 1985.22 -5.35856 -1.69748 0
M  V30 21213 H 1977.37 -2.08806 0.389077 0
M  V30 21214 H 1979.63 -0.941383 0.111813 0
M  V30 21215 H 1979.34 -3.51247 -0.178511 0
M  V30 21216 H 1979.21 -3.25302 -1.9094 0
M  V30 21217 H 1981.6 -2.26127 -1.89607 0
M  V30 21218 H 1981.68 -2.55343 -0.152822 0
M  V30 21219 H 1981.33 -5.04616 -0.576634 0
M  V30 21220 H 1981.26 -4.72379 -2.32734 0
M  V30 21221 H 1983.75 -3.54888 -1.29857 0
M  V30 21222 H 1984.06 -7.44848 -2.05965 0
M  V30 21223 H 1982.41 -6.69676 -1.859 0
M  V30 21224 H 1985.6 -4.42419 -1.52914 0
M  V30 21225 H 1985.77 -6.20237 -1.87642 0
M  V30 21226 N 1979.18 0.660885 -1.43074 0
M  V30 21227 C 1980.11 1.78641 -1.43597 0
M  V30 21228 C 1981.12 1.59355 -0.333119 0
M  V30 21229 O 1982.31 1.68218 -0.597082 0
M  V30 21230 C 1979.41 3.15957 -1.22575 0
M  V30 21231 C 1978.58 3.61969 -2.45556 0
M  V30 21232 C 1977.64 4.78062 -2.19871 0
M  V30 21233 O 1976.67 4.87893 -2.93171 0
M  V30 21234 N 1977.87 5.67738 -1.21053 0
M  V30 21235 H 1980.63 1.78672 -2.40617 0
M  V30 21236 H 1978.2 0.844466 -1.38132 0
M  V30 21237 H 1980.19 3.91298 -1.03287 0
M  V30 21238 H 1978.76 3.10742 -0.34029 0
M  V30 21239 H 1977.98 2.77155 -2.80319 0
M  V30 21240 H 1979.27 3.89455 -3.27418 0
M  V30 21241 H 1978.66 5.6246 -0.604562 0
M  V30 21242 H 1977.22 6.42832 -1.0775 0
M  V30 21243 N 1980.65 1.29477 0.898527 0
M  V30 21244 C 1981.9 1.187 1.65172 0
M  V30 21245 C 1982.26 -0.258703 1.90653 0
M  V30 21246 O 1981.55 -1.1836 1.5067 0
M  V30 21247 C 1981.74 1.93505 3.00484 0
M  V30 21248 C 1981.57 3.45202 2.88211 0
M  V30 21249 C 1980.34 4.14554 2.88917 0
M  V30 21250 C 1982.54 4.40679 2.65155 0
M  V30 21251 N 1980.52 5.52607 2.67393 0
M  V30 21252 C 1981.89 5.662 2.52622 0
M  V30 21253 C 1983.95 4.30429 2.50271 0
M  V30 21254 C 1982.65 6.82634 2.26722 0
M  V30 21255 C 1984.68 5.46616 2.25754 0
M  V30 21256 C 1984.04 6.7111 2.13988 0
M  V30 21257 H 1980.14 0.48936 0.60996 0
M  V30 21258 H 1982.72 1.6332 1.05993 0
M  V30 21259 H 1980.89 1.51297 3.5772 0
M  V30 21260 H 1982.62 1.74984 3.64915 0
M  V30 21261 H 1979.38 3.66265 3.00244 0
M  V30 21262 H 1979.8 6.25216 2.59681 0
M  V30 21263 H 1984.45 3.34871 2.58111 0
M  V30 21264 H 1982.16 7.78246 2.17621 0
M  V30 21265 H 1985.75 5.40585 2.1508 0
M  V30 21266 H 1984.63 7.59497 1.9528 0
M  V30 21267 N 1982.13 -1.10905 1.11972 0
M  V30 21268 C 1983.08 -2.17107 0.783135 0
M  V30 21269 C 1984.05 -1.6424 -0.24791 0
M  V30 21270 O 1985.23 -1.90399 -0.123577 0
M  V30 21271 C 1982.37 -3.44274 0.238574 0
M  V30 21272 C 1981.49 -4.11119 1.32685 0
M  V30 21273 C 1980.62 -5.25989 0.742236 0
M  V30 21274 C 1979.66 -5.84728 1.80997 0
M  V30 21275 N 1978.8 -6.90983 1.24444 0
M  V30 21276 H 1983.64 -2.45243 1.69292 0
M  V30 21277 H 1981.18 -1.20386 0.845323 0
M  V30 21278 H 1983.13 -4.17091 -0.0951679 0
M  V30 21279 H 1981.76 -3.16505 -0.634384 0
M  V30 21280 H 1980.82 -3.3632 1.77745 0
M  V30 21281 H 1982.13 -4.50824 2.13445 0
M  V30 21282 H 1981.28 -6.05638 0.358877 0
M  V30 21283 H 1980.02 -4.87604 -0.096622 0
M  V30 21284 H 1979.03 -5.03753 2.20258 0
M  V30 21285 H 1980.25 -6.25178 2.65196 0
M  V30 21286 H 1978.2 -6.54607 0.427323 0
M  V30 21287 H 1978.11 -7.29374 1.98869 0
M  V30 21288 H 1979.38 -7.74424 0.888154 0
M  V30 21289 N 1983.61 -0.910886 -1.2861 0
M  V30 21290 C 1984.56 -0.395575 -2.27385 0
M  V30 21291 C 1985.53 0.528415 -1.57471 0
M  V30 21292 O 1986.71 0.451232 -1.85388 0
M  V30 21293 C 1983.85 0.360855 -3.43208 0
M  V30 21294 C 1982.97 -0.59531 -4.27879 0
M  V30 21295 C 1982.1 0.179282 -5.30897 0
M  V30 21296 C 1981.14 -0.770684 -6.07229 0
M  V30 21297 N 1980.28 -0.0297918 -7.02094 0
M  V30 21298 H 1985.12 -1.24293 -2.70842 0
M  V30 21299 H 1982.65 -0.624218 -1.33199 0
M  V30 21300 H 1984.61 0.815583 -4.0915 0
M  V30 21301 H 1983.24 1.17258 -3.0075 0
M  V30 21302 H 1982.29 -1.16857 -3.62006 0
M  V30 21303 H 1983.61 -1.32201 -4.80962 0
M  V30 21304 H 1982.76 0.694702 -6.0271 0
M  V30 21305 H 1981.5 0.93905 -4.78574 0
M  V30 21306 H 1980.5 -1.29751 -5.3427 0
M  V30 21307 H 1981.73 -1.52996 -6.61641 0
M  V30 21308 H 1979.67 0.712039 -6.52124 0
M  V30 21309 H 1979.59 -0.69637 -7.52786 0
M  V30 21310 H 1980.86 0.465527 -7.78109 0
M  V30 21311 N 1985.09 1.42434 -0.674558 0
M  V30 21312 C 1986.32 2.05582 -0.204816 0
M  V30 21313 C 1986.73 1.50768 1.14305 0
M  V30 21314 O 1986.07 0.642132 1.72111 0
M  V30 21315 C 1986.13 3.59446 -0.0621889 0
M  V30 21316 C 1985.8 4.36952 -1.33873 0
M  V30 21317 C 1986.79 4.67621 -2.27215 0
M  V30 21318 C 1984.48 4.76595 -1.58626 0
M  V30 21319 C 1986.47 5.36868 -3.43586 0
M  V30 21320 C 1984.16 5.45583 -2.75287 0
M  V30 21321 C 1985.16 5.75644 -3.6759 0
M  V30 21322 O 1984.84 6.43217 -4.8221 0
M  V30 21323 H 1984.58 0.668974 -0.0972083 0
M  V30 21324 H 1987.13 1.83563 -0.92161 0
M  V30 21325 H 1985.36 3.80123 0.710183 0
M  V30 21326 H 1987.05 4.04232 0.367648 0
M  V30 21327 H 1987.82 4.37494 -2.09341 0
M  V30 21328 H 1983.69 4.5259 -0.876522 0
M  V30 21329 H 1987.24 5.6025 -4.15651 0
M  V30 21330 H 1983.14 5.75127 -2.93086 0
M  V30 21331 H 1983.9 6.61708 -4.81752 0
M  V30 21332 N 1986.57 0.417871 1.51959 0
M  V30 21333 C 1987.84 -0.214034 1.94425 0
M  V30 21334 C 1988.22 -1.61845 1.35534 0
M  V30 21335 O 1987.57 -2.22158 0.534606 0
M  V30 21336 C 1987.78 -0.211518 3.48358 0
M  V30 21337 C 1989.13 -0.426614 4.22451 0
M  V30 21338 O 1990.15 -0.290493 3.55013 0
M  V30 21339 O 1989.01 -0.695682 5.42054 0
M  V30 21340 H 1986.11 -0.140439 0.814988 0
M  V30 21341 H 1988.65 0.474446 1.62933 0
M  V30 21342 H 1987.42 0.771087 3.83627 0
M  V30 21343 H 1987.05 -0.943731 3.86238 0
M  V30 21344 N 1988.04 -1.56898 0.148573 0
M  V30 21345 C 1989.29 -1.96175 -0.502146 0
M  V30 21346 C 1989.62 -1.0335 -1.6477 0
M  V30 21347 O 1988.87 -0.0630213 -1.95599 0
M  V30 21348 C 1989.17 -3.41691 -1.04795 0
M  V30 21349 C 1988.84 -4.50895 -0.0206862 0
M  V30 21350 C 1987.5 -4.80488 0.261702 0
M  V30 21351 C 1989.85 -5.16774 0.677784 0
M  V30 21352 C 1987.18 -5.73266 1.24834 0
M  V30 21353 C 1989.53 -6.10615 1.65325 0
M  V30 21354 C 1988.2 -6.38585 1.94332 0
M  V30 21355 H 1987.47 -0.717856 -0.183748 0
M  V30 21356 H 1990.11 -1.90044 0.235735 0
M  V30 21357 H 1988.42 -3.44662 -1.8632 0
M  V30 21358 H 1990.12 -3.6941 -1.56004 0
M  V30 21359 H 1986.71 -4.27865 -0.250964 0
M  V30 21360 H 1990.89 -4.94043 0.472813 0
M  V30 21361 H 1986.15 -5.93229 1.4795 0
M  V30 21362 H 1990.32 -6.60738 2.19997 0
M  V30 21363 H 1987.95 -7.1028 2.70935 0
M  V30 21364 N 1989.52 0.125209 -1.57102 0
M  V30 21365 C 1990.47 1.15956 -1.96312 0
M  V30 21366 C 1991.46 1.37401 -0.837249 0
M  V30 21367 O 1992.65 1.38597 -1.1009 0
M  V30 21368 C 1989.78 2.48774 -2.36573 0
M  V30 21369 C 1988.86 2.30829 -3.55779 0
M  V30 21370 N 1989.25 1.82684 -4.71657 0
M  V30 21371 C 1987.55 2.61507 -3.61289 0
M  V30 21372 C 1988.25 1.78301 -5.537 0
M  V30 21373 N 1987.23 2.22418 -4.96015 0
M  V30 21374 H 1991.03 0.779763 -2.83367 0
M  V30 21375 H 1988.55 0.333028 -1.58949 0
M  V30 21376 H 1990.54 3.23576 -2.62877 0
M  V30 21377 H 1989.2 2.87516 -1.50879 0
M  V30 21378 H 1990.21 1.52323 -4.94993 0
M  V30 21379 H 1986.89 3.03978 -2.86189 0
M  V30 21380 H 1988.28 1.42384 -6.5664 0
M  V30 21381 N 1991 1.52564 0.395213 0
M  V30 21382 C 1992.23 1.70924 1.16053 0
M  V30 21383 C 1992.64 0.424554 1.84375 0
M  V30 21384 O 1991.98 -0.610327 1.73265 0
M  V30 21385 C 1992.04 2.79882 2.25625 0
M  V30 21386 C 1991.71 4.21196 1.77322 0
M  V30 21387 C 1992.7 5.04566 1.25336 0
M  V30 21388 C 1990.39 4.6749 1.83733 0
M  V30 21389 C 1992.38 6.32309 0.804005 0
M  V30 21390 C 1990.07 5.95219 1.3841 0
M  V30 21391 C 1991.07 6.77458 0.868299 0
M  V30 21392 O 1990.76 8.02793 0.421654 0
M  V30 21393 H 1990.49 0.575785 0.354186 0
M  V30 21394 H 1993.04 1.99969 0.469216 0
M  V30 21395 H 1991.27 2.46245 2.98162 0
M  V30 21396 H 1992.96 2.86705 2.87324 0
M  V30 21397 H 1993.73 4.69985 1.19744 0
M  V30 21398 H 1989.61 4.03572 2.22823 0
M  V30 21399 H 1993.15 6.96448 0.400726 0
M  V30 21400 H 1989.05 6.29305 1.43685 0
M  V30 21401 H 1989.82 8.16692 0.543698 0
M  V30 21402 N 1992.48 -0.653289 1.43422 0
M  V30 21403 C 1993.76 -1.41051 1.35513 0
M  V30 21404 C 1994.14 -2.111 0.00290798 0
M  V30 21405 O 1993.48 -2.04786 -1.01365 0
M  V30 21406 C 1993.69 -2.39526 2.53827 0
M  V30 21407 C 1995.04 -3.03528 2.96911 0
M  V30 21408 O 1996.07 -2.49854 2.53873 0
M  V30 21409 O 1994.92 -4.00843 3.71466 0
M  V30 21410 H 1992.02 -0.630186 0.535532 0
M  V30 21411 H 1994.56 -0.680203 1.55471 0
M  V30 21412 H 1993.34 -1.86712 3.43881 0
M  V30 21413 H 1992.96 -3.20007 2.35968 0
M  V30 21414 N 1993.96 -1.29952 -0.891648 0
M  V30 21415 C 1994.9 -1.15662 -2.01805 0
M  V30 21416 C 1995.9 -0.0701689 -1.69255 0
M  V30 21417 O 1997.1 -0.230546 -1.78517 0
M  V30 21418 H 1993.48 -0.357511 -0.661581 0
M  V30 21419 H 1995.45 -2.11008 -2.10993 0
M  V30 21420 C 1994.2 -0.858316 -3.36939 0
M  V30 21421 H 1993.52 -1.68637 -3.62494 0
M  V30 21422 H 1994.96 -0.798404 -4.16415 0
M  V30 21423 C 1993.42 0.438629 -3.34032 0
M  V30 21424 O 1993.95 1.46221 -3.74142 0
M  V30 21425 N 1992.16 0.447383 -2.87136 0
M  V30 21426 H 1991.7 -0.386058 -2.54691 0
M  V30 21427 H 1991.66 1.31512 -2.85573 0
M  V30 21428 N 1995.44 1.1031 -1.12559 0
M  V30 21429 C 1996.68 1.82567 -0.883005 0
M  V30 21430 C 1997.01 1.85031 0.589667 0
M  V30 21431 O 1996.29 1.3119 1.43595 0
M  V30 21432 C 1996.57 3.29171 -1.46009 0
M  V30 21433 C 1996.43 3.35032 -3.00122 0
M  V30 21434 C 1997.74 4.25591 -1.12073 0
M  V30 21435 H 1994.86 0.662829 -0.322221 0
M  V30 21436 H 1997.51 1.29276 -1.3924 0
M  V30 21437 H 1995.66 3.74684 -1.02685 0
M  V30 21438 H 1997.33 2.9799 -3.52135 0
M  V30 21439 H 1995.57 2.74892 -3.35584 0
M  V30 21440 H 1996.24 4.3827 -3.35595 0
M  V30 21441 H 1998.72 3.88318 -1.49494 0
M  V30 21442 H 1997.59 5.26528 -1.55112 0
M  V30 21443 H 1997.85 4.42088 -0.0331138 0
M  V30 21444 N 1996.91 0.917694 1.28125 0
M  V30 21445 C 1997.84 0.426179 2.29578 0
M  V30 21446 C 1998.82 -0.508289 1.62328 0
M  V30 21447 O 2000.01 -0.415181 1.8971 0
M  V30 21448 C 1997.14 -0.331007 3.45719 0
M  V30 21449 C 1996.09 0.51469 4.24894 0
M  V30 21450 C 1995.42 -0.371069 5.33411 0
M  V30 21451 C 1996.72 1.774 4.9125 0
M  V30 21452 H 1998.41 1.27403 2.7094 0
M  V30 21453 H 1995.96 0.614065 1.30251 0
M  V30 21454 H 1997.91 -0.68573 4.15783 0
M  V30 21455 H 1996.64 -1.2128 3.03247 0
M  V30 21456 H 1995.3 0.851986 3.56562 0
M  V30 21457 H 1994.94 -1.25152 4.87182 0
M  V30 21458 H 1994.64 0.19121 5.87289 0
M  V30 21459 H 1996.17 -0.721587 6.06321 0
M  V30 21460 H 1997.58 1.48795 5.53654 0
M  V30 21461 H 1995.98 2.27899 5.55141 0
M  V30 21462 H 1997.05 2.49947 4.15517 0
M  V30 21463 N 1998.39 -1.42074 0.682102 0
M  V30 21464 C 1999.64 -2.02245 0.21642 0
M  V30 21465 C 1999.99 -1.53004 -1.16652 0
M  V30 21466 O 1999.29 -0.725603 -1.77329 0
M  V30 21467 C 1999.48 -3.56848 0.198622 0
M  V30 21468 C 1999.31 -4.21094 1.5783 0
M  V30 21469 C 1998.08 -4.55958 2.17785 0
M  V30 21470 C 2000.28 -4.48197 2.52237 0
M  V30 21471 N 1998.26 -5.05421 3.48457 0
M  V30 21472 C 1999.63 -4.9929 3.67572 0
M  V30 21473 C 2001.68 -4.30194 2.50675 0
M  V30 21474 C 2000.39 -5.34272 4.81607 0
M  V30 21475 C 2002.41 -4.66256 3.63812 0
M  V30 21476 C 2001.78 -5.17508 4.77875 0
M  V30 21477 H 1997.87 -0.772061 0.12428 0
M  V30 21478 H 2000.46 -1.72823 0.89667 0
M  V30 21479 H 1998.63 -3.85772 -0.451066 0
M  V30 21480 H 2000.36 -4.03726 -0.280625 0
M  V30 21481 H 1997.12 -4.4196 1.70202 0
M  V30 21482 H 1997.54 -5.34574 4.15402 0
M  V30 21483 H 2002.18 -3.89818 1.63712 0
M  V30 21484 H 1999.9 -5.73578 5.6924 0
M  V30 21485 H 2003.49 -4.53996 3.63839 0
M  V30 21486 H 2002.37 -5.44891 5.63971 0
M  V30 21487 N 1999.87 -0.425924 -1.51735 0
M  V30 21488 C 2000.83 0.379497 -2.26036 0
M  V30 21489 C 2001.83 0.95944 -1.2904 0
M  V30 21490 O 2003.02 0.83568 -1.52846 0
M  V30 21491 C 2000.15 1.5358 -3.04345 0
M  V30 21492 H 2001.35 -0.271515 -2.98668 0
M  V30 21493 H 1998.9 -0.17882 -1.55274 0
M  V30 21494 H 1999.64 2.2232 -2.36103 0
M  V30 21495 H 1999.42 1.12626 -3.75577 0
M  V30 21496 H 2000.91 2.10513 -3.60658 0
M  V30 21497 N 2001.35 1.56817 -0.156891 0
M  V30 21498 C 2002.28 2.20266 0.774915 0
M  V30 21499 C 2003.26 1.15387 1.24979 0
M  V30 21500 O 2004.44 1.43766 1.30557 0
M  V30 21501 C 2001.57 2.83207 2.01025 0
M  V30 21502 C 2000.53 3.94 1.67177 0
M  V30 21503 C 1999.85 4.43921 2.98057 0
M  V30 21504 C 2001.15 5.14297 0.91083 0
M  V30 21505 H 2002.85 2.98387 0.246082 0
M  V30 21506 H 2000.39 1.43525 0.116921 0
M  V30 21507 H 2002.35 3.26264 2.66701 0
M  V30 21508 H 2001.07 2.02433 2.56298 0
M  V30 21509 H 1999.73 3.51576 1.03876 0
M  V30 21510 H 1999.38 3.59957 3.5134 0
M  V30 21511 H 1999.08 5.18657 2.76169 0
M  V30 21512 H 2000.6 4.89656 3.64787 0
M  V30 21513 H 2002.02 5.54137 1.46988 0
M  V30 21514 H 2000.41 5.94857 0.791526 0
M  V30 21515 H 2001.48 4.84806 -0.0955943 0
M  V30 21516 N 2002.83 -0.116876 1.57166 0
M  V30 21517 C 2003.76 -1.14443 2.03531 0
M  V30 21518 C 2004.74 -1.43063 0.920159 0
M  V30 21519 O 2005.92 -1.53468 1.19001 0
M  V30 21520 C 2003.05 -2.47006 2.44142 0
M  V30 21521 C 2002.01 -2.32843 3.59121 0
M  V30 21522 C 2001.33 -3.70388 3.85639 0
M  V30 21523 C 2002.63 -1.78717 4.90772 0
M  V30 21524 H 2004.33 -0.75878 2.89625 0
M  V30 21525 H 2001.87 -0.363551 1.39335 0
M  V30 21526 H 2003.82 -3.19143 2.75184 0
M  V30 21527 H 2002.55 -2.87465 1.55021 0
M  V30 21528 H 2001.21 -1.63155 3.28293 0
M  V30 21529 H 2000.86 -4.08335 2.9372 0
M  V30 21530 H 2000.56 -3.61764 4.63034 0
M  V30 21531 H 2002.08 -4.44026 4.19134 0
M  V30 21532 H 2003.49 -2.40673 5.20336 0
M  V30 21533 H 2001.89 -1.80909 5.72182 0
M  V30 21534 H 2002.96 -0.744891 4.79144 0
M  V30 21535 N 2004.3 -1.52772 -0.387116 0
M  V30 21536 C 2005.53 -1.71787 -1.15312 0
M  V30 21537 C 2005.95 -0.437082 -1.83671 0
M  V30 21538 O 2005.3 0.588573 -1.72749 0
M  V30 21539 C 2005.35 -2.86869 -2.19974 0
M  V30 21540 O 2005.08 -4.0999 -1.54402 0
M  V30 21541 C 2006.58 -3.17579 -3.09287 0
M  V30 21542 H 2003.8 -0.575118 -0.345659 0
M  V30 21543 H 2006.34 -1.99428 -0.452607 0
M  V30 21544 H 2004.5 -2.61684 -2.85658 0
M  V30 21545 H 2004.91 -4.7428 -2.23961 0
M  V30 21546 H 2006.38 -4.01562 -3.7875 0
M  V30 21547 H 2006.86 -2.3204 -3.729 0
M  V30 21548 H 2007.47 -3.44611 -2.49246 0
M  V30 21549 N 2005.78 0.645673 -1.43767 0
M  V30 21550 C 2006.71 1.76974 -1.52324 0
M  V30 21551 C 2007.69 1.65862 -0.377316 0
M  V30 21552 O 2008.88 1.84843 -0.595532 0
M  V30 21553 C 2006.01 3.1544 -1.4531 0
M  V30 21554 C 2004.96 3.41324 -2.58229 0
M  V30 21555 C 2004.29 4.79669 -2.36267 0
M  V30 21556 C 2005.59 3.35321 -4.00446 0
M  V30 21557 H 2007.28 1.70069 -2.46408 0
M  V30 21558 H 2004.83 0.816784 -1.18594 0
M  V30 21559 H 2006.78 3.93838 -1.49899 0
M  V30 21560 H 2005.5 3.23093 -0.477344 0
M  V30 21561 H 2004.16 2.653 -2.53005 0
M  V30 21562 H 2003.81 4.84007 -1.36918 0
M  V30 21563 H 2003.51 4.97947 -3.11966 0
M  V30 21564 H 2005.04 5.60315 -2.42652 0
M  V30 21565 H 2006.45 4.03644 -4.07117 0
M  V30 21566 H 2004.85 3.65135 -4.76231 0
M  V30 21567 H 2005.92 2.33373 -4.25047 0
M  V30 21568 N 2007.26 1.30423 0.884744 0
M  V30 21569 C 2008.51 1.19259 1.63657 0
M  V30 21570 C 2008.83 -0.252645 1.92852 0
M  V30 21571 O 2008.09 -1.19718 1.5481 0
M  V30 21572 C 2008.39 1.96681 2.98415 0
M  V30 21573 C 2008.05 3.46298 2.8877 0
M  V30 21574 C 2006.72 3.87098 2.85847 0
M  V30 21575 C 2009.07 4.41573 2.7688 0
M  V30 21576 C 2006.4 5.21464 2.68873 0
M  V30 21577 C 2008.75 5.76047 2.61444 0
M  V30 21578 C 2007.41 6.16085 2.56896 0
M  V30 21579 H 2006.68 0.436399 0.598863 0
M  V30 21580 H 2009.33 1.61527 1.02865 0
M  V30 21581 H 2007.63 1.47049 3.63158 0
M  V30 21582 H 2009.33 1.85436 3.55548 0
M  V30 21583 H 2005.92 3.13877 2.91855 0
M  V30 21584 H 2010.11 4.10994 2.78205 0
M  V30 21585 H 2005.36 5.51577 2.63766 0
M  V30 21586 H 2009.54 6.49509 2.51218 0
M  V30 21587 H 2007.16 7.20147 2.43501 0
M  V30 21588 N 2008.74 -1.09711 1.13142 0
M  V30 21589 C 2009.97 -1.85595 0.914436 0
M  V30 21590 C 2010.38 -1.81013 -0.536632 0
M  V30 21591 O 2009.74 -1.20419 -1.37134 0
M  V30 21592 C 2009.79 -3.33692 1.39039 0
M  V30 21593 O 2009.51 -3.38219 2.78459 0
M  V30 21594 C 2011.01 -4.26427 1.21142 0
M  V30 21595 H 2008.23 -0.586333 0.326274 0
M  V30 21596 H 2010.77 -1.38646 1.50325 0
M  V30 21597 H 2008.93 -3.7808 0.844641 0
M  V30 21598 H 2009.34 -4.30567 2.9952 0
M  V30 21599 H 2010.82 -5.28508 1.59323 0
M  V30 21600 H 2011.29 -4.38934 0.152782 0
M  V30 21601 H 2011.9 -3.87851 1.74505 0
M  V30 21602 N 2010.22 -0.924476 -1.27637 0
M  V30 21603 C 2011.46 -0.564054 -1.94798 0
M  V30 21604 C 2011.8 0.891863 -1.72509 0
M  V30 21605 O 2011.07 1.63577 -1.05228 0
M  V30 21606 C 2011.35 -0.886888 -3.49008 0
M  V30 21607 C 2011.21 -2.39632 -3.80653 0
M  V30 21608 C 2012.53 -0.390514 -4.38364 0
M  V30 21609 H 2009.64 -0.206399 -0.707509 0
M  V30 21610 H 2012.29 -1.15567 -1.50812 0
M  V30 21611 H 2010.44 -0.383406 -3.86603 0
M  V30 21612 H 2012.11 -2.97125 -3.52866 0
M  V30 21613 H 2010.35 -2.84685 -3.27318 0
M  V30 21614 H 2011.02 -2.57274 -4.88379 0
M  V30 21615 H 2013.5 -0.821972 -4.07901 0
M  V30 21616 H 2012.37 -0.645381 -5.45093 0
M  V30 21617 H 2012.64 0.709365 -4.36372 0
M  V30 21618 N 2011.69 1.41711 -0.689627 0
M  V30 21619 C 2012.92 2.06171 -0.225425 0
M  V30 21620 C 2013.34 1.51535 1.11439 0
M  V30 21621 O 2012.7 0.639865 1.69633 0
M  V30 21622 C 2012.75 3.60114 -0.187089 0
M  V30 21623 O 2011.85 4.03757 0.83989 0
M  V30 21624 H 2011.2 0.654551 -0.111621 0
M  V30 21625 H 2013.73 1.81582 -0.942814 0
M  V30 21626 H 2013.74 4.07997 -0.0159369 0
M  V30 21627 H 2012.41 3.99251 -1.16497 0
M  V30 21628 H 2010.99 3.67392 0.638575 0
M  V30 21629 N 2013.17 0.433965 1.51507 0
M  V30 21630 C 2014.4 -0.132403 2.06476 0
M  V30 21631 C 2014.82 -1.3675 1.30172 0
M  V30 21632 O 2014.17 -1.78907 0.360351 0
M  V30 21633 C 2014.22 -0.458007 3.58587 0
M  V30 21634 O 2013.94 0.728069 4.32008 0
M  V30 21635 C 2015.45 -1.07541 4.30058 0
M  V30 21636 H 2012.67 -0.00941889 0.670934 0
M  V30 21637 H 2015.21 0.612075 1.95125 0
M  V30 21638 H 2013.36 -1.15238 3.69863 0
M  V30 21639 H 2013.78 0.450318 5.22563 0
M  V30 21640 H 2015.25 -1.25326 5.37585 0
M  V30 21641 H 2015.73 -2.0555 3.88131 0
M  V30 21642 H 2016.34 -0.420519 4.23216 0
M  V30 21643 N 2014.65 -1.56732 0.165206 0
M  V30 21644 C 2015.9 -1.96308 -0.48036 0
M  V30 21645 C 2016.22 -1.05198 -1.6419 0
M  V30 21646 O 2015.49 -0.117108 -1.9555 0
M  V30 21647 H 2014.07 -0.724877 -0.180451 0
M  V30 21648 H 2016.73 -1.93354 0.244961 0
M  V30 21649 H 2015.83 -3.00459 -0.844437 0
M  V30 21650 N 2016.13 0.10854 -1.57226 0
M  V30 21651 C 2017.04 1.15125 -2.0441 0
M  V30 21652 C 2018.05 1.44693 -0.966436 0
M  V30 21653 O 2019.23 1.55601 -1.27868 0
M  V30 21654 C 2016.3 2.45528 -2.44779 0
M  V30 21655 C 2015.36 2.23263 -3.66677 0
M  V30 21656 C 2014.59 3.47448 -4.05112 0
M  V30 21657 O 2014.81 4.55164 -3.43776 0
M  V30 21658 O 2013.75 3.37831 -4.9815 0
M  V30 21659 H 2017.57 0.780533 -2.93498 0
M  V30 21660 H 2015.16 0.320091 -1.45931 0
M  V30 21661 H 2017.04 3.22339 -2.71432 0
M  V30 21662 H 2015.71 2.82052 -1.58834 0
M  V30 21663 H 2014.62 1.44276 -3.4516 0
M  V30 21664 H 2015.95 1.91638 -4.53361 0
M  V30 21665 N 2017.61 1.52975 0.379009 0
M  V30 21666 C 2018.85 1.68172 1.12082 0
M  V30 21667 C 2019.18 0.429215 1.90218 0
M  V30 21668 O 2018.45 -0.556561 1.87828 0
M  V30 21669 H 2017.03 0.619935 0.416761 0
M  V30 21670 H 2019.69 1.90123 0.428883 0
M  V30 21671 H 2018.78 2.53672 1.81815 0
M  V30 21672 N 2019.08 -0.63804 1.44107 0
M  V30 21673 C 2020.33 -1.39804 1.47738 0
M  V30 21674 C 2020.69 -1.92109 0.105736 0
M  V30 21675 O 2019.98 -1.70299 -0.877991 0
M  V30 21676 C 2020.17 -2.58567 2.46734 0
M  V30 21677 C 2020 -2.17888 3.93389 0
M  V30 21678 C 2018.77 -2.05493 4.61628 0
M  V30 21679 C 2020.97 -1.77228 4.82799 0
M  V30 21680 N 2018.95 -1.58304 5.93138 0
M  V30 21681 C 2020.32 -1.41233 6.037 0
M  V30 21682 C 2022.38 -1.64546 4.69924 0
M  V30 21683 C 2021.08 -0.938251 7.13154 0
M  V30 21684 C 2023.11 -1.18543 5.79397 0
M  V30 21685 C 2022.47 -0.834946 6.99434 0
M  V30 21686 H 2018.57 -0.506651 0.595675 0
M  V30 21687 H 2021.15 -0.732679 1.80388 0
M  V30 21688 H 2019.32 -3.22741 2.16085 0
M  V30 21689 H 2021.05 -3.25336 2.40705 0
M  V30 21690 H 2017.81 -2.2573 4.16345 0
M  V30 21691 H 2018.23 -1.37028 6.62988 0
M  V30 21692 H 2022.88 -1.90278 3.77564 0
M  V30 21693 H 2020.59 -0.668441 8.05331 0
M  V30 21694 H 2024.18 -1.09199 5.7146 0
M  V30 21695 H 2023.06 -0.484423 7.82702 0
M  V30 21696 N 2020.56 -1.3089 -0.877815 0
M  V30 21697 C 2021.97 -1.18126 -1.44579 0
M  V30 21698 C 2022.32 0.215306 -1.95015 0
M  V30 21699 O 2021.45 1.11252 -1.85613 0
M  V30 21700 C 2022.04 -2.13835 -2.62793 0
M  V30 21701 C 2020.6 -2.05028 -3.15659 0
M  V30 21702 C 2019.75 -2.03509 -1.88359 0
M  V30 21703 H 2022.7 -1.43056 -0.687082 0
M  V30 21704 H 2022.72 -1.72337 -3.39235 0
M  V30 21705 H 2022.23 -3.1547 -2.26054 0
M  V30 21706 H 2020.34 -1.0656 -3.57037 0
M  V30 21707 H 2020.45 -2.9376 -3.78473 0
M  V30 21708 H 2018.81 -1.48412 -2.06992 0
M  V30 21709 H 2019.6 -3.06887 -1.53869 0
M  V30 21710 N 2022.04 1.0911 -1.13723 0
M  V30 21711 C 2022.97 2.15129 -0.761226 0
M  V30 21712 C 2023.95 1.60603 0.254079 0
M  V30 21713 O 2025.14 1.87943 0.14482 0
M  V30 21714 C 2022.26 3.38454 -0.129002 0
M  V30 21715 C 2021.31 4.11713 -1.11332 0
M  V30 21716 S 2022.14 4.65488 -2.64729 0
M  V30 21717 C 2023.3 5.92108 -2.02876 0
M  V30 21718 H 2023.53 2.46691 -1.65924 0
M  V30 21719 H 2021.06 1.21109 -0.957709 0
M  V30 21720 H 2023.02 4.09859 0.229363 0
M  V30 21721 H 2021.68 3.05104 0.746329 0
M  V30 21722 H 2020.88 5.00186 -0.618842 0
M  V30 21723 H 2020.48 3.46186 -1.41532 0
M  V30 21724 H 2022.77 6.633 -1.37981 0
M  V30 21725 H 2023.71 6.46241 -2.89444 0
M  V30 21726 H 2024.12 5.4478 -1.479 0
M  V30 21727 N 2023.52 0.931232 1.27145 0
M  V30 21728 C 2024.76 0.574376 1.94496 0
M  V30 21729 C 2025.1 -0.882702 1.7298 0
M  V30 21730 O 2024.37 -1.63016 1.06094 0
M  V30 21731 C 2024.66 0.905384 3.48532 0
M  V30 21732 C 2024.51 2.41647 3.79377 0
M  V30 21733 C 2025.83 0.413756 4.38151 0
M  V30 21734 H 2022.95 0.210149 0.706404 0
M  V30 21735 H 2025.59 1.16365 1.50197 0
M  V30 21736 H 2023.74 0.403903 3.86395 0
M  V30 21737 H 2025.41 2.98992 3.51286 0
M  V30 21738 H 2023.65 2.86417 3.25803 0
M  V30 21739 H 2024.32 2.5986 4.87008 0
M  V30 21740 H 2026.8 0.843592 4.07459 0
M  V30 21741 H 2025.68 0.67428 5.44743 0
M  V30 21742 H 2025.94 -0.686214 4.36742 0
M  V30 21743 N 2025 -1.41343 0.697132 0
M  V30 21744 C 2025.93 -2.33452 0.0471857 0
M  V30 21745 C 2026.91 -1.51902 -0.765488 0
M  V30 21746 O 2028.09 -1.80434 -0.718146 0
M  V30 21747 C 2025.22 -3.35735 -0.888781 0
M  V30 21748 C 2024.18 -4.27608 -0.183088 0
M  V30 21749 C 2023.5 -5.20277 -1.23352 0
M  V30 21750 C 2024.8 -5.13559 0.951558 0
M  V30 21751 H 2026.5 -2.88052 0.816496 0
M  V30 21752 H 2024.04 -1.38502 0.394089 0
M  V30 21753 H 2026 -3.99098 -1.35272 0
M  V30 21754 H 2024.72 -2.79489 -1.68977 0
M  V30 21755 H 2023.38 -3.65671 0.260833 0
M  V30 21756 H 2023.03 -4.60346 -2.02708 0
M  V30 21757 H 2022.73 -5.82581 -0.766336 0
M  V30 21758 H 2024.25 -5.86517 -1.69793 0
M  V30 21759 H 2025.67 -5.70481 0.567835 0
M  V30 21760 H 2024.06 -5.84812 1.34593 0
M  V30 21761 H 2025.13 -4.50631 1.79053 0
M  V30 21762 N 2026.48 -0.441993 -1.51275 0
M  V30 21763 C 2027.42 0.367101 -2.27862 0
M  V30 21764 C 2028.39 1.01278 -1.31651 0
M  V30 21765 O 2029.58 1.0308 -1.60559 0
M  V30 21766 C 2026.72 1.45971 -3.12708 0
M  V30 21767 C 2025.83 0.831707 -4.23918 0
M  V30 21768 C 2024.97 1.89976 -4.96067 0
M  V30 21769 C 2024 1.25043 -5.99192 0
M  V30 21770 N 2023.14 2.26005 -6.6473 0
M  V30 21771 H 2027.98 -0.292361 -2.96562 0
M  V30 21772 H 2025.52 -0.156023 -1.4627 0
M  V30 21773 H 2027.48 2.10453 -3.6023 0
M  V30 21774 H 2026.11 2.08874 -2.46113 0
M  V30 21775 H 2025.16 0.0750644 -3.80326 0
M  V30 21776 H 2026.47 0.317691 -4.97787 0
M  V30 21777 H 2025.62 2.62108 -5.4716 0
M  V30 21778 H 2024.36 2.44751 -4.21839 0
M  V30 21779 H 2023.37 0.514597 -5.47386 0
M  V30 21780 H 2024.59 0.709951 -6.75379 0
M  V30 21781 H 2022.54 2.79852 -5.93312 0
M  V30 21782 H 2022.46 1.79508 -7.34379 0
M  V30 21783 H 2023.72 2.97607 -7.20452 0
M  V30 21784 N 2027.95 1.56642 -0.173515 0
M  V30 21785 C 2028.9 2.14667 0.768251 0
M  V30 21786 C 2029.89 1.0815 1.19132 0
M  V30 21787 O 2031.08 1.34267 1.15331 0
M  V30 21788 C 2028.21 2.79269 1.99659 0
M  V30 21789 C 2027.29 3.92947 1.59541 0
M  V30 21790 N 2027.69 4.97657 0.903929 0
M  V30 21791 C 2025.98 4.04148 1.88627 0
M  V30 21792 C 2026.68 5.77399 0.706055 0
M  V30 21793 N 2025.66 5.29076 1.24817 0
M  V30 21794 H 2029.46 2.92991 0.230996 0
M  V30 21795 H 2026.98 1.62377 0.0270838 0
M  V30 21796 H 2028.97 3.19217 2.68153 0
M  V30 21797 H 2027.63 2.02427 2.53877 0
M  V30 21798 H 2028.64 5.14845 0.561736 0
M  V30 21799 H 2025.32 3.38411 2.44508 0
M  V30 21800 H 2026.71 6.71712 0.159077 0
M  V30 21801 N 2029.43 -0.1002 1.57281 0
M  V30 21802 C 2030.66 -0.82219 1.90407 0
M  V30 21803 C 2031.08 -1.71739 0.767297 0
M  V30 21804 O 2030.44 -1.79103 -0.281369 0
M  V30 21805 C 2030.49 -1.61579 3.22373 0
M  V30 21806 O 2029.59 -2.72433 3.09603 0
M  V30 21807 H 2028.93 -0.2262 0.624283 0
M  V30 21808 H 2031.46 -0.0769557 2.04455 0
M  V30 21809 H 2031.47 -2.00109 3.55556 0
M  V30 21810 H 2030.15 -0.958772 4.04698 0
M  V30 21811 H 2028.72 -2.36968 2.87925 0
M  V30 21812 N 2030.91 -1.53174 -0.370891 0
M  V30 21813 C 2032.16 -1.69349 -1.11574 0
M  V30 21814 C 2032.49 -0.441278 -1.8912 0
M  V30 21815 O 2031.76 0.561336 -1.86224 0
M  V30 21816 C 2032.05 -2.94003 -2.07929 0
M  V30 21817 C 2031.9 -4.29368 -1.34027 0
M  V30 21818 C 2033.22 -3.14243 -3.08123 0
M  V30 21819 H 2030.34 -0.616245 -0.404242 0
M  V30 21820 H 2032.98 -1.85803 -0.397124 0
M  V30 21821 H 2031.13 -2.80105 -2.69209 0
M  V30 21822 H 2032.8 -4.55068 -0.755718 0
M  V30 21823 H 2031.04 -4.29021 -0.642108 0
M  V30 21824 H 2031.72 -5.12712 -2.04525 0
M  V30 21825 H 2034.19 -3.27291 -2.56943 0
M  V30 21826 H 2033.07 -4.02907 -3.7277 0
M  V30 21827 H 2033.33 -2.2928 -3.77999 0
M  V30 21828 N 2032.39 0.630389 -1.44443 0
M  V30 21829 C 2033.66 1.38877 -1.3774 0
M  V30 21830 C 2034.04 2.11068 -0.0364918 0
M  V30 21831 O 2033.39 2.06373 0.98094 0
M  V30 21832 C 2033.6 2.35458 -2.57606 0
M  V30 21833 C 2034.95 2.98766 -3.01702 0
M  V30 21834 O 2035.97 2.45783 -2.57816 0
M  V30 21835 O 2034.83 3.94883 -3.77796 0
M  V30 21836 H 2031.93 0.621587 -0.54549 0
M  V30 21837 H 2034.47 0.655382 -1.56534 0
M  V30 21838 H 2033.25 1.81218 -3.46808 0
M  V30 21839 H 2032.87 3.16213 -2.41029 0
M  V30 21840 N 2033.87 1.31354 0.870861 0
M  V30 21841 C 2034.83 1.18889 1.95954 0
M  V30 21842 C 2035.83 0.116227 1.60379 0
M  V30 21843 O 2037.02 0.365426 1.70324 0
M  V30 21844 C 2034.15 0.824704 3.30774 0
M  V30 21845 H 2035.34 2.15624 2.08438 0
M  V30 21846 H 2032.9 1.14952 1.05904 0
M  V30 21847 H 2033.63 -0.141533 3.23991 0
M  V30 21848 H 2033.42 1.60006 3.57967 0
M  V30 21849 H 2034.91 0.761361 4.10601 0
M  V30 21850 N 2035.34 -1.08505 1.143 0
M  V30 21851 C 2036.57 -1.84615 0.934069 0
M  V30 21852 C 2036.99 -1.81572 -0.517403 0
M  V30 21853 O 2036.34 -1.21866 -1.35849 0
M  V30 21854 C 2036.39 -3.32199 1.42571 0
M  V30 21855 O 2036.12 -3.35247 2.82031 0
M  V30 21856 C 2037.62 -4.25118 1.25658 0
M  V30 21857 H 2034.84 -0.582839 0.332474 0
M  V30 21858 H 2037.38 -1.37043 1.51787 0
M  V30 21859 H 2035.54 -3.77163 0.884694 0
M  V30 21860 H 2035.95 -4.27366 3.0407 0
M  V30 21861 H 2037.42 -5.26788 1.64919 0
M  V30 21862 H 2037.9 -4.38747 0.199328 0
M  V30 21863 H 2038.51 -3.85978 1.78609 0
M  V30 21864 N 2036.82 -0.937962 -1.26649 0
M  V30 21865 C 2038.05 -0.599594 -1.97708 0
M  V30 21866 C 2038.46 0.828987 -1.70072 0
M  V30 21867 O 2037.8 1.56392 -0.963702 0
M  V30 21868 C 2037.86 -0.758048 -3.51417 0
M  V30 21869 C 2037.53 -2.16066 -4.02697 0
M  V30 21870 C 2038.53 -3.13583 -4.14683 0
M  V30 21871 C 2036.21 -2.48037 -4.36787 0
M  V30 21872 C 2038.2 -4.41173 -4.60049 0
M  V30 21873 C 2035.89 -3.7586 -4.81842 0
M  V30 21874 C 2036.89 -4.72242 -4.93434 0
M  V30 21875 O 2036.58 -5.9779 -5.37497 0
M  V30 21876 H 2036.31 -0.225091 -0.637425 0
M  V30 21877 H 2038.86 -1.26008 -1.62207 0
M  V30 21878 H 2037.09 -0.0404339 -3.86679 0
M  V30 21879 H 2038.78 -0.423218 -4.03688 0
M  V30 21880 H 2039.55 -2.90206 -3.88594 0
M  V30 21881 H 2035.43 -1.73755 -4.27001 0
M  V30 21882 H 2038.97 -5.16405 -4.69011 0
M  V30 21883 H 2034.87 -3.99051 -5.07374 0
M  V30 21884 H 2035.64 -6.00925 -5.55726 0
M  V30 21885 N 2038.3 1.40971 -0.704618 0
M  V30 21886 C 2039.21 2.34555 -0.0457738 0
M  V30 21887 C 2040.23 1.56717 0.756037 0
M  V30 21888 O 2041.4 1.89156 0.691518 0
M  V30 21889 C 2038.47 3.35534 0.872815 0
M  V30 21890 C 2037.53 4.29255 0.062192 0
M  V30 21891 C 2036.76 5.2541 0.937031 0
M  V30 21892 O 2036.98 5.27245 2.17644 0
M  V30 21893 O 2035.92 6.00687 0.381874 0
M  V30 21894 H 2039.74 2.92493 -0.817415 0
M  V30 21895 H 2037.33 1.41979 -0.465014 0
M  V30 21896 H 2039.21 3.97489 1.3993 0
M  V30 21897 H 2037.89 2.80026 1.62379 0
M  V30 21898 H 2036.79 3.7062 -0.509109 0
M  V30 21899 H 2038.13 4.87885 -0.65032 0
M  V30 21900 N 2039.78 0.45001 1.51039 0
M  V30 21901 C 2040.69 -0.360857 2.31808 0
M  V30 21902 C 2041.7 -1.01585 1.41267 0
M  V30 21903 O 2042.88 -1.00845 1.74334 0
M  V30 21904 C 2039.95 -1.44034 3.15365 0
M  V30 21905 C 2039.01 -0.804156 4.21701 0
M  V30 21906 C 2038.24 -1.83221 5.01264 0
M  V30 21907 O 2038.46 -3.05609 4.81622 0
M  V30 21908 O 2037.4 -1.41571 5.85014 0
M  V30 21909 H 2041.22 0.298869 3.02226 0
M  V30 21910 H 2038.81 0.212277 1.47884 0
M  V30 21911 H 2040.69 -2.06611 3.67273 0
M  V30 21912 H 2039.36 -2.08392 2.47698 0
M  V30 21913 H 2038.27 -0.139997 3.73838 0
M  V30 21914 H 2039.6 -0.203865 4.91778 0
M  V30 21915 N 2041.26 -1.56548 0.18182 0
M  V30 21916 C 2042.19 -2.15665 -0.775955 0
M  V30 21917 C 2043.2 -1.11496 -1.18627 0
M  V30 21918 O 2044.39 -1.38642 -1.1243 0
M  V30 21919 C 2041.49 -2.69305 -2.05738 0
M  V30 21920 C 2040.66 -3.9824 -1.80897 0
M  V30 21921 C 2039.72 -4.36838 -2.93358 0
M  V30 21922 O 2038.75 -5.04516 -2.63539 0
M  V30 21923 N 2039.95 -3.99254 -4.21398 0
M  V30 21924 H 2042.72 -2.98477 -0.270484 0
M  V30 21925 H 2040.28 -1.619 -0.000606634 0
M  V30 21926 H 2042.27 -2.92119 -2.80087 0
M  V30 21927 H 2040.84 -1.91023 -2.47445 0
M  V30 21928 H 2040.06 -3.83695 -0.903963 0
M  V30 21929 H 2041.35 -4.82428 -1.6168 0
M  V30 21930 H 2040.74 -3.44791 -4.48482 0
M  V30 21931 H 2039.3 -4.27047 -4.92417 0
M  V30 21932 N 2042.73 0.0918577 -1.57332 0
M  V30 21933 C 2043.98 0.793187 -1.85884 0
M  V30 21934 C 2044.3 1.79111 -0.770985 0
M  V30 21935 O 2043.57 1.94851 0.202438 0
M  V30 21936 H 2042.15 0.295923 -0.685885 0
M  V30 21937 H 2044.82 0.0727166 -1.94764 0
M  V30 21938 H 2043.91 1.32178 -2.82728 0
M  V30 21939 N 2044.21 1.53368 0.362763 0
M  V30 21940 C 2045.62 1.61344 0.939417 0
M  V30 21941 C 2045.97 0.48262 1.90172 0
M  V30 21942 O 2045.1 -0.39054 2.12847 0
M  V30 21943 C 2045.69 2.92445 1.71059 0
M  V30 21944 C 2044.25 3.02747 2.23654 0
M  V30 21945 C 2043.4 2.5666 1.0498 0
M  V30 21946 H 2046.35 1.58068 0.141471 0
M  V30 21947 H 2046.37 2.80406 2.57201 0
M  V30 21948 H 2045.88 3.74728 1.00996 0
M  V30 21949 H 2043.99 2.25057 2.96951 0
M  V30 21950 H 2044.1 4.07877 2.51343 0
M  V30 21951 H 2042.46 2.11603 1.41761 0
M  V30 21952 H 2043.25 3.41364 0.364111 0
M  V30 21953 N 2045.69 -0.62272 1.44776 0
M  V30 21954 C 2046.92 -1.41403 1.51723 0
M  V30 21955 C 2047.34 -1.87534 0.145802 0
M  V30 21956 O 2046.7 -1.59244 -0.866667 0
M  V30 21957 C 2046.75 -2.60482 2.49362 0
M  V30 21958 O 2045.85 -3.60604 2.00096 0
M  V30 21959 H 2045.19 -0.422766 0.51202 0
M  V30 21960 H 2047.72 -0.759294 1.89989 0
M  V30 21961 H 2047.73 -3.0792 2.67674 0
M  V30 21962 H 2046.41 -2.26253 3.48974 0
M  V30 21963 H 2044.98 -3.19918 1.9159 0
M  V30 21964 N 2047.17 -1.31814 -0.863883 0
M  V30 21965 C 2048.58 -1.19653 -1.43318 0
M  V30 21966 C 2048.93 0.19461 -1.95232 0
M  V30 21967 O 2048.06 1.09277 -1.86782 0
M  V30 21968 C 2048.65 -2.1661 -2.6051 0
M  V30 21969 C 2047.21 -2.08364 -3.13466 0
M  V30 21970 C 2046.36 -2.05496 -1.8619 0
M  V30 21971 H 2049.31 -1.43776 -0.67187 0
M  V30 21972 H 2049.33 -1.75925 -3.37388 0
M  V30 21973 H 2048.84 -3.1785 -2.22695 0
M  V30 21974 H 2046.94 -1.10341 -3.55887 0
M  V30 21975 H 2047.05 -2.97757 -3.75336 0
M  V30 21976 H 2045.42 -1.50599 -2.05407 0
M  V30 21977 H 2046.2 -3.08501 -1.50605 0
M  V30 21978 N 2048.65 1.07897 -1.14873 0
M  V30 21979 C 2049.89 1.8003 -0.918351 0
M  V30 21980 C 2050.22 1.86897 0.556293 0
M  V30 21981 O 2049.49 1.36584 1.40434 0
M  V30 21982 H 2048.07 0.666777 -0.336776 0
M  V30 21983 H 2050.73 1.30421 -1.44832 0
M  V30 21984 H 2049.82 2.82678 -1.32287 0
M  V30 21985 N 2050.12 0.944665 1.2615 0
M  V30 21986 C 2051.35 0.61007 1.97387 0
M  V30 21987 C 2051.76 -0.819956 1.70509 0
M  V30 21988 O 2051.11 -1.55879 0.971982 0
M  V30 21989 C 2051.17 0.776673 3.5101 0
M  V30 21990 C 2050.83 2.18198 4.01545 0
M  V30 21991 C 2051.83 3.15777 4.13014 0
M  V30 21992 C 2049.51 2.5035 4.35466 0
M  V30 21993 C 2051.51 4.43607 4.57703 0
M  V30 21994 C 2049.19 3.7841 4.79842 0
M  V30 21995 C 2050.19 4.74852 4.90922 0
M  V30 21996 O 2049.88 6.00632 5.34319 0
M  V30 21997 H 2049.61 0.228468 0.636222 0
M  V30 21998 H 2052.17 1.26867 1.61536 0
M  V30 21999 H 2050.4 0.0609398 3.86652 0
M  V30 22000 H 2052.09 0.44462 4.03457 0
M  V30 22001 H 2052.85 2.92263 3.8705 0
M  V30 22002 H 2048.73 1.76017 4.26074 0
M  V30 22003 H 2052.27 5.18885 4.66266 0
M  V30 22004 H 2048.17 4.01736 5.05251 0
M  V30 22005 H 2048.94 6.03864 5.52531 0
M  V30 22006 N 2051.6 -1.40596 0.712085 0
M  V30 22007 C 2053.02 -1.5488 0.385286 0
M  V30 22008 C 2053.22 -1.68416 -1.10626 0
M  V30 22009 O 2052.27 -1.67179 -1.89228 0
M  V30 22010 C 2053.59 -2.77912 1.14828 0
M  V30 22011 C 2055.14 -2.91726 1.13424 0
M  V30 22012 C 2055.61 -4.17667 1.87931 0
M  V30 22013 N 2057.1 -4.2466 1.84982 0
M  V30 22014 C 2057.84 -5.21006 2.39459 0
M  V30 22015 N 2057.33 -6.23282 3.02476 0
M  V30 22016 N 2059.13 -5.1306 2.29621 0
M  V30 22017 H 2051.28 -1.30055 1.67927 0
M  V30 22018 H 2053.54 -0.628638 0.70959 0
M  V30 22019 H 2053.25 -2.74175 2.20275 0
M  V30 22020 H 2053.12 -3.69918 0.737606 0
M  V30 22021 H 2055.51 -2.94969 0.0879737 0
M  V30 22022 H 2055.59 -2.00848 1.5841 0
M  V30 22023 H 2055.23 -4.15186 2.92546 0
M  V30 22024 H 2055.16 -5.07548 1.40367 0
M  V30 22025 H 2057.65 -3.51387 1.39053 0
M  V30 22026 H 2057.97 -6.93217 3.4157 0
M  V30 22027 H 2056.31 -6.23736 3.06559 0
M  V30 22028 H 2059.5 -4.32088 1.80049 0
M  V30 22029 H 2059.67 -5.87975 2.72378 0
M  V30 22030 N 2053.08 -0.458013 -1.50798 0
M  V30 22031 C 2054.01 0.38861 -2.24867 0
M  V30 22032 C 2054.99 1.00734 -1.27638 0
M  V30 22033 O 2056.18 1.04581 -1.56828 0
M  V30 22034 C 2053.3 1.54336 -3.01493 0
M  V30 22035 C 2052.35 1.0433 -4.13543 0
M  V30 22036 S 2053.18 -0.0314457 -5.35491 0
M  V30 22037 C 2054.34 1.12749 -6.15661 0
M  V30 22038 H 2054.57 -0.240171 -2.96328 0
M  V30 22039 H 2052.1 -0.242743 -1.5248 0
M  V30 22040 H 2054.06 2.20525 -3.46235 0
M  V30 22041 H 2052.72 2.14362 -2.29582 0
M  V30 22042 H 2051.92 1.90742 -4.66512 0
M  V30 22043 H 2051.52 0.459335 -3.71169 0
M  V30 22044 H 2053.81 2.04177 -6.46001 0
M  V30 22045 H 2054.75 0.637331 -7.05226 0
M  V30 22046 H 2055.16 1.37541 -5.47488 0
M  V30 22047 N 2054.56 1.56449 -0.190119 0
M  V30 22048 C 2055.47 2.22463 0.744809 0
M  V30 22049 C 2056.49 1.22213 1.23855 0
M  V30 22050 O 2057.66 1.54934 1.28675 0
M  V30 22051 C 2054.73 2.86716 1.94923 0
M  V30 22052 C 2053.79 4.02222 1.50054 0
M  V30 22053 C 2053.02 4.63401 2.64755 0
M  V30 22054 O 2053.24 4.23495 3.8211 0
M  V30 22055 O 2052.18 5.52953 2.37752 0
M  V30 22056 H 2056 3.02955 0.212633 0
M  V30 22057 H 2053.59 1.49349 0.0389463 0
M  V30 22058 H 2055.47 3.27385 2.65324 0
M  V30 22059 H 2054.15 2.09207 2.4701 0
M  V30 22060 H 2053.05 3.66185 0.765469 0
M  V30 22061 H 2054.39 4.81379 1.02638 0
M  V30 22062 N 2056.04 -0.0835127 1.57379 0
M  V30 22063 C 2056.97 -1.101 2.05913 0
M  V30 22064 C 2057.95 -1.41079 0.950298 0
M  V30 22065 O 2059.13 -1.50909 1.2223 0
M  V30 22066 C 2056.26 -2.41772 2.49327 0
M  V30 22067 C 2055.22 -2.25173 3.63979 0
M  V30 22068 C 2054.54 -3.62124 3.93408 0
M  V30 22069 C 2055.84 -1.68267 4.94453 0
M  V30 22070 H 2057.54 -0.697176 2.9117 0
M  V30 22071 H 2055.08 -0.333914 1.40075 0
M  V30 22072 H 2057.04 -3.13234 2.81891 0
M  V30 22073 H 2055.76 -2.84112 1.61084 0
M  V30 22074 H 2054.42 -1.56154 3.3168 0
M  V30 22075 H 2054.07 -4.02013 3.02315 0
M  V30 22076 H 2053.77 -3.51861 4.70603 0
M  V30 22077 H 2055.29 -4.35036 4.28458 0
M  V30 22078 H 2056.71 -2.29582 5.25324 0
M  V30 22079 H 2055.1 -1.68731 5.7589 0
M  V30 22080 H 2056.17 -0.64309 4.80617 0
M  V30 22081 N 2057.52 -1.53558 -0.354624 0
M  V30 22082 C 2058.74 -1.74503 -1.12087 0
M  V30 22083 C 2059.17 -0.477817 -1.8193 0
M  V30 22084 O 2058.52 0.568868 -1.72144 0
M  V30 22085 C 2058.57 -2.91808 -2.1185 0
M  V30 22086 O 2057.68 -2.61182 -3.19152 0
M  V30 22087 H 2057.02 -0.579191 -0.324705 0
M  V30 22088 H 2059.55 -2.00483 -0.4084 0
M  V30 22089 H 2059.56 -3.18284 -2.55263 0
M  V30 22090 H 2058.23 -3.83721 -1.6041 0
M  V30 22091 H 2056.81 -2.45558 -2.80634 0
M  V30 22092 N 2058.99 0.615033 -1.45104 0
M  V30 22093 C 2060.24 1.37029 -1.48007 0
M  V30 22094 C 2060.56 1.95213 -0.122939 0
M  V30 22095 O 2061.76 2.71484 -0.0295763 0
M  V30 22096 C 2060.22 2.48178 -2.60645 0
M  V30 22097 C 2059.83 1.96437 -4.02637 0
M  V30 22098 C 2061.57 3.25251 -2.72786 0
M  V30 22099 C 2059.48 3.05024 -5.0667 0
M  V30 22100 H 2058.41 0.515004 -0.550715 0
M  V30 22101 H 2061.06 0.659974 -1.71221 0
M  V30 22102 H 2059.44 3.2186 -2.307 0
M  V30 22103 H 2060.61 1.29514 -4.42225 0
M  V30 22104 H 2058.93 1.32132 -3.9488 0
M  V30 22105 H 2061.53 4.06229 -3.47681 0
M  V30 22106 H 2061.87 3.75776 -1.7916 0
M  V30 22107 H 2062.4 2.58666 -3.0222 0
M  V30 22108 H 2059.14 2.59425 -6.01979 0
M  V30 22109 H 2058.66 3.70538 -4.71658 0
M  V30 22110 H 2060.34 3.69532 -5.31089 0
M  V30 22111 N 2060.47 1.3227 0.85688 0
M  V30 22112 C 2061.72 1.22703 1.6109 0
M  V30 22113 C 2062.05 -0.211682 1.93345 0
M  V30 22114 O 2061.3 -1.16408 1.57314 0
M  V30 22115 C 2061.6 2.02967 2.94175 0
M  V30 22116 C 2061.27 3.52346 2.8136 0
M  V30 22117 C 2059.93 3.93074 2.77572 0
M  V30 22118 C 2062.28 4.47347 2.67452 0
M  V30 22119 C 2059.61 5.27049 2.57751 0
M  V30 22120 C 2061.96 5.81463 2.49167 0
M  V30 22121 C 2060.62 6.21396 2.4377 0
M  V30 22122 H 2059.89 0.449003 0.589472 0
M  V30 22123 H 2062.54 1.63673 0.994156 0
M  V30 22124 H 2060.85 1.54719 3.59957 0
M  V30 22125 H 2062.54 1.92936 3.51535 0
M  V30 22126 H 2059.13 3.19997 2.85132 0
M  V30 22127 H 2063.32 4.16802 2.69424 0
M  V30 22128 H 2058.57 5.57048 2.52007 0
M  V30 22129 H 2062.75 6.54692 2.37384 0
M  V30 22130 H 2060.37 7.2515 2.28171 0
M  V30 22131 N 2061.95 -1.07287 1.15444 0
M  V30 22132 C 2063.18 -1.83348 0.952215 0
M  V30 22133 C 2063.59 -1.82396 -0.50282 0
M  V30 22134 O 2062.93 -1.23432 -1.36052 0
M  V30 22135 C 2062.99 -3.31539 1.39004 0
M  V30 22136 C 2062.66 -3.56209 2.86293 0
M  V30 22137 C 2063.65 -3.50097 3.84354 0
M  V30 22138 C 2061.34 -3.83854 3.23977 0
M  V30 22139 C 2063.33 -3.7128 5.18102 0
M  V30 22140 C 2061.02 -4.04688 4.57898 0
M  V30 22141 C 2062.02 -3.98396 5.5477 0
M  V30 22142 O 2061.71 -4.18672 6.86271 0
M  V30 22143 H 2061.44 -0.585295 0.338239 0
M  V30 22144 H 2063.99 -1.36329 1.53634 0
M  V30 22145 H 2062.22 -3.79371 0.74932 0
M  V30 22146 H 2063.91 -3.89066 1.15682 0
M  V30 22147 H 2064.68 -3.28741 3.56587 0
M  V30 22148 H 2060.56 -3.87866 2.49161 0
M  V30 22149 H 2064.1 -3.66284 5.93702 0
M  V30 22150 H 2060 -4.25531 4.8538 0
M  V30 22151 H 2060.76 -4.36016 6.92699 0
M  V30 22152 N 2063.43 -0.951342 -1.25647 0
M  V30 22153 C 2064.67 -0.605246 -1.93558 0
M  V30 22154 C 2065.01 0.85507 -1.74362 0
M  V30 22155 O 2064.28 1.61308 -1.08674 0
M  V30 22156 C 2064.56 -0.960718 -3.47048 0
M  V30 22157 C 2064.42 -2.47652 -3.75484 0
M  V30 22158 C 2065.74 -0.483409 -4.37437 0
M  V30 22159 H 2062.86 -0.22136 -0.702971 0
M  V30 22160 H 2065.5 -1.1874 -1.48327 0
M  V30 22161 H 2063.65 -0.465324 -3.85703 0
M  V30 22162 H 2065.32 -3.04543 -3.46484 0
M  V30 22163 H 2063.56 -2.91564 -3.21205 0
M  V30 22164 H 2064.23 -2.67575 -4.82812 0
M  V30 22165 H 2066.71 -0.908309 -4.06065 0
M  V30 22166 H 2065.59 -0.760858 -5.43601 0
M  V30 22167 H 2065.85 0.616645 -4.37778 0
M  V30 22168 N 2064.91 1.40216 -0.719531 0
M  V30 22169 C 2066.15 2.01112 -0.261127 0
M  V30 22170 C 2066.48 1.56933 1.14393 0
M  V30 22171 O 2065.76 0.791168 1.77682 0
M  V30 22172 C 2066.04 3.58438 -0.345592 0
M  V30 22173 C 2065.9 4.12679 -1.78931 0
M  V30 22174 C 2067.21 4.39202 0.280948 0
M  V30 22175 H 2064.33 0.730674 -0.0963582 0
M  V30 22176 H 2066.98 1.66639 -0.912774 0
M  V30 22177 H 2065.13 3.87936 0.209226 0
M  V30 22178 H 2066.8 3.93963 -2.39982 0
M  V30 22179 H 2065.04 3.66819 -2.31574 0
M  V30 22180 H 2065.71 5.21835 -1.79978 0
M  V30 22181 H 2068.19 4.15658 -0.191834 0
M  V30 22182 H 2067.06 5.48566 0.191422 0
M  V30 22183 H 2067.32 4.205 1.36499 0
M  V30 22184 N 2066.38 0.466004 1.50553 0
M  V30 22185 C 2067.61 -0.0884484 2.06411 0
M  V30 22186 C 2068.02 -1.34509 1.33057 0
M  V30 22187 O 2067.36 -1.79472 0.391869 0
M  V30 22188 C 2067.43 -0.44758 3.56703 0
M  V30 22189 C 2067.09 0.70631 4.51509 0
M  V30 22190 C 2068.09 1.58687 4.9509 0
M  V30 22191 C 2065.77 0.895191 4.94259 0
M  V30 22192 C 2067.77 2.64076 5.80123 0
M  V30 22193 C 2065.45 1.95231 5.79075 0
M  V30 22194 C 2066.45 2.82346 6.21908 0
M  V30 22195 O 2066.14 3.86239 7.05035 0
M  V30 22196 H 2065.87 0.00147065 0.675998 0
M  V30 22197 H 2068.43 0.652308 1.94767 0
M  V30 22198 H 2066.66 -1.24145 3.66231 0
M  V30 22199 H 2068.34 -0.93652 3.94948 0
M  V30 22200 H 2069.11 1.45261 4.62736 0
M  V30 22201 H 2064.99 0.226608 4.60443 0
M  V30 22202 H 2068.53 3.32103 6.13476 0
M  V30 22203 H 2064.43 2.08666 6.10843 0
M  V30 22204 H 2065.2 3.83166 7.23275 0
M  V30 22205 N 2067.86 -1.56346 0.198413 0
M  V30 22206 C 2069.11 -1.97674 -0.43948 0
M  V30 22207 C 2069.44 -1.0854 -1.61398 0
M  V30 22208 O 2068.69 -0.125218 -1.95299 0
M  V30 22209 C 2068.99 -3.44852 -0.938713 0
M  V30 22210 C 2068.66 -4.50733 0.122773 0
M  V30 22211 C 2067.32 -4.79412 0.414434 0
M  V30 22212 C 2069.67 -5.14356 0.841848 0
M  V30 22213 C 2067 -5.69004 1.43009 0
M  V30 22214 C 2069.35 -6.05046 1.84667 0
M  V30 22215 C 2068.01 -6.3208 2.1455 0
M  V30 22216 H 2067.28 -0.723339 -0.160817 0
M  V30 22217 H 2069.93 -1.89197 0.296077 0
M  V30 22218 H 2068.24 -3.50415 -1.75261 0
M  V30 22219 H 2069.93 -3.74186 -1.44173 0
M  V30 22220 H 2066.52 -4.28446 -0.114715 0
M  V30 22221 H 2070.71 -4.92288 0.629749 0
M  V30 22222 H 2065.96 -5.88222 1.66749 0
M  V30 22223 H 2070.14 -6.53404 2.40907 0
M  V30 22224 H 2067.76 -7.01301 2.93395 0
M  V30 22225 N 2069.34 0.0751653 -1.57421 0
M  V30 22226 C 2070.59 0.776106 -1.87362 0
M  V30 22227 C 2070.92 1.77394 -0.790247 0
M  V30 22228 O 2070.19 1.93471 0.199817 0
M  V30 22229 C 2070.48 1.4871 -3.27959 0
M  V30 22230 C 2070.33 0.505905 -4.46946 0
M  V30 22231 C 2071.65 2.43284 -3.66744 0
M  V30 22232 H 2068.77 0.280684 -0.681458 0
M  V30 22233 H 2071.41 0.0393497 -1.89959 0
M  V30 22234 H 2069.56 2.11512 -3.25876 0
M  V30 22235 H 2071.23 -0.116642 -4.61153 0
M  V30 22236 H 2069.48 -0.179057 -4.3343 0
M  V30 22237 H 2070.15 1.04094 -5.42096 0
M  V30 22238 H 2072.62 1.90562 -3.69899 0
M  V30 22239 H 2071.5 2.90037 -4.66015 0
M  V30 22240 H 2071.76 3.27938 -2.96494 0
M  V30 22241 N 2070.82 1.53744 0.346476 0
M  V30 22242 C 2072.06 1.71103 1.08866 0
M  V30 22243 C 2072.4 0.47131 1.88394 0
M  V30 22244 O 2071.67 -0.531638 1.87093 0
M  V30 22245 C 2071.96 2.97273 2.03225 0
M  V30 22246 C 2071.81 4.31446 1.27179 0
M  V30 22247 C 2073.13 3.19105 3.03084 0
M  V30 22248 H 2070.25 0.622598 0.394387 0
M  V30 22249 H 2072.89 1.86412 0.367514 0
M  V30 22250 H 2071.04 2.84352 2.64719 0
M  V30 22251 H 2072.71 4.56212 0.683225 0
M  V30 22252 H 2070.95 4.29989 0.573773 0
M  V30 22253 H 2071.62 5.15901 1.96343 0
M  V30 22254 H 2074.1 3.31337 2.51704 0
M  V30 22255 H 2072.98 4.08786 3.66313 0
M  V30 22256 H 2073.24 2.35265 3.74303 0
M  V30 22257 N 2072.3 -0.607329 1.45428 0
M  V30 22258 C 2073.54 -1.36633 1.49458 0
M  V30 22259 C 2073.87 -1.94021 0.136421 0
M  V30 22260 O 2073.13 -1.75548 -0.864951 0
M  V30 22261 C 2073.43 -2.53276 2.52163 0
M  V30 22262 C 2073.09 -2.14033 3.96864 0
M  V30 22263 C 2071.75 -2.03044 4.36264 0
M  V30 22264 C 2074.11 -1.8341 4.87863 0
M  V30 22265 C 2071.43 -1.59655 5.64559 0
M  V30 22266 C 2073.79 -1.41507 6.1657 0
M  V30 22267 C 2072.45 -1.29077 6.54901 0
M  V30 22268 H 2071.72 -0.499975 0.546906 0
M  V30 22269 H 2074.37 -0.686418 1.78775 0
M  V30 22270 H 2072.67 -3.26606 2.16416 0
M  V30 22271 H 2074.37 -3.11505 2.52519 0
M  V30 22272 H 2070.96 -2.23512 3.65705 0
M  V30 22273 H 2075.14 -1.90797 4.5816 0
M  V30 22274 H 2070.4 -1.48654 5.93053 0
M  V30 22275 H 2074.57 -1.16857 6.86526 0
M  V30 22276 H 2072.2 -0.952297 7.54212 0
M  V30 22277 N 2073.77 -1.32722 -0.849853 0
M  V30 22278 C 2075.19 -1.21166 -1.42041 0
M  V30 22279 C 2075.54 0.173892 -1.95428 0
M  V30 22280 O 2074.66 1.07289 -1.87931 0
M  V30 22281 C 2075.26 -2.19361 -2.58198 0
M  V30 22282 C 2073.82 -2.11677 -3.11239 0
M  V30 22283 C 2072.96 -2.07459 -1.84 0
M  V30 22284 H 2075.91 -1.44481 -0.656583 0
M  V30 22285 H 2075.93 -1.79494 -3.35503 0
M  V30 22286 H 2075.45 -3.20194 -2.19312 0
M  V30 22287 H 2073.55 -1.1411 -3.54697 0
M  V30 22288 H 2073.66 -3.01721 -3.72157 0
M  V30 22289 H 2072.02 -1.5277 -2.03798 0
M  V30 22290 H 2072.81 -3.10081 -1.47325 0
M  V30 22291 N 2075.25 1.06673 -1.16011 0
M  V30 22292 C 2076.5 1.794 -0.939249 0
M  V30 22293 C 2076.83 1.87049 0.533193 0
M  V30 22294 O 2076.08 1.35544 1.4116 0
M  V30 22295 C 2076.38 3.24069 -1.50712 0
M  V30 22296 C 2076.05 3.36507 -3.00123 0
M  V30 22297 C 2074.71 3.39609 -3.4091 0
M  V30 22298 C 2077.06 3.38741 -3.96111 0
M  V30 22299 C 2074.39 3.42556 -4.76311 0
M  V30 22300 C 2076.74 3.43226 -5.31393 0
M  V30 22301 C 2075.41 3.44608 -5.71665 0
M  V30 22302 H 2074.68 0.656471 -0.343696 0
M  V30 22303 H 2077.32 1.25476 -1.44665 0
M  V30 22304 H 2075.63 3.80819 -0.921077 0
M  V30 22305 H 2077.32 3.78931 -1.31196 0
M  V30 22306 H 2073.91 3.34796 -2.676 0
M  V30 22307 H 2078.1 3.35559 -3.65669 0
M  V30 22308 H 2073.35 3.41928 -5.06848 0
M  V30 22309 H 2077.53 3.43902 -6.05561 0
M  V30 22310 H 2075.16 3.46645 -6.76566 0
M  V30 22311 N 2076.73 0.957992 1.25141 0
M  V30 22312 C 2077.98 0.614592 1.92948 0
M  V30 22313 C 2078.31 -0.848868 1.74999 0
M  V30 22314 O 2077.56 -1.62488 1.09069 0
M  V30 22315 C 2077.86 0.923523 3.45262 0
M  V30 22316 C 2077.53 2.37356 3.83371 0
M  V30 22317 C 2076.19 2.7699 3.93484 0
M  V30 22318 C 2078.54 3.31508 4.02184 0
M  V30 22319 C 2075.87 4.09838 4.19821 0
M  V30 22320 C 2078.22 4.63973 4.30014 0
M  V30 22321 C 2076.88 5.03398 4.38345 0
M  V30 22322 H 2076.15 0.224895 0.706048 0
M  V30 22323 H 2078.8 1.20766 1.4862 0
M  V30 22324 H 2077.11 0.248102 3.91014 0
M  V30 22325 H 2078.8 0.636357 3.95919 0
M  V30 22326 H 2075.39 2.05619 3.76057 0
M  V30 22327 H 2079.58 3.02076 3.93781 0
M  V30 22328 H 2074.83 4.40023 4.24488 0
M  V30 22329 H 2079.01 5.36905 4.43516 0
M  V30 22330 H 2076.63 6.06363 4.58506 0
M  V30 22331 N 2078.21 -1.39832 0.726957 0
M  V30 22332 C 2079.46 -2.00673 0.271386 0
M  V30 22333 C 2079.78 -1.57667 -1.13892 0
M  V30 22334 O 2079.04 -0.793014 -1.78913 0
M  V30 22335 C 2079.34 -3.56035 0.31205 0
M  V30 22336 C 2079 -4.18664 1.67425 0
M  V30 22337 C 2077.67 -4.35485 2.04711 0
M  V30 22338 C 2080.02 -4.53488 2.56901 0
M  V30 22339 C 2077.35 -4.84416 3.30996 0
M  V30 22340 C 2079.7 -5.03824 3.8255 0
M  V30 22341 C 2078.36 -5.18852 4.19939 0
M  V30 22342 H 2077.63 -0.734315 0.0993073 0
M  V30 22343 H 2080.28 -1.67278 0.932222 0
M  V30 22344 H 2078.58 -3.89407 -0.43236 0
M  V30 22345 H 2080.28 -4.00957 -0.0584539 0
M  V30 22346 H 2076.87 -4.05968 1.37433 0
M  V30 22347 H 2081.05 -4.40119 2.29367 0
M  V30 22348 H 2076.31 -4.94236 3.59918 0
M  V30 22349 H 2080.48 -5.29744 4.52045 0
M  V30 22350 H 2078.11 -5.56529 5.1786 0
M  V30 22351 N 2079.69 -0.473982 -1.50304 0
M  V30 22352 C 2080.93 0.0801282 -2.02642 0
M  V30 22353 C 2081.27 1.3911 -1.35506 0
M  V30 22354 O 2080.54 1.8844 -0.481719 0
M  V30 22355 C 2080.82 0.26092 -3.59153 0
M  V30 22356 C 2080.68 -1.07128 -4.36857 0
M  V30 22357 C 2082 1.01413 -4.28256 0
M  V30 22358 H 2079.11 0.0276467 -0.736481 0
M  V30 22359 H 2081.76 -0.620135 -1.79595 0
M  V30 22360 H 2079.91 0.857378 -3.78921 0
M  V30 22361 H 2081.58 -1.70454 -4.28653 0
M  V30 22362 H 2079.82 -1.66721 -4.00483 0
M  V30 22363 H 2080.49 -0.898389 -5.4464 0
M  V30 22364 H 2082.97 0.508536 -4.12981 0
M  V30 22365 H 2081.84 1.10943 -5.37571 0
M  V30 22366 H 2082.11 2.05141 -3.91624 0
M  V30 22367 N 2081.16 1.56239 -0.206702 0
M  V30 22368 C 2082.11 2.20977 0.726082 0
M  V30 22369 C 2083.11 1.18451 1.21102 0
M  V30 22370 O 2084.31 1.36568 1.17257 0
M  V30 22371 H 2080.69 0.708331 0.252529 0
M  V30 22372 H 2082.66 2.97989 0.156483 0
M  V30 22373 C 2081.41 2.89215 1.93003 0
M  V30 22374 H 2080.73 3.67855 1.56597 0
M  V30 22375 H 2082.17 3.37933 2.56081 0
M  V30 22376 C 2080.63 1.90876 2.77611 0
M  V30 22377 O 2081.16 1.41633 3.75903 0
M  V30 22378 N 2079.37 1.5885 2.43341 0
M  V30 22379 H 2078.91 1.99088 1.63468 0
M  V30 22380 H 2078.87 0.933114 3.00234 0
M  V30 22381 N 2082.64 -0.0668159 1.57458 0
M  V30 22382 C 2083.89 -0.76387 1.86676 0
M  V30 22383 C 2084.2 -1.78489 0.800057 0
M  V30 22384 O 2085.41 -2.53187 0.980236 0
M  V30 22385 C 2083.87 -1.4095 3.31151 0
M  V30 22386 C 2083.47 -0.426782 4.45963 0
M  V30 22387 C 2085.22 -2.08863 3.69563 0
M  V30 22388 C 2083.13 -1.07861 5.81481 0
M  V30 22389 H 2082.06 -0.289037 0.6964 0
M  V30 22390 H 2084.71 -0.0172645 1.83492 0
M  V30 22391 H 2083.09 -2.20453 3.28962 0
M  V30 22392 H 2084.26 0.338803 4.59553 0
M  V30 22393 H 2082.58 0.148171 4.16136 0
M  V30 22394 H 2085.17 -2.58415 4.68109 0
M  V30 22395 H 2085.52 -2.89026 2.99616 0
M  V30 22396 H 2086.05 -1.36184 3.73763 0
M  V30 22397 H 2082.79 -0.317194 6.54732 0
M  V30 22398 H 2082.31 -1.81493 5.71682 0
M  V30 22399 H 2083.99 -1.597 6.26981 0
M  V30 22400 N 2084.12 -1.53926 -0.338317 0
M  V30 22401 C 2085.37 -1.71424 -1.07797 0
M  V30 22402 C 2085.7 -0.480153 -1.8848 0
M  V30 22403 O 2084.95 0.538111 -1.88156 0
M  V30 22404 C 2085.25 -2.93279 -2.0426 0
M  V30 22405 C 2084.92 -4.28665 -1.39847 0
M  V30 22406 C 2083.58 -4.65475 -1.2201 0
M  V30 22407 C 2085.93 -5.12746 -0.934908 0
M  V30 22408 C 2083.26 -5.83979 -0.564424 0
M  V30 22409 C 2085.61 -6.31921 -0.293119 0
M  V30 22410 C 2084.27 -6.67421 -0.102472 0
M  V30 22411 H 2083.54 -0.627283 -0.394458 0
M  V30 22412 H 2086.19 -1.88149 -0.356684 0
M  V30 22413 H 2084.5 -2.71179 -2.82788 0
M  V30 22414 H 2086.19 -3.04011 -2.61492 0
M  V30 22415 H 2082.78 -3.99696 -1.54729 0
M  V30 22416 H 2086.97 -4.84836 -1.06055 0
M  V30 22417 H 2082.22 -6.10055 -0.40538 0
M  V30 22418 H 2086.4 -6.96361 0.0741496 0
M  V30 22419 H 2084.02 -7.59106 0.407635 0
M  V30 22420 N 2085.6 0.599608 -1.45748 0
M  V30 22421 C 2086.85 1.3604 -1.50403 0
M  V30 22422 C 2087.18 1.93632 -0.148419 0
M  V30 22423 O 2086.45 1.75516 0.838118 0
M  V30 22424 C 2086.74 2.50237 -2.58946 0
M  V30 22425 C 2086.59 1.9779 -4.03979 0
M  V30 22426 C 2087.91 3.52344 -2.63708 0
M  V30 22427 H 2085.03 0.49329 -0.547571 0
M  V30 22428 H 2087.67 0.675178 -1.77599 0
M  V30 22429 H 2085.82 3.0869 -2.35888 0
M  V30 22430 H 2087.49 1.43925 -4.38273 0
M  V30 22431 H 2085.73 1.28734 -4.14258 0
M  V30 22432 H 2086.41 2.80147 -4.75628 0
M  V30 22433 H 2088.88 3.03746 -2.8439 0
M  V30 22434 H 2087.76 4.29728 -3.41504 0
M  V30 22435 H 2088.02 4.08481 -1.69103 0
M  V30 22436 N 2087.08 1.33171 0.842803 0
M  V30 22437 C 2088.04 1.23019 1.93388 0
M  V30 22438 C 2089.04 0.15022 1.60097 0
M  V30 22439 O 2090.23 0.401472 1.69511 0
M  V30 22440 C 2087.36 0.89468 3.2895 0
M  V30 22441 H 2088.56 2.19997 2.03817 0
M  V30 22442 H 2086.11 1.17173 1.03442 0
M  V30 22443 H 2086.84 -0.0727774 3.24218 0
M  V30 22444 H 2086.63 1.67563 3.54493 0
M  V30 22445 H 2088.12 0.848284 4.08894 0
M  V30 22446 N 2088.56 -1.06056 1.16576 0
M  V30 22447 C 2089.49 -2.15554 0.897693 0
M  V30 22448 C 2090.47 -1.69375 -0.156927 0
M  V30 22449 O 2091.65 -1.94198 -0.00851939 0
M  V30 22450 C 2088.78 -3.44982 0.40063 0
M  V30 22451 C 2087.74 -4.04682 1.39343 0
M  V30 22452 C 2087.06 -5.29347 0.754677 0
M  V30 22453 C 2088.36 -4.43182 2.76381 0
M  V30 22454 H 2090.06 -2.38236 1.81339 0
M  V30 22455 H 2087.6 -1.14495 0.873316 0
M  V30 22456 H 2089.55 -4.20922 0.200566 0
M  V30 22457 H 2088.28 -3.21926 -0.550576 0
M  V30 22458 H 2086.94 -3.308 1.58009 0
M  V30 22459 H 2086.59 -5.0259 -0.203091 0
M  V30 22460 H 2086.29 -5.7025 1.41735 0
M  V30 22461 H 2087.81 -6.07983 0.564687 0
M  V30 22462 H 2089.22 -5.10195 2.61485 0
M  V30 22463 H 2087.62 -4.95076 3.39146 0
M  V30 22464 H 2088.69 -3.53931 3.31453 0
M  V30 22465 N 2090.03 -0.964615 -1.24631 0
M  V30 22466 C 2091.28 -0.620429 -1.91921 0
M  V30 22467 C 2091.6 0.847851 -1.76269 0
M  V30 22468 O 2092.8 1.30243 -2.38221 0
M  V30 22469 C 2091.26 -1.059 -3.43967 0
M  V30 22470 C 2090.87 -2.55052 -3.6831 0
M  V30 22471 C 2092.61 -0.787818 -4.17126 0
M  V30 22472 C 2090.52 -2.92658 -5.13912 0
M  V30 22473 H 2089.45 -0.22834 -0.718594 0
M  V30 22474 H 2092.1 -1.17041 -1.41328 0
M  V30 22475 H 2090.48 -0.437357 -3.93577 0
M  V30 22476 H 2091.65 -3.2232 -3.29312 0
M  V30 22477 H 2089.97 -2.79748 -3.08432 0
M  V30 22478 H 2092.57 -1.04483 -5.24392 0
M  V30 22479 H 2092.91 0.275932 -4.15385 0
M  V30 22480 H 2093.44 -1.37028 -3.73454 0
M  V30 22481 H 2090.18 -3.98091 -5.20772 0
M  V30 22482 H 2089.7 -2.30071 -5.5392 0
M  V30 22483 H 2091.38 -2.82395 -5.82119 0
M  V30 22484 N 2091.51 1.39445 -0.734362 0
M  V30 22485 C 2092.76 1.99762 -0.278913 0
M  V30 22486 C 2093.07 1.58936 1.14012 0
M  V30 22487 O 2094.28 2.12085 1.69506 0
M  V30 22488 C 2092.74 3.57104 -0.447725 0
M  V30 22489 C 2092.34 4.06894 -1.87461 0
M  V30 22490 C 2094.09 4.24466 -0.0540192 0
M  V30 22491 C 2091.99 5.56806 -1.993 0
M  V30 22492 H 2090.92 0.747268 -0.100529 0
M  V30 22493 H 2093.58 1.59452 -0.908151 0
M  V30 22494 H 2091.96 3.95208 0.250399 0
M  V30 22495 H 2093.13 3.80126 -2.60463 0
M  V30 22496 H 2091.45 3.52193 -2.22147 0
M  V30 22497 H 2094.04 5.34562 -0.121504 0
M  V30 22498 H 2094.39 4.04341 0.990665 0
M  V30 22499 H 2094.92 3.91534 -0.703277 0
M  V30 22500 H 2091.66 5.8181 -3.01955 0
M  V30 22501 H 2091.18 5.85379 -1.30734 0
M  V30 22502 H 2092.86 6.22208 -1.77387 0
M  V30 22503 N 2092.99 0.481946 1.5005 0
M  V30 22504 C 2094.24 -0.0710199 2.01575 0
M  V30 22505 C 2094.55 -1.39798 1.36806 0
M  V30 22506 O 2095.76 -2.03653 1.79549 0
M  V30 22507 C 2094.21 -0.177064 3.59464 0
M  V30 22508 C 2093.82 1.14212 4.33197 0
M  V30 22509 C 2095.57 -0.681409 4.18995 0
M  V30 22510 C 2093.47 0.999274 5.82897 0
M  V30 22511 H 2092.4 -0.0303162 0.75339 0
M  V30 22512 H 2095.05 0.618487 1.72763 0
M  V30 22513 H 2093.44 -0.930598 3.8491 0
M  V30 22514 H 2094.61 1.90745 4.19467 0
M  V30 22515 H 2092.92 1.57841 3.85325 0
M  V30 22516 H 2095.52 -0.805484 5.28598 0
M  V30 22517 H 2095.86 -1.6755 3.81094 0
M  V30 22518 H 2096.4 0.015045 3.97797 0
M  V30 22519 H 2093.14 1.96706 6.2529 0
M  V30 22520 H 2092.66 0.274505 5.99172 0
M  V30 22521 H 2094.34 0.670265 6.43519 0
M  V30 22522 N 2094.47 -1.56127 0.214985 0
M  V30 22523 C 2095.7 -2.02519 -0.423533 0
M  V30 22524 C 2096.11 -1.0949 -1.5381 0
M  V30 22525 O 2095.47 -0.103303 -1.82207 0
M  V30 22526 C 2095.52 -3.48484 -0.961313 0
M  V30 22527 O 2095.24 -4.37965 0.108806 0
M  V30 22528 C 2096.74 -4.10489 -1.67373 0
M  V30 22529 H 2093.96 -0.662835 -0.104359 0
M  V30 22530 H 2096.5 -2.01828 0.329517 0
M  V30 22531 H 2094.66 -3.49811 -1.66466 0
M  V30 22532 H 2095.07 -5.23673 -0.294413 0
M  V30 22533 H 2096.55 -5.14412 -2.00209 0
M  V30 22534 H 2097.02 -3.55102 -2.58455 0
M  V30 22535 H 2097.63 -4.12992 -1.01575 0
M  V30 22536 N 2095.95 0.0584645 -1.57492 0
M  V30 22537 C 2097.19 0.755071 -1.87896 0
M  V30 22538 C 2097.52 1.769 -0.808499 0
M  V30 22539 O 2096.78 1.94736 0.194028 0
M  V30 22540 C 2097.07 1.48699 -3.24998 0
M  V30 22541 C 2096.74 0.611806 -4.4673 0
M  V30 22542 C 2095.4 0.370663 -4.7977 0
M  V30 22543 C 2097.75 0.00576081 -5.212 0
M  V30 22544 C 2095.08 -0.485786 -5.84685 0
M  V30 22545 C 2097.43 -0.838219 -6.27022 0
M  V30 22546 C 2096.1 -1.08911 -6.58555 0
M  V30 22547 H 2095.37 0.2763 -0.68756 0
M  V30 22548 H 2098.02 0.0155215 -1.91494 0
M  V30 22549 H 2096.32 2.2991 -3.17252 0
M  V30 22550 H 2098.02 2.03101 -3.45761 0
M  V30 22551 H 2094.61 0.809892 -4.20878 0
M  V30 22552 H 2098.79 0.179152 -4.95977 0
M  V30 22553 H 2094.05 -0.688773 -6.07508 0
M  V30 22554 H 2098.22 -1.31449 -6.83882 0
M  V30 22555 H 2095.85 -1.7545 -7.39676 0
M  V30 22556 N 2097.42 1.54103 0.330149 0
M  V30 22557 C 2098.36 1.7936 1.42698 0
M  V30 22558 C 2099.37 0.67533 1.48132 0
M  V30 22559 O 2100.56 0.952319 1.50974 0
M  V30 22560 C 2097.66 1.89043 2.81276 0
M  V30 22561 C 2096.83 3.1913 2.99123 0
M  V30 22562 C 2095.89 3.19599 4.18023 0
M  V30 22563 O 2094.92 3.93266 4.11498 0
M  V30 22564 N 2096.12 2.42915 5.27231 0
M  V30 22565 H 2098.88 2.74012 1.21398 0
M  V30 22566 H 2096.44 1.53318 0.520103 0
M  V30 22567 H 2098.44 1.86791 3.59014 0
M  V30 22568 H 2097.01 1.01517 2.95657 0
M  V30 22569 H 2096.23 3.34396 2.08742 0
M  V30 22570 H 2097.51 4.05032 3.07939 0
M  V30 22571 H 2096.91 1.82641 5.35405 0
M  V30 22572 H 2095.47 2.46448 6.03412 0
M  V30 22573 N 2098.9 -0.59187 1.46064 0
M  V30 22574 C 2099.81 -1.72959 1.585 0
M  V30 22575 C 2100.83 -1.67565 0.468813 0
M  V30 22576 O 2102 -1.87639 0.731679 0
M  V30 22577 C 2099.07 -3.09451 1.56336 0
M  V30 22578 C 2098.13 -3.26179 2.79117 0
M  V30 22579 C 2097.36 -4.56159 2.77046 0
M  V30 22580 O 2097.59 -5.39474 1.85268 0
M  V30 22581 O 2096.52 -4.75937 3.68466 0
M  V30 22582 H 2100.35 -1.65416 2.54699 0
M  V30 22583 H 2097.93 -0.757834 1.28753 0
M  V30 22584 H 2099.81 -3.90742 1.57793 0
M  V30 22585 H 2098.49 -3.17451 0.632949 0
M  V30 22586 H 2097.4 -2.44416 2.83217 0
M  V30 22587 H 2098.73 -3.23064 3.71336 0
M  V30 22588 N 2100.38 -1.33616 -0.835729 0
M  V30 22589 C 2101.31 -1.19968 -1.95296 0
M  V30 22590 C 2102.33 -0.129874 -1.62281 0
M  V30 22591 O 2103.51 -0.380581 -1.74396 0
M  V30 22592 C 2100.61 -0.818275 -3.28873 0
M  V30 22593 C 2099.79 -1.98038 -3.9 0
M  V30 22594 C 2098.85 -1.57944 -5.01936 0
M  V30 22595 O 2097.87 -2.29423 -5.20916 0
M  V30 22596 N 2099.07 -0.486237 -5.7846 0
M  V30 22597 H 2101.84 -2.16212 -2.0754 0
M  V30 22598 H 2099.4 -1.26403 -1.01163 0
M  V30 22599 H 2101.39 -0.532092 -4.01187 0
M  V30 22600 H 2099.96 0.053577 -3.12554 0
M  V30 22601 H 2099.18 -2.43201 -3.10237 0
M  V30 22602 H 2100.47 -2.75789 -4.27572 0
M  V30 22603 H 2099.87 0.108268 -5.65596 0
M  V30 22604 H 2098.43 -0.259739 -6.51282 0
M  V30 22605 N 2101.86 1.05436 -1.17136 0
M  V30 22606 C 2103.11 1.78041 -0.956331 0
M  V30 22607 C 2103.43 1.88035 0.516524 0
M  V30 22608 O 2102.7 1.39532 1.37505 0
M  V30 22609 H 2101.28 0.659483 -0.350843 0
M  V30 22610 H 2103.94 1.2732 -1.47566 0
M  V30 22611 H 2103.04 2.79808 -1.38253 0
M  V30 22612 N 2103.34 0.971211 1.24118 0
M  V30 22613 C 2104.61 0.551769 1.87656 0
M  V30 22614 C 2104.99 -0.97112 1.87437 0
M  V30 22615 O 2104.34 -1.84396 1.34946 0
M  V30 22616 C 2104.55 1.14731 3.29602 0
M  V30 22617 C 2105.9 1.23437 4.06262 0
M  V30 22618 O 2106.92 1.10009 3.38787 0
M  V30 22619 O 2105.78 1.44701 5.26995 0
M  V30 22620 H 2102.88 0.184487 0.80616 0
M  V30 22621 H 2105.42 1.06571 1.32064 0
M  V30 22622 H 2104.19 2.18994 3.2428 0
M  V30 22623 H 2103.82 0.617636 3.92773 0
M  V30 22624 N 2104.81 -1.39054 0.741747 0
M  V30 22625 C 2105.76 -2.30556 0.106197 0
M  V30 22626 C 2106.73 -1.49566 -0.722434 0
M  V30 22627 O 2107.92 -1.78233 -0.681008 0
M  V30 22628 C 2105.06 -3.35936 -0.790013 0
M  V30 22629 C 2104.17 -4.31969 0.051964 0
M  V30 22630 C 2103.3 -5.24418 -0.846146 0
M  V30 22631 C 2102.34 -6.121 0.000177444 0
M  V30 22632 N 2101.48 -6.96884 -0.854237 0
M  V30 22633 H 2106.32 -2.84333 0.892113 0
M  V30 22634 H 2103.86 -1.39997 0.451583 0
M  V30 22635 H 2105.82 -3.95629 -1.32413 0
M  V30 22636 H 2104.45 -2.83597 -1.54183 0
M  V30 22637 H 2103.5 -3.73837 0.70358 0
M  V30 22638 H 2104.81 -4.93777 0.706061 0
M  V30 22639 H 2103.96 -5.8917 -1.44786 0
M  V30 22640 H 2102.7 -4.62947 -1.53401 0
M  V30 22641 H 2101.71 -5.46353 0.614648 0
M  V30 22642 H 2102.93 -6.75637 0.684921 0
M  V30 22643 H 2100.88 -6.37974 -1.52727 0
M  V30 22644 H 2100.8 -7.55564 -0.256771 0
M  V30 22645 H 2102.06 -7.66059 -1.4413 0
M  V30 22646 N 2106.29 -0.489897 -1.49792 0
M  V30 22647 C 2107.54 0.0586308 -2.02715 0
M  V30 22648 C 2107.87 1.37665 -1.36974 0
M  V30 22649 O 2107.15 1.87919 -0.501679 0
M  V30 22650 C 2107.43 0.222812 -3.5941 0
M  V30 22651 C 2107.28 -1.11755 -4.35696 0
M  V30 22652 C 2108.6 0.96865 -4.29308 0
M  V30 22653 H 2105.72 0.0198337 -0.736733 0
M  V30 22654 H 2108.36 -0.639149 -1.78927 0
M  V30 22655 H 2106.51 0.81714 -3.79809 0
M  V30 22656 H 2108.18 -1.74991 -4.26821 0
M  V30 22657 H 2106.43 -1.70959 -3.98692 0
M  V30 22658 H 2107.1 -0.956105 -5.43657 0
M  V30 22659 H 2109.57 0.464706 -4.13497 0
M  V30 22660 H 2108.45 1.05235 -5.38718 0
M  V30 22661 H 2108.71 2.00975 -3.93778 0
M  V30 22662 N 2107.77 1.56011 -0.223262 0
M  V30 22663 C 2108.7 2.16337 0.726193 0
M  V30 22664 C 2109.68 1.10827 1.18979 0
M  V30 22665 O 2110.87 1.39092 1.27223 0
M  V30 22666 C 2107.99 2.74503 1.98408 0
M  V30 22667 C 2107.04 3.92856 1.66031 0
M  V30 22668 S 2107.87 5.29736 0.783603 0
M  V30 22669 C 2109.03 5.91341 2.05102 0
M  V30 22670 H 2109.26 2.96533 0.213451 0
M  V30 22671 H 2106.79 1.54398 -0.00793866 0
M  V30 22672 H 2108.75 3.08655 2.70634 0
M  V30 22673 H 2107.41 1.94297 2.46794 0
M  V30 22674 H 2106.61 4.32063 2.59495 0
M  V30 22675 H 2106.21 3.5986 1.01867 0
M  V30 22676 H 2108.5 6.07419 3.00082 0
M  V30 22677 H 2109.44 6.87321 1.70283 0
M  V30 22678 H 2109.85 5.2019 2.19233 0
M  V30 22679 N 2109.25 -0.0501116 1.5752 0
M  V30 22680 C 2110.47 -0.761197 1.92926 0
M  V30 22681 C 2110.9 -1.69211 0.821546 0
M  V30 22682 O 2110.26 -1.79908 -0.224247 0
M  V30 22683 C 2110.3 -1.51241 3.27351 0
M  V30 22684 O 2109.41 -2.62445 3.18114 0
M  V30 22685 H 2108.75 -0.206224 0.631164 0
M  V30 22686 H 2111.28 -0.0118709 2.04597 0
M  V30 22687 H 2111.29 -1.88696 3.61743 0
M  V30 22688 H 2109.96 -0.829535 4.07543 0
M  V30 22689 H 2108.54 -2.27688 2.95318 0
M  V30 22690 N 2110.73 -1.54276 -0.321972 0
M  V30 22691 C 2111.64 -1.86797 -1.41929 0
M  V30 22692 C 2112.65 -0.760051 -1.56522 0
M  V30 22693 O 2113.83 -1.0545 -1.71588 0
M  V30 22694 C 2110.89 -2.09003 -2.7662 0
M  V30 22695 C 2109.95 -3.32799 -2.71189 0
M  V30 22696 C 2109.19 -3.53936 -3.99456 0
M  V30 22697 O 2109.41 -2.78482 -4.97799 0
M  V30 22698 O 2108.34 -4.47417 -4.02619 0
M  V30 22699 H 2112.17 -2.8011 -1.17355 0
M  V30 22700 H 2109.76 -1.40201 -0.516141 0
M  V30 22701 H 2111.64 -2.2493 -3.56349 0
M  V30 22702 H 2110.31 -1.18879 -3.01081 0
M  V30 22703 H 2109.22 -3.22256 -1.90006 0
M  V30 22704 H 2110.55 -4.22986 -2.51683 0
M  V30 22705 N 2112.2 0.584116 -1.46376 0
M  V30 22706 C 2113.44 1.35344 -1.53171 0
M  V30 22707 C 2113.81 1.91168 -0.178507 0
M  V30 22708 O 2115.01 2.68527 -0.121206 0
M  V30 22709 C 2113.28 2.45362 -2.5987 0
M  V30 22710 S 2114.84 3.32739 -2.8606 0
M  V30 22711 H 2111.66 0.461125 -0.541188 0
M  V30 22712 H 2114.26 0.671631 -1.83601 0
M  V30 22713 H 2112.96 2.02739 -3.56826 0
M  V30 22714 H 2112.49 3.18316 -2.31167 0
M  V30 22715 H 2114.51 4.44156 -2.21223 0
M  V30 22716 N 2113.68 1.34058 0.828631 0
M  V30 22717 C 2114.91 1.29306 1.62156 0
M  V30 22718 C 2115.33 -0.131256 1.87641 0
M  V30 22719 O 2114.69 -1.09118 1.44786 0
M  V30 22720 C 2114.74 2.08394 2.94286 0
M  V30 22721 O 2113.84 1.44955 3.86085 0
M  V30 22722 H 2113.18 0.444364 0.493393 0
M  V30 22723 H 2115.71 1.76775 1.03014 0
M  V30 22724 H 2115.72 2.19539 3.43899 0
M  V30 22725 H 2114.4 3.11953 2.7506 0
M  V30 22726 H 2112.98 1.42518 3.44591 0
M  V30 22727 N 2115.16 -1.04814 1.17694 0
M  V30 22728 C 2116.09 -2.1459 0.920505 0
M  V30 22729 C 2117.07 -1.69531 -0.138953 0
M  V30 22730 O 2118.26 -1.94196 0.0120784 0
M  V30 22731 C 2115.39 -3.44537 0.437198 0
M  V30 22732 C 2114.34 -4.03181 1.43628 0
M  V30 22733 C 2113.67 -5.28517 0.810779 0
M  V30 22734 C 2114.97 -4.40226 2.81066 0
M  V30 22735 H 2116.66 -2.363 1.83856 0
M  V30 22736 H 2114.21 -1.13563 0.885411 0
M  V30 22737 H 2116.16 -4.20686 0.245199 0
M  V30 22738 H 2114.88 -3.22492 -0.516401 0
M  V30 22739 H 2113.54 -3.29106 1.61508 0
M  V30 22740 H 2113.19 -5.02777 -0.149773 0
M  V30 22741 H 2112.89 -5.68714 1.47776 0
M  V30 22742 H 2114.42 -6.0735 0.62914 0
M  V30 22743 H 2115.83 -5.07393 2.66881 0
M  V30 22744 H 2114.23 -4.91451 3.44377 0
M  V30 22745 H 2115.3 -3.50396 3.35188 0
M  V30 22746 N 2116.64 -0.977779 -1.23601 0
M  V30 22747 C 2117.55 -0.524039 -2.28672 0
M  V30 22748 C 2118.57 0.419894 -1.68858 0
M  V30 22749 O 2119.74 0.290458 -1.99295 0
M  V30 22750 C 2116.81 0.16886 -3.46289 0
M  V30 22751 C 2115.87 -0.81615 -4.21471 0
M  V30 22752 C 2115.1 -0.156223 -5.33471 0
M  V30 22753 O 2115.32 1.05329 -5.60591 0
M  V30 22754 O 2114.26 -0.853473 -5.95818 0
M  V30 22755 H 2118.08 -1.39778 -2.69622 0
M  V30 22756 H 2115.67 -0.745288 -1.29483 0
M  V30 22757 H 2117.55 0.557659 -4.17694 0
M  V30 22758 H 2116.23 1.0174 -3.07296 0
M  V30 22759 H 2115.13 -1.2556 -3.524 0
M  V30 22760 H 2116.47 -1.63342 -4.64306 0
M  V30 22761 N 2118.12 1.38658 -0.749111 0
M  V30 22762 C 2119.06 2.30496 -0.118423 0
M  V30 22763 C 2120.03 1.49947 0.714492 0
M  V30 22764 O 2121.22 1.78591 0.671546 0
M  V30 22765 C 2118.36 3.3635 0.772186 0
M  V30 22766 C 2117.47 4.31935 -0.0748716 0
M  V30 22767 C 2116.61 5.24859 0.818323 0
M  V30 22768 C 2115.65 6.12091 -0.0326386 0
M  V30 22769 N 2114.78 6.97327 0.817267 0
M  V30 22770 H 2119.62 2.83856 -0.90718 0
M  V30 22771 H 2117.16 1.39755 -0.459001 0
M  V30 22772 H 2119.12 3.96326 1.30313 0
M  V30 22773 H 2117.75 2.84411 1.52677 0
M  V30 22774 H 2116.8 3.73458 -0.723395 0
M  V30 22775 H 2118.11 4.93396 -0.732237 0
M  V30 22776 H 2117.27 5.8993 1.4166 0
M  V30 22777 H 2116.01 4.63754 1.50943 0
M  V30 22778 H 2115.01 5.4602 -0.643614 0
M  V30 22779 H 2116.24 6.75264 -0.720742 0
M  V30 22780 H 2114.18 6.38775 1.49341 0
M  V30 22781 H 2114.1 7.55689 0.216698 0
M  V30 22782 H 2115.37 7.66813 1.40066 0
M  V30 22783 N 2119.6 0.497834 1.49531 0
M  V30 22784 C 2120.54 -0.296019 2.30709 0
M  V30 22785 C 2121.54 -0.965727 1.39176 0
M  V30 22786 O 2122.74 -0.893777 1.56242 0
M  V30 22787 H 2119.12 -0.114319 0.74326 0
M  V30 22788 H 2121.09 0.408679 2.95588 0
M  V30 22789 C 2119.84 -1.34956 3.20441 0
M  V30 22790 H 2119.16 -0.843631 3.90798 0
M  V30 22791 H 2120.6 -1.87706 3.80187 0
M  V30 22792 C 2119.06 -2.36602 2.39836 0
M  V30 22793 O 2119.59 -3.4242 2.10027 0
M  V30 22794 N 2117.8 -2.08992 2.01918 0
M  V30 22795 H 2117.34 -1.2296 2.2636 0
M  V30 22796 H 2117.3 -2.7723 1.48293 0
M  V30 22797 N 2121.07 -1.5589 0.231532 0
M  V30 22798 C 2121.98 -2.24359 -0.685566 0
M  V30 22799 C 2123 -1.25454 -1.20571 0
M  V30 22800 O 2124.18 -1.58292 -1.24522 0
M  V30 22801 C 2121.24 -2.91783 -1.87252 0
M  V30 22802 C 2120.3 -4.06059 -1.39337 0
M  V30 22803 C 2119.53 -4.70258 -2.52375 0
M  V30 22804 O 2119.76 -4.33477 -3.70747 0
M  V30 22805 O 2118.69 -5.59063 -2.23008 0
M  V30 22806 H 2122.52 -3.03412 -0.132235 0
M  V30 22807 H 2120.1 -1.494 0.000664697 0
M  V30 22808 H 2121.98 -3.34305 -2.56551 0
M  V30 22809 H 2120.66 -2.15683 -2.41377 0
M  V30 22810 H 2119.57 -3.68086 -0.668112 0
M  V30 22811 H 2120.9 -4.83932 -0.898393 0
M  V30 22812 N 2122.55 0.0417572 -1.57545 0
M  V30 22813 C 2123.97 0.397174 -1.54579 0
M  V30 22814 C 2124.17 1.77381 -0.955943 0
M  V30 22815 O 2123.22 2.45948 -0.571457 0
M  V30 22816 C 2124.54 0.310665 -2.99091 0
M  V30 22817 C 2126.08 0.388675 -3.10577 0
M  V30 22818 C 2126.56 0.331754 -4.56797 0
M  V30 22819 N 2128.05 0.390933 -4.61547 0
M  V30 22820 C 2128.79 0.36958 -5.72208 0
M  V30 22821 N 2128.28 0.301264 -6.92145 0
M  V30 22822 N 2130.07 0.41837 -5.60541 0
M  V30 22823 H 2122.23 -0.859292 -1.94242 0
M  V30 22824 H 2124.49 -0.325513 -0.890362 0
M  V30 22825 H 2124.19 -0.634841 -3.45923 0
M  V30 22826 H 2124.07 1.10929 -3.6052 0
M  V30 22827 H 2126.46 1.32461 -2.63701 0
M  V30 22828 H 2126.54 -0.439073 -2.52004 0
M  V30 22829 H 2126.18 -0.60046 -5.04338 0
M  V30 22830 H 2126.11 1.17744 -5.13268 0
M  V30 22831 H 2128.6 0.44676 -3.7525 0
M  V30 22832 H 2128.91 0.289723 -7.72257 0
M  V30 22833 H 2127.26 0.2675 -6.94485 0
M  V30 22834 H 2130.45 0.469643 -4.65738 0
M  V30 22835 H 2130.62 0.398261 -6.46775 0
M  V30 22836 N 2124.03 1.54445 0.313786 0
M  V30 22837 C 2124.99 1.8378 1.36959 0
M  V30 22838 C 2125.99 0.710053 1.44274 0
M  V30 22839 O 2127.18 0.978359 1.44131 0
M  V30 22840 C 2124.31 2.00661 2.75586 0
M  V30 22841 H 2125.51 2.78122 1.12197 0
M  V30 22842 H 2123.06 1.46311 0.549789 0
M  V30 22843 H 2123.8 1.08564 3.05589 0
M  V30 22844 H 2123.58 2.82734 2.71669 0
M  V30 22845 H 2125.07 2.24771 3.51948 0
M  V30 22846 N 2125.51 -0.576345 1.46683 0
M  V30 22847 C 2126.75 -1.3453 1.53886 0
M  V30 22848 C 2127.11 -1.91071 0.188643 0
M  V30 22849 O 2128.31 -2.68459 0.135445 0
M  V30 22850 C 2126.58 -2.4398 2.61168 0
M  V30 22851 S 2128.14 -3.31217 2.87821 0
M  V30 22852 H 2124.96 -0.458249 0.543626 0
M  V30 22853 H 2127.56 -0.661885 1.83955 0
M  V30 22854 H 2126.27 -2.00844 3.57896 0
M  V30 22855 H 2125.8 -3.17086 2.32852 0
M  V30 22856 H 2127.81 -4.42977 2.23576 0
M  V30 22857 N 2126.99 -1.34495 -0.82151 0
M  V30 22858 C 2128.23 -1.26273 -1.57284 0
M  V30 22859 C 2128.55 0.165151 -1.94902 0
M  V30 22860 O 2129.75 0.369538 -2.68973 0
M  V30 22861 C 2128.21 -2.21361 -2.83773 0
M  V30 22862 C 2127.82 -3.69414 -2.53451 0
M  V30 22863 C 2129.56 -2.2205 -3.61793 0
M  V30 22864 C 2127.47 -4.56367 -3.76142 0
M  V30 22865 H 2126.4 -0.46909 -0.590314 0
M  V30 22866 H 2129.05 -1.59669 -0.904328 0
M  V30 22867 H 2127.43 -1.80918 -3.52256 0
M  V30 22868 H 2128.61 -4.18403 -1.93069 0
M  V30 22869 H 2126.92 -3.71187 -1.88704 0
M  V30 22870 H 2129.52 -2.84237 -4.52895 0
M  V30 22871 H 2129.86 -1.22017 -3.98017 0
M  V30 22872 H 2130.39 -2.60945 -3.00254 0
M  V30 22873 H 2127.13 -5.57341 -3.45038 0
M  V30 22874 H 2126.65 -4.12112 -4.35802 0
M  V30 22875 H 2128.33 -4.71045 -4.43537 0
M  V30 22876 N 2128.46 1.04188 -1.18248 0
M  V30 22877 C 2129.74 1.74344 -0.886757 0
M  V30 22878 C 2130.12 2.02074 0.610675 0
M  V30 22879 O 2129.47 1.66492 1.56501 0
M  V30 22880 C 2129.68 3.02952 -1.73267 0
M  V30 22881 C 2131.03 3.76712 -1.95892 0
M  V30 22882 O 2132.05 3.12847 -1.70309 0
M  V30 22883 O 2130.91 4.91493 -2.38949 0
M  V30 22884 H 2128 0.758616 -0.329288 0
M  V30 22885 H 2130.55 1.10265 -1.28995 0
M  V30 22886 H 2129.32 2.78587 -2.74782 0
M  V30 22887 H 2128.95 3.7477 -1.3279 0
M  V30 22888 N 2129.94 0.98432 1.23081 0
M  V30 22889 C 2131.19 0.655381 1.91601 0
M  V30 22890 C 2131.52 -0.811558 1.7676 0
M  V30 22891 O 2130.77 -1.60138 1.12491 0
M  V30 22892 C 2131.07 0.996551 3.43225 0
M  V30 22893 C 2130.74 2.45434 3.7825 0
M  V30 22894 C 2129.4 2.85274 3.87521 0
M  V30 22895 C 2131.75 3.39965 3.95061 0
M  V30 22896 C 2129.08 4.18651 4.11033 0
M  V30 22897 C 2131.43 4.7299 4.20075 0
M  V30 22898 C 2130.1 5.12583 4.27569 0
M  V30 22899 H 2129.37 0.239821 0.701118 0
M  V30 22900 H 2132.01 1.23891 1.46025 0
M  V30 22901 H 2130.32 0.330986 3.90399 0
M  V30 22902 H 2132.01 0.720194 3.9448 0
M  V30 22903 H 2128.6 2.1355 3.71611 0
M  V30 22904 H 2132.79 3.10361 3.87285 0
M  V30 22905 H 2128.04 4.48928 4.15059 0
M  V30 22906 H 2132.22 5.46192 4.32027 0
M  V30 22907 H 2129.85 6.15952 4.45541 0
M  V30 22908 N 2131.42 -1.38259 0.756453 0
M  V30 22909 C 2132.38 -2.28779 0.138891 0
M  V30 22910 C 2133.38 -1.47321 -0.644449 0
M  V30 22911 O 2134.57 -1.67732 -0.470292 0
M  V30 22912 C 2131.71 -3.311 -0.811535 0
M  V30 22913 H 2132.9 -2.84898 0.936651 0
M  V30 22914 H 2130.45 -1.47267 0.52365 0
M  V30 22915 H 2131.19 -2.80076 -1.63487 0
M  V30 22916 H 2130.97 -3.91288 -0.252199 0
M  V30 22917 H 2132.46 -3.9878 -1.23953 0
M  V30 22918 N 2132.9 -0.505757 -1.49264 0
M  V30 22919 C 2134.15 0.0389421 -2.01662 0
M  V30 22920 C 2134.46 1.37604 -1.39012 0
M  V30 22921 O 2135.67 2.00771 -1.82766 0
M  V30 22922 C 2134.12 0.119854 -3.597 0
M  V30 22923 C 2133.73 -1.21089 -4.31325 0
M  V30 22924 C 2135.47 0.614665 -4.20026 0
M  V30 22925 C 2133.38 -1.09188 -5.81233 0
M  V30 22926 H 2132.31 0.0183265 -0.753777 0
M  V30 22927 H 2134.96 -0.645894 -1.71757 0
M  V30 22928 H 2133.34 0.869244 -3.86342 0
M  V30 22929 H 2134.52 -1.97394 -4.1638 0
M  V30 22930 H 2132.83 -1.63951 -3.82765 0
M  V30 22931 H 2135.43 0.721287 -5.29813 0
M  V30 22932 H 2135.77 1.61466 -3.83711 0
M  V30 22933 H 2136.31 -0.0783291 -3.97723 0
M  V30 22934 H 2133.05 -2.06629 -6.22081 0
M  V30 22935 H 2132.57 -0.369793 -5.98659 0
M  V30 22936 H 2134.24 -0.772559 -6.42371 0
M  V30 22937 N 2134.38 1.55765 -0.239796 0
M  V30 22938 C 2135.6 2.03618 0.394243 0
M  V30 22939 C 2136.03 1.1181 1.51261 0
M  V30 22940 O 2135.38 0.1097 1.80968 0
M  V30 22941 C 2135.43 3.49545 0.886029 0
M  V30 22942 O 2134.54 3.60872 1.99613 0
M  V30 22943 H 2133.88 0.658289 0.0869012 0
M  V30 22944 H 2136.41 2.0134 -0.363774 0
M  V30 22945 H 2136.42 3.90226 1.1911 0
M  V30 22946 H 2135.09 4.15845 0.0675883 0
M  V30 22947 H 2133.67 3.32085 1.6963 0
M  V30 22948 N 2135.85 -0.0334016 1.57565 0
M  V30 22949 C 2136.82 -1.01998 2.05253 0
M  V30 22950 C 2137.82 -1.29303 0.955901 0
M  V30 22951 O 2139.01 -1.24379 1.21965 0
M  V30 22952 C 2136.14 -2.35395 2.4658 0
M  V30 22953 H 2137.33 -0.608136 2.93669 0
M  V30 22954 H 2134.89 -0.280124 1.53769 0
M  V30 22955 H 2135.62 -2.81337 1.61307 0
M  V30 22956 H 2135.41 -2.16908 3.26639 0
M  V30 22957 H 2136.9 -3.06235 2.83918 0
M  V30 22958 N 2137.33 -1.54609 -0.305591 0
M  V30 22959 C 2138.28 -1.85242 -1.37673 0
M  V30 22960 C 2139.25 -0.700952 -1.50585 0
M  V30 22961 O 2140.43 -0.949135 -1.65518 0
M  V30 22962 C 2137.57 -2.10127 -2.73753 0
M  V30 22963 C 2136.69 -3.37767 -2.69328 0
M  V30 22964 C 2135.82 -3.52519 -3.97371 0
M  V30 22965 C 2134.86 -4.73968 -3.87325 0
M  V30 22966 N 2134 -4.8555 -5.07135 0
M  V30 22967 H 2138.84 -2.76616 -1.10849 0
M  V30 22968 H 2136.38 -1.36978 -0.536239 0
M  V30 22969 H 2138.33 -2.22549 -3.52885 0
M  V30 22970 H 2136.96 -1.22025 -2.98847 0
M  V30 22971 H 2136.02 -3.33989 -1.82086 0
M  V30 22972 H 2137.33 -4.27018 -2.57793 0
M  V30 22973 H 2136.48 -3.64581 -4.84939 0
M  V30 22974 H 2135.22 -2.61393 -4.11734 0
M  V30 22975 H 2134.23 -4.61944 -2.98141 0
M  V30 22976 H 2135.45 -5.66496 -3.74511 0
M  V30 22977 H 2133.4 -3.97345 -5.2197 0
M  V30 22978 H 2133.31 -5.68794 -4.98005 0
M  V30 22979 H 2134.58 -5.01963 -5.96367 0
M  V30 22980 N 2138.81 0.568558 -1.46987 0
M  V30 22981 C 2140.22 1.1507 -1.47023 0
M  V30 22982 C 2140.57 1.94977 -0.218726 0
M  V30 22983 O 2139.7 2.05531 0.677201 0
M  V30 22984 C 2140.29 2.09348 -2.66381 0
M  V30 22985 C 2138.85 2.62857 -2.69413 0
M  V30 22986 C 2138 1.39006 -2.39943 0
M  V30 22987 H 2140.95 0.355745 -1.54661 0
M  V30 22988 H 2140.97 2.93044 -2.42705 0
M  V30 22989 H 2140.48 1.51163 -3.57451 0
M  V30 22990 H 2138.58 3.24872 -1.82452 0
M  V30 22991 H 2138.7 3.04626 -3.69784 0
M  V30 22992 H 2137.06 1.69297 -1.90291 0
M  V30 22993 H 2137.84 0.826309 -3.33207 0
M  V30 22994 N 2140.29 1.34929 0.814366 0
M  V30 22995 C 2141.22 1.29866 1.94055 0
M  V30 22996 C 2142.2 0.174504 1.69203 0
M  V30 22997 O 2143.38 0.368232 1.90677 0
M  V30 22998 C 2140.51 1.06201 3.30664 0
M  V30 22999 C 2139.47 2.15174 3.69978 0
M  V30 23000 C 2138.79 1.76686 5.04664 0
M  V30 23001 C 2140.09 3.57077 3.81174 0
M  V30 23002 H 2141.79 2.24095 1.98549 0
M  V30 23003 H 2139.33 1.07877 0.953865 0
M  V30 23004 H 2141.29 1.01301 4.09043 0
M  V30 23005 H 2140.01 0.0841549 3.26492 0
M  V30 23006 H 2138.67 2.19158 2.9388 0
M  V30 23007 H 2138.32 0.775388 4.96988 0
M  V30 23008 H 2138.02 2.49628 5.3194 0
M  V30 23009 H 2139.54 1.73297 5.85492 0
M  V30 23010 H 2140.96 3.55458 4.49803 0
M  V30 23011 H 2139.35 4.28713 4.19911 0
M  V30 23012 H 2140.42 3.93795 2.82937 0
M  V30 23013 N 2141.77 -1.0356 1.18799 0
M  V30 23014 C 2142.99 -1.80487 1.01153 0
M  V30 23015 C 2143.41 -1.83603 -0.439927 0
M  V30 23016 O 2142.77 -1.27518 -1.30558 0
M  V30 23017 C 2142.82 -3.25853 1.56532 0
M  V30 23018 O 2142.54 -3.22983 2.95996 0
M  V30 23019 C 2144.04 -4.19406 1.43575 0
M  V30 23020 H 2141.26 -0.568214 0.356895 0
M  V30 23021 H 2143.8 -1.30482 1.57463 0
M  V30 23022 H 2141.96 -3.73071 1.04387 0
M  V30 23023 H 2142.37 -4.14085 3.21922 0
M  V30 23024 H 2143.85 -5.19319 1.87114 0
M  V30 23025 H 2144.32 -4.37507 0.385237 0
M  V30 23026 H 2144.93 -3.78055 1.94818 0
M  V30 23027 N 2143.25 -0.990834 -1.22557 0
M  V30 23028 C 2144.66 -0.701213 -1.43371 0
M  V30 23029 C 2144.86 0.728876 -1.87855 0
M  V30 23030 O 2143.92 1.50004 -2.03113 0
M  V30 23031 C 2145.23 -1.70503 -2.47688 0
M  V30 23032 C 2146.78 -1.72024 -2.61489 0
M  V30 23033 C 2147.25 -2.71263 -3.69026 0
M  V30 23034 N 2148.74 -2.69845 -3.76481 0
M  V30 23035 C 2149.48 -3.43297 -4.59276 0
M  V30 23036 N 2148.98 -4.26343 -5.4608 0
M  V30 23037 N 2150.77 -3.32013 -4.53568 0
M  V30 23038 H 2142.92 -1.91447 -0.919875 0
M  V30 23039 H 2145.18 -0.825544 -0.466027 0
M  V30 23040 H 2144.89 -2.72827 -2.21942 0
M  V30 23041 H 2144.76 -1.49623 -3.46256 0
M  V30 23042 H 2147.15 -0.70399 -2.8658 0
M  V30 23043 H 2147.23 -1.96973 -1.63203 0
M  V30 23044 H 2146.87 -3.73036 -3.44683 0
M  V30 23045 H 2146.8 -2.43585 -4.66877 0
M  V30 23046 H 2149.3 -2.09583 -3.14457 0
M  V30 23047 H 2149.61 -4.79221 -6.06273 0
M  V30 23048 H 2147.95 -4.30431 -5.45669 0
M  V30 23049 H 2151.14 -2.66577 -3.84778 0
M  V30 23050 H 2151.32 -3.89516 -5.17862 0
M  V30 23051 N 2144.72 1.37856 -0.763775 0
M  V30 23052 C 2145.95 2.03864 -0.335144 0
M  V30 23053 C 2146.36 1.57732 1.04486 0
M  V30 23054 O 2145.7 0.750289 1.67679 0
M  V30 23055 C 2145.77 3.58323 -0.290657 0
M  V30 23056 C 2145.43 4.27554 -1.61391 0
M  V30 23057 C 2146.43 4.52225 -2.56494 0
M  V30 23058 C 2144.11 4.65542 -1.88615 0
M  V30 23059 C 2146.11 5.13931 -3.77033 0
M  V30 23060 C 2143.79 5.26971 -3.09426 0
M  V30 23061 C 2144.79 5.51102 -4.03455 0
M  V30 23062 O 2144.48 6.11248 -5.2214 0
M  V30 23063 H 2144.21 0.661438 -0.139556 0
M  V30 23064 H 2146.77 1.77331 -1.03648 0
M  V30 23065 H 2145 3.8387 0.467001 0
M  V30 23066 H 2146.68 4.05751 0.109828 0
M  V30 23067 H 2147.45 4.23296 -2.3674 0
M  V30 23068 H 2143.33 4.461 -1.16258 0
M  V30 23069 H 2146.87 5.32682 -4.5044 0
M  V30 23070 H 2142.77 5.55324 -3.29068 0
M  V30 23071 H 2143.54 6.29731 -5.22859 0
M  V30 23072 N 2146.2 0.513665 1.48994 0
M  V30 23073 C 2147.13 -0.304885 2.26154 0
M  V30 23074 C 2148.11 -0.959269 1.31289 0
M  V30 23075 O 2149.3 -0.98688 1.60602 0
M  V30 23076 C 2146.42 -1.4304 3.07013 0
M  V30 23077 C 2145.47 -0.889102 4.1713 0
M  V30 23078 S 2146.3 0.230168 5.35005 0
M  V30 23079 C 2147.46 -0.898215 6.19421 0
M  V30 23080 H 2147.69 0.349986 2.95233 0
M  V30 23081 H 2145.22 0.299168 1.51474 0
M  V30 23082 H 2147.18 -2.07523 3.54181 0
M  V30 23083 H 2145.84 -2.05693 2.3738 0
M  V30 23084 H 2145.04 -1.73296 4.7327 0
M  V30 23085 H 2144.64 -0.321262 3.72618 0
M  V30 23086 H 2146.93 -1.80061 6.53134 0
M  V30 23087 H 2147.87 -0.375152 7.07106 0
M  V30 23088 H 2148.28 -1.17126 5.52215 0
M  V30 23089 N 2147.68 -1.55636 0.248053 0
M  V30 23090 C 2149.09 -1.84952 -0.254884 0
M  V30 23091 C 2149.44 -1.16988 -1.57506 0
M  V30 23092 O 2148.57 -0.448668 -2.11698 0
M  V30 23093 C 2149.16 -3.35535 -0.469244 0
M  V30 23094 C 2147.72 -3.65073 -0.916445 0
M  V30 23095 C 2146.87 -2.77299 0.00568866 0
M  V30 23096 H 2149.82 -1.51563 0.470584 0
M  V30 23097 H 2149.84 -3.57176 -1.31169 0
M  V30 23098 H 2149.35 -3.84972 0.491761 0
M  V30 23099 H 2147.45 -3.21114 -1.88988 0
M  V30 23100 H 2147.57 -4.72831 -0.772508 0
M  V30 23101 H 2145.93 -2.49626 -0.505882 0
M  V30 23102 H 2146.71 -3.29543 0.962088 0
M  V30 23103 N 2149.16 0.0250451 -1.5758 0
M  V30 23104 C 2150.09 1.05207 -2.03627 0
M  V30 23105 C 2151.1 1.32224 -0.949769 0
M  V30 23106 O 2152.29 1.29641 -1.22701 0
M  V30 23107 C 2149.39 2.39277 -2.39999 0
M  V30 23108 C 2148.56 2.31559 -3.71078 0
M  V30 23109 C 2147.62 3.48111 -3.94595 0
M  V30 23110 O 2146.65 3.27424 -4.65599 0
M  V30 23111 N 2147.85 4.70117 -3.40545 0
M  V30 23112 H 2150.62 0.659567 -2.92352 0
M  V30 23113 H 2148.18 0.212915 -1.60494 0
M  V30 23114 H 2150.17 3.15976 -2.52866 0
M  V30 23115 H 2148.74 2.70358 -1.56924 0
M  V30 23116 H 2147.96 1.39933 -3.68527 0
M  V30 23117 H 2149.25 2.23549 -4.57059 0
M  V30 23118 H 2148.65 4.89824 -2.83 0
M  V30 23119 H 2147.2 5.44167 -3.58784 0
M  V30 23120 N 2150.64 1.54769 0.297388 0
M  V30 23121 C 2151.58 1.86729 1.3869 0
M  V30 23122 C 2152.58 0.741344 1.52317 0
M  V30 23123 O 2153.78 0.925384 1.54391 0
M  V30 23124 H 2150.16 0.592301 0.463339 0
M  V30 23125 H 2152.13 2.77791 1.08972 0
M  V30 23126 C 2150.88 2.13444 2.74475 0
M  V30 23127 H 2150.2 2.99558 2.64773 0
M  V30 23128 H 2151.64 2.39744 3.49712 0
M  V30 23129 C 2150.1 0.934151 3.2369 0
M  V30 23130 O 2150.63 0.156464 4.01395 0
M  V30 23131 N 2148.84 0.738537 2.81059 0
M  V30 23132 H 2148.38 1.37261 2.17984 0
M  V30 23133 H 2148.34 -0.0630002 3.14337 0
M  V30 23134 N 2152.11 -0.560755 1.47286 0
M  V30 23135 C 2153.53 -0.886333 1.32726 0
M  V30 23136 C 2153.73 -1.99021 0.31509 0
M  V30 23137 O 2152.79 -2.51002 -0.274638 0
M  V30 23138 C 2154.1 -1.28292 2.71959 0
M  V30 23139 C 2155.65 -1.39455 2.80217 0
M  V30 23140 C 2156.12 -1.8247 4.20082 0
M  V30 23141 N 2157.61 -1.89627 4.22606 0
M  V30 23142 C 2158.35 -2.24232 5.27738 0
M  V30 23143 N 2157.84 -2.57475 6.43178 0
M  V30 23144 N 2159.64 -2.24975 5.15114 0
M  V30 23145 H 2151.79 0.168088 2.11734 0
M  V30 23146 H 2154.05 0.0125326 0.947917 0
M  V30 23147 H 2153.76 -0.545664 3.47441 0
M  V30 23148 H 2153.63 -2.23983 3.03499 0
M  V30 23149 H 2156.02 -2.12262 2.05009 0
M  V30 23150 H 2156.1 -0.419601 2.52335 0
M  V30 23151 H 2155.74 -1.10234 4.95793 0
M  V30 23152 H 2155.67 -2.80962 4.45385 0
M  V30 23153 H 2158.16 -1.66337 3.39323 0
M  V30 23154 H 2158.48 -2.82897 7.19159 0
M  V30 23155 H 2156.82 -2.55063 6.46504 0
M  V30 23156 H 2160.01 -1.98441 4.23956 0
M  V30 23157 H 2160.19 -2.51614 5.97155 0
M  V30 23158 N 2153.59 -1.35359 -0.807199 0
M  V30 23159 C 2154.52 -1.24083 -1.92707 0
M  V30 23160 C 2155.54 -0.164267 -1.61969 0
M  V30 23161 O 2156.73 -0.417487 -1.73549 0
M  V30 23162 C 2153.83 -0.88785 -3.27063 0
M  V30 23163 C 2153 -2.06266 -3.85711 0
M  V30 23164 C 2152.06 -1.68555 -4.98473 0
M  V30 23165 O 2151.08 -2.40421 -5.15933 0
M  V30 23166 N 2152.29 -0.608828 -5.77298 0
M  V30 23167 H 2155.05 -2.20565 -2.02907 0
M  V30 23168 H 2152.61 -1.2852 -0.984589 0
M  V30 23169 H 2154.6 -0.61707 -3.99968 0
M  V30 23170 H 2153.17 -0.0127324 -3.12597 0
M  V30 23171 H 2152.39 -2.49727 -3.05008 0
M  V30 23172 H 2153.68 -2.84796 -4.21626 0
M  V30 23173 H 2153.08 -0.0117274 -5.65699 0
M  V30 23174 H 2151.64 -0.397827 -6.50585 0
M  V30 23175 N 2155.07 1.02928 -1.19346 0
M  V30 23176 C 2156.29 1.80485 -1.02175 0
M  V30 23177 C 2156.72 1.83238 0.424925 0
M  V30 23178 O 2156.08 1.25809 1.30545 0
M  V30 23179 C 2156.13 3.23415 -1.59483 0
M  V30 23180 O 2155.23 4.04087 -0.823877 0
M  V30 23181 H 2154.57 0.557177 -0.361178 0
M  V30 23182 H 2157.1 1.29551 -1.5836 0
M  V30 23183 H 2157.11 3.74164 -1.62681 0
M  V30 23184 H 2155.79 3.20727 -2.64777 0
M  V30 23185 H 2154.36 3.62726 -0.865114 0
M  V30 23186 N 2156.55 0.997319 1.2203 0
M  V30 23187 C 2157.79 0.675666 1.90895 0
M  V30 23188 C 2158.12 -0.792764 1.77611 0
M  V30 23189 O 2157.38 -1.58936 1.14183 0
M  V30 23190 C 2157.68 1.0329 3.42149 0
M  V30 23191 C 2157.34 2.49432 3.75625 0
M  V30 23192 C 2156 2.89368 3.84473 0
M  V30 23193 C 2158.36 3.44136 3.91433 0
M  V30 23194 C 2155.68 4.22987 4.0657 0
M  V30 23195 C 2158.04 4.77419 4.15035 0
M  V30 23196 C 2156.7 5.17089 4.22108 0
M  V30 23197 H 2155.97 0.247244 0.698535 0
M  V30 23198 H 2158.62 1.25433 1.44703 0
M  V30 23199 H 2156.92 0.372375 3.90026 0
M  V30 23200 H 2158.62 0.761993 3.93694 0
M  V30 23201 H 2155.21 2.17479 3.69325 0
M  V30 23202 H 2159.39 3.14451 3.83972 0
M  V30 23203 H 2154.65 4.53305 4.10274 0
M  V30 23204 H 2158.82 5.50743 4.2621 0
M  V30 23205 H 2156.45 6.20643 4.38983 0
M  V30 23206 N 2158.03 -1.37449 0.771075 0
M  V30 23207 C 2158.96 -2.28911 0.115106 0
M  V30 23208 C 2159.97 -1.48601 -0.664961 0
M  V30 23209 O 2161.16 -1.71262 -0.503164 0
M  V30 23210 C 2158.26 -3.2779 -0.860623 0
M  V30 23211 C 2157.43 -4.37193 -0.134514 0
M  V30 23212 C 2156.49 -5.1615 -1.02351 0
M  V30 23213 O 2155.52 -5.67108 -0.487536 0
M  V30 23214 N 2156.72 -5.30813 -2.34985 0
M  V30 23215 H 2159.49 -2.85846 0.900671 0
M  V30 23216 H 2157.05 -1.49418 0.623366 0
M  V30 23217 H 2159.04 -3.77494 -1.45877 0
M  V30 23218 H 2157.61 -2.71628 -1.54716 0
M  V30 23219 H 2156.83 -3.88895 0.644535 0
M  V30 23220 H 2158.12 -5.07473 0.367248 0
M  V30 23221 H 2157.51 -4.90993 -2.80966 0
M  V30 23222 H 2156.07 -5.83828 -2.89808 0
M  V30 23223 N 2159.5 -0.52156 -1.4872 0
M  V30 23224 C 2160.73 0.0117795 -2.06597 0
M  V30 23225 C 2161.14 1.29478 -1.37957 0
M  V30 23226 O 2160.49 1.77894 -0.458208 0
M  V30 23227 C 2160.55 0.314883 -3.58118 0
M  V30 23228 C 2160.21 -0.873397 -4.48576 0
M  V30 23229 C 2161.21 -1.76953 -4.8886 0
M  V30 23230 C 2158.89 -1.07801 -4.90596 0
M  V30 23231 C 2160.89 -2.85425 -5.69922 0
M  V30 23232 C 2158.57 -2.16589 -5.7143 0
M  V30 23233 C 2159.57 -3.05234 -6.11 0
M  V30 23234 O 2159.26 -4.1214 -6.90214 0
M  V30 23235 H 2158.99 -0.0265589 -0.675478 0
M  V30 23236 H 2161.55 -0.724145 -1.92212 0
M  V30 23237 H 2159.78 1.10467 -3.70586 0
M  V30 23238 H 2161.47 0.789292 -3.98152 0
M  V30 23239 H 2162.23 -1.62335 -4.57026 0
M  V30 23240 H 2158.11 -0.397342 -4.59284 0
M  V30 23241 H 2161.65 -3.54643 -6.00728 0
M  V30 23242 H 2157.55 -2.31193 -6.02677 0
M  V30 23243 H 2158.32 -4.09746 -7.08555 0
M  V30 23244 N 2160.98 1.55502 -0.256304 0
M  V30 23245 C 2161.93 2.2177 0.63926 0
M  V30 23246 C 2162.9 1.18474 1.16418 0
M  V30 23247 O 2164.08 1.46954 1.21693 0
M  V30 23248 C 2161.22 2.92819 1.82623 0
M  V30 23249 C 2160.34 4.10791 1.33695 0
M  V30 23250 C 2159.47 4.69531 2.48423 0
M  V30 23251 C 2158.51 5.79735 1.96403 0
M  V30 23252 N 2157.65 6.32617 3.04533 0
M  V30 23253 H 2162.49 2.97924 0.0674772 0
M  V30 23254 H 2160.03 1.47084 0.0215424 0
M  V30 23255 H 2161.98 3.32216 2.52366 0
M  V30 23256 H 2160.61 2.19122 2.37034 0
M  V30 23257 H 2159.67 3.76644 0.533253 0
M  V30 23258 H 2160.98 4.90321 0.915786 0
M  V30 23259 H 2160.13 5.11551 3.26191 0
M  V30 23260 H 2158.87 3.89238 2.93845 0
M  V30 23261 H 2157.88 5.37183 1.17108 0
M  V30 23262 H 2159.1 6.61885 1.51939 0
M  V30 23263 H 2157.05 5.55225 3.49372 0
M  V30 23264 H 2156.96 7.07366 2.66776 0
M  V30 23265 H 2158.23 6.79295 3.82332 0
M  V30 23266 N 2162.46 -0.0166879 1.57591 0
M  V30 23267 C 2163.69 -0.716426 1.941 0
M  V30 23268 C 2164.1 -1.68225 0.857081 0
M  V30 23269 O 2163.46 -1.81748 -0.165469 0
M  V30 23270 C 2163.51 -1.46279 3.30583 0
M  V30 23271 O 2163.23 -0.535718 4.34812 0
M  V30 23272 C 2164.73 -2.25856 3.8145 0
M  V30 23273 H 2161.95 -0.200593 0.640315 0
M  V30 23274 H 2164.5 0.0294696 2.04479 0
M  V30 23275 H 2162.65 -2.16045 3.21564 0
M  V30 23276 H 2163.07 -1.06046 5.13668 0
M  V30 23277 H 2164.54 -2.73602 4.79423 0
M  V30 23278 H 2165.02 -3.07813 3.13285 0
M  V30 23279 H 2165.62 -1.61139 3.93592 0
M  V30 23280 N 2163.94 -1.54924 -0.289176 0
M  V30 23281 C 2165.18 -1.75953 -1.0204 0
M  V30 23282 C 2165.54 -0.545125 -1.84516 0
M  V30 23283 O 2164.83 0.462389 -1.85937 0
M  V30 23284 C 2165.03 -2.99629 -1.94826 0
M  V30 23285 C 2164.86 -4.32981 -1.21479 0
M  V30 23286 C 2163.63 -4.96535 -0.937093 0
M  V30 23287 C 2165.82 -5.1063 -0.613293 0
M  V30 23288 N 2163.81 -6.1365 -0.175138 0
M  V30 23289 C 2165.18 -6.19998 0.0152977 0
M  V30 23290 C 2167.23 -4.95182 -0.519521 0
M  V30 23291 C 2165.93 -7.156 0.728603 0
M  V30 23292 C 2167.96 -5.91126 0.180156 0
M  V30 23293 C 2167.32 -6.9987 0.79755 0
M  V30 23294 H 2163.42 -0.696307 -0.355922 0
M  V30 23295 H 2166.01 -1.9241 -0.297755 0
M  V30 23296 H 2164.18 -2.84576 -2.64331 0
M  V30 23297 H 2165.91 -3.09132 -2.61189 0
M  V30 23298 H 2162.66 -4.57126 -1.23827 0
M  V30 23299 H 2163.09 -6.76726 0.192698 0
M  V30 23300 H 2167.73 -4.11225 -0.982538 0
M  V30 23301 H 2165.45 -7.9909 1.20335 0
M  V30 23302 H 2169.03 -5.8125 0.252814 0
M  V30 23303 H 2167.91 -7.72833 1.33034 0
M  V30 23304 N 2165.42 0.552936 -1.47582 0
M  V30 23305 C 2166.64 1.33522 -1.58049 0
M  V30 23306 C 2167.06 1.87366 -0.232239 0
M  V30 23307 O 2166.42 1.6522 0.775159 0
M  V30 23308 C 2166.47 2.50216 -2.60911 0
M  V30 23309 O 2166.19 1.98596 -3.90502 0
M  V30 23310 C 2167.69 3.42367 -2.81602 0
M  V30 23311 H 2164.91 0.406868 -0.533572 0
M  V30 23312 H 2167.45 0.669389 -1.93234 0
M  V30 23313 H 2165.61 3.12728 -2.28648 0
M  V30 23314 H 2166.02 2.74809 -4.46744 0
M  V30 23315 H 2167.5 4.20653 -3.57429 0
M  V30 23316 H 2167.97 3.96177 -1.8958 0
M  V30 23317 H 2168.58 2.85666 -3.15079 0
M  V30 23318 N 2166.89 1.35785 0.800009 0
M  V30 23319 C 2168.14 1.29425 1.55741 0
M  V30 23320 C 2168.47 -0.129487 1.94068 0
M  V30 23321 O 2167.72 -1.09631 1.6211 0
M  V30 23322 C 2168.02 2.15261 2.85302 0
M  V30 23323 C 2167.69 3.63962 2.66162 0
M  V30 23324 C 2166.35 4.04493 2.60651 0
M  V30 23325 C 2168.7 4.58288 2.48238 0
M  V30 23326 C 2166.03 5.37507 2.35166 0
M  V30 23327 C 2168.38 5.91507 2.24281 0
M  V30 23328 C 2167.05 6.31175 2.17195 0
M  V30 23329 H 2166.32 0.473601 0.569898 0
M  V30 23330 H 2168.96 1.67742 0.923842 0
M  V30 23331 H 2167.27 1.69846 3.53071 0
M  V30 23332 H 2168.97 2.07672 3.43036 0
M  V30 23333 H 2165.56 3.31802 2.71303 0
M  V30 23334 H 2169.74 4.27854 2.51504 0
M  V30 23335 H 2165 5.67235 2.28154 0
M  V30 23336 H 2169.17 6.64171 2.09403 0
M  V30 23337 H 2166.8 7.34175 1.9721 0
M  V30 23338 N 2168.37 -1.02294 1.19891 0
M  V30 23339 C 2169.62 -1.76051 1.00667 0
M  V30 23340 C 2169.95 -1.88654 -0.460802 0
M  V30 23341 O 2169.23 -1.4077 -1.34216 0
M  V30 23342 C 2169.51 -3.18331 1.68338 0
M  V30 23343 C 2169.36 -3.13562 3.22489 0
M  V30 23344 C 2170.68 -4.16859 1.41125 0
M  V30 23345 H 2167.8 -0.639057 0.367117 0
M  V30 23346 H 2170.44 -1.19377 1.47815 0
M  V30 23347 H 2168.59 -3.6672 1.28252 0
M  V30 23348 H 2170.26 -2.73025 3.71827 0
M  V30 23349 H 2168.51 -2.51121 3.53724 0
M  V30 23350 H 2169.18 -4.1411 3.64989 0
M  V30 23351 H 2171.65 -3.77097 1.75889 0
M  V30 23352 H 2170.53 -5.14592 1.91015 0
M  V30 23353 H 2170.79 -4.40809 0.33758 0
M  V30 23354 N 2169.85 -1.00378 -1.21499 0
M  V30 23355 C 2171.1 -0.686796 -1.90817 0
M  V30 23356 C 2171.43 0.780348 -1.77832 0
M  V30 23357 O 2170.7 1.56554 -1.15418 0
M  V30 23358 C 2170.99 -1.10705 -3.42661 0
M  V30 23359 C 2170.84 -2.63355 -3.64642 0
M  V30 23360 C 2172.16 -0.668506 -4.34993 0
M  V30 23361 H 2169.28 -0.250976 -0.69295 0
M  V30 23362 H 2171.92 -1.24924 -1.43157 0
M  V30 23363 H 2170.07 -0.628496 -3.83383 0
M  V30 23364 H 2171.74 -3.18964 -3.33256 0
M  V30 23365 H 2169.99 -3.04925 -3.0855 0
M  V30 23366 H 2170.66 -2.87812 -4.71029 0
M  V30 23367 H 2173.13 -1.07972 -4.01847 0
M  V30 23368 H 2172.01 -0.990733 -5.39885 0
M  V30 23369 H 2172.27 0.430413 -4.4 0
M  V30 23370 N 2171.33 1.37038 -0.778354 0
M  V30 23371 C 2172.55 2.0432 -0.356086 0
M  V30 23372 C 2172.98 1.58315 1.01577 0
M  V30 23373 O 2172.34 0.74645 1.65221 0
M  V30 23374 C 2172.38 3.58196 -0.41573 0
M  V30 23375 O 2171.49 4.08281 0.581416 0
M  V30 23376 H 2170.83 0.646127 -0.153022 0
M  V30 23377 H 2173.36 1.75219 -1.05639 0
M  V30 23378 H 2173.37 4.0707 -0.275375 0
M  V30 23379 H 2172.04 3.91034 -1.41652 0
M  V30 23380 H 2170.62 3.70709 0.403635 0
M  V30 23381 N 2172.81 0.529439 1.48441 0
M  V30 23382 C 2174.22 0.0888387 1.86489 0
M  V30 23383 C 2174.57 -1.33364 1.43905 0
M  V30 23384 O 2173.69 -1.9987 0.829524 0
M  V30 23385 C 2174.29 0.154445 3.38448 0
M  V30 23386 C 2172.85 -0.230958 3.75691 0
M  V30 23387 C 2172 0.514449 2.72486 0
M  V30 23388 H 2174.95 0.740717 1.40353 0
M  V30 23389 H 2174.97 -0.63398 3.75181 0
M  V30 23390 H 2174.48 1.18985 3.69411 0
M  V30 23391 H 2172.58 -1.26853 3.50341 0
M  V30 23392 H 2172.69 0.108275 4.78978 0
M  V30 23393 H 2171.06 -0.039218 2.5467 0
M  V30 23394 H 2171.84 1.55048 3.06293 0
M  V30 23395 N 2174.29 -1.55364 0.264547 0
M  V30 23396 C 2175.7 -1.85212 -0.235254 0
M  V30 23397 C 2176.05 -1.18652 -1.56256 0
M  V30 23398 O 2175.17 -0.471096 -2.1121 0
M  V30 23399 C 2175.77 -3.36014 -0.43363 0
M  V30 23400 C 2174.33 -3.66024 -0.877673 0
M  V30 23401 C 2173.47 -2.77278 0.0350996 0
M  V30 23402 H 2176.42 -1.51055 0.486633 0
M  V30 23403 H 2176.45 -3.58548 -1.27373 0
M  V30 23404 H 2175.96 -3.84429 0.532565 0
M  V30 23405 H 2174.06 -3.23101 -1.85571 0
M  V30 23406 H 2174.17 -4.73624 -0.722315 0
M  V30 23407 H 2172.54 -2.50148 -0.479378 0
M  V30 23408 H 2173.32 -3.28504 0.996986 0
M  V30 23409 N 2175.76 0.00833021 -1.57598 0
M  V30 23410 C 2177.01 0.694911 -1.90203 0
M  V30 23411 C 2177.34 1.74238 -0.864369 0
M  V30 23412 O 2176.59 1.95254 0.131976 0
M  V30 23413 C 2176.89 1.38284 -3.29564 0
M  V30 23414 C 2176.56 0.469372 -4.4845 0
M  V30 23415 C 2175.22 0.21784 -4.80707 0
M  V30 23416 C 2177.57 -0.160058 -5.20954 0
M  V30 23417 C 2174.9 -0.671554 -5.82844 0
M  V30 23418 C 2177.25 -1.03728 -6.24038 0
M  V30 23419 C 2175.92 -1.29807 -6.54757 0
M  V30 23420 H 2175.19 0.254286 -0.696003 0
M  V30 23421 H 2177.83 -0.0454086 -1.91446 0
M  V30 23422 H 2176.14 2.197 -3.24406 0
M  V30 23423 H 2177.84 1.91998 -3.52048 0
M  V30 23424 H 2174.43 0.675583 -4.23242 0
M  V30 23425 H 2178.61 0.0212698 -4.96295 0
M  V30 23426 H 2173.87 -0.881698 -6.05009 0
M  V30 23427 H 2178.04 -1.5314 -6.79353 0
M  V30 23428 H 2175.67 -1.98894 -7.3372 0
M  V30 23429 N 2177.24 1.55075 0.280956 0
M  V30 23430 C 2178.15 1.90495 1.36927 0
M  V30 23431 C 2179.17 0.801283 1.54452 0
M  V30 23432 O 2180.34 1.09962 1.68732 0
M  V30 23433 C 2177.41 2.16264 2.70981 0
M  V30 23434 C 2176.47 3.39872 2.6227 0
M  V30 23435 C 2175.7 3.64402 3.89932 0
M  V30 23436 O 2175.93 2.91582 4.90241 0
M  V30 23437 O 2174.86 4.57934 3.90615 0
M  V30 23438 H 2178.69 2.83123 1.09888 0
M  V30 23439 H 2176.27 1.4152 0.478787 0
M  V30 23440 H 2178.15 2.34299 3.5026 0
M  V30 23441 H 2176.83 1.2682 2.97823 0
M  V30 23442 H 2175.73 3.2718 1.81395 0
M  V30 23443 H 2177.07 4.2951 2.40379 0
M  V30 23444 N 2178.72 -0.545102 1.47873 0
M  V30 23445 C 2179.95 -1.3249 1.58525 0
M  V30 23446 C 2180.36 -1.87685 0.238932 0
M  V30 23447 O 2179.7 -1.6633 -0.779752 0
M  V30 23448 C 2179.76 -2.52362 2.56035 0
M  V30 23449 C 2179.43 -2.18364 4.01455 0
M  V30 23450 C 2180.42 -1.74934 4.89586 0
M  V30 23451 C 2178.11 -2.29352 4.46882 0
M  V30 23452 C 2180.1 -1.42937 6.21167 0
M  V30 23453 C 2177.79 -1.96966 5.78487 0
M  V30 23454 C 2178.79 -1.53828 6.65452 0
M  V30 23455 O 2178.48 -1.2186 7.9461 0
M  V30 23456 H 2178.21 -0.409737 0.537672 0
M  V30 23457 H 2180.76 -0.665921 1.94306 0
M  V30 23458 H 2178.99 -3.21191 2.15345 0
M  V30 23459 H 2180.68 -3.14433 2.56684 0
M  V30 23460 H 2181.45 -1.65929 4.55733 0
M  V30 23461 H 2177.33 -2.61886 3.7939 0
M  V30 23462 H 2180.87 -1.09193 6.89001 0
M  V30 23463 H 2176.77 -2.05608 6.11879 0
M  V30 23464 H 2177.53 -1.35388 8.07225 0
M  V30 23465 N 2180.2 -1.36208 -0.792797 0
M  V30 23466 C 2181.44 -1.30249 -1.55053 0
M  V30 23467 C 2181.77 0.119193 -1.94134 0
M  V30 23468 O 2181.03 1.08769 -1.62689 0
M  V30 23469 C 2181.33 -2.16771 -2.84157 0
M  V30 23470 C 2180.99 -3.65368 -2.64229 0
M  V30 23471 C 2179.65 -4.0587 -2.58502 0
M  V30 23472 C 2182.01 -4.59598 -2.45804 0
M  V30 23473 C 2179.33 -5.38747 -2.32312 0
M  V30 23474 C 2181.69 -5.92688 -2.21141 0
M  V30 23475 C 2180.35 -6.32318 -2.13845 0
M  V30 23476 H 2179.62 -0.476617 -0.567378 0
M  V30 23477 H 2182.27 -1.6823 -0.914933 0
M  V30 23478 H 2180.57 -1.71716 -3.52166 0
M  V30 23479 H 2182.27 -2.09488 -3.41929 0
M  V30 23480 H 2178.86 -3.33236 -2.6954 0
M  V30 23481 H 2183.04 -4.29182 -2.49231 0
M  V30 23482 H 2178.3 -5.68437 -2.25143 0
M  V30 23483 H 2182.47 -6.65272 -2.05878 0
M  V30 23484 H 2180.1 -7.3521 -1.93314 0
M  V30 23485 N 2181.68 1.01656 -1.20431 0
M  V30 23486 C 2182.92 1.74663 -1.00874 0
M  V30 23487 C 2183.24 1.9012 0.459746 0
M  V30 23488 O 2184.44 2.6022 0.774445 0
M  V30 23489 C 2182.9 3.14147 -1.75612 0
M  V30 23490 C 2182.51 3.06703 -3.26554 0
M  V30 23491 C 2184.25 3.91364 -1.64422 0
M  V30 23492 C 2182.16 4.41194 -3.93829 0
M  V30 23493 H 2181.09 0.654809 -0.37382 0
M  V30 23494 H 2183.74 1.13672 -1.44052 0
M  V30 23495 H 2182.12 3.7568 -1.25221 0
M  V30 23496 H 2183.3 2.54477 -3.84159 0
M  V30 23497 H 2181.61 2.42979 -3.38157 0
M  V30 23498 H 2184.21 4.90866 -2.12026 0
M  V30 23499 H 2184.55 4.11947 -0.600434 0
M  V30 23500 H 2185.08 3.36459 -2.12227 0
M  V30 23501 H 2181.82 4.25814 -4.9836 0
M  V30 23502 H 2181.34 4.93427 -3.41013 0
M  V30 23503 H 2183.02 5.10038 -3.98084 0
M  V30 23504 N 2183.15 1.01021 1.20965 0
M  V30 23505 C 2184.09 0.519783 2.22201 0
M  V30 23506 C 2185.06 -0.429328 1.5683 0
M  V30 23507 O 2186.25 -0.350829 1.85206 0
M  V30 23508 C 2183.38 -0.244355 3.37817 0
M  V30 23509 C 2182.42 0.653341 4.21466 0
M  V30 23510 S 2183.25 2.11879 4.918 0
M  V30 23511 C 2184.41 1.36463 6.10843 0
M  V30 23512 H 2184.64 1.37759 2.63457 0
M  V30 23513 H 2182.18 0.818571 1.30915 0
M  V30 23514 H 2184.13 -0.679146 4.04843 0
M  V30 23515 H 2182.8 -1.07765 2.95035 0
M  V30 23516 H 2181.99 0.0644713 5.03959 0
M  V30 23517 H 2181.59 1.02563 3.59662 0
M  V30 23518 H 2183.88 0.641256 6.74458 0
M  V30 23519 H 2184.83 2.16546 6.74176 0
M  V30 23520 H 2185.23 0.870317 5.57751 0
M  V30 23521 N 2184.63 -1.36623 0.78561 0
M  V30 23522 C 2185.59 -2.28433 0.187388 0
M  V30 23523 C 2186.59 -1.48655 -0.613055 0
M  V30 23524 O 2187.78 -1.68691 -0.434608 0
M  V30 23525 C 2184.92 -3.32746 -0.741121 0
M  V30 23526 H 2186.11 -2.82847 0.996872 0
M  V30 23527 H 2183.66 -1.46123 0.554769 0
M  V30 23528 H 2184.4 -2.83481 -1.57509 0
M  V30 23529 H 2184.18 -3.91735 -0.169144 0
M  V30 23530 H 2185.67 -4.01319 -1.15467 0
M  V30 23531 N 2186.11 -0.537304 -1.48158 0
M  V30 23532 C 2187.04 0.268867 -2.26611 0
M  V30 23533 C 2188.02 0.938261 -1.32798 0
M  V30 23534 O 2189.2 0.961205 -1.62151 0
M  V30 23535 C 2186.33 1.38138 -3.0925 0
M  V30 23536 C 2185.38 0.822628 -4.18491 0
M  V30 23537 S 2186.21 -0.315253 -5.34571 0
M  V30 23538 C 2187.37 0.799556 -6.20772 0
M  V30 23539 H 2187.6 -0.396911 -2.94639 0
M  V30 23540 H 2185.13 -0.323228 -1.50979 0
M  V30 23541 H 2187.09 2.01862 -3.57438 0
M  V30 23542 H 2185.75 2.01891 -2.40622 0
M  V30 23543 H 2184.94 1.65745 -4.75967 0
M  V30 23544 H 2184.55 0.261941 -3.73082 0
M  V30 23545 H 2186.84 1.69647 -6.55916 0
M  V30 23546 H 2187.78 0.26261 -7.07613 0
M  V30 23547 H 2188.19 1.08326 -5.54009 0
M  V30 23548 N 2187.59 1.55221 -0.272782 0
M  V30 23549 C 2188.84 1.98722 0.345293 0
M  V30 23550 C 2189.15 1.16459 1.57151 0
M  V30 23551 O 2190.36 1.50094 2.26239 0
M  V30 23552 C 2188.81 3.5369 0.665698 0
M  V30 23553 C 2188.42 4.44727 -0.540586 0
M  V30 23554 C 2190.16 4.05786 1.24653 0
M  V30 23555 C 2188.07 5.91079 -0.194898 0
M  V30 23556 H 2187 0.742215 0.132791 0
M  V30 23557 H 2189.65 1.79584 -0.377069 0
M  V30 23558 H 2188.03 3.6862 1.4469 0
M  V30 23559 H 2189.21 4.41564 -1.3175 0
M  V30 23560 H 2187.52 4.03252 -1.0381 0
M  V30 23561 H 2190.12 5.12672 1.51893 0
M  V30 23562 H 2190.46 3.5468 2.17963 0
M  V30 23563 H 2191 3.94285 0.527668 0
M  V30 23564 H 2187.74 6.46276 -1.09582 0
M  V30 23565 H 2187.26 5.97316 0.545296 0
M  V30 23566 H 2188.93 6.46647 0.213722 0
M  V30 23567 N 2189.07 2.77022e-05 1.576 0
M  V30 23568 C 2190.03 -0.976217 2.07371 0
M  V30 23569 C 2191.03 -1.27246 0.983113 0
M  V30 23570 O 2192.22 -1.21764 1.24576 0
M  V30 23571 C 2189.35 -2.30112 2.51518 0
M  V30 23572 H 2190.54 -0.545707 2.94893 0
M  V30 23573 H 2188.1 -0.247444 1.54329 0
M  V30 23574 H 2188.83 -2.77852 1.67239 0
M  V30 23575 H 2188.62 -2.09931 3.31167 0
M  V30 23576 H 2190.11 -3.00144 2.9035 0
M  V30 23577 N 2190.54 -1.55222 -0.272728 0
M  V30 23578 C 2191.47 -1.9113 -1.34133 0
M  V30 23579 C 2192.46 -0.773195 -1.51511 0
M  V30 23580 O 2193.64 -1.03135 -1.6455 0
M  V30 23581 C 2190.77 -2.18345 -2.70079 0
M  V30 23582 C 2189.72 -3.34162 -2.67431 0
M  V30 23583 C 2189.05 -3.46858 -4.06932 0
M  V30 23584 C 2190.35 -4.70547 -2.26677 0
M  V30 23585 H 2192.04 -2.80635 -1.04328 0
M  V30 23586 H 2189.59 -1.35025 -0.50043 0
M  V30 23587 H 2191.54 -2.42052 -3.44948 0
M  V30 23588 H 2190.27 -1.25639 -3.01467 0
M  V30 23589 H 2188.93 -3.10423 -1.9502 0
M  V30 23590 H 2188.57 -2.51618 -4.35542 0
M  V30 23591 H 2188.27 -4.24727 -4.06055 0
M  V30 23592 H 2189.8 -3.72858 -4.83539 0
M  V30 23593 H 2191.21 -4.93797 -2.91268 0
M  V30 23594 H 2189.61 -5.51334 -2.36961 0
M  V30 23595 H 2190.68 -4.69351 -1.2181 0
M  V30 23596 N 2192.02 0.537252 -1.4816 0
M  V30 23597 C 2192.97 1.66349 -1.62575 0
M  V30 23598 C 2193.96 1.62086 -0.492394 0
M  V30 23599 O 2195.17 1.67031 -0.670876 0
M  V30 23600 H 2191.55 0.55078 -0.512001 0
M  V30 23601 H 2193.52 1.51332 -2.57179 0
M  V30 23602 C 2192.27 3.04646 -1.67589 0
M  V30 23603 H 2191.59 3.08617 -2.54156 0
M  V30 23604 H 2193.03 3.83085 -1.8172 0
M  V30 23605 C 2191.49 3.34358 -0.413097 0
M  V30 23606 O 2192.02 3.98856 0.477189 0
M  V30 23607 N 2190.22 2.89179 -0.287012 0
M  V30 23608 H 2189.77 2.3687 -1.01245 0
M  V30 23609 H 2189.73 3.09428 0.556909 0
M  V30 23610 N 2193.5 1.36626 0.785562 0
M  V30 23611 C 2194.73 1.34233 1.57446 0
M  V30 23612 C 2195.14 -0.0755322 1.88649 0
M  V30 23613 O 2194.5 -1.03351 1.50416 0
M  V30 23614 C 2194.55 2.1675 2.89312 0
M  V30 23615 O 2194.27 3.5301 2.59452 0
M  V30 23616 C 2195.77 2.22181 3.83602 0
M  V30 23617 H 2192.99 0.460309 0.488218 0
M  V30 23618 H 2195.54 1.79777 0.974701 0
M  V30 23619 H 2193.69 1.74751 3.45747 0
M  V30 23620 H 2194.11 3.96111 3.43797 0
M  V30 23621 H 2195.58 2.84268 4.73176 0
M  V30 23622 H 2196.06 1.22634 4.21732 0
M  V30 23623 H 2196.66 2.64433 3.331 0
M  V30 23624 N 2194.98 -1.01016 1.20969 0
M  V30 23625 C 2196.22 -1.74973 1.02529 0
M  V30 23626 C 2196.56 -1.89132 -0.440767 0
M  V30 23627 O 2195.83 -1.42186 -1.32715 0
M  V30 23628 C 2196.12 -3.16527 1.71705 0
M  V30 23629 C 2195.97 -3.10124 3.25797 0
M  V30 23630 C 2197.29 -4.15339 1.45539 0
M  V30 23631 H 2194.41 -0.635128 0.373874 0
M  V30 23632 H 2197.05 -1.17802 1.49073 0
M  V30 23633 H 2195.2 -3.65339 1.32135 0
M  V30 23634 H 2196.87 -2.69066 3.74702 0
M  V30 23635 H 2195.11 -2.47356 3.56367 0
M  V30 23636 H 2195.78 -4.10216 3.6936 0
M  V30 23637 H 2198.26 -3.7521 1.79879 0
M  V30 23638 H 2197.14 -5.12537 1.96462 0
M  V30 23639 H 2197.4 -4.40426 0.384315 0
M  V30 23640 N 2196.46 -1.01661 -1.20428 0
M  V30 23641 C 2197.7 -0.706996 -1.90077 0
M  V30 23642 C 2198.04 0.761442 -1.7865 0
M  V30 23643 O 2197.31 1.55321 -1.17072 0
M  V30 23644 C 2197.59 -1.14333 -3.41467 0
M  V30 23645 C 2197.45 -2.67208 -3.61829 0
M  V30 23646 C 2198.77 -0.714606 -4.3426 0
M  V30 23647 H 2195.88 -0.258312 -0.690249 0
M  V30 23648 H 2198.53 -1.26435 -1.41824 0
M  V30 23649 H 2196.68 -0.669123 -3.82694 0
M  V30 23650 H 2198.35 -3.22481 -3.29854 0
M  V30 23651 H 2196.59 -3.0818 -3.05299 0
M  V30 23652 H 2197.26 -2.92792 -4.6795 0
M  V30 23653 H 2199.74 -1.12228 -4.0068 0
M  V30 23654 H 2198.61 -1.04794 -5.38804 0
M  V30 23655 H 2198.88 0.383721 -4.40432 0
M  V30 23656 N 2197.93 1.36205 -0.792844 0
M  V30 23657 C 2198.86 2.32573 -0.207894 0
M  V30 23658 C 2199.85 1.56815 0.659028 0
M  V30 23659 O 2201.03 1.84952 0.592143 0
M  V30 23660 C 2198.16 3.4106 0.655389 0
M  V30 23661 C 2197.11 4.27854 -0.111917 0
M  V30 23662 C 2196.44 5.27539 0.872181 0
M  V30 23663 C 2197.74 5.05784 -1.30308 0
M  V30 23664 H 2199.43 2.81743 -1.01299 0
M  V30 23665 H 2196.98 1.35459 -0.488564 0
M  V30 23666 H 2198.93 4.07469 1.07457 0
M  V30 23667 H 2197.66 2.90466 1.49323 0
M  V30 23668 H 2196.32 3.63005 -0.512116 0
M  V30 23669 H 2195.96 4.73217 1.70514 0
M  V30 23670 H 2195.66 5.86477 0.363188 0
M  V30 23671 H 2197.19 5.96821 1.28986 0
M  V30 23672 H 2198.6 5.65214 -0.959478 0
M  V30 23673 H 2197 5.7415 -1.7456 0
M  V30 23674 H 2198.07 4.37226 -2.0967 0
M  V30 23675 N 2199.41 0.545154 1.47871 0
M  V30 23676 C 2200.35 -0.256845 2.2675 0
M  V30 23677 C 2201.32 -0.931205 1.33294 0
M  V30 23678 O 2202.51 -0.952592 1.62659 0
M  V30 23679 C 2199.63 -1.36496 3.09978 0
M  V30 23680 C 2198.68 -0.800422 4.18922 0
M  V30 23681 S 2199.51 0.343599 5.34397 0
M  V30 23682 C 2200.67 -0.766624 6.21187 0
M  V30 23683 H 2200.9 0.412531 2.94424 0
M  V30 23684 H 2198.44 0.331231 1.50805 0
M  V30 23685 H 2200.39 -1.99964 3.58503 0
M  V30 23686 H 2199.05 -2.00612 2.41689 0
M  V30 23687 H 2198.25 -1.63218 4.76839 0
M  V30 23688 H 2197.85 -0.242152 3.73215 0
M  V30 23689 H 2200.14 -1.66166 6.56807 0
M  V30 23690 H 2201.08 -0.22508 7.07742 0
M  V30 23691 H 2201.49 -1.05386 5.54575 0
M  V30 23692 N 2200.89 -1.55074 0.28101 0
M  V30 23693 C 2201.82 -2.18883 -0.645401 0
M  V30 23694 C 2202.8 -1.15167 -1.14784 0
M  V30 23695 O 2203.99 -1.43718 -1.21973 0
M  V30 23696 C 2201.11 -2.81678 -1.88083 0
M  V30 23697 C 2200.16 -3.98748 -1.51336 0
M  V30 23698 S 2200.99 -5.32279 -0.586455 0
M  V30 23699 C 2202.15 -5.98546 -1.83013 0
M  V30 23700 H 2202.38 -2.97121 -0.103248 0
M  V30 23701 H 2199.91 -1.54262 0.065237 0
M  V30 23702 H 2201.87 -3.18486 -2.58992 0
M  V30 23703 H 2200.53 -2.03323 -2.39413 0
M  V30 23704 H 2199.73 -4.41396 -2.43281 0
M  V30 23705 H 2199.33 -3.63393 -0.884413 0
M  V30 23706 H 2201.62 -6.18137 -2.77331 0
M  V30 23707 H 2202.56 -6.93167 -1.44656 0
M  V30 23708 H 2202.97 -5.27968 -1.99775 0
M  V30 23709 N 2202.37 -0.00838561 -1.57598 0
M  V30 23710 C 2203.32 0.980309 -2.08946 0
M  V30 23711 C 2204.29 1.33612 -0.986761 0
M  V30 23712 O 2205.47 1.43304 -1.25971 0
M  V30 23713 C 2202.61 2.2643 -2.60429 0
M  V30 23714 C 2201.72 1.96678 -3.84632 0
M  V30 23715 C 2200.86 3.1922 -4.24584 0
M  V30 23716 C 2199.9 2.85192 -5.41601 0
M  V30 23717 N 2199.04 4.00297 -5.76807 0
M  V30 23718 H 2203.88 0.535499 -2.93149 0
M  V30 23719 H 2201.41 0.252751 -1.44912 0
M  V30 23720 H 2203.37 3.01504 -2.88359 0
M  V30 23721 H 2202 2.68565 -1.79088 0
M  V30 23722 H 2201.05 1.11936 -3.63558 0
M  V30 23723 H 2202.36 1.67603 -4.69799 0
M  V30 23724 H 2201.52 4.02633 -4.53841 0
M  V30 23725 H 2200.26 3.51441 -3.38143 0
M  V30 23726 H 2199.26 2.00189 -5.12059 0
M  V30 23727 H 2200.49 2.54211 -6.29725 0
M  V30 23728 H 2198.43 4.32398 -4.93323 0
M  V30 23729 H 2198.35 3.74774 -6.56567 0
M  V30 23730 H 2199.62 4.84473 -6.1066 0
M  V30 23731 N 2203.85 1.55365 0.264492 0
M  V30 23732 C 2205.09 1.76371 0.994955 0
M  V30 23733 C 2205.42 0.569533 1.85975 0
M  V30 23734 O 2204.68 -0.447727 1.9051 0
M  V30 23735 C 2204.98 3.02691 1.90035 0
M  V30 23736 C 2204.64 4.34849 1.19236 0
M  V30 23737 C 2203.3 4.70766 0.996627 0
M  V30 23738 C 2205.66 5.16623 0.689206 0
M  V30 23739 C 2202.98 5.86007 0.285158 0
M  V30 23740 C 2205.34 6.32599 -0.00871199 0
M  V30 23741 C 2204 6.6715 -0.21608 0
M  V30 23742 H 2203.27 0.645389 0.36408 0
M  V30 23743 H 2205.92 1.89636 0.26651 0
M  V30 23744 H 2204.22 2.84362 2.69528 0
M  V30 23745 H 2205.92 3.16141 2.4669 0
M  V30 23746 H 2202.51 4.06623 1.35483 0
M  V30 23747 H 2206.69 4.89344 0.828022 0
M  V30 23748 H 2201.95 6.11294 0.113853 0
M  V30 23749 H 2206.12 6.95214 -0.406308 0
M  V30 23750 H 2203.75 7.56297 -0.76935 0
M  V30 23751 N 2205.33 -0.529387 1.48443 0
M  V30 23752 C 2206.56 -1.30801 1.59921 0
M  V30 23753 C 2206.96 -1.87421 0.258825 0
M  V30 23754 O 2206.31 -1.67147 -0.762066 0
M  V30 23755 C 2206.37 -2.49632 2.58697 0
M  V30 23756 C 2206.03 -2.14094 4.03748 0
M  V30 23757 C 2207.03 -1.69732 4.91413 0
M  V30 23758 C 2204.71 -2.24599 4.49289 0
M  V30 23759 C 2206.71 -1.3634 6.22648 0
M  V30 23760 C 2204.4 -1.90819 5.80544 0
M  V30 23761 C 2205.39 -1.46761 6.67046 0
M  V30 23762 O 2205.08 -1.13426 7.95858 0
M  V30 23763 H 2204.81 -0.404011 0.541988 0
M  V30 23764 H 2207.37 -0.645274 1.95001 0
M  V30 23765 H 2205.6 -3.18889 2.1874 0
M  V30 23766 H 2207.29 -3.11693 2.60004 0
M  V30 23767 H 2208.05 -1.61086 4.57467 0
M  V30 23768 H 2203.93 -2.57847 3.82146 0
M  V30 23769 H 2207.48 -1.01879 6.90121 0
M  V30 23770 H 2203.37 -1.99107 6.14025 0
M  V30 23771 H 2204.14 -1.26818 8.08616 0
M  V30 23772 N 2206.8 -1.37041 -0.778305 0
M  V30 23773 C 2208.08 -1.22426 -1.52549 0
M  V30 23774 C 2208.46 0.184927 -2.10288 0
M  V30 23775 O 2207.81 1.19183 -1.94955 0
M  V30 23776 C 2208.02 -2.31509 -2.6116 0
M  V30 23777 C 2209.37 -2.68727 -3.28741 0
M  V30 23778 O 2210.39 -2.30636 -2.71451 0
M  V30 23779 O 2209.25 -3.34328 -4.32304 0
M  V30 23780 H 2206.34 -0.477338 -0.675335 0
M  V30 23781 H 2208.89 -1.48803 -0.815833 0
M  V30 23782 H 2207.66 -3.25905 -2.16568 0
M  V30 23783 H 2207.28 -2.0656 -3.39733 0
M  V30 23784 N 2208.28 1.00373 -1.21503 0
M  V30 23785 C 2209.24 2.07336 -0.976963 0
M  V30 23786 C 2210.24 1.60714 0.052504 0
M  V30 23787 O 2211.43 1.73216 -0.1849 0
M  V30 23788 C 2208.57 3.37596 -0.473483 0
M  V30 23789 H 2209.76 2.29889 -1.92591 0
M  V30 23790 H 2207.31 1.17369 -1.03219 0
M  V30 23791 H 2208.05 3.20723 0.480323 0
M  V30 23792 H 2207.83 3.72766 -1.21607 0
M  V30 23793 H 2209.32 4.16319 -0.326824 0
M  V30 23794 N 2209.76 1.02298 1.19887 0
M  V30 23795 C 2211.17 0.746598 1.71122 0
M  V30 23796 C 2211.52 -0.734303 1.81941 0
M  V30 23797 O 2210.65 -1.57272 1.48642 0
M  V30 23798 C 2211.24 1.34862 3.10802 0
M  V30 23799 C 2209.8 1.12096 3.59321 0
M  V30 23800 C 2208.95 1.45035 2.36347 0
M  V30 23801 H 2211.9 1.19165 1.04811 0
M  V30 23802 H 2211.92 0.742503 3.73185 0
M  V30 23803 H 2211.43 2.42643 3.02896 0
M  V30 23804 H 2209.53 0.0610992 3.7255 0
M  V30 23805 H 2209.65 1.80551 4.43777 0
M  V30 23806 H 2208.01 0.869529 2.39398 0
M  V30 23807 H 2208.79 2.53887 2.31076 0
M  V30 23808 N 2211.24 -1.35782 0.800057 0
M  V30 23809 C 2212.47 -2.02903 0.389077 0
M  V30 23810 C 2212.88 -1.60447 -1.00267 0
M  V30 23811 O 2212.22 -0.794482 -1.65631 0
M  V30 23812 C 2212.28 -3.57426 0.385558 0
M  V30 23813 C 2211.94 -4.23124 1.7267 0
M  V30 23814 C 2212.94 -4.45265 2.68393 0
M  V30 23815 C 2210.63 -4.60378 2.00892 0
M  V30 23816 C 2212.62 -5.03754 3.90526 0
M  V30 23817 C 2210.31 -5.18582 3.23289 0
M  V30 23818 C 2211.31 -5.40211 4.17925 0
M  V30 23819 O 2210.99 -5.9719 5.38163 0
M  V30 23820 H 2210.73 -0.657505 0.157044 0
M  V30 23821 H 2213.28 -1.7452 1.08314 0
M  V30 23822 H 2211.51 -3.84973 -0.365061 0
M  V30 23823 H 2213.2 -4.059 -0.00221161 0
M  V30 23824 H 2213.96 -4.1687 2.4788 0
M  V30 23825 H 2209.84 -4.42861 1.28045 0
M  V30 23826 H 2213.39 -5.20552 4.64405 0
M  V30 23827 H 2209.28 -5.46404 3.43676 0
M  V30 23828 H 2210.05 -6.15647 5.39371 0
M  V30 23829 N 2212.72 -0.552988 -1.4758 0
M  V30 23830 C 2213.63 0.200312 -2.33743 0
M  V30 23831 C 2214.64 0.916125 -1.4793 0
M  V30 23832 O 2215.82 0.885961 -1.80867 0
M  V30 23833 C 2212.88 1.21968 -3.24538 0
M  V30 23834 C 2211.94 0.511745 -4.26239 0
M  V30 23835 C 2211.18 1.48254 -5.12695 0
M  V30 23836 O 2211.4 2.71705 -5.0153 0
M  V30 23837 O 2210.33 1.00934 -5.93377 0
M  V30 23838 H 2214.16 -0.506356 -2.99449 0
M  V30 23839 H 2211.74 -0.313647 -1.46071 0
M  V30 23840 H 2213.63 1.8082 -3.80634 0
M  V30 23841 H 2212.3 1.90834 -2.61465 0
M  V30 23842 H 2211.21 -0.117865 -3.73914 0
M  V30 23843 H 2212.54 -0.135394 -4.92014 0
M  V30 23844 N 2214.19 1.54923 -0.28923 0
M  V30 23845 C 2215.42 2.04013 0.325953 0
M  V30 23846 C 2215.83 1.16653 1.48959 0
M  V30 23847 O 2215.17 0.182232 1.82794 0
M  V30 23848 C 2215.24 3.49159 0.85605 0
M  V30 23849 C 2214.9 4.56642 -0.180778 0
M  V30 23850 C 2215.9 5.1009 -1.00519 0
M  V30 23851 C 2213.58 5.01285 -0.319086 0
M  V30 23852 C 2215.58 6.06712 -1.95396 0
M  V30 23853 C 2213.26 5.9773 -1.27132 0
M  V30 23854 C 2214.26 6.50325 -2.08724 0
M  V30 23855 O 2213.95 7.44882 -3.02335 0
M  V30 23856 H 2213.68 0.671656 0.0765158 0
M  V30 23857 H 2216.24 2.00991 -0.423289 0
M  V30 23858 H 2214.47 3.49466 1.65561 0
M  V30 23859 H 2216.15 3.81509 1.38584 0
M  V30 23860 H 2216.92 4.76403 -0.909143 0
M  V30 23861 H 2212.8 4.59983 0.306027 0
M  V30 23862 H 2216.34 6.47689 -2.59122 0
M  V30 23863 H 2212.24 6.30835 -1.36812 0
M  V30 23864 H 2213.01 7.62645 -2.97178 0
M  V30 23865 N 2215.67 0.0167433 1.57591 0
M  V30 23866 C 2216.58 -0.985172 2.12912 0
M  V30 23867 C 2217.6 -1.36555 1.07836 0
M  V30 23868 O 2218.77 -1.44948 1.39828 0
M  V30 23869 C 2215.84 -2.253 2.63516 0
M  V30 23870 C 2214.9 -1.93419 3.83259 0
M  V30 23871 C 2214.13 -3.14157 4.3144 0
M  V30 23872 O 2214.36 -4.26406 3.78859 0
M  V30 23873 O 2213.29 -2.97177 5.23421 0
M  V30 23874 H 2217.12 -0.544836 2.98773 0
M  V30 23875 H 2214.7 -0.203115 1.48013 0
M  V30 23876 H 2216.58 -2.99751 2.96188 0
M  V30 23877 H 2215.26 -2.68539 1.80745 0
M  V30 23878 H 2214.16 -1.16392 3.55533 0
M  V30 23879 H 2215.5 -1.55005 4.67155 0
M  V30 23880 N 2217.15 -1.55503 -0.256249 0
M  V30 23881 C 2218.08 -1.92542 -1.32098 0
M  V30 23882 C 2219.06 -0.789221 -1.50683 0
M  V30 23883 O 2220.25 -1.04874 -1.63447 0
M  V30 23884 C 2217.38 -2.21197 -2.67748 0
M  V30 23885 C 2216.33 -3.3698 -2.63872 0
M  V30 23886 C 2215.66 -3.51154 -4.0323 0
M  V30 23887 C 2216.96 -4.72925 -2.21674 0
M  V30 23888 H 2218.65 -2.81726 -1.01346 0
M  V30 23889 H 2216.2 -1.35548 -0.486081 0
M  V30 23890 H 2218.15 -2.45697 -3.42361 0
M  V30 23891 H 2216.87 -1.2883 -3.00117 0
M  V30 23892 H 2215.53 -3.12474 -1.91717 0
M  V30 23893 H 2215.18 -2.56224 -4.32849 0
M  V30 23894 H 2214.88 -4.2901 -4.01527 0
M  V30 23895 H 2216.4 -3.77965 -4.79557 0
M  V30 23896 H 2217.82 -4.96859 -2.86015 0
M  V30 23897 H 2216.22 -5.53816 -2.311 0
M  V30 23898 H 2217.29 -4.70617 -1.16825 0
M  V30 23899 N 2218.63 0.521507 -1.48721 0
M  V30 23900 C 2219.56 1.64219 -1.58453 0
M  V30 23901 C 2220.54 1.56686 -0.434541 0
M  V30 23902 O 2221.72 1.77037 -0.647306 0
M  V30 23903 C 2218.85 3.02656 -1.52042 0
M  V30 23904 C 2217.9 3.2852 -2.71987 0
M  V30 23905 S 2218.73 3.13868 -4.33875 0
M  V30 23906 C 2219.89 4.54737 -4.30075 0
M  V30 23907 H 2220.12 1.55715 -2.53259 0
M  V30 23908 H 2217.65 0.705119 -1.37359 0
M  V30 23909 H 2219.61 3.82492 -1.4903 0
M  V30 23910 H 2218.27 3.08593 -0.585595 0
M  V30 23911 H 2217.46 4.29532 -2.63663 0
M  V30 23912 H 2217.07 2.5637 -2.72306 0
M  V30 23913 H 2219.36 5.46426 -4.00531 0
M  V30 23914 H 2220.3 4.68114 -5.31296 0
M  V30 23915 H 2220.71 4.34457 -3.60427 0
M  V30 23916 N 2220.11 1.37452 0.771027 0
M  V30 23917 C 2221.04 1.35974 1.89825 0
M  V30 23918 C 2222.02 0.228246 1.68562 0
M  V30 23919 O 2223.2 0.428708 1.89409 0
M  V30 23920 C 2220.33 1.16668 3.27118 0
M  V30 23921 C 2219.29 2.26836 3.62946 0
M  V30 23922 C 2218.61 1.92652 4.98788 0
M  V30 23923 C 2219.91 3.69023 3.6962 0
M  V30 23924 H 2221.61 2.30299 1.91319 0
M  V30 23925 H 2219.15 1.10857 0.919062 0
M  V30 23926 H 2221.11 1.14263 4.05613 0
M  V30 23927 H 2219.83 0.187983 3.26059 0
M  V30 23928 H 2218.49 2.28397 2.86759 0
M  V30 23929 H 2218.14 0.933108 4.94269 0
M  V30 23930 H 2217.84 2.66425 5.23729 0
M  V30 23931 H 2219.36 1.91836 5.79682 0
M  V30 23932 H 2220.77 3.69588 4.38266 0
M  V30 23933 H 2219.17 4.41855 4.06059 0
M  V30 23934 H 2220.24 4.02597 2.70266 0
M  V30 23935 N 2221.58 -0.997276 1.22033 0
M  V30 23936 C 2222.53 -2.08655 0.986504 0
M  V30 23937 C 2223.5 -1.65855 -0.090238 0
M  V30 23938 O 2224.69 -1.9071 0.0584629 0
M  V30 23939 C 2221.83 -3.40433 0.565629 0
M  V30 23940 C 2220.94 -3.966 1.71266 0
M  V30 23941 C 2220.07 -5.1652 1.2402 0
M  V30 23942 C 2219.11 -5.64814 2.35906 0
M  V30 23943 N 2218.25 -6.75976 1.89738 0
M  V30 23944 H 2223.09 -2.27991 1.91896 0
M  V30 23945 H 2220.63 -1.1178 0.956219 0
M  V30 23946 H 2222.59 -4.161 0.302812 0
M  V30 23947 H 2221.22 -3.21111 -0.329823 0
M  V30 23948 H 2220.27 -3.17847 2.08992 0
M  V30 23949 H 2221.58 -4.28428 2.55443 0
M  V30 23950 H 2220.73 -5.9946 0.934501 0
M  V30 23951 H 2219.47 -4.86305 0.368573 0
M  V30 23952 H 2218.48 -4.80465 2.67269 0
M  V30 23953 H 2219.7 -5.97055 3.23577 0
M  V30 23954 H 2217.65 -6.47553 1.04931 0
M  V30 23955 H 2217.57 -7.07099 2.67483 0
M  V30 23956 H 2218.83 -7.62433 1.62224 0
M  V30 23957 N 2223.06 -1.02932 -1.19343 0
M  V30 23958 C 2224.3 -0.734761 -1.90737 0
M  V30 23959 C 2224.67 0.723383 -1.77852 0
M  V30 23960 O 2225.87 1.13104 -2.43846 0
M  V30 23961 C 2224.14 -1.17402 -3.37567 0
M  V30 23962 S 2225.7 -1.00336 -4.27174 0
M  V30 23963 H 2222.52 -0.267485 -0.658766 0
M  V30 23964 H 2225.12 -1.31925 -1.44278 0
M  V30 23965 H 2223.82 -2.23087 -3.44471 0
M  V30 23966 H 2223.35 -0.58284 -3.89059 0
M  V30 23967 H 2225.37 0.085828 -4.96126 0
M  V30 23968 N 2224.54 1.35356 -0.807246 0
M  V30 23969 C 2225.47 2.32339 -0.23255 0
M  V30 23970 C 2226.45 1.57505 0.642358 0
M  V30 23971 O 2227.64 1.8557 0.572493 0
M  V30 23972 C 2224.77 3.41736 0.619178 0
M  V30 23973 C 2223.72 4.27711 -0.157291 0
M  V30 23974 C 2223.05 5.28434 0.81618 0
M  V30 23975 C 2224.35 5.04373 -1.35665 0
M  V30 23976 H 2226.04 2.80652 -1.04281 0
M  V30 23977 H 2223.59 1.34933 -0.502904 0
M  V30 23978 H 2225.54 4.08586 1.03129 0
M  V30 23979 H 2224.26 2.92033 1.46233 0
M  V30 23980 H 2222.92 3.62442 -0.550589 0
M  V30 23981 H 2222.57 4.74998 1.65486 0
M  V30 23982 H 2222.27 5.86829 0.300964 0
M  V30 23983 H 2223.79 5.98155 1.22649 0
M  V30 23984 H 2225.21 5.64165 -1.01937 0
M  V30 23985 H 2223.61 5.72267 -1.8064 0
M  V30 23986 H 2224.68 4.34977 -2.14296 0
M  V30 23987 N 2226.02 0.560807 1.47284 0
M  V30 23988 C 2226.97 -0.197901 2.31757 0
M  V30 23989 C 2227.96 -0.905828 1.43147 0
M  V30 23990 O 2229.17 -0.826705 1.59892 0
M  V30 23991 H 2225.54 -0.0826918 0.74744 0
M  V30 23992 H 2227.51 0.53368 2.93589 0
M  V30 23993 C 2226.26 -1.21244 3.25876 0
M  V30 23994 H 2225.58 -0.677121 3.94024 0
M  V30 23995 H 2227.02 -1.71412 3.87806 0
M  V30 23996 C 2225.48 -2.26217 2.49655 0
M  V30 23997 O 2226.01 -3.33204 2.24361 0
M  V30 23998 N 2224.22 -2.0024 2.106 0
M  V30 23999 H 2223.77 -1.13248 2.31371 0
M  V30 24000 H 2223.72 -2.70691 1.59918 0
M  V30 24001 N 2227.5 -1.54768 0.297442 0
M  V30 24002 C 2228.75 -1.99247 -0.313634 0
M  V30 24003 C 2229.06 -1.18945 -1.55279 0
M  V30 24004 O 2230.26 -1.53674 -2.23823 0
M  V30 24005 C 2228.72 -3.54704 -0.609345 0
M  V30 24006 C 2228.33 -4.4381 0.61127 0
M  V30 24007 C 2230.07 -4.07717 -1.18181 0
M  V30 24008 C 2227.98 -5.90694 0.288908 0
M  V30 24009 H 2226.91 -0.744233 -0.120966 0
M  V30 24010 H 2229.56 -1.78961 0.405591 0
M  V30 24011 H 2227.94 -3.70876 -1.38807 0
M  V30 24012 H 2229.12 -4.39412 1.38758 0
M  V30 24013 H 2227.43 -4.0155 1.10212 0
M  V30 24014 H 2230.03 -5.15023 -1.43718 0
M  V30 24015 H 2230.37 -3.58102 -2.12293 0
M  V30 24016 H 2230.9 -3.95074 -0.464874 0
M  V30 24017 H 2227.64 -6.4445 1.19849 0
M  V30 24018 H 2227.16 -5.98108 -0.4502 0
M  V30 24019 H 2228.84 -6.46905 -0.110819 0
M  V30 24020 N 2228.97 -0.0251005 -1.5758 0
M  V30 24021 C 2230.22 0.65538 -1.91918 0
M  V30 24022 C 2230.55 1.7201 -0.901464 0
M  V30 24023 O 2229.83 1.9435 0.0763727 0
M  V30 24024 C 2230.11 1.27552 -3.36753 0
M  V30 24025 C 2229.96 0.22064 -4.49259 0
M  V30 24026 C 2231.28 2.19468 -3.81473 0
M  V30 24027 H 2228.4 0.236778 -0.697929 0
M  V30 24028 H 2231.04 -0.081537 -1.89825 0
M  V30 24029 H 2229.19 1.90359 -3.38667 0
M  V30 24030 H 2230.87 -0.409682 -4.59477 0
M  V30 24031 H 2229.11 -0.45434 -4.31414 0
M  V30 24032 H 2229.78 0.694079 -5.47619 0
M  V30 24033 H 2232.26 1.66652 -3.81269 0
M  V30 24034 H 2231.13 2.59813 -4.83516 0
M  V30 24035 H 2231.39 3.08419 -3.1675 0
M  V30 24036 N 2230.45 1.55637 0.247999 0
M  V30 24037 C 2231.7 1.77417 0.976193 0
M  V30 24038 C 2232.03 0.589226 1.8536 0
M  V30 24039 O 2231.28 -0.427495 1.90974 0
M  V30 24040 C 2231.58 3.04689 1.86813 0
M  V30 24041 C 2231.25 4.36089 1.14617 0
M  V30 24042 C 2229.91 4.71797 0.94664 0
M  V30 24043 C 2232.26 5.17325 0.634372 0
M  V30 24044 C 2229.59 5.86276 0.222988 0
M  V30 24045 C 2231.94 6.32555 -0.0758071 0
M  V30 24046 C 2230.61 6.66883 -0.286828 0
M  V30 24047 H 2229.88 0.649214 0.357214 0
M  V30 24048 H 2232.52 1.89908 0.246381 0
M  V30 24049 H 2230.83 2.87205 2.66497 0
M  V30 24050 H 2232.52 3.1874 2.43323 0
M  V30 24051 H 2229.11 4.08037 1.31163 0
M  V30 24052 H 2233.3 4.90195 0.776074 0
M  V30 24053 H 2228.55 6.1138 0.0490111 0
M  V30 24054 H 2232.73 6.94744 -0.480022 0
M  V30 24055 H 2230.36 7.55438 -0.849522 0
M  V30 24056 N 2231.93 -0.513613 1.48996 0
M  V30 24057 C 2233.16 -1.29285 1.61533 0
M  V30 24058 C 2233.57 -1.86685 0.281834 0
M  V30 24059 O 2232.93 -1.67217 -0.731082 0
M  V30 24060 C 2232.98 -2.4321 2.67453 0
M  V30 24061 O 2232.7 -1.88172 3.9563 0
M  V30 24062 C 2234.2 -3.3478 2.9058 0
M  V30 24063 H 2231.42 -0.392578 0.544172 0
M  V30 24064 H 2233.97 -0.617922 1.94941 0
M  V30 24065 H 2232.12 -3.06556 2.36859 0
M  V30 24066 H 2232.54 -2.62868 4.53873 0
M  V30 24067 H 2234.01 -4.11028 3.68456 0
M  V30 24068 H 2234.49 -3.91011 2.00018 0
M  V30 24069 H 2235.09 -2.77212 3.22542 0
M  V30 24070 N 2233.41 -1.37859 -0.763727 0
M  V30 24071 C 2234.63 -1.36896 -1.55802 0
M  V30 24072 C 2235.06 0.0415805 -1.88054 0
M  V30 24073 O 2234.42 1.02086 -1.49827 0
M  V30 24074 C 2234.47 -2.22197 -2.84008 0
M  V30 24075 O 2233.57 -1.6321 -3.7873 0
M  V30 24076 H 2232.91 -0.467399 -0.47163 0
M  V30 24077 H 2235.44 -1.81488 -0.944625 0
M  V30 24078 H 2235.45 -2.35696 -3.33033 0
M  V30 24079 H 2234.13 -3.24721 -2.59864 0
M  V30 24080 H 2232.7 -1.58797 -3.37399 0
M  V30 24081 N 2234.89 0.990791 -1.22561 0
M  V30 24082 C 2235.82 2.07904 -0.94081 0
M  V30 24083 C 2236.8 1.62178 0.117054 0
M  V30 24084 O 2237.98 1.88494 -0.0149837 0
M  V30 24085 C 2235.11 3.36143 -0.41538 0
M  V30 24086 C 2234.16 4.00796 -1.45825 0
M  V30 24087 S 2234.99 4.41377 -3.03227 0
M  V30 24088 C 2236.14 5.72784 -2.52327 0
M  V30 24089 H 2236.38 2.31742 -1.86234 0
M  V30 24090 H 2233.91 1.12556 -1.0569 0
M  V30 24091 H 2235.87 4.10328 -0.118819 0
M  V30 24092 H 2234.53 3.10332 0.485066 0
M  V30 24093 H 2233.72 4.93142 -1.04053 0
M  V30 24094 H 2233.32 3.32946 -1.70362 0
M  V30 24095 H 2235.62 6.4922 -1.937 0
M  V30 24096 H 2236.56 6.19386 -3.43172 0
M  V30 24097 H 2236.97 5.30286 -1.93539 0
M  V30 24098 N 2236.37 1.03564 1.18795 0
M  V30 24099 C 2237.61 0.736056 1.88649 0
M  V30 24100 C 2237.94 -0.735857 1.80043 0
M  V30 24101 O 2237.2 -1.55223 1.19182 0
M  V30 24102 C 2237.49 1.14123 3.3869 0
M  V30 24103 C 2237.16 2.61256 3.675 0
M  V30 24104 C 2235.82 3.01453 3.75072 0
M  V30 24105 C 2238.17 3.56415 3.80287 0
M  V30 24106 C 2235.5 4.35707 3.92907 0
M  V30 24107 C 2237.85 4.90381 3.99636 0
M  V30 24108 C 2236.52 5.30256 4.05443 0
M  V30 24109 H 2235.79 0.269342 0.690316 0
M  V30 24110 H 2238.44 1.29973 1.40639 0
M  V30 24111 H 2236.74 0.49627 3.88644 0
M  V30 24112 H 2238.44 0.886858 3.9107 0
M  V30 24113 H 2235.03 2.29119 3.62219 0
M  V30 24114 H 2239.21 3.26508 3.73773 0
M  V30 24115 H 2234.47 4.66128 3.95645 0
M  V30 24116 H 2238.64 5.64024 4.08473 0
M  V30 24117 H 2236.27 6.34295 4.19015 0
M  V30 24118 N 2237.84 -1.34926 0.814413 0
M  V30 24119 C 2239.07 -2.03304 0.410133 0
M  V30 24120 C 2239.49 -1.60953 -0.973436 0
M  V30 24121 O 2238.85 -0.789993 -1.63183 0
M  V30 24122 C 2238.9 -3.56967 0.510553 0
M  V30 24123 O 2238 -4.09679 -0.472963 0
M  V30 24124 H 2237.34 -0.641843 0.170099 0
M  V30 24125 H 2239.87 -1.72356 1.10247 0
M  V30 24126 H 2239.88 -4.06196 0.383206 0
M  V30 24127 H 2238.56 -3.87141 1.5197 0
M  V30 24128 H 2237.14 -3.71649 -0.305206 0
M  V30 24129 N 2239.32 -0.56861 -1.46985 0
M  V30 24130 C 2240.25 0.220739 -2.2713 0
M  V30 24131 C 2241.23 0.909881 -1.34759 0
M  V30 24132 O 2242.42 0.926594 -1.64154 0
M  V30 24133 C 2239.54 1.31547 -3.12111 0
M  V30 24134 C 2238.59 0.733674 -4.20142 0
M  V30 24135 S 2239.42 -0.428573 -5.33782 0
M  V30 24136 C 2240.58 0.667701 -6.22328 0
M  V30 24137 H 2240.81 -0.459319 -2.9373 0
M  V30 24138 H 2238.34 -0.355181 -1.50259 0
M  V30 24139 H 2240.3 1.94235 -3.61639 0
M  V30 24140 H 2238.96 1.96741 -2.4485 0
M  V30 24141 H 2238.16 1.55612 -4.79376 0
M  V30 24142 H 2237.76 0.182746 -3.73553 0
M  V30 24143 H 2240.05 1.55696 -6.59367 0
M  V30 24144 H 2240.99 0.112456 -7.08011 0
M  V30 24145 H 2241.4 0.965503 -5.56182 0
M  V30 24146 N 2240.8 1.54608 -0.305646 0
M  V30 24147 C 2241.71 2.27375 0.57774 0
M  V30 24148 C 2242.73 1.31063 1.14448 0
M  V30 24149 O 2243.9 1.64052 1.16828 0
M  V30 24150 C 2240.97 3.00385 1.73118 0
M  V30 24151 C 2240.03 4.12244 1.19805 0
M  V30 24152 C 2239.26 4.81763 2.29651 0
M  V30 24153 O 2239.48 4.50673 3.49643 0
M  V30 24154 O 2238.42 5.69066 1.96081 0
M  V30 24155 H 2242.24 3.03697 -0.0126774 0
M  V30 24156 H 2239.83 1.49227 -0.0719446 0
M  V30 24157 H 2241.71 3.46164 2.40309 0
M  V30 24158 H 2240.39 2.26953 2.30811 0
M  V30 24159 H 2239.29 3.70854 0.491733 0
M  V30 24160 H 2240.63 4.87667 0.66648 0
M  V30 24161 N 2242.28 0.033457 1.57564 0
M  V30 24162 C 2243.52 -0.648345 1.93845 0
M  V30 24163 C 2243.88 -1.69043 0.910416 0
M  V30 24164 O 2245.08 -2.42503 1.15956 0
M  V30 24165 C 2243.35 -1.24487 3.35019 0
M  V30 24166 S 2244.91 -1.94714 3.93233 0
M  V30 24167 H 2241.73 -0.213352 0.678234 0
M  V30 24168 H 2244.33 0.0981596 1.95253 0
M  V30 24169 H 2243.04 -0.474057 4.07653 0
M  V30 24170 H 2242.57 -2.02858 3.37064 0
M  V30 24171 H 2244.58 -3.226 3.7702 0
M  V30 24172 N 2243.76 -1.55766 -0.239741 0
M  V30 24173 C 2245 -1.78196 -0.968202 0
M  V30 24174 C 2245.33 -0.599971 -1.847 0
M  V30 24175 O 2244.61 0.401491 -1.90311 0
M  V30 24176 C 2244.89 -3.10567 -1.82264 0
M  V30 24177 C 2244.75 -4.39182 -0.971555 0
M  V30 24178 C 2246.06 -3.39226 -2.80382 0
M  V30 24179 H 2243.18 -0.648287 -0.350561 0
M  V30 24180 H 2245.83 -1.88501 -0.238226 0
M  V30 24181 H 2243.98 -3.01913 -2.44501 0
M  V30 24182 H 2245.65 -4.59835 -0.367327 0
M  V30 24183 H 2243.89 -4.3292 -0.2762 0
M  V30 24184 H 2244.56 -5.28201 -1.60337 0
M  V30 24185 H 2247.04 -3.47889 -2.28281 0
M  V30 24186 H 2245.91 -4.3305 -3.37282 0
M  V30 24187 H 2246.17 -2.60491 -3.57207 0
M  V30 24188 N 2245.23 0.505704 -1.49266 0
M  V30 24189 C 2246.16 1.6165 -1.68498 0
M  V30 24190 C 2247.14 1.61511 -0.533688 0
M  V30 24191 O 2248.33 1.78326 -0.769002 0
M  V30 24192 C 2245.46 3.00154 -1.74714 0
M  V30 24193 C 2244.41 3.15157 -2.89586 0
M  V30 24194 C 2243.74 4.54965 -2.80911 0
M  V30 24195 C 2245.04 2.95627 -4.30584 0
M  V30 24196 H 2246.73 1.45809 -2.61496 0
M  V30 24197 H 2244.28 0.700028 -1.2584 0
M  V30 24198 H 2246.23 3.77757 -1.86755 0
M  V30 24199 H 2244.96 3.17072 -0.783123 0
M  V30 24200 H 2243.62 2.39977 -2.7714 0
M  V30 24201 H 2243.26 4.68753 -1.82427 0
M  V30 24202 H 2242.96 4.65945 -3.58007 0
M  V30 24203 H 2244.49 5.34636 -2.94953 0
M  V30 24204 H 2245.9 3.63003 -4.43736 0
M  V30 24205 H 2244.3 3.18082 -5.08866 0
M  V30 24206 H 2245.37 1.91798 -4.45356 0
M  V30 24207 N 2246.71 1.38262 0.756405 0
M  V30 24208 C 2247.66 1.35264 1.87009 0
M  V30 24209 C 2248.63 0.215645 1.64694 0
M  V30 24210 O 2249.81 0.407432 1.86399 0
M  V30 24211 C 2246.95 1.18073 3.24273 0
M  V30 24212 C 2246.07 2.41136 3.58438 0
M  V30 24213 C 2245.2 2.16697 4.8499 0
M  V30 24214 C 2244.24 3.35546 5.11933 0
M  V30 24215 N 2243.38 3.10561 6.2968 0
M  V30 24216 H 2248.22 2.30475 1.88906 0
M  V30 24217 H 2245.76 1.1451 0.923353 0
M  V30 24218 H 2247.71 1.06123 4.03477 0
M  V30 24219 H 2246.34 0.26503 3.2171 0
M  V30 24220 H 2245.4 2.63769 2.74099 0
M  V30 24221 H 2246.71 3.29724 3.74278 0
M  V30 24222 H 2245.86 2.01867 5.72132 0
M  V30 24223 H 2244.6 1.25471 4.71284 0
M  V30 24224 H 2243.61 3.50898 4.23262 0
M  V30 24225 H 2244.83 4.27645 5.27539 0
M  V30 24226 H 2242.78 2.21978 6.17302 0
M  V30 24227 H 2242.69 3.92697 6.46007 0
M  V30 24228 H 2243.96 2.99379 7.19717 0
M  V30 24229 N 2248.19 -0.984277 1.23084 0
M  V30 24230 C 2249.44 -1.71928 1.05469 0
M  V30 24231 C 2249.75 -1.91272 -0.409178 0
M  V30 24232 O 2250.96 -2.62182 -0.70518 0
M  V30 24233 C 2249.41 -3.09381 1.83879 0
M  V30 24234 C 2249.02 -2.97937 3.34571 0
M  V30 24235 C 2250.77 -3.86867 1.74741 0
M  V30 24236 C 2248.67 -4.30598 4.05388 0
M  V30 24237 H 2247.6 -0.644667 0.39105 0
M  V30 24238 H 2250.25 -1.09812 1.47015 0
M  V30 24239 H 2248.64 -3.72228 1.35137 0
M  V30 24240 H 2249.81 -2.44202 3.90771 0
M  V30 24241 H 2248.13 -2.33928 3.4448 0
M  V30 24242 H 2250.72 -4.85072 2.24966 0
M  V30 24243 H 2251.07 -4.1021 0.709444 0
M  V30 24244 H 2251.6 -3.30714 2.21073 0
M  V30 24245 H 2248.34 -4.12451 5.09475 0
M  V30 24246 H 2247.86 -4.84212 3.53976 0
M  V30 24247 H 2249.54 -4.99304 4.11466 0
M  V30 24248 N 2249.67 -1.04192 -1.18244 0
M  V30 24249 C 2250.92 -0.741227 -1.87587 0
M  V30 24250 C 2251.23 0.734034 -1.81304 0
M  V30 24251 O 2252.44 1.14829 -2.46021 0
M  V30 24252 C 2250.89 -1.27561 -3.36536 0
M  V30 24253 C 2250.5 -2.77959 -3.51344 0
M  V30 24254 C 2252.24 -1.0515 -4.11271 0
M  V30 24255 C 2250.15 -3.24748 -4.94259 0
M  V30 24256 H 2249.08 -0.273578 -0.702617 0
M  V30 24257 H 2251.73 -1.25792 -1.33599 0
M  V30 24258 H 2250.11 -0.686772 -3.89999 0
M  V30 24259 H 2251.29 -3.42611 -3.08147 0
M  V30 24260 H 2249.6 -2.98797 -2.90016 0
M  V30 24261 H 2252.2 -1.3762 -5.16686 0
M  V30 24262 H 2252.54 0.0112042 -4.16298 0
M  V30 24263 H 2253.08 -1.60501 -3.63984 0
M  V30 24264 H 2249.82 -4.30405 -4.94401 0
M  V30 24265 H 2249.34 -2.64833 -5.38167 0
M  V30 24266 H 2251.01 -3.18844 -5.62981 0
M  V30 24267 N 2251.15 1.34492 -0.821557 0
M  V30 24268 C 2252.11 2.27856 -0.247887 0
M  V30 24269 C 2253.11 1.50228 0.573426 0
M  V30 24270 O 2254.3 1.69784 0.38973 0
M  V30 24271 C 2251.43 3.34594 0.652639 0
M  V30 24272 H 2252.62 2.80105 -1.07151 0
M  V30 24273 H 2250.18 1.44601 -0.593316 0
M  V30 24274 H 2250.91 2.87557 1.49938 0
M  V30 24275 H 2250.7 3.92046 0.0652231 0
M  V30 24276 H 2252.19 4.0424 1.04786 0
M  V30 24277 N 2252.62 0.576397 1.46681 0
M  V30 24278 C 2253.87 0.0595695 2.02412 0
M  V30 24279 C 2254.2 -1.2979 1.44861 0
M  V30 24280 O 2253.45 -1.86239 0.601131 0
M  V30 24281 C 2253.75 -0.0628232 3.57345 0
M  V30 24282 C 2253.42 1.22623 4.33906 0
M  V30 24283 C 2252.08 1.57941 4.54542 0
M  V30 24284 C 2254.43 2.07957 4.77916 0
M  V30 24285 C 2251.76 2.78402 5.16439 0
M  V30 24286 C 2254.11 3.27638 5.41143 0
M  V30 24287 C 2252.78 3.63246 5.60008 0
M  V30 24288 H 2252.05 0.021798 0.740679 0
M  V30 24289 H 2254.69 0.751766 1.76127 0
M  V30 24290 H 2253 -0.83811 3.82731 0
M  V30 24291 H 2254.7 -0.478369 3.98136 0
M  V30 24292 H 2251.29 0.941276 4.18136 0
M  V30 24293 H 2255.47 1.81976 4.61734 0
M  V30 24294 H 2250.73 3.06135 5.29236 0
M  V30 24295 H 2254.9 3.94034 5.74204 0
M  V30 24296 H 2252.53 4.56679 6.0774 0
M  V30 24297 N 2254.1 -1.54444 0.313841 0
M  V30 24298 C 2255.35 -1.99993 -0.291064 0
M  V30 24299 C 2255.67 -1.20369 -1.53416 0
M  V30 24300 O 2254.94 -0.302961 -1.93543 0
M  V30 24301 H 2253.52 -0.738776 -0.110539 0
M  V30 24302 H 2256.18 -1.90139 0.428139 0
M  V30 24303 H 2255.28 -3.0714 -0.554214 0
M  V30 24304 N 2255.58 -0.0418125 -1.57545 0
M  V30 24305 C 2256.83 0.634987 -1.92603 0
M  V30 24306 C 2257.16 1.71044 -0.919657 0
M  V30 24307 O 2256.43 1.9442 0.055755 0
M  V30 24308 C 2256.72 1.23973 -3.38087 0
M  V30 24309 C 2256.57 0.172978 -4.49467 0
M  V30 24310 C 2257.89 2.1541 -3.83779 0
M  V30 24311 H 2255.01 0.229362 -0.700401 0
M  V30 24312 H 2257.65 -0.101666 -1.89728 0
M  V30 24313 H 2255.8 1.86756 -3.40667 0
M  V30 24314 H 2257.47 -0.458392 -4.59017 0
M  V30 24315 H 2255.72 -0.500072 -4.30908 0
M  V30 24316 H 2256.39 0.635957 -5.48324 0
M  V30 24317 H 2258.86 1.62599 -3.83016 0
M  V30 24318 H 2257.74 2.5467 -4.86245 0
M  V30 24319 H 2258 3.05042 -3.20003 0
M  V30 24320 N 2257.06 1.55891 0.231477 0
M  V30 24321 C 2257.99 1.94619 1.29018 0
M  V30 24322 C 2258.97 0.813093 1.49408 0
M  V30 24323 O 2260.15 1.07462 1.61758 0
M  V30 24324 C 2257.28 2.25429 2.64195 0
M  V30 24325 C 2256.24 3.41135 2.58478 0
M  V30 24326 C 2255.56 3.57525 3.97593 0
M  V30 24327 C 2256.86 4.76392 2.14122 0
M  V30 24328 H 2258.56 2.83302 0.968513 0
M  V30 24329 H 2256.1 1.36304 0.464455 0
M  V30 24330 H 2258.06 2.51112 3.38409 0
M  V30 24331 H 2256.78 1.33588 2.9803 0
M  V30 24332 H 2255.44 3.15485 1.86722 0
M  V30 24333 H 2255.09 2.63077 4.28718 0
M  V30 24334 H 2254.79 4.35344 3.94651 0
M  V30 24335 H 2256.31 3.85547 4.73483 0
M  V30 24336 H 2257.73 5.01346 2.78074 0
M  V30 24337 H 2256.12 5.57423 2.2226 0
M  V30 24338 H 2257.19 4.72416 1.09323 0
M  V30 24339 N 2258.54 -0.497781 1.49532 0
M  V30 24340 C 2259.48 -1.6198 1.66929 0
M  V30 24341 C 2260.48 -1.60723 0.535195 0
M  V30 24342 O 2261.68 -1.65193 0.714925 0
M  V30 24343 H 2258.06 -0.537012 0.526424 0
M  V30 24344 H 2260.03 -1.4446 2.61101 0
M  V30 24345 C 2258.78 -3.00096 1.75607 0
M  V30 24346 H 2258.1 -3.0177 2.6225 0
M  V30 24347 H 2259.54 -3.78132 1.91813 0
M  V30 24348 C 2258 -3.33145 0.501601 0
M  V30 24349 O 2258.53 -3.99981 -0.371271 0
M  V30 24350 N 2256.74 -2.88317 0.363582 0
M  V30 24351 H 2256.28 -2.34102 1.0749 0
M  V30 24352 H 2256.24 -3.10796 -0.474673 0
M  V30 24353 N 2260.01 -1.38661 -0.749062 0
M  V30 24354 C 2261.24 -1.3816 -1.53608 0
M  V30 24355 C 2261.65 0.0293263 -1.89177 0
M  V30 24356 O 2261 1.00749 -1.53608 0
M  V30 24357 C 2261.06 -2.17707 -2.86083 0
M  V30 24358 C 2260.72 -3.66477 -2.73027 0
M  V30 24359 C 2261.72 -4.5987 -2.42518 0
M  V30 24360 C 2259.4 -4.09889 -2.90338 0
M  V30 24361 C 2261.4 -5.94657 -2.29481 0
M  V30 24362 C 2259.08 -5.44755 -2.76921 0
M  V30 24363 C 2260.08 -6.36953 -2.46536 0
M  V30 24364 O 2259.77 -7.69337 -2.33185 0
M  V30 24365 H 2259.5 -0.474214 -0.481765 0
M  V30 24366 H 2262.06 -1.82914 -0.934433 0
M  V30 24367 H 2260.29 -1.67678 -3.48455 0
M  V30 24368 H 2261.98 -2.09557 -3.47621 0
M  V30 24369 H 2262.74 -4.27635 -2.28808 0
M  V30 24370 H 2258.62 -3.3847 -3.12984 0
M  V30 24371 H 2262.16 -6.66587 -2.05686 0
M  V30 24372 H 2258.06 -5.76586 -2.90205 0
M  V30 24373 H 2258.83 -7.79909 -2.48363 0
M  V30 24374 N 2261.49 0.977736 -1.23605 0
M  V30 24375 C 2262.74 1.71939 -1.06974 0
M  V30 24376 C 2263.07 1.90489 0.392975 0
M  V30 24377 O 2262.32 1.45642 1.30717 0
M  V30 24378 C 2262.62 3.11996 -1.74336 0
M  V30 24379 C 2262.29 3.13317 -3.24258 0
M  V30 24380 C 2260.95 3.13385 -3.65162 0
M  V30 24381 C 2263.3 3.08425 -4.20147 0
M  V30 24382 C 2260.63 3.06281 -5.00409 0
M  V30 24383 C 2262.98 3.02863 -5.55389 0
M  V30 24384 C 2261.65 3.01254 -5.95653 0
M  V30 24385 H 2260.92 0.629168 -0.391444 0
M  V30 24386 H 2263.56 1.144 -1.53574 0
M  V30 24387 H 2261.87 3.72938 -1.20102 0
M  V30 24388 H 2263.57 3.68155 -1.58943 0
M  V30 24389 H 2260.16 3.14024 -2.91697 0
M  V30 24390 H 2264.34 3.07511 -3.89552 0
M  V30 24391 H 2259.6 3.0339 -5.30815 0
M  V30 24392 H 2263.77 2.98035 -6.29403 0
M  V30 24393 H 2261.4 2.95504 -7.00415 0
M  V30 24394 N 2262.97 1.04818 1.1769 0
M  V30 24395 C 2264.39 0.768819 1.39862 0
M  V30 24396 C 2264.59 -0.638418 1.91119 0
M  V30 24397 O 2263.64 -1.40143 2.10039 0
M  V30 24398 C 2264.96 1.82126 2.39271 0
M  V30 24399 C 2266.5 1.84304 2.52984 0
M  V30 24400 C 2266.98 2.88561 3.55664 0
M  V30 24401 N 2268.47 2.875 3.63178 0
M  V30 24402 C 2269.21 3.64819 4.42374 0
M  V30 24403 N 2268.7 4.51912 5.25117 0
M  V30 24404 N 2270.49 3.53275 4.37211 0
M  V30 24405 H 2262.65 1.95618 0.827485 0
M  V30 24406 H 2264.91 0.846839 0.426108 0
M  V30 24407 H 2264.61 2.83105 2.08673 0
M  V30 24408 H 2264.49 1.65972 3.38723 0
M  V30 24409 H 2266.88 0.839919 2.82895 0
M  V30 24410 H 2266.96 2.04535 1.5362 0
M  V30 24411 H 2266.6 3.89057 3.26492 0
M  V30 24412 H 2266.53 2.65583 4.54723 0
M  V30 24413 H 2269.02 2.24348 3.04099 0
M  V30 24414 H 2269.33 5.07601 5.82719 0
M  V30 24415 H 2267.68 4.55975 5.24511 0
M  V30 24416 H 2270.87 2.84632 3.71621 0
M  V30 24417 H 2271.04 4.1378 4.98688 0
M  V30 24418 N 2264.45 -1.34055 0.828678 0
M  V30 24419 C 2265.73 -1.9259 0.341842 0
M  V30 24420 C 2266.11 -1.75607 -1.17155 0
M  V30 24421 O 2265.45 -1.13827 -1.9813 0
M  V30 24422 C 2265.66 -3.40229 0.777512 0
M  V30 24423 C 2267.01 -4.17381 0.779652 0
M  V30 24424 O 2268.04 -3.48838 0.720461 0
M  V30 24425 O 2266.9 -5.39721 0.858091 0
M  V30 24426 H 2263.99 -0.821569 0.0946229 0
M  V30 24427 H 2266.54 -1.42992 0.913852 0
M  V30 24428 H 2265.31 -3.46416 1.81966 0
M  V30 24429 H 2264.93 -3.97185 0.181514 0
M  V30 24430 N 2265.93 -0.584167 -1.46374 0
M  V30 24431 C 2266.89 0.138068 -2.28784 0
M  V30 24432 C 2267.89 0.817438 -1.38472 0
M  V30 24433 O 2269.08 0.669171 -1.60835 0
M  V30 24434 C 2266.21 1.20497 -3.18894 0
M  V30 24435 H 2267.41 -0.586179 -2.94116 0
M  V30 24436 H 2264.96 -0.342198 -1.52508 0
M  V30 24437 H 2265.69 1.96075 -2.58312 0
M  V30 24438 H 2265.48 0.722316 -3.85389 0
M  V30 24439 H 2266.97 1.71148 -3.80917 0
M  V30 24440 N 2267.41 1.54275 -0.322027 0
M  V30 24441 C 2268.65 2.01543 0.274198 0
M  V30 24442 C 2269.01 1.20617 1.49898 0
M  V30 24443 O 2268.3 0.279837 1.89545 0
M  V30 24444 C 2268.49 3.51221 0.661707 0
M  V30 24445 C 2268.32 4.46637 -0.523971 0
M  V30 24446 C 2267.09 4.94845 -1.02259 0
M  V30 24447 C 2269.29 4.9556 -1.37567 0
M  V30 24448 N 2267.27 5.74161 -2.17284 0
M  V30 24449 C 2268.64 5.72786 -2.37311 0
M  V30 24450 C 2270.7 4.77706 -1.40361 0
M  V30 24451 C 2269.4 6.34058 -3.39651 0
M  V30 24452 C 2271.43 5.39812 -2.41571 0
M  V30 24453 C 2270.79 6.16888 -3.40042 0
M  V30 24454 H 2266.89 0.779358 0.064223 0
M  V30 24455 H 2269.47 1.89268 -0.456717 0
M  V30 24456 H 2267.64 3.63745 1.36176 0
M  V30 24457 H 2269.38 3.85259 1.23927 0
M  V30 24458 H 2266.13 4.69859 -0.594129 0
M  V30 24459 H 2266.55 6.18497 -2.753 0
M  V30 24460 H 2271.2 4.1768 -0.655981 0
M  V30 24461 H 2268.91 6.93205 -4.15321 0
M  V30 24462 H 2272.5 5.27916 -2.44533 0
M  V30 24463 H 2271.38 6.64092 -4.17075 0
M  V30 24464 N 2268.88 0.0501669 1.5752 0
M  V30 24465 C 2269.83 -0.942421 2.12653 0
M  V30 24466 C 2270.83 -1.32291 1.05809 0
M  V30 24467 O 2272.03 -1.30268 1.24219 0
M  V30 24468 H 2268.41 -0.321777 0.679679 0
M  V30 24469 H 2270.38 -0.452304 2.94952 0
M  V30 24470 C 2269.13 -2.20831 2.68568 0
M  V30 24471 H 2268.45 -1.92433 3.50442 0
M  V30 24472 H 2269.89 -2.88444 3.10767 0
M  V30 24473 C 2268.35 -2.95231 1.62297 0
M  V30 24474 O 2268.88 -3.88133 1.03515 0
M  V30 24475 N 2267.08 -2.57944 1.33841 0
M  V30 24476 H 2266.63 -1.82472 1.81829 0
M  V30 24477 H 2266.59 -3.0803 0.629649 0
M  V30 24478 N 2270.36 -1.56011 -0.223207 0
M  V30 24479 C 2271.61 -1.79213 -0.949248 0
M  V30 24480 C 2271.94 -0.619527 -1.84053 0
M  V30 24481 O 2271.22 0.381283 -1.90726 0
M  V30 24482 C 2271.5 -3.12483 -1.7896 0
M  V30 24483 C 2271.35 -4.40188 -0.92492 0
M  V30 24484 C 2272.67 -3.4218 -2.76768 0
M  V30 24485 H 2269.79 -0.651969 -0.343665 0
M  V30 24486 H 2272.43 -1.88743 -0.21822 0
M  V30 24487 H 2270.58 -3.04489 -2.41285 0
M  V30 24488 H 2272.25 -4.60199 -0.318535 0
M  V30 24489 H 2270.5 -4.33188 -0.230268 0
M  V30 24490 H 2271.17 -5.29872 -1.54726 0
M  V30 24491 H 2273.64 -3.50291 -2.24578 0
M  V30 24492 H 2272.52 -4.36603 -3.3267 0
M  V30 24493 H 2272.78 -2.64265 -3.54424 0
M  V30 24494 N 2271.84 0.489844 -1.49794 0
M  V30 24495 C 2273.09 1.24324 -1.59843 0
M  V30 24496 C 2273.41 1.92323 -0.290169 0
M  V30 24497 O 2272.67 1.81866 0.722717 0
M  V30 24498 C 2272.97 2.32436 -2.71492 0
M  V30 24499 C 2272.63 1.81819 -4.12617 0
M  V30 24500 C 2271.3 1.67734 -4.5102 0
M  V30 24501 C 2273.65 1.44062 -5.00895 0
M  V30 24502 C 2270.98 1.14287 -5.75461 0
M  V30 24503 C 2273.33 0.920632 -6.25865 0
M  V30 24504 C 2271.99 0.766267 -6.63087 0
M  V30 24505 H 2271.26 0.454934 -0.584907 0
M  V30 24506 H 2273.91 0.542183 -1.83664 0
M  V30 24507 H 2272.21 3.08375 -2.41685 0
M  V30 24508 H 2273.91 2.90453 -2.76474 0
M  V30 24509 H 2270.5 1.93744 -3.8231 0
M  V30 24510 H 2274.69 1.53786 -4.71873 0
M  V30 24511 H 2269.94 1.01057 -6.0299 0
M  V30 24512 H 2274.12 0.619326 -6.93641 0
M  V30 24513 H 2271.74 0.34995 -7.59394 0
M  V30 24514 N 2273.32 1.39056 0.741698 0
M  V30 24515 C 2274.59 1.26428 1.49249 0
M  V30 24516 C 2274.97 -0.129107 2.10705 0
M  V30 24517 O 2274.32 -1.13973 1.98047 0
M  V30 24518 C 2274.53 2.38352 2.5493 0
M  V30 24519 C 2275.88 2.77349 3.21501 0
M  V30 24520 O 2276.9 2.37752 2.6524 0
M  V30 24521 O 2275.76 3.45672 4.23288 0
M  V30 24522 H 2272.86 0.495075 0.662442 0
M  V30 24523 H 2275.4 1.50913 0.776094 0
M  V30 24524 H 2274.18 3.31532 2.07851 0
M  V30 24525 H 2273.8 2.15495 3.34137 0
M  V30 24526 N 2274.8 -0.971167 1.24121 0
M  V30 24527 C 2276.04 -1.71369 1.07884 0
M  V30 24528 C 2276.37 -1.90694 -0.382868 0
M  V30 24529 O 2275.63 -1.46333 -1.29943 0
M  V30 24530 C 2275.92 -3.11067 1.75988 0
M  V30 24531 C 2275.59 -3.11593 3.25915 0
M  V30 24532 C 2274.25 -3.11444 3.66819 0
M  V30 24533 C 2276.6 -3.06193 4.21776 0
M  V30 24534 C 2273.93 -3.03623 5.02026 0
M  V30 24535 C 2276.28 -2.99913 5.56987 0
M  V30 24536 C 2274.95 -2.98091 5.97242 0
M  V30 24537 H 2274.22 -0.627083 0.394775 0
M  V30 24538 H 2276.87 -1.13584 1.54178 0
M  V30 24539 H 2275.17 -3.72296 1.22078 0
M  V30 24540 H 2276.87 -3.67307 1.60893 0
M  V30 24541 H 2273.46 -3.12472 2.93358 0
M  V30 24542 H 2277.64 -3.0544 3.91178 0
M  V30 24543 H 2272.9 -3.0057 5.32417 0
M  V30 24544 H 2277.07 -2.94693 6.30975 0
M  V30 24545 H 2274.7 -2.91786 7.01972 0
M  V30 24546 N 2276.27 -1.05441 -1.17133 0
M  V30 24547 C 2277.52 -0.76711 -1.87732 0
M  V30 24548 C 2277.85 0.704221 -1.80982 0
M  V30 24549 O 2277.13 1.51517 -1.21954 0
M  V30 24550 C 2277.41 -1.25139 -3.37657 0
M  V30 24551 C 2277.26 -2.78584 -3.53145 0
M  V30 24552 C 2278.58 -0.8524 -4.31766 0
M  V30 24553 H 2275.7 -0.280141 -0.681682 0
M  V30 24554 H 2278.34 -1.30883 -1.3773 0
M  V30 24555 H 2276.49 -0.790536 -3.80372 0
M  V30 24556 H 2278.17 -3.32812 -3.19428 0
M  V30 24557 H 2276.41 -3.17737 -2.9534 0
M  V30 24558 H 2277.08 -3.07531 -4.58398 0
M  V30 24559 H 2279.56 -1.24918 -3.96906 0
M  V30 24560 H 2278.43 -1.21883 -5.35197 0
M  V30 24561 H 2278.69 0.243407 -4.41429 0
M  V30 24562 N 2277.75 1.33613 -0.835776 0
M  V30 24563 C 2278.98 2.02093 -0.443379 0
M  V30 24564 C 2279.4 1.62895 0.954493 0
M  V30 24565 O 2278.75 0.840752 1.6198 0
M  V30 24566 C 2278.8 3.57279 -0.550838 0
M  V30 24567 O 2278.52 3.95061 -1.89363 0
M  V30 24568 C 2280.03 4.43029 -0.154997 0
M  V30 24569 H 2277.25 0.647406 -0.17637 0
M  V30 24570 H 2279.79 1.7061 -1.12749 0
M  V30 24571 H 2277.94 3.87306 0.0853316 0
M  V30 24572 H 2278.36 4.89766 -1.87696 0
M  V30 24573 H 2279.83 5.51283 -0.281241 0
M  V30 24574 H 2280.31 4.29821 0.902788 0
M  V30 24575 H 2280.92 4.18355 -0.765477 0
M  V30 24576 N 2279.23 0.591922 1.46062 0
M  V30 24577 C 2280.48 0.0811547 2.02638 0
M  V30 24578 C 2280.81 -1.27902 1.46132 0
M  V30 24579 O 2280.08 -1.84016 0.62994 0
M  V30 24580 C 2280.37 0.0253069 3.60091 0
M  V30 24581 C 2280.22 1.41504 4.26962 0
M  V30 24582 C 2281.54 -0.670608 4.34961 0
M  V30 24583 H 2278.66 0.0309654 0.736349 0
M  V30 24584 H 2281.3 0.76089 1.74099 0
M  V30 24585 H 2279.45 -0.553557 3.84536 0
M  V30 24586 H 2281.12 2.03978 4.13752 0
M  V30 24587 H 2279.37 1.98018 3.85968 0
M  V30 24588 H 2280.04 1.32835 5.35779 0
M  V30 24589 H 2282.51 -0.178752 4.15716 0
M  V30 24590 H 2281.39 -0.678742 5.44687 0
M  V30 24591 H 2281.65 -1.73371 4.06688 0
M  V30 24592 N 2280.71 -1.54102 0.330204 0
M  V30 24593 C 2281.64 -2.27514 -0.525313 0
M  V30 24594 C 2282.62 -1.28562 -1.11381 0
M  V30 24595 O 2283.8 -1.57385 -1.1377 0
M  V30 24596 C 2280.93 -3.03794 -1.68305 0
M  V30 24597 C 2279.89 -4.10139 -1.22353 0
M  V30 24598 C 2279.21 -4.74297 -2.46873 0
M  V30 24599 C 2280.51 -5.21234 -0.333605 0
M  V30 24600 H 2282.21 -2.99273 0.0870656 0
M  V30 24601 H 2279.75 -1.43935 0.0433146 0
M  V30 24602 H 2281.71 -3.53884 -2.28788 0
M  V30 24603 H 2280.43 -2.29663 -2.32212 0
M  V30 24604 H 2279.09 -3.60942 -0.641586 0
M  V30 24605 H 2278.74 -3.96775 -3.09159 0
M  V30 24606 H 2278.44 -5.46136 -2.16815 0
M  V30 24607 H 2279.96 -5.27164 -3.08107 0
M  V30 24608 H 2281.38 -5.6704 -0.844913 0
M  V30 24609 H 2279.77 -5.99969 -0.125507 0
M  V30 24610 H 2280.84 -4.8074 0.633808 0
M  V30 24611 N 2282.19 -0.0585199 -1.57491 0
M  V30 24612 C 2283.43 0.612402 -1.92598 0
M  V30 24613 C 2283.76 1.70947 -0.938192 0
M  V30 24614 O 2283.03 1.95894 0.0157957 0
M  V30 24615 H 2281.61 0.229201 -0.710968 0
M  V30 24616 H 2284.27 -0.113252 -1.94571 0
M  V30 24617 H 2283.36 1.04628 -2.9404 0
M  V30 24618 N 2283.66 1.56128 0.21493 0
M  V30 24619 C 2284.89 1.83886 0.959207 0
M  V30 24620 C 2285.31 0.639675 1.76889 0
M  V30 24621 O 2284.67 -0.41157 1.76567 0
M  V30 24622 C 2284.72 3.09696 1.84718 0
M  V30 24623 O 2283.82 2.88855 2.94341 0
M  V30 24624 H 2283.17 0.606073 0.27124 0
M  V30 24625 H 2285.7 2.03345 0.22624 0
M  V30 24626 H 2285.71 3.39973 2.2557 0
M  V30 24627 H 2284.38 3.96605 1.25211 0
M  V30 24628 H 2282.96 2.69828 2.57386 0
M  V30 24629 N 2285.14 -0.481893 1.50052 0
M  V30 24630 C 2286.39 -1.23147 1.59743 0
M  V30 24631 C 2286.7 -1.93314 0.298197 0
M  V30 24632 O 2287.91 -2.70115 0.273883 0
M  V30 24633 C 2286.37 -2.23703 2.8193 0
M  V30 24634 C 2285.97 -1.59389 4.18688 0
M  V30 24635 C 2287.72 -2.9937 3.00962 0
M  V30 24636 C 2285.63 -2.58168 5.32074 0
M  V30 24637 H 2284.56 -0.46333 0.594846 0
M  V30 24638 H 2287.21 -0.503138 1.76467 0
M  V30 24639 H 2285.59 -2.99782 2.58741 0
M  V30 24640 H 2286.76 -0.891732 4.52089 0
M  V30 24641 H 2285.08 -0.960432 4.05172 0
M  V30 24642 H 2287.67 -3.73277 3.82843 0
M  V30 24643 H 2288.02 -3.58119 2.12265 0
M  V30 24644 H 2288.55 -2.30406 3.24281 0
M  V30 24645 H 2285.29 -2.04173 6.22891 0
M  V30 24646 H 2284.81 -3.26568 5.03104 0
M  V30 24647 H 2286.49 -3.20216 5.62202 0
M  V30 24648 N 2286.62 -1.39448 -0.734313 0
M  V30 24649 C 2287.85 -1.39984 -1.52355 0
M  V30 24650 C 2288.26 0.00546432 -1.88799 0
M  V30 24651 O 2287.62 0.976971 -1.54148 0
M  V30 24652 C 2287.67 -2.27338 -2.81068 0
M  V30 24653 O 2287.39 -3.62396 -2.46172 0
M  V30 24654 C 2288.89 -2.36265 -3.75092 0
M  V30 24655 H 2286.11 -0.478112 -0.470798 0
M  V30 24656 H 2288.66 -1.83271 -0.907307 0
M  V30 24657 H 2286.81 -1.87463 -3.39023 0
M  V30 24658 H 2287.23 -4.08597 -3.28859 0
M  V30 24659 H 2288.7 -3.01634 -4.623 0
M  V30 24660 H 2289.18 -1.38202 -4.1689 0
M  V30 24661 H 2289.78 -2.76613 -3.23056 0
M  V30 24662 N 2288.1 0.964571 -1.24635 0
M  V30 24663 C 2289.38 1.68352 -0.995839 0
M  V30 24664 C 2289.76 2.05549 0.480927 0
M  V30 24665 O 2289.1 1.76108 1.45596 0
M  V30 24666 C 2289.31 2.91319 -1.92182 0
M  V30 24667 C 2290.66 3.63491 -2.19453 0
M  V30 24668 O 2291.69 3.01382 -1.89861 0
M  V30 24669 O 2290.54 4.75302 -2.69723 0
M  V30 24670 H 2287.64 0.736139 -0.376867 0
M  V30 24671 H 2290.18 1.01838 -1.35746 0
M  V30 24672 H 2288.96 2.60548 -2.91943 0
M  V30 24673 H 2288.58 3.65566 -1.56356 0
M  V30 24674 N 2289.58 1.0606 1.16572 0
M  V30 24675 C 2290.83 0.770977 1.86384 0
M  V30 24676 C 2291.14 -0.705097 1.82449 0
M  V30 24677 O 2292.34 -1.10901 2.47817 0
M  V30 24678 C 2290.8 1.32899 3.34464 0
M  V30 24679 C 2290.41 2.83513 3.46878 0
M  V30 24680 C 2292.15 1.1168 4.09546 0
M  V30 24681 C 2290.06 3.32571 4.8903 0
M  V30 24682 H 2288.99 0.284721 0.698176 0
M  V30 24683 H 2291.64 1.27901 1.31581 0
M  V30 24684 H 2290.02 0.748731 3.88857 0
M  V30 24685 H 2291.2 3.4747 3.02657 0
M  V30 24686 H 2289.51 3.03373 2.85226 0
M  V30 24687 H 2292.11 1.45823 5.14431 0
M  V30 24688 H 2292.45 0.0550267 4.16264 0
M  V30 24689 H 2292.98 1.66272 3.61384 0
M  V30 24690 H 2289.72 4.38216 4.87491 0
M  V30 24691 H 2289.24 2.73361 5.33886 0
M  V30 24692 H 2290.92 3.2776 5.57837 0
M  V30 24693 N 2291.06 -1.33168 0.84285 0
M  V30 24694 C 2291.99 -2.31641 0.294069 0
M  V30 24695 C 2292.97 -1.59153 -0.600373 0
M  V30 24696 O 2294.15 -1.87022 -0.523091 0
M  V30 24697 C 2291.28 -3.43257 -0.528355 0
M  V30 24698 C 2290.24 -4.27143 0.270635 0
M  V30 24699 C 2289.56 -5.30412 -0.675788 0
M  V30 24700 C 2290.86 -5.00599 1.4899 0
M  V30 24701 H 2292.56 -2.77789 1.11686 0
M  V30 24702 H 2290.1 -1.33552 0.538502 0
M  V30 24703 H 2292.05 -4.11176 -0.922602 0
M  V30 24704 H 2290.78 -2.95808 -1.38439 0
M  V30 24705 H 2289.44 -3.60855 0.646491 0
M  V30 24706 H 2289.09 -4.79219 -1.52834 0
M  V30 24707 H 2288.79 -5.8742 -0.145271 0
M  V30 24708 H 2290.31 -6.01197 -1.06746 0
M  V30 24709 H 2291.72 -5.61264 1.16859 0
M  V30 24710 H 2290.12 -5.67276 1.95749 0
M  V30 24711 H 2291.19 -4.29143 2.25753 0
M  V30 24712 N 2292.53 -0.599659 -1.45746 0
M  V30 24713 C 2293.78 -0.0918999 -2.02592 0
M  V30 24714 C 2294.11 1.27126 -1.46808 0
M  V30 24715 O 2293.39 1.8368 -0.63969 0
M  V30 24716 C 2293.67 -0.044403 -3.60073 0
M  V30 24717 C 2293.52 -1.43766 -4.26206 0
M  V30 24718 C 2294.84 0.647532 -4.3531 0
M  V30 24719 H 2291.96 -0.03487 -0.736175 0
M  V30 24720 H 2294.6 -0.770112 -1.73693 0
M  V30 24721 H 2292.75 0.533156 -3.84824 0
M  V30 24722 H 2294.43 -2.06169 -4.12665 0
M  V30 24723 H 2292.67 -2.00062 -3.84912 0
M  V30 24724 H 2293.34 -1.35674 -5.35067 0
M  V30 24725 H 2295.82 0.156703 -4.15805 0
M  V30 24726 H 2294.69 0.649846 -5.4504 0
M  V30 24727 H 2294.95 1.71212 -4.07601 0
M  V30 24728 N 2294.01 1.53925 -0.338371 0
M  V30 24729 C 2295.24 2.05244 0.261262 0
M  V30 24730 C 2295.65 1.21366 1.44623 0
M  V30 24731 O 2295.01 0.247768 1.8081 0
M  V30 24732 C 2295.06 3.55021 0.68135 0
M  V30 24733 O 2294.78 4.35715 -0.456491 0
M  V30 24734 C 2296.28 4.22491 1.34224 0
M  V30 24735 H 2293.5 0.669032 0.0513568 0
M  V30 24736 H 2296.05 1.98571 -0.488857 0
M  V30 24737 H 2294.2 3.61933 1.38142 0
M  V30 24738 H 2294.62 5.24357 -0.122656 0
M  V30 24739 H 2296.09 5.28695 1.58698 0
M  V30 24740 H 2296.57 3.74518 2.29419 0
M  V30 24741 H 2297.17 4.19758 0.68435 0
M  V30 24742 N 2295.49 0.0668712 1.57458 0
M  V30 24743 C 2296.4 -0.916937 2.15938 0
M  V30 24744 C 2297.42 -1.33056 1.12126 0
M  V30 24745 O 2298.59 -1.40426 1.44369 0
M  V30 24746 C 2295.66 -2.16802 2.70551 0
M  V30 24747 C 2294.72 -1.81128 3.89219 0
M  V30 24748 C 2293.95 -3.00272 4.41217 0
M  V30 24749 O 2294.17 -4.14137 3.92233 0
M  V30 24750 O 2293.11 -2.80375 5.3261 0
M  V30 24751 H 2296.93 -0.449508 3.00355 0
M  V30 24752 H 2294.52 -0.155923 1.48584 0
M  V30 24753 H 2296.4 -2.90176 3.05575 0
M  V30 24754 H 2295.08 -2.62653 1.89196 0
M  V30 24755 H 2293.98 -1.05022 3.59056 0
M  V30 24756 H 2295.32 -1.40065 4.7185 0
M  V30 24757 N 2296.97 -1.56239 -0.206647 0
M  V30 24758 C 2298.22 -1.79139 -0.926933 0
M  V30 24759 C 2298.53 -0.638076 -1.849 0
M  V30 24760 O 2299.74 -0.751079 -2.60904 0
M  V30 24761 C 2298.19 -3.17297 -1.69854 0
M  V30 24762 C 2297.8 -4.40397 -0.821878 0
M  V30 24763 C 2299.54 -3.49514 -2.40915 0
M  V30 24764 C 2297.45 -5.69578 -1.59169 0
M  V30 24765 H 2296.38 -0.667922 -0.349852 0
M  V30 24766 H 2299.03 -1.82611 -0.180455 0
M  V30 24767 H 2297.41 -3.08043 -2.48848 0
M  V30 24768 H 2298.59 -4.60745 -0.0714209 0
M  V30 24769 H 2296.9 -4.15804 -0.222668 0
M  V30 24770 H 2299.5 -4.4326 -2.99039 0
M  V30 24771 H 2299.84 -2.72712 -3.14537 0
M  V30 24772 H 2300.38 -3.60164 -1.68899 0
M  V30 24773 H 2297.11 -6.49313 -0.898475 0
M  V30 24774 H 2296.63 -5.53267 -2.31638 0
M  V30 24775 H 2298.31 -6.10285 -2.14851 0
M  V30 24776 N 2298.45 0.473929 -1.50305 0
M  V30 24777 C 2299.41 1.55466 -1.68413 0
M  V30 24778 C 2300.41 1.50921 -0.554932 0
M  V30 24779 O 2301.6 1.53591 -0.821909 0
M  V30 24780 C 2298.73 2.95099 -1.70673 0
M  V30 24781 H 2299.92 1.40729 -2.64831 0
M  V30 24782 H 2297.48 0.700107 -1.39743 0
M  V30 24783 H 2298.21 3.15284 -0.759375 0
M  V30 24784 H 2298 2.99806 -2.52704 0
M  V30 24785 H 2299.49 3.73568 -1.86646 0
M  V30 24786 N 2299.92 1.39835 0.726907 0
M  V30 24787 C 2300.83 1.41492 1.87128 0
M  V30 24788 C 2301.85 0.308787 1.71238 0
M  V30 24789 O 2303.03 0.551563 1.937 0
M  V30 24790 C 2300.09 1.26473 3.22809 0
M  V30 24791 C 2299.15 2.4713 3.51034 0
M  V30 24792 C 2298.38 2.32818 4.80241 0
M  V30 24793 O 2298.61 1.33595 5.54534 0
M  V30 24794 O 2297.54 3.21966 5.08548 0
M  V30 24795 H 2301.37 2.37974 1.88686 0
M  V30 24796 H 2298.95 1.21037 0.875815 0
M  V30 24797 H 2300.83 1.20262 4.03875 0
M  V30 24798 H 2299.51 0.330919 3.22004 0
M  V30 24799 H 2298.42 2.58919 2.70022 0
M  V30 24800 H 2299.75 3.39233 3.56626 0
M  V30 24801 N 2301.4 -0.957948 1.25144 0
M  V30 24802 C 2302.63 -1.73689 1.12427 0
M  V30 24803 C 2303.04 -1.86029 -0.322272 0
M  V30 24804 O 2302.4 -1.35563 -1.22184 0
M  V30 24805 C 2302.45 -3.15238 1.76938 0
M  V30 24806 O 2302.17 -3.03505 3.15937 0
M  V30 24807 C 2303.67 -4.09426 1.69957 0
M  V30 24808 H 2300.89 -0.544366 0.392309 0
M  V30 24809 H 2303.44 -1.20204 1.65442 0
M  V30 24810 H 2301.59 -3.65678 1.27901 0
M  V30 24811 H 2302.01 -3.92774 3.47605 0
M  V30 24812 H 2303.48 -5.06368 2.19762 0
M  V30 24813 H 2303.96 -4.34172 0.662695 0
M  V30 24814 H 2304.56 -3.649 2.18467 0
M  V30 24815 N 2302.88 -1.06677 -1.16008 0
M  V30 24816 C 2303.83 -0.675196 -2.22584 0
M  V30 24817 C 2304.82 0.310737 -1.66526 0
M  V30 24818 O 2306.03 0.175183 -1.79145 0
M  V30 24819 H 2302.4 -0.200235 -0.724852 0
M  V30 24820 H 2304.37 -1.58385 -2.52897 0
M  V30 24821 C 2303.12 -0.0817773 -3.47604 0
M  V30 24822 H 2302.45 -0.831552 -3.91057 0
M  V30 24823 H 2303.89 0.154634 -4.23718 0
M  V30 24824 C 2302.34 1.1757 -3.1572 0
M  V30 24825 O 2302.87 2.26312 -3.31882 0
M  V30 24826 N 2301.08 1.07919 -2.69818 0
M  V30 24827 H 2300.63 0.194248 -2.56867 0
M  V30 24828 H 2300.59 1.92137 -2.48859 0
M  V30 24829 N 2304.36 1.32719 -0.8499 0
M  V30 24830 C 2305.31 2.30911 -0.279785 0
M  V30 24831 C 2306.3 1.58635 0.59425 0
M  V30 24832 O 2307.51 1.7341 0.482583 0
M  V30 24833 H 2303.88 0.748568 -0.0717653 0
M  V30 24834 H 2305.85 2.76492 -1.12227 0
M  V30 24835 C 2304.6 3.43774 0.521047 0
M  V30 24836 H 2303.92 3.99547 -0.142211 0
M  V30 24837 H 2305.36 4.14648 0.88562 0
M  V30 24838 C 2303.82 2.90608 1.70437 0
M  V30 24839 O 2304.35 2.87707 2.80335 0
M  V30 24840 N 2302.56 2.4707 1.52987 0
M  V30 24841 H 2302.11 2.49629 0.63587 0
M  V30 24842 H 2302.06 2.11851 2.32307 0
M  V30 24843 N 2305.84 0.60738 1.45426 0
M  V30 24844 C 2307.08 0.102491 2.0224 0
M  V30 24845 C 2307.41 -1.26688 1.47582 0
M  V30 24846 O 2306.67 -1.84922 0.6405 0
M  V30 24847 C 2306.97 0.0129891 3.57398 0
M  V30 24848 C 2306.63 1.318 4.31207 0
M  V30 24849 C 2305.29 1.67547 4.51089 0
M  V30 24850 C 2307.65 2.18047 4.73397 0
M  V30 24851 C 2304.97 2.89294 5.10417 0
M  V30 24852 C 2307.33 3.39043 5.34072 0
M  V30 24853 C 2305.99 3.75043 5.52177 0
M  V30 24854 H 2305.26 0.037504 0.74005 0
M  V30 24855 H 2307.91 0.788956 1.74493 0
M  V30 24856 H 2306.21 -0.756739 3.84423 0
M  V30 24857 H 2307.91 -0.393811 3.99062 0
M  V30 24858 H 2304.5 1.02976 4.16046 0
M  V30 24859 H 2308.68 1.91729 4.5777 0
M  V30 24860 H 2303.94 3.17292 5.22624 0
M  V30 24861 H 2308.11 4.06125 5.65717 0
M  V30 24862 H 2305.74 4.69468 5.97916 0
M  V30 24863 N 2307.31 -1.53743 0.34653 0
M  V30 24864 C 2308.56 -2.00144 -0.250087 0
M  V30 24865 C 2308.88 -1.23825 -1.51416 0
M  V30 24866 O 2310.08 -1.60717 -2.1882 0
M  V30 24867 C 2308.54 -3.56463 -0.49619 0
M  V30 24868 C 2308.15 -4.41641 0.752155 0
M  V30 24869 C 2309.89 -4.11271 -1.0515 0
M  V30 24870 C 2307.8 -5.89476 0.476687 0
M  V30 24871 H 2306.73 -0.747705 -0.0972278 0
M  V30 24872 H 2309.38 -1.77581 0.462321 0
M  V30 24873 H 2307.76 -3.75104 -1.26938 0
M  V30 24874 H 2308.93 -4.34775 1.52667 0
M  V30 24875 H 2307.25 -3.9784 1.22932 0
M  V30 24876 H 2309.85 -5.19335 -1.2726 0
M  V30 24877 H 2310.19 -3.64675 -2.00793 0
M  V30 24878 H 2310.72 -3.96353 -0.338949 0
M  V30 24879 H 2307.46 -6.40311 1.40292 0
M  V30 24880 H 2306.98 -5.99238 -0.259688 0
M  V30 24881 H 2308.66 -6.4693 0.0950452 0
M  V30 24882 N 2308.79 -0.0752207 -1.5742 0
M  V30 24883 C 2309.74 0.908471 -2.14125 0
M  V30 24884 C 2310.73 1.3059 -1.079 0
M  V30 24885 O 2311.94 1.28275 -1.26276 0
M  V30 24886 H 2308.32 0.310923 -0.684712 0
M  V30 24887 H 2310.29 0.405322 -2.95634 0
M  V30 24888 C 2309.04 2.1653 -2.72048 0
M  V30 24889 H 2308.36 1.86833 -3.53459 0
M  V30 24890 H 2309.8 2.83464 -3.15316 0
M  V30 24891 C 2308.26 2.92612 -1.66973 0
M  V30 24892 O 2308.79 3.86437 -1.09677 0
M  V30 24893 N 2306.99 2.55782 -1.37927 0
M  V30 24894 H 2306.54 1.79556 -1.84709 0
M  V30 24895 H 2306.5 3.0699 -0.678574 0
M  V30 24896 N 2310.27 1.56347 0.198358 0
M  V30 24897 C 2311.2 1.97312 1.24861 0
M  V30 24898 C 2312.18 0.844602 1.4765 0
M  V30 24899 O 2313.37 1.10868 1.59442 0
M  V30 24900 C 2310.5 2.30982 2.59354 0
M  V30 24901 C 2309.45 3.46541 2.51183 0
M  V30 24902 C 2308.78 3.65878 3.8992 0
M  V30 24903 C 2310.08 4.80826 2.03969 0
M  V30 24904 H 2311.77 2.85293 0.908202 0
M  V30 24905 H 2309.32 1.37259 0.435438 0
M  V30 24906 H 2311.27 2.58234 3.33006 0
M  V30 24907 H 2309.99 1.3988 2.95129 0
M  V30 24908 H 2308.65 3.19374 1.79988 0
M  V30 24909 H 2308.3 2.72112 4.23041 0
M  V30 24910 H 2308 4.43617 3.85328 0
M  V30 24911 H 2309.52 3.95503 4.65198 0
M  V30 24912 H 2310.94 5.07132 2.67377 0
M  V30 24913 H 2309.34 5.62012 2.10387 0
M  V30 24914 H 2310.41 4.74628 0.992778 0
M  V30 24915 N 2311.75 -0.465951 1.50554 0
M  V30 24916 C 2312.97 -1.24546 1.6584 0
M  V30 24917 C 2313.4 -1.84937 0.343518 0
M  V30 24918 O 2312.76 -1.67524 -0.69321 0
M  V30 24919 C 2312.8 -2.32619 2.75537 0
M  V30 24920 O 2311.91 -3.37394 2.37147 0
M  V30 24921 H 2311.25 -0.366184 0.5539 0
M  V30 24922 H 2313.78 -0.553892 1.9696 0
M  V30 24923 H 2313.79 -2.77852 2.98768 0
M  V30 24924 H 2312.46 -1.88037 3.70965 0
M  V30 24925 H 2311.04 -2.97837 2.24382 0
M  V30 24926 N 2313.23 -1.40218 -0.719481 0
M  V30 24927 C 2314.47 -1.38285 -1.4793 0
M  V30 24928 C 2314.8 0.0161194 -1.94493 0
M  V30 24929 O 2314.06 0.999926 -1.68226 0
M  V30 24930 C 2314.36 -2.31529 -2.72267 0
M  V30 24931 C 2314.02 -3.78861 -2.4449 0
M  V30 24932 C 2312.68 -4.19002 -2.36624 0
M  V30 24933 C 2315.04 -4.71981 -2.21096 0
M  V30 24934 C 2312.36 -5.50304 -2.03427 0
M  V30 24935 C 2314.72 -6.03577 -1.89413 0
M  V30 24936 C 2313.38 -6.42765 -1.80026 0
M  V30 24937 H 2312.65 -0.506022 -0.541316 0
M  V30 24938 H 2315.3 -1.72843 -0.824472 0
M  V30 24939 H 2313.6 -1.90143 -3.42568 0
M  V30 24940 H 2315.3 -2.27318 -3.30344 0
M  V30 24941 H 2311.89 -3.47055 -2.51497 0
M  V30 24942 H 2316.07 -4.4179 -2.26131 0
M  V30 24943 H 2311.33 -5.79572 -1.94695 0
M  V30 24944 H 2315.5 -6.7525 -1.70324 0
M  V30 24945 H 2313.13 -7.44424 -1.5407 0
M  V30 24946 N 2314.7 0.951297 -1.25651 0
M  V30 24947 C 2315.63 2.06597 -1.08812 0
M  V30 24948 C 2316.62 1.701 0.00379557 0
M  V30 24949 O 2317.8 1.93486 -0.166359 0
M  V30 24950 C 2314.93 3.39973 -0.709602 0
M  V30 24951 C 2313.88 3.90493 -1.75212 0
M  V30 24952 C 2313.21 5.20403 -1.2282 0
M  V30 24953 C 2314.51 4.16499 -3.1516 0
M  V30 24954 H 2316.2 2.20942 -2.02052 0
M  V30 24955 H 2313.75 1.06168 -0.972854 0
M  V30 24956 H 2315.7 4.17407 -0.578722 0
M  V30 24957 H 2314.43 3.25575 0.258499 0
M  V30 24958 H 2313.09 3.15231 -1.8715 0
M  V30 24959 H 2312.73 5.02377 -0.250233 0
M  V30 24960 H 2312.43 5.55173 -1.92501 0
M  V30 24961 H 2313.96 6.0043 -1.10978 0
M  V30 24962 H 2315.37 4.8458 -3.06357 0
M  V30 24963 H 2313.77 4.62531 -3.82342 0
M  V30 24964 H 2314.84 3.22652 -3.61972 0
M  V30 24965 N 2316.18 1.07291 1.1544 0
M  V30 24966 C 2317.6 0.798313 1.382 0
M  V30 24967 C 2317.8 -0.597735 1.9243 0
M  V30 24968 O 2316.85 -1.35656 2.12964 0
M  V30 24969 C 2318.17 1.8716 2.35354 0
M  V30 24970 C 2319.72 1.89629 2.49018 0
M  V30 24971 C 2320.19 2.9604 3.49463 0
M  V30 24972 N 2321.68 2.95139 3.56998 0
M  V30 24973 C 2322.42 3.7412 4.34536 0
M  V30 24974 N 2321.91 4.62949 5.15413 0
M  V30 24975 N 2323.71 3.62469 4.29619 0
M  V30 24976 H 2315.86 1.97329 0.785806 0
M  V30 24977 H 2318.12 0.855687 0.40805 0
M  V30 24978 H 2317.83 2.87468 2.02621 0
M  V30 24979 H 2317.7 1.7312 3.35126 0
M  V30 24980 H 2320.09 0.899736 2.81049 0
M  V30 24981 H 2320.17 2.07748 1.49247 0
M  V30 24982 H 2319.81 3.95895 3.18166 0
M  V30 24983 H 2319.74 2.75169 4.48988 0
M  V30 24984 H 2322.23 2.30748 2.99272 0
M  V30 24985 H 2322.55 5.19847 5.71821 0
M  V30 24986 H 2320.89 4.66998 5.14721 0
M  V30 24987 H 2324.08 2.9245 3.655 0
M  V30 24988 H 2324.25 4.24265 4.89799 0
M  V30 24989 N 2317.66 -1.32267 0.856927 0
M  V30 24990 C 2318.59 -2.31316 0.318621 0
M  V30 24991 C 2319.57 -1.5978 -0.583459 0
M  V30 24992 O 2320.76 -1.87567 -0.503226 0
M  V30 24993 C 2317.89 -3.43799 -0.491918 0
M  V30 24994 C 2316.84 -4.26832 0.315924 0
M  V30 24995 C 2316.17 -5.31099 -0.619492 0
M  V30 24996 C 2317.47 -4.98991 1.54291 0
M  V30 24997 H 2319.16 -2.76589 1.14626 0
M  V30 24998 H 2316.71 -1.32973 0.552637 0
M  V30 24999 H 2318.66 -4.12132 -0.878939 0
M  V30 25000 H 2317.38 -2.97259 -1.35294 0
M  V30 25001 H 2316.04 -3.60149 0.684728 0
M  V30 25002 H 2315.69 -4.80813 -1.47742 0
M  V30 25003 H 2315.39 -5.87541 -0.0829589 0
M  V30 25004 H 2316.91 -6.02295 -1.00364 0
M  V30 25005 H 2318.33 -5.59993 1.22806 0
M  V30 25006 H 2316.73 -5.65168 2.01755 0
M  V30 25007 H 2317.8 -4.26724 2.30292 0
M  V30 25008 N 2319.14 -0.615084 -1.45102 0
M  V30 25009 C 2320.39 -0.113215 -2.02183 0
M  V30 25010 C 2320.71 1.25904 -1.48252 0
M  V30 25011 O 2319.97 1.8458 -0.650298 0
M  V30 25012 C 2320.27 -0.0319426 -3.57386 0
M  V30 25013 C 2319.93 -1.34084 -4.30502 0
M  V30 25014 C 2318.6 -1.69937 -4.50194 0
M  V30 25015 C 2320.95 -2.20555 -4.72234 0
M  V30 25016 C 2318.28 -2.91997 -5.08876 0
M  V30 25017 C 2320.63 -3.4187 -5.32266 0
M  V30 25018 C 2319.29 -3.77966 -5.5018 0
M  V30 25019 H 2318.56 -0.0414282 -0.739841 0
M  V30 25020 H 2321.21 -0.798199 -1.74072 0
M  V30 25021 H 2319.51 0.736341 -3.84818 0
M  V30 25022 H 2321.21 0.372642 -3.99265 0
M  V30 25023 H 2317.8 -1.05181 -4.15494 0
M  V30 25024 H 2321.98 -1.94154 -4.56747 0
M  V30 25025 H 2317.24 -3.2006 -5.20934 0
M  V30 25026 H 2321.41 -4.09119 -5.63555 0
M  V30 25027 H 2319.04 -4.72632 -5.95418 0
M  V30 25028 N 2320.62 1.53557 -0.354678 0
M  V30 25029 C 2322.03 1.596 -0.00318231 0
M  V30 25030 C 2322.23 1.37024 1.47738 0
M  V30 25031 O 2321.29 1.17 2.23757 0
M  V30 25032 C 2322.6 2.97324 -0.449342 0
M  V30 25033 C 2324.15 3.104 -0.402632 0
M  V30 25034 C 2324.63 4.50519 -0.824434 0
M  V30 25035 N 2326.12 4.56601 -0.779059 0
M  V30 25036 C 2326.85 5.6319 -1.07725 0
M  V30 25037 N 2326.35 6.77581 -1.44417 0
M  V30 25038 N 2328.14 5.5312 -1.00076 0
M  V30 25039 H 2320.29 1.66485 -1.31896 0
M  V30 25040 H 2322.55 0.780274 -0.538402 0
M  V30 25041 H 2322.26 3.18947 -1.48208 0
M  V30 25042 H 2322.13 3.76818 0.169706 0
M  V30 25043 H 2324.52 2.88493 0.620954 0
M  V30 25044 H 2324.6 2.32939 -1.05703 0
M  V30 25045 H 2324.25 4.73162 -1.84608 0
M  V30 25046 H 2324.18 5.26394 -0.147397 0
M  V30 25047 H 2326.67 3.74462 -0.508594 0
M  V30 25048 H 2326.98 7.54843 -1.65625 0
M  V30 25049 H 2325.33 6.78999 -1.48272 0
M  V30 25050 H 2328.52 4.62632 -0.713374 0
M  V30 25051 H 2328.69 6.36093 -1.23649 0
M  V30 25052 N 2322.1 0.083568 1.57378 0
M  V30 25053 C 2323.06 -0.864922 2.12254 0
M  V30 25054 C 2324.06 -1.21856 1.04918 0
M  V30 25055 O 2325.25 -1.14989 1.30855 0
M  V30 25056 C 2322.38 -2.16456 2.63362 0
M  V30 25057 H 2323.57 -0.388623 2.97371 0
M  V30 25058 H 2321.13 -0.16529 1.55424 0
M  V30 25059 H 2321.86 -2.68596 1.81732 0
M  V30 25060 H 2321.65 -1.92081 3.41829 0
M  V30 25061 H 2323.14 -2.84331 3.05852 0
M  V30 25062 N 2323.57 -1.5645 -0.190064 0
M  V30 25063 C 2324.54 -1.94082 -1.21921 0
M  V30 25064 C 2325.54 -0.822455 -1.38175 0
M  V30 25065 O 2326.73 -1.0898 -1.35901 0
M  V30 25066 C 2323.86 -2.21926 -2.58769 0
M  V30 25067 H 2325.05 -2.86158 -0.897413 0
M  V30 25068 H 2322.6 -1.50218 -0.431784 0
M  V30 25069 H 2323.34 -1.32504 -2.95995 0
M  V30 25070 H 2323.12 -3.03428 -2.48342 0
M  V30 25071 H 2324.61 -2.52028 -3.32974 0
M  V30 25072 N 2325.05 0.45796 -1.50799 0
M  V30 25073 C 2326.47 0.792795 -1.38517 0
M  V30 25074 C 2326.67 1.96378 -0.451443 0
M  V30 25075 O 2325.72 2.52298 0.101076 0
M  V30 25076 C 2327.04 1.09253 -2.80151 0
M  V30 25077 C 2328.58 1.1982 -2.89158 0
M  V30 25078 C 2329.06 1.53098 -4.31654 0
M  V30 25079 N 2330.55 1.60064 -4.34665 0
M  V30 25080 C 2331.29 1.87345 -5.41931 0
M  V30 25081 N 2330.78 2.12556 -6.59387 0
M  V30 25082 N 2332.57 1.88956 -5.29388 0
M  V30 25083 H 2324.73 -0.313548 -2.10073 0
M  V30 25084 H 2326.99 -0.0778028 -0.944802 0
M  V30 25085 H 2326.69 0.305022 -3.50375 0
M  V30 25086 H 2326.57 2.02544 -3.18207 0
M  V30 25087 H 2328.96 1.97636 -2.19144 0
M  V30 25088 H 2329.04 0.244776 -2.54626 0
M  V30 25089 H 2328.68 0.758178 -5.02209 0
M  V30 25090 H 2328.61 2.49613 -4.63682 0
M  V30 25091 H 2331.1 1.42567 -3.49976 0
M  V30 25092 H 2331.41 2.32684 -7.36938 0
M  V30 25093 H 2329.76 2.09921 -6.62539 0
M  V30 25094 H 2332.95 1.68765 -4.36619 0
M  V30 25095 H 2333.12 2.0988 -6.1307 0
M  V30 25096 N 2326.53 1.40598 0.712035 0
M  V30 25097 C 2327.46 1.43902 1.83887 0
M  V30 25098 C 2328.44 0.299533 1.67442 0
M  V30 25099 O 2329.63 0.508657 1.8742 0
M  V30 25100 C 2326.76 1.30437 3.21875 0
M  V30 25101 C 2325.71 2.42026 3.52998 0
M  V30 25102 C 2325.04 2.13634 4.90168 0
M  V30 25103 C 2326.34 3.84368 3.53636 0
M  V30 25104 H 2328.03 2.38206 1.81379 0
M  V30 25105 H 2325.58 1.14655 0.871217 0
M  V30 25106 H 2327.53 1.31364 4.00402 0
M  V30 25107 H 2326.25 0.326107 3.24968 0
M  V30 25108 H 2324.91 2.40354 2.76813 0
M  V30 25109 H 2324.56 1.14191 4.89867 0
M  V30 25110 H 2324.26 2.88398 5.11957 0
M  V30 25111 H 2325.78 2.1625 5.71024 0
M  V30 25112 H 2327.2 3.87844 4.22196 0
M  V30 25113 H 2325.59 4.5868 3.86953 0
M  V30 25114 H 2326.66 4.13698 2.52947 0
M  V30 25115 N 2328.01 -0.94462 1.26153 0
M  V30 25116 C 2329.26 -1.68485 1.10886 0
M  V30 25117 C 2329.57 -1.92477 -0.348119 0
M  V30 25118 O 2330.78 -2.64293 -0.621412 0
M  V30 25119 C 2329.23 -3.03374 1.93629 0
M  V30 25120 C 2328.84 -2.87142 3.4388 0
M  V30 25121 C 2330.58 -3.81112 1.8696 0
M  V30 25122 C 2328.49 -4.17482 4.18882 0
M  V30 25123 H 2327.42 -0.6319 0.411362 0
M  V30 25124 H 2330.07 -1.0508 1.50434 0
M  V30 25125 H 2328.45 -3.67741 1.46911 0
M  V30 25126 H 2329.63 -2.31646 3.98342 0
M  V30 25127 H 2327.94 -2.2285 3.51748 0
M  V30 25128 H 2330.54 -4.77669 2.40284 0
M  V30 25129 H 2330.88 -4.07746 0.83959 0
M  V30 25130 H 2331.42 -3.23513 2.31483 0
M  V30 25131 H 2328.15 -3.96034 5.22339 0
M  V30 25132 H 2327.67 -4.72705 3.69201 0
M  V30 25133 H 2329.35 -4.85961 4.27143 0
M  V30 25134 N 2329.49 -1.07901 -1.1487 0
M  V30 25135 C 2330.43 -0.704357 -2.1979 0
M  V30 25136 C 2331.4 0.306958 -1.63239 0
M  V30 25137 O 2332.59 0.192137 -1.8983 0
M  V30 25138 C 2329.73 -0.114305 -3.44911 0
M  V30 25139 C 2328.84 -1.17777 -4.15635 0
M  V30 25140 C 2327.98 -0.55213 -5.28323 0
M  V30 25141 C 2327.01 -1.598 -5.90873 0
M  V30 25142 N 2326.15 -0.994526 -6.95021 0
M  V30 25143 H 2330.99 -1.6034 -2.51187 0
M  V30 25144 H 2328.53 -0.801373 -1.23355 0
M  V30 25145 H 2330.49 0.245471 -4.16477 0
M  V30 25146 H 2329.12 0.748075 -3.14012 0
M  V30 25147 H 2328.17 -1.65505 -3.42509 0
M  V30 25148 H 2329.48 -1.97054 -4.58226 0
M  V30 25149 H 2328.63 -0.140306 -6.06538 0
M  V30 25150 H 2327.37 0.272345 -4.86939 0
M  V30 25151 H 2326.38 -2.01954 -5.11366 0
M  V30 25152 H 2327.6 -2.42486 -6.34332 0
M  V30 25153 H 2325.55 -0.191054 -6.55722 0
M  V30 25154 H 2325.47 -1.72445 -7.3607 0
M  V30 25155 H 2326.73 -0.60839 -7.77122 0
M  V30 25156 N 2330.96 1.31811 -0.863929 0
M  V30 25157 C 2331.89 2.31144 -0.330883 0
M  V30 25158 C 2332.87 1.60088 0.574977 0
M  V30 25159 O 2334.06 1.87831 0.493271 0
M  V30 25160 C 2331.19 3.44055 0.473679 0
M  V30 25161 C 2330.14 4.26659 -0.338556 0
M  V30 25162 C 2329.47 5.3142 0.591318 0
M  V30 25163 C 2330.77 4.98165 -1.56935 0
M  V30 25164 H 2332.46 2.75977 -1.16091 0
M  V30 25165 H 2330.01 1.32678 -0.559681 0
M  V30 25166 H 2331.96 4.12592 0.857071 0
M  V30 25167 H 2330.69 2.97973 1.33716 0
M  V30 25168 H 2329.35 3.5978 -0.703818 0
M  V30 25169 H 2328.99 4.8159 1.4519 0
M  V30 25170 H 2328.69 5.87577 0.0517989 0
M  V30 25171 H 2330.22 6.02819 0.971685 0
M  V30 25172 H 2331.63 5.59333 -1.25774 0
M  V30 25173 H 2330.03 5.6409 -2.04749 0
M  V30 25174 H 2331.1 4.25497 -2.32552 0
M  V30 25175 N 2332.44 0.62277 1.44773 0
M  V30 25176 C 2333.37 -0.0741451 2.33382 0
M  V30 25177 C 2334.35 -0.843361 1.47721 0
M  V30 25178 O 2335.54 -0.810903 1.7646 0
M  V30 25179 C 2332.67 -1.06198 3.30665 0
M  V30 25180 C 2331.62 -0.404962 4.2608 0
M  V30 25181 C 2330.95 -1.50211 5.13167 0
M  V30 25182 C 2332.25 0.683505 5.17808 0
M  V30 25183 H 2333.94 0.665765 2.91904 0
M  V30 25184 H 2331.49 0.321611 1.40363 0
M  V30 25185 H 2333.44 -1.5582 3.91533 0
M  V30 25186 H 2332.16 -1.83267 2.70334 0
M  V30 25187 H 2330.82 0.0705327 3.66532 0
M  V30 25188 H 2330.47 -2.26347 4.49195 0
M  V30 25189 H 2330.17 -1.06792 5.77814 0
M  V30 25190 H 2331.7 -2.00031 5.76906 0
M  V30 25191 H 2333.11 0.270731 5.7266 0
M  V30 25192 H 2331.51 1.04034 5.91014 0
M  V30 25193 H 2332.58 1.55403 4.59323 0
M  V30 25194 N 2333.92 -1.53367 0.362817 0
M  V30 25195 C 2335.34 -1.59596 0.0116462 0
M  V30 25196 C 2335.54 -1.37806 -1.4701 0
M  V30 25197 O 2334.59 -1.18185 -2.23133 0
M  V30 25198 C 2335.9 -2.97081 0.465104 0
M  V30 25199 C 2337.45 -3.10182 0.419088 0
M  V30 25200 C 2337.93 -4.50075 0.848314 0
M  V30 25201 N 2339.42 -4.56182 0.803263 0
M  V30 25202 C 2340.15 -5.62611 1.1071 0
M  V30 25203 N 2339.65 -6.76805 1.48008 0
M  V30 25204 N 2341.44 -5.52581 1.03008 0
M  V30 25205 H 2333.59 -1.65783 1.32777 0
M  V30 25206 H 2335.86 -0.777408 0.542532 0
M  V30 25207 H 2335.56 -3.18157 1.49897 0
M  V30 25208 H 2335.44 -3.76903 -0.14972 0
M  V30 25209 H 2337.82 -2.88818 -0.605646 0
M  V30 25210 H 2337.9 -2.32375 1.06937 0
M  V30 25211 H 2337.55 -4.72176 1.87115 0
M  V30 25212 H 2337.48 -5.26308 0.175311 0
M  V30 25213 H 2339.97 -3.74187 0.528446 0
M  V30 25214 H 2340.28 -7.53954 1.69626 0
M  V30 25215 H 2338.63 -6.78204 1.51871 0
M  V30 25216 H 2341.82 -4.62247 0.737898 0
M  V30 25217 H 2341.99 -6.35429 1.27021 0
M  V30 25218 N 2335.4 -0.091913 -1.57332 0
M  V30 25219 C 2336.33 0.898131 -2.1087 0
M  V30 25220 C 2337.34 1.24815 -1.04523 0
M  V30 25221 O 2338.53 1.20182 -1.31979 0
M  V30 25222 C 2335.63 2.20816 -2.57087 0
M  V30 25223 C 2334.81 2.03396 -3.87232 0
M  V30 25224 C 2333.86 3.17882 -4.1933 0
M  V30 25225 O 2332.89 2.91985 -4.88603 0
M  V30 25226 N 2334.09 4.43561 -3.74479 0
M  V30 25227 H 2336.86 0.440891 -2.96439 0
M  V30 25228 H 2334.42 0.093278 -1.61631 0
M  V30 25229 H 2336.41 2.96349 -2.75607 0
M  V30 25230 H 2334.98 2.57973 -1.76546 0
M  V30 25231 H 2334.2 1.12211 -3.77892 0
M  V30 25232 H 2335.49 1.8903 -4.72382 0
M  V30 25233 H 2334.89 4.67483 -3.18554 0
M  V30 25234 H 2333.44 5.16054 -3.9816 0
M  V30 25235 N 2336.88 1.56548 0.181765 0
M  V30 25236 C 2338.12 1.81039 0.898288 0
M  V30 25237 C 2338.45 0.667196 1.83231 0
M  V30 25238 O 2337.72 -0.31364 1.93373 0
M  V30 25239 H 2336.3 0.667822 0.334698 0
M  V30 25240 H 2338.96 1.94029 0.184081 0
M  V30 25241 H 2338.05 2.74699 1.48145 0
M  V30 25242 N 2338.35 -0.449957 1.5104 0
M  V30 25243 C 2339.58 -1.2214 1.6663 0
M  V30 25244 C 2339.99 -1.85786 0.357809 0
M  V30 25245 O 2339.34 -1.70952 -0.672394 0
M  V30 25246 C 2339.4 -2.35568 2.71566 0
M  V30 25247 C 2339.06 -1.92391 4.14529 0
M  V30 25248 C 2340.06 -1.43444 4.9972 0
M  V30 25249 C 2337.74 -2.00467 4.60563 0
M  V30 25250 C 2339.74 -1.03144 6.28999 0
M  V30 25251 C 2337.42 -1.59778 5.89843 0
M  V30 25252 C 2338.42 -1.11196 6.73887 0
M  V30 25253 O 2338.11 -0.710794 8.00751 0
M  V30 25254 H 2337.84 -0.374714 0.562642 0
M  V30 25255 H 2340.4 -0.541001 1.98147 0
M  V30 25256 H 2338.63 -3.06845 2.35336 0
M  V30 25257 H 2340.32 -2.97473 2.76161 0
M  V30 25258 H 2341.08 -1.3661 4.65363 0
M  V30 25259 H 2336.96 -2.37228 3.95277 0
M  V30 25260 H 2340.5 -0.651541 6.94551 0
M  V30 25261 H 2336.4 -1.66278 6.23716 0
M  V30 25262 H 2337.17 -0.83777 8.14201 0
M  V30 25263 N 2339.83 -1.40974 -0.704569 0
M  V30 25264 C 2341.06 -1.43184 -1.49352 0
M  V30 25265 C 2341.48 -0.034584 -1.88768 0
M  V30 25266 O 2340.83 0.944054 -1.56185 0
M  V30 25267 C 2340.88 -2.33249 -2.76183 0
M  V30 25268 O 2340.6 -3.67536 -2.3843 0
M  V30 25269 C 2342.11 -2.44168 -3.69996 0
M  V30 25270 H 2339.33 -0.48799 -0.46055 0
M  V30 25271 H 2341.87 -1.85154 -0.868228 0
M  V30 25272 H 2340.02 -1.94612 -3.3497 0
M  V30 25273 H 2340.44 -4.15481 -3.20118 0
M  V30 25274 H 2341.91 -3.11372 -4.55797 0
M  V30 25275 H 2342.39 -1.47013 -4.13864 0
M  V30 25276 H 2343 -2.83404 -3.17116 0
M  V30 25277 N 2341.31 0.937917 -1.26653 0
M  V30 25278 C 2342.56 1.67895 -1.11778 0
M  V30 25279 C 2342.87 1.92659 0.337906 0
M  V30 25280 O 2344.08 2.64619 0.607387 0
M  V30 25281 C 2342.53 3.02343 -1.95235 0
M  V30 25282 C 2342.14 2.85314 -3.45398 0
M  V30 25283 C 2343.89 3.80115 -1.88979 0
M  V30 25284 C 2341.79 4.15255 -4.2109 0
M  V30 25285 H 2340.72 0.62971 -0.414707 0
M  V30 25286 H 2343.37 1.0428 -1.5099 0
M  V30 25287 H 2341.76 3.66956 -1.48859 0
M  V30 25288 H 2342.93 2.2953 -3.99565 0
M  V30 25289 H 2341.25 2.20982 -3.52925 0
M  V30 25290 H 2343.84 4.76388 -2.42814 0
M  V30 25291 H 2344.19 4.07295 -0.861202 0
M  V30 25292 H 2344.72 3.22281 -2.33195 0
M  V30 25293 H 2341.46 3.93258 -5.24431 0
M  V30 25294 H 2340.98 4.70741 -3.71703 0
M  V30 25295 H 2342.66 4.83689 -4.29714 0
M  V30 25296 N 2342.79 1.08509 1.14296 0
M  V30 25297 C 2344.2 0.812926 1.37345 0
M  V30 25298 C 2344.4 -0.577291 1.93053 0
M  V30 25299 O 2343.46 -1.3339 2.14391 0
M  V30 25300 C 2344.77 1.89646 2.33356 0
M  V30 25301 C 2346.32 1.92259 2.46993 0
M  V30 25302 C 2346.8 2.9973 3.46303 0
M  V30 25303 N 2348.29 2.98908 3.53847 0
M  V30 25304 C 2349.02 3.78708 4.30544 0
M  V30 25305 N 2348.52 4.68389 5.10474 0
M  V30 25306 N 2350.31 3.67006 4.2575 0
M  V30 25307 H 2342.46 1.98152 0.764832 0
M  V30 25308 H 2344.73 0.859966 0.398951 0
M  V30 25309 H 2344.43 2.89601 1.9956 0
M  V30 25310 H 2344.31 1.76665 3.33271 0
M  V30 25311 H 2346.69 0.929495 2.80079 0
M  V30 25312 H 2346.77 2.09319 1.47035 0
M  V30 25313 H 2346.42 3.99247 3.1395 0
M  V30 25314 H 2346.35 2.79915 4.46044 0
M  V30 25315 H 2348.84 2.33909 2.96808 0
M  V30 25316 H 2349.15 5.25883 5.66275 0
M  V30 25317 H 2347.5 4.72431 5.09739 0
M  V30 25318 H 2350.69 2.96311 3.62378 0
M  V30 25319 H 2350.86 4.29436 4.85272 0
M  V30 25320 N 2344.27 -1.31351 0.870907 0
M  V30 25321 C 2345.52 -1.95943 0.478443 0
M  V30 25322 C 2345.83 -1.69598 -0.974463 0
M  V30 25323 O 2347.03 -2.2806 -1.47312 0
M  V30 25324 C 2345.49 -3.50789 0.804671 0
M  V30 25325 C 2345.1 -3.85973 2.2744 0
M  V30 25326 C 2346.84 -4.21769 0.480722 0
M  V30 25327 C 2344.75 -5.33934 2.54299 0
M  V30 25328 H 2343.68 -0.733366 0.175188 0
M  V30 25329 H 2346.33 -1.49508 1.06394 0
M  V30 25330 H 2344.71 -3.95722 0.148417 0
M  V30 25331 H 2345.89 -3.51997 2.9738 0
M  V30 25332 H 2344.2 -3.2806 2.56448 0
M  V30 25333 H 2346.8 -5.30628 0.658612 0
M  V30 25334 H 2347.14 -4.12255 -0.578907 0
M  V30 25335 H 2347.67 -3.82474 1.09356 0
M  V30 25336 H 2344.41 -5.48485 3.58949 0
M  V30 25337 H 2343.93 -5.69259 1.88955 0
M  V30 25338 H 2345.61 -6.01208 2.39077 0
M  V30 25339 N 2345.74 -0.630439 -1.44441 0
M  V30 25340 C 2346.67 0.0617672 -2.33418 0
M  V30 25341 C 2347.66 0.835515 -1.48166 0
M  V30 25342 O 2348.84 0.801533 -1.76887 0
M  V30 25343 C 2345.97 1.04443 -3.31223 0
M  V30 25344 C 2344.92 0.382361 -4.26289 0
M  V30 25345 C 2344.25 1.47488 -5.13957 0
M  V30 25346 C 2345.55 -0.710956 -5.17439 0
M  V30 25347 H 2347.24 -0.681236 -2.91547 0
M  V30 25348 H 2344.79 -0.329051 -1.4019 0
M  V30 25349 H 2346.74 1.53742 -3.92354 0
M  V30 25350 H 2345.47 1.81831 -2.71302 0
M  V30 25351 H 2344.13 -0.0899698 -3.6649 0
M  V30 25352 H 2343.77 2.23962 -4.50389 0
M  V30 25353 H 2343.47 1.03727 -5.78372 0
M  V30 25354 H 2345 1.96968 -5.77958 0
M  V30 25355 H 2346.41 -0.301097 -5.72509 0
M  V30 25356 H 2344.81 -1.07166 -5.90454 0
M  V30 25357 H 2345.88 -1.57837 -4.58493 0
M  V30 25358 N 2347.22 1.53172 -0.370945 0
M  V30 25359 C 2348.15 2.28827 0.464807 0
M  V30 25360 C 2349.13 1.3147 1.07933 0
M  V30 25361 O 2350.32 1.60346 1.09557 0
M  V30 25362 C 2347.45 3.0815 1.60191 0
M  V30 25363 C 2346.4 4.13238 1.11436 0
M  V30 25364 C 2345.73 4.80676 2.34211 0
M  V30 25365 C 2347.03 5.21935 0.195292 0
M  V30 25366 H 2348.72 2.98937 -0.166382 0
M  V30 25367 H 2346.27 1.43769 -0.0814612 0
M  V30 25368 H 2348.22 3.59825 2.19325 0
M  V30 25369 H 2346.95 2.35739 2.26041 0
M  V30 25370 H 2345.6 3.62516 0.545664 0
M  V30 25371 H 2345.25 4.04832 2.9853 0
M  V30 25372 H 2344.95 5.51693 2.02259 0
M  V30 25373 H 2346.48 5.35148 2.94022 0
M  V30 25374 H 2347.89 5.69081 0.694275 0
M  V30 25375 H 2346.29 6.00091 -0.0336082 0
M  V30 25376 H 2347.36 4.78891 -0.761045 0
M  V30 25377 N 2348.7 0.100255 1.57281 0
M  V30 25378 C 2349.95 -0.556912 1.95627 0
M  V30 25379 C 2350.3 -1.65471 0.981684 0
M  V30 25380 O 2349.59 -1.91598 0.00853215 0
M  V30 25381 C 2349.79 -1.15253 3.38307 0
M  V30 25382 C 2349.62 -0.113956 4.49556 0
M  V30 25383 C 2348.39 0.311354 5.0434 0
M  V30 25384 C 2350.59 0.659858 5.10049 0
M  V30 25385 N 2348.57 1.33766 5.99149 0
M  V30 25386 C 2349.94 1.53785 6.00625 0
M  V30 25387 C 2351.99 0.71281 4.92771 0
M  V30 25388 C 2350.7 2.46414 6.75775 0
M  V30 25389 C 2352.72 1.62673 5.68587 0
M  V30 25390 C 2352.08 2.49234 6.58834 0
M  V30 25391 H 2348.18 -0.173968 0.762403 0
M  V30 25392 H 2350.77 0.184022 1.93828 0
M  V30 25393 H 2348.94 -1.86326 3.40789 0
M  V30 25394 H 2350.67 -1.77248 3.6382 0
M  V30 25395 H 2347.43 -0.077398 4.73537 0
M  V30 25396 H 2347.85 1.84917 6.51256 0
M  V30 25397 H 2352.49 0.0577391 4.22761 0
M  V30 25398 H 2350.21 3.12944 7.45045 0
M  V30 25399 H 2353.8 1.6729 5.5723 0
M  V30 25400 H 2352.68 3.18804 7.16473 0
M  V30 25401 N 2350.18 -1.56643 -0.17346 0
M  V30 25402 C 2351.41 -1.86006 -0.906062 0
M  V30 25403 C 2351.82 -0.685386 -1.7592 0
M  V30 25404 O 2351.18 0.345547 -1.79199 0
M  V30 25405 C 2351.23 -3.14381 -1.78456 0
M  V30 25406 O 2350.95 -4.27321 -0.965839 0
M  V30 25407 C 2352.45 -3.57076 -2.62701 0
M  V30 25408 H 2349.67 -0.61717 -0.26333 0
M  V30 25409 H 2352.22 -2.03757 -0.1742 0
M  V30 25410 H 2350.37 -2.98463 -2.46979 0
M  V30 25411 H 2350.79 -5.00562 -1.56646 0
M  V30 25412 H 2352.26 -4.4981 -3.19961 0
M  V30 25413 H 2352.74 -2.81092 -3.37467 0
M  V30 25414 H 2353.34 -3.75599 -1.99514 0
M  V30 25415 N 2351.66 0.44194 -1.51277 0
M  V30 25416 C 2352.9 1.19176 -1.63717 0
M  V30 25417 C 2353.23 1.91303 -0.351208 0
M  V30 25418 O 2352.49 1.84073 0.664492 0
M  V30 25419 C 2352.79 2.23681 -2.7875 0
M  V30 25420 C 2352.45 1.686 -4.18192 0
M  V30 25421 C 2351.11 1.533 -4.56128 0
M  V30 25422 C 2353.47 1.28053 -5.05225 0
M  V30 25423 C 2350.79 0.959215 -5.78806 0
M  V30 25424 C 2353.15 0.721052 -6.28477 0
M  V30 25425 C 2351.81 0.554923 -6.65189 0
M  V30 25426 H 2351.08 0.436095 -0.599084 0
M  V30 25427 H 2353.73 0.483477 -1.85296 0
M  V30 25428 H 2352.03 3.0053 -2.51374 0
M  V30 25429 H 2353.73 2.8151 -2.85575 0
M  V30 25430 H 2350.32 1.81483 -3.88281 0
M  V30 25431 H 2354.5 1.38695 -4.76526 0
M  V30 25432 H 2349.76 0.818223 -6.059 0
M  V30 25433 H 2353.93 0.398336 -6.9526 0
M  V30 25434 H 2351.56 0.108177 -7.60123 0
M  V30 25435 N 2353.14 1.41345 0.697083 0
M  V30 25436 C 2354.38 1.4083 1.45928 0
M  V30 25437 C 2354.71 0.0167439 1.94193 0
M  V30 25438 O 2353.99 -0.955233 1.69427 0
M  V30 25439 C 2354.27 2.41377 2.67224 0
M  V30 25440 C 2354.13 3.89634 2.24735 0
M  V30 25441 C 2355.44 2.39202 3.69419 0
M  V30 25442 H 2352.56 0.512852 0.529294 0
M  V30 25443 H 2355.21 1.7261 0.794082 0
M  V30 25444 H 2353.36 2.14407 3.23978 0
M  V30 25445 H 2355.03 4.27502 1.7332 0
M  V30 25446 H 2353.27 4.04573 1.56535 0
M  V30 25447 H 2353.94 4.55531 3.11762 0
M  V30 25448 H 2356.42 2.63133 3.22335 0
M  V30 25449 H 2355.29 3.11571 4.51901 0
M  V30 25450 H 2355.55 1.41008 4.1901 0
M  V30 25451 N 2354.61 -0.931187 1.27148 0
M  V30 25452 C 2355.55 -2.03544 1.05368 0
M  V30 25453 C 2356.56 -1.62796 0.0108724 0
M  V30 25454 O 2357.75 -1.76711 0.252051 0
M  V30 25455 C 2354.85 -3.33976 0.575625 0
M  V30 25456 C 2354.02 -4.03436 1.68992 0
M  V30 25457 C 2353.08 -5.12141 1.20822 0
M  V30 25458 O 2352.11 -5.36297 1.90721 0
M  V30 25459 N 2353.31 -5.80467 0.0619871 0
M  V30 25460 H 2356.07 -2.22793 2.00458 0
M  V30 25461 H 2353.63 -1.10134 1.18668 0
M  V30 25462 H 2355.63 -4.04003 0.237335 0
M  V30 25463 H 2354.2 -3.11326 -0.281961 0
M  V30 25464 H 2353.42 -3.27188 2.19867 0
M  V30 25465 H 2354.7 -4.46592 2.43788 0
M  V30 25466 H 2354.1 -5.63291 -0.521522 0
M  V30 25467 H 2352.66 -6.51438 -0.21715 0
M  V30 25468 N 2356.09 -1.09114 -1.13719 0
M  V30 25469 C 2357.32 -0.847086 -1.89312 0
M  V30 25470 C 2357.74 0.595743 -1.78417 0
M  V30 25471 O 2357.1 1.41821 -1.12944 0
M  V30 25472 C 2357.15 -1.2829 -3.37008 0
M  V30 25473 O 2356.25 -0.439339 -4.10053 0
M  V30 25474 H 2355.59 -0.307054 -0.588739 0
M  V30 25475 H 2358.12 -1.45444 -1.439 0
M  V30 25476 H 2358.13 -1.2669 -3.87832 0
M  V30 25477 H 2356.81 -2.33369 -3.44256 0
M  V30 25478 H 2355.38 -0.519377 -3.69265 0
M  V30 25479 N 2357.57 1.30887 -0.877861 0
M  V30 25480 C 2358.82 1.96414 -0.492731 0
M  V30 25481 C 2359.14 1.69348 0.956641 0
M  V30 25482 O 2358.4 0.986943 1.68991 0
M  V30 25483 C 2358.7 3.50361 -0.705809 0
M  V30 25484 C 2358.36 3.97463 -2.12917 0
M  V30 25485 C 2357.03 4.10036 -2.51842 0
M  V30 25486 C 2359.38 4.22127 -3.05709 0
M  V30 25487 C 2356.71 4.44628 -3.82783 0
M  V30 25488 C 2359.06 4.58186 -4.36174 0
M  V30 25489 C 2357.72 4.68967 -4.75002 0
M  V30 25490 H 2356.99 0.718729 -0.180303 0
M  V30 25491 H 2359.64 1.55881 -1.11236 0
M  V30 25492 H 2357.94 3.918 -0.00309945 0
M  V30 25493 H 2359.64 3.99123 -0.387526 0
M  V30 25494 H 2356.23 3.88179 -1.81701 0
M  V30 25495 H 2360.42 4.11901 -2.7686 0
M  V30 25496 H 2355.67 4.51173 -4.12617 0
M  V30 25497 H 2359.85 4.76222 -5.08119 0
M  V30 25498 H 2357.47 4.95527 -5.76504 0
M  V30 25499 N 2359.05 0.638091 1.44105 0
M  V30 25500 C 2359.99 -0.0626605 2.30715 0
M  V30 25501 C 2360.96 -0.829858 1.43884 0
M  V30 25502 O 2362.15 -0.809502 1.72776 0
M  V30 25503 C 2359.29 -1.03352 3.2926 0
M  V30 25504 C 2358.4 -0.264015 4.31192 0
M  V30 25505 C 2357.54 -1.22732 5.16827 0
M  V30 25506 C 2356.58 -0.447368 6.10463 0
M  V30 25507 N 2355.71 -1.36149 6.88773 0
M  V30 25508 H 2360.55 0.681832 2.90095 0
M  V30 25509 H 2358.09 0.348013 1.42924 0
M  V30 25510 H 2360.05 -1.60986 3.84889 0
M  V30 25511 H 2358.68 -1.74506 2.71565 0
M  V30 25512 H 2357.73 0.428361 3.7798 0
M  V30 25513 H 2359.04 0.34314 4.97618 0
M  V30 25514 H 2358.2 -1.87477 5.77007 0
M  V30 25515 H 2356.94 -1.86839 4.50491 0
M  V30 25516 H 2355.94 0.213529 5.49385 0
M  V30 25517 H 2357.17 0.189087 6.78837 0
M  V30 25518 H 2355.11 -1.98964 6.25099 0
M  V30 25519 H 2355.03 -0.808524 7.51664 0
M  V30 25520 H 2356.3 -1.99756 7.53471 0
M  V30 25521 N 2360.53 -1.52973 0.379063 0
M  V30 25522 C 2361.49 -2.24763 -0.448826 0
M  V30 25523 C 2362.49 -1.26029 -0.998667 0
M  V30 25524 O 2363.68 -1.50204 -0.882286 0
M  V30 25525 C 2360.81 -2.99478 -1.62866 0
M  V30 25526 H 2362 -2.99362 0.179544 0
M  V30 25527 H 2359.56 -1.5575 0.130988 0
M  V30 25528 H 2360.29 -2.29155 -2.29475 0
M  V30 25529 H 2360.08 -3.71936 -1.24121 0
M  V30 25530 H 2361.57 -3.54014 -2.21504 0
M  V30 25531 N 2362 -0.108595 -1.57225 0
M  V30 25532 C 2362.93 0.842282 -2.17779 0
M  V30 25533 C 2363.91 1.28469 -1.11489 0
M  V30 25534 O 2365.1 1.34916 -1.39683 0
M  V30 25535 C 2362.23 2.09639 -2.76891 0
M  V30 25536 C 2361.18 1.79214 -3.88673 0
M  V30 25537 C 2360.51 3.11567 -4.34546 0
M  V30 25538 C 2361.81 1.06855 -5.11253 0
M  V30 25539 H 2363.5 0.337721 -2.97489 0
M  V30 25540 H 2361.05 0.161 -1.43097 0
M  V30 25541 H 2363 2.76608 -3.17909 0
M  V30 25542 H 2361.73 2.62401 -1.94456 0
M  V30 25543 H 2360.39 1.14638 -3.48215 0
M  V30 25544 H 2360.03 3.62243 -3.48983 0
M  V30 25545 H 2359.73 2.91987 -5.09919 0
M  V30 25546 H 2361.26 3.79672 -4.78207 0
M  V30 25547 H 2362.67 1.63958 -5.49355 0
M  V30 25548 H 2361.07 0.974074 -5.92142 0
M  V30 25549 H 2362.14 0.0535316 -4.8487 0
M  V30 25550 N 2363.48 1.56732 0.16515 0
M  V30 25551 C 2364.89 1.71963 0.727016 0
M  V30 25552 C 2365.24 0.72011 1.82507 0
M  V30 25553 O 2364.37 -0.117204 2.16082 0
M  V30 25554 C 2364.96 3.11793 1.32554 0
M  V30 25555 C 2363.52 3.28688 1.83416 0
M  V30 25556 C 2362.67 2.6791 0.71552 0
M  V30 25557 H 2365.62 1.58585 -0.0603175 0
M  V30 25558 H 2365.64 3.10786 2.19528 0
M  V30 25559 H 2365.15 3.84517 0.526127 0
M  V30 25560 H 2363.25 2.6093 2.65981 0
M  V30 25561 H 2363.37 4.36482 1.97536 0
M  V30 25562 H 2361.73 2.27886 1.13754 0
M  V30 25563 H 2362.51 3.43224 -0.0721439 0
M  V30 25564 N 2364.96 -0.433911 1.51509 0
M  V30 25565 C 2366.19 -1.20366 1.67916 0
M  V30 25566 C 2366.6 -1.85396 0.377494 0
M  V30 25567 O 2365.94 -1.71655 -0.654224 0
M  V30 25568 C 2366 -2.32674 2.74049 0
M  V30 25569 C 2365.67 -1.87984 4.16547 0
M  V30 25570 C 2366.66 -1.38136 5.01213 0
M  V30 25571 C 2364.35 -1.95571 4.62663 0
M  V30 25572 C 2366.34 -0.964663 6.30058 0
M  V30 25573 C 2364.03 -1.53513 5.91504 0
M  V30 25574 C 2365.03 -1.04043 6.75029 0
M  V30 25575 O 2364.72 -0.625824 8.0146 0
M  V30 25576 H 2364.45 -0.368725 0.566584 0
M  V30 25577 H 2367 -0.519955 1.9871 0
M  V30 25578 H 2365.23 -3.04332 2.38577 0
M  V30 25579 H 2366.92 -2.94527 2.793 0
M  V30 25580 H 2367.69 -1.31666 4.66786 0
M  V30 25581 H 2363.57 -2.33022 3.97771 0
M  V30 25582 H 2367.11 -0.577838 6.95203 0
M  V30 25583 H 2363.01 -1.59654 6.25445 0
M  V30 25584 H 2363.78 -0.751366 8.15044 0
M  V30 25585 N 2366.44 -1.41713 -0.689577 0
M  V30 25586 C 2367.68 -1.41602 -1.45179 0
M  V30 25587 C 2368.02 -0.0270422 -1.94181 0
M  V30 25588 O 2367.29 0.946235 -1.69931 0
M  V30 25589 C 2367.58 -2.42791 -2.65941 0
M  V30 25590 C 2367.43 -3.9082 -2.22665 0
M  V30 25591 C 2368.75 -2.41158 -3.68145 0
M  V30 25592 H 2365.87 -0.515651 -0.526567 0
M  V30 25593 H 2368.51 -1.73029 -0.784917 0
M  V30 25594 H 2366.66 -2.16122 -3.22837 0
M  V30 25595 H 2368.33 -4.28415 -1.7105 0
M  V30 25596 H 2366.57 -4.05397 -1.54387 0
M  V30 25597 H 2367.24 -4.57178 -3.09342 0
M  V30 25598 H 2369.72 -2.64839 -3.20935 0
M  V30 25599 H 2368.6 -3.13963 -4.50242 0
M  V30 25600 H 2368.86 -1.43228 -4.18256 0
M  V30 25601 N 2367.92 0.924431 -1.2764 0
M  V30 25602 C 2369.16 1.68701 -1.1541 0
M  V30 25603 C 2369.52 1.89727 0.294547 0
M  V30 25604 O 2370.72 2.63334 0.539339 0
M  V30 25605 C 2368.99 3.01476 -1.91955 0
M  V30 25606 S 2370.55 3.92605 -1.95976 0
M  V30 25607 H 2367.37 0.5795 -0.411947 0
M  V30 25608 H 2369.97 1.10035 -1.61594 0
M  V30 25609 H 2368.68 2.83866 -2.96392 0
M  V30 25610 H 2368.21 3.65193 -1.46279 0
M  V30 25611 H 2370.22 4.84778 -1.05854 0
M  V30 25612 N 2369.39 1.09715 1.13139 0
M  V30 25613 C 2370.32 0.761141 2.20746 0
M  V30 25614 C 2371.31 -0.262537 1.68062 0
M  V30 25615 O 2372.49 -0.129943 1.93765 0
M  V30 25616 C 2369.62 0.184115 3.46812 0
M  V30 25617 C 2368.57 1.13764 4.12604 0
M  V30 25618 C 2367.9 0.422176 5.33031 0
M  V30 25619 C 2369.2 2.48127 4.59598 0
M  V30 25620 H 2370.89 1.66086 2.4911 0
M  V30 25621 H 2368.44 0.800008 1.19732 0
M  V30 25622 H 2370.39 -0.0630474 4.21353 0
M  V30 25623 H 2369.12 -0.750812 3.17853 0
M  V30 25624 H 2367.78 1.37013 3.40034 0
M  V30 25625 H 2367.42 -0.516984 5.00336 0
M  V30 25626 H 2367.12 1.05798 5.77997 0
M  V30 25627 H 2368.65 0.183385 6.10325 0
M  V30 25628 H 2370.06 2.29068 5.25548 0
M  V30 25629 H 2368.46 3.07523 5.15315 0
M  V30 25630 H 2369.53 3.08671 3.73965 0
M  V30 25631 N 2370.87 -1.30419 0.88479 0
M  V30 25632 C 2371.8 -2.30588 0.367614 0
M  V30 25633 C 2372.78 -1.60982 -0.549436 0
M  V30 25634 O 2373.97 -1.88592 -0.463327 0
M  V30 25635 C 2371.1 -3.44765 -0.418883 0
M  V30 25636 C 2370.05 -4.26066 0.406391 0
M  V30 25637 C 2369.38 -5.32294 -0.506699 0
M  V30 25638 C 2370.68 -4.95606 1.64841 0
M  V30 25639 H 2372.37 -2.74095 1.20467 0
M  V30 25640 H 2369.92 -1.31771 0.580718 0
M  V30 25641 H 2371.87 -4.13903 -0.791322 0
M  V30 25642 H 2370.6 -3.00062 -1.28958 0
M  V30 25643 H 2369.25 -3.58615 0.760967 0
M  V30 25644 H 2368.9 -4.83839 -1.3751 0
M  V30 25645 H 2368.6 -5.87585 0.041686 0
M  V30 25646 H 2370.13 -6.04288 -0.875658 0
M  V30 25647 H 2371.54 -5.57262 1.34656 0
M  V30 25648 H 2369.94 -5.60761 2.13698 0
M  V30 25649 H 2371.01 -4.21743 2.39292 0
M  V30 25650 N 2372.35 -0.645724 -1.43764 0
M  V30 25651 C 2373.6 -0.153448 -2.01115 0
M  V30 25652 C 2373.91 1.23728 -1.51495 0
M  V30 25653 O 2375.12 1.82437 -2.0107 0
M  V30 25654 C 2373.57 -0.223536 -3.59205 0
M  V30 25655 C 2373.18 -1.61649 -4.1782 0
M  V30 25656 C 2374.93 0.211523 -4.23973 0
M  V30 25657 C 2372.83 -1.64091 -5.6818 0
M  V30 25658 H 2371.76 -0.0536024 -0.752092 0
M  V30 25659 H 2374.41 -0.806662 -1.64819 0
M  V30 25660 H 2372.8 0.497049 -3.92868 0
M  V30 25661 H 2373.97 -2.36183 -3.9567 0
M  V30 25662 H 2372.29 -1.99688 -3.65395 0
M  V30 25663 H 2374.88 0.213018 -5.34276 0
M  V30 25664 H 2375.23 1.24158 -3.97354 0
M  V30 25665 H 2375.76 -0.457058 -3.95166 0
M  V30 25666 H 2372.5 -2.64981 -5.99554 0
M  V30 25667 H 2372.02 -0.938715 -5.92409 0
M  V30 25668 H 2373.7 -1.38131 -6.32083 0
M  V30 25669 N 2373.83 1.5277 -0.38717 0
M  V30 25670 C 2374.79 2.24997 0.436899 0
M  V30 25671 C 2375.79 1.26557 0.991969 0
M  V30 25672 O 2376.98 1.5067 0.874308 0
M  V30 25673 C 2374.11 3.00338 1.61276 0
M  V30 25674 H 2375.31 2.99263 -0.195417 0
M  V30 25675 H 2372.86 1.55679 -0.139246 0
M  V30 25676 H 2373.59 2.30368 2.28256 0
M  V30 25677 H 2373.38 3.72589 1.22147 0
M  V30 25678 H 2374.87 3.55184 2.19623 0
M  V30 25679 N 2375.31 0.116931 1.57166 0
M  V30 25680 C 2376.24 -0.871254 2.10913 0
M  V30 25681 C 2377.22 -1.26222 1.02502 0
M  V30 25682 O 2378.4 -1.36364 1.30143 0
M  V30 25683 C 2375.53 -2.1657 2.60414 0
M  V30 25684 C 2374.57 -1.92295 3.8069 0
M  V30 25685 S 2375.41 -1.1411 5.23201 0
M  V30 25686 C 2376.56 -2.44738 5.76068 0
M  V30 25687 H 2376.8 -0.414086 2.94402 0
M  V30 25688 H 2374.33 -0.0968019 1.54096 0
M  V30 25689 H 2376.29 -2.90945 2.89588 0
M  V30 25690 H 2374.95 -2.59405 1.7711 0
M  V30 25691 H 2374.14 -2.88203 4.13467 0
M  V30 25692 H 2373.74 -1.26041 3.52122 0
M  V30 25693 H 2376.04 -3.40589 5.85666 0
M  V30 25694 H 2376.98 -2.16509 6.74188 0
M  V30 25695 H 2377.39 -2.54011 5.04122 0
M  V30 25696 N 2376.78 -1.56818 -0.156836 0
M  V30 25697 C 2377.71 -2.00553 -1.19586 0
M  V30 25698 C 2378.7 -0.883452 -1.45359 0
M  V30 25699 O 2379.88 -1.15057 -1.56447 0
M  V30 25700 C 2377.01 -2.37777 -2.53139 0
M  V30 25701 C 2375.96 -3.53079 -2.41907 0
M  V30 25702 C 2375.29 -3.76088 -3.80082 0
M  V30 25703 C 2376.59 -4.86065 -1.91149 0
M  V30 25704 H 2378.28 -2.87601 -0.832243 0
M  V30 25705 H 2375.83 -1.38365 -0.398894 0
M  V30 25706 H 2377.78 -2.66972 -3.26042 0
M  V30 25707 H 2376.51 -1.47655 -2.91317 0
M  V30 25708 H 2375.17 -3.24034 -1.71457 0
M  V30 25709 H 2374.81 -2.83233 -4.15678 0
M  V30 25710 H 2374.51 -4.53677 -3.73431 0
M  V30 25711 H 2376.04 -4.07698 -4.54549 0
M  V30 25712 H 2377.45 -5.14042 -2.53837 0
M  V30 25713 H 2375.85 -5.67392 -1.95412 0
M  V30 25714 H 2376.92 -4.77094 -0.866589 0
M  V30 25715 N 2378.26 0.425871 -1.51737 0
M  V30 25716 C 2379.51 1.17433 -1.64972 0
M  V30 25717 C 2379.84 1.9092 -0.371479 0
M  V30 25718 O 2379.09 1.84768 0.644931 0
M  V30 25719 C 2379.39 2.20712 -2.81106 0
M  V30 25720 C 2379.06 1.64155 -4.19957 0
M  V30 25721 C 2377.72 1.48454 -4.57728 0
M  V30 25722 C 2380.07 1.22687 -5.06554 0
M  V30 25723 C 2377.4 0.897771 -5.7979 0
M  V30 25724 C 2379.75 0.654353 -6.29207 0
M  V30 25725 C 2378.42 0.484339 -6.6574 0
M  V30 25726 H 2377.69 0.429717 -0.603676 0
M  V30 25727 H 2380.33 0.463797 -1.85799 0
M  V30 25728 H 2378.64 2.97847 -2.54547 0
M  V30 25729 H 2380.33 2.78465 -2.88545 0
M  V30 25730 H 2376.92 1.77355 -3.90184 0
M  V30 25731 H 2381.11 1.33633 -4.7797 0
M  V30 25732 H 2376.36 0.753913 -6.06734 0
M  V30 25733 H 2380.54 0.324572 -6.95643 0
M  V30 25734 H 2378.17 0.0275497 -7.60195 0
M  V30 25735 N 2379.74 1.42077 0.682052 0
M  V30 25736 C 2380.99 1.42159 1.44212 0
M  V30 25737 C 2381.32 0.0354527 1.94468 0
M  V30 25738 O 2380.57 -0.954972 1.70818 0
M  V30 25739 C 2380.87 2.38666 2.66032 0
M  V30 25740 C 2380.54 3.8521 2.34359 0
M  V30 25741 C 2379.2 4.25128 2.25432 0
M  V30 25742 C 2381.55 4.77677 2.08504 0
M  V30 25743 C 2378.88 5.55504 1.88765 0
M  V30 25744 C 2381.23 6.08387 1.73343 0
M  V30 25745 C 2379.89 6.47312 1.62921 0
M  V30 25746 H 2379.16 0.520196 0.527709 0
M  V30 25747 H 2381.81 1.74968 0.778356 0
M  V30 25748 H 2380.12 1.99158 3.37407 0
M  V30 25749 H 2381.81 2.35997 3.24201 0
M  V30 25750 H 2378.4 3.53601 2.42207 0
M  V30 25751 H 2382.59 4.4763 2.14338 0
M  V30 25752 H 2377.84 5.8453 1.7926 0
M  V30 25753 H 2382.02 6.79529 1.52361 0
M  V30 25754 H 2379.64 7.48247 1.34279 0
M  V30 25755 N 2381.22 -0.917649 1.28129 0
M  V30 25756 C 2382.47 -1.66095 1.14435 0
M  V30 25757 C 2382.78 -1.93172 -0.307213 0
M  V30 25758 O 2383.99 -2.65552 -0.565212 0
M  V30 25759 C 2382.44 -2.99199 2.0002 0
M  V30 25760 C 2382.05 -2.79783 3.49893 0
M  V30 25761 C 2383.8 -3.7706 1.95002 0
M  V30 25762 C 2381.7 -4.08503 4.27643 0
M  V30 25763 H 2380.63 -0.623032 0.424673 0
M  V30 25764 H 2383.28 -1.01865 1.52629 0
M  V30 25765 H 2381.67 -3.64542 1.54678 0
M  V30 25766 H 2382.84 -2.23145 4.03166 0
M  V30 25767 H 2381.15 -2.15339 3.56396 0
M  V30 25768 H 2383.75 -4.72465 2.50362 0
M  V30 25769 H 2384.09 -4.05873 0.92589 0
M  V30 25770 H 2384.63 -3.1853 2.38293 0
M  V30 25771 H 2381.37 -3.84865 5.30621 0
M  V30 25772 H 2380.89 -4.64768 3.79145 0
M  V30 25773 H 2382.57 -4.76791 4.37355 0
M  V30 25774 N 2382.7 -1.10314 -1.12555 0
M  V30 25775 C 2383.93 -0.865649 -1.8759 0
M  V30 25776 C 2384.34 0.587358 -1.79852 0
M  V30 25777 O 2383.68 1.41662 -1.16951 0
M  V30 25778 C 2383.74 -1.23387 -3.37662 0
M  V30 25779 C 2383.4 -2.69365 -3.69177 0
M  V30 25780 C 2384.4 -3.67604 -3.67646 0
M  V30 25781 C 2382.09 -3.05718 -3.98549 0
M  V30 25782 C 2384.08 -5.00219 -3.95044 0
M  V30 25783 C 2381.77 -4.38522 -4.25608 0
M  V30 25784 C 2382.77 -5.35581 -4.23842 0
M  V30 25785 O 2382.45 -6.65994 -4.5023 0
M  V30 25786 H 2382.19 -0.310567 -0.600436 0
M  V30 25787 H 2384.74 -1.47107 -1.43348 0
M  V30 25788 H 2382.97 -0.571534 -3.82453 0
M  V30 25789 H 2384.66 -0.974063 -3.94039 0
M  V30 25790 H 2385.42 -3.40863 -3.45018 0
M  V30 25791 H 2381.3 -2.30796 -3.99066 0
M  V30 25792 H 2384.85 -5.75969 -3.93581 0
M  V30 25793 H 2380.74 -4.65001 -4.4771 0
M  V30 25794 H 2381.51 -6.71606 -4.67855 0
M  V30 25795 N 2384.18 1.29948 -0.891694 0
M  V30 25796 C 2385.14 2.26221 -0.368319 0
M  V30 25797 C 2386.14 1.53056 0.492987 0
M  V30 25798 O 2387.33 1.71612 0.299183 0
M  V30 25799 C 2384.46 3.37584 0.47436 0
M  V30 25800 H 2385.65 2.74031 -1.21848 0
M  V30 25801 H 2383.21 1.41253 -0.669132 0
M  V30 25802 H 2383.94 2.95101 1.34484 0
M  V30 25803 H 2383.73 3.9184 -0.142684 0
M  V30 25804 H 2385.22 4.09226 0.832108 0
M  V30 25805 N 2385.65 0.653339 1.4342 0
M  V30 25806 C 2386.9 0.164111 2.01031 0
M  V30 25807 C 2387.22 -1.22923 1.52149 0
M  V30 25808 O 2388.42 -1.81368 2.02035 0
M  V30 25809 C 2386.88 0.242583 3.59082 0
M  V30 25810 C 2386.49 1.63862 4.16957 0
M  V30 25811 C 2388.23 -0.189035 4.24079 0
M  V30 25812 C 2386.14 1.67102 5.67302 0
M  V30 25813 H 2385.07 0.0575901 0.751797 0
M  V30 25814 H 2387.72 0.815391 1.64389 0
M  V30 25815 H 2386.1 -0.476207 3.93126 0
M  V30 25816 H 2387.27 2.38278 3.94412 0
M  V30 25817 H 2385.59 2.01623 3.64331 0
M  V30 25818 H 2388.19 -0.184681 5.34381 0
M  V30 25819 H 2388.53 -1.22049 3.98007 0
M  V30 25820 H 2389.06 0.478008 3.94918 0
M  V30 25821 H 2385.8 2.68157 5.98141 0
M  V30 25822 H 2385.32 0.970118 5.91903 0
M  V30 25823 H 2387 1.41481 6.31341 0
M  V30 25824 N 2387.13 -1.52563 0.395266 0
M  V30 25825 C 2388.38 -2.00838 -0.186286 0
M  V30 25826 C 2388.69 -1.28579 -1.474 0
M  V30 25827 O 2389.9 -1.67597 -2.13597 0
M  V30 25828 C 2388.36 -3.57861 -0.382533 0
M  V30 25829 C 2387.96 -4.39024 0.892279 0
M  V30 25830 C 2389.71 -4.14408 -0.920127 0
M  V30 25831 C 2387.61 -5.87661 0.663983 0
M  V30 25832 H 2386.54 -0.75042 -0.0733909 0
M  V30 25833 H 2389.2 -1.7602 0.518583 0
M  V30 25834 H 2387.58 -3.78952 -1.1494 0
M  V30 25835 H 2388.75 -4.29698 1.66422 0
M  V30 25836 H 2387.07 -3.93728 1.35526 0
M  V30 25837 H 2389.66 -5.23121 -1.10674 0
M  V30 25838 H 2390.01 -3.70879 -1.89089 0
M  V30 25839 H 2390.54 -3.97231 -0.212681 0
M  V30 25840 H 2387.28 -6.35524 1.60592 0
M  V30 25841 H 2386.8 -5.9976 -0.0689139 0
M  V30 25842 H 2388.48 -6.463 0.300813 0
M  V30 25843 N 2388.61 -0.125265 -1.57101 0
M  V30 25844 C 2389.86 0.530164 -1.95022 0
M  V30 25845 C 2390.18 1.66814 -1.00985 0
M  V30 25846 O 2389.45 1.95784 -0.0673037 0
M  V30 25847 H 2388.03 0.19884 -0.72005 0
M  V30 25848 H 2390.69 -0.195674 -1.93915 0
M  V30 25849 H 2389.79 0.920629 -2.98213 0
M  V30 25850 N 2390.09 1.56899 0.148518 0
M  V30 25851 C 2391.02 1.93298 1.2129 0
M  V30 25852 C 2392 0.798624 1.41636 0
M  V30 25853 O 2393.18 1.05409 1.56273 0
M  V30 25854 C 2390.31 2.2037 2.57206 0
M  V30 25855 C 2389.36 3.43014 2.53463 0
M  V30 25856 S 2390.19 4.96626 2.00306 0
M  V30 25857 C 2391.34 5.26818 3.37954 0
M  V30 25858 H 2391.58 2.83276 0.902343 0
M  V30 25859 H 2389.11 1.50285 0.354067 0
M  V30 25860 H 2391.07 2.36647 3.35423 0
M  V30 25861 H 2389.73 1.31059 2.85451 0
M  V30 25862 H 2388.92 3.59229 3.53512 0
M  V30 25863 H 2388.52 3.25972 1.83354 0
M  V30 25864 H 2390.82 5.20193 4.34057 0
M  V30 25865 H 2391.76 6.28285 3.26595 0
M  V30 25866 H 2392.17 4.54337 3.3502 0
M  V30 25867 N 2391.57 -0.417818 1.51961 0
M  V30 25868 C 2392.5 -1.5273 1.70898 0
M  V30 25869 C 2393.51 -1.51755 0.589432 0
M  V30 25870 O 2394.7 -1.56178 0.864339 0
M  V30 25871 C 2391.8 -2.91636 1.72632 0
M  V30 25872 C 2390.97 -3.169 3.01485 0
M  V30 25873 C 2390.03 -4.35631 2.95147 0
M  V30 25874 O 2389.06 -4.33334 3.69067 0
M  V30 25875 N 2390.26 -5.40271 2.12338 0
M  V30 25876 H 2393.02 -1.36883 2.66614 0
M  V30 25877 H 2390.59 -0.607011 1.5009 0
M  V30 25878 H 2392.58 -3.69117 1.65935 0
M  V30 25879 H 2391.15 -3.00983 0.844268 0
M  V30 25880 H 2390.37 -2.2754 3.21899 0
M  V30 25881 H 2391.66 -3.30618 3.86742 0
M  V30 25882 H 2391.05 -5.44982 1.51694 0
M  V30 25883 H 2389.61 -6.1653 2.11504 0
M  V30 25884 N 2393.04 -1.42436 -0.674508 0
M  V30 25885 C 2394.29 -1.43133 -1.43669 0
M  V30 25886 C 2394.62 -0.0476362 -1.94142 0
M  V30 25887 O 2393.9 0.928158 -1.70925 0
M  V30 25888 C 2394.18 -2.45598 -2.63351 0
M  V30 25889 C 2394.03 -3.9316 -2.18507 0
M  V30 25890 C 2395.35 -2.45049 -3.65567 0
M  V30 25891 H 2392.47 -0.521207 -0.521068 0
M  V30 25892 H 2395.11 -1.73852 -0.766521 0
M  V30 25893 H 2393.26 -2.19534 -3.20526 0
M  V30 25894 H 2394.94 -4.30205 -1.66497 0
M  V30 25895 H 2393.18 -4.07012 -1.50079 0
M  V30 25896 H 2393.85 -4.60433 -3.04475 0
M  V30 25897 H 2396.33 -2.68228 -3.18108 0
M  V30 25898 H 2395.2 -3.18721 -4.46887 0
M  V30 25899 H 2395.46 -1.47656 -4.16713 0
M  V30 25900 N 2394.52 0.910841 -1.28614 0
M  V30 25901 C 2395.77 1.66026 -1.15937 0
M  V30 25902 C 2396.1 1.92304 0.291449 0
M  V30 25903 O 2395.35 1.52366 1.22813 0
M  V30 25904 C 2395.65 3.02317 -1.90629 0
M  V30 25905 C 2395.32 2.95689 -3.4041 0
M  V30 25906 C 2393.98 2.93588 -3.8126 0
M  V30 25907 C 2396.33 2.85721 -4.35905 0
M  V30 25908 C 2393.66 2.79325 -5.15941 0
M  V30 25909 C 2396.01 2.72997 -5.70662 0
M  V30 25910 C 2394.67 2.69256 -6.10784 0
M  V30 25911 H 2393.94 0.607534 -0.424245 0
M  V30 25912 H 2396.59 1.06098 -1.59422 0
M  V30 25913 H 2394.9 3.66047 -1.39702 0
M  V30 25914 H 2396.59 3.59212 -1.78235 0
M  V30 25915 H 2393.18 2.9812 -3.07933 0
M  V30 25916 H 2397.37 2.86429 -4.05305 0
M  V30 25917 H 2392.62 2.74826 -5.46151 0
M  V30 25918 H 2396.8 2.64253 -6.44316 0
M  V30 25919 H 2394.42 2.57961 -7.15094 0
M  V30 25920 N 2396 1.10909 1.11969 0
M  V30 25921 C 2397.25 0.852852 1.83224 0
M  V30 25922 C 2397.57 -0.623309 1.8477 0
M  V30 25923 O 2396.84 -1.45267 1.31432 0
M  V30 25924 H 2395.42 0.312519 0.678484 0
M  V30 25925 H 2398.08 1.40036 1.35558 0
M  V30 25926 H 2397.18 1.2201 2.87263 0
M  V30 25927 N 2397.48 -1.29474 0.898573 0
M  V30 25928 C 2398.43 -2.29714 0.365294 0
M  V30 25929 C 2399.42 -1.60731 -0.534964 0
M  V30 25930 O 2400.63 -1.75082 -0.41789 0
M  V30 25931 H 2397 -0.745389 0.0994984 0
M  V30 25932 H 2398.97 -2.72136 1.22411 0
M  V30 25933 C 2397.72 -3.45471 -0.393099 0
M  V30 25934 H 2397.04 -3.98744 0.290402 0
M  V30 25935 H 2398.48 -4.17649 -0.731116 0
M  V30 25936 C 2396.94 -2.96733 -1.59534 0
M  V30 25937 O 2397.47 -2.97913 -2.69464 0
M  V30 25938 N 2395.68 -2.52577 -1.43712 0
M  V30 25939 H 2395.23 -2.51817 -0.542784 0
M  V30 25940 H 2395.18 -2.20327 -2.24284 0
M  V30 25941 N 2398.96 -0.660936 -1.43071 0
M  V30 25942 C 2400.21 -0.17477 -2.00941 0
M  V30 25943 C 2400.52 1.22114 -1.52799 0
M  V30 25944 O 2401.72 1.80294 -2.02994 0
M  V30 25945 C 2400.18 -0.261622 -3.58948 0
M  V30 25946 C 2399.79 -1.66071 -4.16082 0
M  V30 25947 C 2401.53 0.166543 -4.24173 0
M  V30 25948 C 2399.44 -1.70108 -5.66407 0
M  V30 25949 H 2398.37 -0.0615763 -0.751481 0
M  V30 25950 H 2401.02 -0.824098 -1.63954 0
M  V30 25951 H 2399.4 0.455352 -3.93373 0
M  V30 25952 H 2400.58 -2.40366 -3.93142 0
M  V30 25953 H 2398.89 -2.03552 -3.63257 0
M  V30 25954 H 2401.49 0.156339 -5.34471 0
M  V30 25955 H 2401.83 1.19936 -3.98649 0
M  V30 25956 H 2402.36 -0.498945 -3.94659 0
M  V30 25957 H 2399.1 -2.71325 -5.9671 0
M  V30 25958 H 2398.62 -1.00149 -5.9138 0
M  V30 25959 H 2400.3 -1.44827 -6.30582 0
M  V30 25960 N 2400.43 1.52351 -0.403352 0
M  V30 25961 C 2401.4 2.25448 0.413011 0
M  V30 25962 C 2402.4 1.27602 0.97849 0
M  V30 25963 O 2403.59 1.51589 0.858278 0
M  V30 25964 C 2400.72 3.02032 1.58081 0
M  V30 25965 H 2401.91 2.99039 -0.227147 0
M  V30 25966 H 2399.47 1.55522 -0.15575 0
M  V30 25967 H 2400.2 2.32776 2.258 0
M  V30 25968 H 2399.99 3.73863 1.18189 0
M  V30 25969 H 2401.48 3.57493 2.15843 0
M  V30 25970 N 2401.91 0.133594 1.57033 0
M  V30 25971 C 2402.84 -0.807528 2.19092 0
M  V30 25972 C 2403.82 -1.26679 1.13519 0
M  V30 25973 O 2405.01 -1.32677 1.41812 0
M  V30 25974 C 2402.14 -2.05207 2.80191 0
M  V30 25975 C 2401.09 -1.73008 3.91475 0
M  V30 25976 C 2400.42 -3.04614 4.39448 0
M  V30 25977 C 2401.72 -0.987077 5.12888 0
M  V30 25978 H 2403.41 -0.290351 2.97989 0
M  V30 25979 H 2400.96 -0.138214 1.43335 0
M  V30 25980 H 2402.91 -2.71515 3.22269 0
M  V30 25981 H 2401.64 -2.59275 1.98606 0
M  V30 25982 H 2400.29 -1.09083 3.49995 0
M  V30 25983 H 2399.94 -3.56645 3.54702 0
M  V30 25984 H 2399.64 -2.83838 5.145 0
M  V30 25985 H 2401.17 -3.72016 4.84187 0
M  V30 25986 H 2402.58 -1.55198 5.51894 0
M  V30 25987 H 2400.98 -0.879746 5.93616 0
M  V30 25988 H 2402.05 0.0236139 4.84894 0
M  V30 25989 N 2403.39 -1.56975 -0.140195 0
M  V30 25990 C 2404.67 -1.74649 -0.880739 0
M  V30 25991 C 2405.05 -0.703439 -1.99035 0
M  V30 25992 O 2404.4 0.27644 -2.26822 0
M  V30 25993 C 2404.61 -3.18942 -1.41694 0
M  V30 25994 C 2405.95 -3.80826 -1.87767 0
M  V30 25995 O 2406.98 -3.22413 -1.51421 0
M  V30 25996 O 2405.84 -4.83456 -2.54819 0
M  V30 25997 H 2402.93 -0.714345 -0.416701 0
M  V30 25998 H 2405.48 -1.69235 -0.125588 0
M  V30 25999 H 2404.25 -3.8636 -0.619834 0
M  V30 26000 H 2403.87 -3.28809 -2.23541 0
M  V30 26001 N 2404.87 0.409753 -1.5218 0
M  V30 26002 C 2406.15 1.16971 -1.56771 0
M  V30 26003 C 2406.53 2.08206 -0.348358 0
M  V30 26004 O 2405.87 2.18615 0.664824 0
M  V30 26005 C 2406.08 1.94755 -2.89606 0
M  V30 26006 C 2407.43 2.50843 -3.42583 0
M  V30 26007 O 2408.46 2.04935 -2.91342 0
M  V30 26008 O 2407.31 3.34644 -4.3206 0
M  V30 26009 H 2404.41 0.534043 -0.631448 0
M  V30 26010 H 2406.95 0.416584 -1.64507 0
M  V30 26011 H 2405.73 1.27914 -3.69802 0
M  V30 26012 H 2405.35 2.77074 -2.8516 0
M  V30 26013 N 2406.35 1.42792 0.666944 0
M  V30 26014 C 2407.62 1.34161 1.42338 0
M  V30 26015 C 2408 -0.0172358 2.11093 0
M  V30 26016 O 2407.35 -1.03314 2.0381 0
M  V30 26017 C 2407.56 2.5153 2.41937 0
M  V30 26018 C 2408.91 2.94001 3.06347 0
M  V30 26019 O 2409.93 2.51477 2.52265 0
M  V30 26020 O 2408.79 3.67624 4.0437 0
M  V30 26021 H 2405.89 0.529494 0.635268 0
M  V30 26022 H 2408.43 1.54815 0.695007 0
M  V30 26023 H 2407.2 3.42084 1.89985 0
M  V30 26024 H 2406.83 2.32904 3.22245 0
M  V30 26025 N 2407.82 -0.904008 1.29095 0
M  V30 26026 C 2409.05 -1.68764 1.19692 0
M  V30 26027 C 2409.47 -1.87229 -0.24308 0
M  V30 26028 O 2408.82 -1.40624 -1.16324 0
M  V30 26029 C 2408.88 -3.0745 1.90149 0
M  V30 26030 O 2408.6 -2.89832 3.28526 0
M  V30 26031 C 2410.1 -4.01849 1.8717 0
M  V30 26032 H 2407.32 -0.527237 0.415045 0
M  V30 26033 H 2409.86 -1.13079 1.70392 0
M  V30 26034 H 2408.02 -3.59924 1.43296 0
M  V30 26035 H 2408.43 -3.77677 3.63951 0
M  V30 26036 H 2409.9 -4.96592 2.41041 0
M  V30 26037 H 2410.38 -4.3097 0.846246 0
M  V30 26038 H 2410.99 -3.55306 2.33747 0
M  V30 26039 N 2409.3 -1.11501 -1.11379 0
M  V30 26040 C 2410.53 -0.887052 -1.87473 0
M  V30 26041 C 2410.95 0.557764 -1.7964 0
M  V30 26042 O 2410.31 1.39394 -1.15927 0
M  V30 26043 C 2410.36 -1.35409 -3.34211 0
M  V30 26044 O 2409.46 -0.526218 -4.09029 0
M  V30 26045 H 2408.8 -0.319473 -0.582094 0
M  V30 26046 H 2411.33 -1.48464 -1.40782 0
M  V30 26047 H 2411.34 -1.34888 -3.85057 0
M  V30 26048 H 2410.02 -2.40618 -3.39228 0
M  V30 26049 H 2408.6 -0.597587 -3.68081 0
M  V30 26050 N 2410.78 1.28995 -0.905426 0
M  V30 26051 C 2412.03 1.94606 -0.530225 0
M  V30 26052 C 2412.34 1.72122 0.929155 0
M  V30 26053 O 2413.55 2.31886 1.41214 0
M  V30 26054 C 2412.01 3.48532 -0.897394 0
M  V30 26055 C 2411.61 3.79807 -2.37593 0
M  V30 26056 C 2413.36 4.20346 -0.592378 0
M  V30 26057 C 2411.26 5.27004 -2.68366 0
M  V30 26058 H 2410.19 0.728463 -0.19457 0
M  V30 26059 H 2412.85 1.46634 -1.10321 0
M  V30 26060 H 2411.23 3.95189 -0.253283 0
M  V30 26061 H 2412.4 3.43989 -3.06608 0
M  V30 26062 H 2410.72 3.21146 -2.65055 0
M  V30 26063 H 2413.31 5.28696 -0.799068 0
M  V30 26064 H 2413.66 4.13645 0.469401 0
M  V30 26065 H 2414.19 3.7944 -1.19458 0
M  V30 26066 H 2410.93 5.38775 -3.73365 0
M  V30 26067 H 2410.45 5.64049 -2.03981 0
M  V30 26068 H 2412.13 5.94658 -2.54933 0
M  V30 26069 N 2412.26 0.668514 1.42719 0
M  V30 26070 C 2413.21 -0.0254448 2.32586 0
M  V30 26071 C 2414.2 -0.79715 1.49472 0
M  V30 26072 O 2415.41 -0.705823 1.65584 0
M  V30 26073 H 2411.78 -0.0270207 0.751514 0
M  V30 26074 H 2413.75 0.749987 2.88821 0
M  V30 26075 C 2412.5 -0.967368 3.33972 0
M  V30 26076 H 2411.83 -0.382978 3.97961 0
M  V30 26077 H 2413.27 -1.42174 3.99453 0
M  V30 26078 C 2411.72 -2.07075 2.65747 0
M  V30 26079 O 2412.25 -3.15644 2.48459 0
M  V30 26080 N 2410.46 -1.84066 2.24873 0
M  V30 26081 H 2410.01 -0.957738 2.39134 0
M  V30 26082 H 2409.97 -2.58083 1.79557 0
M  V30 26083 N 2413.74 -1.52135 0.411426 0
M  V30 26084 C 2415.15 -1.59478 0.0624145 0
M  V30 26085 C 2415.35 -1.42413 -1.42551 0
M  V30 26086 O 2414.41 -1.25224 -2.19261 0
M  V30 26087 C 2415.72 -2.95451 0.559383 0
M  V30 26088 C 2417.27 -3.08691 0.517558 0
M  V30 26089 C 2417.75 -4.47148 0.991073 0
M  V30 26090 N 2419.24 -4.53395 0.947987 0
M  V30 26091 C 2419.97 -5.58804 1.28553 0
M  V30 26092 N 2419.47 -6.71754 1.69465 0
M  V30 26093 N 2421.26 -5.49024 1.20536 0
M  V30 26094 H 2413.41 -1.61475 1.37985 0
M  V30 26095 H 2415.67 -0.759754 0.56699 0
M  V30 26096 H 2415.38 -3.13227 1.59944 0
M  V30 26097 H 2415.25 -3.77188 -0.0297351 0
M  V30 26098 H 2417.64 -2.90599 -0.513454 0
M  V30 26099 H 2417.72 -2.28855 1.14276 0
M  V30 26100 H 2417.37 -4.65984 2.02042 0
M  V30 26101 H 2417.3 -5.25484 0.342663 0
M  V30 26102 H 2419.79 -3.72316 0.647223 0
M  V30 26103 H 2420.1 -7.48176 1.93527 0
M  V30 26104 H 2418.45 -6.73029 1.73371 0
M  V30 26105 H 2421.64 -4.59666 0.884585 0
M  V30 26106 H 2421.81 -6.31066 1.47172 0
M  V30 26107 N 2415.22 -0.14192 -1.5696 0
M  V30 26108 C 2416.17 0.811345 -2.13076 0
M  V30 26109 C 2417.15 1.21287 -1.05728 0
M  V30 26110 O 2418.34 1.18013 -1.31916 0
M  V30 26111 C 2415.47 2.05245 -2.7519 0
M  V30 26112 C 2414.56 1.67426 -3.89653 0
M  V30 26113 N 2414.95 1.00401 -4.95735 0
M  V30 26114 C 2413.25 1.96732 -4.00266 0
M  V30 26115 C 2413.95 0.822244 -5.75859 0
M  V30 26116 N 2412.92 1.35451 -5.26454 0
M  V30 26117 H 2416.72 0.28998 -2.92466 0
M  V30 26118 H 2414.24 0.0597933 -1.6229 0
M  V30 26119 H 2416.24 2.7453 -3.1375 0
M  V30 26120 H 2414.9 2.57904 -1.97271 0
M  V30 26121 H 2415.91 0.66535 -5.13608 0
M  V30 26122 H 2412.58 2.51276 -3.33416 0
M  V30 26123 H 2413.97 0.294378 -6.71255 0
M  V30 26124 N 2416.69 1.57047 0.131868 0
M  V30 26125 C 2417.64 2.00362 1.18143 0
M  V30 26126 C 2418.64 0.898431 1.43613 0
M  V30 26127 O 2419.84 1.08363 1.43727 0
M  V30 26128 H 2416.22 0.638025 0.398031 0
M  V30 26129 H 2418.19 2.87766 0.789513 0
M  V30 26130 C 2416.94 2.41303 2.50336 0
M  V30 26131 H 2416.26 3.25906 2.31572 0
M  V30 26132 H 2417.7 2.7542 3.22366 0
M  V30 26133 C 2416.16 1.27158 3.11981 0
M  V30 26134 O 2416.69 0.580529 3.97483 0
M  V30 26135 N 2414.89 1.03193 2.71661 0
M  V30 26136 H 2414.44 1.59567 2.02228 0
M  V30 26137 H 2414.4 0.270132 3.13237 0
M  V30 26138 N 2418.17 -0.401677 1.52395 0
M  V30 26139 C 2419.12 -1.51036 1.76892 0
M  V30 26140 C 2420.11 -1.56994 0.636326 0
M  V30 26141 O 2421.32 -1.60312 0.818535 0
M  V30 26142 H 2417.69 -0.502446 0.559511 0
M  V30 26143 H 2419.67 -1.27563 2.6976 0
M  V30 26144 C 2418.41 -2.8832 1.94336 0
M  V30 26145 H 2417.74 -2.84481 2.8091 0
M  V30 26146 H 2419.18 -3.65168 2.15473 0
M  V30 26147 C 2417.64 -3.29281 0.712454 0
M  V30 26148 O 2418.17 -4.01532 -0.116147 0
M  V30 26149 N 2416.37 -2.85421 0.546204 0
M  V30 26150 H 2415.92 -2.26792 1.2216 0
M  V30 26151 H 2415.88 -3.13186 -0.276058 0
M  V30 26152 N 2419.65 -1.43144 -0.659362 0
M  V30 26153 C 2420.9 -1.44435 -1.41932 0
M  V30 26154 C 2421.22 -0.0663864 -1.94387 0
M  V30 26155 O 2420.48 0.927676 -1.72316 0
M  V30 26156 C 2420.78 -2.42868 -2.62202 0
M  V30 26157 C 2420.44 -3.8889 -2.28201 0
M  V30 26158 C 2419.11 -4.28661 -2.1864 0
M  V30 26159 C 2421.46 -4.80934 -2.00878 0
M  V30 26160 C 2418.79 -5.58437 -1.79904 0
M  V30 26161 C 2421.14 -6.11068 -1.63642 0
M  V30 26162 C 2419.8 -6.49822 -1.52603 0
M  V30 26163 H 2419.07 -0.528526 -0.519367 0
M  V30 26164 H 2421.72 -1.76184 -0.750422 0
M  V30 26165 H 2420.02 -2.04501 -3.34195 0
M  V30 26166 H 2421.72 -2.41125 -3.20406 0
M  V30 26167 H 2418.31 -3.5741 -2.3655 0
M  V30 26168 H 2422.5 -4.50983 -2.0719 0
M  V30 26169 H 2417.75 -5.87308 -1.69938 0
M  V30 26170 H 2421.93 -6.81867 -1.41531 0
M  V30 26171 H 2419.55 -7.50288 -1.22358 0
M  V30 26172 N 2421.13 0.897149 -1.29572 0
M  V30 26173 C 2422.54 1.17839 -1.07639 0
M  V30 26174 C 2422.74 2.00776 0.170678 0
M  V30 26175 O 2421.8 2.37122 0.867727 0
M  V30 26176 C 2423.11 1.89686 -2.33323 0
M  V30 26177 C 2424.66 2.02501 -2.38668 0
M  V30 26178 C 2425.14 2.77759 -3.64162 0
M  V30 26179 N 2426.63 2.85312 -3.64899 0
M  V30 26180 C 2427.36 3.44086 -4.58685 0
M  V30 26181 N 2426.86 4.04007 -5.62806 0
M  V30 26182 N 2428.65 3.41785 -4.46251 0
M  V30 26183 H 2420.8 0.343846 -2.09598 0
M  V30 26184 H 2423.06 0.214832 -0.923337 0
M  V30 26185 H 2422.77 1.36181 -3.24265 0
M  V30 26186 H 2422.64 2.90145 -2.4103 0
M  V30 26187 H 2425.03 2.5518 -1.48213 0
M  V30 26188 H 2425.11 1.01166 -2.34945 0
M  V30 26189 H 2424.76 2.25755 -4.54969 0
M  V30 26190 H 2424.69 3.79444 -3.65144 0
M  V30 26191 H 2427.18 2.42756 -2.89617 0
M  V30 26192 H 2427.49 4.46884 -6.30488 0
M  V30 26193 H 2425.84 4.02462 -5.66612 0
M  V30 26194 H 2429.03 2.94193 -3.64099 0
M  V30 26195 H 2429.2 3.87295 -5.19525 0
M  V30 26196 N 2422.61 1.1209 1.10786 0
M  V30 26197 C 2423.83 0.896684 1.8646 0
M  V30 26198 C 2424.25 -0.55388 1.80493 0
M  V30 26199 O 2423.61 -1.38276 1.19105 0
M  V30 26200 C 2423.66 1.35849 3.35004 0
M  V30 26201 O 2423.38 2.75219 3.40861 0
M  V30 26202 C 2424.88 1.17067 4.27563 0
M  V30 26203 H 2422.1 0.320664 0.58942 0
M  V30 26204 H 2424.64 1.48995 1.40074 0
M  V30 26205 H 2422.8 0.808525 3.78869 0
M  V30 26206 H 2423.21 2.95397 4.33406 0
M  V30 26207 H 2424.69 1.54272 5.30004 0
M  V30 26208 H 2425.16 0.110891 4.3906 0
M  V30 26209 H 2425.77 1.70796 3.89498 0
M  V30 26210 N 2424.08 -1.28513 0.912254 0
M  V30 26211 C 2425.33 -1.95038 0.544633 0
M  V30 26212 C 2425.66 -1.71824 -0.911405 0
M  V30 26213 O 2424.91 -1.0314 -1.66315 0
M  V30 26214 C 2425.21 -3.48367 0.798453 0
M  V30 26215 C 2424.88 -3.91678 2.23381 0
M  V30 26216 C 2423.54 -4.03214 2.62624 0
M  V30 26217 C 2425.89 -4.13873 3.16794 0
M  V30 26218 C 2423.22 -4.34323 3.94437 0
M  V30 26219 C 2425.57 -4.46461 4.48169 0
M  V30 26220 C 2424.24 -4.56208 4.87268 0
M  V30 26221 H 2423.51 -0.713696 0.199295 0
M  V30 26222 H 2426.15 -1.52877 1.15329 0
M  V30 26223 H 2424.46 -3.91654 0.106977 0
M  V30 26224 H 2426.16 -3.97955 0.493211 0
M  V30 26225 H 2422.75 -3.83225 1.91929 0
M  V30 26226 H 2426.93 -4.04415 2.87684 0
M  V30 26227 H 2422.19 -4.40075 4.24434 0
M  V30 26228 H 2426.36 -4.62583 5.20567 0
M  V30 26229 H 2423.99 -4.80068 5.89439 0
M  V30 26230 N 2425.56 -0.676073 -1.42362 0
M  V30 26231 C 2426.49 -0.0125243 -2.33497 0
M  V30 26232 C 2427.47 0.787954 -1.50749 0
M  V30 26233 O 2428.66 0.744852 -1.79348 0
M  V30 26234 C 2425.79 0.938523 -3.34379 0
M  V30 26235 C 2424.74 0.246547 -4.27289 0
M  V30 26236 C 2424.07 1.31062 -5.18389 0
M  V30 26237 C 2425.37 -0.875215 -5.14915 0
M  V30 26238 H 2427.06 -0.773644 -2.89232 0
M  V30 26239 H 2424.61 -0.373484 -1.39072 0
M  V30 26240 H 2426.56 1.41181 -3.97046 0
M  V30 26241 H 2425.29 1.73108 -2.7695 0
M  V30 26242 H 2423.94 -0.20652 -3.66018 0
M  V30 26243 H 2423.59 2.0952 -4.57286 0
M  V30 26244 H 2423.29 0.852737 -5.8138 0
M  V30 26245 H 2424.82 1.78481 -5.83932 0
M  V30 26246 H 2426.23 -0.483084 -5.71261 0
M  V30 26247 H 2424.63 -1.25897 -5.86745 0
M  V30 26248 H 2425.7 -1.72343 -4.53239 0
M  V30 26249 N 2427.04 1.51915 -0.419488 0
M  V30 26250 C 2427.97 2.25007 0.43642 0
M  V30 26251 C 2428.99 1.28353 1.00147 0
M  V30 26252 O 2430.17 1.54229 0.898647 0
M  V30 26253 C 2427.27 2.97643 1.62055 0
M  V30 26254 C 2426.45 4.21251 1.17756 0
M  V30 26255 C 2425.51 4.76621 2.22977 0
M  V30 26256 O 2424.53 5.38932 1.83142 0
M  V30 26257 N 2425.73 4.59095 3.55263 0
M  V30 26258 H 2428.5 2.99097 -0.189943 0
M  V30 26259 H 2426.06 1.59998 -0.247414 0
M  V30 26260 H 2428.05 3.31577 2.32032 0
M  V30 26261 H 2426.62 2.26674 2.15262 0
M  V30 26262 H 2425.84 3.93014 0.305513 0
M  V30 26263 H 2427.13 5.01502 0.858693 0
M  V30 26264 H 2426.53 4.09423 3.9037 0
M  V30 26265 H 2425.09 4.97439 4.21186 0
M  V30 26266 N 2428.52 0.150242 1.56882 0
M  V30 26267 C 2429.48 -0.774119 2.15731 0
M  V30 26268 C 2430.48 -1.17296 1.09992 0
M  V30 26269 O 2431.67 -1.09336 1.35615 0
M  V30 26270 C 2428.8 -2.05091 2.72306 0
M  V30 26271 H 2430 -0.262148 2.98752 0
M  V30 26272 H 2427.55 -0.0992206 1.55985 0
M  V30 26273 H 2428.28 -2.60647 1.9296 0
M  V30 26274 H 2428.07 -1.7741 3.49668 0
M  V30 26275 H 2429.56 -2.71103 3.17636 0
M  V30 26276 N 2430 -1.57115 -0.123538 0
M  V30 26277 C 2430.93 -2.03044 -1.15305 0
M  V30 26278 C 2431.91 -0.914086 -1.43452 0
M  V30 26279 O 2433.09 -1.18349 -1.53971 0
M  V30 26280 C 2430.22 -2.43093 -2.48038 0
M  V30 26281 C 2429.18 -3.58131 -2.34363 0
M  V30 26282 C 2428.5 -3.84065 -3.72019 0
M  V30 26283 C 2429.8 -4.9001 -1.80796 0
M  V30 26284 H 2431.5 -2.89301 -0.771051 0
M  V30 26285 H 2429.04 -1.3918 -0.369455 0
M  V30 26286 H 2431 -2.73828 -3.20306 0
M  V30 26287 H 2429.72 -1.53801 -2.88119 0
M  V30 26288 H 2428.38 -3.27598 -1.64545 0
M  V30 26289 H 2428.03 -2.91986 -4.09577 0
M  V30 26290 H 2427.73 -4.61496 -3.63724 0
M  V30 26291 H 2429.25 -4.17248 -4.45799 0
M  V30 26292 H 2430.66 -5.19311 -2.42877 0
M  V30 26293 H 2429.06 -5.7141 -1.83333 0
M  V30 26294 H 2430.13 -4.78824 -0.765196 0
M  V30 26295 N 2431.47 0.393589 -1.52606 0
M  V30 26296 C 2432.41 1.50199 -1.71801 0
M  V30 26297 C 2433.39 1.5244 -0.565769 0
M  V30 26298 O 2434.57 1.70914 -0.795017 0
M  V30 26299 C 2431.7 2.88682 -1.77145 0
M  V30 26300 C 2430.74 3.04287 -2.98851 0
M  V30 26301 S 2431.58 2.75968 -4.58914 0
M  V30 26302 C 2432.73 4.16652 -4.67067 0
M  V30 26303 H 2432.96 1.33691 -2.65545 0
M  V30 26304 H 2430.5 0.58617 -1.42841 0
M  V30 26305 H 2432.46 3.68486 -1.8091 0
M  V30 26306 H 2431.12 3.0252 -0.845022 0
M  V30 26307 H 2430.31 4.05641 -2.99118 0
M  V30 26308 H 2429.91 2.32369 -2.93054 0
M  V30 26309 H 2432.2 5.10515 -4.454 0
M  V30 26310 H 2433.15 4.21402 -5.69057 0
M  V30 26311 H 2433.55 4.02347 -3.95951 0
M  V30 26312 N 2432.95 1.43492 0.651762 0
M  V30 26313 C 2433.88 1.51572 1.77618 0
M  V30 26314 C 2434.86 0.370282 1.66021 0
M  V30 26315 O 2436.05 0.587691 1.85094 0
M  V30 26316 C 2433.18 1.43971 3.16053 0
M  V30 26317 C 2432.13 2.5678 3.42415 0
M  V30 26318 C 2431.46 2.34232 4.80666 0
M  V30 26319 C 2432.76 3.99021 3.37016 0
M  V30 26320 H 2434.45 2.45684 1.71113 0
M  V30 26321 H 2432 1.18247 0.821804 0
M  V30 26322 H 2433.95 1.48228 3.9447 0
M  V30 26323 H 2432.68 0.463643 3.23292 0
M  V30 26324 H 2431.33 2.51878 2.6637 0
M  V30 26325 H 2430.98 1.34865 4.84583 0
M  V30 26326 H 2430.68 3.09852 4.99265 0
M  V30 26327 H 2432.21 2.40275 5.61338 0
M  V30 26328 H 2433.62 4.05402 4.05367 0
M  V30 26329 H 2432.02 4.74679 3.67151 0
M  V30 26330 H 2433.09 4.24054 2.35173 0
M  V30 26331 N 2434.43 -0.890264 1.30046 0
M  V30 26332 C 2435.36 -2.0117 1.18545 0
M  V30 26333 C 2436.34 -1.69924 0.0773655 0
M  V30 26334 O 2437.53 -1.92472 0.258484 0
M  V30 26335 C 2434.66 -3.36201 0.871 0
M  V30 26336 C 2433.61 -3.81688 1.93644 0
M  V30 26337 C 2432.94 -5.1395 1.47509 0
M  V30 26338 C 2434.24 -4.00988 3.34673 0
M  V30 26339 H 2435.93 -2.1105 2.12363 0
M  V30 26340 H 2433.48 -1.01405 1.0224 0
M  V30 26341 H 2435.43 -4.14171 0.777214 0
M  V30 26342 H 2434.15 -3.26438 -0.102868 0
M  V30 26343 H 2432.81 -3.05943 2.01977 0
M  V30 26344 H 2432.46 -5.00611 0.489639 0
M  V30 26345 H 2432.16 -5.45356 2.1877 0
M  V30 26346 H 2433.68 -5.94451 1.39499 0
M  V30 26347 H 2435.1 -4.69412 3.29128 0
M  V30 26348 H 2433.5 -4.43762 4.03974 0
M  V30 26349 H 2434.57 -3.05014 3.76954 0
M  V30 26350 N 2435.91 -1.12676 -1.1019 0
M  V30 26351 C 2437.16 -0.883638 -1.82203 0
M  V30 26352 C 2437.48 0.590459 -1.85321 0
M  V30 26353 O 2436.74 1.45261 -1.3114 0
M  V30 26354 C 2437.04 -1.40676 -3.2855 0
M  V30 26355 C 2436.7 -2.89633 -3.45577 0
M  V30 26356 C 2435.37 -3.30305 -3.49931 0
M  V30 26357 C 2437.72 -3.85507 -3.50762 0
M  V30 26358 C 2435.05 -4.65552 -3.57041 0
M  V30 26359 C 2437.4 -5.20587 -3.59404 0
M  V30 26360 C 2436.06 -5.60798 -3.62024 0
M  V30 26361 H 2435.33 -0.323346 -0.66673 0
M  V30 26362 H 2437.98 -1.40738 -1.29866 0
M  V30 26363 H 2436.28 -0.803538 -3.83472 0
M  V30 26364 H 2437.98 -1.19482 -3.82786 0
M  V30 26365 H 2434.57 -2.57178 -3.42866 0
M  V30 26366 H 2438.75 -3.55177 -3.46645 0
M  V30 26367 H 2434.01 -4.96094 -3.57353 0
M  V30 26368 H 2438.18 -5.947 -3.62361 0
M  V30 26369 H 2435.81 -6.65586 -3.67286 0
M  V30 26370 N 2437.39 1.28028 -0.919057 0
M  V30 26371 C 2438.8 1.47149 -0.617998 0
M  V30 26372 C 2439 1.83375 0.83521 0
M  V30 26373 O 2438.06 1.94194 1.61385 0
M  V30 26374 C 2439.37 2.57042 -1.56045 0
M  V30 26375 C 2440.92 2.70907 -1.56774 0
M  V30 26376 C 2441.39 3.83948 -2.49695 0
M  V30 26377 N 2442.89 3.9131 -2.47852 0
M  V30 26378 C 2443.62 4.78174 -3.16445 0
M  V30 26379 N 2443.12 5.69589 -3.94386 0
M  V30 26380 N 2444.91 4.71829 -3.05506 0
M  V30 26381 H 2437.06 1.02795 -1.85868 0
M  V30 26382 H 2439.32 0.512517 -0.797515 0
M  V30 26383 H 2439.03 2.37195 -2.59675 0
M  V30 26384 H 2438.9 3.54252 -1.29557 0
M  V30 26385 H 2441.29 2.9014 -0.538796 0
M  V30 26386 H 2441.37 1.74211 -1.87308 0
M  V30 26387 H 2441.02 3.65471 -3.52695 0
M  V30 26388 H 2440.95 4.80054 -2.16461 0
M  V30 26389 H 2443.44 3.25938 -1.9124 0
M  V30 26390 H 2443.75 6.3271 -4.43732 0
M  V30 26391 H 2442.09 5.69412 -3.98491 0
M  V30 26392 H 2445.29 3.99406 -2.44115 0
M  V30 26393 H 2445.46 5.39309 -3.59234 0
M  V30 26394 N 2438.86 0.683613 1.42002 0
M  V30 26395 C 2440.09 0.216683 2.06265 0
M  V30 26396 C 2440.51 -1.12081 1.51061 0
M  V30 26397 O 2439.87 -1.69903 0.632668 0
M  V30 26398 C 2439.92 0.171822 3.6019 0
M  V30 26399 O 2439.02 -0.856998 4.03397 0
M  V30 26400 H 2438.37 0.108845 0.655018 0
M  V30 26401 H 2440.9 0.935109 1.8198 0
M  V30 26402 H 2440.91 -0.00135858 4.08 0
M  V30 26403 H 2439.58 1.14803 3.99741 0
M  V30 26404 H 2438.16 -0.654143 3.67118 0
M  V30 26405 N 2440.34 -1.5169 0.427538 0
M  V30 26406 C 2441.31 -2.26077 -0.377092 0
M  V30 26407 C 2442.31 -1.29142 -0.958066 0
M  V30 26408 O 2443.5 -1.52935 -0.834053 0
M  V30 26409 C 2440.63 -3.04508 -1.53256 0
M  V30 26410 H 2441.82 -2.98639 0.274693 0
M  V30 26411 H 2439.37 -1.55255 0.180472 0
M  V30 26412 H 2440.11 -2.36339 -2.22068 0
M  V30 26413 H 2439.89 -3.75696 -1.12226 0
M  V30 26414 H 2441.38 -3.60882 -2.10129 0
M  V30 26415 N 2441.82 -0.15856 -1.568 0
M  V30 26416 C 2443.05 0.496268 -2.0086 0
M  V30 26417 C 2443.46 1.57657 -1.03873 0
M  V30 26418 O 2442.82 1.82461 -0.0375485 0
M  V30 26419 C 2442.87 1.08632 -3.44792 0
M  V30 26420 O 2442.59 0.0491552 -4.38072 0
M  V30 26421 C 2444.09 1.82063 -4.04188 0
M  V30 26422 H 2441.31 0.128187 -0.658642 0
M  V30 26423 H 2443.86 -0.256542 -2.02884 0
M  V30 26424 H 2442.01 1.78969 -3.43582 0
M  V30 26425 H 2442.43 0.48301 -5.22271 0
M  V30 26426 H 2443.9 2.18624 -5.0686 0
M  V30 26427 H 2444.38 2.71089 -3.45554 0
M  V30 26428 H 2444.98 1.16397 -4.09062 0
M  V30 26429 N 2443.3 1.57178 0.115204 0
M  V30 26430 C 2444.55 1.84686 0.820694 0
M  V30 26431 C 2444.87 0.74431 1.80236 0
M  V30 26432 O 2444.14 -0.231341 1.94529 0
M  V30 26433 H 2442.72 0.681417 0.306072 0
M  V30 26434 H 2445.38 1.94635 0.101622 0
M  V30 26435 H 2444.48 2.80735 1.36361 0
M  V30 26436 N 2444.78 -0.38549 1.52813 0
M  V30 26437 C 2445.69 -1.49532 1.80769 0
M  V30 26438 C 2446.7 -1.59531 0.694679 0
M  V30 26439 O 2447.88 -1.75801 0.982642 0
M  V30 26440 C 2444.94 -2.85026 1.97386 0
M  V30 26441 C 2444.01 -2.84719 3.213 0
M  V30 26442 C 2443.24 -4.1375 3.37115 0
M  V30 26443 O 2443.46 -5.08889 2.57659 0
M  V30 26444 O 2442.4 -4.20775 4.30386 0
M  V30 26445 H 2446.22 -1.28838 2.75017 0
M  V30 26446 H 2443.81 -0.573673 1.37947 0
M  V30 26447 H 2445.69 -3.65345 2.10003 0
M  V30 26448 H 2444.36 -3.05739 1.06327 0
M  V30 26449 H 2443.27 -2.03168 3.14123 0
M  V30 26450 H 2444.6 -2.68958 4.12217 0
M  V30 26451 N 2446.26 -1.43835 -0.644143 0
M  V30 26452 C 2447.22 -1.49356 -1.73855 0
M  V30 26453 C 2448.22 -0.37714 -1.56315 0
M  V30 26454 O 2449.41 -0.639254 -1.62047 0
M  V30 26455 C 2446.54 -1.35493 -3.12817 0
M  V30 26456 H 2447.73 -2.4683 -1.70338 0
M  V30 26457 H 2445.29 -1.30735 -0.856629 0
M  V30 26458 H 2446.02 -0.390625 -3.21939 0
M  V30 26459 H 2445.81 -2.16434 -3.26954 0
M  V30 26460 H 2447.3 -1.42309 -3.92604 0
M  V30 26461 N 2447.73 0.883355 -1.30517 0
M  V30 26462 C 2448.98 1.63776 -1.2062 0
M  V30 26463 C 2449.33 1.90942 0.236435 0
M  V30 26464 O 2448.63 1.52041 1.16593 0
M  V30 26465 C 2448.82 2.98205 -1.96999 0
M  V30 26466 C 2448.65 2.84163 -3.48542 0
M  V30 26467 C 2447.42 2.84059 -4.17898 0
M  V30 26468 C 2449.62 2.59994 -4.43743 0
M  V30 26469 N 2447.6 2.60926 -5.5569 0
M  V30 26470 C 2448.97 2.45997 -5.69109 0
M  V30 26471 C 2451.03 2.45231 -4.3332 0
M  V30 26472 C 2449.73 2.1874 -6.85234 0
M  V30 26473 C 2451.76 2.1936 -5.49213 0
M  V30 26474 C 2451.12 2.06141 -6.73562 0
M  V30 26475 H 2447.22 0.604207 -0.496445 0
M  V30 26476 H 2449.8 1.0408 -1.64546 0
M  V30 26477 H 2447.97 3.5593 -1.55461 0
M  V30 26478 H 2449.7 3.62848 -1.79231 0
M  V30 26479 H 2446.46 2.9595 -3.69744 0
M  V30 26480 H 2446.88 2.52367 -6.28204 0
M  V30 26481 H 2451.52 2.54185 -3.37861 0
M  V30 26482 H 2449.24 2.08524 -7.80733 0
M  V30 26483 H 2452.83 2.08757 -5.43058 0
M  V30 26484 H 2451.71 1.86403 -7.61724 0
M  V30 26485 N 2449.21 1.13259 1.09591 0
M  V30 26486 C 2450.16 0.777217 2.14344 0
M  V30 26487 C 2451.15 -0.227938 1.59277 0
M  V30 26488 O 2452.34 -0.0321102 1.76971 0
M  V30 26489 C 2449.47 0.243051 3.42439 0
M  V30 26490 C 2448.55 1.27701 4.04417 0
M  V30 26491 N 2448.94 2.4774 4.40975 0
M  V30 26492 C 2447.24 1.1244 4.31594 0
M  V30 26493 C 2447.94 3.13834 4.89778 0
M  V30 26494 N 2446.92 2.41261 4.87128 0
M  V30 26495 H 2450.72 1.69053 2.40412 0
M  V30 26496 H 2448.23 1.01465 1.26801 0
M  V30 26497 H 2450.23 -0.0297763 4.16889 0
M  V30 26498 H 2448.89 -0.664614 3.17825 0
M  V30 26499 H 2449.9 2.85058 4.32391 0
M  V30 26500 H 2446.58 0.274757 4.16595 0
M  V30 26501 H 2447.97 4.16111 5.27542 0
M  V30 26502 N 2450.69 -1.27539 0.925834 0
M  V30 26503 C 2451.6 -2.30644 0.429034 0
M  V30 26504 C 2452.62 -1.66977 -0.489358 0
M  V30 26505 O 2453.79 -1.97923 -0.372618 0
M  V30 26506 C 2450.86 -3.45294 -0.311906 0
M  V30 26507 C 2449.92 -4.24485 0.641173 0
M  V30 26508 C 2449.15 -5.33661 -0.0645016 0
M  V30 26509 O 2449.37 -5.55756 -1.28419 0
M  V30 26510 O 2448.31 -5.98838 0.606371 0
M  V30 26511 H 2452.13 -2.75171 1.28509 0
M  V30 26512 H 2449.72 -1.32454 0.691109 0
M  V30 26513 H 2451.6 -4.15031 -0.729899 0
M  V30 26514 H 2450.28 -3.02826 -1.1436 0
M  V30 26515 H 2449.18 -3.5729 1.10881 0
M  V30 26516 H 2450.52 -4.70663 1.44003 0
M  V30 26517 N 2452.17 -0.691135 -1.41637 0
M  V30 26518 C 2453.42 -0.217353 -2.00525 0
M  V30 26519 C 2453.73 1.18846 -1.55355 0
M  V30 26520 O 2454.94 1.75947 -2.06772 0
M  V30 26521 C 2453.39 -0.337702 -3.58312 0
M  V30 26522 C 2453 -1.7486 -4.12466 0
M  V30 26523 C 2454.74 0.076532 -4.24431 0
M  V30 26524 C 2452.65 -1.82084 -5.62672 0
M  V30 26525 H 2451.58 -0.0775025 -0.750006 0
M  V30 26526 H 2454.23 -0.858689 -1.62169 0
M  V30 26527 H 2452.61 0.371809 -3.94251 0
M  V30 26528 H 2453.79 -2.48651 -3.87955 0
M  V30 26529 H 2452.1 -2.11212 -3.58857 0
M  V30 26530 H 2454.7 0.0429344 -5.34683 0
M  V30 26531 H 2455.04 1.11453 -4.01103 0
M  V30 26532 H 2455.58 -0.582545 -3.93511 0
M  V30 26533 H 2452.31 -2.83921 -5.90821 0
M  V30 26534 H 2451.83 -1.12671 -5.89122 0
M  V30 26535 H 2453.51 -1.5817 -6.27368 0
M  V30 26536 N 2453.65 1.51461 -0.435577 0
M  V30 26537 C 2454.58 2.24265 0.421949 0
M  V30 26538 C 2455.56 1.26129 1.02617 0
M  V30 26539 O 2456.74 1.55259 1.06897 0
M  V30 26540 C 2453.87 2.99169 1.58795 0
M  V30 26541 C 2452.91 4.11948 1.10458 0
M  V30 26542 S 2453.75 5.35478 0.0480519 0
M  V30 26543 C 2454.9 6.13919 1.21876 0
M  V30 26544 H 2455.14 2.96652 -0.196155 0
M  V30 26545 H 2452.67 1.52823 -0.220081 0
M  V30 26546 H 2454.63 3.42923 2.25641 0
M  V30 26547 H 2453.29 2.26374 2.17746 0
M  V30 26548 H 2452.48 4.63629 1.97646 0
M  V30 26549 H 2452.08 3.70446 0.514385 0
M  V30 26550 H 2454.37 6.42899 2.13745 0
M  V30 26551 H 2455.32 7.04202 0.741952 0
M  V30 26552 H 2455.73 5.45386 1.45653 0
M  V30 26553 N 2455.12 0.166873 1.56714 0
M  V30 26554 C 2456.05 -0.760874 2.20755 0
M  V30 26555 C 2457.04 -1.24242 1.1618 0
M  V30 26556 O 2458.22 -1.29639 1.44594 0
M  V30 26557 C 2455.35 -1.99218 2.84481 0
M  V30 26558 C 2454.3 -1.64665 3.95056 0
M  V30 26559 C 2453.63 -2.95224 4.4581 0
M  V30 26560 C 2454.93 -0.878064 5.14866 0
M  V30 26561 H 2456.62 -0.227077 2.98538 0
M  V30 26562 H 2454.17 -0.10778 1.43596 0
M  V30 26563 H 2456.12 -2.64618 3.27956 0
M  V30 26564 H 2454.85 -2.55004 2.04061 0
M  V30 26565 H 2453.51 -1.01635 3.5223 0
M  V30 26566 H 2453.15 -3.49041 3.62187 0
M  V30 26567 H 2452.85 -2.72861 5.20404 0
M  V30 26568 H 2454.38 -3.61662 4.91969 0
M  V30 26569 H 2455.79 -1.43456 5.55061 0
M  V30 26570 H 2454.19 -0.753633 5.95349 0
M  V30 26571 H 2455.26 0.126462 4.84735 0
M  V30 26572 N 2456.6 -1.57237 -0.106866 0
M  V30 26573 C 2457.83 -1.90057 -0.830254 0
M  V30 26574 C 2458.25 -0.76001 -1.72062 0
M  V30 26575 O 2457.61 0.288959 -1.78982 0
M  V30 26576 C 2457.66 -3.21685 -1.62944 0
M  V30 26577 O 2456.76 -3.08446 -2.73743 0
M  V30 26578 H 2456.1 -0.623319 -0.228844 0
M  V30 26579 H 2458.63 -2.04421 -0.0856221 0
M  V30 26580 H 2458.64 -3.54705 -2.01615 0
M  V30 26581 H 2457.32 -4.04288 -0.975918 0
M  V30 26582 H 2455.9 -2.86917 -2.38186 0
M  V30 26583 N 2458.08 0.377381 -1.53015 0
M  V30 26584 C 2459.32 1.13007 -1.7032 0
M  V30 26585 C 2459.68 1.869 -0.439571 0
M  V30 26586 O 2460.89 2.64312 -0.489142 0
M  V30 26587 C 2459.16 2.07314 -2.91128 0
M  V30 26588 S 2460.72 2.90262 -3.2908 0
M  V30 26589 H 2457.53 0.382363 -0.599433 0
M  V30 26590 H 2460.14 0.4129 -1.9109 0
M  V30 26591 H 2458.84 1.5177 -3.81306 0
M  V30 26592 H 2458.37 2.83521 -2.72725 0
M  V30 26593 H 2460.39 4.09534 -2.80172 0
M  V30 26594 N 2459.56 1.44175 0.636506 0
M  V30 26595 C 2460.49 1.53447 1.76 0
M  V30 26596 C 2461.47 0.38787 1.65619 0
M  V30 26597 O 2462.65 0.607289 1.8446 0
M  V30 26598 C 2459.78 1.47315 3.14508 0
M  V30 26599 C 2458.74 2.60397 3.39673 0
M  V30 26600 C 2458.06 2.39317 4.78154 0
M  V30 26601 C 2459.36 4.02573 3.32765 0
M  V30 26602 H 2461.06 2.47486 1.68497 0
M  V30 26603 H 2458.6 1.19112 0.809216 0
M  V30 26604 H 2460.56 1.52404 3.92875 0
M  V30 26605 H 2459.28 0.497906 3.22782 0
M  V30 26606 H 2457.94 2.54689 2.63684 0
M  V30 26607 H 2457.59 1.39997 4.83125 0
M  V30 26608 H 2457.29 3.1513 4.9595 0
M  V30 26609 H 2458.81 2.46215 5.58758 0
M  V30 26610 H 2460.23 4.09679 4.01044 0
M  V30 26611 H 2458.62 4.78547 3.62096 0
M  V30 26612 H 2459.69 4.26524 2.30662 0
M  V30 26613 N 2461.04 -0.876421 1.30983 0
M  V30 26614 C 2462.26 -1.66713 1.23376 0
M  V30 26615 C 2462.69 -1.87046 -0.198817 0
M  V30 26616 O 2462.04 -1.40758 -1.14267 0
M  V30 26617 C 2462.09 -3.01608 1.97649 0
M  V30 26618 O 2461.2 -3.9106 1.30942 0
M  V30 26619 H 2460.54 -0.509092 0.426288 0
M  V30 26620 H 2463.07 -1.0932 1.72946 0
M  V30 26621 H 2463.08 -3.5159 2.06998 0
M  V30 26622 H 2461.75 -2.86128 3.01834 0
M  V30 26623 H 2460.33 -3.49505 1.30003 0
M  V30 26624 N 2462.51 -1.13839 -1.08989 0
M  V30 26625 C 2463.46 -0.815385 -2.1784 0
M  V30 26626 C 2464.46 0.204204 -1.68165 0
M  V30 26627 O 2465.66 0.0608988 -1.79897 0
M  V30 26628 H 2462.04 -0.245928 -0.71065 0
M  V30 26629 H 2464.01 -1.74148 -2.42312 0
M  V30 26630 C 2462.76 -0.302675 -3.4638 0
M  V30 26631 H 2462.08 -1.07857 -3.84977 0
M  V30 26632 H 2463.52 -0.115148 -4.23844 0
M  V30 26633 C 2461.98 0.972535 -3.22558 0
M  V30 26634 O 2462.51 2.04748 -3.45603 0
M  V30 26635 N 2460.72 0.905407 -2.76135 0
M  V30 26636 H 2460.26 0.0304968 -2.57582 0
M  V30 26637 H 2460.22 1.75922 -2.60574 0
M  V30 26638 N 2463.99 1.27046 -0.932584 0
M  V30 26639 C 2464.92 2.25809 -0.392774 0
M  V30 26640 C 2465.94 1.55587 0.479213 0
M  V30 26641 O 2467.13 1.76111 0.291047 0
M  V30 26642 C 2464.23 3.35826 0.455397 0
M  V30 26643 C 2463.4 4.35582 -0.398431 0
M  V30 26644 C 2462.46 5.24768 0.387893 0
M  V30 26645 O 2461.48 5.68827 -0.206103 0
M  V30 26646 N 2462.69 5.5546 1.68654 0
M  V30 26647 H 2465.45 2.72764 -1.24178 0
M  V30 26648 H 2463.01 1.40723 -0.800536 0
M  V30 26649 H 2465 3.92439 0.988623 0
M  V30 26650 H 2463.57 2.88434 1.20517 0
M  V30 26651 H 2462.79 3.78163 -1.11293 0
M  V30 26652 H 2464.08 4.99234 -0.981977 0
M  V30 26653 H 2463.48 5.21531 2.19138 0
M  V30 26654 H 2462.04 6.14752 2.16619 0
M  V30 26655 N 2465.47 0.698636 1.41269 0
M  V30 26656 C 2466.43 0.0441722 2.29157 0
M  V30 26657 C 2467.43 -0.704815 1.4453 0
M  V30 26658 O 2468.62 -0.539247 1.65643 0
M  V30 26659 C 2465.76 -0.947751 3.27461 0
M  V30 26660 H 2466.95 0.818044 2.88527 0
M  V30 26661 H 2464.5 0.462307 1.49306 0
M  V30 26662 H 2465.24 -1.74928 2.73076 0
M  V30 26663 H 2465.02 -0.413782 3.89911 0
M  V30 26664 H 2466.51 -1.40337 3.93313 0
M  V30 26665 N 2466.95 -1.51228 0.443603 0
M  V30 26666 C 2468.19 -2.04048 -0.119853 0
M  V30 26667 C 2468.55 -1.32012 -1.39416 0
M  V30 26668 O 2469.75 -1.75239 -2.03826 0
M  V30 26669 C 2468.02 -3.55899 -0.32717 0
M  V30 26670 S 2469.58 -4.30427 -0.853132 0
M  V30 26671 H 2466.4 -0.710412 -0.0289085 0
M  V30 26672 H 2469 -1.85921 0.604445 0
M  V30 26673 H 2467.71 -4.05894 0.606516 0
M  V30 26674 H 2467.24 -3.78331 -1.07837 0
M  V30 26675 H 2469.25 -4.48159 -2.12997 0
M  V30 26676 N 2468.43 -0.175182 -1.56623 0
M  V30 26677 C 2469.7 0.51534 -1.88689 0
M  V30 26678 C 2470.08 1.81042 -1.08567 0
M  V30 26679 O 2469.43 2.27784 -0.180743 0
M  V30 26680 C 2469.64 0.753492 -3.40769 0
M  V30 26681 C 2470.99 1.08177 -4.10588 0
M  V30 26682 O 2472.01 0.8419 -3.46108 0
M  V30 26683 O 2470.87 1.5345 -5.24514 0
M  V30 26684 H 2467.97 0.266116 -0.783014 0
M  V30 26685 H 2470.51 -0.213907 -1.68346 0
M  V30 26686 H 2469.28 -0.161898 -3.90965 0
M  V30 26687 H 2468.91 1.53592 -3.66736 0
M  V30 26688 N 2469.91 1.57292 0.0985263 0
M  V30 26689 C 2470.82 2.05139 1.13821 0
M  V30 26690 C 2471.83 0.975629 1.44075 0
M  V30 26691 O 2473.01 1.28856 1.54784 0
M  V30 26692 C 2470.07 2.46338 2.43964 0
M  V30 26693 C 2469.13 3.68091 2.20924 0
M  V30 26694 C 2468.37 4.07316 3.44862 0
M  V30 26695 O 2468.59 3.46667 4.52966 0
M  V30 26696 O 2467.52 5.00291 3.34652 0
M  V30 26697 H 2471.35 2.9399 0.761829 0
M  V30 26698 H 2468.93 1.46132 0.310792 0
M  V30 26699 H 2470.82 2.73479 3.20605 0
M  V30 26700 H 2469.49 1.60626 2.81035 0
M  V30 26701 H 2468.4 3.46071 1.42075 0
M  V30 26702 H 2469.73 4.54572 1.88747 0
M  V30 26703 N 2471.38 -0.369261 1.53213 0
M  V30 26704 C 2472.32 -1.47216 1.7567 0
M  V30 26705 C 2473.33 -1.49803 0.637413 0
M  V30 26706 O 2474.52 -1.53349 0.913588 0
M  V30 26707 C 2471.62 -2.85996 1.81823 0
M  V30 26708 C 2470.79 -3.07148 3.11414 0
M  V30 26709 C 2469.85 -4.26021 3.08857 0
M  V30 26710 O 2468.88 -4.21373 3.82666 0
M  V30 26711 N 2470.08 -5.33242 2.29419 0
M  V30 26712 H 2472.84 -1.28332 2.70834 0
M  V30 26713 H 2470.4 -0.558954 1.51945 0
M  V30 26714 H 2472.4 -3.63651 1.77594 0
M  V30 26715 H 2470.97 -2.98145 0.939597 0
M  V30 26716 H 2470.19 -2.17184 3.28975 0
M  V30 26717 H 2471.47 -3.18147 3.97064 0
M  V30 26718 H 2470.87 -5.3988 1.68956 0
M  V30 26719 H 2469.43 -6.09489 2.31012 0
M  V30 26720 N 2472.86 -1.4451 -0.628851 0
M  V30 26721 C 2473.82 -1.51192 -1.72261 0
M  V30 26722 C 2474.82 -0.393698 -1.55906 0
M  V30 26723 O 2476.01 -0.656405 -1.6136 0
M  V30 26724 C 2473.15 -1.38804 -3.11362 0
M  V30 26725 H 2474.34 -2.48623 -1.6771 0
M  V30 26726 H 2471.89 -1.31636 -0.842714 0
M  V30 26727 H 2472.63 -0.424749 -3.21506 0
M  V30 26728 H 2472.41 -2.1989 -3.2464 0
M  V30 26729 H 2473.9 -1.46465 -3.91072 0
M  V30 26730 N 2474.34 0.869463 -1.31446 0
M  V30 26731 C 2475.29 1.99812 -1.1907 0
M  V30 26732 C 2476.28 1.69111 -0.0988866 0
M  V30 26733 O 2477.49 1.781 -0.260813 0
M  V30 26734 H 2473.86 0.655418 -0.368688 0
M  V30 26735 H 2475.83 2.07381 -2.14559 0
M  V30 26736 C 2474.58 3.35434 -0.915382 0
M  V30 26737 H 2473.91 3.59579 -1.74766 0
M  V30 26738 H 2475.35 4.15 -0.868968 0
M  V30 26739 C 2473.8 3.34729 0.38187 0
M  V30 26740 O 2474.33 3.7657 1.3985 0
M  V30 26741 N 2472.54 2.87854 0.398582 0
M  V30 26742 H 2472.09 2.53999 -0.429231 0
M  V30 26743 H 2472.05 2.87764 1.26646 0
M  V30 26744 N 2475.82 1.14415 1.08383 0
M  V30 26745 C 2476.78 0.834086 2.13485 0
M  V30 26746 C 2477.78 -0.161389 1.59988 0
M  V30 26747 O 2478.97 0.0669881 1.74071 0
M  V30 26748 C 2476.1 0.243414 3.4003 0
M  V30 26749 H 2477.3 1.76555 2.42422 0
M  V30 26750 H 2474.85 0.950211 1.24099 0
M  V30 26751 H 2475.58 -0.696751 3.16727 0
M  V30 26752 H 2475.37 0.960434 3.80155 0
M  V30 26753 H 2476.86 0.0436976 4.17577 0
M  V30 26754 N 2477.3 -1.26549 0.939309 0
M  V30 26755 C 2478.52 -1.97931 0.602571 0
M  V30 26756 C 2478.94 -1.69965 -0.82203 0
M  V30 26757 O 2478.3 -0.966811 -1.54787 0
M  V30 26758 C 2478.35 -3.51772 0.833008 0
M  V30 26759 O 2478.07 -3.78764 2.20158 0
M  V30 26760 C 2479.57 -4.40396 0.50656 0
M  V30 26761 H 2476.79 -0.631343 0.227259 0
M  V30 26762 H 2479.33 -1.61111 1.2595 0
M  V30 26763 H 2477.49 -3.86759 0.222712 0
M  V30 26764 H 2477.9 -4.73302 2.26022 0
M  V30 26765 H 2479.38 -5.47305 0.718429 0
M  V30 26766 H 2479.85 -4.35636 -0.558375 0
M  V30 26767 H 2480.46 -4.10949 1.0955 0
M  V30 26768 N 2478.77 -0.706118 -1.40896 0
M  V30 26769 C 2479.68 -0.0482698 -2.3455 0
M  V30 26770 C 2480.7 0.754369 -1.56797 0
M  V30 26771 O 2481.88 0.689505 -1.89229 0
M  V30 26772 C 2478.94 0.869244 -3.35626 0
M  V30 26773 C 2478 0.057624 -4.29261 0
M  V30 26774 C 2477.23 0.931439 -5.25509 0
M  V30 26775 O 2477.46 2.17083 -5.27476 0
M  V30 26776 O 2476.39 0.375481 -6.00728 0
M  V30 26777 H 2480.22 -0.820527 -2.92406 0
M  V30 26778 H 2477.8 -0.466525 -1.41929 0
M  V30 26779 H 2479.68 1.39507 -3.97638 0
M  V30 26780 H 2478.36 1.62081 -2.80199 0
M  V30 26781 H 2477.27 -0.513053 -3.70565 0
M  V30 26782 H 2478.6 -0.655512 -4.87815 0
M  V30 26783 N 2480.25 1.50991 -0.451617 0
M  V30 26784 C 2481.49 2.04109 0.10903 0
M  V30 26785 C 2481.86 1.32749 1.38714 0
M  V30 26786 O 2483.06 1.76317 2.02893 0
M  V30 26787 C 2481.33 3.56068 0.308292 0
M  V30 26788 S 2482.89 4.30873 0.830294 0
M  V30 26789 H 2479.7 0.710555 0.0251406 0
M  V30 26790 H 2482.31 1.85598 -0.614297 0
M  V30 26791 H 2481.01 4.05566 -0.628033 0
M  V30 26792 H 2480.54 3.78898 1.05829 0
M  V30 26793 H 2482.56 4.49282 2.10618 0
M  V30 26794 N 2481.73 0.183486 1.56528 0
M  V30 26795 C 2482.98 -0.457417 1.96856 0
M  V30 26796 C 2483.3 -1.62951 1.07107 0
M  V30 26797 O 2482.57 -1.954 0.139921 0
M  V30 26798 H 2481.15 -0.171979 0.726933 0
M  V30 26799 H 2483.81 0.26751 1.93055 0
M  V30 26800 H 2482.91 -0.809315 3.01424 0
M  V30 26801 N 2483.21 -1.57342 -0.0901833 0
M  V30 26802 C 2484.43 -1.90927 -0.810049 0
M  V30 26803 C 2484.86 -0.778217 -1.71247 0
M  V30 26804 O 2484.22 0.269959 -1.79279 0
M  V30 26805 C 2484.26 -3.23396 -1.59523 0
M  V30 26806 O 2483.37 -3.11332 -2.70456 0
M  V30 26807 H 2482.71 -0.625711 -0.22222 0
M  V30 26808 H 2485.24 -2.045 -0.0639357 0
M  V30 26809 H 2485.25 -3.56823 -1.97841 0
M  V30 26810 H 2483.92 -4.053 -0.932983 0
M  V30 26811 H 2482.5 -2.89428 -2.3513 0
M  V30 26812 N 2484.69 0.36113 -1.53407 0
M  V30 26813 C 2485.96 1.11924 -1.60413 0
M  V30 26814 C 2486.34 2.06992 -0.414421 0
M  V30 26815 O 2485.69 2.20619 0.594937 0
M  V30 26816 C 2485.9 1.85442 -2.95655 0
M  V30 26817 C 2487.25 2.39817 -3.5039 0
M  V30 26818 O 2488.27 1.95563 -2.97714 0
M  V30 26819 O 2487.13 3.20729 -4.42487 0
M  V30 26820 H 2484.23 0.513684 -0.648119 0
M  V30 26821 H 2486.77 0.364036 -1.65749 0
M  V30 26822 H 2485.54 1.16085 -3.73684 0
M  V30 26823 H 2485.17 2.67861 -2.9383 0
M  V30 26824 N 2486.16 1.44842 0.621179 0
M  V30 26825 C 2487.41 1.48147 1.38053 0
M  V30 26826 C 2487.74 0.117901 1.94142 0
M  V30 26827 O 2486.99 -0.881663 1.74715 0
M  V30 26828 C 2487.29 2.49735 2.5567 0
M  V30 26829 C 2486.96 3.94803 2.1781 0
M  V30 26830 C 2485.62 4.34307 2.07198 0
M  V30 26831 C 2487.97 4.86091 1.88057 0
M  V30 26832 C 2485.3 5.6301 1.65035 0
M  V30 26833 C 2487.65 6.15192 1.47384 0
M  V30 26834 C 2486.32 6.5364 1.3532 0
M  V30 26835 H 2485.59 0.54211 0.505171 0
M  V30 26836 H 2488.23 1.78112 0.703446 0
M  V30 26837 H 2486.54 2.1329 3.28656 0
M  V30 26838 H 2488.24 2.49535 3.139 0
M  V30 26839 H 2484.83 3.63556 2.26991 0
M  V30 26840 H 2489.01 4.56318 1.9516 0
M  V30 26841 H 2484.27 5.91608 1.54307 0
M  V30 26842 H 2488.44 6.85379 1.23403 0
M  V30 26843 H 2486.07 7.53269 1.02422 0
M  V30 26844 N 2487.64 -0.862479 1.31905 0
M  V30 26845 C 2488.61 -1.95193 1.20134 0
M  V30 26846 C 2489.61 -1.60302 0.126437 0
M  V30 26847 O 2490.8 -1.70088 0.376264 0
M  V30 26848 C 2487.93 -3.30242 0.845749 0
M  V30 26849 H 2489.12 -2.0706 2.16947 0
M  V30 26850 H 2486.67 -1.0517 1.15624 0
M  V30 26851 H 2487.41 -3.24075 -0.1209 0
M  V30 26852 H 2487.19 -3.56941 1.62282 0
M  V30 26853 H 2488.68 -4.10108 0.78749 0
M  V30 26854 N 2489.12 -1.14988 -1.07775 0
M  V30 26855 C 2490.35 -0.944434 -1.8375 0
M  V30 26856 C 2490.76 0.510548 -1.82181 0
M  V30 26857 O 2490.1 1.36574 -1.22854 0
M  V30 26858 C 2490.16 -1.37597 -3.32125 0
M  V30 26859 C 2489.83 -2.84781 -3.5742 0
M  V30 26860 C 2490.82 -3.82866 -3.51724 0
M  V30 26861 C 2488.51 -3.22347 -3.85224 0
M  V30 26862 C 2490.5 -5.16524 -3.73473 0
M  V30 26863 C 2488.19 -4.56178 -4.06626 0
M  V30 26864 C 2489.19 -5.53076 -4.00744 0
M  V30 26865 O 2488.88 -6.84491 -4.21578 0
M  V30 26866 H 2488.61 -0.335755 -0.586724 0
M  V30 26867 H 2491.16 -1.53055 -1.36979 0
M  V30 26868 H 2489.39 -0.733231 -3.79685 0
M  V30 26869 H 2491.08 -1.14031 -3.89553 0
M  V30 26870 H 2491.85 -3.5519 -3.3025 0
M  V30 26871 H 2487.73 -2.47514 -3.88918 0
M  V30 26872 H 2491.27 -5.92144 -3.68798 0
M  V30 26873 H 2487.17 -4.83572 -4.27585 0
M  V30 26874 H 2487.94 -6.90845 -4.38949 0
M  V30 26875 N 2490.6 1.26049 -0.946007 0
M  V30 26876 C 2491.85 1.93526 -0.596153 0
M  V30 26877 C 2492.17 1.74181 0.865528 0
M  V30 26878 O 2491.43 1.07513 1.63522 0
M  V30 26879 C 2491.73 3.46127 -0.890536 0
M  V30 26880 C 2491.39 3.85618 -2.33687 0
M  V30 26881 C 2490.06 3.9611 -2.73223 0
M  V30 26882 C 2492.41 4.05329 -3.27655 0
M  V30 26883 C 2489.74 4.23713 -4.05813 0
M  V30 26884 C 2492.09 4.34422 -4.59849 0
M  V30 26885 C 2490.75 4.43129 -4.99193 0
M  V30 26886 H 2490.02 0.708161 -0.218148 0
M  V30 26887 H 2492.67 1.49765 -1.19342 0
M  V30 26888 H 2490.97 3.91233 -0.21078 0
M  V30 26889 H 2492.67 3.96508 -0.598548 0
M  V30 26890 H 2489.26 3.78002 -2.02022 0
M  V30 26891 H 2493.44 3.96646 -2.98305 0
M  V30 26892 H 2488.7 4.28667 -4.35952 0
M  V30 26893 H 2492.87 4.48619 -5.32648 0
M  V30 26894 H 2490.5 4.64271 -6.0196 0
M  V30 26895 N 2492.08 0.71358 1.4052 0
M  V30 26896 C 2493.31 0.261431 2.04939 0
M  V30 26897 C 2493.71 -1.10104 1.53863 0
M  V30 26898 O 2493.06 -1.70275 0.689351 0
M  V30 26899 C 2493.12 0.16129 3.59138 0
M  V30 26900 C 2492.78 1.45872 4.33094 0
M  V30 26901 C 2493.78 2.40024 4.61177 0
M  V30 26902 C 2491.47 1.71709 4.7204 0
M  V30 26903 C 2493.46 3.5826 5.27189 0
M  V30 26904 C 2491.15 2.90227 5.37784 0
M  V30 26905 C 2492.14 3.83325 5.65288 0
M  V30 26906 O 2491.83 4.99765 6.29675 0
M  V30 26907 H 2491.56 0.11562 0.666039 0
M  V30 26908 H 2494.12 0.971881 1.80952 0
M  V30 26909 H 2492.35 -0.605086 3.81937 0
M  V30 26910 H 2494.04 -0.256034 4.05092 0
M  V30 26911 H 2494.8 2.21326 4.31555 0
M  V30 26912 H 2490.68 1.001 4.50001 0
M  V30 26913 H 2494.23 4.30943 5.48574 0
M  V30 26914 H 2490.12 3.08835 5.66826 0
M  V30 26915 H 2490.89 4.99816 6.48171 0
M  V30 26916 N 2493.55 -1.50749 0.459618 0
M  V30 26917 C 2494.8 -2.02256 -0.0993139 0
M  V30 26918 C 2495.13 -1.34239 -1.40748 0
M  V30 26919 O 2494.38 -0.453261 -1.90379 0
M  V30 26920 C 2494.68 -3.55752 -0.342803 0
M  V30 26921 C 2494.35 -4.42184 0.882257 0
M  V30 26922 C 2493.01 -4.65526 1.21816 0
M  V30 26923 C 2495.36 -4.92749 1.69846 0
M  V30 26924 C 2492.69 -5.36677 2.37054 0
M  V30 26925 C 2495.04 -5.65166 2.84202 0
M  V30 26926 C 2493.71 -5.86764 3.1822 0
M  V30 26927 H 2492.98 -0.740108 -0.0363415 0
M  V30 26928 H 2495.62 -1.81479 0.611361 0
M  V30 26929 H 2493.93 -3.74982 -1.13561 0
M  V30 26930 H 2495.63 -3.9316 -0.789052 0
M  V30 26931 H 2492.22 -4.24229 0.610542 0
M  V30 26932 H 2496.4 -4.74581 1.45213 0
M  V30 26933 H 2491.66 -5.51609 2.63699 0
M  V30 26934 H 2495.83 -6.03331 3.478 0
M  V30 26935 H 2493.46 -6.41675 4.07624 0
M  V30 26936 N 2495.03 -0.191784 -1.56429 0
M  V30 26937 C 2496.28 0.448519 -1.97778 0
M  V30 26938 C 2496.61 1.61499 -1.0785 0
M  V30 26939 O 2495.89 1.94066 -0.129808 0
M  V30 26940 C 2496.17 0.911845 -3.48364 0
M  V30 26941 C 2496.02 -0.256215 -4.4907 0
M  V30 26942 C 2497.34 1.77849 -4.02564 0
M  V30 26943 H 2494.46 0.16156 -0.719074 0
M  V30 26944 H 2497.1 -0.28204 -1.87895 0
M  V30 26945 H 2495.25 1.53436 -3.56917 0
M  V30 26946 H 2496.92 -0.893812 -4.52558 0
M  V30 26947 H 2495.17 -0.90851 -4.2418 0
M  V30 26948 H 2495.84 0.110433 -5.5189 0
M  V30 26949 H 2498.31 1.25352 -3.9677 0
M  V30 26950 H 2497.19 2.07165 -5.08305 0
M  V30 26951 H 2497.45 2.73152 -3.47621 0
M  V30 26952 N 2496.51 1.57387 0.0818378 0
M  V30 26953 C 2497.74 1.91354 0.799912 0
M  V30 26954 C 2498.16 0.787288 1.70831 0
M  V30 26955 O 2497.52 -0.260448 1.7942 0
M  V30 26956 C 2497.57 3.24237 1.57806 0
M  V30 26957 O 2496.67 3.12762 2.68801 0
M  V30 26958 H 2496.01 0.626881 0.218899 0
M  V30 26959 H 2498.54 2.04531 0.0530896 0
M  V30 26960 H 2498.55 3.57868 1.95946 0
M  V30 26961 H 2497.23 4.05789 0.911476 0
M  V30 26962 H 2495.8 2.9067 2.33592 0
M  V30 26963 N 2497.99 -0.35299 1.53596 0
M  V30 26964 C 2499.24 -1.09428 1.70387 0
M  V30 26965 C 2499.56 -1.8893 0.462146 0
M  V30 26966 O 2498.82 -1.87634 -0.556041 0
M  V30 26967 C 2499.12 -2.07049 2.91317 0
M  V30 26968 C 2498.78 -1.43931 4.27311 0
M  V30 26969 C 2497.45 -1.26446 4.6429 0
M  V30 26970 C 2499.8 -0.983793 5.11831 0
M  V30 26971 C 2497.13 -0.620123 5.83414 0
M  V30 26972 C 2499.48 -0.353405 6.31612 0
M  V30 26973 C 2498.14 -0.166154 6.67293 0
M  V30 26974 H 2497.41 -0.400425 0.623491 0
M  V30 26975 H 2500.06 -0.374622 1.878 0
M  V30 26976 H 2498.36 -2.85363 2.68468 0
M  V30 26977 H 2500.06 -2.64381 3.01502 0
M  V30 26978 H 2496.65 -1.58536 3.98201 0
M  V30 26979 H 2500.83 -1.10677 4.83802 0
M  V30 26980 H 2496.09 -0.463574 6.0964 0
M  V30 26981 H 2500.26 0.00769796 6.964 0
M  V30 26982 H 2497.89 0.335181 7.59461 0
M  V30 26983 N 2499.47 -1.45169 -0.613489 0
M  V30 26984 C 2500.72 -1.48153 -1.36871 0
M  V30 26985 C 2501.03 -0.125017 -1.952 0
M  V30 26986 O 2502.24 -0.0324653 -2.71481 0
M  V30 26987 C 2500.69 -2.60909 -2.47901 0
M  V30 26988 C 2500.3 -4.02846 -1.96009 0
M  V30 26989 C 2502.04 -2.73132 -3.2496 0
M  V30 26990 C 2499.95 -5.06994 -3.04485 0
M  V30 26991 H 2498.88 -0.551262 -0.514418 0
M  V30 26992 H 2501.53 -1.71291 -0.658152 0
M  V30 26993 H 2499.91 -2.31042 -3.21614 0
M  V30 26994 H 2501.09 -4.42362 -1.29044 0
M  V30 26995 H 2499.4 -3.9502 -1.31712 0
M  V30 26996 H 2502 -3.48113 -4.05859 0
M  V30 26997 H 2502.34 -1.7956 -3.75585 0
M  V30 26998 H 2502.88 -3.02495 -2.58344 0
M  V30 26999 H 2499.61 -6.02255 -2.58784 0
M  V30 27000 H 2499.13 -4.72053 -3.70036 0
M  V30 27001 H 2500.81 -5.31481 -3.68967 0
M  V30 27002 N 2500.95 0.855472 -1.32361 0
M  V30 27003 C 2502.19 1.6096 -1.22875 0
M  V30 27004 C 2502.52 1.93367 0.209624 0
M  V30 27005 O 2501.78 1.57438 1.1624 0
M  V30 27006 C 2502.07 2.93959 -2.0328 0
M  V30 27007 C 2501.74 2.80985 -3.52645 0
M  V30 27008 C 2500.4 2.77154 -3.93369 0
M  V30 27009 C 2502.75 2.66975 -4.47631 0
M  V30 27010 C 2500.08 2.5719 -5.27323 0
M  V30 27011 C 2502.43 2.48548 -5.81727 0
M  V30 27012 C 2501.1 2.43109 -6.21655 0
M  V30 27013 H 2500.37 0.588994 -0.44963 0
M  V30 27014 H 2503.02 0.992414 -1.63779 0
M  V30 27015 H 2501.32 3.59793 -1.55102 0
M  V30 27016 H 2503.02 3.51329 -1.9331 0
M  V30 27017 H 2499.61 2.84791 -3.203 0
M  V30 27018 H 2503.79 2.68981 -4.17089 0
M  V30 27019 H 2499.05 2.51414 -5.57316 0
M  V30 27020 H 2503.22 2.36688 -6.54944 0
M  V30 27021 H 2500.85 2.27399 -7.25392 0
M  V30 27022 N 2502.42 1.15558 1.07164 0
M  V30 27023 C 2503.35 0.877084 2.16401 0
M  V30 27024 C 2504.33 -0.173082 1.69217 0
M  V30 27025 O 2505.52 -0.0270498 1.94181 0
M  V30 27026 C 2502.65 0.367693 3.45348 0
M  V30 27027 C 2501.6 1.35475 4.05993 0
M  V30 27028 C 2500.93 0.704131 5.30043 0
M  V30 27029 C 2502.23 2.7214 4.45799 0
M  V30 27030 H 2503.92 1.79057 2.39956 0
M  V30 27031 H 2501.47 0.862351 1.15323 0
M  V30 27032 H 2503.42 0.160391 4.21095 0
M  V30 27033 H 2502.15 -0.58127 3.21386 0
M  V30 27034 H 2500.81 1.54845 3.32293 0
M  V30 27035 H 2500.45 -0.25104 5.02373 0
M  V30 27036 H 2500.15 1.36287 5.71576 0
M  V30 27037 H 2501.68 0.506647 6.08494 0
M  V30 27038 H 2503.09 2.56604 5.12667 0
M  V30 27039 H 2501.49 3.34406 4.9829 0
M  V30 27040 H 2502.56 3.2806 3.57078 0
M  V30 27041 N 2503.9 -1.25546 0.952678 0
M  V30 27042 C 2505.14 -1.94959 0.614047 0
M  V30 27043 C 2505.51 -1.7298 -0.833185 0
M  V30 27044 O 2506.71 -2.36296 -1.28131 0
M  V30 27045 C 2504.98 -3.44248 0.960623 0
M  V30 27046 S 2506.54 -4.32613 0.734271 0
M  V30 27047 H 2503.35 -0.674204 0.225766 0
M  V30 27048 H 2505.96 -1.52245 1.22644 0
M  V30 27049 H 2504.66 -3.57747 2.01109 0
M  V30 27050 H 2504.19 -3.91942 0.338405 0
M  V30 27051 H 2506.21 -4.94618 -0.395908 0
M  V30 27052 N 2505.38 -0.721022 -1.40139 0
M  V30 27053 C 2506.6 -0.271295 -2.05618 0
M  V30 27054 C 2507.03 1.08036 -1.5398 0
M  V30 27055 O 2506.39 1.68166 -0.677493 0
M  V30 27056 C 2506.44 -0.26726 -3.59608 0
M  V30 27057 O 2505.54 0.749743 -4.05528 0
M  V30 27058 H 2504.88 -0.126174 -0.651902 0
M  V30 27059 H 2507.41 -0.983029 -1.79437 0
M  V30 27060 H 2507.42 -0.106816 -4.0786 0
M  V30 27061 H 2506.1 -1.25361 -3.96557 0
M  V30 27062 H 2504.67 0.556579 -3.68723 0
M  V30 27063 N 2506.86 1.50503 -0.467606 0
M  V30 27064 C 2508.1 2.02306 0.0885864 0
M  V30 27065 C 2508.43 1.34984 1.40034 0
M  V30 27066 O 2507.69 0.463351 1.90136 0
M  V30 27067 C 2507.99 3.55929 0.323932 0
M  V30 27068 C 2507.65 4.4171 -0.905695 0
M  V30 27069 C 2506.31 4.64873 -1.24284 0
M  V30 27070 C 2508.67 4.91842 -1.72456 0
M  V30 27071 C 2505.99 5.35412 -2.39897 0
M  V30 27072 C 2508.35 5.63651 -2.87195 0
M  V30 27073 C 2507.01 5.85068 -3.21328 0
M  V30 27074 H 2506.28 0.740291 0.032416 0
M  V30 27075 H 2508.93 1.81152 -0.620977 0
M  V30 27076 H 2507.23 3.75579 1.11571 0
M  V30 27077 H 2508.93 3.93573 0.768191 0
M  V30 27078 H 2505.52 4.23899 -0.633031 0
M  V30 27079 H 2509.7 4.73804 -1.47728 0
M  V30 27080 H 2504.96 5.50203 -2.6662 0
M  V30 27081 H 2509.13 6.01478 -3.50995 0
M  V30 27082 H 2506.76 6.39504 -4.11021 0
M  V30 27083 N 2508.34 0.200077 1.56325 0
M  V30 27084 C 2509.27 -0.713877 2.2232 0
M  V30 27085 C 2510.25 -1.2175 1.1879 0
M  V30 27086 O 2511.43 -1.26543 1.47311 0
M  V30 27087 C 2508.56 -1.93139 2.88643 0
M  V30 27088 C 2507.52 -1.56248 3.9846 0
M  V30 27089 C 2506.84 -2.85701 4.51972 0
M  V30 27090 C 2508.14 -0.768656 5.16613 0
M  V30 27091 H 2509.84 -0.163702 2.98952 0
M  V30 27092 H 2507.38 -0.0772966 1.43792 0
M  V30 27093 H 2509.33 -2.57602 3.33495 0
M  V30 27094 H 2508.06 -2.50618 2.09424 0
M  V30 27095 H 2506.72 -0.941409 3.54306 0
M  V30 27096 H 2506.37 -3.4128 3.69509 0
M  V30 27097 H 2506.07 -2.61761 5.26075 0
M  V30 27098 H 2507.59 -3.51145 4.99529 0
M  V30 27099 H 2509 -1.3165 5.57979 0
M  V30 27100 H 2507.4 -0.627181 5.96814 0
M  V30 27101 H 2508.47 0.229253 4.84358 0
M  V30 27102 N 2509.81 -1.57429 -0.0734901 0
M  V30 27103 C 2510.75 -1.98865 -1.11929 0
M  V30 27104 C 2511.72 -0.865291 -1.37664 0
M  V30 27105 O 2512.91 -1.12745 -1.51066 0
M  V30 27106 C 2510.04 -2.3239 -2.46399 0
M  V30 27107 C 2509.08 -3.54717 -2.36808 0
M  V30 27108 S 2509.91 -5.05618 -1.76383 0
M  V30 27109 C 2511.07 -5.42343 -3.12434 0
M  V30 27110 H 2511.3 -2.87258 -0.766161 0
M  V30 27111 H 2508.84 -1.51804 -0.281961 0
M  V30 27112 H 2510.79 -2.52381 -3.2375 0
M  V30 27113 H 2509.46 -1.44529 -2.78873 0
M  V30 27114 H 2508.65 -3.75686 -3.3597 0
M  V30 27115 H 2508.25 -3.34348 -1.67592 0
M  V30 27116 H 2510.54 -5.4031 -4.08744 0
M  V30 27117 H 2511.49 -6.43151 -2.96246 0
M  V30 27118 H 2511.89 -4.69804 -3.12962 0
M  V30 27119 N 2511.29 0.344839 -1.53781 0
M  V30 27120 C 2512.22 1.42903 -1.84665 0
M  V30 27121 C 2513.2 1.54953 -0.701675 0
M  V30 27122 O 2514.39 1.69182 -0.953467 0
M  V30 27123 C 2511.52 2.79971 -2.05508 0
M  V30 27124 C 2510.47 2.82728 -3.21323 0
M  V30 27125 C 2509.8 4.22669 -3.27498 0
M  V30 27126 C 2511.1 2.48381 -4.59461 0
M  V30 27127 H 2512.79 1.17306 -2.75463 0
M  V30 27128 H 2510.34 0.562872 -1.32543 0
M  V30 27129 H 2512.29 3.55863 -2.25697 0
M  V30 27130 H 2511.01 3.07 -1.1144 0
M  V30 27131 H 2509.67 2.09289 -3.00988 0
M  V30 27132 H 2509.32 4.46806 -2.31027 0
M  V30 27133 H 2509.02 4.25426 -4.05323 0
M  V30 27134 H 2510.55 5.00405 -3.49895 0
M  V30 27135 H 2511.96 3.13986 -4.79672 0
M  V30 27136 H 2510.36 2.62422 -5.3968 0
M  V30 27137 H 2511.43 1.43572 -4.63158 0
M  V30 27138 N 2512.77 1.45492 0.605781 0
M  V30 27139 C 2513.72 1.54639 1.73752 0
M  V30 27140 C 2514.71 0.416248 1.64206 0
M  V30 27141 O 2515.92 0.592229 1.69978 0
M  V30 27142 H 2512.29 0.485751 0.574064 0
M  V30 27143 H 2514.26 2.4984 1.63165 0
M  V30 27144 C 2513.01 1.53195 3.12132 0
M  V30 27145 H 2512.34 2.39483 3.20137 0
M  V30 27146 H 2513.78 1.63652 3.91144 0
M  V30 27147 C 2512.23 0.256675 3.35921 0
M  V30 27148 O 2512.76 -0.662728 3.96195 0
M  V30 27149 N 2510.97 0.151802 2.90203 0
M  V30 27150 H 2510.52 0.900852 2.41335 0
M  V30 27151 H 2510.48 -0.700646 3.06494 0
M  V30 27152 N 2514.25 -0.848441 1.32813 0
M  V30 27153 C 2515.18 -1.97297 1.24885 0
M  V30 27154 C 2516.16 -1.69592 0.131386 0
M  V30 27155 O 2517.34 -1.91552 0.319586 0
M  V30 27156 C 2514.47 -3.33259 0.977518 0
M  V30 27157 C 2513.43 -3.75335 2.05689 0
M  V30 27158 C 2512.75 -5.08997 1.63786 0
M  V30 27159 C 2514.05 -3.90137 3.47261 0
M  V30 27160 H 2515.75 -2.04187 2.1897 0
M  V30 27161 H 2513.29 -0.98101 1.05414 0
M  V30 27162 H 2515.25 -4.11488 0.908585 0
M  V30 27163 H 2513.97 -3.266 0.00103742 0
M  V30 27164 H 2512.63 -2.99362 2.11608 0
M  V30 27165 H 2512.28 -4.988 0.648656 0
M  V30 27166 H 2511.98 -5.3812 2.36009 0
M  V30 27167 H 2513.5 -5.89712 1.58341 0
M  V30 27168 H 2514.92 -4.58703 3.43896 0
M  V30 27169 H 2513.31 -4.30685 4.17888 0
M  V30 27170 H 2514.38 -2.92867 3.86467 0
M  V30 27171 N 2515.73 -1.16125 -1.06549 0
M  V30 27172 C 2516.97 -0.941158 -1.793 0
M  V30 27173 C 2517.3 0.531202 -1.87106 0
M  V30 27174 O 2516.56 1.41016 -1.35695 0
M  V30 27175 C 2516.86 -1.51057 -3.23908 0
M  V30 27176 C 2516.52 -3.00481 -3.36187 0
M  V30 27177 C 2515.18 -3.41271 -3.39246 0
M  V30 27178 C 2517.54 -3.96471 -3.38319 0
M  V30 27179 C 2514.86 -4.76675 -3.42049 0
M  V30 27180 C 2517.22 -5.31758 -3.4266 0
M  V30 27181 C 2515.88 -5.72032 -3.44 0
M  V30 27182 H 2515.15 -0.344394 -0.656105 0
M  V30 27183 H 2517.8 -1.44798 -1.25322 0
M  V30 27184 H 2516.1 -0.925129 -3.80721 0
M  V30 27185 H 2517.8 -1.31599 -3.78791 0
M  V30 27186 H 2514.39 -2.67956 -3.34511 0
M  V30 27187 H 2518.57 -3.66026 -3.3517 0
M  V30 27188 H 2513.83 -5.07212 -3.41389 0
M  V30 27189 H 2518 -6.05927 -3.43257 0
M  V30 27190 H 2515.63 -6.76934 -3.45925 0
M  V30 27191 N 2517.2 1.25039 -0.959323 0
M  V30 27192 C 2518.45 1.93168 -0.617559 0
M  V30 27193 C 2518.78 1.74903 0.843951 0
M  V30 27194 O 2518.06 1.09699 1.60613 0
M  V30 27195 C 2518.34 3.46429 -0.982796 0
M  V30 27196 C 2518.19 3.739 -2.50038 0
M  V30 27197 C 2519.51 4.3712 -0.511253 0
M  V30 27198 H 2516.63 0.701548 -0.225832 0
M  V30 27199 H 2519.27 1.47568 -1.19682 0
M  V30 27200 H 2517.42 3.85399 -0.489874 0
M  V30 27201 H 2519.1 3.44538 -3.06743 0
M  V30 27202 H 2517.34 3.19342 -2.93603 0
M  V30 27203 H 2518.01 4.81099 -2.70644 0
M  V30 27204 H 2520.49 4.05479 -0.934146 0
M  V30 27205 H 2519.36 5.43106 -0.795456 0
M  V30 27206 H 2519.62 4.38162 0.588757 0
M  V30 27207 N 2518.68 0.728444 1.39755 0
M  V30 27208 C 2519.65 0.09277 2.29012 0
M  V30 27209 C 2520.65 -0.674 1.45993 0
M  V30 27210 O 2521.84 -0.50399 1.6675 0
M  V30 27211 C 2518.97 -0.878079 3.29397 0
M  V30 27212 H 2520.16 0.879061 2.86727 0
M  V30 27213 H 2517.71 0.493873 1.48292 0
M  V30 27214 H 2518.45 -1.69096 2.76725 0
M  V30 27215 H 2518.23 -0.330983 3.90701 0
M  V30 27216 H 2519.72 -1.31963 3.96201 0
M  V30 27217 N 2520.16 -1.50253 0.475581 0
M  V30 27218 C 2521.41 -2.0265 -0.0779717 0
M  V30 27219 C 2521.74 -1.35654 -1.38966 0
M  V30 27220 O 2521.01 -0.483724 -1.88389 0
M  V30 27221 C 2521.3 -3.59181 -0.257098 0
M  V30 27222 C 2521.15 -4.36742 1.07593 0
M  V30 27223 C 2522.47 -4.28364 -1.00957 0
M  V30 27224 H 2519.59 -0.73651 -0.0268629 0
M  V30 27225 H 2522.23 -1.79529 0.622046 0
M  V30 27226 H 2520.38 -3.79012 -0.853345 0
M  V30 27227 H 2522.05 -4.28471 1.7091 0
M  V30 27228 H 2520.3 -4.00305 1.67147 0
M  V30 27229 H 2520.97 -5.44544 0.904184 0
M  V30 27230 H 2523.44 -4.13035 -0.504141 0
M  V30 27231 H 2522.32 -5.37689 -1.10371 0
M  V30 27232 H 2522.58 -3.91843 -2.04724 0
M  V30 27233 N 2521.64 -0.208365 -1.56217 0
M  V30 27234 C 2522.89 0.42717 -1.97125 0
M  V30 27235 C 2523.2 1.61833 -1.09861 0
M  V30 27236 O 2524.41 2.32252 -1.4061 0
M  V30 27237 C 2522.86 0.81138 -3.50635 0
M  V30 27238 C 2522.47 -0.356228 -4.46581 0
M  V30 27239 C 2524.21 1.41325 -4.00284 0
M  V30 27240 C 2522.12 0.0496813 -5.91379 0
M  V30 27241 H 2521.05 0.163368 -0.736089 0
M  V30 27242 H 2523.7 -0.302488 -1.8099 0
M  V30 27243 H 2522.08 1.59808 -3.62322 0
M  V30 27244 H 2523.26 -1.13378 -4.46634 0
M  V30 27245 H 2521.57 -0.870467 -4.072 0
M  V30 27246 H 2524.17 1.72963 -5.05953 0
M  V30 27247 H 2524.51 2.32443 -3.45364 0
M  V30 27248 H 2525.05 0.690255 -3.91766 0
M  V30 27249 H 2521.79 -0.827643 -6.50254 0
M  V30 27250 H 2521.31 0.791821 -5.9455 0
M  V30 27251 H 2522.98 0.480929 -6.4521 0
M  V30 27252 N 2523.12 1.57465 0.0651402 0
M  V30 27253 C 2524.05 1.99455 1.10873 0
M  V30 27254 C 2525.03 0.872579 1.37204 0
M  V30 27255 O 2526.21 1.13544 1.50466 0
M  V30 27256 C 2523.34 2.33694 2.45163 0
M  V30 27257 C 2522.38 3.55968 2.34924 0
M  V30 27258 S 2523.22 5.06546 1.737 0
M  V30 27259 C 2524.37 5.43992 3.09554 0
M  V30 27260 H 2524.61 2.8766 0.750916 0
M  V30 27261 H 2522.14 1.51951 0.273906 0
M  V30 27262 H 2524.1 2.54094 3.22407 0
M  V30 27263 H 2522.76 1.46006 2.78103 0
M  V30 27264 H 2521.95 3.77463 3.33973 0
M  V30 27265 H 2521.55 3.35232 1.65817 0
M  V30 27266 H 2523.85 5.4247 4.05873 0
M  V30 27267 H 2524.79 6.44713 2.92831 0
M  V30 27268 H 2525.2 4.71457 3.10466 0
M  V30 27269 N 2524.59 -0.336679 1.53962 0
M  V30 27270 C 2525.87 -1.09358 1.62173 0
M  V30 27271 C 2526.25 -2.06307 0.447299 0
M  V30 27272 O 2525.6 -2.21538 -0.559763 0
M  V30 27273 C 2525.81 -1.80715 2.98568 0
M  V30 27274 C 2527.16 -2.34212 3.54161 0
M  V30 27275 O 2528.18 -1.90802 3.00788 0
M  V30 27276 O 2527.04 -3.13649 4.47534 0
M  V30 27277 H 2524.13 -0.503308 0.656209 0
M  V30 27278 H 2526.68 -0.337621 1.66308 0
M  V30 27279 H 2525.45 -1.10125 3.75484 0
M  V30 27280 H 2525.08 -2.63153 2.98054 0
M  V30 27281 N 2526.07 -1.45812 -0.598057 0
M  V30 27282 C 2527.02 -1.55558 -1.72929 0
M  V30 27283 C 2528.01 -0.42495 -1.63983 0
M  V30 27284 O 2529.22 -0.601235 -1.69662 0
M  V30 27285 H 2525.6 -0.488789 -0.57148 0
M  V30 27286 H 2527.57 -2.50702 -1.61837 0
M  V30 27287 C 2526.32 -1.54848 -3.11316 0
M  V30 27288 H 2525.64 -2.41178 -3.18863 0
M  V30 27289 H 2527.08 -1.65724 -3.90271 0
M  V30 27290 C 2525.54 -0.274486 -3.3578 0
M  V30 27291 O 2526.07 0.641708 -3.96541 0
M  V30 27292 N 2524.27 -0.16719 -2.90119 0
M  V30 27293 H 2523.82 -0.913638 -2.40854 0
M  V30 27294 H 2523.78 0.684382 -3.06861 0
M  V30 27295 N 2527.55 0.841385 -1.33261 0
M  V30 27296 C 2528.8 1.59647 -1.24575 0
M  V30 27297 C 2529.13 1.93579 0.189103 0
M  V30 27298 O 2528.38 1.58662 1.14564 0
M  V30 27299 C 2528.68 2.91787 -2.06386 0
M  V30 27300 C 2528.35 2.77229 -3.55605 0
M  V30 27301 C 2527.01 2.72966 -3.96287 0
M  V30 27302 C 2529.36 2.62213 -4.50437 0
M  V30 27303 C 2526.69 2.51583 -5.30022 0
M  V30 27304 C 2529.04 2.42364 -5.84331 0
M  V30 27305 C 2527.7 2.36502 -6.24198 0
M  V30 27306 H 2526.97 0.584192 -0.455852 0
M  V30 27307 H 2529.62 0.974987 -1.64822 0
M  V30 27308 H 2527.93 3.58127 -1.58909 0
M  V30 27309 H 2529.62 3.49259 -1.97025 0
M  V30 27310 H 2526.21 2.81378 -3.23302 0
M  V30 27311 H 2530.4 2.64542 -4.19918 0
M  V30 27312 H 2525.65 2.45489 -5.59951 0
M  V30 27313 H 2529.83 2.29728 -6.57418 0
M  V30 27314 H 2527.45 2.19693 -7.27763 0
M  V30 27315 N 2529.03 1.16688 1.05932 0
M  V30 27316 C 2529.94 0.891222 2.17012 0
M  V30 27317 C 2530.96 -0.137877 1.73453 0
M  V30 27318 O 2532.13 0.0396274 2.01361 0
M  V30 27319 C 2529.2 0.400159 3.44383 0
M  V30 27320 C 2528.26 1.49493 4.0243 0
M  V30 27321 C 2527.49 1.02721 5.23721 0
M  V30 27322 O 2527.71 -0.121616 5.7027 0
M  V30 27323 O 2526.65 1.81709 5.73817 0
M  V30 27324 H 2530.47 1.8202 2.4311 0
M  V30 27325 H 2528.06 0.947153 1.1554 0
M  V30 27326 H 2529.94 0.133466 4.21189 0
M  V30 27327 H 2528.62 -0.500761 3.19803 0
M  V30 27328 H 2527.52 1.81541 3.27099 0
M  V30 27329 H 2528.86 2.37129 4.31313 0
M  V30 27330 N 2530.51 -1.24529 0.96594 0
M  V30 27331 C 2531.74 -1.96323 0.643485 0
M  V30 27332 C 2532.15 -1.71876 -0.790897 0
M  V30 27333 O 2531.49 -0.9983 -1.54207 0
M  V30 27334 C 2531.55 -3.49641 0.836139 0
M  V30 27335 C 2531.21 -3.97784 2.24982 0
M  V30 27336 C 2532.21 -4.07595 3.22742 0
M  V30 27337 C 2529.9 -4.31154 2.57705 0
M  V30 27338 C 2531.89 -4.50108 4.51311 0
M  V30 27339 C 2529.58 -4.7335 3.865 0
M  V30 27340 C 2530.58 -4.82792 4.83116 0
M  V30 27341 O 2530.26 -5.24047 6.09614 0
M  V30 27342 H 2530 -0.632252 0.239234 0
M  V30 27343 H 2532.55 -1.5936 1.2959 0
M  V30 27344 H 2530.78 -3.86493 0.126558 0
M  V30 27345 H 2532.47 -4.02645 0.513036 0
M  V30 27346 H 2533.23 -3.82033 2.9879 0
M  V30 27347 H 2529.11 -4.23025 1.83223 0
M  V30 27348 H 2532.66 -4.57392 5.26724 0
M  V30 27349 H 2528.55 -4.98359 4.10254 0
M  V30 27350 H 2529.32 -5.42202 6.13155 0
M  V30 27351 N 2531.99 -0.735845 -1.39367 0
M  V30 27352 C 2532.92 -0.111547 -2.33233 0
M  V30 27353 C 2533.9 0.723307 -1.53955 0
M  V30 27354 O 2535.08 0.668115 -1.82345 0
M  V30 27355 C 2532.21 0.795857 -3.38058 0
M  V30 27356 C 2531.17 0.0650968 -4.2795 0
M  V30 27357 C 2530.49 1.08957 -5.23481 0
M  V30 27358 C 2531.79 -1.09282 -5.10739 0
M  V30 27359 H 2533.49 -0.895621 -2.8569 0
M  V30 27360 H 2531.03 -0.432134 -1.37363 0
M  V30 27361 H 2532.98 1.24214 -4.02677 0
M  V30 27362 H 2531.71 1.61206 -2.84043 0
M  V30 27363 H 2530.37 -0.361575 -3.64813 0
M  V30 27364 H 2530.02 1.89936 -4.65761 0
M  V30 27365 H 2529.72 0.605386 -5.84473 0
M  V30 27366 H 2531.24 1.53554 -5.90977 0
M  V30 27367 H 2532.65 -0.72494 -5.68698 0
M  V30 27368 H 2531.05 -1.5067 -5.80877 0
M  V30 27369 H 2532.12 -1.91412 -4.45522 0
M  V30 27370 N 2533.46 1.49999 -0.483543 0
M  V30 27371 C 2534.69 2.068 0.0644468 0
M  V30 27372 C 2535.11 1.34598 1.32397 0
M  V30 27373 O 2534.46 0.418977 1.77626 0
M  V30 27374 C 2534.51 3.59899 0.339863 0
M  V30 27375 O 2534.24 4.29381 -0.86971 0
M  V30 27376 C 2535.74 4.33361 0.933439 0
M  V30 27377 H 2532.96 0.670881 -0.0126451 0
M  V30 27378 H 2535.5 1.93007 -0.675897 0
M  V30 27379 H 2533.66 3.73452 1.03016 0
M  V30 27380 H 2534.07 5.208 -0.621882 0
M  V30 27381 H 2535.54 5.41415 1.07584 0
M  V30 27382 H 2536.02 3.94679 1.92678 0
M  V30 27383 H 2536.63 4.2437 0.281147 0
M  V30 27384 N 2534.94 0.216646 1.56104 0
M  V30 27385 C 2536.36 -0.138832 1.58995 0
M  V30 27386 C 2536.56 -1.59344 1.23336 0
M  V30 27387 O 2535.61 -2.3328 0.966275 0
M  V30 27388 C 2536.93 0.183021 3.00143 0
M  V30 27389 C 2538.47 0.124862 3.12751 0
M  V30 27390 C 2538.95 0.420321 4.56067 0
M  V30 27391 N 2540.44 0.369715 4.61722 0
M  V30 27392 C 2541.18 0.571889 5.70541 0
M  V30 27393 N 2540.67 0.835574 6.87743 0
M  V30 27394 N 2542.46 0.504662 5.5983 0
M  V30 27395 H 2534.62 1.16561 1.7756 0
M  V30 27396 H 2536.88 0.466843 0.825083 0
M  V30 27397 H 2536.58 1.19242 3.30869 0
M  V30 27398 H 2536.46 -0.504301 3.73814 0
M  V30 27399 H 2538.85 -0.875174 2.81824 0
M  V30 27400 H 2538.93 0.845586 2.4142 0
M  V30 27401 H 2538.57 1.41777 4.87711 0
M  V30 27402 H 2538.5 -0.321539 5.25617 0
M  V30 27403 H 2540.99 0.173405 3.77502 0
M  V30 27404 H 2541.3 0.978073 7.66586 0
M  V30 27405 H 2539.65 0.872713 6.89499 0
M  V30 27406 H 2542.84 0.298924 4.67145 0
M  V30 27407 H 2543.01 0.665632 6.44572 0
M  V30 27408 N 2536.42 -1.57498 -0.0567885 0
M  V30 27409 C 2537.7 -1.79072 -0.786923 0
M  V30 27410 C 2538.08 -0.807954 -1.95026 0
M  V30 27411 O 2537.42 0.155818 -2.27968 0
M  V30 27412 C 2537.63 -3.26004 -1.24589 0
M  V30 27413 C 2538.98 -3.90244 -1.67316 0
M  V30 27414 O 2540.01 -3.29986 -1.34118 0
M  V30 27415 O 2538.87 -4.96284 -2.28833 0
M  V30 27416 H 2535.96 -0.73543 -0.378249 0
M  V30 27417 H 2538.51 -1.69662 -0.0357042 0
M  V30 27418 H 2537.28 -3.89102 -0.414162 0
M  V30 27419 H 2536.9 -3.40196 -2.05797 0
M  V30 27420 N 2537.9 0.328509 -1.54138 0
M  V30 27421 C 2539.12 1.09109 -1.7638 0
M  V30 27422 C 2539.55 1.81093 -0.508628 0
M  V30 27423 O 2538.91 1.73085 0.539567 0
M  V30 27424 C 2538.95 2.06867 -2.95361 0
M  V30 27425 O 2538.06 3.14673 -2.66561 0
M  V30 27426 H 2537.4 0.314828 -0.584619 0
M  V30 27427 H 2539.93 0.374313 -2.01147 0
M  V30 27428 H 2539.94 2.49824 -3.22571 0
M  V30 27429 H 2538.61 1.53874 -3.86388 0
M  V30 27430 H 2537.19 2.76426 -2.50286 0
M  V30 27431 N 2539.38 1.46127 0.590316 0
M  V30 27432 C 2540.6 1.54835 1.37988 0
M  V30 27433 C 2541.03 0.187539 1.87163 0
M  V30 27434 O 2540.38 -0.830979 1.61135 0
M  V30 27435 C 2540.43 2.55102 2.54863 0
M  V30 27436 O 2539.54 2.08079 3.56057 0
M  V30 27437 H 2538.88 0.521311 0.411256 0
M  V30 27438 H 2541.41 1.91633 0.716785 0
M  V30 27439 H 2541.42 2.74466 3.01881 0
M  V30 27440 H 2540.09 3.53927 2.18423 0
M  V30 27441 H 2538.67 1.98669 3.15571 0
M  V30 27442 N 2540.85 -0.834306 1.33705 0
M  V30 27443 C 2542.1 -1.58481 1.24766 0
M  V30 27444 C 2542.42 -1.94735 -0.183741 0
M  V30 27445 O 2543.62 -2.68608 -0.395187 0
M  V30 27446 C 2542.08 -2.85872 2.18643 0
M  V30 27447 C 2541.69 -2.56965 3.66978 0
M  V30 27448 C 2543.43 -3.63895 2.18587 0
M  V30 27449 C 2541.34 -3.8048 4.52757 0
M  V30 27450 H 2540.27 -0.594764 0.463435 0
M  V30 27451 H 2542.92 -0.919523 1.58799 0
M  V30 27452 H 2541.3 -3.53967 1.77549 0
M  V30 27453 H 2542.47 -1.97053 4.16541 0
M  V30 27454 H 2540.79 -1.92238 3.69369 0
M  V30 27455 H 2543.39 -4.55586 2.79902 0
M  V30 27456 H 2543.73 -3.99163 1.18214 0
M  V30 27457 H 2544.26 -3.02731 2.58068 0
M  V30 27458 H 2541 -3.5034 5.54023 0
M  V30 27459 H 2540.52 -4.39715 4.07935 0
M  V30 27460 H 2542.2 -4.48012 4.66792 0
M  V30 27461 N 2542.33 -1.17248 -1.05312 0
M  V30 27462 C 2543.26 -0.9114 -2.14978 0
M  V30 27463 C 2544.24 0.146139 -1.69471 0
M  V30 27464 O 2545.43 -0.00384614 -1.942 0
M  V30 27465 C 2542.56 -0.422589 -3.44719 0
M  V30 27466 C 2541.51 -1.41917 -4.03786 0
M  V30 27467 C 2540.84 -0.788367 -5.28856 0
M  V30 27468 C 2542.14 -2.79198 -4.41413 0
M  V30 27469 H 2543.83 -1.82852 -2.37077 0
M  V30 27470 H 2541.38 -0.880589 -1.13937 0
M  V30 27471 H 2543.33 -0.227363 -4.20786 0
M  V30 27472 H 2542.05 0.530067 -3.2227 0
M  V30 27473 H 2540.71 -1.60112 -3.29787 0
M  V30 27474 H 2540.36 0.171085 -5.02709 0
M  V30 27475 H 2540.06 -1.45363 -5.69336 0
M  V30 27476 H 2541.59 -0.603389 -6.07611 0
M  V30 27477 H 2543 -2.64728 -5.08519 0
M  V30 27478 H 2541.4 -3.42291 -4.92907 0
M  V30 27479 H 2542.47 -3.337 -3.51813 0
M  V30 27480 N 2543.81 1.24015 -0.972531 0
M  V30 27481 C 2545.06 1.91838 -0.63581 0
M  V30 27482 C 2545.38 1.76346 0.832281 0
M  V30 27483 O 2544.65 1.13798 1.59458 0
M  V30 27484 H 2543.23 0.710005 -0.232169 0
M  V30 27485 H 2545.89 1.50806 -1.23464 0
M  V30 27486 H 2544.99 2.99419 -0.880597 0
M  V30 27487 N 2545.29 0.743226 1.38974 0
M  V30 27488 C 2546.7 0.363764 1.83122 0
M  V30 27489 C 2547.05 -1.10606 1.62052 0
M  V30 27490 O 2546.18 -1.85398 1.1161 0
M  V30 27491 C 2546.77 0.653467 3.32438 0
M  V30 27492 C 2545.33 0.327404 3.74973 0
M  V30 27493 C 2544.48 0.911921 2.61876 0
M  V30 27494 H 2547.43 0.940214 1.2785 0
M  V30 27495 H 2547.45 -0.0719362 3.80432 0
M  V30 27496 H 2546.96 1.72329 3.47742 0
M  V30 27497 H 2545.06 -0.73625 3.65254 0
M  V30 27498 H 2545.17 0.815714 4.72105 0
M  V30 27499 H 2543.54 0.337988 2.52447 0
M  V30 27500 H 2544.32 1.98656 2.79983 0
M  V30 27501 N 2546.77 -1.4974 0.491491 0
M  V30 27502 C 2547.72 -2.25868 -0.311046 0
M  V30 27503 C 2548.7 -1.3031 -0.943835 0
M  V30 27504 O 2549.89 -1.5509 -0.853008 0
M  V30 27505 C 2547.02 -3.14318 -1.38054 0
M  V30 27506 C 2546.11 -4.17335 -0.754468 0
M  V30 27507 N 2546.5 -5.05614 0.137305 0
M  V30 27508 C 2544.8 -4.3427 -1.01613 0
M  V30 27509 C 2545.5 -5.79592 0.494716 0
M  V30 27510 N 2544.47 -5.43432 -0.135073 0
M  V30 27511 H 2548.28 -2.9149 0.375601 0
M  V30 27512 H 2545.79 -1.59473 0.306945 0
M  V30 27513 H 2547.79 -3.67481 -1.96884 0
M  V30 27514 H 2546.45 -2.50248 -2.06897 0
M  V30 27515 H 2547.46 -5.15407 0.5075 0
M  V30 27516 H 2544.13 -3.8141 -1.69802 0
M  V30 27517 H 2545.52 -6.60662 1.22371 0
M  V30 27518 N 2548.24 -0.224922 -1.55987 0
M  V30 27519 C 2549.19 0.697258 -2.17077 0
M  V30 27520 C 2550.18 1.15512 -1.12008 0
M  V30 27521 O 2551.37 1.10855 -1.37986 0
M  V30 27522 C 2548.5 1.90369 -2.85683 0
M  V30 27523 C 2547.59 1.46536 -3.9798 0
M  V30 27524 N 2547.98 0.739821 -5.0036 0
M  V30 27525 C 2546.27 1.75238 -4.10131 0
M  V30 27526 C 2546.98 0.515837 -5.79408 0
M  V30 27527 N 2545.95 1.07354 -5.32894 0
M  V30 27528 H 2549.75 0.134542 -2.93592 0
M  V30 27529 H 2547.27 -0.0263171 -1.62379 0
M  V30 27530 H 2549.26 2.57512 -3.27861 0
M  V30 27531 H 2547.92 2.47084 -2.10664 0
M  V30 27532 H 2548.94 0.392162 -5.16413 0
M  V30 27533 H 2545.61 2.33249 -3.46267 0
M  V30 27534 H 2547 -0.061853 -6.71872 0
M  V30 27535 N 2549.72 1.57526 0.0484352 0
M  V30 27536 C 2550.65 2.08314 1.05486 0
M  V30 27537 C 2551.63 0.981488 1.38927 0
M  V30 27538 O 2552.82 1.25561 1.48149 0
M  V30 27539 C 2549.95 2.5465 2.36158 0
M  V30 27540 C 2548.9 3.68905 2.1701 0
M  V30 27541 C 2548.23 4.01377 3.53271 0
M  V30 27542 C 2549.53 4.98078 1.57211 0
M  V30 27543 H 2551.22 2.9265 0.632144 0
M  V30 27544 H 2548.77 1.40784 0.302629 0
M  V30 27545 H 2550.72 2.88799 3.06877 0
M  V30 27546 H 2549.45 1.67373 2.80453 0
M  V30 27547 H 2548.1 3.35076 1.48727 0
M  V30 27548 H 2547.75 3.11195 3.95179 0
M  V30 27549 H 2547.45 4.78324 3.41291 0
M  V30 27550 H 2548.98 4.38043 4.25384 0
M  V30 27551 H 2550.39 5.30307 2.17823 0
M  V30 27552 H 2548.79 5.79506 1.55861 0
M  V30 27553 H 2549.86 4.8193 0.535871 0
M  V30 27554 N 2551.2 -0.32033 1.5431 0
M  V30 27555 C 2552.48 -1.07632 1.63324 0
M  V30 27556 C 2552.86 -2.05821 0.469156 0
M  V30 27557 O 2552.21 -2.22119 -0.536235 0
M  V30 27558 C 2552.42 -1.77539 3.00468 0
M  V30 27559 C 2553.76 -2.30442 3.56625 0
M  V30 27560 O 2554.79 -1.87601 3.02794 0
M  V30 27561 O 2553.65 -3.08884 4.50836 0
M  V30 27562 H 2550.74 -0.496319 0.66151 0
M  V30 27563 H 2553.29 -0.319963 1.66656 0
M  V30 27564 H 2552.06 -1.06136 3.76631 0
M  V30 27565 H 2551.68 -2.59977 3.00829 0
M  V30 27566 N 2552.68 -1.46438 -0.582558 0
M  V30 27567 C 2553.59 -1.59598 -1.71946 0
M  V30 27568 C 2554.6 -0.479473 -1.67263 0
M  V30 27569 O 2555.78 -0.743612 -1.87169 0
M  V30 27570 C 2552.85 -1.58304 -3.08449 0
M  V30 27571 C 2551.91 -2.81188 -3.24395 0
M  V30 27572 C 2551.14 -2.79945 -4.54386 0
M  V30 27573 O 2551.36 -1.88699 -5.38283 0
M  V30 27574 O 2550.3 -3.71489 -4.73582 0
M  V30 27575 H 2554.12 -2.55747 -1.6379 0
M  V30 27576 H 2551.71 -1.29233 -0.74962 0
M  V30 27577 H 2553.59 -1.60278 -3.89729 0
M  V30 27578 H 2552.26 -0.65315 -3.17042 0
M  V30 27579 H 2551.17 -2.84767 -2.42608 0
M  V30 27580 H 2552.5 -3.73386 -3.20693 0
M  V30 27581 N 2554.16 0.827204 -1.34146 0
M  V30 27582 C 2555.4 1.58317 -1.26261 0
M  V30 27583 C 2555.73 1.93768 0.168561 0
M  V30 27584 O 2554.99 1.59868 1.12874 0
M  V30 27585 C 2555.29 2.89581 -2.09469 0
M  V30 27586 C 2554.95 2.73441 -3.58526 0
M  V30 27587 C 2553.61 2.68747 -3.9916 0
M  V30 27588 C 2555.97 2.5742 -4.53193 0
M  V30 27589 C 2553.29 2.45947 -5.3266 0
M  V30 27590 C 2555.65 2.36153 -5.86869 0
M  V30 27591 C 2554.31 2.29868 -6.26671 0
M  V30 27592 H 2553.58 0.579324 -0.462023 0
M  V30 27593 H 2556.23 0.95745 -1.65847 0
M  V30 27594 H 2554.53 3.56422 -1.62698 0
M  V30 27595 H 2556.23 3.4715 -2.00718 0
M  V30 27596 H 2552.82 2.77933 -3.26269 0
M  V30 27597 H 2557 2.60073 -4.227 0
M  V30 27598 H 2552.26 2.39536 -5.62523 0
M  V30 27599 H 2556.43 2.22742 -6.59817 0
M  V30 27600 H 2554.06 2.11962 -7.30052 0
M  V30 27601 N 2555.63 1.17805 1.04688 0
M  V30 27602 C 2556.88 0.963962 1.77174 0
M  V30 27603 C 2557.2 -0.507982 1.88889 0
M  V30 27604 O 2558.4 -0.840419 2.58165 0
M  V30 27605 C 2556.86 1.6756 3.18515 0
M  V30 27606 C 2556.47 3.18643 3.14914 0
M  V30 27607 C 2558.21 1.54409 3.95421 0
M  V30 27608 C 2556.12 3.82474 4.51074 0
M  V30 27609 H 2555.05 0.357035 0.66411 0
M  V30 27610 H 2557.7 1.41112 1.17301 0
M  V30 27611 H 2556.08 1.15619 3.78746 0
M  V30 27612 H 2557.25 3.77558 2.64171 0
M  V30 27613 H 2555.57 3.31864 2.51506 0
M  V30 27614 H 2558.17 1.99465 4.96103 0
M  V30 27615 H 2558.51 0.495402 4.13342 0
M  V30 27616 H 2559.04 2.03596 3.41751 0
M  V30 27617 H 2555.78 4.87362 4.38359 0
M  V30 27618 H 2555.3 3.28345 5.01946 0
M  V30 27619 H 2556.98 3.84974 5.20004 0
M  V30 27620 N 2557.11 -1.23497 0.979094 0
M  V30 27621 C 2558.53 -1.44033 0.687501 0
M  V30 27622 C 2558.73 -1.87151 -0.746768 0
M  V30 27623 O 2557.78 -2.01672 -1.51936 0
M  V30 27624 C 2559.1 -2.49304 1.68131 0
M  V30 27625 C 2560.65 -2.63119 1.69521 0
M  V30 27626 C 2561.12 -3.71598 2.67729 0
M  V30 27627 N 2562.61 -3.79039 2.6624 0
M  V30 27628 C 2563.35 -4.62531 3.38899 0
M  V30 27629 N 2562.84 -5.50123 4.21113 0
M  V30 27630 N 2564.64 -4.56716 3.2767 0
M  V30 27631 H 2556.79 -0.938101 1.90561 0
M  V30 27632 H 2559.05 -0.473883 0.82106 0
M  V30 27633 H 2558.76 -2.24536 2.70697 0
M  V30 27634 H 2558.63 -3.47668 1.46312 0
M  V30 27635 H 2561.02 -2.87239 0.676612 0
M  V30 27636 H 2561.1 -1.65076 1.95406 0
M  V30 27637 H 2560.74 -3.48227 3.6973 0
M  V30 27638 H 2560.67 -4.6918 2.39119 0
M  V30 27639 H 2563.16 -3.16443 2.06573 0
M  V30 27640 H 2563.48 -6.10819 4.73414 0
M  V30 27641 H 2561.82 -5.49751 4.25204 0
M  V30 27642 H 2565.01 -3.87304 2.62893 0
M  V30 27643 H 2565.18 -5.21556 3.84556 0
M  V30 27644 N 2558.59 -0.750586 -1.38578 0
M  V30 27645 C 2559.84 -0.30586 -2.0048 0
M  V30 27646 C 2560.17 1.10869 -1.59442 0
M  V30 27647 O 2559.45 1.75875 -0.830551 0
M  V30 27648 C 2559.73 -0.42535 -3.57579 0
M  V30 27649 C 2559.58 -1.88079 -4.08591 0
M  V30 27650 C 2560.9 0.183045 -4.39719 0
M  V30 27651 H 2558.02 -0.11261 -0.728346 0
M  V30 27652 H 2560.66 -0.949667 -1.64564 0
M  V30 27653 H 2558.81 0.122759 -3.88306 0
M  V30 27654 H 2560.48 -2.48698 -3.88519 0
M  V30 27655 H 2558.73 -2.39687 -3.61569 0
M  V30 27656 H 2559.4 -1.91557 -5.17697 0
M  V30 27657 H 2561.87 -0.284376 -4.15127 0
M  V30 27658 H 2560.75 0.0691792 -5.48856 0
M  V30 27659 H 2561.01 1.27099 -4.23436 0
M  V30 27660 N 2560.07 1.49477 -0.499425 0
M  V30 27661 C 2561.32 2.03365 0.0377229 0
M  V30 27662 C 2561.67 1.37246 1.34838 0
M  V30 27663 O 2560.96 0.49858 1.84999 0
M  V30 27664 C 2561.16 3.56536 0.248362 0
M  V30 27665 C 2560.99 4.37501 -1.04033 0
M  V30 27666 C 2559.76 4.79577 -1.59168 0
M  V30 27667 C 2561.95 4.76177 -1.94319 0
M  V30 27668 N 2559.94 5.44964 -2.82643 0
M  V30 27669 C 2561.31 5.41267 -3.02374 0
M  V30 27670 C 2563.36 4.58119 -1.95016 0
M  V30 27671 C 2562.07 5.9021 -4.11151 0
M  V30 27672 C 2564.09 5.08022 -3.02767 0
M  V30 27673 C 2563.45 5.73111 -4.09541 0
M  V30 27674 H 2559.55 0.781536 -0.0269367 0
M  V30 27675 H 2562.14 1.82664 -0.673933 0
M  V30 27676 H 2560.31 3.77124 0.929073 0
M  V30 27677 H 2562.04 3.97065 0.782376 0
M  V30 27678 H 2558.79 4.59748 -1.13704 0
M  V30 27679 H 2559.22 5.82246 -3.45426 0
M  V30 27680 H 2563.86 4.07205 -1.13773 0
M  V30 27681 H 2561.58 6.40146 -4.93192 0
M  V30 27682 H 2565.16 4.95861 -3.04324 0
M  V30 27683 H 2564.04 6.11027 -4.91545 0
M  V30 27684 N 2561.55 0.233191 1.55865 0
M  V30 27685 C 2562.51 -0.658676 2.19532 0
M  V30 27686 C 2563.51 -1.11301 1.16055 0
M  V30 27687 O 2564.7 -1.01993 1.4122 0
M  V30 27688 C 2561.83 -1.90368 2.82794 0
M  V30 27689 H 2563.03 -0.103418 2.99722 0
M  V30 27690 H 2560.58 -0.016397 1.56291 0
M  V30 27691 H 2561.31 -2.50052 2.06505 0
M  V30 27692 H 2561.1 -1.58626 3.58581 0
M  V30 27693 H 2562.59 -2.53885 3.3156 0
M  V30 27694 N 2563.03 -1.57549 -0.0400806 0
M  V30 27695 C 2563.94 -2.09222 -1.06129 0
M  V30 27696 C 2564.95 -1.02843 -1.40354 0
M  V30 27697 O 2566.13 -1.34512 -1.49895 0
M  V30 27698 C 2563.19 -2.55223 -2.34654 0
M  V30 27699 C 2562.25 -3.76037 -2.0711 0
M  V30 27700 C 2561.49 -4.19834 -3.29507 0
M  V30 27701 O 2561.71 -3.6324 -4.39787 0
M  V30 27702 O 2560.64 -5.12367 -3.15854 0
M  V30 27703 H 2564.47 -2.96614 -0.652192 0
M  V30 27704 H 2562.05 -1.47184 -0.256343 0
M  V30 27705 H 2563.94 -2.85189 -3.10234 0
M  V30 27706 H 2562.61 -1.70946 -2.7488 0
M  V30 27707 H 2561.52 -3.51106 -1.29133 0
M  V30 27708 H 2562.85 -4.61264 -1.71746 0
M  V30 27709 N 2564.5 0.312142 -1.54478 0
M  V30 27710 C 2565.73 1.06642 -1.76949 0
M  V30 27711 C 2566.14 1.8181 -0.523625 0
M  V30 27712 O 2565.48 1.76311 0.515749 0
M  V30 27713 C 2565.55 2.10161 -2.91672 0
M  V30 27714 C 2565.21 1.54288 -4.30167 0
M  V30 27715 C 2566.21 0.978703 -5.10605 0
M  V30 27716 C 2563.89 1.58187 -4.76741 0
M  V30 27717 C 2565.89 0.460936 -6.35731 0
M  V30 27718 C 2563.57 1.06023 -6.01832 0
M  V30 27719 C 2564.57 0.500724 -6.81162 0
M  V30 27720 O 2564.26 -0.0130371 -8.03899 0
M  V30 27721 H 2563.99 0.322535 -0.594093 0
M  V30 27722 H 2566.55 0.360405 -2.02213 0
M  V30 27723 H 2564.78 2.84411 -2.62006 0
M  V30 27724 H 2566.46 2.71401 -3.01822 0
M  V30 27725 H 2567.23 0.941567 -4.75773 0
M  V30 27726 H 2563.11 2.00676 -4.1503 0
M  V30 27727 H 2566.65 0.0235667 -6.97596 0
M  V30 27728 H 2562.55 1.09448 -6.36154 0
M  V30 27729 H 2563.32 0.101314 -8.18437 0
M  V30 27730 N 2565.98 1.46745 0.574784 0
M  V30 27731 C 2567.26 1.42942 1.33518 0
M  V30 27732 C 2567.64 0.117046 2.10775 0
M  V30 27733 O 2566.99 -0.901437 2.09968 0
M  V30 27734 C 2567.2 2.66407 2.25451 0
M  V30 27735 C 2568.54 3.12888 2.8703 0
M  V30 27736 O 2569.57 2.67011 2.35761 0
M  V30 27737 O 2568.43 3.92596 3.80172 0
M  V30 27738 H 2565.52 0.568823 0.600308 0
M  V30 27739 H 2568.07 1.58922 0.595143 0
M  V30 27740 H 2566.84 3.53474 1.67845 0
M  V30 27741 H 2566.46 2.52926 3.0678 0
M  V30 27742 N 2567.46 -0.820078 1.34583 0
M  V30 27743 C 2568.87 -1.39307 1.243 0
M  V30 27744 C 2569.22 -1.95767 -0.130317 0
M  V30 27745 O 2568.35 -1.90274 -1.03077 0
M  V30 27746 C 2568.94 -2.53247 2.25058 0
M  V30 27747 C 2567.5 -3.06446 2.18558 0
M  V30 27748 C 2566.65 -1.79333 2.11506 0
M  V30 27749 H 2569.6 -0.624236 1.45907 0
M  V30 27750 H 2569.62 -3.31421 1.86923 0
M  V30 27751 H 2569.13 -2.12125 3.25 0
M  V30 27752 H 2567.23 -3.52067 1.21982 0
M  V30 27753 H 2567.35 -3.65344 3.09937 0
M  V30 27754 H 2565.71 -2.00344 1.57271 0
M  V30 27755 H 2566.49 -1.40381 3.13286 0
M  V30 27756 N 2568.94 -1.18359 -1.04062 0
M  V30 27757 C 2569.9 -0.912744 -2.10242 0
M  V30 27758 C 2570.9 0.1019 -1.60477 0
M  V30 27759 O 2572.09 -0.131547 -1.73703 0
M  V30 27760 C 2569.22 -0.369446 -3.38892 0
M  V30 27761 H 2570.42 -1.8543 -2.35702 0
M  V30 27762 H 2567.97 -0.995615 -1.20487 0
M  V30 27763 H 2568.7 0.57872 -3.19095 0
M  V30 27764 H 2568.49 -1.10086 -3.76329 0
M  V30 27765 H 2569.98 -0.198648 -4.17127 0
M  V30 27766 N 2570.42 1.22976 -0.98563 0
M  V30 27767 C 2571.38 2.22866 -0.53511 0
M  V30 27768 C 2572.38 1.56292 0.378096 0
M  V30 27769 O 2573.57 1.73358 0.171061 0
M  V30 27770 C 2570.7 3.40172 0.222642 0
M  V30 27771 H 2571.89 2.64238 -1.4184 0
M  V30 27772 H 2569.45 1.359 -0.772066 0
M  V30 27773 H 2570.18 3.04264 1.12224 0
M  V30 27774 H 2569.97 3.89702 -0.432948 0
M  V30 27775 H 2571.46 4.14271 0.526262 0
M  V30 27776 N 2571.89 0.757924 1.38178 0
M  V30 27777 C 2573.13 0.321004 2.01864 0
M  V30 27778 C 2573.5 -1.07824 1.58864 0
M  V30 27779 O 2574.7 -1.61452 2.14911 0
M  V30 27780 C 2572.97 0.444523 3.54625 0
M  V30 27781 S 2574.53 0.0908238 4.38706 0
M  V30 27782 H 2571.35 0.124281 0.700054 0
M  V30 27783 H 2573.95 0.989498 1.6861 0
M  V30 27784 H 2572.65 1.46377 3.83408 0
M  V30 27785 H 2572.18 -0.241004 3.92661 0
M  V30 27786 H 2574.2 -1.11818 4.83437 0
M  V30 27787 N 2573.37 -1.4921 0.507345 0
M  V30 27788 C 2574.62 -2.0207 -0.0348484 0
M  V30 27789 C 2574.94 -1.38869 -1.36896 0
M  V30 27790 O 2574.21 -0.546184 -1.88132 0
M  V30 27791 H 2572.79 -0.746831 -0.0158681 0
M  V30 27792 H 2575.45 -1.83167 0.66603 0
M  V30 27793 H 2574.55 -3.1169 -0.159862 0
M  V30 27794 N 2574.85 -0.241454 -1.55739 0
M  V30 27795 C 2576.27 0.11352 -1.59196 0
M  V30 27796 C 2576.47 1.57362 -1.25855 0
M  V30 27797 O 2575.52 2.31713 -1.00327 0
M  V30 27798 C 2576.84 -0.230748 -2.99813 0
M  V30 27799 C 2578.38 -0.174602 -3.12513 0
M  V30 27800 C 2578.86 -0.492825 -4.55341 0
M  V30 27801 N 2580.35 -0.443124 -4.61076 0
M  V30 27802 C 2581.08 -0.662585 -5.69559 0
M  V30 27803 N 2580.58 -0.944882 -6.86326 0
M  V30 27804 N 2582.37 -0.593662 -5.58956 0
M  V30 27805 H 2574.52 -1.19371 -1.75683 0
M  V30 27806 H 2576.79 -0.47991 -0.817552 0
M  V30 27807 H 2576.49 -1.24491 -3.2893 0
M  V30 27808 H 2576.37 0.444767 -3.74569 0
M  V30 27809 H 2578.75 0.830227 -2.83181 0
M  V30 27810 H 2578.84 -0.883887 -2.40044 0
M  V30 27811 H 2578.48 -1.49518 -4.85393 0
M  V30 27812 H 2578.41 0.237877 -5.26062 0
M  V30 27813 H 2580.9 -0.23344 -3.77178 0
M  V30 27814 H 2581.21 -1.09991 -7.64933 0
M  V30 27815 H 2579.56 -0.982296 -6.88023 0
M  V30 27816 H 2582.75 -0.373205 -4.6661 0
M  V30 27817 H 2582.92 -0.768094 -6.43432 0
M  V30 27818 N 2576.33 1.57568 0.0317248 0
M  V30 27819 C 2577.58 1.88331 0.722098 0
M  V30 27820 C 2577.89 0.839618 1.76663 0
M  V30 27821 O 2579.1 1.03639 2.50941 0
M  V30 27822 C 2577.55 3.34209 1.33538 0
M  V30 27823 C 2577.16 4.46803 0.327336 0
M  V30 27824 C 2578.9 3.74124 2.00579 0
M  V30 27825 C 2576.81 5.83739 0.948812 0
M  V30 27826 H 2575.74 0.702666 0.273453 0
M  V30 27827 H 2578.39 1.83485 -0.0236134 0
M  V30 27828 H 2576.77 3.33792 2.13071 0
M  V30 27829 H 2577.95 4.58684 -0.441086 0
M  V30 27830 H 2576.26 4.15703 -0.240831 0
M  V30 27831 H 2578.86 4.73749 2.47924 0
M  V30 27832 H 2579.2 3.0598 2.8228 0
M  V30 27833 H 2579.74 3.76704 1.27824 0
M  V30 27834 H 2576.48 6.55276 0.171271 0
M  V30 27835 H 2576 5.75583 1.68714 0
M  V30 27836 H 2577.67 6.30383 1.45694 0
M  V30 27837 N 2577.81 -0.303946 1.54641 0
M  V30 27838 C 2579.03 -1.06289 1.78094 0
M  V30 27839 C 2579.46 -1.80261 0.537374 0
M  V30 27840 O 2578.81 -1.73921 -0.511963 0
M  V30 27841 C 2578.86 -2.02142 2.98615 0
M  V30 27842 O 2577.97 -3.10392 2.71534 0
M  V30 27843 H 2577.31 -0.305487 0.589554 0
M  V30 27844 H 2579.84 -0.342265 2.01717 0
M  V30 27845 H 2579.85 -2.44661 3.26504 0
M  V30 27846 H 2578.52 -1.47707 3.88787 0
M  V30 27847 H 2577.1 -2.72409 2.54652 0
M  V30 27848 N 2579.28 -1.47047 -0.566994 0
M  V30 27849 C 2580.51 -1.5654 -1.34828 0
M  V30 27850 C 2580.92 -0.211043 -1.88019 0
M  V30 27851 O 2580.27 0.804358 -1.65154 0
M  V30 27852 C 2580.33 -2.5226 -2.56135 0
M  V30 27853 C 2579.99 -3.98169 -2.243 0
M  V30 27854 C 2580.99 -4.86935 -1.82183 0
M  V30 27855 C 2578.67 -4.43428 -2.3596 0
M  V30 27856 C 2580.67 -6.18976 -1.52142 0
M  V30 27857 C 2578.35 -5.755 -2.05532 0
M  V30 27858 C 2579.35 -6.63095 -1.6369 0
M  V30 27859 O 2579.04 -7.92714 -1.33643 0
M  V30 27860 H 2578.77 -0.531531 -0.417674 0
M  V30 27861 H 2581.33 -1.93296 -0.694692 0
M  V30 27862 H 2579.56 -2.10553 -3.24352 0
M  V30 27863 H 2581.25 -2.51987 -3.18209 0
M  V30 27864 H 2582.01 -4.5322 -1.72676 0
M  V30 27865 H 2577.89 -3.75461 -2.67489 0
M  V30 27866 H 2581.43 -6.87304 -1.19409 0
M  V30 27867 H 2577.33 -6.08759 -2.14669 0
M  V30 27868 H 2578.1 -8.05126 -1.47356 0
M  V30 27869 N 2580.76 0.812929 -1.35016 0
M  V30 27870 C 2581.71 1.94582 -1.27438 0
M  V30 27871 C 2582.7 1.6854 -0.170523 0
M  V30 27872 O 2583.91 1.76834 -0.336117 0
M  V30 27873 H 2580.29 0.639191 -0.396155 0
M  V30 27874 H 2582.26 1.98094 -2.23162 0
M  V30 27875 C 2581.01 3.3125 -1.05683 0
M  V30 27876 H 2580.33 3.51843 -1.89859 0
M  V30 27877 H 2581.77 4.10941 -1.0442 0
M  V30 27878 C 2580.23 3.36047 0.239556 0
M  V30 27879 O 2580.76 3.82163 1.23753 0
M  V30 27880 N 2578.96 2.89285 0.276135 0
M  V30 27881 H 2578.51 2.5195 -0.536574 0
M  V30 27882 H 2578.47 2.92877 1.14327 0
M  V30 27883 N 2582.24 1.18909 1.03433 0
M  V30 27884 C 2583.52 0.897841 1.73776 0
M  V30 27885 C 2583.9 -0.597796 2.02459 0
M  V30 27886 O 2583.25 -1.55438 1.67485 0
M  V30 27887 C 2583.46 1.75192 3.01842 0
M  V30 27888 C 2584.8 1.98286 3.75457 0
M  V30 27889 O 2585.83 1.72298 3.11756 0
M  V30 27890 O 2584.69 2.42074 4.89962 0
M  V30 27891 H 2581.78 0.334112 0.756504 0
M  V30 27892 H 2584.33 1.29695 1.09441 0
M  V30 27893 H 2583.1 2.7655 2.76831 0
M  V30 27894 H 2582.72 1.35174 3.73917 0
M  V30 27895 N 2583.72 -1.22452 0.992137 0
M  V30 27896 C 2584.65 -2.22949 0.48674 0
M  V30 27897 C 2585.63 -1.56175 -0.452562 0
M  V30 27898 O 2586.81 -1.84665 -0.378284 0
M  V30 27899 C 2583.94 -3.37417 -0.294477 0
M  V30 27900 C 2582.99 -4.2239 0.590702 0
M  V30 27901 S 2583.82 -4.94892 2.04555 0
M  V30 27902 C 2584.98 -6.12801 1.2738 0
M  V30 27903 H 2585.21 -2.65473 1.33833 0
M  V30 27904 H 2582.74 -1.32116 0.799046 0
M  V30 27905 H 2584.7 -4.0379 -0.73917 0
M  V30 27906 H 2583.36 -2.93402 -1.12133 0
M  V30 27907 H 2582.55 -5.03999 -0.0103489 0
M  V30 27908 H 2582.16 -3.61145 0.972127 0
M  V30 27909 H 2584.45 -6.75336 0.541062 0
M  V30 27910 H 2585.39 -6.77316 2.06514 0
M  V30 27911 H 2585.8 -5.58981 0.787423 0
M  V30 27912 N 2585.2 -0.765242 -1.37774 0
M  V30 27913 C 2586.44 -0.326623 -1.99849 0
M  V30 27914 C 2586.77 1.09501 -1.60747 0
M  V30 27915 O 2586.03 1.76658 -0.842052 0
M  V30 27916 C 2586.33 -0.410115 -3.55039 0
M  V30 27917 C 2585.99 -1.78907 -4.13888 0
M  V30 27918 C 2584.65 -2.16642 -4.29674 0
M  V30 27919 C 2587.01 -2.69309 -4.46231 0
M  V30 27920 C 2584.33 -3.44229 -4.75104 0
M  V30 27921 C 2586.69 -3.96298 -4.93082 0
M  V30 27922 C 2585.35 -4.34087 -5.07074 0
M  V30 27923 H 2584.62 -0.11952 -0.731297 0
M  V30 27924 H 2587.27 -0.977997 -1.64643 0
M  V30 27925 H 2585.57 0.324809 -3.90451 0
M  V30 27926 H 2587.27 -0.0521404 -4.00966 0
M  V30 27927 H 2583.86 -1.48576 -4.02024 0
M  V30 27928 H 2588.04 -2.41417 -4.33626 0
M  V30 27929 H 2583.3 -3.7341 -4.84123 0
M  V30 27930 H 2587.47 -4.66482 -5.17076 0
M  V30 27931 H 2585.1 -5.33011 -5.42036 0
M  V30 27932 N 2586.67 1.48939 -0.515251 0
M  V30 27933 C 2587.58 2.33158 0.259733 0
M  V30 27934 C 2588.6 1.4555 0.953475 0
M  V30 27935 O 2589.78 1.78553 0.931703 0
M  V30 27936 C 2586.84 3.21329 1.30187 0
M  V30 27937 C 2585.9 4.24799 0.620054 0
M  V30 27938 C 2585.14 5.08756 1.61254 0
M  V30 27939 O 2585.36 4.94453 2.84381 0
M  V30 27940 O 2584.29 5.90616 1.16003 0
M  V30 27941 H 2588.12 3.00641 -0.429984 0
M  V30 27942 H 2585.7 1.46821 -0.276372 0
M  V30 27943 H 2587.59 3.75909 1.90448 0
M  V30 27944 H 2586.26 2.56524 1.97426 0
M  V30 27945 H 2585.17 3.74093 -0.0226677 0
M  V30 27946 H 2586.5 4.92199 -0.0101358 0
M  V30 27947 N 2588.15 0.249709 1.55609 0
M  V30 27948 C 2589.09 -0.68937 2.17538 0
M  V30 27949 C 2590.06 -1.17081 1.12831 0
M  V30 27950 O 2591.25 -1.24844 1.41232 0
M  V30 27951 C 2588.38 -1.9372 2.77831 0
M  V30 27952 C 2587.42 -1.59339 3.95618 0
M  V30 27953 S 2588.25 -0.693577 5.30989 0
M  V30 27954 C 2589.41 -1.95035 5.94737 0
M  V30 27955 H 2589.64 -0.163089 2.96852 0
M  V30 27956 H 2587.18 0.0341437 1.54362 0
M  V30 27957 H 2589.13 -2.65356 3.13204 0
M  V30 27958 H 2587.8 -2.43461 1.98458 0
M  V30 27959 H 2586.99 -2.52125 4.36405 0
M  V30 27960 H 2586.59 -0.957448 3.61537 0
M  V30 27961 H 2588.88 -2.89729 6.12424 0
M  V30 27962 H 2589.83 -1.58592 6.90112 0
M  V30 27963 H 2590.23 -2.10372 5.23836 0
M  V30 27964 N 2589.63 -1.57583 -0.0233682 0
M  V30 27965 C 2590.56 -2.09966 -1.02159 0
M  V30 27966 C 2591.54 -1.00347 -1.37348 0
M  V30 27967 O 2592.73 -1.27902 -1.46133 0
M  V30 27968 C 2589.86 -2.58375 -2.32077 0
M  V30 27969 C 2588.81 -3.72311 -2.11113 0
M  V30 27970 C 2588.14 -4.06947 -3.46841 0
M  V30 27971 C 2589.44 -5.00516 -1.49267 0
M  V30 27972 H 2591.13 -2.93619 -0.585506 0
M  V30 27973 H 2588.68 -1.41248 -0.280194 0
M  V30 27974 H 2590.63 -2.93644 -3.02243 0
M  V30 27975 H 2589.35 -1.71813 -2.77755 0
M  V30 27976 H 2588.01 -3.37399 -1.43378 0
M  V30 27977 H 2587.66 -3.17442 -3.90179 0
M  V30 27978 H 2587.36 -4.83694 -3.33638 0
M  V30 27979 H 2588.89 -4.44755 -4.18361 0
M  V30 27980 H 2590.3 -5.33706 -2.09359 0
M  V30 27981 H 2588.7 -5.81912 -1.46622 0
M  V30 27982 H 2589.77 -4.82721 -0.459132 0
M  V30 27983 N 2591.11 0.29574 -1.548 0
M  V30 27984 C 2592.06 1.36491 -1.86115 0
M  V30 27985 C 2593.03 1.50136 -0.710527 0
M  V30 27986 O 2594.21 1.6491 -0.959655 0
M  V30 27987 C 2591.35 2.72409 -2.11866 0
M  V30 27988 C 2590.46 2.67171 -3.39475 0
M  V30 27989 C 2589.6 3.95119 -3.55042 0
M  V30 27990 C 2588.64 3.84299 -4.76425 0
M  V30 27991 N 2587.78 5.04033 -4.88769 0
M  V30 27992 H 2592.62 1.09086 -2.77316 0
M  V30 27993 H 2590.15 0.527506 -1.37316 0
M  V30 27994 H 2592.11 3.51461 -2.24792 0
M  V30 27995 H 2590.74 2.98064 -1.23925 0
M  V30 27996 H 2589.79 1.79956 -3.35142 0
M  V30 27997 H 2591.1 2.55069 -4.28651 0
M  V30 27998 H 2590.26 4.82608 -3.67661 0
M  V30 27999 H 2589 4.10061 -2.64009 0
M  V30 28000 H 2588 2.95194 -4.63833 0
M  V30 28001 H 2589.23 3.70896 -5.6887 0
M  V30 28002 H 2587.17 5.19429 -4.00661 0
M  V30 28003 H 2587.09 4.94374 -5.71954 0
M  V30 28004 H 2588.36 5.93158 -5.0575 0
M  V30 28005 N 2592.59 1.47346 0.559187 0
M  V30 28006 C 2593.54 1.56093 1.66189 0
M  V30 28007 C 2594.52 0.419985 1.55322 0
M  V30 28008 O 2595.71 0.669791 1.63838 0
M  V30 28009 C 2592.84 1.57639 3.04967 0
M  V30 28010 C 2591.93 2.77111 3.21045 0
M  V30 28011 N 2592.32 4.01827 3.07196 0
M  V30 28012 C 2590.62 2.73831 3.52041 0
M  V30 28013 C 2591.32 4.81827 3.25911 0
M  V30 28014 N 2590.29 4.14112 3.52153 0
M  V30 28015 H 2594.1 2.50293 1.54047 0
M  V30 28016 H 2591.61 1.43313 0.763889 0
M  V30 28017 H 2593.61 1.61996 3.84139 0
M  V30 28018 H 2592.27 0.645337 3.18222 0
M  V30 28019 H 2593.28 4.32717 2.84564 0
M  V30 28020 H 2589.96 1.89854 3.71835 0
M  V30 28021 H 2591.35 5.90703 3.20188 0
M  V30 28022 N 2594.07 -0.805758 1.35445 0
M  V30 28023 C 2595 -1.92351 1.22786 0
M  V30 28024 C 2595.98 -1.62189 0.115572 0
M  V30 28025 O 2597.16 -1.86351 0.28381 0
M  V30 28026 C 2594.29 -3.26776 0.890804 0
M  V30 28027 C 2593.33 -3.75885 2.01526 0
M  V30 28028 S 2594.17 -3.9359 3.63108 0
M  V30 28029 C 2595.32 -5.30915 3.31481 0
M  V30 28030 H 2595.56 -2.02795 2.17397 0
M  V30 28031 H 2593.09 -0.963224 1.2067 0
M  V30 28032 H 2595.05 -4.04433 0.703139 0
M  V30 28033 H 2593.71 -3.14078 -0.03726 0
M  V30 28034 H 2592.9 -4.73247 1.73359 0
M  V30 28035 H 2592.5 -3.05228 2.1613 0
M  V30 28036 H 2594.79 -6.14935 2.84361 0
M  V30 28037 H 2595.74 -5.64076 4.28046 0
M  V30 28038 H 2596.15 -4.97241 2.6723 0
M  V30 28039 N 2595.54 -1.19456 -1.02801 0
M  V30 28040 C 2596.77 -1.02367 -1.80377 0
M  V30 28041 C 2597.19 0.422975 -1.83283 0
M  V30 28042 O 2596.55 1.30411 -1.25947 0
M  V30 28043 C 2596.6 -1.59827 -3.23246 0
M  V30 28044 O 2595.7 -0.828176 -4.03999 0
M  V30 28045 H 2595.04 -0.361771 -0.556792 0
M  V30 28046 H 2597.57 -1.58498 -1.29382 0
M  V30 28047 H 2597.58 -1.63079 -3.73991 0
M  V30 28048 H 2596.26 -2.65118 -3.20445 0
M  V30 28049 H 2594.84 -0.868973 -3.62634 0
M  V30 28050 N 2597.02 1.21924 -0.998617 0
M  V30 28051 C 2598.43 1.72592 -0.71197 0
M  V30 28052 C 2598.78 1.80424 0.77081 0
M  V30 28053 O 2597.91 1.45443 1.60235 0
M  V30 28054 C 2598.5 3.13456 -1.28573 0
M  V30 28055 C 2597.06 3.61506 -1.04834 0
M  V30 28056 C 2596.21 2.39221 -1.40244 0
M  V30 28057 H 2599.16 1.07191 -1.17029 0
M  V30 28058 H 2599.18 3.74605 -0.667164 0
M  V30 28059 H 2598.69 3.07723 -2.36492 0
M  V30 28060 H 2596.79 3.72597 0.0139728 0
M  V30 28061 H 2596.91 4.47325 -1.71574 0
M  V30 28062 H 2595.27 2.41101 -0.821119 0
M  V30 28063 H 2596.05 2.36145 -2.4918 0
M  V30 28064 N 2598.5 0.772537 1.37367 0
M  V30 28065 C 2599.91 0.402525 1.82309 0
M  V30 28066 C 2600.26 -1.07144 1.64362 0
M  V30 28067 O 2599.39 -1.82988 1.15517 0
M  V30 28068 C 2599.98 0.723835 3.30977 0
M  V30 28069 C 2598.54 0.406868 3.74195 0
M  V30 28070 C 2597.69 0.967264 2.59883 0
M  V30 28071 H 2600.64 0.967121 1.25827 0
M  V30 28072 H 2600.66 0.0087752 3.80499 0
M  V30 28073 H 2600.17 1.79666 3.44008 0
M  V30 28074 H 2598.27 -0.658608 3.66733 0
M  V30 28075 H 2598.39 0.915671 4.70268 0
M  V30 28076 H 2596.75 0.39146 2.51674 0
M  V30 28077 H 2597.53 2.04551 2.75706 0
M  V30 28078 N 2599.98 -1.48664 0.523142 0
M  V30 28079 C 2600.91 -2.32342 -0.232269 0
M  V30 28080 C 2601.89 -1.4166 -0.941612 0
M  V30 28081 O 2603.07 -1.70553 -0.928721 0
M  V30 28082 C 2600.2 -3.227 -1.28381 0
M  V30 28083 C 2599.16 -4.22352 -0.693024 0
M  V30 28084 C 2598.48 -5.01797 -1.84672 0
M  V30 28085 C 2599.78 -5.21252 0.330721 0
M  V30 28086 H 2601.48 -2.95747 0.466244 0
M  V30 28087 H 2599.02 -1.42221 0.225668 0
M  V30 28088 H 2600.98 -3.80063 -1.82018 0
M  V30 28089 H 2599.7 -2.57281 -2.01181 0
M  V30 28090 H 2598.36 -3.66166 -0.178235 0
M  V30 28091 H 2598.01 -4.32808 -2.56293 0
M  V30 28092 H 2597.71 -5.6924 -1.45737 0
M  V30 28093 H 2599.23 -5.6201 -2.38699 0
M  V30 28094 H 2600.65 -5.73178 -0.118306 0
M  V30 28095 H 2599.04 -5.96709 0.637079 0
M  V30 28096 H 2600.11 -4.68806 1.23891 0
M  V30 28097 N 2601.46 -0.257958 -1.55475 0
M  V30 28098 C 2602.7 0.362974 -1.98814 0
M  V30 28099 C 2603.02 1.57655 -1.1476 0
M  V30 28100 O 2602.29 1.9451 -0.23299 0
M  V30 28101 H 2600.87 0.1371 -0.734311 0
M  V30 28102 H 2603.54 -0.359314 -1.91559 0
M  V30 28103 H 2602.63 0.66458 -3.04942 0
M  V30 28104 N 2602.93 1.57593 0.0150108 0
M  V30 28105 C 2603.86 2.10505 1.01044 0
M  V30 28106 C 2604.85 1.01074 1.36814 0
M  V30 28107 O 2606.03 1.28675 1.45452 0
M  V30 28108 C 2603.16 2.59602 2.30703 0
M  V30 28109 C 2602.11 3.73425 2.09136 0
M  V30 28110 C 2601.44 4.0878 3.44678 0
M  V30 28111 C 2602.74 5.01301 1.4661 0
M  V30 28112 H 2604.43 2.93926 0.569926 0
M  V30 28113 H 2601.98 1.41394 0.272699 0
M  V30 28114 H 2603.93 2.95243 3.00682 0
M  V30 28115 H 2602.66 1.73284 2.7684 0
M  V30 28116 H 2601.32 3.38155 1.41586 0
M  V30 28117 H 2600.96 3.19507 3.8849 0
M  V30 28118 H 2600.66 4.85456 3.31068 0
M  V30 28119 H 2602.19 4.46967 4.15996 0
M  V30 28120 H 2603.6 5.34809 2.06525 0
M  V30 28121 H 2602 5.82682 1.43534 0
M  V30 28122 H 2603.07 4.82958 0.433526 0
M  V30 28123 N 2604.41 -0.287527 1.54955 0
M  V30 28124 C 2605.66 -1.01901 1.7453 0
M  V30 28125 C 2605.98 -1.87334 0.541382 0
M  V30 28126 O 2605.25 -1.908 -0.444075 0
M  V30 28127 H 2603.83 -0.379223 0.643583 0
M  V30 28128 H 2606.49 -0.31526 1.92333 0
M  V30 28129 H 2605.59 -1.66435 2.64018 0
M  V30 28130 N 2605.89 -1.47641 -0.551365 0
M  V30 28131 C 2606.84 -1.60566 -1.65793 0
M  V30 28132 C 2607.81 -0.448456 -1.59931 0
M  V30 28133 O 2608.99 -0.669253 -1.78677 0
M  V30 28134 C 2606.13 -1.63139 -3.04105 0
M  V30 28135 C 2605.25 -2.89817 -3.2036 0
M  V30 28136 C 2604.38 -2.83688 -4.49104 0
M  V30 28137 C 2603.42 -4.05164 -4.58812 0
M  V30 28138 N 2602.56 -3.97237 -5.78919 0
M  V30 28139 H 2607.4 -2.55073 -1.54084 0
M  V30 28140 H 2604.93 -1.26515 -0.750498 0
M  V30 28141 H 2606.89 -1.62613 -3.84204 0
M  V30 28142 H 2605.52 -0.721396 -3.14636 0
M  V30 28143 H 2604.57 -3.00183 -2.33654 0
M  V30 28144 H 2605.89 -3.79759 -3.23396 0
M  V30 28145 H 2605.04 -2.81444 -5.3747 0
M  V30 28146 H 2603.78 -1.91438 -4.48556 0
M  V30 28147 H 2602.78 -4.07707 -3.68857 0
M  V30 28148 H 2604.01 -4.98548 -4.61115 0
M  V30 28149 H 2601.95 -3.07795 -5.79308 0
M  V30 28150 H 2601.87 -4.80863 -5.83358 0
M  V30 28151 H 2603.14 -3.99019 -6.6963 0
M  V30 28152 N 2607.37 0.798563 -1.3587 0
M  V30 28153 C 2608.32 1.9108 -1.2945 0
M  V30 28154 C 2609.29 1.65279 -0.164899 0
M  V30 28155 O 2610.47 1.87564 -0.349921 0
M  V30 28156 C 2607.61 3.2775 -1.08046 0
M  V30 28157 C 2606.72 3.65683 -2.29999 0
M  V30 28158 C 2605.86 4.91425 -2.01681 0
M  V30 28159 C 2604.9 5.22009 -3.19645 0
M  V30 28160 N 2604.03 6.38932 -2.91051 0
M  V30 28161 H 2608.87 1.95904 -2.24557 0
M  V30 28162 H 2606.41 0.958129 -1.11617 0
M  V30 28163 H 2608.37 4.0655 -0.936657 0
M  V30 28164 H 2607 3.22373 -0.165977 0
M  V30 28165 H 2606.05 2.8208 -2.55216 0
M  V30 28166 H 2607.36 3.8424 -3.18059 0
M  V30 28167 H 2606.52 5.78069 -1.84178 0
M  V30 28168 H 2605.26 4.74919 -1.10919 0
M  V30 28169 H 2604.26 4.33852 -3.37717 0
M  V30 28170 H 2605.49 5.40439 -4.1122 0
M  V30 28171 H 2603.43 6.23836 -2.02891 0
M  V30 28172 H 2603.35 6.57777 -3.72646 0
M  V30 28173 H 2604.62 7.28582 -2.77106 0
M  V30 28174 N 2608.85 1.19999 1.02166 0
M  V30 28175 C 2610.09 1.01828 1.7723 0
M  V30 28176 C 2610.45 -0.442395 1.86834 0
M  V30 28177 O 2611.65 -0.744144 2.58294 0
M  V30 28178 C 2609.92 1.67727 3.15598 0
M  V30 28179 S 2611.48 1.64591 4.06762 0
M  V30 28180 H 2608.3 0.365244 0.610015 0
M  V30 28181 H 2610.9 1.52469 1.22366 0
M  V30 28182 H 2609.61 2.73223 3.06231 0
M  V30 28183 H 2609.14 1.17196 3.75538 0
M  V30 28184 H 2611.15 0.675196 4.91585 0
M  V30 28185 N 2610.32 -1.21392 1.00507 0
M  V30 28186 C 2611.74 -1.72212 0.721112 0
M  V30 28187 C 2612.09 -1.80831 -0.761231 0
M  V30 28188 O 2611.21 -1.46291 -1.59461 0
M  V30 28189 C 2611.81 -3.12769 1.30233 0
M  V30 28190 C 2610.37 -3.60945 1.0675 0
M  V30 28191 C 2609.51 -2.38474 1.41511 0
M  V30 28192 H 2612.46 -1.06568 1.17596 0
M  V30 28193 H 2612.48 -3.74246 0.687021 0
M  V30 28194 H 2612 -3.06464 2.3812 0
M  V30 28195 H 2610.1 -3.726 0.00578711 0
M  V30 28196 H 2610.21 -4.46408 1.73944 0
M  V30 28197 H 2608.57 -2.40662 0.833894 0
M  V30 28198 H 2609.36 -2.3482 2.50429 0
M  V30 28199 N 2611.8 -0.779811 -1.36955 0
M  V30 28200 C 2612.77 -0.177702 -2.2851 0
M  V30 28201 C 2613.77 0.619351 -1.48394 0
M  V30 28202 O 2614.96 0.441755 -1.68506 0
M  V30 28203 C 2612.09 0.75522 -3.32429 0
M  V30 28204 H 2613.28 -0.984873 -2.83267 0
M  V30 28205 H 2610.83 -0.54857 -1.46357 0
M  V30 28206 H 2611.57 1.58709 -2.82811 0
M  V30 28207 H 2611.35 0.185749 -3.9166 0
M  V30 28208 H 2612.84 1.17167 -4.00826 0
M  V30 28209 N 2613.28 1.48384 -0.531019 0
M  V30 28210 C 2614.7 1.58478 -0.188946 0
M  V30 28211 C 2614.9 1.5329 1.30783 0
M  V30 28212 O 2613.95 1.42252 2.08616 0
M  V30 28213 C 2615.27 2.90072 -0.792394 0
M  V30 28214 C 2616.81 3.03602 -0.761223 0
M  V30 28215 C 2617.29 4.37859 -1.34327 0
M  V30 28216 N 2618.78 4.44428 -1.30528 0
M  V30 28217 C 2619.51 5.46821 -1.72552 0
M  V30 28218 N 2619.01 6.56163 -2.2231 0
M  V30 28219 N 2620.8 5.3771 -1.63783 0
M  V30 28220 H 2612.95 1.49999 -1.5038 0
M  V30 28221 H 2615.22 0.712295 -0.625571 0
M  V30 28222 H 2614.92 2.99526 -1.84328 0
M  V30 28223 H 2614.8 3.76232 -0.270092 0
M  V30 28224 H 2617.18 2.9376 0.280905 0
M  V30 28225 H 2617.27 2.19051 -1.321 0
M  V30 28226 H 2616.91 4.48455 -2.38433 0
M  V30 28227 H 2616.84 5.21099 -0.759156 0
M  V30 28228 H 2619.33 3.65996 -0.941038 0
M  V30 28229 H 2619.64 7.30431 -2.52369 0
M  V30 28230 H 2617.99 6.57123 -2.26305 0
M  V30 28231 H 2621.18 4.51183 -1.24706 0
M  V30 28232 H 2621.35 6.17375 -1.96854 0
M  V30 28233 N 2614.76 0.2662 1.55336 0
M  V30 28234 C 2616 -0.353646 1.99693 0
M  V30 28235 C 2616.34 -1.5617 1.15432 0
M  V30 28236 O 2615.61 -1.93226 0.222252 0
M  V30 28237 C 2615.9 -0.744598 3.52318 0
M  V30 28238 C 2615.75 0.47018 4.47336 0
M  V30 28239 C 2617.07 -1.5844 4.10591 0
M  V30 28240 H 2614.19 -0.127068 0.725963 0
M  V30 28241 H 2616.83 0.371366 1.86335 0
M  V30 28242 H 2614.98 -1.36232 3.63831 0
M  V30 28243 H 2616.65 1.10872 4.47778 0
M  V30 28244 H 2614.89 1.10986 4.19362 0
M  V30 28245 H 2615.56 0.153007 5.51788 0
M  V30 28246 H 2618.04 -1.06279 4.02298 0
M  V30 28247 H 2616.92 -1.82677 5.1761 0
M  V30 28248 H 2617.18 -2.56256 3.60258 0
M  V30 28249 N 2616.24 -1.57599 -0.0066531 0
M  V30 28250 C 2617.2 -2.06955 -0.984999 0
M  V30 28251 C 2618.2 -0.97771 -1.27662 0
M  V30 28252 O 2619.39 -1.24059 -1.22291 0
M  V30 28253 C 2616.52 -2.5054 -2.31176 0
M  V30 28254 H 2617.71 -2.94659 -0.558203 0
M  V30 28255 H 2615.27 -1.54223 -0.253984 0
M  V30 28256 H 2616 -1.66059 -2.78558 0
M  V30 28257 H 2615.79 -3.30274 -2.11333 0
M  V30 28258 H 2617.28 -2.89075 -3.01372 0
M  V30 28259 N 2617.72 0.279305 -1.55105 0
M  V30 28260 C 2618.95 1.02864 -1.79172 0
M  V30 28261 C 2619.35 1.80658 -0.562072 0
M  V30 28262 O 2618.7 1.77366 0.478235 0
M  V30 28263 C 2618.76 2.03927 -2.96064 0
M  V30 28264 C 2618.42 1.45129 -4.33343 0
M  V30 28265 C 2619.42 0.870176 -5.12566 0
M  V30 28266 C 2617.1 1.48039 -4.79989 0
M  V30 28267 C 2619.1 0.325985 -6.36566 0
M  V30 28268 C 2616.79 0.932337 -6.03946 0
M  V30 28269 C 2617.78 0.356127 -6.82071 0
M  V30 28270 O 2617.47 -0.183553 -8.0369 0
M  V30 28271 H 2617.2 0.309861 -0.600801 0
M  V30 28272 H 2619.76 0.317432 -2.02932 0
M  V30 28273 H 2617.99 2.78789 -2.6798 0
M  V30 28274 H 2619.68 2.64938 -3.07511 0
M  V30 28275 H 2620.44 0.840437 -4.77663 0
M  V30 28276 H 2616.32 1.91828 -4.19193 0
M  V30 28277 H 2619.87 -0.124409 -6.97489 0
M  V30 28278 H 2615.76 0.959295 -6.38332 0
M  V30 28279 H 2616.53 -0.0723119 -8.18468 0
M  V30 28280 N 2619.19 1.47931 0.543528 0
M  V30 28281 C 2620.14 1.61443 1.64939 0
M  V30 28282 C 2621.11 0.456931 1.59691 0
M  V30 28283 O 2622.3 0.678719 1.7832 0
M  V30 28284 C 2619.44 1.64749 3.03236 0
M  V30 28285 C 2618.55 2.91512 3.18818 0
M  V30 28286 C 2617.68 2.86065 4.47594 0
M  V30 28287 C 2616.72 4.07592 4.56657 0
M  V30 28288 N 2615.86 4.00302 5.76804 0
M  V30 28289 H 2620.7 2.55886 1.52729 0
M  V30 28290 H 2618.24 1.26911 0.743778 0
M  V30 28291 H 2620.19 1.64648 3.83336 0
M  V30 28292 H 2618.82 0.738072 3.14249 0
M  V30 28293 H 2617.88 3.01418 2.32059 0
M  V30 28294 H 2619.19 3.81468 3.21377 0
M  V30 28295 H 2618.34 2.8429 5.3597 0
M  V30 28296 H 2617.08 1.93815 4.47535 0
M  V30 28297 H 2616.09 4.09657 3.6669 0
M  V30 28298 H 2617.31 5.00986 4.58465 0
M  V30 28299 H 2615.26 3.10863 5.77668 0
M  V30 28300 H 2615.17 4.8395 5.808 0
M  V30 28301 H 2616.44 4.02564 6.67504 0
M  V30 28302 N 2620.67 -0.791347 1.36292 0
M  V30 28303 C 2622.09 -1.08912 1.16663 0
M  V30 28304 C 2622.29 -2.01497 -0.0105912 0
M  V30 28305 O 2621.34 -2.43267 -0.676553 0
M  V30 28306 C 2622.66 -1.70545 2.47659 0
M  V30 28307 C 2624.2 -1.82895 2.54005 0
M  V30 28308 C 2624.68 -2.47942 3.85083 0
M  V30 28309 N 2626.17 -2.55413 3.86418 0
M  V30 28310 C 2626.91 -3.06548 4.84578 0
M  V30 28311 N 2626.4 -3.58006 5.93131 0
M  V30 28312 N 2628.19 -3.05242 4.71999 0
M  V30 28313 H 2620.35 -0.176201 2.11668 0
M  V30 28314 H 2622.61 -0.140779 0.937489 0
M  V30 28315 H 2622.31 -1.09983 3.34061 0
M  V30 28316 H 2622.19 -2.70074 2.63324 0
M  V30 28317 H 2624.58 -2.42595 1.68022 0
M  V30 28318 H 2624.66 -0.821766 2.42241 0
M  V30 28319 H 2624.3 -1.88887 4.7147 0
M  V30 28320 H 2624.23 -3.49228 3.94141 0
M  V30 28321 H 2626.72 -2.18974 3.07992 0
M  V30 28322 H 2627.03 -3.95369 6.64005 0
M  V30 28323 H 2625.38 -3.56163 5.96802 0
M  V30 28324 H 2628.57 -2.64329 3.86326 0
M  V30 28325 H 2628.74 -3.44786 5.48659 0
M  V30 28326 N 2622.15 -1.2054 -1.01528 0
M  V30 28327 C 2623.08 -0.979333 -2.1197 0
M  V30 28328 C 2624.06 0.0921489 -1.6985 0
M  V30 28329 O 2625.25 -0.0656273 -1.94089 0
M  V30 28330 C 2622.38 -0.532044 -3.432 0
M  V30 28331 C 2621.33 -1.54692 -3.99067 0
M  V30 28332 C 2620.66 -0.95622 -5.2608 0
M  V30 28333 C 2621.96 -2.931 -4.32308 0
M  V30 28334 H 2623.65 -1.90302 -2.3114 0
M  V30 28335 H 2621.2 -0.916392 -1.11078 0
M  V30 28336 H 2623.15 -0.361118 -4.1985 0
M  V30 28337 H 2621.87 0.427271 -3.23793 0
M  V30 28338 H 2620.53 -1.70523 -3.24527 0
M  V30 28339 H 2620.18 0.0110654 -5.02999 0
M  V30 28340 H 2619.88 -1.63403 -5.64423 0
M  V30 28341 H 2621.4 -0.79639 -6.05384 0
M  V30 28342 H 2622.82 -2.80772 -4.9984 0
M  V30 28343 H 2621.21 -3.57799 -4.81767 0
M  V30 28344 H 2622.28 -3.44723 -3.41019 0
M  V30 28345 N 2623.63 1.20858 -1.01149 0
M  V30 28346 C 2624.87 1.90375 -0.698932 0
M  V30 28347 C 2625.21 1.78325 0.769009 0
M  V30 28348 O 2624.48 1.16412 1.55815 0
M  V30 28349 C 2624.76 3.41949 -1.12884 0
M  V30 28350 C 2624.62 3.62958 -2.65672 0
M  V30 28351 C 2625.94 4.34559 -0.69619 0
M  V30 28352 H 2623.06 0.691338 -0.255384 0
M  V30 28353 H 2625.7 1.42359 -1.25833 0
M  V30 28354 H 2623.85 3.82975 -0.652894 0
M  V30 28355 H 2625.52 3.31218 -3.2108 0
M  V30 28356 H 2623.76 3.06602 -3.06883 0
M  V30 28357 H 2624.43 4.69187 -2.90805 0
M  V30 28358 H 2626.91 4.01152 -1.10528 0
M  V30 28359 H 2625.79 5.39243 -1.02509 0
M  V30 28360 H 2626.05 4.40265 0.402388 0
M  V30 28361 N 2625.11 0.787064 1.3654 0
M  V30 28362 C 2626.52 0.468467 1.5257 0
M  V30 28363 C 2626.72 -1.01358 1.74152 0
M  V30 28364 O 2625.78 -1.79912 1.77166 0
M  V30 28365 C 2627.09 1.29686 2.71297 0
M  V30 28366 C 2628.64 1.29032 2.85166 0
M  V30 28367 C 2629.11 2.1024 4.06895 0
M  V30 28368 N 2630.6 2.07673 4.14036 0
M  V30 28369 C 2631.34 2.6728 5.07296 0
M  V30 28370 N 2630.84 3.35735 6.06015 0
M  V30 28371 N 2632.63 2.57026 4.99894 0
M  V30 28372 H 2624.78 1.74714 1.20785 0
M  V30 28373 H 2627.04 0.742543 0.589351 0
M  V30 28374 H 2626.75 2.34777 2.61864 0
M  V30 28375 H 2626.62 0.936543 3.65388 0
M  V30 28376 H 2629.01 0.247336 2.94062 0
M  V30 28377 H 2629.09 1.69038 1.91989 0
M  V30 28378 H 2628.73 3.14567 3.9876 0
M  V30 28379 H 2628.66 1.67605 4.99215 0
M  V30 28380 H 2631.16 1.57849 3.43354 0
M  V30 28381 H 2631.47 3.78553 6.73734 0
M  V30 28382 H 2629.81 3.39837 6.06247 0
M  V30 28383 H 2633 2.03149 4.2172 0
M  V30 28384 H 2633.18 3.03772 5.72387 0
M  V30 28385 N 2626.58 -1.48101 0.53888 0
M  V30 28386 C 2627.52 -2.26639 -0.266455 0
M  V30 28387 C 2628.49 -1.32898 -0.936847 0
M  V30 28388 O 2629.68 -1.62254 -0.959478 0
M  V30 28389 C 2626.81 -3.09397 -1.37809 0
M  V30 28390 C 2625.85 -4.18579 -0.818174 0
M  V30 28391 S 2626.68 -5.34537 0.320942 0
M  V30 28392 C 2627.84 -6.20857 -0.79295 0
M  V30 28393 H 2628.07 -2.94596 0.400046 0
M  V30 28394 H 2625.61 -1.50944 0.324835 0
M  V30 28395 H 2627.56 -3.57653 -2.01482 0
M  V30 28396 H 2626.23 -2.40837 -2.01635 0
M  V30 28397 H 2625.42 -4.76143 -1.65238 0
M  V30 28398 H 2625.02 -3.73109 -0.257971 0
M  V30 28399 H 2627.31 -6.56096 -1.68949 0
M  V30 28400 H 2628.26 -7.0764 -0.25508 0
M  V30 28401 H 2628.66 -5.54124 -1.07736 0
M  V30 28402 N 2628.06 -0.274434 -1.55192 0
M  V30 28403 C 2629.01 0.629322 -2.23925 0
M  V30 28404 C 2630 1.15838 -1.23604 0
M  V30 28405 O 2631.21 1.11209 -1.41537 0
M  V30 28406 H 2627.58 0.221494 -0.718641 0
M  V30 28407 H 2629.56 0.0267798 -2.98388 0
M  V30 28408 C 2628.3 1.80246 -2.97332 0
M  V30 28409 H 2627.63 1.40455 -3.74316 0
M  V30 28410 H 2629.07 2.41146 -3.48747 0
M  V30 28411 C 2627.53 2.6905 -2.02765 0
M  V30 28412 O 2628.06 3.6939 -1.57842 0
M  V30 28413 N 2626.26 2.36205 -1.69279 0
M  V30 28414 H 2625.81 1.54658 -2.06007 0
M  V30 28415 H 2625.77 2.95893 -1.06276 0
M  V30 28416 N 2629.54 1.576 -0.00170483 0
M  V30 28417 C 2630.47 2.03978 1.02313 0
M  V30 28418 C 2631.45 0.929987 1.33379 0
M  V30 28419 O 2632.63 1.19824 1.45514 0
M  V30 28420 C 2629.76 2.43882 2.35031 0
M  V30 28421 C 2628.81 3.65611 2.19615 0
M  V30 28422 S 2629.64 5.13457 1.52059 0
M  V30 28423 C 2630.8 5.56632 2.86203 0
M  V30 28424 H 2631.03 2.90586 0.628234 0
M  V30 28425 H 2628.56 1.52976 0.209212 0
M  V30 28426 H 2630.52 2.6754 3.1134 0
M  V30 28427 H 2629.18 1.5767 2.7166 0
M  V30 28428 H 2628.37 3.91288 3.17663 0
M  V30 28429 H 2627.98 3.41964 1.51449 0
M  V30 28430 H 2630.27 5.59196 3.825 0
M  V30 28431 H 2631.21 6.56553 2.65223 0
M  V30 28432 H 2631.62 4.842 2.9019 0
M  V30 28433 N 2631.02 -0.271076 1.55251 0
M  V30 28434 C 2632.43 -0.841978 1.66636 0
M  V30 28435 C 2632.78 -1.86971 0.594664 0
M  V30 28436 O 2631.9 -2.1479 -0.263494 0
M  V30 28437 C 2632.5 -1.53396 3.02085 0
M  V30 28438 C 2631.06 -2.05287 3.1549 0
M  V30 28439 C 2630.21 -0.895585 2.6244 0
M  V30 28440 H 2633.16 -0.0473838 1.58629 0
M  V30 28441 H 2633.18 -2.40102 2.9518 0
M  V30 28442 H 2632.69 -0.785719 3.80063 0
M  V30 28443 H 2630.79 -2.83067 2.42289 0
M  V30 28444 H 2630.9 -2.26686 4.22079 0
M  V30 28445 H 2629.27 -1.28949 2.19646 0
M  V30 28446 H 2630.05 -0.160818 3.42923 0
M  V30 28447 N 2632.5 -1.48217 -0.535675 0
M  V30 28448 C 2633.75 -1.55199 -1.28825 0
M  V30 28449 C 2634.06 -0.228312 -1.94263 0
M  V30 28450 O 2635.26 -0.176326 -2.70927 0
M  V30 28451 C 2633.72 -2.73682 -2.33722 0
M  V30 28452 C 2633.33 -4.12669 -1.74379 0
M  V30 28453 C 2635.07 -2.89973 -3.10025 0
M  V30 28454 C 2632.98 -5.22421 -2.77182 0
M  V30 28455 H 2631.91 -0.577756 -0.484473 0
M  V30 28456 H 2634.56 -1.74539 -0.566429 0
M  V30 28457 H 2632.94 -2.47766 -3.08915 0
M  V30 28458 H 2634.12 -4.48581 -1.05413 0
M  V30 28459 H 2632.43 -4.01447 -1.10588 0
M  V30 28460 H 2635.03 -3.69137 -3.86836 0
M  V30 28461 H 2635.37 -1.99216 -3.65539 0
M  V30 28462 H 2635.9 -3.15764 -2.41947 0
M  V30 28463 H 2632.64 -6.15126 -2.26496 0
M  V30 28464 H 2632.16 -4.91004 -3.44493 0
M  V30 28465 H 2633.84 -5.50292 -3.40275 0
M  V30 28466 N 2633.97 0.784108 -1.3671 0
M  V30 28467 C 2635.2 1.57817 -1.34568 0
M  V30 28468 C 2635.62 1.87972 0.0694927 0
M  V30 28469 O 2634.98 1.48295 1.04299 0
M  V30 28470 C 2635.03 2.87276 -2.17957 0
M  V30 28471 O 2634.13 3.81111 -1.5757 0
M  V30 28472 H 2633.48 0.478516 -0.460346 0
M  V30 28473 H 2636.01 0.971463 -1.80066 0
M  V30 28474 H 2636.02 3.36496 -2.30727 0
M  V30 28475 H 2634.69 2.64655 -3.20828 0
M  V30 28476 H 2633.27 3.39719 -1.5377 0
M  V30 28477 N 2635.45 1.21076 1.00888 0
M  V30 28478 C 2636.4 0.963513 2.11705 0
M  V30 28479 C 2637.39 -0.0878734 1.69172 0
M  V30 28480 O 2638.6 0.0631731 1.79889 0
M  V30 28481 H 2634.98 0.294299 0.69202 0
M  V30 28482 H 2636.95 1.90426 2.2974 0
M  V30 28483 C 2635.7 0.54057 3.43472 0
M  V30 28484 H 2635.02 1.34121 3.76632 0
M  V30 28485 H 2636.46 0.406851 4.22044 0
M  V30 28486 C 2634.92 -0.748021 3.28491 0
M  V30 28487 O 2635.45 -1.80453 3.58886 0
M  V30 28488 N 2633.65 -0.713032 2.81717 0
M  V30 28489 H 2633.2 0.147018 2.5718 0
M  V30 28490 H 2633.16 -1.57553 2.72074 0
M  V30 28491 N 2636.93 -1.2032 1.01789 0
M  V30 28492 C 2637.84 -2.26826 0.598938 0
M  V30 28493 C 2638.86 -1.70147 -0.36415 0
M  V30 28494 O 2640.03 -2.00142 -0.224777 0
M  V30 28495 C 2637.1 -3.46657 -0.054916 0
M  V30 28496 C 2636.16 -4.18559 0.954279 0
M  V30 28497 C 2635.39 -5.32669 0.331533 0
M  V30 28498 O 2635.61 -5.63751 -0.868411 0
M  V30 28499 O 2634.55 -5.9269 1.0489 0
M  V30 28500 H 2638.37 -2.6488 1.48567 0
M  V30 28501 H 2635.96 -1.26963 0.787456 0
M  V30 28502 H 2637.84 -4.19301 -0.420028 0
M  V30 28503 H 2636.52 -3.10474 -0.915822 0
M  V30 28504 H 2635.42 -3.48081 1.37078 0
M  V30 28505 H 2636.76 -4.58685 1.78519 0
M  V30 28506 N 2638.41 -0.794293 -1.3612 0
M  V30 28507 C 2639.69 -0.292719 -1.93397 0
M  V30 28508 C 2640.07 1.21586 -1.72569 0
M  V30 28509 O 2639.41 2.00963 -1.08748 0
M  V30 28510 C 2639.62 -0.690674 -3.42097 0
M  V30 28511 C 2640.97 -0.673179 -4.1923 0
M  V30 28512 O 2642 -0.631451 -3.50558 0
M  V30 28513 O 2640.85 -0.720457 -5.4173 0
M  V30 28514 H 2637.95 -0.0736838 -0.823711 0
M  V30 28515 H 2640.49 -0.877165 -1.45272 0
M  V30 28516 H 2639.27 -1.73091 -3.50935 0
M  V30 28517 H 2638.89 -0.0803735 -3.97519 0
M  V30 28518 N 2639.89 1.47813 -0.546727 0
M  V30 28519 C 2640.82 2.26777 0.254432 0
M  V30 28520 C 2641.8 1.33393 0.929786 0
M  V30 28521 O 2642.98 1.6276 0.95086 0
M  V30 28522 C 2640.11 3.10123 1.36166 0
M  V30 28523 C 2639.15 4.19007 0.795964 0
M  V30 28524 S 2639.99 5.3436 -0.349285 0
M  V30 28525 C 2641.14 6.21269 0.760013 0
M  V30 28526 H 2641.38 2.9438 -0.415663 0
M  V30 28527 H 2638.91 1.5077 -0.332835 0
M  V30 28528 H 2640.87 3.58716 1.99582 0
M  V30 28529 H 2639.53 2.41903 2.00355 0
M  V30 28530 H 2638.72 4.77013 1.62711 0
M  V30 28531 H 2638.32 3.73241 0.23818 0
M  V30 28532 H 2640.62 6.56983 1.65467 0
M  V30 28533 H 2641.56 7.07766 0.217548 0
M  V30 28534 H 2641.97 5.54687 1.04796 0
M  V30 28535 N 2641.36 0.28266 1.55044 0
M  V30 28536 C 2642.59 -0.335085 2.04169 0
M  V30 28537 C 2643.01 -1.48904 1.16073 0
M  V30 28538 O 2642.36 -1.81586 0.182423 0
M  V30 28539 C 2642.42 -0.808895 3.52334 0
M  V30 28540 O 2642.14 0.299115 4.37078 0
M  V30 28541 C 2643.64 -1.49368 4.17378 0
M  V30 28542 H 2640.86 -0.0754426 0.666745 0
M  V30 28543 H 2643.4 0.416953 2.00204 0
M  V30 28544 H 2641.56 -1.511 3.56718 0
M  V30 28545 H 2641.97 -0.0664593 5.24458 0
M  V30 28546 H 2643.44 -1.77655 5.2263 0
M  V30 28547 H 2643.92 -2.42772 3.66003 0
M  V30 28548 H 2644.53 -0.835232 4.17018 0
M  V30 28549 N 2642.84 -1.57597 0.0100627 0
M  V30 28550 C 2644.09 -1.91284 -0.673663 0
M  V30 28551 C 2644.42 -0.885009 -1.72862 0
M  V30 28552 O 2643.7 0.0949146 -1.94268 0
M  V30 28553 C 2643.98 -3.3552 -1.3076 0
M  V30 28554 C 2643.83 -4.49028 -0.263499 0
M  V30 28555 C 2645.15 -3.79362 -2.23098 0
M  V30 28556 H 2642.27 -0.695638 -0.243427 0
M  V30 28557 H 2644.91 -1.89894 0.0634197 0
M  V30 28558 H 2643.06 -3.36836 -1.93582 0
M  V30 28559 H 2644.73 -4.59847 0.365819 0
M  V30 28560 H 2642.98 -4.31828 0.413153 0
M  V30 28561 H 2643.65 -5.46932 -0.746302 0
M  V30 28562 H 2646.12 -3.79662 -1.70282 0
M  V30 28563 H 2645 -4.81015 -2.64415 0
M  V30 28564 H 2645.26 -3.13792 -3.11427 0
M  V30 28565 N 2644.32 0.262839 -1.55393 0
M  V30 28566 C 2645.27 1.32765 -1.85358 0
M  V30 28567 C 2646.25 1.44229 -0.713213 0
M  V30 28568 O 2647.45 1.47739 -0.974791 0
M  V30 28569 C 2644.58 2.68608 -2.13786 0
M  V30 28570 C 2643.66 2.61213 -3.34108 0
M  V30 28571 N 2644.05 2.23442 -4.5377 0
M  V30 28572 C 2642.35 2.92257 -3.36901 0
M  V30 28573 C 2643.05 2.26288 -5.35881 0
M  V30 28574 N 2642.03 2.65164 -4.74541 0
M  V30 28575 H 2645.83 1.02586 -2.75415 0
M  V30 28576 H 2643.34 0.471476 -1.55405 0
M  V30 28577 H 2645.34 3.45433 -2.33413 0
M  V30 28578 H 2644 2.99667 -1.25018 0
M  V30 28579 H 2645.01 1.9525 -4.79685 0
M  V30 28580 H 2641.69 3.2796 -2.58357 0
M  V30 28581 H 2643.08 1.9956 -6.4158 0
M  V30 28582 N 2645.8 1.48499 0.527807 0
M  V30 28583 C 2647.05 1.56627 1.28352 0
M  V30 28584 C 2647.37 0.24113 1.93 0
M  V30 28585 O 2646.63 -0.768767 1.79968 0
M  V30 28586 C 2646.93 2.65489 2.39271 0
M  V30 28587 C 2646.59 4.07856 1.92261 0
M  V30 28588 C 2645.26 4.46605 1.79158 0
M  V30 28589 C 2647.61 4.97066 1.56763 0
M  V30 28590 C 2644.94 5.72366 1.28895 0
M  V30 28591 C 2647.29 6.23319 1.07961 0
M  V30 28592 C 2645.95 6.60922 0.93477 0
M  V30 28593 H 2645.22 0.57314 0.469672 0
M  V30 28594 H 2647.87 1.82225 0.588749 0
M  V30 28595 H 2646.17 2.33759 3.14426 0
M  V30 28596 H 2647.87 2.68993 2.97395 0
M  V30 28597 H 2644.46 3.77256 2.03411 0
M  V30 28598 H 2648.64 4.67806 1.65745 0
M  V30 28599 H 2643.9 6.00223 1.1637 0
M  V30 28600 H 2648.07 6.9184 0.795653 0
M  V30 28601 H 2645.7 7.58258 0.543098 0
M  V30 28602 N 2647.28 -0.776847 1.37123 0
M  V30 28603 C 2648.51 -1.56588 1.35233 0
M  V30 28604 C 2648.92 -1.88693 -0.0635186 0
M  V30 28605 O 2648.28 -1.51071 -1.02391 0
M  V30 28606 C 2648.33 -2.87926 2.18588 0
M  V30 28607 O 2648.05 -2.57199 3.54655 0
M  V30 28608 C 2649.55 -3.82179 2.24619 0
M  V30 28609 H 2646.77 -0.485277 0.463408 0
M  V30 28610 H 2649.31 -0.963235 1.80394 0
M  V30 28611 H 2647.47 -3.44627 1.76949 0
M  V30 28612 H 2647.88 -3.41268 3.98292 0
M  V30 28613 H 2649.36 -4.71356 2.87275 0
M  V30 28614 H 2649.83 -4.20942 1.25317 0
M  V30 28615 H 2650.44 -3.31409 2.66548 0
M  V30 28616 N 2648.76 -1.2161 -1.00244 0
M  V30 28617 C 2649.98 -1.0617 -1.78165 0
M  V30 28618 C 2650.41 0.384002 -1.84139 0
M  V30 28619 O 2649.76 1.2771 -1.28685 0
M  V30 28620 C 2649.81 -1.66648 -3.19783 0
M  V30 28621 O 2648.92 -0.913684 -4.02151 0
M  V30 28622 H 2648.26 -0.3735 -0.548993 0
M  V30 28623 H 2650.79 -1.61206 -1.25991 0
M  V30 28624 H 2650.8 -1.70975 -3.70448 0
M  V30 28625 H 2649.47 -2.71856 -3.14749 0
M  V30 28626 H 2648.05 -0.945698 -3.60709 0
M  V30 28627 N 2650.23 1.19778 -1.02425 0
M  V30 28628 C 2651.46 1.9331 -0.73749 0
M  V30 28629 C 2651.88 1.75224 0.702992 0
M  V30 28630 O 2651.23 1.07114 1.47759 0
M  V30 28631 C 2651.28 3.45197 -1.07336 0
M  V30 28632 O 2651.01 3.62698 -2.45727 0
M  V30 28633 C 2652.51 4.3586 -0.808737 0
M  V30 28634 H 2649.73 0.614188 -0.270211 0
M  V30 28635 H 2652.27 1.52052 -1.3675 0
M  V30 28636 H 2650.43 3.84306 -0.488613 0
M  V30 28637 H 2650.84 4.56607 -2.58089 0
M  V30 28638 H 2652.31 5.41056 -1.09375 0
M  V30 28639 H 2652.79 4.38448 0.256948 0
M  V30 28640 H 2653.4 4.02426 -1.37599 0
M  V30 28641 N 2651.71 0.801501 1.35697 0
M  V30 28642 C 2652.64 0.222699 2.32436 0
M  V30 28643 C 2653.62 -0.649029 1.57231 0
M  V30 28644 O 2654.81 -0.580354 1.85325 0
M  V30 28645 C 2651.94 -0.633659 3.4147 0
M  V30 28646 C 2650.89 0.139158 4.27774 0
M  V30 28647 C 2650.22 -0.838573 5.28083 0
M  V30 28648 C 2651.52 1.33526 5.04944 0
M  V30 28649 H 2653.21 1.03091 2.81092 0
M  V30 28650 H 2650.76 0.497179 1.35145 0
M  V30 28651 H 2652.71 -1.0486 4.08145 0
M  V30 28652 H 2651.43 -1.4747 2.91411 0
M  V30 28653 H 2650.09 0.53522 3.62672 0
M  V30 28654 H 2649.74 -1.67498 4.74293 0
M  V30 28655 H 2649.44 -0.325837 5.86696 0
M  V30 28656 H 2650.97 -1.25183 5.9763 0
M  V30 28657 H 2652.38 0.995448 5.64592 0
M  V30 28658 H 2650.78 1.78212 5.73027 0
M  V30 28659 H 2651.85 2.1245 4.35882 0
M  V30 28660 N 2653.19 -1.47521 0.554558 0
M  V30 28661 C 2654.12 -2.26909 -0.242402 0
M  V30 28662 C 2655.1 -1.33884 -0.922699 0
M  V30 28663 O 2656.28 -1.63262 -0.942215 0
M  V30 28664 C 2653.41 -3.10841 -1.34519 0
M  V30 28665 C 2652.46 -4.19423 -0.773732 0
M  V30 28666 S 2653.29 -5.34167 0.377619 0
M  V30 28667 C 2654.45 -6.21663 -0.727055 0
M  V30 28668 H 2654.68 -2.94155 0.431269 0
M  V30 28669 H 2652.21 -1.50591 0.340826 0
M  V30 28670 H 2654.17 -3.59769 -1.97677 0
M  V30 28671 H 2652.83 -2.42962 -1.99069 0
M  V30 28672 H 2652.02 -4.77869 -1.60179 0
M  V30 28673 H 2651.63 -3.73362 -0.218383 0
M  V30 28674 H 2653.92 -6.57851 -1.61981 0
M  V30 28675 H 2654.86 -7.07871 -0.180011 0
M  V30 28676 H 2655.27 -5.55235 -1.01853 0
M  V30 28677 N 2654.67 -0.290879 -1.54892 0
M  V30 28678 C 2655.63 0.576745 -2.21825 0
M  V30 28679 C 2656.63 1.06917 -1.20106 0
M  V30 28680 O 2657.82 0.966817 -1.44908 0
M  V30 28681 C 2654.95 1.79742 -2.89665 0
M  V30 28682 H 2656.15 -0.00789323 -2.99899 0
M  V30 28683 H 2653.7 -0.0416208 -1.56245 0
M  V30 28684 H 2654.43 2.42215 -2.15644 0
M  V30 28685 H 2654.22 1.45208 -3.64221 0
M  V30 28686 H 2655.71 2.41404 -3.40755 0
M  V30 28687 N 2656.15 1.57589 -0.0184203 0
M  V30 28688 C 2657.08 2.12601 0.965559 0
M  V30 28689 C 2658.06 1.03953 1.3464 0
M  V30 28690 O 2659.24 1.31731 1.4269 0
M  V30 28691 C 2656.37 2.64438 2.25145 0
M  V30 28692 C 2655.33 3.77777 2.01168 0
M  V30 28693 C 2654.65 4.15999 3.35929 0
M  V30 28694 C 2655.95 5.04298 1.35944 0
M  V30 28695 H 2657.65 2.95068 0.507452 0
M  V30 28696 H 2655.19 1.41941 0.242646 0
M  V30 28697 H 2657.14 3.01554 2.94352 0
M  V30 28698 H 2655.87 1.79117 2.73102 0
M  V30 28699 H 2654.53 3.41082 1.34382 0
M  V30 28700 H 2654.18 3.27676 3.81625 0
M  V30 28701 H 2653.88 4.92369 3.20696 0
M  V30 28702 H 2655.4 4.5569 4.06422 0
M  V30 28703 H 2656.81 5.39069 1.95135 0
M  V30 28704 H 2655.21 5.85595 1.31142 0
M  V30 28705 H 2656.28 4.83769 0.330986 0
M  V30 28706 N 2657.62 -0.254594 1.5553 0
M  V30 28707 C 2658.87 -0.981581 1.76204 0
M  V30 28708 C 2659.19 -1.86775 0.580916 0
M  V30 28709 O 2660.39 -2.63091 0.670494 0
M  V30 28710 C 2658.85 -1.79531 3.11924 0
M  V30 28711 C 2658.46 -0.956914 4.37661 0
M  V30 28712 C 2660.2 -2.51549 3.4194 0
M  V30 28713 C 2658.11 -1.76609 5.64414 0
M  V30 28714 H 2657.04 -0.370226 0.656848 0
M  V30 28715 H 2659.69 -0.236524 1.81969 0
M  V30 28716 H 2658.07 -2.58203 3.00245 0
M  V30 28717 H 2659.24 -0.213069 4.60307 0
M  V30 28718 H 2657.56 -0.350424 4.14923 0
M  V30 28719 H 2660.16 -3.12529 4.33855 0
M  V30 28720 H 2660.5 -3.22775 2.62911 0
M  V30 28721 H 2661.03 -1.79894 3.548 0
M  V30 28722 H 2657.77 -1.09772 6.46243 0
M  V30 28723 H 2657.29 -2.48542 5.45882 0
M  V30 28724 H 2658.97 -2.33516 6.0339 0
M  V30 28725 N 2659.1 -1.48777 -0.519925 0
M  V30 28726 C 2660.52 -1.3512 -0.849394 0
M  V30 28727 C 2660.72 -0.369855 -1.98077 0
M  V30 28728 O 2659.77 0.205315 -2.51664 0
M  V30 28729 C 2661.09 -2.75393 -1.20743 0
M  V30 28730 C 2662.63 -2.83956 -1.31674 0
M  V30 28731 C 2663.11 -4.24954 -1.70816 0
M  V30 28732 N 2664.6 -4.27675 -1.77901 0
M  V30 28733 C 2665.34 -5.33721 -2.09593 0
M  V30 28734 N 2664.83 -6.50034 -2.3964 0
M  V30 28735 N 2666.62 -5.21122 -2.10684 0
M  V30 28736 H 2658.78 -2.1119 0.226414 0
M  V30 28737 H 2661.04 -0.947211 0.0386686 0
M  V30 28738 H 2660.74 -3.48814 -0.449642 0
M  V30 28739 H 2660.62 -3.0956 -2.15528 0
M  V30 28740 H 2663.01 -2.10785 -2.06528 0
M  V30 28741 H 2663.09 -2.53396 -0.349855 0
M  V30 28742 H 2662.73 -4.98645 -0.965194 0
M  V30 28743 H 2662.66 -4.52964 -2.68572 0
M  V30 28744 H 2665.15 -3.43781 -1.56917 0
M  V30 28745 H 2665.46 -7.26687 -2.62957 0
M  V30 28746 H 2663.81 -6.53292 -2.37138 0
M  V30 28747 H 2667 -4.29267 -1.86674 0
M  V30 28748 H 2667.17 -6.03867 -2.35051 0
M  V30 28749 N 2660.58 0.769564 -1.37534 0
M  V30 28750 C 2661.81 1.55868 -1.36061 0
M  V30 28751 C 2662.22 1.88724 0.0535109 0
M  V30 28752 O 2661.58 1.51611 1.01588 0
M  V30 28753 C 2661.63 2.86763 -2.20112 0
M  V30 28754 O 2661.35 2.55315 -3.56014 0
M  V30 28755 C 2662.85 3.80983 -2.26643 0
M  V30 28756 H 2660.07 0.482813 -0.465975 0
M  V30 28757 H 2662.62 0.953654 -1.80902 0
M  V30 28758 H 2660.77 3.43684 -1.78774 0
M  V30 28759 H 2661.19 3.39151 -4.00096 0
M  V30 28760 H 2662.66 4.69826 -2.89771 0
M  V30 28761 H 2663.14 4.20272 -1.27547 0
M  V30 28762 H 2663.74 3.29991 -2.68302 0
M  V30 28763 N 2662.06 1.22139 0.995977 0
M  V30 28764 C 2663.02 0.990145 2.06709 0
M  V30 28765 C 2664.02 -0.0422696 1.60744 0
M  V30 28766 O 2665.21 0.195925 1.73095 0
M  V30 28767 C 2662.34 0.494969 3.37288 0
M  V30 28768 H 2663.54 1.94051 2.28658 0
M  V30 28769 H 2661.09 1.03965 1.16709 0
M  V30 28770 H 2661.82 -0.459891 3.21023 0
M  V30 28771 H 2661.61 1.23978 3.71984 0
M  V30 28772 H 2663.1 0.353326 4.16103 0
M  V30 28773 N 2663.54 -1.19233 1.03059 0
M  V30 28774 C 2664.47 -2.24741 0.633537 0
M  V30 28775 C 2665.45 -1.66283 -0.358306 0
M  V30 28776 O 2666.63 -1.92703 -0.240642 0
M  V30 28777 C 2663.76 -3.47297 -0.0147038 0
M  V30 28778 C 2662.72 -4.18439 0.8996 0
M  V30 28779 C 2662.04 -5.34573 0.116375 0
M  V30 28780 C 2663.34 -4.73048 2.21412 0
M  V30 28781 H 2665.04 -2.58208 1.51555 0
M  V30 28782 H 2662.58 -1.24115 0.730161 0
M  V30 28783 H 2664.54 -4.20301 -0.304128 0
M  V30 28784 H 2663.26 -3.13034 -0.931522 0
M  V30 28785 H 2661.92 -3.47319 1.17325 0
M  V30 28786 H 2661.57 -4.96557 -0.802531 0
M  V30 28787 H 2661.27 -5.83105 0.725395 0
M  V30 28788 H 2662.79 -6.10374 -0.166269 0
M  V30 28789 H 2664.2 -5.37798 1.9861 0
M  V30 28790 H 2662.6 -5.32073 2.77521 0
M  V30 28791 H 2663.67 -3.91021 2.86759 0
M  V30 28792 N 2665.01 -0.808686 -1.3527 0
M  V30 28793 C 2665.92 -0.222121 -2.33546 0
M  V30 28794 C 2666.94 0.635982 -1.61961 0
M  V30 28795 O 2668.12 0.547239 -1.93823 0
M  V30 28796 C 2665.18 0.61789 -3.4115 0
M  V30 28797 C 2664.24 -0.26095 -4.28506 0
M  V30 28798 C 2663.48 0.539063 -5.30971 0
M  V30 28799 O 2663.7 1.77358 -5.42126 0
M  V30 28800 O 2662.63 -0.0711584 -6.01858 0
M  V30 28801 H 2666.46 -1.03517 -2.85514 0
M  V30 28802 H 2664.04 -0.570519 -1.38078 0
M  V30 28803 H 2665.93 1.09627 -4.0689 0
M  V30 28804 H 2664.6 1.4085 -2.9145 0
M  V30 28805 H 2663.51 -0.786516 -3.65739 0
M  V30 28806 H 2664.84 -1.01556 -4.81609 0
M  V30 28807 N 2666.49 1.47225 -0.562374 0
M  V30 28808 C 2667.74 2.01664 -0.0380765 0
M  V30 28809 C 2668.05 1.44164 1.32197 0
M  V30 28810 O 2669.26 1.90298 1.93647 0
M  V30 28811 C 2667.72 3.59896 -0.0175591 0
M  V30 28812 C 2667.32 4.26388 -1.37468 0
M  V30 28813 C 2669.07 4.22067 0.45386 0
M  V30 28814 C 2666.98 5.76641 -1.31299 0
M  V30 28815 H 2665.91 0.753927 -0.0104644 0
M  V30 28816 H 2668.56 1.69166 -0.710996 0
M  V30 28817 H 2666.94 3.89379 0.721114 0
M  V30 28818 H 2668.11 4.0854 -2.13147 0
M  V30 28819 H 2666.43 3.76226 -1.78445 0
M  V30 28820 H 2669.02 5.3218 0.518491 0
M  V30 28821 H 2669.37 3.89596 1.46699 0
M  V30 28822 H 2669.9 3.97134 -0.230114 0
M  V30 28823 H 2666.64 6.13739 -2.30228 0
M  V30 28824 H 2666.16 5.96811 -0.598078 0
M  V30 28825 H 2667.84 6.38953 -1.01724 0
M  V30 28826 N 2667.97 0.299089 1.54736 0
M  V30 28827 C 2668.92 -0.577859 2.23449 0
M  V30 28828 C 2669.89 -1.13106 1.21639 0
M  V30 28829 O 2671.07 -1.17594 1.50254 0
M  V30 28830 C 2668.21 -1.74479 2.97743 0
M  V30 28831 C 2667.33 -1.22316 4.14322 0
M  V30 28832 C 2666.46 -2.3538 4.76203 0
M  V30 28833 C 2665.5 -1.80341 5.8493 0
M  V30 28834 N 2664.64 -2.86971 6.40775 0
M  V30 28835 H 2669.48 0.0147069 2.97996 0
M  V30 28836 H 2667.01 0.0190272 1.47088 0
M  V30 28837 H 2668.97 -2.43108 3.39049 0
M  V30 28838 H 2667.6 -2.30901 2.25576 0
M  V30 28839 H 2666.65 -0.429183 3.77971 0
M  V30 28840 H 2667.97 -0.780222 4.9266 0
M  V30 28841 H 2667.12 -3.1196 5.20352 0
M  V30 28842 H 2665.86 -2.83 3.97193 0
M  V30 28843 H 2664.86 -1.02249 5.40208 0
M  V30 28844 H 2666.09 -1.33628 6.65823 0
M  V30 28845 H 2664.03 -3.33928 5.64649 0
M  V30 28846 H 2663.95 -2.47167 7.14454 0
M  V30 28847 H 2665.22 -3.63454 6.89581 0
M  V30 28848 N 2669.45 -1.57577 0.0267774 0
M  V30 28849 C 2670.38 -2.1311 -0.95427 0
M  V30 28850 C 2671.36 -1.04665 -1.34086 0
M  V30 28851 O 2672.54 -1.32486 -1.4199 0
M  V30 28852 C 2669.67 -2.65628 -2.23739 0
M  V30 28853 C 2668.63 -3.78839 -1.99162 0
M  V30 28854 C 2667.95 -4.17775 -3.33719 0
M  V30 28855 C 2669.25 -5.05012 -1.33268 0
M  V30 28856 H 2670.95 -2.95333 -0.491796 0
M  V30 28857 H 2668.49 -1.42068 -0.235115 0
M  V30 28858 H 2670.45 -3.03111 -2.92748 0
M  V30 28859 H 2669.17 -1.80563 -2.72148 0
M  V30 28860 H 2667.83 -3.4179 -1.32571 0
M  V30 28861 H 2667.48 -3.29695 -3.79882 0
M  V30 28862 H 2667.18 -4.94063 -3.18081 0
M  V30 28863 H 2668.7 -4.57839 -4.03999 0
M  V30 28864 H 2670.12 -5.40096 -1.92273 0
M  V30 28865 H 2668.51 -5.86282 -1.28035 0
M  V30 28866 H 2669.58 -4.83938 -0.305326 0
M  V30 28867 N 2670.93 0.246342 -1.55663 0
M  V30 28868 C 2671.89 1.28839 -1.8956 0
M  V30 28869 C 2672.89 1.4105 -0.772107 0
M  V30 28870 O 2674.08 1.39741 -1.0401 0
M  V30 28871 C 2671.21 2.66602 -2.12453 0
M  V30 28872 H 2672.4 0.999992 -2.82737 0
M  V30 28873 H 2669.96 0.485658 -1.48563 0
M  V30 28874 H 2670.69 3.0058 -1.21747 0
M  V30 28875 H 2670.48 2.5912 -2.94278 0
M  V30 28876 H 2671.97 3.41843 -2.3986 0
M  V30 28877 N 2672.4 1.4905 0.512027 0
M  V30 28878 C 2673.82 1.51309 1.09373 0
M  V30 28879 C 2674.17 0.293005 1.94 0
M  V30 28880 O 2673.29 -0.59824 2.07966 0
M  V30 28881 C 2673.89 2.74179 1.99026 0
M  V30 28882 C 2672.45 2.79251 2.5238 0
M  V30 28883 C 2671.59 2.45075 1.29744 0
M  V30 28884 H 2674.54 1.55907 0.296439 0
M  V30 28885 H 2674.56 2.53716 2.83564 0
M  V30 28886 H 2674.08 3.62962 1.37406 0
M  V30 28887 H 2672.18 1.94722 3.1767 0
M  V30 28888 H 2672.29 3.81144 2.90286 0
M  V30 28889 H 2670.65 1.96615 1.61909 0
M  V30 28890 H 2671.44 3.36119 0.698496 0
M  V30 28891 N 2673.88 -0.762259 1.3794 0
M  V30 28892 C 2674.85 -1.85744 1.34282 0
M  V30 28893 C 2675.85 -1.58923 0.244997 0
M  V30 28894 O 2677.04 -1.66828 0.501394 0
M  V30 28895 C 2674.17 -3.23059 1.08838 0
M  V30 28896 H 2675.36 -1.90397 2.31709 0
M  V30 28897 H 2672.91 -0.963035 1.23107 0
M  V30 28898 H 2673.65 -3.24079 0.119824 0
M  V30 28899 H 2673.43 -3.4392 1.88312 0
M  V30 28900 H 2674.92 -4.03137 1.08953 0
M  V30 28901 N 2675.36 -1.22666 -0.989486 0
M  V30 28902 C 2676.61 -1.0512 -1.7261 0
M  V30 28903 C 2676.93 0.414097 -1.90552 0
M  V30 28904 O 2676.2 1.2976 -1.46763 0
M  V30 28905 H 2674.78 -0.385988 -0.639548 0
M  V30 28906 H 2677.44 -1.54234 -1.19155 0
M  V30 28907 H 2676.54 -1.5318 -2.71923 0
M  V30 28908 N 2676.84 1.18685 -1.0369 0
M  V30 28909 C 2678.07 1.92517 -0.757952 0
M  V30 28910 C 2678.48 1.7596 0.684368 0
M  V30 28911 O 2677.84 1.08676 1.46615 0
M  V30 28912 C 2677.89 3.4404 -1.10991 0
M  V30 28913 O 2677.61 3.60071 -2.4956 0
M  V30 28914 C 2679.11 4.34978 -0.85492 0
M  V30 28915 H 2676.33 0.611288 -0.27671 0
M  V30 28916 H 2678.88 1.50593 -1.38355 0
M  V30 28917 H 2677.03 3.83766 -0.529346 0
M  V30 28918 H 2677.45 4.53844 -2.62918 0
M  V30 28919 H 2678.92 5.39865 -1.15107 0
M  V30 28920 H 2679.4 4.38696 0.21043 0
M  V30 28921 H 2680 4.00944 -1.4186 0
M  V30 28922 N 2678.32 0.815849 1.34839 0
M  V30 28923 C 2679.26 0.230705 2.29644 0
M  V30 28924 C 2680.23 -0.640506 1.53254 0
M  V30 28925 O 2681.42 -0.58364 1.81654 0
M  V30 28926 C 2678.56 -0.607215 3.39716 0
M  V30 28927 C 2677.67 0.285455 4.31056 0
M  V30 28928 C 2676.81 -0.561353 5.28226 0
M  V30 28929 C 2675.85 0.331143 6.11204 0
M  V30 28930 N 2674.98 -0.476179 7.00483 0
M  V30 28931 H 2679.82 1.04455 2.79094 0
M  V30 28932 H 2677.36 0.526619 1.3735 0
M  V30 28933 H 2679.32 -1.10828 4.0221 0
M  V30 28934 H 2677.95 -1.38624 2.91519 0
M  V30 28935 H 2677 0.904686 3.69486 0
M  V30 28936 H 2678.31 0.972016 4.89237 0
M  V30 28937 H 2677.47 -1.12718 5.96137 0
M  V30 28938 H 2676.21 -1.28145 4.70564 0
M  V30 28939 H 2675.21 0.909165 5.42231 0
M  V30 28940 H 2676.44 1.04924 6.70945 0
M  V30 28941 H 2674.38 -1.18008 6.45299 0
M  V30 28942 H 2674.3 0.152141 7.55847 0
M  V30 28943 H 2675.57 -1.02498 7.72732 0
M  V30 28944 N 2679.8 -1.46924 0.570174 0
M  V30 28945 C 2680.73 -2.28255 -0.207868 0
M  V30 28946 C 2681.74 -1.37776 -0.867277 0
M  V30 28947 O 2682.93 -1.62486 -0.738948 0
M  V30 28948 C 2680.03 -3.12435 -1.31292 0
M  V30 28949 C 2679.2 -4.3096 -0.747839 0
M  V30 28950 C 2678.26 -4.96633 -1.73901 0
M  V30 28951 O 2677.29 -5.54621 -1.28001 0
M  V30 28952 N 2678.49 -4.92503 -3.0728 0
M  V30 28953 H 2681.25 -2.9567 0.489846 0
M  V30 28954 H 2678.82 -1.56698 0.407104 0
M  V30 28955 H 2680.81 -3.53236 -1.97501 0
M  V30 28956 H 2679.38 -2.47178 -1.91368 0
M  V30 28957 H 2678.6 -3.94094 0.0913759 0
M  V30 28958 H 2679.89 -5.07596 -0.349869 0
M  V30 28959 H 2679.28 -4.46615 -3.47206 0
M  V30 28960 H 2677.84 -5.37284 -3.69011 0
M  V30 28961 N 2681.27 -0.307291 -1.54575 0
M  V30 28962 C 2682.22 0.58121 -2.20468 0
M  V30 28963 C 2683.21 1.09412 -1.17974 0
M  V30 28964 O 2684.4 1.03384 -1.43669 0
M  V30 28965 C 2681.53 1.74958 -2.95372 0
M  V30 28966 C 2680.61 1.25233 -4.05188 0
M  V30 28967 N 2681.01 0.473551 -5.03578 0
M  V30 28968 C 2679.3 1.53251 -4.18844 0
M  V30 28969 C 2680 0.20798 -5.81328 0
M  V30 28970 N 2678.98 0.789557 -5.37835 0
M  V30 28971 H 2682.78 -0.0212737 -2.93892 0
M  V30 28972 H 2680.3 -0.112353 -1.62011 0
M  V30 28973 H 2682.29 2.39771 -3.4105 0
M  V30 28974 H 2680.95 2.3557 -2.23466 0
M  V30 28975 H 2681.96 0.117872 -5.17766 0
M  V30 28976 H 2678.64 2.14566 -3.58145 0
M  V30 28977 H 2680.03 -0.41791 -6.70599 0
M  V30 28978 N 2682.75 1.57561 -0.0351337 0
M  V30 28979 C 2683.68 2.07495 0.973567 0
M  V30 28980 C 2684.7 0.999557 1.28502 0
M  V30 28981 O 2685.89 1.27561 1.24862 0
M  V30 28982 C 2682.99 2.48959 2.2994 0
M  V30 28983 C 2682.16 3.79648 2.17223 0
M  V30 28984 C 2681.22 4.07597 3.32792 0
M  V30 28985 O 2680.24 4.77759 3.0941 0
M  V30 28986 N 2681.45 3.58244 4.56773 0
M  V30 28987 H 2684.21 2.94657 0.547473 0
M  V30 28988 H 2681.77 1.6119 0.151487 0
M  V30 28989 H 2683.76 2.64745 3.06092 0
M  V30 28990 H 2682.33 1.67131 2.6417 0
M  V30 28991 H 2681.55 3.73601 1.25761 0
M  V30 28992 H 2682.84 4.65261 2.05937 0
M  V30 28993 H 2682.24 3.01494 4.78663 0
M  V30 28994 H 2680.8 3.79297 5.30072 0
M  V30 28995 N 2684.23 -0.238084 1.55791 0
M  V30 28996 C 2685.47 -0.972132 1.79803 0
M  V30 28997 C 2685.83 -1.82184 0.606059 0
M  V30 28998 O 2687.03 -2.58835 0.725124 0
M  V30 28999 C 2685.31 -1.80261 3.08611 0
M  V30 29000 S 2686.86 -2.59455 3.53876 0
M  V30 29001 H 2683.68 -0.326841 0.631424 0
M  V30 29002 H 2686.28 -0.239178 1.94031 0
M  V30 29003 H 2684.99 -1.16823 3.93421 0
M  V30 29004 H 2684.52 -2.57816 2.97144 0
M  V30 29005 H 2686.53 -3.82646 3.15906 0
M  V30 29006 N 2685.71 -1.4932 -0.504115 0
M  V30 29007 C 2686.98 -1.49149 -1.26546 0
M  V30 29008 C 2687.36 -0.217477 -2.09977 0
M  V30 29009 O 2686.71 0.800232 -2.14029 0
M  V30 29010 C 2686.92 -2.7686 -2.12484 0
M  V30 29011 C 2688.27 -3.26226 -2.71775 0
M  V30 29012 O 2689.29 -2.77956 -2.22753 0
M  V30 29013 O 2688.15 -4.10287 -3.61008 0
M  V30 29014 H 2685.25 -0.596817 -0.572485 0
M  V30 29015 H 2687.79 -1.6158 -0.518642 0
M  V30 29016 H 2686.57 -3.61079 -1.50789 0
M  V30 29017 H 2686.19 -2.67275 -2.94364 0
M  V30 29018 N 2687.19 0.754933 -1.38342 0
M  V30 29019 C 2688.15 1.8503 -1.35265 0
M  V30 29020 C 2689.15 1.5879 -0.253421 0
M  V30 29021 O 2690.34 1.6656 -0.510235 0
M  V30 29022 C 2687.47 3.22477 -1.1055 0
M  V30 29023 H 2688.66 1.89166 -2.32715 0
M  V30 29024 H 2686.22 0.956493 -1.23616 0
M  V30 29025 H 2686.95 3.2401 -0.137009 0
M  V30 29026 H 2686.74 3.42917 -1.90133 0
M  V30 29027 H 2688.23 4.02553 -1.11089 0
M  V30 29028 N 2688.66 1.23189 0.982967 0
M  V30 29029 C 2689.57 1.02743 2.10905 0
M  V30 29030 C 2690.59 -0.0272883 1.73979 0
M  V30 29031 O 2691.77 0.167605 2.00701 0
M  V30 29032 C 2688.83 0.618364 3.41141 0
M  V30 29033 C 2687.89 1.74784 3.92109 0
M  V30 29034 C 2687.12 1.35819 5.16129 0
M  V30 29035 O 2687.35 0.241301 5.69889 0
M  V30 29036 O 2686.28 2.17834 5.61099 0
M  V30 29037 H 2690.11 1.97112 2.31042 0
M  V30 29038 H 2687.69 1.01871 1.09282 0
M  V30 29039 H 2689.57 0.401056 4.19487 0
M  V30 29040 H 2688.25 -0.296364 3.2234 0
M  V30 29041 H 2687.16 2.01976 3.14891 0
M  V30 29042 H 2688.49 2.64079 4.15359 0
M  V30 29043 N 2690.14 -1.18133 1.04318 0
M  V30 29044 C 2691.07 -2.24057 0.657338 0
M  V30 29045 C 2692.05 -1.66654 -0.340649 0
M  V30 29046 O 2693.24 -1.92948 -0.22019 0
M  V30 29047 C 2690.37 -3.47293 0.0221325 0
M  V30 29048 C 2689.32 -4.17461 0.943931 0
M  V30 29049 C 2688.65 -5.3442 0.173067 0
M  V30 29050 C 2689.95 -4.70673 2.26417 0
M  V30 29051 H 2691.64 -2.56586 1.54285 0
M  V30 29052 H 2689.19 -1.23334 0.743284 0
M  V30 29053 H 2691.14 -4.206 -0.259533 0
M  V30 29054 H 2689.86 -3.14004 -0.898268 0
M  V30 29055 H 2688.52 -3.46055 1.21002 0
M  V30 29056 H 2688.17 -4.9738 -0.74982 0
M  V30 29057 H 2687.87 -5.82303 0.7872 0
M  V30 29058 H 2689.4 -6.10516 -0.101521 0
M  V30 29059 H 2690.81 -5.35661 2.04303 0
M  V30 29060 H 2689.21 -5.291 2.83149 0
M  V30 29061 H 2690.28 -3.87957 2.9089 0
M  V30 29062 N 2691.62 -0.822988 -1.34405 0
M  V30 29063 C 2693.04 -0.508753 -1.51274 0
M  V30 29064 C 2693.24 0.967052 -1.76778 0
M  V30 29065 O 2692.29 1.75152 -1.81874 0
M  V30 29066 C 2693.61 -1.36834 -2.67763 0
M  V30 29067 C 2695.15 -1.36547 -2.81645 0
M  V30 29068 C 2695.63 -2.20954 -4.01177 0
M  V30 29069 N 2697.12 -2.18578 -4.08385 0
M  V30 29070 C 2697.85 -2.80636 -5.00031 0
M  V30 29071 N 2697.35 -3.51684 -5.969 0
M  V30 29072 N 2699.14 -2.7019 -4.92904 0
M  V30 29073 H 2691.29 -1.77854 -1.1611 0
M  V30 29074 H 2693.56 -0.757907 -0.569457 0
M  V30 29075 H 2693.26 -2.41637 -2.55547 0
M  V30 29076 H 2693.14 -1.03309 -3.62777 0
M  V30 29077 H 2695.52 -0.325214 -2.93303 0
M  V30 29078 H 2695.61 -1.74069 -1.8744 0
M  V30 29079 H 2695.25 -3.25029 -3.9028 0
M  V30 29080 H 2695.18 -1.80782 -4.94596 0
M  V30 29081 H 2697.67 -1.66897 -3.39048 0
M  V30 29082 H 2697.98 -3.96283 -6.63461 0
M  V30 29083 H 2696.33 -3.55791 -5.97024 0
M  V30 29084 H 2699.52 -2.14259 -4.16186 0
M  V30 29085 H 2699.69 -3.18841 -5.64132 0
M  V30 29086 N 2693.1 1.4662 -0.577957 0
M  V30 29087 C 2694.05 2.30258 0.158008 0
M  V30 29088 C 2695.02 1.40329 0.888645 0
M  V30 29089 O 2696.2 1.69281 0.880253 0
M  V30 29090 C 2693.34 3.24705 1.16879 0
M  V30 29091 C 2692.45 4.29732 0.442088 0
M  V30 29092 C 2691.59 5.1131 1.43998 0
M  V30 29093 C 2690.63 6.08091 0.699413 0
M  V30 29094 N 2689.76 6.82554 1.64513 0
M  V30 29095 H 2694.6 2.92666 -0.561294 0
M  V30 29096 H 2692.14 1.44241 -0.288616 0
M  V30 29097 H 2694.1 3.77903 1.76763 0
M  V30 29098 H 2692.73 2.64117 1.85586 0
M  V30 29099 H 2691.78 3.79428 -0.271699 0
M  V30 29100 H 2693.09 4.98612 -0.13708 0
M  V30 29101 H 2692.25 5.68762 2.11176 0
M  V30 29102 H 2690.99 4.4238 2.05307 0
M  V30 29103 H 2689.99 5.49798 0.0138251 0
M  V30 29104 H 2691.22 6.79038 0.0917746 0
M  V30 29105 H 2689.16 6.16338 2.24642 0
M  V30 29106 H 2689.08 7.47678 1.11865 0
M  V30 29107 H 2690.35 7.44566 2.30741 0
M  V30 29108 N 2694.58 0.315484 1.5441 0
M  V30 29109 C 2695.49 -0.56325 2.27738 0
M  V30 29110 C 2696.5 -1.13611 1.31789 0
M  V30 29111 O 2697.68 -1.15781 1.64793 0
M  V30 29112 C 2694.74 -1.71202 3.01481 0
M  V30 29113 C 2693.8 -1.17177 4.12999 0
M  V30 29114 C 2693.04 -2.26579 4.83216 0
M  V30 29115 O 2693.26 -3.46767 4.5289 0
M  V30 29116 O 2692.19 -1.92453 5.70303 0
M  V30 29117 H 2696.02 0.0320147 3.03683 0
M  V30 29118 H 2693.61 0.081445 1.49178 0
M  V30 29119 H 2695.49 -2.381 3.47687 0
M  V30 29120 H 2694.16 -2.29362 2.28418 0
M  V30 29121 H 2693.07 -0.468109 3.7116 0
M  V30 29122 H 2694.4 -0.635415 4.88081 0
M  V30 29123 N 2696.05 -1.5754 0.0434891 0
M  V30 29124 C 2697.3 -1.91562 -0.63142 0
M  V30 29125 C 2697.62 -0.92295 -1.72456 0
M  V30 29126 O 2698.82 -1.15494 -2.4571 0
M  V30 29127 C 2697.28 -3.402 -1.17441 0
M  V30 29128 C 2696.89 -4.47855 -0.113788 0
M  V30 29129 C 2698.63 -3.83267 -1.825 0
M  V30 29130 C 2696.54 -5.87601 -0.669222 0
M  V30 29131 H 2695.47 -0.714912 -0.239617 0
M  V30 29132 H 2698.12 -1.83163 0.111129 0
M  V30 29133 H 2696.5 -3.43577 -1.96903 0
M  V30 29134 H 2697.67 -4.56057 0.659428 0
M  V30 29135 H 2695.99 -4.14081 0.438894 0
M  V30 29136 H 2698.59 -4.85038 -2.25038 0
M  V30 29137 H 2698.93 -3.191 -2.6736 0
M  V30 29138 H 2699.46 -3.82374 -1.09706 0
M  V30 29139 H 2696.2 -6.55347 0.141564 0
M  V30 29140 H 2695.72 -5.82977 -1.4106 0
M  V30 29141 H 2697.4 -6.36616 -1.15451 0
M  V30 29142 N 2697.53 0.229818 -1.55915 0
M  V30 29143 C 2698.76 0.97671 -1.82962 0
M  V30 29144 C 2699.18 1.77491 -0.622767 0
M  V30 29145 O 2698.54 1.76166 0.4284 0
M  V30 29146 C 2698.59 1.87664 -3.0792 0
M  V30 29147 O 2697.69 2.97083 -2.86034 0
M  V30 29148 H 2697.03 0.277011 -0.603458 0
M  V30 29149 H 2699.56 0.245633 -2.0312 0
M  V30 29150 H 2699.57 2.28804 -3.37806 0
M  V30 29151 H 2698.25 1.28989 -3.95392 0
M  V30 29152 H 2696.83 2.59949 -2.67359 0
M  V30 29153 N 2699.01 1.49585 0.49619 0
M  V30 29154 C 2700.26 1.59551 1.25186 0
M  V30 29155 C 2700.59 0.2835 1.9212 0
M  V30 29156 O 2699.86 -0.713292 1.80949 0
M  V30 29157 C 2700.15 2.75816 2.31511 0
M  V30 29158 C 2700 4.16825 1.69047 0
M  V30 29159 C 2701.32 2.87708 3.33035 0
M  V30 29160 H 2698.44 0.580735 0.45378 0
M  V30 29161 H 2701.08 1.81887 0.549295 0
M  V30 29162 H 2699.23 2.56902 2.91433 0
M  V30 29163 H 2700.9 4.47267 1.12915 0
M  V30 29164 H 2699.15 4.22249 0.994411 0
M  V30 29165 H 2699.82 4.94059 2.46191 0
M  V30 29166 H 2702.29 3.04941 2.83109 0
M  V30 29167 H 2701.17 3.70727 4.04787 0
M  V30 29168 H 2701.43 1.97262 3.95652 0
M  V30 29169 N 2700.49 -0.747586 1.3874 0
M  V30 29170 C 2701.73 -1.5091 1.35477 0
M  V30 29171 C 2702.07 -1.94127 -0.0532752 0
M  V30 29172 O 2701.34 -1.65873 -1.01569 0
M  V30 29173 C 2701.63 -2.75753 2.31587 0
M  V30 29174 C 2701.48 -2.38635 3.81279 0
M  V30 29175 C 2702.8 -3.77802 2.25729 0
M  V30 29176 H 2699.92 -0.547439 0.493437 0
M  V30 29177 H 2702.56 -0.855793 1.69635 0
M  V30 29178 H 2700.71 -3.31497 2.02588 0
M  V30 29179 H 2702.38 -1.88619 4.20976 0
M  V30 29180 H 2700.62 -1.71018 3.98667 0
M  V30 29181 H 2701.29 -3.27982 4.43996 0
M  V30 29182 H 2703.77 -3.31612 2.51342 0
M  V30 29183 H 2702.65 -4.6284 2.95077 0
M  V30 29184 H 2702.91 -4.23821 1.25811 0
M  V30 29185 N 2701.97 -1.23709 -0.97642 0
M  V30 29186 C 2703.21 -1.08322 -1.72156 0
M  V30 29187 C 2703.57 0.375412 -1.88702 0
M  V30 29188 O 2702.86 1.27398 -1.4311 0
M  V30 29189 C 2703.05 -1.74668 -3.11811 0
M  V30 29190 C 2702.88 -3.26832 -3.08886 0
M  V30 29191 C 2701.65 -3.9601 -3.13854 0
M  V30 29192 C 2703.85 -4.23545 -2.91743 0
M  V30 29193 N 2701.83 -5.35124 -3.00857 0
M  V30 29194 C 2703.2 -5.496 -2.8695 0
M  V30 29195 C 2705.26 -4.1423 -2.76257 0
M  V30 29196 C 2703.96 -6.67406 -2.68256 0
M  V30 29197 C 2705.99 -5.31705 -2.58929 0
M  V30 29198 C 2705.35 -6.56686 -2.54838 0
M  V30 29199 H 2701.45 -0.450939 -0.638888 0
M  V30 29200 H 2704.03 -1.56496 -1.15833 0
M  V30 29201 H 2702.2 -1.29021 -3.66344 0
M  V30 29202 H 2703.94 -1.52221 -3.74981 0
M  V30 29203 H 2700.69 -3.47116 -3.22192 0
M  V30 29204 H 2701.12 -6.0807 -2.97623 0
M  V30 29205 H 2705.76 -3.18371 -2.78208 0
M  V30 29206 H 2703.48 -7.63396 -2.6505 0
M  V30 29207 H 2707.06 -5.26341 -2.47905 0
M  V30 29208 H 2705.94 -7.46056 -2.41598 0
M  V30 29209 N 2703.44 1.17579 -1.04943 0
M  V30 29210 C 2704.41 2.19716 -0.652494 0
M  V30 29211 C 2705.41 1.58076 0.294717 0
M  V30 29212 O 2706.6 1.74021 0.0789273 0
M  V30 29213 C 2703.73 3.40874 0.0420113 0
M  V30 29214 H 2704.92 2.56348 -1.55647 0
M  V30 29215 H 2702.48 1.31616 -0.843019 0
M  V30 29216 H 2703.21 3.09785 0.959376 0
M  V30 29217 H 2703 3.8686 -0.638912 0
M  V30 29218 H 2704.49 4.16478 0.305927 0
M  V30 29219 N 2704.92 0.830104 1.33967 0
M  V30 29220 C 2705.87 0.245476 2.31301 0
M  V30 29221 C 2706.86 -0.617734 1.57735 0
M  V30 29222 O 2708.07 -0.508273 1.72675 0
M  V30 29223 H 2704.45 0.0606448 0.749551 0
M  V30 29224 H 2706.42 1.0811 2.78127 0
M  V30 29225 C 2705.17 -0.572023 3.42962 0
M  V30 29226 H 2704.49 0.0828821 3.99714 0
M  V30 29227 H 2705.93 -0.947077 4.13287 0
M  V30 29228 C 2704.39 -1.74732 2.88046 0
M  V30 29229 O 2704.92 -2.84575 2.83513 0
M  V30 29230 N 2703.12 -1.56638 2.44771 0
M  V30 29231 H 2702.67 -0.672857 2.48657 0
M  V30 29232 H 2702.63 -2.35426 2.08379 0
M  V30 29233 N 2706.4 -1.46311 0.585725 0
M  V30 29234 C 2707.33 -2.33118 -0.133516 0
M  V30 29235 C 2708.31 -1.45527 -0.880682 0
M  V30 29236 O 2709.5 -1.74339 -0.855548 0
M  V30 29237 C 2706.63 -3.27855 -1.14579 0
M  V30 29238 C 2705.58 -4.24911 -0.513266 0
M  V30 29239 C 2704.91 -5.09178 -1.63222 0
M  V30 29240 C 2706.21 -5.1938 0.551504 0
M  V30 29241 H 2707.9 -2.93504 0.591261 0
M  V30 29242 H 2705.45 -1.41136 0.285786 0
M  V30 29243 H 2707.4 -3.87441 -1.65734 0
M  V30 29244 H 2706.12 -2.65583 -1.90088 0
M  V30 29245 H 2704.78 -3.66593 -0.0227705 0
M  V30 29246 H 2704.43 -4.43289 -2.37706 0
M  V30 29247 H 2704.13 -5.74909 -1.21463 0
M  V30 29248 H 2705.66 -5.71628 -2.14648 0
M  V30 29249 H 2707.07 -5.73164 0.124905 0
M  V30 29250 H 2705.47 -5.9347 0.88959 0
M  V30 29251 H 2706.54 -4.6313 1.43663 0
M  V30 29252 N 2707.88 -0.323668 -1.54241 0
M  V30 29253 C 2709.29 0.164372 -1.85975 0
M  V30 29254 C 2709.64 1.51613 -1.24531 0
M  V30 29255 O 2708.77 2.09257 -0.551388 0
M  V30 29256 C 2709.36 0.305031 -3.37424 0
M  V30 29257 C 2707.92 0.737293 -3.69108 0
M  V30 29258 C 2707.07 -0.140933 -2.76942 0
M  V30 29259 H 2710.02 -0.543948 -1.49087 0
M  V30 29260 H 2710.04 1.13592 -3.63149 0
M  V30 29261 H 2709.55 -0.678943 -3.82115 0
M  V30 29262 H 2707.65 1.73101 -3.2995 0
M  V30 29263 H 2707.77 0.540969 -4.76036 0
M  V30 29264 H 2706.13 0.383527 -2.51796 0
M  V30 29265 H 2706.91 -1.12168 -3.24459 0
M  V30 29266 N 2709.36 1.57515 -0.0518432 0
M  V30 29267 C 2710.29 2.08516 0.951505 0
M  V30 29268 C 2711.3 1.01313 1.27434 0
M  V30 29269 O 2712.49 1.28878 1.23502 0
M  V30 29270 C 2709.59 2.51384 2.27287 0
M  V30 29271 C 2708.76 3.81931 2.13185 0
M  V30 29272 C 2707.82 4.11104 3.28451 0
M  V30 29273 O 2706.85 4.81014 3.04325 0
M  V30 29274 N 2708.05 3.63069 4.52947 0
M  V30 29275 H 2710.82 2.95221 0.51619 0
M  V30 29276 H 2708.38 1.61341 0.134382 0
M  V30 29277 H 2710.37 2.67976 3.03267 0
M  V30 29278 H 2708.94 1.69923 2.62383 0
M  V30 29279 H 2708.16 3.74914 1.21792 0
M  V30 29280 H 2709.45 4.67419 2.0099 0
M  V30 29281 H 2708.85 3.06554 4.75438 0
M  V30 29282 H 2707.4 3.84898 5.2602 0
M  V30 29283 N 2710.84 -0.221546 1.56035 0
M  V30 29284 C 2711.78 -1.27456 1.92415 0
M  V30 29285 C 2712.75 -1.46575 0.781349 0
M  V30 29286 O 2713.94 -1.60143 1.03724 0
M  V30 29287 C 2711.08 -2.61991 2.24622 0
M  V30 29288 C 2710.19 -2.5067 3.51836 0
M  V30 29289 C 2709.33 -3.77729 3.73489 0
M  V30 29290 C 2708.36 -3.61131 4.94217 0
M  V30 29291 N 2707.5 -4.80139 5.1226 0
M  V30 29292 H 2712.34 -0.957306 2.82205 0
M  V30 29293 H 2709.88 -0.46139 1.39677 0
M  V30 29294 H 2711.84 -3.40335 2.41304 0
M  V30 29295 H 2710.47 -2.91812 1.38005 0
M  V30 29296 H 2709.52 -1.63761 3.43346 0
M  V30 29297 H 2710.83 -2.34327 4.40332 0
M  V30 29298 H 2709.98 -4.64516 3.90268 0
M  V30 29299 H 2708.72 -3.96998 2.83273 0
M  V30 29300 H 2707.73 -2.72728 4.77388 0
M  V30 29301 H 2708.95 -3.43332 5.85918 0
M  V30 29302 H 2706.9 -4.99722 4.24987 0
M  V30 29303 H 2706.82 -4.66522 5.94889 0
M  V30 29304 H 2708.08 -5.68353 5.33475 0
M  V30 29305 N 2712.31 -1.49846 -0.48825 0
M  V30 29306 C 2713.54 -1.63705 -1.26524 0
M  V30 29307 C 2713.96 -0.313479 -1.86179 0
M  V30 29308 O 2713.31 0.702594 -1.68434 0
M  V30 29309 C 2713.36 -2.71543 -2.38635 0
M  V30 29310 O 2713.09 -3.98767 -1.8143 0
M  V30 29311 C 2714.59 -2.96221 -3.298 0
M  V30 29312 H 2711.81 -0.550757 -0.383286 0
M  V30 29313 H 2714.35 -1.95962 -0.584745 0
M  V30 29314 H 2712.51 -2.42028 -3.02492 0
M  V30 29315 H 2712.92 -4.58269 -2.55127 0
M  V30 29316 H 2714.39 -3.75379 -4.04715 0
M  V30 29317 H 2714.87 -2.06625 -3.8756 0
M  V30 29318 H 2715.48 -3.27201 -2.71697 0
M  V30 29319 N 2713.79 0.740218 -1.39135 0
M  V30 29320 C 2714.72 1.86749 -1.40168 0
M  V30 29321 C 2715.7 1.68011 -0.265737 0
M  V30 29322 O 2716.89 1.88407 -0.470793 0
M  V30 29323 C 2714.02 3.24438 -1.23925 0
M  V30 29324 C 2712.97 3.57803 -2.34864 0
M  V30 29325 C 2712.3 4.94373 -2.03715 0
M  V30 29326 C 2713.6 3.61309 -3.77165 0
M  V30 29327 H 2715.29 1.86141 -2.34503 0
M  V30 29328 H 2712.84 0.89414 -1.12877 0
M  V30 29329 H 2714.79 4.02967 -1.2327 0
M  V30 29330 H 2713.51 3.25559 -0.260567 0
M  V30 29331 H 2712.17 2.816 -2.34728 0
M  V30 29332 H 2711.82 4.92068 -1.04298 0
M  V30 29333 H 2711.52 5.17664 -2.78025 0
M  V30 29334 H 2713.05 5.75265 -2.04701 0
M  V30 29335 H 2714.46 4.29925 -3.79259 0
M  V30 29336 H 2712.86 3.96116 -4.50791 0
M  V30 29337 H 2713.93 2.6123 -4.08518 0
M  V30 29338 N 2715.27 1.24225 0.969846 0
M  V30 29339 C 2716.55 0.988693 1.68773 0
M  V30 29340 C 2716.93 -0.489636 2.05343 0
M  V30 29341 O 2716.27 -1.46342 1.75489 0
M  V30 29342 C 2716.48 1.90946 2.92131 0
M  V30 29343 C 2717.83 2.1791 3.64418 0
M  V30 29344 O 2718.86 1.88581 3.02185 0
M  V30 29345 O 2717.72 2.67706 4.76441 0
M  V30 29346 H 2714.81 0.373743 0.73773 0
M  V30 29347 H 2717.36 1.35314 1.02413 0
M  V30 29348 H 2716.13 2.90836 2.61783 0
M  V30 29349 H 2715.75 1.54805 3.66226 0
M  V30 29350 N 2716.75 -1.1702 1.05565 0
M  V30 29351 C 2717.68 -2.23347 0.681065 0
M  V30 29352 C 2718.66 -1.67006 -0.322954 0
M  V30 29353 O 2719.84 -1.9317 -0.199712 0
M  V30 29354 C 2716.97 -3.4725 0.0589663 0
M  V30 29355 C 2715.93 -4.16437 0.988155 0
M  V30 29356 C 2715.25 -5.34206 0.22974 0
M  V30 29357 C 2716.55 -4.68245 2.31396 0
M  V30 29358 H 2718.25 -2.54936 1.56997 0
M  V30 29359 H 2715.79 -1.22539 0.756324 0
M  V30 29360 H 2717.75 -4.20852 -0.214908 0
M  V30 29361 H 2716.47 -3.14939 -0.864913 0
M  V30 29362 H 2715.13 -3.44752 1.24666 0
M  V30 29363 H 2714.78 -4.98147 -0.697024 0
M  V30 29364 H 2714.48 -5.81435 0.848917 0
M  V30 29365 H 2716 -6.10589 -0.0367621 0
M  V30 29366 H 2717.42 -5.33464 2.09973 0
M  V30 29367 H 2715.81 -5.26067 2.88745 0
M  V30 29368 H 2716.88 -3.8485 2.94989 0
M  V30 29369 N 2718.23 -0.837197 -1.33524 0
M  V30 29370 C 2719.16 -0.284246 -2.31763 0
M  V30 29371 C 2720.14 0.607114 -1.58897 0
M  V30 29372 O 2721.32 0.531015 -1.86799 0
M  V30 29373 C 2718.45 0.542901 -3.4303 0
M  V30 29374 C 2717.41 -0.252526 -4.27254 0
M  V30 29375 C 2716.73 0.698266 -5.30121 0
M  V30 29376 C 2718.03 -1.46866 -5.01226 0
M  V30 29377 H 2719.73 -1.10507 -2.7826 0
M  V30 29378 H 2717.27 -0.532836 -1.33779 0
M  V30 29379 H 2719.22 0.940024 -4.10782 0
M  V30 29380 H 2717.95 1.39692 -2.95218 0
M  V30 29381 H 2716.61 -0.631188 -3.61125 0
M  V30 29382 H 2716.26 1.54864 -4.78567 0
M  V30 29383 H 2715.96 0.170171 -5.87354 0
M  V30 29384 H 2717.48 1.09294 -6.00739 0
M  V30 29385 H 2718.89 -1.14479 -5.61754 0
M  V30 29386 H 2717.29 -1.93343 -5.68101 0
M  V30 29387 H 2718.36 -2.23932 -4.30096 0
M  V30 29388 N 2719.7 1.45999 -0.593476 0
M  V30 29389 C 2720.95 2.02629 -0.0833111 0
M  V30 29390 C 2721.28 1.46268 1.27747 0
M  V30 29391 O 2720.56 0.631898 1.83949 0
M  V30 29392 C 2720.84 3.60088 -0.0291389 0
M  V30 29393 C 2720.69 4.26811 -1.41958 0
M  V30 29394 C 2722.01 4.35032 0.665979 0
M  V30 29395 H 2719.13 0.736316 -0.031749 0
M  V30 29396 H 2721.77 1.74018 -0.762742 0
M  V30 29397 H 2719.92 3.84595 0.549464 0
M  V30 29398 H 2721.6 4.13535 -2.04418 0
M  V30 29399 H 2719.84 3.85757 -1.98429 0
M  V30 29400 H 2720.51 5.35637 -1.33405 0
M  V30 29401 H 2722.99 4.15735 0.174328 0
M  V30 29402 H 2721.86 5.44759 0.672945 0
M  V30 29403 H 2722.12 4.06872 1.72938 0
M  V30 29404 N 2721.18 0.331843 1.54067 0
M  V30 29405 C 2722.59 -0.154507 1.8606 0
M  V30 29406 C 2722.94 -1.5095 1.25334 0
M  V30 29407 O 2722.07 -2.08962 0.562478 0
M  V30 29408 C 2722.66 -0.287133 3.37581 0
M  V30 29409 C 2721.22 -0.717708 3.69494 0
M  V30 29410 C 2720.37 0.155617 2.76863 0
M  V30 29411 H 2723.32 0.551847 1.48796 0
M  V30 29412 H 2723.34 -1.11664 3.63746 0
M  V30 29413 H 2722.85 0.699198 3.8175 0
M  V30 29414 H 2720.96 -1.71349 3.30863 0
M  V30 29415 H 2721.07 -0.515716 4.76316 0
M  V30 29416 H 2719.43 -0.370169 2.51996 0
M  V30 29417 H 2720.22 1.13887 3.23859 0
M  V30 29418 N 2722.66 -1.57485 0.0601958 0
M  V30 29419 C 2724.07 -1.80578 -0.474185 0
M  V30 29420 C 2724.42 -0.973177 -1.70363 0
M  V30 29421 O 2723.55 -0.192344 -2.15543 0
M  V30 29422 C 2724.14 -3.27518 -0.867044 0
M  V30 29423 C 2722.7 -3.51497 -1.34635 0
M  V30 29424 C 2721.85 -2.75378 -0.325892 0
M  V30 29425 H 2724.8 -1.56102 0.286001 0
M  V30 29426 H 2724.82 -3.38932 -1.72932 0
M  V30 29427 H 2724.33 -3.8809 0.0279609 0
M  V30 29428 H 2722.43 -2.96216 -2.26025 0
M  V30 29429 H 2722.55 -4.60203 -1.33228 0
M  V30 29430 H 2720.91 -2.41787 -0.800706 0
M  V30 29431 H 2721.69 -3.38682 0.561185 0
M  V30 29432 N 2724.14 0.213268 -1.5615 0
M  V30 29433 C 2725.09 1.26801 -1.89488 0
M  V30 29434 C 2726.07 1.41887 -0.758738 0
M  V30 29435 O 2727.26 1.44563 -1.0213 0
M  V30 29436 C 2724.39 2.61671 -2.22223 0
M  V30 29437 C 2723.48 2.50452 -3.42249 0
M  V30 29438 N 2723.87 2.08892 -4.60649 0
M  V30 29439 C 2722.17 2.81391 -3.46028 0
M  V30 29440 C 2722.87 2.09125 -5.42809 0
M  V30 29441 N 2721.85 2.49932 -4.82737 0
M  V30 29442 H 2725.65 0.937722 -2.78539 0
M  V30 29443 H 2723.16 0.421796 -1.56827 0
M  V30 29444 H 2725.16 3.37832 -2.44284 0
M  V30 29445 H 2723.82 2.95538 -1.34489 0
M  V30 29446 H 2724.83 1.7989 -4.85654 0
M  V30 29447 H 2721.51 3.19575 -2.6866 0
M  V30 29448 H 2722.9 1.79048 -6.47604 0
M  V30 29449 N 2725.62 1.50103 0.480296 0
M  V30 29450 C 2726.56 1.68293 1.57943 0
M  V30 29451 C 2727.53 0.524251 1.5761 0
M  V30 29452 O 2728.72 0.75374 1.75281 0
M  V30 29453 C 2725.86 1.77462 2.95975 0
M  V30 29454 C 2724.97 3.04771 3.06167 0
M  V30 29455 C 2724.11 3.04792 4.35058 0
M  V30 29456 C 2723.15 4.26593 4.38958 0
M  V30 29457 N 2722.28 4.24406 5.59307 0
M  V30 29458 H 2727.12 2.62134 1.41738 0
M  V30 29459 H 2724.66 1.29951 0.689281 0
M  V30 29460 H 2726.62 1.80759 3.76008 0
M  V30 29461 H 2725.25 0.870691 3.10836 0
M  V30 29462 H 2724.3 3.10989 2.19066 0
M  V30 29463 H 2725.61 3.94756 3.04909 0
M  V30 29464 H 2724.77 3.06767 5.2343 0
M  V30 29465 H 2723.5 2.12622 4.38912 0
M  V30 29466 H 2722.51 4.24841 3.48985 0
M  V30 29467 H 2723.73 5.1998 4.36804 0
M  V30 29468 H 2721.68 3.35084 5.63963 0
M  V30 29469 H 2721.6 5.08148 5.59751 0
M  V30 29470 H 2722.87 4.30513 6.4983 0
M  V30 29471 N 2727.09 -0.732829 1.39526 0
M  V30 29472 C 2728.51 -1.3112 1.32908 0
M  V30 29473 C 2728.86 -1.96199 -0.00555259 0
M  V30 29474 O 2727.98 -1.96444 -0.907672 0
M  V30 29475 C 2728.58 -2.38422 2.40708 0
M  V30 29476 C 2727.14 -2.91927 2.37604 0
M  V30 29477 C 2726.28 -1.65519 2.22483 0
M  V30 29478 H 2729.23 -0.530181 1.49582 0
M  V30 29479 H 2729.25 -3.18863 2.07622 0
M  V30 29480 H 2728.77 -1.91027 3.37832 0
M  V30 29481 H 2726.87 -3.43597 1.44125 0
M  V30 29482 H 2726.98 -3.44894 3.32544 0
M  V30 29483 H 2725.34 -1.89937 1.69694 0
M  V30 29484 H 2726.13 -1.20173 3.2158 0
M  V30 29485 N 2728.57 -1.24737 -0.963244 0
M  V30 29486 C 2729.85 -0.99763 -1.68246 0
M  V30 29487 C 2730.23 0.47874 -2.056 0
M  V30 29488 O 2729.58 1.45409 -1.76263 0
M  V30 29489 C 2729.79 -1.92492 -2.91115 0
M  V30 29490 C 2731.14 -2.19839 -3.63257 0
M  V30 29491 O 2732.16 -1.90181 -3.0118 0
M  V30 29492 O 2731.02 -2.70228 -4.75015 0
M  V30 29493 H 2728.11 -0.37765 -0.735738 0
M  V30 29494 H 2730.66 -1.35855 -1.01694 0
M  V30 29495 H 2729.43 -2.9222 -2.60237 0
M  V30 29496 H 2729.05 -1.56745 -3.654 0
M  V30 29497 N 2730.05 1.16459 -1.06184 0
M  V30 29498 C 2730.96 2.24446 -0.68271 0
M  V30 29499 C 2731.98 1.71381 0.30075 0
M  V30 29500 O 2733.15 2.00838 0.150341 0
M  V30 29501 C 2730.22 3.46621 -0.0737811 0
M  V30 29502 C 2729.28 4.14729 -1.10897 0
M  V30 29503 C 2728.51 5.31072 -0.529001 0
M  V30 29504 O 2728.73 5.66585 0.65858 0
M  V30 29505 O 2727.67 5.88389 -1.26815 0
M  V30 29506 H 2731.49 2.59184 -1.58295 0
M  V30 29507 H 2729.08 1.23952 -0.834035 0
M  V30 29508 H 2730.96 4.20571 0.264118 0
M  V30 29509 H 2729.64 3.1366 0.79996 0
M  V30 29510 H 2728.54 3.42754 -1.49903 0
M  V30 29511 H 2729.88 4.51743 -1.9542 0
M  V30 29512 N 2731.53 0.844266 1.33079 0
M  V30 29513 C 2732.46 0.226319 2.27075 0
M  V30 29514 C 2733.44 -0.62969 1.49912 0
M  V30 29515 O 2734.62 -0.588771 1.79069 0
M  V30 29516 C 2731.75 -0.681724 3.31768 0
M  V30 29517 C 2730.8 0.0995314 4.26384 0
M  V30 29518 S 2731.63 1.46103 5.15184 0
M  V30 29519 C 2732.79 0.558429 6.23404 0
M  V30 29520 H 2733.02 1.02317 2.79139 0
M  V30 29521 H 2730.55 0.641316 1.40451 0
M  V30 29522 H 2732.51 -1.20001 3.92568 0
M  V30 29523 H 2731.17 -1.45229 2.78509 0
M  V30 29524 H 2730.36 -0.591645 5.00515 0
M  V30 29525 H 2729.97 0.549056 3.69948 0
M  V30 29526 H 2732.26 -0.241553 6.77069 0
M  V30 29527 H 2733.2 1.27007 6.96617 0
M  V30 29528 H 2733.61 0.13738 5.64333 0
M  V30 29529 N 2733.01 -1.45682 0.60121 0
M  V30 29530 C 2734.23 -2.06658 0.100091 0
M  V30 29531 C 2734.65 -1.44693 -1.21282 0
M  V30 29532 O 2734.01 -0.558803 -1.73734 0
M  V30 29533 C 2734.06 -3.61461 -0.0527943 0
M  V30 29534 O 2733.78 -4.21112 1.20817 0
M  V30 29535 C 2735.28 -4.39408 -0.586116 0
M  V30 29536 H 2732.5 -0.667754 0.0659167 0
M  V30 29537 H 2735.04 -1.87026 0.827134 0
M  V30 29538 H 2733.2 -3.80457 -0.730136 0
M  V30 29539 H 2733.61 -5.14211 1.03377 0
M  V30 29540 H 2735.09 -5.48252 -0.642201 0
M  V30 29541 H 2735.56 -4.08742 -1.60705 0
M  V30 29542 H 2736.17 -4.25262 0.0569682 0
M  V30 29543 N 2734.48 -0.340009 -1.53889 0
M  V30 29544 C 2735.73 0.257967 -2.01153 0
M  V30 29545 C 2736.06 1.50485 -1.22752 0
M  V30 29546 O 2735.34 1.91946 -0.314189 0
M  V30 29547 C 2735.62 0.575654 -3.55469 0
M  V30 29548 C 2735.47 -0.683074 -4.44583 0
M  V30 29549 C 2736.79 1.3867 -4.17683 0
M  V30 29550 H 2733.91 0.0922863 -0.731199 0
M  V30 29551 H 2736.55 -0.459846 -1.84351 0
M  V30 29552 H 2734.7 1.18718 -3.69917 0
M  V30 29553 H 2736.38 -1.32109 -4.41978 0
M  V30 29554 H 2734.62 -1.30868 -4.13589 0
M  V30 29555 H 2735.29 -0.416098 -5.50429 0
M  V30 29556 H 2737.77 0.869633 -4.06911 0
M  V30 29557 H 2736.64 1.57773 -5.25736 0
M  V30 29558 H 2736.9 2.38775 -3.72074 0
M  V30 29559 N 2735.96 1.57451 -0.0685468 0
M  V30 29560 C 2737.21 1.92984 0.600127 0
M  V30 29561 C 2737.53 0.949058 1.70346 0
M  V30 29562 O 2736.8 -0.00332204 1.959 0
M  V30 29563 H 2735.38 0.712413 0.22467 0
M  V30 29564 H 2738.04 1.94495 -0.125639 0
M  V30 29565 H 2737.14 2.947 1.02754 0
M  V30 29566 N 2737.44 -0.204984 1.56261 0
M  V30 29567 C 2738.39 -1.25408 1.93756 0
M  V30 29568 C 2739.36 -1.45738 0.796851 0
M  V30 29569 O 2740.54 -1.59034 1.05417 0
M  V30 29570 C 2737.68 -2.59594 2.27388 0
M  V30 29571 C 2736.8 -2.46925 3.54475 0
M  V30 29572 C 2735.93 -3.73747 3.77474 0
M  V30 29573 C 2734.97 -3.55869 4.9802 0
M  V30 29574 N 2734.11 -4.74679 5.17324 0
M  V30 29575 H 2738.95 -0.92732 2.83204 0
M  V30 29576 H 2736.48 -0.446549 1.40158 0
M  V30 29577 H 2738.44 -3.37757 2.44901 0
M  V30 29578 H 2737.07 -2.90332 1.41093 0
M  V30 29579 H 2736.12 -1.6011 3.45064 0
M  V30 29580 H 2737.44 -2.29643 4.42793 0
M  V30 29581 H 2736.59 -4.60351 3.95173 0
M  V30 29582 H 2735.33 -3.93971 2.87468 0
M  V30 29583 H 2734.33 -2.67649 4.80254 0
M  V30 29584 H 2735.56 -3.37099 5.89526 0
M  V30 29585 H 2733.51 -4.95186 4.30264 0
M  V30 29586 H 2733.42 -4.60186 5.99804 0
M  V30 29587 H 2734.69 -5.62663 5.39473 0
M  V30 29588 N 2738.92 -1.50356 -0.472329 0
M  V30 29589 C 2740.17 -1.61522 -1.22632 0
M  V30 29590 C 2740.5 -0.314029 -1.91644 0
M  V30 29591 O 2739.77 0.684414 -1.8206 0
M  V30 29592 C 2740.06 -2.79464 -2.27094 0
M  V30 29593 C 2739.91 -4.19462 -1.62394 0
M  V30 29594 C 2741.23 -2.9297 -3.28415 0
M  V30 29595 H 2738.35 -0.587881 -0.444483 0
M  V30 29596 H 2740.99 -1.82738 -0.520289 0
M  V30 29597 H 2739.14 -2.61506 -2.87309 0
M  V30 29598 H 2740.81 -4.49007 -1.05786 0
M  V30 29599 H 2739.05 -4.23777 -0.927109 0
M  V30 29600 H 2739.73 -4.97913 -2.383 0
M  V30 29601 H 2742.2 -3.09406 -2.78221 0
M  V30 29602 H 2741.08 -3.7712 -3.98838 0
M  V30 29603 H 2741.34 -2.03532 -3.92463 0
M  V30 29604 N 2740.4 0.725419 -1.39912 0
M  V30 29605 C 2741.63 1.51241 -1.40747 0
M  V30 29606 C 2742.04 1.892 -0.00278729 0
M  V30 29607 O 2741.38 1.55296 0.981272 0
M  V30 29608 C 2741.44 2.82347 -2.22532 0
M  V30 29609 C 2741.1 2.66768 -3.71058 0
M  V30 29610 C 2742.1 2.34678 -4.63921 0
M  V30 29611 C 2739.79 2.83339 -4.14758 0
M  V30 29612 C 2741.78 2.19355 -5.98466 0
M  V30 29613 C 2739.47 2.67635 -5.49377 0
M  V30 29614 C 2740.47 2.35689 -6.41046 0
M  V30 29615 O 2740.15 2.20093 -7.73184 0
M  V30 29616 H 2739.89 0.473647 -0.482322 0
M  V30 29617 H 2742.44 0.903252 -1.84474 0
M  V30 29618 H 2740.67 3.45559 -1.73569 0
M  V30 29619 H 2742.36 3.44014 -2.15427 0
M  V30 29620 H 2743.12 2.21517 -4.31457 0
M  V30 29621 H 2739 3.07194 -3.43733 0
M  V30 29622 H 2742.55 1.94343 -6.69983 0
M  V30 29623 H 2738.44 2.80377 -5.81429 0
M  V30 29624 H 2739.21 2.35089 -7.84012 0
M  V30 29625 N 2741.88 1.25246 0.956615 0
M  V30 29626 C 2742.84 1.05541 2.03455 0
M  V30 29627 C 2743.84 0.00889143 1.60798 0
M  V30 29628 O 2745.03 0.250895 1.72384 0
M  V30 29629 C 2742.16 0.602024 3.35542 0
M  V30 29630 H 2743.35 2.01227 2.22369 0
M  V30 29631 H 2740.91 1.07625 1.13343 0
M  V30 29632 H 2741.64 -0.357528 3.22323 0
M  V30 29633 H 2741.43 1.35749 3.67851 0
M  V30 29634 H 2742.92 0.485527 4.14768 0
M  V30 29635 N 2743.35 -1.15894 1.068 0
M  V30 29636 C 2744.32 -2.1865 0.687366 0
M  V30 29637 C 2745.32 -1.58525 -0.269532 0
M  V30 29638 O 2746.51 -1.74125 -0.0512321 0
M  V30 29639 C 2743.64 -3.40898 0.0122241 0
M  V30 29640 H 2744.83 -2.53839 1.59705 0
M  V30 29641 H 2742.38 -1.30259 0.863851 0
M  V30 29642 H 2743.12 -3.11272 -0.90997 0
M  V30 29643 H 2742.9 -3.85794 0.700377 0
M  V30 29644 H 2744.39 -4.16912 -0.23963 0
M  V30 29645 N 2744.83 -0.851312 -1.32629 0
M  V30 29646 C 2745.76 -0.308812 -2.31449 0
M  V30 29647 C 2746.74 0.590227 -1.59532 0
M  V30 29648 O 2747.93 0.511172 -1.87352 0
M  V30 29649 C 2745.06 0.506488 -3.43587 0
M  V30 29650 C 2744.01 -0.297828 -4.26963 0
M  V30 29651 C 2743.34 0.642001 -5.30832 0
M  V30 29652 C 2744.64 -1.52174 -4.9964 0
M  V30 29653 H 2746.33 -1.13452 -2.77072 0
M  V30 29654 H 2743.88 -0.546995 -1.33206 0
M  V30 29655 H 2745.83 0.896402 -4.11756 0
M  V30 29656 H 2744.55 1.36553 -2.96683 0
M  V30 29657 H 2743.21 -0.669455 -3.60436 0
M  V30 29658 H 2742.86 1.49779 -4.80182 0
M  V30 29659 H 2742.56 0.107865 -5.87501 0
M  V30 29660 H 2744.09 1.02916 -6.01864 0
M  V30 29661 H 2745.5 -1.20431 -5.60508 0
M  V30 29662 H 2743.9 -1.99357 -5.66018 0
M  V30 29663 H 2744.97 -2.28481 -4.27697 0
M  V30 29664 N 2746.31 1.45361 -0.608928 0
M  V30 29665 C 2747.24 2.27652 0.158019 0
M  V30 29666 C 2748.22 1.37217 0.872373 0
M  V30 29667 O 2749.4 1.66647 0.880972 0
M  V30 29668 C 2746.53 3.1562 1.2289 0
M  V30 29669 C 2745.58 4.22006 0.617533 0
M  V30 29670 S 2746.41 5.32397 -0.575611 0
M  V30 29671 C 2747.57 6.23933 0.495828 0
M  V30 29672 H 2747.8 2.92352 -0.540146 0
M  V30 29673 H 2745.33 1.49223 -0.396482 0
M  V30 29674 H 2747.29 3.66858 1.84188 0
M  V30 29675 H 2745.95 2.50183 1.89914 0
M  V30 29676 H 2745.14 4.83485 1.42333 0
M  V30 29677 H 2744.75 3.73915 0.0796616 0
M  V30 29678 H 2747.04 6.6341 1.37453 0
M  V30 29679 H 2747.98 7.08052 -0.0828352 0
M  V30 29680 H 2748.39 5.58633 0.811758 0
M  V30 29681 N 2747.79 0.348166 1.53706 0
M  V30 29682 C 2749.04 -0.247957 2.0017 0
M  V30 29683 C 2749.35 -1.51284 1.23986 0
M  V30 29684 O 2750.56 -2.18649 1.6095 0
M  V30 29685 C 2749.01 -0.492396 3.56516 0
M  V30 29686 C 2748.62 0.756854 4.41561 0
M  V30 29687 C 2750.36 -1.04712 4.11382 0
M  V30 29688 C 2748.27 0.48296 5.89425 0
M  V30 29689 H 2747.2 -0.096432 0.747808 0
M  V30 29690 H 2749.85 0.464211 1.77531 0
M  V30 29691 H 2748.23 -1.26538 3.75239 0
M  V30 29692 H 2749.41 1.5313 4.34612 0
M  V30 29693 H 2747.72 1.23355 3.97709 0
M  V30 29694 H 2750.32 -1.26708 5.1947 0
M  V30 29695 H 2750.66 -2.00405 3.64889 0
M  V30 29696 H 2751.2 -0.334731 3.96389 0
M  V30 29697 H 2747.93 1.40973 6.40162 0
M  V30 29698 H 2747.45 -0.253311 5.99265 0
M  V30 29699 H 2749.13 0.10193 6.4692 0
M  V30 29700 N 2749.27 -1.57412 0.0768958 0
M  V30 29701 C 2750.51 -1.93682 -0.591051 0
M  V30 29702 C 2750.84 -0.957316 -1.6931 0
M  V30 29703 O 2750.1 0.0262084 -1.95682 0
M  V30 29704 C 2750.39 -3.36559 -1.20262 0
M  V30 29705 C 2750.06 -4.50332 -0.226206 0
M  V30 29706 C 2748.72 -4.81181 0.0423987 0
M  V30 29707 C 2751.07 -5.19327 0.441506 0
M  V30 29708 C 2748.4 -5.7836 0.985718 0
M  V30 29709 C 2750.75 -6.17516 1.37318 0
M  V30 29710 C 2749.42 -6.4678 1.6502 0
M  V30 29711 H 2748.69 -0.708734 -0.216281 0
M  V30 29712 H 2751.34 -1.90921 0.148858 0
M  V30 29713 H 2749.64 -3.35811 -2.01838 0
M  V30 29714 H 2751.34 -3.61914 -1.72682 0
M  V30 29715 H 2747.93 -4.26276 -0.445746 0
M  V30 29716 H 2752.11 -4.95684 0.247111 0
M  V30 29717 H 2747.37 -5.99357 1.20754 0
M  V30 29718 H 2751.54 -6.70079 1.89649 0
M  V30 29719 H 2749.17 -7.21893 2.38275 0
M  V30 29720 N 2750.74 0.196695 -1.56368 0
M  V30 29721 C 2752.02 0.943129 -1.71361 0
M  V30 29722 C 2752.4 2.01442 -0.631228 0
M  V30 29723 O 2751.75 2.25678 0.358032 0
M  V30 29724 C 2751.96 1.531 -3.13626 0
M  V30 29725 C 2753.31 2.01374 -3.7381 0
M  V30 29726 O 2754.33 1.62946 -3.16744 0
M  V30 29727 O 2753.19 2.72082 -4.73955 0
M  V30 29728 H 2750.28 0.442183 -0.698859 0
M  V30 29729 H 2752.83 0.186517 -1.68672 0
M  V30 29730 H 2751.6 0.758717 -3.83874 0
M  V30 29731 H 2751.23 2.35249 -3.20536 0
M  V30 29732 N 2752.22 1.50604 0.464349 0
M  V30 29733 C 2753.47 1.6193 1.21593 0
M  V30 29734 C 2753.8 0.322771 1.91803 0
M  V30 29735 O 2753.05 -0.691744 1.83067 0
M  V30 29736 C 2753.35 2.75398 2.27795 0
M  V30 29737 C 2753.02 4.15643 1.74789 0
M  V30 29738 C 2751.68 4.53802 1.60055 0
M  V30 29739 C 2754.03 5.03268 1.35539 0
M  V30 29740 C 2751.36 5.77318 1.04503 0
M  V30 29741 C 2753.71 6.27338 0.814271 0
M  V30 29742 C 2752.38 6.64292 0.65361 0
M  V30 29743 H 2751.65 0.592544 0.444941 0
M  V30 29744 H 2754.29 1.84558 0.510931 0
M  V30 29745 H 2752.6 2.46885 3.04229 0
M  V30 29746 H 2754.29 2.81364 2.85719 0
M  V30 29747 H 2750.88 3.85544 1.87227 0
M  V30 29748 H 2755.07 4.74415 1.45754 0
M  V30 29749 H 2750.32 6.04619 0.90808 0
M  V30 29750 H 2754.5 6.94592 0.501504 0
M  V30 29751 H 2752.13 7.59879 0.221006 0
M  V30 29752 N 2753.7 -0.717989 1.40295 0
M  V30 29753 C 2754.93 -1.50493 1.41547 0
M  V30 29754 C 2755.34 -1.89196 0.012821 0
M  V30 29755 O 2754.68 -1.55814 -0.973023 0
M  V30 29756 C 2754.74 -2.81163 2.24026 0
M  V30 29757 C 2754.41 -2.64796 3.72468 0
M  V30 29758 C 2755.4 -2.32214 4.65159 0
M  V30 29759 C 2753.09 -2.81136 4.16255 0
M  V30 29760 C 2755.08 -2.16178 5.99621 0
M  V30 29761 C 2752.77 -2.64717 5.50788 0
M  V30 29762 C 2753.77 -2.32286 6.42287 0
M  V30 29763 O 2753.46 -2.1599 7.74341 0
M  V30 29764 H 2753.19 -0.471082 0.484827 0
M  V30 29765 H 2755.74 -0.893456 1.8495 0
M  V30 29766 H 2753.97 -3.44633 1.75399 0
M  V30 29767 H 2755.66 -3.42867 2.17249 0
M  V30 29768 H 2756.43 -2.19226 4.32626 0
M  V30 29769 H 2752.31 -3.05367 3.45358 0
M  V30 29770 H 2755.85 -1.90787 6.71004 0
M  V30 29771 H 2751.75 -2.77289 5.82907 0
M  V30 29772 H 2752.52 -2.30928 7.85248 0
M  V30 29773 N 2755.18 -1.25752 -0.94996 0
M  V30 29774 C 2756.13 -1.06544 -2.04736 0
M  V30 29775 C 2757.1 0.0268526 -1.66078 0
M  V30 29776 O 2758.28 -0.131229 -1.90348 0
M  V30 29777 C 2755.42 -0.695186 -3.38025 0
M  V30 29778 C 2754.53 -1.86282 -3.89773 0
M  V30 29779 C 2753.67 -1.43649 -5.11408 0
M  V30 29780 C 2752.71 -2.57297 -5.55396 0
M  V30 29781 N 2751.84 -2.15407 -6.6824 0
M  V30 29782 H 2756.68 -2.0046 -2.20499 0
M  V30 29783 H 2754.22 -0.998197 -1.08048 0
M  V30 29784 H 2756.18 -0.461448 -4.1464 0
M  V30 29785 H 2754.81 0.20699 -3.22136 0
M  V30 29786 H 2753.86 -2.20974 -3.09636 0
M  V30 29787 H 2755.17 -2.71613 -4.18363 0
M  V30 29788 H 2754.33 -1.16268 -5.95455 0
M  V30 29789 H 2753.07 -0.553964 -4.84544 0
M  V30 29790 H 2752.07 -2.85418 -4.69911 0
M  V30 29791 H 2753.3 -3.46135 -5.84266 0
M  V30 29792 H 2751.24 -1.29577 -6.43075 0
M  V30 29793 H 2751.16 -2.94284 -6.96371 0
M  V30 29794 H 2752.43 -1.91214 -7.55683 0
M  V30 29795 N 2756.66 1.15326 -1.07413 0
M  V30 29796 C 2757.59 2.19702 -0.652962 0
M  V30 29797 C 2758.6 1.60108 0.29484 0
M  V30 29798 O 2759.79 1.78302 0.0840618 0
M  V30 29799 C 2756.89 3.38844 0.0613744 0
M  V30 29800 C 2756.06 4.27982 -0.902771 0
M  V30 29801 C 2755.12 5.25716 -0.225613 0
M  V30 29802 O 2754.15 5.6256 -0.866858 0
M  V30 29803 N 2755.35 5.71317 1.02848 0
M  V30 29804 H 2758.12 2.56454 -1.55085 0
M  V30 29805 H 2755.68 1.30448 -0.958906 0
M  V30 29806 H 2757.67 4.01279 0.525074 0
M  V30 29807 H 2756.24 3.00503 0.861216 0
M  V30 29808 H 2755.46 3.62637 -1.54557 0
M  V30 29809 H 2756.75 4.84409 -1.55645 0
M  V30 29810 H 2756.14 5.43495 1.56938 0
M  V30 29811 H 2754.7 6.35788 1.43584 0
M  V30 29812 N 2758.13 0.858334 1.32176 0
M  V30 29813 C 2759.08 0.294483 2.30728 0
M  V30 29814 C 2760.08 -0.584137 1.5901 0
M  V30 29815 O 2761.28 -0.471531 1.73714 0
M  V30 29816 H 2757.66 0.0765303 0.748096 0
M  V30 29817 H 2759.63 1.13985 2.75772 0
M  V30 29818 C 2758.38 -0.499147 3.44099 0
M  V30 29819 H 2757.7 0.167649 3.99448 0
M  V30 29820 H 2759.14 -0.8592 4.15203 0
M  V30 29821 C 2757.6 -1.68583 2.91687 0
M  V30 29822 O 2758.13 -2.78498 2.89486 0
M  V30 29823 N 2756.34 -1.51411 2.48039 0
M  V30 29824 H 2755.88 -0.619962 2.50028 0
M  V30 29825 H 2755.84 -2.30953 2.13326 0
M  V30 29826 N 2759.61 -1.45036 0.616628 0
M  V30 29827 C 2760.56 -2.30596 -0.0969034 0
M  V30 29828 C 2761.53 -1.42636 -0.851126 0
M  V30 29829 O 2762.71 -1.71556 -0.835062 0
M  V30 29830 C 2759.85 -3.2769 -1.08229 0
M  V30 29831 C 2758.97 -4.30753 -0.327996 0
M  V30 29832 C 2758.1 -5.14948 -1.3039 0
M  V30 29833 C 2757.14 -6.09732 -0.537942 0
M  V30 29834 N 2756.28 -6.86676 -1.46358 0
M  V30 29835 H 2761.12 -2.91075 0.638692 0
M  V30 29836 H 2758.66 -1.43425 0.326758 0
M  V30 29837 H 2760.61 -3.82457 -1.66682 0
M  V30 29838 H 2759.24 -2.68944 -1.78519 0
M  V30 29839 H 2758.3 -3.78575 0.372202 0
M  V30 29840 H 2759.61 -4.98073 0.26923 0
M  V30 29841 H 2758.76 -5.74161 -1.96022 0
M  V30 29842 H 2757.5 -4.47668 -1.93506 0
M  V30 29843 H 2756.51 -5.49642 0.131949 0
M  V30 29844 H 2757.73 -6.79043 0.0882925 0
M  V30 29845 H 2755.68 -6.22077 -2.08222 0
M  V30 29846 H 2755.59 -7.50381 -0.92002 0
M  V30 29847 H 2756.86 -7.50422 -2.10919 0
M  V30 29848 N 2761.09 -0.356312 -1.53519 0
M  V30 29849 C 2762.32 0.237291 -2.05535 0
M  V30 29850 C 2762.73 1.43197 -1.23045 0
M  V30 29851 O 2762.09 1.80509 -0.268852 0
M  V30 29852 C 2762.14 0.639871 -3.55792 0
M  V30 29853 O 2761.86 -0.50731 -4.35153 0
M  V30 29854 C 2763.36 1.29284 -4.24029 0
M  V30 29855 H 2760.58 0.0435454 -0.669586 0
M  V30 29856 H 2763.13 -0.511998 -1.97987 0
M  V30 29857 H 2761.28 1.33909 -3.63521 0
M  V30 29858 H 2761.7 -0.183842 -5.24178 0
M  V30 29859 H 2763.17 1.52517 -5.30511 0
M  V30 29860 H 2763.65 2.25033 -3.7717 0
M  V30 29861 H 2764.25 0.635316 -4.20528 0
M  V30 29862 N 2762.57 1.57369 -0.0852427 0
M  V30 29863 C 2763.8 1.98326 0.589425 0
M  V30 29864 C 2764.21 0.964059 1.62331 0
M  V30 29865 O 2763.57 -0.0476075 1.82438 0
M  V30 29866 C 2763.62 3.39349 1.24598 0
M  V30 29867 O 2763.34 4.37366 0.253455 0
M  V30 29868 C 2764.84 3.95255 2.00719 0
M  V30 29869 H 2762.06 0.651945 0.158772 0
M  V30 29870 H 2764.61 2.0386 -0.16162 0
M  V30 29871 H 2762.76 3.3486 1.94802 0
M  V30 29872 H 2763.17 5.1945 0.726115 0
M  V30 29873 H 2764.65 4.9611 2.4203 0
M  V30 29874 H 2765.13 3.32532 2.86913 0
M  V30 29875 H 2765.73 4.03187 1.35353 0
M  V30 29876 N 2764.05 -0.188399 1.5647 0
M  V30 29877 C 2765.46 -0.539505 1.50205 0
M  V30 29878 C 2765.66 -1.85518 0.786472 0
M  V30 29879 O 2764.72 -2.50204 0.339758 0
M  V30 29880 C 2766.03 -0.588051 2.94894 0
M  V30 29881 C 2767.58 -0.676426 3.05603 0
M  V30 29882 C 2768.05 -0.756022 4.51717 0
M  V30 29883 N 2769.55 -0.819371 4.55895 0
M  V30 29884 C 2770.28 -0.90124 5.66273 0
M  V30 29885 N 2769.78 -0.944998 6.86325 0
M  V30 29886 N 2771.57 -0.938946 5.54202 0
M  V30 29887 H 2763.72 0.674529 2.01405 0
M  V30 29888 H 2765.98 0.241119 0.916824 0
M  V30 29889 H 2765.69 0.309695 3.50334 0
M  V30 29890 H 2765.56 -1.44045 3.48613 0
M  V30 29891 H 2767.95 -1.5646 2.50208 0
M  V30 29892 H 2768.03 0.202307 2.54999 0
M  V30 29893 H 2767.68 0.127829 5.07739 0
M  V30 29894 H 2767.61 -1.65065 5.00061 0
M  V30 29895 H 2770.1 -0.794529 3.69453 0
M  V30 29896 H 2770.41 -1.00817 7.66196 0
M  V30 29897 H 2768.75 -0.913562 6.8897 0
M  V30 29898 H 2771.95 -0.901644 4.59334 0
M  V30 29899 H 2772.12 -0.99929 6.40249 0
M  V30 29900 N 2765.53 -1.50848 -0.456355 0
M  V30 29901 C 2766.8 -1.531 -1.21736 0
M  V30 29902 C 2767.18 -0.284169 -2.09179 0
M  V30 29903 O 2766.53 0.731735 -2.16467 0
M  V30 29904 C 2766.74 -2.8348 -2.03568 0
M  V30 29905 C 2768.09 -3.34708 -2.61259 0
M  V30 29906 O 2769.11 -2.84902 -2.13797 0
M  V30 29907 O 2767.97 -4.21565 -3.47772 0
M  V30 29908 H 2765.07 -0.614728 -0.553208 0
M  V30 29909 H 2767.61 -1.63149 -0.466974 0
M  V30 29910 H 2766.38 -3.65694 -1.39226 0
M  V30 29911 H 2766.01 -2.76504 -2.85711 0
M  V30 29912 N 2767 0.710538 -1.40674 0
M  V30 29913 C 2767.94 1.83555 -1.37259 0
M  V30 29914 C 2768.95 1.60423 -0.277161 0
M  V30 29915 O 2770.14 1.70204 -0.537861 0
M  V30 29916 C 2767.24 3.20052 -1.11445 0
M  V30 29917 C 2766.41 3.70338 -2.32741 0
M  V30 29918 C 2765.47 4.85462 -2.0301 0
M  V30 29919 O 2764.5 4.97852 -2.75921 0
M  V30 29920 N 2765.7 5.71626 -1.01115 0
M  V30 29921 H 2768.46 1.86981 -2.34218 0
M  V30 29922 H 2766.02 0.892278 -1.35093 0
M  V30 29923 H 2768.02 3.94672 -0.895334 0
M  V30 29924 H 2766.59 3.11743 -0.231361 0
M  V30 29925 H 2765.81 2.86793 -2.70451 0
M  V30 29926 H 2767.09 4.00672 -3.13591 0
M  V30 29927 H 2766.49 5.64231 -0.407402 0
M  V30 29928 H 2765.05 6.46208 -0.851933 0
M  V30 29929 N 2768.48 1.26254 0.943277 0
M  V30 29930 C 2769.41 1.0195 2.0416 0
M  V30 29931 C 2770.39 -0.0550522 1.62507 0
M  V30 29932 O 2771.58 0.0869356 1.88299 0
M  V30 29933 C 2768.7 0.543409 3.34312 0
M  V30 29934 C 2767.75 1.6102 3.94936 0
M  V30 29935 S 2768.58 3.19857 4.29479 0
M  V30 29936 C 2769.74 2.74011 5.62733 0
M  V30 29937 H 2769.97 1.94946 2.24463 0
M  V30 29938 H 2767.5 1.0991 1.08439 0
M  V30 29939 H 2769.46 0.275387 4.09575 0
M  V30 29940 H 2768.12 -0.366235 3.11958 0
M  V30 29941 H 2767.32 1.22804 4.8881 0
M  V30 29942 H 2766.92 1.82949 3.26199 0
M  V30 29943 H 2769.21 2.18344 6.41352 0
M  V30 29944 H 2770.15 3.66569 6.05833 0
M  V30 29945 H 2770.56 2.13643 5.2251 0
M  V30 29946 N 2769.96 -1.14755 1.08024 0
M  V30 29947 C 2770.89 -2.19353 0.664604 0
M  V30 29948 C 2771.9 -1.60262 -0.286345 0
M  V30 29949 O 2773.09 -1.78344 -0.0746049 0
M  V30 29950 C 2770.19 -3.38872 -0.0434038 0
M  V30 29951 C 2769.37 -4.27497 0.925456 0
M  V30 29952 C 2768.43 -5.25589 0.25349 0
M  V30 29953 O 2767.45 -5.62093 0.89668 0
M  V30 29954 N 2768.65 -5.71854 -0.998163 0
M  V30 29955 H 2771.42 -2.55628 1.56443 0
M  V30 29956 H 2768.98 -1.29937 0.96581 0
M  V30 29957 H 2770.97 -4.01552 -0.503786 0
M  V30 29958 H 2769.54 -3.00955 -0.845268 0
M  V30 29959 H 2768.76 -3.61812 1.56478 0
M  V30 29960 H 2770.05 -4.83577 1.58211 0
M  V30 29961 H 2769.45 -5.4432 -1.54054 0
M  V30 29962 H 2768 -6.36541 -1.40211 0
M  V30 29963 N 2771.44 -0.865331 -1.31719 0
M  V30 29964 C 2772.37 -0.274946 -2.27545 0
M  V30 29965 C 2773.38 0.559386 -1.52888 0
M  V30 29966 O 2774.57 0.382135 -1.74362 0
M  V30 29967 C 2771.67 0.629228 -3.33007 0
M  V30 29968 C 2770.84 -0.17163 -4.37063 0
M  V30 29969 C 2769.9 0.659961 -5.22045 0
M  V30 29970 O 2768.93 0.0896526 -5.69129 0
M  V30 29971 N 2770.13 1.9728 -5.4595 0
M  V30 29972 H 2772.9 -1.09841 -2.78846 0
M  V30 29973 H 2770.46 -0.726356 -1.44692 0
M  V30 29974 H 2772.45 1.19114 -3.86774 0
M  V30 29975 H 2771.02 1.35337 -2.81785 0
M  V30 29976 H 2770.24 -0.914987 -3.83434 0
M  V30 29977 H 2771.53 -0.721323 -5.03661 0
M  V30 29978 H 2770.93 2.45933 -5.09444 0
M  V30 29979 H 2769.48 2.4826 -6.02669 0
M  V30 29980 N 2772.92 1.44707 -0.624311 0
M  V30 29981 C 2773.88 2.29078 0.0749235 0
M  V30 29982 C 2774.88 1.40674 0.77894 0
M  V30 29983 O 2776.07 1.62619 0.624563 0
M  V30 29984 C 2773.2 3.22095 1.11657 0
M  V30 29985 H 2774.39 2.92387 -0.667064 0
M  V30 29986 H 2771.95 1.51506 -0.384125 0
M  V30 29987 H 2772.68 2.63621 1.88877 0
M  V30 29988 H 2772.47 3.87235 0.615762 0
M  V30 29989 H 2773.96 3.85492 1.60578 0
M  V30 29990 N 2774.39 0.364449 1.53328 0
M  V30 29991 C 2775.8 -0.115006 1.86345 0
M  V30 29992 C 2776.16 -1.48258 1.28507 0
M  V30 29993 O 2775.28 -2.07722 0.606675 0
M  V30 29994 C 2775.88 -0.215462 3.38114 0
M  V30 29995 C 2774.43 -0.639171 3.70933 0
M  V30 29996 C 2773.58 0.214309 2.76471 0
M  V30 29997 H 2776.53 0.583284 1.47592 0
M  V30 29998 H 2776.55 -1.03924 3.66033 0
M  V30 29999 H 2776.07 0.780015 3.80181 0
M  V30 30000 H 2774.17 -1.64292 3.34423 0
M  V30 30001 H 2774.28 -0.414567 4.77303 0
M  V30 30002 H 2772.64 -0.316633 2.52724 0
M  V30 30003 H 2773.43 1.20731 3.21371 0
M  V30 30004 N 2775.87 -1.57322 0.0935872 0
M  V30 30005 C 2777.12 -1.93914 -0.569348 0
M  V30 30006 C 2777.44 -0.976039 -1.68815 0
M  V30 30007 O 2776.71 -0.0278443 -1.9588 0
M  V30 30008 H 2775.29 -0.715897 -0.213307 0
M  V30 30009 H 2777.95 -1.9427 0.156565 0
M  V30 30010 H 2777.05 -2.96297 -0.980525 0
M  V30 30011 N 2777.35 0.180099 -1.56568 0
M  V30 30012 C 2778.6 0.896361 -1.81135 0
M  V30 30013 C 2778.92 1.8316 -0.669146 0
M  V30 30014 O 2778.19 1.93406 0.311582 0
M  V30 30015 H 2776.77 0.333987 -0.668178 0
M  V30 30016 H 2779.43 0.182017 -1.94048 0
M  V30 30017 H 2778.53 1.47852 -2.74856 0
M  V30 30018 N 2778.83 1.51088 0.448349 0
M  V30 30019 C 2779.76 1.74547 1.55099 0
M  V30 30020 C 2780.74 0.594961 1.59356 0
M  V30 30021 O 2781.92 0.836522 1.7526 0
M  V30 30022 C 2779.05 1.86046 2.93265 0
M  V30 30023 C 2778.01 3.01407 3.03871 0
M  V30 30024 C 2777.33 2.98075 4.43909 0
M  V30 30025 C 2778.63 4.41556 2.78972 0
M  V30 30026 H 2780.33 2.66872 1.3572 0
M  V30 30027 H 2777.87 1.2842 0.651475 0
M  V30 30028 H 2779.83 2.01041 3.70352 0
M  V30 30029 H 2778.55 0.903603 3.13851 0
M  V30 30030 H 2777.21 2.861 2.29222 0
M  V30 30031 H 2776.86 2.0019 4.61447 0
M  V30 30032 H 2776.56 3.75535 4.51937 0
M  V30 30033 H 2778.08 3.15149 5.22985 0
M  V30 30034 H 2779.5 4.57271 3.45797 0
M  V30 30035 H 2777.89 5.20638 2.98422 0
M  V30 30036 H 2778.96 4.52353 1.74655 0
M  V30 30037 N 2780.31 -0.703068 1.41049 0
M  V30 30038 C 2781.53 -1.49703 1.4354 0
M  V30 30039 C 2781.96 -1.88057 0.0402184 0
M  V30 30040 O 2781.31 -1.54124 -0.954758 0
M  V30 30041 C 2781.36 -2.74079 2.34335 0
M  V30 30042 O 2780.47 -3.71276 1.79522 0
M  V30 30043 H 2779.81 -0.450863 0.487462 0
M  V30 30044 H 2782.34 -0.864827 1.85424 0
M  V30 30045 H 2782.35 -3.22471 2.49953 0
M  V30 30046 H 2781.02 -2.455 3.35712 0
M  V30 30047 H 2779.6 -3.30176 1.73315 0
M  V30 30048 N 2781.78 -1.26752 -0.936569 0
M  V30 30049 C 2782.72 -1.04504 -2.03989 0
M  V30 30050 C 2783.73 -0.00397122 -1.628 0
M  V30 30051 O 2784.92 -0.244558 -1.76817 0
M  V30 30052 C 2782.02 -0.561462 -3.34217 0
M  V30 30053 C 2781.19 -1.67281 -4.04148 0
M  V30 30054 C 2780.25 -1.18649 -5.12649 0
M  V30 30055 O 2779.28 -1.88446 -5.371 0
M  V30 30056 N 2780.48 -0.03738 -5.80488 0
M  V30 30057 H 2783.24 -1.99512 -2.2364 0
M  V30 30058 H 2780.8 -1.182 -1.10636 0
M  V30 30059 H 2782.8 -0.220207 -4.041 0
M  V30 30060 H 2781.37 0.295156 -3.11203 0
M  V30 30061 H 2780.59 -2.18478 -3.28117 0
M  V30 30062 H 2781.87 -2.41893 -4.47622 0
M  V30 30063 H 2781.27 0.545395 -5.63065 0
M  V30 30064 H 2779.83 0.244763 -6.5134 0
M  V30 30065 N 2783.26 1.1418 -1.08631 0
M  V30 30066 C 2784.2 2.18376 -0.662367 0
M  V30 30067 C 2785.17 1.59277 0.327026 0
M  V30 30068 O 2786.36 1.87087 0.230344 0
M  V30 30069 C 2783.48 3.3869 0.025417 0
M  V30 30070 C 2782.53 4.1636 -0.924487 0
M  V30 30071 S 2783.36 4.77072 -2.43234 0
M  V30 30072 C 2784.52 6.00741 -1.75673 0
M  V30 30073 H 2784.75 2.53999 -1.54506 0
M  V30 30074 H 2782.29 1.25348 -0.901506 0
M  V30 30075 H 2784.24 4.08387 0.41596 0
M  V30 30076 H 2782.9 3.01385 0.884636 0
M  V30 30077 H 2782.1 5.02487 -0.390187 0
M  V30 30078 H 2781.7 3.52278 -1.25604 0
M  V30 30079 H 2783.99 6.68901 -1.07601 0
M  V30 30080 H 2784.93 6.58764 -2.59684 0
M  V30 30081 H 2785.34 5.50956 -1.22913 0
M  V30 30082 N 2784.74 0.872304 1.31258 0
M  V30 30083 C 2785.99 0.483443 1.96233 0
M  V30 30084 C 2786.31 -0.967982 1.69278 0
M  V30 30085 O 2785.58 -1.67889 1.00946 0
M  V30 30086 H 2784.16 0.175787 0.726022 0
M  V30 30087 H 2786.82 1.1126 1.60022 0
M  V30 30088 H 2785.92 0.643129 3.05402 0
M  V30 30089 N 2786.22 -1.44374 0.631976 0
M  V30 30090 C 2787.63 -1.8541 0.219069 0
M  V30 30091 C 2787.98 -1.52881 -1.22971 0
M  V30 30092 O 2787.11 -0.9673 -1.93578 0
M  V30 30093 C 2787.7 -3.36538 0.390809 0
M  V30 30094 C 2786.26 -3.76386 0.0324013 0
M  V30 30095 C 2785.41 -2.6822 0.703791 0
M  V30 30096 H 2788.36 -1.34828 0.837079 0
M  V30 30097 H 2788.38 -3.78697 -0.36999 0
M  V30 30098 H 2787.89 -3.60183 1.44534 0
M  V30 30099 H 2785.99 -3.58357 -1.02036 0
M  V30 30100 H 2786.1 -4.77047 0.443052 0
M  V30 30101 H 2784.47 -2.5432 0.139018 0
M  V30 30102 H 2785.25 -2.94697 1.76093 0
M  V30 30103 N 2787.7 -0.372575 -1.53133 0
M  V30 30104 C 2788.94 0.215242 -2.01655 0
M  V30 30105 C 2789.28 1.47847 -1.25916 0
M  V30 30106 O 2788.55 1.91236 -0.354833 0
M  V30 30107 C 2788.83 0.500125 -3.5661 0
M  V30 30108 C 2788.69 -0.777223 -4.43034 0
M  V30 30109 C 2790.01 1.29779 -4.2053 0
M  V30 30110 H 2787.12 0.0767557 -0.732992 0
M  V30 30111 H 2789.77 -0.498846 -1.83334 0
M  V30 30112 H 2787.92 1.10845 -3.72351 0
M  V30 30113 H 2789.59 -1.41455 -4.39077 0
M  V30 30114 H 2787.83 -1.39611 -4.1072 0
M  V30 30115 H 2788.5 -0.532758 -5.49423 0
M  V30 30116 H 2790.98 0.783126 -4.08664 0
M  V30 30117 H 2789.85 1.46586 -5.28965 0
M  V30 30118 H 2790.12 2.30829 -3.77055 0
M  V30 30119 N 2789.17 1.5727 -0.101929 0
M  V30 30120 C 2790.4 1.99364 0.571724 0
M  V30 30121 C 2790.82 0.980796 1.60505 0
M  V30 30122 O 2790.18 -0.0498199 1.81232 0
M  V30 30123 C 2790.23 3.40402 1.1899 0
M  V30 30124 O 2789.33 3.41926 2.30566 0
M  V30 30125 H 2788.68 0.6481 0.144437 0
M  V30 30126 H 2791.21 2.03759 -0.185361 0
M  V30 30127 H 2791.22 3.78244 1.52955 0
M  V30 30128 H 2789.89 4.13641 0.432911 0
M  V30 30129 H 2788.47 3.15886 1.98167 0
M  V30 30130 N 2790.65 -0.171793 1.56661 0
M  V30 30131 C 2791.58 -1.21494 1.99403 0
M  V30 30132 C 2792.56 -1.46195 0.869541 0
M  V30 30133 O 2793.75 -1.57537 1.13559 0
M  V30 30134 C 2790.88 -2.55396 2.35351 0
M  V30 30135 C 2789.83 -2.45265 3.50755 0
M  V30 30136 C 2789.16 -3.83653 3.72444 0
M  V30 30137 C 2790.46 -1.95778 4.84219 0
M  V30 30138 H 2792.15 -0.859648 2.86793 0
M  V30 30139 H 2789.7 -0.412079 1.37978 0
M  V30 30140 H 2791.65 -3.28575 2.63849 0
M  V30 30141 H 2790.38 -2.92713 1.44869 0
M  V30 30142 H 2789.03 -1.74541 3.22383 0
M  V30 30143 H 2788.68 -4.18362 2.79253 0
M  V30 30144 H 2788.38 -3.77743 4.50093 0
M  V30 30145 H 2789.91 -4.58418 4.03342 0
M  V30 30146 H 2791.32 -2.58731 5.11597 0
M  V30 30147 H 2789.72 -2.00817 5.65502 0
M  V30 30148 H 2790.79 -0.912075 4.76245 0
M  V30 30149 N 2792.13 -1.51324 -0.44033 0
M  V30 30150 C 2793.38 -1.63844 -1.19002 0
M  V30 30151 C 2793.71 -0.353244 -1.91265 0
M  V30 30152 O 2792.96 0.662532 -1.84144 0
M  V30 30153 C 2793.26 -2.78988 -2.23385 0
M  V30 30154 C 2792.93 -4.18372 -1.68155 0
M  V30 30155 C 2791.59 -4.56291 -1.52815 0
M  V30 30156 C 2793.94 -5.05361 -1.27515 0
M  V30 30157 C 2791.27 -5.78907 -0.953055 0
M  V30 30158 C 2793.62 -6.28554 -0.714364 0
M  V30 30159 C 2792.28 -6.65248 -0.547844 0
M  V30 30160 H 2791.55 -0.599548 -0.435458 0
M  V30 30161 H 2794.2 -1.85348 -0.481505 0
M  V30 30162 H 2792.51 -2.51694 -3.00263 0
M  V30 30163 H 2794.2 -2.85874 -2.81206 0
M  V30 30164 H 2790.79 -3.88474 -1.8107 0
M  V30 30165 H 2794.98 -4.76674 -1.38188 0
M  V30 30166 H 2790.23 -6.05987 -0.811775 0
M  V30 30167 H 2794.41 -6.95302 -0.390937 0
M  V30 30168 H 2792.03 -7.60134 -0.100088 0
M  V30 30169 N 2793.61 0.695578 -1.41419 0
M  V30 30170 C 2794.56 1.80162 -1.39734 0
M  V30 30171 C 2795.54 1.58589 -0.271717 0
M  V30 30172 O 2796.73 1.69421 -0.512384 0
M  V30 30173 C 2793.86 3.18467 -1.28193 0
M  V30 30174 C 2792.95 3.45735 -2.45618 0
M  V30 30175 N 2793.34 3.43702 -3.71083 0
M  V30 30176 C 2791.64 3.76283 -2.3943 0
M  V30 30177 C 2792.34 3.69874 -4.48963 0
M  V30 30178 N 2791.32 3.89618 -3.79077 0
M  V30 30179 H 2795.12 1.76953 -2.34659 0
M  V30 30180 H 2792.63 0.895567 -1.35475 0
M  V30 30181 H 2794.63 3.97698 -1.25067 0
M  V30 30182 H 2793.29 3.22888 -0.342525 0
M  V30 30183 H 2794.3 3.24083 -4.03969 0
M  V30 30184 H 2790.98 3.88075 -1.53962 0
M  V30 30185 H 2792.37 3.74438 -5.57894 0
M  V30 30186 N 2795.09 1.27247 0.929833 0
M  V30 30187 C 2796.5 1.12205 1.49221 0
M  V30 30188 C 2796.85 -0.293697 1.93989 0
M  V30 30189 O 2795.97 -1.18639 1.8098 0
M  V30 30190 C 2796.57 2.03074 2.71194 0
M  V30 30191 C 2795.13 1.92145 3.23663 0
M  V30 30192 C 2794.28 1.95756 1.96405 0
M  V30 30193 H 2797.23 1.40171 0.744157 0
M  V30 30194 H 2797.25 1.5853 3.45902 0
M  V30 30195 H 2796.76 3.06107 2.3858 0
M  V30 30196 H 2794.86 0.920898 3.6104 0
M  V30 30197 H 2794.97 2.78274 3.90001 0
M  V30 30198 H 2793.34 1.39953 2.12803 0
M  V30 30199 H 2794.12 3.00438 1.66107 0
M  V30 30200 N 2796.57 -1.13603 1.09235 0
M  V30 30201 C 2797.5 -2.21067 0.751776 0
M  V30 30202 C 2798.48 -1.67949 -0.269659 0
M  V30 30203 O 2799.66 -1.93708 -0.138156 0
M  V30 30204 C 2796.79 -3.46887 0.169411 0
M  V30 30205 C 2795.75 -4.13082 1.12014 0
M  V30 30206 C 2795.07 -5.33205 0.399577 0
M  V30 30207 C 2796.37 -4.60646 2.46176 0
M  V30 30208 H 2798.07 -2.49812 1.65029 0
M  V30 30209 H 2795.61 -1.20071 0.794926 0
M  V30 30210 H 2797.56 -4.21322 -0.0809084 0
M  V30 30211 H 2796.29 -3.17532 -0.76428 0
M  V30 30212 H 2794.95 -3.40612 1.3557 0
M  V30 30213 H 2794.6 -5.00113 -0.538189 0
M  V30 30214 H 2794.3 -5.7844 1.03347 0
M  V30 30215 H 2795.82 -6.10397 0.157511 0
M  V30 30216 H 2797.23 -5.26514 2.26838 0
M  V30 30217 H 2795.63 -5.16614 3.05335 0
M  V30 30218 H 2796.7 -3.75271 3.07083 0
M  V30 30219 N 2798.04 -0.879253 -1.30793 0
M  V30 30220 C 2798.99 -0.340008 -2.28282 0
M  V30 30221 C 2799.96 0.566658 -1.56135 0
M  V30 30222 O 2801.15 0.496306 -1.84232 0
M  V30 30223 C 2798.29 0.444441 -3.42226 0
M  V30 30224 C 2797.4 -0.490793 -4.29203 0
M  V30 30225 C 2796.53 0.308691 -5.30302 0
M  V30 30226 C 2795.57 -0.622379 -6.08928 0
M  V30 30227 N 2794.71 0.141427 -7.01958 0
M  V30 30228 H 2799.55 -1.17652 -2.73792 0
M  V30 30229 H 2797.09 -0.591551 -1.34681 0
M  V30 30230 H 2799.04 0.915114 -4.0704 0
M  V30 30231 H 2797.67 1.24557 -2.97801 0
M  V30 30232 H 2796.73 -1.07994 -3.64748 0
M  V30 30233 H 2798.04 -1.20433 -4.84043 0
M  V30 30234 H 2797.19 0.84147 -6.00836 0
M  V30 30235 H 2795.93 1.05547 -4.76142 0
M  V30 30236 H 2794.94 -1.16683 -5.37276 0
M  V30 30237 H 2796.16 -1.36816 -6.65175 0
M  V30 30238 H 2794.11 0.870851 -6.50194 0
M  V30 30239 H 2794.02 -0.512592 -7.5426 0
M  V30 30240 H 2795.29 0.655135 -7.76742 0
M  V30 30241 N 2799.52 1.44037 -0.639624 0
M  V30 30242 C 2800.48 2.29144 0.0506226 0
M  V30 30243 C 2801.48 1.41492 0.763976 0
M  V30 30244 O 2802.67 1.63272 0.60728 0
M  V30 30245 C 2799.81 3.23262 1.08235 0
M  V30 30246 H 2801 2.91663 -0.698038 0
M  V30 30247 H 2798.55 1.5109 -0.400173 0
M  V30 30248 H 2799.29 2.65609 1.8607 0
M  V30 30249 H 2799.07 3.87866 0.574656 0
M  V30 30250 H 2800.56 3.87174 1.56481 0
M  V30 30251 N 2801 0.380691 1.52933 0
M  V30 30252 C 2802.23 -0.204563 2.05886 0
M  V30 30253 C 2802.64 -1.41221 1.25308 0
M  V30 30254 O 2802 -1.80058 0.297536 0
M  V30 30255 C 2802.05 -0.583186 3.56765 0
M  V30 30256 O 2801.77 0.576475 4.34291 0
M  V30 30257 C 2803.27 -1.22522 4.26032 0
M  V30 30258 H 2800.49 -0.0328874 0.670194 0
M  V30 30259 H 2803.04 0.543431 1.97147 0
M  V30 30260 H 2801.19 -1.28108 3.65605 0
M  V30 30261 H 2801.61 0.267211 5.23819 0
M  V30 30262 H 2803.08 -1.44058 5.32871 0
M  V30 30263 H 2803.56 -2.19004 3.80702 0
M  V30 30264 H 2804.16 -0.568333 4.21486 0
M  V30 30265 N 2802.48 -1.57214 0.110268 0
M  V30 30266 C 2803.41 -2.17869 -0.839964 0
M  V30 30267 C 2804.39 -1.11626 -1.2835 0
M  V30 30268 O 2805.57 -1.39826 -1.34767 0
M  V30 30269 C 2802.7 -2.77114 -2.09344 0
M  V30 30270 C 2801.66 -3.88863 -1.788 0
M  V30 30271 C 2800.98 -4.34877 -3.11104 0
M  V30 30272 C 2802.28 -5.11366 -1.06311 0
M  V30 30273 H 2803.98 -2.97525 -0.334555 0
M  V30 30274 H 2801.52 -1.43114 -0.159477 0
M  V30 30275 H 2803.48 -3.18203 -2.76269 0
M  V30 30276 H 2802.2 -1.94735 -2.62194 0
M  V30 30277 H 2800.86 -3.48337 -1.14267 0
M  V30 30278 H 2800.51 -3.49368 -3.61871 0
M  V30 30279 H 2800.21 -5.10229 -2.91444 0
M  V30 30280 H 2801.73 -4.78611 -3.79162 0
M  V30 30281 H 2803.15 -5.49529 -1.63374 0
M  V30 30282 H 2801.54 -5.92245 -0.967772 0
M  V30 30283 H 2802.61 -4.84876 -0.0483717 0
M  V30 30284 N 2803.96 0.163482 -1.5675 0
M  V30 30285 C 2804.87 1.22206 -2.00257 0
M  V30 30286 C 2805.88 1.47986 -0.91522 0
M  V30 30287 O 2807.06 1.5998 -1.22345 0
M  V30 30288 C 2804.12 2.53942 -2.36039 0
M  V30 30289 C 2803.18 2.35956 -3.58641 0
M  V30 30290 C 2802.42 3.61409 -3.92707 0
M  V30 30291 O 2802.64 4.66913 -3.27641 0
M  V30 30292 O 2801.57 3.55053 -4.86026 0
M  V30 30293 H 2805.4 0.882743 -2.90588 0
M  V30 30294 H 2802.98 0.370952 -1.44721 0
M  V30 30295 H 2804.87 3.31639 -2.59988 0
M  V30 30296 H 2803.54 2.87437 -1.48868 0
M  V30 30297 H 2802.45 1.56264 -3.39901 0
M  V30 30298 H 2803.78 2.07382 -4.46378 0
M  V30 30299 N 2805.43 1.51555 0.432299 0
M  V30 30300 C 2806.37 1.69433 1.54354 0
M  V30 30301 C 2807.38 0.574924 1.5231 0
M  V30 30302 O 2808.57 0.849397 1.56995 0
M  V30 30303 C 2805.67 1.69842 2.9327 0
M  V30 30304 C 2804.84 2.98447 3.19762 0
M  V30 30305 C 2803.9 2.90977 4.38428 0
M  V30 30306 O 2802.93 3.64915 4.36836 0
M  V30 30307 N 2804.13 2.07173 5.42273 0
M  V30 30308 H 2806.89 2.65296 1.39421 0
M  V30 30309 H 2804.45 1.49504 0.621305 0
M  V30 30310 H 2806.45 1.62405 3.70684 0
M  V30 30311 H 2805.02 0.81551 3.01775 0
M  V30 30312 H 2804.24 3.19713 2.30602 0
M  V30 30313 H 2805.52 3.83569 3.34293 0
M  V30 30314 H 2804.92 1.46487 5.46405 0
M  V30 30315 H 2803.48 2.05612 6.1852 0
M  V30 30316 N 2806.91 -0.688069 1.41786 0
M  V30 30317 C 2808.14 -1.4767 1.44917 0
M  V30 30318 C 2808.55 -1.88715 0.0566118 0
M  V30 30319 O 2807.91 -1.57276 -0.925762 0
M  V30 30320 C 2807.96 -2.73442 2.36456 0
M  V30 30321 O 2807.68 -2.34124 3.70294 0
M  V30 30322 C 2809.18 -3.67121 2.4847 0
M  V30 30323 H 2806.4 -0.454824 0.493332 0
M  V30 30324 H 2808.95 -0.846561 1.86155 0
M  V30 30325 H 2807.1 -3.32676 1.98508 0
M  V30 30326 H 2807.52 -3.15248 4.19189 0
M  V30 30327 H 2808.99 -4.52133 3.1667 0
M  V30 30328 H 2809.47 -4.1212 1.51833 0
M  V30 30329 H 2810.07 -3.13787 2.87085 0
M  V30 30330 N 2808.39 -1.27739 -0.923072 0
M  V30 30331 C 2809.32 -1.06661 -2.02869 0
M  V30 30332 C 2810.33 -0.0212381 -1.62786 0
M  V30 30333 O 2811.52 -0.263298 -1.76547 0
M  V30 30334 C 2808.62 -0.596879 -3.33602 0
M  V30 30335 C 2807.8 -1.71558 -4.02351 0
M  V30 30336 C 2806.86 -1.2408 -5.11361 0
M  V30 30337 O 2805.88 -1.94132 -5.35071 0
M  V30 30338 N 2807.08 -0.0989464 -5.80416 0
M  V30 30339 H 2809.85 -2.01873 -2.21512 0
M  V30 30340 H 2807.41 -1.19367 -1.09376 0
M  V30 30341 H 2809.4 -0.263055 -4.03844 0
M  V30 30342 H 2807.97 0.262132 -3.11499 0
M  V30 30343 H 2807.19 -2.21946 -3.25782 0
M  V30 30344 H 2808.48 -2.46627 -4.45031 0
M  V30 30345 H 2807.88 0.485644 -5.63612 0
M  V30 30346 H 2806.43 0.175666 -6.51563 0
M  V30 30347 N 2809.87 1.13022 -1.09836 0
M  V30 30348 C 2811.28 1.65937 -0.85568 0
M  V30 30349 C 2811.63 1.86308 0.615126 0
M  V30 30350 O 2810.76 1.585 1.47332 0
M  V30 30351 C 2811.35 3.01431 -1.54676 0
M  V30 30352 C 2809.91 3.51321 -1.35095 0
M  V30 30353 C 2809.06 2.26475 -1.60014 0
M  V30 30354 H 2812.01 0.968867 -1.25693 0
M  V30 30355 H 2812.03 3.67603 -0.982244 0
M  V30 30356 H 2811.54 2.86573 -2.6172 0
M  V30 30357 H 2809.64 3.71375 -0.301856 0
M  V30 30358 H 2809.75 4.31174 -2.08867 0
M  V30 30359 H 2808.12 2.33275 -1.0225 0
M  V30 30360 H 2808.9 2.14177 -2.68297 0
M  V30 30361 N 2811.35 0.886177 1.30325 0
M  V30 30362 C 2812.31 0.358726 2.26375 0
M  V30 30363 C 2813.31 -0.499471 1.52846 0
M  V30 30364 O 2814.5 -0.306455 1.71483 0
M  V30 30365 C 2811.63 -0.488666 3.37379 0
M  V30 30366 H 2812.82 1.20686 2.74545 0
M  V30 30367 H 2810.38 0.663138 1.41535 0
M  V30 30368 H 2811.11 -1.35734 2.94528 0
M  V30 30369 H 2810.9 0.126072 3.91897 0
M  V30 30370 H 2812.39 -0.849448 4.08869 0
M  V30 30371 N 2812.82 -1.43695 0.647253 0
M  V30 30372 C 2814.07 -2.0218 0.158458 0
M  V30 30373 C 2814.4 -1.50909 -1.2223 0
M  V30 30374 O 2813.68 -0.699734 -1.81477 0
M  V30 30375 C 2813.96 -3.59732 0.162763 0
M  V30 30376 C 2813.81 -4.21249 1.57701 0
M  V30 30377 C 2815.13 -4.37204 -0.504061 0
M  V30 30378 H 2812.25 -0.73463 0.059055 0
M  V30 30379 H 2814.89 -1.71067 0.826802 0
M  V30 30380 H 2813.04 -3.86369 -0.406346 0
M  V30 30381 H 2814.72 -4.05663 2.19625 0
M  V30 30382 H 2812.96 -3.78127 2.12609 0
M  V30 30383 H 2813.63 -5.30317 1.53193 0
M  V30 30384 H 2816.11 -4.16095 -0.019911 0
M  V30 30385 H 2814.98 -5.46882 -0.470297 0
M  V30 30386 H 2815.24 -4.1301 -1.57719 0
M  V30 30387 N 2814.3 -0.388796 -1.52729 0
M  V30 30388 C 2815.23 0.43807 -2.29354 0
M  V30 30389 C 2816.21 1.06392 -1.32721 0
M  V30 30390 O 2817.4 1.07679 -1.61614 0
M  V30 30391 C 2814.53 1.56584 -3.09998 0
M  V30 30392 C 2813.48 1.06606 -4.14511 0
M  V30 30393 C 2812.81 2.28586 -4.83376 0
M  V30 30394 C 2814.11 0.134367 -5.22127 0
M  V30 30395 H 2815.8 -0.201258 -2.98723 0
M  V30 30396 H 2813.35 -0.0982341 -1.43665 0
M  V30 30397 H 2815.3 2.15111 -3.62361 0
M  V30 30398 H 2814.03 2.23274 -2.38361 0
M  V30 30399 H 2812.68 0.503319 -3.63128 0
M  V30 30400 H 2812.33 2.93785 -4.08288 0
M  V30 30401 H 2812.03 1.95807 -5.54016 0
M  V30 30402 H 2813.56 2.87757 -5.38543 0
M  V30 30403 H 2814.97 0.627814 -5.69852 0
M  V30 30404 H 2813.37 -0.103639 -6.0001 0
M  V30 30405 H 2814.44 -0.816882 -4.7797 0
M  V30 30406 N 2815.78 1.57153 -0.118604 0
M  V30 30407 C 2817.2 1.57816 0.237986 0
M  V30 30408 C 2817.4 1.1313 1.66745 0
M  V30 30409 O 2816.45 0.818504 2.38866 0
M  V30 30410 C 2817.77 3.007 0.00502921 0
M  V30 30411 C 2819.31 3.1292 0.0709589 0
M  V30 30412 C 2819.79 4.57803 -0.134301 0
M  V30 30413 N 2821.28 4.6313 -0.080257 0
M  V30 30414 C 2822.01 5.73001 -0.213986 0
M  V30 30415 N 2821.51 6.91622 -0.403864 0
M  V30 30416 N 2823.3 5.6189 -0.153589 0
M  V30 30417 H 2815.45 1.84501 -1.05229 0
M  V30 30418 H 2817.72 0.852662 -0.414333 0
M  V30 30419 H 2817.42 3.37678 -0.983184 0
M  V30 30420 H 2817.3 3.69928 0.737075 0
M  V30 30421 H 2819.68 2.758 1.0497 0
M  V30 30422 H 2819.77 2.46235 -0.692961 0
M  V30 30423 H 2819.41 4.95622 -1.11001 0
M  V30 30424 H 2819.34 5.22578 0.649601 0
M  V30 30425 H 2821.83 3.77847 0.0630025 0
M  V30 30426 H 2822.14 7.71202 -0.49678 0
M  V30 30427 H 2820.49 6.93607 -0.439832 0
M  V30 30428 H 2823.68 4.681 -0.00621402 0
M  V30 30429 H 2823.85 6.47473 -0.261251 0
M  V30 30430 N 2817.26 -0.155167 1.56834 0
M  V30 30431 C 2818.51 -0.86743 1.82538 0
M  V30 30432 C 2818.83 -1.82072 0.6982 0
M  V30 30433 O 2818.1 -1.93877 -0.280773 0
M  V30 30434 H 2816.68 -0.323315 0.673407 0
M  V30 30435 H 2819.34 -0.151122 1.94313 0
M  V30 30436 H 2818.44 -1.43461 2.77174 0
M  V30 30437 N 2818.74 -1.51782 -0.424256 0
M  V30 30438 C 2819.7 -1.73434 -1.49845 0
M  V30 30439 C 2820.7 -0.604251 -1.49015 0
M  V30 30440 O 2821.89 -0.871962 -1.50806 0
M  V30 30441 C 2819.02 -1.80282 -2.89329 0
M  V30 30442 H 2820.21 -2.69315 -1.31946 0
M  V30 30443 H 2817.77 -1.4197 -0.653784 0
M  V30 30444 H 2818.5 -0.862623 -3.12617 0
M  V30 30445 H 2818.29 -2.62424 -2.91335 0
M  V30 30446 H 2819.78 -1.98827 -3.67229 0
M  V30 30447 N 2820.21 0.68054 -1.42149 0
M  V30 30448 C 2821.63 0.992973 -1.24949 0
M  V30 30449 C 2821.83 2.00944 -0.149562 0
M  V30 30450 O 2820.89 2.47874 0.481101 0
M  V30 30451 C 2822.2 1.50325 -2.60428 0
M  V30 30452 C 2823.75 1.62132 -2.67735 0
M  V30 30453 C 2824.22 2.16558 -4.03568 0
M  V30 30454 N 2825.71 2.23898 -4.05492 0
M  V30 30455 C 2826.45 2.67072 -5.07405 0
M  V30 30456 N 2825.94 3.0974 -6.19704 0
M  V30 30457 N 2827.74 2.6677 -4.94763 0
M  V30 30458 H 2819.89 0.00744146 -2.12399 0
M  V30 30459 H 2822.15 0.0658363 -0.945711 0
M  V30 30460 H 2821.86 0.830887 -3.41744 0
M  V30 30461 H 2821.73 2.48295 -2.83953 0
M  V30 30462 H 2824.12 2.28476 -1.86769 0
M  V30 30463 H 2824.2 0.62667 -2.48005 0
M  V30 30464 H 2823.84 1.50824 -4.84989 0
M  V30 30465 H 2823.77 3.16803 -4.20646 0
M  V30 30466 H 2826.26 1.93807 -3.24419 0
M  V30 30467 H 2826.58 3.41353 -6.93324 0
M  V30 30468 H 2824.92 3.07612 -6.23218 0
M  V30 30469 H 2828.11 2.32794 -4.06109 0
M  V30 30470 H 2828.29 3.00097 -5.74322 0
M  V30 30471 N 2821.69 1.28226 0.916285 0
M  V30 30472 C 2822.94 1.15403 1.66763 0
M  V30 30473 C 2823.27 -0.297217 1.91912 0
M  V30 30474 O 2822.55 -1.21641 1.51768 0
M  V30 30475 C 2822.83 1.95033 3.02711 0
M  V30 30476 C 2822.68 3.48206 2.84732 0
M  V30 30477 C 2824 1.76376 4.03212 0
M  V30 30478 H 2821.12 0.4206 0.605198 0
M  V30 30479 H 2823.76 1.57513 1.06252 0
M  V30 30480 H 2821.91 1.59248 3.54362 0
M  V30 30481 H 2823.58 3.93884 2.40111 0
M  V30 30482 H 2821.83 3.73968 2.19842 0
M  V30 30483 H 2822.5 3.99178 3.81263 0
M  V30 30484 H 2824.97 2.076 3.60613 0
M  V30 30485 H 2823.85 2.34468 4.96302 0
M  V30 30486 H 2824.11 0.714597 4.36287 0
M  V30 30487 N 2823.17 -1.12438 1.10433 0
M  V30 30488 C 2824.42 -1.83947 0.84675 0
M  V30 30489 C 2824.75 -1.84094 -0.627677 0
M  V30 30490 O 2824 -1.28186 -1.47874 0
M  V30 30491 C 2824.3 -3.31318 1.34028 0
M  V30 30492 C 2823.97 -3.51342 2.82612 0
M  V30 30493 C 2822.63 -3.56515 3.23188 0
M  V30 30494 C 2824.98 -3.58457 3.78362 0
M  V30 30495 C 2822.31 -3.66348 4.58264 0
M  V30 30496 C 2824.66 -3.6982 5.13241 0
M  V30 30497 C 2823.32 -3.7325 5.5339 0
M  V30 30498 H 2822.59 -0.673109 0.309848 0
M  V30 30499 H 2825.24 -1.32675 1.38093 0
M  V30 30500 H 2823.55 -3.85013 0.726114 0
M  V30 30501 H 2825.24 -3.85116 1.11745 0
M  V30 30502 H 2821.83 -3.47978 2.50218 0
M  V30 30503 H 2826.02 -3.53731 3.48121 0
M  V30 30504 H 2821.27 -3.67275 4.88793 0
M  V30 30505 H 2825.45 -3.74269 5.87278 0
M  V30 30506 H 2823.07 -3.80621 6.58051 0
M  V30 30507 N 2824.65 -0.893076 -1.29853 0
M  V30 30508 C 2825.58 -0.382289 -2.30349 0
M  V30 30509 C 2826.56 0.539174 -1.61329 0
M  V30 30510 O 2827.75 0.451309 -1.88883 0
M  V30 30511 C 2824.88 0.396922 -3.45024 0
M  V30 30512 C 2823.83 -0.433512 -4.25799 0
M  V30 30513 C 2823.16 0.472796 -5.32606 0
M  V30 30514 C 2824.46 -1.67993 -4.94546 0
M  V30 30515 H 2826.15 -1.2221 -2.73322 0
M  V30 30516 H 2823.7 -0.589096 -1.31399 0
M  V30 30517 H 2825.65 0.764951 -4.14399 0
M  V30 30518 H 2824.37 1.27045 -3.00877 0
M  V30 30519 H 2823.03 -0.783786 -3.58123 0
M  V30 30520 H 2822.68 1.34427 -4.84704 0
M  V30 30521 H 2822.38 -0.0790991 -5.87547 0
M  V30 30522 H 2823.9 0.837163 -6.04834 0
M  V30 30523 H 2825.32 -1.38202 -5.56393 0
M  V30 30524 H 2823.71 -2.17264 -5.59389 0
M  V30 30525 H 2824.78 -2.41972 -4.20211 0
M  V30 30526 N 2826.13 1.4335 -0.654865 0
M  V30 30527 C 2827.54 1.56306 -0.322577 0
M  V30 30528 C 2827.74 1.63823 1.17321 0
M  V30 30529 O 2826.8 1.5942 1.9581 0
M  V30 30530 C 2828.11 2.82313 -1.03538 0
M  V30 30531 C 2829.66 2.96059 -1.01579 0
M  V30 30532 C 2830.14 4.24899 -1.70952 0
M  V30 30533 N 2831.63 4.31767 -1.67724 0
M  V30 30534 C 2832.36 5.3023 -2.18275 0
M  V30 30535 N 2831.86 6.34961 -2.77121 0
M  V30 30536 N 2833.65 5.21894 -2.08765 0
M  V30 30537 H 2825.8 1.36715 -1.62551 0
M  V30 30538 H 2828.06 0.656715 -0.683688 0
M  V30 30539 H 2827.77 2.82827 -2.0905 0
M  V30 30540 H 2827.64 3.72589 -0.587979 0
M  V30 30541 H 2830.03 2.95084 0.0309315 0
M  V30 30542 H 2830.11 2.07067 -1.5019 0
M  V30 30543 H 2829.76 4.26635 -2.75582 0
M  V30 30544 H 2829.69 5.12791 -1.19806 0
M  V30 30545 H 2832.18 3.56704 -1.24784 0
M  V30 30546 H 2832.49 7.06415 -3.13365 0
M  V30 30547 H 2830.84 6.3558 -2.81182 0
M  V30 30548 H 2834.03 4.38991 -1.62496 0
M  V30 30549 H 2834.2 5.98471 -2.48469 0
M  V30 30550 N 2827.61 0.39689 1.52521 0
M  V30 30551 C 2828.54 -0.469774 2.24334 0
M  V30 30552 C 2829.55 -1.02041 1.26852 0
M  V30 30553 O 2830.74 -0.921444 1.52878 0
M  V30 30554 C 2827.84 -1.66455 2.95205 0
M  V30 30555 C 2827.01 -1.23996 4.19456 0
M  V30 30556 C 2826.07 -2.30027 4.73259 0
M  V30 30557 O 2825.1 -1.91122 5.36154 0
M  V30 30558 N 2826.3 -3.62039 4.53771 0
M  V30 30559 H 2829.06 0.14552 2.99347 0
M  V30 30560 H 2826.63 0.223635 1.60348 0
M  V30 30561 H 2828.62 -2.36929 3.28096 0
M  V30 30562 H 2827.19 -2.18603 2.23454 0
M  V30 30563 H 2826.41 -0.363823 3.92517 0
M  V30 30564 H 2827.7 -0.933047 5.00172 0
M  V30 30565 H 2827.09 -3.96405 4.03583 0
M  V30 30566 H 2825.65 -4.28524 4.91132 0
M  V30 30567 N 2829.08 -1.57088 0.126936 0
M  V30 30568 C 2830.03 -2.1573 -0.820322 0
M  V30 30569 C 2831 -1.08449 -1.25809 0
M  V30 30570 O 2832.19 -1.36396 -1.3342 0
M  V30 30571 C 2829.33 -2.76727 -2.06194 0
M  V30 30572 C 2828.44 -3.9834 -1.67181 0
M  V30 30573 C 2827.57 -4.47399 -2.8637 0
M  V30 30574 C 2826.61 -5.61523 -2.43635 0
M  V30 30575 N 2825.75 -6.0529 -3.55764 0
M  V30 30576 H 2830.59 -2.96347 -0.31342 0
M  V30 30577 H 2828.13 -1.46403 -0.143004 0
M  V30 30578 H 2830.08 -3.10227 -2.78954 0
M  V30 30579 H 2828.71 -1.98787 -2.5433 0
M  V30 30580 H 2827.77 -3.7095 -0.842648 0
M  V30 30581 H 2829.08 -4.81077 -1.3178 0
M  V30 30582 H 2828.23 -4.82848 -3.67345 0
M  V30 30583 H 2826.97 -3.63627 -3.25003 0
M  V30 30584 H 2825.98 -5.2567 -1.61095 0
M  V30 30585 H 2827.2 -6.47067 -2.0611 0
M  V30 30586 H 2825.15 -5.24458 -3.94055 0
M  V30 30587 H 2825.06 -6.82903 -3.24313 0
M  V30 30588 H 2826.33 -6.4538 -4.37155 0
M  V30 30589 N 2830.56 0.146848 -1.56914 0
M  V30 30590 C 2831.79 0.878353 -1.87882 0
M  V30 30591 C 2832.21 1.73941 -0.715975 0
M  V30 30592 O 2831.57 1.78189 0.334416 0
M  V30 30593 C 2831.62 1.71078 -3.17434 0
M  V30 30594 O 2830.72 2.81504 -3.01379 0
M  V30 30595 H 2830.06 0.244633 -0.617293 0
M  V30 30596 H 2832.59 0.137618 -2.04137 0
M  V30 30597 H 2832.6 2.10576 -3.49459 0
M  V30 30598 H 2831.28 1.07849 -4.01673 0
M  V30 30599 H 2829.85 2.45411 -2.80763 0
M  V30 30600 N 2832.04 1.52005 0.4162 0
M  V30 30601 C 2833.26 1.69846 1.19026 0
M  V30 30602 C 2833.69 0.404136 1.83707 0
M  V30 30603 O 2833.05 -0.637757 1.69713 0
M  V30 30604 C 2833.1 2.83036 2.23434 0
M  V30 30605 O 2832.2 2.48112 3.29415 0
M  V30 30606 H 2831.54 0.56564 0.347775 0
M  V30 30607 H 2834.07 1.98674 0.488836 0
M  V30 30608 H 2834.08 3.07742 2.67879 0
M  V30 30609 H 2832.76 3.76947 1.75738 0
M  V30 30610 H 2831.33 2.34053 2.90299 0
M  V30 30611 N 2833.52 -0.672992 1.42508 0
M  V30 30612 C 2834.75 -1.46125 1.46476 0
M  V30 30613 C 2835.16 -1.88644 0.0766243 0
M  V30 30614 O 2834.52 -1.5825 -0.909029 0
M  V30 30615 C 2834.57 -2.70919 2.39343 0
M  V30 30616 O 2834.29 -2.30183 3.72756 0
M  V30 30617 C 2835.79 -3.64465 2.5235 0
M  V30 30618 H 2833.01 -0.449566 0.498128 0
M  V30 30619 H 2835.55 -0.826769 1.87042 0
M  V30 30620 H 2833.71 -3.30552 2.02025 0
M  V30 30621 H 2834.12 -3.10784 4.22509 0
M  V30 30622 H 2835.6 -4.48748 3.21448 0
M  V30 30623 H 2836.07 -4.10487 1.56196 0
M  V30 30624 H 2836.68 -3.10724 2.90397 0
M  V30 30625 N 2835 -1.2871 -0.909472 0
M  V30 30626 C 2836.22 -1.19093 -1.69798 0
M  V30 30627 C 2836.65 0.246355 -1.8648 0
M  V30 30628 O 2836 1.17812 -1.37804 0
M  V30 30629 C 2836.05 -1.89909 -3.0654 0
M  V30 30630 O 2835.16 -1.20947 -3.94266 0
M  V30 30631 H 2834.5 -0.413194 -0.519776 0
M  V30 30632 H 2837.03 -1.70108 -1.13686 0
M  V30 30633 H 2837.04 -1.97983 -3.56745 0
M  V30 30634 H 2835.71 -2.94454 -2.93717 0
M  V30 30635 H 2834.29 -1.21066 -3.527 0
M  V30 30636 N 2836.47 1.1185 -1.11028 0
M  V30 30637 C 2837.4 2.19843 -0.786851 0
M  V30 30638 C 2838.38 1.68357 0.242905 0
M  V30 30639 O 2839.57 1.93903 0.107321 0
M  V30 30640 C 2836.7 3.46573 -0.224577 0
M  V30 30641 C 2835.65 4.11248 -1.18572 0
M  V30 30642 C 2834.98 5.32502 -0.484355 0
M  V30 30643 C 2836.28 4.56671 -2.53473 0
M  V30 30644 H 2837.97 2.47155 -1.68982 0
M  V30 30645 H 2835.52 1.18791 -0.813927 0
M  V30 30646 H 2837.47 4.21398 0.0138694 0
M  V30 30647 H 2836.2 3.18707 0.713666 0
M  V30 30648 H 2834.86 3.38412 -1.40972 0
M  V30 30649 H 2834.5 5.00905 0.458558 0
M  V30 30650 H 2834.2 5.76723 -1.12536 0
M  V30 30651 H 2835.73 6.10069 -0.2546 0
M  V30 30652 H 2837.14 5.22839 -2.35186 0
M  V30 30653 H 2835.54 5.11691 -3.13516 0
M  V30 30654 H 2836.61 3.70338 -3.13014 0
M  V30 30655 N 2837.95 0.89995 1.29378 0
M  V30 30656 C 2839.18 0.540728 2.00227 0
M  V30 30657 C 2839.6 -0.86733 1.6691 0
M  V30 30658 O 2838.96 -1.57734 0.893851 0
M  V30 30659 C 2839.01 0.740294 3.52919 0
M  V30 30660 O 2838.11 -0.207082 4.1188 0
M  V30 30661 H 2837.45 0.211244 0.629501 0
M  V30 30662 H 2839.98 1.21161 1.64867 0
M  V30 30663 H 2839.99 0.645044 4.02869 0
M  V30 30664 H 2838.67 1.76683 3.76505 0
M  V30 30665 H 2837.24 -0.0642659 3.72845 0
M  V30 30666 N 2839.43 -1.43001 0.662458 0
M  V30 30667 C 2840.38 -2.32573 -0.0353041 0
M  V30 30668 C 2841.37 -1.49133 -0.803479 0
M  V30 30669 O 2842.58 -1.65284 -0.712836 0
M  V30 30670 H 2838.95 -0.751393 -0.0302062 0
M  V30 30671 H 2840.92 -2.89137 0.737737 0
M  V30 30672 C 2839.67 -3.33559 -0.981517 0
M  V30 30673 H 2839 -3.97796 -0.399845 0
M  V30 30674 H 2840.44 -3.98847 -1.43866 0
M  V30 30675 C 2838.9 -2.64867 -2.082 0
M  V30 30676 O 2839.43 -2.47119 -3.16694 0
M  V30 30677 N 2837.63 -2.24091 -1.85018 0
M  V30 30678 H 2837.18 -2.38726 -0.967867 0
M  V30 30679 H 2837.14 -1.78461 -2.58842 0
M  V30 30680 N 2840.91 -0.404973 -1.52308 0
M  V30 30681 C 2842.16 0.171824 -2.01368 0
M  V30 30682 C 2842.48 1.46 -1.29264 0
M  V30 30683 O 2841.75 1.91403 -0.417324 0
M  V30 30684 H 2840.33 0.0664863 -0.744035 0
M  V30 30685 H 2842.99 -0.540261 -1.87262 0
M  V30 30686 H 2842.09 0.370902 -3.09888 0
M  V30 30687 N 2842.39 1.57018 -0.135265 0
M  V30 30688 C 2843.63 1.95356 0.517735 0
M  V30 30689 C 2843.96 1.02045 1.66168 0
M  V30 30690 O 2843.23 0.0797687 1.95738 0
M  V30 30691 H 2841.81 0.721301 0.194252 0
M  V30 30692 H 2844.47 1.93787 -0.208017 0
M  V30 30693 H 2843.56 2.98793 0.901622 0
M  V30 30694 N 2843.86 -0.138524 1.5699 0
M  V30 30695 C 2844.83 -1.15474 1.97986 0
M  V30 30696 C 2845.83 -1.35396 0.86744 0
M  V30 30697 O 2847.02 -1.32244 1.13389 0
M  V30 30698 C 2844.15 -2.51333 2.30314 0
M  V30 30699 H 2845.34 -0.802845 2.88954 0
M  V30 30700 H 2842.9 -0.382162 1.51556 0
M  V30 30701 H 2843.63 -2.91479 1.42164 0
M  V30 30702 H 2843.42 -2.38232 3.11429 0
M  V30 30703 H 2844.91 -3.24508 2.62839 0
M  V30 30704 N 2845.34 -1.52224 -0.408133 0
M  V30 30705 C 2846.59 -1.65559 -1.15209 0
M  V30 30706 C 2846.9 -0.39213 -1.91629 0
M  V30 30707 O 2848.11 -0.405303 -2.68458 0
M  V30 30708 C 2846.57 -2.92506 -2.09686 0
M  V30 30709 C 2846.17 -4.25963 -1.38778 0
M  V30 30710 C 2847.92 -3.15205 -2.84334 0
M  V30 30711 C 2845.83 -5.44033 -2.3191 0
M  V30 30712 H 2844.76 -0.616736 -0.433765 0
M  V30 30713 H 2847.41 -1.78711 -0.416468 0
M  V30 30714 H 2845.79 -2.73055 -2.86805 0
M  V30 30715 H 2846.96 -4.55901 -0.670168 0
M  V30 30716 H 2845.28 -4.09375 -0.761669 0
M  V30 30717 H 2847.87 -4.00594 -3.54159 0
M  V30 30718 H 2848.22 -2.29479 -3.4734 0
M  V30 30719 H 2848.75 -3.35133 -2.14315 0
M  V30 30720 H 2845.49 -6.32108 -1.73549 0
M  V30 30721 H 2845.01 -5.18433 -3.01641 0
M  V30 30722 H 2846.69 -5.77151 -2.92413 0
M  V30 30723 N 2846.82 0.665425 -1.42863 0
M  V30 30724 C 2847.75 1.79096 -1.43029 0
M  V30 30725 C 2848.77 1.5946 -0.328058 0
M  V30 30726 O 2849.95 1.68406 -0.591738 0
M  V30 30727 C 2847.05 3.16344 -1.21571 0
M  V30 30728 C 2846.23 3.62746 -2.44405 0
M  V30 30729 C 2845.29 4.78758 -2.18352 0
M  V30 30730 O 2844.31 4.88821 -2.9162 0
M  V30 30731 N 2845.51 5.68119 -1.1925 0
M  V30 30732 H 2848.28 1.79435 -2.40048 0
M  V30 30733 H 2845.84 0.848847 -1.37863 0
M  V30 30734 H 2847.83 3.91624 -1.02044 0
M  V30 30735 H 2846.4 3.10849 -0.330423 0
M  V30 30736 H 2845.62 2.78043 -2.79438 0
M  V30 30737 H 2846.91 3.90493 -3.26179 0
M  V30 30738 H 2846.31 5.62649 -0.586702 0
M  V30 30739 H 2844.87 6.43171 -1.05709 0
M  V30 30740 N 2848.3 1.29191 0.902633 0
M  V30 30741 C 2849.25 1.13947 2.02778 0
M  V30 30742 C 2850.24 0.0558168 1.69308 0
M  V30 30743 O 2851.45 0.215403 1.78707 0
M  V30 30744 H 2847.82 0.351889 0.664589 0
M  V30 30745 H 2849.79 2.09212 2.12774 0
M  V30 30746 C 2848.54 0.829719 3.37655 0
M  V30 30747 H 2847.86 1.65558 3.6391 0
M  V30 30748 H 2849.3 0.763072 4.17077 0
M  V30 30749 C 2847.76 -0.466932 3.33649 0
M  V30 30750 O 2848.29 -1.49388 3.72889 0
M  V30 30751 N 2846.5 -0.47171 2.86746 0
M  V30 30752 H 2846.05 0.364451 2.55009 0
M  V30 30753 H 2846 -1.33928 2.84448 0
M  V30 30754 N 2849.78 -1.1126 1.1162 0
M  V30 30755 C 2850.71 -2.17127 0.734053 0
M  V30 30756 C 2851.72 -1.61092 -0.235214 0
M  V30 30757 O 2852.91 -1.78491 -0.0178283 0
M  V30 30758 C 2850.01 -3.38839 0.0644278 0
M  V30 30759 C 2849.18 -4.24337 1.06099 0
M  V30 30760 C 2848.24 -5.24517 0.420574 0
M  V30 30761 O 2847.27 -5.58956 1.07505 0
M  V30 30762 N 2848.47 -5.7474 -0.815727 0
M  V30 30763 H 2851.24 -2.50522 1.64496 0
M  V30 30764 H 2848.8 -1.26799 1.00666 0
M  V30 30765 H 2850.79 -4.02952 -0.37578 0
M  V30 30766 H 2849.36 -3.03492 -0.749093 0
M  V30 30767 H 2848.58 -3.56651 1.6791 0
M  V30 30768 H 2849.87 -4.78299 1.73516 0
M  V30 30769 H 2849.26 -5.48945 -1.36659 0
M  V30 30770 H 2847.82 -6.40679 -1.19889 0
M  V30 30771 N 2851.25 -0.906798 -1.28899 0
M  V30 30772 C 2852.16 -0.394747 -2.31255 0
M  V30 30773 C 2853.18 0.514092 -1.66232 0
M  V30 30774 O 2854.36 0.401959 -1.97348 0
M  V30 30775 C 2851.42 0.363131 -3.44793 0
M  V30 30776 C 2850.48 -0.578087 -4.2539 0
M  V30 30777 C 2849.72 0.143717 -5.33506 0
M  V30 30778 O 2849.94 1.36656 -5.53788 0
M  V30 30779 O 2848.87 -0.517406 -5.99672 0
M  V30 30780 H 2852.7 -1.2441 -2.77048 0
M  V30 30781 H 2850.28 -0.67137 -1.33465 0
M  V30 30782 H 2852.17 0.79143 -4.13901 0
M  V30 30783 H 2850.84 1.18843 -3.01095 0
M  V30 30784 H 2849.75 -1.05564 -3.58897 0
M  V30 30785 H 2851.08 -1.37 -4.72749 0
M  V30 30786 N 2852.73 1.42648 -0.670032 0
M  V30 30787 C 2853.96 2.06462 -0.196991 0
M  V30 30788 C 2854.38 1.49985 1.13517 0
M  V30 30789 O 2853.74 0.616427 1.70499 0
M  V30 30790 C 2853.79 3.60338 -0.137444 0
M  V30 30791 O 2852.89 4.02561 0.895452 0
M  V30 30792 H 2852.23 0.656027 -0.10259 0
M  V30 30793 H 2854.76 1.82864 -0.917701 0
M  V30 30794 H 2854.77 4.0798 0.0402908 0
M  V30 30795 H 2853.45 4.00818 -1.10984 0
M  V30 30796 H 2852.03 3.66477 0.689145 0
M  V30 30797 N 2854.21 0.413044 1.52091 0
M  V30 30798 C 2855.46 -0.161143 2.01457 0
M  V30 30799 C 2855.78 -1.45312 1.30036 0
M  V30 30800 O 2855.05 -1.91179 0.427468 0
M  V30 30801 H 2853.63 -0.0625395 0.744377 0
M  V30 30802 H 2856.29 0.550184 1.86973 0
M  V30 30803 H 2855.39 -0.354463 3.10081 0
M  V30 30804 N 2855.69 -1.56945 0.143591 0
M  V30 30805 C 2856.94 -1.9519 -0.508316 0
M  V30 30806 C 2857.25 -1.03076 -1.66237 0
M  V30 30807 O 2858.46 -1.30886 -2.37868 0
M  V30 30808 C 2856.91 -3.4698 -0.955674 0
M  V30 30809 C 2856.52 -4.47673 0.171261 0
M  V30 30810 C 2858.27 -3.94098 -1.57756 0
M  V30 30811 C 2856.17 -5.90668 -0.294175 0
M  V30 30812 H 2855.1 -0.728704 -0.193666 0
M  V30 30813 H 2857.75 -1.82086 0.227389 0
M  V30 30814 H 2856.14 -3.55404 -1.74654 0
M  V30 30815 H 2857.31 -4.5094 0.948129 0
M  V30 30816 H 2855.62 -4.10451 0.701345 0
M  V30 30817 H 2858.22 -4.98368 -1.93736 0
M  V30 30818 H 2858.56 -3.35457 -2.46525 0
M  V30 30819 H 2859.1 -3.88576 -0.85166 0
M  V30 30820 H 2855.84 -6.5312 0.558054 0
M  V30 30821 H 2855.36 -5.90768 -1.03699 0
M  V30 30822 H 2857.04 -6.4267 -0.747313 0
M  V30 30823 N 2857.17 0.130197 -1.57061 0
M  V30 30824 C 2858.11 1.16021 -1.99519 0
M  V30 30825 C 2859.08 1.4177 -0.865477 0
M  V30 30826 O 2860.27 1.53824 -1.12885 0
M  V30 30827 C 2857.41 2.48449 -2.39514 0
M  V30 30828 C 2856.52 2.29731 -3.65852 0
M  V30 30829 C 2855.66 3.55311 -3.94876 0
M  V30 30830 C 2854.7 3.31702 -5.14432 0
M  V30 30831 N 2853.83 4.49456 -5.39383 0
M  V30 30832 H 2858.67 0.791144 -2.87306 0
M  V30 30833 H 2856.21 0.37917 -1.42129 0
M  V30 30834 H 2858.17 3.25687 -2.60736 0
M  V30 30835 H 2856.8 2.8327 -1.54784 0
M  V30 30836 H 2855.85 1.43464 -3.5231 0
M  V30 30837 H 2857.16 2.08255 -4.53245 0
M  V30 30838 H 2856.32 4.40972 -4.16687 0
M  V30 30839 H 2855.06 3.79807 -3.05937 0
M  V30 30840 H 2854.06 2.44431 -4.92477 0
M  V30 30841 H 2855.29 3.08588 -6.04938 0
M  V30 30842 H 2853.23 4.74094 -4.534 0
M  V30 30843 H 2853.15 4.31045 -6.21077 0
M  V30 30844 H 2854.42 5.36283 -5.65704 0
M  V30 30845 N 2858.65 1.52438 0.400055 0
M  V30 30846 C 2859.56 1.79334 1.5125 0
M  V30 30847 C 2860.57 0.679425 1.60187 0
M  V30 30848 O 2861.75 0.965822 1.76731 0
M  V30 30849 C 2858.81 1.94657 2.86896 0
M  V30 30850 C 2857.87 3.18569 2.87772 0
M  V30 30851 C 2857.11 3.33152 4.16948 0
M  V30 30852 O 2857.33 2.52792 5.11324 0
M  V30 30853 O 2856.26 4.26351 4.24863 0
M  V30 30854 H 2860.09 2.73775 1.31456 0
M  V30 30855 H 2857.67 1.37393 0.58681 0
M  V30 30856 H 2859.56 2.06507 3.67332 0
M  V30 30857 H 2858.23 1.03405 3.06739 0
M  V30 30858 H 2857.14 3.1217 2.06157 0
M  V30 30859 H 2858.47 4.09631 2.72879 0
M  V30 30860 N 2860.12 -0.657839 1.43214 0
M  V30 30861 C 2861.35 -1.45061 1.4823 0
M  V30 30862 C 2861.77 -1.87834 0.100027 0
M  V30 30863 O 2861.13 -1.57083 -0.905241 0
M  V30 30864 C 2861.18 -2.66486 2.42936 0
M  V30 30865 O 2860.28 -3.65376 1.91243 0
M  V30 30866 H 2859.62 -0.435126 0.501559 0
M  V30 30867 H 2862.15 -0.805398 1.88081 0
M  V30 30868 H 2862.16 -3.14356 2.60085 0
M  V30 30869 H 2860.84 -2.34695 3.43352 0
M  V30 30870 H 2859.42 -3.24495 1.83732 0
M  V30 30871 N 2861.6 -1.29668 -0.895769 0
M  V30 30872 C 2862.85 -1.18042 -1.64906 0
M  V30 30873 C 2863.18 0.266648 -1.92361 0
M  V30 30874 O 2862.46 1.19211 -1.53684 0
M  V30 30875 C 2862.74 -1.99824 -2.9957 0
M  V30 30876 C 2862.59 -3.52692 -2.79156 0
M  V30 30877 C 2863.91 -1.82768 -4.00355 0
M  V30 30878 H 2861.03 -0.430175 -0.59843 0
M  V30 30879 H 2863.67 -1.59184 -1.03733 0
M  V30 30880 H 2861.82 -1.64865 -3.51784 0
M  V30 30881 H 2863.49 -3.97654 -2.33814 0
M  V30 30882 H 2861.74 -3.77418 -2.13864 0
M  V30 30883 H 2862.41 -4.05193 -3.74864 0
M  V30 30884 H 2864.88 -2.1331 -3.57265 0
M  V30 30885 H 2863.76 -2.42334 -4.92509 0
M  V30 30886 H 2864.02 -0.783916 -4.35094 0
M  V30 30887 N 2863.08 1.10667 -1.12208 0
M  V30 30888 C 2864.3 1.86904 -0.898971 0
M  V30 30889 C 2864.73 1.79992 0.546314 0
M  V30 30890 O 2864.09 1.16812 1.38653 0
M  V30 30891 C 2864.14 3.33342 -1.37534 0
M  V30 30892 O 2863.24 4.08686 -0.552252 0
M  V30 30893 H 2862.58 0.580048 -0.323173 0
M  V30 30894 H 2865.11 1.39834 -1.49357 0
M  V30 30895 H 2865.12 3.84191 -1.37337 0
M  V30 30896 H 2863.8 3.37689 -2.42773 0
M  V30 30897 H 2862.37 3.67693 -0.621012 0
M  V30 30898 N 2864.56 0.913621 1.28416 0
M  V30 30899 C 2865.8 0.556967 1.95626 0
M  V30 30900 C 2866.16 -0.889535 1.70602 0
M  V30 30901 O 2865.45 -1.62419 1.0164 0
M  V30 30902 C 2865.65 0.80216 3.48282 0
M  V30 30903 C 2865.47 2.27094 3.88147 0
M  V30 30904 C 2864.24 2.92103 4.12315 0
M  V30 30905 C 2866.44 3.24735 3.98813 0
M  V30 30906 N 2864.42 4.2928 4.38853 0
M  V30 30907 C 2865.8 4.47075 4.29563 0
M  V30 30908 C 2867.85 3.20135 3.81337 0
M  V30 30909 C 2866.55 5.65396 4.44657 0
M  V30 30910 C 2868.58 4.37756 3.97648 0
M  V30 30911 C 2867.94 5.5887 4.2877 0
M  V30 30912 H 2864.04 0.253677 0.739711 0
M  V30 30913 H 2866.62 1.17732 1.55072 0
M  V30 30914 H 2864.8 0.211075 3.87826 0
M  V30 30915 H 2866.53 0.409549 4.02622 0
M  V30 30916 H 2863.28 2.42833 4.06607 0
M  V30 30917 H 2863.71 5.00206 4.56205 0
M  V30 30918 H 2868.35 2.27576 3.56327 0
M  V30 30919 H 2866.07 6.58434 4.68498 0
M  V30 30920 H 2869.65 4.35699 3.85562 0
M  V30 30921 H 2868.53 6.48366 4.41124 0
M  V30 30922 N 2866.04 -1.4229 0.677588 0
M  V30 30923 C 2867.28 -2.01102 0.200613 0
M  V30 30924 C 2867.6 -1.5386 -1.198 0
M  V30 30925 O 2866.87 -0.761471 -1.80495 0
M  V30 30926 H 2865.45 -0.743601 0.0711765 0
M  V30 30927 H 2868.12 -1.74168 0.874721 0
M  V30 30928 H 2867.21 -3.11432 0.204055 0
M  V30 30929 N 2867.51 -0.421104 -1.5187 0
M  V30 30930 C 2868.74 0.149904 -2.06356 0
M  V30 30931 C 2869.16 1.37849 -1.29008 0
M  V30 30932 O 2868.51 1.79206 -0.34517 0
M  V30 30933 C 2868.56 0.488391 -3.58186 0
M  V30 30934 O 2868.29 -0.691417 -4.3261 0
M  V30 30935 C 2869.79 1.11184 -4.29131 0
M  V30 30936 H 2867.01 0.0151068 -0.67083 0
M  V30 30937 H 2869.55 -0.59551 -1.95637 0
M  V30 30938 H 2867.71 1.1837 -3.68873 0
M  V30 30939 H 2868.12 -0.405998 -5.22926 0
M  V30 30940 H 2869.59 1.29879 -5.36503 0
M  V30 30941 H 2870.07 2.08833 -3.86375 0
M  V30 30942 H 2870.68 0.456384 -4.22844 0
M  V30 30943 N 2868.99 1.56866 -0.151912 0
M  V30 30944 C 2869.92 2.14145 0.81697 0
M  V30 30945 C 2870.94 1.09212 1.20733 0
M  V30 30946 O 2872.13 1.36471 1.15056 0
M  V30 30947 C 2869.23 2.6533 2.1084 0
M  V30 30948 C 2868.4 3.94715 1.88464 0
M  V30 30949 C 2867.46 4.3116 3.01641 0
M  V30 30950 O 2866.48 4.99395 2.73118 0
M  V30 30951 N 2867.69 3.9114 4.2894 0
M  V30 30952 H 2870.45 2.97906 0.327395 0
M  V30 30953 H 2868.01 1.61869 0.0315028 0
M  V30 30954 H 2870 2.8672 2.85611 0
M  V30 30955 H 2868.57 1.86266 2.51045 0
M  V30 30956 H 2867.79 3.819 0.977021 0
M  V30 30957 H 2869.08 4.79255 1.70857 0
M  V30 30958 H 2868.48 3.36169 4.5498 0
M  V30 30959 H 2867.04 4.17572 5.00477 0
M  V30 30960 N 2870.47 -0.121866 1.57128 0
M  V30 30961 C 2871.89 -0.475313 1.52358 0
M  V30 30962 C 2872.09 -1.82015 0.864449 0
M  V30 30963 O 2871.14 -2.48538 0.445572 0
M  V30 30964 C 2872.46 -0.462448 2.97123 0
M  V30 30965 C 2874 -0.546201 3.08197 0
M  V30 30966 C 2874.48 -0.563753 4.54517 0
M  V30 30967 N 2875.97 -0.625272 4.5896 0
M  V30 30968 C 2876.7 -0.660254 5.69586 0
M  V30 30969 N 2876.2 -0.653054 6.89715 0
M  V30 30970 N 2877.99 -0.703045 5.57686 0
M  V30 30971 H 2870.14 0.759344 1.98363 0
M  V30 30972 H 2872.41 0.279788 0.905772 0
M  V30 30973 H 2872.11 0.458005 3.48705 0
M  V30 30974 H 2871.99 -1.2913 3.54409 0
M  V30 30975 H 2874.37 -1.45707 2.56619 0
M  V30 30976 H 2874.46 0.310279 2.53911 0
M  V30 30977 H 2874.1 0.343063 5.0674 0
M  V30 30978 H 2874.03 -1.43708 5.06612 0
M  V30 30979 H 2876.52 -0.637117 3.72491 0
M  V30 30980 H 2876.83 -0.68229 7.69782 0
M  V30 30981 H 2875.18 -0.620524 6.92224 0
M  V30 30982 H 2878.37 -0.706013 4.62745 0
M  V30 30983 H 2878.54 -0.726839 6.43911 0
M  V30 30984 N 2871.95 -1.52648 -0.391965 0
M  V30 30985 C 2873.18 -1.7142 -1.15857 0
M  V30 30986 C 2873.59 -0.431248 -1.83809 0
M  V30 30987 O 2872.95 0.594055 -1.72561 0
M  V30 30988 C 2873 -2.86169 -2.20883 0
M  V30 30989 O 2872.72 -4.09498 -1.55703 0
M  V30 30990 C 2874.22 -3.16595 -3.10294 0
M  V30 30991 H 2871.44 -0.574018 -0.347484 0
M  V30 30992 H 2873.99 -1.99284 -0.458937 0
M  V30 30993 H 2872.14 -2.60775 -2.86487 0
M  V30 30994 H 2872.55 -4.73567 -2.25466 0
M  V30 30995 H 2874.03 -4.00358 -3.80023 0
M  V30 30996 H 2874.51 -2.30854 -3.73635 0
M  V30 30997 H 2875.11 -3.43818 -2.50339 0
M  V30 30998 N 2873.43 0.650235 -1.43561 0
M  V30 30999 C 2874.36 1.77568 -1.44921 0
M  V30 31000 C 2875.37 1.59103 -0.344953 0
M  V30 31001 O 2876.56 1.67769 -0.609567 0
M  V30 31002 C 2873.66 3.15037 -1.2492 0
M  V30 31003 C 2872.83 3.60134 -2.48239 0
M  V30 31004 C 2871.89 4.76415 -2.23418 0
M  V30 31005 O 2870.92 4.85701 -2.96788 0
M  V30 31006 N 2872.12 5.66823 -1.25269 0
M  V30 31007 H 2874.89 1.76879 -2.41938 0
M  V30 31008 H 2872.45 0.834177 -1.38756 0
M  V30 31009 H 2874.44 3.90519 -1.06192 0
M  V30 31010 H 2873.01 3.10481 -0.363374 0
M  V30 31011 H 2872.23 2.75064 -2.82371 0
M  V30 31012 H 2873.52 3.87011 -3.30303 0
M  V30 31013 H 2872.91 5.61995 -0.646345 0
M  V30 31014 H 2871.47 6.42014 -1.12525 0
M  V30 31015 N 2874.9 1.30141 0.88888 0
M  V30 31016 C 2876.18 1.09402 1.62143 0
M  V30 31017 C 2876.56 -0.358055 2.08041 0
M  V30 31018 O 2875.91 -1.34885 1.84441 0
M  V30 31019 C 2876.12 2.09138 2.79396 0
M  V30 31020 C 2877.47 2.40644 3.49822 0
M  V30 31021 O 2878.49 2.07417 2.8958 0
M  V30 31022 O 2877.35 2.97464 4.58451 0
M  V30 31023 H 2874.44 0.419903 0.712468 0
M  V30 31024 H 2876.99 1.41553 0.935999 0
M  V30 31025 H 2875.76 3.06895 2.42757 0
M  V30 31026 H 2875.39 1.77782 3.55639 0
M  V30 31027 N 2876.38 -1.1007 1.12794 0
M  V30 31028 C 2877.35 -2.14699 0.802302 0
M  V30 31029 C 2878.35 -1.59731 -0.185122 0
M  V30 31030 O 2879.54 -1.74151 0.0411397 0
M  V30 31031 C 2876.67 -3.40354 0.192909 0
M  V30 31032 H 2877.86 -2.45016 1.72936 0
M  V30 31033 H 2875.41 -1.25496 0.931684 0
M  V30 31034 H 2876.15 -3.15658 -0.743693 0
M  V30 31035 H 2875.93 -3.81539 0.903894 0
M  V30 31036 H 2877.42 -4.17596 -0.018297 0
M  V30 31037 N 2877.86 -0.920419 -1.2793 0
M  V30 31038 C 2879.27 -0.602647 -1.76706 0
M  V30 31039 C 2879.62 0.882129 -1.75251 0
M  V30 31040 O 2878.75 1.69016 -1.35138 0
M  V30 31041 C 2879.34 -1.08719 -3.20882 0
M  V30 31042 C 2877.9 -0.820222 -3.67354 0
M  V30 31043 C 2877.05 -1.2501 -2.47523 0
M  V30 31044 H 2880 -1.10097 -1.14299 0
M  V30 31045 H 2880.02 -0.431602 -3.78044 0
M  V30 31046 H 2879.53 -2.16786 -3.21909 0
M  V30 31047 H 2877.63 0.246946 -3.71781 0
M  V30 31048 H 2877.75 -1.43265 -4.57178 0
M  V30 31049 H 2876.11 -0.668742 -2.45764 0
M  V30 31050 H 2876.89 -2.33925 -2.51265 0
M  V30 31051 N 2879.34 1.41929 -0.685124 0
M  V30 31052 C 2880.29 2.27998 0.00973287 0
M  V30 31053 C 2881.27 1.41643 0.76329 0
M  V30 31054 O 2882.46 1.65005 0.640503 0
M  V30 31055 C 2879.59 3.2981 0.952914 0
M  V30 31056 C 2878.68 4.23646 0.196156 0
M  V30 31057 N 2879.07 4.99361 -0.804489 0
M  V30 31058 C 2877.37 4.43892 0.433135 0
M  V30 31059 C 2878.07 5.67966 -1.25656 0
M  V30 31060 N 2877.05 5.40449 -0.584495 0
M  V30 31061 H 2880.85 2.83967 -0.757636 0
M  V30 31062 H 2878.36 1.54016 -0.515064 0
M  V30 31063 H 2880.36 3.90283 1.46578 0
M  V30 31064 H 2879.02 2.75402 1.72 0
M  V30 31065 H 2880.03 5.04175 -1.18438 0
M  V30 31066 H 2876.71 4.00509 1.17892 0
M  V30 31067 H 2878.1 6.38688 -2.08633 0
M  V30 31068 N 2880.82 0.429152 1.51644 0
M  V30 31069 C 2881.73 -0.392768 2.31289 0
M  V30 31070 C 2882.74 -1.03523 1.39854 0
M  V30 31071 O 2883.92 -1.03238 1.72927 0
M  V30 31072 C 2880.98 -1.48367 3.1335 0
M  V30 31073 C 2880.04 -0.862194 4.20553 0
M  V30 31074 C 2879.28 -1.90111 4.98692 0
M  V30 31075 O 2879.5 -3.12217 4.77364 0
M  V30 31076 O 2878.43 -1.49619 5.83007 0
M  V30 31077 H 2882.26 0.257191 3.02609 0
M  V30 31078 H 2879.85 0.191877 1.48163 0
M  V30 31079 H 2881.73 -2.11653 3.64391 0
M  V30 31080 H 2880.4 -2.11786 2.44803 0
M  V30 31081 H 2879.31 -0.191502 3.7361 0
M  V30 31082 H 2880.64 -0.271618 4.9145 0
M  V30 31083 N 2882.29 -1.56783 0.160229 0
M  V30 31084 C 2883.26 -2.1622 -0.760367 0
M  V30 31085 C 2884.26 -1.10737 -1.16593 0
M  V30 31086 O 2885.45 -1.36308 -1.0847 0
M  V30 31087 C 2882.58 -2.73606 -2.03353 0
M  V30 31088 H 2883.77 -2.98913 -0.24312 0
M  V30 31089 H 2881.33 -1.56045 -0.0892864 0
M  V30 31090 H 2882.06 -1.94616 -2.59413 0
M  V30 31091 H 2881.85 -3.50791 -1.7518 0
M  V30 31092 H 2883.34 -3.19356 -2.69075 0
M  V30 31093 N 2883.77 0.113531 -1.57191 0
M  V30 31094 C 2885.19 0.467226 -1.52608 0
M  V30 31095 C 2885.39 1.81554 -0.87409 0
M  V30 31096 O 2884.45 2.48298 -0.458747 0
M  V30 31097 C 2885.76 0.446684 -2.97364 0
M  V30 31098 C 2887.31 0.529849 -3.08483 0
M  V30 31099 C 2887.78 0.539641 -4.5481 0
M  V30 31100 N 2889.27 0.600924 -4.59285 0
M  V30 31101 C 2890.01 0.630038 -5.69928 0
M  V30 31102 N 2889.5 0.616467 -6.90052 0
M  V30 31103 N 2891.3 0.673459 -5.58051 0
M  V30 31104 H 2883.45 -0.769853 -1.97957 0
M  V30 31105 H 2885.71 -0.284588 -0.904275 0
M  V30 31106 H 2885.42 -0.476491 -3.48457 0
M  V30 31107 H 2885.29 1.27248 -3.55088 0
M  V30 31108 H 2887.68 1.44344 -2.57388 0
M  V30 31109 H 2887.76 -0.32374 -2.53743 0
M  V30 31110 H 2887.4 -0.369932 -5.06551 0
M  V30 31111 H 2887.33 1.41019 -5.07367 0
M  V30 31112 H 2889.82 0.617354 -3.72823 0
M  V30 31113 H 2890.14 0.641457 -7.70133 0
M  V30 31114 H 2888.48 0.583805 -6.92544 0
M  V30 31115 H 2891.67 0.681463 -4.63113 0
M  V30 31116 H 2891.85 0.692681 -6.44287 0
M  V30 31117 N 2885.25 1.52854 0.383864 0
M  V30 31118 C 2886.66 1.60034 0.961562 0
M  V30 31119 C 2887.01 0.456366 1.90819 0
M  V30 31120 O 2886.14 -0.419836 2.12288 0
M  V30 31121 C 2886.73 2.9006 1.75073 0
M  V30 31122 C 2885.29 2.99636 2.27805 0
M  V30 31123 C 2884.44 2.55189 1.08507 0
M  V30 31124 H 2887.39 1.57858 0.163241 0
M  V30 31125 H 2887.41 2.76835 2.61041 0
M  V30 31126 H 2886.92 3.73301 1.0615 0
M  V30 31127 H 2885.02 2.20944 3.00024 0
M  V30 31128 H 2885.14 4.04374 2.5694 0
M  V30 31129 H 2883.5 2.0963 1.44663 0
M  V30 31130 H 2884.28 3.40829 0.41112 0
M  V30 31131 N 2886.73 -0.642612 1.43904 0
M  V30 31132 C 2888.14 -1.22402 1.40977 0
M  V30 31133 C 2888.49 -1.95837 0.119234 0
M  V30 31134 O 2887.62 -2.01819 -0.780903 0
M  V30 31135 C 2888.21 -2.22631 2.55384 0
M  V30 31136 C 2886.77 -2.76225 2.55689 0
M  V30 31137 C 2885.92 -1.51035 2.32559 0
M  V30 31138 H 2888.87 -0.433979 1.52651 0
M  V30 31139 H 2888.89 -3.05013 2.2748 0
M  V30 31140 H 2888.4 -1.69155 3.49297 0
M  V30 31141 H 2886.5 -3.33735 1.65685 0
M  V30 31142 H 2886.62 -3.23047 3.53804 0
M  V30 31143 H 2884.98 -1.7876 1.8143 0
M  V30 31144 H 2885.76 -0.994783 3.28571 0
M  V30 31145 N 2888.21 -1.30611 -0.881966 0
M  V30 31146 C 2889.14 -1.19823 -2.00411 0
M  V30 31147 C 2890.12 -0.0881836 -1.69871 0
M  V30 31148 O 2891.3 -0.270734 -1.92304 0
M  V30 31149 C 2888.43 -0.892389 -3.35639 0
M  V30 31150 C 2887.39 -1.9607 -3.80448 0
M  V30 31151 C 2886.71 -1.50779 -5.13001 0
M  V30 31152 C 2888.01 -3.3722 -3.98849 0
M  V30 31153 H 2889.71 -2.13703 -2.09694 0
M  V30 31154 H 2887.25 -1.02884 -1.00752 0
M  V30 31155 H 2889.21 -0.80357 -4.13667 0
M  V30 31156 H 2887.93 0.0820807 -3.26497 0
M  V30 31157 H 2886.59 -2.03921 -3.0465 0
M  V30 31158 H 2886.24 -0.521504 -5.00289 0
M  V30 31159 H 2885.94 -2.22238 -5.43952 0
M  V30 31160 H 2887.46 -1.43281 -5.93551 0
M  V30 31161 H 2888.88 -3.32111 -4.67306 0
M  V30 31162 H 2887.27 -4.06792 -4.41181 0
M  V30 31163 H 2888.34 -3.78889 -3.02608 0
M  V30 31164 N 2889.69 1.0947 -1.13376 0
M  V30 31165 C 2890.6 2.1965 -0.824068 0
M  V30 31166 C 2891.61 1.72947 0.191149 0
M  V30 31167 O 2892.79 2.01388 0.022311 0
M  V30 31168 C 2889.85 3.45451 -0.29407 0
M  V30 31169 C 2888.91 4.06837 -1.37047 0
M  V30 31170 C 2888.15 5.26633 -0.865672 0
M  V30 31171 O 2888.37 5.69627 0.29692 0
M  V30 31172 O 2887.3 5.79133 -1.63978 0
M  V30 31173 H 2891.13 2.48592 -1.74458 0
M  V30 31174 H 2888.71 1.18397 -0.911176 0
M  V30 31175 H 2890.6 4.214 -0.00388446 0
M  V30 31176 H 2889.27 3.18112 0.598865 0
M  V30 31177 H 2888.18 3.32527 -1.71397 0
M  V30 31178 H 2889.51 4.38401 -2.23754 0
M  V30 31179 N 2891.16 0.92719 1.2744 0
M  V30 31180 C 2892.58 0.627355 1.46753 0
M  V30 31181 C 2892.78 -0.823517 1.83903 0
M  V30 31182 O 2891.84 -1.60145 1.95217 0
M  V30 31183 C 2893.15 1.57679 2.56043 0
M  V30 31184 C 2894.7 1.58496 2.69904 0
M  V30 31185 C 2895.17 2.52135 3.82351 0
M  V30 31186 N 2896.66 2.50339 3.89724 0
M  V30 31187 C 2897.4 3.19483 4.76149 0
M  V30 31188 N 2896.89 3.98005 5.67066 0
M  V30 31189 N 2898.69 3.08504 4.69874 0
M  V30 31190 H 2890.84 1.86519 1.0161 0
M  V30 31191 H 2893.1 0.800762 0.507429 0
M  V30 31192 H 2892.81 2.6118 2.35537 0
M  V30 31193 H 2892.68 1.3181 3.5342 0
M  V30 31194 H 2895.07 0.557259 2.89791 0
M  V30 31195 H 2895.15 1.88413 1.73015 0
M  V30 31196 H 2894.79 3.55015 3.63217 0
M  V30 31197 H 2894.72 2.19514 4.78666 0
M  V30 31198 H 2897.21 1.93312 3.24714 0
M  V30 31199 H 2897.53 4.47751 6.29872 0
M  V30 31200 H 2895.87 4.02108 5.66863 0
M  V30 31201 H 2899.06 2.46653 3.97844 0
M  V30 31202 H 2899.24 3.62661 5.37011 0
M  V30 31203 N 2892.64 -1.41564 0.692641 0
M  V30 31204 C 2893.89 -2.00878 0.221931 0
M  V30 31205 C 2894.21 -1.55122 -1.18161 0
M  V30 31206 O 2893.48 -0.780572 -1.79677 0
M  V30 31207 H 2892.06 -0.742805 0.0790594 0
M  V30 31208 H 2894.72 -1.73231 0.893145 0
M  V30 31209 H 2893.82 -3.11198 0.237075 0
M  V30 31210 N 2894.12 -0.437188 -1.51415 0
M  V30 31211 C 2895.07 0.392272 -2.246 0
M  V30 31212 C 2896.05 0.990199 -1.26822 0
M  V30 31213 O 2897.25 0.908364 -1.51914 0
M  V30 31214 C 2894.37 1.49296 -3.09137 0
M  V30 31215 C 2893.46 0.90443 -4.14344 0
M  V30 31216 N 2893.85 0.0450622 -5.0578 0
M  V30 31217 C 2892.15 1.17203 -4.30325 0
M  V30 31218 C 2892.85 -0.285446 -5.80999 0
M  V30 31219 N 2891.83 0.330898 -5.42592 0
M  V30 31220 H 2895.63 -0.270272 -2.92655 0
M  V30 31221 H 2893.14 -0.249254 -1.60476 0
M  V30 31222 H 2895.14 2.10004 -3.60144 0
M  V30 31223 H 2893.8 2.15784 -2.42626 0
M  V30 31224 H 2894.81 -0.321362 -5.16902 0
M  V30 31225 H 2891.49 1.83441 -3.75041 0
M  V30 31226 H 2892.88 -0.984743 -6.64645 0
M  V30 31227 N 2895.6 1.56696 -0.168541 0
M  V30 31228 C 2896.82 2.0161 0.486653 0
M  V30 31229 C 2897.25 1.04799 1.56201 0
M  V30 31230 O 2896.61 0.0270914 1.8128 0
M  V30 31231 C 2896.65 3.45143 1.04445 0
M  V30 31232 O 2895.76 3.51397 2.15856 0
M  V30 31233 H 2895.1 0.653643 0.116819 0
M  V30 31234 H 2897.63 2.02789 -0.271615 0
M  V30 31235 H 2897.64 3.84391 1.36775 0
M  V30 31236 H 2896.31 4.15105 0.257082 0
M  V30 31237 H 2894.89 3.24007 1.84591 0
M  V30 31238 N 2897.08 -0.105193 1.57249 0
M  V30 31239 C 2898.3 -0.824337 1.89769 0
M  V30 31240 C 2898.72 -1.72774 0.761222 0
M  V30 31241 O 2898.08 -1.80532 -0.26731 0
M  V30 31242 C 2898.13 -1.64619 3.21843 0
M  V30 31243 O 2897.85 -0.779141 4.31116 0
M  V30 31244 C 2899.35 -2.46928 3.68159 0
M  V30 31245 H 2896.57 -0.236248 0.628035 0
M  V30 31246 H 2899.11 -0.0854491 2.04321 0
M  V30 31247 H 2897.27 -2.33769 3.08919 0
M  V30 31248 H 2897.68 -1.34736 5.06899 0
M  V30 31249 H 2899.16 -3.00103 4.63295 0
M  V30 31250 H 2899.63 -3.24927 2.95498 0
M  V30 31251 H 2900.24 -1.82996 3.83918 0
M  V30 31252 N 2898.55 -1.53055 -0.375752 0
M  V30 31253 C 2899.46 -1.81717 -1.48378 0
M  V30 31254 C 2900.48 -0.704823 -1.59086 0
M  V30 31255 O 2901.66 -0.993816 -1.75172 0
M  V30 31256 C 2898.72 -1.99197 -2.83763 0
M  V30 31257 C 2897.78 -3.23107 -2.82667 0
M  V30 31258 C 2897.02 -3.39743 -4.11595 0
M  V30 31259 O 2897.24 -2.60894 -5.07238 0
M  V30 31260 O 2896.17 -4.33056 -4.18026 0
M  V30 31261 H 2900 -2.75832 -1.27084 0
M  V30 31262 H 2897.58 -1.38309 -0.564877 0
M  V30 31263 H 2899.47 -2.12325 -3.64 0
M  V30 31264 H 2898.14 -1.08272 -3.05056 0
M  V30 31265 H 2897.05 -3.15411 -2.01164 0
M  V30 31266 H 2898.38 -4.13921 -2.66328 0
M  V30 31267 N 2900.03 0.634971 -1.44242 0
M  V30 31268 C 2901.28 1.39055 -1.46104 0
M  V30 31269 C 2901.59 1.95364 -0.0960253 0
M  V30 31270 O 2902.8 2.71499 0.00783979 0
M  V30 31271 C 2901.26 2.51747 -2.572 0
M  V30 31272 C 2900.86 2.01967 -3.99891 0
M  V30 31273 C 2902.61 3.28979 -2.68278 0
M  V30 31274 C 2900.52 3.11978 -5.02418 0
M  V30 31275 H 2899.45 0.522545 -0.543565 0
M  V30 31276 H 2902.1 0.683508 -1.70295 0
M  V30 31277 H 2900.48 3.25008 -2.26242 0
M  V30 31278 H 2901.65 1.35596 -4.40398 0
M  V30 31279 H 2899.97 1.37561 -3.93021 0
M  V30 31280 H 2902.56 4.10982 -3.42049 0
M  V30 31281 H 2902.91 3.78209 -1.73964 0
M  V30 31282 H 2903.44 2.62806 -2.98626 0
M  V30 31283 H 2900.18 2.67696 -5.98347 0
M  V30 31284 H 2899.7 3.77003 -4.66507 0
M  V30 31285 H 2901.38 3.76816 -5.25946 0
M  V30 31286 N 2901.51 1.31076 0.875027 0
M  V30 31287 C 2902.92 1.18433 1.44328 0
M  V30 31288 C 2903.27 -0.211155 1.9506 0
M  V30 31289 O 2902.4 -1.10856 1.85849 0
M  V30 31290 C 2902.99 2.14394 2.62337 0
M  V30 31291 C 2901.55 2.05699 3.15222 0
M  V30 31292 C 2900.7 2.0391 1.87926 0
M  V30 31293 H 2903.65 1.43201 0.684036 0
M  V30 31294 H 2903.67 1.73059 3.38867 0
M  V30 31295 H 2903.18 3.1595 2.25382 0
M  V30 31296 H 2901.28 1.0732 3.5681 0
M  V30 31297 H 2901.4 2.94564 3.77847 0
M  V30 31298 H 2899.76 1.48853 2.06676 0
M  V30 31299 H 2900.54 3.07213 1.53215 0
M  V30 31300 N 2902.99 -1.08867 1.13955 0
M  V30 31301 C 2904.23 -1.81428 0.906183 0
M  V30 31302 C 2904.57 -1.85767 -0.566057 0
M  V30 31303 O 2903.84 -1.33008 -1.41912 0
M  V30 31304 C 2904.13 -3.27285 1.50189 0
M  V30 31305 C 2903.98 -3.31183 3.04364 0
M  V30 31306 C 2905.3 -4.24129 1.17484 0
M  V30 31307 H 2902.42 -0.658672 0.330636 0
M  V30 31308 H 2905.06 -1.27492 1.40875 0
M  V30 31309 H 2903.21 -3.73346 1.07448 0
M  V30 31310 H 2904.88 -2.93482 3.55902 0
M  V30 31311 H 2903.12 -2.70596 3.39058 0
M  V30 31312 H 2903.79 -4.3396 3.41149 0
M  V30 31313 H 2906.27 -3.86383 1.54427 0
M  V30 31314 H 2905.15 -5.2451 1.61805 0
M  V30 31315 H 2905.41 -4.4201 0.0894089 0
M  V30 31316 N 2904.47 -0.933936 -1.26946 0
M  V30 31317 C 2905.71 -0.576518 -1.93703 0
M  V30 31318 C 2906.04 0.886115 -1.73704 0
M  V30 31319 O 2905.31 1.62882 -1.08841 0
M  V30 31320 H 2903.89 -0.210226 -0.716808 0
M  V30 31321 H 2906.55 -1.18769 -1.54532 0
M  V30 31322 H 2905.64 -0.788108 -3.01986 0
M  V30 31323 N 2905.94 1.41194 -0.700139 0
M  V30 31324 C 2907.36 1.55201 -0.372142 0
M  V30 31325 C 2907.56 1.67472 1.1205 0
M  V30 31326 O 2906.62 1.65569 1.90639 0
M  V30 31327 C 2907.93 2.78876 -1.12467 0
M  V30 31328 C 2909.48 2.92677 -1.10946 0
M  V30 31329 C 2909.95 4.19245 -1.84383 0
M  V30 31330 N 2911.44 4.26213 -1.81375 0
M  V30 31331 C 2912.18 5.23017 -2.35033 0
M  V30 31332 N 2911.67 6.25824 -2.97181 0
M  V30 31333 N 2913.47 5.14988 -2.25263 0
M  V30 31334 H 2905.62 1.31474 -1.66818 0
M  V30 31335 H 2907.88 0.634632 -0.704235 0
M  V30 31336 H 2907.59 2.76033 -2.17942 0
M  V30 31337 H 2907.46 3.7053 -0.706217 0
M  V30 31338 H 2909.85 2.95033 -0.0629628 0
M  V30 31339 H 2909.93 2.02184 -1.56701 0
M  V30 31340 H 2909.57 4.17651 -2.89015 0
M  V30 31341 H 2909.5 5.08719 -1.36059 0
M  V30 31342 H 2911.99 3.52553 -1.36069 0
M  V30 31343 H 2912.31 6.96088 -3.3568 0
M  V30 31344 H 2910.65 6.26312 -3.0126 0
M  V30 31345 H 2913.84 4.33599 -1.76379 0
M  V30 31346 H 2914.02 5.90263 -2.67383 0
M  V30 31347 N 2907.42 0.445212 1.51181 0
M  V30 31348 C 2908.65 -0.119409 2.07056 0
M  V30 31349 C 2909.07 -1.35014 1.30969 0
M  V30 31350 O 2908.43 -1.77892 0.349859 0
M  V30 31351 C 2908.48 -0.412365 3.58234 0
M  V30 31352 O 2907.58 -1.49747 3.84252 0
M  V30 31353 H 2906.92 0.00158965 0.663998 0
M  V30 31354 H 2909.45 0.628813 1.94697 0
M  V30 31355 H 2909.46 -0.660513 4.02618 0
M  V30 31356 H 2908.14 0.487121 4.13037 0
M  V30 31357 H 2906.72 -1.23867 3.51726 0
M  V30 31358 N 2908.9 -1.56605 0.176849 0
M  V30 31359 C 2910.15 -1.9666 -0.465758 0
M  V30 31360 C 2910.47 -1.06415 -1.63404 0
M  V30 31361 O 2909.74 -0.131637 -1.95457 0
M  V30 31362 H 2908.32 -0.726198 -0.175059 0
M  V30 31363 H 2910.98 -1.93167 0.259323 0
M  V30 31364 H 2910.08 -3.01078 -0.822085 0
M  V30 31365 N 2910.38 0.0968524 -1.57302 0
M  V30 31366 C 2911.34 1.10185 -2.00978 0
M  V30 31367 C 2912.34 1.33049 -0.903033 0
M  V30 31368 O 2913.53 1.29192 -1.16855 0
M  V30 31369 C 2910.66 2.45138 -2.36897 0
M  V30 31370 H 2911.86 0.725952 -2.90981 0
M  V30 31371 H 2909.41 0.341845 -1.52516 0
M  V30 31372 H 2910.14 2.87607 -1.49842 0
M  V30 31373 H 2909.93 2.29891 -3.17636 0
M  V30 31374 H 2911.42 3.17425 -2.71351 0
M  V30 31375 N 2911.86 1.53252 0.36763 0
M  V30 31376 C 2912.79 1.82523 1.45628 0
M  V30 31377 C 2913.77 0.678595 1.55978 0
M  V30 31378 O 2914.95 0.928247 1.70579 0
M  V30 31379 C 2912.08 2.01329 2.82991 0
M  V30 31380 C 2911.04 3.17091 2.87467 0
M  V30 31381 C 2910.36 3.21187 4.27485 0
M  V30 31382 C 2911.66 4.55723 2.55174 0
M  V30 31383 H 2913.36 2.73691 1.21382 0
M  V30 31384 H 2910.9 1.31693 0.582486 0
M  V30 31385 H 2912.86 2.20389 3.59175 0
M  V30 31386 H 2911.58 1.0687 3.0862 0
M  V30 31387 H 2910.24 2.97848 2.13734 0
M  V30 31388 H 2909.89 2.24369 4.50186 0
M  V30 31389 H 2909.59 3.98963 4.31396 0
M  V30 31390 H 2911.11 3.42428 5.05544 0
M  V30 31391 H 2912.52 4.74958 3.21072 0
M  V30 31392 H 2910.92 5.35725 2.70405 0
M  V30 31393 H 2911.99 4.60975 1.50431 0
M  V30 31394 N 2913.34 -0.627313 1.44577 0
M  V30 31395 C 2914.3 -1.721 1.51375 0
M  V30 31396 C 2915.3 -1.55864 0.395357 0
M  V30 31397 O 2916.49 -1.6129 0.658122 0
M  V30 31398 C 2913.62 -3.11214 1.39135 0
M  V30 31399 H 2914.81 -1.67445 2.48801 0
M  V30 31400 H 2912.37 -0.841313 1.31726 0
M  V30 31401 H 2913.1 -3.21461 0.42817 0
M  V30 31402 H 2912.89 -3.24406 2.20235 0
M  V30 31403 H 2914.38 -3.90916 1.46881 0
M  V30 31404 N 2914.81 -1.31539 -0.868063 0
M  V30 31405 C 2916.06 -1.21513 -1.62365 0
M  V30 31406 C 2916.39 0.225786 -1.92883 0
M  V30 31407 O 2915.67 1.15925 -1.56178 0
M  V30 31408 C 2915.95 -2.06134 -2.95264 0
M  V30 31409 C 2915.8 -3.58534 -2.71612 0
M  V30 31410 C 2917.12 -1.91219 -3.96388 0
M  V30 31411 H 2914.24 -0.442772 -0.58917 0
M  V30 31412 H 2916.88 -1.61348 -1.00333 0
M  V30 31413 H 2915.03 -1.7229 -3.48207 0
M  V30 31414 H 2916.71 -4.02524 -2.25327 0
M  V30 31415 H 2914.95 -3.8187 -2.05811 0
M  V30 31416 H 2915.62 -4.13053 -3.66185 0
M  V30 31417 H 2918.1 -2.2084 -3.5266 0
M  V30 31418 H 2916.97 -2.52726 -4.87258 0
M  V30 31419 H 2917.23 -0.876029 -4.33334 0
M  V30 31420 N 2916.29 1.08262 -1.1453 0
M  V30 31421 C 2917.57 1.7734 -0.825216 0
M  V30 31422 C 2917.95 1.99814 0.681002 0
M  V30 31423 O 2917.3 1.60914 1.62231 0
M  V30 31424 C 2917.51 3.08828 -1.62561 0
M  V30 31425 C 2918.85 3.83335 -1.82592 0
M  V30 31426 O 2919.88 3.18614 -1.59259 0
M  V30 31427 O 2918.74 4.99552 -2.21607 0
M  V30 31428 H 2915.83 0.769673 -0.302544 0
M  V30 31429 H 2918.38 1.14711 -1.25058 0
M  V30 31430 H 2917.15 2.8803 -2.64867 0
M  V30 31431 H 2916.77 3.79186 -1.19597 0
M  V30 31432 N 2917.77 0.940655 1.26449 0
M  V30 31433 C 2919.02 0.588814 1.94064 0
M  V30 31434 C 2919.35 -0.869822 1.73631 0
M  V30 31435 O 2918.62 -1.62223 1.07302 0
M  V30 31436 C 2918.91 0.93126 3.4785 0
M  V30 31437 C 2918.76 2.4446 3.7757 0
M  V30 31438 C 2920.08 0.446306 4.37831 0
M  V30 31439 H 2917.2 0.215392 0.704823 0
M  V30 31440 H 2919.84 1.17478 1.49328 0
M  V30 31441 H 2917.99 0.432607 3.86084 0
M  V30 31442 H 2919.66 3.01594 3.49054 0
M  V30 31443 H 2917.9 2.8883 3.23666 0
M  V30 31444 H 2918.58 2.63472 4.85063 0
M  V30 31445 H 2921.05 0.873849 4.06821 0
M  V30 31446 H 2919.93 0.714744 5.44227 0
M  V30 31447 H 2920.19 -0.653738 4.3724 0
M  V30 31448 N 2919.25 -1.40821 0.707617 0
M  V30 31449 C 2920.18 -2.29198 0.0106371 0
M  V30 31450 C 2921.19 -1.45415 -0.732009 0
M  V30 31451 O 2922.38 -1.6879 -0.580711 0
M  V30 31452 C 2919.48 -3.23526 -1.00915 0
M  V30 31453 C 2918.65 -4.36125 -0.33367 0
M  V30 31454 C 2917.71 -5.10948 -1.25774 0
M  V30 31455 O 2916.74 -5.64296 -0.745547 0
M  V30 31456 N 2917.94 -5.19549 -2.58938 0
M  V30 31457 H 2920.71 -2.89655 0.769431 0
M  V30 31458 H 2918.27 -1.52104 0.554606 0
M  V30 31459 H 2920.26 -3.70452 -1.62934 0
M  V30 31460 H 2918.83 -2.64293 -1.66938 0
M  V30 31461 H 2918.05 -3.91429 0.466586 0
M  V30 31462 H 2919.34 -5.08619 0.135533 0
M  V30 31463 H 2918.74 -4.77675 -3.03056 0
M  V30 31464 H 2917.29 -5.7001 -3.16121 0
M  V30 31465 N 2920.73 -0.453223 -1.50943 0
M  V30 31466 C 2921.66 0.395748 -2.24742 0
M  V30 31467 C 2922.64 1.01138 -1.27318 0
M  V30 31468 O 2923.82 1.05078 -1.56496 0
M  V30 31469 C 2920.95 1.55293 -3.01001 0
M  V30 31470 C 2919.99 1.05643 -4.13209 0
M  V30 31471 S 2920.83 -0.0144441 -5.35498 0
M  V30 31472 C 2921.98 1.14703 -6.153 0
M  V30 31473 H 2922.22 -0.230762 -2.96403 0
M  V30 31474 H 2919.75 -0.237901 -1.52556 0
M  V30 31475 H 2921.71 2.21624 -3.45533 0
M  V30 31476 H 2920.37 2.1509 -2.289 0
M  V30 31477 H 2919.56 1.92222 -4.65904 0
M  V30 31478 H 2919.16 0.471117 -3.71021 0
M  V30 31479 H 2921.45 2.06227 -6.4535 0
M  V30 31480 H 2922.4 0.659718 -7.0502 0
M  V30 31481 H 2922.81 1.39278 -5.47048 0
M  V30 31482 N 2922.2 1.56509 -0.185151 0
M  V30 31483 C 2923.14 2.1583 0.771363 0
M  V30 31484 C 2924.15 1.11749 1.1839 0
M  V30 31485 O 2925.34 1.38881 1.12135 0
M  V30 31486 C 2922.44 2.69742 2.05164 0
M  V30 31487 C 2921.61 3.98624 1.80049 0
M  V30 31488 C 2920.67 4.37461 2.92428 0
M  V30 31489 O 2919.7 5.05075 2.62464 0
M  V30 31490 N 2920.9 4.0015 4.20547 0
M  V30 31491 H 2923.66 2.98534 0.264131 0
M  V30 31492 H 2921.22 1.619 -0.00283914 0
M  V30 31493 H 2923.22 2.92714 2.79465 0
M  V30 31494 H 2921.79 1.91549 2.47038 0
M  V30 31495 H 2921.01 3.83887 0.895795 0
M  V30 31496 H 2922.29 4.82771 1.60653 0
M  V30 31497 H 2921.69 3.45744 4.47747 0
M  V30 31498 H 2920.25 4.28094 4.91507 0
M  V30 31499 N 2923.68 -0.0885089 1.57351 0
M  V30 31500 C 2924.91 -0.808017 1.91013 0
M  V30 31501 C 2925.33 -1.71164 0.780039 0
M  V30 31502 O 2924.69 -1.79307 -0.268051 0
M  V30 31503 C 2924.74 -1.59179 3.23565 0
M  V30 31504 O 2923.84 -2.70124 3.11619 0
M  V30 31505 H 2923.18 -0.221554 0.625947 0
M  V30 31506 H 2925.71 -0.0617594 2.04507 0
M  V30 31507 H 2925.72 -1.97461 3.57034 0
M  V30 31508 H 2924.4 -0.92867 4.05399 0
M  V30 31509 H 2922.97 -2.34822 2.89678 0
M  V30 31510 N 2925.16 -1.53445 -0.359498 0
M  V30 31511 C 2926.41 -1.69141 -1.09883 0
M  V30 31512 C 2926.72 -0.452896 -1.90285 0
M  V30 31513 O 2927.93 -0.490506 -2.67032 0
M  V30 31514 C 2926.38 -2.99029 -2.00274 0
M  V30 31515 C 2925.99 -4.30163 -1.25156 0
M  V30 31516 C 2927.74 -3.24091 -2.74163 0
M  V30 31517 C 2925.64 -5.51136 -2.14484 0
M  V30 31518 H 2924.57 -0.630224 -0.413925 0
M  V30 31519 H 2927.22 -1.79946 -0.359402 0
M  V30 31520 H 2925.61 -2.82041 -2.77973 0
M  V30 31521 H 2926.78 -4.57802 -0.524787 0
M  V30 31522 H 2925.09 -4.11591 -0.631044 0
M  V30 31523 H 2927.69 -4.11658 -3.41236 0
M  V30 31524 H 2928.03 -2.40413 -3.39864 0
M  V30 31525 H 2928.57 -3.41781 -2.03544 0
M  V30 31526 H 2925.31 -6.3731 -1.53351 0
M  V30 31527 H 2924.83 -5.27767 -2.84995 0
M  V30 31528 H 2926.51 -5.86162 -2.73904 0
M  V30 31529 N 2926.64 0.619637 -1.44908 0
M  V30 31530 C 2927.87 1.40588 -1.51798 0
M  V30 31531 C 2928.28 1.8823 -0.146586 0
M  V30 31532 O 2927.64 1.61514 0.849669 0
M  V30 31533 C 2927.69 2.61849 -2.49233 0
M  V30 31534 O 2927.41 2.1619 -3.81043 0
M  V30 31535 C 2928.91 3.54848 -2.65703 0
M  V30 31536 H 2926.13 0.430768 -0.51447 0
M  V30 31537 H 2928.67 0.75678 -1.89982 0
M  V30 31538 H 2926.83 3.22826 -2.14154 0
M  V30 31539 H 2927.24 2.94889 -4.33752 0
M  V30 31540 H 2928.72 4.36509 -3.37882 0
M  V30 31541 H 2929.19 4.04407 -1.71323 0
M  V30 31542 H 2929.8 2.99732 -3.0173 0
M  V30 31543 N 2928.12 1.31997 0.861075 0
M  V30 31544 C 2929.53 1.10848 1.14825 0
M  V30 31545 C 2929.73 -0.115245 2.0117 0
M  V30 31546 O 2928.79 -0.802006 2.39425 0
M  V30 31547 C 2930.1 2.38466 1.83179 0
M  V30 31548 C 2931.65 2.44161 1.95842 0
M  V30 31549 C 2932.12 3.71683 2.67611 0
M  V30 31550 N 2933.62 3.72628 2.7514 0
M  V30 31551 C 2934.35 4.68 3.31306 0
M  V30 31552 N 2933.85 5.73733 3.88333 0
M  V30 31553 N 2935.64 4.55506 3.29348 0
M  V30 31554 H 2927.79 2.10467 0.285914 0
M  V30 31555 H 2930.05 0.92891 0.189287 0
M  V30 31556 H 2929.76 3.27897 1.27187 0
M  V30 31557 H 2929.63 2.4894 2.83388 0
M  V30 31558 H 2932.02 1.55194 2.50996 0
M  V30 31559 H 2932.1 2.37645 0.946489 0
M  V30 31560 H 2931.75 4.61022 2.13122 0
M  V30 31561 H 2931.68 3.75469 3.6923 0
M  V30 31562 H 2934.17 2.96201 2.34677 0
M  V30 31563 H 2934.48 6.42572 4.29327 0
M  V30 31564 H 2932.82 5.77496 3.86683 0
M  V30 31565 H 2936.02 3.72074 2.8404 0
M  V30 31566 H 2936.19 5.30008 3.72821 0
M  V30 31567 N 2929.59 -1.07653 1.15103 0
M  V30 31568 C 2931.01 -1.32277 0.893027 0
M  V30 31569 C 2931.21 -1.9614 -0.461667 0
M  V30 31570 O 2930.27 -2.21931 -1.20427 0
M  V30 31571 C 2931.58 -2.21686 2.03165 0
M  V30 31572 C 2933.13 -2.35143 2.06583 0
M  V30 31573 C 2933.6 -3.27899 3.1976 0
M  V30 31574 N 2935.09 -3.35479 3.19388 0
M  V30 31575 C 2935.83 -4.07302 4.03599 0
M  V30 31576 N 2935.32 -4.81767 4.97868 0
M  V30 31577 N 2937.12 -4.03212 3.91633 0
M  V30 31578 H 2929.27 -0.64585 2.02343 0
M  V30 31579 H 2931.53 -0.347195 0.882133 0
M  V30 31580 H 2931.24 -1.82016 3.00937 0
M  V30 31581 H 2931.11 -3.22195 1.96138 0
M  V30 31582 H 2933.5 -2.74067 1.09412 0
M  V30 31583 H 2933.58 -1.34349 2.17678 0
M  V30 31584 H 2933.22 -2.89694 4.1718 0
M  V30 31585 H 2933.15 -4.2864 3.05901 0
M  V30 31586 H 2935.64 -2.82398 2.51117 0
M  V30 31587 H 2935.96 -5.34057 5.58572 0
M  V30 31588 H 2934.3 -4.80794 5.01859 0
M  V30 31589 H 2937.49 -3.44148 3.17301 0
M  V30 31590 H 2937.67 -4.58922 4.57487 0
M  V30 31591 N 2931.07 -0.947348 -1.25949 0
M  V30 31592 C 2932.32 -0.59703 -1.9308 0
M  V30 31593 C 2932.64 0.867641 -1.74634 0
M  V30 31594 O 2931.91 1.61718 -1.10562 0
M  V30 31595 H 2930.49 -0.217817 -0.714538 0
M  V30 31596 H 2933.15 -1.20401 -1.53263 0
M  V30 31597 H 2932.25 -0.820093 -3.01133 0
M  V30 31598 N 2932.55 1.40444 -0.715075 0
M  V30 31599 C 2933.96 1.83818 -0.326796 0
M  V30 31600 C 2934.31 1.59791 1.13848 0
M  V30 31601 O 2933.44 1.07852 1.87609 0
M  V30 31602 C 2934.03 3.33687 -0.586356 0
M  V30 31603 C 2932.59 3.75557 -0.25179 0
M  V30 31604 C 2931.74 2.63661 -0.858974 0
M  V30 31605 H 2934.69 1.29719 -0.914264 0
M  V30 31606 H 2934.71 3.8021 0.148569 0
M  V30 31607 H 2934.22 3.51143 -1.65288 0
M  V30 31608 H 2932.32 3.63696 0.80969 0
M  V30 31609 H 2932.44 4.73652 -0.720431 0
M  V30 31610 H 2930.8 2.53077 -0.287058 0
M  V30 31611 H 2931.58 2.83929 -1.92975 0
M  V30 31612 N 2934.03 0.461222 1.507 0
M  V30 31613 C 2935.31 -0.158262 1.94959 0
M  V30 31614 C 2935.69 -1.57897 1.40114 0
M  V30 31615 O 2935.03 -2.20536 0.598015 0
M  V30 31616 C 2935.24 -0.111659 3.48821 0
M  V30 31617 C 2936.59 -0.305445 4.235 0
M  V30 31618 O 2937.62 -0.188696 3.557 0
M  V30 31619 O 2936.47 -0.540148 5.43824 0
M  V30 31620 H 2933.57 -0.117039 0.818676 0
M  V30 31621 H 2936.11 0.520917 1.61507 0
M  V30 31622 H 2934.89 0.880644 3.81262 0
M  V30 31623 H 2934.51 -0.832723 3.88782 0
M  V30 31624 N 2935.51 -1.56408 0.193449 0
M  V30 31625 C 2936.75 -1.97143 -0.444874 0
M  V30 31626 C 2937.08 -1.08142 -1.62266 0
M  V30 31627 O 2936.35 -0.15236 -1.95307 0
M  V30 31628 H 2934.93 -0.728014 -0.167347 0
M  V30 31629 H 2937.59 -1.92881 0.279797 0
M  V30 31630 H 2936.68 -3.01933 -0.790106 0
M  V30 31631 N 2936.98 0.0801629 -1.57396 0
M  V30 31632 C 2937.89 1.11419 -2.06453 0
M  V30 31633 C 2938.91 1.42926 -0.992377 0
M  V30 31634 O 2940.09 1.5327 -1.30653 0
M  V30 31635 C 2937.15 2.41073 -2.49168 0
M  V30 31636 C 2936.21 2.16613 -3.70644 0
M  V30 31637 C 2935.45 3.40085 -4.11313 0
M  V30 31638 O 2935.67 4.48889 -3.5193 0
M  V30 31639 O 2934.6 3.28791 -5.04163 0
M  V30 31640 H 2938.43 0.727467 -2.94859 0
M  V30 31641 H 2936.01 0.293717 -1.46484 0
M  V30 31642 H 2937.9 3.17391 -2.77202 0
M  V30 31643 H 2936.57 2.79142 -1.63895 0
M  V30 31644 H 2935.48 1.38027 -3.47706 0
M  V30 31645 H 2936.81 1.83429 -4.56743 0
M  V30 31646 N 2938.46 1.53634 0.351355 0
M  V30 31647 C 2939.87 1.62038 0.9274 0
M  V30 31648 C 2940.22 0.496739 1.89808 0
M  V30 31649 O 2939.35 -0.374712 2.13131 0
M  V30 31650 C 2939.94 2.93709 1.68881 0
M  V30 31651 C 2938.5 3.04401 2.21398 0
M  V30 31652 C 2937.65 2.57433 1.0307 0
M  V30 31653 H 2940.6 1.58169 0.12972 0
M  V30 31654 H 2940.62 2.8231 2.55111 0
M  V30 31655 H 2940.13 3.75469 0.982083 0
M  V30 31656 H 2938.24 2.27258 2.9527 0
M  V30 31657 H 2938.35 4.09734 2.48305 0
M  V30 31658 H 2936.71 2.12651 1.40184 0
M  V30 31659 H 2937.5 3.41625 0.338733 0
M  V30 31660 N 2939.94 -0.611943 1.45234 0
M  V30 31661 C 2940.87 -1.73664 1.49578 0
M  V30 31662 C 2941.89 -1.58133 0.387015 0
M  V30 31663 O 2943.07 -1.66094 0.653833 0
M  V30 31664 C 2940.17 -3.11614 1.33228 0
M  V30 31665 C 2939.35 -3.53426 2.577 0
M  V30 31666 C 2938.41 -4.70324 2.35971 0
M  V30 31667 O 2937.43 -4.77661 3.09561 0
M  V30 31668 N 2938.63 -5.63302 1.40253 0
M  V30 31669 H 2941.4 -1.70402 2.46542 0
M  V30 31670 H 2938.96 -0.797096 1.40918 0
M  V30 31671 H 2940.95 -3.87566 1.16509 0
M  V30 31672 H 2939.52 -3.09408 0.445565 0
M  V30 31673 H 2938.74 -2.67481 2.89565 0
M  V30 31674 H 2940.03 -3.78118 3.40448 0
M  V30 31675 H 2939.43 -5.60084 0.795121 0
M  V30 31676 H 2937.99 -6.38805 1.29507 0
M  V30 31677 N 2941.42 -1.32452 -0.854063 0
M  V30 31678 C 2942.83 -1.20714 -1.42425 0
M  V30 31679 C 2943.18 0.180096 -1.95372 0
M  V30 31680 O 2942.31 1.07886 -1.87589 0
M  V30 31681 C 2942.9 -2.1854 -2.58893 0
M  V30 31682 C 2941.46 -2.10688 -3.11909 0
M  V30 31683 C 2940.61 -2.06874 -1.84658 0
M  V30 31684 H 2943.56 -1.44272 -0.661167 0
M  V30 31685 H 2943.58 -1.78428 -3.36071 0
M  V30 31686 H 2943.09 -3.19496 -2.20327 0
M  V30 31687 H 2941.19 -1.12983 -3.55057 0
M  V30 31688 H 2941.3 -3.00538 -3.73113 0
M  V30 31689 H 2939.67 -1.52122 -2.04282 0
M  V30 31690 H 2940.45 -3.09612 -1.48308 0
M  V30 31691 N 2942.9 1.07041 -1.15672 0
M  V30 31692 C 2944.15 1.79342 -0.931705 0
M  V30 31693 C 2944.47 1.87305 0.542388 0
M  V30 31694 O 2943.74 1.37624 1.39415 0
M  V30 31695 H 2942.32 0.664256 -0.341721 0
M  V30 31696 H 2944.98 1.29342 -1.45797 0
M  V30 31697 H 2944.07 2.81687 -1.34384 0
M  V30 31698 N 2944.38 0.954014 1.25445 0
M  V30 31699 C 2945.31 0.491757 2.28263 0
M  V30 31700 C 2946.29 -0.461588 1.63717 0
M  V30 31701 O 2947.47 -0.360676 1.90821 0
M  V30 31702 C 2944.6 -0.231854 3.46525 0
M  V30 31703 C 2943.56 0.636172 4.23246 0
M  V30 31704 C 2942.88 -0.218144 5.34255 0
M  V30 31705 C 2944.18 1.91397 4.85968 0
M  V30 31706 H 2945.88 1.35111 2.6718 0
M  V30 31707 H 2943.42 0.651118 1.28439 0
M  V30 31708 H 2945.37 -0.566365 4.17577 0
M  V30 31709 H 2944.1 -1.12545 3.06596 0
M  V30 31710 H 2942.76 0.953758 3.53976 0
M  V30 31711 H 2942.41 -1.11148 4.90566 0
M  V30 31712 H 2942.11 0.359335 5.865 0
M  V30 31713 H 2943.63 -0.547636 6.08139 0
M  V30 31714 H 2945.04 1.64591 5.49166 0
M  V30 31715 H 2943.44 2.43706 5.48386 0
M  V30 31716 H 2944.51 2.61746 4.08188 0
M  V30 31717 N 2945.85 -1.40063 0.722513 0
M  V30 31718 C 2946.76 -2.34478 0.0756396 0
M  V30 31719 C 2947.78 -1.57667 -0.736018 0
M  V30 31720 O 2948.96 -1.90021 -0.667374 0
M  V30 31721 C 2946.02 -3.36618 -0.830015 0
M  V30 31722 C 2945.08 -4.29299 -0.00752338 0
M  V30 31723 C 2944.31 -5.2656 -0.870046 0
M  V30 31724 O 2944.54 -5.29974 -2.10912 0
M  V30 31725 O 2943.47 -6.01125 -0.305348 0
M  V30 31726 H 2947.3 -2.91428 0.854597 0
M  V30 31727 H 2944.88 -1.41375 0.483057 0
M  V30 31728 H 2946.76 -3.99239 -1.34857 0
M  V30 31729 H 2945.44 -2.82071 -1.588 0
M  V30 31730 H 2944.35 -3.69941 0.556264 0
M  V30 31731 H 2945.68 -4.87017 0.712397 0
M  V30 31732 N 2947.33 -0.469207 -1.50453 0
M  V30 31733 C 2948.56 0.0864528 -2.0722 0
M  V30 31734 C 2948.98 1.32913 -1.331 0
M  V30 31735 O 2948.34 1.77313 -0.378115 0
M  V30 31736 C 2948.39 0.355321 -3.58845 0
M  V30 31737 O 2947.49 1.43615 -3.86586 0
M  V30 31738 H 2946.83 -0.0121531 -0.663889 0
M  V30 31739 H 2949.36 -0.659708 -1.93672 0
M  V30 31740 H 2949.37 0.596376 -4.03618 0
M  V30 31741 H 2948.05 -0.55277 -4.1221 0
M  V30 31742 H 2946.62 1.18256 -3.53652 0
M  V30 31743 N 2948.81 1.56303 -0.201741 0
M  V30 31744 C 2949.74 2.16636 0.748428 0
M  V30 31745 C 2950.75 1.12998 1.17198 0
M  V30 31746 O 2951.94 1.40063 1.10656 0
M  V30 31747 C 2949.04 2.71903 2.02292 0
M  V30 31748 C 2948.22 4.00511 1.75811 0
M  V30 31749 C 2947.28 4.40538 2.87771 0
M  V30 31750 O 2946.3 5.07831 2.57092 0
M  V30 31751 N 2947.5 4.04588 4.1628 0
M  V30 31752 H 2950.27 2.98797 0.232453 0
M  V30 31753 H 2947.83 1.61888 -0.0200106 0
M  V30 31754 H 2949.82 2.95662 2.76344 0
M  V30 31755 H 2948.39 1.94159 2.44992 0
M  V30 31756 H 2947.61 3.84815 0.855028 0
M  V30 31757 H 2948.9 4.84448 1.55524 0
M  V30 31758 H 2948.3 3.50474 4.44055 0
M  V30 31759 H 2946.85 4.33283 4.86939 0
M  V30 31760 N 2950.29 -0.0718147 1.57436 0
M  V30 31761 C 2951.54 -0.769451 1.86879 0
M  V30 31762 C 2951.86 -1.78115 0.793731 0
M  V30 31763 O 2951.13 -1.95093 -0.177608 0
M  V30 31764 H 2949.71 -0.287165 0.689598 0
M  V30 31765 H 2952.37 -0.0479084 1.94841 0
M  V30 31766 H 2951.46 -1.28567 2.84389 0
M  V30 31767 N 2951.77 -1.53818 -0.343203 0
M  V30 31768 C 2953.18 -1.44089 -0.68633 0
M  V30 31769 C 2953.38 -0.597916 -1.92425 0
M  V30 31770 O 2952.44 -0.0890362 -2.52343 0
M  V30 31771 C 2953.75 -2.87577 -0.878648 0
M  V30 31772 C 2955.3 -2.97353 -0.977243 0
M  V30 31773 C 2955.77 -4.41949 -1.20187 0
M  V30 31774 N 2957.26 -4.45476 -1.26907 0
M  V30 31775 C 2958 -5.54491 -1.46039 0
M  V30 31776 N 2957.5 -6.73511 -1.62342 0
M  V30 31777 N 2959.29 -5.42105 -1.4859 0
M  V30 31778 H 2951.44 -2.07118 0.470715 0
M  V30 31779 H 2953.7 -0.93627 0.148668 0
M  V30 31780 H 2953.41 -3.51677 -0.0405402 0
M  V30 31781 H 2953.28 -3.32544 -1.78028 0
M  V30 31782 H 2955.67 -2.33393 -1.80587 0
M  V30 31783 H 2955.75 -2.55746 -0.0525048 0
M  V30 31784 H 2955.39 -5.0649 -0.378173 0
M  V30 31785 H 2955.32 -4.81148 -2.14018 0
M  V30 31786 H 2957.82 -3.5971 -1.15831 0
M  V30 31787 H 2958.13 -7.52356 -1.76578 0
M  V30 31788 H 2956.47 -6.76455 -1.59478 0
M  V30 31789 H 2959.66 -4.48079 -1.35436 0
M  V30 31790 H 2959.84 -6.27123 -1.63159 0
M  V30 31791 N 2953.24 0.604233 -1.45557 0
M  V30 31792 C 2954.21 1.6967 -1.54094 0
M  V30 31793 C 2955.21 1.55215 -0.420103 0
M  V30 31794 O 2956.4 1.60222 -0.683699 0
M  V30 31795 C 2953.53 3.08961 -1.44068 0
M  V30 31796 H 2954.72 1.63466 -2.51434 0
M  V30 31797 H 2952.27 0.82025 -1.33047 0
M  V30 31798 H 2953.01 3.20739 -0.479258 0
M  V30 31799 H 2952.79 3.20861 -2.25368 0
M  V30 31800 H 2954.28 3.8853 -1.53082 0
M  V30 31801 N 2954.72 1.32903 0.847027 0
M  V30 31802 C 2955.68 1.22404 1.93778 0
M  V30 31803 C 2956.68 0.145136 1.60144 0
M  V30 31804 O 2957.87 0.396088 1.69637 0
M  V30 31805 C 2955.01 0.884232 3.29233 0
M  V30 31806 H 2956.2 2.19349 2.04514 0
M  V30 31807 H 2953.75 1.16844 1.03813 0
M  V30 31808 H 2954.49 -0.0830707 3.24194 0
M  V30 31809 H 2954.27 1.66437 3.55023 0
M  V30 31810 H 2955.76 0.835298 4.09161 0
M  V30 31811 N 2956.2 -1.06426 1.16238 0
M  V30 31812 C 2957.42 -1.83439 0.96772 0
M  V30 31813 C 2957.85 -1.81895 -0.479135 0
M  V30 31814 O 2957.21 -1.21878 -1.34222 0
M  V30 31815 C 2957.26 -3.28007 1.49811 0
M  V30 31816 O 2956.36 -4.06354 0.703553 0
M  V30 31817 H 2955.7 -0.567654 0.344478 0
M  V30 31818 H 2958.23 -1.34195 1.54444 0
M  V30 31819 H 2958.24 -3.78829 1.51502 0
M  V30 31820 H 2956.92 -3.28446 2.55139 0
M  V30 31821 H 2955.49 -3.65134 0.757051 0
M  V30 31822 N 2957.68 -0.960653 -1.24937 0
M  V30 31823 C 2958.61 -0.429843 -2.24115 0
M  V30 31824 C 2959.59 0.492161 -1.54973 0
M  V30 31825 O 2960.77 0.425158 -1.83643 0
M  V30 31826 C 2957.9 0.380253 -3.36559 0
M  V30 31827 C 2956.95 -0.483015 -4.23756 0
M  V30 31828 S 2957.78 -1.91894 -4.99937 0
M  V30 31829 C 2958.94 -1.11743 -6.15844 0
M  V30 31830 H 2959.17 -1.27034 -2.68793 0
M  V30 31831 H 2956.7 -0.765165 -1.34107 0
M  V30 31832 H 2958.66 0.841693 -4.01778 0
M  V30 31833 H 2957.32 1.19564 -2.90454 0
M  V30 31834 H 2956.51 0.13861 -5.03809 0
M  V30 31835 H 2956.12 -0.879903 -3.63502 0
M  V30 31836 H 2958.41 -0.369017 -6.76494 0
M  V30 31837 H 2959.35 -1.8921 -6.82353 0
M  V30 31838 H 2959.76 -0.64491 -5.60804 0
M  V30 31839 N 2959.16 1.39677 -0.729931 0
M  V30 31840 C 2960.57 1.83461 -0.346274 0
M  V30 31841 C 2960.92 1.60989 1.12147 0
M  V30 31842 O 2960.04 1.09835 1.86454 0
M  V30 31843 C 2960.64 3.33047 -0.621715 0
M  V30 31844 C 2959.2 3.75269 -0.291609 0
M  V30 31845 C 2958.34 2.62735 -0.886891 0
M  V30 31846 H 2961.3 1.28742 -0.927971 0
M  V30 31847 H 2961.32 3.80346 0.108235 0
M  V30 31848 H 2960.83 3.4937 -1.69003 0
M  V30 31849 H 2958.93 3.64534 0.771069 0
M  V30 31850 H 2959.04 4.72862 -0.770628 0
M  V30 31851 H 2957.41 2.52758 -0.313884 0
M  V30 31852 H 2958.19 2.81866 -1.95976 0
M  V30 31853 N 2960.63 0.47718 1.50202 0
M  V30 31854 C 2962.05 0.131691 1.59056 0
M  V30 31855 C 2962.25 -1.36225 1.48476 0
M  V30 31856 O 2961.31 -2.13609 1.34638 0
M  V30 31857 C 2962.62 0.687306 2.9274 0
M  V30 31858 C 2964.17 0.651277 3.06149 0
M  V30 31859 C 2964.64 1.18454 4.42417 0
M  V30 31860 N 2966.13 1.14421 4.48845 0
M  V30 31861 C 2966.87 1.52727 5.52686 0
M  V30 31862 N 2966.36 1.98511 6.63751 0
M  V30 31863 N 2968.16 1.44292 5.43265 0
M  V30 31864 H 2960.31 1.44874 1.55323 0
M  V30 31865 H 2962.57 0.599486 0.734385 0
M  V30 31866 H 2962.28 1.7341 3.05977 0
M  V30 31867 H 2962.15 0.134282 3.76961 0
M  V30 31868 H 2964.54 -0.386626 2.92556 0
M  V30 31869 H 2964.62 1.24118 2.2367 0
M  V30 31870 H 2964.26 2.22111 4.5676 0
M  V30 31871 H 2964.19 0.570801 5.23497 0
M  V30 31872 H 2966.68 0.808481 3.6915 0
M  V30 31873 H 2967 2.25872 7.39055 0
M  V30 31874 H 2965.34 2.02468 6.64855 0
M  V30 31875 H 2968.53 1.0836 4.55385 0
M  V30 31876 H 2968.71 1.7447 6.24071 0
M  V30 31877 N 2962.11 -1.56194 0.210027 0
M  V30 31878 C 2963.04 -2.2277 -0.699707 0
M  V30 31879 C 2964.02 -1.19562 -1.20991 0
M  V30 31880 O 2965.21 -1.48114 -1.25602 0
M  V30 31881 C 2962.34 -2.89867 -1.91297 0
M  V30 31882 C 2961.29 -3.99447 -1.53708 0
M  V30 31883 C 2960.62 -4.53782 -2.82818 0
M  V30 31884 C 2961.92 -5.17092 -0.735746 0
M  V30 31885 H 2963.61 -2.9905 -0.144663 0
M  V30 31886 H 2961.16 -1.43839 -0.0681392 0
M  V30 31887 H 2963.11 -3.35129 -2.55474 0
M  V30 31888 H 2961.84 -2.11015 -2.49279 0
M  V30 31889 H 2960.49 -3.54899 -0.918829 0
M  V30 31890 H 2960.14 -3.71675 -3.3892 0
M  V30 31891 H 2959.84 -5.27731 -2.58406 0
M  V30 31892 H 2961.37 -5.01755 -3.47957 0
M  V30 31893 H 2962.78 -5.58806 -1.28095 0
M  V30 31894 H 2961.18 -5.97201 -0.589167 0
M  V30 31895 H 2962.25 -4.84202 0.260089 0
M  V30 31896 N 2963.59 0.0634645 -1.57472 0
M  V30 31897 C 2964.55 1.05897 -2.0327 0
M  V30 31898 C 2965.55 1.31103 -0.931051 0
M  V30 31899 O 2966.74 1.26684 -1.19569 0
M  V30 31900 C 2963.88 2.40058 -2.42043 0
M  V30 31901 H 2965.07 0.664067 -2.92455 0
M  V30 31902 H 2962.62 0.309418 -1.53207 0
M  V30 31903 H 2963.36 2.84364 -1.55909 0
M  V30 31904 H 2963.14 2.23102 -3.22441 0
M  V30 31905 H 2964.63 3.11598 -2.78023 0
M  V30 31906 N 2965.07 1.53998 0.33504 0
M  V30 31907 C 2966.03 1.81875 1.39478 0
M  V30 31908 C 2967.03 0.690104 1.45238 0
M  V30 31909 O 2968.22 0.958403 1.45466 0
M  V30 31910 C 2965.35 1.96845 2.78325 0
M  V30 31911 H 2966.55 2.76549 1.16019 0
M  V30 31912 H 2964.1 1.4554 0.5699 0
M  V30 31913 H 2964.83 1.04342 3.07056 0
M  V30 31914 H 2964.62 2.78963 2.75539 0
M  V30 31915 H 2966.11 2.199 3.55012 0
M  V30 31916 N 2966.55 -0.596505 1.45875 0
M  V30 31917 C 2967.46 -1.73461 1.5795 0
M  V30 31918 C 2968.47 -1.67713 0.46349 0
M  V30 31919 O 2969.65 -1.8787 0.725718 0
M  V30 31920 C 2966.71 -3.09946 1.55353 0
M  V30 31921 C 2965.77 -3.27063 2.7808 0
M  V30 31922 C 2965.01 -4.57036 2.75597 0
M  V30 31923 O 2965.23 -5.40059 1.83554 0
M  V30 31924 O 2964.16 -4.77105 3.66953 0
M  V30 31925 H 2967.99 -1.66223 2.54172 0
M  V30 31926 H 2965.58 -0.761918 1.28511 0
M  V30 31927 H 2967.46 -3.91241 1.56552 0
M  V30 31928 H 2966.13 -3.17651 0.622867 0
M  V30 31929 H 2965.04 -2.45314 2.82439 0
M  V30 31930 H 2966.37 -3.24241 3.70309 0
M  V30 31931 N 2968.02 -1.3335 -0.839967 0
M  V30 31932 C 2969.25 -1.27781 -1.62726 0
M  V30 31933 C 2969.67 0.151472 -1.88191 0
M  V30 31934 O 2969.02 1.09327 -1.4613 0
M  V30 31935 C 2969.08 -2.04919 -2.9781 0
M  V30 31936 O 2968.8 -3.42271 -2.73463 0
M  V30 31937 C 2970.3 -2.06547 -3.92241 0
M  V30 31938 H 2967.52 -0.440266 -0.506366 0
M  V30 31939 H 2970.06 -1.75704 -1.04634 0
M  V30 31940 H 2968.22 -1.6068 -3.52506 0
M  V30 31941 H 2968.63 -3.81938 -3.59476 0
M  V30 31942 H 2970.1 -2.64975 -4.84244 0
M  V30 31943 H 2970.58 -1.05544 -4.2633 0
M  V30 31944 H 2971.19 -2.50799 -3.43482 0
M  V30 31945 N 2969.5 1.05808 -1.16801 0
M  V30 31946 C 2970.43 2.13378 -0.836812 0
M  V30 31947 C 2971.45 1.62031 0.158087 0
M  V30 31948 O 2972.64 1.78373 -0.0673524 0
M  V30 31949 C 2969.74 3.38145 -0.226019 0
M  V30 31950 C 2968.91 4.18791 -1.26224 0
M  V30 31951 C 2967.97 5.21913 -0.670349 0
M  V30 31952 O 2966.99 5.5319 -1.34051 0
M  V30 31953 N 2968.2 5.77977 0.540582 0
M  V30 31954 H 2970.96 2.42388 -1.76262 0
M  V30 31955 H 2968.52 1.21852 -1.06601 0
M  V30 31956 H 2970.51 4.04286 0.183099 0
M  V30 31957 H 2969.08 3.0672 0.60344 0
M  V30 31958 H 2968.3 3.48234 -1.84735 0
M  V30 31959 H 2969.59 4.69475 -1.96139 0
M  V30 31960 H 2968.99 5.5484 1.10312 0
M  V30 31961 H 2967.55 6.4567 0.891845 0
M  V30 31962 N 2970.98 0.967265 1.24426 0
M  V30 31963 C 2972.39 0.667815 1.74348 0
M  V30 31964 C 2972.74 -0.816478 1.78404 0
M  V30 31965 O 2971.87 -1.63884 1.41318 0
M  V30 31966 C 2972.46 1.20554 3.16626 0
M  V30 31967 C 2971.02 0.955998 3.64057 0
M  V30 31968 C 2970.17 1.34111 2.42713 0
M  V30 31969 H 2973.12 1.14263 1.10134 0
M  V30 31970 H 2973.14 0.571613 3.76182 0
M  V30 31971 H 2972.65 2.28584 3.13642 0
M  V30 31972 H 2970.75 -0.108792 3.72441 0
M  V30 31973 H 2970.87 1.60134 4.51546 0
M  V30 31974 H 2969.23 0.759495 2.43113 0
M  V30 31975 H 2970.01 2.43089 2.4241 0
M  V30 31976 N 2972.46 -1.39288 0.737328 0
M  V30 31977 C 2973.71 -2.00763 0.286716 0
M  V30 31978 C 2974.04 -1.58377 -1.12385 0
M  V30 31979 O 2973.31 -0.81373 -1.7666 0
M  V30 31980 C 2973.6 -3.57969 0.39121 0
M  V30 31981 C 2973.45 -4.10367 1.84172 0
M  V30 31982 C 2974.77 -4.39524 -0.224995 0
M  V30 31983 H 2971.89 -0.729387 0.105655 0
M  V30 31984 H 2974.53 -1.65463 0.933921 0
M  V30 31985 H 2972.68 -3.88171 -0.159807 0
M  V30 31986 H 2974.35 -3.90875 2.44979 0
M  V30 31987 H 2972.59 -3.6384 2.36226 0
M  V30 31988 H 2973.27 -5.19501 1.86609 0
M  V30 31989 H 2975.74 -4.1538 0.24475 0
M  V30 31990 H 2974.62 -5.48765 -0.121549 0
M  V30 31991 H 2974.88 -4.22204 -1.31133 0
M  V30 31992 N 2973.94 -0.485139 -1.49947 0
M  V30 31993 C 2975.17 0.062246 -2.06806 0
M  V30 31994 C 2975.58 1.32253 -1.34739 0
M  V30 31995 O 2974.94 1.77581 -0.420867 0
M  V30 31996 C 2974.99 0.336033 -3.59935 0
M  V30 31997 O 2974.71 -0.874279 -4.29288 0
M  V30 31998 C 2976.21 0.928826 -4.3346 0
M  V30 31999 H 2973.43 -0.013359 -0.670867 0
M  V30 32000 H 2975.97 -0.677951 -1.92935 0
M  V30 32001 H 2974.13 1.02618 -3.73562 0
M  V30 32002 H 2974.54 -0.627424 -5.20734 0
M  V30 32003 H 2976.02 1.07008 -5.41529 0
M  V30 32004 H 2976.49 1.92258 -3.94884 0
M  V30 32005 H 2977.1 0.276631 -4.24399 0
M  V30 32006 N 2975.42 1.56081 -0.218307 0
M  V30 32007 C 2976.69 1.90039 0.463109 0
M  V30 32008 C 2977.07 1.13518 1.7798 0
M  V30 32009 O 2976.42 0.24349 2.27199 0
M  V30 32010 C 2976.63 3.42717 0.659232 0
M  V30 32011 C 2977.98 4.13416 0.96813 0
M  V30 32012 O 2979 3.48298 0.746133 0
M  V30 32013 O 2977.86 5.28547 1.38927 0
M  V30 32014 H 2974.96 0.790055 0.244422 0
M  V30 32015 H 2977.5 1.67693 -0.26025 0
M  V30 32016 H 2976.27 3.9037 -0.269653 0
M  V30 32017 H 2975.9 3.70832 1.4342 0
M  V30 32018 N 2976.89 -0.0551124 1.57504 0
M  V30 32019 C 2977.86 -1.04817 2.03828 0
M  V30 32020 C 2978.86 -1.30608 0.937991 0
M  V30 32021 O 2980.05 -1.26048 1.2024 0
M  V30 32022 C 2977.18 -2.38771 2.43313 0
M  V30 32023 H 2978.37 -0.648548 2.92803 0
M  V30 32024 H 2975.92 -0.301288 1.53369 0
M  V30 32025 H 2976.66 -2.83533 1.57415 0
M  V30 32026 H 2976.44 -2.21389 3.23619 0
M  V30 32027 H 2977.93 -3.10119 2.79671 0
M  V30 32028 N 2978.37 -1.54173 -0.326869 0
M  V30 32029 C 2979.6 -1.76496 -1.08921 0
M  V30 32030 C 2980.02 -0.510555 -1.81039 0
M  V30 32031 O 2979.38 0.537725 -1.73142 0
M  V30 32032 C 2979.43 -2.95581 -2.06553 0
M  V30 32033 O 2978.53 -2.66896 -3.14389 0
M  V30 32034 H 2977.87 -0.584954 -0.314205 0
M  V30 32035 H 2980.4 -2.01187 -0.372172 0
M  V30 32036 H 2980.41 -3.22836 -2.49481 0
M  V30 32037 H 2979.09 -3.86552 -1.53462 0
M  V30 32038 H 2977.66 -2.5058 -2.76159 0
M  V30 32039 N 2979.85 0.58876 -1.4619 0
M  V30 32040 C 2981.26 1.17085 -1.45423 0
M  V30 32041 C 2981.61 1.9526 -0.191836 0
M  V30 32042 O 2980.74 2.04578 0.705461 0
M  V30 32043 C 2981.33 2.12999 -2.63471 0
M  V30 32044 C 2979.89 2.66545 -2.65764 0
M  V30 32045 C 2979.04 1.423 -2.38004 0
M  V30 32046 H 2981.99 0.377025 -1.54156 0
M  V30 32047 H 2982.01 2.96361 -2.38643 0
M  V30 32048 H 2981.52 1.56075 -3.55334 0
M  V30 32049 H 2979.62 3.27356 -1.77957 0
M  V30 32050 H 2979.74 3.09693 -3.6555 0
M  V30 32051 H 2978.1 1.71904 -1.87939 0
M  V30 32052 H 2978.88 0.87215 -3.32037 0
M  V30 32053 N 2981.33 1.33794 0.832883 0
M  V30 32054 C 2982.26 1.18886 1.94786 0
M  V30 32055 C 2983.24 0.0828711 1.62389 0
M  V30 32056 O 2984.42 0.246208 1.86885 0
M  V30 32057 C 2981.55 0.824785 3.28504 0
M  V30 32058 C 2980.6 1.93912 3.79869 0
M  V30 32059 S 2981.43 3.55104 4.00826 0
M  V30 32060 C 2982.58 3.20717 5.37486 0
M  V30 32061 H 2982.82 2.13268 2.07133 0
M  V30 32062 H 2980.35 1.18705 0.987341 0
M  V30 32063 H 2982.31 0.621513 4.05768 0
M  V30 32064 H 2980.97 -0.100531 3.13939 0
M  V30 32065 H 2980.16 1.63789 4.76644 0
M  V30 32066 H 2979.76 2.09936 3.0952 0
M  V30 32067 H 2982.06 2.71913 6.2054 0
M  V30 32068 H 2983 4.16594 5.72586 0
M  V30 32069 H 2983.41 2.57157 5.02524 0
M  V30 32070 N 2982.81 -1.05187 1.1736 0
M  V30 32071 C 2983.75 -2.12935 0.890362 0
M  V30 32072 C 2984.72 -1.65271 -0.165749 0
M  V30 32073 O 2985.91 -1.90779 -0.0285337 0
M  V30 32074 C 2983.05 -3.42658 0.409854 0
M  V30 32075 C 2982.16 -4.03995 1.53009 0
M  V30 32076 C 2981.3 -5.21636 1.00345 0
M  V30 32077 C 2980.33 -5.74981 2.09913 0
M  V30 32078 N 2979.47 -6.83923 1.58726 0
M  V30 32079 H 2984.31 -2.36502 1.81304 0
M  V30 32080 H 2981.85 -1.16023 0.904269 0
M  V30 32081 H 2983.81 -4.17047 0.112817 0
M  V30 32082 H 2982.44 -3.19273 -0.475859 0
M  V30 32083 H 2981.49 -3.27043 1.94285 0
M  V30 32084 H 2982.8 -4.39627 2.35648 0
M  V30 32085 H 2981.95 -6.03097 0.660264 0
M  V30 32086 H 2980.69 -4.8748 0.146506 0
M  V30 32087 H 2979.7 -4.9215 2.45089 0
M  V30 32088 H 2980.92 -6.11185 2.96024 0
M  V30 32089 H 2978.87 -6.51664 0.753029 0
M  V30 32090 H 2978.79 -7.18557 2.34972 0
M  V30 32091 H 2980.05 -7.69035 1.273 0
M  V30 32092 N 2984.28 -0.97385 -1.23911 0
M  V30 32093 C 2985.7 -0.681389 -1.44323 0
M  V30 32094 C 2985.9 0.754695 -1.86833 0
M  V30 32095 O 2984.96 1.52789 -2.01027 0
M  V30 32096 C 2986.27 -1.67073 -2.50014 0
M  V30 32097 C 2987.82 -1.68404 -2.63835 0
M  V30 32098 C 2988.29 -2.66152 -3.72729 0
M  V30 32099 N 2989.78 -2.64631 -3.80164 0
M  V30 32100 C 2990.52 -3.36935 -4.63964 0
M  V30 32101 N 2990.01 -4.18777 -5.51904 0
M  V30 32102 N 2991.81 -3.25731 -4.581 0
M  V30 32103 H 2983.96 -1.90161 -0.946171 0
M  V30 32104 H 2986.22 -0.819043 -0.477359 0
M  V30 32105 H 2985.93 -2.69742 -2.25681 0
M  V30 32106 H 2985.8 -1.44837 -3.48285 0
M  V30 32107 H 2988.19 -0.664429 -2.87523 0
M  V30 32108 H 2988.27 -1.94705 -1.65902 0
M  V30 32109 H 2987.91 -3.68251 -3.49791 0
M  V30 32110 H 2987.84 -2.37128 -4.70189 0
M  V30 32111 H 2990.33 -2.0523 -3.17315 0
M  V30 32112 H 2990.65 -4.7082 -6.1282 0
M  V30 32113 H 2988.99 -4.2287 -5.51549 0
M  V30 32114 H 2992.18 -2.61249 -3.88415 0
M  V30 32115 H 2992.36 -3.82342 -5.23181 0
M  V30 32116 N 2985.76 1.38895 -0.744705 0
M  V30 32117 C 2986.99 2.05128 -0.306155 0
M  V30 32118 C 2987.41 1.55791 1.05407 0
M  V30 32119 O 2986.77 0.705938 1.66992 0
M  V30 32120 C 2986.82 3.59103 -0.328258 0
M  V30 32121 O 2985.92 4.06742 0.680804 0
M  V30 32122 H 2985.26 0.649666 -0.13722 0
M  V30 32123 H 2987.79 1.77743 -1.01334 0
M  V30 32124 H 2987.8 4.0762 -0.176027 0
M  V30 32125 H 2986.48 3.94372 -1.32074 0
M  V30 32126 H 2985.05 3.69615 0.493915 0
M  V30 32127 N 2987.24 0.493084 1.49688 0
M  V30 32128 C 2988.49 -0.0560378 2.01622 0
M  V30 32129 C 2988.8 -1.38778 1.37841 0
M  V30 32130 O 2990.01 -2.02313 1.81057 0
M  V30 32131 C 2988.46 -0.150345 3.59586 0
M  V30 32132 C 2988.07 1.17428 4.32336 0
M  V30 32133 C 2989.82 -0.650253 4.1949 0
M  V30 32134 C 2987.72 1.04256 5.82138 0
M  V30 32135 H 2986.65 -0.0247165 0.753595 0
M  V30 32136 H 2989.3 0.631309 1.72298 0
M  V30 32137 H 2987.69 -0.901967 3.85591 0
M  V30 32138 H 2988.86 1.93857 4.18038 0
M  V30 32139 H 2987.18 1.607 3.84141 0
M  V30 32140 H 2989.77 -0.766179 5.29182 0
M  V30 32141 H 2990.12 -1.64713 3.82329 0
M  V30 32142 H 2990.65 0.044607 3.97775 0
M  V30 32143 H 2987.39 2.01347 6.2381 0
M  V30 32144 H 2986.91 0.319025 5.98951 0
M  V30 32145 H 2988.59 0.71807 6.43003 0
M  V30 32146 N 2988.72 -1.55963 0.226582 0
M  V30 32147 C 2989.94 -2.03277 -0.411491 0
M  V30 32148 C 2990.37 -1.10524 -1.52204 0
M  V30 32149 O 2989.73 -0.0943536 -1.81054 0
M  V30 32150 C 2989.77 -3.48782 -0.915632 0
M  V30 32151 O 2988.88 -3.59166 -2.02665 0
M  V30 32152 H 2988.22 -0.657528 -0.0924791 0
M  V30 32153 H 2990.75 -2.01641 0.346691 0
M  V30 32154 H 2990.76 -3.89203 -1.22415 0
M  V30 32155 H 2989.43 -4.15773 -0.102842 0
M  V30 32156 H 2988.01 -3.30635 -1.72439 0
M  V30 32157 N 2990.2 0.0467589 -1.57531 0
M  V30 32158 C 2991.42 0.753337 -1.92698 0
M  V30 32159 C 2991.84 1.6983 -0.824822 0
M  V30 32160 O 2991.2 1.81399 0.200123 0
M  V30 32161 C 2991.25 1.52561 -3.27731 0
M  V30 32162 O 2990.97 0.618598 -4.33711 0
M  V30 32163 C 2992.47 2.33094 -3.7707 0
M  V30 32164 H 2989.69 0.212776 -0.63637 0
M  V30 32165 H 2992.23 0.00955767 -2.04498 0
M  V30 32166 H 2990.39 2.22143 -3.17382 0
M  V30 32167 H 2990.8 1.1583 -5.1155 0
M  V30 32168 H 2992.28 2.82701 -4.74114 0
M  V30 32169 H 2992.75 3.13736 -3.07354 0
M  V30 32170 H 2993.36 1.68621 -3.90445 0
M  V30 32171 N 2991.67 1.54344 0.318688 0
M  V30 32172 C 2992.6 1.87064 1.39748 0
M  V30 32173 C 2993.59 0.727875 1.5374 0
M  V30 32174 O 2994.77 0.982046 1.6754 0
M  V30 32175 C 2991.9 2.10231 2.76442 0
M  V30 32176 C 2990.85 3.26076 2.77234 0
M  V30 32177 C 2990.18 3.34625 4.1705 0
M  V30 32178 C 2991.48 4.6361 2.40546 0
M  V30 32179 H 2993.17 2.77414 1.12614 0
M  V30 32180 H 2990.72 1.3348 0.540294 0
M  V30 32181 H 2992.67 2.31705 3.51981 0
M  V30 32182 H 2991.4 1.16634 3.05064 0
M  V30 32183 H 2990.06 3.04497 2.0415 0
M  V30 32184 H 2989.7 2.38577 4.4282 0
M  V30 32185 H 2989.4 4.12486 4.18485 0
M  V30 32186 H 2990.93 3.58339 4.94394 0
M  V30 32187 H 2992.34 4.84933 3.05799 0
M  V30 32188 H 2990.74 5.44056 2.53224 0
M  V30 32189 H 2991.81 4.65528 1.3569 0
M  V30 32190 N 2993.15 -0.580999 1.465 0
M  V30 32191 C 2994.12 -1.67197 1.56773 0
M  V30 32192 C 2995.12 -1.54527 0.444743 0
M  V30 32193 O 2996.31 -1.59114 0.709102 0
M  V30 32194 C 2993.44 -3.0663 1.48966 0
M  V30 32195 H 2994.63 -1.59445 2.54002 0
M  V30 32196 H 2992.18 -0.79898 1.34335 0
M  V30 32197 H 2992.92 -3.19936 0.530224 0
M  V30 32198 H 2992.7 -3.17235 2.30444 0
M  V30 32199 H 2994.19 -3.86046 1.59244 0
M  V30 32200 N 2994.63 -1.34234 -0.825776 0
M  V30 32201 C 2995.56 -1.21416 -1.94399 0
M  V30 32202 C 2996.58 -0.14193 -1.6218 0
M  V30 32203 O 2997.76 -0.393531 -1.74108 0
M  V30 32204 C 2994.86 -0.842693 -3.28256 0
M  V30 32205 C 2994.04 -2.00931 -3.88517 0
M  V30 32206 C 2993.1 -1.6167 -5.00749 0
M  V30 32207 O 2992.12 -2.33288 -5.19197 0
M  V30 32208 N 2993.32 -0.529212 -5.78083 0
M  V30 32209 H 2996.09 -2.17748 -2.05927 0
M  V30 32210 H 2993.65 -1.27151 -1.00221 0
M  V30 32211 H 2995.64 -0.561892 -4.0078 0
M  V30 32212 H 2994.21 0.0303479 -3.12585 0
M  V30 32213 H 2993.43 -2.455 -3.08421 0
M  V30 32214 H 2994.72 -2.78959 -4.25511 0
M  V30 32215 H 2994.12 0.0662328 -5.65661 0
M  V30 32216 H 2992.68 -0.308132 -6.51071 0
M  V30 32217 N 2996.11 1.04563 -1.17917 0
M  V30 32218 C 2997.52 1.29863 -0.927784 0
M  V30 32219 C 2997.72 1.97295 0.409501 0
M  V30 32220 O 2996.78 2.25046 1.14501 0
M  V30 32221 C 2998.09 2.16221 -2.08971 0
M  V30 32222 C 2999.64 2.29584 -2.12745 0
M  V30 32223 C 3000.12 3.19306 -3.28341 0
M  V30 32224 N 3001.61 3.26893 -3.2817 0
M  V30 32225 C 3002.34 3.96458 -4.14256 0
M  V30 32226 N 3001.84 4.68398 -5.10466 0
M  V30 32227 N 3003.63 3.92687 -4.02186 0
M  V30 32228 H 2995.78 0.591975 -2.03984 0
M  V30 32229 H 2998.05 0.323685 -0.891029 0
M  V30 32230 H 2997.75 1.73973 -3.05657 0
M  V30 32231 H 2997.63 3.16882 -2.04611 0
M  V30 32232 H 3000.01 2.7107 -1.1664 0
M  V30 32233 H 3000.09 1.28531 -2.21164 0
M  V30 32234 H 2999.74 2.78532 -4.24715 0
M  V30 32235 H 2999.67 4.20379 -3.17158 0
M  V30 32236 H 3002.16 2.75641 -2.58516 0
M  V30 32237 H 3002.47 5.1906 -5.72536 0
M  V30 32238 H 3000.82 4.67319 -5.1443 0
M  V30 32239 H 3004.01 3.35614 -3.26314 0
M  V30 32240 H 3004.18 4.46632 -4.69494 0
M  V30 32241 N 2997.59 0.980408 1.23393 0
M  V30 32242 C 2999 0.68627 1.7363 0
M  V30 32243 C 2999.35 -0.79751 1.7926 0
M  V30 32244 O 2998.47 -1.62376 1.43049 0
M  V30 32245 C 2999.07 1.23905 3.1533 0
M  V30 32246 C 2997.63 0.994557 3.63023 0
M  V30 32247 C 2996.77 1.36677 2.41277 0
M  V30 32248 H 2999.73 1.15425 1.08916 0
M  V30 32249 H 2999.75 0.61148 3.75554 0
M  V30 32250 H 2999.26 2.31897 3.112 0
M  V30 32251 H 2997.36 -0.0692837 3.72536 0
M  V30 32252 H 2997.47 1.64914 4.49822 0
M  V30 32253 H 2995.84 0.785237 2.42293 0
M  V30 32254 H 2996.62 2.45647 2.39818 0
M  V30 32255 N 2999.06 -1.38498 0.75206 0
M  V30 32256 C 3000.48 -1.53713 0.429487 0
M  V30 32257 C 3000.68 -1.71516 -1.05757 0
M  V30 32258 O 2999.74 -1.7253 -1.84363 0
M  V30 32259 C 3001.05 -2.74509 1.2274 0
M  V30 32260 C 3002.6 -2.88358 1.21732 0
M  V30 32261 C 3003.07 -4.12113 1.99816 0
M  V30 32262 N 3004.56 -4.19187 1.97069 0
M  V30 32263 C 3005.3 -5.13934 2.54283 0
M  V30 32264 N 3004.79 -6.14363 3.20204 0
M  V30 32265 N 3006.59 -5.06273 2.44221 0
M  V30 32266 H 2998.74 -1.25192 1.71583 0
M  V30 32267 H 3001 -0.608057 0.727303 0
M  V30 32268 H 3000.71 -2.67754 2.28037 0
M  V30 32269 H 3000.58 -3.67654 0.843251 0
M  V30 32270 H 3002.97 -2.94596 0.172419 0
M  V30 32271 H 3003.05 -1.96229 1.64097 0
M  V30 32272 H 3002.69 -4.06637 3.04317 0
M  V30 32273 H 3002.62 -5.03319 1.54846 0
M  V30 32274 H 3005.11 -3.4726 1.4906 0
M  V30 32275 H 3005.43 -6.8315 3.61284 0
M  V30 32276 H 3003.77 -6.147 3.24298 0
M  V30 32277 H 3006.96 -4.26754 1.92351 0
M  V30 32278 H 3007.14 -5.79932 2.89106 0
M  V30 32279 N 3000.54 -0.501015 -1.49424 0
M  V30 32280 C 3001.79 0.043414 -2.02053 0
M  V30 32281 C 3002.11 1.37483 -1.38287 0
M  V30 32282 O 3001.38 1.88362 -0.538204 0
M  V30 32283 H 2999.96 0.0190338 -0.746757 0
M  V30 32284 H 3002.62 -0.658259 -1.83447 0
M  V30 32285 H 3001.72 0.173074 -3.1162 0
M  V30 32286 N 3002.02 1.5584 -0.234849 0
M  V30 32287 C 3003.25 2.03042 0.397709 0
M  V30 32288 C 3003.66 1.11439 1.52403 0
M  V30 32289 O 3003.02 0.126498 1.82061 0
M  V30 32290 C 3003.07 3.4968 0.916857 0
M  V30 32291 O 3002.79 4.37791 -0.16457 0
M  V30 32292 C 3004.29 4.12587 1.62132 0
M  V30 32293 H 3001.51 0.66411 0.0959097 0
M  V30 32294 H 3004.06 2.01392 -0.355192 0
M  V30 32295 H 3002.21 3.51903 1.61998 0
M  V30 32296 H 3002.63 5.24006 0.227702 0
M  V30 32297 H 3004.1 5.1692 1.93642 0
M  V30 32298 H 3004.58 3.58365 2.53912 0
M  V30 32299 H 3005.18 4.14252 0.963072 0
M  V30 32300 N 3003.5 -0.038404 1.57553 0
M  V30 32301 C 3004.45 -1.04956 2.02406 0
M  V30 32302 C 3005.43 -1.32576 0.911729 0
M  V30 32303 O 3006.63 -1.32317 1.17564 0
M  V30 32304 C 3003.75 -2.35352 2.49928 0
M  V30 32305 C 3002.84 -2.10863 3.67964 0
M  V30 32306 N 3003.23 -1.56402 4.81011 0
M  V30 32307 C 3001.53 -2.4119 3.75158 0
M  V30 32308 C 3002.23 -1.47502 5.62688 0
M  V30 32309 N 3001.21 -1.94733 5.07523 0
M  V30 32310 H 3005.01 -0.622348 2.87235 0
M  V30 32311 H 3002.52 -0.244888 1.60543 0
M  V30 32312 H 3004.52 -3.0859 2.80317 0
M  V30 32313 H 3003.18 -2.7876 1.66501 0
M  V30 32314 H 3004.19 -1.24801 5.02638 0
M  V30 32315 H 3000.87 -2.87737 3.02512 0
M  V30 32316 H 3002.26 -1.05965 6.63492 0
M  V30 32317 N 3004.98 -1.54511 -0.310498 0
M  V30 32318 C 3005.91 -1.87802 -1.38754 0
M  V30 32319 C 3006.89 -0.736018 -1.53352 0
M  V30 32320 O 3008.07 -0.990917 -1.67016 0
M  V30 32321 C 3005.2 -2.11694 -2.75323 0
M  V30 32322 C 3004.16 -3.27541 -2.75501 0
M  V30 32323 C 3003.48 -3.36832 -4.15269 0
M  V30 32324 C 3004.78 -4.6488 -2.38084 0
M  V30 32325 H 3006.48 -2.78007 -1.11141 0
M  V30 32326 H 3004.02 -1.33764 -0.533208 0
M  V30 32327 H 3005.98 -2.33568 -3.50748 0
M  V30 32328 H 3004.7 -1.1825 -3.04441 0
M  V30 32329 H 3003.36 -3.05575 -2.02532 0
M  V30 32330 H 3003.01 -2.40922 -4.41549 0
M  V30 32331 H 3002.71 -4.14699 -4.16291 0
M  V30 32332 H 3004.23 -3.60955 -4.92487 0
M  V30 32333 H 3005.65 -4.86548 -3.03223 0
M  V30 32334 H 3004.04 -5.45392 -2.50335 0
M  V30 32335 H 3005.11 -4.66241 -1.33219 0
M  V30 32336 N 3006.46 0.573222 -1.46806 0
M  V30 32337 C 3007.7 1.34202 -1.54172 0
M  V30 32338 C 3008.06 1.9103 -0.192709 0
M  V30 32339 O 3009.26 2.68429 -0.141159 0
M  V30 32340 C 3007.53 2.43424 -2.61686 0
M  V30 32341 S 3009.09 3.30604 -2.88525 0
M  V30 32342 H 3005.91 0.457091 -0.5446 0
M  V30 32343 H 3008.51 0.657968 -1.84095 0
M  V30 32344 H 3007.21 2.00082 -3.58323 0
M  V30 32345 H 3006.75 3.16589 -2.33527 0
M  V30 32346 H 3008.76 4.425 -2.24518 0
M  V30 32347 N 3007.93 1.3467 0.818645 0
M  V30 32348 C 3009.16 1.30508 1.61191 0
M  V30 32349 C 3009.58 -0.117308 1.87734 0
M  V30 32350 O 3008.94 -1.08039 1.45592 0
M  V30 32351 C 3008.99 2.10575 2.92729 0
M  V30 32352 O 3008.09 1.4782 3.84997 0
M  V30 32353 H 3007.43 0.448019 0.490077 0
M  V30 32354 H 3009.96 1.77535 1.01697 0
M  V30 32355 H 3009.97 2.22088 3.42258 0
M  V30 32356 H 3008.65 3.13988 2.72735 0
M  V30 32357 H 3007.23 1.45075 3.43522 0
M  V30 32358 N 3009.41 -1.03936 1.1847 0
M  V30 32359 C 3010.64 -1.80808 1.00579 0
M  V30 32360 C 3011.05 -1.83462 -0.445754 0
M  V30 32361 O 3010.41 -1.27103 -1.30962 0
M  V30 32362 C 3010.46 -3.26348 1.55497 0
M  V30 32363 O 3010.18 -3.23921 2.94969 0
M  V30 32364 C 3011.68 -4.19859 1.42243 0
M  V30 32365 H 3008.9 -0.569344 0.35509 0
M  V30 32366 H 3011.45 -1.30982 1.57048 0
M  V30 32367 H 3009.6 -3.73401 1.03202 0
M  V30 32368 H 3010.02 -4.15105 3.20606 0
M  V30 32369 H 3011.49 -5.19911 1.85464 0
M  V30 32370 H 3011.97 -4.37627 0.371344 0
M  V30 32371 H 3012.57 -3.78672 1.93617 0
M  V30 32372 N 3010.89 -0.986938 -1.22871 0
M  V30 32373 C 3012.12 -0.677697 -1.95486 0
M  V30 32374 C 3012.53 0.756542 -1.72979 0
M  V30 32375 O 3011.89 1.50983 -1.0252 0
M  V30 32376 C 3011.94 -0.966699 -3.48335 0
M  V30 32377 O 3011.66 -2.34457 -3.70083 0
M  V30 32378 C 3013.16 -0.674325 -4.38141 0
M  V30 32379 H 3010.38 -0.251196 -0.622207 0
M  V30 32380 H 3012.93 -1.32009 -1.56185 0
M  V30 32381 H 3011.08 -0.370205 -3.85627 0
M  V30 32382 H 3011.5 -2.43926 -4.64328 0
M  V30 32383 H 3012.97 -0.926854 -5.44163 0
M  V30 32384 H 3013.45 0.391652 -4.3745 0
M  V30 32385 H 3014.05 -1.2516 -4.06467 0
M  V30 32386 N 3012.37 1.38098 -0.759394 0
M  V30 32387 C 3013.78 1.82685 -0.385111 0
M  V30 32388 C 3014.13 1.63332 1.08707 0
M  V30 32389 O 3013.25 1.13766 1.84082 0
M  V30 32390 C 3013.85 3.31653 -0.692219 0
M  V30 32391 C 3012.41 3.74566 -0.371143 0
M  V30 32392 C 3011.56 2.60794 -0.942421 0
M  V30 32393 H 3014.51 1.26744 -0.95507 0
M  V30 32394 H 3014.53 3.8049 0.0275333 0
M  V30 32395 H 3014.04 3.45707 -1.76375 0
M  V30 32396 H 3012.14 3.66088 0.693573 0
M  V30 32397 H 3012.25 4.71121 -0.870755 0
M  V30 32398 H 3010.62 2.52036 -0.367427 0
M  V30 32399 H 3011.4 2.77646 -2.0191 0
M  V30 32400 N 3013.85 0.508932 1.49156 0
M  V30 32401 C 3015.12 -0.0961569 1.95364 0
M  V30 32402 C 3015.5 -1.53359 1.45066 0
M  V30 32403 O 3014.85 -2.18522 0.667874 0
M  V30 32404 C 3015.06 -0.000627536 3.49 0
M  V30 32405 C 3016.41 -0.170558 4.24257 0
M  V30 32406 O 3017.43 -0.0754368 3.5612 0
M  V30 32407 O 3016.29 -0.366862 5.45267 0
M  V30 32408 H 3013.39 -0.0909345 0.821985 0
M  V30 32409 H 3015.93 0.572035 1.59768 0
M  V30 32410 H 3014.7 1.00149 3.78267 0
M  V30 32411 H 3014.33 -0.708613 3.91235 0
M  V30 32412 N 3015.32 -1.55714 0.243111 0
M  V30 32413 C 3016.74 -1.59208 -0.111825 0
M  V30 32414 C 3016.94 -1.26023 -1.57228 0
M  V30 32415 O 3016 -1.00573 -2.31606 0
M  V30 32416 C 3017.31 -2.99789 0.233938 0
M  V30 32417 C 3018.86 -3.12494 0.177928 0
M  V30 32418 C 3019.33 -4.55288 0.49767 0
M  V30 32419 N 3020.82 -4.61028 0.44803 0
M  V30 32420 C 3021.56 -5.69488 0.668645 0
M  V30 32421 N 3021.05 -6.86225 0.952185 0
M  V30 32422 N 3022.85 -5.58893 0.59961 0
M  V30 32423 H 3015 -1.75556 1.19558 0
M  V30 32424 H 3017.26 -0.81704 0.48078 0
M  V30 32425 H 3016.97 -3.28797 1.24841 0
M  V30 32426 H 3016.84 -3.74616 -0.44078 0
M  V30 32427 H 3019.23 -2.83269 -0.827213 0
M  V30 32428 H 3019.31 -2.3995 0.886441 0
M  V30 32429 H 3018.95 -4.85234 1.50035 0
M  V30 32430 H 3018.88 -5.26087 -0.232279 0
M  V30 32431 H 3021.37 -3.77153 0.237454 0
M  V30 32432 H 3021.69 -7.64815 1.10805 0
M  V30 32433 H 3020.03 -6.87918 0.989617 0
M  V30 32434 H 3023.22 -4.6657 0.37817 0
M  V30 32435 H 3023.4 -6.4335 0.774941 0
M  V30 32436 N 3016.8 0.030048 -1.57571 0
M  V30 32437 C 3018.21 0.576771 -1.77568 0
M  V30 32438 C 3018.56 1.75655 -0.874065 0
M  V30 32439 O 3017.69 2.16291 -0.0686504 0
M  V30 32440 C 3018.28 1.0531 -3.22018 0
M  V30 32441 C 3016.84 1.54534 -3.43214 0
M  V30 32442 C 3015.99 0.482985 -2.73061 0
M  V30 32443 H 3018.94 -0.196178 -1.57483 0
M  V30 32444 H 3018.96 1.92049 -3.28477 0
M  V30 32445 H 3018.47 0.194229 -3.87614 0
M  V30 32446 H 3016.58 2.4261 -2.82792 0
M  V30 32447 H 3016.69 1.59352 -4.51823 0
M  V30 32448 H 3015.05 0.937793 -2.36807 0
M  V30 32449 H 3015.84 -0.366401 -3.41339 0
M  V30 32450 N 3018.28 1.54674 0.3023 0
M  V30 32451 C 3019.69 1.64906 0.87538 0
M  V30 32452 C 3020.04 0.556873 1.88131 0
M  V30 32453 O 3019.17 -0.306716 2.14215 0
M  V30 32454 C 3019.76 2.98933 1.59451 0
M  V30 32455 C 3018.32 3.1129 2.11602 0
M  V30 32456 C 3017.47 2.60582 0.948278 0
M  V30 32457 H 3020.42 1.58502 0.0793341 0
M  V30 32458 H 3020.44 2.90283 2.46 0
M  V30 32459 H 3019.95 3.78403 0.862133 0
M  V30 32460 H 3018.05 2.36537 2.87891 0
M  V30 32461 H 3018.17 4.17426 2.35144 0
M  V30 32462 H 3016.53 2.17003 1.33348 0
M  V30 32463 H 3017.31 3.4253 0.229876 0
M  V30 32464 N 3019.76 -0.565428 1.47108 0
M  V30 32465 C 3021.17 -1.14757 1.47268 0
M  V30 32466 C 3021.52 -1.9493 0.222876 0
M  V30 32467 O 3020.65 -2.05675 -0.672825 0
M  V30 32468 C 3021.24 -2.08781 2.66826 0
M  V30 32469 C 3019.8 -2.62283 2.69971 0
M  V30 32470 C 3018.95 -1.38495 2.40238 0
M  V30 32471 H 3021.9 -0.352452 1.54737 0
M  V30 32472 H 3021.92 -2.92526 2.43328 0
M  V30 32473 H 3021.43 -1.50402 3.57772 0
M  V30 32474 H 3019.53 -3.24483 1.83143 0
M  V30 32475 H 3019.64 -3.03838 3.70431 0
M  V30 32476 H 3018.01 -1.68892 1.9065 0
M  V30 32477 H 3018.79 -0.819216 3.33382 0
M  V30 32478 N 3021.24 -1.35102 -0.811492 0
M  V30 32479 C 3022.46 -1.31361 -1.60497 0
M  V30 32480 C 3022.89 0.10735 -1.87793 0
M  V30 32481 O 3022.24 1.07266 -1.46163 0
M  V30 32482 C 3022.29 -2.12124 -2.91609 0
M  V30 32483 O 3021.4 -1.4986 -3.84208 0
M  V30 32484 H 3020.74 -0.450611 -0.487694 0
M  V30 32485 H 3023.27 -1.78072 -1.00754 0
M  V30 32486 H 3023.28 -2.239 -3.41076 0
M  V30 32487 H 3021.95 -3.1543 -2.71066 0
M  V30 32488 H 3020.53 -1.46895 -3.42748 0
M  V30 32489 N 3022.71 1.03306 -1.19019 0
M  V30 32490 C 3023.65 2.11555 -0.881884 0
M  V30 32491 C 3024.66 1.62329 0.123683 0
M  V30 32492 O 3025.85 1.7819 -0.105173 0
M  V30 32493 C 3022.95 3.3759 -0.297694 0
M  V30 32494 C 3022.12 4.1602 -1.35079 0
M  V30 32495 C 3021.18 5.20373 -0.780903 0
M  V30 32496 O 3020.21 5.50222 -1.45755 0
M  V30 32497 N 3021.41 5.78994 0.417863 0
M  V30 32498 H 3024.17 2.38595 -1.81364 0
M  V30 32499 H 3021.73 1.19563 -1.09162 0
M  V30 32500 H 3023.73 4.04583 0.0973029 0
M  V30 32501 H 3022.3 3.07931 0.538245 0
M  V30 32502 H 3021.52 3.44237 -1.9208 0
M  V30 32503 H 3022.8 4.65209 -2.06053 0
M  V30 32504 H 3022.2 5.57055 0.985183 0
M  V30 32505 H 3020.76 6.47416 0.754688 0
M  V30 32506 N 3024.19 0.99344 1.22346 0
M  V30 32507 C 3025.16 0.54929 2.22521 0
M  V30 32508 C 3026.16 -0.368136 1.56529 0
M  V30 32509 O 3027.35 -0.160019 1.73463 0
M  V30 32510 C 3024.48 -0.200978 3.40307 0
M  V30 32511 H 3025.67 1.43519 2.63329 0
M  V30 32512 H 3023.22 0.780704 1.35406 0
M  V30 32513 H 3023.96 -1.10284 3.04972 0
M  V30 32514 H 3023.74 0.457753 3.89419 0
M  V30 32515 H 3025.23 -0.499873 4.14597 0
M  V30 32516 N 3025.67 -1.37693 0.766707 0
M  V30 32517 C 3026.9 -2.04615 0.338751 0
M  V30 32518 C 3027.32 -1.57449 -1.02915 0
M  V30 32519 O 3026.68 -0.732416 -1.65847 0
M  V30 32520 C 3026.73 -3.58535 0.385347 0
M  V30 32521 O 3025.83 -4.07773 -0.616009 0
M  V30 32522 H 3025.17 -0.647401 0.147539 0
M  V30 32523 H 3027.7 -1.76108 1.04149 0
M  V30 32524 H 3027.71 -4.07288 0.240854 0
M  V30 32525 H 3026.39 -3.92221 1.38331 0
M  V30 32526 H 3024.96 -3.70354 -0.43505 0
M  V30 32527 N 3027.15 -0.516835 -1.48884 0
M  V30 32528 C 3028.37 0.0204836 -2.0739 0
M  V30 32529 C 3028.8 1.28612 -1.37261 0
M  V30 32530 O 3028.16 1.76021 -0.434335 0
M  V30 32531 C 3028.2 0.240977 -3.59794 0
M  V30 32532 O 3027.31 1.31244 -3.90959 0
M  V30 32533 H 3026.65 -0.033268 -0.663166 0
M  V30 32534 H 3029.18 -0.720989 -1.91476 0
M  V30 32535 H 3029.19 0.467666 -4.05311 0
M  V30 32536 H 3027.86 -0.683632 -4.10243 0
M  V30 32537 H 3026.44 1.06945 -3.57236 0
M  V30 32538 N 3028.63 1.55583 -0.251365 0
M  V30 32539 C 3029.58 2.18229 0.660313 0
M  V30 32540 C 3030.56 1.13953 1.13594 0
M  V30 32541 O 3031.75 1.39848 1.08497 0
M  V30 32542 C 3028.88 2.88873 1.85493 0
M  V30 32543 C 3027.97 4.0041 1.39759 0
M  V30 32544 N 3028.36 5.01544 0.654788 0
M  V30 32545 C 3026.66 4.13047 1.68251 0
M  V30 32546 C 3027.36 5.802 0.417419 0
M  V30 32547 N 3026.33 5.34639 0.982938 0
M  V30 32548 H 3030.14 2.93778 0.0846909 0
M  V30 32549 H 3027.65 1.62311 -0.0538741 0
M  V30 32550 H 3029.65 3.32185 2.5191 0
M  V30 32551 H 3028.31 2.14828 2.43473 0
M  V30 32552 H 3029.32 5.17004 0.304454 0
M  V30 32553 H 3025.99 3.50176 2.27338 0
M  V30 32554 H 3027.38 6.7167 -0.175882 0
M  V30 32555 N 3030.1 -0.0216912 1.57585 0
M  V30 32556 C 3031.05 -1.02803 2.03508 0
M  V30 32557 C 3032.04 -1.31601 0.925739 0
M  V30 32558 O 3033.23 -1.31063 1.18961 0
M  V30 32559 C 3030.36 -2.32688 2.52411 0
M  V30 32560 C 3029.45 -2.06949 3.7018 0
M  V30 32561 N 3029.84 -1.51292 4.82643 0
M  V30 32562 C 3028.13 -2.37198 3.77695 0
M  V30 32563 C 3028.84 -1.41526 5.64221 0
M  V30 32564 N 3027.81 -1.89339 5.0956 0
M  V30 32565 H 3031.61 -0.591848 2.87879 0
M  V30 32566 H 3029.13 -0.227846 1.60794 0
M  V30 32567 H 3031.12 -3.056 2.83574 0
M  V30 32568 H 3029.78 -2.76979 1.69449 0
M  V30 32569 H 3030.8 -1.19463 5.03934 0
M  V30 32570 H 3027.47 -2.84512 3.05547 0
M  V30 32571 H 3028.86 -0.989217 6.64578 0
M  V30 32572 N 3031.58 -1.54832 -0.294093 0
M  V30 32573 C 3032.53 -1.82645 -1.36473 0
M  V30 32574 C 3033.52 -0.68401 -1.45637 0
M  V30 32575 O 3034.71 -0.944827 -1.49673 0
M  V30 32576 C 3031.84 -2.08331 -2.72861 0
M  V30 32577 C 3030.92 -3.28778 -2.67892 0
M  V30 32578 N 3031.32 -4.49176 -2.32539 0
M  V30 32579 C 3029.61 -3.30944 -2.98985 0
M  V30 32580 C 3030.31 -5.31213 -2.37039 0
M  V30 32581 N 3029.29 -4.69102 -2.74671 0
M  V30 32582 H 3033.09 -2.73292 -1.08114 0
M  V30 32583 H 3030.61 -1.54424 -0.50269 0
M  V30 32584 H 3032.6 -2.26406 -3.50066 0
M  V30 32585 H 3031.26 -1.18956 -3.02125 0
M  V30 32586 H 3032.27 -4.75654 -2.04875 0
M  V30 32587 H 3028.95 -2.51697 -3.33099 0
M  V30 32588 H 3030.34 -6.37429 -2.12446 0
M  V30 32589 N 3033.06 0.557619 -1.47405 0
M  V30 32590 C 3034.01 1.66023 -1.5627 0
M  V30 32591 C 3035 1.55277 -0.421637 0
M  V30 32592 O 3036.19 1.63766 -0.671534 0
M  V30 32593 C 3033.32 3.04799 -1.57964 0
M  V30 32594 C 3032.4 3.2075 -2.77453 0
M  V30 32595 N 3032.79 3.06768 -4.02153 0
M  V30 32596 C 3031.09 3.51749 -2.74205 0
M  V30 32597 C 3031.79 3.25398 -4.82173 0
M  V30 32598 N 3030.77 3.51712 -4.14487 0
M  V30 32599 H 3034.57 1.53781 -2.50457 0
M  V30 32600 H 3032.08 0.762363 -1.43394 0
M  V30 32601 H 3034.08 3.83967 -1.62404 0
M  V30 32602 H 3032.74 3.18154 -0.648723 0
M  V30 32603 H 3033.75 2.84104 -4.33019 0
M  V30 32604 H 3030.43 3.71633 -1.9025 0
M  V30 32605 H 3031.82 3.19559 -5.91043 0
M  V30 32606 N 3034.54 1.35531 0.804316 0
M  V30 32607 C 3035.49 1.25178 1.90563 0
M  V30 32608 C 3036.47 0.14654 1.60231 0
M  V30 32609 O 3037.67 0.377973 1.72917 0
M  V30 32610 C 3034.79 1.02829 3.27538 0
M  V30 32611 C 3033.88 2.17755 3.63928 0
M  V30 32612 N 3034.27 3.42993 3.71738 0
M  V30 32613 C 3032.57 2.09191 3.93897 0
M  V30 32614 C 3033.27 4.18581 4.03936 0
M  V30 32615 N 3032.25 3.47362 4.18139 0
M  V30 32616 H 3036.05 2.20063 1.94806 0
M  V30 32617 H 3033.56 1.28036 0.999028 0
M  V30 32618 H 3035.56 0.935012 4.0628 0
M  V30 32619 H 3034.22 0.0883121 3.2458 0
M  V30 32620 H 3035.23 3.77316 3.54758 0
M  V30 32621 H 3031.91 1.23061 3.98951 0
M  V30 32622 H 3033.3 5.26819 4.17027 0
M  V30 32623 N 3036.02 -1.02674 1.19565 0
M  V30 32624 C 3037.43 -1.2837 0.948327 0
M  V30 32625 C 3037.63 -1.97922 -0.378062 0
M  V30 32626 O 3036.69 -2.2684 -1.10906 0
M  V30 32627 C 3038 -2.12869 2.12384 0
M  V30 32628 C 3039.55 -2.2617 2.1637 0
M  V30 32629 C 3040.03 -3.14042 3.33379 0
M  V30 32630 N 3041.52 -3.2163 3.33329 0
M  V30 32631 C 3042.25 -3.89818 4.20511 0
M  V30 32632 N 3041.75 -4.60218 5.17853 0
M  V30 32633 N 3043.54 -3.86239 4.08382 0
M  V30 32634 H 3035.69 -0.559448 2.049 0
M  V30 32635 H 3037.95 -0.309469 0.896065 0
M  V30 32636 H 3037.66 -1.69089 3.08386 0
M  V30 32637 H 3037.53 -3.13587 2.09627 0
M  V30 32638 H 3039.92 -2.6918 1.20938 0
M  V30 32639 H 3040 -1.24996 2.23181 0
M  V30 32640 H 3039.65 -2.7174 4.29092 0
M  V30 32641 H 3039.58 -4.1528 3.23806 0
M  V30 32642 H 3042.07 -2.71494 2.62868 0
M  V30 32643 H 3042.38 -5.09885 5.80721 0
M  V30 32644 H 3040.73 -4.59076 5.21799 0
M  V30 32645 H 3043.92 -3.30381 3.31612 0
M  V30 32646 H 3044.09 -4.39106 4.7654 0
M  V30 32647 N 3037.5 -0.999914 -1.21817 0
M  V30 32648 C 3038.74 -0.68803 -1.92472 0
M  V30 32649 C 3039.1 0.766538 -1.76035 0
M  V30 32650 O 3040.3 1.19017 -2.41016 0
M  V30 32651 C 3038.57 -1.09135 -3.4033 0
M  V30 32652 S 3040.13 -0.898897 -4.29494 0
M  V30 32653 H 3036.95 -0.251341 -0.665093 0
M  V30 32654 H 3039.55 -1.28367 -1.47452 0
M  V30 32655 H 3038.25 -2.14621 -3.49809 0
M  V30 32656 H 3037.79 -0.487793 -3.90364 0
M  V30 32657 H 3039.8 0.206786 -4.95769 0
M  V30 32658 N 3038.97 1.37284 -0.773999 0
M  V30 32659 C 3039.92 2.27598 -0.135285 0
M  V30 32660 C 3040.91 1.4621 0.671666 0
M  V30 32661 O 3042.1 1.68744 0.534269 0
M  V30 32662 C 3039.23 3.35202 0.741239 0
M  V30 32663 C 3038.31 4.24036 -0.0736642 0
M  V30 32664 N 3038.71 4.93234 -1.12044 0
M  V30 32665 C 3037 4.45748 0.14996 0
M  V30 32666 C 3037.7 5.58825 -1.61522 0
M  V30 32667 N 3036.68 5.35637 -0.927016 0
M  V30 32668 H 3040.48 2.78574 -0.936695 0
M  V30 32669 H 3038 1.50428 -0.61197 0
M  V30 32670 H 3039.99 3.98814 1.21461 0
M  V30 32671 H 3038.65 2.85783 1.54137 0
M  V30 32672 H 3039.66 4.95623 -1.50262 0
M  V30 32673 H 3036.34 4.07196 0.921819 0
M  V30 32674 H 3037.73 6.24127 -2.48829 0
M  V30 32675 N 3040.45 0.524724 1.48608 0
M  V30 32676 C 3041.87 0.182227 1.58556 0
M  V30 32677 C 3042.07 -1.31432 1.52735 0
M  V30 32678 O 3041.12 -2.09217 1.41366 0
M  V30 32679 C 3042.44 0.780091 2.90405 0
M  V30 32680 C 3043.98 0.748346 3.03922 0
M  V30 32681 C 3044.46 1.32469 4.38424 0
M  V30 32682 N 3045.95 1.28643 4.44978 0
M  V30 32683 C 3046.69 1.70233 5.47548 0
M  V30 32684 N 3046.18 2.19527 6.571 0
M  V30 32685 N 3047.97 1.61502 5.38399 0
M  V30 32686 H 3040.13 1.49743 1.50635 0
M  V30 32687 H 3042.39 0.622546 0.714941 0
M  V30 32688 H 3042.09 1.83057 3.00305 0
M  V30 32689 H 3041.97 0.254141 3.76343 0
M  V30 32690 H 3044.36 -0.293355 2.93638 0
M  V30 32691 H 3044.44 1.31171 2.19609 0
M  V30 32692 H 3044.08 2.3653 4.49462 0
M  V30 32693 H 3044.01 0.737059 5.21416 0
M  V30 32694 H 3046.5 0.925514 3.66391 0
M  V30 32695 H 3046.81 2.4927 7.31495 0
M  V30 32696 H 3045.16 2.23517 6.58077 0
M  V30 32697 H 3048.35 1.22792 4.51707 0
M  V30 32698 H 3048.52 1.94236 6.18204 0
M  V30 32699 N 3041.93 -1.55447 0.259613 0
M  V30 32700 C 3043.35 -1.59317 -0.094933 0
M  V30 32701 C 3043.55 -1.27683 -1.55882 0
M  V30 32702 O 3042.6 -1.03024 -2.30526 0
M  V30 32703 C 3043.91 -2.99524 0.265721 0
M  V30 32704 C 3045.46 -3.12288 0.211062 0
M  V30 32705 C 3045.94 -4.54735 0.545931 0
M  V30 32706 N 3047.43 -4.60527 0.496903 0
M  V30 32707 C 3048.16 -5.68747 0.729009 0
M  V30 32708 N 3047.66 -6.85177 1.02491 0
M  V30 32709 N 3049.45 -5.58225 0.658854 0
M  V30 32710 H 3041.6 -1.74278 1.21413 0
M  V30 32711 H 3043.87 -0.811895 0.489418 0
M  V30 32712 H 3043.57 -3.27455 1.28321 0
M  V30 32713 H 3043.45 -3.75062 -0.401023 0
M  V30 32714 H 3045.83 -2.8413 -0.797122 0
M  V30 32715 H 3045.91 -2.38996 0.911841 0
M  V30 32716 H 3045.56 -4.83615 1.55173 0
M  V30 32717 H 3045.49 -5.26304 -0.176467 0
M  V30 32718 H 3047.98 -3.7688 0.277443 0
M  V30 32719 H 3048.29 -7.63597 1.1891 0
M  V30 32720 H 3046.64 -6.8683 1.06252 0
M  V30 32721 H 3049.83 -4.66143 0.427635 0
M  V30 32722 H 3050 -6.42491 0.843133 0
M  V30 32723 N 3043.41 0.0133338 -1.57594 0
M  V30 32724 C 3044.82 0.369228 -1.5527 0
M  V30 32725 C 3045.02 1.75628 -0.987782 0
M  V30 32726 O 3044.08 2.44878 -0.615726 0
M  V30 32727 C 3045.39 0.256667 -2.99603 0
M  V30 32728 C 3046.94 0.332593 -3.11228 0
M  V30 32729 C 3047.42 0.249306 -4.57321 0
M  V30 32730 N 3048.91 0.307619 -4.62177 0
M  V30 32731 C 3049.64 0.266309 -5.72781 0
M  V30 32732 N 3049.14 0.176372 -6.92575 0
M  V30 32733 N 3050.93 0.317197 -5.61204 0
M  V30 32734 H 3043.08 -0.894188 -1.9266 0
M  V30 32735 H 3045.34 -0.34152 -0.884346 0
M  V30 32736 H 3045.05 -0.697132 -3.44722 0
M  V30 32737 H 3044.92 1.04408 -3.62462 0
M  V30 32738 H 3047.31 1.27683 -2.66047 0
M  V30 32739 H 3047.39 -0.484456 -2.51171 0
M  V30 32740 H 3047.04 -0.691331 -5.03173 0
M  V30 32741 H 3046.97 1.08467 -5.15308 0
M  V30 32742 H 3049.46 0.379002 -3.75995 0
M  V30 32743 H 3049.77 0.150382 -7.72654 0
M  V30 32744 H 3048.12 0.142191 -6.94855 0
M  V30 32745 H 3051.31 0.385561 -4.66509 0
M  V30 32746 H 3051.48 0.281536 -6.47388 0
M  V30 32747 N 3044.89 1.54985 0.285878 0
M  V30 32748 C 3046.16 1.65681 1.03967 0
M  V30 32749 C 3046.54 0.514887 2.04725 0
M  V30 32750 O 3045.89 -0.486624 2.23258 0
M  V30 32751 C 3046.1 3.04348 1.70801 0
M  V30 32752 C 3047.45 3.6167 2.22441 0
M  V30 32753 O 3048.47 3.06898 1.80809 0
M  V30 32754 O 3047.33 4.57604 2.98765 0
M  V30 32755 H 3044.43 0.672402 0.481461 0
M  V30 32756 H 3046.97 1.67328 0.28276 0
M  V30 32757 H 3045.74 3.78902 0.977204 0
M  V30 32758 H 3045.37 3.06545 2.53211 0
M  V30 32759 N 3046.36 -0.549794 1.47699 0
M  V30 32760 C 3047.78 -0.876445 1.33381 0
M  V30 32761 C 3047.98 -1.98782 0.329872 0
M  V30 32762 O 3047.04 -2.51199 -0.255977 0
M  V30 32763 C 3048.35 -1.26267 2.72905 0
M  V30 32764 C 3049.9 -1.37368 2.81245 0
M  V30 32765 C 3050.37 -1.79344 4.21426 0
M  V30 32766 N 3051.86 -1.86481 4.24004 0
M  V30 32767 C 3052.6 -2.20304 5.2939 0
M  V30 32768 N 3052.09 -2.52688 6.45074 0
M  V30 32769 N 3053.89 -2.21141 5.16772 0
M  V30 32770 H 3046.04 0.183819 2.11603 0
M  V30 32771 H 3048.3 0.0195767 0.947798 0
M  V30 32772 H 3048.01 -0.519828 3.47837 0
M  V30 32773 H 3047.88 -2.21722 3.05155 0
M  V30 32774 H 3050.27 -2.10733 2.06581 0
M  V30 32775 H 3050.35 -0.400837 2.5264 0
M  V30 32776 H 3049.99 -1.06546 4.96599 0
M  V30 32777 H 3049.92 -2.77644 4.47461 0
M  V30 32778 H 3052.41 -1.63811 3.4055 0
M  V30 32779 H 3052.73 -2.77545 7.21241 0
M  V30 32780 H 3051.07 -2.50252 6.48382 0
M  V30 32781 H 3054.26 -1.95285 4.25419 0
M  V30 32782 H 3054.44 -2.4717 5.99008 0
M  V30 32783 N 3047.84 -1.35955 -0.797117 0
M  V30 32784 C 3048.79 -1.29653 -1.90942 0
M  V30 32785 C 3049.76 -0.166657 -1.65262 0
M  V30 32786 O 3050.94 -0.351916 -1.87526 0
M  V30 32787 C 3048.08 -1.08395 -3.27635 0
M  V30 32788 C 3047.2 -2.30388 -3.65438 0
M  V30 32789 C 3046.33 -2.02204 -4.9121 0
M  V30 32790 C 3045.37 -3.202 -5.21669 0
M  V30 32791 N 3044.51 -2.9173 -6.38622 0
M  V30 32792 H 3049.35 -2.24765 -1.95664 0
M  V30 32793 H 3046.89 -1.11719 -0.95694 0
M  V30 32794 H 3048.84 -0.940983 -4.0645 0
M  V30 32795 H 3047.47 -0.169407 -3.22355 0
M  V30 32796 H 3046.53 -2.55516 -2.81808 0
M  V30 32797 H 3047.84 -3.18467 -3.83901 0
M  V30 32798 H 3046.99 -1.84793 -5.77872 0
M  V30 32799 H 3045.73 -1.11424 -4.74801 0
M  V30 32800 H 3044.74 -3.38178 -4.33492 0
M  V30 32801 H 3045.96 -4.11795 -5.40001 0
M  V30 32802 H 3043.91 -2.03554 -6.2362 0
M  V30 32803 H 3043.82 -3.73346 -6.5738 0
M  V30 32804 H 3045.09 -2.77881 -7.28287 0
M  V30 32805 N 3049.32 1.02038 -1.20108 0
M  V30 32806 C 3050.25 2.10608 -0.904273 0
M  V30 32807 C 3051.27 1.62452 0.106459 0
M  V30 32808 O 3052.45 1.78068 -0.124066 0
M  V30 32809 C 3049.55 3.37255 -0.333483 0
M  V30 32810 C 3048.73 4.14564 -1.39484 0
M  V30 32811 C 3047.79 5.19516 -0.836052 0
M  V30 32812 O 3046.81 5.48645 -1.51583 0
M  V30 32813 N 3048.01 5.79405 0.356429 0
M  V30 32814 H 3050.78 2.36658 -1.83884 0
M  V30 32815 H 3048.34 1.18398 -1.10424 0
M  V30 32816 H 3050.33 4.04663 0.0543859 0
M  V30 32817 H 3048.9 3.08485 0.505554 0
M  V30 32818 H 3048.12 3.4218 -1.9572 0
M  V30 32819 H 3049.41 4.62998 -2.10975 0
M  V30 32820 H 3048.81 5.58069 0.926045 0
M  V30 32821 H 3047.37 6.4818 0.685979 0
M  V30 32822 N 3050.8 1.00636 1.21285 0
M  V30 32823 C 3052.21 0.719414 1.42466 0
M  V30 32824 C 3052.41 -0.704894 1.88768 0
M  V30 32825 O 3051.47 -1.47406 2.05007 0
M  V30 32826 C 3052.78 1.73643 2.45497 0
M  V30 32827 C 3054.33 1.7534 2.59278 0
M  V30 32828 C 3054.81 2.7594 3.65542 0
M  V30 32829 N 3056.3 2.74617 3.73014 0
M  V30 32830 C 3057.03 3.49118 4.54867 0
M  V30 32831 N 3056.53 4.33263 5.40606 0
M  V30 32832 N 3058.32 3.37762 4.49303 0
M  V30 32833 H 3050.47 1.92603 0.89542 0
M  V30 32834 H 3052.74 0.831412 0.455476 0
M  V30 32835 H 3052.44 2.75631 2.1845 0
M  V30 32836 H 3052.32 1.5402 3.44322 0
M  V30 32837 H 3054.7 0.740427 2.8566 0
M  V30 32838 H 3054.78 1.99035 1.60682 0
M  V30 32839 H 3054.43 3.77395 3.39905 0
M  V30 32840 H 3054.36 2.49511 4.63737 0
M  V30 32841 H 3056.85 2.13571 3.11763 0
M  V30 32842 H 3057.16 4.86902 6.00121 0
M  V30 32843 H 3055.51 4.37345 5.40143 0
M  V30 32844 H 3058.7 2.71456 3.81352 0
M  V30 32845 H 3058.87 3.96079 5.1286 0
M  V30 32846 N 3052.28 -1.36872 0.781268 0
M  V30 32847 C 3053.5 -2.04244 0.360434 0
M  V30 32848 C 3053.93 -1.58531 -1.0124 0
M  V30 32849 O 3053.28 -0.749965 -1.65061 0
M  V30 32850 C 3053.33 -3.58106 0.423353 0
M  V30 32851 O 3052.44 -4.08404 -0.572725 0
M  V30 32852 H 3051.78 -0.6458 0.154397 0
M  V30 32853 H 3054.31 -1.74994 1.06011 0
M  V30 32854 H 3054.32 -4.0701 0.284039 0
M  V30 32855 H 3052.99 -3.90732 1.42484 0
M  V30 32856 H 3051.57 -3.70794 -0.395744 0
M  V30 32857 N 3053.75 -0.532597 -1.48328 0
M  V30 32858 C 3054.68 0.21747 -2.32485 0
M  V30 32859 C 3055.67 0.932573 -1.42257 0
M  V30 32860 O 3056.85 0.917843 -1.71141 0
M  V30 32861 C 3053.98 1.26324 -3.23511 0
M  V30 32862 C 3052.93 0.666117 -4.22785 0
M  V30 32863 C 3052.26 1.81473 -5.02963 0
M  V30 32864 C 3053.56 -0.363905 -5.21031 0
M  V30 32865 H 3055.25 -0.485066 -2.95445 0
M  V30 32866 H 3052.8 -0.234719 -1.42074 0
M  V30 32867 H 3054.75 1.79594 -3.81214 0
M  V30 32868 H 3053.48 1.99539 -2.58557 0
M  V30 32869 H 3052.14 0.154916 -3.66273 0
M  V30 32870 H 3051.78 2.53532 -4.34431 0
M  V30 32871 H 3051.48 1.4211 -5.70157 0
M  V30 32872 H 3053.01 2.35116 -5.63518 0
M  V30 32873 H 3054.42 0.0818072 -5.73242 0
M  V30 32874 H 3052.82 -0.675061 -5.96291 0
M  V30 32875 H 3053.89 -1.26873 -4.68008 0
M  V30 32876 N 3055.23 1.55307 -0.267853 0
M  V30 32877 C 3056.14 2.25898 0.633015 0
M  V30 32878 C 3057.16 1.28233 1.1761 0
M  V30 32879 O 3058.33 1.61155 1.20794 0
M  V30 32880 C 3055.4 2.96074 1.80391 0
M  V30 32881 C 3054.46 4.092 1.29822 0
M  V30 32882 C 3053.69 4.7602 2.41331 0
M  V30 32883 O 3053.92 4.42012 3.60529 0
M  V30 32884 O 3052.85 5.64115 2.09899 0
M  V30 32885 H 3056.68 3.03638 0.0613848 0
M  V30 32886 H 3054.26 1.49358 -0.0355334 0
M  V30 32887 H 3056.14 3.40201 2.48679 0
M  V30 32888 H 3054.82 2.21257 2.36277 0
M  V30 32889 H 3053.73 3.69545 0.582021 0
M  V30 32890 H 3055.06 4.85897 0.785202 0
M  V30 32891 N 3056.71 -0.00497598 1.57599 0
M  V30 32892 C 3057.66 -0.997989 2.08108 0
M  V30 32893 C 3058.63 -1.34444 0.975398 0
M  V30 32894 O 3059.81 -1.44367 1.24751 0
M  V30 32895 C 3056.95 -2.2863 2.585 0
M  V30 32896 C 3056.07 -1.99932 3.82951 0
M  V30 32897 C 3055.2 -3.22809 4.21863 0
M  V30 32898 C 3054.24 -2.89774 5.39164 0
M  V30 32899 N 3053.38 -4.05173 5.73393 0
M  V30 32900 H 3058.22 -0.560333 2.92685 0
M  V30 32901 H 3055.75 -0.265027 1.44693 0
M  V30 32902 H 3057.71 -3.03938 2.85793 0
M  V30 32903 H 3056.34 -2.70074 1.76805 0
M  V30 32904 H 3055.39 -1.15014 3.62596 0
M  V30 32905 H 3056.71 -1.7158 4.68361 0
M  V30 32906 H 3055.86 -4.06466 4.50411 0
M  V30 32907 H 3054.6 -3.54295 3.35151 0
M  V30 32908 H 3053.6 -2.04523 5.10343 0
M  V30 32909 H 3054.83 -2.5954 6.27547 0
M  V30 32910 H 3052.77 -4.36565 4.8964 0
M  V30 32911 H 3052.69 -3.80327 6.53366 0
M  V30 32912 H 3053.96 -4.89633 6.06531 0
M  V30 32913 N 3058.19 -1.55135 -0.277654 0
M  V30 32914 C 3059.44 -1.75175 -1.00788 0
M  V30 32915 C 3059.76 -0.553299 -1.86986 0
M  V30 32916 O 3059.03 0.431917 -1.91079 0
M  V30 32917 H 3057.61 -0.645984 -0.375118 0
M  V30 32918 H 3060.27 -1.9253 -0.303007 0
M  V30 32919 H 3059.37 -2.65073 -1.64751 0
M  V30 32920 N 3059.67 0.541953 -1.47989 0
M  V30 32921 C 3061.08 1.124 -1.49075 0
M  V30 32922 C 3061.43 1.94551 -0.253859 0
M  V30 32923 O 3060.55 2.06719 0.640019 0
M  V30 32924 C 3061.15 2.04509 -2.70114 0
M  V30 32925 C 3059.71 2.57955 -2.7411 0
M  V30 32926 C 3058.85 1.34656 -2.42411 0
M  V30 32927 H 3061.81 0.32779 -1.55278 0
M  V30 32928 H 3061.83 2.88618 -2.47951 0
M  V30 32929 H 3061.34 1.44691 -3.6012 0
M  V30 32930 H 3059.44 3.21529 -1.88282 0
M  V30 32931 H 3059.55 2.97907 -3.75218 0
M  V30 32932 H 3057.92 1.65837 -1.93313 0
M  V30 32933 H 3058.7 0.766074 -3.34643 0
M  V30 32934 N 3061.15 1.36376 0.789896 0
M  V30 32935 C 3062.37 1.33897 1.58386 0
M  V30 32936 C 3062.8 -0.0774603 1.8794 0
M  V30 32937 O 3062.15 -1.04927 1.47851 0
M  V30 32938 C 3062.2 2.16737 2.88197 0
M  V30 32939 O 3061.31 1.55953 3.81775 0
M  V30 32940 H 3060.65 0.458313 0.480463 0
M  V30 32941 H 3063.18 1.79653 0.979088 0
M  V30 32942 H 3063.19 2.29298 3.37471 0
M  V30 32943 H 3061.86 3.19703 2.66013 0
M  V30 32944 H 3060.44 1.52329 3.40368 0
M  V30 32945 N 3062.62 -1.014 1.20647 0
M  V30 32946 C 3063.55 -2.11866 0.981588 0
M  V30 32947 C 3064.53 -1.6986 -0.0903413 0
M  V30 32948 O 3065.72 -1.94082 0.0676927 0
M  V30 32949 C 3062.85 -3.43144 0.535696 0
M  V30 32950 C 3061.8 -3.98902 1.55116 0
M  V30 32951 C 3061.13 -5.25978 0.961817 0
M  V30 32952 C 3062.43 -4.31995 2.9356 0
M  V30 32953 H 3064.12 -2.30937 1.90548 0
M  V30 32954 H 3061.67 -1.1098 0.917573 0
M  V30 32955 H 3063.62 -4.19811 0.365586 0
M  V30 32956 H 3062.35 -3.23838 -0.423825 0
M  V30 32957 H 3061.01 -3.24345 1.70868 0
M  V30 32958 H 3060.65 -5.03 -0.00571266 0
M  V30 32959 H 3060.35 -5.64249 1.64003 0
M  V30 32960 H 3061.88 -6.05299 0.802832 0
M  V30 32961 H 3063.29 -4.99541 2.81304 0
M  V30 32962 H 3061.69 -4.81386 3.58312 0
M  V30 32963 H 3062.76 -3.40652 3.45086 0
M  V30 32964 N 3064.1 -1.01278 -1.2075 0
M  V30 32965 C 3065.33 -0.718803 -1.94546 0
M  V30 32966 C 3065.75 0.713532 -1.74041 0
M  V30 32967 O 3065.11 1.49046 -1.03223 0
M  V30 32968 C 3065.16 -1.05503 -3.44821 0
M  V30 32969 O 3064.26 -0.164589 -4.12071 0
M  V30 32970 H 3063.6 -0.267062 -0.607926 0
M  V30 32971 H 3066.13 -1.35512 -1.53289 0
M  V30 32972 H 3066.14 -1.00514 -3.95425 0
M  V30 32973 H 3064.82 -2.09864 -3.59068 0
M  V30 32974 H 3063.39 -0.27168 -3.71909 0
M  V30 32975 N 3065.58 1.36456 -0.788516 0
M  V30 32976 C 3066.54 2.28392 -0.192249 0
M  V30 32977 C 3067.54 1.48785 0.60989 0
M  V30 32978 O 3068.73 1.68784 0.431017 0
M  V30 32979 C 3065.86 3.32903 0.734038 0
M  V30 32980 H 3067.06 2.82634 -1.00289 0
M  V30 32981 H 3064.61 1.46005 -0.557878 0
M  V30 32982 H 3065.35 2.83815 1.56905 0
M  V30 32983 H 3065.13 3.9177 0.160806 0
M  V30 32984 H 3066.62 4.01564 1.14612 0
M  V30 32985 N 3067.06 0.540456 1.48043 0
M  V30 32986 C 3068.33 -0.0546958 1.95524 0
M  V30 32987 C 3068.71 -1.50248 1.48287 0
M  V30 32988 O 3068.06 -2.17056 0.714075 0
M  V30 32989 C 3068.27 0.0734007 3.48923 0
M  V30 32990 C 3069.62 -0.0805279 4.24524 0
M  V30 32991 O 3070.64 0.00011848 3.562 0
M  V30 32992 O 3069.5 -0.25112 5.45923 0
M  V30 32993 H 3066.6 -0.0734785 0.823729 0
M  V30 32994 H 3069.14 0.605796 1.58519 0
M  V30 32995 H 3067.92 1.0815 3.76057 0
M  V30 32996 H 3067.54 -0.625467 3.9265 0
M  V30 32997 N 3068.54 -1.55163 0.276085 0
M  V30 32998 C 3069.47 -2.18677 -0.652347 0
M  V30 32999 C 3070.45 -1.14802 -1.15149 0
M  V30 33000 O 3071.63 -1.4333 -1.22428 0
M  V30 33001 C 3068.76 -2.81079 -1.88977 0
M  V30 33002 C 3067.8 -3.98265 -1.52602 0
M  V30 33003 S 3068.64 -5.3209 -0.603351 0
M  V30 33004 C 3069.79 -5.97962 -1.84913 0
M  V30 33005 H 3070.03 -2.97086 -0.112681 0
M  V30 33006 H 3067.56 -1.54282 0.060339 0
M  V30 33007 H 3069.52 -3.17662 -2.60002 0
M  V30 33008 H 3068.18 -2.02562 -2.40058 0
M  V30 33009 H 3067.37 -4.40621 -2.44681 0
M  V30 33010 H 3066.97 -3.6311 -0.895946 0
M  V30 33011 H 3069.26 -6.17254 -2.79292 0
M  V30 33012 H 3070.21 -6.92704 -1.46856 0
M  V30 33013 H 3070.62 -5.27331 -2.01451 0
M  V30 33014 N 3070.01 -0.00338196 -1.576 0
M  V30 33015 C 3071.29 0.717983 -1.81946 0
M  V30 33016 C 3071.67 1.918 -0.881822 0
M  V30 33017 O 3071.02 2.28397 0.0686716 0
M  V30 33018 C 3071.23 1.12052 -3.30523 0
M  V30 33019 C 3072.58 1.52296 -3.96347 0
M  V30 33020 O 3073.6 1.21422 -3.34866 0
M  V30 33021 O 3072.46 2.0972 -5.04658 0
M  V30 33022 H 3069.55 0.349896 -0.749334 0
M  V30 33023 H 3072.1 -0.0290952 -1.69675 0
M  V30 33024 H 3070.87 0.265309 -3.904 0
M  V30 33025 H 3070.49 1.92659 -3.47805 0
M  V30 33026 N 3071.49 1.5528 0.269423 0
M  V30 33027 C 3072.74 1.75707 0.998573 0
M  V30 33028 C 3073.06 0.563207 1.8669 0
M  V30 33029 O 3072.33 -0.421777 1.91306 0
M  V30 33030 H 3070.91 0.647965 0.371686 0
M  V30 33031 H 3073.57 1.92688 0.292792 0
M  V30 33032 H 3072.67 2.65943 1.63343 0
M  V30 33033 N 3072.97 -0.534097 1.48274 0
M  V30 33034 C 3073.93 -1.62124 1.62013 0
M  V30 33035 C 3074.93 -1.53034 0.49368 0
M  V30 33036 O 3076.12 -1.56778 0.759364 0
M  V30 33037 C 3073.25 -3.01736 1.58645 0
M  V30 33038 H 3074.45 -1.51284 2.58946 0
M  V30 33039 H 3072 -0.755837 1.36809 0
M  V30 33040 H 3072.74 -3.18087 0.631741 0
M  V30 33041 H 3072.52 -3.09743 2.4042 0
M  V30 33042 H 3074.01 -3.80784 1.71445 0
M  V30 33043 N 3074.45 -1.36793 -0.782652 0
M  V30 33044 C 3075.86 -1.28094 -1.35826 0
M  V30 33045 C 3076.21 0.0762806 -1.96052 0
M  V30 33046 O 3075.33 0.977901 -1.93044 0
M  V30 33047 C 3075.93 -2.31956 -2.46945 0
M  V30 33048 C 3074.49 -2.26926 -3.00303 0
M  V30 33049 C 3073.64 -2.16371 -1.73432 0
M  V30 33050 H 3076.59 -1.47573 -0.583762 0
M  V30 33051 H 3076.61 -1.95991 -3.26141 0
M  V30 33052 H 3076.12 -3.30726 -2.03082 0
M  V30 33053 H 3074.22 -1.31645 -3.48569 0
M  V30 33054 H 3074.33 -3.19894 -3.56658 0
M  V30 33055 H 3072.7 -1.62736 -1.95931 0
M  V30 33056 H 3073.48 -3.17038 -1.31688 0
M  V30 33057 N 3075.93 1.00759 -1.21184 0
M  V30 33058 C 3077.15 1.78613 -1.05414 0
M  V30 33059 C 3077.58 1.83974 0.391805 0
M  V30 33060 O 3076.93 1.28143 1.28254 0
M  V30 33061 C 3076.98 3.20486 -1.65291 0
M  V30 33062 O 3076.09 4.02535 -0.896628 0
M  V30 33063 H 3075.43 0.550572 -0.37117 0
M  V30 33064 H 3077.96 1.26673 -1.60671 0
M  V30 33065 H 3077.97 3.71169 -1.69403 0
M  V30 33066 H 3076.64 3.15899 -2.70519 0
M  V30 33067 H 3075.22 3.61107 -0.930399 0
M  V30 33068 N 3077.4 1.01917 1.20211 0
M  V30 33069 C 3078.63 0.72911 1.94162 0
M  V30 33070 C 3079.05 -0.704293 1.74417 0
M  V30 33071 O 3078.41 -1.48496 1.04012 0
M  V30 33072 C 3078.46 1.0733 3.44256 0
M  V30 33073 O 3077.56 0.18644 4.11978 0
M  V30 33074 H 3076.91 0.270282 0.606501 0
M  V30 33075 H 3079.44 1.36323 1.52569 0
M  V30 33076 H 3079.45 1.0261 3.94886 0
M  V30 33077 H 3078.12 2.11765 3.5795 0
M  V30 33078 H 3076.7 0.291399 3.7176 0
M  V30 33079 N 3078.88 -1.36036 0.795742 0
M  V30 33080 C 3079.85 -2.28287 0.204358 0
M  V30 33081 C 3080.85 -1.49106 -0.601991 0
M  V30 33082 O 3082.04 -1.6901 -0.42206 0
M  V30 33083 C 3079.17 -3.33288 -0.716373 0
M  V30 33084 H 3080.36 -2.82098 1.01786 0
M  V30 33085 H 3077.91 -1.45707 0.565613 0
M  V30 33086 H 3078.65 -2.84644 -1.55398 0
M  V30 33087 H 3078.43 -3.9185 -0.140028 0
M  V30 33088 H 3079.92 -4.02166 -1.12481 0
M  V30 33089 N 3080.36 -0.5483 -1.47755 0
M  V30 33090 C 3081.61 -0.0209621 -2.02789 0
M  V30 33091 C 3081.94 1.32184 -1.42271 0
M  V30 33092 O 3081.21 1.85805 -0.575034 0
M  V30 33093 C 3081.5 0.0816042 -3.60008 0
M  V30 33094 C 3081.35 -1.28766 -4.30975 0
M  V30 33095 C 3082.67 0.799439 -4.32778 0
M  V30 33096 H 3079.79 -0.00909179 -0.736944 0
M  V30 33097 H 3082.43 -0.70887 -1.76281 0
M  V30 33098 H 3080.58 0.66747 -3.82723 0
M  V30 33099 H 3082.25 -1.91605 -4.19625 0
M  V30 33100 H 3080.5 -1.86473 -3.91676 0
M  V30 33101 H 3081.17 -1.16871 -5.39486 0
M  V30 33102 H 3083.64 0.302087 -4.15002 0
M  V30 33103 H 3082.52 0.840143 -5.42432 0
M  V30 33104 H 3082.78 1.85368 -4.01361 0
M  V30 33105 N 3081.84 1.55014 -0.28431 0
M  V30 33106 C 3083.09 1.99401 0.329177 0
M  V30 33107 C 3083.41 1.17419 1.55685 0
M  V30 33108 O 3082.68 0.265971 1.94086 0
M  V30 33109 H 3081.26 0.736532 0.124617 0
M  V30 33110 H 3083.92 1.90922 -0.391776 0
M  V30 33111 H 3083.02 3.06026 0.612726 0
M  V30 33112 N 3083.32 0.0117398 1.57596 0
M  V30 33113 C 3084.73 -0.52949 1.79034 0
M  V30 33114 C 3085.08 -1.73275 0.920329 0
M  V30 33115 O 3084.2 -2.16033 0.125972 0
M  V30 33116 C 3084.8 -0.967348 3.24697 0
M  V30 33117 C 3083.36 -1.4538 3.47191 0
M  V30 33118 C 3082.5 -0.410418 2.74246 0
M  V30 33119 H 3085.46 0.237863 1.56907 0
M  V30 33120 H 3085.48 -1.83273 3.33454 0
M  V30 33121 H 3084.99 -0.0913923 3.87992 0
M  V30 33122 H 3083.09 -2.35027 2.89125 0
M  V30 33123 H 3083.2 -1.47317 4.55889 0
M  V30 33124 H 3081.57 -0.874678 2.3921 0
M  V30 33125 H 3082.35 0.456772 3.40248 0
M  V30 33126 N 3084.79 -1.55421 -0.261185 0
M  V30 33127 C 3086.04 -1.76234 -0.989241 0
M  V30 33128 C 3086.36 -0.5731 -1.86388 0
M  V30 33129 O 3085.63 0.411626 -1.91527 0
M  V30 33130 H 3084.21 -0.649927 -0.368245 0
M  V30 33131 H 3086.88 -1.92841 -0.282569 0
M  V30 33132 H 3085.97 -2.66805 -1.6193 0
M  V30 33133 N 3086.27 0.526227 -1.48555 0
M  V30 33134 C 3087.2 1.63956 -1.66255 0
M  V30 33135 C 3088.18 1.62231 -0.51138 0
M  V30 33136 O 3089.37 1.79368 -0.744354 0
M  V30 33137 C 3086.5 3.02533 -1.70561 0
M  V30 33138 C 3085.45 3.19118 -2.85215 0
M  V30 33139 C 3084.78 4.58793 -2.74614 0
M  V30 33140 C 3086.08 3.01532 -4.26469 0
M  V30 33141 H 3087.77 1.49399 -2.59462 0
M  V30 33142 H 3085.32 0.717304 -1.24863 0
M  V30 33143 H 3087.27 3.80295 -1.81531 0
M  V30 33144 H 3086 3.18121 -0.739353 0
M  V30 33145 H 3084.65 2.43774 -2.73806 0
M  V30 33146 H 3084.3 4.71223 -1.7595 0
M  V30 33147 H 3084 4.70834 -3.51552 0
M  V30 33148 H 3085.53 5.38649 -2.87557 0
M  V30 33149 H 3086.94 3.69084 -4.38691 0
M  V30 33150 H 3085.34 3.25064 -5.04434 0
M  V30 33151 H 3086.41 1.97917 -4.4267 0
M  V30 33152 N 3087.75 1.37206 0.775387 0
M  V30 33153 C 3089.16 1.28813 1.35145 0
M  V30 33154 C 3089.51 -0.0658824 1.96089 0
M  V30 33155 O 3088.64 -0.96765 1.9356 0
M  V30 33156 C 3089.23 2.33263 2.45711 0
M  V30 33157 C 3087.79 2.28515 2.99095 0
M  V30 33158 C 3086.94 2.17288 1.72282 0
M  V30 33159 H 3089.89 1.47881 0.575928 0
M  V30 33160 H 3089.91 1.97718 3.25097 0
M  V30 33161 H 3089.42 3.31798 2.01325 0
M  V30 33162 H 3087.52 1.33491 3.47866 0
M  V30 33163 H 3087.64 3.21781 3.54956 0
M  V30 33164 H 3086 1.63773 1.95065 0
M  V30 33165 H 3086.78 3.17732 1.30005 0
M  V30 33166 N 3089.23 -1.00115 1.21716 0
M  V30 33167 C 3090.64 -1.55399 1.0348 0
M  V30 33168 C 3090.99 -1.9199 -0.404256 0
M  V30 33169 O 3090.12 -1.73892 -1.28804 0
M  V30 33170 C 3090.71 -2.82374 1.87218 0
M  V30 33171 C 3089.27 -3.3413 1.73303 0
M  V30 33172 C 3088.42 -2.07288 1.84193 0
M  V30 33173 H 3091.37 -0.823171 1.35682 0
M  V30 33174 H 3091.39 -3.5441 1.38471 0
M  V30 33175 H 3090.9 -2.5571 2.91948 0
M  V30 33176 H 3089 -3.6572 0.712727 0
M  V30 33177 H 3089.11 -4.0529 2.55493 0
M  V30 33178 H 3087.48 -2.20466 1.27542 0
M  V30 33179 H 3088.26 -1.83032 2.90438 0
M  V30 33180 N 3090.71 -1.02553 -1.19669 0
M  V30 33181 C 3091.96 -0.718613 -1.88892 0
M  V30 33182 C 3092.28 0.754824 -1.79798 0
M  V30 33183 O 3091.55 1.54359 -1.20623 0
M  V30 33184 H 3090.13 -0.262818 -0.699239 0
M  V30 33185 H 3092.79 -1.29904 -1.45296 0
M  V30 33186 H 3091.88 -1.00994 -2.95308 0
M  V30 33187 N 3092.19 1.35612 -0.802945 0
M  V30 33188 C 3093.1 2.33638 -0.212218 0
M  V30 33189 C 3094.11 1.6169 0.642842 0
M  V30 33190 O 3095.29 1.93589 0.555451 0
M  V30 33191 C 3092.35 3.40885 0.632346 0
M  V30 33192 C 3091.41 4.28613 -0.242783 0
M  V30 33193 C 3090.65 5.30737 0.561567 0
M  V30 33194 O 3090.87 5.41369 1.79654 0
M  V30 33195 O 3089.8 6.01883 -0.0456445 0
M  V30 33196 H 3093.63 2.8595 -1.02305 0
M  V30 33197 H 3091.21 1.38318 -0.564661 0
M  V30 33198 H 3093.1 4.06422 1.11351 0
M  V30 33199 H 3091.77 2.9085 1.42084 0
M  V30 33200 H 3090.68 3.66069 -0.771005 0
M  V30 33201 H 3092.01 4.82035 -0.99513 0
M  V30 33202 N 3093.66 0.556128 1.47462 0
M  V30 33203 C 3094.91 0.0316067 2.02075 0
M  V30 33204 C 3095.23 -1.32256 1.43295 0
M  V30 33205 O 3094.5 -1.86235 0.607743 0
M  V30 33206 H 3093.08 0.00869473 0.746949 0
M  V30 33207 H 3095.74 0.725891 1.80878 0
M  V30 33208 H 3094.84 -0.057299 3.12047 0
M  V30 33209 N 3095.14 -1.54861 0.292527 0
M  V30 33210 C 3096.55 -1.85606 -0.201808 0
M  V30 33211 C 3096.9 -1.21451 -1.54091 0
M  V30 33212 O 3096.03 -0.509116 -2.10326 0
M  V30 33213 C 3096.62 -3.36741 -0.372952 0
M  V30 33214 C 3095.18 -3.67548 -0.81151 0
M  V30 33215 C 3094.33 -2.77169 0.085107 0
M  V30 33216 H 3097.28 -1.50153 0.5138 0
M  V30 33217 H 3097.3 -3.60787 -1.20885 0
M  V30 33218 H 3096.81 -3.83405 0.601818 0
M  V30 33219 H 3094.91 -3.26395 -1.79713 0
M  V30 33220 H 3095.03 -4.7485 -0.636769 0
M  V30 33221 H 3093.39 -2.50972 -0.43418 0
M  V30 33222 H 3094.17 -3.26653 1.05608 0
M  V30 33223 N 3096.62 -0.0200973 -1.57587 0
M  V30 33224 C 3097.85 0.67093 -1.9572 0
M  V30 33225 C 3098.26 1.66179 -0.89611 0
M  V30 33226 O 3097.62 1.82085 0.123005 0
M  V30 33227 C 3097.67 1.38523 -3.33907 0
M  V30 33228 O 3097.39 0.43409 -4.35944 0
M  V30 33229 C 3098.89 2.16891 -3.86617 0
M  V30 33230 H 3096.11 0.185594 -0.644822 0
M  V30 33231 H 3098.66 -0.0771854 -2.04354 0
M  V30 33232 H 3096.81 2.08482 -3.26518 0
M  V30 33233 H 3097.23 0.940287 -5.16003 0
M  V30 33234 H 3098.7 2.62338 -4.85678 0
M  V30 33235 H 3099.18 3.00418 -3.20384 0
M  V30 33236 H 3099.78 1.51909 -3.97245 0
M  V30 33237 N 3098.1 1.55557 0.252939 0
M  V30 33238 C 3099.35 1.76756 0.979881 0
M  V30 33239 C 3099.67 0.582977 1.86082 0
M  V30 33240 O 3098.94 -0.401463 1.91742 0
M  V30 33241 H 3097.52 0.65187 0.364793 0
M  V30 33242 H 3100.18 1.92988 0.272339 0
M  V30 33243 H 3099.27 2.6766 1.60513 0
M  V30 33244 N 3099.58 -0.518341 1.48832 0
M  V30 33245 C 3100.82 -1.28388 1.59047 0
M  V30 33246 C 3101.18 -1.90184 0.263476 0
M  V30 33247 O 3102.38 -2.6772 0.240687 0
M  V30 33248 C 3100.65 -2.33543 2.70541 0
M  V30 33249 S 3102.21 -3.19667 3.00596 0
M  V30 33250 H 3099.03 -0.436563 0.561189 0
M  V30 33251 H 3101.63 -0.589189 1.8641 0
M  V30 33252 H 3100.33 -1.86645 3.65502 0
M  V30 33253 H 3099.87 -3.07704 2.45116 0
M  V30 33254 H 3101.88 -4.33862 2.40786 0
M  V30 33255 N 3101.05 -1.37615 -0.7681 0
M  V30 33256 C 3102.47 -1.18495 -1.06917 0
M  V30 33257 C 3102.67 -0.0236107 -2.01486 0
M  V30 33258 O 3101.73 0.635166 -2.44381 0
M  V30 33259 C 3103.04 -2.50518 -1.66317 0
M  V30 33260 C 3104.59 -2.57073 -1.78557 0
M  V30 33261 C 3105.06 -3.89235 -2.41371 0
M  V30 33262 N 3106.55 -3.90697 -2.48817 0
M  V30 33263 C 3107.29 -4.89711 -2.98279 0
M  V30 33264 N 3106.78 -5.99122 -3.47887 0
M  V30 33265 N 3108.58 -4.77112 -2.97187 0
M  V30 33266 H 3100.73 -2.11936 -0.140249 0
M  V30 33267 H 3102.99 -0.939743 -0.124847 0
M  V30 33268 H 3102.7 -3.3588 -1.04297 0
M  V30 33269 H 3102.57 -2.6787 -2.65566 0
M  V30 33270 H 3104.96 -1.72116 -2.39709 0
M  V30 33271 H 3105.04 -2.43601 -0.780531 0
M  V30 33272 H 3104.68 -4.74608 -1.80857 0
M  V30 33273 H 3104.61 -4.00012 -3.42488 0
M  V30 33274 H 3107.1 -3.11664 -2.13715 0
M  V30 33275 H 3107.42 -6.7062 -3.84042 0
M  V30 33276 H 3105.76 -6.02762 -3.45982 0
M  V30 33277 H 3108.95 -3.90757 -2.57734 0
M  V30 33278 H 3109.13 -5.54432 -3.35424 0
M  V30 33279 N 3102.53 0.994677 -1.22245 0
M  V30 33280 C 3103.95 1.25811 -0.982028 0
M  V30 33281 C 3104.15 1.98854 0.325453 0
M  V30 33282 O 3103.2 2.297 1.04853 0
M  V30 33283 C 3104.52 2.07164 -2.17954 0
M  V30 33284 C 3106.06 2.20354 -2.22291 0
M  V30 33285 C 3106.54 3.05092 -3.41588 0
M  V30 33286 N 3108.03 3.1268 -3.41739 0
M  V30 33287 C 3108.77 3.78532 -4.30699 0
M  V30 33288 N 3108.26 4.46326 -5.29873 0
M  V30 33289 N 3110.05 3.75275 -4.18479 0
M  V30 33290 H 3102.21 0.504926 -2.06311 0
M  V30 33291 H 3104.47 0.285602 -0.903955 0
M  V30 33292 H 3104.17 1.60853 -3.12761 0
M  V30 33293 H 3104.05 3.07918 -2.17867 0
M  V30 33294 H 3106.44 2.65879 -1.28032 0
M  V30 33295 H 3106.52 1.19035 -2.26416 0
M  V30 33296 H 3106.16 2.60268 -4.36146 0
M  V30 33297 H 3106.09 4.06549 -3.34702 0
M  V30 33298 H 3108.58 2.64429 -2.69974 0
M  V30 33299 H 3108.89 4.94309 -5.94035 0
M  V30 33300 H 3107.24 4.4508 -5.33787 0
M  V30 33301 H 3110.43 3.21472 -3.40255 0
M  V30 33302 H 3110.6 4.26317 -4.88014 0
M  V30 33303 N 3104.01 1.03186 1.19123 0
M  V30 33304 C 3104.92 0.625369 2.26111 0
M  V30 33305 C 3105.94 -0.344268 1.7056 0
M  V30 33306 O 3107.11 -0.201404 2.0039 0
M  V30 33307 C 3104.18 -0.0144559 3.46697 0
M  V30 33308 C 3103.24 1.00306 4.17417 0
M  V30 33309 C 3102.47 0.393675 5.32246 0
M  V30 33310 O 3102.69 -0.802559 5.64726 0
M  V30 33311 O 3101.63 1.118 5.91426 0
M  V30 33312 H 3105.45 1.51648 2.63129 0
M  V30 33313 H 3103.04 0.80222 1.26035 0
M  V30 33314 H 3104.92 -0.371065 4.19763 0
M  V30 33315 H 3103.6 -0.879526 3.11522 0
M  V30 33316 H 3102.5 1.41131 3.46458 0
M  V30 33317 H 3103.84 1.8386 4.5657 0
M  V30 33318 N 3105.49 -1.35184 0.810125 0
M  V30 33319 C 3106.9 -1.51753 0.494295 0
M  V30 33320 C 3107.1 -1.75847 -0.983876 0
M  V30 33321 O 3106.16 -1.80195 -1.76879 0
M  V30 33322 C 3107.47 -2.69056 1.34272 0
M  V30 33323 C 3109.02 -2.82935 1.33853 0
M  V30 33324 C 3109.5 -4.03268 2.17116 0
M  V30 33325 N 3110.99 -4.10452 2.14671 0
M  V30 33326 C 3111.72 -5.02686 2.75852 0
M  V30 33327 N 3111.22 -6.00229 3.45973 0
M  V30 33328 N 3113.01 -4.95459 2.65474 0
M  V30 33329 H 3105.16 -1.17802 1.76738 0
M  V30 33330 H 3107.43 -0.576663 0.752439 0
M  V30 33331 H 3107.13 -2.57841 2.39188 0
M  V30 33332 H 3107.01 -3.63746 0.998426 0
M  V30 33333 H 3109.39 -2.93599 0.297212 0
M  V30 33334 H 3109.47 -1.89092 1.72272 0
M  V30 33335 H 3109.12 -3.93364 3.2129 0
M  V30 33336 H 3109.05 -4.96299 1.76054 0
M  V30 33337 H 3111.54 -3.40626 1.63654 0
M  V30 33338 H 3111.85 -6.67212 3.89934 0
M  V30 33339 H 3110.2 -6.00392 3.50078 0
M  V30 33340 H 3113.39 -4.18212 2.10278 0
M  V30 33341 H 3113.56 -5.67149 3.13443 0
M  V30 33342 N 3106.97 -0.56394 -1.47165 0
M  V30 33343 C 3107.88 0.182936 -2.33886 0
M  V30 33344 C 3108.89 0.905106 -1.48606 0
M  V30 33345 O 3110.07 0.872495 -1.8152 0
M  V30 33346 C 3107.13 1.19552 -3.25435 0
M  V30 33347 C 3106.19 0.480054 -4.26608 0
M  V30 33348 C 3105.43 1.4444 -5.13783 0
M  V30 33349 O 3105.65 2.6797 -5.03536 0
M  V30 33350 O 3104.58 0.965216 -5.9411 0
M  V30 33351 H 3108.41 -0.528596 -2.99064 0
M  V30 33352 H 3106 -0.324494 -1.45833 0
M  V30 33353 H 3107.88 1.77986 -3.81967 0
M  V30 33354 H 3106.55 1.88886 -2.62876 0
M  V30 33355 H 3105.46 -0.145649 -3.73816 0
M  V30 33356 H 3106.79 -0.171955 -4.919 0
M  V30 33357 N 3108.44 1.54704 -0.300735 0
M  V30 33358 C 3109.86 1.59513 0.0526594 0
M  V30 33359 C 3110.06 1.31771 1.52442 0
M  V30 33360 O 3109.12 1.091 2.27714 0
M  V30 33361 C 3110.43 2.98714 -0.345041 0
M  V30 33362 C 3111.98 3.11618 -0.293785 0
M  V30 33363 C 3112.45 4.53127 -0.666304 0
M  V30 33364 N 3113.94 4.59048 -0.618829 0
M  V30 33365 C 3114.68 5.66614 -0.879546 0
M  V30 33366 N 3114.17 6.82219 -1.20622 0
M  V30 33367 N 3115.97 5.56282 -0.806626 0
M  V30 33368 H 3108.12 1.70997 -1.25991 0
M  V30 33369 H 3110.38 0.798634 -0.510772 0
M  V30 33370 H 3110.09 3.23937 -1.36958 0
M  V30 33371 H 3109.96 3.75994 0.301441 0
M  V30 33372 H 3112.35 2.86144 0.72151 0
M  V30 33373 H 3112.43 2.36494 -0.974886 0
M  V30 33374 H 3112.07 4.79331 -1.67941 0
M  V30 33375 H 3112 5.26587 0.0368649 0
M  V30 33376 H 3114.49 3.76012 -0.377268 0
M  V30 33377 H 3114.81 7.60176 -1.39114 0
M  V30 33378 H 3113.15 6.83771 -1.24425 0
M  V30 33379 H 3116.34 4.64845 -0.551074 0
M  V30 33380 H 3116.52 6.4003 -1.01318 0
M  V30 33381 N 3109.92 0.0284543 1.57574 0
M  V30 33382 C 3111.34 -0.327931 1.56195 0
M  V30 33383 C 3111.54 -1.72947 1.034 0
M  V30 33384 O 3110.59 -2.43159 0.680435 0
M  V30 33385 C 3111.91 -0.177143 3.00178 0
M  V30 33386 C 3113.46 -0.249959 3.12 0
M  V30 33387 C 3113.93 -0.127968 4.57821 0
M  V30 33388 N 3115.42 -0.184973 4.62831 0
M  V30 33389 C 3116.16 -0.114353 5.73286 0
M  V30 33390 N 3115.65 0.00731402 6.928 0
M  V30 33391 N 3117.45 -0.168292 5.61848 0
M  V30 33392 H 3109.6 0.944955 1.90222 0
M  V30 33393 H 3111.86 0.364847 0.87498 0
M  V30 33394 H 3111.57 0.788284 3.42752 0
M  V30 33395 H 3111.44 -0.947616 3.65103 0
M  V30 33396 H 3113.83 -1.20584 2.69339 0
M  V30 33397 H 3113.91 0.550879 2.49798 0
M  V30 33398 H 3113.55 0.824495 5.01163 0
M  V30 33399 H 3113.48 -0.947662 5.18003 0
M  V30 33400 H 3115.97 -0.279181 3.76867 0
M  V30 33401 H 3116.29 0.0545261 7.72781 0
M  V30 33402 H 3114.63 0.042087 6.94987 0
M  V30 33403 H 3117.82 -0.261739 4.67368 0
M  V30 33404 H 3117.99 -0.109794 6.47907 0
M  V30 33405 N 3111.4 -1.55689 -0.244686 0
M  V30 33406 C 3112.33 -1.86954 -1.32592 0
M  V30 33407 C 3113.35 -0.755973 -1.44184 0
M  V30 33408 O 3114.53 -1.03411 -1.45494 0
M  V30 33409 C 3111.63 -2.04263 -2.70426 0
M  V30 33410 C 3110.81 -3.35136 -2.81074 0
M  V30 33411 C 3109.87 -3.4216 -3.99767 0
M  V30 33412 O 3108.89 -4.15355 -3.8919 0
M  V30 33413 N 3110.09 -2.71614 -5.13036 0
M  V30 33414 H 3112.86 -2.80288 -1.06106 0
M  V30 33415 H 3110.42 -1.55953 -0.434783 0
M  V30 33416 H 3112.41 -2.06301 -3.4817 0
M  V30 33417 H 3110.98 -1.17663 -2.8961 0
M  V30 33418 H 3110.2 -3.45396 -1.89988 0
M  V30 33419 H 3111.49 -4.21394 -2.8514 0
M  V30 33420 H 3110.89 -2.11881 -5.24521 0
M  V30 33421 H 3109.45 -2.79341 -5.88907 0
M  V30 33422 N 3112.88 0.510441 -1.49105 0
M  V30 33423 C 3113.79 1.63957 -1.67795 0
M  V30 33424 C 3114.8 1.64726 -0.560483 0
M  V30 33425 O 3115.98 1.8332 -0.834017 0
M  V30 33426 C 3113.05 3.00361 -1.7316 0
M  V30 33427 C 3112.11 3.10294 -2.96675 0
M  V30 33428 C 3111.34 4.40191 -3.01774 0
M  V30 33429 O 3111.56 5.28439 -2.14729 0
M  V30 33430 O 3110.5 4.54899 -3.94145 0
M  V30 33431 H 3114.32 1.51122 -2.63431 0
M  V30 33432 H 3111.91 0.685696 -1.32735 0
M  V30 33433 H 3113.79 3.81448 -1.79096 0
M  V30 33434 H 3112.46 3.13479 -0.807007 0
M  V30 33435 H 3111.37 2.28429 -2.96261 0
M  V30 33436 H 3112.7 3.02099 -3.88583 0
M  V30 33437 N 3114.36 1.38021 0.760791 0
M  V30 33438 C 3115.77 1.1906 1.06287 0
M  V30 33439 C 3115.97 0.0342957 2.01471 0
M  V30 33440 O 3115.03 -0.622197 2.44714 0
M  V30 33441 C 3116.34 2.51396 1.64986 0
M  V30 33442 C 3117.89 2.58016 1.77191 0
M  V30 33443 C 3118.36 3.9051 2.39303 0
M  V30 33444 N 3119.86 3.92011 2.46742 0
M  V30 33445 C 3120.59 4.91286 2.95678 0
M  V30 33446 N 3120.09 6.00958 3.44705 0
M  V30 33447 N 3121.88 4.78682 2.94653 0
M  V30 33448 H 3114.03 2.12008 0.129007 0
M  V30 33449 H 3116.29 0.940392 0.119861 0
M  V30 33450 H 3116 3.36428 1.02514 0
M  V30 33451 H 3115.87 2.69275 2.64142 0
M  V30 33452 H 3118.26 1.73384 2.38793 0
M  V30 33453 H 3118.34 2.44011 0.767602 0
M  V30 33454 H 3117.99 4.75561 1.78338 0
M  V30 33455 H 3117.92 4.01823 3.40362 0
M  V30 33456 H 3120.41 3.12793 2.12059 0
M  V30 33457 H 3120.72 6.72648 3.8048 0
M  V30 33458 H 3119.06 6.04588 3.42781 0
M  V30 33459 H 3122.26 3.92118 2.55658 0
M  V30 33460 H 3122.43 5.56203 3.32479 0
M  V30 33461 N 3115.83 -0.98818 1.22771 0
M  V30 33462 C 3117.08 -1.72498 1.05304 0
M  V30 33463 C 3117.4 -1.90596 -0.412069 0
M  V30 33464 O 3116.67 -1.46901 -1.29603 0
M  V30 33465 H 3115.25 -0.639137 0.386669 0
M  V30 33466 H 3117.92 -1.18991 1.54361 0
M  V30 33467 H 3117.01 -2.7176 1.53469 0
M  V30 33468 N 3117.31 -1.03816 -1.18575 0
M  V30 33469 C 3118.73 -0.756934 -1.40509 0
M  V30 33470 C 3118.93 0.654598 -1.90571 0
M  V30 33471 O 3117.98 1.41918 -2.08843 0
M  V30 33472 C 3119.3 -1.80091 -2.40806 0
M  V30 33473 C 3120.85 -1.82153 -2.54538 0
M  V30 33474 C 3121.32 -2.85535 -3.58097 0
M  V30 33475 N 3122.81 -2.8441 -3.65602 0
M  V30 33476 C 3123.55 -3.61055 -4.45451 0
M  V30 33477 N 3123.04 -4.47444 -5.28929 0
M  V30 33478 N 3124.84 -3.49555 -4.4019 0
M  V30 33479 H 3116.99 -1.9491 -0.84404 0
M  V30 33480 H 3119.25 -0.843196 -0.433272 0
M  V30 33481 H 3118.96 -2.81326 -2.11065 0
M  V30 33482 H 3118.83 -1.63095 -3.40118 0
M  V30 33483 H 3121.22 -0.815905 -2.83597 0
M  V30 33484 H 3121.3 -2.03225 -1.55348 0
M  V30 33485 H 3120.94 -3.86275 -3.29779 0
M  V30 33486 H 3120.87 -2.61718 -4.56959 0
M  V30 33487 H 3123.36 -2.21762 -3.0599 0
M  V30 33488 H 3123.68 -5.02642 -5.87001 0
M  V30 33489 H 3122.02 -4.51512 -5.28358 0
M  V30 33490 H 3125.21 -2.81471 -3.74021 0
M  V30 33491 H 3125.38 -4.09537 -5.02179 0
M  V30 33492 N 3118.79 1.34753 -0.817283 0
M  V30 33493 C 3120.02 2.03217 -0.414459 0
M  V30 33494 C 3120.44 1.6116 0.970008 0
M  V30 33495 O 3119.8 0.793464 1.63015 0
M  V30 33496 C 3119.85 3.56858 -0.518149 0
M  V30 33497 O 3118.95 4.09779 0.464242 0
M  V30 33498 H 3118.29 0.641479 -0.171465 0
M  V30 33499 H 3120.82 1.72121 -1.10614 0
M  V30 33500 H 3120.83 4.06114 -0.39185 0
M  V30 33501 H 3119.51 3.86817 -1.52793 0
M  V30 33502 H 3118.08 3.71713 0.297296 0
M  V30 33503 N 3120.27 0.571737 1.46864 0
M  V30 33504 C 3121.2 -0.205439 2.28277 0
M  V30 33505 C 3122.21 -0.86581 1.37868 0
M  V30 33506 O 3123.4 -0.737218 1.62565 0
M  V30 33507 C 3120.5 -1.3096 3.12574 0
M  V30 33508 C 3119.68 -0.743252 4.31039 0
M  V30 33509 C 3118.74 -1.73373 4.96818 0
M  V30 33510 O 3117.76 -1.2741 5.54757 0
M  V30 33511 N 3118.96 -3.06755 4.9283 0
M  V30 33512 H 3121.73 0.492992 2.95617 0
M  V30 33513 H 3119.29 0.408771 1.56655 0
M  V30 33514 H 3121.28 -1.97125 3.53446 0
M  V30 33515 H 3119.85 -1.91105 2.47381 0
M  V30 33516 H 3119.07 0.0955697 3.94084 0
M  V30 33517 H 3120.36 -0.344467 5.07633 0
M  V30 33518 H 3119.76 -3.4673 4.46984 0
M  V30 33519 H 3118.31 -3.68439 5.37676 0
M  V30 33520 N 3121.75 -1.54542 0.308935 0
M  V30 33521 C 3122.66 -2.27497 -0.572899 0
M  V30 33522 C 3123.67 -1.31307 -1.14169 0
M  V30 33523 O 3124.85 -1.64301 -1.16478 0
M  V30 33524 C 3121.91 -3.00753 -1.72478 0
M  V30 33525 C 3120.98 -4.12498 -1.18927 0
M  V30 33526 C 3120.21 -4.82251 -2.28626 0
M  V30 33527 O 3120.43 -4.51416 -3.48683 0
M  V30 33528 O 3119.37 -5.69482 -1.94869 0
M  V30 33529 H 3123.19 -3.03694 0.0191411 0
M  V30 33530 H 3120.78 -1.49211 0.0751205 0
M  V30 33531 H 3122.66 -3.46675 -2.39571 0
M  V30 33532 H 3121.33 -2.27444 -2.30328 0
M  V30 33533 H 3120.24 -3.70958 -0.483839 0
M  V30 33534 H 3121.57 -4.87808 -0.6561 0
M  V30 33535 N 3123.23 -0.0368104 -1.57557 0
M  V30 33536 C 3124.64 0.319643 -1.56366 0
M  V30 33537 C 3124.84 1.72396 -1.04316 0
M  V30 33538 O 3123.9 2.42795 -0.69332 0
M  V30 33539 C 3125.21 0.161221 -3.00267 0
M  V30 33540 C 3126.76 0.233409 -3.12128 0
M  V30 33541 C 3127.23 0.103687 -4.57883 0
M  V30 33542 N 3128.72 0.160425 -4.62922 0
M  V30 33543 C 3129.46 0.0839486 -5.73339 0
M  V30 33544 N 3128.96 -0.0440548 -6.92786 0
M  V30 33545 N 3130.75 0.138493 -5.61929 0
M  V30 33546 H 3122.9 -0.955029 -1.89718 0
M  V30 33547 H 3125.16 -0.369482 -0.873033 0
M  V30 33548 H 3124.87 -0.80645 -3.42329 0
M  V30 33549 H 3124.74 0.92824 -3.656 0
M  V30 33550 H 3127.13 1.19154 -2.69975 0
M  V30 33551 H 3127.21 -0.564119 -2.49502 0
M  V30 33552 H 3126.85 -0.851061 -5.00719 0
M  V30 33553 H 3126.78 0.920177 -5.18498 0
M  V30 33554 H 3129.28 0.259191 -3.7701 0
M  V30 33555 H 3129.59 -0.0955078 -7.72741 0
M  V30 33556 H 3127.93 -0.0789433 -6.94955 0
M  V30 33557 H 3131.12 0.236949 -4.675 0
M  V30 33558 H 3131.3 0.0754321 -6.47956 0
M  V30 33559 N 3124.7 1.55817 0.236426 0
M  V30 33560 C 3126.12 1.48475 0.585439 0
M  V30 33561 C 3126.32 0.729053 1.87849 0
M  V30 33562 O 3125.38 0.262658 2.5113 0
M  V30 33563 C 3126.69 2.92946 0.678455 0
M  V30 33564 C 3128.24 3.03379 0.770081 0
M  V30 33565 C 3128.71 4.49179 0.89457 0
M  V30 33566 N 3130.2 4.5316 0.959174 0
M  V30 33567 C 3130.94 5.63234 1.07495 0
M  V30 33568 N 3130.43 6.83094 1.1556 0
M  V30 33569 N 3132.23 5.51053 1.10892 0
M  V30 33570 H 3124.38 2.03384 -0.612277 0
M  V30 33571 H 3126.64 0.923805 -0.212813 0
M  V30 33572 H 3126.35 3.5112 -0.201819 0
M  V30 33573 H 3126.22 3.44018 1.54697 0
M  V30 33574 H 3128.61 2.45279 1.6408 0
M  V30 33575 H 3128.69 2.555 -0.123798 0
M  V30 33576 H 3128.33 5.07892 0.0283645 0
M  V30 33577 H 3128.26 4.94749 1.80365 0
M  V30 33578 H 3130.75 3.66835 0.907763 0
M  V30 33579 H 3131.07 7.62733 1.2433 0
M  V30 33580 H 3129.41 6.85834 1.12499 0
M  V30 33581 H 3132.6 4.56344 1.04247 0
M  V30 33582 H 3132.78 6.36873 1.1957 0
M  V30 33583 N 3126.18 -0.502526 1.49373 0
M  V30 33584 C 3127.11 -1.6209 1.62048 0
M  V30 33585 C 3128.13 -1.54827 0.503248 0
M  V30 33586 O 3129.32 -1.60787 0.775237 0
M  V30 33587 C 3126.42 -3.00873 1.55976 0
M  V30 33588 C 3125.59 -3.33336 2.83206 0
M  V30 33589 C 3124.65 -4.51524 2.70208 0
M  V30 33590 O 3123.67 -4.53383 3.4414 0
M  V30 33591 N 3124.88 -5.51347 1.81651 0
M  V30 33592 H 3127.64 -1.51645 2.58503 0
M  V30 33593 H 3125.2 -0.69037 1.46443 0
M  V30 33594 H 3127.19 -3.77856 1.44937 0
M  V30 33595 H 3125.76 -3.05251 0.673849 0
M  V30 33596 H 3124.98 -2.45265 3.08608 0
M  V30 33597 H 3126.27 -3.51822 3.67557 0
M  V30 33598 H 3125.67 -5.52643 1.20839 0
M  V30 33599 H 3124.23 -6.27438 1.76535 0
M  V30 33600 N 3127.66 -1.38422 -0.75346 0
M  V30 33601 C 3129.07 -1.30947 -1.33078 0
M  V30 33602 C 3129.42 0.0346779 -1.96169 0
M  V30 33603 O 3128.55 0.936734 -1.95075 0
M  V30 33604 C 3129.14 -2.37142 -2.41969 0
M  V30 33605 C 3127.7 -2.33244 -2.95422 0
M  V30 33606 C 3126.85 -2.20001 -1.68804 0
M  V30 33607 H 3129.8 -1.48778 -0.552328 0
M  V30 33608 H 3129.82 -2.02865 -3.2191 0
M  V30 33609 H 3129.33 -3.34959 -1.96021 0
M  V30 33610 H 3127.43 -1.39009 -3.45698 0
M  V30 33611 H 3127.55 -3.27387 -3.49792 0
M  V30 33612 H 3125.91 -1.66856 -1.92435 0
M  V30 33613 H 3126.69 -3.1976 -1.24933 0
M  V30 33614 N 3129.14 0.981655 -1.23294 0
M  V30 33615 C 3130.36 1.76337 -1.09179 0
M  V30 33616 C 3130.79 1.84764 0.352693 0
M  V30 33617 O 3130.15 1.30834 1.25507 0
M  V30 33618 C 3130.19 3.16908 -1.72051 0
M  V30 33619 O 3129.3 4.00542 -0.98181 0
M  V30 33620 H 3128.64 0.542575 -0.382764 0
M  V30 33621 H 3131.17 1.23237 -1.63322 0
M  V30 33622 H 3131.18 3.67492 -1.77238 0
M  V30 33623 H 3129.85 3.1009 -2.77159 0
M  V30 33624 H 3128.43 3.59052 -1.00679 0
M  V30 33625 N 3130.62 1.04444 1.18022 0
M  V30 33626 C 3131.84 0.770131 1.92571 0
M  V30 33627 C 3132.27 -0.667138 1.75872 0
M  V30 33628 O 3131.62 -1.46256 1.07139 0
M  V30 33629 C 3131.67 1.14608 3.41902 0
M  V30 33630 O 3130.78 0.273784 4.1149 0
M  V30 33631 H 3130.12 0.283086 0.600631 0
M  V30 33632 H 3132.65 1.39529 1.49643 0
M  V30 33633 H 3132.66 1.10963 3.92621 0
M  V30 33634 H 3131.33 2.1931 3.53378 0
M  V30 33635 H 3129.91 0.37019 3.71058 0
M  V30 33636 N 3132.09 -1.34317 0.824418 0
M  V30 33637 C 3133.32 -2.02994 0.42523 0
M  V30 33638 C 3133.74 -1.61672 -0.961448 0
M  V30 33639 O 3133.1 -0.802098 -1.62592 0
M  V30 33640 C 3133.15 -3.56578 0.537067 0
M  V30 33641 O 3132.25 -4.10019 -0.442504 0
M  V30 33642 H 3131.59 -0.640561 0.174864 0
M  V30 33643 H 3134.12 -1.71532 1.11525 0
M  V30 33644 H 3134.13 -4.059 0.413382 0
M  V30 33645 H 3132.81 -3.86001 1.54842 0
M  V30 33646 H 3131.39 -3.71865 -0.277579 0
M  V30 33647 N 3133.57 -0.579517 -1.46558 0
M  V30 33648 C 3134.8 -0.067496 -2.0729 0
M  V30 33649 C 3135.22 1.22674 -1.42593 0
M  V30 33650 O 3134.58 1.7402 -0.5086 0
M  V30 33651 C 3134.63 0.0881594 -3.60492 0
M  V30 33652 O 3133.73 1.14544 -3.96174 0
M  V30 33653 H 3133.07 -0.0613652 -0.661158 0
M  V30 33654 H 3135.6 -0.801552 -1.88245 0
M  V30 33655 H 3135.61 0.295339 -4.0693 0
M  V30 33656 H 3134.29 -0.857015 -4.06974 0
M  V30 33657 H 3132.86 0.916969 -3.6145 0
M  V30 33658 N 3135.05 1.54376 -0.317127 0
M  V30 33659 C 3136.28 2.0533 0.292275 0
M  V30 33660 C 3136.7 1.1921 1.45501 0
M  V30 33661 O 3136.06 0.199753 1.80196 0
M  V30 33662 C 3136.11 3.53527 0.710725 0
M  V30 33663 O 3135.21 3.70371 1.8138 0
M  V30 33664 H 3134.55 0.661802 0.053986 0
M  V30 33665 H 3137.08 1.99277 -0.463664 0
M  V30 33666 H 3137.09 3.95678 0.995147 0
M  V30 33667 H 3135.77 4.15665 -0.139741 0
M  V30 33668 H 3134.34 3.40126 1.52869 0
M  V30 33669 N 3136.53 0.0451655 1.57535 0
M  V30 33670 C 3137.44 -0.946609 2.14654 0
M  V30 33671 C 3138.45 -1.34588 1.10282 0
M  V30 33672 O 3139.63 -1.42403 1.4242 0
M  V30 33673 C 3136.7 -2.2051 2.67537 0
M  V30 33674 C 3135.76 -1.86475 3.86686 0
M  V30 33675 C 3134.99 -3.06324 4.37037 0
M  V30 33676 O 3135.21 -4.19503 3.86488 0
M  V30 33677 O 3134.15 -2.87688 5.28696 0
M  V30 33678 H 3137.97 -0.490857 2.99707 0
M  V30 33679 H 3135.56 -0.176384 1.48355 0
M  V30 33680 H 3137.44 -2.9436 3.01547 0
M  V30 33681 H 3136.11 -2.65235 1.85559 0
M  V30 33682 H 3135.02 -1.0996 3.57575 0
M  V30 33683 H 3136.35 -1.46554 4.69875 0
M  V30 33684 N 3138.01 -1.5594 -0.228159 0
M  V30 33685 C 3138.95 -1.91873 -1.2827 0
M  V30 33686 C 3139.92 -0.775129 -1.46905 0
M  V30 33687 O 3141.11 -1.03044 -1.60582 0
M  V30 33688 C 3138.25 -2.23509 -2.62941 0
M  V30 33689 C 3137.36 -3.5077 -2.5216 0
M  V30 33690 C 3136.5 -3.71885 -3.79309 0
M  V30 33691 C 3135.54 -4.92682 -3.63223 0
M  V30 33692 N 3134.67 -5.1022 -4.82306 0
M  V30 33693 H 3139.51 -2.81797 -0.96926 0
M  V30 33694 H 3137.05 -1.3948 -0.467307 0
M  V30 33695 H 3139.01 -2.3986 -3.41355 0
M  V30 33696 H 3137.64 -1.36767 -2.92395 0
M  V30 33697 H 3136.69 -3.42649 -1.65215 0
M  V30 33698 H 3138 -4.39335 -2.36191 0
M  V30 33699 H 3137.16 -3.88296 -4.66167 0
M  V30 33700 H 3135.89 -2.81588 -3.98195 0
M  V30 33701 H 3134.9 -4.76228 -2.74749 0
M  V30 33702 H 3136.12 -5.84457 -3.45813 0
M  V30 33703 H 3134.07 -4.22865 -5.01519 0
M  V30 33704 H 3133.99 -5.92906 -4.69039 0
M  V30 33705 H 3135.26 -5.31061 -5.70609 0
M  V30 33706 N 3139.48 0.494597 -1.49638 0
M  V30 33707 C 3140.42 1.61228 -1.62905 0
M  V30 33708 C 3141.43 1.54557 -0.511452 0
M  V30 33709 O 3142.62 1.60373 -0.783753 0
M  V30 33710 C 3139.72 3.00042 -1.57569 0
M  V30 33711 C 3138.89 3.3183 -2.8497 0
M  V30 33712 C 3137.95 4.50085 -2.72599 0
M  V30 33713 O 3136.98 4.51552 -3.4654 0
M  V30 33714 N 3138.18 5.50376 -1.84573 0
M  V30 33715 H 3140.94 1.50272 -2.59304 0
M  V30 33716 H 3138.5 0.682594 -1.46807 0
M  V30 33717 H 3140.5 3.77082 -1.46938 0
M  V30 33718 H 3139.07 3.04889 -0.690027 0
M  V30 33719 H 3138.29 2.43625 -3.09904 0
M  V30 33720 H 3139.57 3.49868 -3.69418 0
M  V30 33721 H 3138.97 5.51995 -1.23768 0
M  V30 33722 H 3137.53 6.26493 -1.7986 0
M  V30 33723 N 3140.96 1.3882 0.746109 0
M  V30 33724 C 3142.38 1.20181 1.05018 0
M  V30 33725 C 3142.58 0.0556625 2.01423 0
M  V30 33726 O 3141.63 -0.596207 2.4536 0
M  V30 33727 C 3142.95 2.53132 1.6231 0
M  V30 33728 C 3144.5 2.59881 1.74445 0
M  V30 33729 C 3144.97 3.93026 2.35148 0
M  V30 33730 N 3146.46 3.94606 2.4257 0
M  V30 33731 C 3147.2 4.94394 2.90451 0
M  V30 33732 N 3146.69 6.0458 3.38311 0
M  V30 33733 N 3148.49 4.8178 2.89559 0
M  V30 33734 H 3140.64 2.12133 0.106514 0
M  V30 33735 H 3142.9 0.94161 0.10988 0
M  V30 33736 H 3142.61 3.37496 0.9894 0
M  V30 33737 H 3142.48 2.72061 2.61271 0
M  V30 33738 H 3144.87 1.75907 2.3694 0
M  V30 33739 H 3144.95 2.44812 0.741678 0
M  V30 33740 H 3144.59 4.77426 1.73284 0
M  V30 33741 H 3144.52 4.0541 3.36081 0
M  V30 33742 H 3147.01 3.15025 2.08729 0
M  V30 33743 H 3147.33 6.76645 3.73324 0
M  V30 33744 H 3145.67 6.0819 3.36349 0
M  V30 33745 H 3148.86 3.94807 2.51485 0
M  V30 33746 H 3149.03 5.59698 3.26561 0
M  V30 33747 N 3142.44 -0.975103 1.23812 0
M  V30 33748 C 3143.69 -1.71711 1.07339 0
M  V30 33749 C 3144.02 -1.90572 -0.38892 0
M  V30 33750 O 3143.27 -1.4592 -1.30407 0
M  V30 33751 C 3143.57 -3.11625 1.75 0
M  V30 33752 C 3143.24 -3.12627 3.24924 0
M  V30 33753 C 3141.9 -3.12607 3.65828 0
M  V30 33754 C 3144.25 -3.07531 4.20802 0
M  V30 33755 C 3141.58 -3.05215 5.0106 0
M  V30 33756 C 3143.93 -3.0168 5.56032 0
M  V30 33757 C 3142.59 -2.99986 5.96293 0
M  V30 33758 H 3141.86 -0.628334 0.392782 0
M  V30 33759 H 3144.51 -1.14073 1.53817 0
M  V30 33760 H 3142.82 -3.72681 1.20896 0
M  V30 33761 H 3144.51 -3.67816 1.59726 0
M  V30 33762 H 3141.1 -3.13402 2.92365 0
M  V30 33763 H 3145.29 -3.06681 3.90206 0
M  V30 33764 H 3140.54 -3.02259 5.3146 0
M  V30 33765 H 3144.72 -2.96695 6.30036 0
M  V30 33766 H 3142.34 -2.94013 7.01042 0
M  V30 33767 N 3143.92 -1.05068 -1.17467 0
M  V30 33768 C 3145.15 -0.779236 -1.91341 0
M  V30 33769 C 3145.56 0.668733 -1.76988 0
M  V30 33770 O 3144.9 1.46846 -1.10372 0
M  V30 33771 C 3144.96 -1.07866 -3.42936 0
M  V30 33772 C 3144.63 -2.52256 -3.81072 0
M  V30 33773 C 3145.62 -3.50463 -3.84021 0
M  V30 33774 C 3143.31 -2.87232 -4.12071 0
M  V30 33775 C 3145.3 -4.81691 -4.17436 0
M  V30 33776 C 3142.99 -4.18664 -4.45156 0
M  V30 33777 C 3143.99 -5.15704 -4.47816 0
M  V30 33778 O 3143.67 -6.44778 -4.80122 0
M  V30 33779 H 3143.41 -0.282874 -0.61397 0
M  V30 33780 H 3145.96 -1.4042 -1.49905 0
M  V30 33781 H 3144.19 -0.396598 -3.84661 0
M  V30 33782 H 3145.88 -0.793427 -3.9807 0
M  V30 33783 H 3146.65 -3.24781 -3.60197 0
M  V30 33784 H 3142.52 -2.12365 -4.09173 0
M  V30 33785 H 3146.07 -5.57428 -4.19427 0
M  V30 33786 H 3141.97 -4.44109 -4.68441 0
M  V30 33787 H 3142.73 -6.4958 -4.97984 0
M  V30 33788 N 3145.4 1.33878 -0.831529 0
M  V30 33789 C 3146.62 2.02766 -0.435989 0
M  V30 33790 C 3147.05 1.62179 0.952861 0
M  V30 33791 O 3146.4 0.810709 1.62164 0
M  V30 33792 C 3146.45 3.56288 -0.55597 0
M  V30 33793 O 3145.56 4.10248 0.420754 0
M  V30 33794 H 3144.9 0.639625 -0.178259 0
M  V30 33795 H 3147.43 1.70939 -1.12433 0
M  V30 33796 H 3147.44 4.05675 -0.434902 0
M  V30 33797 H 3146.11 3.85174 -1.56887 0
M  V30 33798 H 3144.69 3.72007 0.257854 0
M  V30 33799 N 3146.87 0.587281 1.46249 0
M  V30 33800 C 3148.11 0.0773528 2.04254 0
M  V30 33801 C 3148.48 -1.26045 1.44833 0
M  V30 33802 O 3149.68 -1.85988 1.94066 0
M  V30 33803 C 3147.95 0.0173441 3.57396 0
M  V30 33804 S 3149.51 -0.434345 4.36645 0
M  V30 33805 H 3146.33 0.0396907 0.709891 0
M  V30 33806 H 3148.93 0.78081 1.79231 0
M  V30 33807 H 3147.63 0.994865 3.98159 0
M  V30 33808 H 3147.16 -0.708742 3.86963 0
M  V30 33809 H 3149.18 -1.68815 4.666 0
M  V30 33810 N 3148.35 -1.54206 0.325309 0
M  V30 33811 C 3149.63 -1.92777 -0.331096 0
M  V30 33812 C 3150.01 -1.25509 -1.69737 0
M  V30 33813 O 3149.36 -0.399424 -2.24982 0
M  V30 33814 C 3149.57 -3.46444 -0.421575 0
M  V30 33815 C 3150.92 -4.19103 -0.681037 0
M  V30 33816 O 3151.94 -3.5261 -0.504426 0
M  V30 33817 O 3150.8 -5.36861 -1.02187 0
M  V30 33818 H 3147.89 -0.805016 -0.189416 0
M  V30 33819 H 3150.44 -1.65501 0.375152 0
M  V30 33820 H 3149.21 -3.87585 0.53793 0
M  V30 33821 H 3148.83 -3.79831 -1.17533 0
M  V30 33822 N 3149.83 -0.0535194 -1.57509 0
M  V30 33823 C 3151.25 0.30304 -1.56697 0
M  V30 33824 C 3151.45 1.7128 -1.06138 0
M  V30 33825 O 3150.5 2.42046 -0.719033 0
M  V30 33826 C 3151.82 0.129365 -3.00422 0
M  V30 33827 C 3153.36 0.200291 -3.12359 0
M  V30 33828 C 3153.84 0.0551166 -4.57967 0
M  V30 33829 N 3155.33 0.111317 -4.63066 0
M  V30 33830 C 3156.07 0.0231336 -5.73395 0
M  V30 33831 N 3155.56 -0.117532 -6.927 0
M  V30 33832 N 3157.35 0.0788852 -5.62045 0
M  V30 33833 H 3149.51 -0.975098 -1.88694 0
M  V30 33834 H 3151.77 -0.378721 -0.869065 0
M  V30 33835 H 3151.47 -0.842713 -3.41455 0
M  V30 33836 H 3151.35 0.889411 -3.66564 0
M  V30 33837 H 3153.74 1.16284 -2.71223 0
M  V30 33838 H 3153.82 -0.59055 -2.4889 0
M  V30 33839 H 3153.46 -0.904121 -4.99788 0
M  V30 33840 H 3153.39 0.865132 -5.19445 0
M  V30 33841 H 3155.88 0.219189 -3.77264 0
M  V30 33842 H 3156.19 -0.177462 -7.72596 0
M  V30 33843 H 3154.54 -0.152648 -6.94832 0
M  V30 33844 H 3157.73 0.187351 -4.67725 0
M  V30 33845 H 3157.9 0.00670341 -6.48 0
M  V30 33846 N 3151.31 1.56059 0.219886 0
M  V30 33847 C 3152.56 1.79149 0.944033 0
M  V30 33848 C 3152.88 0.622563 1.84267 0
M  V30 33849 O 3152.14 -0.39298 1.91714 0
M  V30 33850 C 3152.44 3.08009 1.81287 0
M  V30 33851 C 3152.1 4.38086 1.06733 0
M  V30 33852 C 3150.77 4.73427 0.861387 0
M  V30 33853 C 3153.12 5.18385 0.540958 0
M  V30 33854 C 3150.45 5.86583 0.117204 0
M  V30 33855 C 3152.8 6.32315 -0.18989 0
M  V30 33856 C 3151.46 6.66258 -0.407068 0
M  V30 33857 H 3150.73 0.655552 0.345446 0
M  V30 33858 H 3153.38 1.90322 0.212087 0
M  V30 33859 H 3151.68 2.91965 2.61273 0
M  V30 33860 H 3153.38 3.23077 2.37534 0
M  V30 33861 H 3149.97 4.10337 1.23782 0
M  V30 33862 H 3154.16 4.91515 0.68753 0
M  V30 33863 H 3149.41 6.11369 -0.0612726 0
M  V30 33864 H 3153.59 6.93765 -0.605256 0
M  V30 33865 H 3151.21 7.53783 -0.985643 0
M  V30 33866 N 3152.79 -0.486655 1.49898 0
M  V30 33867 C 3154.04 -1.23739 1.59791 0
M  V30 33868 C 3154.36 -1.92785 0.29309 0
M  V30 33869 O 3153.63 -1.83402 -0.688502 0
M  V30 33870 H 3152.21 -0.459721 0.588783 0
M  V30 33871 H 3154.87 -0.562775 1.86598 0
M  V30 33872 H 3153.96 -1.99366 2.40124 0
M  V30 33873 N 3154.27 -1.39214 -0.738737 0
M  V30 33874 C 3155.51 -1.35964 -1.49526 0
M  V30 33875 C 3155.83 0.0449809 -1.94948 0
M  V30 33876 O 3155.1 0.995523 -1.68719 0
M  V30 33877 H 3153.68 -0.500336 -0.554683 0
M  V30 33878 H 3156.35 -1.74042 -0.877224 0
M  V30 33879 H 3155.44 -2.01997 -2.37915 0
M  V30 33880 N 3155.74 0.968523 -1.24328 0
M  V30 33881 C 3157.16 1.23699 -1.00849 0
M  V30 33882 C 3157.36 1.995 0.2832 0
M  V30 33883 O 3156.42 2.31873 0.999567 0
M  V30 33884 C 3157.73 2.02494 -2.22299 0
M  V30 33885 C 3159.28 2.15589 -2.26915 0
M  V30 33886 C 3159.75 2.97778 -3.47983 0
M  V30 33887 N 3161.24 3.05361 -3.48295 0
M  V30 33888 C 3161.98 3.69311 -4.38631 0
M  V30 33889 N 3161.47 4.34986 -5.39221 0
M  V30 33890 N 3163.27 3.66314 -4.26345 0
M  V30 33891 H 3155.42 0.461051 -2.07336 0
M  V30 33892 H 3157.68 0.266364 -0.90981 0
M  V30 33893 H 3157.39 1.54183 -3.16102 0
M  V30 33894 H 3157.26 3.03228 -2.2435 0
M  V30 33895 H 3159.65 2.63104 -1.33643 0
M  V30 33896 H 3159.73 1.14205 -2.2889 0
M  V30 33897 H 3159.37 2.50958 -4.41568 0
M  V30 33898 H 3159.3 3.99358 -3.43251 0
M  V30 33899 H 3161.79 2.58643 -2.75522 0
M  V30 33900 H 3162.11 4.81598 -6.04387 0
M  V30 33901 H 3160.45 4.33657 -5.43108 0
M  V30 33902 H 3163.64 3.14183 -3.46997 0
M  V30 33903 H 3163.82 4.1587 -4.96947 0
M  V30 33904 N 3157.22 1.0569 1.16908 0
M  V30 33905 C 3158.13 0.673189 2.24734 0
M  V30 33906 C 3159.15 -0.308013 1.71252 0
M  V30 33907 O 3160.32 -0.158853 2.00773 0
M  V30 33908 C 3157.39 0.0590869 3.4665 0
M  V30 33909 C 3156.45 1.09138 4.15196 0
M  V30 33910 C 3155.68 0.506484 5.31291 0
M  V30 33911 O 3155.91 -0.682592 5.66301 0
M  V30 33912 O 3154.84 1.2432 5.88921 0
M  V30 33913 H 3158.67 1.57195 2.59853 0
M  V30 33914 H 3156.25 0.828773 1.24305 0
M  V30 33915 H 3158.13 -0.281944 4.20456 0
M  V30 33916 H 3156.81 -0.813249 3.13318 0
M  V30 33917 H 3155.71 1.48448 3.43386 0
M  V30 33918 H 3157.05 1.93503 4.52567 0
M  V30 33919 N 3158.7 -1.33435 0.838617 0
M  V30 33920 C 3160.11 -1.80129 0.490966 0
M  V30 33921 C 3160.46 -1.69392 -0.989994 0
M  V30 33922 O 3159.59 -1.24305 -1.77136 0
M  V30 33923 C 3160.18 -3.27053 0.884405 0
M  V30 33924 C 3158.74 -3.71765 0.588894 0
M  V30 33925 C 3157.89 -2.54856 1.09287 0
M  V30 33926 H 3160.84 -1.2096 1.02734 0
M  V30 33927 H 3160.86 -3.80003 0.19435 0
M  V30 33928 H 3160.37 -3.34836 1.96231 0
M  V30 33929 H 3158.47 -3.69509 -0.478953 0
M  V30 33930 H 3158.59 -4.65242 1.14395 0
M  V30 33931 H 3156.95 -2.49465 0.513746 0
M  V30 33932 H 3157.73 -2.65401 2.17754 0
M  V30 33933 N 3160.18 -0.595029 -1.45935 0
M  V30 33934 C 3161.59 -0.171812 -1.85908 0
M  V30 33935 C 3161.94 1.26822 -1.49702 0
M  V30 33936 O 3161.06 1.95977 -0.917722 0
M  V30 33937 C 3161.66 -0.305035 -3.37424 0
M  V30 33938 C 3160.22 0.0633973 -3.76347 0
M  V30 33939 C 3159.37 -0.635303 -2.69924 0
M  V30 33940 H 3162.32 -0.802495 -1.36915 0
M  V30 33941 H 3162.34 0.466246 -3.77633 0
M  V30 33942 H 3161.85 -1.3532 -3.63744 0
M  V30 33943 H 3159.95 1.11123 -3.55644 0
M  V30 33944 H 3160.06 -0.321503 -4.7802 0
M  V30 33945 H 3158.43 -0.0742502 -2.54592 0
M  V30 33946 H 3159.21 -1.68536 -2.99083 0
M  V30 33947 N 3161.66 1.54031 -0.333483 0
M  V30 33948 C 3162.6 2.24681 0.527942 0
M  V30 33949 C 3163.57 1.24129 1.10369 0
M  V30 33950 O 3164.76 1.52836 1.14218 0
M  V30 33951 C 3161.9 3.01556 1.67803 0
M  V30 33952 C 3161.01 4.16944 1.13056 0
M  V30 33953 C 3160.15 4.81328 2.24714 0
M  V30 33954 C 3159.18 5.88802 1.67267 0
M  V30 33955 N 3158.32 6.47008 2.72626 0
M  V30 33956 H 3163.16 2.9789 -0.0810831 0
M  V30 33957 H 3160.7 1.47009 -0.0517868 0
M  V30 33958 H 3162.66 3.4438 2.35496 0
M  V30 33959 H 3161.29 2.30663 2.25819 0
M  V30 33960 H 3160.34 3.78833 0.344882 0
M  V30 33961 H 3161.65 4.94276 0.670286 0
M  V30 33962 H 3160.8 5.27172 3.00292 0
M  V30 33963 H 3159.54 4.03399 2.74082 0
M  V30 33964 H 3158.55 5.42352 0.901907 0
M  V30 33965 H 3159.77 6.68634 1.18763 0
M  V30 33966 H 3157.72 5.71947 3.21267 0
M  V30 33967 H 3157.64 7.19782 2.31191 0
M  V30 33968 H 3158.9 6.97506 3.48003 0
M  V30 33969 N 3163.13 0.0618717 1.57479 0
M  V30 33970 C 3164.54 -0.472263 1.80628 0
M  V30 33971 C 3164.9 -1.7026 0.97499 0
M  V30 33972 O 3164.02 -2.15523 0.194638 0
M  V30 33973 C 3164.62 -0.863558 3.2761 0
M  V30 33974 C 3163.17 -1.34261 3.5164 0
M  V30 33975 C 3162.32 -0.322961 2.75413 0
M  V30 33976 H 3165.27 0.287662 1.56071 0
M  V30 33977 H 3165.29 -1.72571 3.39116 0
M  V30 33978 H 3164.81 0.0320908 3.88087 0
M  V30 33979 H 3162.91 -2.25709 2.96456 0
M  V30 33980 H 3163.02 -1.32739 4.60345 0
M  V30 33981 H 3161.38 -0.798133 2.41872 0
M  V30 33982 H 3162.17 0.564788 3.38622 0
M  V30 33983 N 3164.61 -1.56173 -0.211607 0
M  V30 33984 C 3165.56 -1.93223 -1.26228 0
M  V30 33985 C 3166.53 -0.790666 -1.46074 0
M  V30 33986 O 3167.71 -1.04742 -1.5948 0
M  V30 33987 C 3164.85 -2.26285 -2.60555 0
M  V30 33988 C 3163.97 -3.53425 -2.48425 0
M  V30 33989 C 3163.1 -3.75887 -3.75343 0
M  V30 33990 C 3162.14 -4.96507 -3.57977 0
M  V30 33991 N 3161.28 -5.15307 -4.76868 0
M  V30 33992 H 3166.12 -2.82809 -0.939317 0
M  V30 33993 H 3163.66 -1.39968 -0.452487 0
M  V30 33994 H 3165.61 -2.43467 -3.38792 0
M  V30 33995 H 3164.24 -1.39861 -2.90928 0
M  V30 33996 H 3163.3 -3.44382 -1.61571 0
M  V30 33997 H 3164.61 -4.41815 -2.31518 0
M  V30 33998 H 3163.76 -3.93218 -4.62022 0
M  V30 33999 H 3162.5 -2.85795 -3.95186 0
M  V30 34000 H 3161.51 -4.79115 -2.69682 0
M  V30 34001 H 3162.73 -5.88092 -3.39595 0
M  V30 34002 H 3160.68 -4.28161 -4.97006 0
M  V30 34003 H 3160.59 -5.97848 -4.62725 0
M  V30 34004 H 3161.86 -5.37083 -5.64944 0
M  V30 34005 N 3166.09 0.478699 -1.50154 0
M  V30 34006 C 3167.5 1.05976 -1.53708 0
M  V30 34007 C 3167.85 1.93299 -0.336146 0
M  V30 34008 O 3166.98 2.09247 0.551767 0
M  V30 34009 C 3167.57 1.92869 -2.78544 0
M  V30 34010 C 3166.13 2.46097 -2.84804 0
M  V30 34011 C 3165.28 1.24253 -2.47904 0
M  V30 34012 H 3168.23 0.261637 -1.56528 0
M  V30 34013 H 3168.25 2.77842 -2.59969 0
M  V30 34014 H 3167.76 1.29287 -3.65932 0
M  V30 34015 H 3165.86 3.13254 -2.0175 0
M  V30 34016 H 3165.98 2.81724 -3.87516 0
M  V30 34017 H 3164.34 1.57489 -2.00173 0
M  V30 34018 H 3165.12 0.623451 -3.37591 0
M  V30 34019 N 3167.57 1.39603 0.731343 0
M  V30 34020 C 3168.79 1.40495 1.52565 0
M  V30 34021 C 3169.22 0.00232134 1.881 0
M  V30 34022 O 3168.58 -0.985616 1.52169 0
M  V30 34023 C 3168.62 2.28765 2.78745 0
M  V30 34024 O 3167.73 1.72005 3.74817 0
M  V30 34025 H 3167.07 0.478279 0.460592 0
M  V30 34026 H 3169.6 1.83644 0.90201 0
M  V30 34027 H 3169.61 2.43405 3.27442 0
M  V30 34028 H 3168.28 3.30698 2.52214 0
M  V30 34029 H 3166.86 1.66628 3.33601 0
M  V30 34030 N 3169.05 -0.961916 1.2484 0
M  V30 34031 C 3169.98 -2.07512 1.07056 0
M  V30 34032 C 3170.96 -1.7009 -0.0182166 0
M  V30 34033 O 3172.14 -1.9362 0.149949 0
M  V30 34034 C 3169.27 -3.40563 0.680753 0
M  V30 34035 C 3168.23 -3.91964 1.71895 0
M  V30 34036 C 3167.55 -5.21426 1.18404 0
M  V30 34037 C 3168.85 -4.19156 3.11618 0
M  V30 34038 H 3170.55 -2.22647 2.00171 0
M  V30 34039 H 3168.09 -1.06989 0.963818 0
M  V30 34040 H 3170.05 -4.17883 0.543313 0
M  V30 34041 H 3168.77 -3.25345 -0.286092 0
M  V30 34042 H 3167.43 -3.16806 1.84471 0
M  V30 34043 H 3167.08 -5.02571 0.207632 0
M  V30 34044 H 3166.78 -5.56785 1.87788 0
M  V30 34045 H 3168.3 -6.01349 1.05884 0
M  V30 34046 H 3169.71 -4.8716 3.02238 0
M  V30 34047 H 3168.11 -4.65756 3.78406 0
M  V30 34048 H 3169.18 -3.25709 3.59224 0
M  V30 34049 N 3170.52 -1.06308 -1.16346 0
M  V30 34050 C 3171.75 -0.80067 -1.91322 0
M  V30 34051 C 3172.17 0.639074 -1.76911 0
M  V30 34052 O 3171.53 1.44533 -1.09452 0
M  V30 34053 C 3171.58 -1.20033 -3.40036 0
M  V30 34054 O 3170.68 -0.339214 -4.11003 0
M  V30 34055 H 3170.03 -0.292606 -0.596052 0
M  V30 34056 H 3172.56 -1.41892 -1.47404 0
M  V30 34057 H 3172.57 -1.17195 -3.90806 0
M  V30 34058 H 3171.24 -2.24904 -3.49844 0
M  V30 34059 H 3169.82 -0.429175 -3.70422 0
M  V30 34060 N 3172 1.32989 -0.845682 0
M  V30 34061 C 3173.23 2.02292 -0.457471 0
M  V30 34062 C 3173.65 1.63181 0.935606 0
M  V30 34063 O 3173.01 0.827864 1.61295 0
M  V30 34064 C 3173.06 3.55679 -0.593728 0
M  V30 34065 O 3172.16 4.10671 0.377218 0
M  V30 34066 H 3171.5 0.637698 -0.185033 0
M  V30 34067 H 3174.03 1.69736 -1.1424 0
M  V30 34068 H 3174.04 4.05191 -0.477905 0
M  V30 34069 H 3172.72 3.83489 -1.60964 0
M  V30 34070 H 3171.3 3.7226 0.218383 0
M  V30 34071 N 3173.48 0.60276 1.45618 0
M  V30 34072 C 3174.43 -0.140224 2.27568 0
M  V30 34073 C 3175.41 -0.843116 1.37041 0
M  V30 34074 O 3176.61 -0.733902 1.61068 0
M  V30 34075 C 3173.74 -1.14014 3.23814 0
M  V30 34076 C 3172.82 -0.438331 4.21829 0
M  V30 34077 N 3173.21 0.517333 5.03147 0
M  V30 34078 C 3171.51 -0.686511 4.40685 0
M  V30 34079 C 3172.21 0.929392 5.74227 0
M  V30 34080 N 3171.19 0.274181 5.42908 0
M  V30 34081 H 3174.99 0.59385 2.87838 0
M  V30 34082 H 3172.5 0.426061 1.56711 0
M  V30 34083 H 3174.5 -1.68677 3.81253 0
M  V30 34084 H 3173.16 -1.87482 2.65105 0
M  V30 34085 H 3174.17 0.893848 5.10128 0
M  V30 34086 H 3170.85 -1.40624 3.93105 0
M  V30 34087 H 3172.24 1.71732 6.49583 0
M  V30 34088 N 3174.96 -1.53852 0.341647 0
M  V30 34089 C 3176.37 -1.86154 -0.142657 0
M  V30 34090 C 3176.72 -1.26292 -1.50149 0
M  V30 34091 O 3175.85 -0.575772 -2.086 0
M  V30 34092 C 3176.44 -3.37757 -0.265632 0
M  V30 34093 C 3175 -3.69944 -0.694166 0
M  V30 34094 C 3174.15 -2.76758 0.173243 0
M  V30 34095 H 3177.1 -1.48442 0.56131 0
M  V30 34096 H 3177.12 -3.6445 -1.09346 0
M  V30 34097 H 3176.63 -3.81297 0.723491 0
M  V30 34098 H 3174.73 -3.31948 -1.69238 0
M  V30 34099 H 3174.84 -4.76635 -0.485377 0
M  V30 34100 H 3173.21 -2.52226 -0.354116 0
M  V30 34101 H 3173.99 -3.23127 1.15946 0
M  V30 34102 N 3176.44 -0.0702223 -1.57443 0
M  V30 34103 C 3177.66 0.608323 -1.97755 0
M  V30 34104 C 3178.08 1.63244 -0.948525 0
M  V30 34105 O 3177.44 1.82384 0.0650139 0
M  V30 34106 C 3177.49 1.2783 -3.38145 0
M  V30 34107 O 3177.21 0.295178 -4.37104 0
M  V30 34108 C 3178.71 2.04482 -3.93322 0
M  V30 34109 H 3175.93 0.164986 -0.6504 0
M  V30 34110 H 3178.47 -0.14216 -2.04005 0
M  V30 34111 H 3176.63 1.97988 -3.32986 0
M  V30 34112 H 3177.04 0.775649 -5.18733 0
M  V30 34113 H 3178.52 2.46753 -4.93778 0
M  V30 34114 H 3178.99 2.90073 -3.29779 0
M  V30 34115 H 3179.6 1.39194 -4.01877 0
M  V30 34116 N 3177.91 1.56283 0.203321 0
M  V30 34117 C 3179.14 1.84594 0.945515 0
M  V30 34118 C 3179.56 0.652803 1.76409 0
M  V30 34119 O 3178.92 -0.398437 1.76868 0
M  V30 34120 C 3178.97 3.1106 1.82411 0
M  V30 34121 O 3178.07 2.91035 2.92186 0
M  V30 34122 H 3177.42 0.608072 0.266728 0
M  V30 34123 H 3179.95 2.03508 0.211122 0
M  V30 34124 H 3179.96 3.4164 2.23038 0
M  V30 34125 H 3178.63 3.97524 1.2226 0
M  V30 34126 H 3177.21 2.71733 2.55373 0
M  V30 34127 N 3179.39 -0.470729 1.50406 0
M  V30 34128 C 3180.8 -1.05159 1.54268 0
M  V30 34129 C 3181.16 -1.93118 0.346393 0
M  V30 34130 O 3180.28 -2.09537 -0.540662 0
M  V30 34131 C 3180.88 -1.91389 2.79563 0
M  V30 34132 C 3179.43 -2.44583 2.86105 0
M  V30 34133 C 3178.58 -1.22937 2.4856 0
M  V30 34134 H 3181.53 -0.253332 1.56665 0
M  V30 34135 H 3181.55 -2.7646 2.61439 0
M  V30 34136 H 3181.07 -1.27344 3.66613 0
M  V30 34137 H 3179.17 -3.12179 2.03408 0
M  V30 34138 H 3179.28 -2.79665 3.89004 0
M  V30 34139 H 3177.64 -1.56425 2.01005 0
M  V30 34140 H 3178.43 -0.605539 3.37917 0
M  V30 34141 N 3180.87 -1.39989 -0.72393 0
M  V30 34142 C 3182.1 -1.41112 -1.51311 0
M  V30 34143 C 3182.51 -0.00856652 -1.88798 0
M  V30 34144 O 3181.87 0.965488 -1.5487 0
M  V30 34145 C 3181.92 -2.29421 -2.79371 0
M  V30 34146 O 3181.64 -3.64216 -2.43472 0
M  V30 34147 C 3183.14 -2.39046 -3.73325 0
M  V30 34148 H 3180.36 -0.481597 -0.467231 0
M  V30 34149 H 3182.91 -1.8394 -0.893662 0
M  V30 34150 H 3181.06 -1.89977 -3.3762 0
M  V30 34151 H 3181.48 -4.1103 -3.25814 0
M  V30 34152 H 3182.95 -3.05061 -4.60045 0
M  V30 34153 H 3183.43 -1.41296 -4.15851 0
M  V30 34154 H 3184.03 -2.79007 -3.20991 0
M  V30 34155 N 3182.35 0.955282 -1.25348 0
M  V30 34156 C 3183.31 2.03342 -1.05757 0
M  V30 34157 C 3184.31 1.60797 -0.0106026 0
M  V30 34158 O 3185.5 1.72357 -0.252729 0
M  V30 34159 C 3182.63 3.35478 -0.605595 0
M  V30 34160 H 3183.83 2.22154 -2.01463 0
M  V30 34161 H 3181.38 1.13228 -1.07746 0
M  V30 34162 H 3182.12 3.22361 0.354097 0
M  V30 34163 H 3181.9 3.67707 -1.36141 0
M  V30 34164 H 3183.39 4.14716 -0.48994 0
M  V30 34165 N 3183.83 1.06924 1.1578 0
M  V30 34166 C 3185.08 0.788224 1.86095 0
M  V30 34167 C 3185.4 -0.687573 1.82476 0
M  V30 34168 O 3184.67 -1.49776 1.26269 0
M  V30 34169 H 3183.25 0.288589 0.689003 0
M  V30 34170 H 3185.91 1.35207 1.40375 0
M  V30 34171 H 3185 1.11885 2.91356 0
M  V30 34172 N 3185.31 -1.32538 0.852723 0
M  V30 34173 C 3186.24 -2.27797 0.253221 0
M  V30 34174 C 3187.25 -1.52347 -0.57395 0
M  V30 34175 O 3188.44 -1.73989 -0.398756 0
M  V30 34176 C 3185.54 -3.32392 -0.660975 0
M  V30 34177 C 3184.71 -4.37207 0.129916 0
M  V30 34178 C 3183.77 -5.21391 -0.709745 0
M  V30 34179 O 3182.8 -5.69018 -0.143956 0
M  V30 34180 N 3184 -5.44042 -2.0248 0
M  V30 34181 H 3186.76 -2.79881 1.07175 0
M  V30 34182 H 3184.33 -1.45378 0.712517 0
M  V30 34183 H 3186.32 -3.85619 -1.22799 0
M  V30 34184 H 3184.89 -2.80481 -1.3802 0
M  V30 34185 H 3184.11 -3.8429 0.878357 0
M  V30 34186 H 3185.4 -5.04326 0.67323 0
M  V30 34187 H 3184.79 -5.07074 -2.50783 0
M  V30 34188 H 3183.35 -6.00273 -2.53999 0
M  V30 34189 N 3186.78 -0.610474 -1.45296 0
M  V30 34190 C 3187.69 0.108434 -2.34349 0
M  V30 34191 C 3188.71 0.85737 -1.51411 0
M  V30 34192 O 3189.89 0.814304 -1.84204 0
M  V30 34193 C 3186.95 1.09138 -3.29074 0
M  V30 34194 C 3186.01 0.344089 -4.27919 0
M  V30 34195 C 3185.24 1.28021 -5.18118 0
M  V30 34196 O 3185.47 2.51815 -5.11806 0
M  V30 34197 O 3184.4 0.775716 -5.9688 0
M  V30 34198 H 3188.23 -0.623474 -2.97231 0
M  V30 34199 H 3185.81 -0.370725 -1.44727 0
M  V30 34200 H 3187.69 1.65744 -3.87436 0
M  V30 34201 H 3186.37 1.80427 -2.68752 0
M  V30 34202 H 3185.28 -0.264502 -3.73164 0
M  V30 34203 H 3186.61 -0.328362 -4.91103 0
M  V30 34204 N 3188.26 1.53669 -0.349801 0
M  V30 34205 C 3189.67 1.86227 0.132783 0
M  V30 34206 C 3190.02 1.27087 1.49477 0
M  V30 34207 O 3189.15 0.586826 2.08291 0
M  V30 34208 C 3189.74 3.37893 0.247716 0
M  V30 34209 C 3188.3 3.70307 0.674538 0
M  V30 34210 C 3187.45 2.76663 -0.187918 0
M  V30 34211 H 3190.4 1.48142 -0.569174 0
M  V30 34212 H 3190.42 3.65025 1.07412 0
M  V30 34213 H 3189.93 3.80908 -0.743702 0
M  V30 34214 H 3188.03 3.3284 1.67476 0
M  V30 34215 H 3188.15 4.76886 0.460093 0
M  V30 34216 H 3186.51 2.52411 0.340734 0
M  V30 34217 H 3187.29 3.22508 -1.17658 0
M  V30 34218 N 3189.74 0.0785709 1.57404 0
M  V30 34219 C 3190.99 -0.587826 1.93362 0
M  V30 34220 C 3191.31 -1.69739 0.959886 0
M  V30 34221 O 3190.58 -1.95898 0.00915174 0
M  V30 34222 H 3189.16 -0.220129 0.713829 0
M  V30 34223 H 3191.82 0.13802 1.94411 0
M  V30 34224 H 3190.92 -1.00875 2.95348 0
M  V30 34225 N 3191.22 -1.56389 -0.19503 0
M  V30 34226 C 3192.63 -1.70545 -0.7597 0
M  V30 34227 C 3192.98 -0.68515 -1.83848 0
M  V30 34228 O 3192.1 0.158419 -2.15819 0
M  V30 34229 C 3192.7 -3.09207 -1.3848 0
M  V30 34230 C 3191.26 -3.25128 -1.89655 0
M  V30 34231 C 3190.41 -2.66495 -0.766516 0
M  V30 34232 H 3193.36 -1.58672 0.0300427 0
M  V30 34233 H 3193.38 -3.0654 -2.25419 0
M  V30 34234 H 3192.89 -3.83443 -0.599411 0
M  V30 34235 H 3190.99 -2.55807 -2.70912 0
M  V30 34236 H 3191.1 -4.32633 -2.05829 0
M  V30 34237 H 3189.47 -2.25674 -1.18082 0
M  V30 34238 H 3190.25 -3.43299 0.00663136 0
M  V30 34239 N 3192.7 0.462746 -1.50653 0
M  V30 34240 C 3193.65 1.55749 -1.66512 0
M  V30 34241 C 3194.63 1.52281 -0.519534 0
M  V30 34242 O 3195.82 1.59164 -0.774324 0
M  V30 34243 C 3192.95 2.94136 -1.77028 0
M  V30 34244 C 3192.04 3.02456 -2.9729 0
M  V30 34245 N 3192.43 2.80571 -4.20848 0
M  V30 34246 C 3190.73 3.33599 -2.9602 0
M  V30 34247 C 3191.43 2.94075 -5.01891 0
M  V30 34248 N 3190.4 3.24641 -4.36015 0
M  V30 34249 H 3194.2 1.37541 -2.5973 0
M  V30 34250 H 3191.72 0.669627 -1.47952 0
M  V30 34251 H 3193.72 3.72861 -1.86494 0
M  V30 34252 H 3192.38 3.13384 -0.849743 0
M  V30 34253 H 3193.39 2.5599 -4.5021 0
M  V30 34254 H 3190.06 3.58782 -2.13499 0
M  V30 34255 H 3191.45 2.81324 -6.10169 0
M  V30 34256 N 3194.17 1.40371 0.716495 0
M  V30 34257 C 3195.59 1.34429 1.2956 0
M  V30 34258 C 3195.94 0.0173451 1.96192 0
M  V30 34259 O 3195.06 -0.884684 1.9749 0
M  V30 34260 C 3195.66 2.43474 2.35596 0
M  V30 34261 C 3194.22 2.40995 2.89134 0
M  V30 34262 C 3193.36 2.244 1.62911 0
M  V30 34263 H 3196.31 1.50191 0.512688 0
M  V30 34264 H 3196.33 2.11329 3.16418 0
M  V30 34265 H 3195.85 3.40038 1.87071 0
M  V30 34266 H 3193.95 1.48126 3.41891 0
M  V30 34267 H 3194.06 3.36546 3.40989 0
M  V30 34268 H 3192.42 1.71899 1.87944 0
M  V30 34269 H 3193.21 3.2296 1.16412 0
M  V30 34270 N 3195.65 -0.948621 1.25853 0
M  V30 34271 C 3196.58 -2.04977 1.02552 0
M  V30 34272 C 3197.6 -1.62796 -0.0115636 0
M  V30 34273 O 3198.79 -1.77042 0.227674 0
M  V30 34274 C 3195.89 -3.34737 0.529545 0
M  V30 34275 C 3195.06 -4.05726 1.63417 0
M  V30 34276 C 3194.12 -5.13758 1.13752 0
M  V30 34277 O 3193.14 -5.38874 1.83312 0
M  V30 34278 N 3194.35 -5.80497 -0.0180131 0
M  V30 34279 H 3197.11 -2.25534 1.97369 0
M  V30 34280 H 3194.67 -1.11759 1.17139 0
M  V30 34281 H 3196.66 -4.04292 0.181637 0
M  V30 34282 H 3195.23 -3.10908 -0.324839 0
M  V30 34283 H 3194.45 -3.30187 2.15337 0
M  V30 34284 H 3195.74 -4.4991 2.3761 0
M  V30 34285 H 3195.14 -5.62519 -0.599099 0
M  V30 34286 H 3193.7 -6.51077 -0.306904 0
M  V30 34287 N 3197.13 -1.07536 -1.15212 0
M  V30 34288 C 3198.38 -0.798082 -1.85675 0
M  V30 34289 C 3198.7 0.677887 -1.82838 0
M  V30 34290 O 3197.97 1.49104 -1.27062 0
M  V30 34291 H 3196.55 -0.292239 -0.687463 0
M  V30 34292 H 3199.21 -1.3595 -1.39656 0
M  V30 34293 H 3198.31 -1.13428 -2.90758 0
M  V30 34294 N 3198.61 1.32084 -0.85974 0
M  V30 34295 C 3199.83 2.01795 -0.478901 0
M  V30 34296 C 3200.26 1.64164 0.918246 0
M  V30 34297 O 3199.62 0.844924 1.60408 0
M  V30 34298 C 3199.66 3.55029 -0.631419 0
M  V30 34299 O 3198.77 4.11048 0.333639 0
M  V30 34300 H 3198.11 0.6357 -0.191786 0
M  V30 34301 H 3200.64 1.68515 -1.16034 0
M  V30 34302 H 3200.65 4.04662 -0.520854 0
M  V30 34303 H 3199.32 3.8176 -1.65022 0
M  V30 34304 H 3197.9 3.72471 0.178887 0
M  V30 34305 N 3200.09 0.618171 1.4497 0
M  V30 34306 C 3201.33 0.117285 2.01759 0
M  V30 34307 C 3201.66 -1.2606 1.48775 0
M  V30 34308 O 3200.93 -1.83489 0.686184 0
M  V30 34309 H 3199.51 0.0403676 0.745908 0
M  V30 34310 H 3202.17 0.801954 1.77636 0
M  V30 34311 H 3201.26 0.0751026 3.1201 0
M  V30 34312 N 3201.56 -1.53481 0.357946 0
M  V30 34313 C 3202.79 -2.06033 -0.237733 0
M  V30 34314 C 3203.21 -1.23026 -1.42289 0
M  V30 34315 O 3202.57 -0.247459 -1.79603 0
M  V30 34316 C 3202.62 -3.55287 -0.616744 0
M  V30 34317 O 3201.72 -3.7505 -1.71497 0
M  V30 34318 H 3201.07 -0.663 -0.0364205 0
M  V30 34319 H 3203.6 -1.97978 0.516336 0
M  V30 34320 H 3203.61 -3.98177 -0.88989 0
M  V30 34321 H 3202.28 -4.15149 0.249898 0
M  V30 34322 H 3200.86 -3.44059 -1.43797 0
M  V30 34323 N 3203.04 -0.0869173 -1.5736 0
M  V30 34324 C 3204.29 0.579564 -1.94342 0
M  V30 34325 C 3204.62 1.6834 -0.968268 0
M  V30 34326 O 3203.9 1.945 4.87768e-05 0
M  V30 34327 C 3204.18 1.14239 -3.41499 0
M  V30 34328 C 3204.03 0.044176 -4.49778 0
M  V30 34329 C 3205.35 2.0433 -3.89792 0
M  V30 34330 H 3202.47 0.209208 -0.706683 0
M  V30 34331 H 3205.11 -0.155964 -1.89359 0
M  V30 34332 H 3203.26 1.76923 -3.45876 0
M  V30 34333 H 3204.93 -0.58967 -4.57516 0
M  V30 34334 H 3203.18 -0.623282 -4.29299 0
M  V30 34335 H 3203.85 0.478652 -5.49921 0
M  V30 34336 H 3206.32 1.51562 -3.87515 0
M  V30 34337 H 3205.2 2.4064 -4.93339 0
M  V30 34338 H 3205.46 2.95751 -3.28608 0
M  V30 34339 N 3204.52 1.5649 0.186734 0
M  V30 34340 C 3205.47 1.96106 1.2508 0
M  V30 34341 C 3206.46 0.847634 1.46668 0
M  V30 34342 O 3207.67 1.03268 1.4743 0
M  V30 34343 H 3204.04 0.623708 0.42011 0
M  V30 34344 H 3206.01 2.84827 0.889711 0
M  V30 34345 C 3204.76 2.32396 2.58626 0
M  V30 34346 H 3204.09 3.17604 2.42833 0
M  V30 34347 H 3205.53 2.63973 3.31805 0
M  V30 34348 C 3203.99 1.16165 3.16239 0
M  V30 34349 O 3204.52 0.441104 3.99271 0
M  V30 34350 N 3202.72 0.936255 2.75105 0
M  V30 34351 H 3202.27 1.52394 2.07687 0
M  V30 34352 H 3202.23 0.160373 3.13991 0
M  V30 34353 N 3206 -0.45475 1.50897 0
M  V30 34354 C 3207.25 -1.20321 1.6238 0
M  V30 34355 C 3207.57 -1.9212 0.333917 0
M  V30 34356 O 3206.84 -1.84822 -0.649444 0
M  V30 34357 H 3205.42 -0.447128 0.598402 0
M  V30 34358 H 3208.08 -0.523069 1.8775 0
M  V30 34359 H 3207.18 -1.94227 2.44299 0
M  V30 34360 N 3207.48 -1.40749 -0.709041 0
M  V30 34361 C 3208.7 -1.42904 -1.5031 0
M  V30 34362 C 3209.13 -0.0322461 -1.88072 0
M  V30 34363 O 3208.48 0.961283 -1.53717 0
M  V30 34364 C 3208.53 -2.33171 -2.7507 0
M  V30 34365 O 3207.64 -1.77947 -3.72033 0
M  V30 34366 H 3206.98 -0.485546 -0.452925 0
M  V30 34367 H 3209.51 -1.85055 -0.87268 0
M  V30 34368 H 3209.52 -2.48584 -3.23528 0
M  V30 34369 H 3208.19 -3.34668 -2.46921 0
M  V30 34370 H 3206.77 -1.71914 -3.30908 0
M  V30 34371 N 3208.96 0.941933 -1.26354 0
M  V30 34372 C 3210.37 1.50285 -1.10776 0
M  V30 34373 C 3210.72 1.937 0.312194 0
M  V30 34374 O 3209.84 1.7984 1.20361 0
M  V30 34375 C 3210.44 2.7312 -2.00477 0
M  V30 34376 C 3209 3.25481 -1.89047 0
M  V30 34377 C 3208.14 1.98264 -1.93873 0
M  V30 34378 H 3211.09 0.757498 -1.39455 0
M  V30 34379 H 3211.12 3.47399 -1.55222 0
M  V30 34380 H 3210.63 2.4149 -3.03816 0
M  V30 34381 H 3208.73 3.61903 -0.886405 0
M  V30 34382 H 3208.84 3.92638 -2.74539 0
M  V30 34383 H 3207.21 2.14129 -1.37916 0
M  V30 34384 H 3207.99 1.68967 -2.9884 0
M  V30 34385 N 3210.43 1.08146 1.1464 0
M  V30 34386 C 3211.36 0.730648 2.21774 0
M  V30 34387 C 3212.34 -0.285672 1.67684 0
M  V30 34388 O 3213.53 -0.156633 1.93567 0
M  V30 34389 C 3210.66 0.136303 3.47032 0
M  V30 34390 C 3209.61 1.08067 4.14132 0
M  V30 34391 C 3208.94 0.348679 5.33562 0
M  V30 34392 C 3210.24 2.41769 4.62974 0
M  V30 34393 H 3211.93 1.62637 2.51375 0
M  V30 34394 H 3209.48 0.783432 1.20824 0
M  V30 34395 H 3211.43 -0.121108 4.21226 0
M  V30 34396 H 3210.16 -0.794544 3.16788 0
M  V30 34397 H 3208.82 1.32314 3.4189 0
M  V30 34398 H 3208.46 -0.585887 4.99576 0
M  V30 34399 H 3208.16 0.978224 5.794 0
M  V30 34400 H 3209.69 0.0992582 6.10519 0
M  V30 34401 H 3211.1 2.21804 5.28655 0
M  V30 34402 H 3209.5 3.00392 5.19504 0
M  V30 34403 H 3210.57 3.03488 3.78184 0
M  V30 34404 N 3211.91 -1.31626 0.866732 0
M  V30 34405 C 3212.84 -2.31073 0.335802 0
M  V30 34406 C 3213.82 -1.6021 -0.571569 0
M  V30 34407 O 3215.01 -1.87936 -0.489273 0
M  V30 34408 C 3212.14 -3.44155 -0.466355 0
M  V30 34409 C 3211.09 -4.26586 0.347636 0
M  V30 34410 C 3210.42 -5.31545 -0.580007 0
M  V30 34411 C 3211.72 -4.9783 1.57995 0
M  V30 34412 H 3213.41 -2.75729 1.16678 0
M  V30 34413 H 3210.96 -1.32559 0.562503 0
M  V30 34414 H 3212.91 -4.12774 -0.848287 0
M  V30 34415 H 3211.63 -2.98257 -1.33081 0
M  V30 34416 H 3210.29 -3.5963 0.711473 0
M  V30 34417 H 3209.94 -4.81898 -1.44165 0
M  V30 34418 H 3209.64 -5.87587 -0.0392932 0
M  V30 34419 H 3211.17 -6.03024 -0.958852 0
M  V30 34420 H 3212.58 -5.59064 1.26964 0
M  V30 34421 H 3210.98 -5.63653 2.05949 0
M  V30 34422 H 3212.05 -4.25001 2.33457 0
M  V30 34423 N 3213.39 -0.62585 -1.4464 0
M  V30 34424 C 3214.61 -0.13341 -2.0697 0
M  V30 34425 C 3215.04 1.18076 -1.46423 0
M  V30 34426 O 3214.4 1.72314 -0.563706 0
M  V30 34427 C 3214.45 -0.0265731 -3.6059 0
M  V30 34428 O 3213.55 1.01882 -3.99617 0
M  V30 34429 H 3212.89 -0.0823684 -0.658871 0
M  V30 34430 H 3215.42 -0.861035 -1.856 0
M  V30 34431 H 3215.43 0.165728 -4.07663 0
M  V30 34432 H 3214.11 -0.986057 -4.04042 0
M  V30 34433 H 3212.68 0.801513 -3.64184 0
M  V30 34434 N 3214.87 1.53289 -0.36608 0
M  V30 34435 C 3216.1 2.05682 0.224199 0
M  V30 34436 C 3216.51 1.23955 1.4241 0
M  V30 34437 O 3215.87 0.280341 1.80334 0
M  V30 34438 C 3215.92 3.56192 0.617203 0
M  V30 34439 O 3215.64 4.34821 -0.535007 0
M  V30 34440 C 3217.14 4.24843 1.26582 0
M  V30 34441 H 3214.36 0.669849 0.039281 0
M  V30 34442 H 3216.9 1.97657 -0.524594 0
M  V30 34443 H 3215.06 3.64366 1.31591 0
M  V30 34444 H 3215.47 5.2405 -0.217215 0
M  V30 34445 H 3216.95 5.31472 1.49136 0
M  V30 34446 H 3217.42 3.78595 2.22627 0
M  V30 34447 H 3218.03 4.20924 0.608526 0
M  V30 34448 N 3216.35 0.0952613 1.57312 0
M  V30 34449 C 3217.57 -0.580171 1.9912 0
M  V30 34450 C 3218 -1.6092 0.973983 0
M  V30 34451 O 3217.35 -1.81209 -0.057502 0
M  V30 34452 C 3217.4 -1.20432 3.39895 0
M  V30 34453 O 3216.51 -2.32013 3.40945 0
M  V30 34454 H 3215.85 -0.147183 0.647482 0
M  V30 34455 H 3218.38 0.176721 2.03835 0
M  V30 34456 H 3218.39 -1.54558 3.77592 0
M  V30 34457 H 3217.06 -0.450442 4.13454 0
M  V30 34458 H 3215.64 -1.99505 3.15043 0
M  V30 34459 N 3217.82 -1.56587 -0.178432 0
M  V30 34460 C 3219.07 -1.8123 -0.894433 0
M  V30 34461 C 3219.39 -0.671095 -1.83088 0
M  V30 34462 O 3218.66 0.309523 -1.93439 0
M  V30 34463 H 3217.24 -0.668533 -0.333276 0
M  V30 34464 H 3219.9 -1.94067 -0.179951 0
M  V30 34465 H 3219 -2.75014 -1.4756 0
M  V30 34466 N 3219.3 0.446741 -1.51136 0
M  V30 34467 C 3220.26 1.52403 -1.7119 0
M  V30 34468 C 3221.26 1.49895 -0.582064 0
M  V30 34469 O 3222.45 1.52084 -0.849478 0
M  V30 34470 C 3219.59 2.91973 -1.75968 0
M  V30 34471 H 3220.78 1.35929 -2.67326 0
M  V30 34472 H 3218.33 0.674788 -1.40983 0
M  V30 34473 H 3219.07 3.13863 -0.81612 0
M  V30 34474 H 3218.85 2.95199 -2.5807 0
M  V30 34475 H 3220.34 3.70141 -1.93354 0
M  V30 34476 N 3220.78 1.41123 0.701567 0
M  V30 34477 C 3222 1.43699 1.4955 0
M  V30 34478 C 3222.43 0.0422196 1.88053 0
M  V30 34479 O 3221.79 -0.953117 1.54225 0
M  V30 34480 C 3221.84 2.34626 2.7383 0
M  V30 34481 O 3220.94 1.79917 3.71084 0
M  V30 34482 H 3220.28 0.487941 0.450344 0
M  V30 34483 H 3222.81 1.85515 0.862853 0
M  V30 34484 H 3222.82 2.50296 3.22205 0
M  V30 34485 H 3221.5 3.35973 2.45143 0
M  V30 34486 H 3220.07 1.73667 3.29991 0
M  V30 34487 N 3222.26 -0.935219 1.26852 0
M  V30 34488 C 3223.49 -1.71633 1.15541 0
M  V30 34489 C 3223.9 -1.8658 -0.288665 0
M  V30 34490 O 3223.26 -1.37745 -1.19719 0
M  V30 34491 C 3223.31 -3.11995 1.82595 0
M  V30 34492 O 3223.03 -2.97757 3.2136 0
M  V30 34493 C 3224.53 -4.06294 1.77315 0
M  V30 34494 H 3221.75 -0.537201 0.402064 0
M  V30 34495 H 3224.29 -1.172 1.67584 0
M  V30 34496 H 3222.45 -3.63311 1.34476 0
M  V30 34497 H 3222.86 -3.8644 3.54633 0
M  V30 34498 H 3224.34 -5.02322 2.28859 0
M  V30 34499 H 3224.81 -4.32906 0.7409 0
M  V30 34500 H 3225.42 -3.609 2.25013 0
M  V30 34501 N 3223.74 -1.08752 -1.14065 0
M  V30 34502 C 3225.15 -0.839807 -1.66746 0
M  V30 34503 C 3225.5 0.632876 -1.85712 0
M  V30 34504 O 3224.62 1.48838 -1.57087 0
M  V30 34505 C 3225.22 -1.51792 -3.02894 0
M  V30 34506 C 3223.78 -1.31736 -3.52594 0
M  V30 34507 C 3222.92 -1.57845 -2.27992 0
M  V30 34508 H 3225.88 -1.24763 -0.980816 0
M  V30 34509 H 3225.9 -0.947122 -3.68524 0
M  V30 34510 H 3225.41 -2.58974 -2.89057 0
M  V30 34511 H 3223.51 -0.266404 -3.71646 0
M  V30 34512 H 3223.62 -2.04743 -4.33148 0
M  V30 34513 H 3221.99 -1.00019 -2.3424 0
M  V30 34514 H 3222.77 -2.66241 -2.16727 0
M  V30 34515 N 3225.21 1.31165 -0.873701 0
M  V30 34516 C 3226.46 1.96181 -0.485531 0
M  V30 34517 C 3226.78 1.69381 0.96618 0
M  V30 34518 O 3226.05 1.01124 1.67782 0
M  V30 34519 H 3224.63 0.725834 -0.17656 0
M  V30 34520 H 3227.3 1.59904 -1.11431 0
M  V30 34521 H 3226.39 3.05333 -0.646379 0
M  V30 34522 N 3226.69 0.633512 1.44307 0
M  V30 34523 C 3228.11 0.299338 1.56768 0
M  V30 34524 C 3228.31 -1.19741 1.62063 0
M  V30 34525 O 3227.36 -1.98155 1.56496 0
M  V30 34526 C 3228.68 0.993357 2.83818 0
M  V30 34527 C 3230.23 0.971727 2.97534 0
M  V30 34528 C 3230.7 1.64626 4.2739 0
M  V30 34529 N 3232.19 1.61296 4.34209 0
M  V30 34530 C 3232.93 2.10379 5.33412 0
M  V30 34531 N 3232.42 2.67664 6.39005 0
M  V30 34532 N 3234.22 2.00994 5.24936 0
M  V30 34533 H 3226.37 1.60504 1.39113 0
M  V30 34534 H 3228.63 0.673863 0.666792 0
M  V30 34535 H 3228.34 2.04829 2.85899 0
M  V30 34536 H 3228.21 0.532603 3.73421 0
M  V30 34537 H 3230.6 -0.0747335 2.95005 0
M  V30 34538 H 3230.68 1.47099 2.09274 0
M  V30 34539 H 3230.32 2.69218 4.30679 0
M  V30 34540 H 3230.25 1.1218 5.14513 0
M  V30 34541 H 3232.74 1.19474 3.58517 0
M  V30 34542 H 3233.06 3.02844 7.10989 0
M  V30 34543 H 3231.4 2.71716 6.39684 0
M  V30 34544 H 3234.59 1.55961 4.41355 0
M  V30 34545 H 3234.76 2.39557 6.02093 0
M  V30 34546 N 3228.17 -1.53093 0.374204 0
M  V30 34547 C 3229.42 -2.00981 -0.21236 0
M  V30 34548 C 3229.74 -1.26296 -1.48574 0
M  V30 34549 O 3229.01 -0.378676 -1.92205 0
M  V30 34550 H 3227.59 -0.742545 -0.0814632 0
M  V30 34551 H 3230.25 -1.88313 0.502423 0
M  V30 34552 H 3229.35 -3.09078 -0.433262 0
M  V30 34553 N 3229.65 -0.103603 -1.57259 0
M  V30 34554 C 3230.9 0.55699 -1.94273 0
M  V30 34555 C 3231.22 1.6819 -0.986768 0
M  V30 34556 O 3230.49 1.95859 -0.0403162 0
M  V30 34557 H 3229.07 0.208745 -0.717241 0
M  V30 34558 H 3231.73 -0.168932 -1.94167 0
M  V30 34559 H 3230.83 0.961638 -2.96916 0
M  V30 34560 N 3231.13 1.56679 0.170126 0
M  V30 34561 C 3232.54 1.50824 0.521939 0
M  V30 34562 C 3232.74 0.80807 1.84587 0
M  V30 34563 O 3231.8 0.368935 2.4979 0
M  V30 34564 C 3233.11 2.9556 0.553596 0
M  V30 34565 C 3234.66 3.06372 0.640715 0
M  V30 34566 C 3235.13 4.52569 0.703253 0
M  V30 34567 N 3236.63 4.56821 0.76611 0
M  V30 34568 C 3237.36 5.67286 0.835092 0
M  V30 34569 N 3236.86 6.87381 0.864836 0
M  V30 34570 N 3238.65 5.5526 0.874204 0
M  V30 34571 H 3230.8 2.00604 -0.697988 0
M  V30 34572 H 3233.06 0.913947 -0.251803 0
M  V30 34573 H 3232.77 3.49949 -0.350559 0
M  V30 34574 H 3232.64 3.5027 1.39967 0
M  V30 34575 H 3235.03 2.52017 1.5353 0
M  V30 34576 H 3235.11 2.54745 -0.232053 0
M  V30 34577 H 3234.76 5.07555 -0.187075 0
M  V30 34578 H 3234.69 5.01953 1.59218 0
M  V30 34579 H 3237.18 3.70355 0.751359 0
M  V30 34580 H 3237.49 7.6732 0.91868 0
M  V30 34581 H 3235.83 6.89989 0.833094 0
M  V30 34582 H 3239.03 4.60355 0.847976 0
M  V30 34583 H 3239.2 6.41371 0.924502 0
M  V30 34584 N 3232.6 -0.43872 1.5137 0
M  V30 34585 C 3234.02 -0.775091 1.39515 0
M  V30 34586 C 3234.22 -1.95787 0.476414 0
M  V30 34587 O 3233.28 -2.52406 -0.0689388 0
M  V30 34588 C 3234.59 -1.05676 2.81519 0
M  V30 34589 C 3236.14 -1.16128 2.9066 0
M  V30 34590 C 3236.61 -1.47589 4.33568 0
M  V30 34591 N 3238.1 -1.54516 4.36668 0
M  V30 34592 C 3238.84 -1.80428 5.44273 0
M  V30 34593 N 3238.33 -2.04142 6.62041 0
M  V30 34594 N 3240.13 -1.82199 5.31752 0
M  V30 34595 H 3232.28 0.340274 2.09657 0
M  V30 34596 H 3234.54 0.0898281 0.943735 0
M  V30 34597 H 3234.25 -0.260379 3.50735 0
M  V30 34598 H 3234.12 -1.98475 3.20761 0
M  V30 34599 H 3236.51 -1.94829 2.21643 0
M  V30 34600 H 3236.59 -0.212331 2.54917 0
M  V30 34601 H 3236.23 -0.694163 5.03134 0
M  V30 34602 H 3236.16 -2.43688 4.66823 0
M  V30 34603 H 3238.65 -1.38099 3.51763 0
M  V30 34604 H 3238.97 -2.2328 7.39842 0
M  V30 34605 H 3237.31 -2.01467 6.65159 0
M  V30 34606 H 3240.5 -1.63191 4.38733 0
M  V30 34607 H 3240.68 -2.02056 6.15693 0
M  V30 34608 N 3234.08 -1.41493 -0.694073 0
M  V30 34609 C 3235.01 -1.39392 -1.81941 0
M  V30 34610 C 3236.03 -0.295864 -1.60089 0
M  V30 34611 O 3237.22 -0.557688 -1.69564 0
M  V30 34612 C 3234.32 -1.15173 -3.18729 0
M  V30 34613 C 3233.49 -2.37047 -3.67597 0
M  V30 34614 C 3232.55 -2.08662 -4.8306 0
M  V30 34615 O 3231.57 -2.81712 -4.94598 0
M  V30 34616 N 3232.78 -1.0778 -5.70407 0
M  V30 34617 H 3235.54 -2.36384 -1.84235 0
M  V30 34618 H 3233.1 -1.36125 -0.876451 0
M  V30 34619 H 3235.09 -0.941333 -3.936 0
M  V30 34620 H 3233.66 -0.267727 -3.11451 0
M  V30 34621 H 3232.88 -2.73779 -2.83617 0
M  V30 34622 H 3234.17 -3.18246 -3.96985 0
M  V30 34623 H 3233.57 -0.473223 -5.63717 0
M  V30 34624 H 3232.13 -0.927291 -6.4517 0
M  V30 34625 N 3235.56 0.928479 -1.27346 0
M  V30 34626 C 3236.49 2.04601 -1.12521 0
M  V30 34627 C 3237.47 1.70079 -0.0268862 0
M  V30 34628 O 3238.66 1.93155 -0.201231 0
M  V30 34629 C 3235.79 3.38638 -0.770808 0
M  V30 34630 C 3234.74 3.87269 -1.82227 0
M  V30 34631 C 3234.07 5.18103 -1.32187 0
M  V30 34632 C 3235.37 4.10746 -3.22621 0
M  V30 34633 H 3237.06 2.17262 -2.06004 0
M  V30 34634 H 3234.61 1.04396 -0.991845 0
M  V30 34635 H 3236.56 4.16295 -0.653916 0
M  V30 34636 H 3235.28 3.25989 0.199732 0
M  V30 34637 H 3233.94 3.11804 -1.92805 0
M  V30 34638 H 3233.59 5.01844 -0.340807 0
M  V30 34639 H 3233.29 5.5161 -2.02484 0
M  V30 34640 H 3234.81 5.98331 -1.2179 0
M  V30 34641 H 3236.23 4.78976 -3.15048 0
M  V30 34642 H 3234.63 4.55559 -3.90622 0
M  V30 34643 H 3235.7 3.1607 -3.67733 0
M  V30 34644 N 3237.04 1.09355 1.13486 0
M  V30 34645 C 3238.45 0.848638 1.66298 0
M  V30 34646 C 3238.8 -0.623019 1.86045 0
M  V30 34647 O 3237.93 -1.48003 1.57874 0
M  V30 34648 C 3238.52 1.53397 3.02084 0
M  V30 34649 C 3237.08 1.33604 3.5189 0
M  V30 34650 C 3236.23 1.59052 2.27151 0
M  V30 34651 H 3239.18 1.25281 0.974186 0
M  V30 34652 H 3239.2 0.966652 3.68016 0
M  V30 34653 H 3238.71 2.60503 2.8768 0
M  V30 34654 H 3236.81 0.28611 3.715 0
M  V30 34655 H 3236.92 2.07038 4.32056 0
M  V30 34656 H 3235.29 1.0126 2.33706 0
M  V30 34657 H 3236.07 2.67386 2.15312 0
M  V30 34658 N 3238.52 -1.307 0.880644 0
M  V30 34659 C 3239.45 -2.27209 0.301483 0
M  V30 34660 C 3240.46 -1.5353 -0.541506 0
M  V30 34661 O 3241.65 -1.74796 -0.36176 0
M  V30 34662 C 3238.75 -3.33719 -0.590321 0
M  V30 34663 C 3237.92 -4.36833 0.222625 0
M  V30 34664 C 3236.98 -5.2278 -0.598991 0
M  V30 34665 O 3236.01 -5.69195 -0.0232266 0
M  V30 34666 N 3237.21 -5.48215 -1.90895 0
M  V30 34667 H 3239.98 -2.77545 1.13088 0
M  V30 34668 H 3237.54 -1.43834 0.743193 0
M  V30 34669 H 3239.53 -3.88137 -1.14592 0
M  V30 34670 H 3238.1 -2.83345 -1.32039 0
M  V30 34671 H 3237.32 -3.8234 0.959673 0
M  V30 34672 H 3238.61 -5.02785 0.780053 0
M  V30 34673 H 3238.01 -5.1228 -2.39971 0
M  V30 34674 H 3236.56 -6.05526 -2.41209 0
M  V30 34675 N 3240 -0.641156 -1.43969 0
M  V30 34676 C 3241.22 -0.157043 -2.06303 0
M  V30 34677 C 3241.64 1.17246 -1.47983 0
M  V30 34678 O 3241 1.72127 -0.606501 0
M  V30 34679 C 3241.05 -0.046906 -3.6147 0
M  V30 34680 O 3240.77 -1.32384 -4.1762 0
M  V30 34681 C 3242.27 0.464717 -4.40857 0
M  V30 34682 H 3239.49 -0.0843063 -0.665683 0
M  V30 34683 H 3242.03 -0.878395 -1.84674 0
M  V30 34684 H 3240.19 0.624939 -3.82326 0
M  V30 34685 H 3240.6 -1.17518 -5.11165 0
M  V30 34686 H 3242.08 0.490765 -5.49814 0
M  V30 34687 H 3242.55 1.49372 -4.13019 0
M  V30 34688 H 3243.16 -0.174221 -4.24943 0
M  V30 34689 N 3241.47 1.52892 -0.382318 0
M  V30 34690 C 3242.88 1.86467 0.0932513 0
M  V30 34691 C 3243.24 1.30229 1.46748 0
M  V30 34692 O 3242.36 0.630876 2.07 0
M  V30 34693 C 3242.96 3.38343 0.175988 0
M  V30 34694 C 3241.51 3.71654 0.595838 0
M  V30 34695 C 3240.66 2.76202 -0.24656 0
M  V30 34696 H 3243.61 1.46902 -0.600469 0
M  V30 34697 H 3243.63 3.67221 0.996447 0
M  V30 34698 H 3243.15 3.79245 -0.824331 0
M  V30 34699 H 3241.25 3.36318 1.60378 0
M  V30 34700 H 3241.36 4.77754 0.358835 0
M  V30 34701 H 3239.72 2.53077 0.287118 0
M  V30 34702 H 3240.51 3.1994 -1.24473 0
M  V30 34703 N 3242.95 0.111941 1.57202 0
M  V30 34704 C 3243.88 -0.837645 2.17958 0
M  V30 34705 C 3244.86 -1.28231 1.11762 0
M  V30 34706 O 3246.05 -1.34618 1.3997 0
M  V30 34707 C 3243.18 -2.09049 2.77337 0
M  V30 34708 C 3242.13 -1.78386 3.89053 0
M  V30 34709 C 3241.46 -3.10641 4.35208 0
M  V30 34710 C 3242.76 -1.05766 5.11479 0
M  V30 34711 H 3244.45 -0.331389 2.9756 0
M  V30 34712 H 3242 -0.157954 1.43131 0
M  V30 34713 H 3243.95 -2.75931 3.18497 0
M  V30 34714 H 3242.67 -2.61987 1.95014 0
M  V30 34715 H 3241.33 -1.13896 3.48458 0
M  V30 34716 H 3240.98 -3.61499 3.49753 0
M  V30 34717 H 3240.68 -2.90901 5.10539 0
M  V30 34718 H 3242.21 -3.78653 4.79014 0
M  V30 34719 H 3243.62 -1.62789 5.49702 0
M  V30 34720 H 3242.02 -0.961469 5.92348 0
M  V30 34721 H 3243.09 -0.0432118 4.84881 0
M  V30 34722 N 3244.43 -1.56767 -0.161814 0
M  V30 34723 C 3245.66 -1.86674 -0.892214 0
M  V30 34724 C 3246.07 -0.698441 -1.75406 0
M  V30 34725 O 3245.43 0.33222 -1.79451 0
M  V30 34726 C 3245.48 -3.15699 -1.76115 0
M  V30 34727 O 3245.2 -4.28027 -0.934056 0
M  V30 34728 C 3246.7 -3.59018 -2.6004 0
M  V30 34729 H 3243.92 -0.61911 -0.258736 0
M  V30 34730 H 3246.47 -2.03881 -0.159053 0
M  V30 34731 H 3244.62 -3.0029 -2.44754 0
M  V30 34732 H 3245.04 -5.01712 -1.52922 0
M  V30 34733 H 3246.51 -4.52175 -3.1661 0
M  V30 34734 H 3246.99 -2.83592 -3.35369 0
M  V30 34735 H 3247.59 -3.77071 -1.96717 0
M  V30 34736 N 3245.91 0.430686 -1.51601 0
M  V30 34737 C 3247.32 1.01032 -1.57001 0
M  V30 34738 C 3247.67 1.92132 -0.397473 0
M  V30 34739 O 3246.79 2.10897 0.484917 0
M  V30 34740 C 3247.39 1.8391 -2.84539 0
M  V30 34741 C 3245.95 2.36911 -2.92489 0
M  V30 34742 C 3245.1 1.16303 -2.51732 0
M  V30 34743 H 3248.05 0.211706 -1.57282 0
M  V30 34744 H 3248.07 2.69431 -2.68677 0
M  V30 34745 H 3247.58 1.17579 -3.6986 0
M  V30 34746 H 3245.68 3.06677 -2.11613 0
M  V30 34747 H 3245.79 2.69253 -3.96282 0
M  V30 34748 H 3244.16 1.51041 -2.05082 0
M  V30 34749 H 3244.94 0.515733 -3.39404 0
M  V30 34750 N 3247.39 1.4186 0.686559 0
M  V30 34751 C 3248.8 1.24527 0.998261 0
M  V30 34752 C 3249 0.141043 2.01006 0
M  V30 34753 O 3248.06 -0.491604 2.47668 0
M  V30 34754 C 3249.37 2.59789 1.51428 0
M  V30 34755 C 3250.92 2.67046 1.63265 0
M  V30 34756 C 3251.39 4.02646 2.18266 0
M  V30 34757 N 3252.88 4.04539 2.25615 0
M  V30 34758 C 3253.62 5.06269 2.69221 0
M  V30 34759 N 3253.12 6.18385 3.12364 0
M  V30 34760 N 3254.91 4.93628 2.68865 0
M  V30 34761 H 3247.06 2.12394 0.0164452 0
M  V30 34762 H 3249.32 0.945424 0.0698447 0
M  V30 34763 H 3249.03 3.41389 0.845366 0
M  V30 34764 H 3248.9 2.82898 2.49497 0
M  V30 34765 H 3251.29 1.85799 2.29266 0
M  V30 34766 H 3251.37 2.47737 0.637177 0
M  V30 34767 H 3251.01 4.84345 1.52879 0
M  V30 34768 H 3250.94 4.193 3.18583 0
M  V30 34769 H 3253.44 3.23594 1.9518 0
M  V30 34770 H 3253.75 6.9187 3.44289 0
M  V30 34771 H 3252.09 6.21908 3.10251 0
M  V30 34772 H 3255.28 4.05119 2.34514 0
M  V30 34773 H 3255.46 5.73045 3.02529 0
M  V30 34774 N 3248.86 -0.921712 1.27837 0
M  V30 34775 C 3250.27 -1.48503 1.13153 0
M  V30 34776 C 3250.63 -1.94172 -0.281339 0
M  V30 34777 O 3249.75 -1.81732 -1.17484 0
M  V30 34778 C 3250.35 -2.69896 2.04797 0
M  V30 34779 C 3248.9 -3.22432 1.94202 0
M  V30 34780 C 3248.05 -1.95155 1.97002 0
M  V30 34781 H 3251 -0.735216 1.40642 0
M  V30 34782 H 3251.02 -3.44886 1.6073 0
M  V30 34783 H 3250.54 -2.36626 3.0762 0
M  V30 34784 H 3248.64 -3.60447 0.943868 0
M  V30 34785 H 3248.75 -3.88221 2.80751 0
M  V30 34786 H 3247.11 -2.11908 1.41305 0
M  V30 34787 H 3247.9 -1.64191 3.0149 0
M  V30 34788 N 3250.34 -1.09956 -1.12905 0
M  V30 34789 C 3251.57 -0.861132 -1.88678 0
M  V30 34790 C 3251.99 0.582467 -1.78854 0
M  V30 34791 O 3251.35 1.40978 -1.13995 0
M  V30 34792 C 3251.4 -1.30791 -3.36045 0
M  V30 34793 O 3250.5 -0.4698 -4.09715 0
M  V30 34794 H 3249.84 -0.311421 -0.586441 0
M  V30 34795 H 3252.37 -1.46509 -1.42815 0
M  V30 34796 H 3252.38 -1.29569 -3.8688 0
M  V30 34797 H 3251.06 -2.35921 -3.42512 0
M  V30 34798 H 3249.63 -0.546805 -3.68869 0
M  V30 34799 N 3251.82 1.30231 -0.887563 0
M  V30 34800 C 3253.07 1.95318 -0.503356 0
M  V30 34801 C 3253.38 1.70825 0.952787 0
M  V30 34802 O 3254.59 2.29918 1.44396 0
M  V30 34803 C 3253.04 3.49736 -0.849277 0
M  V30 34804 C 3252.65 3.83045 -2.32337 0
M  V30 34805 C 3254.4 4.21123 -0.534394 0
M  V30 34806 C 3252.3 5.30653 -2.61078 0
M  V30 34807 H 3251.23 0.731075 -0.184513 0
M  V30 34808 H 3253.88 1.48141 -1.08289 0
M  V30 34809 H 3252.27 3.95501 -0.198798 0
M  V30 34810 H 3253.44 3.48182 -3.01838 0
M  V30 34811 H 3251.75 3.24768 -2.60605 0
M  V30 34812 H 3254.35 5.29747 -0.726132 0
M  V30 34813 H 3254.69 4.12959 0.526361 0
M  V30 34814 H 3255.23 3.8105 -1.14218 0
M  V30 34815 H 3251.97 5.4387 -3.65904 0
M  V30 34816 H 3251.49 5.66807 -1.96189 0
M  V30 34817 H 3253.17 5.98115 -2.46713 0
M  V30 34818 N 3253.3 0.648782 1.43627 0
M  V30 34819 C 3254.53 0.167981 2.06217 0
M  V30 34820 C 3254.94 -1.16459 1.48602 0
M  V30 34821 O 3254.3 -1.71803 0.615621 0
M  V30 34822 C 3254.35 0.066075 3.6144 0
M  V30 34823 O 3254.07 1.34597 4.16912 0
M  V30 34824 C 3255.57 -0.441331 4.41098 0
M  V30 34825 H 3252.79 0.0878354 0.665226 0
M  V30 34826 H 3255.34 0.888177 1.84206 0
M  V30 34827 H 3253.49 -0.604655 3.82652 0
M  V30 34828 H 3253.9 1.20227 5.10535 0
M  V30 34829 H 3255.38 -0.4616 5.50067 0
M  V30 34830 H 3255.86 -1.4718 4.13805 0
M  V30 34831 H 3256.46 0.196754 4.24845 0
M  V30 34832 N 3254.78 -1.52688 0.390421 0
M  V30 34833 C 3256.01 -2.05714 -0.191171 0
M  V30 34834 C 3256.41 -1.2619 -1.4097 0
M  V30 34835 O 3255.76 -0.30197 -1.81201 0
M  V30 34836 C 3255.82 -3.5403 -0.624732 0
M  V30 34837 C 3255.48 -4.54467 0.480493 0
M  V30 34838 C 3256.48 -5.02381 1.33825 0
M  V30 34839 C 3254.17 -4.98105 0.647842 0
M  V30 34840 C 3256.16 -5.92559 2.34847 0
M  V30 34841 C 3253.85 -5.88082 1.6614 0
M  V30 34842 C 3254.84 -6.35202 2.51013 0
M  V30 34843 O 3254.53 -7.23402 3.50635 0
M  V30 34844 H 3254.26 -0.675232 -0.0322091 0
M  V30 34845 H 3256.82 -1.97775 0.554466 0
M  V30 34846 H 3255.05 -3.59591 -1.42236 0
M  V30 34847 H 3256.74 -3.89792 -1.13212 0
M  V30 34848 H 3257.5 -4.69398 1.22027 0
M  V30 34849 H 3253.38 -4.61 -0.00306408 0
M  V30 34850 H 3256.93 -6.2926 3.01128 0
M  V30 34851 H 3252.82 -6.2048 1.77975 0
M  V30 34852 H 3253.59 -7.41466 3.46657 0
M  V30 34853 N 3256.25 -0.120276 -1.5714 0
M  V30 34854 C 3257.2 0.82946 -2.1538 0
M  V30 34855 C 3258.17 1.26268 -1.07915 0
M  V30 34856 O 3259.36 1.33997 -1.35829 0
M  V30 34857 C 3256.5 2.07366 -2.75851 0
M  V30 34858 C 3255.61 1.68868 -3.97627 0
M  V30 34859 C 3254.74 2.88264 -4.46181 0
M  V30 34860 C 3253.78 2.46013 -5.60486 0
M  V30 34861 N 3252.92 3.58327 -6.03777 0
M  V30 34862 H 3257.76 0.325979 -2.96212 0
M  V30 34863 H 3255.3 0.149209 -1.46341 0
M  V30 34864 H 3257.26 2.80266 -3.09041 0
M  V30 34865 H 3255.89 2.5517 -1.97707 0
M  V30 34866 H 3254.94 0.858366 -3.70589 0
M  V30 34867 H 3256.25 1.33819 -4.80514 0
M  V30 34868 H 3255.4 3.69388 -4.81287 0
M  V30 34869 H 3254.14 3.26542 -3.62246 0
M  V30 34870 H 3253.15 1.63322 -5.24982 0
M  V30 34871 H 3254.37 2.08851 -6.46187 0
M  V30 34872 H 3252.32 3.96275 -5.22783 0
M  V30 34873 H 3252.24 3.27205 -6.81523 0
M  V30 34874 H 3253.5 4.39887 -6.43521 0
M  V30 34875 N 3257.73 1.56851 0.153498 0
M  V30 34876 C 3258.96 1.87144 0.882302 0
M  V30 34877 C 3259.38 0.707733 1.75033 0
M  V30 34878 O 3258.73 -0.322698 1.79624 0
M  V30 34879 C 3258.78 3.16628 1.74438 0
M  V30 34880 O 3258.5 4.28516 0.911343 0
M  V30 34881 C 3260.01 3.60392 2.58133 0
M  V30 34882 H 3257.23 0.620473 0.255449 0
M  V30 34883 H 3259.77 2.03962 0.148239 0
M  V30 34884 H 3257.92 3.01584 2.43158 0
M  V30 34885 H 3258.34 5.02516 1.50259 0
M  V30 34886 H 3259.81 4.53848 3.14207 0
M  V30 34887 H 3260.29 2.85366 3.3386 0
M  V30 34888 H 3260.9 3.78109 1.94715 0
M  V30 34889 N 3259.21 -0.42264 1.51827 0
M  V30 34890 C 3260.17 -1.4966 1.73593 0
M  V30 34891 C 3261.17 -1.48951 0.605837 0
M  V30 34892 O 3262.36 -1.50713 0.873566 0
M  V30 34893 C 3259.5 -2.89137 1.8059 0
M  V30 34894 H 3260.69 -1.31659 2.69455 0
M  V30 34895 H 3258.24 -0.652273 1.42039 0
M  V30 34896 H 3258.98 -3.12525 0.86595 0
M  V30 34897 H 3258.76 -2.91056 2.62734 0
M  V30 34898 H 3260.25 -3.67018 1.99218 0
M  V30 34899 N 3260.69 -1.42222 -0.679027 0
M  V30 34900 C 3261.64 -1.45597 -1.81395 0
M  V30 34901 C 3262.63 -0.332157 -1.66112 0
M  V30 34902 O 3263.84 -0.504973 -1.72772 0
M  V30 34903 H 3260.21 -0.455912 -0.598037 0
M  V30 34904 H 3262.18 -2.41214 -1.75666 0
M  V30 34905 C 3260.93 -1.37114 -3.19523 0
M  V30 34906 H 3260.25 -2.22884 -3.31908 0
M  V30 34907 H 3261.69 -1.43538 -3.98965 0
M  V30 34908 C 3260.15 -0.0854185 -3.36792 0
M  V30 34909 O 3260.68 0.863464 -3.9231 0
M  V30 34910 N 3258.89 -0.00394337 -2.906 0
M  V30 34911 H 3258.44 -0.776889 -2.45606 0
M  V30 34912 H 3258.39 0.855689 -3.02532 0
M  V30 34913 N 3262.17 0.91492 -1.28324 0
M  V30 34914 C 3263.39 1.70302 -1.18373 0
M  V30 34915 C 3263.82 1.86374 0.254258 0
M  V30 34916 O 3263.17 1.37303 1.18395 0
M  V30 34917 C 3263.22 3.07342 -1.88608 0
M  V30 34918 O 3262.33 3.94775 -1.19275 0
M  V30 34919 H 3261.67 0.521522 -0.410987 0
M  V30 34920 H 3264.2 1.14406 -1.69624 0
M  V30 34921 H 3264.21 3.57581 -1.96469 0
M  V30 34922 H 3262.88 2.94962 -2.93207 0
M  V30 34923 H 3261.46 3.5321 -1.1957 0
M  V30 34924 N 3263.64 1.10553 1.1232 0
M  V30 34925 C 3264.87 0.871126 1.88218 0
M  V30 34926 C 3265.29 -0.572974 1.79161 0
M  V30 34927 O 3264.65 -1.40372 1.14741 0
M  V30 34928 C 3264.7 1.32571 3.35347 0
M  V30 34929 O 3263.8 0.491522 4.0946 0
M  V30 34930 H 3263.15 0.314526 0.584781 0
M  V30 34931 H 3265.68 1.47265 1.42036 0
M  V30 34932 H 3265.69 1.31619 3.86187 0
M  V30 34933 H 3264.36 2.37734 3.41256 0
M  V30 34934 H 3262.94 0.566359 3.68574 0
M  V30 34935 N 3265.12 -1.29758 0.894457 0
M  V30 34936 C 3266.53 -1.77884 0.566923 0
M  V30 34937 C 3266.88 -1.73438 -0.917258 0
M  V30 34938 O 3266.01 -1.31706 -1.71705 0
M  V30 34939 C 3266.6 -3.23008 1.02232 0
M  V30 34940 C 3265.16 -3.68932 0.746043 0
M  V30 34941 C 3264.31 -2.49992 1.19998 0
M  V30 34942 H 3267.26 -1.16494 1.07772 0
M  V30 34943 H 3267.28 -3.78837 0.355348 0
M  V30 34944 H 3266.79 -3.26212 2.10256 0
M  V30 34945 H 3264.9 -3.71208 -0.321801 0
M  V30 34946 H 3265.01 -4.59972 1.34025 0
M  V30 34947 H 3263.37 -2.47061 0.61909 0
M  V30 34948 H 3264.16 -2.55927 2.28815 0
M  V30 34949 N 3266.6 -0.65639 -1.4328 0
M  V30 34950 C 3267.85 -0.168389 -2.00996 0
M  V30 34951 C 3268.16 1.22599 -1.5241 0
M  V30 34952 O 3269.37 1.80937 -2.0242 0
M  V30 34953 C 3267.82 -0.250225 -3.59029 0
M  V30 34954 C 3267.43 -1.64749 -4.16607 0
M  V30 34955 C 3269.18 0.180009 -4.24118 0
M  V30 34956 C 3267.08 -1.68309 -5.66945 0
M  V30 34957 H 3266.01 -0.0591901 -0.751673 0
M  V30 34958 H 3268.66 -0.818888 -1.64215 0
M  V30 34959 H 3267.05 0.467839 -3.93227 0
M  V30 34960 H 3268.22 -2.39116 -3.93903 0
M  V30 34961 H 3266.54 -2.02398 -3.63901 0
M  V30 34962 H 3269.13 0.173307 -5.34419 0
M  V30 34963 H 3269.48 1.21201 -3.98266 0
M  V30 34964 H 3270.01 -0.486412 -3.94815 0
M  V30 34965 H 3266.75 -2.69429 -5.97568 0
M  V30 34966 H 3266.27 -0.982714 -5.91695 0
M  V30 34967 H 3267.95 -1.42825 -6.31039 0
M  V30 34968 N 3268.08 1.52478 -0.398513 0
M  V30 34969 C 3269.03 2.23529 0.449304 0
M  V30 34970 C 3270.01 1.24261 1.02215 0
M  V30 34971 O 3271.21 1.49553 0.946731 0
M  V30 34972 C 3268.33 3.05237 1.57115 0
M  V30 34973 C 3267.42 4.11908 1.00959 0
M  V30 34974 N 3267.81 5.05501 0.173766 0
M  V30 34975 C 3266.11 4.27203 1.28116 0
M  V30 34976 C 3266.81 5.81537 -0.137493 0
M  V30 34977 N 3265.79 5.41574 0.468877 0
M  V30 34978 H 3269.59 2.93248 -0.195706 0
M  V30 34979 H 3267.1 1.61058 -0.208333 0
M  V30 34980 H 3269.1 3.54683 2.19102 0
M  V30 34981 H 3267.76 2.37056 2.21889 0
M  V30 34982 H 3268.77 5.17552 -0.189709 0
M  V30 34983 H 3265.45 3.70251 1.92927 0
M  V30 34984 H 3266.84 6.66935 -0.815276 0
M  V30 34985 N 3269.56 0.128608 1.57074 0
M  V30 34986 C 3270.8 -0.527053 1.95521 0
M  V30 34987 C 3271.13 -1.66071 1.01246 0
M  V30 34988 O 3270.39 -1.95663 0.038142 0
M  V30 34989 C 3270.69 -1.09132 3.40331 0
M  V30 34990 C 3270.35 -0.0780246 4.50832 0
M  V30 34991 C 3269.01 0.200578 4.80782 0
M  V30 34992 C 3271.37 0.612011 5.17594 0
M  V30 34993 C 3268.69 1.17534 5.74807 0
M  V30 34994 C 3271.05 1.57546 6.12668 0
M  V30 34995 C 3269.71 1.86196 6.41005 0
M  V30 34996 H 3268.98 -0.192862 0.715461 0
M  V30 34997 H 3271.63 0.211548 1.90328 0
M  V30 34998 H 3269.93 -1.90688 3.42265 0
M  V30 34999 H 3271.63 -1.6069 3.67396 0
M  V30 35000 H 3268.22 -0.305355 4.27511 0
M  V30 35001 H 3272.4 0.409947 4.94604 0
M  V30 35002 H 3267.66 1.40394 5.95063 0
M  V30 35003 H 3271.83 2.11577 6.63482 0
M  V30 35004 H 3269.46 2.61881 7.13668 0
M  V30 35005 N 3271.04 -1.5693 -0.145178 0
M  V30 35006 C 3272 -1.97494 -1.16313 0
M  V30 35007 C 3273 -0.861692 -1.35763 0
M  V30 35008 O 3274.19 -1.12827 -1.32724 0
M  V30 35009 C 3271.32 -2.29247 -2.52307 0
M  V30 35010 H 3272.51 -2.88611 -0.815087 0
M  V30 35011 H 3270.07 -1.51393 -0.388583 0
M  V30 35012 H 3270.8 -1.40927 -2.92079 0
M  V30 35013 H 3270.59 -3.10416 -2.3955 0
M  V30 35014 H 3272.08 -2.61461 -3.25619 0
M  V30 35015 N 3272.51 0.414582 -1.52049 0
M  V30 35016 C 3273.76 1.15974 -1.65513 0
M  V30 35017 C 3274.08 1.91167 -0.384737 0
M  V30 35018 O 3273.35 1.86479 0.600214 0
M  V30 35019 H 3271.93 0.431105 -0.610047 0
M  V30 35020 H 3274.59 0.473106 -1.89071 0
M  V30 35021 H 3273.69 1.87682 -2.49363 0
M  V30 35022 N 3273.99 1.4258 0.671475 0
M  V30 35023 C 3274.95 1.46011 1.76673 0
M  V30 35024 C 3275.95 0.347241 1.57006 0
M  V30 35025 O 3277.14 0.608213 1.63237 0
M  V30 35026 C 3274.28 1.29499 3.15346 0
M  V30 35027 H 3275.47 2.43534 1.75017 0
M  V30 35028 H 3273.02 1.29076 0.881421 0
M  V30 35029 H 3273.76 0.329117 3.22626 0
M  V30 35030 H 3273.54 2.10155 3.31025 0
M  V30 35031 H 3275.03 1.34791 3.95248 0
M  V30 35032 N 3275.47 -0.908102 1.28807 0
M  V30 35033 C 3276.4 -2.01611 1.09022 0
M  V30 35034 C 3277.41 -1.6275 0.0402345 0
M  V30 35035 O 3278.6 -1.76228 0.283884 0
M  V30 35036 C 3275.7 -3.32883 0.635771 0
M  V30 35037 C 3274.88 -4.00322 1.76242 0
M  V30 35038 C 3273.94 -5.09879 1.30039 0
M  V30 35039 O 3272.96 -5.32769 2.00363 0
M  V30 35040 N 3274.16 -5.80261 0.166677 0
M  V30 35041 H 3276.93 -2.19141 2.04444 0
M  V30 35042 H 3274.49 -1.07976 1.20635 0
M  V30 35043 H 3276.48 -4.0351 0.310168 0
M  V30 35044 H 3275.05 -3.11784 -0.225761 0
M  V30 35045 H 3274.27 -3.23169 2.25733 0
M  V30 35046 H 3275.56 -4.42123 2.51804 0
M  V30 35047 H 3274.96 -5.6414 -0.419835 0
M  V30 35048 H 3273.51 -6.51724 -0.0996135 0
M  V30 35049 N 3276.95 -1.11147 -1.11732 0
M  V30 35050 C 3278.18 -0.880844 -1.87213 0
M  V30 35051 C 3278.59 0.569163 -1.80017 0
M  V30 35052 O 3277.95 1.39281 -1.17928 0
M  V30 35053 C 3278 -1.33004 -3.36143 0
M  V30 35054 O 3277.72 -2.72319 -3.43182 0
M  V30 35055 C 3279.22 -1.13438 -4.2854 0
M  V30 35056 H 3276.44 -0.315656 -0.592117 0
M  V30 35057 H 3278.98 -1.47802 -1.41332 0
M  V30 35058 H 3277.14 -0.776375 -3.79541 0
M  V30 35059 H 3277.55 -2.91712 -4.35895 0
M  V30 35060 H 3279.03 -1.49773 -5.31293 0
M  V30 35061 H 3279.5 -0.0736631 -4.39138 0
M  V30 35062 H 3280.11 -1.67487 -3.90932 0
M  V30 35063 N 3278.43 1.29282 -0.901326 0
M  V30 35064 C 3279.65 2.00169 -0.542858 0
M  V30 35065 C 3280.08 1.67002 0.865553 0
M  V30 35066 O 3279.43 0.895529 1.57639 0
M  V30 35067 C 3279.48 3.5284 -0.744049 0
M  V30 35068 O 3278.59 4.11902 0.202699 0
M  V30 35069 H 3277.93 0.629276 -0.211914 0
M  V30 35070 H 3280.46 1.64738 -1.21336 0
M  V30 35071 H 3280.47 4.028 -0.64933 0
M  V30 35072 H 3279.14 3.76316 -1.77084 0
M  V30 35073 H 3277.72 3.72851 0.0602982 0
M  V30 35074 N 3279.9 0.663979 1.4293 0
M  V30 35075 C 3280.83 -0.00727223 2.33499 0
M  V30 35076 C 3281.81 -0.800706 1.50076 0
M  V30 35077 O 3283 -0.760031 1.7871 0
M  V30 35078 C 3280.13 -0.966839 3.33571 0
M  V30 35079 C 3279.08 -0.282764 4.27065 0
M  V30 35080 C 3278.41 -1.35452 5.17259 0
M  V30 35081 C 3279.71 0.831529 5.15638 0
M  V30 35082 H 3281.4 0.749095 2.89877 0
M  V30 35083 H 3278.95 0.36168 1.39384 0
M  V30 35084 H 3280.9 -1.44542 3.95835 0
M  V30 35085 H 3279.63 -1.7545 2.75472 0
M  V30 35086 H 3278.29 0.175481 3.6618 0
M  V30 35087 H 3277.93 -2.13389 4.55493 0
M  V30 35088 H 3277.63 -0.901996 5.80636 0
M  V30 35089 H 3279.16 -1.83426 5.82398 0
M  V30 35090 H 3280.57 0.434634 5.7165 0
M  V30 35091 H 3278.97 1.20918 5.87791 0
M  V30 35092 H 3280.04 1.68495 4.54684 0
M  V30 35093 N 3281.38 -1.52265 0.406593 0
M  V30 35094 C 3282.79 -1.86592 -0.0635742 0
M  V30 35095 C 3283.14 -1.32547 -1.44657 0
M  V30 35096 O 3282.27 -0.663728 -2.0597 0
M  V30 35097 C 3282.86 -3.3858 -0.122138 0
M  V30 35098 C 3281.42 -3.72555 -0.536636 0
M  V30 35099 C 3280.57 -2.75774 0.29047 0
M  V30 35100 H 3283.52 -1.45928 0.623764 0
M  V30 35101 H 3283.54 -3.6876 -0.937899 0
M  V30 35102 H 3283.05 -3.77885 0.884561 0
M  V30 35103 H 3281.15 -3.38827 -1.55007 0
M  V30 35104 H 3281.27 -4.78265 -0.282783 0
M  V30 35105 H 3279.63 -2.53501 -0.246819 0
M  V30 35106 H 3280.41 -3.17919 1.29547 0
M  V30 35107 N 3282.86 -0.136936 -1.57004 0
M  V30 35108 C 3283.82 0.792381 -2.15067 0
M  V30 35109 C 3284.82 1.18225 -1.08994 0
M  V30 35110 O 3286.01 1.10481 -1.34683 0
M  V30 35111 C 3283.15 2.07392 -2.70557 0
M  V30 35112 H 3284.34 0.287467 -2.98519 0
M  V30 35113 H 3281.89 0.112442 -1.55895 0
M  V30 35114 H 3282.63 2.62273 -1.90744 0
M  V30 35115 H 3282.41 1.80368 -3.48152 0
M  V30 35116 H 3283.9 2.73786 -3.15326 0
M  V30 35117 N 3284.34 1.57005 0.136853 0
M  V30 35118 C 3285.59 1.83901 0.847743 0
M  V30 35119 C 3285.91 0.719364 1.80708 0
M  V30 35120 O 3285.17 -0.290804 1.93527 0
M  V30 35121 C 3285.47 3.17186 1.64705 0
M  V30 35122 C 3285.13 4.43127 0.833605 0
M  V30 35123 C 3283.8 4.77328 0.609222 0
M  V30 35124 C 3286.15 5.20524 0.265413 0
M  V30 35125 C 3283.48 5.8638 -0.193896 0
M  V30 35126 C 3285.83 6.30419 -0.524799 0
M  V30 35127 C 3284.49 6.63163 -0.759664 0
M  V30 35128 H 3283.76 0.672941 0.310211 0
M  V30 35129 H 3286.41 1.91179 0.110903 0
M  V30 35130 H 3284.71 3.05404 2.45429 0
M  V30 35131 H 3286.41 3.35214 2.20075 0
M  V30 35132 H 3283 4.16321 1.01857 0
M  V30 35133 H 3287.18 4.94468 0.426022 0
M  V30 35134 H 3282.44 6.10185 -0.38526 0
M  V30 35135 H 3286.61 6.89581 -0.972154 0
M  V30 35136 H 3284.24 7.47499 -1.38382 0
M  V30 35137 N 3285.82 -0.406513 1.52267 0
M  V30 35138 C 3287.04 -1.17942 1.706 0
M  V30 35139 C 3287.47 -1.83446 0.415825 0
M  V30 35140 O 3286.82 -1.70115 -0.626938 0
M  V30 35141 C 3286.87 -2.21628 2.84453 0
M  V30 35142 O 3285.98 -3.27828 2.50205 0
M  V30 35143 H 3285.32 -0.344167 0.567843 0
M  V30 35144 H 3287.85 -0.476176 1.98982 0
M  V30 35145 H 3287.86 -2.65914 3.09441 0
M  V30 35146 H 3286.53 -1.73335 3.78058 0
M  V30 35147 H 3285.11 -2.88803 2.35897 0
M  V30 35148 N 3287.29 -1.42934 -0.663904 0
M  V30 35149 C 3288.71 -1.39145 -1.24481 0
M  V30 35150 C 3289.06 -0.0901487 -1.95993 0
M  V30 35151 O 3288.18 0.810777 -2.00637 0
M  V30 35152 C 3288.78 -2.52051 -2.26398 0
M  V30 35153 C 3287.34 -2.5156 -2.7999 0
M  V30 35154 C 3286.48 -2.30291 -1.54471 0
M  V30 35155 H 3289.43 -1.5199 -0.456593 0
M  V30 35156 H 3289.45 -2.22927 -3.08357 0
M  V30 35157 H 3288.97 -3.46747 -1.74322 0
M  V30 35158 H 3287.07 -1.60713 -3.36158 0
M  V30 35159 H 3287.18 -3.4897 -3.28263 0
M  V30 35160 H 3285.54 -1.78756 -1.81434 0
M  V30 35161 H 3286.33 -3.27058 -1.04345 0
M  V30 35162 N 3288.77 0.901258 -1.29287 0
M  V30 35163 C 3290.02 1.64834 -1.16936 0
M  V30 35164 C 3290.34 1.92982 0.279792 0
M  V30 35165 O 3289.61 1.5548 1.19176 0
M  V30 35166 H 3288.19 0.610982 -0.429779 0
M  V30 35167 H 3290.85 1.08074 -1.62191 0
M  V30 35168 H 3289.95 2.60542 -1.71826 0
M  V30 35169 N 3290.25 1.11738 1.11141 0
M  V30 35170 C 3291.67 0.851929 1.3496 0
M  V30 35171 C 3291.87 -0.521763 1.94628 0
M  V30 35172 O 3290.92 -1.27195 2.18123 0
M  V30 35173 C 3292.24 1.96252 2.27828 0
M  V30 35174 C 3293.78 1.99255 2.41385 0
M  V30 35175 C 3294.26 3.09525 3.37577 0
M  V30 35176 N 3295.75 3.0892 3.45141 0
M  V30 35177 C 3296.48 3.90884 4.19521 0
M  V30 35178 N 3295.98 4.82817 4.96849 0
M  V30 35179 N 3297.77 3.79049 4.15064 0
M  V30 35180 H 3289.92 2.00261 0.707766 0
M  V30 35181 H 3292.19 0.87104 0.374157 0
M  V30 35182 H 3291.89 2.95197 1.91184 0
M  V30 35183 H 3291.77 1.86137 3.28074 0
M  V30 35184 H 3294.15 1.00933 2.77302 0
M  V30 35185 H 3294.24 2.13444 1.4098 0
M  V30 35186 H 3293.88 4.08075 3.02386 0
M  V30 35187 H 3293.81 2.92575 4.37844 0
M  V30 35188 H 3296.3 2.42314 2.89987 0
M  V30 35189 H 3296.61 5.41886 5.50981 0
M  V30 35190 H 3294.96 4.86837 4.95999 0
M  V30 35191 H 3298.15 3.06568 3.53743 0
M  V30 35192 H 3298.32 4.43158 4.72773 0
M  V30 35193 N 3291.73 -1.28802 0.90817 0
M  V30 35194 C 3292.66 -2.29887 0.409146 0
M  V30 35195 C 3293.64 -1.61947 -0.52031 0
M  V30 35196 O 3294.82 -1.89397 -0.429235 0
M  V30 35197 C 3291.95 -3.45464 -0.356629 0
M  V30 35198 C 3290.91 -4.25264 0.483175 0
M  V30 35199 C 3290.23 -5.33121 -0.410606 0
M  V30 35200 C 3291.53 -4.92552 1.73753 0
M  V30 35201 H 3293.23 -2.71878 1.25391 0
M  V30 35202 H 3290.77 -1.30702 0.604391 0
M  V30 35203 H 3292.73 -4.15263 -0.716537 0
M  V30 35204 H 3291.45 -3.02339 -1.23525 0
M  V30 35205 H 3290.11 -3.57184 0.825527 0
M  V30 35206 H 3289.76 -4.8624 -1.28761 0
M  V30 35207 H 3289.46 -5.87414 0.147663 0
M  V30 35208 H 3290.98 -6.0577 -0.766519 0
M  V30 35209 H 3292.4 -5.54742 1.44686 0
M  V30 35210 H 3290.79 -5.56816 2.23777 0
M  V30 35211 H 3291.86 -4.17359 2.4686 0
M  V30 35212 N 3293.21 -0.67155 -1.42576 0
M  V30 35213 C 3294.43 -0.199188 -2.06441 0
M  V30 35214 C 3294.86 1.13357 -1.50106 0
M  V30 35215 O 3294.21 1.70433 -0.618241 0
M  V30 35216 C 3294.26 -0.141279 -3.60323 0
M  V30 35217 O 3293.37 0.891168 -4.02656 0
M  V30 35218 H 3292.71 -0.103288 -0.655917 0
M  V30 35219 H 3295.24 -0.919646 -1.82767 0
M  V30 35220 H 3295.25 0.0359492 -4.07984 0
M  V30 35221 H 3293.92 -1.1141 -4.007 0
M  V30 35222 H 3292.5 0.685245 -3.6655 0
M  V30 35223 N 3294.68 1.52047 -0.414663 0
M  V30 35224 C 3296.1 1.59464 -0.0658086 0
M  V30 35225 C 3296.3 1.42716 1.42248 0
M  V30 35226 O 3295.36 1.2569 2.18994 0
M  V30 35227 C 3296.67 2.95331 -0.56567 0
M  V30 35228 C 3298.22 3.0858 -0.524126 0
M  V30 35229 C 3298.69 4.46937 -1.00059 0
M  V30 35230 N 3300.18 4.53193 -0.957635 0
M  V30 35231 C 3300.92 5.58529 -1.29742 0
M  V30 35232 N 3300.41 6.71392 -1.70895 0
M  V30 35233 N 3302.21 5.48766 -1.21704 0
M  V30 35234 H 3294.36 1.61181 -1.38328 0
M  V30 35235 H 3296.62 0.758546 -0.568606 0
M  V30 35236 H 3296.33 3.12886 -1.6061 0
M  V30 35237 H 3296.2 3.77194 0.0217072 0
M  V30 35238 H 3298.59 2.90707 0.507268 0
M  V30 35239 H 3298.67 2.28611 -1.14763 0
M  V30 35240 H 3298.31 4.65553 -2.03034 0
M  V30 35241 H 3298.24 5.2541 -0.353846 0
M  V30 35242 H 3300.73 3.72178 -0.655145 0
M  V30 35243 H 3301.05 7.47762 -1.95119 0
M  V30 35244 H 3299.39 6.72658 -1.74803 0
M  V30 35245 H 3302.58 4.59477 -0.894367 0
M  V30 35246 H 3302.76 6.30751 -1.48515 0
M  V30 35247 N 3296.16 0.145261 1.56929 0
M  V30 35248 C 3297.41 -0.505286 1.95682 0
M  V30 35249 C 3297.73 -1.65515 1.03101 0
M  V30 35250 O 3297 -1.95683 0.0922305 0
M  V30 35251 H 3295.58 -0.189655 0.722523 0
M  V30 35252 H 3298.24 0.220352 1.9365 0
M  V30 35253 H 3297.34 -0.882578 2.99361 0
M  V30 35254 N 3297.64 -1.57075 -0.128525 0
M  V30 35255 C 3298.57 -2.02677 -1.15949 0
M  V30 35256 C 3299.55 -0.909527 -1.43742 0
M  V30 35257 O 3300.74 -1.1786 -1.54346 0
M  V30 35258 C 3297.87 -2.42304 -2.48809 0
M  V30 35259 C 3296.82 -3.57385 -2.35499 0
M  V30 35260 C 3296.15 -3.82882 -3.73236 0
M  V30 35261 C 3297.45 -4.89434 -1.8235 0
M  V30 35262 H 3299.14 -2.89055 -0.780232 0
M  V30 35263 H 3296.69 -1.39062 -0.373872 0
M  V30 35264 H 3298.64 -2.7281 -3.21174 0
M  V30 35265 H 3297.36 -1.52886 -2.88606 0
M  V30 35266 H 3296.02 -3.27074 -1.65584 0
M  V30 35267 H 3295.67 -2.90684 -4.10502 0
M  V30 35268 H 3295.37 -4.60339 -3.65187 0
M  V30 35269 H 3296.9 -4.15831 -4.47121 0
M  V30 35270 H 3298.31 -5.18537 -2.44524 0
M  V30 35271 H 3296.71 -5.70825 -1.85146 0
M  V30 35272 H 3297.78 -4.78579 -0.780394 0
M  V30 35273 N 3299.12 0.398432 -1.5248 0
M  V30 35274 C 3300.34 1.17036 -1.71223 0
M  V30 35275 C 3300.77 1.83223 -0.425548 0
M  V30 35276 O 3300.13 1.70445 0.617908 0
M  V30 35277 C 3300.18 2.20116 -2.85624 0
M  V30 35278 O 3299.28 3.26497 -2.5194 0
M  V30 35279 H 3298.62 0.34115 -0.56966 0
M  V30 35280 H 3301.15 0.465617 -1.99231 0
M  V30 35281 H 3301.16 2.64269 -3.10847 0
M  V30 35282 H 3299.84 1.71327 -3.78972 0
M  V30 35283 H 3298.41 2.87548 -2.37425 0
M  V30 35284 N 3300.6 1.43284 0.656314 0
M  V30 35285 C 3301.51 1.50642 1.79844 0
M  V30 35286 C 3302.52 0.393744 1.69486 0
M  V30 35287 O 3303.7 0.647413 1.90711 0
M  V30 35288 C 3300.76 1.42404 3.16104 0
M  V30 35289 C 3299.83 2.64318 3.38282 0
M  V30 35290 C 3299.06 2.56463 4.68041 0
M  V30 35291 O 3299.28 1.61066 5.47187 0
M  V30 35292 O 3298.22 3.46911 4.9187 0
M  V30 35293 H 3302.04 2.47081 1.76591 0
M  V30 35294 H 3299.63 1.25251 0.814406 0
M  V30 35295 H 3301.51 1.4024 3.9738 0
M  V30 35296 H 3300.18 0.490985 3.19955 0
M  V30 35297 H 3299.09 2.72054 2.56783 0
M  V30 35298 H 3300.42 3.56585 3.39276 0
M  V30 35299 N 3302.08 -0.894389 1.29763 0
M  V30 35300 C 3303.03 -1.98615 1.11965 0
M  V30 35301 C 3304.01 -1.60856 0.0375235 0
M  V30 35302 O 3305.2 -1.75083 0.25982 0
M  V30 35303 C 3302.33 -3.33758 0.803767 0
M  V30 35304 C 3301.42 -3.7786 1.92569 0
M  V30 35305 N 3301.81 -3.94146 3.1699 0
M  V30 35306 C 3300.11 -4.07179 1.81993 0
M  V30 35307 C 3300.81 -4.31397 3.9022 0
M  V30 35308 N 3299.78 -4.40737 3.18201 0
M  V30 35309 H 3303.58 -2.09284 2.06343 0
M  V30 35310 H 3301.1 -1.08357 1.20965 0
M  V30 35311 H 3303.1 -4.11686 0.657295 0
M  V30 35312 H 3301.76 -3.24431 -0.132041 0
M  V30 35313 H 3302.77 -3.79533 3.52385 0
M  V30 35314 H 3299.44 -4.06379 0.957184 0
M  V30 35315 H 3300.83 -4.51799 4.9732 0
M  V30 35316 N 3303.55 -1.12326 -1.10547 0
M  V30 35317 C 3304.5 -0.785287 -2.18943 0
M  V30 35318 C 3305.5 0.227359 -1.67867 0
M  V30 35319 O 3306.7 0.0856846 -1.79796 0
M  V30 35320 H 3303.08 -0.236111 -0.713972 0
M  V30 35321 H 3305.05 -1.70792 -2.44689 0
M  V30 35322 C 3303.8 -0.254911 -3.46764 0
M  V30 35323 H 3303.12 -1.02541 -3.86426 0
M  V30 35324 H 3304.56 -0.0567271 -4.23962 0
M  V30 35325 C 3303.02 1.01689 -3.21187 0
M  V30 35326 O 3303.55 2.09491 -3.42748 0
M  V30 35327 N 3301.75 0.943375 -2.74861 0
M  V30 35328 H 3301.3 0.0659914 -2.57515 0
M  V30 35329 H 3301.26 1.79496 -2.58125 0
M  V30 35330 N 3305.03 1.28319 -0.914988 0
M  V30 35331 C 3305.99 2.2552 -0.409063 0
M  V30 35332 C 3306.99 1.53921 0.4653 0
M  V30 35333 O 3308.18 1.72123 0.26818 0
M  V30 35334 C 3305.32 3.38384 0.413393 0
M  V30 35335 H 3306.51 2.71789 -1.26771 0
M  V30 35336 H 3304.06 1.40023 -0.694501 0
M  V30 35337 H 3304.8 2.97479 1.29139 0
M  V30 35338 H 3304.58 3.91519 -0.213337 0
M  V30 35339 H 3306.07 4.1066 0.75816 0
M  V30 35340 N 3306.51 0.679102 1.42218 0
M  V30 35341 C 3307.44 0.0174939 2.33493 0
M  V30 35342 C 3308.42 -0.784744 1.50916 0
M  V30 35343 O 3309.61 -0.741034 1.79506 0
M  V30 35344 C 3306.74 -0.931404 3.34578 0
M  V30 35345 C 3305.69 -0.237452 4.27341 0
M  V30 35346 C 3305.02 -1.29958 5.18666 0
M  V30 35347 C 3306.32 0.886172 5.14727 0
M  V30 35348 H 3308.01 0.779798 2.89067 0
M  V30 35349 H 3305.56 0.376443 1.38992 0
M  V30 35350 H 3307.51 -1.40336 3.97346 0
M  V30 35351 H 3306.23 -1.72518 2.77318 0
M  V30 35352 H 3304.89 0.21431 3.65973 0
M  V30 35353 H 3304.54 -2.08546 4.57731 0
M  V30 35354 H 3304.24 -0.840361 5.8156 0
M  V30 35355 H 3305.76 -1.77238 5.84311 0
M  V30 35356 H 3307.18 0.495241 5.71157 0
M  V30 35357 H 3305.57 1.27146 5.86476 0
M  V30 35358 H 3306.64 1.73308 4.52871 0
M  V30 35359 N 3307.99 -1.51825 0.42272 0
M  V30 35360 C 3308.92 -2.30273 -0.386872 0
M  V30 35361 C 3309.9 -1.35058 -1.03409 0
M  V30 35362 O 3311.08 -1.63972 -1.04052 0
M  V30 35363 C 3308.21 -3.13409 -1.4964 0
M  V30 35364 C 3307.17 -4.16783 -0.973458 0
M  V30 35365 C 3306.49 -4.88348 -2.17762 0
M  V30 35366 C 3307.79 -5.22297 -0.0180276 0
M  V30 35367 H 3309.49 -2.982 0.26775 0
M  V30 35368 H 3307.03 -1.4341 0.130212 0
M  V30 35369 H 3308.99 -3.67062 -2.06986 0
M  V30 35370 H 3307.71 -2.43276 -2.1791 0
M  V30 35371 H 3306.37 -3.64159 -0.422306 0
M  V30 35372 H 3306.02 -4.14731 -2.84617 0
M  V30 35373 H 3305.72 -5.5824 -1.83417 0
M  V30 35374 H 3307.24 -5.44819 -2.75689 0
M  V30 35375 H 3308.66 -5.71109 -0.500721 0
M  V30 35376 H 3307.05 -5.99631 0.237268 0
M  V30 35377 H 3308.12 -4.76031 0.923149 0
M  V30 35378 N 3309.47 -0.153581 -1.5685 0
M  V30 35379 C 3310.4 0.814691 -2.14232 0
M  V30 35380 C 3311.41 1.20617 -1.09341 0
M  V30 35381 O 3312.6 1.1491 -1.36594 0
M  V30 35382 C 3309.7 2.10557 -2.65554 0
M  V30 35383 C 3308.87 1.88043 -3.94916 0
M  V30 35384 C 3307.93 3.01182 -4.31481 0
M  V30 35385 O 3306.96 2.72587 -4.99685 0
M  V30 35386 N 3308.16 4.28524 -3.91596 0
M  V30 35387 H 3310.92 0.324225 -2.97941 0
M  V30 35388 H 3308.49 0.0297802 -1.61873 0
M  V30 35389 H 3310.48 2.85305 -2.87024 0
M  V30 35390 H 3309.05 2.50847 -1.86533 0
M  V30 35391 H 3308.27 0.972956 -3.82004 0
M  V30 35392 H 3309.56 1.70347 -4.79436 0
M  V30 35393 H 3308.95 4.54622 -3.36653 0
M  V30 35394 H 3307.51 5.00032 -4.18104 0
M  V30 35395 N 3310.94 1.57141 0.120193 0
M  V30 35396 C 3312.36 1.52408 0.473691 0
M  V30 35397 C 3312.56 0.866386 1.81923 0
M  V30 35398 O 3311.62 0.448217 2.4849 0
M  V30 35399 C 3312.93 2.97172 0.459285 0
M  V30 35400 C 3314.48 3.08255 0.542921 0
M  V30 35401 C 3314.95 4.54577 0.558916 0
M  V30 35402 N 3316.44 4.59027 0.620388 0
M  V30 35403 C 3317.18 5.69656 0.654192 0
M  V30 35404 N 3316.67 6.89784 0.645714 0
M  V30 35405 N 3318.47 5.57761 0.69711 0
M  V30 35406 H 3310.62 1.98282 -0.761455 0
M  V30 35407 H 3312.88 0.905474 -0.280752 0
M  V30 35408 H 3312.59 3.48656 -0.461715 0
M  V30 35409 H 3312.46 3.54546 1.28752 0
M  V30 35410 H 3314.85 2.56774 1.45434 0
M  V30 35411 H 3314.93 2.53878 -0.312981 0
M  V30 35412 H 3314.57 5.06703 -0.348456 0
M  V30 35413 H 3314.5 5.06765 1.43168 0
M  V30 35414 H 3316.99 3.72558 0.633153 0
M  V30 35415 H 3317.31 7.69854 0.674098 0
M  V30 35416 H 3315.65 6.9229 0.613157 0
M  V30 35417 H 3318.84 4.6282 0.701089 0
M  V30 35418 H 3319.02 6.43988 0.719987 0
M  V30 35419 N 3312.42 -0.39034 1.5269 0
M  V30 35420 C 3313.7 -1.14965 1.58248 0
M  V30 35421 C 3314.08 -2.07745 0.374844 0
M  V30 35422 O 3313.43 -2.19443 -0.636931 0
M  V30 35423 C 3313.64 -1.91051 2.92063 0
M  V30 35424 C 3314.99 -2.4646 3.4575 0
M  V30 35425 O 3316.01 -2.01209 2.93928 0
M  V30 35426 O 3314.87 -3.29115 4.36286 0
M  V30 35427 H 3311.96 -0.525959 0.638198 0
M  V30 35428 H 3314.51 -0.395601 1.65025 0
M  V30 35429 H 3313.28 -1.23195 3.71401 0
M  V30 35430 H 3312.9 -2.7342 2.88665 0
M  V30 35431 N 3313.9 -1.4363 -0.648706 0
M  V30 35432 C 3315.31 -1.40457 -1.22998 0
M  V30 35433 C 3315.66 -0.110931 -1.95886 0
M  V30 35434 O 3314.79 0.789451 -2.01486 0
M  V30 35435 C 3315.38 -2.54438 -2.23712 0
M  V30 35436 C 3313.94 -2.54515 -2.77306 0
M  V30 35437 C 3313.09 -2.31917 -1.5202 0
M  V30 35438 H 3316.04 -1.52466 -0.440446 0
M  V30 35439 H 3316.06 -2.26185 -3.05975 0
M  V30 35440 H 3315.57 -3.48577 -1.70634 0
M  V30 35441 H 3313.67 -1.64269 -3.34435 0
M  V30 35442 H 3313.79 -3.52432 -3.24544 0
M  V30 35443 H 3312.15 -1.8067 -1.79528 0
M  V30 35444 H 3312.93 -3.28146 -1.0087 0
M  V30 35445 N 3315.38 0.887495 -1.30236 0
M  V30 35446 C 3316.31 2.00917 -1.18973 0
M  V30 35447 C 3317.29 1.69907 -0.0809818 0
M  V30 35448 O 3318.47 1.92417 -0.26258 0
M  V30 35449 C 3315.6 3.36015 -0.878153 0
M  V30 35450 C 3314.56 3.81275 -1.94456 0
M  V30 35451 C 3313.88 5.13635 -1.48603 0
M  V30 35452 C 3315.18 4.00275 -3.35526 0
M  V30 35453 H 3316.88 2.10598 -2.12812 0
M  V30 35454 H 3314.42 1.01187 -1.02456 0
M  V30 35455 H 3316.38 4.14004 -0.786027 0
M  V30 35456 H 3315.1 3.26459 0.0959205 0
M  V30 35457 H 3313.76 3.05512 -2.02628 0
M  V30 35458 H 3313.41 5.00506 -0.500292 0
M  V30 35459 H 3313.11 5.44889 -2.1993 0
M  V30 35460 H 3314.63 5.94153 -1.40764 0
M  V30 35461 H 3316.05 4.6871 -3.30127 0
M  V30 35462 H 3314.44 4.42901 -4.04918 0
M  V30 35463 H 3315.51 3.04211 -3.77602 0
M  V30 35464 N 3316.86 1.12911 1.0995 0
M  V30 35465 C 3318.08 0.910854 1.86328 0
M  V30 35466 C 3318.51 -0.534842 1.80336 0
M  V30 35467 O 3317.86 -1.37906 1.17693 0
M  V30 35468 C 3317.91 1.39654 3.32459 0
M  V30 35469 O 3317.02 0.578264 4.08326 0
M  V30 35470 H 3316.36 0.32686 0.577978 0
M  V30 35471 H 3318.89 1.50244 1.3888 0
M  V30 35472 H 3318.9 1.39781 3.83308 0
M  V30 35473 H 3317.57 2.44919 3.36136 0
M  V30 35474 H 3316.15 0.644411 3.6729 0
M  V30 35475 N 3318.33 -1.27832 0.92178 0
M  V30 35476 C 3319.27 -2.26134 0.373615 0
M  V30 35477 C 3320.28 -1.55175 -0.492387 0
M  V30 35478 O 3321.47 -1.75858 -0.305967 0
M  V30 35479 C 3318.57 -3.35428 -0.483852 0
M  V30 35480 C 3317.74 -4.35904 0.361488 0
M  V30 35481 C 3316.8 -5.24421 -0.432369 0
M  V30 35482 O 3315.83 -5.68981 0.15787 0
M  V30 35483 N 3317.03 -5.5401 -1.73357 0
M  V30 35484 H 3319.79 -2.73807 1.21861 0
M  V30 35485 H 3317.35 -1.41397 0.788577 0
M  V30 35486 H 3319.35 -3.91587 -1.02186 0
M  V30 35487 H 3317.92 -2.87402 -1.22958 0
M  V30 35488 H 3317.14 -3.79093 1.08083 0
M  V30 35489 H 3318.42 -5.00049 0.939616 0
M  V30 35490 H 3317.82 -5.19655 -2.23552 0
M  V30 35491 H 3316.38 -6.12893 -2.21823 0
M  V30 35492 N 3319.81 -0.686634 -1.41856 0
M  V30 35493 C 3321.22 -0.289695 -1.84439 0
M  V30 35494 C 3321.57 1.17045 -1.57464 0
M  V30 35495 O 3320.7 1.89743 -1.0405 0
M  V30 35496 C 3321.29 -0.519007 -3.34801 0
M  V30 35497 C 3319.85 -0.176073 -3.75988 0
M  V30 35498 C 3319 -0.805679 -2.65338 0
M  V30 35499 H 3321.95 -0.887944 -1.31534 0
M  V30 35500 H 3321.97 0.225142 -3.79833 0
M  V30 35501 H 3321.48 -1.58179 -3.54402 0
M  V30 35502 H 3319.59 0.882801 -3.61991 0
M  V30 35503 H 3319.7 -0.624855 -4.75008 0
M  V30 35504 H 3318.06 -0.236011 -2.53604 0
M  V30 35505 H 3318.85 -1.87215 -2.87759 0
M  V30 35506 N 3321.29 1.51599 -0.430766 0
M  V30 35507 C 3322.22 2.30475 0.374655 0
M  V30 35508 C 3323.2 1.35604 1.02691 0
M  V30 35509 O 3324.39 1.64522 1.03181 0
M  V30 35510 C 3321.52 3.14198 1.47975 0
M  V30 35511 C 3320.47 4.17293 0.951342 0
M  V30 35512 C 3319.8 4.89496 2.15169 0
M  V30 35513 C 3321.1 5.22299 -0.00967132 0
M  V30 35514 H 3322.79 2.98054 -0.28356 0
M  V30 35515 H 3320.34 1.43339 -0.137815 0
M  V30 35516 H 3322.29 3.68155 2.05037 0
M  V30 35517 H 3321.01 2.44428 2.16616 0
M  V30 35518 H 3319.67 3.64378 0.402988 0
M  V30 35519 H 3319.32 4.16235 2.82414 0
M  V30 35520 H 3319.02 5.59205 1.80454 0
M  V30 35521 H 3320.54 5.46274 2.72796 0
M  V30 35522 H 3321.96 5.71367 0.470427 0
M  V30 35523 H 3320.36 5.99496 -0.269065 0
M  V30 35524 H 3321.43 4.75535 -0.948381 0
M  V30 35525 N 3322.77 0.161897 1.56766 0
M  V30 35526 C 3323.73 -0.758066 2.16301 0
M  V30 35527 C 3324.73 -1.16476 1.10861 0
M  V30 35528 O 3325.92 -1.08325 1.36424 0
M  V30 35529 C 3323.05 -2.03062 2.73822 0
M  V30 35530 H 3324.25 -0.239939 2.98939 0
M  V30 35531 H 3321.8 -0.0876258 1.56054 0
M  V30 35532 H 3322.53 -2.59206 1.94892 0
M  V30 35533 H 3322.32 -1.74807 3.50977 0
M  V30 35534 H 3323.81 -2.68735 3.19642 0
M  V30 35535 N 3324.25 -1.57203 -0.111858 0
M  V30 35536 C 3325.66 -1.74332 -0.66823 0
M  V30 35537 C 3326.01 -0.781641 -1.79958 0
M  V30 35538 O 3325.13 0.0437949 -2.16356 0
M  V30 35539 C 3325.73 -3.16113 -1.21895 0
M  V30 35540 C 3324.29 -3.34724 -1.72154 0
M  V30 35541 C 3323.43 -2.70184 -0.624175 0
M  V30 35542 H 3326.39 -1.58289 0.114109 0
M  V30 35543 H 3326.41 -3.18058 -2.08853 0
M  V30 35544 H 3325.92 -3.86081 -0.395314 0
M  V30 35545 H 3324.02 -2.69808 -2.56972 0
M  V30 35546 H 3324.13 -4.42935 -1.82607 0
M  V30 35547 H 3322.5 -2.31616 -1.05954 0
M  V30 35548 H 3323.28 -3.42782 0.188598 0
M  V30 35549 N 3325.72 0.382237 -1.52894 0
M  V30 35550 C 3326.97 1.12437 -1.67935 0
M  V30 35551 C 3327.29 1.90308 -0.425199 0
M  V30 35552 O 3326.56 1.8771 0.560524 0
M  V30 35553 H 3325.14 0.418068 -0.619054 0
M  V30 35554 H 3327.81 0.432895 -1.90032 0
M  V30 35555 H 3326.9 1.8235 -2.53288 0
M  V30 35556 N 3327.2 1.43972 0.64108 0
M  V30 35557 C 3328.43 1.49913 1.43321 0
M  V30 35558 C 3328.85 0.121941 1.87704 0
M  V30 35559 O 3328.21 -0.886848 1.58129 0
M  V30 35560 C 3328.26 2.46029 2.63632 0
M  V30 35561 O 3327.36 1.95494 3.6312 0
M  V30 35562 H 3326.7 0.506603 0.429243 0
M  V30 35563 H 3329.23 1.89008 0.783394 0
M  V30 35564 H 3329.24 2.63736 3.11299 0
M  V30 35565 H 3327.92 3.46068 2.30672 0
M  V30 35566 H 3326.5 1.87506 3.22329 0
M  V30 35567 N 3328.68 -0.880575 1.30704 0
M  V30 35568 C 3330.1 -1.16458 1.09131 0
M  V30 35569 C 3330.3 -2.00977 -0.145096 0
M  V30 35570 O 3329.35 -2.38208 -0.83746 0
M  V30 35571 C 3330.67 -1.86699 2.3572 0
M  V30 35572 C 3332.21 -1.99445 2.41227 0
M  V30 35573 C 3332.69 -2.73099 3.6767 0
M  V30 35574 N 3334.18 -2.80642 3.68503 0
M  V30 35575 C 3334.92 -3.38217 4.6303 0
M  V30 35576 N 3334.41 -3.96807 5.67905 0
M  V30 35577 N 3336.2 -3.36074 4.50567 0
M  V30 35578 H 3328.36 -0.317127 2.10019 0
M  V30 35579 H 3330.62 -0.203056 0.925998 0
M  V30 35580 H 3330.32 -1.32041 3.25973 0
M  V30 35581 H 3330.2 -2.87053 2.44705 0
M  V30 35582 H 3332.59 -2.53272 1.51451 0
M  V30 35583 H 3332.67 -0.981663 2.36214 0
M  V30 35584 H 3332.31 -2.19943 4.57807 0
M  V30 35585 H 3332.24 -3.74763 3.69946 0
M  V30 35586 H 3334.73 -2.39048 2.92685 0
M  V30 35587 H 3335.04 -4.38819 6.36127 0
M  V30 35588 H 3333.39 -3.95213 5.71692 0
M  V30 35589 H 3336.58 -2.89532 3.67816 0
M  V30 35590 H 3336.75 -3.80648 5.24415 0
M  V30 35591 N 3330.16 -1.13492 -1.09349 0
M  V30 35592 C 3331.41 -0.891801 -1.80914 0
M  V30 35593 C 3331.72 0.583667 -1.86689 0
M  V30 35594 O 3332.93 0.943744 -2.5457 0
M  V30 35595 C 3331.38 -1.54592 -3.25007 0
M  V30 35596 C 3330.99 -3.05697 -3.27495 0
M  V30 35597 C 3332.74 -1.38354 -4.01321 0
M  V30 35598 C 3330.64 -3.63991 -4.66117 0
M  V30 35599 H 3329.57 -0.32999 -0.677955 0
M  V30 35600 H 3332.22 -1.36272 -1.22891 0
M  V30 35601 H 3330.61 -1.00267 -3.83096 0
M  V30 35602 H 3331.78 -3.66609 -2.79167 0
M  V30 35603 H 3330.09 -3.21462 -2.64672 0
M  V30 35604 H 3332.69 -1.79316 -5.03736 0
M  V30 35605 H 3333.03 -0.328477 -4.15002 0
M  V30 35606 H 3333.57 -1.89662 -3.49676 0
M  V30 35607 H 3330.31 -4.69306 -4.57637 0
M  V30 35608 H 3329.83 -3.07857 -5.14766 0
M  V30 35609 H 3331.51 -3.63713 -5.35091 0
M  V30 35610 N 3331.64 1.27341 -0.928546 0
M  V30 35611 C 3332.89 1.93945 -0.568301 0
M  V30 35612 C 3333.21 1.73327 0.89347 0
M  V30 35613 O 3332.48 1.0815 1.63342 0
M  V30 35614 H 3331.06 0.717693 -0.207186 0
M  V30 35615 H 3333.72 1.55034 -1.18112 0
M  V30 35616 H 3332.81 3.02317 -0.775299 0
M  V30 35617 N 3333.12 0.694147 1.4149 0
M  V30 35618 C 3334.34 0.232006 2.06098 0
M  V30 35619 C 3334.77 -1.10955 1.5189 0
M  V30 35620 O 3334.12 -1.69428 0.645277 0
M  V30 35621 C 3334.17 0.198585 3.60053 0
M  V30 35622 O 3333.28 -0.826996 4.04023 0
M  V30 35623 H 3332.62 0.11371 0.654191 0
M  V30 35624 H 3335.15 0.948607 1.8128 0
M  V30 35625 H 3335.16 0.0289621 4.0799 0
M  V30 35626 H 3333.83 1.17771 3.98877 0
M  V30 35627 H 3332.41 -0.626843 3.67594 0
M  V30 35628 N 3334.59 -1.51368 0.438799 0
M  V30 35629 C 3335.87 -1.94702 -0.187186 0
M  V30 35630 C 3336.25 -1.37754 -1.59959 0
M  V30 35631 O 3335.6 -0.56521 -2.21399 0
M  V30 35632 C 3335.81 -3.48617 -0.163429 0
M  V30 35633 C 3337.16 -4.23 -0.368281 0
M  V30 35634 O 3338.18 -3.55381 -0.241479 0
M  V30 35635 O 3337.04 -5.42962 -0.62082 0
M  V30 35636 H 3334.13 -0.816849 -0.12918 0
M  V30 35637 H 3336.68 -1.62263 0.496883 0
M  V30 35638 H 3335.45 -3.82527 0.823949 0
M  V30 35639 H 3335.07 -3.87503 -0.890346 0
M  V30 35640 N 3336.07 -0.170208 -1.56678 0
M  V30 35641 C 3337.48 0.34671 -1.83452 0
M  V30 35642 C 3337.83 1.63139 -1.08996 0
M  V30 35643 O 3336.96 2.1367 -0.342644 0
M  V30 35644 C 3337.55 0.635824 -3.3278 0
M  V30 35645 C 3336.11 1.09718 -3.60054 0
M  V30 35646 C 3335.26 0.132468 -2.76983 0
M  V30 35647 H 3338.21 -0.394492 -1.53719 0
M  V30 35648 H 3338.23 1.488 -3.50198 0
M  V30 35649 H 3337.74 -0.299359 -3.86944 0
M  V30 35650 H 3335.84 2.04751 -3.113 0
M  V30 35651 H 3335.96 1.00711 -4.68395 0
M  V30 35652 H 3334.32 0.629616 -2.46795 0
M  V30 35653 H 3335.1 -0.796716 -3.33927 0
M  V30 35654 N 3337.55 1.5726 0.10352 0
M  V30 35655 C 3338.78 1.89581 0.821124 0
M  V30 35656 C 3339.19 0.761214 1.73211 0
M  V30 35657 O 3338.53 -0.276218 1.81611 0
M  V30 35658 C 3338.59 3.17075 1.69422 0
M  V30 35659 C 3338.26 4.4689 0.955935 0
M  V30 35660 C 3339.25 5.19093 0.289603 0
M  V30 35661 C 3336.94 4.93568 0.932515 0
M  V30 35662 C 3338.93 6.36204 -0.390275 0
M  V30 35663 C 3336.62 6.10593 0.248847 0
M  V30 35664 C 3337.62 6.8176 -0.411379 0
M  V30 35665 O 3337.31 7.96557 -1.0841 0
M  V30 35666 H 3337.04 0.631773 0.240497 0
M  V30 35667 H 3339.59 2.05212 0.0877456 0
M  V30 35668 H 3337.82 2.97567 2.46963 0
M  V30 35669 H 3339.51 3.35294 2.28764 0
M  V30 35670 H 3340.28 4.84076 0.299212 0
M  V30 35671 H 3336.16 4.38069 1.43585 0
M  V30 35672 H 3339.7 6.91689 -0.906179 0
M  V30 35673 H 3335.6 6.45065 0.237054 0
M  V30 35674 H 3336.36 8.12489 -0.990144 0
M  V30 35675 N 3339.03 -0.374123 1.53095 0
M  V30 35676 C 3339.96 -1.46401 1.81904 0
M  V30 35677 C 3340.94 -1.56264 0.671977 0
M  V30 35678 O 3342.12 -1.70971 0.921008 0
M  V30 35679 C 3339.25 -2.83842 2.00128 0
M  V30 35680 C 3338.21 -2.88809 3.15869 0
M  V30 35681 C 3337.53 -4.28842 3.19372 0
M  V30 35682 C 3338.83 -2.57104 4.54637 0
M  V30 35683 H 3340.53 -1.22542 2.73174 0
M  V30 35684 H 3338.07 -0.588064 1.31445 0
M  V30 35685 H 3340.03 -3.60106 2.18865 0
M  V30 35686 H 3338.75 -3.0907 1.05561 0
M  V30 35687 H 3337.41 -2.14995 2.96939 0
M  V30 35688 H 3337.06 -4.51133 2.22458 0
M  V30 35689 H 3336.76 -4.33083 3.97131 0
M  V30 35690 H 3338.28 -5.06991 3.40282 0
M  V30 35691 H 3339.7 -3.23083 4.73593 0
M  V30 35692 H 3338.09 -2.72673 5.34574 0
M  V30 35693 H 3339.16 -1.52384 4.60334 0
M  V30 35694 N 3340.51 -1.4431 -0.633436 0
M  V30 35695 C 3341.75 -1.46681 -1.39029 0
M  V30 35696 C 3342.07 -0.0997508 -1.94745 0
M  V30 35697 O 3341.34 0.867628 -1.75639 0
M  V30 35698 H 3339.92 -0.540102 -0.516041 0
M  V30 35699 H 3342.59 -1.8007 -0.745707 0
M  V30 35700 H 3341.68 -2.19089 -2.22276 0
M  V30 35701 N 3341.98 0.873632 -1.3117 0
M  V30 35702 C 3342.92 1.98649 -1.14329 0
M  V30 35703 C 3343.93 1.62586 -0.0833707 0
M  V30 35704 O 3345.12 1.75414 -0.330508 0
M  V30 35705 C 3342.22 3.3108 -0.723806 0
M  V30 35706 C 3341.39 3.95508 -1.86794 0
M  V30 35707 C 3340.45 5.06252 -1.43512 0
M  V30 35708 O 3339.48 5.2727 -2.14418 0
M  V30 35709 N 3340.68 5.79615 -0.320464 0
M  V30 35710 H 3343.44 2.13643 -2.10182 0
M  V30 35711 H 3341 1.04739 -1.23456 0
M  V30 35712 H 3343 4.02545 -0.417042 0
M  V30 35713 H 3341.57 3.12273 0.143018 0
M  V30 35714 H 3340.79 3.17071 -2.34222 0
M  V30 35715 H 3342.07 4.35291 -2.63437 0
M  V30 35716 H 3341.47 5.65055 0.270116 0
M  V30 35717 H 3340.03 6.51759 -0.0732146 0
M  V30 35718 N 3343.46 1.1407 1.08746 0
M  V30 35719 C 3344.88 0.880364 1.33123 0
M  V30 35720 C 3345.08 -0.480362 1.95691 0
M  V30 35721 O 3344.13 -1.22539 2.20772 0
M  V30 35722 C 3345.45 2.0104 2.23614 0
M  V30 35723 C 3347 2.0433 2.37104 0
M  V30 35724 C 3347.47 3.16616 3.30935 0
M  V30 35725 N 3348.96 3.16172 3.38511 0
M  V30 35726 C 3349.7 3.99694 4.11135 0
M  V30 35727 N 3349.19 4.93248 4.86496 0
M  V30 35728 N 3350.99 3.87768 4.06931 0
M  V30 35729 H 3343.14 2.01717 0.665129 0
M  V30 35730 H 3345.4 0.87878 0.355597 0
M  V30 35731 H 3345.11 2.99186 1.8488 0
M  V30 35732 H 3344.98 1.93054 3.24052 0
M  V30 35733 H 3347.37 1.06792 2.75099 0
M  V30 35734 H 3347.45 2.16387 1.3642 0
M  V30 35735 H 3347.09 4.14397 2.93662 0
M  V30 35736 H 3347.02 3.01797 4.31539 0
M  V30 35737 H 3349.51 2.4841 2.84782 0
M  V30 35738 H 3349.83 5.53451 5.39363 0
M  V30 35739 H 3348.17 4.97248 4.85561 0
M  V30 35740 H 3351.36 3.14002 3.4716 0
M  V30 35741 H 3351.53 4.53087 4.63267 0
M  V30 35742 N 3344.94 -1.26847 0.935286 0
M  V30 35743 C 3345.87 -2.28968 0.457817 0
M  V30 35744 C 3346.85 -1.63014 -0.485841 0
M  V30 35745 O 3348.04 -1.90265 -0.388964 0
M  V30 35746 C 3345.17 -3.46143 -0.283271 0
M  V30 35747 C 3344.12 -4.24143 0.573271 0
M  V30 35748 C 3343.45 -5.33872 -0.297431 0
M  V30 35749 C 3344.75 -4.88755 1.84162 0
M  V30 35750 H 3346.44 -2.69157 1.3113 0
M  V30 35751 H 3343.99 -1.29391 0.631979 0
M  V30 35752 H 3345.94 -4.1669 -0.628292 0
M  V30 35753 H 3344.66 -3.04892 -1.17084 0
M  V30 35754 H 3343.32 -3.55353 0.901105 0
M  V30 35755 H 3342.97 -4.88862 -1.18418 0
M  V30 35756 H 3342.67 -5.86969 0.272229 0
M  V30 35757 H 3344.19 -6.07259 -0.637854 0
M  V30 35758 H 3345.61 -5.51548 1.5642 0
M  V30 35759 H 3344.01 -5.51944 2.35538 0
M  V30 35760 H 3345.08 -4.12028 2.55657 0
M  V30 35761 N 3346.42 -0.701641 -1.4112 0
M  V30 35762 C 3347.7 -0.162945 -1.9492 0
M  V30 35763 C 3348.08 1.32836 -1.64066 0
M  V30 35764 O 3347.42 2.07775 -0.950884 0
M  V30 35765 C 3347.63 -0.460734 -3.45945 0
M  V30 35766 C 3348.98 -0.39178 -4.22789 0
M  V30 35767 O 3350.01 -0.395993 -3.53992 0
M  V30 35768 O 3348.86 -0.357167 -5.45332 0
M  V30 35769 H 3345.96 -0.0185248 -0.826792 0
M  V30 35770 H 3348.5 -0.778218 -1.50804 0
M  V30 35771 H 3347.28 -1.49275 -3.61708 0
M  V30 35772 H 3346.9 0.185207 -3.97168 0
M  V30 35773 N 3347.9 1.51133 -0.446821 0
M  V30 35774 C 3349.12 2.07069 0.117205 0
M  V30 35775 C 3349.55 1.31112 1.34875 0
M  V30 35776 O 3348.9 0.351751 1.77855 0
M  V30 35777 C 3348.95 3.58278 0.408553 0
M  V30 35778 O 3348.06 3.84411 1.49338 0
M  V30 35779 H 3347.4 0.663996 -0.00229625 0
M  V30 35780 H 3349.93 1.9463 -0.630884 0
M  V30 35781 H 3349.94 4.02688 0.656228 0
M  V30 35782 H 3348.61 4.12985 -0.491516 0
M  V30 35783 H 3347.19 3.51858 1.23493 0
M  V30 35784 N 3349.37 0.178515 1.56586 0
M  V30 35785 C 3350.28 -0.761282 2.21905 0
M  V30 35786 C 3351.3 -1.24758 1.21291 0
M  V30 35787 O 3352.48 -1.2982 1.53976 0
M  V30 35788 C 3349.54 -1.97043 2.85263 0
M  V30 35789 C 3348.6 -1.53032 4.01098 0
M  V30 35790 C 3347.84 -2.68183 4.61426 0
M  V30 35791 O 3348.06 -3.85239 4.20651 0
M  V30 35792 O 3346.99 -2.41846 5.51175 0
M  V30 35793 H 3350.82 -0.235088 3.02789 0
M  V30 35794 H 3348.4 -0.0500179 1.49316 0
M  V30 35795 H 3350.29 -2.67744 3.25409 0
M  V30 35796 H 3348.96 -2.48555 2.0737 0
M  V30 35797 H 3347.87 -0.792596 3.65607 0
M  V30 35798 H 3349.2 -1.06204 4.80605 0
M  V30 35799 N 3350.85 -1.57312 -0.0951784 0
M  V30 35800 C 3351.82 -2.01095 -1.09971 0
M  V30 35801 C 3352.82 -0.904448 -1.32953 0
M  V30 35802 O 3354.01 -1.16993 -1.29067 0
M  V30 35803 C 3351.14 -2.37158 -2.44886 0
M  V30 35804 H 3352.33 -2.91058 -0.722855 0
M  V30 35805 H 3349.88 -1.52552 -0.340222 0
M  V30 35806 H 3350.62 -1.50148 -2.87447 0
M  V30 35807 H 3350.4 -3.1788 -2.29553 0
M  V30 35808 H 3351.89 -2.71688 -3.17136 0
M  V30 35809 N 3352.33 0.365999 -1.53291 0
M  V30 35810 C 3353.56 1.13378 -1.73667 0
M  V30 35811 C 3353.98 1.82279 -0.464316 0
M  V30 35812 O 3353.34 1.71718 0.581615 0
M  V30 35813 C 3353.39 2.14008 -2.90229 0
M  V30 35814 O 3352.49 3.21079 -2.58808 0
M  V30 35815 H 3351.83 0.32899 -0.576768 0
M  V30 35816 H 3354.36 0.423252 -2.00174 0
M  V30 35817 H 3354.37 2.57616 -3.16383 0
M  V30 35818 H 3353.05 1.6325 -3.82521 0
M  V30 35819 H 3351.62 2.82447 -2.43471 0
M  V30 35820 N 3353.81 1.44644 0.625774 0
M  V30 35821 C 3355.05 1.47927 1.38728 0
M  V30 35822 C 3355.39 0.113503 1.93868 0
M  V30 35823 O 3354.66 -0.869609 1.73977 0
M  V30 35824 C 3354.95 2.54395 2.54863 0
M  V30 35825 C 3354.8 4.0035 2.05037 0
M  V30 35826 C 3356.12 2.57316 3.57039 0
M  V30 35827 H 3353.24 0.538593 0.503077 0
M  V30 35828 H 3355.88 1.76353 0.707071 0
M  V30 35829 H 3354.03 2.30287 3.1289 0
M  V30 35830 H 3355.7 4.35608 1.51799 0
M  V30 35831 H 3353.94 4.11872 1.36177 0
M  V30 35832 H 3354.61 4.70502 2.88672 0
M  V30 35833 H 3357.09 2.78871 3.08821 0
M  V30 35834 H 3355.97 3.33705 4.35812 0
M  V30 35835 H 3356.23 1.61715 4.11462 0
M  V30 35836 N 3355.29 -0.866663 1.31631 0
M  V30 35837 C 3356.24 -1.96195 1.16153 0
M  V30 35838 C 3357.22 -1.6074 0.071635 0
M  V30 35839 O 3358.41 -1.74492 0.296899 0
M  V30 35840 C 3355.54 -3.31978 0.874381 0
M  V30 35841 C 3354.63 -3.7369 2.00541 0
M  V30 35842 N 3355.02 -3.87334 3.25279 0
M  V30 35843 C 3353.32 -4.03227 1.90589 0
M  V30 35844 C 3354.02 -4.23023 3.99283 0
M  V30 35845 N 3352.99 -4.33888 3.27478 0
M  V30 35846 H 3356.8 -2.0486 2.10736 0
M  V30 35847 H 3354.31 -1.05767 1.23236 0
M  V30 35848 H 3356.31 -4.10199 0.744472 0
M  V30 35849 H 3354.97 -3.24638 -0.063195 0
M  V30 35850 H 3355.98 -3.71973 3.60356 0
M  V30 35851 H 3352.65 -4.04258 1.04317 0
M  V30 35852 H 3354.04 -4.41148 5.06792 0
M  V30 35853 N 3356.77 -1.14645 -1.0814 0
M  V30 35854 C 3357.73 -0.838627 -2.13307 0
M  V30 35855 C 3358.73 0.157984 -1.60022 0
M  V30 35856 O 3359.92 -0.0706927 -1.74057 0
M  V30 35857 C 3357.05 -0.25065 -3.39977 0
M  V30 35858 H 3358.24 -1.7707 -2.42046 0
M  V30 35859 H 3355.8 -0.95285 -1.23897 0
M  V30 35860 H 3356.53 0.690008 -3.16874 0
M  V30 35861 H 3356.32 -0.968523 -3.7995 0
M  V30 35862 H 3357.81 -0.0525849 -4.17567 0
M  V30 35863 N 3358.24 1.26349 -0.942 0
M  V30 35864 C 3359.17 2.28722 -0.469953 0
M  V30 35865 C 3360.15 1.63269 0.47719 0
M  V30 35866 O 3361.34 1.90468 0.378869 0
M  V30 35867 C 3358.47 3.46288 0.26491 0
M  V30 35868 C 3357.42 4.23833 -0.595756 0
M  V30 35869 C 3356.75 5.34022 0.269114 0
M  V30 35870 C 3358.05 4.87772 -1.86751 0
M  V30 35871 H 3359.74 2.68457 -1.32555 0
M  V30 35872 H 3357.29 1.29054 -0.638832 0
M  V30 35873 H 3359.24 4.17017 0.606185 0
M  V30 35874 H 3357.97 3.05508 1.15466 0
M  V30 35875 H 3356.63 3.5487 -0.919938 0
M  V30 35876 H 3356.27 4.89483 1.15824 0
M  V30 35877 H 3355.97 5.86816 -0.303354 0
M  V30 35878 H 3357.5 6.07589 0.605641 0
M  V30 35879 H 3358.91 5.50711 -1.59343 0
M  V30 35880 H 3357.31 5.50687 -2.38462 0
M  V30 35881 H 3358.38 4.10667 -2.57839 0
M  V30 35882 N 3359.72 0.709115 1.40746 0
M  V30 35883 C 3361.13 0.319001 1.83955 0
M  V30 35884 C 3361.48 -1.14525 1.59306 0
M  V30 35885 O 3360.61 -1.88064 1.07055 0
M  V30 35886 C 3361.2 0.572205 3.33933 0
M  V30 35887 C 3359.76 0.235868 3.7566 0
M  V30 35888 C 3358.91 0.84779 2.64022 0
M  V30 35889 H 3361.86 0.908757 1.30105 0
M  V30 35890 H 3361.88 -0.164685 3.80143 0
M  V30 35891 H 3361.39 1.63798 3.51841 0
M  V30 35892 H 3359.49 -0.8251 3.6335 0
M  V30 35893 H 3359.61 0.700346 4.73954 0
M  V30 35894 H 3357.97 0.276327 2.53197 0
M  V30 35895 H 3358.75 1.9177 2.84744 0
M  V30 35896 N 3361.2 -1.50894 0.454829 0
M  V30 35897 C 3362.11 -2.31922 -0.353455 0
M  V30 35898 C 3363.13 -1.41591 -1.01134 0
M  V30 35899 O 3364.3 -1.74655 -1.00288 0
M  V30 35900 C 3361.37 -3.15823 -1.43027 0
M  V30 35901 C 3360.43 -4.21956 -0.790689 0
M  V30 35902 C 3359.66 -5.01847 -1.81619 0
M  V30 35903 O 3359.88 -4.82595 -3.0407 0
M  V30 35904 O 3358.82 -5.85463 -1.39702 0
M  V30 35905 H 3362.64 -3.02129 0.308517 0
M  V30 35906 H 3360.23 -1.47816 0.216997 0
M  V30 35907 H 3362.11 -3.67931 -2.05438 0
M  V30 35908 H 3360.79 -2.48362 -2.07601 0
M  V30 35909 H 3359.69 -3.73881 -0.128061 0
M  V30 35910 H 3361.03 -4.9184 -0.188164 0
M  V30 35911 N 3362.68 -0.186817 -1.56489 0
M  V30 35912 C 3363.95 0.501304 -1.89067 0
M  V30 35913 C 3364.33 1.80231 -1.0991 0
M  V30 35914 O 3363.68 2.27643 -0.197666 0
M  V30 35915 C 3363.89 0.728147 -3.4132 0
M  V30 35916 C 3365.24 1.05123 -4.11381 0
M  V30 35917 O 3366.26 0.816155 -3.46724 0
M  V30 35918 O 3365.12 1.49548 -5.2564 0
M  V30 35919 H 3362.22 0.26029 -0.78497 0
M  V30 35920 H 3364.76 -0.226412 -1.68183 0
M  V30 35921 H 3363.54 -0.190948 -3.90834 0
M  V30 35922 H 3363.16 1.50862 -3.67867 0
M  V30 35923 N 3364.16 1.57361 0.0868344 0
M  V30 35924 C 3365.38 1.90718 0.802134 0
M  V30 35925 C 3365.8 0.781334 1.71874 0
M  V30 35926 O 3365.16 -0.246223 1.80831 0
M  V30 35927 C 3365.21 3.23742 1.60852 0
M  V30 35928 O 3364.93 4.31996 0.728775 0
M  V30 35929 C 3366.43 3.71016 2.42615 0
M  V30 35930 H 3363.65 0.630749 0.228903 0
M  V30 35931 H 3366.19 2.04407 0.0615981 0
M  V30 35932 H 3364.35 3.11626 2.30148 0
M  V30 35933 H 3364.76 5.08437 1.28811 0
M  V30 35934 H 3366.24 4.66766 2.94675 0
M  V30 35935 H 3366.71 2.9927 3.21456 0
M  V30 35936 H 3367.32 3.86027 1.78503 0
M  V30 35937 N 3365.63 -0.357865 1.53483 0
M  V30 35938 C 3366.56 -1.44463 1.83446 0
M  V30 35939 C 3367.54 -1.55543 0.688513 0
M  V30 35940 O 3368.73 -1.69985 0.93909 0
M  V30 35941 C 3365.86 -2.81703 2.03127 0
M  V30 35942 C 3364.81 -2.85442 3.18915 0
M  V30 35943 C 3364.14 -4.25431 3.23902 0
M  V30 35944 C 3365.44 -2.52267 4.57339 0
M  V30 35945 H 3367.13 -1.19637 2.74458 0
M  V30 35946 H 3364.68 -0.574089 1.32061 0
M  V30 35947 H 3366.63 -3.57764 2.22672 0
M  V30 35948 H 3365.36 -3.07933 1.08833 0
M  V30 35949 H 3364.02 -2.11833 2.99203 0
M  V30 35950 H 3363.66 -4.48749 2.27231 0
M  V30 35951 H 3363.36 -4.28847 4.01702 0
M  V30 35952 H 3364.89 -5.03354 3.4564 0
M  V30 35953 H 3366.3 -3.18042 4.76993 0
M  V30 35954 H 3364.7 -2.66988 5.37436 0
M  V30 35955 H 3365.77 -1.47493 4.61924 0
M  V30 35956 N 3367.11 -1.44974 -0.618094 0
M  V30 35957 C 3368.34 -1.51947 -1.40426 0
M  V30 35958 C 3368.75 -0.148589 -1.88214 0
M  V30 35959 O 3368.11 0.84795 -1.61605 0
M  V30 35960 C 3368.16 -2.49512 -2.61584 0
M  V30 35961 O 3367.88 -3.81272 -2.15785 0
M  V30 35962 C 3369.38 -2.6608 -3.54565 0
M  V30 35963 H 3366.6 -0.514928 -0.430221 0
M  V30 35964 H 3369.15 -1.90062 -0.754758 0
M  V30 35965 H 3367.3 -2.14498 -3.22598 0
M  V30 35966 H 3367.72 -4.34066 -2.94427 0
M  V30 35967 H 3369.19 -3.38346 -4.36149 0
M  V30 35968 H 3369.67 -1.71754 -4.04224 0
M  V30 35969 H 3370.27 -3.02048 -2.99411 0
M  V30 35970 N 3368.59 0.85967 -1.32089 0
M  V30 35971 C 3369.84 1.61349 -1.22363 0
M  V30 35972 C 3370.16 1.933 0.215762 0
M  V30 35973 O 3369.42 1.57068 1.16739 0
M  V30 35974 C 3369.72 2.94603 -2.02345 0
M  V30 35975 C 3369.38 2.82103 -3.51751 0
M  V30 35976 C 3368.05 2.78401 -3.92487 0
M  V30 35977 C 3370.4 2.68395 -4.46781 0
M  V30 35978 C 3367.73 2.58863 -5.26504 0
M  V30 35979 C 3370.08 2.50394 -5.80935 0
M  V30 35980 C 3368.74 2.45081 -6.2088 0
M  V30 35981 H 3368.01 0.590418 -0.447758 0
M  V30 35982 H 3370.66 0.997608 -1.63463 0
M  V30 35983 H 3368.96 3.60283 -1.53959 0
M  V30 35984 H 3370.66 3.51941 -1.92193 0
M  V30 35985 H 3367.25 2.85807 -3.19394 0
M  V30 35986 H 3371.44 2.70304 -4.16233 0
M  V30 35987 H 3366.69 2.53182 -5.56515 0
M  V30 35988 H 3370.87 2.38766 -6.54189 0
M  V30 35989 H 3368.49 2.29701 -7.24666 0
M  V30 35990 N 3370.07 1.15217 1.0753 0
M  V30 35991 C 3370.98 0.86123 2.1822 0
M  V30 35992 C 3371.99 -0.161767 1.73246 0
M  V30 35993 O 3373.17 0.011874 2.01396 0
M  V30 35994 C 3370.23 0.352662 3.44902 0
M  V30 35995 C 3369.3 1.43933 4.04452 0
M  V30 35996 C 3368.53 0.954934 5.25087 0
M  V30 35997 O 3368.75 -0.200193 5.70049 0
M  V30 35998 O 3367.69 1.73784 5.76266 0
M  V30 35999 H 3371.51 1.78652 2.45595 0
M  V30 36000 H 3369.1 0.93114 1.16834 0
M  V30 36001 H 3370.98 0.0754088 4.21333 0
M  V30 36002 H 3369.65 -0.544785 3.19083 0
M  V30 36003 H 3368.56 1.77016 3.2957 0
M  V30 36004 H 3369.89 2.31162 4.3454 0
M  V30 36005 N 3371.55 -1.25848 0.948687 0
M  V30 36006 C 3372.46 -2.29832 0.470566 0
M  V30 36007 C 3373.47 -1.67832 -0.45916 0
M  V30 36008 O 3374.65 -1.98563 -0.336858 0
M  V30 36009 C 3371.71 -3.45801 -0.249574 0
M  V30 36010 C 3370.77 -4.23259 0.717633 0
M  V30 36011 C 3370.01 -5.33691 0.0317662 0
M  V30 36012 O 3370.23 -5.57982 -1.18374 0
M  V30 36013 O 3369.16 -5.97647 0.714285 0
M  V30 36014 H 3372.99 -2.72808 1.33452 0
M  V30 36015 H 3370.58 -1.31186 0.714887 0
M  V30 36016 H 3372.46 -4.1628 -0.65492 0
M  V30 36017 H 3371.13 -3.04839 -1.08879 0
M  V30 36018 H 3370.04 -3.55232 1.17307 0
M  V30 36019 H 3371.37 -4.67989 1.52469 0
M  V30 36020 N 3373.02 -0.716569 -1.40368 0
M  V30 36021 C 3373.99 -0.0733508 -2.29083 0
M  V30 36022 C 3374.99 0.686353 -1.45416 0
M  V30 36023 O 3376.18 0.51811 -1.66317 0
M  V30 36024 C 3373.31 0.905974 -3.28641 0
M  V30 36025 H 3374.5 -0.854721 -2.87462 0
M  V30 36026 H 3372.06 -0.481283 -1.48706 0
M  V30 36027 H 3372.79 1.71436 -2.75282 0
M  V30 36028 H 3372.58 0.364095 -3.90406 0
M  V30 36029 H 3374.07 1.35317 -3.95068 0
M  V30 36030 N 3374.5 1.50651 -0.462825 0
M  V30 36031 C 3375.75 2.02577 0.0951497 0
M  V30 36032 C 3376.08 1.34471 1.40111 0
M  V30 36033 O 3375.36 0.467735 1.88792 0
M  V30 36034 C 3375.64 3.5895 0.28754 0
M  V30 36035 C 3375.49 4.37639 -1.03886 0
M  V30 36036 C 3376.81 4.27493 1.04585 0
M  V30 36037 H 3373.93 0.736256 0.0331061 0
M  V30 36038 H 3376.57 1.8005 -0.606803 0
M  V30 36039 H 3374.72 3.78275 0.885448 0
M  V30 36040 H 3376.39 4.29905 -1.67271 0
M  V30 36041 H 3374.64 4.01708 -1.63747 0
M  V30 36042 H 3375.31 5.45291 -0.857985 0
M  V30 36043 H 3377.78 4.12592 0.539141 0
M  V30 36044 H 3376.66 5.36734 1.14926 0
M  V30 36045 H 3376.92 3.90093 2.08038 0
M  V30 36046 N 3375.98 0.195113 1.56388 0
M  V30 36047 C 3376.94 -0.712014 2.1786 0
M  V30 36048 C 3377.94 -1.14098 1.13306 0
M  V30 36049 O 3379.13 -1.05407 1.38691 0
M  V30 36050 C 3376.27 -1.97208 2.78068 0
M  V30 36051 H 3377.46 -0.176476 2.9938 0
M  V30 36052 H 3375.01 -0.0545047 1.56205 0
M  V30 36053 H 3375.75 -2.55013 2.00346 0
M  V30 36054 H 3375.53 -1.67323 3.54606 0
M  V30 36055 H 3377.02 -2.61895 3.25271 0
M  V30 36056 N 3377.46 -1.57404 -0.0784879 0
M  V30 36057 C 3378.69 -1.91141 -0.792008 0
M  V30 36058 C 3379.1 -0.790438 -1.71457 0
M  V30 36059 O 3378.46 0.23663 -1.80959 0
M  V30 36060 C 3378.51 -3.24591 -1.59133 0
M  V30 36061 O 3378.23 -4.32376 -0.705855 0
M  V30 36062 C 3379.73 -3.72298 -2.40644 0
M  V30 36063 H 3376.95 -0.631954 -0.225554 0
M  V30 36064 H 3379.5 -2.04437 -0.050757 0
M  V30 36065 H 3377.65 -3.12842 -2.28492 0
M  V30 36066 H 3378.06 -5.09113 -1.26113 0
M  V30 36067 H 3379.54 -4.68322 -2.92196 0
M  V30 36068 H 3380.02 -3.0097 -3.19865 0
M  V30 36069 H 3380.62 -3.86968 -1.76453 0
M  V30 36070 N 3378.94 0.34972 -1.53671 0
M  V30 36071 C 3379.88 1.44945 -1.81917 0
M  V30 36072 C 3380.88 1.54744 -0.689246 0
M  V30 36073 O 3382.08 1.57442 -0.872476 0
M  V30 36074 H 3378.46 0.483166 -0.576242 0
M  V30 36075 H 3380.43 1.18333 -2.73934 0
M  V30 36076 C 3379.18 2.81558 -2.0401 0
M  V30 36077 H 3378.5 2.74783 -2.90404 0
M  V30 36078 H 3379.94 3.57644 -2.27743 0
M  V30 36079 C 3378.4 3.26673 -0.823806 0
M  V30 36080 O 3378.93 4.01695 -0.0202057 0
M  V30 36081 N 3377.14 2.83402 -0.642765 0
M  V30 36082 H 3376.68 2.22515 -1.29787 0
M  V30 36083 H 3376.64 3.13942 0.169599 0
M  V30 36084 N 3380.41 1.45299 0.610397 0
M  V30 36085 C 3381.64 1.52919 1.40109 0
M  V30 36086 C 3382.06 0.161729 1.87403 0
M  V30 36087 O 3381.42 -0.853107 1.59974 0
M  V30 36088 C 3381.47 2.51566 2.58354 0
M  V30 36089 O 3380.57 2.03152 3.58891 0
M  V30 36090 H 3379.92 0.515594 0.418401 0
M  V30 36091 H 3382.45 1.90627 0.743126 0
M  V30 36092 H 3382.46 2.7028 3.05635 0
M  V30 36093 H 3381.13 3.50883 2.2328 0
M  V30 36094 H 3379.71 1.94301 3.18279 0
M  V30 36095 N 3381.89 -0.852653 1.32543 0
M  V30 36096 C 3383.14 -1.6038 1.22974 0
M  V30 36097 C 3383.46 -1.93888 -0.207975 0
M  V30 36098 O 3382.73 -1.59796 -1.13323 0
M  V30 36099 H 3381.31 -0.59461 0.452159 0
M  V30 36100 H 3383.97 -1.0198 1.6609 0
M  V30 36101 H 3383.07 -2.53986 1.81377 0
M  V30 36102 N 3383.37 -1.15786 -1.06918 0
M  V30 36103 C 3384.79 -0.901432 -1.31706 0
M  V30 36104 C 3384.99 0.449168 -1.9643 0
M  V30 36105 O 3384.04 1.19011 -2.22694 0
M  V30 36106 C 3385.36 -2.04572 -2.20388 0
M  V30 36107 C 3386.9 -2.08076 -2.33823 0
M  V30 36108 C 3387.38 -3.21841 -3.25856 0
M  V30 36109 N 3388.87 -3.21517 -3.33438 0
M  V30 36110 C 3389.6 -4.06185 -4.04724 0
M  V30 36111 N 3389.1 -5.00925 -4.78587 0
M  V30 36112 N 3390.89 -3.94193 -4.0071 0
M  V30 36113 H 3383.04 -2.0275 -0.632953 0
M  V30 36114 H 3385.31 -0.884326 -0.341571 0
M  V30 36115 H 3385.01 -3.0209 -1.80096 0
M  V30 36116 H 3384.89 -1.98185 -3.2094 0
M  V30 36117 H 3387.27 -1.11155 -2.73365 0
M  V30 36118 H 3387.36 -2.18529 -1.32961 0
M  V30 36119 H 3387 -4.19017 -2.87032 0
M  V30 36120 H 3386.93 -3.08624 -4.26683 0
M  V30 36121 H 3389.42 -2.5291 -2.80794 0
M  V30 36122 H 3389.73 -5.61962 -5.30489 0
M  V30 36123 H 3388.08 -5.0491 -4.77589 0
M  V30 36124 H 3391.27 -3.19486 -3.42121 0
M  V30 36125 H 3391.44 -4.604 -4.56 0
M  V30 36126 N 3384.85 1.25343 -0.955348 0
M  V30 36127 C 3386.07 1.97687 -0.627268 0
M  V30 36128 C 3386.5 1.70523 0.793943 0
M  V30 36129 O 3385.86 0.961583 1.53699 0
M  V30 36130 C 3385.9 3.49367 -0.893031 0
M  V30 36131 O 3385.01 4.12391 0.0278147 0
M  V30 36132 H 3384.35 0.619722 -0.238413 0
M  V30 36133 H 3386.88 1.59444 -1.28214 0
M  V30 36134 H 3386.89 3.99683 -0.819587 0
M  V30 36135 H 3385.56 3.68467 -1.92885 0
M  V30 36136 H 3384.14 3.72771 -0.097895 0
M  V30 36137 N 3386.33 0.724003 1.39986 0
M  V30 36138 C 3387.55 0.27567 2.0556 0
M  V30 36139 C 3387.98 -1.07708 1.54209 0
M  V30 36140 O 3387.34 -1.68021 0.68107 0
M  V30 36141 C 3387.38 0.274913 3.59551 0
M  V30 36142 O 3386.49 -0.741111 4.05686 0
M  V30 36143 H 3385.83 0.127561 0.651632 0
M  V30 36144 H 3388.36 0.986846 1.79228 0
M  V30 36145 H 3388.37 0.115496 4.07836 0
M  V30 36146 H 3387.04 1.26205 3.96289 0
M  V30 36147 H 3385.62 -0.54873 3.68841 0
M  V30 36148 N 3387.81 -1.50403 0.470808 0
M  V30 36149 C 3389.22 -1.5911 0.124947 0
M  V30 36150 C 3389.42 -1.47897 -1.36853 0
M  V30 36151 O 3388.48 -1.33732 -2.14178 0
M  V30 36152 C 3389.79 -2.93029 0.67489 0
M  V30 36153 C 3391.34 -3.06423 0.638293 0
M  V30 36154 C 3391.81 -4.42915 1.16578 0
M  V30 36155 N 3393.3 -4.49326 1.12517 0
M  V30 36156 C 3394.04 -5.53329 1.50382 0
M  V30 36157 N 3393.54 -6.64586 1.95695 0
M  V30 36158 N 3395.33 -5.43871 1.41987 0
M  V30 36159 H 3387.48 -1.55936 1.44215 0
M  V30 36160 H 3389.74 -0.73692 0.596367 0
M  V30 36161 H 3389.45 -3.06709 1.72112 0
M  V30 36162 H 3389.32 -3.77014 0.118301 0
M  V30 36163 H 3391.71 -2.9239 -0.399024 0
M  V30 36164 H 3391.79 -2.24195 1.23168 0
M  V30 36165 H 3391.43 -4.57697 2.20172 0
M  V30 36166 H 3391.36 -5.23735 0.548605 0
M  V30 36167 H 3393.86 -3.6949 0.792825 0
M  V30 36168 H 3394.17 -7.40005 2.22737 0
M  V30 36169 H 3392.51 -6.65707 1.99648 0
M  V30 36170 H 3395.7 -4.55841 1.06428 0
M  V30 36171 H 3395.88 -6.24805 1.71823 0
M  V30 36172 N 3389.28 -0.203404 -1.56282 0
M  V30 36173 C 3390.51 0.438536 -2.02199 0
M  V30 36174 C 3390.93 1.54617 -1.08346 0
M  V30 36175 O 3390.28 1.82279 -0.0897915 0
M  V30 36176 C 3390.33 0.987123 -3.47762 0
M  V30 36177 O 3390.06 -0.0763322 -4.38033 0
M  V30 36178 C 3391.56 1.70412 -4.09237 0
M  V30 36179 H 3388.78 0.10927 -0.662043 0
M  V30 36180 H 3391.32 -0.314544 -2.02066 0
M  V30 36181 H 3389.48 1.69055 -3.48567 0
M  V30 36182 H 3389.89 0.33323 -5.2344 0
M  V30 36183 H 3391.36 2.04018 -5.12914 0
M  V30 36184 H 3391.84 2.6108 -3.53177 0
M  V30 36185 H 3392.45 1.04634 -4.12228 0
M  V30 36186 N 3390.76 1.57444 0.0701393 0
M  V30 36187 C 3391.99 1.91943 0.78567 0
M  V30 36188 C 3392.41 0.799961 1.70242 0
M  V30 36189 O 3391.77 -0.247107 1.79608 0
M  V30 36190 C 3391.82 3.25401 1.55392 0
M  V30 36191 O 3390.92 3.14751 2.66469 0
M  V30 36192 H 3390.26 0.62849 0.214234 0
M  V30 36193 H 3392.79 2.04565 0.0378884 0
M  V30 36194 H 3392.8 3.59314 1.93281 0
M  V30 36195 H 3391.48 4.06455 0.881295 0
M  V30 36196 H 3390.05 2.92398 2.31425 0
M  V30 36197 N 3392.24 -0.341566 1.53854 0
M  V30 36198 C 3393.47 -1.09999 1.74882 0
M  V30 36199 C 3393.88 -1.82776 0.488834 0
M  V30 36200 O 3393.22 -1.75295 -0.549302 0
M  V30 36201 C 3393.28 -2.15689 2.87608 0
M  V30 36202 C 3392.95 -1.62469 4.27145 0
M  V30 36203 C 3393.94 -1.07597 5.08644 0
M  V30 36204 C 3391.63 -1.67256 4.73636 0
M  V30 36205 C 3393.62 -0.582173 6.34736 0
M  V30 36206 C 3391.31 -1.17489 5.997 0
M  V30 36207 C 3392.31 -0.630623 6.80082 0
M  V30 36208 O 3392 -0.140378 8.03777 0
M  V30 36209 H 3391.73 -0.333814 0.58783 0
M  V30 36210 H 3394.28 -0.398929 2.01489 0
M  V30 36211 H 3392.51 -2.89359 2.56531 0
M  V30 36212 H 3394.2 -2.77111 2.96587 0
M  V30 36213 H 3394.97 -1.03219 4.73889 0
M  V30 36214 H 3390.85 -2.0856 4.11125 0
M  V30 36215 H 3394.39 -0.156689 6.97424 0
M  V30 36216 H 3390.29 -1.21568 6.33949 0
M  V30 36217 H 3391.05 -0.257482 8.18095 0
M  V30 36218 N 3393.72 -1.45621 -0.602683 0
M  V30 36219 C 3394.96 -1.50116 -1.36357 0
M  V30 36220 C 3395.3 -0.144332 -1.93663 0
M  V30 36221 O 3394.57 0.84182 -1.75339 0
M  V30 36222 C 3394.85 -2.58418 -2.50783 0
M  V30 36223 C 3394.71 -4.03561 -1.98642 0
M  V30 36224 C 3396.03 -2.62963 -3.529 0
M  V30 36225 H 3393.15 -0.546528 -0.494445 0
M  V30 36226 H 3395.79 -1.77456 -0.678925 0
M  V30 36227 H 3393.94 -2.35235 -3.09187 0
M  V30 36228 H 3395.61 -4.37968 -1.4485 0
M  V30 36229 H 3393.85 -4.13986 -1.29608 0
M  V30 36230 H 3394.52 -4.75035 -2.8115 0
M  V30 36231 H 3397 -2.83748 -3.04345 0
M  V30 36232 H 3395.88 -3.40597 -4.30448 0
M  V30 36233 H 3396.14 -1.68241 -4.08837 0
M  V30 36234 N 3395.2 0.845612 -1.32993 0
M  V30 36235 C 3396.42 1.63788 -1.27233 0
M  V30 36236 C 3396.85 1.87459 0.155108 0
M  V30 36237 O 3396.2 1.43386 1.10951 0
M  V30 36238 C 3396.25 2.96913 -2.04634 0
M  V30 36239 O 3395.36 3.87897 -1.40033 0
M  V30 36240 H 3394.7 0.499004 -0.438054 0
M  V30 36241 H 3397.23 1.05254 -1.7545 0
M  V30 36242 H 3397.24 3.46663 -2.15147 0
M  V30 36243 H 3395.91 2.79005 -3.0843 0
M  V30 36244 H 3394.49 3.46376 -1.38124 0
M  V30 36245 N 3396.67 1.16351 1.06302 0
M  V30 36246 C 3397.9 0.969672 1.83336 0
M  V30 36247 C 3398.32 -0.477199 1.81946 0
M  V30 36248 O 3397.68 -1.34092 1.2202 0
M  V30 36249 C 3397.73 1.5016 3.27848 0
M  V30 36250 O 3396.83 0.707877 4.06279 0
M  V30 36251 H 3396.17 0.345082 0.567287 0
M  V30 36252 H 3398.7 1.54587 1.3403 0
M  V30 36253 H 3398.71 1.51905 3.78667 0
M  V30 36254 H 3397.39 2.55489 3.28174 0
M  V30 36255 H 3395.97 0.760936 3.65054 0
M  V30 36256 N 3398.15 -1.24835 0.961982 0
M  V30 36257 C 3399.08 -2.27945 0.506281 0
M  V30 36258 C 3400.06 -1.64008 -0.451154 0
M  V30 36259 O 3401.25 -1.91047 -0.348519 0
M  V30 36260 C 3398.38 -3.46666 -0.209785 0
M  V30 36261 C 3397.33 -4.22832 0.663109 0
M  V30 36262 C 3396.66 -5.34383 -0.184122 0
M  V30 36263 C 3397.96 -4.84739 1.94488 0
M  V30 36264 H 3399.65 -2.66315 1.3681 0
M  V30 36265 H 3397.2 -1.28021 0.659283 0
M  V30 36266 H 3399.15 -4.17929 -0.539765 0
M  V30 36267 H 3397.87 -3.07306 -1.10591 0
M  V30 36268 H 3396.53 -3.53362 0.976278 0
M  V30 36269 H 3396.18 -4.91264 -1.08022 0
M  V30 36270 H 3395.88 -5.8626 0.396673 0
M  V30 36271 H 3397.41 -6.08476 -0.508902 0
M  V30 36272 H 3398.82 -5.48106 1.68084 0
M  V30 36273 H 3397.22 -5.46823 2.47192 0
M  V30 36274 H 3398.29 -4.06513 2.64339 0
M  V30 36275 N 3399.63 -0.731417 -1.396 0
M  V30 36276 C 3400.86 -0.287926 -2.04887 0
M  V30 36277 C 3401.27 1.07597 -1.5514 0
M  V30 36278 O 3400.63 1.67922 -0.71474 0
M  V30 36279 C 3400.68 -0.276692 -3.6044 0
M  V30 36280 O 3400.4 -1.58675 -4.08355 0
M  V30 36281 C 3401.9 0.183408 -4.4292 0
M  V30 36282 H 3399.12 -0.126471 -0.658974 0
M  V30 36283 H 3401.67 -0.994063 -1.78714 0
M  V30 36284 H 3399.82 0.380529 -3.85527 0
M  V30 36285 H 3400.24 -1.49788 -5.02657 0
M  V30 36286 H 3401.71 0.14011 -5.51822 0
M  V30 36287 H 3402.19 1.22804 -4.21682 0
M  V30 36288 H 3402.79 -0.444116 -4.22975 0
M  V30 36289 N 3401.11 1.50152 -0.478778 0
M  V30 36290 C 3402.33 2.07271 0.0732565 0
M  V30 36291 C 3402.76 1.33944 1.32063 0
M  V30 36292 O 3402.12 0.389398 1.77069 0
M  V30 36293 C 3402.16 3.59064 0.332465 0
M  V30 36294 O 3401.27 3.87492 1.41151 0
M  V30 36295 H 3400.61 0.663798 -0.0163801 0
M  V30 36296 H 3403.14 1.93248 -0.672027 0
M  V30 36297 H 3403.15 4.03989 0.570664 0
M  V30 36298 H 3401.82 4.1185 -0.579006 0
M  V30 36299 H 3400.4 3.54398 1.16002 0
M  V30 36300 N 3402.59 0.211689 1.56172 0
M  V30 36301 C 3403.52 -0.734619 2.17108 0
M  V30 36302 C 3404.53 -1.16476 1.13742 0
M  V30 36303 O 3405.72 -1.09762 1.40765 0
M  V30 36304 C 3402.82 -2.00556 2.73186 0
M  V30 36305 C 3401.99 -1.73257 4.01623 0
M  V30 36306 C 3401.05 -2.8496 4.42362 0
M  V30 36307 O 3400.08 -2.53854 5.09458 0
M  V30 36308 N 3401.28 -4.13695 4.07231 0
M  V30 36309 H 3404.05 -0.213423 2.98939 0
M  V30 36310 H 3401.61 0.0303182 1.61872 0
M  V30 36311 H 3403.6 -2.74456 2.97415 0
M  V30 36312 H 3402.17 -2.43751 1.95715 0
M  V30 36313 H 3401.39 -0.830508 3.85352 0
M  V30 36314 H 3402.68 -1.52436 4.85428 0
M  V30 36315 H 3402.07 -4.41814 3.53294 0
M  V30 36316 H 3400.63 -4.8417 4.36375 0
M  V30 36317 N 3404.06 -1.57479 -0.0617887 0
M  V30 36318 C 3405.29 -1.92357 -0.775479 0
M  V30 36319 C 3405.71 -0.808979 -1.69815 0
M  V30 36320 O 3405.07 0.237579 -1.79737 0
M  V30 36321 C 3405.12 -3.2622 -1.53664 0
M  V30 36322 O 3404.22 -3.16159 -2.64796 0
M  V30 36323 H 3403.57 -0.629617 -0.210898 0
M  V30 36324 H 3406.1 -2.04582 -0.0270393 0
M  V30 36325 H 3406.11 -3.60334 -1.91373 0
M  V30 36326 H 3404.78 -4.06917 -0.859727 0
M  V30 36327 H 3403.36 -2.93622 -2.29871 0
M  V30 36328 N 3405.54 0.333401 -1.54033 0
M  V30 36329 C 3406.49 1.41077 -1.79113 0
M  V30 36330 C 3407.48 1.47331 -0.646724 0
M  V30 36331 O 3408.67 1.52029 -0.90643 0
M  V30 36332 C 3405.8 2.78075 -2.01319 0
M  V30 36333 C 3404.88 2.76172 -3.21853 0
M  V30 36334 N 3405.27 2.43895 -4.43113 0
M  V30 36335 C 3403.57 3.07311 -3.23228 0
M  V30 36336 C 3404.27 2.50481 -5.25009 0
M  V30 36337 N 3403.25 2.8652 -4.6196 0
M  V30 36338 H 3407.05 1.15034 -2.70452 0
M  V30 36339 H 3404.57 0.541828 -1.53095 0
M  V30 36340 H 3406.56 3.55714 -2.17424 0
M  V30 36341 H 3405.22 3.05055 -1.11228 0
M  V30 36342 H 3406.23 2.16914 -4.70286 0
M  V30 36343 H 3402.91 3.39397 -2.43138 0
M  V30 36344 H 3404.3 2.28599 -6.31816 0
M  V30 36345 N 3407.02 1.45939 0.594952 0
M  V30 36346 C 3408.43 1.44926 1.17701 0
M  V30 36347 C 3408.78 0.183557 1.95339 0
M  V30 36348 O 3407.91 -0.714127 2.04277 0
M  V30 36349 C 3408.5 2.62565 2.14114 0
M  V30 36350 C 3407.06 2.64632 2.67669 0
M  V30 36351 C 3406.21 2.37399 1.43307 0
M  V30 36352 H 3409.16 1.53995 0.383556 0
M  V30 36353 H 3409.18 2.37385 2.9737 0
M  V30 36354 H 3408.69 3.54669 1.57579 0
M  V30 36355 H 3406.79 1.76568 3.28107 0
M  V30 36356 H 3406.91 3.64234 3.1124 0
M  V30 36357 H 3405.27 1.87209 1.72699 0
M  V30 36358 H 3406.05 3.31664 0.886218 0
M  V30 36359 N 3408.5 -0.838547 1.3344 0
M  V30 36360 C 3409.43 -1.96363 1.26348 0
M  V30 36361 C 3410.41 -1.69489 0.143986 0
M  V30 36362 O 3411.59 -1.9131 0.333813 0
M  V30 36363 C 3408.72 -3.32524 1.00226 0
M  V30 36364 C 3407.68 -3.73796 2.08472 0
M  V30 36365 C 3407 -5.07766 1.67564 0
M  V30 36366 C 3408.3 -3.87546 3.50151 0
M  V30 36367 H 3410 -2.02555 2.20481 0
M  V30 36368 H 3407.54 -0.973149 1.0614 0
M  V30 36369 H 3409.5 -4.10802 0.93914 0
M  V30 36370 H 3408.22 -3.2659 0.0253088 0
M  V30 36371 H 3406.88 -2.97781 2.13827 0
M  V30 36372 H 3406.53 -4.98304 0.685707 0
M  V30 36373 H 3406.23 -5.36351 2.40002 0
M  V30 36374 H 3407.75 -5.88519 1.62719 0
M  V30 36375 H 3409.17 -4.56135 3.47295 0
M  V30 36376 H 3407.56 -4.27568 4.21077 0
M  V30 36377 H 3408.63 -2.89987 3.88633 0
M  V30 36378 N 3409.98 -1.16914 -1.05683 0
M  V30 36379 C 3411.39 -0.91535 -1.30742 0
M  V30 36380 C 3411.59 0.428309 -1.96895 0
M  V30 36381 O 3410.65 1.16643 -2.23944 0
M  V30 36382 C 3411.96 -2.06898 -2.18205 0
M  V30 36383 C 3413.51 -2.10544 -2.31603 0
M  V30 36384 C 3413.98 -3.25279 -3.22424 0
M  V30 36385 N 3415.48 -3.25036 -3.30009 0
M  V30 36386 C 3416.21 -4.10454 -4.00393 0
M  V30 36387 N 3415.71 -5.05973 -4.73248 0
M  V30 36388 N 3417.5 -3.9842 -3.96507 0
M  V30 36389 H 3409.65 -2.0341 -0.611413 0
M  V30 36390 H 3411.91 -0.887899 -0.332173 0
M  V30 36391 H 3411.62 -3.03983 -1.76882 0
M  V30 36392 H 3411.49 -2.01578 -3.1882 0
M  V30 36393 H 3413.88 -1.14049 -2.72171 0
M  V30 36394 H 3413.96 -2.19927 -1.30635 0
M  V30 36395 H 3413.61 -4.22037 -2.82572 0
M  V30 36396 H 3413.54 -3.13132 -4.23386 0
M  V30 36397 H 3416.03 -2.55874 -2.78096 0
M  V30 36398 H 3416.34 -5.67557 -5.24499 0
M  V30 36399 H 3414.68 -5.09947 -4.72207 0
M  V30 36400 H 3417.88 -3.23096 -3.38713 0
M  V30 36401 H 3418.05 -4.6521 -4.51091 0
M  V30 36402 N 3411.45 1.24323 -0.968589 0
M  V30 36403 C 3412.87 1.44611 -0.675265 0
M  V30 36404 C 3413.07 1.86511 0.762608 0
M  V30 36405 O 3412.13 2.00377 1.5364 0
M  V30 36406 C 3413.44 2.5072 -1.66012 0
M  V30 36407 C 3414.99 2.64547 -1.67284 0
M  V30 36408 C 3415.46 3.73854 -2.64569 0
M  V30 36409 N 3416.95 3.81283 -2.63017 0
M  V30 36410 C 3417.69 4.65388 -3.34965 0
M  V30 36411 N 3417.18 5.53674 -4.16434 0
M  V30 36412 N 3418.98 4.59477 -3.23786 0
M  V30 36413 H 3411.13 0.954224 -1.89759 0
M  V30 36414 H 3413.39 0.480827 -0.817013 0
M  V30 36415 H 3413.1 2.26823 -2.68783 0
M  V30 36416 H 3412.97 3.48895 -1.43359 0
M  V30 36417 H 3415.36 2.87802 -0.652235 0
M  V30 36418 H 3415.44 1.66726 -1.94 0
M  V30 36419 H 3415.08 3.51349 -3.66765 0
M  V30 36420 H 3415.01 4.7119 -2.35133 0
M  V30 36421 H 3417.5 3.18183 -2.03883 0
M  V30 36422 H 3417.82 6.1481 -4.68218 0
M  V30 36423 H 3416.16 5.53336 -4.20528 0
M  V30 36424 H 3419.35 3.89519 -2.596 0
M  V30 36425 H 3419.53 5.24797 -3.80121 0
M  V30 36426 N 3412.93 0.73881 1.3921 0
M  V30 36427 C 3414.18 0.288852 2.00732 0
M  V30 36428 C 3414.51 -1.12217 1.58496 0
M  V30 36429 O 3413.79 -1.76573 0.81561 0
M  V30 36430 C 3414.07 0.395019 3.57927 0
M  V30 36431 C 3413.92 1.84608 4.1017 0
M  V30 36432 C 3415.24 -0.220318 4.39548 0
M  V30 36433 H 3412.36 0.106431 0.729275 0
M  V30 36434 H 3415 0.935681 1.65363 0
M  V30 36435 H 3413.15 -0.155676 3.88188 0
M  V30 36436 H 3414.82 2.45395 3.90614 0
M  V30 36437 H 3413.07 2.36613 3.63588 0
M  V30 36438 H 3413.74 1.87161 5.19302 0
M  V30 36439 H 3416.21 0.249171 4.15353 0
M  V30 36440 H 3415.09 -0.115709 5.48778 0
M  V30 36441 H 3415.35 -1.30684 4.22344 0
M  V30 36442 N 3414.41 -1.49895 0.486734 0
M  V30 36443 C 3415.82 -1.86666 0.0354234 0
M  V30 36444 C 3416.17 -1.40029 -1.37428 0
M  V30 36445 O 3415.3 -0.771975 -2.02162 0
M  V30 36446 C 3415.89 -3.38751 0.057507 0
M  V30 36447 C 3414.45 -3.74876 -0.338398 0
M  V30 36448 C 3413.6 -2.73847 0.436244 0
M  V30 36449 H 3416.55 -1.42416 0.70024 0
M  V30 36450 H 3416.57 -3.73213 -0.741109 0
M  V30 36451 H 3416.08 -3.72665 1.08363 0
M  V30 36452 H 3414.18 -3.46567 -1.36829 0
M  V30 36453 H 3414.3 -4.79091 -0.0288677 0
M  V30 36454 H 3412.66 -2.54453 -0.112097 0
M  V30 36455 H 3413.44 -3.10605 1.46217 0
M  V30 36456 N 3415.89 -0.219968 -1.56057 0
M  V30 36457 C 3416.84 0.707282 -2.21586 0
M  V30 36458 C 3417.83 1.20091 -1.19476 0
M  V30 36459 O 3419.04 1.16093 -1.37559 0
M  V30 36460 H 3415.41 0.246502 -0.710451 0
M  V30 36461 H 3417.38 0.131162 -2.98112 0
M  V30 36462 C 3416.13 1.90539 -2.90844 0
M  V30 36463 H 3415.46 1.53466 -3.69172 0
M  V30 36464 H 3416.9 2.532 -3.40096 0
M  V30 36465 C 3415.35 2.7598 -1.93227 0
M  V30 36466 O 3415.88 3.74686 -1.44822 0
M  V30 36467 N 3414.09 2.41983 -1.60912 0
M  V30 36468 H 3413.64 1.61771 -2.0047 0
M  V30 36469 H 3413.6 2.9943 -0.958587 0
M  V30 36470 N 3417.37 1.57509 0.0534363 0
M  V30 36471 C 3418.62 1.87765 0.747589 0
M  V30 36472 C 3418.94 0.814464 1.77176 0
M  V30 36473 O 3418.21 -0.154828 1.95287 0
M  V30 36474 H 3416.79 0.692902 0.279097 0
M  V30 36475 H 3419.45 1.94884 0.0251663 0
M  V30 36476 H 3418.54 2.8587 1.25239 0
M  V30 36477 N 3418.85 -0.325228 1.54208 0
M  V30 36478 C 3420.08 -1.08138 1.76039 0
M  V30 36479 C 3420.48 -1.82247 0.508192 0
M  V30 36480 O 3419.83 -1.75868 -0.530679 0
M  V30 36481 C 3419.89 -2.12626 2.8988 0
M  V30 36482 C 3419.55 -1.5793 4.28844 0
M  V30 36483 C 3420.55 -1.02196 5.09757 0
M  V30 36484 C 3418.23 -1.62223 4.75383 0
M  V30 36485 C 3420.23 -0.514818 6.35318 0
M  V30 36486 C 3417.92 -1.11122 6.00912 0
M  V30 36487 C 3418.91 -0.558456 6.80713 0
M  V30 36488 O 3418.6 -0.0551187 8.03881 0
M  V30 36489 H 3418.33 -0.32756 0.591338 0
M  V30 36490 H 3420.89 -0.377536 2.01901 0
M  V30 36491 H 3419.12 -2.86622 2.59586 0
M  V30 36492 H 3420.81 -2.7395 2.9951 0
M  V30 36493 H 3421.57 -0.98187 4.74957 0
M  V30 36494 H 3417.45 -2.04188 4.13314 0
M  V30 36495 H 3421 -0.0827088 6.97551 0
M  V30 36496 H 3416.89 -1.14837 6.35203 0
M  V30 36497 H 3417.66 -0.170698 8.18322 0
M  V30 36498 N 3420.32 -1.46252 -0.587204 0
M  V30 36499 C 3421.27 -1.52893 -1.69138 0
M  V30 36500 C 3422.26 -0.390267 -1.56095 0
M  V30 36501 O 3423.45 -0.638402 -1.65086 0
M  V30 36502 C 3420.58 -1.51791 -3.0792 0
M  V30 36503 C 3419.66 -2.70934 -3.26275 0
M  V30 36504 N 3420.06 -3.95891 -3.14808 0
M  V30 36505 C 3418.35 -2.67063 -3.57202 0
M  V30 36506 C 3419.05 -4.75519 -3.35046 0
M  V30 36507 N 3418.03 -4.07317 -3.59992 0
M  V30 36508 H 3421.83 -2.47308 -1.58796 0
M  V30 36509 H 3419.35 -1.41829 -0.791099 0
M  V30 36510 H 3421.34 -1.54635 -3.87161 0
M  V30 36511 H 3420 -0.584491 -3.19396 0
M  V30 36512 H 3421.01 -4.27207 -2.9277 0
M  V30 36513 H 3417.69 -1.82724 -3.75391 0
M  V30 36514 H 3419.08 -5.84485 -3.31402 0
M  V30 36515 N 3421.8 0.831459 -1.33883 0
M  V30 36516 C 3423.04 1.60079 -1.27098 0
M  V30 36517 C 3423.41 1.9134 0.159077 0
M  V30 36518 O 3424.61 2.66499 0.350982 0
M  V30 36519 C 3422.88 2.87084 -2.12879 0
M  V30 36520 S 3424.44 3.77698 -2.2336 0
M  V30 36521 H 3421.25 0.548784 -0.452058 0
M  V30 36522 H 3423.86 0.98282 -1.69 0
M  V30 36523 H 3422.56 2.62102 -3.15801 0
M  V30 36524 H 3422.09 3.53884 -1.71842 0
M  V30 36525 H 3424.11 4.76037 -1.40011 0
M  V30 36526 N 3423.28 1.17472 1.05062 0
M  V30 36527 C 3424.51 0.988496 1.81759 0
M  V30 36528 C 3424.92 -0.46324 1.83029 0
M  V30 36529 O 3424.28 -1.32169 1.25848 0
M  V30 36530 C 3424.33 1.52376 3.27817 0
M  V30 36531 O 3424.05 2.91865 3.26721 0
M  V30 36532 C 3425.55 1.3823 4.21197 0
M  V30 36533 H 3422.77 0.349641 0.572706 0
M  V30 36534 H 3425.32 1.55791 1.32474 0
M  V30 36535 H 3423.47 0.996338 3.74369 0
M  V30 36536 H 3423.89 3.1663 4.18145 0
M  V30 36537 H 3425.36 1.80494 5.21657 0
M  V30 36538 H 3425.84 0.329568 4.37962 0
M  V30 36539 H 3426.44 1.89995 3.80502 0
M  V30 36540 N 3424.76 -1.23807 0.975168 0
M  V30 36541 C 3425.69 -2.27395 0.530429 0
M  V30 36542 C 3426.67 -1.64477 -0.433734 0
M  V30 36543 O 3427.85 -1.91406 -0.328236 0
M  V30 36544 C 3424.98 -3.46869 -0.173005 0
M  V30 36545 C 3423.94 -4.22105 0.707919 0
M  V30 36546 C 3423.26 -5.34548 -0.127433 0
M  V30 36547 C 3424.56 -4.82649 1.99618 0
M  V30 36548 H 3426.26 -2.64849 1.39627 0
M  V30 36549 H 3423.8 -1.27315 0.672824 0
M  V30 36550 H 3425.76 -4.18478 -0.495408 0
M  V30 36551 H 3424.48 -3.08462 -1.07325 0
M  V30 36552 H 3423.14 -3.52306 1.0137 0
M  V30 36553 H 3422.79 -4.92382 -1.02805 0
M  V30 36554 H 3422.49 -5.85806 0.458831 0
M  V30 36555 H 3424.01 -6.08981 -0.444336 0
M  V30 36556 H 3425.43 -5.46293 1.73888 0
M  V30 36557 H 3423.82 -5.44171 2.52978 0
M  V30 36558 H 3424.89 -4.03686 2.68636 0
M  V30 36559 N 3426.24 -0.746182 -1.38816 0
M  V30 36560 C 3427.48 -0.29846 -1.99884 0
M  V30 36561 C 3427.8 1.12153 -1.5952 0
M  V30 36562 O 3427.07 1.76566 -0.848599 0
M  V30 36563 H 3425.65 -0.10736 -0.739245 0
M  V30 36564 H 3428.32 -0.95863 -1.69695 0
M  V30 36565 H 3427.41 -0.355711 -3.10066 0
M  V30 36566 N 3427.71 1.49635 -0.494676 0
M  V30 36567 C 3428.64 2.31856 0.276566 0
M  V30 36568 C 3429.62 1.39838 0.968474 0
M  V30 36569 O 3430.81 1.6875 0.9611 0
M  V30 36570 C 3427.94 3.20192 1.34516 0
M  V30 36571 C 3426.89 4.20953 0.773497 0
M  V30 36572 C 3426.22 4.98182 1.94214 0
M  V30 36573 C 3427.52 5.21788 -0.231188 0
M  V30 36574 H 3429.21 2.96583 -0.40972 0
M  V30 36575 H 3426.76 1.42625 -0.198486 0
M  V30 36576 H 3428.71 3.7652 1.89237 0
M  V30 36577 H 3427.44 2.53395 2.06054 0
M  V30 36578 H 3426.1 3.6576 0.24808 0
M  V30 36579 H 3425.74 4.27838 2.64506 0
M  V30 36580 H 3425.44 5.66355 1.56574 0
M  V30 36581 H 3426.97 5.57352 2.49381 0
M  V30 36582 H 3428.38 5.72848 0.227667 0
M  V30 36583 H 3426.78 5.97816 -0.52309 0
M  V30 36584 H 3427.85 4.71085 -1.14922 0
M  V30 36585 N 3429.19 0.228241 1.55939 0
M  V30 36586 C 3430.42 -0.409328 2.03321 0
M  V30 36587 C 3430.84 -1.52086 1.10686 0
M  V30 36588 O 3430.2 -1.81044 0.0962802 0
M  V30 36589 C 3430.25 -0.91192 3.48879 0
M  V30 36590 O 3429.35 -2.02283 3.59382 0
M  V30 36591 H 3428.69 -0.0917793 0.657626 0
M  V30 36592 H 3431.22 0.348837 2.01604 0
M  V30 36593 H 3431.23 -1.22 3.89333 0
M  V30 36594 H 3429.91 -0.0984171 4.15784 0
M  V30 36595 H 3428.48 -1.72087 3.30818 0
M  V30 36596 N 3430.67 -1.57536 -0.0450825 0
M  V30 36597 C 3431.9 -1.93168 -0.755034 0
M  V30 36598 C 3432.32 -0.826944 -1.68947 0
M  V30 36599 O 3431.68 0.218502 -1.79978 0
M  V30 36600 C 3431.73 -3.27832 -1.50196 0
M  V30 36601 O 3430.83 -3.1895 -2.61428 0
M  V30 36602 H 3430.17 -0.631819 -0.204208 0
M  V30 36603 H 3432.7 -2.04599 -0.00533908 0
M  V30 36604 H 3432.71 -3.62343 -1.8754 0
M  V30 36605 H 3431.39 -4.07806 -0.81652 0
M  V30 36606 H 3429.96 -2.96043 -2.26744 0
M  V30 36607 N 3432.15 0.317045 -1.54378 0
M  V30 36608 C 3433.4 1.05213 -1.72553 0
M  V30 36609 C 3433.72 1.88333 -0.505533 0
M  V30 36610 O 3432.99 1.89918 0.480405 0
M  V30 36611 H 3431.57 0.391436 -0.636229 0
M  V30 36612 H 3434.23 0.351906 -1.91697 0
M  V30 36613 H 3433.33 1.71444 -2.60794 0
M  V30 36614 N 3433.63 1.46561 0.57944 0
M  V30 36615 C 3434.87 1.5174 1.33489 0
M  V30 36616 C 3435.2 0.17196 1.9424 0
M  V30 36617 O 3434.47 -0.801843 1.78738 0
M  V30 36618 H 3433.05 0.558883 0.49564 0
M  V30 36619 H 3435.71 1.82714 0.678362 0
M  V30 36620 H 3434.8 2.27187 2.13992 0
M  V30 36621 N 3435.1 -0.824347 1.34322 0
M  V30 36622 C 3436.52 -1.11725 1.13972 0
M  V30 36623 C 3436.72 -2.01411 -0.0597243 0
M  V30 36624 O 3435.78 -2.41545 -0.735674 0
M  V30 36625 C 3437.09 -1.76533 2.43426 0
M  V30 36626 C 3438.64 -1.89035 2.49469 0
M  V30 36627 C 3439.11 -2.57259 3.78922 0
M  V30 36628 N 3440.6 -2.6476 3.80074 0
M  V30 36629 C 3441.34 -3.18274 4.76958 0
M  V30 36630 N 3440.83 -3.72363 5.84224 0
M  V30 36631 N 3442.63 -3.16662 4.64416 0
M  V30 36632 H 3434.78 -0.227765 2.11175 0
M  V30 36633 H 3437.04 -0.163599 0.933777 0
M  V30 36634 H 3436.75 -1.18096 3.3128 0
M  V30 36635 H 3436.62 -2.76415 2.5666 0
M  V30 36636 H 3439.01 -2.46621 1.62056 0
M  V30 36637 H 3439.09 -0.880593 2.40165 0
M  V30 36638 H 3438.73 -2.00328 4.66724 0
M  V30 36639 H 3438.66 -3.58735 3.85508 0
M  V30 36640 H 3441.15 -2.26419 3.0256 0
M  V30 36641 H 3441.47 -4.11443 6.54167 0
M  V30 36642 H 3439.81 -3.7061 5.8794 0
M  V30 36643 H 3443 -2.73672 3.79765 0
M  V30 36644 H 3443.18 -3.58063 5.40088 0
M  V30 36645 N 3436.58 -1.18028 -1.04437 0
M  V30 36646 C 3437.55 -0.906065 -2.10531 0
M  V30 36647 C 3438.55 0.106994 -1.60444 0
M  V30 36648 O 3439.74 -0.126032 -1.73743 0
M  V30 36649 C 3436.87 -0.358685 -3.39008 0
M  V30 36650 H 3438.06 -1.84681 -2.3629 0
M  V30 36651 H 3435.61 -0.991785 -1.20803 0
M  V30 36652 H 3436.35 0.588848 -3.18909 0
M  V30 36653 H 3436.13 -1.08891 -3.76676 0
M  V30 36654 H 3437.62 -0.185404 -4.17188 0
M  V30 36655 N 3438.06 1.23288 -0.98172 0
M  V30 36656 C 3439.48 1.43887 -0.690565 0
M  V30 36657 C 3439.68 1.8731 0.742783 0
M  V30 36658 O 3438.73 2.01995 1.51506 0
M  V30 36659 C 3440.05 2.48945 -1.68662 0
M  V30 36660 C 3441.59 2.62758 -1.70081 0
M  V30 36661 C 3442.07 3.71027 -2.6852 0
M  V30 36662 N 3443.56 3.78471 -2.67046 0
M  V30 36663 C 3444.29 4.61809 -3.39883 0
M  V30 36664 N 3443.79 5.49226 -4.22283 0
M  V30 36665 N 3445.58 4.56017 -3.28641 0
M  V30 36666 H 3437.73 0.934043 -1.9076 0
M  V30 36667 H 3440 0.472134 -0.822066 0
M  V30 36668 H 3439.7 2.23959 -2.71174 0
M  V30 36669 H 3439.58 3.47355 -1.47051 0
M  V30 36670 H 3441.96 2.87094 -0.682723 0
M  V30 36671 H 3442.05 1.64659 -1.95757 0
M  V30 36672 H 3441.69 3.47439 -3.70471 0
M  V30 36673 H 3441.62 4.6867 -2.40117 0
M  V30 36674 H 3444.11 3.16002 -2.07246 0
M  V30 36675 H 3444.42 6.0981 -4.74713 0
M  V30 36676 H 3442.77 5.48845 -4.26373 0
M  V30 36677 H 3445.96 3.86744 -2.63717 0
M  V30 36678 H 3446.13 5.20736 -3.85666 0
M  V30 36679 N 3439.54 0.753533 1.38418 0
M  V30 36680 C 3440.49 0.101483 2.27774 0
M  V30 36681 C 3441.47 -0.693297 1.45197 0
M  V30 36682 O 3442.66 -0.559261 1.67932 0
M  V30 36683 C 3439.79 -0.790918 3.34065 0
M  V30 36684 C 3438.88 0.0107075 4.24099 0
M  V30 36685 N 3439.27 1.04709 4.94843 0
M  V30 36686 C 3437.57 -0.216115 4.45476 0
M  V30 36687 C 3438.27 1.53208 5.61161 0
M  V30 36688 N 3437.25 0.847398 5.36954 0
M  V30 36689 H 3441.05 0.895237 2.79933 0
M  V30 36690 H 3438.56 0.589571 1.5132 0
M  V30 36691 H 3440.56 -1.27368 3.96967 0
M  V30 36692 H 3439.22 -1.58362 2.83463 0
M  V30 36693 H 3440.23 1.42888 4.97799 0
M  V30 36694 H 3436.91 -0.982167 4.05783 0
M  V30 36695 H 3438.3 2.39536 6.27752 0
M  V30 36696 N 3441.02 -1.49371 0.502605 0
M  V30 36697 C 3442.24 -2.07361 -0.0402723 0
M  V30 36698 C 3442.67 -1.36028 -1.29916 0
M  V30 36699 O 3442.02 -0.417519 -1.76427 0
M  V30 36700 C 3442.07 -3.59548 -0.275298 0
M  V30 36701 O 3441.18 -3.89689 -1.34968 0
M  V30 36702 H 3440.52 -0.663453 0.0269384 0
M  V30 36703 H 3443.05 -1.92155 0.702686 0
M  V30 36704 H 3443.06 -4.04846 -0.50632 0
M  V30 36705 H 3441.73 -4.10877 0.644455 0
M  V30 36706 H 3440.31 -3.56199 -1.10349 0
M  V30 36707 N 3442.49 -0.236508 -1.55815 0
M  V30 36708 C 3443.72 0.394975 -2.02789 0
M  V30 36709 C 3444.13 1.5283 -1.11532 0
M  V30 36710 O 3443.48 1.83307 -0.120116 0
M  V30 36711 C 3443.54 0.974006 -3.46054 0
M  V30 36712 C 3443.2 -0.0257629 -4.56993 0
M  V30 36713 C 3444.2 -0.831567 -5.13207 0
M  V30 36714 C 3441.88 -0.148847 -5.02079 0
M  V30 36715 C 3443.88 -1.74701 -6.12991 0
M  V30 36716 C 3441.56 -1.06781 -6.01698 0
M  V30 36717 C 3442.56 -1.86543 -6.57032 0
M  V30 36718 O 3442.25 -2.76892 -7.54709 0
M  V30 36719 H 3441.98 0.099257 -0.668673 0
M  V30 36720 H 3444.54 -0.354862 -2.02311 0
M  V30 36721 H 3442.77 1.77321 -3.43648 0
M  V30 36722 H 3444.46 1.51447 -3.76588 0
M  V30 36723 H 3445.22 -0.747006 -4.79213 0
M  V30 36724 H 3441.1 0.461895 -4.5868 0
M  V30 36725 H 3444.64 -2.37001 -6.56107 0
M  V30 36726 H 3440.54 -1.15333 -6.35113 0
M  V30 36727 H 3441.31 -2.71135 -7.72287 0
M  V30 36728 N 3443.97 1.57557 0.0367273 0
M  V30 36729 C 3444.92 2.02518 1.04741 0
M  V30 36730 C 3445.91 0.913139 1.32479 0
M  V30 36731 O 3447.1 1.17705 1.32192 0
M  V30 36732 C 3444.23 2.50179 2.35086 0
M  V30 36733 C 3443.31 3.68188 2.10471 0
M  V30 36734 N 3443.7 4.81178 1.5589 0
M  V30 36735 C 3442 3.75414 2.40791 0
M  V30 36736 C 3442.7 5.62845 1.46904 0
M  V30 36737 N 3441.68 5.0773 1.94193 0
M  V30 36738 H 3445.48 2.87301 0.619291 0
M  V30 36739 H 3443 1.60569 0.243179 0
M  V30 36740 H 3444.99 2.80645 3.08292 0
M  V30 36741 H 3443.65 1.66798 2.78583 0
M  V30 36742 H 3444.66 5.02771 1.24266 0
M  V30 36743 H 3441.34 3.02818 2.87415 0
M  V30 36744 H 3442.73 6.63604 1.05259 0
M  V30 36745 N 3445.45 -0.308854 1.54544 0
M  V30 36746 C 3446.4 -1.38209 1.81334 0
M  V30 36747 C 3447.39 -1.46283 0.670082 0
M  V30 36748 O 3448.58 -1.50568 0.930502 0
M  V30 36749 C 3445.71 -2.74837 2.05718 0
M  V30 36750 C 3444.79 -2.71017 3.26206 0
M  V30 36751 N 3445.18 -2.36814 4.46937 0
M  V30 36752 C 3443.48 -3.02129 3.28076 0
M  V30 36753 C 3444.18 -2.42097 5.28927 0
M  V30 36754 N 3443.16 -2.79135 4.6646 0
M  V30 36755 H 3446.96 -1.10717 2.72248 0
M  V30 36756 H 3444.47 -0.517403 1.53937 0
M  V30 36757 H 3446.47 -3.5221 2.23055 0
M  V30 36758 H 3445.13 -3.03247 1.16067 0
M  V30 36759 H 3446.14 -2.09404 4.73677 0
M  V30 36760 H 3442.82 -3.35486 2.48507 0
M  V30 36761 H 3444.21 -2.18519 6.35373 0
M  V30 36762 N 3446.93 -1.46867 -0.571659 0
M  V30 36763 C 3448.34 -1.4678 -1.1538 0
M  V30 36764 C 3448.69 -0.21461 -1.95023 0
M  V30 36765 O 3447.82 0.681538 -2.05387 0
M  V30 36766 C 3448.41 -2.65938 -2.0991 0
M  V30 36767 C 3446.97 -2.68857 -2.63425 0
M  V30 36768 C 3446.12 -2.39649 -1.39512 0
M  V30 36769 H 3449.07 -1.54586 -0.359008 0
M  V30 36770 H 3449.09 -2.42086 -2.93555 0
M  V30 36771 H 3448.6 -3.57131 -1.51917 0
M  V30 36772 H 3446.7 -1.81766 -3.25257 0
M  V30 36773 H 3446.82 -3.6914 -3.05406 0
M  V30 36774 H 3445.18 -1.89933 -1.69699 0
M  V30 36775 H 3445.96 -3.33032 -0.833341 0
M  V30 36776 N 3448.41 0.817212 -1.34757 0
M  V30 36777 C 3449.68 1.55991 -1.1801 0
M  V30 36778 C 3450.06 2.09673 0.245042 0
M  V30 36779 O 3449.41 1.91464 1.24715 0
M  V30 36780 C 3449.62 2.6768 -2.23939 0
M  V30 36781 C 3450.97 3.36299 -2.59207 0
M  V30 36782 O 3451.99 2.77941 -2.22772 0
M  V30 36783 O 3450.85 4.41697 -3.21817 0
M  V30 36784 H 3447.95 0.688721 -0.457812 0
M  V30 36785 H 3450.49 0.858091 -1.46407 0
M  V30 36786 H 3449.27 2.25808 -3.19572 0
M  V30 36787 H 3448.89 3.45506 -1.96751 0
M  V30 36788 N 3449.89 1.1858 1.0381 0
M  V30 36789 C 3450.82 0.872908 2.11927 0
M  V30 36790 C 3451.83 -0.130563 1.62276 0
M  V30 36791 O 3453.02 0.0976182 1.78233 0
M  V30 36792 C 3450.12 0.28338 3.37713 0
M  V30 36793 C 3449.29 1.33314 4.16589 0
M  V30 36794 C 3448.35 0.758837 5.207 0
M  V30 36795 O 3447.38 1.43421 5.50835 0
M  V30 36796 N 3448.58 -0.442403 5.78812 0
M  V30 36797 H 3451.34 1.8035 2.39361 0
M  V30 36798 H 3448.91 1.08654 1.20025 0
M  V30 36799 H 3450.9 -0.114453 4.04538 0
M  V30 36800 H 3449.47 -0.551293 3.077 0
M  V30 36801 H 3448.69 1.90619 3.45048 0
M  V30 36802 H 3449.98 2.04079 4.66079 0
M  V30 36803 H 3449.37 -1.00879 5.56633 0
M  V30 36804 H 3447.93 -0.782126 6.4709 0
M  V30 36805 N 3451.36 -1.22766 0.988245 0
M  V30 36806 C 3452.64 -1.86877 0.577611 0
M  V30 36807 C 3453.02 -1.88759 -0.945164 0
M  V30 36808 O 3452.37 -1.37478 -1.82516 0
M  V30 36809 C 3452.58 -3.27988 1.19269 0
M  V30 36810 C 3453.93 -4.0452 1.29031 0
M  V30 36811 O 3454.95 -3.37237 1.14673 0
M  V30 36812 O 3453.81 -5.24948 1.51959 0
M  V30 36813 H 3450.9 -0.803537 0.195593 0
M  V30 36814 H 3453.45 -1.30581 1.08383 0
M  V30 36815 H 3452.22 -3.21227 2.23448 0
M  V30 36816 H 3451.84 -3.91884 0.671774 0
M  V30 36817 N 3452.84 -0.760864 -1.38017 0
M  V30 36818 C 3453.79 -0.113561 -2.27717 0
M  V30 36819 C 3454.78 0.685587 -1.45563 0
M  V30 36820 O 3455.97 0.550347 -1.68227 0
M  V30 36821 C 3453.1 0.773191 -3.3448 0
M  V30 36822 C 3452.18 -0.0331983 -4.24087 0
M  V30 36823 N 3452.57 -1.07332 -4.94281 0
M  V30 36824 C 3450.87 0.192487 -4.45584 0
M  V30 36825 C 3451.57 -1.56182 -5.60341 0
M  V30 36826 N 3450.55 -0.875863 -5.36498 0
M  V30 36827 H 3454.35 -0.91007 -2.79455 0
M  V30 36828 H 3451.86 -0.597588 -1.51005 0
M  V30 36829 H 3453.86 1.25261 -3.97637 0
M  V30 36830 H 3452.52 1.56857 -2.84299 0
M  V30 36831 H 3453.53 -1.45526 -4.97034 0
M  V30 36832 H 3450.21 0.960633 -4.06298 0
M  V30 36833 H 3451.6 -2.42862 -6.26473 0
M  V30 36834 N 3454.32 1.49102 -0.510519 0
M  V30 36835 C 3455.57 2.03387 0.0226087 0
M  V30 36836 C 3455.92 1.38244 1.33814 0
M  V30 36837 O 3455.21 0.512314 1.84624 0
M  V30 36838 C 3455.41 3.56711 0.221859 0
M  V30 36839 C 3455.24 4.36716 -1.07281 0
M  V30 36840 C 3454.01 4.78381 -1.62727 0
M  V30 36841 C 3456.2 4.7472 -1.97852 0
M  V30 36842 N 3454.19 5.42849 -2.86685 0
M  V30 36843 C 3455.56 5.39005 -3.06388 0
M  V30 36844 C 3457.61 4.56657 -1.98415 0
M  V30 36845 C 3456.32 5.87138 -4.15526 0
M  V30 36846 C 3458.34 5.05758 -3.06534 0
M  V30 36847 C 3457.7 5.70051 -4.13788 0
M  V30 36848 H 3453.8 0.781314 -0.032744 0
M  V30 36849 H 3456.39 1.82158 -0.687489 0
M  V30 36850 H 3454.56 3.77804 0.901021 0
M  V30 36851 H 3456.29 3.97636 0.752846 0
M  V30 36852 H 3453.04 4.5889 -1.17117 0
M  V30 36853 H 3453.47 5.79662 -3.49743 0
M  V30 36854 H 3458.11 4.06348 -1.16796 0
M  V30 36855 H 3455.83 6.36463 -4.97936 0
M  V30 36856 H 3459.41 4.93586 -3.08001 0
M  V30 36857 H 3458.29 6.07357 -4.96072 0
M  V30 36858 N 3455.8 0.244768 1.55688 0
M  V30 36859 C 3457.04 -0.382131 2.00796 0
M  V30 36860 C 3457.4 -1.55284 1.1292 0
M  V30 36861 O 3458.6 -2.24733 1.47475 0
M  V30 36862 C 3456.87 -0.783647 3.48703 0
M  V30 36863 S 3458.43 -1.40137 4.15821 0
M  V30 36864 H 3455.25 -0.12033 0.700744 0
M  V30 36865 H 3457.85 0.359501 1.92166 0
M  V30 36866 H 3456.56 0.0777279 4.10326 0
M  V30 36867 H 3456.09 -1.55751 3.61255 0
M  V30 36868 H 3458.1 -2.69042 4.1693 0
M  V30 36869 O 3457.31 -1.6113 0.109312 0
M  V30 36870 H 3458.01 -1.87375 -0.490966 0
M  V30 END ATOM
M  V30 BEGIN BOND
M  V30 END BOND
M  V30 END CTAB
M  END
$$$$
