drugbank_target|P29376 Leukocyte tyrosine kinase receptor (DB12010)
 OpenBabel12092121163D

  0  0  0     0  0            999 V3000
M  V30 BEGIN CTAB
M  V30 COUNTS 12766 12932 0 0 0
M  V30 BEGIN ATOM
M  V30 1 H -0.908 1.98254 -0.117106 0
M  V30 2 N 0 1.576 0 0
M  V30 3 C 0.933 2.03868 1.02534 0
M  V30 4 C 1.911 0.928543 1.3348 0
M  V30 5 O 3.095 1.19667 1.45644 0
M  V30 6 C 0.222 2.43627 2.35294 0
M  V30 7 C -0.732 3.65373 2.2001 0
M  V30 8 S 0.101 5.13292 1.52614 0
M  V30 9 C 1.257 5.56322 2.86805 0
M  V30 10 H 1.49 2.90518 0.631377 0
M  V30 11 H -0.977 1.52953 0.210867 0
M  V30 12 H 0.981 2.67203 3.11629 0
M  V30 13 H -0.358 1.57376 2.7183 0
M  V30 14 H -1.165 3.90944 3.18086 0
M  V30 15 H -1.563 3.418 1.51819 0
M  V30 16 H 0.729 5.58782 3.83104 0
M  V30 17 H 1.672 6.56266 2.65933 0
M  V30 18 H 2.08 4.83886 2.90714 0
M  V30 19 N 1.4781 -0.272755 1.55222 0
M  V30 20 C 2.7261 -1.00234 1.75492 0
M  V30 21 C 3.0471 -1.8681 0.5592 0
M  V30 22 O 2.3171 -1.91215 -0.425882 0
M  V30 23 H 0.8971 -0.373076 0.647166 0
M  V30 24 H 3.5591 -0.296926 1.92625 0
M  V30 25 H 2.6551 -1.63913 2.65592 0
M  V30 26 N 2.9562 -1.48159 -0.537278 0
M  V30 27 C 4.1962 -1.57397 -1.30405 0
M  V30 28 C 4.5602 -0.239202 -1.90504 0
M  V30 29 O 5.7612 -0.206528 -2.68005 0
M  V30 30 C 4.0322 -2.6754 -2.36974 0
M  V30 31 S 5.5912 -2.96496 -3.23475 0
M  V30 32 H 2.4092 -0.555577 -0.443684 0
M  V30 33 H 5.0112 -1.85644 -0.612912 0
M  V30 34 H 3.7152 -3.63092 -1.91291 0
M  V30 35 H 3.2462 -2.41172 -3.10805 0
M  V30 36 H 5.2612 -2.35234 -4.36897 0
M  V30 37 N 4.4343 0.785586 -1.36625 0
M  V30 38 C 5.6803 1.5452 -1.32269 0
M  V30 39 C 6.0353 1.92159 0.0962266 0
M  V30 40 O 5.3283 1.60158 1.05167 0
M  V30 41 C 5.5223 2.83007 -2.1827 0
M  V30 42 C 5.3513 2.57925 -3.68382 0
M  V30 43 C 4.1213 2.52752 -4.37544 0
M  V30 44 C 6.3193 2.26861 -4.61561 0
M  V30 45 N 4.3013 2.19608 -5.73276 0
M  V30 46 C 5.6723 2.03738 -5.85569 0
M  V30 47 C 7.7273 2.129 -4.50087 0
M  V30 48 C 6.4303 1.68065 -6.9939 0
M  V30 49 C 8.4563 1.78626 -5.63779 0
M  V30 50 C 7.8183 1.56353 -6.86828 0
M  V30 51 H 3.9173 0.566301 -0.539283 0
M  V30 52 H 6.5013 0.917736 -1.71714 0
M  V30 53 H 4.6723 3.43614 -1.81063 0
M  V30 54 H 6.4043 3.48775 -2.05275 0
M  V30 55 H 3.1593 2.6813 -3.90389 0
M  V30 56 H 3.5833 2.05771 -6.44971 0
M  V30 57 H 8.2253 2.28808 -3.55537 0
M  V30 58 H 5.9433 1.50895 -7.93887 0
M  V30 59 H 9.5293 1.68502 -5.56865 0
M  V30 60 H 8.4093 1.30223 -7.73312 0
M  V30 61 N 5.9124 1.20967 1.01018 0
M  V30 62 C 7.1604 1.02172 1.74371 0
M  V30 63 C 7.4814 -0.446414 1.89821 0
M  V30 64 O 6.7514 -1.32234 1.44537 0
M  V30 65 H 5.3314 0.375066 0.646014 0
M  V30 66 H 7.9934 1.52187 1.21758 0
M  V30 67 H 7.0894 1.48538 2.74487 0
M  V30 68 N 7.3905 -1.2043 1.01659 0
M  V30 69 C 8.3225 -2.22626 0.544988 0
M  V30 70 C 9.3355 -1.58479 -0.372609 0
M  V30 71 O 10.5245 -1.77679 -0.170958 0
M  V30 72 C 7.6245 -3.38141 -0.22663 0
M  V30 73 C 6.7975 -4.31877 0.692876 0
M  V30 74 C 5.8565 -5.26191 -0.0311616 0
M  V30 75 O 4.8825 -5.6612 0.591343 0
M  V30 76 N 6.0845 -5.65618 -1.30601 0
M  V30 77 H 8.8495 -2.63716 1.42388 0
M  V30 78 H 6.4105 -1.34971 0.894116 0
M  V30 79 H 8.4025 -3.98239 -0.72024 0
M  V30 80 H 6.9725 -2.95943 -1.00681 0
M  V30 81 H 6.1925 -3.69746 1.36679 0
M  V30 82 H 7.4805 -4.91426 1.31824 0
M  V30 83 H 6.8785 -5.3519 -1.83269 0
M  V30 84 H 5.4355 -6.28025 -1.74435 0
M  V30 85 N 8.8686 -0.792821 -1.36206 0
M  V30 86 C 9.7986 -0.207853 -2.32573 0
M  V30 87 C 10.7796 0.659055 -1.56813 0
M  V30 88 O 11.9646 0.592176 -1.84951 0
M  V30 89 C 9.0946 0.655449 -3.41059 0
M  V30 90 C 8.0486 -0.111842 -4.27854 0
M  V30 91 C 7.3746 0.872274 -5.27537 0
M  V30 92 C 8.6746 -1.30299 -5.05786 0
M  V30 93 H 10.3686 -1.01294 -2.81744 0
M  V30 94 H 7.9146 -0.48854 -1.3546 0
M  V30 95 H 9.8676 1.07464 -4.07467 0
M  V30 96 H 8.5916 1.49328 -2.90463 0
M  V30 97 H 7.2506 -0.512053 -3.63006 0
M  V30 98 H 6.8986 1.70523 -4.73214 0
M  V30 99 H 6.5986 0.363291 -5.86476 0
M  V30 100 H 8.1226 1.28996 -5.96818 0
M  V30 101 H 9.5366 -0.959379 -5.65216 0
M  V30 102 H 7.9336 -1.7455 -5.74154 0
M  V30 103 H 9.0036 -2.09663 -4.37229 0
M  V30 104 N 10.3467 1.47872 -0.545128 0
M  V30 105 C 11.2767 2.32661 0.197793 0
M  V30 106 C 12.2577 1.43041 0.920504 0
M  V30 107 O 13.4427 1.71912 0.90333 0
M  V30 108 C 10.5727 3.24569 1.23582 0
M  V30 109 C 9.5267 4.23333 0.630323 0
M  V30 110 C 8.8527 5.0448 1.77211 0
M  V30 111 C 10.1527 5.20704 -0.407974 0
M  V30 112 H 11.8467 2.95024 -0.510045 0
M  V30 113 H 9.3927 1.4187 -0.246731 0
M  V30 114 H 11.3457 3.8272 1.76362 0
M  V30 115 H 10.0697 2.60236 1.97344 0
M  V30 116 H 8.7287 3.6639 0.123922 0
M  V30 117 H 8.3767 4.36561 2.49847 0
M  V30 118 H 8.0767 5.71339 1.37281 0
M  V30 119 H 9.6007 5.65487 2.3034 0
M  V30 120 H 11.0147 5.7329 0.033305 0
M  V30 121 H 9.4117 5.95699 -0.725486 0
M  V30 122 H 10.4817 4.66917 -1.30828 0
M  V30 123 N 11.8248 0.280983 1.55075 0
M  V30 124 C 13.0708 -0.33461 2.00021 0
M  V30 125 C 13.4038 -1.55063 1.16915 0
M  V30 126 O 12.6788 -1.93006 0.240646 0
M  V30 127 C 12.9618 -0.711007 3.53011 0
M  V30 128 C 12.8148 0.512766 4.46868 0
M  V30 129 C 14.1338 -1.54522 4.12081 0
M  V30 130 H 11.2528 -0.120147 0.727141 0
M  V30 131 H 13.8948 0.389097 1.85973 0
M  V30 132 H 12.0448 -1.32761 3.65112 0
M  V30 133 H 13.7168 1.15131 4.46702 0
M  V30 134 H 11.9598 1.14975 4.18286 0
M  V30 135 H 12.6308 0.205556 5.51617 0
M  V30 136 H 15.1068 -1.02442 4.03293 0
M  V30 137 H 13.9828 -1.77739 5.19327 0
M  V30 138 H 14.2438 -2.52813 3.62682 0
M  V30 139 N 13.3029 -1.57598 0.00835791 0
M  V30 140 C 14.5489 -1.92046 -0.670055 0
M  V30 141 C 14.9039 -0.88351 -1.70915 0
M  V30 142 O 14.1969 0.103223 -1.91322 0
M  V30 143 C 14.3909 -3.3101 -1.34787 0
M  V30 144 C 14.2199 -4.48126 -0.375945 0
M  V30 145 C 12.9899 -5.05297 0.0166914 0
M  V30 146 C 15.1879 -5.1303 0.361272 0
M  V30 147 N 13.1699 -6.05931 0.985952 0
M  V30 148 C 14.5409 -6.08571 1.18495 0
M  V30 149 C 16.5959 -4.9609 0.42421 0
M  V30 150 C 15.2989 -6.88996 2.06584 0
M  V30 151 C 17.3249 -5.77107 1.29236 0
M  V30 152 C 16.6869 -6.72248 2.10386 0
M  V30 153 H 12.7859 -0.75096 -0.218136 0
M  V30 154 H 15.3699 -1.94572 0.0706669 0
M  V30 155 H 13.5409 -3.29342 -2.05884 0
M  V30 156 H 15.2729 -3.52864 -1.98164 0
M  V30 157 H 12.0279 -4.72279 -0.353435 0
M  V30 158 H 12.4519 -6.60932 1.4662 0
M  V30 159 H 17.0939 -4.22378 -0.188915 0
M  V30 160 H 14.8119 -7.62028 2.6896 0
M  V30 161 H 18.3979 -5.66038 1.34508 0
M  V30 162 H 17.2779 -7.33846 2.76476 0
M  V30 163 N 14.781 0.264519 -1.55364 0
M  V30 164 C 16.028 0.994986 -1.7637 0
M  V30 165 C 16.356 1.85976 -0.5695 0
M  V30 166 O 15.611 1.90509 0.44776 0
M  V30 167 C 15.91 1.9004 -3.02687 0
M  V30 168 C 15.576 1.19243 -4.34847 0
M  V30 169 C 14.238 0.996709 -4.70764 0
M  V30 170 C 16.59 0.689296 -5.16622 0
M  V30 171 C 13.918 0.285261 -5.86006 0
M  V30 172 C 16.27 -0.00860079 -6.32599 0
M  V30 173 C 14.934 -0.215963 -6.67151 0
M  V30 174 H 14.204 0.364091 -0.645383 0
M  V30 175 H 16.851 0.266543 -1.89636 0
M  V30 176 H 15.156 2.69533 -2.84357 0
M  V30 177 H 16.853 2.46695 -3.16137 0
M  V30 178 H 13.443 1.3549 -4.06621 0
M  V30 179 H 17.627 0.828108 -4.89342 0
M  V30 180 H 12.883 0.113961 -6.11294 0
M  V30 181 H 17.057 -0.406186 -6.95214 0
M  V30 182 H 14.684 -0.769217 -7.56298 0
M  V30 183 N 16.2591 1.48442 0.529413 0
M  V30 184 C 17.5071 1.56179 1.28267 0
M  V30 185 C 17.8281 0.237721 1.93546 0
M  V30 186 O 17.0981 -0.740779 1.81354 0
M  V30 187 H 15.6781 0.575367 0.476405 0
M  V30 188 H 18.3401 1.84909 0.61602 0
M  V30 189 H 17.4361 2.34312 2.06165 0
M  V30 190 N 17.7372 -0.778329 1.37039 0
M  V30 191 C 18.7002 -1.87301 1.32102 0
M  V30 192 C 19.7002 -1.59198 0.226405 0
M  V30 193 O 20.8902 -1.67403 0.481861 0
M  V30 194 C 18.0222 -3.24309 1.05055 0
M  V30 195 H 19.2152 -1.93093 2.29467 0
M  V30 196 H 16.7682 -0.977358 1.21973 0
M  V30 197 H 17.5032 -3.24196 0.0819373 0
M  V30 198 H 17.2882 -3.46098 1.84279 0
M  V30 199 H 18.7782 -4.04382 1.04234 0
M  V30 200 N 19.2153 -1.21501 -1.00376 0
M  V30 201 C 20.1783 -0.976927 -2.07337 0
M  V30 202 C 21.1783 0.0525322 -1.60714 0
M  V30 203 O 22.3683 -0.184869 -1.73216 0
M  V30 204 C 19.5003 -0.473423 -3.37597 0
M  V30 205 H 20.6933 -1.92587 -2.29892 0
M  V30 206 H 18.2463 -1.03217 -1.17371 0
M  V30 207 H 18.9813 0.480379 -3.20722 0
M  V30 208 H 18.7663 -1.216 -3.72768 0
M  V30 209 H 20.2563 -0.32675 -4.1632 0
M  V30 210 N 20.6934 1.19889 -1.02296 0
M  V30 211 C 21.9414 1.89046 -0.714558 0
M  V30 212 C 22.2624 1.79636 0.758681 0
M  V30 213 O 21.5324 1.20292 1.54618 0
M  V30 214 H 20.1124 0.699802 -0.261317 0
M  V30 215 H 22.7744 1.45574 -1.29592 0
M  V30 216 H 21.8704 2.95524 -1.0036 0
M  V30 217 N 22.1715 0.800033 1.35784 0
M  V30 218 C 23.1345 0.211565 2.28221 0
M  V30 219 C 24.1345 -0.59728 1.49296 0
M  V30 220 O 25.3245 -0.416721 1.69142 0
M  V30 221 C 22.4565 -0.705846 3.33513 0
M  V30 222 H 23.6495 1.02677 2.81776 0
M  V30 223 H 21.2025 0.570211 1.45528 0
M  V30 224 H 21.9375 -1.54498 2.85133 0
M  V30 225 H 21.7225 -0.127655 3.91892 0
M  V30 226 H 23.2125 -1.11211 4.02519 0
M  V30 227 N 23.6496 -1.47581 0.552962 0
M  V30 228 C 24.8986 -2.01684 0.0251995 0
M  V30 229 C 25.2116 -1.43317 -1.33115 0
M  V30 230 O 26.4176 -1.89057 -1.94858 0
M  V30 231 C 24.8736 -3.599 -0.00542052 0
M  V30 232 C 24.4816 -4.27257 1.34742 0
M  V30 233 C 26.2256 -4.21768 -0.4808 0
M  V30 234 C 24.1326 -5.77467 1.27614 0
M  V30 235 H 23.0626 -0.753979 0.00565033 0
M  V30 236 H 25.7136 -1.69616 0.70018 0
M  V30 237 H 24.0956 -3.88911 -0.745961 0
M  V30 238 H 25.2696 -4.09893 2.10534 0
M  V30 239 H 23.5846 -3.77358 1.76039 0
M  V30 240 H 26.1816 -5.31838 -0.55246 0
M  V30 241 H 26.5246 -3.88651 -1.49184 0
M  V30 242 H 27.0576 -3.97273 0.204752 0
M  V30 243 H 23.7966 -6.15196 2.26304 0
M  V30 244 H 23.3166 -5.9718 0.55996 0
M  V30 245 H 24.9956 -6.3959 0.976421 0
M  V30 246 N 25.1277 -0.289203 -1.54924 0
M  V30 247 C 26.0577 0.58549 -2.2604 0
M  V30 248 C 27.0387 1.14753 -1.25562 0
M  V30 249 O 28.2237 1.17906 -1.54311 0
M  V30 250 C 25.3537 1.76305 -2.99222 0
M  V30 251 C 24.3077 1.33191 -4.06748 0
M  V30 252 C 23.6337 2.5937 -4.6758 0
M  V30 253 C 24.9337 0.471775 -5.20165 0
M  V30 254 H 26.6277 -0.00763532 -2.99399 0
M  V30 255 H 24.1737 -0.00511229 -1.43999 0
M  V30 256 H 26.1267 2.38097 -3.47689 0
M  V30 257 H 24.8507 2.38223 -2.23422 0
M  V30 258 H 23.5097 0.737121 -3.59113 0
M  V30 259 H 23.1577 3.19576 -3.88433 0
M  V30 260 H 22.8577 2.31228 -5.40192 0
M  V30 261 H 24.3817 3.21985 -5.18804 0
M  V30 262 H 25.7957 0.995056 -5.64599 0
M  V30 263 H 24.1927 0.284639 -5.99425 0
M  V30 264 H 25.2627 -0.506041 -4.82252 0
M  V30 265 N 26.6058 1.57591 -0.0167156 0
M  V30 266 C 27.8458 1.93145 0.668902 0
M  V30 267 C 28.2098 0.892406 1.7 0
M  V30 268 O 29.4108 1.13373 2.43721 0
M  V30 269 C 27.6818 3.33678 1.28039 0
M  V30 270 S 29.2408 3.91142 1.9888 0
M  V30 271 H 26.0588 0.67593 0.220545 0
M  V30 272 H 28.6608 1.95347 -0.0774105 0
M  V30 273 H 27.3648 4.07126 0.517339 0
M  V30 274 H 26.8958 3.3489 2.06427 0
M  V30 275 H 28.9108 3.73571 3.26587 0
M  V30 276 N 28.0839 -0.256276 1.55502 0
M  V30 277 C 29.3089 -1.00766 1.81276 0
M  V30 278 C 29.7339 -1.78524 0.59252 0
M  V30 279 O 29.0919 -1.75413 -0.45827 0
M  V30 280 C 29.1399 -1.92869 3.04687 0
M  V30 281 O 28.2439 -3.019 2.80945 0
M  V30 282 H 27.5849 -0.287224 0.598664 0
M  V30 283 H 30.1149 -0.280109 2.02674 0
M  V30 284 H 30.1249 -2.34511 3.33869 0
M  V30 285 H 28.7999 -1.35689 3.93143 0
M  V30 286 H 27.3769 -2.64454 2.62904 0
M  V30 287 N 29.562 -1.4872 -0.521534 0
M  V30 288 C 30.787 -1.61101 -1.30618 0
M  V30 289 C 31.212 -0.274611 -1.86085 0
M  V30 290 O 30.57 0.754937 -1.64834 0
M  V30 291 C 30.618 -2.66709 -2.4269 0
M  V30 292 O 29.722 -2.24456 -3.45967 0
M  V30 293 H 29.063 -0.539921 -0.386499 0
M  V30 294 H 31.593 -1.94767 -0.626645 0
M  V30 295 H 31.603 -2.88245 -2.88754 0
M  V30 296 H 30.278 -3.63727 -2.01682 0
M  V30 297 H 28.855 -2.13168 -3.05964 0
M  V30 298 N 31.0401 0.771051 -1.3745 0
M  V30 299 C 32.4511 1.34737 -1.29239 0
M  V30 300 C 32.8021 1.96109 0.0596908 0
M  V30 301 O 31.9271 1.93865 0.961534 0
M  V30 302 C 32.5221 2.44973 -2.34037 0
M  V30 303 C 31.0811 2.98372 -2.29458 0
M  V30 304 C 30.2281 1.71595 -2.17831 0
M  V30 305 H 33.1791 0.571256 -1.48062 0
M  V30 306 H 33.2001 3.24471 -1.98744 0
M  V30 307 H 32.7121 2.00276 -3.32432 0
M  V30 308 H 30.8131 3.47443 -1.34589 0
M  V30 309 H 30.9261 3.53939 -3.229 0
M  V30 310 H 29.2901 1.94547 -1.64388 0
M  V30 311 H 30.0731 1.29001 -3.18141 0
M  V30 312 N 32.5182 1.22032 0.997298 0
M  V30 313 C 33.7662 1.04016 1.73278 0
M  V30 314 C 34.0872 -0.426255 1.90284 0
M  V30 315 O 33.3572 -1.30694 1.45931 0
M  V30 316 H 31.9372 0.381897 0.642 0
M  V30 317 H 34.5992 1.5347 1.20137 0
M  V30 318 H 33.6952 1.51441 2.72896 0
M  V30 319 N 33.9963 -1.19345 1.0293 0
M  V30 320 C 35.2213 -1.93538 0.745511 0
M  V30 321 C 35.6463 -1.75007 -0.689511 0
M  V30 322 O 35.0043 -1.05265 -1.47611 0
M  V30 323 C 35.0523 -3.43336 1.10239 0
M  V30 324 O 34.1563 -4.11806 0.221289 0
M  V30 325 H 33.4973 -0.604193 0.275404 0
M  V30 326 H 36.0273 -1.5141 1.37609 0
M  V30 327 H 36.0373 -3.94004 1.05947 0
M  V30 328 H 34.7123 -3.56146 2.14786 0
M  V30 329 H 33.2893 -3.715 0.322842 0
M  V30 330 N 35.4744 -0.807222 -1.35358 0
M  V30 331 C 36.4064 -0.175717 -2.28525 0
M  V30 332 C 37.4194 0.625354 -1.5031 0
M  V30 333 O 38.6084 0.457611 -1.72535 0
M  V30 334 C 35.7084 0.773471 -3.29956 0
M  V30 335 C 34.8814 0.0186296 -4.37396 0
M  V30 336 C 33.9404 0.886395 -5.18681 0
M  V30 337 O 32.9664 0.337106 -5.68201 0
M  V30 338 N 34.1684 2.20839 -5.36852 0
M  V30 339 H 36.9334 -0.976091 -2.83359 0
M  V30 340 H 34.4944 -0.662737 -1.47714 0
M  V30 341 H 36.4864 1.35824 -3.81227 0
M  V30 342 H 35.0564 1.47465 -2.75632 0
M  V30 343 H 34.2764 -0.747349 -3.87051 0
M  V30 344 H 35.5644 -0.501577 -5.06322 0
M  V30 345 H 34.9624 2.67858 -4.98265 0
M  V30 346 H 33.5194 2.74237 -5.91301 0
M  V30 347 N 36.9525 1.47285 -0.560781 0
M  V30 348 C 37.8625 2.33846 0.187954 0
M  V30 349 C 38.8785 1.48412 0.908293 0
M  V30 350 O 40.0545 1.81332 0.876388 0
M  V30 351 C 37.1195 3.25178 1.2025 0
M  V30 352 C 36.1805 4.26504 0.489208 0
M  V30 353 C 35.4135 5.13472 1.45542 0
M  V30 354 O 35.6365 5.02959 2.6905 0
M  V30 355 O 34.5705 5.93902 0.977963 0
M  V30 356 H 38.3965 2.99177 -0.522177 0
M  V30 357 H 35.9815 1.45903 -0.321364 0
M  V30 358 H 37.8635 3.81584 1.78805 0
M  V30 359 H 36.5385 2.6247 1.89449 0
M  V30 360 H 35.4455 3.73847 -0.137627 0
M  V30 361 H 36.7785 4.91935 -0.161399 0
M  V30 362 N 38.4306 0.297415 1.54768 0
M  V30 363 C 39.6586 -0.315623 2.04478 0
M  V30 364 C 40.0736 -1.47792 1.17486 0
M  V30 365 O 39.4306 -1.81404 0.19971 0
M  V30 366 C 39.4816 -0.7753 3.53088 0
M  V30 367 O 39.2026 0.340732 4.36773 0
M  V30 368 C 40.7036 -1.45386 4.18781 0
M  V30 369 H 37.9236 -0.0690887 0.667434 0
M  V30 370 H 40.4676 0.436003 1.99798 0
M  V30 371 H 38.6226 -1.47696 3.58141 0
M  V30 372 H 39.0366 -0.0165035 5.24497 0
M  V30 373 H 40.5106 -1.72669 5.24299 0
M  V30 374 H 40.9876 -2.39275 3.68299 0
M  V30 375 H 41.5936 -0.795475 4.17795 0
M  V30 376 N 39.9087 -1.5758 0.0250728 0
M  V30 377 C 41.1557 -1.91633 -0.654444 0
M  V30 378 C 41.4837 -0.901103 -1.72367 0
M  V30 379 O 40.7387 0.0905647 -1.9549 0
M  V30 380 C 41.0377 -3.32421 -1.31268 0
M  V30 381 C 40.7037 -4.49344 -0.374223 0
M  V30 382 C 39.3657 -4.8106 -0.115911 0
M  V30 383 C 41.7177 -5.20498 0.270432 0
M  V30 384 C 39.0457 -5.8129 0.79493 0
M  V30 385 C 41.3977 -6.21699 1.1693 0
M  V30 386 C 40.0617 -6.51859 1.43655 0
M  V30 387 H 39.3317 -0.701236 -0.239478 0
M  V30 388 H 41.9787 -1.91307 0.0859734 0
M  V30 389 H 40.2837 -3.28989 -2.12775 0
M  V30 390 H 41.9807 -3.56038 -1.84494 0
M  V30 391 H 38.5707 -4.24579 -0.58573 0
M  V30 392 H 42.7547 -4.96229 0.0839194 0
M  V30 393 H 38.0107 -6.03005 1.00973 0
M  V30 394 H 42.1847 -6.75955 1.67504 0
M  V30 395 H 39.8117 -7.2934 2.144 0
M  V30 396 N 41.3868 0.248026 -1.55636 0
M  V30 397 C 42.3168 1.31079 -1.93237 0
M  V30 398 C 43.2978 1.50264 -0.797174 0
M  V30 399 O 44.4828 1.62891 -1.05737 0
M  V30 400 C 41.6128 2.66575 -2.22609 0
M  V30 401 C 40.5668 2.62087 -3.3837 0
M  V30 402 C 39.8928 4.01369 -3.53281 0
M  V30 403 C 41.1928 2.19171 -4.7409 0
M  V30 404 H 42.8868 0.998556 -2.82257 0
M  V30 405 H 40.4328 0.47891 -1.35803 0
M  V30 406 H 42.3858 3.41057 -2.47503 0
M  V30 407 H 41.1098 2.99432 -1.30414 0
M  V30 408 H 39.7688 1.90063 -3.13483 0
M  V30 409 H 39.4168 4.31489 -2.58508 0
M  V30 410 H 39.1168 3.99254 -4.31127 0
M  V30 411 H 40.6408 4.77552 -3.80495 0
M  V30 412 H 42.0548 2.83384 -4.98363 0
M  V30 413 H 40.4518 2.2817 -5.5503 0
M  V30 414 H 41.5218 1.14336 -4.71227 0
M  V30 415 N 42.8649 1.48995 0.513639 0
M  V30 416 C 44.2809 1.35478 0.843682 0
M  V30 417 C 44.4809 0.378213 1.97919 0
M  V30 418 O 43.5369 -0.194689 2.51748 0
M  V30 419 C 44.8499 2.75901 1.1958 0
M  V30 420 C 46.3979 2.84509 1.30474 0
M  V30 421 C 46.8729 4.25671 1.69021 0
M  V30 422 N 48.3639 4.28422 1.76094 0
M  V30 423 C 49.0989 5.34601 2.07338 0
M  V30 424 N 48.5949 6.5104 2.36894 0
M  V30 425 N 50.3879 5.22007 2.08483 0
M  V30 426 H 42.5389 2.11092 -0.235328 0
M  V30 427 H 44.8019 0.947039 -0.0426669 0
M  V30 428 H 44.5079 3.49001 0.434913 0
M  V30 429 H 44.3819 3.10467 2.1422 0
M  V30 430 H 46.7689 2.11655 2.05637 0
M  V30 431 H 46.8499 2.53542 0.339155 0
M  V30 432 H 46.4939 4.99048 0.944135 0
M  V30 433 H 46.4239 4.54094 2.66658 0
M  V30 434 H 48.9149 3.44441 1.55464 0
M  V30 435 H 49.2279 7.2779 2.59887 0
M  V30 436 H 47.5729 6.54287 2.34378 0
M  V30 437 H 50.7639 4.30051 1.84861 0
M  V30 438 H 50.9369 6.04854 2.325 0
M  V30 439 N 44.343 -0.763751 1.37857 0
M  V30 440 C 45.568 -1.55805 1.36893 0
M  V30 441 C 45.993 -1.88054 -0.0416135 0
M  V30 442 O 45.351 -1.49825 -1.02089 0
M  V30 443 C 45.399 -2.84012 2.22192 0
M  V30 444 O 44.503 -3.78732 1.63204 0
M  V30 445 H 43.844 -0.471638 0.46739 0
M  V30 446 H 46.374 -0.944657 1.81487 0
M  V30 447 H 46.384 -3.33037 2.35691 0
M  V30 448 H 45.059 -2.59869 3.24716 0
M  V30 449 H 43.636 -3.37402 1.58791 0
M  V30 450 N 45.8211 -1.22559 -0.990812 0
M  V30 451 C 47.0461 -1.07862 -1.77145 0
M  V30 452 C 47.4711 0.366447 -1.84496 0
M  V30 453 O 46.8291 1.26478 -1.29896 0
M  V30 454 C 46.8771 -1.69686 -3.18181 0
M  V30 455 O 45.9811 -0.951946 -4.01263 0
M  V30 456 H 45.3221 -0.378712 -0.545411 0
M  V30 457 H 47.8521 -1.62399 -1.2445 0
M  V30 458 H 47.8621 -1.74496 -3.68802 0
M  V30 459 H 46.5371 -2.74841 -3.12146 0
M  V30 460 H 45.1141 -0.980011 -3.59792 0
M  V30 461 N 47.2992 1.18797 -1.03562 0
M  V30 462 C 48.7102 1.70322 -0.764676 0
M  V30 463 C 49.0612 1.82708 0.714996 0
M  V30 464 O 48.1862 1.50299 1.55689 0
M  V30 465 C 48.7812 3.09356 -1.38145 0
M  V30 466 C 47.3402 3.58114 -1.15895 0
M  V30 467 C 46.4872 2.34798 -1.4753 0
M  V30 468 H 49.4382 1.03543 -1.20268 0
M  V30 469 H 49.4592 3.72378 -0.781977 0
M  V30 470 H 48.9712 3.00309 -2.45837 0
M  V30 471 H 47.0722 3.72464 -0.100544 0
M  V30 472 H 47.1852 4.4184 -1.8524 0
M  V30 473 H 45.5492 2.38464 -0.894829 0
M  V30 474 H 46.3322 2.28375 -2.56319 0
M  V30 475 N 48.7773 0.814389 1.34928 0
M  V30 476 C 49.7073 0.244827 2.32213 0
M  V30 477 C 50.6883 -0.634024 1.57842 0
M  V30 478 O 51.8733 -0.562676 1.8587 0
M  V30 479 C 49.0033 -0.601106 3.42058 0
M  V30 480 C 47.9573 0.179896 4.27622 0
M  V30 481 C 47.2833 -0.788237 5.28858 0
M  V30 482 C 48.5833 1.38329 5.03649 0
M  V30 483 H 50.2773 1.05763 2.80097 0
M  V30 484 H 47.8233 0.510029 1.34665 0
M  V30 485 H 49.7763 -1.00968 4.09125 0
M  V30 486 H 48.5003 -1.44688 2.92802 0
M  V30 487 H 47.1593 0.569739 3.62146 0
M  V30 488 H 46.8073 -1.62973 4.75866 0
M  V30 489 H 46.5073 -0.269942 5.8698 0
M  V30 490 H 48.0313 -1.19485 5.98795 0
M  V30 491 H 49.4453 1.04918 5.63618 0
M  V30 492 H 47.8423 1.83662 5.71304 0
M  V30 493 H 48.9123 2.16592 4.33839 0
M  V30 494 N 50.2554 -1.46986 0.568584 0
M  V30 495 C 51.6664 -1.86188 0.138219 0
M  V30 496 C 52.0174 -1.47388 -1.29504 0
M  V30 497 O 51.1424 -0.88219 -1.97602 0
M  V30 498 C 51.7374 -3.3792 0.244065 0
M  V30 499 C 50.2964 -3.76171 -0.131335 0
M  V30 500 C 49.4434 -2.71027 0.586465 0
M  V30 501 H 52.3944 -1.38342 0.777645 0
M  V30 502 H 52.4154 -3.76729 -0.534351 0
M  V30 503 H 51.9274 -3.66128 1.28731 0
M  V30 504 H 50.0284 -3.5358 -1.17526 0
M  V30 505 H 50.1414 -4.78523 0.235146 0
M  V30 506 H 48.5054 -2.54684 0.0282722 0
M  V30 507 H 49.2884 -3.02077 1.63109 0
M  V30 508 N 51.7335 -0.305618 -1.54608 0
M  V30 509 C 52.6635 0.561482 -2.26649 0
M  V30 510 C 53.6445 1.13415 -1.26772 0
M  V30 511 O 54.8295 1.16262 -1.55553 0
M  V30 512 C 51.9595 1.73122 -3.01075 0
M  V30 513 C 50.9135 1.2887 -4.08138 0
M  V30 514 C 50.2395 2.54396 -4.70305 0
M  V30 515 C 51.5395 0.416578 -5.20636 0
M  V30 516 H 53.2335 -0.0393902 -2.99374 0
M  V30 517 H 50.7795 -0.020385 -1.43986 0
M  V30 518 H 52.7325 2.34396 -3.50195 0
M  V30 519 H 51.4565 2.3584 -2.25936 0
M  V30 520 H 50.1155 0.698991 -3.59875 0
M  V30 521 H 49.7635 3.15439 -3.918 0
M  V30 522 H 49.4635 2.25486 -5.42614 0
M  V30 523 H 50.9875 3.16464 -5.2219 0
M  V30 524 H 52.4015 0.935116 -5.65622 0
M  V30 525 H 50.7985 0.221046 -5.99693 0
M  V30 526 H 51.8685 -0.557162 -4.81688 0
M  V30 527 N 53.2116 1.57565 -0.0334293 0
M  V30 528 C 54.1746 2.09393 0.932048 0
M  V30 529 C 55.1746 1.00986 1.25134 0
M  V30 530 O 56.3646 1.27129 1.19096 0
M  V30 531 C 53.4966 2.56338 2.2473 0
M  V30 532 H 54.6896 2.95984 0.483085 0
M  V30 533 H 52.2426 1.54819 0.21468 0
M  V30 534 H 52.9776 1.7309 2.74245 0
M  V30 535 H 52.7626 3.35542 2.02865 0
M  V30 536 H 54.2526 2.96646 2.93923 0
M  V30 537 N 54.6897 -0.239769 1.55765 0
M  V30 538 C 55.9147 -0.988373 1.82335 0
M  V30 539 C 56.3397 -1.77886 0.611421 0
M  V30 540 O 55.6977 -1.75889 -0.439639 0
M  V30 541 C 55.7457 -1.89627 3.06715 0
M  V30 542 O 54.8497 -2.98904 2.84131 0
M  V30 543 H 54.1907 -0.280858 0.601677 0
M  V30 544 H 56.7207 -0.258597 2.02959 0
M  V30 545 H 56.7307 -2.30957 3.36338 0
M  V30 546 H 55.4057 -1.31511 3.9456 0
M  V30 547 H 53.9827 -2.61651 2.65694 0
M  V30 548 N 56.1678 -1.49265 -0.50573 0
M  V30 549 C 57.5788 -1.51769 -1.08734 0
M  V30 550 C 57.9298 -0.301192 -1.93874 0
M  V30 551 O 57.0548 0.589456 -2.08217 0
M  V30 552 C 57.6498 -2.75017 -1.97867 0
M  V30 553 C 56.2088 -2.80314 -2.51199 0
M  V30 554 C 55.3558 -2.4562 -1.28709 0
M  V30 555 H 58.3068 -1.56031 -0.289855 0
M  V30 556 H 58.3278 -2.5491 -2.82491 0
M  V30 557 H 57.8398 -3.63539 -1.35873 0
M  V30 558 H 55.9408 -1.96061 -3.16845 0
M  V30 559 H 56.0538 -3.82366 -2.88675 0
M  V30 560 H 54.4178 -1.97297 -1.61078 0
M  V30 561 H 55.2008 -3.36411 -0.6843 0
M  V30 562 N 57.6459 0.756429 -1.3826 0
M  V30 563 C 58.8709 1.55077 -1.37717 0
M  V30 564 C 59.2959 1.88073 0.03164 0
M  V30 565 O 58.6539 1.50364 1.01293 0
M  V30 566 C 58.7019 2.8283 -2.23695 0
M  V30 567 O 57.8059 3.77862 -1.6521 0
M  V30 568 H 57.1469 0.469152 -0.469885 0
M  V30 569 H 59.6769 0.935019 -1.81985 0
M  V30 570 H 59.6869 3.31783 -2.37453 0
M  V30 571 H 58.3619 2.58144 -3.2609 0
M  V30 572 H 56.9389 3.36555 -1.60578 0
M  V30 573 N 59.124 1.23083 0.984299 0
M  V30 574 C 60.535 1.05609 1.5396 0
M  V30 575 C 60.886 -0.377793 1.92528 0
M  V30 576 O 60.011 -1.26398 1.75649 0
M  V30 577 C 60.606 1.91087 2.7977 0
M  V30 578 C 59.165 1.77885 3.31713 0
M  V30 579 C 58.312 1.87028 2.04733 0
M  V30 580 H 61.263 1.36802 0.804419 0
M  V30 581 H 61.284 1.43336 3.5247 0
M  V30 582 H 60.796 2.9544 2.51668 0
M  V30 583 H 58.897 0.762995 3.64704 0
M  V30 584 H 59.01 2.61047 4.01735 0
M  V30 585 H 57.374 1.30565 2.18689 0
M  V30 586 H 58.157 2.92929 1.79017 0
M  V30 587 N 60.6021 -1.18246 1.0419 0
M  V30 588 C 62.0181 -1.40269 0.761366 0
M  V30 589 C 62.2181 -1.90777 -0.648578 0
M  V30 590 O 61.2741 -2.0929 -1.41258 0
M  V30 591 C 62.5871 -2.40237 1.8085 0
M  V30 592 C 64.1351 -2.53961 1.82955 0
M  V30 593 C 64.6101 -3.57194 2.86664 0
M  V30 594 N 66.1011 -3.64702 2.85563 0
M  V30 595 C 66.8361 -4.44309 3.6246 0
M  V30 596 N 66.3321 -5.27514 4.49111 0
M  V30 597 N 68.1251 -4.39084 3.50944 0
M  V30 598 H 60.2761 -0.837882 1.95175 0
M  V30 599 H 62.5391 -0.430608 0.84456 0
M  V30 600 H 62.2451 -2.10176 2.81991 0
M  V30 601 H 62.1191 -3.39601 1.64168 0
M  V30 602 H 64.5061 -2.83338 0.824855 0
M  V30 603 H 64.5871 -1.54706 2.03715 0
M  V30 604 H 64.2311 -3.28558 3.87314 0
M  V30 605 H 64.1611 -4.5613 2.6316 0
M  V30 606 H 66.6521 -3.05289 2.22727 0
M  V30 607 H 66.9651 -5.85411 5.04493 0
M  V30 608 H 65.3101 -5.2693 4.53178 0
M  V30 609 H 68.5011 -3.7313 2.82651 0
M  V30 610 H 68.6741 -5.00883 4.11121 0
M  V30 611 N 62.0802 -0.821533 -1.34494 0
M  V30 612 C 63.3572 -0.33159 -1.92769 0
M  V30 613 C 63.7372 1.18088 -1.74981 0
M  V30 614 O 63.0852 1.98733 -1.12772 0
M  V30 615 C 63.2952 -0.759398 -3.40638 0
M  V30 616 C 64.6432 -0.757433 -4.1779 0
M  V30 617 O 65.6672 -0.70189 -3.49216 0
M  V30 618 O 64.5262 -0.829361 -5.4017 0
M  V30 619 H 61.6202 -0.0902502 -0.822061 0
M  V30 620 H 64.1662 -0.906231 -1.43477 0
M  V30 621 H 62.9382 -1.8012 -3.47379 0
M  V30 622 H 62.5612 -0.160378 -3.97276 0
M  V30 623 N 63.5583 1.46682 -0.576371 0
M  V30 624 C 64.9693 1.86112 -0.148091 0
M  V30 625 C 65.3203 1.48073 1.2872 0
M  V30 626 O 64.4453 0.892656 1.97131 0
M  V30 627 C 65.0403 3.37786 -0.261982 0
M  V30 628 C 63.5993 3.76235 0.111384 0
M  V30 629 C 62.7463 2.70713 -0.60083 0
M  V30 630 H 65.6973 1.37927 -0.78497 0
M  V30 631 H 65.7183 3.77007 0.514364 0
M  V30 632 H 65.2303 3.6544 -1.30671 0
M  V30 633 H 63.3313 3.54198 1.15649 0
M  V30 634 H 63.4443 4.78391 -0.26052 0
M  V30 635 H 61.8083 2.54666 -0.0417783 0
M  V30 636 H 62.5913 3.01208 -1.64708 0
M  V30 637 N 65.0364 0.313813 1.54444 0
M  V30 638 C 65.9834 -0.55655 2.23989 0
M  V30 639 C 66.9534 -1.11943 1.22711 0
M  V30 640 O 68.1384 -1.16158 1.51367 0
M  V30 641 C 65.2784 -1.71635 2.99392 0
M  V30 642 C 64.3914 -1.18364 4.15468 0
M  V30 643 C 63.5264 -2.30834 4.78424 0
M  V30 644 C 62.5654 -1.74762 5.86622 0
M  V30 645 N 61.7024 -2.80855 6.43479 0
M  V30 646 H 66.5424 0.0430893 2.97969 0
M  V30 647 H 64.0794 0.0330359 1.47063 0
M  V30 648 H 66.0374 -2.39868 3.41349 0
M  V30 649 H 64.6674 -2.28742 2.27765 0
M  V30 650 H 63.7194 -0.393163 3.78363 0
M  V30 651 H 65.0314 -0.733262 4.93381 0
M  V30 652 H 64.1854 -3.0699 5.23299 0
M  V30 653 H 62.9244 -2.79204 3.99871 0
M  V30 654 H 61.9294 -0.970995 5.41158 0
M  V30 655 H 63.1544 -1.2728 6.67066 0
M  V30 656 H 61.1004 -3.28535 5.67804 0
M  V30 657 H 61.0174 -2.40351 7.16776 0
M  V30 658 H 62.2854 -3.5687 6.93011 0
M  V30 659 N 66.5145 -1.57545 0.0417849 0
M  V30 660 C 67.7605 -1.92601 -0.635021 0
M  V30 661 C 68.0935 -0.919627 -1.71045 0
M  V30 662 O 67.3685 0.0557892 -1.9442 0
M  V30 663 C 67.6515 -3.38085 -1.23979 0
M  V30 664 C 67.5045 -4.49467 -0.173057 0
M  V30 665 C 68.8235 -3.83776 -2.15416 0
M  V30 666 H 65.9425 -0.700397 -0.229374 0
M  V30 667 H 68.5845 -1.89728 0.101633 0
M  V30 668 H 66.7345 -3.40664 -1.86762 0
M  V30 669 H 68.4065 -4.59018 0.458312 0
M  V30 670 H 66.6495 -4.30909 0.499996 0
M  V30 671 H 67.3205 -5.48323 -0.636054 0
M  V30 672 H 69.7965 -3.83013 -1.62605 0
M  V30 673 H 68.6725 -4.8624 -2.54679 0
M  V30 674 H 68.9335 -3.19998 -3.05047 0
M  V30 675 N 67.9926 0.231505 -1.5589 0
M  V30 676 C 69.2176 0.978689 -1.82856 0
M  V30 677 C 69.6426 1.77559 -0.620846 0
M  V30 678 O 69.0006 1.76119 0.430305 0
M  V30 679 C 69.0486 1.87997 -3.07716 0
M  V30 680 O 68.1526 2.97393 -2.85712 0
M  V30 681 H 67.4936 0.277663 -0.603158 0
M  V30 682 H 70.0236 0.24783 -2.03093 0
M  V30 683 H 70.0336 2.2917 -3.37558 0
M  V30 684 H 68.7086 1.29417 -3.95252 0
M  V30 685 H 67.2856 2.60238 -2.67078 0
M  V30 686 N 69.4707 1.49531 0.497807 0
M  V30 687 C 70.4337 1.65916 1.58128 0
M  V30 688 C 71.4337 0.530825 1.51786 0
M  V30 689 O 72.6237 0.797342 1.54881 0
M  V30 690 C 69.7557 1.65951 2.9778 0
M  V30 691 H 70.9487 2.62556 1.44929 0
M  V30 692 H 68.5017 1.38611 0.722275 0
M  V30 693 H 69.2367 0.709065 3.16453 0
M  V30 694 H 69.0217 2.47897 3.03792 0
M  V30 695 H 70.5117 1.80673 3.76493 0
M  V30 696 N 70.9488 -0.749086 1.3866 0
M  V30 697 C 72.3598 -1.32664 1.31366 0
M  V30 698 C 72.7108 -1.96179 -0.028484 0
M  V30 699 O 71.8358 -1.9537 -0.93057 0
M  V30 700 C 72.4308 -2.41219 2.37905 0
M  V30 701 C 70.9898 -2.94684 2.34176 0
M  V30 702 C 70.1368 -1.68108 2.20533 0
M  V30 703 H 73.0878 -0.547628 1.48952 0
M  V30 704 H 73.1088 -3.21268 2.0388 0
M  V30 705 H 72.6208 -1.94962 3.35576 0
M  V30 706 H 70.7218 -3.45258 1.401 0
M  V30 707 H 70.8348 -3.48757 3.2849 0
M  V30 708 H 69.1988 -1.91907 1.67463 0
M  V30 709 H 69.9818 -1.23923 3.20153 0
M  V30 710 N 72.4269 -1.23603 -0.977757 0
M  V30 711 C 73.8379 -1.06424 -1.53398 0
M  V30 712 C 74.1889 0.367578 -1.92726 0
M  V30 713 O 73.3139 1.25465 -1.76316 0
M  V30 714 C 73.9089 -1.92568 -2.78753 0
M  V30 715 C 72.4679 -1.79642 -3.30765 0
M  V30 716 C 71.6149 -1.88111 -2.03739 0
M  V30 717 H 74.5659 -1.37227 -0.797152 0
M  V30 718 H 74.5869 -1.45203 -3.51705 0
M  V30 719 H 74.0989 -2.96771 -2.50098 0
M  V30 720 H 72.1999 -0.782325 -3.64294 0
M  V30 721 H 72.3129 -2.63174 -4.00345 0
M  V30 722 H 70.6769 -1.31723 -2.17994 0
M  V30 723 H 71.4599 -2.93875 -1.77461 0
M  V30 724 N 73.905 1.17692 -1.04816 0
M  V30 725 C 75.13 1.92327 -0.776207 0
M  V30 726 C 75.555 1.76082 0.661581 0
M  V30 727 O 74.913 1.076 1.45917 0
M  V30 728 C 74.961 3.41539 -1.15687 0
M  V30 729 O 74.065 4.11402 -0.286775 0
M  V30 730 H 73.406 0.599735 -0.284981 0
M  V30 731 H 75.936 1.49201 -1.4 0
M  V30 732 H 75.946 3.92269 -1.12202 0
M  V30 733 H 74.621 3.52684 -2.20425 0
M  V30 734 H 73.198 3.70939 -0.381903 0
M  V30 735 N 75.3831 0.828654 1.34056 0
M  V30 736 C 76.6321 0.415828 1.97367 0
M  V30 737 C 76.9451 -1.02796 1.6641 0
M  V30 738 O 78.1511 -1.54497 2.23255 0
M  V30 739 C 76.6071 0.692601 3.53173 0
M  V30 740 C 76.2151 2.15038 3.93017 0
M  V30 741 C 77.9591 0.346222 4.23086 0
M  V30 742 C 75.8661 2.37174 5.41758 0
M  V30 743 H 74.7961 0.151755 0.738571 0
M  V30 744 H 77.4471 1.01581 1.52819 0
M  V30 745 H 75.8291 0.0223764 3.95994 0
M  V30 746 H 77.0031 2.86024 3.61285 0
M  V30 747 H 75.3181 2.45875 3.36057 0
M  V30 748 H 77.9151 0.48937 5.32456 0
M  V30 749 H 78.2581 -0.709842 4.10204 0
M  V30 750 H 78.7911 0.971258 3.85761 0
M  V30 751 H 75.5301 3.41308 5.59633 0
M  V30 752 H 75.0501 1.70738 5.74986 0
M  V30 753 H 76.7291 2.19818 6.08514 0
M  V30 754 N 76.8612 -1.46375 0.584142 0
M  V30 755 C 77.7912 -2.33103 -0.136037 0
M  V30 756 C 78.7722 -1.45431 -0.882255 0
M  V30 757 O 79.9572 -1.74246 -0.857434 0
M  V30 758 C 77.0872 -3.27731 -1.14933 0
M  V30 759 C 76.0412 -4.24855 -0.517862 0
M  V30 760 C 75.3672 -5.09001 -1.63773 0
M  V30 761 C 76.6672 -5.19439 0.545886 0
M  V30 762 H 78.3612 -2.93568 0.588086 0
M  V30 763 H 75.9072 -1.41166 0.284259 0
M  V30 764 H 77.8602 -3.87261 -1.66153 0
M  V30 765 H 76.5842 -2.65377 -1.90375 0
M  V30 766 H 75.2432 -3.6659 -0.0267361 0
M  V30 767 H 74.8912 -4.43031 -2.38185 0
M  V30 768 H 74.5912 -5.74777 -1.22085 0
M  V30 769 H 76.1152 -5.71396 -2.15266 0
M  V30 770 H 77.5292 -5.73177 0.118704 0
M  V30 771 H 75.9262 -5.93566 0.88317 0
M  V30 772 H 76.9962 -4.63285 1.43162 0
M  V30 773 N 78.3393 -0.321999 -1.54275 0
M  V30 774 C 79.2493 0.553631 -2.27974 0
M  V30 775 C 80.2653 1.13054 -1.32268 0
M  V30 776 O 81.4413 1.15084 -1.6528 0
M  V30 777 C 78.5063 1.69927 -3.02201 0
M  V30 778 C 77.5673 1.15433 -4.1349 0
M  V30 779 C 76.8003 2.24537 -4.84168 0
M  V30 780 O 77.0233 3.44852 -4.5435 0
M  V30 781 O 75.9573 1.90044 -5.7111 0
M  V30 782 H 79.7833 -0.0448345 -3.03667 0
M  V30 783 H 77.3683 -0.0877418 -1.49142 0
M  V30 784 H 79.2503 2.3663 -3.48689 0
M  V30 785 H 77.9253 2.28395 -2.29385 0
M  V30 786 H 76.8323 0.452436 -3.71354 0
M  V30 787 H 78.1653 0.614805 -4.88345 0
M  V30 788 N 79.8174 1.5752 -0.0501392 0
M  V30 789 C 81.2284 1.80271 0.485705 0
M  V30 790 C 81.5794 0.96228 1.70981 0
M  V30 791 O 80.7044 0.178578 2.15662 0
M  V30 792 C 81.2994 3.26957 0.887938 0
M  V30 793 C 79.8584 3.5063 1.36877 0
M  V30 794 C 79.0054 2.75165 0.343468 0
M  V30 795 H 81.9564 1.56281 -0.276028 0
M  V30 796 H 81.9774 3.37821 1.75093 0
M  V30 797 H 81.4894 3.881 -0.0031809 0
M  V30 798 H 79.5904 2.94766 2.27911 0
M  V30 799 H 79.7034 4.59343 1.36164 0
M  V30 800 H 78.0674 2.4127 0.816128 0
M  V30 801 H 78.8504 3.39034 -0.539548 0
M  V30 802 N 81.2955 -0.223234 1.56011 0
M  V30 803 C 82.2585 -1.26014 1.9145 0
M  V30 804 C 83.2585 -1.3989 0.792937 0
M  V30 805 O 84.4485 -1.38184 1.0607 0
M  V30 806 C 81.5805 -2.63422 2.16383 0
M  V30 807 H 82.7735 -0.95796 2.84189 0
M  V30 808 H 80.3265 -0.463576 1.49267 0
M  V30 809 H 81.0615 -2.98741 1.2619 0
M  V30 810 H 80.8465 -2.54728 2.98088 0
M  V30 811 H 82.3365 -3.38249 2.44903 0
M  V30 812 N 82.7736 -1.49793 -0.48987 0
M  V30 813 C 83.9986 -1.63836 -1.27172 0
M  V30 814 C 84.4236 -0.31402 -1.8546 0
M  V30 815 O 83.7816 0.719803 -1.66399 0
M  V30 816 C 83.8296 -2.71797 -2.36978 0
M  V30 817 O 82.9336 -2.31744 -3.41128 0
M  V30 818 H 82.2746 -0.547997 -0.37496 0
M  V30 819 H 84.8046 -1.96053 -0.585191 0
M  V30 820 H 84.8146 -2.94305 -2.82575 0
M  V30 821 H 83.4896 -3.67923 -1.93921 0
M  V30 822 H 82.0666 -2.1961 -3.01373 0
M  V30 823 N 84.2517 0.741722 -1.39055 0
M  V30 824 C 85.6627 1.31966 -1.32068 0
M  V30 825 C 86.0137 1.96192 0.0180797 0
M  V30 826 O 85.1387 1.95861 0.920196 0
M  V30 827 C 85.7337 2.39954 -2.39181 0
M  V30 828 C 84.2927 2.93438 -2.35735 0
M  V30 829 C 83.4397 1.66936 -2.21422 0
M  V30 830 H 86.3907 0.539721 -1.4924 0
M  V30 831 H 86.4117 3.20182 -2.05581 0
M  V30 832 H 85.9237 1.9318 -3.36605 0
M  V30 833 H 84.0247 3.4451 -1.41929 0
M  V30 834 H 84.1377 3.4701 -3.30335 0
M  V30 835 H 82.5017 1.91016 -1.68478 0
M  V30 836 H 83.2847 1.22224 -3.20806 0
M  V30 837 N 85.7298 1.2412 0.971189 0
M  V30 838 C 86.6598 1.05508 2.08304 0
M  V30 839 C 87.6408 -0.0308864 1.70072 0
M  V30 840 O 88.8258 0.135521 1.93727 0
M  V30 841 C 85.9558 0.655365 3.4106 0
M  V30 842 C 84.9098 1.68971 3.93234 0
M  V30 843 C 84.2358 1.14516 5.22293 0
M  V30 844 C 85.5358 3.08487 4.21465 0
M  V30 845 H 87.2298 1.98507 2.24132 0
M  V30 846 H 84.7758 0.955821 1.07704 0
M  V30 847 H 86.7288 0.51217 4.18276 0
M  V30 848 H 85.4528 -0.31032 3.25122 0
M  V30 849 H 84.1118 1.82106 3.18171 0
M  V30 850 H 83.7598 0.170189 5.02712 0
M  V30 851 H 83.4598 1.83635 5.58168 0
M  V30 852 H 84.9838 1.01401 6.02121 0
M  V30 853 H 86.3978 2.98601 4.89398 0
M  V30 854 H 84.7948 3.74926 4.68562 0
M  V30 855 H 85.8648 3.56787 3.28376 0
M  V30 856 N 87.2079 -1.17134 1.05439 0
M  V30 857 C 88.1559 -2.23289 0.651511 0
M  V30 858 C 89.1499 -1.66186 -0.328411 0
M  V30 859 O 90.3559 -1.78949 -0.194206 0
M  V30 860 H 86.7309 -0.726938 0.192523 0
M  V30 861 H 88.7019 -2.54565 1.55689 0
M  V30 862 C 87.4509 -3.47671 0.0448436 0
M  V30 863 H 86.7739 -3.91918 0.78996 0
M  V30 864 H 88.2139 -4.2353 -0.19964 0
M  V30 865 C 86.6729 -3.14453 -1.20918 0
M  V30 866 O 87.2029 -3.29459 -2.29825 0
M  V30 867 N 85.4089 -2.68657 -1.10779 0
M  V30 868 H 84.9559 -2.56646 -0.221526 0
M  V30 869 H 84.9139 -2.46804 -1.9477 0
M  V30 870 N 88.686 -0.835752 -1.33615 0
M  V30 871 C 89.911 -0.442389 -2.02627 0
M  V30 872 C 90.336 0.947735 -1.62479 0
M  V30 873 O 89.694 1.61907 -0.815826 0
M  V30 874 C 89.742 -0.567216 -3.56111 0
M  V30 875 O 88.846 0.407799 -4.10379 0
M  V30 876 H 88.187 -0.180278 -0.639059 0
M  V30 877 H 90.717 -1.12972 -1.70583 0
M  V30 878 H 90.727 -0.447708 -4.05536 0
M  V30 879 H 89.402 -1.58103 -3.84677 0
M  V30 880 H 87.979 0.246107 -3.72087 0
M  V30 881 N 90.1641 1.46063 -0.591896 0
M  V30 882 C 91.5751 1.85944 -0.167822 0
M  V30 883 C 91.9261 1.49429 1.27143 0
M  V30 884 O 91.0511 0.913515 1.96173 0
M  V30 885 C 91.6461 3.37489 -0.297794 0
M  V30 886 C 90.2051 3.76332 0.0714732 0
M  V30 887 C 89.3521 2.7006 -0.629509 0
M  V30 888 H 92.3031 1.37087 -0.799555 0
M  V30 889 H 92.3241 3.77532 0.474349 0
M  V30 890 H 91.8361 3.64034 -1.3454 0
M  V30 891 H 89.9371 3.55405 1.11886 0
M  V30 892 H 90.0501 4.78088 -0.311245 0
M  V30 893 H 88.4141 2.54607 -0.0687867 0
M  V30 894 H 89.1971 2.99444 -1.67894 0
M  V30 895 N 91.6422 0.330177 1.54103 0
M  V30 896 C 92.8902 -0.269871 2.0029 0
M  V30 897 C 93.2112 -1.52133 1.21986 0
M  V30 898 O 92.4812 -1.93212 0.323438 0
M  V30 899 H 91.0612 -0.10271 0.739905 0
M  V30 900 H 93.7232 0.448249 1.89675 0
M  V30 901 H 92.8192 -0.52166 3.07709 0
M  V30 902 N 93.1203 -1.57491 0.0584922 0
M  V30 903 C 94.3483 -1.97296 -0.623037 0
M  V30 904 C 94.7633 -0.936338 -1.63946 0
M  V30 905 O 94.1203 0.0785981 -1.82331 0
M  V30 906 C 94.1713 -3.37183 -1.30345 0
M  V30 907 O 93.8923 -4.36872 -0.32773 0
M  V30 908 C 95.3933 -3.91788 -2.07406 0
M  V30 909 H 92.6133 -0.649153 -0.169826 0
M  V30 910 H 95.1573 -2.04106 0.12696 0
M  V30 911 H 93.3123 -3.31502 -2.00463 0
M  V30 912 H 93.7263 -5.18141 -0.814269 0
M  V30 913 H 95.2003 -4.91926 -2.50425 0
M  V30 914 H 95.6773 -3.27609 -2.92521 0
M  V30 915 H 96.2833 -4.00829 -1.42184 0
M  V30 916 N 94.5984 0.214957 -1.56127 0
M  V30 917 C 95.5084 1.28727 -1.96129 0
M  V30 918 C 96.5244 1.50916 -0.866044 0
M  V30 919 O 97.7004 1.63918 -1.17016 0
M  V30 920 C 94.7654 2.61569 -2.27558 0
M  V30 921 C 93.8264 2.47625 -3.50685 0
M  V30 922 C 93.0594 3.74132 -3.80606 0
M  V30 923 O 93.2824 4.77438 -3.12104 0
M  V30 924 O 92.2164 3.70849 -4.74083 0
M  V30 925 H 96.0424 0.977855 -2.87527 0
M  V30 926 H 93.6274 0.418358 -1.43423 0
M  V30 927 H 95.5094 3.40012 -2.48938 0
M  V30 928 H 94.1844 2.92178 -1.39332 0
M  V30 929 H 93.0914 1.67361 -3.34576 0
M  V30 930 H 94.4244 2.21954 -4.39315 0
M  V30 931 N 96.0765 1.50051 0.48192 0
M  V30 932 C 97.3245 1.60181 1.23234 0
M  V30 933 C 97.6455 0.299176 1.92691 0
M  V30 934 O 96.9155 -0.682708 1.83619 0
M  V30 935 H 95.4955 0.590232 0.457859 0
M  V30 936 H 98.1575 1.86775 0.556881 0
M  V30 937 H 97.2535 2.40753 1.98607 0
M  V30 938 N 97.5546 -0.734337 1.39446 0
M  V30 939 C 98.7796 -1.52866 1.40167 0
M  V30 940 C 99.2046 -1.881 -0.00171513 0
M  V30 941 O 98.5626 -1.51957 -0.988879 0
M  V30 942 C 98.6106 -2.79235 2.28167 0
M  V30 943 O 97.7146 -3.75185 1.71201 0
M  V30 944 H 97.0556 -0.461618 0.477289 0
M  V30 945 H 99.5856 -0.905949 1.8345 0
M  V30 946 H 99.5956 -3.27963 2.42702 0
M  V30 947 H 98.2706 -2.52923 3.30156 0
M  V30 948 H 96.8476 -3.33958 1.65912 0
M  V30 949 N 99.0327 -1.24633 -0.964593 0
M  V30 950 C 100.279 -1.09957 -1.71117 0
M  V30 951 C 100.634 0.357422 -1.89051 0
M  V30 952 O 99.9267 1.26029 -1.44317 0
M  V30 953 C 100.121 -1.7763 -3.10133 0
M  V30 954 C 99.9497 -3.29759 -3.05759 0
M  V30 955 C 98.7197 -3.98981 -3.10068 0
M  V30 956 C 100.918 -4.26305 -2.87695 0
M  V30 957 N 98.8997 -5.37966 -2.95747 0
M  V30 958 C 100.271 -5.52308 -2.81702 0
M  V30 959 C 102.326 -4.16842 -2.72299 0
M  V30 960 C 101.029 -6.69931 -2.61887 0
M  V30 961 C 103.055 -5.34147 -2.53853 0
M  V30 962 C 102.417 -6.59084 -2.48572 0
M  V30 963 H 98.5157 -0.457003 -0.634564 0
M  V30 964 H 101.1 -1.57592 -1.14337 0
M  V30 965 H 99.2707 -1.32504 -3.65099 0
M  V30 966 H 101.003 -1.55786 -3.73514 0
M  V30 967 H 97.7577 -3.50169 -3.18871 0
M  V30 968 H 98.1817 -6.10877 -2.91818 0
M  V30 969 H 102.824 -3.21007 -2.75163 0
M  V30 970 H 100.542 -7.65886 -2.57767 0
M  V30 971 H 104.128 -5.28678 -2.4288 0
M  V30 972 H 103.008 -7.48324 -2.34481 0
M  V30 973 N 100.511 1.16574 -1.06058 0
M  V30 974 C 101.441 2.23057 -0.690488 0
M  V30 975 C 102.422 1.67141 0.315901 0
M  V30 976 O 103.607 1.93253 0.191556 0
M  V30 977 C 100.737 3.47222 -0.073625 0
M  V30 978 C 99.6908 4.16016 -1.00573 0
M  V30 979 C 99.0168 5.34104 -0.252289 0
M  V30 980 C 100.317 4.67264 -2.33371 0
M  V30 981 H 102.011 2.54271 -1.58072 0
M  V30 982 H 99.5568 1.22218 -0.76149 0
M  V30 983 H 101.51 4.20939 0.19714 0
M  V30 984 H 100.234 3.15302 0.85161 0
M  V30 985 H 98.8928 3.44223 -1.2612 0
M  V30 986 H 98.5408 4.98437 0.675988 0
M  V30 987 H 98.2408 5.81072 -0.873455 0
M  V30 988 H 99.7648 6.10599 0.0109857 0
M  V30 989 H 101.179 5.32573 -2.12223 0
M  V30 990 H 99.5758 5.24843 -2.90963 0
M  V30 991 H 100.646 3.83602 -2.96611 0
M  V30 992 N 101.989 0.842826 1.3317 0
M  V30 993 C 103.236 0.440447 1.97652 0
M  V30 994 C 103.564 -1.00123 1.6675 0
M  V30 995 O 102.819 -1.7155 0.941761 0
M  V30 996 C 103.118 0.612607 3.52111 0
M  V30 997 C 102.784 2.02297 4.02972 0
M  V30 998 C 101.446 2.40874 4.16573 0
M  V30 999 C 103.798 2.94402 4.30089 0
M  V30 1000 C 101.126 3.70852 4.54627 0
M  V30 1001 C 103.478 4.23865 4.69597 0
M  V30 1002 C 102.142 4.62392 4.81404 0
M  V30 1003 H 101.412 0.161171 0.72326 0
M  V30 1004 H 104.059 1.07061 1.58777 0
M  V30 1005 H 102.364 -0.100849 3.9167 0
M  V30 1006 H 104.061 0.2815 4.00011 0
M  V30 1007 H 100.651 1.71338 3.92863 0
M  V30 1008 H 104.835 2.65835 4.19101 0
M  V30 1009 H 100.091 4.00501 4.61962 0
M  V30 1010 H 104.265 4.95306 4.89536 0
M  V30 1011 H 101.892 5.63154 5.10648 0
M  V30 1012 N 103.467 -1.45747 0.599634 0
M  V30 1013 C 104.692 -2.07178 0.0960198 0
M  V30 1014 C 105.117 -1.44268 -1.207 0
M  V30 1015 O 104.475 -0.532503 -1.73303 0
M  V30 1016 C 104.523 -3.60579 -0.0385348 0
M  V30 1017 O 103.627 -3.97713 -1.0908 0
M  V30 1018 H 102.968 -0.660251 0.0704593 0
M  V30 1019 H 105.498 -1.87124 0.827385 0
M  V30 1020 H 105.508 -4.07298 -0.239304 0
M  V30 1021 H 104.183 -4.05756 0.912947 0
M  V30 1022 H 102.76 -3.62678 -0.867135 0
M  V30 1023 N 104.945 -0.338344 -1.53925 0
M  V30 1024 C 106.173 0.261298 -2.05243 0
M  V30 1025 C 106.588 1.44625 -1.21363 0
M  V30 1026 O 105.945 1.80811 -0.247736 0
M  V30 1027 C 105.996 0.681412 -3.5502 0
M  V30 1028 O 105.717 -0.456414 -4.35716 0
M  V30 1029 C 107.218 1.34232 -4.22489 0
M  V30 1030 H 104.438 0.0513685 -0.669031 0
M  V30 1031 H 106.982 -0.488822 -1.98572 0
M  V30 1032 H 105.137 1.38148 -3.61931 0
M  V30 1033 H 105.551 -0.122564 -5.24357 0
M  V30 1034 H 107.025 1.58708 -5.28693 0
M  V30 1035 H 107.502 2.29426 -3.74514 0
M  V30 1036 H 108.108 0.684424 -4.19757 0
M  V30 1037 N 106.423 1.57458 -0.0668435 0
M  V30 1038 C 107.663 1.95175 0.607116 0
M  V30 1039 C 108.027 0.946039 1.67075 0
M  V30 1040 O 109.228 1.2107 2.39991 0
M  V30 1041 C 107.499 3.37582 1.17358 0
M  V30 1042 S 109.058 3.97271 1.86336 0
M  V30 1043 H 105.876 0.682604 0.19893 0
M  V30 1044 H 108.478 1.95002 -0.139519 0
M  V30 1045 H 107.182 4.08566 0.387553 0
M  V30 1046 H 106.713 3.41288 1.95669 0
M  V30 1047 H 108.728 3.83772 3.14537 0
M  V30 1048 N 107.901 -0.206675 1.56239 0
M  V30 1049 C 109.149 -0.927007 1.79586 0
M  V30 1050 C 109.47 -1.8427 0.637929 0
M  V30 1051 O 108.74 -1.92849 -0.344398 0
M  V30 1052 H 107.32 -0.345292 0.662407 0
M  V30 1053 H 109.982 -0.21496 1.93711 0
M  V30 1054 H 109.078 -1.52501 2.72305 0
M  V30 1055 N 109.379 -1.50304 -0.473955 0
M  V30 1056 C 110.342 -1.6841 -1.55469 0
M  V30 1057 C 111.342 -0.554905 -1.50922 0
M  V30 1058 O 112.532 -0.821882 -1.53593 0
M  V30 1059 C 109.664 -1.70667 -2.95102 0
M  V30 1060 H 110.857 -2.64828 -1.40733 0
M  V30 1061 H 108.41 -1.39742 -0.700132 0
M  V30 1062 H 109.145 -0.75932 -3.15285 0
M  V30 1063 H 108.93 -2.52698 -2.9981 0
M  V30 1064 H 110.42 -1.8664 -3.73571 0
M  V30 1065 N 110.857 0.726932 -1.39834 0
M  V30 1066 C 112.082 1.52121 -1.40976 0
M  V30 1067 C 112.507 1.88098 -0.00826029 0
M  V30 1068 O 111.865 1.52479 0.980807 0
M  V30 1069 C 111.913 2.78021 -2.29644 0
M  V30 1070 O 111.017 3.74272 -1.73188 0
M  V30 1071 H 110.358 0.45908 -0.479731 0
M  V30 1072 H 112.888 0.896207 -1.83927 0
M  V30 1073 H 112.898 3.26671 -2.44438 0
M  V30 1074 H 111.573 2.51169 -3.31492 0
M  V30 1075 H 110.15 3.33073 -1.6768 0
M  V30 1076 N 112.336 1.25143 0.95797 0
M  V30 1077 C 113.584 1.09476 1.69881 0
M  V30 1078 C 113.905 -0.365502 1.91544 0
M  V30 1079 O 113.175 -1.25985 1.50015 0
M  V30 1080 H 111.755 0.402128 0.629525 0
M  V30 1081 H 114.417 1.57214 1.15194 0
M  V30 1082 H 113.513 1.60046 2.6794 0
M  V30 1083 N 113.814 -1.1601 1.06675 0
M  V30 1084 C 115.23 -1.38622 0.790948 0
M  V30 1085 C 115.43 -1.92109 -0.607965 0
M  V30 1086 O 114.486 -2.12239 -1.36787 0
M  V30 1087 C 115.799 -2.36347 1.85905 0
M  V30 1088 C 117.347 -2.50023 1.88301 0
M  V30 1089 C 117.822 -3.51033 2.94176 0
M  V30 1090 N 119.313 -3.58563 2.93235 0
M  V30 1091 C 120.048 -4.36521 3.71803 0
M  V30 1092 N 119.544 -5.17869 4.602 0
M  V30 1093 N 121.337 -4.31541 3.60178 0
M  V30 1094 H 113.488 -0.796294 1.96908 0
M  V30 1095 H 115.751 -0.412597 0.853503 0
M  V30 1096 H 115.457 -2.04147 2.86386 0
M  V30 1097 H 115.331 -3.36042 1.71334 0
M  V30 1098 H 117.718 -2.81524 0.884769 0
M  V30 1099 H 117.799 -1.5035 2.06951 0
M  V30 1100 H 117.443 -3.20268 3.94196 0
M  V30 1101 H 117.373 -4.50445 2.72776 0
M  V30 1102 H 119.864 -3.00496 2.29152 0
M  V30 1103 H 120.177 -5.74578 5.16797 0
M  V30 1104 H 118.522 -5.17199 4.64253 0
M  V30 1105 H 121.713 -3.67051 2.90502 0
M  V30 1106 H 121.886 -4.9205 4.21653 0
M  V30 1107 N 115.292 -0.849877 -1.32721 0
M  V30 1108 C 116.242 -0.262892 -2.26479 0
M  V30 1109 C 117.226 0.588493 -1.49752 0
M  V30 1110 O 118.418 0.438659 -1.71478 0
M  V30 1111 C 115.547 0.551818 -3.38836 0
M  V30 1112 C 114.633 -0.311689 -4.22953 0
M  V30 1113 N 115.024 -1.39567 -4.86163 0
M  V30 1114 C 113.322 -0.100611 -4.45887 0
M  V30 1115 C 114.023 -1.92651 -5.48872 0
M  V30 1116 N 112.999 -1.22637 -5.29586 0
M  V30 1117 H 116.801 -1.09166 -2.72873 0
M  V30 1118 H 114.315 -0.695486 -1.46754 0
M  V30 1119 H 116.312 0.988713 -4.05006 0
M  V30 1120 H 114.972 1.37844 -2.93988 0
M  V30 1121 H 115.983 -1.77859 -4.86402 0
M  V30 1122 H 112.66 0.691681 -4.11731 0
M  V30 1123 H 114.05 -2.83487 -6.09167 0
M  V30 1124 N 116.77 1.45427 -0.607355 0
M  V30 1125 C 118.018 2.01841 -0.102253 0
M  V30 1126 C 118.339 1.47832 1.27164 0
M  V30 1127 O 117.609 0.672497 1.83995 0
M  V30 1128 H 116.189 0.746188 -0.0348101 0
M  V30 1129 H 118.851 1.78229 -0.7887 0
M  V30 1130 H 117.947 3.12057 -0.0518585 0
M  V30 1131 N 118.248 0.346503 1.53744 0
M  V30 1132 C 119.659 -0.136779 1.86198 0
M  V30 1133 C 120.01 -1.49749 1.26766 0
M  V30 1134 O 119.135 -2.08417 0.582355 0
M  V30 1135 C 119.73 -0.254966 3.37839 0
M  V30 1136 C 118.289 -0.682482 3.70161 0
M  V30 1137 C 117.436 0.181981 2.76702 0
M  V30 1138 H 120.387 0.565994 1.48264 0
M  V30 1139 H 120.408 -1.08195 3.64793 0
M  V30 1140 H 119.92 0.735526 3.81066 0
M  V30 1141 H 118.021 -1.68189 3.3248 0
M  V30 1142 H 118.134 -0.470326 4.76786 0
M  V30 1143 H 116.498 -0.34615 2.52337 0
M  V30 1144 H 117.281 1.16966 3.2276 0
M  V30 1145 N 119.726 -1.57421 0.075193 0
M  V30 1146 C 120.954 -1.97946 -0.602076 0
M  V30 1147 C 121.369 -0.953674 -1.62943 0
M  V30 1148 O 120.726 0.0592551 -1.82404 0
M  V30 1149 C 120.777 -3.38546 -1.26762 0
M  V30 1150 O 120.498 -4.37195 -0.281376 0
M  V30 1151 C 121.999 -3.93966 -2.03239 0
M  V30 1152 H 119.219 -0.650918 -0.162931 0
M  V30 1153 H 121.763 -2.03959 0.148601 0
M  V30 1154 H 119.918 -3.33609 -1.96936 0
M  V30 1155 H 120.332 -5.18975 -0.759267 0
M  V30 1156 H 121.806 -4.94555 -2.45193 0
M  V30 1157 H 122.283 -3.30693 -2.8903 0
M  V30 1158 H 122.889 -4.02315 -1.37924 0
M  V30 1159 N 121.204 0.198386 -1.56346 0
M  V30 1160 C 122.136 1.26987 -1.90806 0
M  V30 1161 C 123.149 1.41877 -0.798419 0
M  V30 1162 O 124.338 1.42362 -1.07682 0
M  V30 1163 C 121.438 2.64246 -2.12196 0
M  V30 1164 C 120.611 2.71007 -3.43328 0
M  V30 1165 C 119.67 3.89439 -3.5387 0
M  V30 1166 O 118.696 3.76695 -4.26719 0
M  V30 1167 N 119.898 5.04752 -2.86715 0
M  V30 1168 H 122.663 0.977433 -2.83313 0
M  V30 1169 H 120.224 0.388322 -1.57174 0
M  V30 1170 H 122.216 3.41896 -2.1654 0
M  V30 1171 H 120.786 2.85992 -1.26204 0
M  V30 1172 H 120.006 1.79657 -3.50881 0
M  V30 1173 H 121.294 2.72512 -4.29668 0
M  V30 1174 H 120.692 5.18004 -2.2735 0
M  V30 1175 H 119.249 5.8036 -2.96691 0
M  V30 1176 N 122.682 1.50554 0.465978 0
M  V30 1177 C 123.91 1.65563 1.24083 0
M  V30 1178 C 124.325 0.341051 1.85694 0
M  V30 1179 O 123.682 -0.677543 1.69457 0
M  V30 1180 C 123.733 2.75051 2.34583 0
M  V30 1181 O 123.454 4.01413 1.75497 0
M  V30 1182 C 124.955 3.01078 3.25372 0
M  V30 1183 H 122.175 0.55638 0.375077 0
M  V30 1184 H 124.719 1.96807 0.555624 0
M  V30 1185 H 122.874 2.46486 2.9887 0
M  V30 1186 H 123.288 4.62002 2.48303 0
M  V30 1187 H 124.762 3.81339 3.99105 0
M  V30 1188 H 125.239 2.12349 3.84453 0
M  V30 1189 H 125.845 3.31194 2.66816 0
M  V30 1190 N 124.16 -0.719506 1.40217 0
M  V30 1191 C 125.092 -1.84428 1.36084 0
M  V30 1192 C 126.105 -1.60597 0.266913 0
M  V30 1193 O 127.294 -1.70544 0.526983 0
M  V30 1194 C 124.394 -3.20757 1.094 0
M  V30 1195 C 123.567 -3.71817 2.30372 0
M  V30 1196 C 122.626 -4.86748 1.99907 0
M  V30 1197 O 121.652 -4.99603 2.72737 0
M  V30 1198 N 122.854 -5.7226 0.974635 0
M  V30 1199 H 125.619 -1.88473 2.33019 0
M  V30 1200 H 123.18 -0.900885 1.3452 0
M  V30 1201 H 125.172 -3.95235 0.870116 0
M  V30 1202 H 123.742 -3.11884 0.211452 0
M  V30 1203 H 122.962 -2.88514 2.68614 0
M  V30 1204 H 124.25 -4.02666 3.11026 0
M  V30 1205 H 123.648 -5.6448 0.371368 0
M  V30 1206 H 122.205 -6.46739 0.810656 0
M  V30 1207 N 125.638 -1.25649 -0.95132 0
M  V30 1208 C 126.878 -1.11802 -1.71113 0
M  V30 1209 C 127.242 0.334758 -1.89059 0
M  V30 1210 O 128.443 0.595121 -2.62129 0
M  V30 1211 C 126.714 -1.85512 -3.05483 0
M  V30 1212 S 128.273 -1.87597 -3.96677 0
M  V30 1213 H 125.091 -0.399552 -0.588115 0
M  V30 1214 H 127.693 -1.59222 -1.1344 0
M  V30 1215 H 126.397 -2.90299 -2.90094 0
M  V30 1216 H 125.928 -1.38493 -3.68216 0
M  V30 1217 H 127.943 -0.955389 -4.86916 0
M  V30 1218 N 127.117 1.15442 -1.07289 0
M  V30 1219 C 128.394 1.82306 -0.708792 0
M  V30 1220 C 128.774 1.94991 0.808807 0
M  V30 1221 O 128.122 1.50085 1.72298 0
M  V30 1222 C 128.332 3.18695 -1.42247 0
M  V30 1223 C 129.68 3.94341 -1.57417 0
M  V30 1224 O 130.704 3.28247 -1.38319 0
M  V30 1225 O 129.563 5.12839 -1.88834 0
M  V30 1226 H 126.657 0.787628 -0.252132 0
M  V30 1227 H 129.203 1.22559 -1.17377 0
M  V30 1228 H 127.975 3.04557 -2.45684 0
M  V30 1229 H 127.598 3.86128 -0.948223 0
M  V30 1230 N 128.595 0.856903 1.32268 0
M  V30 1231 C 129.843 0.460474 1.96784 0
M  V30 1232 C 130.164 -0.987701 1.68135 0
M  V30 1233 O 129.434 -1.69058 0.989765 0
M  V30 1234 H 128.014 0.167289 0.728027 0
M  V30 1235 H 130.676 1.09383 1.61312 0
M  V30 1236 H 129.772 0.60739 3.06133 0
M  V30 1237 N 130.073 -1.45103 0.615059 0
M  V30 1238 C 131.036 -2.29025 -0.0895485 0
M  V30 1239 C 132.036 -1.40174 -0.787906 0
M  V30 1240 O 133.226 -1.62217 -0.634933 0
M  V30 1241 C 130.358 -3.21376 -1.13711 0
M  V30 1242 H 131.551 -2.92807 0.648382 0
M  V30 1243 H 129.104 -1.51749 0.374444 0
M  V30 1244 H 129.839 -2.6241 -1.90556 0
M  V30 1245 H 129.624 -3.86834 -0.640475 0
M  V30 1246 H 131.114 -3.84459 -1.63036 0
M  V30 1247 N 131.551 -0.354651 -1.53558 0
M  V30 1248 C 132.781 0.239167 -2.05211 0
M  V30 1249 C 133.189 1.43879 -1.22863 0
M  V30 1250 O 132.532 1.81857 -0.259565 0
M  V30 1251 C 132.594 0.707251 -3.52474 0
M  V30 1252 C 132.258 -0.374212 -4.55465 0
M  V30 1253 C 133.255 -1.22054 -5.0537 0
M  V30 1254 C 130.94 -0.531323 -4.99482 0
M  V30 1255 C 132.934 -2.20942 -5.97882 0
M  V30 1256 C 130.621 -1.52358 -5.91802 0
M  V30 1257 C 131.619 -2.36108 -6.40892 0
M  V30 1258 O 131.307 -3.33643 -7.31394 0
M  V30 1259 H 131.039 0.0479716 -0.674296 0
M  V30 1260 H 133.593 -0.508121 -1.99016 0
M  V30 1261 H 131.823 1.50596 -3.56171 0
M  V30 1262 H 133.512 1.22285 -3.87042 0
M  V30 1263 H 134.278 -1.1103 -4.7212 0
M  V30 1264 H 130.157 0.110738 -4.60867 0
M  V30 1265 H 133.701 -2.86348 -6.36121 0
M  V30 1266 H 129.598 -1.63434 -6.24467 0
M  V30 1267 H 130.366 -3.29244 -7.4936 0
M  V30 1268 N 133.029 1.57378 -0.0835403 0
M  V30 1269 C 133.992 2.12252 0.864959 0
M  V30 1270 C 134.992 1.04916 1.21858 0
M  V30 1271 O 136.182 1.30853 1.14991 0
M  V30 1272 C 133.314 2.63358 2.16461 0
M  V30 1273 H 134.507 2.97371 0.388676 0
M  V30 1274 H 132.06 1.55423 0.165317 0
M  V30 1275 H 132.795 1.81727 2.686 0
M  V30 1276 H 132.58 3.41826 1.92087 0
M  V30 1277 H 134.07 3.05847 2.84337 0
M  V30 1278 N 134.507 -0.190092 1.56449 0
M  V30 1279 C 135.755 -0.907908 1.80559 0
M  V30 1280 C 136.076 -1.83583 0.657438 0
M  V30 1281 O 135.346 -1.93203 -0.323924 0
M  V30 1282 H 133.926 -0.338247 0.666032 0
M  V30 1283 H 136.588 -0.194403 1.93928 0
M  V30 1284 H 135.684 -1.49604 2.73907 0
M  V30 1285 N 135.985 -1.50799 -0.457987 0
M  V30 1286 C 137.213 -1.66218 -1.23203 0
M  V30 1287 C 137.628 -0.350894 -1.85511 0
M  V30 1288 O 136.985 0.668546 -1.69814 0
M  V30 1289 C 137.036 -2.76291 -2.33121 0
M  V30 1290 O 136.757 -4.02338 -1.73366 0
M  V30 1291 C 138.258 -3.028 -3.2377 0
M  V30 1292 H 135.478 -0.558361 -0.372121 0
M  V30 1293 H 138.022 -1.97099 -0.545179 0
M  V30 1294 H 136.177 -2.48068 -2.97558 0
M  V30 1295 H 136.591 -4.63312 -2.4585 0
M  V30 1296 H 138.065 -3.8345 -3.97077 0
M  V30 1297 H 138.542 -2.14385 -3.83322 0
M  V30 1298 H 139.148 -3.32604 -2.65056 0
M  V30 1299 N 137.463 0.71206 -1.40597 0
M  V30 1300 C 138.688 1.50617 -1.42581 0
M  V30 1301 C 139.113 1.88079 -0.0282102 0
M  V30 1302 O 138.471 1.53511 0.964579 0
M  V30 1303 C 138.519 2.7557 -2.3258 0
M  V30 1304 O 137.623 3.72414 -1.77148 0
M  V30 1305 H 136.964 0.453966 -0.484573 0
M  V30 1306 H 139.494 0.876649 -1.84868 0
M  V30 1307 H 139.504 3.2406 -2.47889 0
M  V30 1308 H 138.179 2.47639 -3.34138 0
M  V30 1309 H 136.756 3.31276 -1.71204 0
M  V30 1310 N 138.941 1.26152 0.944643 0
M  V30 1311 C 140.187 1.11657 1.69294 0
M  V30 1312 C 140.52 -0.339926 1.91202 0
M  V30 1313 O 139.795 -1.24994 1.49019 0
M  V30 1314 C 140.078 1.88236 3.06984 0
M  V30 1315 C 139.931 3.41772 2.92424 0
M  V30 1316 C 141.25 1.67343 4.07043 0
M  V30 1317 H 138.369 0.407004 0.614424 0
M  V30 1318 H 141.011 1.55106 1.09737 0
M  V30 1319 H 139.161 1.51308 3.57824 0
M  V30 1320 H 140.833 3.88433 2.48832 0
M  V30 1321 H 139.076 3.68974 2.28124 0
M  V30 1322 H 139.747 3.90579 3.90067 0
M  V30 1323 H 142.223 1.99509 3.65151 0
M  V30 1324 H 141.099 2.23346 5.01406 0
M  V30 1325 H 141.36 0.617158 4.37771 0
M  V30 1326 N 140.419 -1.14872 1.07899 0
M  V30 1327 C 141.665 -1.86064 0.806725 0
M  V30 1328 C 141.998 -1.82434 -0.665706 0
M  V30 1329 O 141.273 -1.25138 -1.48899 0
M  V30 1330 C 141.556 -3.34929 1.32267 0
M  V30 1331 C 141.409 -3.47161 2.86006 0
M  V30 1332 C 142.728 -4.29863 0.943717 0
M  V30 1333 H 139.847 -0.675591 0.294526 0
M  V30 1334 H 142.489 -1.34925 1.33773 0
M  V30 1335 H 140.639 -3.78611 0.870974 0
M  V30 1336 H 142.311 -3.12302 3.39507 0
M  V30 1337 H 140.554 -2.88539 3.23925 0
M  V30 1338 H 141.225 -4.51777 3.17177 0
M  V30 1339 H 143.701 -3.9417 1.33302 0
M  V30 1340 H 142.577 -5.32494 1.33198 0
M  V30 1341 H 142.838 -4.41846 -0.149796 0
M  V30 1342 N 141.898 -0.863906 -1.31812 0
M  V30 1343 C 143.144 -0.472535 -1.97218 0
M  V30 1344 C 143.477 0.971394 -1.68159 0
M  V30 1345 O 142.752 1.68309 -0.974798 0
M  V30 1346 C 143.035 -0.723054 -3.52766 0
M  V30 1347 C 142.888 -2.21608 -3.91421 0
M  V30 1348 C 144.207 -0.185522 -4.39709 0
M  V30 1349 H 141.326 -0.173158 -0.71637 0
M  V30 1350 H 143.968 -1.08403 -1.56041 0
M  V30 1351 H 142.118 -0.202577 -3.87971 0
M  V30 1352 H 143.79 -2.80334 -3.66347 0
M  V30 1353 H 142.033 -2.691 -3.40246 0
M  V30 1354 H 142.704 -2.34203 -4.99853 0
M  V30 1355 H 145.18 -0.630726 -4.11292 0
M  V30 1356 H 144.056 -0.390306 -5.47511 0
M  V30 1357 H 144.317 0.912229 -4.32586 0
M  V30 1358 N 143.376 1.44774 -0.622745 0
M  V30 1359 C 144.604 2.06487 -0.130722 0
M  V30 1360 C 145.019 1.46476 1.19123 0
M  V30 1361 O 144.376 0.584502 1.72887 0
M  V30 1362 C 144.427 3.615 -0.000807207 0
M  V30 1363 O 144.148 4.19274 -1.27048 0
M  V30 1364 C 145.649 4.40229 0.520898 0
M  V30 1365 H 142.869 0.666704 -0.0758106 0
M  V30 1366 H 145.413 1.85779 -0.854774 0
M  V30 1367 H 143.568 3.81498 0.673643 0
M  V30 1368 H 143.982 5.12622 -1.1099 0
M  V30 1369 H 145.456 5.49144 0.560838 0
M  V30 1370 H 145.933 4.1108 1.54627 0
M  V30 1371 H 146.539 4.25131 -0.120018 0
M  V30 1372 N 144.854 0.36279 1.53368 0
M  V30 1373 C 146.1 -0.228113 2.01513 0
M  V30 1374 C 146.433 -1.48648 1.2497 0
M  V30 1375 O 145.708 -1.91459 0.342616 0
M  V30 1376 C 145.991 -0.522884 3.56284 0
M  V30 1377 C 145.844 0.74892 4.43521 0
M  V30 1378 C 147.163 -1.32461 4.19693 0
M  V30 1379 H 144.282 -0.0814343 0.732487 0
M  V30 1380 H 146.924 0.48713 1.83649 0
M  V30 1381 H 145.074 -1.1322 3.71636 0
M  V30 1382 H 146.746 1.38648 4.39971 0
M  V30 1383 H 144.989 1.36986 4.11603 0
M  V30 1384 H 145.66 0.497667 5.49752 0
M  V30 1385 H 148.136 -0.809203 4.08156 0
M  V30 1386 H 147.012 -1.49961 5.28018 0
M  V30 1387 H 147.273 -2.33232 3.75573 0
M  V30 1388 N 146.332 -1.57332 0.0918853 0
M  V30 1389 C 147.58 -1.93853 -0.571446 0
M  V30 1390 C 147.901 -0.974212 -1.6892 0
M  V30 1391 O 147.171 -0.0257254 -1.95883 0
M  V30 1392 H 145.751 -0.715666 -0.214082 0
M  V30 1393 H 148.413 -1.94287 0.154464 0
M  V30 1394 H 147.509 -2.96191 -0.983729 0
M  V30 1395 N 147.81 0.181792 -1.56548 0
M  V30 1396 C 148.773 1.20894 -1.94724 0
M  V30 1397 C 149.773 1.37738 -0.829747 0
M  V30 1398 O 150.963 1.35323 -1.09697 0
M  V30 1399 C 148.095 2.57593 -2.23291 0
M  V30 1400 H 149.288 0.882275 -2.86629 0
M  V30 1401 H 146.841 0.423838 -1.50444 0
M  V30 1402 H 147.576 2.95291 -1.34067 0
M  V30 1403 H 147.361 2.46735 -3.04736 0
M  V30 1404 H 148.851 3.31637 -2.53785 0
M  V30 1405 N 149.288 1.51039 0.449983 0
M  V30 1406 C 150.251 1.70863 1.5277 0
M  V30 1407 C 151.251 0.578846 1.5002 0
M  V30 1408 O 152.441 0.846213 1.52266 0
M  V30 1409 C 149.573 1.75341 2.9235 0
M  V30 1410 H 150.766 2.67034 1.36502 0
M  V30 1411 H 148.319 1.40838 0.677812 0
M  V30 1412 H 149.054 0.809383 3.14037 0
M  V30 1413 H 148.839 2.57436 2.95752 0
M  V30 1414 H 150.329 1.92559 3.70555 0
M  V30 1415 N 150.766 -0.704594 1.40972 0
M  V30 1416 C 152.014 -1.46169 1.39568 0
M  V30 1417 C 152.335 -1.95 0.00253745 0
M  V30 1418 O 151.605 -1.71095 -0.954114 0
M  V30 1419 H 150.185 -0.542326 0.513704 0
M  V30 1420 H 152.847 -0.834553 1.76128 0
M  V30 1421 H 151.943 -2.32922 2.07735 0
M  V30 1422 N 152.244 -1.26651 -0.937939 0
M  V30 1423 C 153.176 -1.04283 -2.04102 0
M  V30 1424 C 154.189 -0.00221014 -1.628 0
M  V30 1425 O 155.378 -0.242645 -1.76843 0
M  V30 1426 C 152.478 -0.557846 -3.34277 0
M  V30 1427 C 151.651 -1.66843 -4.04329 0
M  V30 1428 C 150.71 -1.18095 -5.12777 0
M  V30 1429 O 149.736 -1.87865 -5.37304 0
M  V30 1430 N 150.938 -0.0311006 -5.80492 0
M  V30 1431 H 153.703 -1.9927 -2.23856 0
M  V30 1432 H 151.264 -1.1808 -1.10764 0
M  V30 1433 H 153.256 -0.215836 -4.04124 0
M  V30 1434 H 151.826 0.298523 -3.11171 0
M  V30 1435 H 151.046 -2.18123 -3.28353 0
M  V30 1436 H 152.334 -2.41408 -4.47883 0
M  V30 1437 H 151.732 0.551486 -5.63005 0
M  V30 1438 H 150.289 0.251809 -6.51313 0
M  V30 1439 N 153.722 1.14298 -1.08507 0
M  V30 1440 C 154.652 2.21542 -0.737646 0
M  V30 1441 C 155.633 1.67773 0.280377 0
M  V30 1442 O 156.818 1.93616 0.150521 0
M  V30 1443 C 153.948 3.46988 -0.147259 0
M  V30 1444 C 152.902 4.13789 -1.09374 0
M  V30 1445 C 152.228 5.33449 -0.365524 0
M  V30 1446 C 153.528 4.62208 -2.4323 0
M  V30 1447 H 155.222 2.5086 -1.6343 0
M  V30 1448 H 152.768 1.20576 -0.787243 0
M  V30 1449 H 154.721 4.21262 0.107808 0
M  V30 1450 H 153.445 3.17037 0.784538 0
M  V30 1451 H 152.104 3.4147 -1.33393 0
M  V30 1452 H 151.752 4.99759 0.57011 0
M  V30 1453 H 151.452 5.79088 -0.996512 0
M  V30 1454 H 152.976 6.10485 -0.118534 0
M  V30 1455 H 154.39 5.27952 -2.23472 0
M  V30 1456 H 152.787 5.18553 -3.02031 0
M  V30 1457 H 153.857 3.77224 -3.04681 0
M  V30 1458 N 155.201 0.870884 1.31352 0
M  V30 1459 C 156.617 0.562932 1.49343 0
M  V30 1460 C 156.817 -0.902725 1.80148 0
M  V30 1461 O 155.873 -1.68484 1.88067 0
M  V30 1462 C 157.186 1.46393 2.62659 0
M  V30 1463 C 158.734 1.46607 2.76542 0
M  V30 1464 C 159.209 2.35266 3.92955 0
M  V30 1465 N 160.7 2.33151 4.00243 0
M  V30 1466 C 161.435 2.98471 4.89594 0
M  V30 1467 N 160.931 3.72964 5.8384 0
M  V30 1468 N 162.724 2.87775 4.82848 0
M  V30 1469 H 154.875 1.81923 1.09626 0
M  V30 1470 H 157.138 0.777934 0.541777 0
M  V30 1471 H 156.844 2.50689 2.46674 0
M  V30 1472 H 156.718 1.16314 3.58819 0
M  V30 1473 H 159.105 0.43069 2.9194 0
M  V30 1474 H 159.186 1.8071 1.81046 0
M  V30 1475 H 158.83 3.38881 3.78315 0
M  V30 1476 H 158.76 1.98487 4.87761 0
M  V30 1477 H 161.251 1.79006 3.32814 0
M  V30 1478 H 161.564 4.19932 6.4875 0
M  V30 1479 H 159.909 3.77073 5.83816 0
M  V30 1480 H 163.1 2.29116 4.08195 0
M  V30 1481 H 163.273 3.38961 5.52277 0
M  V30 1482 N 156.679 -1.44442 0.630414 0
M  V30 1483 C 157.927 -2.01653 0.134351 0
M  V30 1484 C 158.248 -1.49836 -1.24796 0
M  V30 1485 O 157.518 -0.701684 -1.82902 0
M  V30 1486 H 156.098 -0.74554 0.0466769 0
M  V30 1487 H 158.76 -1.76952 0.816955 0
M  V30 1488 H 157.856 -3.11935 0.101498 0
M  V30 1489 N 158.157 -0.370918 -1.53173 0
M  V30 1490 C 159.403 0.217423 -2.01631 0
M  V30 1491 C 159.736 1.47983 -1.25756 0
M  V30 1492 O 159.011 1.91274 -0.352764 0
M  V30 1493 C 159.294 0.503982 -3.56556 0
M  V30 1494 C 159.147 -0.77243 -4.43118 0
M  V30 1495 C 160.466 1.30234 -4.20389 0
M  V30 1496 H 157.585 0.0775486 -0.732909 0
M  V30 1497 H 160.227 -0.496863 -1.83388 0
M  V30 1498 H 158.377 1.11248 -3.72231 0
M  V30 1499 H 160.049 -1.4098 -4.39229 0
M  V30 1500 H 158.292 -1.39167 -4.10871 0
M  V30 1501 H 158.963 -0.526815 -5.4948 0
M  V30 1502 H 161.439 0.787546 -4.08579 0
M  V30 1503 H 160.315 1.47158 -5.28806 0
M  V30 1504 H 160.576 2.31237 -3.76805 0
M  V30 1505 N 159.635 1.57281 -0.100228 0
M  V30 1506 C 160.567 2.11342 0.886972 0
M  V30 1507 C 161.58 1.05182 1.24261 0
M  V30 1508 O 162.769 1.32613 1.19483 0
M  V30 1509 C 159.869 2.5825 2.19454 0
M  V30 1510 C 159.042 3.88302 2.01346 0
M  V30 1511 C 158.101 4.21004 3.15661 0
M  V30 1512 O 157.127 4.9014 2.89398 0
M  V30 1513 N 158.329 3.76818 4.41575 0
M  V30 1514 H 161.094 2.96668 0.425216 0
M  V30 1515 H 158.655 1.61678 0.0847334 0
M  V30 1516 H 160.647 2.7717 2.94888 0
M  V30 1517 H 159.217 1.77907 2.57037 0
M  V30 1518 H 158.437 3.7848 1.10212 0
M  V30 1519 H 159.725 4.73375 1.8653 0
M  V30 1520 H 159.123 3.2102 4.65792 0
M  V30 1521 H 157.68 4.00882 5.13942 0
M  V30 1522 N 161.113 -0.173488 1.56642 0
M  V30 1523 C 162.043 -1.2171 1.99271 0
M  V30 1524 C 163.024 -1.46289 0.867959 0
M  V30 1525 O 164.209 -1.5766 1.13388 0
M  V30 1526 C 161.339 -2.55651 2.35074 0
M  V30 1527 C 160.293 -2.45645 3.50489 0
M  V30 1528 C 159.619 -3.84056 3.72028 0
M  V30 1529 C 160.919 -1.96302 4.84007 0
M  V30 1530 H 162.613 -0.86275 2.867 0
M  V30 1531 H 160.159 -0.413571 1.37933 0
M  V30 1532 H 162.112 -3.2886 2.63494 0
M  V30 1533 H 160.836 -2.92869 1.44552 0
M  V30 1534 H 159.495 -1.7489 3.22194 0
M  V30 1535 H 159.143 -4.18664 2.788 0
M  V30 1536 H 158.843 -3.7823 4.49684 0
M  V30 1537 H 160.367 -4.58854 4.02846 0
M  V30 1538 H 161.781 -2.59284 5.11317 0
M  V30 1539 H 160.178 -2.01429 5.65284 0
M  V30 1540 H 161.248 -0.917226 4.76146 0
M  V30 1541 N 162.591 -1.51276 -0.441967 0
M  V30 1542 C 163.837 -1.6492 -1.1905 0
M  V30 1543 C 164.192 -0.358731 -1.89026 0
M  V30 1544 O 163.485 0.645193 -1.8041 0
M  V30 1545 C 163.679 -2.78746 -2.23686 0
M  V30 1546 C 163.508 -4.18737 -1.63979 0
M  V30 1547 C 162.278 -4.84739 -1.42674 0
M  V30 1548 C 164.476 -5.01988 -1.11858 0
M  V30 1549 N 162.458 -6.08858 -0.785159 0
M  V30 1550 C 163.829 -6.17071 -0.601989 0
M  V30 1551 C 165.884 -4.87551 -1.0099 0
M  V30 1552 C 164.587 -7.19299 0.0126012 0
M  V30 1553 C 166.613 -5.89983 -0.409206 0
M  V30 1554 C 165.975 -7.04333 0.0968651 0
M  V30 1555 H 162.074 -0.657416 -0.423471 0
M  V30 1556 H 164.658 -1.8849 -0.48782 0
M  V30 1557 H 162.829 -2.56848 -2.91348 0
M  V30 1558 H 164.561 -2.81595 -2.90666 0
M  V30 1559 H 161.316 -4.42528 -1.68719 0
M  V30 1560 H 161.74 -6.75282 -0.481942 0
M  V30 1561 H 166.382 -3.99401 -1.38703 0
M  V30 1562 H 164.1 -8.071 0.401879 0
M  V30 1563 H 167.686 -5.8088 -0.327079 0
M  V30 1564 H 166.566 -7.82238 0.554373 0
M  V30 1565 N 164.069 0.697108 -1.41344 0
M  V30 1566 C 165.485 1.00751 -1.2378 0
M  V30 1567 C 165.685 2.01105 -0.126066 0
M  V30 1568 O 164.741 2.47295 0.51004 0
M  V30 1569 C 166.054 1.53359 -2.58653 0
M  V30 1570 C 167.602 1.6525 -2.65822 0
M  V30 1571 C 168.077 2.2126 -4.01009 0
M  V30 1572 N 169.568 2.28622 -4.02847 0
M  V30 1573 C 170.303 2.72984 -5.04249 0
M  V30 1574 N 169.799 3.16962 -6.16041 0
M  V30 1575 N 171.592 2.72534 -4.91611 0
M  V30 1576 H 163.743 0.0322662 -2.12375 0
M  V30 1577 H 166.006 0.0768853 -0.944877 0
M  V30 1578 H 165.712 0.870773 -3.4075 0
M  V30 1579 H 165.586 2.51597 -2.81032 0
M  V30 1580 H 167.973 2.30644 -1.84086 0
M  V30 1581 H 168.054 0.655614 -2.47256 0
M  V30 1582 H 167.698 1.56482 -4.83193 0
M  V30 1583 H 167.628 3.21698 -4.16915 0
M  V30 1584 H 170.119 1.97585 -3.22131 0
M  V30 1585 H 170.432 3.49434 -6.89287 0
M  V30 1586 H 168.777 3.14875 -6.1958 0
M  V30 1587 H 171.968 2.37525 -4.0336 0
M  V30 1588 H 172.141 3.06789 -5.70775 0
M  V30 1589 N 165.547 1.27147 0.931209 0
M  V30 1590 C 166.793 1.13446 1.68101 0
M  V30 1591 C 167.126 -0.319628 1.91552 0
M  V30 1592 O 166.401 -1.23407 1.50336 0
M  V30 1593 C 166.684 1.91482 3.0497 0
M  V30 1594 C 166.537 3.44855 2.88782 0
M  V30 1595 C 167.856 1.71651 4.05246 0
M  V30 1596 H 164.975 0.413498 0.610072 0
M  V30 1597 H 167.617 1.56261 1.08086 0
M  V30 1598 H 165.767 1.55095 3.56199 0
M  V30 1599 H 167.439 3.9105 2.44698 0
M  V30 1600 H 165.682 3.71373 2.24198 0
M  V30 1601 H 166.353 3.94694 3.85902 0
M  V30 1602 H 168.829 2.0337 3.63015 0
M  V30 1603 H 167.705 2.28651 4.99009 0
M  V30 1604 H 167.966 0.663555 4.37092 0
M  V30 1605 N 167.025 -1.13721 1.09112 0
M  V30 1606 C 168.436 -1.6648 0.845068 0
M  V30 1607 C 168.787 -1.85911 -0.62701 0
M  V30 1608 O 167.912 -1.57556 -1.48341 0
M  V30 1609 C 168.507 -3.02413 1.52748 0
M  V30 1610 C 167.066 -3.52176 1.32849 0
M  V30 1611 C 166.213 -2.27492 1.58564 0
M  V30 1612 H 169.164 -0.976872 1.25072 0
M  V30 1613 H 169.185 -3.68223 0.958752 0
M  V30 1614 H 168.697 -2.88238 2.59885 0
M  V30 1615 H 166.798 -3.7156 0.278137 0
M  V30 1616 H 166.911 -4.32499 2.0611 0
M  V30 1617 H 165.275 -2.33923 1.00758 0
M  V30 1618 H 166.058 -2.15886 2.66924 0
M  V30 1619 N 168.503 -0.877838 -1.30888 0
M  V30 1620 C 169.751 -0.491723 -1.96027 0
M  V30 1621 C 170.072 0.960827 -1.69685 0
M  V30 1622 O 169.342 1.67462 -1.01654 0
M  V30 1623 H 167.922 -0.17885 -0.725273 0
M  V30 1624 H 170.584 -1.11935 -1.59551 0
M  V30 1625 H 169.68 -0.656016 -3.05128 0
M  V30 1626 N 169.982 1.44106 -0.638065 0
M  V30 1627 C 171.393 1.85316 -0.226894 0
M  V30 1628 C 171.744 1.53399 1.22324 0
M  V30 1629 O 170.869 0.975463 1.93167 0
M  V30 1630 C 171.464 3.3637 -0.405013 0
M  V30 1631 C 170.023 3.76369 -0.0482902 0
M  V30 1632 C 169.17 2.67921 -0.715108 0
M  V30 1633 H 172.121 1.34474 -0.842764 0
M  V30 1634 H 172.142 3.7885 0.354 0
M  V30 1635 H 171.654 3.59569 -1.46053 0
M  V30 1636 H 169.755 3.58784 1.00522 0
M  V30 1637 H 169.868 4.76856 -0.463187 0
M  V30 1638 H 168.232 2.54259 -0.149753 0
M  V30 1639 H 169.015 2.93951 -1.77335 0
M  V30 1640 N 171.46 0.379036 1.52974 0
M  V30 1641 C 172.708 -0.206014 2.01047 0
M  V30 1642 C 173.029 -1.48175 1.26765 0
M  V30 1643 O 172.299 -1.92085 0.384743 0
M  V30 1644 H 170.879 -0.0791184 0.742798 0
M  V30 1645 H 173.541 0.508366 1.88153 0
M  V30 1646 H 172.637 -0.423501 3.09213 0
M  V30 1647 N 172.938 -1.57226 0.108567 0
M  V30 1648 C 173.87 -2.11809 -0.875752 0
M  V30 1649 C 174.883 -1.05839 -1.23701 0
M  V30 1650 O 176.072 -1.33245 -1.18778 0
M  V30 1651 C 173.172 -2.59411 -2.18081 0
M  V30 1652 C 172.345 -3.89364 -1.99284 0
M  V30 1653 C 171.404 -4.22672 -3.13424 0
M  V30 1654 O 170.43 -4.91668 -2.86795 0
M  V30 1655 N 171.632 -3.79154 -4.3957 0
M  V30 1656 H 174.397 -2.9689 -0.409477 0
M  V30 1657 H 171.958 -1.61721 -0.076158 0
M  V30 1658 H 173.95 -2.7873 -2.93414 0
M  V30 1659 H 172.52 -1.79268 -2.5609 0
M  V30 1660 H 171.74 -3.79059 -1.08203 0
M  V30 1661 H 173.028 -4.74358 -1.84017 0
M  V30 1662 H 172.426 -3.23486 -4.64083 0
M  V30 1663 H 170.983 -4.03602 -5.11809 0
M  V30 1664 N 174.416 0.165178 -1.56732 0
M  V30 1665 C 175.646 0.894919 -1.86212 0
M  V30 1666 C 176.054 1.76066 -0.692627 0
M  V30 1667 O 175.397 1.80387 0.347303 0
M  V30 1668 C 175.459 1.8174 -3.10179 0
M  V30 1669 C 175.123 1.13064 -4.42793 0
M  V30 1670 C 176.12 0.493169 -5.17556 0
M  V30 1671 C 173.805 1.12556 -4.89527 0
M  V30 1672 C 175.799 -0.140209 -6.37246 0
M  V30 1673 C 173.486 0.488366 -6.09145 0
M  V30 1674 C 174.484 -0.143411 -6.82849 0
M  V30 1675 O 174.172 -0.77055 -8.00199 0
M  V30 1676 H 173.904 0.265114 -0.621844 0
M  V30 1677 H 176.458 0.168242 -2.0471 0
M  V30 1678 H 174.688 2.58455 -2.87642 0
M  V30 1679 H 176.377 2.4175 -3.26055 0
M  V30 1680 H 177.143 0.489023 -4.82528 0
M  V30 1681 H 173.022 1.60672 -4.32094 0
M  V30 1682 H 176.566 -0.633932 -6.94714 0
M  V30 1683 H 172.463 0.490116 -6.43637 0
M  V30 1684 H 173.231 -0.670408 -8.1575 0
M  V30 1685 N 175.894 1.51508 0.433938 0
M  V30 1686 C 176.824 1.76016 1.53429 0
M  V30 1687 C 177.805 0.610112 1.58782 0
M  V30 1688 O 178.99 0.853177 1.74455 0
M  V30 1689 C 176.12 1.88831 2.9148 0
M  V30 1690 C 175.074 3.04288 3.00987 0
M  V30 1691 C 174.4 3.0229 4.4105 0
M  V30 1692 C 175.7 4.44193 2.74754 0
M  V30 1693 H 177.394 2.68152 1.33171 0
M  V30 1694 H 174.94 1.29035 0.639214 0
M  V30 1695 H 176.893 2.04559 3.6842 0
M  V30 1696 H 175.617 0.933455 3.12976 0
M  V30 1697 H 174.276 2.8827 2.26486 0
M  V30 1698 H 173.924 2.04576 4.59519 0
M  V30 1699 H 173.624 3.79822 4.4834 0
M  V30 1700 H 175.148 3.20116 5.1996 0
M  V30 1701 H 176.562 4.60544 3.41426 0
M  V30 1702 H 174.959 5.23457 2.9345 0
M  V30 1703 H 176.029 4.53996 1.70339 0
M  V30 1704 N 177.372 -0.689602 1.41712 0
M  V30 1705 C 178.621 -1.44534 1.40686 0
M  V30 1706 C 178.934 -1.95588 0.0213352 0
M  V30 1707 O 180.14 -2.71271 -0.111534 0
M  V30 1708 C 178.596 -2.61387 2.47396 0
M  V30 1709 C 178.204 -2.17094 3.91885 0
M  V30 1710 C 179.948 -3.38986 2.55517 0
M  V30 1711 C 177.855 -3.3094 4.90135 0
M  V30 1712 H 176.785 -0.542925 0.52321 0
M  V30 1713 H 179.436 -0.748054 1.6756 0
M  V30 1714 H 177.818 -3.33412 2.13664 0
M  V30 1715 H 178.992 -1.52318 4.34897 0
M  V30 1716 H 177.307 -1.52473 3.8748 0
M  V30 1717 H 179.904 -4.23747 3.26102 0
M  V30 1718 H 180.247 -3.84578 1.59391 0
M  V30 1719 H 180.78 -2.74021 2.8837 0
M  V30 1720 H 177.519 -2.90355 5.87685 0
M  V30 1721 H 177.039 -3.94546 4.51767 0
M  V30 1722 H 178.718 -3.9663 5.11169 0
M  V30 1723 N 178.85 -1.27639 -0.924453 0
M  V30 1724 C 180.075 -1.17101 -1.71179 0
M  V30 1725 C 180.5 0.268134 -1.86179 0
M  V30 1726 O 179.858 1.19415 -1.36418 0
M  V30 1727 C 179.906 -1.86313 -3.08739 0
M  V30 1728 O 179.01 -1.16331 -3.95652 0
M  V30 1729 H 178.351 -0.407091 -0.524569 0
M  V30 1730 H 180.881 -1.68767 -1.15666 0
M  V30 1731 H 180.891 -1.938 -3.59034 0
M  V30 1732 H 179.566 -2.91001 -2.97138 0
M  V30 1733 H 178.143 -1.16935 -3.54091 0
M  V30 1734 N 180.328 1.1314 -1.09713 0
M  V30 1735 C 181.291 2.16831 -0.742751 0
M  V30 1736 C 182.291 1.59159 0.229129 0
M  V30 1737 O 183.481 1.74199 0.00693237 0
M  V30 1738 C 180.613 3.40756 -0.0989168 0
M  V30 1739 H 181.806 2.49695 -1.66109 0
M  V30 1740 H 179.359 1.2802 -0.896699 0
M  V30 1741 H 180.094 3.13485 0.830514 0
M  V30 1742 H 179.879 3.83888 -0.798265 0
M  V30 1743 H 181.369 4.17386 0.133524 0
M  V30 1744 N 181.806 0.884767 1.30421 0
M  V30 1745 C 183.036 0.517293 2.00019 0
M  V30 1746 C 183.444 -0.898632 1.66497 0
M  V30 1747 O 182.787 -1.60245 0.898181 0
M  V30 1748 C 182.849 0.612025 3.54252 0
M  V30 1749 C 182.513 1.99222 4.1129 0
M  V30 1750 C 183.51 2.9616 4.273 0
M  V30 1751 C 181.195 2.29755 4.46674 0
M  V30 1752 C 183.189 4.21764 4.77906 0
M  V30 1753 C 180.876 3.55606 4.96979 0
M  V30 1754 C 181.874 4.51425 5.12547 0
M  V30 1755 O 181.562 5.75043 5.61766 0
M  V30 1756 H 181.294 0.198529 0.64619 0
M  V30 1757 H 183.848 1.1919 1.67281 0
M  V30 1758 H 182.078 -0.119561 3.86515 0
M  V30 1759 H 183.767 0.255859 4.05093 0
M  V30 1760 H 184.533 2.73882 4.00267 0
M  V30 1761 H 180.412 1.55942 4.33824 0
M  V30 1762 H 183.956 4.96561 4.89972 0
M  V30 1763 H 179.853 3.7772 5.23448 0
M  V30 1764 H 180.621 5.77422 5.80109 0
M  V30 1765 N 183.284 -1.43765 0.645699 0
M  V30 1766 C 184.532 -2.01499 0.155731 0
M  V30 1767 C 184.853 -1.51151 -1.232 0
M  V30 1768 O 184.123 -0.721044 -1.82148 0
M  V30 1769 H 182.703 -0.745003 0.0545817 0
M  V30 1770 H 185.365 -1.76075 0.835677 0
M  V30 1771 H 184.461 -3.1181 0.134577 0
M  V30 1772 N 184.763 -0.387143 -1.52771 0
M  V30 1773 C 185.726 0.436939 -2.24997 0
M  V30 1774 C 186.726 0.991991 -1.26555 0
M  V30 1775 O 187.916 0.874335 -1.50669 0
M  V30 1776 C 185.048 1.61281 -3.00335 0
M  V30 1777 H 186.241 -0.195365 -2.99263 0
M  V30 1778 H 183.794 -0.139218 -1.55679 0
M  V30 1779 H 184.529 2.2826 -2.30364 0
M  V30 1780 H 184.314 1.22154 -3.72587 0
M  V30 1781 H 185.804 2.19629 -3.5518 0
M  V30 1782 N 186.241 1.57166 -0.116904 0
M  V30 1783 C 187.204 2.14039 0.819742 0
M  V30 1784 C 188.204 1.07477 1.19605 0
M  V30 1785 O 189.394 1.33263 1.1219 0
M  V30 1786 C 186.526 2.67891 2.10826 0
M  V30 1787 H 187.719 2.98128 0.325511 0
M  V30 1788 H 185.272 1.55739 0.132312 0
M  V30 1789 H 186.007 1.87384 2.64685 0
M  V30 1790 H 185.792 3.45823 1.84793 0
M  V30 1791 H 187.282 3.11809 2.77785 0
M  V30 1792 N 187.719 -0.156864 1.56817 0
M  V30 1793 C 188.967 -0.869404 1.82444 0
M  V30 1794 C 189.288 -1.82147 0.69623 0
M  V30 1795 O 188.558 -1.93847 -0.28287 0
M  V30 1796 H 187.138 -0.324043 0.673056 0
M  V30 1797 H 189.8 -0.153224 1.94297 0
M  V30 1798 H 188.896 -1.43761 2.77019 0
M  V30 1799 N 189.197 -1.51736 -0.425897 0
M  V30 1800 C 190.445 -1.64644 -1.17204 0
M  V30 1801 C 190.766 -0.370486 -1.91448 0
M  V30 1802 O 190.036 0.614088 -1.86026 0
M  V30 1803 H 188.616 -0.606819 -0.435638 0
M  V30 1804 H 191.278 -1.88713 -0.487177 0
M  V30 1805 H 190.374 -2.47958 -1.89534 0
M  V30 1806 N 190.675 0.682077 -1.42076 0
M  V30 1807 C 191.622 1.79578 -1.44984 0
M  V30 1808 C 192.592 1.6332 -0.302614 0
M  V30 1809 O 193.777 1.83978 -0.505633 0
M  V30 1810 C 190.917 3.1756 -1.35091 0
M  V30 1811 C 190.03 3.45156 -2.59791 0
M  V30 1812 C 189.165 4.72826 -2.42093 0
M  V30 1813 C 188.204 4.93433 -3.62202 0
M  V30 1814 N 187.341 6.12338 -3.43491 0
M  V30 1815 H 192.181 1.76427 -2.40161 0
M  V30 1816 H 189.718 0.861376 -1.19242 0
M  V30 1817 H 191.676 3.97287 -1.27354 0
M  V30 1818 H 190.306 3.19854 -0.435133 0
M  V30 1819 H 189.358 2.59736 -2.77923 0
M  V30 1820 H 190.67 3.5628 -3.49094 0
M  V30 1821 H 189.824 5.60631 -2.319 0
M  V30 1822 H 188.563 4.63973 -1.50268 0
M  V30 1823 H 187.568 4.04073 -3.72834 0
M  V30 1824 H 188.793 5.04136 -4.54998 0
M  V30 1825 H 186.739 6.04672 -2.54377 0
M  V30 1826 H 186.656 6.2429 -4.26377 0
M  V30 1827 H 187.924 7.02841 -3.37097 0
M  V30 1828 N 192.153 1.28127 0.917671 0
M  V30 1829 C 193.401 1.14825 1.66312 0
M  V30 1830 C 193.722 -0.304379 1.9261 0
M  V30 1831 O 192.992 -1.21149 1.53947 0
M  V30 1832 H 191.572 0.421953 0.616413 0
M  V30 1833 H 194.234 1.608 1.10134 0
M  V30 1834 H 193.33 1.68489 2.62712 0
M  V30 1835 N 193.631 -1.12557 1.10312 0
M  V30 1836 C 194.594 -2.16434 0.75424 0
M  V30 1837 C 195.594 -1.59278 -0.220685 0
M  V30 1838 O 196.784 -1.742 0.00230591 0
M  V30 1839 C 193.916 -3.40699 0.116987 0
M  V30 1840 H 195.109 -2.48811 1.67431 0
M  V30 1841 H 192.662 -1.27542 0.903475 0
M  V30 1842 H 193.397 -3.13921 -0.813877 0
M  V30 1843 H 193.182 -3.83459 0.818613 0
M  V30 1844 H 194.672 -4.17451 -0.111387 0
M  V30 1845 N 195.109 -0.891671 -1.2995 0
M  V30 1846 C 196.056 -0.361736 -2.27948 0
M  V30 1847 C 197.026 0.551761 -1.56668 0
M  V30 1848 O 198.211 0.478736 -1.84696 0
M  V30 1849 C 195.351 0.411825 -3.42634 0
M  V30 1850 C 194.464 -0.531651 -4.28716 0
M  V30 1851 C 193.599 0.258167 -5.30572 0
M  V30 1852 C 192.638 -0.680349 -6.08307 0
M  V30 1853 N 191.775 0.0745613 -7.0206 0
M  V30 1854 H 196.615 -1.20254 -2.72659 0
M  V30 1855 H 194.152 -0.604352 -1.34112 0
M  V30 1856 H 196.11 0.876304 -4.07893 0
M  V30 1857 H 194.74 1.21715 -2.98974 0
M  V30 1858 H 193.792 -1.11463 -3.63703 0
M  V30 1859 H 195.104 -1.25038 -4.82874 0
M  V30 1860 H 194.258 0.784204 -6.0161 0
M  V30 1861 H 192.997 1.01008 -4.77126 0
M  V30 1862 H 192.002 -1.21796 -5.3614 0
M  V30 1863 H 193.227 -1.43145 -6.63842 0
M  V30 1864 H 191.173 0.808883 -6.50994 0
M  V30 1865 H 191.09 -0.584409 -7.53738 0
M  V30 1866 H 192.358 0.581123 -7.77331 0
M  V30 1867 N 196.587 1.43421 -0.653314 0
M  V30 1868 C 197.535 2.32546 0.0501531 0
M  V30 1869 C 198.529 1.48617 0.812985 0
M  V30 1870 O 199.735 1.64825 0.723375 0
M  V30 1871 H 196.11 0.751185 0.0350032 0
M  V30 1872 H 198.081 2.89602 -0.719261 0
M  V30 1873 C 196.83 3.32925 1.00279 0
M  V30 1874 H 196.153 3.97532 0.425236 0
M  V30 1875 H 197.593 3.9792 1.46409 0
M  V30 1876 C 196.052 2.63532 2.09886 0
M  V30 1877 O 196.582 2.45092 3.18265 0
M  V30 1878 N 194.788 2.22905 1.86445 0
M  V30 1879 H 194.335 2.38103 0.98309 0
M  V30 1880 H 194.293 1.76805 2.59976 0
M  V30 1881 N 198.065 0.39524 1.52563 0
M  V30 1882 C 199.015 -0.4541 2.23432 0
M  V30 1883 C 199.999 -1.02482 1.24042 0
M  V30 1884 O 201.191 -0.949938 1.49349 0
M  V30 1885 C 198.32 -1.57769 3.049 0
M  V30 1886 C 197.406 -1.01842 4.1169 0
M  V30 1887 N 197.797 -0.184613 5.05463 0
M  V30 1888 C 196.095 -1.29033 4.26927 0
M  V30 1889 C 196.796 0.125013 5.81566 0
M  V30 1890 N 195.772 -0.480498 5.41472 0
M  V30 1891 H 199.574 0.189413 2.93289 0
M  V30 1892 H 197.088 0.204877 1.61102 0
M  V30 1893 H 199.085 -2.19862 3.54212 0
M  V30 1894 H 197.745 -2.22397 2.36579 0
M  V30 1895 H 198.756 0.178602 5.17592 0
M  V30 1896 H 195.433 -1.93721 3.69836 0
M  V30 1897 H 196.823 0.800962 6.67109 0
M  V30 1898 N 199.544 -1.57102 0.125237 0
M  V30 1899 C 200.474 -2.18659 -0.819174 0
M  V30 1900 C 201.455 -1.12843 -1.27281 0
M  V30 1901 O 202.64 -1.41104 -1.33429 0
M  V30 1902 C 199.77 -2.79096 -2.06695 0
M  V30 1903 C 198.724 -3.90548 -1.75088 0
M  V30 1904 C 198.05 -4.37821 -3.06948 0
M  V30 1905 C 199.35 -5.12356 -1.01435 0
M  V30 1906 H 201.044 -2.9783 -0.306202 0
M  V30 1907 H 198.59 -1.4326 -0.145839 0
M  V30 1908 H 200.543 -3.2082 -2.73226 0
M  V30 1909 H 199.267 -1.97223 -2.60328 0
M  V30 1910 H 197.926 -3.49409 -1.10944 0
M  V30 1911 H 197.574 -3.52799 -3.58527 0
M  V30 1912 H 197.274 -5.12982 -2.86571 0
M  V30 1913 H 198.798 -4.822 -3.74587 0
M  V30 1914 H 200.212 -5.5106 -1.58132 0
M  V30 1915 H 198.609 -5.9314 -0.911319 0
M  V30 1916 H 199.679 -4.849 -0.00218681 0
M  V30 1917 N 201.022 0.148545 -1.56898 0
M  V30 1918 C 202.247 0.880385 -1.87787 0
M  V30 1919 C 202.672 1.74018 -0.714093 0
M  V30 1920 O 202.03 1.78153 0.336343 0
M  V30 1921 C 202.078 1.71422 -3.17249 0
M  V30 1922 O 201.182 2.8183 -3.01074 0
M  V30 1923 H 200.523 0.245301 -0.617028 0
M  V30 1924 H 203.053 0.139826 -2.04122 0
M  V30 1925 H 203.063 2.10954 -3.49231 0
M  V30 1926 H 201.738 1.08284 -4.01556 0
M  V30 1927 H 200.315 2.45715 -2.80497 0
M  V30 1928 N 202.5 1.5196 0.417844 0
M  V30 1929 C 203.916 1.40569 0.755816 0
M  V30 1930 C 204.116 0.503316 1.95113 0
M  V30 1931 O 203.172 -0.0341925 2.52477 0
M  V30 1932 C 204.485 2.82947 1.01791 0
M  V30 1933 C 206.033 2.92231 1.12116 0
M  V30 1934 C 206.508 4.35559 1.41608 0
M  V30 1935 N 207.999 4.38753 1.48491 0
M  V30 1936 C 208.734 5.46705 1.7292 0
M  V30 1937 N 208.23 6.64788 1.95011 0
M  V30 1938 N 210.023 5.34209 1.74863 0
M  V30 1939 H 202.174 2.09168 -0.369098 0
M  V30 1940 H 204.437 0.942409 -0.102809 0
M  V30 1941 H 204.143 3.5106 0.212081 0
M  V30 1942 H 204.017 3.23462 1.94042 0
M  V30 1943 H 206.404 2.24304 1.9176 0
M  V30 1944 H 206.485 2.55185 0.177225 0
M  V30 1945 H 206.129 5.04042 0.624848 0
M  V30 1946 H 206.059 4.70133 2.37239 0
M  V30 1947 H 208.55 3.5363 1.33244 0
M  V30 1948 H 208.863 7.42845 2.13076 0
M  V30 1949 H 207.208 6.67869 1.92293 0
M  V30 1950 H 210.399 4.40937 1.57137 0
M  V30 1951 H 210.572 6.18415 1.93563 0
M  V30 1952 N 203.978 -0.674533 1.42435 0
M  V30 1953 C 204.941 -1.76986 1.45632 0
M  V30 1954 C 205.941 -1.5708 0.343871 0
M  V30 1955 O 207.131 -1.63367 0.604709 0
M  V30 1956 C 204.263 -3.15623 1.28822 0
M  V30 1957 H 205.456 -1.75539 2.43158 0
M  V30 1958 H 203.009 -0.884189 1.28887 0
M  V30 1959 H 203.744 -3.22696 0.322193 0
M  V30 1960 H 203.529 -3.31475 2.09444 0
M  V30 1961 H 205.019 -3.95537 1.33942 0
M  V30 1962 N 205.456 -1.28612 -0.910864 0
M  V30 1963 C 206.406 -1.09423 -2.00026 0
M  V30 1964 C 207.39 -0.0170079 -1.60891 0
M  V30 1965 O 208.582 -0.237472 -1.754 0
M  V30 1966 C 205.711 -0.76114 -3.34756 0
M  V30 1967 C 204.797 -1.87735 -3.80285 0
M  V30 1968 N 205.188 -3.11938 -3.98156 0
M  V30 1969 C 203.486 -1.76786 -4.09467 0
M  V30 1970 C 204.187 -3.84687 -4.36338 0
M  V30 1971 N 203.163 -3.12555 -4.44759 0
M  V30 1972 H 206.965 -2.03658 -2.11898 0
M  V30 1973 H 204.479 -1.19573 -1.09891 0
M  V30 1974 H 206.476 -0.604743 -4.12491 0
M  V30 1975 H 205.136 0.173403 -3.24237 0
M  V30 1976 H 206.147 -3.47516 -3.83996 0
M  V30 1977 H 202.824 -0.905284 -4.07567 0
M  V30 1978 H 204.214 -4.91518 -4.58104 0
M  V30 1979 N 206.934 1.1197 -1.10907 0
M  V30 1980 C 208.182 1.83225 -0.852819 0
M  V30 1981 C 208.503 1.84769 0.623341 0
M  V30 1982 O 207.773 1.3143 1.45269 0
M  V30 1983 H 206.353 0.67849 -0.312507 0
M  V30 1984 H 209.015 1.3556 -1.40033 0
M  V30 1985 H 208.111 2.87265 -1.22005 0
M  V30 1986 N 208.412 0.89855 1.29475 0
M  V30 1987 C 209.658 0.524658 1.95896 0
M  V30 1988 C 209.991 -0.926468 1.70676 0
M  V30 1989 O 209.266 -1.65665 1.01908 0
M  V30 1990 C 209.549 0.81633 3.50725 0
M  V30 1991 C 209.402 2.31907 3.85408 0
M  V30 1992 C 210.721 0.302038 4.39062 0
M  V30 1993 H 207.84 0.19209 0.711527 0
M  V30 1994 H 210.482 1.12502 1.53112 0
M  V30 1995 H 208.632 0.305369 3.87298 0
M  V30 1996 H 210.304 2.89949 3.58786 0
M  V30 1997 H 208.547 2.78027 3.32992 0
M  V30 1998 H 209.218 2.47373 4.93468 0
M  V30 1999 H 211.694 0.739551 4.09475 0
M  V30 2000 H 210.57 0.535331 5.46283 0
M  V30 2001 H 210.831 -0.797216 4.34853 0
M  V30 2002 N 209.89 -1.43072 0.660911 0
M  V30 2003 C 211.137 -2.01721 0.177445 0
M  V30 2004 C 211.465 -1.5218 -1.21126 0
M  V30 2005 O 210.72 -0.708659 -1.82419 0
M  V30 2006 C 211.019 -3.57103 0.145563 0
M  V30 2007 C 210.685 -4.26021 1.47705 0
M  V30 2008 C 209.347 -4.44563 1.84165 0
M  V30 2009 C 211.699 -4.64983 2.35458 0
M  V30 2010 C 209.027 -4.99334 3.0803 0
M  V30 2011 C 211.379 -5.21127 3.58622 0
M  V30 2012 C 210.043 -5.37884 3.95268 0
M  V30 2013 H 209.313 -0.73815 0.0649317 0
M  V30 2014 H 211.96 -1.71446 0.853144 0
M  V30 2015 H 210.265 -3.86965 -0.61361 0
M  V30 2016 H 211.962 -4.00248 -0.2455 0
M  V30 2017 H 208.552 -4.11939 1.18339 0
M  V30 2018 H 212.736 -4.50343 2.08579 0
M  V30 2019 H 207.992 -5.10493 3.36462 0
M  V30 2020 H 212.166 -5.50262 4.26831 0
M  V30 2021 H 209.793 -5.80089 4.91325 0
M  V30 2022 N 211.368 -0.403325 -1.52352 0
M  V30 2023 C 212.614 0.174605 -2.02047 0
M  V30 2024 C 212.947 1.45282 -1.28867 0
M  V30 2025 O 212.222 1.90483 -0.393257 0
M  V30 2026 C 212.505 0.428238 -3.57545 0
M  V30 2027 C 212.358 -0.866248 -4.4138 0
M  V30 2028 C 213.677 1.21287 -4.23057 0
M  V30 2029 H 210.796 0.0619851 -0.734389 0
M  V30 2030 H 213.438 -0.53565 -1.82293 0
M  V30 2031 H 211.588 1.03327 -3.74507 0
M  V30 2032 H 213.26 -1.50265 -4.3614 0
M  V30 2033 H 211.503 -1.47851 -4.07827 0
M  V30 2034 H 212.174 -0.643249 -5.48239 0
M  V30 2035 H 214.65 0.700703 -4.10158 0
M  V30 2036 H 213.526 1.35909 -5.31808 0
M  V30 2037 H 213.787 2.23193 -3.81625 0
M  V30 2038 N 212.846 1.57033 -0.133567 0
M  V30 2039 C 214.071 2.00475 0.531477 0
M  V30 2040 C 214.496 1.01291 1.58499 0
M  V30 2041 O 213.854 -0.0133279 1.81295 0
M  V30 2042 C 213.902 3.42729 1.12113 0
M  V30 2043 O 213.006 3.46498 2.23636 0
M  V30 2044 H 212.347 0.650876 0.131362 0
M  V30 2045 H 214.877 2.03344 -0.22634 0
M  V30 2046 H 214.887 3.81246 1.4531 0
M  V30 2047 H 213.562 4.14428 0.349557 0
M  V30 2048 H 212.139 3.19811 1.91769 0
M  V30 2049 N 214.325 -0.140222 1.56975 0
M  V30 2050 C 215.288 -1.15689 1.97861 0
M  V30 2051 C 216.288 -1.3549 0.865974 0
M  V30 2052 O 217.478 -1.32367 1.13246 0
M  V30 2053 C 214.61 -2.51582 2.30042 0
M  V30 2054 H 215.803 -0.805971 2.88867 0
M  V30 2055 H 213.356 -0.383801 1.51515 0
M  V30 2056 H 214.091 -2.91632 1.41849 0
M  V30 2057 H 213.876 -2.38569 3.11171 0
M  V30 2058 H 215.366 -3.24792 2.62488 0
M  V30 2059 N 215.803 -1.52179 -0.40978 0
M  V30 2060 C 217.052 -1.65434 -1.15388 0
M  V30 2061 C 217.365 -0.390056 -1.91671 0
M  V30 2062 O 218.571 -0.402399 -2.68501 0
M  V30 2063 C 217.027 -2.92279 -2.10003 0
M  V30 2064 C 216.635 -4.25813 -1.39239 0
M  V30 2065 C 218.379 -3.14897 -2.84675 0
M  V30 2066 C 216.286 -5.43782 -2.32498 0
M  V30 2067 H 215.216 -0.616267 -0.434432 0
M  V30 2068 H 217.867 -1.78666 -0.418401 0
M  V30 2069 H 216.249 -2.72744 -2.871 0
M  V30 2070 H 217.423 -4.55828 -0.675099 0
M  V30 2071 H 215.738 -4.09292 -0.766097 0
M  V30 2072 H 218.335 -4.0021 -3.54593 0
M  V30 2073 H 218.678 -2.29103 -3.47588 0
M  V30 2074 H 219.211 -3.34901 -2.14677 0
M  V30 2075 H 215.95 -6.3192 -1.74233 0
M  V30 2076 H 215.47 -5.18106 -3.02201 0
M  V30 2077 H 217.149 -5.76834 -2.93038 0
M  V30 2078 N 217.281 0.66697 -1.42791 0
M  V30 2079 C 218.528 1.42699 -1.43678 0
M  V30 2080 C 218.856 1.94419 -0.0560425 0
M  V30 2081 O 218.111 1.7182 0.936831 0
M  V30 2082 C 218.41 2.6349 -2.4147 0
M  V30 2083 C 218.076 2.30267 -3.8767 0
M  V30 2084 C 216.738 2.20918 -4.27491 0
M  V30 2085 C 219.09 2.03435 -4.79858 0
M  V30 2086 C 216.418 1.82873 -5.57471 0
M  V30 2087 C 218.77 1.66892 -6.10188 0
M  V30 2088 C 217.434 1.56058 -6.49001 0
M  V30 2089 H 216.704 0.522171 -0.525755 0
M  V30 2090 H 219.351 0.759785 -1.75783 0
M  V30 2091 H 217.656 3.35279 -2.0272 0
M  V30 2092 H 219.353 3.21684 -2.39417 0
M  V30 2093 H 215.943 2.38449 -3.56146 0
M  V30 2094 H 220.127 2.09586 -4.49875 0
M  V30 2095 H 215.383 1.7306 -5.86396 0
M  V30 2096 H 219.557 1.45157 -6.81104 0
M  V30 2097 H 217.184 1.26348 -7.49627 0
M  V30 2098 N 218.759 1.29093 0.90403 0
M  V30 2099 C 219.984 1.19809 1.69294 0
M  V30 2100 C 220.409 -0.238481 1.86582 0
M  V30 2101 O 219.767 -1.1723 1.383 0
M  V30 2102 C 219.815 1.91202 3.05736 0
M  V30 2103 O 218.919 1.22611 3.93752 0
M  V30 2104 H 218.26 0.415385 0.518027 0
M  V30 2105 H 220.79 1.70586 1.12967 0
M  V30 2106 H 220.8 1.99487 3.55906 0
M  V30 2107 H 219.475 2.95692 2.92471 0
M  V30 2108 H 218.052 1.22554 3.52186 0
M  V30 2109 N 220.237 -1.11381 1.11499 0
M  V30 2110 C 221.167 -2.19509 0.796125 0
M  V30 2111 C 222.148 -1.68458 -0.235796 0
M  V30 2112 O 223.333 -1.93947 -0.0991344 0
M  V30 2113 C 220.463 -3.46475 0.239205 0
M  V30 2114 C 219.417 -4.10744 1.20307 0
M  V30 2115 C 218.743 -5.32293 0.50683 0
M  V30 2116 C 220.043 -4.55597 2.55399 0
M  V30 2117 H 221.737 -2.46439 1.70024 0
M  V30 2118 H 219.283 -1.18446 0.818935 0
M  V30 2119 H 221.236 -4.214 0.00392006 0
M  V30 2120 H 219.96 -3.19006 -0.700206 0
M  V30 2121 H 218.619 -3.37813 1.42399 0
M  V30 2122 H 218.267 -5.01095 -0.437408 0
M  V30 2123 H 217.967 -5.76243 1.1497 0
M  V30 2124 H 219.491 -6.09956 0.280351 0
M  V30 2125 H 220.905 -5.21841 2.37391 0
M  V30 2126 H 219.302 -5.10363 3.15673 0
M  V30 2127 H 220.372 -3.69013 3.14575 0
M  V30 2128 N 221.715 -0.905404 -1.28997 0
M  V30 2129 C 222.963 -0.533192 -1.9494 0
M  V30 2130 C 223.284 0.924618 -1.71685 0
M  V30 2131 O 222.554 1.65268 -1.05183 0
M  V30 2132 H 221.134 -0.194194 -0.721317 0
M  V30 2133 H 223.796 -1.15294 -1.57141 0
M  V30 2134 H 222.892 -0.72059 -3.03667 0
M  V30 2135 N 223.193 1.4272 -0.668489 0
M  V30 2136 C 224.123 2.335 -0.000100175 0
M  V30 2137 C 225.104 1.50328 0.795964 0
M  V30 2138 O 226.289 1.78949 0.754385 0
M  V30 2139 C 223.419 3.33874 0.956302 0
M  V30 2140 C 222.373 4.27152 0.269278 0
M  V30 2141 C 221.699 5.17684 1.33818 0
M  V30 2142 C 222.999 5.15373 -0.847805 0
M  V30 2143 H 224.693 2.89639 -0.758244 0
M  V30 2144 H 222.239 1.39269 -0.366079 0
M  V30 2145 H 224.192 3.9629 1.43292 0
M  V30 2146 H 222.916 2.76025 1.74579 0
M  V30 2147 H 221.575 3.66123 -0.187042 0
M  V30 2148 H 221.223 4.56165 2.1195 0
M  V30 2149 H 220.923 5.80918 0.883659 0
M  V30 2150 H 222.447 5.82974 1.81586 0
M  V30 2151 H 223.861 5.7151 -0.452681 0
M  V30 2152 H 222.258 5.87407 -1.22773 0
M  V30 2153 H 223.328 4.5415 -1.69929 0
M  V30 2154 N 224.671 0.411399 1.52136 0
M  V30 2155 C 225.919 -0.163322 2.01439 0
M  V30 2156 C 226.24 -1.45453 1.29879 0
M  V30 2157 O 225.51 -1.91225 0.4254 0
M  V30 2158 H 224.09 -0.0633447 0.744309 0
M  V30 2159 H 226.752 0.548161 1.87033 0
M  V30 2160 H 225.848 -0.357817 3.10042 0
M  V30 2161 N 226.149 -1.5696 0.141893 0
M  V30 2162 C 227.059 -2.20066 -0.812905 0
M  V30 2163 C 228.075 -1.18344 -1.27557 0
M  V30 2164 O 229.251 -1.50902 -1.33381 0
M  V30 2165 C 226.316 -2.80583 -2.03652 0
M  V30 2166 C 225.377 -3.97414 -1.62359 0
M  V30 2167 C 224.61 -4.55036 -2.78887 0
M  V30 2168 O 224.833 -4.11538 -3.94959 0
M  V30 2169 O 223.767 -5.45376 -2.54653 0
M  V30 2170 H 227.593 -3.02157 -0.305746 0
M  V30 2171 H 225.178 -1.49159 -0.0848799 0
M  V30 2172 H 227.06 -3.19067 -2.75272 0
M  V30 2173 H 225.735 -2.01508 -2.5333 0
M  V30 2174 H 224.642 -3.63656 -0.877775 0
M  V30 2175 H 225.975 -4.77994 -1.17401 0
M  V30 2176 N 227.627 0.131896 -1.57047 0
M  V30 2177 C 228.852 0.860418 -1.8871 0
M  V30 2178 C 229.277 1.73251 -0.73251 0
M  V30 2179 O 228.635 1.785 0.317429 0
M  V30 2180 C 228.683 1.68047 -3.19049 0
M  V30 2181 O 227.787 2.7862 -3.04047 0
M  V30 2182 H 227.128 0.238743 -0.619595 0
M  V30 2183 H 229.658 0.118169 -2.04258 0
M  V30 2184 H 229.668 2.07238 -3.51449 0
M  V30 2185 H 228.343 1.04018 -4.02682 0
M  V30 2186 H 226.92 2.42726 -2.83088 0
M  V30 2187 N 229.106 1.52395 0.401703 0
M  V30 2188 C 230.036 1.79231 1.49661 0
M  V30 2189 C 231.017 0.643654 1.57452 0
M  V30 2190 O 232.202 0.889989 1.72606 0
M  V30 2191 C 229.332 1.94971 2.87409 0
M  V30 2192 C 228.286 3.10604 2.94465 0
M  V30 2193 C 227.612 3.11577 4.34538 0
M  V30 2194 C 228.912 4.49921 2.6527 0
M  V30 2195 H 230.606 2.70917 1.27454 0
M  V30 2196 H 228.152 1.30362 0.6117 0
M  V30 2197 H 230.105 2.12328 3.63999 0
M  V30 2198 H 228.829 0.999632 3.10926 0
M  V30 2199 H 227.488 2.93009 2.20321 0
M  V30 2200 H 227.136 2.14277 4.55076 0
M  V30 2201 H 226.836 3.89247 4.40183 0
M  V30 2202 H 228.36 3.31073 5.13053 0
M  V30 2203 H 229.774 4.67683 3.31581 0
M  V30 2204 H 228.171 5.29564 2.82281 0
M  V30 2205 H 229.241 4.57507 1.60671 0
M  V30 2206 N 230.584 -0.659388 1.43143 0
M  V30 2207 C 231.814 -1.44513 1.47646 0
M  V30 2208 C 232.222 -1.88981 0.0910095 0
M  V30 2209 O 231.565 -1.59702 -0.907789 0
M  V30 2210 C 231.627 -2.71663 2.35456 0
M  V30 2211 C 231.291 -2.49175 3.83094 0
M  V30 2212 C 232.288 -2.1279 4.74359 0
M  V30 2213 C 229.973 -2.63691 4.27519 0
M  V30 2214 C 231.967 -1.9121 6.08044 0
M  V30 2215 C 229.654 -2.41726 5.61259 0
M  V30 2216 C 230.652 -2.0554 6.51339 0
M  V30 2217 O 230.34 -1.838 7.82606 0
M  V30 2218 H 230.072 -0.45064 0.503884 0
M  V30 2219 H 232.626 -0.816248 1.88485 0
M  V30 2220 H 230.856 -3.37089 1.89493 0
M  V30 2221 H 232.545 -3.33595 2.31235 0
M  V30 2222 H 233.311 -2.01157 4.41317 0
M  V30 2223 H 229.19 -2.90832 3.57684 0
M  V30 2224 H 232.734 -1.62889 6.78316 0
M  V30 2225 H 228.631 -2.52959 5.9387 0
M  V30 2226 H 229.399 -1.98275 7.94122 0
M  V30 2227 N 232.062 -1.29571 -0.897171 0
M  V30 2228 C 233.311 -1.1706 -1.64256 0
M  V30 2229 C 233.624 0.276476 -1.93636 0
M  V30 2230 O 234.83 0.52294 -2.66416 0
M  V30 2231 C 233.286 -2.0475 -2.95982 0
M  V30 2232 C 232.894 -3.54295 -2.74187 0
M  V30 2233 C 234.638 -2.0097 -3.73914 0
M  V30 2234 C 232.545 -4.34081 -4.01656 0
M  V30 2235 H 231.475 -0.43452 -0.616205 0
M  V30 2236 H 234.126 -1.54229 -0.994268 0
M  V30 2237 H 232.508 -1.60452 -3.62038 0
M  V30 2238 H 233.682 -4.06662 -2.1671 0
M  V30 2239 H 231.997 -3.59773 -2.09648 0
M  V30 2240 H 234.594 -2.57838 -4.68427 0
M  V30 2241 H 234.937 -0.990273 -4.0435 0
M  V30 2242 H 235.47 -2.43325 -3.14703 0
M  V30 2243 H 232.209 -5.36671 -3.76384 0
M  V30 2244 H 231.729 -3.86483 -4.58684 0
M  V30 2245 H 233.408 -4.44877 -4.69781 0
M  V30 2246 N 233.54 1.10788 -1.12088 0
M  V30 2247 C 234.47 2.19083 -0.807755 0
M  V30 2248 C 235.451 1.6858 0.226859 0
M  V30 2249 O 236.636 1.93997 0.0888475 0
M  V30 2250 C 233.766 3.46344 -0.257576 0
M  V30 2251 C 232.72 4.101 -1.22483 0
M  V30 2252 C 232.046 5.32016 -0.535052 0
M  V30 2253 C 233.346 4.54236 -2.57811 0
M  V30 2254 H 235.04 2.45534 -1.71328 0
M  V30 2255 H 232.586 1.1801 -0.825205 0
M  V30 2256 H 234.539 4.21392 -0.0262679 0
M  V30 2257 H 233.263 3.19373 0.683278 0
M  V30 2258 H 231.922 3.37054 -1.44189 0
M  V30 2259 H 231.57 5.01319 0.410827 0
M  V30 2260 H 231.27 5.75625 -1.18024 0
M  V30 2261 H 232.794 6.09799 -0.312695 0
M  V30 2262 H 234.208 5.20575 -2.40155 0
M  V30 2263 H 232.605 5.08682 -3.18375 0
M  V30 2264 H 233.675 3.6734 -3.16528 0
M  V30 2265 N 235.018 0.912232 1.28515 0
M  V30 2266 C 236.264 0.545405 1.95328 0
M  V30 2267 C 236.597 -0.908313 1.71649 0
M  V30 2268 O 235.872 -1.64575 1.03659 0
M  V30 2269 C 236.155 0.853483 3.4984 0
M  V30 2270 C 236.008 2.35982 3.82926 0
M  V30 2271 C 237.327 0.348589 4.38717 0
M  V30 2272 H 234.446 0.199626 0.709449 0
M  V30 2273 H 237.088 1.1412 1.5191 0
M  V30 2274 H 235.238 0.34643 3.86952 0
M  V30 2275 H 236.91 2.93738 3.55691 0
M  V30 2276 H 235.153 2.81543 3.30024 0
M  V30 2277 H 235.824 2.52593 4.90816 0
M  V30 2278 H 238.3 0.78294 4.08668 0
M  V30 2279 H 237.176 0.593242 5.45685 0
M  V30 2280 H 237.437 -0.751049 4.35674 0
M  V30 2281 N 236.496 -1.42363 0.676048 0
M  V30 2282 C 237.744 -2.01123 0.198437 0
M  V30 2283 C 238.065 -1.53731 -1.19966 0
M  V30 2284 O 237.335 -0.759518 -1.80577 0
M  V30 2285 H 235.915 -0.743678 0.0703721 0
M  V30 2286 H 238.577 -1.74263 0.872837 0
M  V30 2287 H 237.673 -3.11454 0.200686 0
M  V30 2288 N 237.974 -0.419461 -1.51915 0
M  V30 2289 C 238.906 0.43646 -2.25006 0
M  V30 2290 C 239.919 1.00149 -1.28351 0
M  V30 2291 O 241.108 0.898674 -1.54227 0
M  V30 2292 C 238.208 1.6206 -2.9764 0
M  V30 2293 C 237.381 1.17763 -4.21249 0
M  V30 2294 C 236.44 2.22985 -4.76617 0
M  V30 2295 O 235.466 1.83151 -5.38929 0
M  V30 2296 N 236.668 3.55271 -4.59089 0
M  V30 2297 H 239.433 -0.18989 -2.99098 0
M  V30 2298 H 236.994 -0.247386 -1.59999 0
M  V30 2299 H 238.986 2.32038 -3.31573 0
M  V30 2300 H 237.556 2.15266 -2.2667 0
M  V30 2301 H 236.776 0.305582 -3.93014 0
M  V30 2302 H 238.064 0.858781 -5.015 0
M  V30 2303 H 237.462 3.90377 -4.09417 0
M  V30 2304 H 236.019 4.21195 -4.97432 0
M  V30 2305 N 239.452 1.56882 -0.150215 0
M  V30 2306 C 240.384 2.14057 0.819286 0
M  V30 2307 C 241.397 1.09082 1.20851 0
M  V30 2308 O 242.586 1.36347 1.15203 0
M  V30 2309 C 239.686 2.65102 2.11127 0
M  V30 2310 C 238.859 3.94511 1.88891 0
M  V30 2311 C 237.918 4.30834 3.02107 0
M  V30 2312 O 236.944 4.99099 2.73659 0
M  V30 2313 N 238.146 3.90676 4.29363 0
M  V30 2314 H 240.911 2.97871 0.330618 0
M  V30 2315 H 238.472 1.61866 0.0332538 0
M  V30 2316 H 240.464 2.86411 2.85921 0
M  V30 2317 H 239.034 1.85994 2.51247 0
M  V30 2318 H 238.254 3.81795 0.981152 0
M  V30 2319 H 239.542 4.7907 1.71376 0
M  V30 2320 H 238.94 3.35677 4.55343 0
M  V30 2321 H 237.497 4.1703 5.00928 0
M  V30 2322 N 240.93 -0.123565 1.57115 0
M  V30 2323 C 242.178 -0.83051 1.84247 0
M  V30 2324 C 242.499 -1.80629 0.73471 0
M  V30 2325 O 241.769 -1.94403 -0.241688 0
M  V30 2326 H 240.349 -0.309694 0.679778 0
M  V30 2327 H 243.011 -0.111976 1.94578 0
M  V30 2328 H 242.107 -1.37852 2.80006 0
M  V30 2329 N 242.408 -1.52605 -0.393616 0
M  V30 2330 C 243.318 -1.79971 -1.50492 0
M  V30 2331 C 244.334 -0.686181 -1.59899 0
M  V30 2332 O 245.51 -0.973274 -1.76322 0
M  V30 2333 C 242.575 -1.95867 -2.86072 0
M  V30 2334 C 241.636 -3.19781 -2.86424 0
M  V30 2335 C 240.869 -3.34909 -4.15538 0
M  V30 2336 O 241.092 -2.54948 -5.10253 0
M  V30 2337 O 240.026 -4.28141 -4.23059 0
M  V30 2338 H 243.852 -2.74328 -1.30299 0
M  V30 2339 H 241.437 -1.3764 -0.581005 0
M  V30 2340 H 243.319 -2.08056 -3.66457 0
M  V30 2341 H 241.994 -1.04699 -3.063 0
M  V30 2342 H 240.901 -3.13038 -2.04837 0
M  V30 2343 H 242.234 -4.1078 -2.71147 0
M  V30 2344 N 243.887 0.651787 -1.4349 0
M  V30 2345 C 245.164 1.40909 -1.35661 0
M  V30 2346 C 245.544 2.11099 -0.00511733 0
M  V30 2347 O 244.892 2.04892 1.0115 0
M  V30 2348 C 245.102 2.3926 -2.54078 0
M  V30 2349 C 246.45 3.03217 -2.97228 0
M  V30 2350 O 247.474 2.49588 -2.54135 0
M  V30 2351 O 246.333 4.00455 -3.71885 0
M  V30 2352 H 243.427 0.629625 -0.536191 0
M  V30 2353 H 245.973 0.678575 -1.55542 0
M  V30 2354 H 244.745 1.86352 -3.44076 0
M  V30 2355 H 244.368 3.1976 -2.36303 0
M  V30 2356 N 245.365 1.30045 0.890287 0
M  V30 2357 C 246.328 1.15963 1.977 0
M  V30 2358 C 247.328 0.0923777 1.60534 0
M  V30 2359 O 248.518 0.340071 1.70848 0
M  V30 2360 C 245.65 0.775451 3.31963 0
M  V30 2361 H 246.843 2.12502 2.11619 0
M  V30 2362 H 244.396 1.13366 1.07601 0
M  V30 2363 H 245.131 -0.189671 3.23745 0
M  V30 2364 H 244.916 1.54668 3.60306 0
M  V30 2365 H 246.406 0.700251 4.11687 0
M  V30 2366 N 246.843 -1.10192 1.12674 0
M  V30 2367 C 248.083 -1.83825 0.893736 0
M  V30 2368 C 248.447 -1.83341 -0.570082 0
M  V30 2369 O 249.648 -2.52553 -0.920354 0
M  V30 2370 C 247.919 -3.26405 1.45582 0
M  V30 2371 S 249.478 -4.17136 1.36171 0
M  V30 2372 H 246.296 -0.633732 0.322342 0
M  V30 2373 H 248.898 -1.32581 1.43675 0
M  V30 2374 H 247.602 -3.24329 2.51473 0
M  V30 2375 H 247.133 -3.82721 0.910405 0
M  V30 2376 H 249.148 -4.95069 0.334863 0
M  V30 2377 N 248.321 -0.919034 -1.28029 0
M  V30 2378 C 249.732 -0.600735 -1.76771 0
M  V30 2379 C 250.083 0.884024 -1.75156 0
M  V30 2380 O 249.208 1.69163 -1.34956 0
M  V30 2381 C 249.803 -1.08372 -3.21 0
M  V30 2382 C 248.362 -0.816248 -3.67443 0
M  V30 2383 C 247.509 -1.24742 -2.47658 0
M  V30 2384 H 250.46 -1.09974 -1.14418 0
M  V30 2385 H 250.481 -0.427512 -3.78091 0
M  V30 2386 H 249.993 -2.16437 -3.22144 0
M  V30 2387 H 248.094 0.250968 -3.71754 0
M  V30 2388 H 248.207 -1.4277 -4.57333 0
M  V30 2389 H 246.571 -0.666083 -2.45836 0
M  V30 2390 H 247.354 -2.33653 -2.51518 0
M  V30 2391 N 249.799 1.42003 -0.683588 0
M  V30 2392 C 251.047 2.01015 -0.209101 0
M  V30 2393 C 251.368 1.54365 1.19149 0
M  V30 2394 O 250.638 0.769083 1.80172 0
M  V30 2395 H 249.218 0.743294 -0.074315 0
M  V30 2396 H 251.88 1.73798 -0.882066 0
M  V30 2397 H 250.976 3.11343 -0.2172 0
M  V30 2398 N 251.277 0.427512 1.51691 0
M  V30 2399 C 252.525 -0.141948 2.01601 0
M  V30 2400 C 252.846 -1.44067 1.31414 0
M  V30 2401 O 252.116 -1.90763 0.445658 0
M  V30 2402 H 250.696 -0.0554468 0.744939 0
M  V30 2403 H 253.358 0.567968 1.86441 0
M  V30 2404 H 252.454 -0.324913 3.10404 0
M  V30 2405 N 252.755 -1.56801 0.158532 0
M  V30 2406 C 253.98 -2.01295 -0.499516 0
M  V30 2407 C 254.405 -1.03799 -1.56867 0
M  V30 2408 O 253.763 -0.0155162 -1.81293 0
M  V30 2409 C 253.811 -3.44469 -1.06647 0
M  V30 2410 O 252.915 -3.50012 -2.18095 0
M  V30 2411 H 252.256 -0.652884 -0.12099 0
M  V30 2412 H 254.786 -2.02958 0.258661 0
M  V30 2413 H 254.796 -3.8351 -1.39227 0
M  V30 2414 H 253.471 -4.14932 -0.283581 0
M  V30 2415 H 252.048 -3.22822 -1.86656 0
M  V30 2416 N 254.233 0.115231 -1.57178 0
M  V30 2417 C 255.644 0.67197 -1.74188 0
M  V30 2418 C 255.995 1.80125 -0.777777 0
M  V30 2419 O 255.12 2.16346 0.0484376 0
M  V30 2420 C 255.715 1.22573 -3.1585 0
M  V30 2421 C 254.274 1.72872 -3.34353 0
M  V30 2422 C 253.421 0.629972 -2.70049 0
M  V30 2423 H 256.372 -0.110712 -1.58313 0
M  V30 2424 H 256.393 2.09535 -3.17609 0
M  V30 2425 H 255.905 0.403598 -3.85996 0
M  V30 2426 H 254.006 2.5755 -2.69256 0
M  V30 2427 H 254.119 1.83557 -4.42542 0
M  V30 2428 H 252.483 1.0645 -2.31388 0
M  V30 2429 H 253.266 -0.181241 -3.42821 0
M  V30 2430 N 255.711 1.52812 0.385517 0
M  V30 2431 C 256.621 1.80766 1.49535 0
M  V30 2432 C 257.637 0.694651 1.59532 0
M  V30 2433 O 258.813 0.982611 1.75803 0
M  V30 2434 C 255.878 1.97381 2.85029 0
M  V30 2435 C 254.939 3.21295 2.84724 0
M  V30 2436 C 254.172 3.37108 4.13756 0
M  V30 2437 O 254.395 2.5765 5.08893 0
M  V30 2438 O 253.329 4.30378 4.20783 0
M  V30 2439 H 257.155 2.75015 1.28842 0
M  V30 2440 H 254.74 1.37946 0.573697 0
M  V30 2441 H 256.622 2.09996 3.65349 0
M  V30 2442 H 255.297 1.06322 3.05741 0
M  V30 2443 H 254.204 3.1412 2.03174 0
M  V30 2444 H 255.537 4.12212 2.68965 0
M  V30 2445 N 257.189 -0.644168 1.43834 0
M  V30 2446 C 258.414 -1.43642 1.49605 0
M  V30 2447 C 258.839 -1.8773 0.117913 0
M  V30 2448 O 258.197 -1.57938 -0.890239 0
M  V30 2449 C 258.245 -2.6416 2.45463 0
M  V30 2450 O 257.349 -3.63538 1.94714 0
M  V30 2451 H 256.69 -0.430329 0.50568 0
M  V30 2452 H 259.22 -0.787448 1.8884 0
M  V30 2453 H 259.23 -3.11864 2.63068 0
M  V30 2454 H 257.905 -2.31414 3.45572 0
M  V30 2455 H 256.482 -3.2273 1.86814 0
M  V30 2456 N 258.668 -1.30515 -0.883378 0
M  V30 2457 C 259.6 -1.12846 -1.99496 0
M  V30 2458 C 260.613 -0.0712571 -1.62644 0
M  V30 2459 O 261.802 -0.317432 -1.75655 0
M  V30 2460 C 258.902 -0.699123 -3.3161 0
M  V30 2461 C 258.075 -1.83842 -3.96889 0
M  V30 2462 C 257.134 -1.39737 -5.07307 0
M  V30 2463 O 256.16 -2.10485 -5.28852 0
M  V30 2464 N 257.362 -0.277279 -5.79837 0
M  V30 2465 H 260.127 -2.08585 -2.15203 0
M  V30 2466 H 257.688 -1.22672 -1.05656 0
M  V30 2467 H 259.68 -0.387044 -4.02845 0
M  V30 2468 H 258.25 0.166276 -3.12157 0
M  V30 2469 H 257.47 -2.31853 -3.18807 0
M  V30 2470 H 258.758 -2.60187 -4.37241 0
M  V30 2471 H 258.156 0.3122 -5.64838 0
M  V30 2472 H 256.713 -0.0246623 -6.51795 0
M  V30 2473 N 260.146 1.09593 -1.13257 0
M  V30 2474 C 261.076 2.18214 -0.830946 0
M  V30 2475 C 262.057 1.68812 0.208966 0
M  V30 2476 O 263.242 1.9408 0.0682666 0
M  V30 2477 C 260.372 3.46051 -0.294296 0
M  V30 2478 C 259.326 4.08778 -1.26826 0
M  V30 2479 C 258.652 5.31419 -0.591449 0
M  V30 2480 C 259.952 4.51476 -2.62615 0
M  V30 2481 H 261.646 2.43703 -1.73923 0
M  V30 2482 H 259.192 1.17128 -0.837675 0
M  V30 2483 H 261.145 4.2134 -0.0709606 0
M  V30 2484 H 259.869 3.20079 0.649366 0
M  V30 2485 H 258.528 3.35505 -1.47756 0
M  V30 2486 H 258.176 5.01727 0.357633 0
M  V30 2487 H 257.876 5.74341 -1.24123 0
M  V30 2488 H 259.4 6.09433 -0.377355 0
M  V30 2489 H 260.814 5.17999 -2.45663 0
M  V30 2490 H 259.211 5.05277 -3.23752 0
M  V30 2491 H 260.281 3.63962 -3.20406 0
M  V30 2492 N 261.624 0.925811 1.2754 0
M  V30 2493 C 262.87 0.566092 1.94739 0
M  V30 2494 C 263.203 -0.890057 1.72603 0
M  V30 2495 O 262.478 -1.63467 1.05399 0
M  V30 2496 C 262.761 0.89054 3.48915 0
M  V30 2497 C 262.614 2.4003 3.80402 0
M  V30 2498 C 263.933 0.395101 4.38323 0
M  V30 2499 H 261.052 0.20714 0.707292 0
M  V30 2500 H 263.694 1.15725 1.50691 0
M  V30 2501 H 261.844 0.387452 3.86563 0
M  V30 2502 H 263.516 2.97494 3.52555 0
M  V30 2503 H 261.759 2.85028 3.2702 0
M  V30 2504 H 262.43 2.57785 4.8811 0
M  V30 2505 H 264.906 0.826241 4.07814 0
M  V30 2506 H 263.782 0.651086 5.45025 0
M  V30 2507 H 264.043 -0.704798 4.36446 0
M  V30 2508 N 263.102 -1.41638 0.69111 0
M  V30 2509 C 264.342 -2.03166 0.224291 0
M  V30 2510 C 264.706 -1.53537 -1.15284 0
M  V30 2511 O 265.907 -2.0696 -1.71525 0
M  V30 2512 C 264.178 -3.56342 0.274758 0
M  V30 2513 S 265.737 -4.3864 -0.118669 0
M  V30 2514 H 262.555 -0.705188 0.0907263 0
M  V30 2515 H 265.157 -1.7314 0.907895 0
M  V30 2516 H 263.861 -3.89958 1.2791 0
M  V30 2517 H 263.392 -3.91063 -0.428142 0
M  V30 2518 H 265.407 -4.77549 -1.34764 0
M  V30 2519 N 264.58 -0.43555 -1.51462 0
M  V30 2520 C 265.51 0.367376 -2.30592 0
M  V30 2521 C 266.491 1.02263 -1.35928 0
M  V30 2522 O 267.676 1.02661 -1.64847 0
M  V30 2523 C 264.806 1.46983 -3.14664 0
M  V30 2524 C 263.76 0.938161 -4.17591 0
M  V30 2525 C 263.086 2.13622 -4.90173 0
M  V30 2526 C 264.386 -0.0261621 -5.22293 0
M  V30 2527 H 266.08 -0.292969 -2.97963 0
M  V30 2528 H 263.626 -0.14234 -1.43295 0
M  V30 2529 H 265.579 2.03873 -3.688 0
M  V30 2530 H 264.303 2.15843 -2.4511 0
M  V30 2531 H 262.962 0.391481 -3.64504 0
M  V30 2532 H 262.61 2.81098 -4.17124 0
M  V30 2533 H 262.31 1.78688 -5.59772 0
M  V30 2534 H 263.834 2.7107 -5.47132 0
M  V30 2535 H 265.248 0.452384 -5.71512 0
M  V30 2536 H 263.645 -0.287992 -5.99409 0
M  V30 2537 H 264.715 -0.963391 -4.75233 0
M  V30 2538 N 266.058 1.56714 -0.166846 0
M  V30 2539 C 267.306 1.96358 0.478305 0
M  V30 2540 C 267.627 1.0537 1.6408 0
M  V30 2541 O 266.897 0.119154 1.95537 0
M  V30 2542 H 265.477 0.725065 0.179692 0
M  V30 2543 H 268.139 1.93329 -0.246985 0
M  V30 2544 H 267.235 3.00547 0.841292 0
M  V30 2545 N 267.536 -0.106894 1.57237 0
M  V30 2546 C 268.446 -1.14911 2.0453 0
M  V30 2547 C 269.462 -1.44592 0.96795 0
M  V30 2548 O 270.638 -1.55468 1.2803 0
M  V30 2549 C 267.703 -2.45272 2.45036 0
M  V30 2550 C 266.764 -2.22879 3.66911 0
M  V30 2551 C 265.997 -3.47024 4.05475 0
M  V30 2552 O 266.22 -4.54804 3.44252 0
M  V30 2553 O 265.154 -3.3731 4.98504 0
M  V30 2554 H 268.98 -0.777461 2.9358 0
M  V30 2555 H 266.565 -0.318563 1.45964 0
M  V30 2556 H 268.447 -3.22055 2.71769 0
M  V30 2557 H 267.122 -2.81886 1.59129 0
M  V30 2558 H 266.029 -1.43915 3.45311 0
M  V30 2559 H 267.362 -1.91163 4.53561 0
M  V30 2560 N 269.014 -1.53014 -0.377408 0
M  V30 2561 C 270.239 -1.72818 -1.14668 0
M  V30 2562 C 270.664 -0.450725 -1.8262 0
M  V30 2563 O 270.022 0.59439 -1.7128 0
M  V30 2564 C 270.07 -2.88627 -2.16164 0
M  V30 2565 O 269.174 -2.56409 -3.22998 0
M  V30 2566 H 268.515 -0.574301 -0.333278 0
M  V30 2567 H 271.045 -1.99853 -0.438152 0
M  V30 2568 H 271.055 -3.14455 -2.59966 0
M  V30 2569 H 269.73 -3.81294 -1.66095 0
M  V30 2570 H 268.307 -2.4136 -2.84253 0
M  V30 2571 N 270.492 0.636531 -1.44174 0
M  V30 2572 C 271.908 0.954104 -1.27941 0
M  V30 2573 C 272.108 2.0039 -0.211248 0
M  V30 2574 O 271.164 2.49236 0.404695 0
M  V30 2575 C 272.477 1.4225 -2.64925 0
M  V30 2576 C 274.025 1.53827 -2.72592 0
M  V30 2577 C 274.5 2.04053 -4.10032 0
M  V30 2578 N 275.991 2.11331 -4.12182 0
M  V30 2579 C 276.726 2.51352 -5.15374 0
M  V30 2580 N 276.222 2.90549 -6.2893 0
M  V30 2581 N 278.015 2.51438 -5.02728 0
M  V30 2582 H 270.166 -0.0578386 -2.12321 0
M  V30 2583 H 272.429 0.0367406 -0.947288 0
M  V30 2584 H 272.135 0.725466 -3.44136 0
M  V30 2585 H 272.009 2.39451 -2.9145 0
M  V30 2586 H 274.396 2.22628 -1.93702 0
M  V30 2587 H 274.477 0.550154 -2.49814 0
M  V30 2588 H 274.121 1.35848 -4.89395 0
M  V30 2589 H 274.051 3.03726 -4.30184 0
M  V30 2590 H 276.542 1.83745 -3.30222 0
M  V30 2591 H 276.855 3.19884 -7.03487 0
M  V30 2592 H 275.2 2.88313 -6.32377 0
M  V30 2593 H 278.391 2.20203 -4.13072 0
M  V30 2594 H 278.564 2.82304 -5.83274 0
M  V30 2595 N 271.97 1.30982 0.876444 0
M  V30 2596 C 272.933 1.18054 1.96459 0
M  V30 2597 C 273.933 0.109399 1.60427 0
M  V30 2598 O 275.123 0.358173 1.70478 0
M  V30 2599 C 272.255 0.810616 3.31122 0
M  V30 2600 H 273.448 2.14735 2.09354 0
M  V30 2601 H 271.001 1.145 1.06392 0
M  V30 2602 H 271.736 -0.155322 3.23928 0
M  V30 2603 H 271.521 1.58481 3.58645 0
M  V30 2604 H 273.011 0.743876 4.10921 0
M  V30 2605 N 273.449 -1.08991 1.13837 0
M  V30 2606 C 274.695 -1.81526 0.90422 0
M  V30 2607 C 275.028 -1.85706 -0.568066 0
M  V30 2608 O 274.303 -1.32855 -1.42056 0
M  V30 2609 C 274.586 -3.27447 1.49835 0
M  V30 2610 C 274.439 -3.31512 3.04006 0
M  V30 2611 C 275.758 -4.24256 1.17025 0
M  V30 2612 H 272.877 -0.659029 0.329923 0
M  V30 2613 H 275.519 -1.27644 1.40737 0
M  V30 2614 H 273.669 -3.73462 1.07044 0
M  V30 2615 H 275.341 -2.93867 3.55584 0
M  V30 2616 H 273.584 -2.70963 3.38765 0
M  V30 2617 H 274.255 -4.34329 3.40679 0
M  V30 2618 H 276.731 -3.86549 1.54009 0
M  V30 2619 H 275.607 -5.24684 1.61237 0
M  V30 2620 H 275.868 -4.42019 0.0846274 0
M  V30 2621 N 274.927 -0.932562 -1.27047 0
M  V30 2622 C 275.837 -0.441219 -2.30414 0
M  V30 2623 C 276.853 0.480525 -1.67233 0
M  V30 2624 O 278.029 0.362151 -1.98117 0
M  V30 2625 C 275.094 0.293651 -3.45454 0
M  V30 2626 C 274.155 -0.663601 -4.2414 0
M  V30 2627 C 273.388 0.0362932 -5.33688 0
M  V30 2628 O 273.611 1.2548 -5.56427 0
M  V30 2629 O 272.545 -0.638015 -5.98509 0
M  V30 2630 H 276.371 -1.29962 -2.74488 0
M  V30 2631 H 273.956 -0.6981 -1.32087 0
M  V30 2632 H 275.838 0.707951 -4.15411 0
M  V30 2633 H 274.513 1.12758 -3.03426 0
M  V30 2634 H 273.42 -1.12768 -3.56699 0
M  V30 2635 H 274.753 -1.46489 -4.69896 0
M  V30 2636 N 276.405 1.4127 -0.698611 0
M  V30 2637 C 277.315 2.34573 -0.0357891 0
M  V30 2638 C 278.331 1.56393 0.762701 0
M  V30 2639 O 279.507 1.8886 0.699564 0
M  V30 2640 C 276.572 3.35159 0.887089 0
M  V30 2641 C 275.633 4.29225 0.0804634 0
M  V30 2642 C 274.866 5.25006 0.959387 0
M  V30 2643 O 275.089 5.26314 2.19886 0
M  V30 2644 O 274.023 6.00519 0.407439 0
M  V30 2645 H 277.849 2.92838 -0.804957 0
M  V30 2646 H 275.434 1.42175 -0.458966 0
M  V30 2647 H 277.316 3.9689 1.41621 0
M  V30 2648 H 275.991 2.79333 1.6357 0
M  V30 2649 H 274.898 3.70833 -0.493328 0
M  V30 2650 H 276.231 4.88157 -0.629547 0
M  V30 2651 N 277.883 0.443576 1.51229 0
M  V30 2652 C 278.833 -0.382787 2.24764 0
M  V30 2653 C 279.817 -0.984836 1.27239 0
M  V30 2654 O 281.009 -0.901943 1.52296 0
M  V30 2655 C 278.138 -1.47989 3.09765 0
M  V30 2656 C 277.224 -0.886931 4.14722 0
M  V30 2657 N 277.615 -0.0237103 5.05794 0
M  V30 2658 C 275.913 -1.15385 4.30816 0
M  V30 2659 C 276.614 0.309971 5.80874 0
M  V30 2660 N 275.59 -0.307989 5.42727 0
M  V30 2661 H 279.392 0.282624 2.92538 0
M  V30 2662 H 276.906 0.256027 1.60369 0
M  V30 2663 H 278.903 -2.08482 3.61027 0
M  V30 2664 H 277.563 -2.14758 2.43535 0
M  V30 2665 H 278.574 0.34318 5.16762 0
M  V30 2666 H 275.251 -1.81857 3.75812 0
M  V30 2667 H 276.641 1.01279 6.64223 0
M  V30 2668 N 279.361 -1.56624 0.175154 0
M  V30 2669 C 280.324 -2.16934 -0.739738 0
M  V30 2670 C 281.324 -1.11842 -1.15533 0
M  V30 2671 O 282.514 -1.37335 -1.07167 0
M  V30 2672 C 279.646 -2.75531 -2.00738 0
M  V30 2673 H 280.839 -2.99131 -0.214639 0
M  V30 2674 H 278.392 -1.56123 -0.0744197 0
M  V30 2675 H 279.127 -1.97078 -2.57548 0
M  V30 2676 H 278.912 -3.52444 -1.71831 0
M  V30 2677 H 280.402 -3.21904 -2.66021 0
M  V30 2678 N 280.839 0.0985539 -1.57292 0
M  V30 2679 C 281.802 1.10402 -2.00858 0
M  V30 2680 C 282.802 1.33146 -0.901593 0
M  V30 2681 O 283.992 1.29318 -1.16716 0
M  V30 2682 C 281.124 2.45394 -2.36632 0
M  V30 2683 H 282.317 0.729099 -2.90902 0
M  V30 2684 H 279.87 0.343495 -1.52479 0
M  V30 2685 H 280.605 2.87769 -1.49531 0
M  V30 2686 H 280.39 2.30235 -3.17387 0
M  V30 2687 H 281.88 3.17718 -2.71007 0
M  V30 2688 N 282.317 1.53212 0.369288 0
M  V30 2689 C 283.25 1.74166 1.4745 0
M  V30 2690 C 284.228 0.589923 1.51521 0
M  V30 2691 O 285.412 0.822078 1.69629 0
M  V30 2692 C 282.539 1.81711 2.8583 0
M  V30 2693 C 281.585 3.03649 2.99499 0
M  V30 2694 S 282.418 4.63242 2.6864 0
M  V30 2695 C 283.574 4.7363 4.09177 0
M  V30 2696 H 283.807 2.67636 1.29454 0
M  V30 2697 H 281.34 1.43754 0.563396 0
M  V30 2698 H 283.298 1.86743 3.65564 0
M  V30 2699 H 281.959 0.89299 3.01139 0
M  V30 2700 H 281.152 3.05526 4.00836 0
M  V30 2701 H 280.754 2.9671 2.27683 0
M  V30 2702 H 283.046 4.53456 5.03372 0
M  V30 2703 H 283.989 5.75682 4.12306 0
M  V30 2704 H 284.397 4.02295 3.96004 0
M  V30 2705 N 283.795 -0.628877 1.44509 0
M  V30 2706 C 285.072 -1.38733 1.37886 0
M  V30 2707 C 285.452 -2.11065 0.0387008 0
M  V30 2708 O 284.8 -2.06476 -0.97878 0
M  V30 2709 C 285.01 -2.35188 2.57852 0
M  V30 2710 C 286.358 -2.9845 3.02014 0
M  V30 2711 O 287.382 -2.45513 2.58073 0
M  V30 2712 O 286.241 -3.94487 3.78209 0
M  V30 2713 H 283.335 -0.621015 0.54614 0
M  V30 2714 H 285.881 -0.653744 1.56602 0
M  V30 2715 H 284.653 -1.80855 3.46998 0
M  V30 2716 H 284.276 -3.1596 2.4136 0
M  V30 2717 N 285.273 -1.31445 -0.869486 0
M  V30 2718 C 286.521 -1.20918 -1.61936 0
M  V30 2719 C 286.842 0.232683 -1.93607 0
M  V30 2720 O 286.112 1.15352 -1.58338 0
M  V30 2721 H 284.692 -0.44454 -0.600328 0
M  V30 2722 H 287.354 -1.64776 -1.0409 0
M  V30 2723 H 286.45 -1.78124 -2.56278 0
M  V30 2724 N 286.751 1.08385 -1.14413 0
M  V30 2725 C 287.976 1.85057 -0.936413 0
M  V30 2726 C 288.401 1.81055 0.509971 0
M  V30 2727 O 287.759 1.1958 1.36273 0
M  V30 2728 C 287.807 3.30505 -1.44217 0
M  V30 2729 O 286.911 4.07491 -0.634409 0
M  V30 2730 H 286.252 0.573425 -0.334784 0
M  V30 2731 H 288.782 1.36799 -1.52142 0
M  V30 2732 H 288.792 3.81348 -1.45043 0
M  V30 2733 H 287.467 3.32734 -2.49522 0
M  V30 2734 H 286.044 3.66368 -0.694902 0
M  V30 2735 N 288.23 0.939286 1.26551 0
M  V30 2736 C 289.14 0.453432 2.30176 0
M  V30 2737 C 290.156 -0.471649 1.67486 0
M  V30 2738 O 291.332 -0.35164 1.98306 0
M  V30 2739 C 288.397 -0.275326 3.45605 0
M  V30 2740 C 287.458 0.686084 4.23782 0
M  V30 2741 C 286.691 -0.00798994 5.33699 0
M  V30 2742 O 286.914 -1.22528 5.57085 0
M  V30 2743 O 285.848 0.669746 5.98162 0
M  V30 2744 H 289.674 1.31416 2.73795 0
M  V30 2745 H 287.259 0.705095 1.31715 0
M  V30 2746 H 289.141 -0.685911 4.1578 0
M  V30 2747 H 287.816 -1.11147 3.0402 0
M  V30 2748 H 286.723 1.14658 3.56096 0
M  V30 2749 H 288.056 1.48979 4.69112 0
M  V30 2750 N 289.708 -1.40897 0.706093 0
M  V30 2751 C 290.956 -2.00657 0.241054 0
M  V30 2752 C 291.277 -1.56241 -1.16678 0
M  V30 2753 O 290.547 -0.79765 -1.78926 0
M  V30 2754 H 289.127 -0.742018 0.0861308 0
M  V30 2755 H 291.789 -1.72372 0.909604 0
M  V30 2756 H 290.885 -3.10958 0.266705 0
M  V30 2757 N 291.186 -0.45159 -1.50991 0
M  V30 2758 C 292.432 0.110237 -2.025 0
M  V30 2759 C 292.765 1.41109 -1.33424 0
M  V30 2760 O 292.04 1.89135 -0.453659 0
M  V30 2761 C 292.323 0.314271 -3.58726 0
M  V30 2762 C 292.176 -1.00623 -4.38401 0
M  V30 2763 C 293.495 1.07767 -4.26702 0
M  V30 2764 H 290.614 0.0385897 -0.735989 0
M  V30 2765 H 293.256 -0.593374 -1.80497 0
M  V30 2766 H 291.406 0.913601 -3.77605 0
M  V30 2767 H 293.078 -1.64064 -4.31139 0
M  V30 2768 H 291.321 -1.6075 -4.02917 0
M  V30 2769 H 291.992 -0.817341 -5.45915 0
M  V30 2770 H 294.468 0.56986 -4.12179 0
M  V30 2771 H 293.344 1.18921 -5.35863 0
M  V30 2772 H 293.605 2.10939 -3.88532 0
M  V30 2773 N 292.664 1.56529 -0.183458 0
M  V30 2774 C 294.075 1.83739 0.331177 0
M  V30 2775 C 294.426 1.10373 1.62211 0
M  V30 2776 O 293.551 0.36071 2.13373 0
M  V30 2777 C 294.146 3.33306 0.607646 0
M  V30 2778 C 292.705 3.60969 1.06668 0
M  V30 2779 C 291.852 2.77086 0.109029 0
M  V30 2780 H 294.803 1.53379 -0.407484 0
M  V30 2781 H 294.824 3.51444 1.45832 0
M  V30 2782 H 294.336 3.86677 -0.332086 0
M  V30 2783 H 292.437 3.13021 2.0211 0
M  V30 2784 H 292.55 4.69231 0.967447 0
M  V30 2785 H 290.914 2.47319 0.608714 0
M  V30 2786 H 291.697 3.33241 -0.82494 0
M  V30 2787 N 294.142 -0.090211 1.57342 0
M  V30 2788 C 295.39 -0.791241 1.85967 0
M  V30 2789 C 295.711 -1.7903 0.772859 0
M  V30 2790 O 294.981 -1.94872 -0.200398 0
M  V30 2791 H 293.561 -0.295205 0.686195 0
M  V30 2792 H 296.223 -0.0706782 1.94772 0
M  V30 2793 H 295.319 -1.31882 2.82867 0
M  V30 2794 N 295.62 -1.53406 -0.361157 0
M  V30 2795 C 296.845 -1.74024 -1.12829 0
M  V30 2796 C 297.27 -0.470069 -1.82132 0
M  V30 2797 O 296.628 0.57619 -1.719 0
M  V30 2798 C 296.676 -2.90903 -2.13091 0
M  V30 2799 O 295.78 -2.59821 -3.20261 0
M  V30 2800 H 295.121 -0.577804 -0.327168 0
M  V30 2801 H 297.651 -2.00307 -0.41693 0
M  V30 2802 H 297.661 -3.17194 -2.56616 0
M  V30 2803 H 296.336 -3.83034 -1.62042 0
M  V30 2804 H 294.913 -2.44362 -2.81677 0
M  V30 2805 N 297.098 0.621204 -1.44841 0
M  V30 2806 C 298.514 0.94048 -1.28946 0
M  V30 2807 C 298.714 2.00154 -0.23249 0
M  V30 2808 O 297.77 2.49651 0.378237 0
M  V30 2809 C 299.083 1.39433 -2.66419 0
M  V30 2810 C 300.631 1.50927 -2.74208 0
M  V30 2811 C 301.106 1.99692 -4.12174 0
M  V30 2812 N 302.597 2.06947 -4.144 0
M  V30 2813 C 303.332 2.45871 -5.1801 0
M  V30 2814 N 302.828 2.83862 -6.31977 0
M  V30 2815 N 304.621 2.46092 -5.05366 0
M  V30 2816 H 296.772 -0.0803548 -2.12248 0
M  V30 2817 H 299.035 0.0266913 -0.947624 0
M  V30 2818 H 298.741 0.688925 -3.44887 0
M  V30 2819 H 298.615 2.36347 -2.93973 0
M  V30 2820 H 301.002 2.20561 -1.96053 0
M  V30 2821 H 301.083 0.523627 -2.50383 0
M  V30 2822 H 300.727 1.30649 -4.90809 0
M  V30 2823 H 300.657 2.99146 -4.33381 0
M  V30 2824 H 303.148 1.80232 -3.32152 0
M  V30 2825 H 303.461 3.12405 -7.0684 0
M  V30 2826 H 301.806 2.8159 -6.35399 0
M  V30 2827 H 304.997 2.1581 -4.15384 0
M  V30 2828 H 305.17 2.76102 -5.86235 0
M  V30 2829 N 298.576 1.31904 0.862503 0
M  V30 2830 C 299.992 1.10724 1.14945 0
M  V30 2831 C 300.192 -0.117421 2.01158 0
M  V30 2832 O 299.248 -0.804595 2.39338 0
M  V30 2833 C 300.561 2.38267 1.83437 0
M  V30 2834 C 302.109 2.43949 1.96106 0
M  V30 2835 C 302.584 3.71394 2.68013 0
M  V30 2836 N 304.075 3.72331 2.75543 0
M  V30 2837 C 304.81 4.67641 3.31812 0
M  V30 2838 N 304.306 5.73313 3.88953 0
M  V30 2839 N 306.099 4.5515 3.29841 0
M  V30 2840 H 298.25 2.10436 0.288191 0
M  V30 2841 H 300.513 0.928705 0.190292 0
M  V30 2842 H 300.219 3.27759 1.27542 0
M  V30 2843 H 300.093 2.48633 2.83657 0
M  V30 2844 H 302.48 1.54922 2.51164 0
M  V30 2845 H 302.561 2.37543 0.949059 0
M  V30 2846 H 302.205 4.60791 2.13621 0
M  V30 2847 H 302.135 3.75069 3.69636 0
M  V30 2848 H 304.626 2.95947 2.34997 0
M  V30 2849 H 304.939 6.42107 4.30022 0
M  V30 2850 H 303.284 5.77077 3.87308 0
M  V30 2851 H 306.475 3.71766 2.84443 0
M  V30 2852 H 306.648 5.29604 3.73394 0
M  V30 2853 N 300.054 -1.07777 1.14986 0
M  V30 2854 C 301.3 -1.80719 0.93339 0
M  V30 2855 C 301.655 -1.8484 -0.534019 0
M  V30 2856 O 300.948 -1.31795 -1.3907 0
M  V30 2857 C 301.142 -3.25495 1.47608 0
M  V30 2858 C 300.971 -3.3548 2.99472 0
M  V30 2859 C 299.741 -3.46293 3.6798 0
M  V30 2860 C 301.939 -3.26596 3.97291 0
M  V30 2861 N 299.921 -3.45136 5.07695 0
M  V30 2862 C 301.292 -3.32506 5.23297 0
M  V30 2863 C 303.347 -3.10376 3.89321 0
M  V30 2864 C 302.05 -3.23866 6.42264 0
M  V30 2865 C 304.076 -3.03069 5.07842 0
M  V30 2866 C 303.438 -3.09587 6.32721 0
M  V30 2867 H 299.537 -0.674814 0.395158 0
M  V30 2868 H 302.121 -1.28681 1.46114 0
M  V30 2869 H 300.292 -3.75963 0.975022 0
M  V30 2870 H 302.024 -3.86535 1.19887 0
M  V30 2871 H 298.779 -3.50456 3.18555 0
M  V30 2872 H 299.203 -3.48097 5.80653 0
M  V30 2873 H 303.845 -3.04194 2.93642 0
M  V30 2874 H 301.563 -3.28807 7.38181 0
M  V30 2875 H 305.149 -2.91629 5.03432 0
M  V30 2876 H 304.029 -3.0397 7.22891 0
M  V30 2877 N 301.532 -0.945985 -1.26051 0
M  V30 2878 C 302.495 -0.463897 -2.24456 0
M  V30 2879 C 303.495 0.427655 -1.55009 0
M  V30 2880 O 304.685 0.226157 -1.72726 0
M  V30 2881 C 301.817 0.330812 -3.39291 0
M  V30 2882 H 303.01 -1.33357 -2.68619 0
M  V30 2883 H 300.563 -0.728416 -1.38289 0
M  V30 2884 H 301.298 1.21852 -3.00537 0
M  V30 2885 H 301.083 -0.308679 -3.90883 0
M  V30 2886 H 302.573 0.657865 -4.12386 0
M  V30 2887 N 303.011 1.40521 -0.713556 0
M  V30 2888 C 304.259 2.00527 -0.251692 0
M  V30 2889 C 304.58 1.56857 1.15848 0
M  V30 2890 O 303.85 0.807127 1.785 0
M  V30 2891 H 302.43 0.741551 -0.0900646 0
M  V30 2892 H 305.092 1.71887 -0.918733 0
M  V30 2893 H 304.188 3.10813 -0.283192 0
M  V30 2894 N 304.489 0.459591 1.5075 0
M  V30 2895 C 305.737 -0.0991532 2.01857 0
M  V30 2896 C 306.058 -1.41247 1.34441 0
M  V30 2897 O 305.328 -1.89775 0.486022 0
M  V30 2898 H 303.908 -0.039633 0.745948 0
M  V30 2899 H 306.57 0.607387 1.85194 0
M  V30 2900 H 305.666 -0.258998 3.11023 0
M  V30 2901 N 305.967 -1.56429 0.191757 0
M  V30 2902 C 307.215 -1.97095 -0.447006 0
M  V30 2903 C 307.536 -1.07967 -1.62383 0
M  V30 2904 O 306.806 -0.150248 -1.95323 0
M  V30 2905 H 305.386 -0.727832 -0.168135 0
M  V30 2906 H 308.048 -1.92911 0.27771 0
M  V30 2907 H 307.144 -3.01848 -0.793371 0
M  V30 2908 N 307.445 0.0818655 -1.57387 0
M  V30 2909 C 308.693 0.781368 -1.86384 0
M  V30 2910 C 309.014 1.78618 -0.782342 0
M  V30 2911 O 308.284 1.94976 0.190061 0
M  V30 2912 H 306.864 0.291562 -0.687751 0
M  V30 2913 H 309.526 0.060348 -1.94807 0
M  V30 2914 H 308.622 1.3038 -2.83562 0
M  V30 2915 N 308.923 1.53595 0.353017 0
M  V30 2916 C 310.171 1.70049 1.09215 0
M  V30 2917 C 310.492 0.461406 1.89463 0
M  V30 2918 O 309.762 -0.524633 1.88744 0
M  V30 2919 H 308.342 0.626912 0.40619 0
M  V30 2920 H 311.004 1.90822 0.396585 0
M  V30 2921 H 310.1 2.56718 1.77488 0
M  V30 2922 N 310.401 -0.613514 1.45168 0
M  V30 2923 C 311.649 -1.36997 1.48581 0
M  V30 2924 C 311.97 -1.94589 0.126545 0
M  V30 2925 O 311.24 -1.76816 -0.843372 0
M  V30 2926 H 309.82 -0.508558 0.547154 0
M  V30 2927 H 312.482 -0.720853 1.81079 0
M  V30 2928 H 311.578 -2.1924 2.22127 0
M  V30 2929 N 311.879 -1.3236 -0.855495 0
M  V30 2930 C 313.127 -1.22629 -1.60644 0
M  V30 2931 C 313.448 0.212136 -1.93843 0
M  V30 2932 O 312.718 1.13666 -1.59552 0
M  V30 2933 H 311.298 -0.450882 -0.595579 0
M  V30 2934 H 313.96 -1.65871 -1.02337 0
M  V30 2935 H 313.056 -1.80832 -2.54374 0
M  V30 2936 N 313.357 1.07166 -1.15556 0
M  V30 2937 C 314.605 1.79443 -0.929764 0
M  V30 2938 C 314.926 1.87246 0.544414 0
M  V30 2939 O 314.196 1.37473 1.39564 0
M  V30 2940 H 312.776 0.664625 -0.341003 0
M  V30 2941 H 315.438 1.29499 -1.45657 0
M  V30 2942 H 314.534 2.81832 -1.34079 0
M  V30 2943 N 314.835 0.952656 1.25548 0
M  V30 2944 C 315.798 0.475794 2.24207 0
M  V30 2945 C 316.798 -0.419428 1.55234 0
M  V30 2946 O 317.988 -0.216994 1.72843 0
M  V30 2947 C 315.12 -0.312814 3.39462 0
M  V30 2948 H 316.313 1.34779 2.67908 0
M  V30 2949 H 313.866 0.735739 1.37901 0
M  V30 2950 H 314.601 -1.20257 3.01179 0
M  V30 2951 H 314.386 0.329404 3.90714 0
M  V30 2952 H 315.876 -0.635986 4.12729 0
M  V30 2953 N 316.313 -1.40141 0.720998 0
M  V30 2954 C 317.541 -2.05096 0.272656 0
M  V30 2955 C 317.956 -1.54334 -1.0875 0
M  V30 2956 O 317.313 -0.702211 -1.6845 0
M  V30 2957 C 317.364 -3.60636 0.249835 0
M  V30 2958 O 317.085 -4.09526 1.55629 0
M  V30 2959 C 318.586 -4.42772 -0.216396 0
M  V30 2960 H 315.806 -0.659897 0.121558 0
M  V30 2961 H 318.35 -1.79449 0.980723 0
M  V30 2962 H 316.505 -3.85232 -0.409237 0
M  V30 2963 H 316.919 -5.03758 1.4604 0
M  V30 2964 H 318.393 -5.51702 -0.181212 0
M  V30 2965 H 318.87 -4.20756 -1.25941 0
M  V30 2966 H 319.476 -4.23294 0.412596 0
M  V30 2967 N 317.792 -0.46758 -1.50504 0
M  V30 2968 C 319.022 0.086288 -2.0642 0
M  V30 2969 C 319.43 1.34369 -1.33197 0
M  V30 2970 O 318.773 1.79431 -0.393747 0
M  V30 2971 C 318.835 0.443846 -3.5675 0
M  V30 2972 C 318.499 -0.711035 -4.51435 0
M  V30 2973 C 319.496 -1.59205 -4.94924 0
M  V30 2974 C 317.181 -0.900363 -4.94165 0
M  V30 2975 C 319.175 -2.64683 -5.79846 0
M  V30 2976 C 316.862 -1.95837 -5.7887 0
M  V30 2977 C 317.86 -2.82997 -6.21612 0
M  V30 2978 O 317.548 -3.86977 -7.0463 0
M  V30 2979 H 317.28 -0.00217814 -0.675996 0
M  V30 2980 H 319.834 -0.654346 -1.94698 0
M  V30 2981 H 318.064 1.23762 -3.6636 0
M  V30 2982 H 319.753 0.932386 -3.95046 0
M  V30 2983 H 320.519 -1.45745 -4.62583 0
M  V30 2984 H 316.398 -0.231427 -4.60419 0
M  V30 2985 H 319.942 -3.32745 -6.13128 0
M  V30 2986 H 315.839 -2.09305 -6.10624 0
M  V30 2987 H 316.607 -3.83923 -7.22873 0
M  V30 2988 N 319.27 1.56325 -0.20005 0
M  V30 2989 C 320.516 1.98012 0.438059 0
M  V30 2990 C 320.849 1.08702 1.60927 0
M  V30 2991 O 320.124 0.140064 1.93995 0
M  V30 2992 C 320.407 3.48841 0.893419 0
M  V30 2993 C 320.26 4.48928 -0.279947 0
M  V30 2994 C 321.579 4.03498 1.75719 0
M  V30 2995 H 318.698 0.719918 0.157757 0
M  V30 2996 H 321.34 1.87743 -0.291968 0
M  V30 2997 H 319.49 3.57723 1.51547 0
M  V30 2998 H 321.162 4.52079 -0.91772 0
M  V30 2999 H 319.405 4.23694 -0.930919 0
M  V30 3000 H 320.076 5.5194 0.0812601 0
M  V30 3001 H 322.552 3.97427 1.23253 0
M  V30 3002 H 321.428 5.09393 2.04476 0
M  V30 3003 H 321.689 3.4906 2.71311 0
M  V30 3004 N 320.748 -0.0735177 1.57428 0
M  V30 3005 C 321.995 -0.772999 1.87166 0
M  V30 3006 C 322.323 -1.77665 0.791551 0
M  V30 3007 O 321.578 -1.94541 -0.212636 0
M  V30 3008 C 321.877 -1.51799 3.23561 0
M  V30 3009 C 321.543 -0.654484 4.46125 0
M  V30 3010 C 320.205 -0.416511 4.79394 0
M  V30 3011 C 322.557 -0.0555862 5.2117 0
M  V30 3012 C 319.885 0.429869 5.85123 0
M  V30 3013 C 322.237 0.778239 6.27795 0
M  V30 3014 C 320.901 1.0261 6.59566 0
M  V30 3015 H 320.171 -0.282861 0.684888 0
M  V30 3016 H 322.818 -0.0338272 1.9147 0
M  V30 3017 H 321.123 -2.32932 3.1504 0
M  V30 3018 H 322.82 -2.06397 3.43804 0
M  V30 3019 H 319.41 -0.850091 4.20085 0
M  V30 3020 H 323.594 -0.226558 4.95783 0
M  V30 3021 H 318.85 0.630665 6.08139 0
M  V30 3022 H 323.024 1.24906 6.85107 0
M  V30 3023 H 320.651 1.68371 7.4132 0
M  V30 3024 N 322.226 -1.5378 -0.344866 0
M  V30 3025 C 323.642 -1.44015 -0.687888 0
M  V30 3026 C 323.842 -0.595834 -1.92489 0
M  V30 3027 O 322.898 -0.0863064 -2.52352 0
M  V30 3028 C 324.211 -2.87481 -0.881758 0
M  V30 3029 C 325.759 -2.97247 -0.980459 0
M  V30 3030 C 326.234 -4.41819 -1.20665 0
M  V30 3031 N 327.725 -4.45339 -1.27389 0
M  V30 3032 C 328.46 -5.54333 -1.46639 0
M  V30 3033 N 327.956 -6.73335 -1.63071 0
M  V30 3034 N 329.749 -5.41944 -1.49176 0
M  V30 3035 H 321.9 -2.07169 0.468475 0
M  V30 3036 H 324.163 -0.93643 0.147655 0
M  V30 3037 H 323.869 -3.51672 -0.0443444 0
M  V30 3038 H 323.743 -3.32352 -1.78388 0
M  V30 3039 H 326.13 -2.33197 -1.8084 0
M  V30 3040 H 326.211 -2.5574 -0.0552713 0
M  V30 3041 H 325.855 -5.06449 -0.383652 0
M  V30 3042 H 325.785 -4.80917 -2.14539 0
M  V30 3043 H 328.276 -3.59585 -1.1622 0
M  V30 3044 H 328.589 -7.52165 -1.77391 0
M  V30 3045 H 326.934 -6.76282 -1.60209 0
M  V30 3046 H 330.125 -4.47932 -1.3592 0
M  V30 3047 H 330.298 -6.26946 -1.63837 0
M  V30 3048 N 323.704 0.605807 -1.45491 0
M  V30 3049 C 324.95 1.36679 -1.49823 0
M  V30 3050 C 325.283 1.93693 -0.140175 0
M  V30 3051 O 324.558 1.75158 0.845581 0
M  V30 3052 C 324.841 2.51337 -2.57879 0
M  V30 3053 C 324.694 1.99508 -4.03134 0
M  V30 3054 C 326.013 3.53463 -2.62205 0
M  V30 3055 H 323.132 0.495617 -0.545466 0
M  V30 3056 H 325.774 0.682732 -1.7731 0
M  V30 3057 H 323.924 3.09691 -2.34571 0
M  V30 3058 H 325.596 1.45789 -4.37656 0
M  V30 3059 H 323.839 1.30496 -4.13707 0
M  V30 3060 H 324.51 2.82169 -4.74431 0
M  V30 3061 H 326.986 3.04953 -2.83095 0
M  V30 3062 H 325.862 4.31178 -3.39672 0
M  V30 3063 H 326.123 4.09197 -1.67363 0
M  V30 3064 N 325.182 1.32811 0.848464 0
M  V30 3065 C 326.598 1.11937 1.13764 0
M  V30 3066 C 326.798 -0.0960789 2.01271 0
M  V30 3067 O 325.854 -0.779165 2.40178 0
M  V30 3068 C 327.167 2.402 1.809 0
M  V30 3069 C 328.715 2.46016 1.93508 0
M  V30 3070 C 329.19 3.74215 2.64059 0
M  V30 3071 N 330.681 3.75232 2.71579 0
M  V30 3072 C 331.416 4.71134 3.26833 0
M  V30 3073 N 330.912 5.77406 3.8285 0
M  V30 3074 N 332.705 4.58623 3.24995 0
M  V30 3075 H 324.856 2.1073 0.265855 0
M  V30 3076 H 327.119 0.930671 0.180431 0
M  V30 3077 H 326.825 3.29093 1.24058 0
M  V30 3078 H 326.699 2.51628 2.81004 0
M  V30 3079 H 329.086 1.57577 2.49506 0
M  V30 3080 H 329.167 2.38536 0.923811 0
M  V30 3081 H 328.811 4.63031 2.08722 0
M  V30 3082 H 328.741 3.78968 3.65637 0
M  V30 3083 H 331.232 2.98423 2.31845 0
M  V30 3084 H 331.545 6.46632 4.23187 0
M  V30 3085 H 329.89 5.81152 3.81165 0
M  V30 3086 H 333.081 3.74762 2.80484 0
M  V30 3087 H 333.254 5.33535 3.67756 0
M  V30 3088 N 326.66 -1.06551 1.16123 0
M  V30 3089 C 327.623 -2.12132 0.867906 0
M  V30 3090 C 328.623 -1.60224 -0.135944 0
M  V30 3091 O 329.813 -1.73943 0.0946422 0
M  V30 3092 C 326.945 -3.396 0.297419 0
M  V30 3093 H 328.138 -2.39586 1.80385 0
M  V30 3094 H 325.691 -1.22574 0.969812 0
M  V30 3095 H 326.426 -3.17794 -0.64633 0
M  V30 3096 H 326.211 -3.78581 1.02073 0
M  V30 3097 H 327.701 -4.17455 0.110052 0
M  V30 3098 N 328.138 -0.959301 -1.25041 0
M  V30 3099 C 329.386 -0.615393 -1.92503 0
M  V30 3100 C 329.707 0.850969 -1.75452 0
M  V30 3101 O 328.977 1.60658 -1.12098 0
M  V30 3102 H 327.557 -0.224613 -0.712431 0
M  V30 3103 H 330.219 -1.21855 -1.5211 0
M  V30 3104 H 329.315 -0.848738 -3.00338 0
M  V30 3105 N 329.616 1.39756 -0.72842 0
M  V30 3106 C 330.526 2.34444 -0.0855374 0
M  V30 3107 C 331.542 1.57976 0.729356 0
M  V30 3108 O 332.718 1.90301 0.659346 0
M  V30 3109 C 329.783 3.36965 0.815798 0
M  V30 3110 C 328.844 4.29299 -0.0105996 0
M  V30 3111 C 328.077 5.26923 0.84781 0
M  V30 3112 O 328.3 5.30859 2.08673 0
M  V30 3113 O 327.234 6.01249 0.279969 0
M  V30 3114 H 331.06 2.91065 -0.866892 0
M  V30 3115 H 328.645 1.4117 -0.48902 0
M  V30 3116 H 330.527 3.99804 1.33171 0
M  V30 3117 H 329.202 2.82739 1.57608 0
M  V30 3118 H 328.109 3.69703 -0.571877 0
M  V30 3119 H 329.442 4.86712 -0.73295 0
M  V30 3120 N 331.094 0.475555 1.50254 0
M  V30 3121 C 332.024 -0.30611 2.31485 0
M  V30 3122 C 333.005 -0.986228 1.38591 0
M  V30 3123 O 334.19 -0.982541 1.67511 0
M  V30 3124 C 331.32 -1.38588 3.1845 0
M  V30 3125 C 330.274 -0.827115 4.19932 0
M  V30 3126 C 329.6 -2.00551 4.95665 0
M  V30 3127 C 330.9 0.16463 5.2204 0
M  V30 3128 H 332.594 0.371866 2.97082 0
M  V30 3129 H 330.14 0.180282 1.42867 0
M  V30 3130 H 332.093 -1.94023 3.74076 0
M  V30 3131 H 330.817 -2.09269 2.50747 0
M  V30 3132 H 329.476 -0.294702 3.65414 0
M  V30 3133 H 329.124 -2.6994 4.2443 0
M  V30 3134 H 328.824 -1.63784 5.64313 0
M  V30 3135 H 330.348 -2.56468 5.54127 0
M  V30 3136 H 331.762 -0.300699 5.72511 0
M  V30 3137 H 330.159 0.446813 5.98434 0
M  V30 3138 H 331.229 1.08905 4.72512 0
M  V30 3139 N 332.573 -1.56217 0.208337 0
M  V30 3140 C 333.483 -2.23316 -0.718836 0
M  V30 3141 C 334.499 -1.23648 -1.22422 0
M  V30 3142 O 335.675 -1.56423 -1.26861 0
M  V30 3143 C 332.74 -2.88968 -1.91568 0
M  V30 3144 C 331.801 -4.03943 -1.45357 0
M  V30 3145 C 331.034 -4.66455 -2.59337 0
M  V30 3146 O 331.257 -4.27919 -3.77149 0
M  V30 3147 O 330.191 -5.55686 -2.31293 0
M  V30 3148 H 334.017 -3.03182 -0.177315 0
M  V30 3149 H 331.602 -1.49384 -0.0215402 0
M  V30 3150 H 333.484 -3.30455 -2.61491 0
M  V30 3151 H 332.159 -2.12071 -2.44556 0
M  V30 3152 H 331.066 -3.67052 -0.722746 0
M  V30 3153 H 332.399 -4.82543 -0.970219 0
M  V30 3154 N 334.051 0.0651679 -1.57465 0
M  V30 3155 C 335.462 0.616213 -1.76238 0
M  V30 3156 C 335.813 1.7756 -0.834689 0
M  V30 3157 O 334.938 2.1639 -0.0204156 0
M  V30 3158 C 335.533 1.12462 -3.1959 0
M  V30 3159 C 334.092 1.62147 -3.39684 0
M  V30 3160 C 333.239 0.543739 -2.71917 0
M  V30 3161 H 336.19 -0.161022 -1.57881 0
M  V30 3162 H 336.211 1.99324 -3.24114 0
M  V30 3163 H 335.723 0.280592 -3.87084 0
M  V30 3164 H 333.824 2.48854 -2.77313 0
M  V30 3165 H 333.937 1.69385 -4.48158 0
M  V30 3166 H 332.301 0.990352 -2.34657 0
M  V30 3167 H 333.084 -0.290216 -3.42071 0
M  V30 3168 N 335.529 1.53961 0.336706 0
M  V30 3169 C 336.459 1.85417 1.41925 0
M  V30 3170 C 337.44 0.709856 1.5458 0
M  V30 3171 O 338.625 0.962396 1.68676 0
M  V30 3172 C 335.755 2.06985 2.78881 0
M  V30 3173 C 334.709 3.22813 2.81026 0
M  V30 3174 C 334.035 3.29727 4.20932 0
M  V30 3175 C 335.335 4.60767 2.45949 0
M  V30 3176 H 337.029 2.76079 1.15848 0
M  V30 3177 H 334.575 1.32839 0.555859 0
M  V30 3178 H 336.528 2.27575 3.54665 0
M  V30 3179 H 335.252 1.13061 3.06406 0
M  V30 3180 H 333.911 3.0209 2.07695 0
M  V30 3181 H 333.559 2.33385 4.45579 0
M  V30 3182 H 333.259 4.07566 4.23277 0
M  V30 3183 H 334.783 3.52536 4.98549 0
M  V30 3184 H 336.197 4.81325 3.11446 0
M  V30 3185 H 334.594 5.4106 2.59566 0
M  V30 3186 H 335.664 4.6391 1.41122 0
M  V30 3187 N 337.007 -0.598083 1.45811 0
M  V30 3188 C 337.937 -1.71873 1.58057 0
M  V30 3189 C 338.918 -1.64533 0.431615 0
M  V30 3190 O 340.103 -1.82787 0.65595 0
M  V30 3191 C 337.233 -3.10495 1.55597 0
M  V30 3192 C 336.187 -3.32654 2.69305 0
M  V30 3193 C 335.513 -4.71646 2.51902 0
M  V30 3194 C 336.813 -3.21981 4.11248 0
M  V30 3195 H 338.507 -1.61881 2.51863 0
M  V30 3196 H 336.053 -0.777372 1.21214 0
M  V30 3197 H 338.006 -3.88699 1.6276 0
M  V30 3198 H 336.73 -3.2135 0.583255 0
M  V30 3199 H 335.389 -2.56843 2.61586 0
M  V30 3200 H 335.037 -4.79246 1.52748 0
M  V30 3201 H 334.737 -4.87426 3.2816 0
M  V30 3202 H 336.261 -5.52038 2.60933 0
M  V30 3203 H 337.675 -3.90049 4.20161 0
M  V30 3204 H 336.072 -3.49289 4.87972 0
M  V30 3205 H 337.142 -2.1928 4.32486 0
M  V30 3206 N 338.485 -1.33259 -0.841409 0
M  V30 3207 C 339.731 -1.24757 -1.59886 0
M  V30 3208 C 340.064 0.186913 -1.93298 0
M  V30 3209 O 339.339 1.12757 -1.5848 0
M  V30 3210 C 339.622 -2.12036 -2.91055 0
M  V30 3211 C 339.475 -3.63929 -2.6434 0
M  V30 3212 C 340.794 -1.9916 -3.92458 0
M  V30 3213 H 337.913 -0.454542 -0.580138 0
M  V30 3214 H 340.555 -1.63335 -0.970647 0
M  V30 3215 H 338.705 -1.79265 -3.44669 0
M  V30 3216 H 340.377 -4.06978 -2.17178 0
M  V30 3217 H 338.62 -3.85935 -1.98082 0
M  V30 3218 H 339.291 -4.20341 -3.57796 0
M  V30 3219 H 341.767 -2.27895 -3.48143 0
M  V30 3220 H 340.643 -2.62484 -4.82072 0
M  V30 3221 H 340.904 -0.963082 -4.31482 0
M  V30 3222 N 339.963 1.05934 -1.16686 0
M  V30 3223 C 340.926 2.11669 -0.879144 0
M  V30 3224 C 341.926 1.60294 0.127445 0
M  V30 3225 O 343.116 1.7389 -0.103865 0
M  V30 3226 C 340.248 3.39438 -0.315425 0
M  V30 3227 H 341.441 2.38626 -1.81653 0
M  V30 3228 H 338.994 1.22058 -0.976299 0
M  V30 3229 H 339.729 3.18132 0.629468 0
M  V30 3230 H 339.514 3.78034 -1.04079 0
M  V30 3231 H 341.004 4.17391 -0.132189 0
M  V30 3232 N 341.441 0.965919 1.2453 0
M  V30 3233 C 342.404 0.499547 2.2369 0
M  V30 3234 C 343.404 -0.40294 1.5567 0
M  V30 3235 O 344.594 -0.19865 1.73064 0
M  V30 3236 C 341.726 -0.276792 3.39774 0
M  V30 3237 H 342.919 1.37613 2.66463 0
M  V30 3238 H 340.472 0.750324 1.37112 0
M  V30 3239 H 341.207 -1.17055 3.02438 0
M  V30 3240 H 340.992 0.370826 3.90343 0
M  V30 3241 H 342.482 -0.592175 4.1338 0
M  V30 3242 N 342.919 -1.39368 0.735821 0
M  V30 3243 C 344.167 -2.00101 0.283562 0
M  V30 3244 C 344.488 -1.5868 -1.13338 0
M  V30 3245 O 343.758 -0.835423 -1.77193 0
M  V30 3246 H 342.338 -0.740024 0.101851 0
M  V30 3247 H 345 -1.70404 0.945962 0
M  V30 3248 H 344.096 -3.10323 0.332604 0
M  V30 3249 N 344.397 -0.483516 -1.5 0
M  V30 3250 C 345.645 0.067027 -2.01989 0
M  V30 3251 C 345.966 1.3909 -1.36671 0
M  V30 3252 O 345.236 1.88978 -0.516152 0
M  V30 3253 H 343.816 0.0277606 -0.746484 0
M  V30 3254 H 346.478 -0.636773 -1.84204 0
M  V30 3255 H 345.574 0.209484 -3.11396 0
M  V30 3256 N 345.875 1.56104 -0.216619 0
M  V30 3257 C 347.123 1.97781 0.415593 0
M  V30 3258 C 347.444 1.10536 1.60645 0
M  V30 3259 O 346.714 0.181303 1.95059 0
M  V30 3260 H 345.294 0.730415 0.156534 0
M  V30 3261 H 347.956 1.92445 -0.308366 0
M  V30 3262 H 347.052 3.03072 0.74525 0
M  V30 3263 N 347.353 -0.0568162 1.57498 0
M  V30 3264 C 348.601 -0.751617 1.87604 0
M  V30 3265 C 348.922 -1.77351 0.81066 0
M  V30 3266 O 348.192 -1.95254 -0.159018 0
M  V30 3267 H 346.772 -0.280583 0.692302 0
M  V30 3268 H 349.434 -0.0293483 1.94878 0
M  V30 3269 H 348.53 -1.25852 2.856 0
M  V30 3270 N 348.832 -1.54138 -0.328536 0
M  V30 3271 C 350.248 -1.44736 -0.672574 0
M  V30 3272 C 350.448 -0.616217 -1.91846 0
M  V30 3273 O 349.504 -0.113067 -2.52247 0
M  V30 3274 C 350.817 -2.884 -0.851217 0
M  V30 3275 C 352.365 -2.98271 -0.948877 0
M  V30 3276 C 352.84 -4.43074 -1.15973 0
M  V30 3277 N 354.331 -4.46665 -1.22658 0
M  V30 3278 C 355.066 -5.55857 -1.40751 0
M  V30 3279 N 354.562 -6.75026 -1.5592 0
M  V30 3280 N 356.355 -5.43495 -1.4342 0
M  V30 3281 H 348.506 -2.06661 0.490421 0
M  V30 3282 H 350.769 -0.934812 0.157579 0
M  V30 3283 H 350.475 -3.51699 -0.00704236 0
M  V30 3284 H 350.349 -3.34225 -1.74853 0
M  V30 3285 H 352.736 -2.35102 -1.78356 0
M  V30 3286 H 352.817 -2.55785 -0.0281435 0
M  V30 3287 H 352.461 -5.06827 -0.329915 0
M  V30 3288 H 352.391 -4.83165 -2.09426 0
M  V30 3289 H 354.882 -3.60797 -1.124 0
M  V30 3290 H 355.195 -7.54004 -1.69404 0
M  V30 3291 H 353.54 -6.77944 -1.53027 0
M  V30 3292 H 356.731 -4.49349 -1.31162 0
M  V30 3293 H 356.904 -6.28649 -1.57178 0
M  V30 3294 N 350.31 0.590341 -1.46126 0
M  V30 3295 C 351.273 1.68194 -1.55703 0
M  V30 3296 C 352.273 1.54808 -0.434868 0
M  V30 3297 O 353.463 1.59564 -0.698928 0
M  V30 3298 C 350.595 3.07575 -1.47005 0
M  V30 3299 H 351.788 1.61064 -2.52979 0
M  V30 3300 H 349.341 0.807541 -1.33823 0
M  V30 3301 H 350.076 3.20268 -0.509785 0
M  V30 3302 H 349.861 3.187 -2.28414 0
M  V30 3303 H 351.351 3.87055 -1.56776 0
M  V30 3304 N 351.788 1.33704 0.83433 0
M  V30 3305 C 353.018 1.28281 1.6195 0
M  V30 3306 C 353.426 -0.147603 1.88623 0
M  V30 3307 O 352.769 -1.1016 1.47005 0
M  V30 3308 C 352.831 1.99386 2.99141 0
M  V30 3309 C 352.495 3.48681 2.95416 0
M  V30 3310 C 353.492 4.438 2.70809 0
M  V30 3311 C 351.177 3.90925 3.15409 0
M  V30 3312 C 353.171 5.79138 2.66229 0
M  V30 3313 C 350.858 5.26366 3.10454 0
M  V30 3314 C 351.856 6.20284 2.85895 0
M  V30 3315 O 351.544 7.53245 2.80852 0
M  V30 3316 H 351.276 0.44315 0.510484 0
M  V30 3317 H 353.83 1.76711 1.04702 0
M  V30 3318 H 352.06 1.45554 3.58261 0
M  V30 3319 H 353.749 1.87403 3.60049 0
M  V30 3320 H 354.515 4.12485 2.5511 0
M  V30 3321 H 350.394 3.18229 3.33543 0
M  V30 3322 H 353.938 6.52416 2.4698 0
M  V30 3323 H 349.835 5.57304 3.25703 0
M  V30 3324 H 350.603 7.62846 2.96661 0
M  V30 3325 N 353.266 -1.05314 1.17247 0
M  V30 3326 C 354.196 -2.1498 0.911362 0
M  V30 3327 C 355.177 -1.69471 -0.146169 0
M  V30 3328 O 356.362 -1.942 0.003812 0
M  V30 3329 C 353.492 -3.4472 0.422528 0
M  V30 3330 C 352.446 -4.03789 1.4191 0
M  V30 3331 C 351.772 -5.28858 0.788274 0
M  V30 3332 C 353.072 -4.41418 2.7919 0
M  V30 3333 H 354.766 -2.3708 1.82848 0
M  V30 3334 H 352.312 -1.13938 0.880569 0
M  V30 3335 H 354.265 -4.20787 0.227289 0
M  V30 3336 H 352.989 -3.22269 -0.530123 0
M  V30 3337 H 351.648 -3.2979 1.60106 0
M  V30 3338 H 351.296 -5.02709 -0.171173 0
M  V30 3339 H 350.996 -5.69338 1.45353 0
M  V30 3340 H 352.52 -6.07612 0.603282 0
M  V30 3341 H 353.934 -5.08524 2.64719 0
M  V30 3342 H 352.331 -4.92913 3.42282 0
M  V30 3343 H 353.401 -3.51819 3.33693 0
M  V30 3344 N 354.744 -0.972509 -1.24016 0
M  V30 3345 C 356.16 -0.679827 -1.44397 0
M  V30 3346 C 356.36 0.756716 -1.86751 0
M  V30 3347 O 355.416 1.53007 -2.00861 0
M  V30 3348 C 356.729 -1.66803 -2.50195 0
M  V30 3349 C 358.277 -1.68119 -2.64017 0
M  V30 3350 C 358.752 -2.65748 -3.73017 0
M  V30 3351 N 360.243 -2.64219 -3.8045 0
M  V30 3352 C 360.978 -3.36433 -4.64328 0
M  V30 3353 N 360.474 -4.1818 -5.52356 0
M  V30 3354 N 362.267 -3.25235 -4.58453 0
M  V30 3355 H 354.418 -1.90059 -0.948228 0
M  V30 3356 H 356.681 -0.818527 -0.478245 0
M  V30 3357 H 356.387 -2.69498 -2.25973 0
M  V30 3358 H 356.261 -1.4446 -3.48441 0
M  V30 3359 H 358.648 -0.661319 -2.87594 0
M  V30 3360 H 358.729 -1.94525 -1.66113 0
M  V30 3361 H 358.373 -3.67872 -3.50189 0
M  V30 3362 H 358.303 -2.36619 -4.70446 0
M  V30 3363 H 360.794 -2.04887 -3.17537 0
M  V30 3364 H 361.107 -4.70157 -6.13329 0
M  V30 3365 H 359.452 -4.22273 -5.52006 0
M  V30 3366 H 362.643 -2.60829 -3.88698 0
M  V30 3367 H 362.816 -3.81776 -5.23594 0
M  V30 3368 N 356.222 1.38976 -0.743202 0
M  V30 3369 C 357.633 1.83123 -0.363732 0
M  V30 3370 C 357.984 1.6205 1.10609 0
M  V30 3371 O 357.109 1.11606 1.854 0
M  V30 3372 C 357.704 3.32439 -0.653408 0
M  V30 3373 C 356.263 3.74974 -0.327338 0
M  V30 3374 C 355.41 2.61878 -0.911875 0
M  V30 3375 H 358.361 1.27852 -0.940191 0
M  V30 3376 H 358.382 3.80432 0.0720031 0
M  V30 3377 H 357.894 3.47745 -1.72323 0
M  V30 3378 H 355.995 3.65252 0.736314 0
M  V30 3379 H 356.108 4.72106 -0.815631 0
M  V30 3380 H 354.472 2.52448 -0.337944 0
M  V30 3381 H 355.255 2.79987 -1.98651 0
M  V30 3382 N 357.7 0.491464 1.49741 0
M  V30 3383 C 359.116 0.146835 1.58923 0
M  V30 3384 C 359.316 -1.34804 1.49767 0
M  V30 3385 O 358.372 -2.12317 1.36667 0
M  V30 3386 C 359.685 0.715157 2.92072 0
M  V30 3387 C 361.233 0.680407 3.05515 0
M  V30 3388 C 361.708 1.22663 4.41269 0
M  V30 3389 N 363.199 1.18691 4.47735 0
M  V30 3390 C 363.934 1.57984 5.51207 0
M  V30 3391 N 363.43 2.04824 6.6183 0
M  V30 3392 N 365.223 1.49459 5.41866 0
M  V30 3393 H 357.374 1.46347 1.53936 0
M  V30 3394 H 359.637 0.606453 0.728642 0
M  V30 3395 H 359.343 1.76317 3.04311 0
M  V30 3396 H 359.217 0.17018 3.76816 0
M  V30 3397 H 361.604 -0.358743 2.92911 0
M  V30 3398 H 361.685 1.26242 2.22478 0
M  V30 3399 H 361.329 2.26451 4.54623 0
M  V30 3400 H 361.259 0.620637 5.2293 0
M  V30 3401 H 363.75 0.843605 3.68364 0
M  V30 3402 H 364.063 2.32901 7.3687 0
M  V30 3403 H 362.408 2.08791 6.62896 0
M  V30 3404 H 365.599 1.12692 4.54333 0
M  V30 3405 H 365.772 1.80406 6.22381 0
M  V30 3406 N 359.178 -1.55987 0.224894 0
M  V30 3407 C 360.455 -1.90232 -0.455083 0
M  V30 3408 C 360.835 -1.14269 -1.77499 0
M  V30 3409 O 360.183 -0.253079 -2.27094 0
M  V30 3410 C 360.393 -3.42993 -0.644758 0
M  V30 3411 C 361.741 -4.13821 -0.950669 0
M  V30 3412 O 362.765 -3.4861 -0.731423 0
M  V30 3413 O 361.624 -5.29128 -1.36695 0
M  V30 3414 H 358.718 -0.79108 -0.241084 0
M  V30 3415 H 361.264 -1.67581 0.267327 0
M  V30 3416 H 360.036 -3.90252 0.28613 0
M  V30 3417 H 359.659 -3.71434 -1.41853 0
M  V30 3418 N 360.656 0.0484629 -1.57525 0
M  V30 3419 C 362.072 0.40375 -1.54409 0
M  V30 3420 C 362.272 1.77786 -0.948384 0
M  V30 3421 O 361.328 2.46189 -0.560983 0
M  V30 3422 C 362.641 0.323394 -2.98956 0
M  V30 3423 C 364.189 0.401892 -3.10409 0
M  V30 3424 C 364.664 0.351195 -4.56652 0
M  V30 3425 N 366.155 0.410576 -4.61377 0
M  V30 3426 C 366.89 0.393933 -5.72045 0
M  V30 3427 N 366.386 0.330724 -6.9201 0
M  V30 3428 N 368.179 0.442227 -5.60358 0
M  V30 3429 H 360.33 -0.851016 -1.94606 0
M  V30 3430 H 362.593 -0.321721 -0.89174 0
M  V30 3431 H 362.299 -0.62011 -3.4619 0
M  V30 3432 H 362.173 1.12463 -3.60044 0
M  V30 3433 H 364.56 1.33582 -2.63134 0
M  V30 3434 H 364.641 -0.428342 -2.52188 0
M  V30 3435 H 364.285 -0.578987 -5.04589 0
M  V30 3436 H 364.215 1.19928 -5.12762 0
M  V30 3437 H 366.706 0.462729 -3.75056 0
M  V30 3438 H 367.019 0.322592 -7.72126 0
M  V30 3439 H 365.364 0.29706 -6.94365 0
M  V30 3440 H 368.555 0.489464 -4.65534 0
M  V30 3441 H 368.728 0.425788 -6.466 0
M  V30 3442 N 362.134 1.5431 0.320358 0
M  V30 3443 C 363.382 1.72327 1.05583 0
M  V30 3444 C 363.703 0.50149 1.88441 0
M  V30 3445 O 362.973 -0.48448 1.89815 0
M  V30 3446 H 361.553 0.635387 0.3928 0
M  V30 3447 H 364.215 1.91621 0.356019 0
M  V30 3448 H 363.311 2.60426 1.72003 0
M  V30 3449 N 363.613 -0.582584 1.46437 0
M  V30 3450 C 365.029 -0.905962 1.31394 0
M  V30 3451 C 365.229 -1.99468 0.285476 0
M  V30 3452 O 364.285 -2.50566 -0.311914 0
M  V30 3453 C 365.598 -1.3232 2.70022 0
M  V30 3454 C 367.146 -1.43604 2.78113 0
M  V30 3455 C 367.621 -1.88694 4.17323 0
M  V30 3456 N 369.112 -1.95887 4.19741 0
M  V30 3457 C 369.847 -2.32051 5.24347 0
M  V30 3458 N 369.343 -2.67006 6.39281 0
M  V30 3459 N 371.136 -2.32606 5.11713 0
M  V30 3460 H 363.287 0.1366 2.1196 0
M  V30 3461 H 365.55 -0.00155736 0.947999 0
M  V30 3462 H 365.256 -0.597242 3.46592 0
M  V30 3463 H 365.13 -2.28469 3.00136 0
M  V30 3464 H 367.517 -2.15286 2.01832 0
M  V30 3465 H 367.598 -0.457059 2.51684 0
M  V30 3466 H 367.242 -1.1759 4.941 0
M  V30 3467 H 367.172 -2.8755 4.4116 0
M  V30 3468 H 369.663 -1.71362 3.36814 0
M  V30 3469 H 369.976 -2.93554 7.14875 0
M  V30 3470 H 368.321 -2.64644 6.42642 0
M  V30 3471 H 371.512 -2.04721 4.2096 0
M  V30 3472 H 371.685 -2.60462 5.93349 0
M  V30 3473 N 365.091 -1.34144 -0.827227 0
M  V30 3474 C 366.319 -1.29325 -1.61501 0
M  V30 3475 C 366.734 0.13354 -1.88327 0
M  V30 3476 O 366.091 1.0793 -1.47164 0
M  V30 3477 C 366.142 -2.07746 -2.95844 0
M  V30 3478 O 365.863 -3.4486 -2.70191 0
M  V30 3479 C 367.364 -2.10273 -3.90256 0
M  V30 3480 H 364.584 -0.445069 -0.50215 0
M  V30 3481 H 367.128 -1.76693 -1.02955 0
M  V30 3482 H 365.283 -1.6403 -3.5096 0
M  V30 3483 H 365.697 -3.85345 -3.55822 0
M  V30 3484 H 367.171 -2.69575 -4.81698 0
M  V30 3485 H 367.648 -1.096 -4.25305 0
M  V30 3486 H 368.254 -2.54059 -3.41078 0
M  V30 3487 N 366.569 1.04691 -1.17803 0
M  V30 3488 C 367.501 2.12571 -0.857097 0
M  V30 3489 C 368.514 1.62174 0.142647 0
M  V30 3490 O 369.703 1.78301 -0.0843387 0
M  V30 3491 C 366.803 3.37915 -0.258216 0
M  V30 3492 C 365.976 4.1757 -1.30207 0
M  V30 3493 C 365.035 5.2125 -0.720029 0
M  V30 3494 O 364.061 5.51888 -1.39314 0
M  V30 3495 N 365.263 5.78466 0.485507 0
M  V30 3496 H 368.028 2.40698 -1.78562 0
M  V30 3497 H 365.589 1.20831 -1.07757 0
M  V30 3498 H 367.581 4.04442 0.144584 0
M  V30 3499 H 366.151 3.07281 0.574199 0
M  V30 3500 H 365.371 3.46458 -1.88043 0
M  V30 3501 H 366.659 4.67586 -2.00601 0
M  V30 3502 H 366.057 5.55866 1.05022 0
M  V30 3503 H 364.614 6.4649 0.830307 0
M  V30 3504 N 368.047 0.979072 1.23499 0
M  V30 3505 C 369.01 0.523244 2.23147 0
M  V30 3506 C 370.01 -0.386406 1.56088 0
M  V30 3507 O 371.2 -0.180283 1.73265 0
M  V30 3508 C 368.332 -0.240739 3.40049 0
M  V30 3509 H 369.525 1.40432 2.64989 0
M  V30 3510 H 367.078 0.764824 1.36309 0
M  V30 3511 H 367.813 -1.13841 3.03662 0
M  V30 3512 H 367.598 0.412207 3.89927 0
M  V30 3513 H 369.088 -0.548297 4.13985 0
M  V30 3514 N 369.525 -1.3858 0.750561 0
M  V30 3515 C 370.75 -2.04997 0.314812 0
M  V30 3516 C 371.175 -1.56235 -1.04749 0
M  V30 3517 O 370.533 -0.712981 -1.66692 0
M  V30 3518 C 370.581 -3.58961 0.343415 0
M  V30 3519 O 369.685 -4.07025 -0.663628 0
M  V30 3520 H 369.026 -0.649081 0.139962 0
M  V30 3521 H 371.556 -1.77313 1.02084 0
M  V30 3522 H 371.566 -4.07542 0.193233 0
M  V30 3523 H 370.241 -3.93811 1.33738 0
M  V30 3524 H 368.818 -3.6982 -0.478307 0
M  V30 3525 N 371.003 -0.499398 -1.49478 0
M  V30 3526 C 372.414 -0.051215 -1.8663 0
M  V30 3527 C 372.765 1.36238 -1.41186 0
M  V30 3528 O 371.89 2.01502 -0.789051 0
M  V30 3529 C 372.485 -0.0861651 -3.3869 0
M  V30 3530 C 371.044 0.30667 -3.75149 0
M  V30 3531 C 370.191 -0.459397 -2.73468 0
M  V30 3532 H 373.142 -0.712264 -1.41818 0
M  V30 3533 H 373.163 0.709507 -3.73826 0
M  V30 3534 H 372.675 -1.11512 -3.71735 0
M  V30 3535 H 370.776 1.33892 -3.47712 0
M  V30 3536 H 370.889 -0.0116669 -4.79099 0
M  V30 3537 H 369.253 0.0905645 -2.54539 0
M  V30 3538 H 370.036 -1.4884 -3.09357 0
M  V30 3539 N 372.481 1.55866 -0.233164 0
M  V30 3540 C 373.391 2.24431 0.683217 0
M  V30 3541 C 374.407 1.2558 1.2044 0
M  V30 3542 O 375.583 1.58422 1.24356 0
M  V30 3543 C 372.648 2.91979 1.86947 0
M  V30 3544 C 371.709 4.06204 1.38912 0
M  V30 3545 C 370.942 4.70522 2.51883 0
M  V30 3546 O 371.165 4.33865 3.70293 0
M  V30 3547 O 370.099 5.59296 2.22423 0
M  V30 3548 H 373.925 3.03426 0.129059 0
M  V30 3549 H 371.51 1.494 -0.0022283 0
M  V30 3550 H 373.392 3.34573 2.56201 0
M  V30 3551 H 372.067 2.15935 2.41151 0
M  V30 3552 H 370.974 3.68155 0.664259 0
M  V30 3553 H 372.307 4.84025 0.893328 0
M  V30 3554 N 373.959 -0.0401083 1.57549 0
M  V30 3555 C 374.906 -1.04413 2.05831 0
M  V30 3556 C 375.876 -1.36585 0.945184 0
M  V30 3557 O 377.061 -1.47112 1.21502 0
M  V30 3558 C 374.201 -2.34336 2.53339 0
M  V30 3559 C 373.314 -2.08419 3.78398 0
M  V30 3560 C 372.449 -3.32133 4.14561 0
M  V30 3561 C 371.488 -3.01721 5.3257 0
M  V30 3562 N 370.625 -4.17855 5.64218 0
M  V30 3563 H 375.465 -0.625442 2.91363 0
M  V30 3564 H 373.002 -0.297218 1.44066 0
M  V30 3565 H 374.96 -3.10234 2.78946 0
M  V30 3566 H 373.59 -2.73948 1.7074 0
M  V30 3567 H 372.642 -1.23069 3.59942 0
M  V30 3568 H 373.954 -1.81978 4.64419 0
M  V30 3569 H 373.108 -4.16406 4.41238 0
M  V30 3570 H 371.847 -3.61678 3.2717 0
M  V30 3571 H 370.852 -2.15849 5.05657 0
M  V30 3572 H 372.077 -2.73466 6.21605 0
M  V30 3573 H 370.023 -4.47372 4.79786 0
M  V30 3574 H 369.94 -3.94798 6.44725 0
M  V30 3575 H 371.208 -5.03033 5.95465 0
M  V30 3576 N 375.437 -1.54477 -0.31217 0
M  V30 3577 C 376.367 -1.87652 -1.38957 0
M  V30 3578 C 377.348 -0.734358 -1.53431 0
M  V30 3579 O 378.533 -0.98911 -1.67123 0
M  V30 3580 C 375.663 -2.11396 -2.75552 0
M  V30 3581 C 374.617 -3.27243 -2.75855 0
M  V30 3582 C 373.943 -3.36382 -4.15633 0
M  V30 3583 C 375.243 -4.64622 -2.38587 0
M  V30 3584 H 376.937 -2.77887 -1.11442 0
M  V30 3585 H 374.483 -1.33707 -0.534655 0
M  V30 3586 H 376.436 -2.33189 -3.51 0
M  V30 3587 H 375.16 -1.17921 -3.04569 0
M  V30 3588 H 373.819 -3.05356 -2.02863 0
M  V30 3589 H 373.467 -2.40445 -4.41809 0
M  V30 3590 H 373.167 -4.14249 -4.1674 0
M  V30 3591 H 374.691 -3.60422 -4.92877 0
M  V30 3592 H 376.105 -4.86219 -3.03749 0
M  V30 3593 H 374.502 -5.45121 -2.50925 0
M  V30 3594 H 375.572 -4.66097 -1.33723 0
M  V30 3595 N 376.915 0.57481 -1.46744 0
M  V30 3596 C 377.825 1.711 -1.60505 0
M  V30 3597 C 378.841 1.67008 -0.488307 0
M  V30 3598 O 380.017 1.86774 -0.753495 0
M  V30 3599 C 377.082 3.07608 -1.59932 0
M  V30 3600 C 376.143 3.22904 -2.82898 0
M  V30 3601 C 375.376 4.529 -2.82343 0
M  V30 3602 O 375.599 5.37278 -1.91542 0
M  V30 3603 O 374.533 4.71611 -3.73987 0
M  V30 3604 H 378.359 1.62436 -2.56609 0
M  V30 3605 H 375.944 0.742779 -1.29627 0
M  V30 3606 H 377.826 3.88877 -1.62336 0
M  V30 3607 H 376.501 3.16692 -0.669898 0
M  V30 3608 H 375.408 2.41099 -2.86046 0
M  V30 3609 H 376.741 3.18715 -3.75076 0
M  V30 3610 N 378.394 1.34581 0.820102 0
M  V30 3611 C 379.342 1.26401 1.95258 0
M  V30 3612 C 380.336 0.161553 1.68628 0
M  V30 3613 O 381.542 0.326703 1.7701 0
M  V30 3614 H 377.917 0.392749 0.64129 0
M  V30 3615 H 379.888 2.22105 1.99279 0
M  V30 3616 C 378.637 1.03919 3.31807 0
M  V30 3617 H 377.96 1.87984 3.52848 0
M  V30 3618 H 379.4 1.02232 4.11491 0
M  V30 3619 C 377.859 -0.257433 3.35915 0
M  V30 3620 O 378.389 -1.25784 3.81499 0
M  V30 3621 N 376.595 -0.291524 2.89134 0
M  V30 3622 H 376.142 0.523161 2.52232 0
M  V30 3623 H 376.1 -1.15883 2.92264 0
M  V30 3624 N 379.872 -1.04064 1.18357 0
M  V30 3625 C 381.288 -1.2947 0.933258 0
M  V30 3626 C 381.488 -1.97466 -0.401169 0
M  V30 3627 O 380.544 -2.25528 -1.13549 0
M  V30 3628 C 381.857 -2.15337 2.09882 0
M  V30 3629 C 383.405 -2.28683 2.13712 0
M  V30 3630 C 383.88 -3.17917 3.29686 0
M  V30 3631 N 385.371 -3.25504 3.29547 0
M  V30 3632 C 386.106 -3.94706 4.15926 0
M  V30 3633 N 385.602 -4.66239 5.12439 0
M  V30 3634 N 387.395 -3.90986 4.0384 0
M  V30 3635 H 379.546 -0.583359 2.04232 0
M  V30 3636 H 381.809 -0.319921 0.892387 0
M  V30 3637 H 381.515 -1.72682 3.06389 0
M  V30 3638 H 381.389 -3.16015 2.05947 0
M  V30 3639 H 383.776 -2.70575 1.17784 0
M  V30 3640 H 383.857 -1.27596 2.21705 0
M  V30 3641 H 383.501 -2.76736 4.25887 0
M  V30 3642 H 383.431 -4.19036 3.1893 0
M  V30 3643 H 385.922 -2.74547 2.59677 0
M  V30 3644 H 386.235 -5.16638 5.74722 0
M  V30 3645 H 384.58 -4.65143 5.16398 0
M  V30 3646 H 387.771 -3.34234 3.27727 0
M  V30 3647 H 387.944 -4.44646 4.71375 0
M  V30 3648 N 381.35 -0.985608 -1.22978 0
M  V30 3649 C 382.575 -0.675254 -1.961 0
M  V30 3650 C 383 0.752154 -1.72407 0
M  V30 3651 O 382.358 1.5131 -0.998751 0
M  V30 3652 C 382.406 -0.977899 -3.47087 0
M  V30 3653 O 381.51 -0.072685 -4.12336 0
M  V30 3654 H 380.851 -0.253443 -0.613728 0
M  V30 3655 H 383.381 -1.32061 -1.56272 0
M  V30 3656 H 383.391 -0.916739 -3.97567 0
M  V30 3657 H 382.066 -2.01807 -3.63657 0
M  V30 3658 H 380.643 -0.188703 -3.72422 0
M  V30 3659 N 382.828 1.3818 -0.7579 0
M  V30 3660 C 383.738 2.3421 -0.135247 0
M  V30 3661 C 384.754 1.59487 0.695683 0
M  V30 3662 O 385.93 1.91657 0.618832 0
M  V30 3663 C 382.995 3.3862 0.744139 0
M  V30 3664 C 382.056 4.2918 -0.101658 0
M  V30 3665 C 381.289 5.28603 0.735851 0
M  V30 3666 O 381.512 5.35166 1.97366 0
M  V30 3667 O 380.446 6.01707 0.152372 0
M  V30 3668 H 384.272 2.8916 -0.928436 0
M  V30 3669 H 381.857 1.40101 -0.518855 0
M  V30 3670 H 383.739 4.02539 1.2466 0
M  V30 3671 H 382.414 2.86019 1.51575 0
M  V30 3672 H 381.321 3.68407 -0.650167 0
M  V30 3673 H 382.654 4.85048 -0.836024 0
M  V30 3674 N 384.306 0.507319 1.49211 0
M  V30 3675 C 385.269 -0.256763 2.27757 0
M  V30 3676 C 386.269 -0.888287 1.34038 0
M  V30 3677 O 387.459 -0.751841 1.5714 0
M  V30 3678 C 384.591 -1.36905 3.12202 0
M  V30 3679 H 385.784 0.432557 2.96764 0
M  V30 3680 H 383.337 0.262488 1.5408 0
M  V30 3681 H 384.072 -2.09233 2.47775 0
M  V30 3682 H 383.857 -0.921599 3.81115 0
M  V30 3683 H 385.347 -1.9071 3.7151 0
M  V30 3684 N 385.784 -1.5574 0.241426 0
M  V30 3685 C 387.195 -1.84842 -0.262755 0
M  V30 3686 C 387.546 -1.16317 -1.58003 0
M  V30 3687 O 386.671 -0.439653 -2.11887 0
M  V30 3688 C 387.266 -3.35332 -0.483523 0
M  V30 3689 C 385.825 -3.6468 -0.931977 0
M  V30 3690 C 384.972 -2.77299 -0.0061151 0
M  V30 3691 H 387.923 -1.51761 0.464129 0
M  V30 3692 H 387.944 -3.56615 -1.32688 0
M  V30 3693 H 387.456 -3.85178 0.47537 0
M  V30 3694 H 385.557 -3.20307 -1.90353 0
M  V30 3695 H 385.67 -4.72498 -0.792628 0
M  V30 3696 H 384.034 -2.49408 -0.516503 0
M  V30 3697 H 384.817 -3.2995 0.948052 0
M  V30 3698 N 387.262 0.0317525 -1.57568 0
M  V30 3699 C 388.51 0.721676 -1.88776 0
M  V30 3700 C 388.831 1.76039 -0.838772 0
M  V30 3701 O 388.101 1.95482 0.127935 0
M  V30 3702 H 386.681 0.269534 -0.696678 0
M  V30 3703 H 389.343 -0.00165879 -1.949 0
M  V30 3704 H 388.439 1.21293 -2.87566 0
M  V30 3705 N 388.74 1.54641 0.303973 0
M  V30 3706 C 389.965 1.78092 1.06292 0
M  V30 3707 C 390.39 0.537342 1.80262 0
M  V30 3708 O 389.748 -0.511993 1.7392 0
M  V30 3709 C 389.796 2.98612 2.02147 0
M  V30 3710 O 388.9 2.71528 3.10397 0
M  V30 3711 H 388.241 0.589548 0.305497 0
M  V30 3712 H 390.771 2.01716 0.3423 0
M  V30 3713 H 390.781 3.265 2.44667 0
M  V30 3714 H 389.456 3.88785 1.47714 0
M  V30 3715 H 388.033 2.54648 2.72413 0
M  V30 3716 N 390.218 -0.567019 1.47046 0
M  V30 3717 C 391.466 -1.322 1.52864 0
M  V30 3718 C 391.787 -1.94088 0.188388 0
M  V30 3719 O 391.057 -1.7941 -0.786693 0
M  V30 3720 H 389.637 -0.490894 0.563056 0
M  V30 3721 H 392.299 -0.662879 1.83281 0
M  V30 3722 H 391.395 -2.12062 2.2899 0
M  V30 3723 N 391.696 -1.35014 -0.812953 0
M  V30 3724 C 392.944 -1.27678 -1.56661 0
M  V30 3725 C 393.265 0.150359 -1.94419 0
M  V30 3726 O 392.535 1.08532 -1.63088 0
M  V30 3727 H 391.115 -0.469602 -0.580933 0
M  V30 3728 H 393.777 -1.69043 -0.970076 0
M  V30 3729 H 392.873 -1.88833 -2.48492 0
M  V30 3730 N 393.175 1.03435 -1.18907 0
M  V30 3731 C 394.591 1.28973 -0.940111 0
M  V30 3732 C 394.791 1.97676 0.390691 0
M  V30 3733 O 393.847 2.26127 1.12352 0
M  V30 3734 C 395.16 2.14221 -2.11021 0
M  V30 3735 C 396.708 2.27547 -2.14922 0
M  V30 3736 C 397.183 3.16164 -3.31367 0
M  V30 3737 N 398.674 3.23752 -3.31269 0
M  V30 3738 C 399.409 3.92495 -4.18014 0
M  V30 3739 N 398.905 4.63515 -5.14904 0
M  V30 3740 N 400.698 3.88838 -4.05908 0
M  V30 3741 H 392.849 0.57252 -2.04538 0
M  V30 3742 H 395.112 0.315184 -0.894071 0
M  V30 3743 H 394.818 1.71054 -3.073 0
M  V30 3744 H 394.692 3.14919 -2.0762 0
M  V30 3745 H 397.079 2.69947 -1.19217 0
M  V30 3746 H 397.16 1.26418 -2.22378 0
M  V30 3747 H 396.804 2.74474 -4.27348 0
M  V30 3748 H 396.734 4.17339 -3.21148 0
M  V30 3749 H 399.225 2.73167 -2.61129 0
M  V30 3750 H 399.538 5.13583 -5.77453 0
M  V30 3751 H 397.883 4.62398 -5.18857 0
M  V30 3752 H 401.074 3.32491 -3.29495 0
M  V30 3753 H 401.247 4.4214 -4.73726 0
M  V30 3754 N 394.653 0.992116 1.22453 0
M  V30 3755 C 395.901 0.666215 1.90804 0
M  V30 3756 C 396.222 -0.804152 1.77647 0
M  V30 3757 O 395.492 -1.57629 1.16318 0
M  V30 3758 H 394.072 0.243423 0.706225 0
M  V30 3759 H 396.734 1.25845 1.48825 0
M  V30 3760 H 395.83 0.928069 2.97982 0
M  V30 3761 N 396.131 -1.37776 0.765217 0
M  V30 3762 C 397.379 -1.99454 0.325943 0
M  V30 3763 C 397.7 -1.61049 -1.09947 0
M  V30 3764 O 396.97 -0.872821 -1.75381 0
M  V30 3765 H 395.55 -0.737697 0.117525 0
M  V30 3766 H 398.212 -1.68359 0.981895 0
M  V30 3767 H 397.308 -3.09547 0.398353 0
M  V30 3768 N 397.609 -0.515225 -1.4894 0
M  V30 3769 C 398.572 0.244681 -2.2789 0
M  V30 3770 C 399.572 0.881166 -1.34507 0
M  V30 3771 O 400.762 0.743497 -1.57537 0
M  V30 3772 C 397.894 1.35247 -3.12923 0
M  V30 3773 H 399.087 -0.448289 -2.96531 0
M  V30 3774 H 396.64 -0.270656 -1.53939 0
M  V30 3775 H 397.375 2.07916 -2.48881 0
M  V30 3776 H 397.16 0.901374 -3.81599 0
M  V30 3777 H 398.65 1.88737 -3.72516 0
M  V30 3778 N 399.087 1.5561 -0.249682 0
M  V30 3779 C 400.05 2.20217 0.635394 0
M  V30 3780 C 401.05 1.17227 1.10066 0
M  V30 3781 O 402.24 1.42292 1.00492 0
M  V30 3782 C 399.372 2.84794 1.87363 0
M  V30 3783 H 400.565 2.99814 0.0716752 0
M  V30 3784 H 398.118 1.563 -0.000153234 0
M  V30 3785 H 398.853 2.09142 2.47851 0
M  V30 3786 H 398.638 3.60241 1.5482 0
M  V30 3787 H 400.128 3.3423 2.5036 0
M  V30 3788 N 400.565 -0.0233959 1.57583 0
M  V30 3789 C 401.813 -0.711654 1.89156 0
M  V30 3790 C 402.134 -1.75591 0.848096 0
M  V30 3791 O 401.404 -1.95547 -0.117566 0
M  V30 3792 H 399.984 -0.265835 0.698098 0
M  V30 3793 H 402.646 0.0119948 1.94896 0
M  V30 3794 H 401.742 -1.19766 2.88206 0
M  V30 3795 N 402.043 -1.548 -0.295768 0
M  V30 3796 C 403.291 -1.73985 -1.02828 0
M  V30 3797 C 403.612 -0.531406 -1.87619 0
M  V30 3798 O 402.882 0.454221 -1.90561 0
M  V30 3799 H 401.462 -0.641556 -0.382642 0
M  V30 3800 H 404.124 -1.92163 -0.325489 0
M  V30 3801 H 403.22 -2.63129 -1.67838 0
M  V30 3802 N 403.521 0.559213 -1.47345 0
M  V30 3803 C 404.769 1.31388 -1.53563 0
M  V30 3804 C 405.09 1.93985 -0.198678 0
M  V30 3805 O 404.36 1.79825 0.777167 0
M  V30 3806 H 402.94 0.487901 -0.565652 0
M  V30 3807 H 405.602 0.65315 -1.8363 0
M  V30 3808 H 404.698 2.10844 -2.30111 0
M  V30 3809 N 404.999 1.35443 0.805782 0
M  V30 3810 C 406.247 1.28507 1.55982 0
M  V30 3811 C 406.568 -0.140046 1.94496 0
M  V30 3812 O 405.838 -1.07666 1.63661 0
M  V30 3813 H 404.418 0.472676 0.578434 0
M  V30 3814 H 407.08 1.69555 0.961098 0
M  V30 3815 H 406.176 1.90148 2.47488 0
M  V30 3816 N 406.477 -1.02803 1.19454 0
M  V30 3817 C 407.725 -1.75869 0.995722 0
M  V30 3818 C 408.046 -1.89138 -0.474543 0
M  V30 3819 O 407.316 -1.42558 -1.34366 0
M  V30 3820 H 405.896 -0.651511 0.365435 0
M  V30 3821 H 408.558 -1.24004 1.50363 0
M  V30 3822 H 407.654 -2.76661 1.44447 0
M  V30 3823 N 407.956 -0.998596 -1.21925 0
M  V30 3824 C 409.202 -0.688337 -1.91399 0
M  V30 3825 C 409.557 0.771805 -1.76241 0
M  V30 3826 O 408.85 1.55153 -1.1242 0
M  V30 3827 C 409.044 -1.03648 -3.42041 0
M  V30 3828 C 408.873 -2.52892 -3.71855 0
M  V30 3829 C 407.643 -3.19389 -3.91559 0
M  V30 3830 C 409.841 -3.5103 -3.75875 0
M  V30 3831 N 407.823 -4.5805 -4.08734 0
M  V30 3832 C 409.194 -4.75174 -3.98259 0
M  V30 3833 C 411.249 -3.45257 -3.58751 0
M  V30 3834 C 409.952 -5.94247 -4.05294 0
M  V30 3835 C 411.978 -4.63712 -3.67049 0
M  V30 3836 C 411.34 -5.86658 -3.89887 0
M  V30 3837 H 407.439 -0.303251 -0.720807 0
M  V30 3838 H 410.023 -1.27977 -1.46731 0
M  V30 3839 H 408.194 -0.473569 -3.85502 0
M  V30 3840 H 409.926 -0.681619 -3.98919 0
M  V30 3841 H 406.681 -2.69846 -3.89205 0
M  V30 3842 H 407.105 -5.29989 -4.21237 0
M  V30 3843 H 411.747 -2.51215 -3.40075 0
M  V30 3844 H 409.465 -6.88687 -4.22772 0
M  V30 3845 H 413.051 -4.6084 -3.5513 0
M  V30 3846 H 411.931 -6.76786 -3.96144 0
M  V30 3847 N 409.434 1.37368 -0.772513 0
M  V30 3848 C 410.662 2.03942 -0.348588 0
M  V30 3849 C 411.077 1.58264 1.02947 0
M  V30 3850 O 410.434 0.764246 1.65727 0
M  V30 3851 C 410.485 3.5946 -0.38351 0
M  V30 3852 O 410.206 4.03468 -1.70721 0
M  V30 3853 C 411.707 4.4327 0.0519152 0
M  V30 3854 H 408.927 0.654931 -0.145966 0
M  V30 3855 H 411.471 1.75686 -1.04665 0
M  V30 3856 H 409.626 3.86486 0.265978 0
M  V30 3857 H 410.04 4.97991 -1.64636 0
M  V30 3858 H 411.514 5.51995 -0.0236733 0
M  V30 3859 H 411.991 4.2514 1.10238 0
M  V30 3860 H 412.597 4.21471 -0.569415 0
M  V30 3861 N 410.912 0.523116 1.48665 0
M  V30 3862 C 412.137 -0.0117284 2.07397 0
M  V30 3863 C 412.562 -1.28031 1.37803 0
M  V30 3864 O 411.92 -1.75836 0.441762 0
M  V30 3865 C 411.968 -0.225786 3.59892 0
M  V30 3866 O 411.072 -1.29592 3.91509 0
M  V30 3867 H 410.413 0.0360673 0.66302 0
M  V30 3868 H 412.943 0.729066 1.9117 0
M  V30 3869 H 412.953 -0.450552 4.05505 0
M  V30 3870 H 411.628 0.700944 4.09951 0
M  V30 3871 H 410.205 -1.05436 3.57684 0
M  V30 3872 N 412.39 -1.55475 0.257931 0
M  V30 3873 C 413.806 -1.59307 -0.0966563 0
M  V30 3874 C 414.006 -1.27514 -1.5602 0
M  V30 3875 O 413.062 -1.02774 -2.30637 0
M  V30 3876 C 414.375 -2.99552 0.262481 0
M  V30 3877 C 415.923 -3.1231 0.207683 0
M  V30 3878 C 416.398 -4.54793 0.541012 0
M  V30 3879 N 417.889 -4.6058 0.491921 0
M  V30 3880 C 418.624 -5.68825 0.722857 0
M  V30 3881 N 418.12 -6.85287 1.0175 0
M  V30 3882 N 419.913 -5.58296 0.652815 0
M  V30 3883 H 412.064 -1.74409 1.21224 0
M  V30 3884 H 414.327 -0.812424 0.48854 0
M  V30 3885 H 414.033 -3.27593 1.27967 0
M  V30 3886 H 413.907 -3.75019 -0.40508 0
M  V30 3887 H 416.294 -2.84044 -0.800195 0
M  V30 3888 H 416.375 -2.39095 0.909255 0
M  V30 3889 H 416.019 -4.83783 1.5465 0
M  V30 3890 H 415.949 -5.26285 -0.18216 0
M  V30 3891 H 418.44 -3.7691 0.273366 0
M  V30 3892 H 418.753 -7.63725 1.18084 0
M  V30 3893 H 417.098 -6.86945 1.05509 0
M  V30 3894 H 420.289 -4.66189 0.422592 0
M  V30 3895 H 420.462 -6.42582 0.836182 0
M  V30 3896 N 413.868 0.0150385 -1.57593 0
M  V30 3897 C 414.831 0.995996 -2.06428 0
M  V30 3898 C 415.831 1.2818 -0.970903 0
M  V30 3899 O 417.021 1.22949 -1.23406 0
M  V30 3900 C 414.153 2.32506 -2.49307 0
M  V30 3901 H 415.346 0.573873 -2.94358 0
M  V30 3902 H 412.899 0.262186 -1.54085 0
M  V30 3903 H 413.634 2.79438 -1.64575 0
M  V30 3904 H 413.419 2.13087 -3.29145 0
M  V30 3905 H 414.909 3.02906 -2.87468 0
M  V30 3906 N 415.346 1.54954 0.287554 0
M  V30 3907 C 416.757 1.65732 0.859634 0
M  V30 3908 C 417.108 0.574767 1.87592 0
M  V30 3909 O 416.233 -0.286299 2.14498 0
M  V30 3910 C 416.828 3.00438 1.56597 0
M  V30 3911 C 415.387 3.13292 2.08627 0
M  V30 3912 C 414.534 2.61473 0.923416 0
M  V30 3913 H 417.485 1.5857 0.0642338 0
M  V30 3914 H 417.506 2.92613 2.43224 0
M  V30 3915 H 417.018 3.79207 0.826053 0
M  V30 3916 H 415.119 2.39268 2.85625 0
M  V30 3917 H 415.232 4.19647 2.31157 0
M  V30 3918 H 413.596 2.18264 1.31275 0
M  V30 3919 H 414.379 3.42733 0.197241 0
M  V30 3920 N 416.824 -0.551391 1.4764 0
M  V30 3921 C 418.049 -1.33837 1.58437 0
M  V30 3922 C 418.474 -1.866 0.237063 0
M  V30 3923 O 417.832 -1.6328 -0.787994 0
M  V30 3924 C 417.88 -2.48014 2.61766 0
M  V30 3925 O 416.984 -3.50419 2.1744 0
M  V30 3926 H 416.325 -0.397299 0.532024 0
M  V30 3927 H 418.855 -0.665759 1.93465 0
M  V30 3928 H 418.865 -2.94503 2.82369 0
M  V30 3929 H 417.54 -2.08969 3.5959 0
M  V30 3930 H 416.117 -3.10196 2.06961 0
M  V30 3931 N 418.302 -1.35869 -0.798587 0
M  V30 3932 C 419.713 -1.26498 -1.37314 0
M  V30 3933 C 420.064 0.0991899 -1.95949 0
M  V30 3934 O 419.189 1.0004 -1.91888 0
M  V30 3935 C 419.784 -2.29054 -2.49639 0
M  V30 3936 C 418.343 -2.234 -3.02935 0
M  V30 3937 C 417.49 -2.14329 -1.75949 0
M  V30 3938 H 420.441 -1.46881 -0.600971 0
M  V30 3939 H 420.462 -1.92166 -3.28409 0
M  V30 3940 H 419.974 -3.2833 -2.06933 0
M  V30 3941 H 418.075 -1.27562 -3.50084 0
M  V30 3942 H 418.188 -3.15703 -3.60372 0
M  V30 3943 H 416.552 -1.60435 -1.9782 0
M  V30 3944 H 417.335 -3.15477 -1.35384 0
M  V30 3945 N 419.78 1.02168 -1.19998 0
M  V30 3946 C 420.712 2.10705 -0.901994 0
M  V30 3947 C 421.725 1.6244 0.108216 0
M  V30 3948 O 422.914 1.78082 -0.12214 0
M  V30 3949 C 420.014 3.37291 -0.329834 0
M  V30 3950 C 419.187 4.14714 -1.39035 0
M  V30 3951 C 418.246 5.19606 -0.830432 0
M  V30 3952 O 417.272 5.48809 -1.50989 0
M  V30 3953 N 418.474 5.79366 0.362696 0
M  V30 3954 H 421.239 2.36856 -1.83628 0
M  V30 3955 H 418.8 1.18518 -1.10296 0
M  V30 3956 H 420.792 4.04657 0.0587633 0
M  V30 3957 H 419.362 3.0843 0.508891 0
M  V30 3958 H 418.582 3.42392 -1.9535 0
M  V30 3959 H 419.87 4.63226 -2.10474 0
M  V30 3960 H 419.268 5.57968 0.932081 0
M  V30 3961 H 417.825 6.48106 0.69299 0
M  V30 3962 N 421.258 1.00505 1.21394 0
M  V30 3963 C 422.221 0.570459 2.21987 0
M  V30 3964 C 423.221 -0.353211 1.56873 0
M  V30 3965 O 424.411 -0.14349 1.73608 0
M  V30 3966 C 421.543 -0.168555 3.40483 0
M  V30 3967 H 422.736 1.46021 2.6195 0
M  V30 3968 H 420.289 0.793565 1.34656 0
M  V30 3969 H 421.024 -1.07374 3.06009 0
M  V30 3970 H 420.809 0.494823 3.88965 0
M  V30 3971 H 422.299 -0.460362 4.15055 0
M  V30 3972 N 422.737 -1.36956 0.779787 0
M  V30 3973 C 423.985 -1.99097 0.347079 0
M  V30 3974 C 424.306 -1.62206 -1.08232 0
M  V30 3975 O 423.576 -0.891373 -1.74446 0
M  V30 3976 H 422.156 -0.736409 0.125342 0
M  V30 3977 H 424.818 -1.67308 0.999696 0
M  V30 3978 H 423.914 -3.09107 0.431162 0
M  V30 3979 N 424.215 -0.530993 -1.48385 0
M  V30 3980 C 425.631 -0.188919 -1.58478 0
M  V30 3981 C 425.831 1.30786 -1.53288 0
M  V30 3982 O 424.887 2.08619 -1.42248 0
M  V30 3983 C 426.2 -0.792343 -2.90073 0
M  V30 3984 C 427.748 -0.76117 -3.03604 0
M  V30 3985 C 428.223 -1.34319 -4.37861 0
M  V30 3986 N 429.714 -1.3052 -4.44431 0
M  V30 3987 C 430.449 -1.72543 -5.46824 0
M  V30 3988 N 429.945 -2.22299 -6.56167 0
M  V30 3989 N 431.738 -1.63773 -5.37712 0
M  V30 3990 H 423.889 -1.50377 -1.50002 0
M  V30 3991 H 426.152 -0.625559 -0.712306 0
M  V30 3992 H 425.858 -1.84323 -2.99529 0
M  V30 3993 H 425.732 -0.270026 -3.76232 0
M  V30 3994 H 428.119 0.280957 -2.93759 0
M  V30 3995 H 428.2 -1.32097 -2.19053 0
M  V30 3996 H 427.844 -2.38425 -4.4846 0
M  V30 3997 H 427.774 -0.759064 -5.21101 0
M  V30 3998 H 430.265 -0.940973 -3.65997 0
M  V30 3999 H 430.578 -2.52356 -7.30436 0
M  V30 4000 H 428.923 -2.26293 -6.57127 0
M  V30 4001 H 432.114 -1.24698 -4.51185 0
M  V30 4002 H 432.287 -1.96844 -6.17379 0
M  V30 4003 N 425.693 1.55336 -0.266172 0
M  V30 4004 C 426.918 2.04258 0.359661 0
M  V30 4005 C 427.343 1.14359 1.49344 0
M  V30 4006 O 426.701 0.140369 1.80756 0
M  V30 4007 C 426.749 3.50997 0.826635 0
M  V30 4008 O 425.853 3.64204 1.93466 0
M  V30 4009 H 425.194 0.659668 0.075727 0
M  V30 4010 H 427.724 2.00694 -0.39786 0
M  V30 4011 H 427.734 3.9219 1.12477 0
M  V30 4012 H 426.409 4.159 -0.00293032 0
M  V30 4013 H 424.986 3.34913 1.63974 0
M  V30 4014 N 427.171 -0.0066808 1.57599 0
M  V30 4015 C 428.101 -0.999296 2.11036 0
M  V30 4016 C 429.082 -1.36278 1.01795 0
M  V30 4017 O 430.267 -1.4477 1.29442 0
M  V30 4018 C 427.397 -2.29328 2.60818 0
M  V30 4019 C 426.351 -2.07159 3.74525 0
M  V30 4020 C 425.677 -3.42512 4.10596 0
M  V30 4021 C 426.977 -1.43959 5.02069 0
M  V30 4022 H 428.671 -0.554382 2.94223 0
M  V30 4023 H 426.217 -0.265221 1.41536 0
M  V30 4024 H 428.17 -2.99117 2.96828 0
M  V30 4025 H 426.894 -2.7592 1.74745 0
M  V30 4026 H 425.553 -1.39797 3.38899 0
M  V30 4027 H 425.201 -3.86795 3.21556 0
M  V30 4028 H 424.901 -3.28498 4.87199 0
M  V30 4029 H 426.425 -4.13628 4.4916 0
M  V30 4030 H 427.839 -2.03696 5.35893 0
M  V30 4031 H 426.236 -1.40452 5.83432 0
M  V30 4032 H 427.306 -0.407992 4.83181 0
M  V30 4033 N 428.649 -1.55105 -0.279332 0
M  V30 4034 C 429.581 -1.83952 -1.36727 0
M  V30 4035 C 430.594 -0.723642 -1.45833 0
M  V30 4036 O 431.783 -1.00141 -1.47763 0
M  V30 4037 C 428.883 -1.98183 -2.74912 0
M  V30 4038 C 428.056 -3.28787 -2.88475 0
M  V30 4039 C 427.115 -3.33162 -4.07295 0
M  V30 4040 O 426.141 -4.06576 -3.98353 0
M  V30 4041 N 427.343 -2.60109 -5.18964 0
M  V30 4042 H 430.108 -2.77853 -1.12328 0
M  V30 4043 H 427.669 -1.54945 -0.469442 0
M  V30 4044 H 429.661 -1.98488 -3.52682 0
M  V30 4045 H 428.231 -1.11177 -2.92162 0
M  V30 4046 H 427.451 -3.41075 -1.97641 0
M  V30 4047 H 428.739 -4.14933 -2.94463 0
M  V30 4048 H 428.137 -2.00136 -5.29115 0
M  V30 4049 H 426.694 -2.66143 -5.94988 0
M  V30 4050 N 430.127 0.543554 -1.4793 0
M  V30 4051 C 431.037 1.67657 -1.64098 0
M  V30 4052 C 432.053 1.65934 -0.523622 0
M  V30 4053 O 433.229 1.85133 -0.792943 0
M  V30 4054 C 430.294 3.04146 -1.66421 0
M  V30 4055 C 429.355 3.16831 -2.89684 0
M  V30 4056 C 428.588 4.46809 -2.91886 0
M  V30 4057 O 428.811 5.33095 -2.02895 0
M  V30 4058 O 427.745 4.63573 -3.83906 0
M  V30 4059 H 431.571 1.56957 -2.59997 0
M  V30 4060 H 429.156 0.715116 -1.31173 0
M  V30 4061 H 431.038 3.85346 -1.70548 0
M  V30 4062 H 429.713 3.152 -0.736923 0
M  V30 4063 H 428.62 2.34977 -2.91095 0
M  V30 4064 H 429.953 3.10687 -3.81752 0
M  V30 4065 N 431.605 1.3629 0.791371 0
M  V30 4066 C 432.853 1.30154 1.5461 0
M  V30 4067 C 433.174 -0.119409 1.94634 0
M  V30 4068 O 432.444 -1.05924 1.64794 0
M  V30 4069 H 431.024 0.478784 0.573389 0
M  V30 4070 H 433.686 1.70565 0.94306 0
M  V30 4071 H 432.782 1.92762 2.45457 0
M  V30 4072 N 433.083 -1.0153 1.20538 0
M  V30 4073 C 434.046 -2.0826 0.957098 0
M  V30 4074 C 435.046 -1.60657 -0.0678655 0
M  V30 4075 O 436.236 -1.73385 0.168332 0
M  V30 4076 C 433.368 -3.38033 0.441188 0
M  V30 4077 H 434.561 -2.31719 1.90384 0
M  V30 4078 H 432.114 -1.1835 1.02093 0
M  V30 4079 H 432.849 -3.20249 -0.510961 0
M  V30 4080 H 432.634 -3.73911 1.18038 0
M  V30 4081 H 434.124 -4.16613 0.287009 0
M  V30 4082 N 434.561 -1.01147 -1.20859 0
M  V30 4083 C 435.471 -0.58686 -2.27141 0
M  V30 4084 C 436.487 0.373198 -1.69951 0
M  V30 4085 O 437.663 0.235423 -2.00019 0
M  V30 4086 C 434.728 0.0733602 -3.46622 0
M  V30 4087 C 433.789 -0.931995 -4.19061 0
M  V30 4088 C 433.022 -0.303186 -5.32838 0
M  V30 4089 O 433.245 0.898395 -5.63281 0
M  V30 4090 O 432.179 -1.01735 -5.9324 0
M  V30 4091 H 436.005 -1.47155 -2.65667 0
M  V30 4092 H 433.59 -0.780689 -1.2738 0
M  V30 4093 H 435.472 0.442333 -4.19072 0
M  V30 4094 H 434.147 0.932329 -3.09983 0
M  V30 4095 H 433.054 -1.35224 -3.48805 0
M  V30 4096 H 434.387 -1.76076 -4.59628 0
M  V30 4097 N 436.039 1.36541 -0.78704 0
M  V30 4098 C 437.287 1.98911 -0.357633 0
M  V30 4099 C 437.608 1.62778 1.07371 0
M  V30 4100 O 436.878 0.900612 1.73971 0
M  V30 4101 H 435.458 0.735734 -0.129246 0
M  V30 4102 H 438.12 1.66776 -1.00855 0
M  V30 4103 H 437.216 3.08874 -0.447549 0
M  V30 4104 N 437.518 0.538854 1.48102 0
M  V30 4105 C 438.766 0.00798599 2.02098 0
M  V30 4106 C 439.087 -1.33922 1.41739 0
M  V30 4107 O 438.357 -1.86932 0.585934 0
M  V30 4108 H 436.937 -3.62179e-05 0.747 0
M  V30 4109 H 439.599 0.7047 1.81714 0
M  V30 4110 H 438.695 -0.0937672 3.11959 0
M  V30 4111 N 438.996 -1.55193 0.274407 0
M  V30 4112 C 439.928 -2.1989 -0.646595 0
M  V30 4113 C 440.941 -1.1834 -1.11801 0
M  V30 4114 O 442.13 -1.4507 -1.04004 0
M  V30 4115 C 439.23 -2.8104 -1.89393 0
M  V30 4116 C 438.403 -4.08274 -1.56943 0
M  V30 4117 C 437.462 -4.53478 -2.66916 0
M  V30 4118 O 436.488 -5.19267 -2.33132 0
M  V30 4119 N 437.69 -4.2356 -3.9696 0
M  V30 4120 H 440.455 -2.99556 -0.0928686 0
M  V30 4121 H 438.016 -1.61618 0.0954783 0
M  V30 4122 H 440.008 -3.08226 -2.62257 0
M  V30 4123 H 438.578 -2.05372 -2.35672 0
M  V30 4124 H 437.798 -3.88384 -0.674655 0
M  V30 4125 H 439.086 -4.91173 -1.32764 0
M  V30 4126 H 438.484 -3.70799 -4.27229 0
M  V30 4127 H 437.041 -4.55518 -4.66205 0
M  V30 4128 N 440.474 -0.00167713 -1.576 0
M  V30 4129 C 441.722 0.681471 -1.90264 0
M  V30 4130 C 442.043 1.7422 -0.875924 0
M  V30 4131 O 441.313 1.95709 0.0864412 0
M  V30 4132 H 439.893 0.254696 -0.702239 0
M  V30 4133 H 442.555 -0.0429996 -1.94853 0
M  V30 4134 H 441.651 1.15166 -2.90075 0
M  V30 4135 N 441.952 1.55251 0.271103 0
M  V30 4136 C 443.192 1.77698 1.01008 0
M  V30 4137 C 443.556 0.567246 1.83429 0
M  V30 4138 O 444.757 0.670013 2.60316 0
M  V30 4139 C 443.028 3.04715 1.86772 0
M  V30 4140 S 444.587 3.48289 2.66909 0
M  V30 4141 H 441.405 0.624343 0.340172 0
M  V30 4142 H 444.007 1.9348 0.280315 0
M  V30 4143 H 442.711 3.90853 1.25149 0
M  V30 4144 H 442.242 2.91604 2.64066 0
M  V30 4145 H 444.257 3.07712 3.89266 0
M  V30 4146 N 443.43 -0.535701 1.48216 0
M  V30 4147 C 444.655 -1.32149 1.59848 0
M  V30 4148 C 445.08 -1.86338 0.256842 0
M  V30 4149 O 444.438 -1.64107 -0.770632 0
M  V30 4150 C 444.486 -2.45224 2.64381 0
M  V30 4151 O 443.59 -3.48093 2.21144 0
M  V30 4152 H 442.931 -0.391634 0.536208 0
M  V30 4153 H 445.461 -0.645202 1.94161 0
M  V30 4154 H 445.471 -2.91491 2.85476 0
M  V30 4155 H 444.146 -2.05143 3.61786 0
M  V30 4156 H 442.723 -3.07984 2.10239 0
M  V30 4157 N 444.908 -1.36708 -0.784132 0
M  V30 4158 C 445.818 -1.3363 -1.92822 0
M  V30 4159 C 446.834 -0.237686 -1.72369 0
M  V30 4160 O 448.01 -0.470962 -1.95816 0
M  V30 4161 C 445.075 -1.13011 -3.27764 0
M  V30 4162 C 444.136 -2.32397 -3.60957 0
M  V30 4163 C 443.369 -2.12752 -4.89461 0
M  V30 4164 O 443.592 -1.10541 -5.59586 0
M  V30 4165 O 442.526 -3.00653 -5.21432 0
M  V30 4166 H 446.352 -2.29964 -1.98369 0
M  V30 4167 H 443.937 -1.1731 -0.925136 0
M  V30 4168 H 445.819 -1.03451 -4.08504 0
M  V30 4169 H 444.494 -0.19743 -3.23097 0
M  V30 4170 H 443.401 -2.47527 -2.80502 0
M  V30 4171 H 444.734 -3.2419 -3.70354 0
M  V30 4172 N 446.386 1.0089 -1.21074 0
M  V30 4173 C 447.349 2.0775 -0.968129 0
M  V30 4174 C 448.349 1.6069 0.0593445 0
M  V30 4175 O 449.539 1.73293 -0.177525 0
M  V30 4176 C 446.671 3.37794 -0.459108 0
M  V30 4177 H 447.864 2.30707 -1.9161 0
M  V30 4178 H 445.417 1.17807 -1.02719 0
M  V30 4179 H 446.152 3.20516 0.49397 0
M  V30 4180 H 445.937 3.7328 -1.20019 0
M  V30 4181 H 447.427 4.16454 -0.309099 0
M  V30 4182 N 447.864 1.01787 1.20321 0
M  V30 4183 C 449.11 0.718699 1.90279 0
M  V30 4184 C 449.465 -0.743669 1.77447 0
M  V30 4185 O 448.758 -1.53345 1.14874 0
M  V30 4186 C 448.952 1.09076 3.40349 0
M  V30 4187 C 448.781 2.58775 3.67784 0
M  V30 4188 C 447.551 3.25578 3.86428 0
M  V30 4189 C 449.749 3.56966 3.70243 0
M  V30 4190 N 447.731 4.64495 4.01395 0
M  V30 4191 C 449.102 4.8145 3.90649 0
M  V30 4192 C 451.157 3.5092 3.53213 0
M  V30 4193 C 449.86 6.00619 3.95789 0
M  V30 4194 C 451.886 4.69493 3.59625 0
M  V30 4195 C 451.248 5.92786 3.80505 0
M  V30 4196 H 447.347 0.31468 0.715891 0
M  V30 4197 H 449.931 1.30295 1.44677 0
M  V30 4198 H 448.102 0.534839 3.847 0
M  V30 4199 H 449.834 0.744997 3.97784 0
M  V30 4200 H 446.589 2.76003 3.84862 0
M  V30 4201 H 447.013 5.36624 4.12752 0
M  V30 4202 H 451.655 2.56593 3.36035 0
M  V30 4203 H 449.373 6.95326 4.11762 0
M  V30 4204 H 452.959 4.66432 3.47754 0
M  V30 4205 H 451.839 6.83003 3.85327 0
M  V30 4206 N 449.342 -1.36122 0.79427 0
M  V30 4207 C 450.305 -2.28309 0.201889 0
M  V30 4208 C 451.305 -1.49041 -0.603603 0
M  V30 4209 O 452.495 -1.68964 -0.423888 0
M  V30 4210 C 449.627 -3.3321 -0.719978 0
M  V30 4211 H 450.82 -2.82208 1.01481 0
M  V30 4212 H 448.373 -1.45768 0.564037 0
M  V30 4213 H 449.108 -2.84475 -1.55706 0
M  V30 4214 H 448.893 -3.91835 -0.144266 0
M  V30 4215 H 450.383 -4.02044 -1.12916 0
M  V30 4216 N 450.82 -0.546701 -1.47814 0
M  V30 4217 C 452.048 -0.0232857 -2.06887 0
M  V30 4218 C 452.463 1.26571 -1.4009 0
M  V30 4219 O 451.82 1.7569 -0.493906 0
M  V30 4220 C 451.871 0.186975 -3.61016 0
M  V30 4221 O 451.592 -1.05097 -4.25307 0
M  V30 4222 C 453.093 0.748872 -4.36929 0
M  V30 4223 H 450.313 -0.0410763 -0.669742 0
M  V30 4224 H 452.857 -0.757117 -1.89968 0
M  V30 4225 H 451.012 0.870903 -3.77484 0
M  V30 4226 H 451.426 -0.842121 -5.17695 0
M  V30 4227 H 452.9 0.845334 -5.45489 0
M  V30 4228 H 453.377 1.75772 -4.02493 0
M  V30 4229 H 453.983 0.100979 -4.2518 0
M  V30 4230 N 452.299 1.55045 -0.282633 0
M  V30 4231 C 453.229 2.2579 0.595066 0
M  V30 4232 C 454.21 1.25074 1.15284 0
M  V30 4233 O 455.395 1.5381 1.18559 0
M  V30 4234 C 452.525 2.98472 1.77572 0
M  V30 4235 C 451.479 4.0618 1.34914 0
M  V30 4236 C 450.805 4.66477 2.6135 0
M  V30 4237 C 452.105 5.1996 0.493821 0
M  V30 4238 H 453.799 2.994 0.00505653 0
M  V30 4239 H 451.345 1.44 0.000992001 0
M  V30 4240 H 453.298 3.46677 2.39568 0
M  V30 4241 H 452.022 2.2241 2.39168 0
M  V30 4242 H 450.681 3.58797 0.752338 0
M  V30 4243 H 450.329 3.87074 3.2122 0
M  V30 4244 H 450.029 5.39207 2.33516 0
M  V30 4245 H 451.553 5.17435 3.24181 0
M  V30 4246 H 452.967 5.64172 1.01898 0
M  V30 4247 H 451.364 5.99299 0.310047 0
M  V30 4248 H 452.434 4.82462 -0.485593 0
M  V30 4249 N 453.777 0.010035 1.57597 0
M  V30 4250 C 455.025 -0.671371 1.90623 0
M  V30 4251 C 455.346 -1.73753 0.885151 0
M  V30 4252 O 454.616 -1.95752 -0.0760611 0
M  V30 4253 H 453.196 -0.250968 0.703579 0
M  V30 4254 H 455.858 0.0533325 1.94827 0
M  V30 4255 H 454.954 -1.13626 2.90681 0
M  V30 4256 N 455.255 -1.55392 -0.262866 0
M  V30 4257 C 456.501 -1.77657 -0.990424 0
M  V30 4258 C 456.856 -0.576333 -1.83565 0
M  V30 4259 O 456.149 0.430795 -1.86694 0
M  V30 4260 C 456.343 -3.02889 -1.89718 0
M  V30 4261 C 456.172 -4.34979 -1.14121 0
M  V30 4262 C 454.942 -4.98052 -0.852768 0
M  V30 4263 C 457.14 -5.11597 -0.526625 0
M  V30 4264 N 455.122 -6.13859 -0.0710649 0
M  V30 4265 C 456.493 -6.19883 0.12042 0
M  V30 4266 C 458.548 -4.95992 -0.435485 0
M  V30 4267 C 457.251 -7.14262 0.849833 0
M  V30 4268 C 459.277 -5.90735 0.280359 0
M  V30 4269 C 458.639 -6.98417 0.916103 0
M  V30 4270 H 454.738 -0.702242 -0.344064 0
M  V30 4271 H 457.322 -1.92887 -0.265088 0
M  V30 4272 H 455.493 -2.89017 -2.59468 0
M  V30 4273 H 457.225 -3.13516 -2.5591 0
M  V30 4274 H 453.98 -4.5916 -1.16058 0
M  V30 4275 H 454.404 -6.76302 0.307413 0
M  V30 4276 H 459.046 -4.12832 -0.912671 0
M  V30 4277 H 456.764 -7.96935 1.33867 0
M  V30 4278 H 460.35 -5.80738 0.351332 0
M  V30 4279 H 459.23 -7.70467 1.46119 0
M  V30 4280 N 456.733 0.527833 -1.48498 0
M  V30 4281 C 457.696 1.61439 -1.62696 0
M  V30 4282 C 458.696 1.52824 -0.500136 0
M  V30 4283 O 459.886 1.56456 -0.765976 0
M  V30 4284 C 457.018 3.01063 -1.59918 0
M  V30 4285 H 458.211 1.50189 -2.59583 0
M  V30 4286 H 455.764 0.750055 -1.37127 0
M  V30 4287 H 456.499 3.17818 -0.645163 0
M  V30 4288 H 456.284 3.08725 -2.41726 0
M  V30 4289 H 457.774 3.80057 -1.73051 0
M  V30 4290 N 458.211 1.37122 0.776871 0
M  V30 4291 C 459.174 1.32301 1.8716 0
M  V30 4292 C 460.174 0.228099 1.59174 0
M  V30 4293 O 461.364 0.483642 1.67352 0
M  V30 4294 C 458.496 1.054 3.24197 0
M  V30 4295 H 459.689 2.29673 1.92848 0
M  V30 4296 H 457.242 1.22077 0.97606 0
M  V30 4297 H 457.977 0.0853872 3.24188 0
M  V30 4298 H 457.762 1.84648 3.45901 0
M  V30 4299 H 459.252 1.04664 4.04271 0
M  V30 4300 N 459.689 -1.00246 1.21608 0
M  V30 4301 C 460.652 -2.07233 0.979133 0
M  V30 4302 C 461.652 -1.6072 -0.0508219 0
M  V30 4303 O 462.842 -1.73196 0.186712 0
M  V30 4304 C 459.974 -3.37546 0.477016 0
M  V30 4305 H 461.167 -2.29687 1.92831 0
M  V30 4306 H 458.72 -1.17261 1.03342 0
M  V30 4307 H 459.455 -3.20773 -0.476966 0
M  V30 4308 H 459.24 -3.72638 1.21997 0
M  V30 4309 H 460.73 -4.16285 0.331181 0
M  V30 4310 N 461.167 -1.02423 -1.1978 0
M  V30 4311 C 462.415 -0.716569 -1.8897 0
M  V30 4312 C 462.736 0.756769 -1.79716 0
M  V30 4313 O 462.006 1.5449 -1.20456 0
M  V30 4314 H 460.586 -0.262062 -0.699523 0
M  V30 4315 H 463.248 -1.29747 -1.45436 0
M  V30 4316 H 462.344 -1.00675 -2.95417 0
M  V30 4317 N 462.645 1.35699 -0.801477 0
M  V30 4318 C 463.893 1.9852 -0.37871 0
M  V30 4319 C 464.214 1.63907 1.05638 0
M  V30 4320 O 463.484 0.919013 1.73006 0
M  V30 4321 H 462.064 0.734322 -0.137042 0
M  V30 4322 H 464.726 1.65697 -1.02619 0
M  V30 4323 H 463.822 3.08382 -0.480284 0
M  V30 4324 N 464.123 0.554532 1.47522 0
M  V30 4325 C 465.37 0.029479 2.02479 0
M  V30 4326 C 465.698 -1.31929 1.42916 0
M  V30 4327 O 464.953 -1.87112 0.573385 0
M  V30 4328 C 465.252 -0.115927 3.57212 0
M  V30 4329 C 464.918 1.16161 4.3568 0
M  V30 4330 C 463.58 1.51168 4.56839 0
M  V30 4331 C 465.932 2.0083 4.80954 0
M  V30 4332 C 463.26 2.70696 5.2052 0
M  V30 4333 C 465.612 3.19559 5.45953 0
M  V30 4334 C 464.276 3.54882 5.65345 0
M  V30 4335 H 463.546 0.0107871 0.740921 0
M  V30 4336 H 466.193 0.725506 1.77225 0
M  V30 4337 H 464.498 -0.894902 3.81443 0
M  V30 4338 H 466.195 -0.53749 3.97381 0
M  V30 4339 H 462.785 0.879026 4.19489 0
M  V30 4340 H 466.969 1.75093 4.64388 0
M  V30 4341 H 462.225 2.98236 5.33728 0
M  V30 4342 H 466.399 3.85456 5.79997 0
M  V30 4343 H 464.026 4.47596 6.1446 0
M  V30 4344 N 465.601 -1.54893 0.290851 0
M  V30 4345 C 466.849 -1.99538 -0.320756 0
M  V30 4346 C 467.17 -1.18075 -1.55188 0
M  V30 4347 O 466.44 -0.274162 -1.93972 0
M  V30 4348 H 465.02 -0.737052 -0.121507 0
M  V30 4349 H 467.682 -1.90755 0.399832 0
M  V30 4350 H 466.778 -3.06282 -0.599802 0
M  V30 4351 N 467.08 -0.0183926 -1.57589 0
M  V30 4352 C 468.328 0.661253 -1.90976 0
M  V30 4353 C 468.649 1.73281 -0.894353 0
M  V30 4354 O 467.919 1.9579 0.0656788 0
M  V30 4355 H 466.499 0.247233 -0.704901 0
M  V30 4356 H 469.161 -0.0636639 -1.94796 0
M  V30 4357 H 468.257 1.12083 -2.9128 0
M  V30 4358 N 468.558 1.5553 0.254621 0
M  V30 4359 C 469.806 1.7665 0.981793 0
M  V30 4360 C 470.127 0.580963 1.86145 0
M  V30 4361 O 469.397 -0.403537 1.91699 0
M  V30 4362 H 467.977 0.651475 0.365498 0
M  V30 4363 H 470.639 1.92958 0.274426 0
M  V30 4364 H 469.735 2.67486 1.60802 0
M  V30 4365 N 470.036 -0.519951 1.48776 0
M  V30 4366 C 471.284 -1.2727 1.56993 0
M  V30 4367 C 471.605 -1.9339 0.25004 0
M  V30 4368 O 470.875 -1.81822 -0.729216 0
M  V30 4369 H 469.455 -0.472732 0.578389 0
M  V30 4370 H 472.117 -0.604234 1.85297 0
M  V30 4371 H 471.213 -2.04669 2.3562 0
M  V30 4372 N 471.514 -1.37532 -0.769588 0
M  V30 4373 C 472.762 -1.32597 -1.5252 0
M  V30 4374 C 473.083 0.0884294 -1.94799 0
M  V30 4375 O 472.353 1.03289 -1.66458 0
M  V30 4376 H 470.933 -0.487846 -0.565699 0
M  V30 4377 H 473.595 -1.72044 -0.915806 0
M  V30 4378 H 472.691 -1.96643 -2.42359 0
M  V30 4379 N 472.992 0.995999 -1.22138 0
M  V30 4380 C 473.955 2.06711 -0.990109 0
M  V30 4381 C 474.955 1.60744 0.0422978 0
M  V30 4382 O 476.145 1.73095 -0.195895 0
M  V30 4383 C 473.277 3.37288 -0.49491 0
M  V30 4384 H 474.47 2.28661 -1.94047 0
M  V30 4385 H 472.023 1.16711 -1.03963 0
M  V30 4386 H 472.758 3.21022 0.459948 0
M  V30 4387 H 472.543 3.71986 -1.23971 0
M  V30 4388 H 474.033 4.16103 -0.353253 0
M  V30 4389 N 474.47 1.03057 1.19235 0
M  V30 4390 C 475.71 0.736757 1.9066 0
M  V30 4391 C 476.074 -0.721521 1.77927 0
M  V30 4392 O 477.275 -1.12849 2.43964 0
M  V30 4393 C 475.546 1.17755 3.37444 0
M  V30 4394 S 477.105 1.00783 4.27069 0
M  V30 4395 H 473.923 0.268174 0.658486 0
M  V30 4396 H 476.525 1.32076 1.4414 0
M  V30 4397 H 475.229 2.23448 3.44237 0
M  V30 4398 H 474.76 0.586912 3.88997 0
M  V30 4399 H 476.775 -0.0806356 4.96134 0
M  V30 4400 N 475.948 -1.35272 0.808662 0
M  V30 4401 C 477.176 -2.02946 0.402537 0
M  V30 4402 C 477.591 -1.60937 -0.987147 0
M  V30 4403 O 476.948 -0.807917 -1.63643 0
M  V30 4404 C 476.999 -3.58317 0.47868 0
M  V30 4405 O 476.72 -3.98799 1.81358 0
M  V30 4406 C 478.221 -4.43251 0.0656281 0
M  V30 4407 H 475.441 -0.650831 0.163279 0
M  V30 4408 H 477.985 -1.72849 1.09286 0
M  V30 4409 H 476.14 -3.87055 -0.163415 0
M  V30 4410 H 476.554 -4.93451 1.77781 0
M  V30 4411 H 478.028 -5.51738 0.170017 0
M  V30 4412 H 478.505 -4.27913 -0.989278 0
M  V30 4413 H 479.111 -4.19813 0.68096 0
M  V30 4414 N 477.426 -0.562348 -1.47226 0
M  V30 4415 C 478.389 0.172056 -2.28553 0
M  V30 4416 C 479.389 0.837928 -1.37242 0
M  V30 4417 O 480.579 0.693001 -1.59822 0
M  V30 4418 C 477.711 1.25223 -3.17068 0
M  V30 4419 H 478.904 -0.542401 -2.94954 0
M  V30 4420 H 476.457 -0.319493 -1.53 0
M  V30 4421 H 477.192 1.99892 -2.55369 0
M  V30 4422 H 476.977 0.779515 -3.84273 0
M  V30 4423 H 478.467 1.76791 -3.78332 0
M  V30 4424 N 478.904 1.54736 -0.299062 0
M  V30 4425 C 480.152 1.99706 0.31017 0
M  V30 4426 C 480.473 1.18896 1.54559 0
M  V30 4427 O 479.743 0.284445 1.93824 0
M  V30 4428 H 478.323 0.737686 0.117596 0
M  V30 4429 H 480.985 1.9054 -0.409943 0
M  V30 4430 H 480.081 3.06596 0.58355 0
M  V30 4431 N 480.382 0.0267497 1.57577 0
M  V30 4432 C 481.63 -0.651116 1.91324 0
M  V30 4433 C 481.951 -1.72804 0.90353 0
M  V30 4434 O 481.221 -1.95822 -0.0552946 0
M  V30 4435 H 479.801 -0.243491 0.706202 0
M  V30 4436 H 482.463 0.0739935 1.94759 0
M  V30 4437 H 481.559 -1.10536 2.9187 0
M  V30 4438 N 481.861 -1.55662 -0.24637 0
M  V30 4439 C 483.109 -1.77168 -0.972411 0
M  V30 4440 C 483.43 -0.590827 -1.85834 0
M  V30 4441 O 482.7 0.393365 -1.9191 0
M  V30 4442 H 481.28 -0.653405 -0.362038 0
M  V30 4443 H 483.942 -1.93101 -0.264189 0
M  V30 4444 H 483.038 -2.68335 -1.59382 0
M  V30 4445 N 483.339 0.512053 -1.4905 0
M  V30 4446 C 484.587 1.26436 -1.57665 0
M  V30 4447 C 484.908 1.93255 -0.260293 0
M  V30 4448 O 484.178 1.82206 0.719564 0
M  V30 4449 H 482.758 0.469658 -0.580888 0
M  V30 4450 H 485.42 0.594398 -1.85615 0
M  V30 4451 H 484.516 2.03417 -2.36702 0
M  V30 4452 N 484.817 1.37938 0.762283 0
M  V30 4453 C 486.065 1.33404 1.51815 0
M  V30 4454 C 486.386 -0.0780975 1.94844 0
M  V30 4455 O 485.656 -1.02405 1.67003 0
M  V30 4456 H 484.236 0.490839 0.563104 0
M  V30 4457 H 486.898 1.72527 0.906669 0
M  V30 4458 H 485.994 1.97926 2.41313 0
M  V30 4459 N 486.295 -0.989507 1.22664 0
M  V30 4460 C 487.543 -1.72612 1.05117 0
M  V30 4461 C 487.864 -1.90552 -0.414131 0
M  V30 4462 O 487.134 -1.4676 -1.29762 0
M  V30 4463 H 485.714 -0.639555 0.385977 0
M  V30 4464 H 488.376 -1.19158 1.54232 0
M  V30 4465 H 487.472 -2.71926 1.53175 0
M  V30 4466 N 487.773 -1.03688 -1.18687 0
M  V30 4467 C 489.003 -0.756819 -1.92239 0
M  V30 4468 C 489.411 0.689374 -1.76194 0
M  V30 4469 O 488.754 1.48126 -1.08648 0
M  V30 4470 C 488.816 -1.03851 -3.44173 0
M  V30 4471 C 488.48 -2.47785 -3.83994 0
M  V30 4472 C 489.477 -3.4595 -3.88091 0
M  V30 4473 C 487.162 -2.82397 -4.154 0
M  V30 4474 C 489.156 -4.76779 -4.23038 0
M  V30 4475 C 486.843 -4.13433 -4.50018 0
M  V30 4476 C 487.841 -5.10434 -4.53813 0
M  V30 4477 O 487.529 -6.39122 -4.87625 0
M  V30 4478 H 487.261 -0.275678 -0.617234 0
M  V30 4479 H 489.815 -1.38658 -1.51536 0
M  V30 4480 H 488.045 -0.351612 -3.85098 0
M  V30 4481 H 489.734 -0.746846 -3.9897 0
M  V30 4482 H 490.5 -3.20549 -3.63969 0
M  V30 4483 H 486.379 -2.07568 -4.11627 0
M  V30 4484 H 489.923 -5.52488 -4.25914 0
M  V30 4485 H 485.82 -4.38604 -4.736 0
M  V30 4486 H 486.588 -6.43715 -5.05542 0
M  V30 4487 N 489.251 1.34841 -0.815825 0
M  V30 4488 C 490.667 1.51543 -0.500697 0
M  V30 4489 C 490.867 1.76261 0.976444 0
M  V30 4490 O 489.923 1.8094 1.76117 0
M  V30 4491 C 491.236 2.68487 -1.35407 0
M  V30 4492 C 492.784 2.82368 -1.35046 0
M  V30 4493 C 493.259 4.02347 -2.18816 0
M  V30 4494 N 494.75 4.09542 -2.16402 0
M  V30 4495 C 495.485 5.01517 -2.77971 0
M  V30 4496 N 494.981 5.98763 -3.48503 0
M  V30 4497 N 496.774 4.94334 -2.67563 0
M  V30 4498 H 488.925 1.17055 -1.77234 0
M  V30 4499 H 491.188 0.573481 -0.754866 0
M  V30 4500 H 490.894 2.56829 -2.40274 0
M  V30 4501 H 490.768 3.63321 -1.01377 0
M  V30 4502 H 493.155 2.93471 -0.309604 0
M  V30 4503 H 493.236 1.88363 -1.73069 0
M  V30 4504 H 492.88 3.92004 -3.22948 0
M  V30 4505 H 492.81 4.95551 -1.78148 0
M  V30 4506 H 495.301 3.39932 -1.65091 0
M  V30 4507 H 495.614 6.6556 -3.92747 0
M  V30 4508 H 493.959 5.98909 -3.52609 0
M  V30 4509 H 497.15 4.1732 -2.12041 0
M  V30 4510 H 497.323 5.6582 -3.15834 0
M  V30 4511 N 490.729 0.570148 1.46925 0
M  V30 4512 C 491.977 0.0508523 2.02036 0
M  V30 4513 C 492.298 -1.30885 1.44548 0
M  V30 4514 O 491.568 -1.85647 0.625453 0
M  V30 4515 H 490.148 0.0158088 0.746833 0
M  V30 4516 H 492.81 0.743086 1.80178 0
M  V30 4517 H 491.906 -0.027575 3.12088 0
M  V30 4518 N 492.207 -1.54576 0.307264 0
M  V30 4519 C 493.455 -1.99867 -0.299574 0
M  V30 4520 C 493.776 -1.19714 -1.53927 0
M  V30 4521 O 493.046 -0.29472 -1.9367 0
M  V30 4522 H 491.626 -0.738299 -0.113683 0
M  V30 4523 H 494.288 -1.9032 0.420042 0
M  V30 4524 H 493.384 -3.06901 -0.567283 0
M  V30 4525 N 493.685 -0.035106 -1.57561 0
M  V30 4526 C 494.962 0.681212 -1.83354 0
M  V30 4527 C 495.342 1.89986 -0.920252 0
M  V30 4528 O 494.69 2.28489 0.0226815 0
M  V30 4529 C 494.9 1.05376 -3.32712 0
M  V30 4530 C 496.248 1.44286 -3.99333 0
M  V30 4531 O 497.272 1.14656 -3.37242 0
M  V30 4532 O 496.131 1.99518 -5.08778 0
M  V30 4533 H 493.225 0.334741 -0.756226 0
M  V30 4534 H 495.771 -0.0632448 -1.69582 0
M  V30 4535 H 494.543 0.186668 -3.90854 0
M  V30 4536 H 494.166 1.85619 -3.51613 0
M  V30 4537 N 495.163 1.55791 0.238111 0
M  V30 4538 C 496.126 1.90239 1.27835 0
M  V30 4539 C 497.126 0.779552 1.4064 0
M  V30 4540 O 498.316 1.04747 1.3919 0
M  V30 4541 C 495.448 2.13859 2.65475 0
M  V30 4542 H 496.641 2.83262 0.985034 0
M  V30 4543 H 494.194 1.48818 0.477799 0
M  V30 4544 H 494.929 1.23334 2.99932 0
M  V30 4545 H 494.714 2.95643 2.57561 0
M  V30 4546 H 496.204 2.41664 3.40571 0
M  V30 4547 N 496.642 -0.504142 1.49319 0
M  V30 4548 C 497.867 -1.28729 1.62615 0
M  V30 4549 C 498.292 -1.85752 0.296309 0
M  V30 4550 O 497.65 -1.65704 -0.735649 0
M  V30 4551 C 497.698 -2.39561 2.69524 0
M  V30 4552 O 496.802 -3.43324 2.28478 0
M  V30 4553 H 496.143 -0.380172 0.544395 0
M  V30 4554 H 498.673 -0.603872 1.95485 0
M  V30 4555 H 498.683 -2.8537 2.91595 0
M  V30 4556 H 497.358 -1.97423 3.66056 0
M  V30 4557 H 495.935 -3.03455 2.16725 0
M  V30 4558 N 498.12 -1.38341 -0.754957 0
M  V30 4559 C 499.03 -1.3769 -1.89944 0
M  V30 4560 C 500.046 -0.274194 -1.71826 0
M  V30 4561 O 501.222 -0.512391 -1.94773 0
M  V30 4562 C 498.287 -1.19938 -3.25293 0
M  V30 4563 C 497.348 -2.40001 -3.55946 0
M  V30 4564 C 496.581 -2.23087 -4.84838 0
M  V30 4565 O 496.804 -1.22386 -5.57116 0
M  V30 4566 O 495.738 -3.11646 -5.14937 0
M  V30 4567 H 499.564 -2.3412 -1.93446 0
M  V30 4568 H 497.149 -1.19246 -0.900044 0
M  V30 4569 H 499.031 -1.12093 -4.06218 0
M  V30 4570 H 497.706 -0.265919 -3.22606 0
M  V30 4571 H 496.613 -2.53421 -2.75188 0
M  V30 4572 H 497.946 -3.31973 -3.63394 0
M  V30 4573 N 499.598 0.982988 -1.23187 0
M  V30 4574 C 500.826 1.75921 -1.08901 0
M  V30 4575 C 501.241 1.85341 0.359719 0
M  V30 4576 O 500.598 1.33072 1.24892 0
M  V30 4577 C 500.649 3.18742 -1.70545 0
M  V30 4578 O 500.37 3.09814 -3.09753 0
M  V30 4579 C 501.871 4.1277 -1.61667 0
M  V30 4580 H 499.091 0.552166 -0.381252 0
M  V30 4581 H 501.635 1.23516 -1.62985 0
M  V30 4582 H 499.79 3.68182 -1.20501 0
M  V30 4583 H 500.204 3.99703 -3.39614 0
M  V30 4584 H 501.678 5.10697 -2.09506 0
M  V30 4585 H 502.155 4.3542 -0.575009 0
M  V30 4586 H 502.761 3.69232 -2.11064 0
M  V30 4587 N 501.076 1.04316 1.18135 0
M  V30 4588 C 502.353 0.662166 1.84051 0
M  V30 4589 C 502.733 -0.858169 1.9287 0
M  V30 4590 O 502.081 -1.76062 1.45652 0
M  V30 4591 C 502.291 1.3409 3.22212 0
M  V30 4592 C 503.639 1.4733 3.9822 0
M  V30 4593 O 504.663 1.29921 3.31661 0
M  V30 4594 O 503.522 1.75722 5.17479 0
M  V30 4595 H 500.616 0.232005 0.79379 0
M  V30 4596 H 503.162 1.1422 1.25506 0
M  V30 4597 H 501.934 2.37853 3.10711 0
M  V30 4598 H 501.557 0.849649 3.88416 0
M  V30 4599 N 502.554 -1.34406 0.822964 0
M  V30 4600 C 503.502 -2.31428 0.233165 0
M  V30 4601 C 504.496 -1.57404 -0.626118 0
M  V30 4602 O 505.702 -1.72402 -0.517453 0
M  V30 4603 H 502.077 -0.749863 0.0566557 0
M  V30 4604 H 504.048 -2.78699 1.06628 0
M  V30 4605 C 502.797 -3.42653 -0.590264 0
M  V30 4606 H 502.12 -3.99753 0.0616129 0
M  V30 4607 H 503.56 -4.12778 -0.969054 0
M  V30 4608 C 502.019 -2.87112 -1.76262 0
M  V30 4609 O 502.549 -2.81995 -2.8608 0
M  V30 4610 N 500.755 -2.43934 -1.57938 0
M  V30 4611 H 500.302 -2.48296 -0.686078 0
M  V30 4612 H 500.26 -2.07123 -2.36532 0
M  V30 4613 N 504.032 -0.577932 -1.46621 0
M  V30 4614 C 504.962 0.145917 -2.33044 0
M  V30 4615 C 505.943 0.888412 -1.45056 0
M  V30 4616 O 507.128 0.864812 -1.73881 0
M  V30 4617 C 504.258 1.16322 -3.27241 0
M  V30 4618 C 503.212 0.535868 -4.24632 0
M  V30 4619 C 502.538 1.65929 -5.08303 0
M  V30 4620 C 503.838 -0.523861 -5.19666 0
M  V30 4621 H 505.532 -0.575636 -2.93814 0
M  V30 4622 H 503.078 -0.278272 -1.41286 0
M  V30 4623 H 505.031 1.67793 -3.86553 0
M  V30 4624 H 503.755 1.91498 -2.64567 0
M  V30 4625 H 502.414 0.0422759 -3.66576 0
M  V30 4626 H 502.062 2.40061 -4.42018 0
M  V30 4627 H 501.762 1.2452 -5.74255 0
M  V30 4628 H 503.286 2.17686 -5.70478 0
M  V30 4629 H 504.7 -0.0944059 -5.73222 0
M  V30 4630 H 503.097 -0.858 -5.93935 0
M  V30 4631 H 504.167 -1.41197 -4.63887 0
M  V30 4632 N 505.51 1.54411 -0.315457 0
M  V30 4633 C 506.756 2.01425 0.282775 0
M  V30 4634 C 507.111 1.19978 1.5041 0
M  V30 4635 O 506.404 0.271766 1.89663 0
M  V30 4636 C 506.598 3.50936 0.676652 0
M  V30 4637 C 506.427 4.46856 -0.504954 0
M  V30 4638 C 505.197 4.95275 -1.00152 0
M  V30 4639 C 507.395 4.96141 -1.35456 0
M  V30 4640 N 505.377 5.75081 -2.14838 0
M  V30 4641 C 506.748 5.73791 -2.3487 0
M  V30 4642 C 508.803 4.78299 -1.38327 0
M  V30 4643 C 507.506 6.35498 -3.36949 0
M  V30 4644 C 509.532 5.40836 -2.39271 0
M  V30 4645 C 508.894 6.1833 -3.37413 0
M  V30 4646 H 504.993 0.779078 0.0675398 0
M  V30 4647 H 507.577 1.8946 -0.448656 0
M  V30 4648 H 505.748 3.63162 1.37723 0
M  V30 4649 H 507.48 3.84728 1.25566 0
M  V30 4650 H 504.235 4.70107 -0.574123 0
M  V30 4651 H 504.659 6.19664 -2.72665 0
M  V30 4652 H 509.301 4.17956 -0.638196 0
M  V30 4653 H 507.019 6.94967 -4.12367 0
M  V30 4654 H 510.605 5.28952 -2.42284 0
M  V30 4655 H 509.485 6.65861 -4.14244 0
M  V30 4656 N 506.988 0.0434614 1.5754 0
M  V30 4657 C 507.951 -0.918696 2.09982 0
M  V30 4658 C 508.951 -1.24488 1.01781 0
M  V30 4659 O 510.141 -1.18284 1.27885 0
M  V30 4660 C 507.273 -2.23093 2.57764 0
M  V30 4661 H 508.466 -0.464229 2.96285 0
M  V30 4662 H 506.019 -0.204818 1.54952 0
M  V30 4663 H 506.754 -2.73137 1.74832 0
M  V30 4664 H 506.539 -2.00724 3.36827 0
M  V30 4665 H 508.029 -2.92028 2.98512 0
M  V30 4666 N 508.466 -1.55915 -0.229846 0
M  V30 4667 C 509.743 -1.6932 -0.979295 0
M  V30 4668 C 510.123 -0.588321 -2.02736 0
M  V30 4669 O 509.471 0.40586 -2.24867 0
M  V30 4670 C 509.681 -3.10305 -1.59724 0
M  V30 4671 C 511.029 -3.6945 -2.09264 0
M  V30 4672 O 512.053 -3.13214 -1.69633 0
M  V30 4673 O 510.912 -4.68072 -2.82082 0
M  V30 4674 H 508.006 -0.689314 -0.456919 0
M  V30 4675 H 510.552 -1.68238 -0.222283 0
M  V30 4676 H 509.324 -3.82177 -0.840039 0
M  V30 4677 H 508.947 -3.1547 -2.42001 0
M  V30 4678 N 509.944 0.496216 -1.49584 0
M  V30 4679 C 511.192 1.24756 -1.58998 0
M  V30 4680 C 511.513 1.92968 -0.280775 0
M  V30 4681 O 510.783 1.82959 0.700198 0
M  V30 4682 H 509.363 0.463471 -0.585836 0
M  V30 4683 H 512.025 0.574678 -1.86235 0
M  V30 4684 H 511.121 2.00895 -2.38847 0
M  V30 4685 N 511.423 1.38739 0.74761 0
M  V30 4686 C 512.333 1.38696 1.89211 0
M  V30 4687 C 513.349 0.283303 1.71678 0
M  V30 4688 O 514.525 0.522713 1.94498 0
M  V30 4689 C 511.59 1.21662 3.24653 0
M  V30 4690 C 510.651 2.41886 3.54669 0
M  V30 4691 C 509.884 2.25655 4.83648 0
M  V30 4692 O 510.107 1.25339 5.56459 0
M  V30 4693 O 509.041 3.14372 5.13277 0
M  V30 4694 H 512.867 2.35143 1.92202 0
M  V30 4695 H 510.452 1.19721 0.893708 0
M  V30 4696 H 512.334 1.14246 4.05618 0
M  V30 4697 H 511.009 0.283024 3.2246 0
M  V30 4698 H 509.916 2.54877 2.73841 0
M  V30 4699 H 511.249 3.33895 3.61628 0
M  V30 4700 N 512.901 -0.976442 1.23707 0
M  V30 4701 C 514.178 -1.69296 0.979699 0
M  V30 4702 C 514.558 -2.0508 -0.500555 0
M  V30 4703 O 513.906 -1.74708 -1.47273 0
M  V30 4704 C 514.116 -2.93143 1.89389 0
M  V30 4705 C 515.464 -3.65572 2.15968 0
M  V30 4706 O 516.488 -3.03184 1.86971 0
M  V30 4707 O 515.347 -4.77859 2.65167 0
M  V30 4708 H 512.441 -0.739708 0.369812 0
M  V30 4709 H 514.987 -1.03131 1.34767 0
M  V30 4710 H 513.759 -2.63327 2.89439 0
M  V30 4711 H 513.382 -3.67044 1.52854 0
M  V30 4712 N 514.379 -1.04941 -1.1758 0
M  V30 4713 C 515.627 -0.756492 -1.87408 0
M  V30 4714 C 515.948 0.718478 -1.81281 0
M  V30 4715 O 515.218 1.519 -1.23706 0
M  V30 4716 H 513.798 -0.276841 -0.693807 0
M  V30 4717 H 516.46 -1.32803 -1.42652 0
M  V30 4718 H 515.556 -1.06918 -2.93215 0
M  V30 4719 N 515.857 1.33968 -0.830081 0
M  V30 4720 C 517.103 1.98357 -0.422191 0
M  V30 4721 C 517.436 1.65633 1.01387 0
M  V30 4722 O 516.711 0.931648 1.70735 0
M  V30 4723 C 516.994 3.54492 -0.633043 0
M  V30 4724 C 516.847 3.96934 -2.11574 0
M  V30 4725 C 518.166 4.40039 -0.0735584 0
M  V30 4726 H 515.285 0.720544 -0.154871 0
M  V30 4727 H 517.927 1.58749 -1.04397 0
M  V30 4728 H 516.077 3.88361 -0.103775 0
M  V30 4729 H 517.749 3.73363 -2.7092 0
M  V30 4730 H 515.992 3.46984 -2.60354 0
M  V30 4731 H 516.663 5.05651 -2.21406 0
M  V30 4732 H 519.139 4.12764 -0.52585 0
M  V30 4733 H 518.015 5.48327 -0.250841 0
M  V30 4734 H 518.276 4.30124 1.02202 0
M  V30 4735 N 517.335 0.585699 1.46312 0
M  V30 4736 C 518.56 0.0762461 2.0726 0
M  V30 4737 C 518.985 -1.22071 1.43109 0
M  V30 4738 O 518.343 -1.73804 0.515942 0
M  V30 4739 C 518.391 -0.0729404 3.60526 0
M  V30 4740 O 517.495 -1.1287 3.96654 0
M  V30 4741 H 516.836 0.0641558 0.660893 0
M  V30 4742 H 519.366 0.809492 1.87905 0
M  V30 4743 H 519.376 -0.278158 4.07051 0
M  V30 4744 H 518.051 0.874188 4.06609 0
M  V30 4745 H 516.628 -0.901703 3.61834 0
M  V30 4746 N 518.813 -1.54241 0.323641 0
M  V30 4747 C 520.06 -2.0057 -0.27891 0
M  V30 4748 C 520.388 -1.21181 -1.52136 0
M  V30 4749 O 519.643 -0.282043 -1.93657 0
M  V30 4750 C 519.942 -3.5129 -0.658031 0
M  V30 4751 C 519.608 -4.48281 0.485252 0
M  V30 4752 C 518.27 -4.74519 0.799055 0
M  V30 4753 C 520.622 -5.05909 1.25322 0
M  V30 4754 C 517.95 -5.55643 1.88354 0
M  V30 4755 C 520.302 -5.88215 2.32779 0
M  V30 4756 C 518.966 -6.12755 2.64741 0
M  V30 4757 H 518.236 -0.733938 -0.10206 0
M  V30 4758 H 520.883 -1.862 0.447435 0
M  V30 4759 H 519.188 -3.63388 -1.4648 0
M  V30 4760 H 520.885 -3.84578 -1.1358 0
M  V30 4761 H 517.475 -4.27979 0.230593 0
M  V30 4762 H 521.659 -4.8562 1.02404 0
M  V30 4763 H 516.915 -5.72888 2.13564 0
M  V30 4764 H 521.089 -6.31888 2.92729 0
M  V30 4765 H 518.716 -6.75404 3.48904 0
M  V30 4766 N 520.291 -0.0518155 -1.57515 0
M  V30 4767 C 521.54 0.621286 -1.91893 0
M  V30 4768 C 521.853 1.71966 -0.932052 0
M  V30 4769 O 523.059 2.45096 -1.16791 0
M  V30 4770 C 521.515 1.15641 -3.40816 0
M  V30 4771 C 521.123 0.0901146 -4.47909 0
M  V30 4772 C 522.867 1.80472 -3.84227 0
M  V30 4773 C 520.774 0.638154 -5.87947 0
M  V30 4774 H 519.704 0.235835 -0.716169 0
M  V30 4775 H 522.355 -0.120809 -1.83102 0
M  V30 4776 H 520.737 1.95084 -3.44613 0
M  V30 4777 H 521.911 -0.683525 -4.55702 0
M  V30 4778 H 520.226 -0.460774 -4.13843 0
M  V30 4779 H 522.823 2.22471 -4.86221 0
M  V30 4780 H 523.166 2.65669 -3.20508 0
M  V30 4781 H 523.699 1.07683 -3.82948 0
M  V30 4782 H 520.438 -0.176202 -6.55263 0
M  V30 4783 H 519.958 1.37976 -5.83714 0
M  V30 4784 H 521.637 1.12085 -6.37217 0
M  V30 4785 N 521.769 1.56035 0.221574 0
M  V30 4786 C 522.719 1.8881 1.27807 0
M  V30 4787 C 523.703 0.751177 1.42289 0
M  V30 4788 O 524.895 1.01359 1.45104 0
M  V30 4789 C 522.024 2.20828 2.6285 0
M  V30 4790 C 521.11 3.40912 2.52269 0
M  V30 4791 N 521.501 4.59531 2.1134 0
M  V30 4792 C 519.799 3.44526 2.83228 0
M  V30 4793 C 520.5 5.41689 2.1201 0
M  V30 4794 N 519.476 4.814 2.52497 0
M  V30 4795 H 523.278 2.78036 0.952529 0
M  V30 4796 H 520.792 1.566 0.430134 0
M  V30 4797 H 522.789 2.42483 3.39127 0
M  V30 4798 H 521.449 1.32914 2.9625 0
M  V30 4799 H 522.46 4.8469 1.82472 0
M  V30 4800 H 519.137 2.66956 3.21 0
M  V30 4801 H 520.527 6.46643 1.82491 0
M  V30 4802 N 523.247 -0.488276 1.49845 0
M  V30 4803 C 524.658 -1.06955 1.53028 0
M  V30 4804 C 525.009 -1.9351 0.323797 0
M  V30 4805 O 524.134 -2.08891 -0.565116 0
M  V30 4806 C 524.729 -1.94643 2.77307 0
M  V30 4807 C 523.288 -2.4791 2.83227 0
M  V30 4808 C 522.435 -1.25833 2.47106 0
M  V30 4809 H 525.386 -0.271626 1.56358 0
M  V30 4810 H 525.407 -2.79496 2.5819 0
M  V30 4811 H 524.919 -1.31621 3.65099 0
M  V30 4812 H 523.02 -3.14535 1.99745 0
M  V30 4813 H 523.133 -2.84193 3.85709 0
M  V30 4814 H 521.497 -1.58764 1.99163 0
M  V30 4815 H 522.28 -0.644993 3.37186 0
M  V30 4816 N 524.725 -1.39134 -0.740242 0
M  V30 4817 C 525.95 -1.39518 -1.53459 0
M  V30 4818 C 526.375 0.00968883 -1.88098 0
M  V30 4819 O 525.733 0.995312 -1.51536 0
M  V30 4820 C 525.781 -2.26981 -2.802 0
M  V30 4821 O 524.885 -1.69609 -3.75908 0
M  V30 4822 H 524.226 -0.475328 -0.463637 0
M  V30 4823 H 526.756 -1.83064 -0.913717 0
M  V30 4824 H 526.766 -2.41309 -3.28989 0
M  V30 4825 H 525.441 -3.29081 -2.5432 0
M  V30 4826 H 524.018 -1.64495 -3.34658 0
M  V30 4827 N 526.204 0.969867 -1.24223 0
M  V30 4828 C 527.429 1.75289 -1.10853 0
M  V30 4829 C 527.854 1.85091 0.335079 0
M  V30 4830 O 527.212 1.32024 1.24255 0
M  V30 4831 C 527.26 3.15255 -1.75062 0
M  V30 4832 O 526.364 3.99589 -1.01992 0
M  V30 4833 H 525.705 0.538904 -0.387915 0
M  V30 4834 H 528.235 1.21675 -1.64488 0
M  V30 4835 H 528.245 3.65787 -1.80731 0
M  V30 4836 H 526.92 3.07436 -2.801 0
M  V30 4837 H 525.497 3.58077 -1.04094 0
M  V30 4838 N 527.682 1.05563 1.17022 0
M  V30 4839 C 528.592 0.670758 2.24807 0
M  V30 4840 C 529.608 -0.309865 1.71219 0
M  V30 4841 O 530.784 -0.161025 2.00755 0
M  V30 4842 C 527.849 0.055337 3.46656 0
M  V30 4843 C 526.91 1.08688 4.15314 0
M  V30 4844 C 526.143 0.500736 5.31346 0
M  V30 4845 O 526.366 -0.688718 5.66227 0
M  V30 4846 O 525.3 1.23683 5.89055 0
M  V30 4847 H 529.126 1.56914 2.60023 0
M  V30 4848 H 526.711 0.827428 1.24395 0
M  V30 4849 H 528.593 -0.286492 4.20425 0
M  V30 4850 H 527.268 -0.816638 3.13229 0
M  V30 4851 H 526.175 1.48077 3.43546 0
M  V30 4852 H 527.508 1.93014 4.52777 0
M  V30 4853 N 529.16 -1.33526 0.837174 0
M  V30 4854 C 530.09 -2.31764 0.284206 0
M  V30 4855 C 531.071 -1.58896 -0.607142 0
M  V30 4856 O 532.256 -1.86798 -0.531047 0
M  V30 4857 C 529.386 -3.43029 -0.542962 0
M  V30 4858 C 528.34 -4.27255 0.252451 0
M  V30 4859 C 527.666 -5.3012 -0.69836 0
M  V30 4860 C 528.966 -5.01229 1.46858 0
M  V30 4861 H 530.66 -2.78262 1.10502 0
M  V30 4862 H 528.206 -1.3378 0.532812 0
M  V30 4863 H 530.159 -4.1078 -0.940096 0
M  V30 4864 H 528.883 -2.95216 -1.39697 0
M  V30 4865 H 527.542 -3.61127 0.631124 0
M  V30 4866 H 527.19 -4.78564 -1.54872 0
M  V30 4867 H 526.89 -5.87353 -0.170274 0
M  V30 4868 H 528.414 -6.00737 -1.09305 0
M  V30 4869 H 529.828 -5.61756 1.14469 0
M  V30 4870 H 528.225 -5.68104 1.93333 0
M  V30 4871 H 529.295 -4.301 2.23924 0
M  V30 4872 N 530.638 -0.59345 -1.46 0
M  V30 4873 C 531.885 -0.0831523 -2.02329 0
M  V30 4874 C 532.213 1.28093 -1.46364 0
M  V30 4875 O 531.468 1.85526 -0.622793 0
M  V30 4876 C 531.767 0.021178 -3.57394 0
M  V30 4877 C 531.433 -1.27671 -4.32448 0
M  V30 4878 C 530.095 -1.63227 -4.5267 0
M  V30 4879 C 532.447 -2.13511 -4.7546 0
M  V30 4880 C 529.775 -2.84401 -5.1316 0
M  V30 4881 C 532.127 -3.33922 -5.37289 0
M  V30 4882 C 530.791 -3.69747 -5.55737 0
M  V30 4883 H 530.061 -0.0304276 -0.740375 0
M  V30 4884 H 532.708 -0.772239 -1.75239 0
M  V30 4885 H 531.013 0.793454 -3.83682 0
M  V30 4886 H 532.71 0.431942 -3.98667 0
M  V30 4887 H 529.3 -0.989937 -4.17011 0
M  V30 4888 H 533.484 -1.87344 -4.59582 0
M  V30 4889 H 528.74 -3.12282 -5.25633 0
M  V30 4890 H 532.914 -4.00698 -5.69574 0
M  V30 4891 H 530.541 -4.6373 -6.02377 0
M  V30 4892 N 532.116 1.54067 -0.331816 0
M  V30 4893 C 533.046 2.27569 0.522932 0
M  V30 4894 C 534.027 1.28679 1.11247 0
M  V30 4895 O 535.212 1.57504 1.13605 0
M  V30 4896 C 532.342 3.0397 1.67987 0
M  V30 4897 C 531.296 4.10267 1.21924 0
M  V30 4898 C 530.622 4.74555 2.46377 0
M  V30 4899 C 531.922 5.21268 0.32815 0
M  V30 4900 H 533.616 2.99264 -0.0901977 0
M  V30 4901 H 531.162 1.4393 -0.044821 0
M  V30 4902 H 533.115 3.54123 2.28418 0
M  V30 4903 H 531.839 2.29906 2.31971 0
M  V30 4904 H 530.498 3.61009 0.637809 0
M  V30 4905 H 530.146 3.97098 3.08743 0
M  V30 4906 H 529.846 5.46363 2.16243 0
M  V30 4907 H 531.37 5.27487 3.07555 0
M  V30 4908 H 532.784 5.67128 0.838978 0
M  V30 4909 H 531.181 5.99982 0.119228 0
M  V30 4910 H 532.251 4.80673 -0.638839 0
M  V30 4911 N 533.594 0.0601682 1.57485 0
M  V30 4912 C 534.526 -0.94047 2.09016 0
M  V30 4913 C 535.539 -1.26897 1.01985 0
M  V30 4914 O 536.728 -1.22819 1.29529 0
M  V30 4915 C 533.828 -2.25955 2.52582 0
M  V30 4916 C 533.001 -2.11163 3.83052 0
M  V30 4917 C 532.06 -3.26273 4.12835 0
M  V30 4918 O 531.086 -3.01779 4.82616 0
M  V30 4919 N 532.288 -4.51022 3.65458 0
M  V30 4920 H 535.053 -0.500578 2.9549 0
M  V30 4921 H 532.614 -0.125852 1.6141 0
M  V30 4922 H 534.606 -3.01846 2.69575 0
M  V30 4923 H 533.176 -2.61481 1.71308 0
M  V30 4924 H 532.396 -1.19808 3.75552 0
M  V30 4925 H 533.684 -1.98517 4.68475 0
M  V30 4926 H 533.082 -4.73811 3.09062 0
M  V30 4927 H 531.639 -5.23978 3.87673 0
M  V30 4928 N 535.072 -1.5615 -0.213296 0
M  V30 4929 C 536.483 -1.69645 -0.779582 0
M  V30 4930 C 536.834 -0.663615 -1.84636 0
M  V30 4931 O 535.959 0.183633 -2.15619 0
M  V30 4932 C 536.554 -3.07567 -1.42084 0
M  V30 4933 C 535.113 -3.22889 -1.93442 0
M  V30 4934 C 534.26 -2.65581 -0.797612 0
M  V30 4935 H 537.211 -1.58696 0.0114951 0
M  V30 4936 H 537.232 -3.03884 -2.28986 0
M  V30 4937 H 536.744 -3.82716 -0.644187 0
M  V30 4938 H 534.845 -2.52623 -2.73884 0
M  V30 4939 H 534.958 -4.30197 -2.10872 0
M  V30 4940 H 533.322 -2.24278 -1.20712 0
M  V30 4941 H 534.105 -3.43284 -0.033494 0
M  V30 4942 N 536.55 0.480323 -1.50102 0
M  V30 4943 C 537.48 1.58769 -1.71215 0
M  V30 4944 C 538.461 1.60583 -0.560997 0
M  V30 4945 O 539.646 1.76996 -0.799127 0
M  V30 4946 C 536.776 2.97148 -1.79778 0
M  V30 4947 C 535.73 3.10201 -2.94888 0
M  V30 4948 C 535.056 4.50137 -2.88584 0
M  V30 4949 C 536.356 2.88283 -4.35534 0
M  V30 4950 H 538.05 1.41354 -2.6393 0
M  V30 4951 H 535.596 0.678591 -1.27008 0
M  V30 4952 H 537.549 3.74536 -1.93133 0
M  V30 4953 H 536.273 3.15699 -0.836772 0
M  V30 4954 H 534.932 2.35244 -2.81169 0
M  V30 4955 H 534.58 4.65593 -1.90349 0
M  V30 4956 H 534.28 4.59808 -3.65856 0
M  V30 4957 H 535.804 5.29558 -3.03976 0
M  V30 4958 H 537.218 3.55427 -4.49827 0
M  V30 4959 H 535.615 3.09408 -5.14186 0
M  V30 4960 H 536.685 1.84219 -4.48544 0
M  V30 4961 N 538.028 1.39524 0.732853 0
M  V30 4962 C 538.991 1.38189 1.82857 0
M  V30 4963 C 539.991 0.278624 1.58368 0
M  V30 4964 O 541.181 0.536639 1.65728 0
M  V30 4965 C 538.313 1.15661 3.2068 0
M  V30 4966 H 539.506 2.35692 1.85444 0
M  V30 4967 H 537.059 1.2512 0.936728 0
M  V30 4968 H 537.794 0.188482 3.23752 0
M  V30 4969 H 537.579 1.95559 3.39852 0
M  V30 4970 H 539.069 1.17472 4.00737 0
M  V30 4971 N 539.506 -0.963266 1.24736 0
M  V30 4972 C 540.752 -1.70933 1.09131 0
M  V30 4973 C 541.085 -1.90676 -0.368273 0
M  V30 4974 O 540.36 -1.47147 -1.27193 0
M  V30 4975 C 540.643 -3.09744 1.83658 0
M  V30 4976 C 540.496 -2.97465 3.37394 0
M  V30 4977 C 541.815 -4.09483 1.61282 0
M  V30 4978 H 538.934 -0.620398 0.397838 0
M  V30 4979 H 541.576 -1.12028 1.53459 0
M  V30 4980 H 539.726 -3.60031 1.4598 0
M  V30 4981 H 541.398 -2.54571 3.84696 0
M  V30 4982 H 539.641 -2.33576 3.65547 0
M  V30 4983 H 540.312 -3.95822 3.84745 0
M  V30 4984 H 542.788 -3.68073 1.94066 0
M  V30 4985 H 541.664 -5.04666 2.15878 0
M  V30 4986 H 541.925 -4.38639 0.552102 0
M  V30 4987 N 540.985 -1.06182 -1.16461 0
M  V30 4988 C 542.213 -0.798583 -1.90867 0
M  V30 4989 C 542.628 0.646921 -1.77371 0
M  V30 4990 O 541.985 1.44279 -1.11758 0
M  V30 4991 C 542.036 -1.18258 -3.4161 0
M  V30 4992 O 541.757 -2.57135 -3.54701 0
M  V30 4993 C 543.258 -0.946917 -4.33069 0
M  V30 4994 H 540.478 -0.289603 -0.605286 0
M  V30 4995 H 543.022 -1.41515 -1.47627 0
M  V30 4996 H 541.177 -0.610562 -3.82558 0
M  V30 4997 H 541.591 -2.72477 -4.4817 0
M  V30 4998 H 543.065 -1.26523 -5.37304 0
M  V30 4999 H 543.542 0.117406 -4.39043 0
M  V30 5000 H 544.148 -1.50326 -3.97847 0
M  V30 5001 N 542.463 1.3308 -0.844243 0
M  V30 5002 C 543.373 2.32876 -0.283922 0
M  V30 5003 C 544.389 1.63589 0.592846 0
M  V30 5004 O 545.565 1.95205 0.495693 0
M  V30 5005 C 542.63 3.42667 0.527283 0
M  V30 5006 C 541.691 4.27664 -0.374394 0
M  V30 5007 C 540.924 5.32212 0.39819 0
M  V30 5008 O 541.147 5.46635 1.62932 0
M  V30 5009 O 540.081 6.01458 -0.2306 0
M  V30 5010 H 543.907 2.82671 -1.11045 0
M  V30 5011 H 541.492 1.36518 -0.606903 0
M  V30 5012 H 543.374 4.09652 0.988078 0
M  V30 5013 H 542.049 2.95079 1.33078 0
M  V30 5014 H 540.956 3.63526 -0.883144 0
M  V30 5015 H 542.289 4.78749 -1.1428 0
M  V30 5016 N 543.941 0.601185 1.45683 0
M  V30 5017 C 544.889 -0.133955 2.32214 0
M  V30 5018 C 545.883 -0.866034 1.45589 0
M  V30 5019 O 547.089 -0.782326 1.6211 0
M  V30 5020 H 543.464 -0.0620613 0.749435 0
M  V30 5021 H 545.435 0.614389 2.92007 0
M  V30 5022 C 544.184 -1.12216 3.29094 0
M  V30 5023 H 543.507 -0.568273 3.95741 0
M  V30 5024 H 544.947 -1.60659 3.92383 0
M  V30 5025 C 543.406 -2.19251 2.55794 0
M  V30 5026 O 543.936 -3.26894 2.33459 0
M  V30 5027 N 542.142 -1.9436 2.16039 0
M  V30 5028 H 541.689 -1.06829 2.34404 0
M  V30 5029 H 541.647 -2.66181 1.67318 0
M  V30 5030 N 545.419 -1.53889 0.339982 0
M  V30 5031 C 546.369 -2.2165 -0.534354 0
M  V30 5032 C 547.353 -1.20266 -1.06887 0
M  V30 5033 O 548.545 -1.45827 -1.00316 0
M  V30 5034 C 545.674 -2.99014 -1.68659 0
M  V30 5035 C 544.76 -4.07751 -1.16618 0
M  V30 5036 N 545.151 -5.04469 -0.366717 0
M  V30 5037 C 543.449 -4.21998 -1.4434 0
M  V30 5038 C 544.15 -5.81638 -0.0847275 0
M  V30 5039 N 543.126 -5.39388 -0.675391 0
M  V30 5040 H 546.928 -2.93781 0.0835562 0
M  V30 5041 H 544.442 -1.61736 0.146665 0
M  V30 5042 H 546.439 -3.46056 -2.32489 0
M  V30 5043 H 545.099 -2.28408 -2.30781 0
M  V30 5044 H 546.11 -5.17899 -0.00811038 0
M  V30 5045 H 542.787 -3.62612 -2.06928 0
M  V30 5046 H 544.177 -6.69563 0.559943 0
M  V30 5047 N 546.897 -0.0685191 -1.57451 0
M  V30 5048 C 548.145 0.60016 -1.92983 0
M  V30 5049 C 548.466 1.70348 -0.949028 0
M  V30 5050 O 547.736 1.959 0.00335647 0
M  V30 5051 H 546.316 0.224682 -0.712409 0
M  V30 5052 H 548.978 -0.125605 -1.94495 0
M  V30 5053 H 548.074 1.02759 -2.94698 0
M  V30 5054 N 548.375 1.56261 0.205012 0
M  V30 5055 C 549.285 1.96944 1.27476 0
M  V30 5056 C 550.301 0.875636 1.50362 0
M  V30 5057 O 551.477 1.18058 1.6317 0
M  V30 5058 C 548.542 2.29219 2.60115 0
M  V30 5059 C 547.603 3.52255 2.45387 0
M  V30 5060 C 546.836 3.8298 3.71701 0
M  V30 5061 O 547.059 3.15138 4.75441 0
M  V30 5062 O 545.993 4.76435 3.67823 0
M  V30 5063 H 549.819 2.88144 0.959527 0
M  V30 5064 H 547.404 1.43686 0.409217 0
M  V30 5065 H 549.286 2.51098 3.3842 0
M  V30 5066 H 547.961 1.4119 2.91285 0
M  V30 5067 H 546.868 3.35635 1.65227 0
M  V30 5068 H 548.201 4.40719 2.19152 0
M  V30 5069 N 549.853 -0.472356 1.50355 0
M  V30 5070 C 551.099 -1.22634 1.6152 0
M  V30 5071 C 551.432 -1.91645 0.313995 0
M  V30 5072 O 550.707 -1.82059 -0.684446 0
M  V30 5073 C 550.99 -2.27099 2.7946 0
M  V30 5074 C 550.843 -1.62402 4.19459 0
M  V30 5075 C 552.162 -3.28421 2.92964 0
M  V30 5076 H 549.281 -0.444494 0.587873 0
M  V30 5077 H 551.923 -0.520321 1.82737 0
M  V30 5078 H 550.073 -2.87314 2.61501 0
M  V30 5079 H 551.745 -1.05793 4.49005 0
M  V30 5080 H 549.988 -0.927184 4.23776 0
M  V30 5081 H 550.659 -2.38309 4.97909 0
M  V30 5082 H 553.135 -2.78227 3.09401 0
M  V30 5083 H 552.011 -3.98845 3.77113 0
M  V30 5084 H 552.272 -3.92467 2.03525 0
M  V30 5085 N 551.331 -1.39911 -0.725443 0
M  V30 5086 C 552.241 -1.41688 -1.8698 0
M  V30 5087 C 553.257 -0.310579 -1.71206 0
M  V30 5088 O 554.433 -0.55359 -1.93642 0
M  V30 5089 C 551.498 -1.26811 -3.22676 0
M  V30 5090 C 550.559 -2.47497 -3.50776 0
M  V30 5091 C 549.792 -2.3332 -4.79997 0
M  V30 5092 O 550.015 -1.34175 -5.54394 0
M  V30 5093 O 548.949 -3.22498 -5.08211 0
M  V30 5094 H 552.775 -2.38171 -1.88436 0
M  V30 5095 H 550.36 -1.21128 -0.874548 0
M  V30 5096 H 552.242 -1.20684 -4.03749 0
M  V30 5097 H 550.917 -0.334289 -3.21969 0
M  V30 5098 H 549.824 -2.59201 -2.69751 0
M  V30 5099 H 551.157 -3.39606 -3.5627 0
M  V30 5100 N 552.809 0.956637 -1.25245 0
M  V30 5101 C 554.058 1.69537 -1.0927 0
M  V30 5102 C 554.371 1.92136 0.366503 0
M  V30 5103 O 555.577 2.63687 0.64665 0
M  V30 5104 C 554.033 3.05211 -1.9072 0
M  V30 5105 C 553.641 2.90416 -3.41119 0
M  V30 5106 C 555.385 3.82882 -1.83308 0
M  V30 5107 C 553.292 4.21468 -4.14872 0
M  V30 5108 H 552.222 0.635804 -0.405302 0
M  V30 5109 H 554.873 1.06513 -1.49423 0
M  V30 5110 H 553.255 3.69128 -1.43389 0
M  V30 5111 H 554.429 2.35444 -3.9611 0
M  V30 5112 H 552.744 2.26203 -3.49602 0
M  V30 5113 H 555.341 4.79944 -2.35706 0
M  V30 5114 H 555.684 4.0853 -0.800572 0
M  V30 5115 H 556.217 3.25711 -2.28379 0
M  V30 5116 H 552.956 4.01009 -5.18529 0
M  V30 5117 H 552.476 4.76213 -3.64665 0
M  V30 5118 H 554.155 4.90022 -4.22478 0
M  V30 5119 N 554.287 1.06798 1.15896 0
M  V30 5120 C 555.703 0.792423 1.38538 0
M  V30 5121 C 555.903 -0.60592 1.92174 0
M  V30 5122 O 554.959 -1.36561 2.12385 0
M  V30 5123 C 556.272 1.86157 2.36149 0
M  V30 5124 C 557.82 1.88567 2.49823 0
M  V30 5125 C 558.295 2.9455 3.5072 0
M  V30 5126 N 559.786 2.93616 3.58251 0
M  V30 5127 C 560.521 3.72267 4.36125 0
M  V30 5128 N 560.017 4.60751 5.17379 0
M  V30 5129 N 561.81 3.60637 4.31158 0
M  V30 5130 H 553.961 1.96993 0.794198 0
M  V30 5131 H 556.224 0.853942 0.411688 0
M  V30 5132 H 555.93 2.86603 2.03843 0
M  V30 5133 H 555.804 1.71692 3.3586 0
M  V30 5134 H 558.191 0.887765 2.8143 0
M  V30 5135 H 558.272 2.0711 1.5013 0
M  V30 5136 H 557.916 3.94537 3.19849 0
M  V30 5137 H 557.846 2.73255 4.50155 0
M  V30 5138 H 560.337 2.29472 3.00252 0
M  V30 5139 H 560.65 5.17408 5.74028 0
M  V30 5140 H 558.995 4.64803 5.16704 0
M  V30 5141 H 562.186 2.90892 3.66742 0
M  V30 5142 H 562.359 4.22176 4.91601 0
M  V30 5143 N 555.766 -1.3263 0.851289 0
M  V30 5144 C 557.182 -1.50162 0.5407 0
M  V30 5145 C 557.382 -1.78788 -0.929369 0
M  V30 5146 O 556.438 -1.85545 -1.71258 0
M  V30 5147 C 557.751 -2.64803 1.42478 0
M  V30 5148 C 559.299 -2.78688 1.42485 0
M  V30 5149 C 559.774 -3.96405 2.29407 0
M  V30 5150 N 561.265 -4.0366 2.27184 0
M  V30 5151 C 562 -4.93971 2.9117 0
M  V30 5152 N 561.496 -5.89313 3.64256 0
M  V30 5153 N 563.289 -4.87066 2.80576 0
M  V30 5154 H 555.44 -1.12315 1.80275 0
M  V30 5155 H 557.703 -0.553266 0.769806 0
M  V30 5156 H 557.409 -2.50368 2.46999 0
M  V30 5157 H 557.283 -3.60506 1.10974 0
M  V30 5158 H 559.67 -2.92547 0.387304 0
M  V30 5159 H 559.751 -1.83708 1.78002 0
M  V30 5160 H 559.395 -3.83304 3.33228 0
M  V30 5161 H 559.325 -4.90654 1.91224 0
M  V30 5162 H 561.816 -3.35435 1.74045 0
M  V30 5163 H 562.129 -6.54913 4.10255 0
M  V30 5164 H 560.474 -5.8935 3.68364 0
M  V30 5165 H 563.665 -4.11552 2.23031 0
M  V30 5166 H 563.838 -5.57248 3.30725 0
M  V30 5167 N 557.244 -0.608902 -1.45362 0
M  V30 5168 C 558.194 0.130616 -2.27626 0
M  V30 5169 C 559.178 0.837323 -1.37396 0
M  V30 5170 O 560.37 0.727096 -1.61376 0
M  V30 5171 C 557.499 1.12646 -3.24293 0
M  V30 5172 C 556.585 0.42052 -4.2201 0
M  V30 5173 N 556.976 -0.538569 -5.02925 0
M  V30 5174 C 555.274 0.667901 -4.40971 0
M  V30 5175 C 555.975 -0.953625 -5.7383 0
M  V30 5176 N 554.951 -0.297097 -5.42788 0
M  V30 5177 H 558.753 -0.605996 -2.87585 0
M  V30 5178 H 556.267 -0.432672 -1.5653 0
M  V30 5179 H 558.264 1.67066 -3.81961 0
M  V30 5180 H 556.924 1.86361 -2.65894 0
M  V30 5181 H 557.935 -0.915375 -5.09746 0
M  V30 5182 H 554.612 1.38963 -3.93695 0
M  V30 5183 H 556.002 -1.74473 -6.48852 0
M  V30 5184 N 558.722 1.53707 -0.348139 0
M  V30 5185 C 559.652 2.28111 0.498766 0
M  V30 5186 C 560.633 1.29851 1.09876 0
M  V30 5187 O 561.818 1.587 1.11928 0
M  V30 5188 C 558.948 3.05735 1.64753 0
M  V30 5189 C 557.902 4.11537 1.17565 0
M  V30 5190 C 557.228 4.77142 2.4133 0
M  V30 5191 C 558.528 5.21587 0.272844 0
M  V30 5192 H 560.222 2.99152 -0.121934 0
M  V30 5193 H 557.768 1.43875 -0.0600842 0
M  V30 5194 H 559.721 3.56526 2.24649 0
M  V30 5195 H 558.445 2.32354 2.2952 0
M  V30 5196 H 557.104 3.61665 0.599483 0
M  V30 5197 H 556.752 4.0035 3.04514 0
M  V30 5198 H 556.452 5.48626 2.10436 0
M  V30 5199 H 557.976 5.30719 3.01943 0
M  V30 5200 H 559.39 5.67986 0.778779 0
M  V30 5201 H 557.787 6.00074 0.0555849 0
M  V30 5202 H 558.857 4.79969 -0.689785 0
M  V30 5203 N 560.2 0.0768682 1.57412 0
M  V30 5204 C 561.148 -0.906229 2.1422 0
M  V30 5205 C 562.142 -1.30477 1.08037 0
M  V30 5206 O 563.348 -1.28143 1.2641 0
M  V30 5207 H 559.723 -0.310207 0.685037 0
M  V30 5208 H 561.694 -0.402228 2.95677 0
M  V30 5209 C 560.443 -2.16245 2.72274 0
M  V30 5210 H 559.766 -1.86463 3.53655 0
M  V30 5211 H 561.206 -2.83134 3.15613 0
M  V30 5212 C 559.665 -2.92437 1.67279 0
M  V30 5213 O 560.195 -3.86322 1.10081 0
M  V30 5214 N 558.401 -2.55637 1.38195 0
M  V30 5215 H 557.948 -1.79363 1.84897 0
M  V30 5216 H 557.906 -3.06919 0.681787 0
M  V30 5217 N 561.678 -1.56367 -0.196722 0
M  V30 5218 C 562.918 -1.82315 -0.92415 0
M  V30 5219 C 563.282 -0.654117 -1.80514 0
M  V30 5220 O 564.483 -0.79345 -2.56823 0
M  V30 5221 C 562.754 -3.13279 -1.72021 0
M  V30 5222 S 564.313 -3.60627 -2.49988 0
M  V30 5223 H 561.131 -0.639862 -0.309997 0
M  V30 5224 H 563.733 -1.94597 -0.187684 0
M  V30 5225 H 562.437 -3.96379 -1.06358 0
M  V30 5226 H 561.968 -3.03871 -2.49852 0
M  V30 5227 H 563.983 -3.25934 -3.74141 0
M  V30 5228 N 563.156 0.464375 -1.50603 0
M  V30 5229 C 564.381 1.24372 -1.65971 0
M  V30 5230 C 564.806 1.84901 -0.345453 0
M  V30 5231 O 564.164 1.67596 0.691457 0
M  V30 5232 C 564.212 2.32331 -2.7578 0
M  V30 5233 O 563.316 3.37146 -2.375 0
M  V30 5234 H 562.657 0.365604 -0.554283 0
M  V30 5235 H 565.187 0.55183 -1.97018 0
M  V30 5236 H 565.197 2.77539 -2.99059 0
M  V30 5237 H 563.872 1.87648 -3.71162 0
M  V30 5238 H 562.449 2.97602 -2.24694 0
M  V30 5239 N 564.634 1.40294 0.718013 0
M  V30 5240 C 565.584 1.36847 1.82365 0
M  V30 5241 C 566.568 0.246424 1.59002 0
M  V30 5242 O 567.76 0.485336 1.70216 0
M  V30 5243 C 564.889 1.23105 3.20469 0
M  V30 5244 C 563.975 2.4008 3.49603 0
M  V30 5245 N 564.366 3.65562 3.49568 0
M  V30 5246 C 562.664 2.33407 3.80049 0
M  V30 5247 C 563.365 4.43015 3.76978 0
M  V30 5248 N 562.341 3.72823 3.95606 0
M  V30 5249 H 566.143 2.31811 1.80668 0
M  V30 5250 H 563.657 1.34031 0.91703 0
M  V30 5251 H 565.654 1.18718 3.9964 0
M  V30 5252 H 564.314 0.291056 3.23393 0
M  V30 5253 H 565.325 3.98756 3.30476 0
M  V30 5254 H 562.002 1.47762 3.90478 0
M  V30 5255 H 563.392 5.51859 3.83276 0
M  V30 5256 N 566.112 -0.949982 1.2575 0
M  V30 5257 C 567.352 -1.70994 1.11984 0
M  V30 5258 C 567.716 -1.89095 -0.332746 0
M  V30 5259 O 568.917 -2.62192 -0.592331 0
M  V30 5260 C 567.188 -3.05286 1.85837 0
M  V30 5261 S 568.747 -3.96477 1.88019 0
M  V30 5262 H 565.565 -0.587689 0.400178 0
M  V30 5263 H 568.167 -1.13271 1.59342 0
M  V30 5264 H 566.871 -2.89785 2.90608 0
M  V30 5265 H 566.402 -3.68069 1.38885 0
M  V30 5266 H 568.417 -4.86814 0.96057 0
M  V30 5267 N 567.59 -1.07411 -1.15328 0
M  V30 5268 C 569.001 -0.820261 -1.67716 0
M  V30 5269 C 569.352 0.654539 -1.8496 0
M  V30 5270 O 568.477 1.50664 -1.55337 0
M  V30 5271 C 569.072 -1.48242 -3.04647 0
M  V30 5272 C 567.631 -1.27606 -3.5411 0
M  V30 5273 C 566.778 -1.5517 -2.29821 0
M  V30 5274 H 569.729 -1.23608 -0.995332 0
M  V30 5275 H 569.75 -0.903984 -3.69606 0
M  V30 5276 H 569.262 -2.55578 -2.92064 0
M  V30 5277 H 567.363 -0.222948 -3.71932 0
M  V30 5278 H 567.476 -1.99667 -4.35511 0
M  V30 5279 H 565.84 -0.972747 -2.35393 0
M  V30 5280 H 566.623 -2.63689 -2.19824 0
M  V30 5281 N 569.068 1.32177 -0.85831 0
M  V30 5282 C 569.998 2.31282 -0.321041 0
M  V30 5283 C 570.979 1.59841 0.581786 0
M  V30 5284 O 572.164 1.87619 0.501262 0
M  V30 5285 C 569.294 3.4385 0.48832 0
M  V30 5286 C 568.248 4.26799 -0.320391 0
M  V30 5287 C 567.574 5.31164 0.613934 0
M  V30 5288 C 568.874 4.98829 -1.54813 0
M  V30 5289 H 570.568 2.76469 -1.14915 0
M  V30 5290 H 568.114 1.32916 -0.554028 0
M  V30 5291 H 570.067 4.12224 0.874626 0
M  V30 5292 H 568.791 2.97401 1.34983 0
M  V30 5293 H 567.45 3.60077 -0.688497 0
M  V30 5294 H 567.098 4.80967 1.47239 0
M  V30 5295 H 566.798 5.8755 0.0768097 0
M  V30 5296 H 568.322 6.024 0.997336 0
M  V30 5297 H 569.736 5.59864 -1.23392 0
M  V30 5298 H 568.133 5.64957 -2.02346 0
M  V30 5299 H 569.203 4.26483 -2.30739 0
M  V30 5300 N 570.547 0.616602 1.45037 0
M  V30 5301 C 571.963 0.280994 1.57107 0
M  V30 5302 C 572.163 -1.21627 1.60653 0
M  V30 5303 O 571.219 -1.9997 1.54169 0
M  V30 5304 C 572.532 0.960116 2.8496 0
M  V30 5305 C 574.08 0.936884 2.98649 0
M  V30 5306 C 574.555 1.59619 4.29285 0
M  V30 5307 N 576.046 1.5621 4.36065 0
M  V30 5308 C 576.781 2.04131 5.35834 0
M  V30 5309 N 576.277 2.60177 6.4209 0
M  V30 5310 N 578.07 1.94845 5.27249 0
M  V30 5311 H 570.221 1.58867 1.40979 0
M  V30 5312 H 572.484 0.666024 0.674623 0
M  V30 5313 H 572.19 2.01473 2.88273 0
M  V30 5314 H 572.064 0.488921 3.74018 0
M  V30 5315 H 574.451 -0.109209 2.94898 0
M  V30 5316 H 574.532 1.44643 2.10979 0
M  V30 5317 H 574.176 2.64166 4.33796 0
M  V30 5318 H 574.106 1.06159 5.15789 0
M  V30 5319 H 576.597 1.15276 3.59889 0
M  V30 5320 H 576.91 2.94513 7.1448 0
M  V30 5321 H 575.255 2.64221 6.42816 0
M  V30 5322 H 578.446 1.50792 4.43147 0
M  V30 5323 H 578.619 2.32504 6.04852 0
M  V30 5324 N 572.025 -1.5352 0.356285 0
M  V30 5325 C 573.302 -1.93405 -0.292223 0
M  V30 5326 C 573.682 -1.28901 -1.67176 0
M  V30 5327 O 573.03 -0.444632 -2.24132 0
M  V30 5328 C 573.24 -3.47223 -0.35175 0
M  V30 5329 C 574.588 -4.20389 -0.596534 0
M  V30 5330 O 575.612 -3.53554 -0.433344 0
M  V30 5331 O 574.471 -5.3881 -0.913589 0
M  V30 5332 H 571.565 -0.808666 -0.173172 0
M  V30 5333 H 574.111 -1.64713 0.408391 0
M  V30 5334 H 572.883 -3.86423 0.615841 0
M  V30 5335 H 572.506 -3.8212 -1.09864 0
M  V30 5336 N 573.503 -0.0852151 -1.57369 0
M  V30 5337 C 574.743 0.584297 -1.95871 0
M  V30 5338 C 575.107 1.6596 -0.965473 0
M  V30 5339 O 576.308 2.38561 -1.23862 0
M  V30 5340 C 574.579 1.13411 -3.38929 0
M  V30 5341 S 576.138 1.81687 -3.99419 0
M  V30 5342 H 572.956 0.19095 -0.684879 0
M  V30 5343 H 575.558 -0.162267 -1.94825 0
M  V30 5344 H 574.262 0.339845 -4.0899 0
M  V30 5345 H 573.793 1.91672 -3.43548 0
M  V30 5346 H 575.808 3.10037 -3.87417 0
M  V30 5347 N 574.981 1.5647 0.188427 0
M  V30 5348 C 575.913 1.91611 1.25769 0
M  V30 5349 C 576.926 0.807436 1.41366 0
M  V30 5350 O 578.115 1.08586 1.41673 0
M  V30 5351 C 575.215 2.13874 2.6289 0
M  V30 5352 C 574.388 3.45047 2.68815 0
M  V30 5353 C 573.447 3.56342 3.87178 0
M  V30 5354 O 572.473 4.29109 3.73971 0
M  V30 5355 N 573.675 2.89924 5.02916 0
M  V30 5356 H 576.44 2.8393 0.959373 0
M  V30 5357 H 574.001 1.57418 0.378306 0
M  V30 5358 H 575.993 2.18713 3.4051 0
M  V30 5359 H 574.563 1.28022 2.85183 0
M  V30 5360 H 573.783 3.52017 1.77419 0
M  V30 5361 H 575.071 4.31395 2.6977 0
M  V30 5362 H 574.469 2.30644 5.16546 0
M  V30 5363 H 573.026 3.0038 5.78459 0
M  V30 5364 N 576.459 -0.456382 1.50847 0
M  V30 5365 C 577.705 -1.20618 1.63777 0
M  V30 5366 C 578.06 -1.8936 0.340677 0
M  V30 5367 O 577.353 -1.79786 -0.662378 0
M  V30 5368 C 577.547 -2.26336 2.76599 0
M  V30 5369 C 577.376 -1.67968 4.17153 0
M  V30 5370 C 576.146 -1.47293 4.83356 0
M  V30 5371 C 578.344 -1.16643 5.00898 0
M  V30 5372 N 576.326 -0.843222 6.08081 0
M  V30 5373 C 577.697 -0.660843 6.16468 0
M  V30 5374 C 579.752 -1.05637 4.86565 0
M  V30 5375 C 578.455 -0.0560365 7.19278 0
M  V30 5376 C 580.481 -0.465485 5.89565 0
M  V30 5377 C 579.843 0.0296516 7.04394 0
M  V30 5378 H 575.942 -0.429725 0.653345 0
M  V30 5379 H 578.526 -0.505784 1.88016 0
M  V30 5380 H 576.697 -2.93785 2.54056 0
M  V30 5381 H 578.429 -2.9334 2.78808 0
M  V30 5382 H 575.184 -1.72934 4.40898 0
M  V30 5383 H 575.608 -0.546357 6.74792 0
M  V30 5384 H 580.25 -1.42508 3.98059 0
M  V30 5385 H 577.968 0.324845 8.07447 0
M  V30 5386 H 581.554 -0.382493 5.80541 0
M  V30 5387 H 580.434 0.479705 7.82731 0
M  V30 5388 N 577.937 -1.40673 -0.710563 0
M  V30 5389 C 578.869 -1.37256 -1.83558 0
M  V30 5390 C 579.882 -0.277133 -1.60424 0
M  V30 5391 O 581.071 -0.537831 -1.70205 0
M  V30 5392 C 578.171 -1.1144 -3.20054 0
M  V30 5393 C 577.344 -2.32734 -3.70342 0
M  V30 5394 C 576.403 -2.03002 -4.85465 0
M  V30 5395 O 575.429 -2.75912 -4.97857 0
M  V30 5396 N 576.631 -1.01105 -5.71627 0
M  V30 5397 H 579.396 -2.34215 -1.86985 0
M  V30 5398 H 576.957 -1.35091 -0.892301 0
M  V30 5399 H 578.949 -0.895265 -3.94673 0
M  V30 5400 H 577.519 -0.231307 -3.11743 0
M  V30 5401 H 576.739 -2.70446 -2.86798 0
M  V30 5402 H 578.027 -3.13584 -4.00678 0
M  V30 5403 H 577.425 -0.407303 -5.64232 0
M  V30 5404 H 575.982 -0.85182 -6.4621 0
M  V30 5405 N 579.415 0.9433 -1.26252 0
M  V30 5406 C 580.378 2.02326 -1.07689 0
M  V30 5407 C 581.378 1.60779 -0.0259174 0
M  V30 5408 O 582.568 1.72108 -0.269134 0
M  V30 5409 C 579.7 3.34886 -0.63752 0
M  V30 5410 H 580.893 2.20225 -2.0357 0
M  V30 5411 H 578.446 1.12197 -1.08819 0
M  V30 5412 H 579.181 3.22684 0.323377 0
M  V30 5413 H 578.966 3.66393 -1.39637 0
M  V30 5414 H 580.456 4.14231 -0.529418 0
M  V30 5415 N 580.893 1.08022 1.14757 0
M  V30 5416 C 581.803 0.718292 2.23333 0
M  V30 5417 C 582.819 -0.273477 1.71837 0
M  V30 5418 O 583.995 -0.118406 2.01052 0
M  V30 5419 C 581.06 0.128855 3.4646 0
M  V30 5420 C 580.121 1.17473 4.12915 0
M  V30 5421 C 579.354 0.61333 5.30164 0
M  V30 5422 O 579.577 -0.568458 5.6756 0
M  V30 5423 O 578.511 1.3615 5.86299 0
M  V30 5424 H 582.337 1.62394 2.56636 0
M  V30 5425 H 579.922 0.853628 1.22611 0
M  V30 5426 H 581.804 -0.197249 4.20938 0
M  V30 5427 H 580.479 -0.750014 3.14891 0
M  V30 5428 H 579.386 1.5533 3.40328 0
M  V30 5429 H 580.719 2.02574 4.48581 0
M  V30 5430 N 582.371 -1.3172 0.865308 0
M  V30 5431 C 583.301 -2.31109 0.333302 0
M  V30 5432 C 584.282 -1.60148 -0.573301 0
M  V30 5433 O 585.467 -1.87882 -0.491305 0
M  V30 5434 C 582.597 -3.44104 -0.470078 0
M  V30 5435 C 581.551 -4.26623 0.343021 0
M  V30 5436 C 580.877 -5.31482 -0.585756 0
M  V30 5437 C 582.177 -4.98001 1.57456 0
M  V30 5438 H 583.871 -2.75855 1.1638 0
M  V30 5439 H 581.417 -1.3262 0.561069 0
M  V30 5440 H 583.37 -4.12682 -0.852752 0
M  V30 5441 H 582.094 -2.98112 -1.33404 0
M  V30 5442 H 580.753 -3.59707 0.707583 0
M  V30 5443 H 580.401 -4.81741 -1.44686 0
M  V30 5444 H 580.101 -5.87582 -0.0456494 0
M  V30 5445 H 581.625 -6.0292 -0.965375 0
M  V30 5446 H 583.039 -5.59201 1.26359 0
M  V30 5447 H 581.436 -5.63876 2.05339 0
M  V30 5448 H 582.506 -4.25253 2.32997 0
M  V30 5449 N 583.85 -0.624285 -1.44708 0
M  V30 5450 C 584.782 0.12305 -2.28869 0
M  V30 5451 C 585.795 0.81557 -1.40898 0
M  V30 5452 O 586.984 0.678162 -1.65116 0
M  V30 5453 C 584.084 1.19612 -3.1709 0
M  V30 5454 C 583.257 0.587452 -4.33437 0
M  V30 5455 C 582.316 1.55358 -5.02743 0
M  V30 5456 O 581.341 1.07338 -5.58988 0
M  V30 5457 N 582.543 2.88798 -5.03563 0
M  V30 5458 H 585.308 -0.599193 -2.93649 0
M  V30 5459 H 582.87 -0.464954 -1.5508 0
M  V30 5460 H 584.861 1.84261 -3.60319 0
M  V30 5461 H 583.432 1.82067 -2.54107 0
M  V30 5462 H 582.652 -0.237509 -3.93484 0
M  V30 5463 H 583.94 0.161326 -5.08544 0
M  V30 5464 H 583.338 3.30399 -4.59188 0
M  V30 5465 H 581.894 3.48826 -5.50603 0
M  V30 5466 N 585.328 1.53329 -0.364422 0
M  V30 5467 C 586.258 2.28627 0.474543 0
M  V30 5468 C 587.239 1.31009 1.08492 0
M  V30 5469 O 588.424 1.59878 1.10239 0
M  V30 5470 C 585.554 3.07465 1.61501 0
M  V30 5471 C 584.508 4.1276 1.13194 0
M  V30 5472 C 583.834 4.79674 2.36255 0
M  V30 5473 C 585.134 5.21847 0.217507 0
M  V30 5474 H 586.828 2.99005 -0.153656 0
M  V30 5475 H 584.374 1.43803 -0.0753406 0
M  V30 5476 H 586.327 3.58889 2.20855 0
M  V30 5477 H 585.051 2.34775 2.27042 0
M  V30 5478 H 583.71 3.62281 0.56109 0
M  V30 5479 H 583.358 4.03557 3.00251 0
M  V30 5480 H 583.058 5.50827 2.04606 0
M  V30 5481 H 584.582 5.33892 2.96297 0
M  V30 5482 H 585.996 5.6878 0.718493 0
M  V30 5483 H 584.393 6.00099 -0.00806408 0
M  V30 5484 H 585.463 4.7921 -0.740653 0
M  V30 5485 N 586.806 0.0935595 1.57322 0
M  V30 5486 C 587.769 -0.851426 2.12799 0
M  V30 5487 C 588.769 -1.21187 1.0569 0
M  V30 5488 O 589.959 -1.14156 1.31583 0
M  V30 5489 C 587.091 -2.14779 2.64731 0
M  V30 5490 H 588.284 -0.369733 2.97612 0
M  V30 5491 H 585.837 -0.155417 1.55525 0
M  V30 5492 H 586.572 -2.67437 1.83434 0
M  V30 5493 H 586.357 -1.89907 3.43042 0
M  V30 5494 H 587.847 -2.82383 3.07651 0
M  V30 5495 N 588.284 -1.56567 -0.180126 0
M  V30 5496 C 589.194 -1.98947 -1.24327 0
M  V30 5497 C 590.21 -0.899446 -1.4895 0
M  V30 5498 O 591.386 -1.20639 -1.61271 0
M  V30 5499 C 588.451 -2.33328 -2.56435 0
M  V30 5500 C 587.512 -3.56114 -2.39752 0
M  V30 5501 C 586.745 -3.88845 -3.65561 0
M  V30 5502 O 586.968 -3.22662 -4.70368 0
M  V30 5503 O 585.902 -4.82226 -3.60197 0
M  V30 5504 H 589.728 -2.89634 -0.913565 0
M  V30 5505 H 587.313 -1.44319 -0.386306 0
M  V30 5506 H 589.195 -2.5645 -3.34382 0
M  V30 5507 H 587.87 -1.45806 -2.89002 0
M  V30 5508 H 586.777 -3.38221 -1.59866 0
M  V30 5509 H 588.11 -4.4415 -2.12113 0
M  V30 5510 N 589.762 0.448376 -1.51087 0
M  V30 5511 C 591.002 1.20832 -1.64861 0
M  V30 5512 C 591.366 1.88748 -0.351873 0
M  V30 5513 O 592.567 2.66307 -0.365265 0
M  V30 5514 C 590.838 2.20674 -2.81137 0
M  V30 5515 S 592.397 3.05303 -3.15176 0
M  V30 5516 H 589.215 0.40992 -0.580936 0
M  V30 5517 H 591.817 0.501624 -1.88955 0
M  V30 5518 H 590.521 1.69399 -3.73808 0
M  V30 5519 H 590.052 2.9594 -2.59198 0
M  V30 5520 H 592.067 4.22162 -2.60756 0
M  V30 5521 N 591.24 1.41047 0.703093 0
M  V30 5522 C 592.17 1.45067 1.82969 0
M  V30 5523 C 593.151 0.31016 1.67248 0
M  V30 5524 O 594.336 0.520548 1.87093 0
M  V30 5525 C 591.466 1.32478 3.2104 0
M  V30 5526 C 590.42 2.44262 3.51454 0
M  V30 5527 C 589.746 2.16742 4.88801 0
M  V30 5528 C 591.046 3.86606 3.51189 0
M  V30 5529 H 592.74 2.39353 1.79863 0
M  V30 5530 H 590.286 1.15206 0.863919 0
M  V30 5531 H 592.239 1.33904 3.99559 0
M  V30 5532 H 590.963 0.346735 3.24754 0
M  V30 5533 H 589.622 2.42107 2.75282 0
M  V30 5534 H 589.27 1.17299 4.89132 0
M  V30 5535 H 588.97 2.91643 5.10116 0
M  V30 5536 H 590.494 2.19872 5.69639 0
M  V30 5537 H 591.908 3.90517 4.19725 0
M  V30 5538 H 590.305 4.61128 3.84033 0
M  V30 5539 H 591.375 4.15296 2.50315 0
M  V30 5540 N 592.718 -0.936591 1.26751 0
M  V30 5541 C 593.958 -1.69796 1.13792 0
M  V30 5542 C 594.322 -1.89437 -0.312671 0
M  V30 5543 O 595.523 -2.62806 -0.564489 0
M  V30 5544 C 593.794 -3.03297 1.89065 0
M  V30 5545 S 595.353 -3.94461 1.92214 0
M  V30 5546 H 592.171 -0.583412 0.406389 0
M  V30 5547 H 594.773 -1.11575 1.60535 0
M  V30 5548 H 593.477 -2.86687 2.93665 0
M  V30 5549 H 593.008 -3.66575 1.42781 0
M  V30 5550 H 595.023 -4.85767 1.01215 0
M  V30 5551 N 594.196 -1.08629 -1.14182 0
M  V30 5552 C 595.607 -0.838003 -1.66836 0
M  V30 5553 C 595.958 0.634885 -1.85644 0
M  V30 5554 O 595.083 1.49008 -1.56926 0
M  V30 5555 C 595.678 -1.51465 -3.03058 0
M  V30 5556 C 594.237 -1.31355 -3.52736 0
M  V30 5557 C 593.384 -1.57599 -2.28162 0
M  V30 5558 H 596.335 -1.24656 -0.982165 0
M  V30 5559 H 596.356 -0.943134 -3.68626 0
M  V30 5560 H 595.868 -2.58661 -2.89337 0
M  V30 5561 H 593.969 -0.262384 -3.71675 0
M  V30 5562 H 594.082 -2.04275 -4.33369 0
M  V30 5563 H 592.446 -0.997659 -2.34348 0
M  V30 5564 H 593.229 -2.66006 -2.17015 0
M  V30 5565 N 595.674 1.31259 -0.872281 0
M  V30 5566 C 596.584 2.32221 -0.333255 0
M  V30 5567 C 597.6 1.6481 0.558013 0
M  V30 5568 O 598.776 1.96212 0.454175 0
M  V30 5569 C 595.841 3.43708 0.454479 0
M  V30 5570 C 594.902 4.26774 -0.465024 0
M  V30 5571 C 594.135 5.32937 0.28521 0
M  V30 5572 O 594.358 5.49968 1.513 0
M  V30 5573 O 593.292 6.00834 -0.358126 0
M  V30 5574 H 597.118 2.80252 -1.17016 0
M  V30 5575 H 594.703 1.352 -0.635724 0
M  V30 5576 H 596.585 4.11656 0.900963 0
M  V30 5577 H 595.26 2.97836 1.26789 0
M  V30 5578 H 594.167 3.61571 -0.960055 0
M  V30 5579 H 595.5 4.76217 -1.2441 0
M  V30 5580 N 597.152 0.631951 1.44375 0
M  V30 5581 C 598.4 0.136497 2.01639 0
M  V30 5582 C 598.721 -1.24637 1.49969 0
M  V30 5583 O 597.991 -1.82827 0.70363 0
M  V30 5584 H 596.571 0.0474703 0.74549 0
M  V30 5585 H 599.233 0.818837 1.76865 0
M  V30 5586 H 598.329 0.104817 3.11924 0
M  V30 5587 N 598.631 -1.53133 0.372548 0
M  V30 5588 C 599.564 -2.22328 -0.514361 0
M  V30 5589 C 600.542 -1.21776 -1.07747 0
M  V30 5590 O 601.726 -1.50704 -1.13228 0
M  V30 5591 C 598.853 -2.92343 -1.71035 0
M  V30 5592 C 597.899 -4.07026 -1.27405 0
M  V30 5593 S 598.732 -5.34821 -0.269526 0
M  V30 5594 C 599.888 -6.08352 -1.47168 0
M  V30 5595 H 600.121 -2.9721 0.0732683 0
M  V30 5596 H 597.654 -1.53603 0.156673 0
M  V30 5597 H 599.612 -3.33296 -2.39634 0
M  V30 5598 H 598.273 -2.17173 -2.26925 0
M  V30 5599 H 597.466 -4.55056 -2.16656 0
M  V30 5600 H 597.068 -3.68001 -0.66719 0
M  V30 5601 H 599.36 -6.33507 -2.40157 0
M  V30 5602 H 600.303 -7.0053 -1.03263 0
M  V30 5603 H 600.711 -5.38893 -1.6809 0
M  V30 5604 N 600.109 -0.101901 -1.5727 0
M  V30 5605 C 601.019 0.868647 -2.17926 0
M  V30 5606 C 602.035 1.30527 -1.1506 0
M  V30 5607 O 603.211 1.37178 -1.47459 0
M  V30 5608 C 600.276 2.10727 -2.75309 0
M  V30 5609 C 599.337 1.7242 -3.93154 0
M  V30 5610 C 598.57 2.90377 -4.47791 0
M  V30 5611 O 598.793 4.05305 -4.01353 0
M  V30 5612 O 597.727 2.6845 -5.38719 0
M  V30 5613 H 601.553 0.382544 -3.01281 0
M  V30 5614 H 599.138 0.122812 -1.48894 0
M  V30 5615 H 601.02 2.83303 -3.11958 0
M  V30 5616 H 599.695 2.58376 -1.94996 0
M  V30 5617 H 598.602 0.970039 -3.61305 0
M  V30 5618 H 599.935 1.29528 -4.74851 0
M  V30 5619 N 601.587 1.56661 0.17182 0
M  V30 5620 C 602.517 1.99401 1.21498 0
M  V30 5621 C 603.498 0.869516 1.46197 0
M  V30 5622 O 604.683 1.13556 1.57539 0
M  V30 5623 C 601.813 2.35346 2.55401 0
M  V30 5624 C 600.767 3.5075 2.45272 0
M  V30 5625 C 600.093 3.72437 3.8366 0
M  V30 5626 C 601.393 4.84216 1.95787 0
M  V30 5627 H 603.087 2.86792 0.859699 0
M  V30 5628 H 600.633 1.37977 0.412103 0
M  V30 5629 H 602.586 2.63843 3.2858 0
M  V30 5630 H 601.31 1.44864 2.92715 0
M  V30 5631 H 599.969 3.2238 1.74547 0
M  V30 5632 H 599.617 2.79246 4.18367 0
M  V30 5633 H 599.317 4.50087 3.77751 0
M  V30 5634 H 600.841 4.03334 4.58426 0
M  V30 5635 H 602.255 5.11592 2.5874 0
M  V30 5636 H 600.652 5.65498 2.00827 0
M  V30 5637 H 601.722 4.76243 0.912159 0
M  V30 5638 N 603.065 -0.440357 1.51323 0
M  V30 5639 C 604.028 -1.51679 1.71832 0
M  V30 5640 C 605.028 -1.49648 0.588386 0
M  V30 5641 O 606.218 -1.51724 0.855891 0
M  V30 5642 C 603.35 -2.91228 1.77199 0
M  V30 5643 H 604.543 -1.34799 2.67898 0
M  V30 5644 H 602.096 -0.66883 1.41267 0
M  V30 5645 H 602.831 -3.13516 0.829363 0
M  V30 5646 H 602.616 -2.94107 2.59314 0
M  V30 5647 H 604.106 -3.69321 1.94915 0
M  V30 5648 N 604.543 -1.41418 -0.695603 0
M  V30 5649 C 605.789 -1.40982 -1.4578 0
M  V30 5650 C 606.122 -0.0187763 -1.94191 0
M  V30 5651 O 605.397 0.95346 -1.69527 0
M  V30 5652 C 605.68 -2.41657 -2.66972 0
M  V30 5653 C 605.533 -3.89869 -2.24327 0
M  V30 5654 C 606.852 -2.39589 -3.69168 0
M  V30 5655 H 603.971 -0.513405 -0.528757 0
M  V30 5656 H 606.613 -1.72693 -0.792275 0
M  V30 5657 H 604.763 -2.14746 -3.23754 0
M  V30 5658 H 606.435 -4.27683 -1.72872 0
M  V30 5659 H 604.678 -4.04737 -1.56111 0
M  V30 5660 H 605.349 -4.55857 -3.11285 0
M  V30 5661 H 607.825 -2.63471 -3.2206 0
M  V30 5662 H 606.701 -3.12044 -4.51575 0
M  V30 5663 H 606.962 -1.41447 -4.18862 0
M  V30 5664 N 606.021 0.929856 -1.27246 0
M  V30 5665 C 607.298 1.65544 -1.04186 0
M  V30 5666 C 607.678 2.06796 0.424097 0
M  V30 5667 O 607.026 1.80053 1.40688 0
M  V30 5668 C 607.236 2.85912 -2.00138 0
M  V30 5669 C 608.584 3.57305 -2.29387 0
M  V30 5670 O 609.608 2.96036 -1.98094 0
M  V30 5671 O 608.467 4.67688 -2.82719 0
M  V30 5672 H 605.561 0.725473 -0.397011 0
M  V30 5673 H 608.107 0.980583 -1.38501 0
M  V30 5674 H 606.879 2.52403 -2.99013 0
M  V30 5675 H 606.502 3.61118 -1.66371 0
M  V30 5676 N 607.499 1.09233 1.13605 0
M  V30 5677 C 608.447 0.724572 2.21027 0
M  V30 5678 C 609.441 -0.273595 1.67176 0
M  V30 5679 O 610.647 -0.135266 1.79491 0
M  V30 5680 H 607.022 0.216319 0.720215 0
M  V30 5681 H 608.993 1.63975 2.49309 0
M  V30 5682 C 607.742 0.159126 3.47336 0
M  V30 5683 H 607.065 0.918387 3.89109 0
M  V30 5684 H 608.505 -0.0602851 4.23957 0
M  V30 5685 C 606.964 -1.10514 3.18258 0
M  V30 5686 O 607.494 -2.18869 3.36837 0
M  V30 5687 N 605.7 -1.01886 2.72154 0
M  V30 5688 H 605.247 -0.137027 2.57235 0
M  V30 5689 H 605.205 -1.8655 2.53074 0
M  V30 5690 N 608.977 -1.30795 0.87923 0
M  V30 5691 C 610.223 -1.96653 0.495519 0
M  V30 5692 C 610.556 -1.69282 -0.951703 0
M  V30 5693 O 609.831 -0.994374 -1.6716 0
M  V30 5694 C 610.114 -3.51898 0.764174 0
M  V30 5695 C 609.967 -3.88808 2.2616 0
M  V30 5696 C 611.286 -4.39462 0.236825 0
M  V30 5697 H 608.405 -0.7143 0.181507 0
M  V30 5698 H 611.047 -1.54765 1.10217 0
M  V30 5699 H 609.197 -3.87709 0.247841 0
M  V30 5700 H 610.869 -3.63051 2.8459 0
M  V30 5701 H 609.112 -3.37082 2.73053 0
M  V30 5702 H 609.783 -4.97086 2.4002 0
M  V30 5703 H 612.259 -4.10528 0.678683 0
M  V30 5704 H 611.135 -5.47018 0.454176 0
M  V30 5705 H 611.396 -4.33621 -0.861683 0
M  V30 5706 N 610.455 -0.639598 -1.44038 0
M  V30 5707 C 611.683 -0.154811 -2.0632 0
M  V30 5708 C 612.098 1.17406 -1.47856 0
M  V30 5709 O 611.455 1.72193 -0.604638 0
M  V30 5710 C 611.506 -0.0429958 -3.61474 0
M  V30 5711 O 611.227 -1.31932 -4.17763 0
M  V30 5712 C 612.728 0.469486 -4.40807 0
M  V30 5713 H 609.948 -0.0835862 -0.665773 0
M  V30 5714 H 612.492 -0.876397 -1.84769 0
M  V30 5715 H 610.647 0.629075 -3.82258 0
M  V30 5716 H 611.061 -1.16965 -5.11292 0
M  V30 5717 H 612.535 0.496712 -5.49761 0
M  V30 5718 H 613.012 1.49819 -4.12857 0
M  V30 5719 H 613.618 -0.169624 -4.24962 0
M  V30 5720 N 611.933 1.52934 -0.380664 0
M  V30 5721 C 613.173 2.03378 0.204161 0
M  V30 5722 C 613.537 1.26132 1.44758 0
M  V30 5723 O 614.738 1.66657 2.109 0
M  V30 5724 C 613.009 3.54241 0.474118 0
M  V30 5725 S 614.568 4.26529 1.03046 0
M  V30 5726 H 611.386 0.708608 0.0582719 0
M  V30 5727 H 613.988 1.88263 -0.527017 0
M  V30 5728 H 612.692 4.08055 -0.438088 0
M  V30 5729 H 612.223 3.73547 1.23396 0
M  V30 5730 H 614.238 4.38964 2.31354 0
M  V30 5731 N 613.412 0.11024 1.57214 0
M  V30 5732 C 614.345 -0.880224 2.1054 0
M  V30 5733 C 615.323 -1.26658 1.01964 0
M  V30 5734 O 616.507 -1.36917 1.29561 0
M  V30 5735 C 613.634 -2.17676 2.59489 0
M  V30 5736 C 612.68 -1.93914 3.79868 0
M  V30 5737 S 613.513 -1.16336 5.2271 0
M  V30 5738 C 614.669 -2.47188 5.75021 0
M  V30 5739 H 614.902 -0.426614 2.94223 0
M  V30 5740 H 612.435 -0.10336 1.54054 0
M  V30 5741 H 614.393 -2.92175 2.88347 0
M  V30 5742 H 613.054 -2.60156 1.76005 0
M  V30 5743 H 612.247 -2.8996 4.12236 0
M  V30 5744 H 611.849 -1.27539 3.51582 0
M  V30 5745 H 614.141 -3.43079 5.84211 0
M  V30 5746 H 615.084 -2.19377 6.7326 0
M  V30 5747 H 615.492 -2.56154 5.03036 0
M  V30 5748 N 614.89 -1.56749 -0.16351 0
M  V30 5749 C 616.167 -1.73321 -0.906599 0
M  V30 5750 C 616.547 -0.673779 -2.00059 0
M  V30 5751 O 615.895 0.310121 -2.26386 0
M  V30 5752 C 616.105 -3.168 -1.46419 0
M  V30 5753 C 617.453 -3.77993 -1.93407 0
M  V30 5754 O 618.477 -3.20127 -1.56196 0
M  V30 5755 O 617.336 -4.79615 -2.61976 0
M  V30 5756 H 614.43 -0.708073 -0.427272 0
M  V30 5757 H 616.976 -1.69029 -0.150727 0
M  V30 5758 H 615.748 -3.85396 -0.677189 0
M  V30 5759 H 615.371 -3.2545 -2.28403 0
M  V30 5760 N 616.368 0.432326 -1.51554 0
M  V30 5761 C 617.298 1.53242 -1.76179 0
M  V30 5762 C 618.279 1.58717 -0.611801 0
M  V30 5763 O 619.464 1.74364 -0.855033 0
M  V30 5764 C 616.594 2.91278 -1.89141 0
M  V30 5765 C 615.548 3.00663 -3.04608 0
M  V30 5766 C 614.874 4.40728 -3.02759 0
M  V30 5767 C 616.174 2.74281 -4.44485 0
M  V30 5768 H 617.868 1.32886 -2.68294 0
M  V30 5769 H 615.414 0.637841 -1.29103 0
M  V30 5770 H 617.367 3.68203 -2.04951 0
M  V30 5771 H 616.091 3.12877 -0.936785 0
M  V30 5772 H 614.75 2.26179 -2.88511 0
M  V30 5773 H 614.398 4.59301 -2.05065 0
M  V30 5774 H 614.098 4.47936 -3.80299 0
M  V30 5775 H 615.622 5.19619 -3.20669 0
M  V30 5776 H 617.036 3.40936 -4.60907 0
M  V30 5777 H 615.433 2.92893 -5.23769 0
M  V30 5778 H 616.503 1.69856 -4.54177 0
M  V30 5779 N 617.846 1.41785 0.688094 0
M  V30 5780 C 618.796 1.40684 1.79421 0
M  V30 5781 C 619.78 0.280096 1.58443 0
M  V30 5782 O 620.972 0.521332 1.69148 0
M  V30 5783 C 618.101 1.29874 3.17785 0
M  V30 5784 C 617.187 2.47442 3.44432 0
M  V30 5785 N 617.578 3.72895 3.41736 0
M  V30 5786 C 615.876 2.41416 3.75013 0
M  V30 5787 C 616.577 4.50912 3.67496 0
M  V30 5788 N 615.553 3.81131 3.87608 0
M  V30 5789 H 619.355 2.35591 1.7571 0
M  V30 5790 H 616.869 1.35946 0.888393 0
M  V30 5791 H 618.866 1.27168 3.97031 0
M  V30 5792 H 617.526 0.359587 3.22703 0
M  V30 5793 H 618.537 4.05676 3.21943 0
M  V30 5794 H 615.214 1.56011 3.87256 0
M  V30 5795 H 616.604 5.59865 3.71484 0
M  V30 5796 N 619.324 -0.923095 1.27737 0
M  V30 5797 C 620.271 -2.02432 1.1086 0
M  V30 5798 C 621.241 -1.66098 0.00835195 0
M  V30 5799 O 622.426 -1.90027 0.171542 0
M  V30 5800 C 619.566 -3.36476 0.766671 0
M  V30 5801 C 618.679 -3.85737 1.94501 0
M  V30 5802 C 617.814 -5.08249 1.54455 0
M  V30 5803 C 616.853 -5.49818 2.6901 0
M  V30 5804 N 615.99 -6.63524 2.29521 0
M  V30 5805 H 620.83 -2.16201 2.05089 0
M  V30 5806 H 618.367 -1.05909 1.02087 0
M  V30 5807 H 620.325 -4.13569 0.549223 0
M  V30 5808 H 618.955 -3.22502 -0.13867 0
M  V30 5809 H 618.007 -3.04883 2.27487 0
M  V30 5810 H 619.319 -4.12513 2.80419 0
M  V30 5811 H 618.473 -5.92857 1.28862 0
M  V30 5812 H 617.212 -4.83261 0.656534 0
M  V30 5813 H 616.217 -4.63757 2.95313 0
M  V30 5814 H 617.442 -5.76799 3.5844 0
M  V30 5815 H 615.388 -6.40185 1.43177 0
M  V30 5816 H 615.305 -6.89978 3.08977 0
M  V30 5817 H 616.573 -7.51461 2.07187 0
M  V30 5818 N 620.802 -1.09834 -1.13024 0
M  V30 5819 C 622.213 -0.855651 -1.65938 0
M  V30 5820 C 622.564 0.615159 -1.86307 0
M  V30 5821 O 621.689 1.47335 -1.58497 0
M  V30 5822 C 622.284 -1.5467 -3.01434 0
M  V30 5823 C 620.843 -1.35088 -3.51323 0
M  V30 5824 C 619.99 -1.6001 -2.26478 0
M  V30 5825 H 622.941 -1.25691 -0.968889 0
M  V30 5826 H 622.962 -0.982179 -3.67605 0
M  V30 5827 H 622.474 -2.61715 -2.86578 0
M  V30 5828 H 620.575 -0.30179 -3.71376 0
M  V30 5829 H 620.688 -2.0886 -4.31178 0
M  V30 5830 H 619.052 -1.02246 -2.33276 0
M  V30 5831 H 619.835 -2.68293 -2.14182 0
M  V30 5832 N 622.28 1.30327 -0.886154 0
M  V30 5833 C 623.691 1.78243 -0.555554 0
M  V30 5834 C 624.042 1.72849 0.928314 0
M  V30 5835 O 623.167 1.30607 1.72542 0
M  V30 5836 C 623.762 3.23654 -1.00168 0
M  V30 5837 C 622.321 3.69401 -0.722471 0
M  V30 5838 C 621.468 2.50753 -1.18399 0
M  V30 5839 H 624.419 1.1718 -1.07026 0
M  V30 5840 H 624.44 3.79056 -0.331152 0
M  V30 5841 H 623.952 3.27548 -2.08169 0
M  V30 5842 H 622.053 3.70995 0.345496 0
M  V30 5843 H 622.166 4.60818 -1.31085 0
M  V30 5844 H 620.53 2.47452 -0.603303 0
M  V30 5845 H 621.313 2.57383 -2.27176 0
M  V30 5846 N 623.758 0.647228 1.43697 0
M  V30 5847 C 625.006 0.157876 2.01482 0
M  V30 5848 C 625.327 -1.23039 1.51282 0
M  V30 5849 O 624.597 -1.82071 0.722982 0
M  V30 5850 H 623.177 0.0553745 0.744945 0
M  V30 5851 H 625.839 0.83755 1.75986 0
M  V30 5852 H 624.935 0.137895 3.11795 0
M  V30 5853 N 625.236 -1.5273 0.388769 0
M  V30 5854 C 626.647 -1.86505 -0.0853788 0
M  V30 5855 C 626.998 -1.30847 -1.46197 0
M  V30 5856 O 626.123 -0.639609 -2.06732 0
M  V30 5857 C 626.718 -3.38414 -0.161703 0
M  V30 5858 C 625.277 -3.71902 -0.580144 0
M  V30 5859 C 624.424 -2.76095 0.258218 0
M  V30 5860 H 627.375 -1.46647 0.606665 0
M  V30 5861 H 627.396 -3.67638 -0.980936 0
M  V30 5862 H 626.908 -3.78893 0.840333 0
M  V30 5863 H 625.009 -3.36992 -1.58957 0
M  V30 5864 H 625.122 -4.77902 -0.338663 0
M  V30 5865 H 623.486 -2.53195 -0.276432 0
M  V30 5866 H 624.269 -3.19411 1.25822 0
M  V30 5867 N 626.714 -0.118576 -1.57153 0
M  V30 5868 C 627.644 0.828436 -2.1831 0
M  V30 5869 C 628.625 1.27758 -1.12303 0
M  V30 5870 O 629.81 1.34026 -1.40537 0
M  V30 5871 C 626.94 2.07876 -2.78217 0
M  V30 5872 C 625.894 1.76742 -3.89803 0
M  V30 5873 C 625.22 3.08801 -4.36516 0
M  V30 5874 C 626.52 1.03606 -5.11921 0
M  V30 5875 H 628.214 0.318824 -2.97698 0
M  V30 5876 H 625.76 0.151911 -1.43196 0
M  V30 5877 H 627.713 2.74584 -3.19659 0
M  V30 5878 H 626.437 2.61161 -1.96118 0
M  V30 5879 H 625.096 1.12424 -3.48936 0
M  V30 5880 H 624.744 3.6002 -3.51276 0
M  V30 5881 H 624.444 2.88743 -5.11763 0
M  V30 5882 H 625.968 3.76627 -4.80608 0
M  V30 5883 H 627.382 1.60467 -5.50385 0
M  V30 5884 H 625.779 0.936454 -5.92748 0
M  V30 5885 H 626.849 0.0227421 -4.84895 0
M  V30 5886 N 628.193 1.56834 0.155195 0
M  V30 5887 C 629.439 1.83169 0.870467 0
M  V30 5888 C 629.772 0.698929 1.81187 0
M  V30 5889 O 629.047 -0.298035 1.92203 0
M  V30 5890 C 629.33 3.19965 1.65211 0
M  V30 5891 C 629.183 4.43792 0.732744 0
M  V30 5892 C 630.502 3.53885 2.61636 0
M  V30 5893 H 627.621 0.666288 0.315006 0
M  V30 5894 H 630.263 1.89513 0.135988 0
M  V30 5895 H 628.413 3.14687 2.27825 0
M  V30 5896 H 630.085 4.61148 0.118236 0
M  V30 5897 H 628.328 4.3378 0.0417906 0
M  V30 5898 H 628.999 5.36095 1.31552 0
M  V30 5899 H 631.475 3.5972 2.09143 0
M  V30 5900 H 630.351 4.50648 3.13381 0
M  V30 5901 H 630.612 2.79418 3.42605 0
M  V30 5902 N 629.671 -0.424282 1.51781 0
M  V30 5903 C 630.601 -1.52305 1.7699 0
M  V30 5904 C 631.582 -1.5839 0.620209 0
M  V30 5905 O 632.767 -1.73908 0.864268 0
M  V30 5906 C 629.897 -2.90271 1.90683 0
M  V30 5907 C 628.851 -2.99043 3.06198 0
M  V30 5908 C 628.177 -4.39116 3.05092 0
M  V30 5909 C 629.477 -2.7192 4.45934 0
M  V30 5910 H 631.171 -1.31461 2.68995 0
M  V30 5911 H 628.717 -0.630985 1.29439 0
M  V30 5912 H 630.67 -3.6711 2.06901 0
M  V30 5913 H 629.394 -3.12376 0.953365 0
M  V30 5914 H 628.053 -2.24646 2.89706 0
M  V30 5915 H 627.701 -4.58207 2.07498 0
M  V30 5916 H 627.401 -4.45912 3.82669 0
M  V30 5917 H 628.925 -5.17911 3.2342 0
M  V30 5918 H 630.339 -3.38487 4.62709 0
M  V30 5919 H 628.736 -2.90111 5.25315 0
M  V30 5920 H 629.806 -1.67445 4.55072 0
M  V30 5921 N 631.149 -1.42148 -0.680565 0
M  V30 5922 C 632.082 -1.39602 -1.80517 0
M  V30 5923 C 633.06 -0.261098 -1.6049 0
M  V30 5924 O 634.244 -0.450404 -1.8304 0
M  V30 5925 C 631.371 -1.18134 -3.1743 0
M  V30 5926 C 630.417 -2.34543 -3.56219 0
M  V30 5927 S 631.25 -3.97063 -3.59306 0
M  V30 5928 C 632.406 -3.77926 -4.98921 0
M  V30 5929 H 632.639 -2.3477 -1.82402 0
M  V30 5930 H 630.172 -1.28851 -0.850691 0
M  V30 5931 H 632.13 -1.06434 -3.96462 0
M  V30 5932 H 630.791 -0.245611 -3.13138 0
M  V30 5933 H 629.984 -2.15255 -4.55721 0
M  V30 5934 H 629.586 -2.42728 -2.84533 0
M  V30 5935 H 631.878 -3.3856 -5.86842 0
M  V30 5936 H 632.821 -4.77084 -5.23256 0
M  V30 5937 H 633.229 -3.10904 -4.71167 0
M  V30 5938 N 632.627 0.916307 -1.28225 0
M  V30 5939 C 633.873 1.66765 -1.154 0
M  V30 5940 C 634.206 1.91912 0.297251 0
M  V30 5941 O 633.481 1.51766 1.21644 0
M  V30 5942 C 633.764 3.02715 -1.95028 0
M  V30 5943 C 633.617 2.84738 -3.48201 0
M  V30 5944 C 634.936 4.03215 -1.76369 0
M  V30 5945 H 632.055 0.605205 -0.42059 0
M  V30 5946 H 634.697 1.06255 -1.57512 0
M  V30 5947 H 632.847 3.54365 -1.59242 0
M  V30 5948 H 634.519 2.40118 -3.9388 0
M  V30 5949 H 632.762 2.19848 -3.73964 0
M  V30 5950 H 633.433 3.8127 -3.99171 0
M  V30 5951 H 635.909 3.60617 -2.07593 0
M  V30 5952 H 634.785 4.96306 -2.34459 0
M  V30 5953 H 635.046 4.36288 -0.71452 0
M  V30 5954 N 634.105 1.10431 1.1244 0
M  V30 5955 C 635.068 0.756542 2.16354 0
M  V30 5956 C 636.068 -0.21899 1.59302 0
M  V30 5957 O 637.258 0.00415969 1.742 0
M  V30 5958 C 634.39 0.120612 3.40687 0
M  V30 5959 H 635.583 1.67696 2.48632 0
M  V30 5960 H 633.136 0.904832 1.27446 0
M  V30 5961 H 633.871 -0.810536 3.14008 0
M  V30 5962 H 633.656 0.822693 3.83372 0
M  V30 5963 H 635.146 -0.106945 4.17463 0
M  V30 5964 N 635.583 -1.29855 0.893053 0
M  V30 5965 C 636.829 -1.96116 0.516349 0
M  V30 5966 C 637.162 -1.70281 -0.933695 0
M  V30 5967 O 636.437 -1.01205 -1.66096 0
M  V30 5968 C 636.72 -3.51068 0.801455 0
M  V30 5969 C 636.573 -3.86387 2.30272 0
M  V30 5970 C 637.892 -4.39186 0.283423 0
M  V30 5971 H 635.011 -0.712335 0.189072 0
M  V30 5972 H 637.653 -1.53587 1.11852 0
M  V30 5973 H 635.803 -3.87424 0.288949 0
M  V30 5974 H 637.475 -3.60012 2.88425 0
M  V30 5975 H 635.718 -3.34167 2.76613 0
M  V30 5976 H 636.389 -4.94512 2.45279 0
M  V30 5977 H 638.865 -4.09785 0.722187 0
M  V30 5978 H 637.741 -5.46505 0.512169 0
M  V30 5979 H 638.002 -4.34511 -0.815643 0
M  V30 5980 N 637.061 -0.65484 -1.43351 0
M  V30 5981 C 638.307 -0.169142 -2.02093 0
M  V30 5982 C 638.64 1.21431 -1.51553 0
M  V30 5983 O 637.915 1.81105 -0.709317 0
M  V30 5984 C 638.198 -0.181775 -3.59641 0
M  V30 5985 C 638.051 -1.59926 -4.20409 0
M  V30 5986 C 639.37 0.480945 -4.37464 0
M  V30 5987 H 636.489 -0.0629371 -0.734308 0
M  V30 5988 H 639.131 -0.835833 -1.70628 0
M  V30 5989 H 637.281 0.385918 -3.86578 0
M  V30 5990 H 638.953 -2.21766 -4.04497 0
M  V30 5991 H 637.196 -2.14605 -3.76998 0
M  V30 5992 H 637.867 -1.55994 -5.295 0
M  V30 5993 H 640.343 -0.00208273 -4.161 0
M  V30 5994 H 639.219 0.441384 -5.47122 0
M  V30 5995 H 639.48 1.55533 -4.13838 0
M  V30 5996 N 638.539 1.52521 -0.396863 0
M  V30 5997 C 639.502 2.2527 0.422604 0
M  V30 5998 C 640.502 1.27184 0.983913 0
M  V30 5999 O 641.692 1.51222 0.864723 0
M  V30 6000 C 638.824 3.01356 1.59365 0
M  V30 6001 H 640.017 2.99133 -0.214416 0
M  V30 6002 H 637.57 1.55587 -0.149128 0
M  V30 6003 H 638.305 2.31813 2.26789 0
M  V30 6004 H 638.09 3.73357 1.19779 0
M  V30 6005 H 639.58 3.56571 2.17363 0
M  V30 6006 N 640.017 0.126909 1.57088 0
M  V30 6007 C 641.245 -0.53667 1.99819 0
M  V30 6008 C 641.66 -1.5972 1.00673 0
M  V30 6009 O 641.017 -1.825 0.000747365 0
M  V30 6010 C 641.068 -1.15563 3.42531 0
M  V30 6011 O 640.789 -0.137483 4.37884 0
M  V30 6012 C 642.29 -1.90176 4.00435 0
M  V30 6013 H 639.51 -0.141443 0.655923 0
M  V30 6014 H 642.054 0.215578 2.03361 0
M  V30 6015 H 640.209 -1.85861 3.39904 0
M  V30 6016 H 640.623 -0.588229 5.21191 0
M  V30 6017 H 642.097 -2.28801 5.02349 0
M  V30 6018 H 642.574 -2.78002 3.40017 0
M  V30 6019 H 643.18 -1.24623 4.06632 0
M  V30 6020 N 641.495 -1.56914 -0.146875 0
M  V30 6021 C 642.72 -1.87881 -0.878386 0
M  V30 6022 C 643.145 -0.715945 -1.73942 0
M  V30 6023 O 642.503 0.334447 -1.78189 0
M  V30 6024 C 642.551 -3.17431 -1.71084 0
M  V30 6025 O 641.655 -3.01374 -2.81509 0
M  V30 6026 H 640.996 -0.617289 -0.244644 0
M  V30 6027 H 643.526 -2.04136 -0.137654 0
M  V30 6028 H 643.536 -3.49455 -2.10582 0
M  V30 6029 H 642.211 -4.01671 -1.07856 0
M  V30 6030 H 640.788 -2.80758 -2.45416 0
M  V30 6031 N 642.974 0.416227 -1.52004 0
M  V30 6032 C 644.202 1.18573 -1.69553 0
M  V30 6033 C 644.617 1.84472 -0.401919 0
M  V30 6034 O 643.974 1.71593 0.621463 0
M  V30 6035 C 644.025 2.25413 -2.82615 0
M  V30 6036 O 643.746 1.62205 -4.06966 0
M  V30 6037 C 645.247 3.15297 -3.11613 0
M  V30 6038 H 642.467 0.356582 -0.56841 0
M  V30 6039 H 645.011 0.490618 -1.98528 0
M  V30 6040 H 643.166 2.90604 -2.56179 0
M  V30 6041 H 643.58 2.3298 -4.69916 0
M  V30 6042 H 645.054 3.86351 -3.94255 0
M  V30 6043 H 645.531 3.77264 -2.24874 0
M  V30 6044 H 646.137 2.55783 -3.39787 0
M  V30 6045 N 644.452 1.42507 0.673017 0
M  V30 6046 C 645.382 1.48916 1.79851 0
M  V30 6047 C 646.363 0.345566 1.66553 0
M  V30 6048 O 647.548 0.560116 1.85947 0
M  V30 6049 C 644.678 1.39258 3.18158 0
M  V30 6050 C 643.632 2.51662 3.46194 0
M  V30 6051 C 642.958 2.27062 4.84094 0
M  V30 6052 C 644.258 3.93968 3.42909 0
M  V30 6053 H 645.952 2.43114 1.74745 0
M  V30 6054 H 643.498 1.17013 0.839288 0
M  V30 6055 H 645.451 1.42349 3.96629 0
M  V30 6056 H 644.175 0.415542 3.23946 0
M  V30 6057 H 642.834 2.47891 2.70084 0
M  V30 6058 H 642.482 1.27648 4.86534 0
M  V30 6059 H 642.182 3.02398 5.03815 0
M  V30 6060 H 643.706 2.31905 5.64847 0
M  V30 6061 H 645.12 3.99332 4.11347 0
M  V30 6062 H 643.517 4.6917 3.74165 0
M  V30 6063 H 644.587 4.20512 2.41449 0
M  V30 6064 N 645.93 -0.909495 1.28709 0
M  V30 6065 C 647.155 -1.69801 1.1909 0
M  V30 6066 C 647.58 -1.86479 -0.246388 0
M  V30 6067 O 646.938 -1.37802 -1.17815 0
M  V30 6068 C 646.986 -3.06543 1.89904 0
M  V30 6069 O 646.09 -3.94268 1.2094 0
M  V30 6070 H 645.431 -0.519783 0.413185 0
M  V30 6071 H 647.961 -1.13689 1.70106 0
M  V30 6072 H 647.971 -3.56748 1.97977 0
M  V30 6073 H 646.646 -2.93722 2.94449 0
M  V30 6074 H 645.223 -3.52702 1.2106 0
M  V30 6075 N 647.408 -1.11026 -1.11852 0
M  V30 6076 C 648.338 -0.786812 -2.19844 0
M  V30 6077 C 649.319 0.242935 -1.68356 0
M  V30 6078 O 650.504 0.107355 -1.93903 0
M  V30 6079 C 647.634 -0.224516 -3.46574 0
M  V30 6080 C 646.588 -1.18564 -4.1125 0
M  V30 6081 C 645.914 -0.484261 -5.32503 0
M  V30 6082 C 647.214 -2.53465 -4.56676 0
M  V30 6083 H 648.908 -1.68978 -2.47158 0
M  V30 6084 H 646.454 -0.813906 -1.18792 0
M  V30 6085 H 648.407 0.0139435 -4.21398 0
M  V30 6086 H 647.131 0.713722 -3.18706 0
M  V30 6087 H 645.79 -1.40966 -3.38414 0
M  V30 6088 H 645.438 0.458646 -5.00905 0
M  V30 6089 H 645.138 -1.12526 -5.76725 0
M  V30 6090 H 646.662 -0.254492 -6.10069 0
M  V30 6091 H 648.076 -2.35177 -5.22843 0
M  V30 6092 H 646.473 -3.13507 -5.11697 0
M  V30 6093 H 647.543 -3.13008 -3.70343 0
M  V30 6094 N 648.886 1.2938 -0.899927 0
M  V30 6095 C 649.816 2.30144 -0.39446 0
M  V30 6096 C 650.797 1.61611 0.530639 0
M  V30 6097 O 651.982 1.89119 0.441319 0
M  V30 6098 C 649.112 3.45229 0.37868 0
M  V30 6099 C 648.066 4.25564 -0.456012 0
M  V30 6100 C 647.392 5.32848 0.444637 0
M  V30 6101 C 648.692 4.93651 -1.70605 0
M  V30 6102 H 650.386 2.72673 -1.23653 0
M  V30 6103 H 647.932 1.31086 -0.596034 0
M  V30 6104 H 649.885 4.14797 0.743037 0
M  V30 6105 H 648.609 3.01545 1.25453 0
M  V30 6106 H 647.268 3.57704 -0.802704 0
M  V30 6107 H 646.916 4.85408 1.31863 0
M  V30 6108 H 646.616 5.87497 -0.110154 0
M  V30 6109 H 648.14 6.05268 0.805182 0
M  V30 6110 H 649.554 5.55655 -1.41141 0
M  V30 6111 H 647.951 5.58233 -2.20217 0
M  V30 6112 H 649.021 4.18926 -2.4419 0
M  V30 6113 N 650.364 0.662433 1.43002 0
M  V30 6114 C 651.297 -0.073459 2.28082 0
M  V30 6115 C 652.275 -0.820869 1.40358 0
M  V30 6116 O 653.459 -0.818545 1.698 0
M  V30 6117 C 650.586 -1.11097 3.19961 0
M  V30 6118 C 649.632 -0.460557 4.24006 0
M  V30 6119 S 650.465 0.772717 5.29896 0
M  V30 6120 C 651.621 -0.264028 6.25343 0
M  V30 6121 H 651.854 0.648227 2.90147 0
M  V30 6122 H 649.387 0.451566 1.47649 0
M  V30 6123 H 651.345 -1.70452 3.73439 0
M  V30 6124 H 650.006 -1.80503 2.57056 0
M  V30 6125 H 649.199 -1.24299 4.88432 0
M  V30 6126 H 648.801 0.0591038 3.73953 0
M  V30 6127 H 651.093 -1.12748 6.68052 0
M  V30 6128 H 652.036 0.345443 7.07257 0
M  V30 6129 H 652.444 -0.603964 5.6126 0
M  V30 6130 N 651.842 -1.52309 0.404946 0
M  V30 6131 C 653.088 -2.02065 -0.172455 0
M  V30 6132 C 653.421 -1.29022 -1.45145 0
M  V30 6133 O 652.696 -0.395284 -1.90441 0
M  V30 6134 C 652.979 -3.5759 -0.424433 0
M  V30 6135 C 652.832 -4.41287 0.870945 0
M  V30 6136 C 654.151 -4.23186 -1.20837 0
M  V30 6137 H 651.27 -0.734454 -0.0612035 0
M  V30 6138 H 653.912 -1.82236 0.53759 0
M  V30 6139 H 652.062 -3.74617 -1.02929 0
M  V30 6140 H 653.734 -4.3598 1.50729 0
M  V30 6141 H 651.977 -4.07669 1.48284 0
M  V30 6142 H 652.648 -5.48171 0.649083 0
M  V30 6143 H 655.124 -4.10232 -0.696338 0
M  V30 6144 H 654 -5.31953 -1.35343 0
M  V30 6145 H 654.261 -3.81862 -2.22786 0
M  V30 6146 N 653.32 -0.135238 -1.57019 0
M  V30 6147 C 654.56 0.521686 -1.9763 0
M  V30 6148 C 654.924 1.62804 -1.01778 0
M  V30 6149 O 656.125 2.345 -1.31389 0
M  V30 6150 C 654.396 1.0257 -3.42365 0
M  V30 6151 S 655.955 1.68888 -4.04997 0
M  V30 6152 H 652.773 0.169064 -0.690607 0
M  V30 6153 H 655.375 -0.224168 -1.94211 0
M  V30 6154 H 654.079 0.209556 -4.09865 0
M  V30 6155 H 653.61 1.80645 -3.49472 0
M  V30 6156 H 655.625 2.97554 -3.97084 0
M  V30 6157 N 654.798 1.5699 0.138552 0
M  V30 6158 C 656.046 1.83446 0.848053 0
M  V30 6159 C 656.367 0.71744 1.81322 0
M  V30 6160 O 655.637 -0.260228 1.94164 0
M  V30 6161 H 654.217 0.676792 0.316166 0
M  V30 6162 H 656.879 1.94462 0.130538 0
M  V30 6163 H 655.975 2.78677 1.40518 0
M  V30 6164 N 656.276 -0.40816 1.52223 0
M  V30 6165 C 657.522 -1.15673 1.66576 0
M  V30 6166 C 657.855 -1.90141 0.394996 0
M  V30 6167 O 657.13 -1.84798 -0.606613 0
M  V30 6168 C 657.413 -2.15042 2.88841 0
M  V30 6169 C 657.266 -1.44465 4.25969 0
M  V30 6170 C 658.585 -3.15699 3.0663 0
M  V30 6171 H 655.704 -0.41916 0.606196 0
M  V30 6172 H 658.346 -0.442348 1.84779 0
M  V30 6173 H 656.496 -2.75964 2.73452 0
M  V30 6174 H 658.168 -0.866544 4.53088 0
M  V30 6175 H 656.411 -0.746612 4.27327 0
M  V30 6176 H 657.082 -2.16976 5.07568 0
M  V30 6177 H 659.558 -2.64854 3.20923 0
M  V30 6178 H 658.434 -3.82491 3.9369 0
M  V30 6179 H 658.695 -3.83481 2.19987 0
M  V30 6180 N 657.755 -1.42862 -0.66545 0
M  V30 6181 C 658.685 -1.49867 -1.79059 0
M  V30 6182 C 659.666 -0.354394 -1.66367 0
M  V30 6183 O 660.851 -0.569969 -1.85647 0
M  V30 6184 C 657.981 -1.40943 -3.17415 0
M  V30 6185 C 656.935 -2.53495 -3.44854 0
M  V30 6186 C 656.261 -2.29626 -4.82883 0
M  V30 6187 C 657.561 -3.95781 -3.40815 0
M  V30 6188 H 659.255 -2.44037 -1.73453 0
M  V30 6189 H 656.801 -1.17456 -0.833071 0
M  V30 6190 H 658.754 -1.4445 -3.95869 0
M  V30 6191 H 657.478 -0.432716 -3.23721 0
M  V30 6192 H 656.137 -2.4932 -2.68766 0
M  V30 6193 H 655.785 -1.30226 -4.8585 0
M  V30 6194 H 655.485 -3.05065 -5.02204 0
M  V30 6195 H 657.009 -2.34897 -5.63609 0
M  V30 6196 H 658.423 -4.01508 -4.09224 0
M  V30 6197 H 656.82 -4.71148 -3.71672 0
M  V30 6198 H 657.89 -4.21786 -2.39216 0
M  V30 6199 N 659.233 0.902656 -1.29189 0
M  V30 6200 C 660.482 1.6475 -1.16362 0
M  V30 6201 C 660.795 1.93517 0.284682 0
M  V30 6202 O 662.001 2.66192 0.534229 0
M  V30 6203 C 660.457 2.96848 -2.03493 0
M  V30 6204 C 660.065 2.75687 -3.5313 0
M  V30 6205 C 661.809 3.74762 -1.99383 0
M  V30 6206 C 659.716 4.03492 -4.32375 0
M  V30 6207 H 658.646 0.618041 -0.431904 0
M  V30 6208 H 661.297 1.0008 -1.53806 0
M  V30 6209 H 659.679 3.62715 -1.58916 0
M  V30 6210 H 660.853 2.18431 -4.05739 0
M  V30 6211 H 659.168 2.11171 -3.58881 0
M  V30 6212 H 661.765 4.69515 -2.5585 0
M  V30 6213 H 662.108 4.04767 -0.973123 0
M  V30 6214 H 662.641 3.15732 -2.41988 0
M  V30 6215 H 659.38 3.78656 -5.3507 0
M  V30 6216 H 658.9 4.60318 -3.84535 0
M  V30 6217 H 660.579 4.71662 -4.42881 0
M  V30 6218 N 660.711 1.11618 1.11262 0
M  V30 6219 C 661.641 0.79846 2.19424 0
M  V30 6220 C 662.622 -0.234003 1.68483 0
M  V30 6221 O 663.807 -0.0970704 1.93957 0
M  V30 6222 C 660.937 0.242892 3.4645 0
M  V30 6223 C 659.891 1.20744 4.10615 0
M  V30 6224 C 659.217 0.512494 5.32238 0
M  V30 6225 C 660.517 2.55884 4.55325 0
M  V30 6226 H 662.211 1.70286 2.46258 0
M  V30 6227 H 659.757 0.820195 1.18359 0
M  V30 6228 H 661.71 0.00840447 4.21399 0
M  V30 6229 H 660.434 -0.696811 3.1908 0
M  V30 6230 H 659.093 1.42759 3.37662 0
M  V30 6231 H 658.741 -0.432075 5.01141 0
M  V30 6232 H 658.441 1.15583 5.7612 0
M  V30 6233 H 659.965 0.286842 6.09926 0
M  V30 6234 H 661.379 2.37946 5.21588 0
M  V30 6235 H 659.776 3.16216 5.10027 0
M  V30 6236 H 660.846 3.14968 3.68678 0
M  V30 6237 N 662.189 -1.289 0.906776 0
M  V30 6238 C 663.435 -1.95558 0.53712 0
M  V30 6239 C 663.768 -1.71262 -0.915582 0
M  V30 6240 O 663.043 -1.02961 -1.65013 0
M  V30 6241 C 663.326 -3.50198 0.838645 0
M  V30 6242 C 663.179 -3.83923 2.34357 0
M  V30 6243 C 664.498 -4.38861 0.329988 0
M  V30 6244 H 661.617 -0.710289 0.196617 0
M  V30 6245 H 664.259 -1.52392 1.13475 0
M  V30 6246 H 662.409 -3.87096 0.330024 0
M  V30 6247 H 664.081 -3.56933 2.92227 0
M  V30 6248 H 662.324 -3.31215 2.80141 0
M  V30 6249 H 662.995 -4.91883 2.5051 0
M  V30 6250 H 665.471 -4.08996 0.765609 0
M  V30 6251 H 664.347 -5.45931 0.570105 0
M  V30 6252 H 664.608 -4.35352 -0.769511 0
M  V30 6253 N 663.667 -0.670007 -1.42649 0
M  V30 6254 C 664.614 0.0112928 -2.30797 0
M  V30 6255 C 665.584 0.797627 -1.45695 0
M  V30 6256 O 666.769 0.770845 -1.74535 0
M  V30 6257 C 663.909 0.95998 -3.31479 0
M  V30 6258 C 663.022 0.167975 -4.31673 0
M  V30 6259 C 662.157 1.11198 -5.19431 0
M  V30 6260 C 661.196 0.311381 -6.11307 0
M  V30 6261 N 660.333 1.20784 -6.91633 0
M  V30 6262 H 665.173 -0.746231 -2.88505 0
M  V30 6263 H 662.71 -0.379739 -1.42114 0
M  V30 6264 H 664.668 1.52379 -3.88377 0
M  V30 6265 H 663.298 1.68419 -2.75382 0
M  V30 6266 H 662.35 -0.512385 -3.76933 0
M  V30 6267 H 663.662 -0.453814 -4.96731 0
M  V30 6268 H 662.816 1.74587 -5.81037 0
M  V30 6269 H 661.555 1.76766 -4.54538 0
M  V30 6270 H 660.56 -0.335758 -5.48774 0
M  V30 6271 H 661.785 -0.340135 -6.78248 0
M  V30 6272 H 659.731 1.85001 -6.29373 0
M  V30 6273 H 659.648 0.64102 -7.53277 0
M  V30 6274 H 660.916 1.82936 -7.5773 0
M  V30 6275 N 665.145 1.52092 -0.413018 0
M  V30 6276 C 666.077 2.24819 0.445994 0
M  V30 6277 C 667.09 1.27925 1.00692 0
M  V30 6278 O 668.279 1.53845 0.905204 0
M  V30 6279 C 665.379 2.96951 1.6332 0
M  V30 6280 C 664.552 4.20746 1.19548 0
M  V30 6281 C 663.611 4.75668 2.25003 0
M  V30 6282 O 662.637 5.38148 1.85434 0
M  V30 6283 N 663.839 4.57579 3.57214 0
M  V30 6284 H 666.604 2.99176 -0.177209 0
M  V30 6285 H 664.165 1.60102 -0.240601 0
M  V30 6286 H 666.157 3.30586 2.33441 0
M  V30 6287 H 664.727 2.25756 2.16225 0
M  V30 6288 H 663.947 3.92881 0.32224 0
M  V30 6289 H 665.235 5.01132 0.880033 0
M  V30 6290 H 664.633 4.07758 3.92109 0
M  V30 6291 H 663.19 4.95642 4.23299 0
M  V30 6292 N 666.623 0.143563 1.56945 0
M  V30 6293 C 667.57 -0.797433 2.16586 0
M  V30 6294 C 668.54 -1.24654 1.09775 0
M  V30 6295 O 669.725 -1.31968 1.37801 0
M  V30 6296 C 666.865 -2.03253 2.78895 0
M  V30 6297 C 665.978 -1.62954 4.00087 0
M  V30 6298 C 665.113 -2.81617 4.50406 0
M  V30 6299 C 664.152 -2.37675 5.64072 0
M  V30 6300 N 663.289 -3.49335 6.09023 0
M  V30 6301 H 668.129 -0.282023 2.96662 0
M  V30 6302 H 665.666 -0.127494 1.46546 0
M  V30 6303 H 667.624 -2.75653 3.13163 0
M  V30 6304 H 666.254 -2.52211 2.01469 0
M  V30 6305 H 665.306 -0.803322 3.71821 0
M  V30 6306 H 666.618 -1.26679 4.82446 0
M  V30 6307 H 665.772 -3.62212 4.86711 0
M  V30 6308 H 664.511 -3.21134 3.67048 0
M  V30 6309 H 663.516 -1.55519 5.27346 0
M  V30 6310 H 664.741 -1.99247 6.49213 0
M  V30 6311 H 662.687 -3.8848 5.28601 0
M  V30 6312 H 662.604 -3.17064 6.86299 0
M  V30 6313 H 663.872 -4.30297 6.49973 0
M  V30 6314 N 668.101 -1.57061 -0.130224 0
M  V30 6315 C 669.048 -1.99517 -1.16024 0
M  V30 6316 C 670.018 -0.865452 -1.41771 0
M  V30 6317 O 671.203 -1.12882 -1.53826 0
M  V30 6318 C 668.343 -2.3951 -2.48453 0
M  V30 6319 C 667.456 -3.65848 -2.29737 0
M  V30 6320 C 666.591 -3.9487 -3.55318 0
M  V30 6321 C 665.63 -5.14426 -3.31711 0
M  V30 6322 N 664.767 -5.39375 -4.49466 0
M  V30 6323 H 669.607 -2.87305 -0.791194 0
M  V30 6324 H 667.144 -1.42129 -0.379195 0
M  V30 6325 H 669.102 -2.60731 -3.25692 0
M  V30 6326 H 667.732 -1.54779 -2.83272 0
M  V30 6327 H 666.784 -3.52307 -1.4347 0
M  V30 6328 H 668.096 -4.53241 -2.08263 0
M  V30 6329 H 667.25 -4.16679 -4.4098 0
M  V30 6330 H 665.989 -3.05931 -3.79813 0
M  V30 6331 H 664.994 -4.92473 -2.44439 0
M  V30 6332 H 666.219 -6.04933 -3.08598 0
M  V30 6333 H 664.165 -4.53391 -4.74102 0
M  V30 6334 H 664.082 -6.21069 -4.31055 0
M  V30 6335 H 665.35 -5.65694 -5.36293 0
M  V30 6336 N 669.579 0.400081 -1.52437 0
M  V30 6337 C 670.825 1.14456 -1.68141 0
M  V30 6338 C 671.18 1.87965 -0.410722 0
M  V30 6339 O 670.473 1.82121 0.595195 0
M  V30 6340 C 670.667 2.15914 -2.84808 0
M  V30 6341 C 670.496 1.5237 -4.231 0
M  V30 6342 C 669.266 1.29252 -4.8849 0
M  V30 6343 C 671.464 0.979722 -5.04882 0
M  V30 6344 N 669.446 0.616955 -6.10792 0
M  V30 6345 C 670.817 0.43159 -6.18496 0
M  V30 6346 C 672.872 0.875059 -4.9015 0
M  V30 6347 C 671.575 -0.210958 -7.18991 0
M  V30 6348 C 673.601 0.246351 -5.90887 0
M  V30 6349 C 672.963 -0.291062 -7.03798 0
M  V30 6350 H 669.062 0.405181 -0.668844 0
M  V30 6351 H 671.646 0.435655 -1.89763 0
M  V30 6352 H 669.817 2.84154 -2.64785 0
M  V30 6353 H 671.549 2.8279 -2.89503 0
M  V30 6354 H 668.304 1.56451 -4.47012 0
M  V30 6355 H 668.728 0.295536 -6.76355 0
M  V30 6356 H 673.37 1.27636 -4.03074 0
M  V30 6357 H 671.088 -0.6243 -8.05685 0
M  V30 6358 H 674.674 0.166765 -5.81561 0
M  V30 6359 H 673.554 -0.76988 -7.80412 0
M  V30 6360 N 671.057 1.43213 0.657864 0
M  V30 6361 C 671.989 1.43974 1.78337 0
M  V30 6362 C 673.002 0.336482 1.59285 0
M  V30 6363 O 674.191 0.600631 1.68091 0
M  V30 6364 C 671.291 1.23242 3.15697 0
M  V30 6365 C 670.464 2.46319 3.61449 0
M  V30 6366 C 669.523 2.2088 4.77597 0
M  V30 6367 O 668.549 2.942 4.87273 0
M  V30 6368 N 669.751 1.22251 5.67481 0
M  V30 6369 H 672.516 2.40993 1.78164 0
M  V30 6370 H 670.077 1.3831 0.841549 0
M  V30 6371 H 672.069 1.04113 3.91079 0
M  V30 6372 H 670.639 0.346849 3.1067 0
M  V30 6373 H 669.859 2.80904 2.76563 0
M  V30 6374 H 671.147 3.28239 3.88763 0
M  V30 6375 H 670.545 0.616433 5.62331 0
M  V30 6376 H 669.102 1.09107 6.42603 0
M  V30 6377 N 672.536 -0.895792 1.29666 0
M  V30 6378 C 673.784 -1.64339 1.17631 0
M  V30 6379 C 674.105 -1.93099 -0.271643 0
M  V30 6380 O 673.375 -1.55981 -1.18518 0
M  V30 6381 H 671.955 -0.609162 0.432354 0
M  V30 6382 H 674.617 -1.07389 1.62646 0
M  V30 6383 H 673.713 -2.59815 1.72924 0
M  V30 6384 N 674.014 -1.12206 -1.10668 0
M  V30 6385 C 674.944 -0.810086 -2.18997 0
M  V30 6386 C 675.925 0.225065 -1.68604 0
M  V30 6387 O 677.11 0.086783 -1.94006 0
M  V30 6388 C 674.24 -0.261262 -3.46316 0
M  V30 6389 C 673.194 -1.2292 -4.09969 0
M  V30 6390 C 672.52 -0.540713 -5.31959 0
M  V30 6391 C 673.82 -2.58295 -4.53962 0
M  V30 6392 H 675.514 -1.7159 -2.45352 0
M  V30 6393 H 673.06 -0.82646 -1.17922 0
M  V30 6394 H 675.013 -0.0307522 -4.21389 0
M  V30 6395 H 673.737 0.679879 -3.19445 0
M  V30 6396 H 672.396 -1.44548 -3.369 0
M  V30 6397 H 672.044 0.405492 -5.01363 0
M  V30 6398 H 671.744 -1.18637 -5.75499 0
M  V30 6399 H 673.268 -0.319184 -6.09765 0
M  V30 6400 H 674.682 -2.40709 -5.20319 0
M  V30 6401 H 673.079 -3.18916 -5.08343 0
M  V30 6402 H 674.149 -3.16918 -3.67002 0
M  V30 6403 N 675.492 1.28418 -0.913599 0
M  V30 6404 C 676.424 2.26368 -0.359169 0
M  V30 6405 C 677.437 1.54858 0.502285 0
M  V30 6406 O 678.626 1.75659 0.31719 0
M  V30 6407 C 675.726 3.35112 0.50526 0
M  V30 6408 C 674.899 4.36126 -0.333648 0
M  V30 6409 C 673.958 5.24134 0.465845 0
M  V30 6410 O 672.984 5.6907 -0.121538 0
M  V30 6411 N 674.186 5.52892 1.76891 0
M  V30 6412 H 676.951 2.74579 -1.2011 0
M  V30 6413 H 674.512 1.41898 -0.779532 0
M  V30 6414 H 676.504 3.90926 1.04684 0
M  V30 6415 H 675.074 2.86611 1.2479 0
M  V30 6416 H 674.294 3.79776 -1.0566 0
M  V30 6417 H 675.582 5.00638 -0.907669 0
M  V30 6418 H 674.98 5.18217 2.26865 0
M  V30 6419 H 673.537 6.11464 2.25732 0
M  V30 6420 N 676.97 0.677563 1.42291 0
M  V30 6421 C 677.88 0.000962654 2.346 0
M  V30 6422 C 678.896 -0.785833 1.55244 0
M  V30 6423 O 680.072 -0.727523 1.87801 0
M  V30 6424 C 677.137 -0.936746 3.33805 0
M  V30 6425 C 676.198 -0.144173 4.29058 0
M  V30 6426 C 675.431 -1.03722 5.23524 0
M  V30 6427 O 675.654 -2.27675 5.22992 0
M  V30 6428 O 674.588 -0.496542 5.99848 0
M  V30 6429 H 678.414 0.761397 2.94001 0
M  V30 6430 H 675.999 0.43781 1.42841 0
M  V30 6431 H 677.881 -1.47497 3.94744 0
M  V30 6432 H 676.556 -1.67698 2.76874 0
M  V30 6433 H 675.463 0.438224 3.71524 0
M  V30 6434 H 676.796 0.55701 4.89038 0
M  V30 6435 N 678.448 -1.51871 0.421078 0
M  V30 6436 C 679.381 -2.23851 -0.443369 0
M  V30 6437 C 680.359 -1.25142 -1.03818 0
M  V30 6438 O 681.543 -1.5423 -1.08377 0
M  V30 6439 C 678.67 -2.97637 -1.61648 0
M  V30 6440 C 677.716 -4.10873 -1.14391 0
M  V30 6441 S 678.549 -5.35408 -0.0992403 0
M  V30 6442 C 679.705 -6.12726 -1.27739 0
M  V30 6443 H 679.938 -2.96826 0.167786 0
M  V30 6444 H 677.471 -1.53027 0.205461 0
M  V30 6445 H 679.429 -3.40751 -2.28909 0
M  V30 6446 H 678.09 -2.24282 -2.199 0
M  V30 6447 H 677.283 -4.61718 -2.02069 0
M  V30 6448 H 676.885 -3.69937 -0.549775 0
M  V30 6449 H 679.177 -6.40827 -2.19881 0
M  V30 6450 H 680.12 -7.03461 -0.809239 0
M  V30 6451 H 680.528 -5.43968 -1.5086 0
M  V30 6452 N 679.926 -0.151884 -1.56866 0
M  V30 6453 C 681.342 0.204486 -1.58285 0
M  V30 6454 C 681.542 1.6431 -1.16639 0
M  V30 6455 O 680.598 2.37077 -0.868946 0
M  V30 6456 C 681.911 -0.0587019 -3.00643 0
M  V30 6457 C 683.459 0.00462303 -3.13 0
M  V30 6458 C 683.934 -0.231297 -4.57416 0
M  V30 6459 N 685.425 -0.178394 -4.62856 0
M  V30 6460 C 686.16 -0.335379 -5.72418 0
M  V30 6461 N 685.656 -0.550355 -6.90611 0
M  V30 6462 N 687.449 -0.272641 -5.61438 0
M  V30 6463 H 679.6 -1.09116 -1.82229 0
M  V30 6464 H 681.863 -0.432311 -0.843689 0
M  V30 6465 H 681.569 -1.05453 -3.35518 0
M  V30 6466 H 681.443 0.658508 -3.71407 0
M  V30 6467 H 683.83 0.991009 -2.77962 0
M  V30 6468 H 683.911 -0.744992 -2.44711 0
M  V30 6469 H 683.555 -1.2148 -4.93158 0
M  V30 6470 H 683.485 0.5387 -5.23837 0
M  V30 6471 H 685.976 -0.0170923 -3.77896 0
M  V30 6472 H 686.289 -0.660116 -7.69976 0
M  V30 6473 H 684.634 -0.586736 -6.92519 0
M  V30 6474 H 687.825 -0.105421 -4.67981 0
M  V30 6475 H 687.998 -0.398418 -6.46774 0
M  V30 6476 N 681.404 1.57128 0.121893 0
M  V30 6477 C 682.334 2.03165 1.15092 0
M  V30 6478 C 683.315 0.915587 1.43356 0
M  V30 6479 O 684.5 1.1851 1.53847 0
M  V30 6480 C 681.63 2.43352 2.47784 0
M  V30 6481 C 680.584 3.58376 2.33989 0
M  V30 6482 C 679.91 3.84454 3.71617 0
M  V30 6483 C 681.21 4.90199 1.80283 0
M  V30 6484 H 682.904 2.89382 0.768023 0
M  V30 6485 H 680.45 1.39218 0.367998 0
M  V30 6486 H 682.403 2.74163 3.20019 0
M  V30 6487 H 681.127 1.54103 2.87958 0
M  V30 6488 H 679.786 3.2777 1.64202 0
M  V30 6489 H 679.434 2.92414 4.09271 0
M  V30 6490 H 679.134 4.61877 3.6324 0
M  V30 6491 H 680.658 4.17714 4.45362 0
M  V30 6492 H 682.072 5.19565 2.42333 0
M  V30 6493 H 680.469 5.71601 1.82735 0
M  V30 6494 H 681.539 4.78904 0.760184 0
M  V30 6495 N 682.882 -0.391992 1.52647 0
M  V30 6496 C 684.293 -0.970064 1.5952 0
M  V30 6497 C 684.644 -1.91059 0.446207 0
M  V30 6498 O 683.769 -2.12062 -0.431125 0
M  V30 6499 C 684.364 -1.76614 2.89125 0
M  V30 6500 C 682.923 -2.29396 2.9842 0
M  V30 6501 C 682.07 -1.09864 2.54608 0
M  V30 6502 H 685.021 -0.171638 1.57769 0
M  V30 6503 H 685.042 -2.62511 2.75442 0
M  V30 6504 H 684.554 -1.08135 3.72731 0
M  V30 6505 H 682.655 -3.01196 2.19344 0
M  V30 6506 H 682.768 -2.59088 4.03002 0
M  V30 6507 H 681.132 -1.45777 2.08857 0
M  V30 6508 H 681.915 -0.429249 3.40606 0
M  V30 6509 N 684.36 -1.4356 -0.65026 0
M  V30 6510 C 685.585 -1.48995 -1.44275 0
M  V30 6511 C 686.01 -0.109954 -1.87778 0
M  V30 6512 O 685.368 0.896926 -1.57559 0
M  V30 6513 C 685.416 -2.44341 -2.65198 0
M  V30 6514 O 684.52 -1.93172 -3.6436 0
M  V30 6515 H 683.861 -0.503852 -0.432469 0
M  V30 6516 H 686.391 -1.88504 -0.795446 0
M  V30 6517 H 686.401 -2.61743 -3.12977 0
M  V30 6518 H 685.076 -3.44588 -2.32877 0
M  V30 6519 H 683.653 -1.85445 -3.23519 0
M  V30 6520 N 685.838 0.888903 -1.30139 0
M  V30 6521 C 687.249 1.45578 -1.16893 0
M  V30 6522 C 687.6 1.94825 0.231866 0
M  V30 6523 O 686.725 1.84661 1.12824 0
M  V30 6524 C 687.32 2.646 -2.11595 0
M  V30 6525 C 685.879 3.17389 -2.02339 0
M  V30 6526 C 685.026 1.90081 -2.01902 0
M  V30 6527 H 687.977 0.69921 -1.42467 0
M  V30 6528 H 687.998 3.40687 -1.69449 0
M  V30 6529 H 687.51 2.28726 -3.13538 0
M  V30 6530 H 685.611 3.5793 -1.03523 0
M  V30 6531 H 685.724 3.80955 -2.90534 0
M  V30 6532 H 684.088 2.08246 -1.46648 0
M  V30 6533 H 684.871 1.5647 -3.05568 0
M  V30 6534 N 687.317 1.12792 1.10072 0
M  V30 6535 C 688.227 0.812369 2.20086 0
M  V30 6536 C 689.243 -0.200349 1.72843 0
M  V30 6537 O 690.419 -0.0330262 2.01373 0
M  V30 6538 C 687.484 0.275685 3.45602 0
M  V30 6539 C 686.545 1.34881 4.07561 0
M  V30 6540 C 685.778 0.837639 5.27086 0
M  V30 6541 O 686.001 -0.327224 5.69461 0
M  V30 6542 O 684.935 1.60894 5.79997 0
M  V30 6543 H 688.761 1.73133 2.49517 0
M  V30 6544 H 686.346 0.904863 1.18881 0
M  V30 6545 H 688.228 -0.0185375 4.21396 0
M  V30 6546 H 686.903 -0.615783 3.17789 0
M  V30 6547 H 685.81 1.69625 3.33434 0
M  V30 6548 H 687.143 2.21418 4.39585 0
M  V30 6549 N 688.795 -1.27931 0.920396 0
M  V30 6550 C 689.725 -2.29487 0.431024 0
M  V30 6551 C 690.706 -1.62435 -0.504861 0
M  V30 6552 O 691.891 -1.89797 -0.411176 0
M  V30 6553 C 689.021 -3.45788 -0.323709 0
M  V30 6554 C 687.975 -4.24784 0.523658 0
M  V30 6555 C 687.301 -5.33488 -0.359809 0
M  V30 6556 C 688.601 -4.90874 1.78437 0
M  V30 6557 H 690.295 -2.70671 1.27975 0
M  V30 6558 H 687.841 -1.30121 0.616813 0
M  V30 6559 H 689.794 -4.15927 -0.676952 0
M  V30 6560 H 688.518 -3.03502 -1.2064 0
M  V30 6561 H 687.177 -3.56382 0.85951 0
M  V30 6562 H 686.825 -4.87445 -1.24124 0
M  V30 6563 H 686.525 -5.87247 0.203605 0
M  V30 6564 H 688.049 -6.06472 -0.708787 0
M  V30 6565 H 689.463 -5.53339 1.49963 0
M  V30 6566 H 687.86 -5.54659 2.29071 0
M  V30 6567 H 688.93 -4.14988 2.50824 0
M  V30 6568 N 690.273 -0.685099 -1.4193 0
M  V30 6569 C 691.183 -0.013404 -2.34596 0
M  V30 6570 C 692.199 0.777589 -1.55658 0
M  V30 6571 O 693.375 0.717553 -1.88184 0
M  V30 6572 C 690.44 0.919031 -3.34297 0
M  V30 6573 C 689.501 0.121417 -4.29128 0
M  V30 6574 C 688.734 1.00944 -5.24067 0
M  V30 6575 O 688.957 2.24898 -5.24192 0
M  V30 6576 O 687.891 0.464724 -6.00103 0
M  V30 6577 H 691.717 -0.776978 -2.93593 0
M  V30 6578 H 689.302 -0.445379 -1.42607 0
M  V30 6579 H 691.184 1.45402 -3.9552 0
M  V30 6580 H 689.859 1.66228 -2.77759 0
M  V30 6581 H 688.766 -0.45792 -3.71287 0
M  V30 6582 H 690.099 -0.582937 -4.88736 0
M  V30 6583 N 691.751 1.51645 -0.429126 0
M  V30 6584 C 692.681 2.30434 0.377148 0
M  V30 6585 C 693.662 1.35493 1.02838 0
M  V30 6586 O 694.847 1.6441 1.03359 0
M  V30 6587 C 691.977 3.14038 1.48315 0
M  V30 6588 C 690.931 4.1719 0.955855 0
M  V30 6589 C 690.257 4.89263 2.15698 0
M  V30 6590 C 691.557 5.223 -0.00402136 0
M  V30 6591 H 693.251 2.98085 -0.280336 0
M  V30 6592 H 690.797 1.43354 -0.136265 0
M  V30 6593 H 692.75 3.67933 2.05435 0
M  V30 6594 H 691.474 2.44193 2.16881 0
M  V30 6595 H 690.133 3.64335 0.406929 0
M  V30 6596 H 689.781 4.15929 2.82864 0
M  V30 6597 H 689.481 5.59009 1.81059 0
M  V30 6598 H 691.005 5.45978 2.73387 0
M  V30 6599 H 692.419 5.71315 0.476607 0
M  V30 6600 H 690.816 5.99525 -0.26258 0
M  V30 6601 H 691.886 4.75638 -0.943236 0
M  V30 6602 N 693.229 0.160201 1.56784 0
M  V30 6603 C 694.454 -0.497373 2.01348 0
M  V30 6604 C 694.879 -1.56757 1.03966 0
M  V30 6605 O 694.237 -1.81292 0.0174455 0
M  V30 6606 C 694.285 -1.0628 3.44582 0
M  V30 6607 O 693.389 -2.17723 3.50244 0
M  V30 6608 H 692.73 -0.120295 0.653012 0
M  V30 6609 H 695.26 0.260821 2.02931 0
M  V30 6610 H 695.27 -1.38819 3.83658 0
M  V30 6611 H 693.945 -0.279166 4.14962 0
M  V30 6612 H 692.522 -1.86313 3.2302 0
M  V30 6613 N 694.707 -1.5719 -0.113559 0
M  V30 6614 C 695.654 -2.00736 -1.13901 0
M  V30 6615 C 696.624 -0.88044 -1.40846 0
M  V30 6616 O 697.809 -1.14507 -1.5262 0
M  V30 6617 C 694.949 -2.42132 -2.45899 0
M  V30 6618 C 694.062 -3.68264 -2.25844 0
M  V30 6619 C 693.197 -3.98617 -3.5111 0
M  V30 6620 C 692.236 -5.17915 -3.26236 0
M  V30 6621 N 691.373 -5.44111 -4.4372 0
M  V30 6622 H 696.213 -2.88128 -0.760677 0
M  V30 6623 H 693.75 -1.42523 -0.364099 0
M  V30 6624 H 695.708 -2.6417 -3.22908 0
M  V30 6625 H 694.338 -1.57775 -2.81615 0
M  V30 6626 H 693.39 -3.53809 -1.39726 0
M  V30 6627 H 694.702 -4.55425 -2.03444 0
M  V30 6628 H 693.856 -4.21333 -4.36536 0
M  V30 6629 H 692.595 -3.09942 -3.76546 0
M  V30 6630 H 691.6 -4.95038 -2.39202 0
M  V30 6631 H 692.825 -6.08172 -3.02165 0
M  V30 6632 H 690.771 -4.58394 -4.69266 0
M  V30 6633 H 690.688 -6.25606 -4.24444 0
M  V30 6634 H 691.956 -5.71351 -5.30263 0
M  V30 6635 N 696.185 0.383891 -1.52853 0
M  V30 6636 C 697.115 1.47559 -1.80965 0
M  V30 6637 C 698.096 1.5669 -0.661986 0
M  V30 6638 O 699.281 1.71556 -0.910072 0
M  V30 6639 C 696.411 2.85114 -1.98312 0
M  V30 6640 C 695.365 2.9082 -3.14019 0
M  V30 6641 C 694.691 4.30873 -3.16627 0
M  V30 6642 C 695.991 2.60001 -4.52986 0
M  V30 6643 H 697.685 1.24283 -2.72386 0
M  V30 6644 H 695.231 0.596445 -1.31067 0
M  V30 6645 H 697.184 3.61496 -2.16561 0
M  V30 6646 H 695.908 3.09738 -1.03585 0
M  V30 6647 H 694.567 2.16886 -2.9556 0
M  V30 6648 H 694.215 4.52545 -2.19573 0
M  V30 6649 H 693.915 4.3561 -3.94357 0
M  V30 6650 H 695.439 5.09154 -3.37038 0
M  V30 6651 H 696.853 3.261 -4.71521 0
M  V30 6652 H 695.25 2.76081 -5.32822 0
M  V30 6653 H 696.32 1.5532 -4.59351 0
M  V30 6654 N 697.663 1.43903 0.642637 0
M  V30 6655 C 699.079 1.27536 0.959519 0
M  V30 6656 C 699.279 0.202751 2.00477 0
M  V30 6657 O 698.335 -0.415256 2.49062 0
M  V30 6658 C 699.648 2.6432 1.43372 0
M  V30 6659 C 701.196 2.71937 1.54981 0
M  V30 6660 C 701.671 4.09164 2.05789 0
M  V30 6661 N 703.162 4.11282 2.13076 0
M  V30 6662 C 703.897 5.14303 2.53534 0
M  V30 6663 N 703.393 6.27693 2.93212 0
M  V30 6664 N 705.186 5.01657 2.53567 0
M  V30 6665 H 697.337 2.12344 -0.0488376 0
M  V30 6666 H 699.6 0.947124 0.0407559 0
M  V30 6667 H 699.306 3.43826 0.740048 0
M  V30 6668 H 699.18 2.90432 2.40685 0
M  V30 6669 H 701.567 1.92757 2.23448 0
M  V30 6670 H 701.648 2.49578 0.560739 0
M  V30 6671 H 701.292 4.88815 1.37921 0
M  V30 6672 H 701.222 4.28893 3.05546 0
M  V30 6673 H 703.713 3.2944 1.85143 0
M  V30 6674 H 704.026 7.02125 3.22863 0
M  V30 6675 H 702.371 6.31149 2.90991 0
M  V30 6676 H 705.562 4.12134 2.21952 0
M  V30 6677 H 705.735 5.82072 2.84774 0
M  V30 6678 N 699.141 -0.881989 1.30609 0
M  V30 6679 C 700.369 -1.66711 1.22536 0
M  V30 6680 C 700.784 -1.87614 -0.2113 0
M  V30 6681 O 700.141 -1.42576 -1.13923 0
M  V30 6682 C 700.192 -3.04182 1.95335 0
M  V30 6683 O 699.913 -2.8422 3.33393 0
M  V30 6684 C 701.414 -3.98617 1.93956 0
M  V30 6685 H 698.634 -0.520124 0.423925 0
M  V30 6686 H 701.178 -1.10174 1.72285 0
M  V30 6687 H 699.333 -3.57442 1.49378 0
M  V30 6688 H 699.747 -3.71452 3.70302 0
M  V30 6689 H 701.221 -4.92433 2.49426 0
M  V30 6690 H 701.698 -4.29473 0.919198 0
M  V30 6691 H 702.304 -3.51292 2.39738 0
M  V30 6692 N 700.619 -1.13374 -1.09472 0
M  V30 6693 C 701.844 -0.918711 -1.85942 0
M  V30 6694 C 702.269 0.527225 -1.8056 0
M  V30 6695 O 701.627 1.37408 -1.18274 0
M  V30 6696 C 701.675 -1.41056 -3.31867 0
M  V30 6697 O 700.779 -0.595496 -4.08078 0
M  V30 6698 H 700.12 -0.329297 -0.576593 0
M  V30 6699 H 702.65 -1.50829 -1.38245 0
M  V30 6700 H 702.66 -1.41398 -3.82715 0
M  V30 6701 H 701.335 -2.46335 -3.35099 0
M  V30 6702 H 699.912 -0.659911 -3.67014 0
M  V30 6703 N 702.098 1.27442 -0.927168 0
M  V30 6704 C 703.061 2.2512 -0.430525 0
M  V30 6705 C 704.061 1.54357 0.450619 0
M  V30 6706 O 705.251 1.72371 0.251774 0
M  V30 6707 C 702.383 3.38763 0.381144 0
M  V30 6708 H 703.576 2.70569 -1.29354 0
M  V30 6709 H 701.129 1.39355 -0.707806 0
M  V30 6710 H 701.864 2.98695 1.263 0
M  V30 6711 H 701.649 3.91298 -0.250618 0
M  V30 6712 H 703.139 4.11364 0.719012 0
M  V30 6713 N 703.576 0.692616 1.41565 0
M  V30 6714 C 704.825 0.219452 2.00503 0
M  V30 6715 C 705.138 -1.18683 1.55479 0
M  V30 6716 O 706.344 -1.75731 2.06956 0
M  V30 6717 C 704.8 0.341451 3.58277 0
M  V30 6718 C 704.408 1.75291 4.12283 0
M  V30 6719 C 706.152 -0.0720899 4.24439 0
M  V30 6720 C 704.059 1.82673 5.62481 0
M  V30 6721 H 702.989 0.0782874 0.749925 0
M  V30 6722 H 705.64 0.860386 1.62079 0
M  V30 6723 H 704.022 -0.367683 3.94289 0
M  V30 6724 H 705.196 2.49057 3.87695 0
M  V30 6725 H 703.511 2.11587 3.58636 0
M  V30 6726 H 706.108 -0.0373385 5.34687 0
M  V30 6727 H 706.451 -1.11034 4.0122 0
M  V30 6728 H 706.984 0.586663 3.9345 0
M  V30 6729 H 703.723 2.84539 5.90523 0
M  V30 6730 H 703.243 1.13288 5.89004 0
M  V30 6731 H 704.922 1.58827 6.27203 0
M  V30 6732 N 705.054 -1.51416 0.437162 0
M  V30 6733 C 706.47 -1.59349 0.0894459 0
M  V30 6734 C 706.67 -1.44809 -1.40116 0
M  V30 6735 O 705.726 -1.28924 -2.17106 0
M  V30 6736 C 707.039 -2.9446 0.609398 0
M  V30 6737 C 708.587 -3.07769 0.569824 0
M  V30 6738 C 709.062 -4.45404 1.06675 0
M  V30 6739 N 710.553 -4.51723 1.02473 0
M  V30 6740 C 711.288 -5.56544 1.3801 0
M  V30 6741 N 710.784 -6.68784 1.80831 0
M  V30 6742 N 712.577 -5.46901 1.29828 0
M  V30 6743 H 704.728 -1.59112 1.40703 0
M  V30 6744 H 706.991 -0.750031 0.579791 0
M  V30 6745 H 706.697 -3.1047 1.65231 0
M  V30 6746 H 706.571 -3.77184 0.0342236 0
M  V30 6747 H 708.958 -2.91428 -0.464107 0
M  V30 6748 H 709.039 -2.26885 1.1814 0
M  V30 6749 H 708.683 -4.62492 2.09914 0
M  V30 6750 H 708.613 -5.24827 0.431712 0
M  V30 6751 H 711.104 -3.71165 0.710258 0
M  V30 6752 H 711.417 -7.44787 2.06185 0
M  V30 6753 H 709.762 -6.69992 1.84757 0
M  V30 6754 H 712.953 -4.581 0.962397 0
M  V30 6755 H 713.126 -6.2848 1.57851 0
M  V30 6756 N 706.532 -0.168513 -1.56696 0
M  V30 6757 C 707.76 0.483503 -2.01171 0
M  V30 6758 C 708.175 1.56994 -1.04872 0
M  V30 6759 O 707.532 1.82434 -0.0491337 0
M  V30 6760 C 707.583 1.0644 -3.45475 0
M  V30 6761 O 707.304 0.0213375 -4.38095 0
M  V30 6762 C 708.805 1.79493 -4.05336 0
M  V30 6763 H 706.025 0.124002 -0.659443 0
M  V30 6764 H 708.569 -0.269419 -2.02717 0
M  V30 6765 H 706.724 1.76784 -3.44712 0
M  V30 6766 H 707.138 0.449837 -5.22567 0
M  V30 6767 H 708.612 2.15401 -5.08238 0
M  V30 6768 H 709.089 2.68889 -3.47269 0
M  V30 6769 H 709.695 1.13798 -4.09793 0
M  V30 6770 N 708.01 1.57248 0.105221 0
M  V30 6771 C 708.973 2.00388 1.11252 0
M  V30 6772 C 709.973 0.89594 1.33527 0
M  V30 6773 O 711.163 1.16166 1.29811 0
M  V30 6774 C 708.295 2.35589 2.46395 0
M  V30 6775 H 709.488 2.90591 0.741424 0
M  V30 6776 H 707.041 1.52332 0.349956 0
M  V30 6777 H 707.776 1.4831 2.884 0
M  V30 6778 H 707.561 3.16408 2.31578 0
M  V30 6779 H 709.051 2.69658 3.18864 0
M  V30 6780 N 709.488 -0.375779 1.53054 0
M  V30 6781 C 710.899 -0.95309 1.6054 0
M  V30 6782 C 711.25 -1.90575 0.466446 0
M  V30 6783 O 710.375 -2.12507 -0.408609 0
M  V30 6784 C 710.97 -1.73537 2.90982 0
M  V30 6785 C 709.529 -2.26218 3.00836 0
M  V30 6786 C 708.676 -1.07157 2.55759 0
M  V30 6787 H 711.627 -0.154895 1.57942 0
M  V30 6788 H 711.648 -2.59574 2.78211 0
M  V30 6789 H 711.16 -1.04176 3.73857 0
M  V30 6790 H 709.261 -2.98852 2.22527 0
M  V30 6791 H 709.374 -2.54799 4.05727 0
M  V30 6792 H 707.738 -1.43553 2.10391 0
M  V30 6793 H 708.521 -0.393099 3.41042 0
M  V30 6794 N 710.966 -1.44241 -0.634997 0
M  V30 6795 C 711.914 -1.51103 -1.76835 0
M  V30 6796 C 712.908 -0.383051 -1.65012 0
M  V30 6797 O 714.114 -0.557832 -1.71138 0
M  V30 6798 H 710.489 -0.474076 -0.583743 0
M  V30 6799 H 712.46 -2.46499 -1.68169 0
M  V30 6800 C 711.209 -1.4687 -3.15158 0
M  V30 6801 H 710.532 -2.32979 -3.24901 0
M  V30 6802 H 711.972 -1.55731 -3.94365 0
M  V30 6803 C 710.431 -0.188884 -3.3637 0
M  V30 6804 O 710.961 0.742487 -3.94778 0
M  V30 6805 N 709.167 -0.0932516 -2.9045 0
M  V30 6806 H 708.714 -0.852004 -2.43102 0
M  V30 6807 H 708.672 0.762308 -3.05018 0
M  V30 6808 N 712.444 0.87505 -1.31075 0
M  V30 6809 C 713.855 1.4433 -1.18431 0
M  V30 6810 C 714.206 1.9506 0.211189 0
M  V30 6811 O 713.331 1.85847 1.10859 0
M  V30 6812 C 713.926 2.62341 -2.14389 0
M  V30 6813 C 712.485 3.15225 -2.05694 0
M  V30 6814 C 711.632 1.87929 -2.03907 0
M  V30 6815 H 714.583 0.684061 -1.432 0
M  V30 6816 H 714.604 3.3887 -1.73053 0
M  V30 6817 H 714.116 2.25388 -3.15946 0
M  V30 6818 H 712.217 3.56812 -1.07314 0
M  V30 6819 H 712.33 3.77853 -2.94558 0
M  V30 6820 H 710.694 2.06679 -1.48849 0
M  V30 6821 H 711.477 1.53221 -3.07211 0
M  V30 6822 N 713.922 1.13953 1.08869 0
M  V30 6823 C 715.152 0.926825 1.84644 0
M  V30 6824 C 715.56 -0.527941 1.81685 0
M  V30 6825 O 714.903 -1.37742 1.21543 0
M  V30 6826 C 714.965 1.34416 3.33426 0
M  V30 6827 C 714.629 2.81351 3.60126 0
M  V30 6828 C 715.626 3.79486 3.55368 0
M  V30 6829 C 713.311 3.1865 3.88288 0
M  V30 6830 C 715.305 5.1293 3.78393 0
M  V30 6831 C 712.992 4.5227 4.10968 0
M  V30 6832 C 713.99 5.4922 4.06013 0
M  V30 6833 O 713.678 6.80429 4.28102 0
M  V30 6834 H 713.41 0.33013 0.589907 0
M  V30 6835 H 715.964 1.51738 1.38436 0
M  V30 6836 H 714.194 0.696901 3.80368 0
M  V30 6837 H 715.883 1.10302 3.90626 0
M  V30 6838 H 716.649 3.52017 3.3363 0
M  V30 6839 H 712.528 2.43785 3.91267 0
M  V30 6840 H 716.072 5.88591 3.74442 0
M  V30 6841 H 711.969 4.79462 4.32188 0
M  V30 6842 H 712.737 6.86617 4.45533 0
M  V30 6843 N 715.4 -1.26948 0.933913 0
M  V30 6844 C 716.63 -1.97898 0.593279 0
M  V30 6845 C 717.038 -1.69806 -0.834412 0
M  V30 6846 O 716.381 -0.958704 -1.56699 0
M  V30 6847 C 716.443 -3.51657 0.746825 0
M  V30 6848 C 716.107 -4.03384 2.14779 0
M  V30 6849 C 717.104 -4.15682 3.12257 0
M  V30 6850 C 714.789 -4.37577 2.46641 0
M  V30 6851 C 716.783 -4.61455 4.39702 0
M  V30 6852 C 714.47 -4.8304 3.7432 0
M  V30 6853 C 715.468 -4.94939 4.70664 0
M  V30 6854 O 715.156 -5.39403 5.96071 0
M  V30 6855 H 714.888 -0.63814 0.223055 0
M  V30 6856 H 717.442 -1.62608 1.2549 0
M  V30 6857 H 715.672 -3.8669 0.0280889 0
M  V30 6858 H 717.361 -4.03821 0.410328 0
M  V30 6859 H 718.127 -3.89519 2.88964 0
M  V30 6860 H 714.006 -4.27554 1.72391 0
M  V30 6861 H 717.55 -4.70658 5.14905 0
M  V30 6862 H 713.447 -5.08646 3.97429 0
M  V30 6863 H 714.215 -5.57641 5.99148 0
M  V30 6864 N 716.879 -0.700114 -1.41195 0
M  V30 6865 C 718.119 -0.237223 -2.03019 0
M  V30 6866 C 718.483 1.14304 -1.54268 0
M  V30 6867 O 719.684 1.70204 -2.08048 0
M  V30 6868 C 717.955 -0.297442 -3.5616 0
M  V30 6869 S 719.514 0.0907367 -4.38706 0
M  V30 6870 H 716.332 -0.0952147 -0.704596 0
M  V30 6871 H 718.934 -0.918901 -1.72559 0
M  V30 6872 H 717.638 -1.30391 -3.89135 0
M  V30 6873 H 717.169 0.403233 -3.91328 0
M  V30 6874 H 719.184 1.31721 -4.78397 0
M  V30 6875 N 718.357 1.51182 -0.445186 0
M  V30 6876 C 719.289 2.25714 0.398206 0
M  V30 6877 C 720.302 1.30032 0.979562 0
M  V30 6878 O 721.491 1.55731 0.872368 0
M  V30 6879 C 718.591 3.00348 1.56985 0
M  V30 6880 C 717.764 4.23187 1.10596 0
M  V30 6881 C 716.823 4.80334 2.14863 0
M  V30 6882 O 715.849 5.4196 1.73977 0
M  V30 6883 N 717.051 4.65053 3.47427 0
M  V30 6884 H 719.816 2.98732 -0.240629 0
M  V30 6885 H 717.377 1.59556 -0.274507 0
M  V30 6886 H 719.369 3.35464 2.26376 0
M  V30 6887 H 717.939 2.30291 2.11387 0
M  V30 6888 H 717.159 3.93476 0.238832 0
M  V30 6889 H 718.447 5.02886 0.773537 0
M  V30 6890 H 717.845 4.15984 3.83372 0
M  V30 6891 H 716.402 5.04509 4.12691 0
M  V30 6892 N 719.835 0.176821 1.56605 0
M  V30 6893 C 721.081 -0.467406 1.9734 0
M  V30 6894 C 721.414 -1.62523 1.06301 0
M  V30 6895 O 720.689 -1.94182 0.11125 0
M  V30 6896 C 720.972 -0.945106 3.47476 0
M  V30 6897 C 720.825 0.213273 4.49294 0
M  V30 6898 C 722.144 -1.8169 4.00845 0
M  V30 6899 H 719.263 -0.168426 0.717497 0
M  V30 6900 H 721.905 0.264065 1.88156 0
M  V30 6901 H 720.055 -1.56841 3.55434 0
M  V30 6902 H 721.727 0.850508 4.53392 0
M  V30 6903 H 719.97 0.867918 4.25029 0
M  V30 6904 H 720.641 -0.163187 5.51759 0
M  V30 6905 H 723.117 -1.29139 3.95553 0
M  V30 6906 H 721.993 -2.12015 5.06301 0
M  V30 6907 H 722.254 -2.76463 3.44994 0
M  V30 6908 N 721.313 -1.57302 -0.09688 0
M  V30 6909 C 722.561 -1.8563 -0.799117 0
M  V30 6910 C 722.882 -0.765263 -1.79356 0
M  V30 6911 O 722.152 0.208657 -1.94786 0
M  V30 6912 H 720.732 -0.684937 -0.298111 0
M  V30 6913 H 723.394 -1.9474 -0.0789341 0
M  V30 6914 H 722.49 -2.82305 -1.3308 0
M  V30 6915 N 722.791 0.367657 -1.53252 0
M  V30 6916 C 723.721 1.45632 -1.8252 0
M  V30 6917 C 724.702 1.55979 -0.678568 0
M  V30 6918 O 725.887 1.70581 -0.928217 0
M  V30 6919 C 723.017 2.82994 -2.01325 0
M  V30 6920 C 721.971 2.87473 -3.17086 0
M  V30 6921 C 721.297 4.2749 -3.21179 0
M  V30 6922 C 722.597 2.55182 -4.55719 0
M  V30 6923 H 724.291 1.21387 -2.73689 0
M  V30 6924 H 721.837 0.58251 -1.31692 0
M  V30 6925 H 723.79 3.59179 -2.20383 0
M  V30 6926 H 722.514 3.08622 -1.06864 0
M  V30 6927 H 721.173 2.13739 -2.97844 0
M  V30 6928 H 720.821 4.5019 -2.24361 0
M  V30 6929 H 720.521 4.31403 -3.98955 0
M  V30 6930 H 722.045 5.0555 -3.42419 0
M  V30 6931 H 723.459 3.21081 -4.74953 0
M  V30 6932 H 721.856 2.70414 -5.3572 0
M  V30 6933 H 722.926 1.5044 -4.60973 0
M  V30 6934 N 724.269 1.44576 0.627338 0
M  V30 6935 C 725.517 1.47267 1.38408 0
M  V30 6936 C 725.838 0.107971 1.94701 0
M  V30 6937 O 725.108 -0.860206 1.76004 0
M  V30 6938 H 723.688 0.542276 0.513756 0
M  V30 6939 H 726.35 1.80383 0.738099 0
M  V30 6940 H 725.446 2.20025 2.21349 0
M  V30 6941 N 725.747 -0.868086 1.31537 0
M  V30 6942 C 727.158 -1.437 1.19195 0
M  V30 6943 C 727.509 -1.95169 -0.200842 0
M  V30 6944 O 726.634 -1.86432 -1.09872 0
M  V30 6945 C 727.229 -2.612 2.15778 0
M  V30 6946 C 725.788 -3.1413 2.07363 0
M  V30 6947 C 724.935 -1.86845 2.049 0
M  V30 6948 H 727.886 -0.676457 1.43561 0
M  V30 6949 H 727.907 -3.37948 1.74847 0
M  V30 6950 H 727.419 -2.23709 3.17137 0
M  V30 6951 H 725.52 -3.56238 1.09204 0
M  V30 6952 H 725.633 -3.76285 2.96557 0
M  V30 6953 H 723.997 -2.05886 1.49943 0
M  V30 6954 H 724.78 -1.51589 3.08019 0
M  V30 6955 N 727.225 -1.14528 -1.08264 0
M  V30 6956 C 728.188 -0.83632 -2.13397 0
M  V30 6957 C 729.188 0.159715 -1.60005 0
M  V30 6958 O 730.378 -0.0688098 -1.74064 0
M  V30 6959 C 727.51 -0.246973 -3.40004 0
M  V30 6960 H 728.703 -1.76808 -2.42237 0
M  V30 6961 H 726.256 -0.951509 -1.24 0
M  V30 6962 H 726.991 0.693436 -3.168 0
M  V30 6963 H 726.776 -0.964412 -3.80055 0
M  V30 6964 H 728.266 -0.0480679 -4.17572 0
M  V30 6965 N 728.703 1.26451 -0.940633 0
M  V30 6966 C 729.635 2.25556 -0.407104 0
M  V30 6967 C 730.648 1.55888 0.469324 0
M  V30 6968 O 731.837 1.76292 0.279858 0
M  V30 6969 C 728.937 3.36109 0.434064 0
M  V30 6970 C 728.11 4.3532 -0.426082 0
M  V30 6971 C 727.169 5.25004 0.354563 0
M  V30 6972 O 726.195 5.68684 -0.242219 0
M  V30 6973 N 727.397 5.5652 1.65123 0
M  V30 6974 H 730.162 2.7197 -1.25907 0
M  V30 6975 H 727.723 1.40212 -0.809456 0
M  V30 6976 H 729.715 3.93059 0.963684 0
M  V30 6977 H 728.285 2.89194 1.18683 0
M  V30 6978 H 727.505 3.77449 -1.13692 0
M  V30 6979 H 728.793 4.986 -1.01366 0
M  V30 6980 H 728.191 5.22912 2.15822 0
M  V30 6981 H 726.748 6.16115 2.12711 0
M  V30 6982 N 730.181 0.707592 1.40822 0
M  V30 6983 C 731.406 0.251626 2.05868 0
M  V30 6984 C 731.831 -1.09503 1.5294 0
M  V30 6985 O 731.189 -1.68806 0.661385 0
M  V30 6986 C 731.237 0.23287 3.59847 0
M  V30 6987 O 730.341 -0.788477 4.04792 0
M  V30 6988 H 729.682 0.119936 0.653078 0
M  V30 6989 H 732.212 0.96583 1.80369 0
M  V30 6990 H 732.222 0.0678204 4.07944 0
M  V30 6991 H 730.897 1.21565 3.97737 0
M  V30 6992 H 729.474 -0.591802 3.68174 0
M  V30 6993 N 731.66 -1.50943 0.453197 0
M  V30 6994 C 732.906 -2.03153 -0.100277 0
M  V30 6995 C 733.261 -1.33032 -1.38997 0
M  V30 6996 O 732.554 -0.441423 -1.86446 0
M  V30 6997 C 732.748 -3.55603 -0.357944 0
M  V30 6998 C 732.577 -4.40495 0.905223 0
M  V30 6999 C 731.347 -4.84247 1.44337 0
M  V30 7000 C 733.545 -4.81931 1.79575 0
M  V30 7001 N 731.527 -5.53403 2.65742 0
M  V30 7002 C 732.898 -5.50314 2.85577 0
M  V30 7003 C 734.953 -4.63903 1.80828 0
M  V30 7004 C 733.656 -6.02581 3.92797 0
M  V30 7005 C 735.682 -5.17097 2.86993 0
M  V30 7006 C 735.044 -5.8544 3.91713 0
M  V30 7007 H 731.143 -0.781995 0.00287755 0
M  V30 7008 H 733.727 -1.84651 0.617411 0
M  V30 7009 H 731.898 -3.74087 -1.04467 0
M  V30 7010 H 733.63 -3.9447 -0.904175 0
M  V30 7011 H 730.385 -4.63029 0.995045 0
M  V30 7012 H 730.809 -5.92598 3.27348 0
M  V30 7013 H 735.451 -4.10512 1.0119 0
M  V30 7014 H 733.169 -6.55018 4.73262 0
M  V30 7015 H 736.755 -5.0499 2.88923 0
M  V30 7016 H 735.635 -6.25861 4.72512 0
M  V30 7017 N 733.138 -0.185124 -1.56509 0
M  V30 7018 C 734.549 0.329221 -1.83774 0
M  V30 7019 C 734.9 1.62093 -1.10545 0
M  V30 7020 O 734.025 2.13334 -0.36298 0
M  V30 7021 C 734.62 0.604099 -3.33371 0
M  V30 7022 C 733.179 1.06284 -3.61083 0
M  V30 7023 C 732.326 0.10608 -2.77097 0
M  V30 7024 H 735.277 -0.409116 -1.53336 0
M  V30 7025 H 735.298 1.45458 -3.51599 0
M  V30 7026 H 734.81 -0.336201 -3.86641 0
M  V30 7027 H 732.911 2.01777 -3.13236 0
M  V30 7028 H 733.024 0.962453 -4.69333 0
M  V30 7029 H 731.388 0.606082 -2.47384 0
M  V30 7030 H 732.171 -0.828486 -3.33153 0
M  V30 7031 N 734.616 1.57351 0.0885366 0
M  V30 7032 C 735.546 2.05561 1.10757 0
M  V30 7033 C 736.527 0.945789 1.41382 0
M  V30 7034 O 737.712 1.21747 1.51299 0
M  V30 7035 C 734.842 2.48554 2.42566 0
M  V30 7036 C 733.796 3.63259 2.26334 0
M  V30 7037 C 733.122 3.9225 3.63378 0
M  V30 7038 C 734.422 4.93913 1.69844 0
M  V30 7039 H 736.116 2.90946 0.706468 0
M  V30 7040 H 733.662 1.39968 0.338385 0
M  V30 7041 H 735.615 2.8089 3.14132 0
M  V30 7042 H 734.339 1.60176 2.84625 0
M  V30 7043 H 732.998 3.31179 1.57213 0
M  V30 7044 H 732.646 3.0103 4.02976 0
M  V30 7045 H 732.346 4.69478 3.53362 0
M  V30 7046 H 733.87 4.27067 4.36401 0
M  V30 7047 H 735.284 5.24588 2.31258 0
M  V30 7048 H 733.681 5.75349 1.70569 0
M  V30 7049 H 734.751 4.80409 0.65843 0
M  V30 7050 N 736.094 -0.359525 1.53444 0
M  V30 7051 C 737.505 -0.936009 1.61542 0
M  V30 7052 C 737.856 -1.90069 0.486633 0
M  V30 7053 O 736.981 -2.12929 -0.386047 0
M  V30 7054 C 737.576 -1.70441 2.92806 0
M  V30 7055 C 736.135 -2.23015 3.03218 0
M  V30 7056 C 735.282 -1.04438 2.56881 0
M  V30 7057 H 738.233 -0.138134 1.58098 0
M  V30 7058 H 738.254 -2.56609 2.80948 0
M  V30 7059 H 737.766 -1.00205 3.74941 0
M  V30 7060 H 735.867 -2.96475 2.25684 0
M  V30 7061 H 735.98 -2.50481 4.08407 0
M  V30 7062 H 734.344 -1.41314 2.11902 0
M  V30 7063 H 735.127 -0.356905 3.4144 0
M  V30 7064 N 737.572 -1.44907 -0.619662 0
M  V30 7065 C 738.983 -1.42905 -1.20146 0
M  V30 7066 C 739.334 -0.150341 -1.95623 0
M  V30 7067 O 738.459 0.748732 -2.03034 0
M  V30 7068 C 739.054 -2.58889 -2.18545 0
M  V30 7069 C 737.613 -2.60046 -2.72127 0
M  V30 7070 C 736.76 -2.3493 -1.4732 0
M  V30 7071 H 739.711 -1.53321 -0.409666 0
M  V30 7072 H 739.732 -2.32298 -3.0136 0
M  V30 7073 H 739.244 -3.51941 -1.63583 0
M  V30 7074 H 737.345 -1.70968 -3.3106 0
M  V30 7075 H 737.458 -3.58893 -3.17384 0
M  V30 7076 H 735.822 -1.84248 -1.75855 0
M  V30 7077 H 736.605 -3.3011 -0.942442 0
M  V30 7078 N 739.05 0.861098 -1.31996 0
M  V30 7079 C 740.298 1.61162 -1.21947 0
M  V30 7080 C 740.619 1.93751 0.220351 0
M  V30 7081 O 739.889 1.59069 1.14341 0
M  V30 7082 H 738.469 0.597485 -0.448353 0
M  V30 7083 H 741.131 1.03039 -1.65436 0
M  V30 7084 H 740.227 2.55138 -1.79752 0
M  V30 7085 N 740.528 1.15101 1.07655 0
M  V30 7086 C 741.774 0.925343 1.80458 0
M  V30 7087 C 742.107 -0.546354 1.86356 0
M  V30 7088 O 741.382 -1.40496 1.34503 0
M  V30 7089 C 741.665 1.53646 3.25676 0
M  V30 7090 C 741.518 3.07854 3.27942 0
M  V30 7091 C 742.837 1.21968 4.22861 0
M  V30 7092 H 739.956 0.337592 0.655134 0
M  V30 7093 H 742.598 1.42217 1.25993 0
M  V30 7094 H 740.748 1.11395 3.72187 0
M  V30 7095 H 742.42 3.58989 2.89697 0
M  V30 7096 H 740.663 3.41904 2.66991 0
M  V30 7097 H 741.334 3.45725 4.30324 0
M  V30 7098 H 743.81 1.5851 3.84726 0
M  V30 7099 H 742.686 1.67349 5.22767 0
M  V30 7100 H 742.947 0.136207 4.4189 0
M  V30 7101 N 742.006 -1.2595 0.947325 0
M  V30 7102 C 743.234 -1.97544 0.615127 0
M  V30 7103 C 743.649 -1.70484 -0.811221 0
M  V30 7104 O 743.006 -0.97662 -1.5417 0
M  V30 7105 C 743.057 -3.51236 0.855328 0
M  V30 7106 O 742.778 -3.77359 2.22558 0
M  V30 7107 C 744.279 -4.40066 0.534515 0
M  V30 7108 H 741.499 -0.629888 0.231263 0
M  V30 7109 H 744.043 -1.60308 1.26971 0
M  V30 7110 H 742.198 -3.8661 0.247266 0
M  V30 7111 H 742.612 -4.71857 2.29022 0
M  V30 7112 H 744.086 -5.46838 0.753168 0
M  V30 7113 H 744.563 -4.35982 -0.530701 0
M  V30 7114 H 745.169 -4.10245 1.12158 0
M  V30 7115 N 743.484 -0.715051 -1.40445 0
M  V30 7116 C 744.394 -0.0631624 -2.34515 0
M  V30 7117 C 745.41 0.744397 -1.57273 0
M  V30 7118 O 746.586 0.677475 -1.89663 0
M  V30 7119 C 743.651 0.847915 -3.36172 0
M  V30 7120 C 742.712 0.0303655 -4.29289 0
M  V30 7121 C 741.945 0.898051 -5.2609 0
M  V30 7122 O 742.168 2.13729 -5.28844 0
M  V30 7123 O 741.102 0.337328 -6.00954 0
M  V30 7124 H 744.928 -0.839078 -2.91879 0
M  V30 7125 H 742.513 -0.475527 -1.4163 0
M  V30 7126 H 744.395 1.3698 -3.98515 0
M  V30 7127 H 743.07 1.60299 -2.81222 0
M  V30 7128 H 741.977 -0.536573 -3.70232 0
M  V30 7129 H 743.31 -0.686474 -4.87389 0
M  V30 7130 N 744.962 1.50701 -0.461195 0
M  V30 7131 C 746.208 2.02566 0.0973411 0
M  V30 7132 C 746.541 1.3432 1.40257 0
M  V30 7133 O 745.816 0.465692 1.88843 0
M  V30 7134 C 746.099 3.58919 0.291423 0
M  V30 7135 C 745.952 4.37751 -1.03413 0
M  V30 7136 C 747.271 4.27379 1.05048 0
M  V30 7137 H 744.39 0.73622 0.0339026 0
M  V30 7138 H 747.032 1.80115 -0.604855 0
M  V30 7139 H 745.182 3.78179 0.889539 0
M  V30 7140 H 746.854 4.30085 -1.66806 0
M  V30 7141 H 745.097 4.01885 -1.63313 0
M  V30 7142 H 745.768 5.45384 -0.852085 0
M  V30 7143 H 748.244 4.12534 0.543603 0
M  V30 7144 H 747.12 5.36609 1.15506 0
M  V30 7145 H 747.381 3.89868 2.0846 0
M  V30 7146 N 746.441 0.193421 1.56409 0
M  V30 7147 C 747.666 -0.454552 2.02358 0
M  V30 7148 C 748.091 -1.54516 1.07268 0
M  V30 7149 O 747.449 -1.81214 0.0558962 0
M  V30 7150 C 747.497 -0.989469 3.46759 0
M  V30 7151 O 746.601 -2.10244 3.54783 0
M  V30 7152 H 745.942 -0.106417 0.655417 0
M  V30 7153 H 748.472 0.303807 2.02332 0
M  V30 7154 H 748.482 -1.30649 3.86516 0
M  V30 7155 H 747.157 -0.191083 4.15461 0
M  V30 7156 H 745.734 -1.79419 3.26899 0
M  V30 7157 N 747.919 -1.57396 -0.0801906 0
M  V30 7158 C 749.33 -1.75642 -0.633002 0
M  V30 7159 C 749.681 -0.817708 -1.78348 0
M  V30 7160 O 748.806 0.000233743 -2.164 0
M  V30 7161 C 749.401 -3.18502 -1.15507 0
M  V30 7162 C 747.96 -3.38121 -1.65381 0
M  V30 7163 C 747.107 -2.71386 -0.569661 0
M  V30 7164 H 750.058 -1.58027 0.145949 0
M  V30 7165 H 750.079 -3.22198 -2.02408 0
M  V30 7166 H 749.591 -3.86799 -0.317515 0
M  V30 7167 H 747.692 -2.74926 -2.51488 0
M  V30 7168 H 747.805 -4.46521 -1.73654 0
M  V30 7169 H 746.169 -2.33702 -1.0127 0
M  V30 7170 H 746.952 -3.42332 0.257561 0
M  V30 7171 N 749.397 0.351382 -1.53633 0
M  V30 7172 C 750.36 1.41403 -1.80383 0
M  V30 7173 C 751.36 1.45963 -0.674635 0
M  V30 7174 O 752.55 1.46476 -0.942895 0
M  V30 7175 C 749.682 2.80401 -1.93876 0
M  V30 7176 H 750.875 1.18951 -2.75301 0
M  V30 7177 H 748.428 0.58533 -1.44926 0
M  V30 7178 H 749.163 3.08147 -1.01074 0
M  V30 7179 H 748.948 2.78488 -2.7602 0
M  V30 7180 H 750.438 3.57329 -2.16116 0
M  V30 7181 N 750.875 1.45233 0.611969 0
M  V30 7182 C 751.823 1.53898 1.74408 0
M  V30 7183 C 752.817 0.409254 1.64382 0
M  V30 7184 O 754.023 0.584988 1.70229 0
M  V30 7185 H 750.398 0.483303 0.576127 0
M  V30 7186 H 752.369 2.49143 1.64227 0
M  V30 7187 C 751.118 1.51865 3.12782 0
M  V30 7188 H 750.441 2.38118 3.21154 0
M  V30 7189 H 751.881 1.61986 3.91838 0
M  V30 7190 C 750.34 0.242374 3.36027 0
M  V30 7191 O 750.87 -0.679587 3.9591 0
M  V30 7192 N 749.076 0.139448 2.90265 0
M  V30 7193 H 748.623 0.890571 2.41716 0
M  V30 7194 H 748.581 -0.713686 3.06193 0
M  V30 7195 N 752.353 -0.854086 1.3245 0
M  V30 7196 C 753.599 -1.61069 1.23225 0
M  V30 7197 C 753.932 -1.93111 -0.205349 0
M  V30 7198 O 753.207 -1.57397 -1.14265 0
M  V30 7199 C 753.49 -2.93065 2.09249 0
M  V30 7200 C 753.343 -2.67801 3.6139 0
M  V30 7201 C 754.662 -3.94341 1.95406 0
M  V30 7202 H 751.781 -0.584449 0.448986 0
M  V30 7203 H 754.423 -0.986189 1.62402 0
M  V30 7204 H 752.573 -3.46364 1.75967 0
M  V30 7205 H 754.245 -2.21052 4.04887 0
M  V30 7206 H 752.488 -2.01756 3.84027 0
M  V30 7207 H 753.159 -3.6179 4.16907 0
M  V30 7208 H 755.635 -3.50301 2.24562 0
M  V30 7209 H 754.511 -4.84555 2.57872 0
M  V30 7210 H 754.772 -4.32382 0.921865 0
M  V30 7211 N 753.831 -1.1567 -1.07043 0
M  V30 7212 C 755.059 -0.957471 -1.83412 0
M  V30 7213 C 755.474 0.494271 -1.82215 0
M  V30 7214 O 754.831 1.34288 -1.23584 0
M  V30 7215 C 754.882 -1.46784 -3.30359 0
M  V30 7216 O 754.603 -2.86271 -3.31633 0
M  V30 7217 C 756.104 -1.31054 -4.23485 0
M  V30 7218 H 753.324 -0.33986 -0.578564 0
M  V30 7219 H 755.868 -1.53518 -1.35102 0
M  V30 7220 H 754.023 -0.932586 -3.76007 0
M  V30 7221 H 754.437 -3.0948 -4.23465 0
M  V30 7222 H 755.911 -1.71605 -5.24648 0
M  V30 7223 H 756.388 -0.255107 -4.38458 0
M  V30 7224 H 756.994 -1.83503 -3.83676 0
M  V30 7225 N 755.309 1.25446 -0.953992 0
M  V30 7226 C 756.239 2.28264 -0.491717 0
M  V30 7227 C 757.22 1.63717 0.461617 0
M  V30 7228 O 758.405 1.90821 0.36071 0
M  V30 7229 C 755.535 3.46525 0.231915 0
M  V30 7230 C 754.489 4.23247 -0.636098 0
M  V30 7231 C 753.815 5.34254 0.218238 0
M  V30 7232 C 755.115 4.85971 -1.91389 0
M  V30 7233 H 756.809 2.67183 -1.35106 0
M  V30 7234 H 754.355 1.2844 -0.651095 0
M  V30 7235 H 756.308 4.17576 0.566439 0
M  V30 7236 H 755.032 3.06594 1.12551 0
M  V30 7237 H 753.691 3.53978 -0.953696 0
M  V30 7238 H 753.339 4.90564 1.11156 0
M  V30 7239 H 753.039 5.86501 -0.359232 0
M  V30 7240 H 754.563 6.08138 0.547743 0
M  V30 7241 H 755.977 5.49168 -1.64581 0
M  V30 7242 H 754.374 5.48391 -2.43696 0
M  V30 7243 H 755.444 4.08192 -2.61738 0
M  V30 7244 N 756.787 0.722489 1.40064 0
M  V30 7245 C 757.717 0.0892452 2.33329 0
M  V30 7246 C 758.698 -0.737992 1.53257 0
M  V30 7247 O 759.883 -0.685516 1.81698 0
M  V30 7248 C 757.013 -0.828139 3.37282 0
M  V30 7249 C 755.967 -0.106005 4.27869 0
M  V30 7250 C 755.293 -1.13957 5.22415 0
M  V30 7251 C 756.593 1.04395 5.11761 0
M  V30 7252 H 758.287 0.868269 2.86534 0
M  V30 7253 H 755.833 0.418982 1.3777 0
M  V30 7254 H 757.786 -1.28058 4.01471 0
M  V30 7255 H 756.51 -1.63914 2.82489 0
M  V30 7256 H 755.169 0.326683 3.65142 0
M  V30 7257 H 754.817 -1.9438 4.63924 0
M  V30 7258 H 754.517 -0.661233 5.83868 0
M  V30 7259 H 756.041 -1.59197 5.89482 0
M  V30 7260 H 757.455 0.670541 5.69365 0
M  V30 7261 H 755.852 1.4511 5.82291 0
M  V30 7262 H 756.922 1.87144 4.47331 0
M  V30 7263 N 758.265 -1.50454 0.469181 0
M  V30 7264 C 759.681 -1.59124 0.123226 0
M  V30 7265 C 759.881 -1.47749 -1.37013 0
M  V30 7266 O 758.937 -1.335 -2.14322 0
M  V30 7267 C 760.25 -2.93101 0.67172 0
M  V30 7268 C 761.798 -3.06491 0.634978 0
M  V30 7269 C 762.273 -4.43041 1.16098 0
M  V30 7270 N 763.764 -4.49448 1.12031 0
M  V30 7271 C 764.499 -5.53491 1.49784 0
M  V30 7272 N 763.995 -6.64798 1.94976 0
M  V30 7273 N 765.788 -5.44025 1.41399 0
M  V30 7274 H 757.939 -1.56091 1.44046 0
M  V30 7275 H 760.202 -0.737564 0.59557 0
M  V30 7276 H 759.908 -3.06895 1.7178 0
M  V30 7277 H 759.782 -3.77027 0.114222 0
M  V30 7278 H 762.169 -2.92346 -0.402187 0
M  V30 7279 H 762.25 -2.24328 1.22926 0
M  V30 7280 H 761.894 -4.57935 2.19677 0
M  V30 7281 H 761.824 -5.23794 0.542939 0
M  V30 7282 H 764.315 -3.69575 0.788828 0
M  V30 7283 H 764.628 -7.40246 2.21936 0
M  V30 7284 H 762.973 -6.65923 1.98927 0
M  V30 7285 H 766.164 -4.55955 1.05935 0
M  V30 7286 H 766.337 -6.2499 1.71147 0
M  V30 7287 N 759.743 -0.201713 -1.56304 0
M  V30 7288 C 760.706 0.702811 -2.18159 0
M  V30 7289 C 761.706 1.13619 -1.13787 0
M  V30 7290 O 762.896 1.0482 -1.39134 0
M  V30 7291 C 760.028 1.96032 -2.78898 0
M  V30 7292 H 761.221 0.163836 -2.99452 0
M  V30 7293 H 758.774 0.04791 -1.56227 0
M  V30 7294 H 759.509 2.54165 -2.01421 0
M  V30 7295 H 759.294 1.65824 -3.55309 0
M  V30 7296 H 760.784 2.60519 -3.26373 0
M  V30 7297 N 761.222 1.57436 0.0718424 0
M  V30 7298 C 762.152 2.06724 1.08571 0
M  V30 7299 C 763.133 0.960731 1.40371 0
M  V30 7300 O 764.318 1.23345 1.49999 0
M  V30 7301 C 761.448 2.51112 2.39916 0
M  V30 7302 C 760.402 3.65639 2.22469 0
M  V30 7303 C 759.728 3.96082 3.59198 0
M  V30 7304 C 761.028 4.95687 1.64596 0
M  V30 7305 H 762.722 2.91679 0.675569 0
M  V30 7306 H 760.268 1.40319 0.32352 0
M  V30 7307 H 762.221 2.84206 3.11135 0
M  V30 7308 H 760.945 1.63186 2.8291 0
M  V30 7309 H 759.604 3.32828 1.53691 0
M  V30 7310 H 759.252 3.05287 3.99761 0
M  V30 7311 H 758.952 4.73199 3.48362 0
M  V30 7312 H 760.476 4.31672 4.31847 0
M  V30 7313 H 761.89 5.27011 2.25681 0
M  V30 7314 H 760.287 5.77126 1.64457 0
M  V30 7315 H 761.357 4.8108 0.60744 0
M  V30 7316 N 762.7 -0.34323 1.53817 0
M  V30 7317 C 763.948 -1.0813 1.70741 0
M  V30 7318 C 764.269 -1.89165 0.473461 0
M  V30 7319 O 763.539 -1.89075 -0.512605 0
M  V30 7320 H 762.119 -0.40219 0.629486 0
M  V30 7321 H 764.781 -0.384426 1.91071 0
M  V30 7322 H 763.877 -1.7585 2.57843 0
M  V30 7323 N 764.178 -1.45556 -0.604258 0
M  V30 7324 C 765.128 -1.50906 -1.70913 0
M  V30 7325 C 766.112 -0.371996 -1.56541 0
M  V30 7326 O 767.304 -0.619064 -1.65821 0
M  V30 7327 C 764.433 -1.48181 -3.09673 0
M  V30 7328 C 763.519 -2.67102 -3.2942 0
M  V30 7329 N 763.91 -3.92184 -3.19414 0
M  V30 7330 C 762.208 -2.6287 -3.60299 0
M  V30 7331 C 762.909 -4.71571 -3.40581 0
M  V30 7332 N 761.885 -4.03081 -3.64728 0
M  V30 7333 H 765.687 -2.45435 -1.61675 0
M  V30 7334 H 763.201 -1.40894 -0.807622 0
M  V30 7335 H 765.198 -1.501 -3.88942 0
M  V30 7336 H 763.858 -0.54712 -3.20057 0
M  V30 7337 H 764.869 -4.23756 -2.97743 0
M  V30 7338 H 761.546 -1.78324 -3.77501 0
M  V30 7339 H 762.936 -5.80571 -3.38211 0
M  V30 7340 N 765.656 0.84705 -1.32902 0
M  V30 7341 C 766.904 1.5986 -1.2365 0
M  V30 7342 C 767.225 1.93974 0.199789 0
M  V30 7343 O 766.495 1.60273 1.12648 0
M  V30 7344 H 765.075 0.592696 -0.454665 0
M  V30 7345 H 767.737 1.01278 -1.66519 0
M  V30 7346 H 766.833 2.53218 -1.82448 0
M  V30 7347 N 767.134 1.16236 1.06428 0
M  V30 7348 C 768.097 0.870163 2.1204 0
M  V30 7349 C 769.097 -0.134239 1.60239 0
M  V30 7350 O 770.287 0.0964932 1.73933 0
M  V30 7351 C 767.419 0.301033 3.39568 0
M  V30 7352 H 768.612 1.8064 2.39394 0
M  V30 7353 H 766.165 0.971116 1.2247 0
M  V30 7354 H 766.9 -0.642948 3.17863 0
M  V30 7355 H 766.685 1.02475 3.78472 0
M  V30 7356 H 768.175 0.114494 4.17443 0
M  V30 7357 N 768.612 -1.24939 0.960631 0
M  V30 7358 C 769.859 -1.92818 0.618663 0
M  V30 7359 C 770.187 -1.75177 -0.845173 0
M  V30 7360 O 769.442 -1.09412 -1.62258 0
M  V30 7361 C 769.741 -3.45066 0.930809 0
M  V30 7362 C 769.407 -3.82869 2.38164 0
M  V30 7363 C 768.069 -3.92899 2.7782 0
M  V30 7364 C 770.421 -4.01483 3.32356 0
M  V30 7365 C 767.749 -4.18955 4.10723 0
M  V30 7366 C 770.101 -4.29033 4.6488 0
M  V30 7367 C 768.765 -4.37282 5.04322 0
M  V30 7368 H 768.035 -0.705571 0.226385 0
M  V30 7369 H 770.682 -1.48365 1.21079 0
M  V30 7370 H 768.987 -3.9096 0.256355 0
M  V30 7371 H 770.684 -3.95783 0.644712 0
M  V30 7372 H 767.274 -3.75622 2.06413 0
M  V30 7373 H 771.458 -3.93143 3.02907 0
M  V30 7374 H 766.714 -4.23558 4.40918 0
M  V30 7375 H 770.888 -4.42381 5.3784 0
M  V30 7376 H 768.515 -4.57225 6.0733 0
M  V30 7377 N 770.09 -0.729906 -1.39679 0
M  V30 7378 C 771.338 -0.275077 -2.00219 0
M  V30 7379 C 771.659 1.1401 -1.58199 0
M  V30 7380 O 770.929 1.77546 -0.827904 0
M  V30 7381 H 769.509 -0.0987127 -0.740449 0
M  V30 7382 H 772.171 -0.93873 -1.70804 0
M  V30 7383 H 771.267 -0.319446 -3.10461 0
M  V30 7384 N 771.568 1.50203 -0.477153 0
M  V30 7385 C 772.478 2.32421 0.319027 0
M  V30 7386 C 773.494 1.43075 0.990233 0
M  V30 7387 O 774.67 1.76123 0.976873 0
M  V30 7388 C 771.735 3.17909 1.38328 0
M  V30 7389 C 770.796 4.23082 0.728036 0
M  V30 7390 C 770.029 5.04484 1.74158 0
M  V30 7391 O 770.252 4.8705 2.96881 0
M  V30 7392 O 769.186 5.8747 1.31006 0
M  V30 7393 H 773.012 3.01638 -0.353281 0
M  V30 7394 H 770.597 1.47478 -0.238891 0
M  V30 7395 H 772.479 3.70937 1.9996 0
M  V30 7396 H 771.154 2.51413 2.03895 0
M  V30 7397 H 770.061 3.7403 0.07261 0
M  V30 7398 H 771.394 4.92065 0.115216 0
M  V30 7399 N 773.046 0.209999 1.56195 0
M  V30 7400 C 774.292 -0.425442 1.98287 0
M  V30 7401 C 774.625 -1.60232 1.09724 0
M  V30 7402 O 773.9 -1.93902 0.152414 0
M  V30 7403 C 774.183 -0.871189 3.49403 0
M  V30 7404 C 774.036 0.308527 4.48741 0
M  V30 7405 C 775.355 -1.73146 4.04609 0
M  V30 7406 H 772.474 -0.153169 0.720908 0
M  V30 7407 H 775.116 0.303916 1.87554 0
M  V30 7408 H 773.266 -1.49266 3.58681 0
M  V30 7409 H 774.938 0.946487 4.51486 0
M  V30 7410 H 773.181 0.957878 4.23092 0
M  V30 7411 H 773.852 -0.0461143 5.51981 0
M  V30 7412 H 776.328 -1.2072 3.98203 0
M  V30 7413 H 775.204 -2.01228 5.10684 0
M  V30 7414 H 775.465 -2.69083 3.5078 0
M  V30 7415 N 774.524 -1.57472 -0.0634922 0
M  V30 7416 C 775.754 -1.91608 -0.772645 0
M  V30 7417 C 776.162 -0.805019 -1.71219 0
M  V30 7418 O 775.505 0.229941 -1.82255 0
M  V30 7419 C 775.567 -3.21281 -1.61304 0
M  V30 7420 C 775.231 -4.49177 -0.841973 0
M  V30 7421 C 776.228 -5.19661 -0.157494 0
M  V30 7422 C 773.913 -4.9578 -0.80669 0
M  V30 7423 C 775.907 -6.35006 0.551948 0
M  V30 7424 C 773.594 -6.11028 -0.0934812 0
M  V30 7425 C 774.592 -6.80493 0.58463 0
M  V30 7426 O 774.28 -7.93542 1.28633 0
M  V30 7427 H 774.012 -0.637685 -0.224352 0
M  V30 7428 H 776.566 -2.05369 -0.0355279 0
M  V30 7429 H 774.796 -3.03752 -2.39315 0
M  V30 7430 H 776.485 -3.41003 -2.20162 0
M  V30 7431 H 777.251 -4.84681 -0.176006 0
M  V30 7432 H 773.13 -4.41579 -1.32397 0
M  V30 7433 H 776.674 -6.89161 1.0818 0
M  V30 7434 H 772.571 -6.45459 -0.0729258 0
M  V30 7435 H 773.339 -8.09708 1.19646 0
M  V30 7436 N 776.003 0.335068 -1.53997 0
M  V30 7437 C 776.913 1.43511 -1.85585 0
M  V30 7438 C 777.929 1.57162 -0.746726 0
M  V30 7439 O 779.105 1.72477 -1.03988 0
M  V30 7440 C 776.17 2.78386 -2.06646 0
M  V30 7441 C 775.231 2.74007 -3.30483 0
M  V30 7442 C 774.464 4.02449 -3.50529 0
M  V30 7443 O 774.687 5.00147 -2.74242 0
M  V30 7444 O 773.621 4.06405 -4.4398 0
M  V30 7445 H 777.447 1.19731 -2.79102 0
M  V30 7446 H 775.032 0.528033 -1.39758 0
M  V30 7447 H 776.914 3.58247 -2.21894 0
M  V30 7448 H 775.589 3.0208 -1.16317 0
M  V30 7449 H 774.496 1.92736 -3.2063 0
M  V30 7450 H 775.829 2.55267 -4.20832 0
M  V30 7451 N 777.481 1.45874 0.596531 0
M  V30 7452 C 778.729 1.5017 1.35253 0
M  V30 7453 C 779.05 0.149246 1.94428 0
M  V30 7454 O 778.32 -0.82268 1.77789 0
M  V30 7455 H 776.9 0.553052 0.502138 0
M  V30 7456 H 779.562 1.81908 0.699671 0
M  V30 7457 H 778.658 2.24671 2.16632 0
M  V30 7458 N 778.959 -0.83999 1.33349 0
M  V30 7459 C 779.889 -1.965 1.26135 0
M  V30 7460 C 780.87 -1.69505 0.142152 0
M  V30 7461 O 782.055 -1.91346 0.331743 0
M  V30 7462 C 779.185 -3.32632 0.99866 0
M  V30 7463 C 778.139 -3.74021 2.08068 0
M  V30 7464 C 777.465 -5.07947 1.67014 0
M  V30 7465 C 778.765 -3.87925 3.49731 0
M  V30 7466 H 780.459 -2.02793 2.20262 0
M  V30 7467 H 778.005 -0.974297 1.06035 0
M  V30 7468 H 779.958 -4.10903 0.934696 0
M  V30 7469 H 778.682 -3.26593 0.0217759 0
M  V30 7470 H 777.341 -2.98012 2.13505 0
M  V30 7471 H 776.989 -4.98378 0.680316 0
M  V30 7472 H 776.689 -5.36611 2.39422 0
M  V30 7473 H 778.213 -5.88695 1.62082 0
M  V30 7474 H 779.627 -4.5651 3.46802 0
M  V30 7475 H 778.024 -4.28023 4.20614 0
M  V30 7476 H 779.094 -2.90407 3.88319 0
M  V30 7477 N 780.437 -1.16799 -1.0581 0
M  V30 7478 C 781.683 -0.953935 -1.78963 0
M  V30 7479 C 782.016 0.516638 -1.87202 0
M  V30 7480 O 781.291 1.38338 -1.36721 0
M  V30 7481 C 781.574 -1.58808 -3.23191 0
M  V30 7482 C 781.427 -3.13032 -3.23003 0
M  V30 7483 C 782.746 -1.2868 -4.20867 0
M  V30 7484 H 779.865 -0.347972 -0.64968 0
M  V30 7485 H 782.507 -1.44204 -1.23715 0
M  V30 7486 H 780.657 -1.17303 -3.70368 0
M  V30 7487 H 782.329 -3.63553 -2.83949 0
M  V30 7488 H 780.572 -3.46108 -2.61518 0
M  V30 7489 H 781.243 -3.52527 -4.24769 0
M  V30 7490 H 783.719 -1.6461 -3.82155 0
M  V30 7491 H 782.595 -1.75645 -5.20038 0
M  V30 7492 H 782.856 -0.206491 -4.41618 0
M  V30 7493 N 781.915 1.24427 -0.967243 0
M  V30 7494 C 783.164 1.91789 -0.624478 0
M  V30 7495 C 783.477 1.76448 0.844129 0
M  V30 7496 O 784.683 2.38495 1.2974 0
M  V30 7497 C 783.139 3.43743 -1.06626 0
M  V30 7498 C 782.747 3.67771 -2.55829 0
M  V30 7499 C 784.491 4.16958 -0.79662 0
M  V30 7500 C 782.398 5.13293 -2.93742 0
M  V30 7501 H 781.328 0.71811 -0.229856 0
M  V30 7502 H 783.979 1.41081 -1.17339 0
M  V30 7503 H 782.361 3.93484 -0.445663 0
M  V30 7504 H 783.535 3.28631 -3.23015 0
M  V30 7505 H 781.85 3.07841 -2.80398 0
M  V30 7506 H 784.447 5.24171 -1.05589 0
M  V30 7507 H 784.79 4.15442 0.267163 0
M  V30 7508 H 785.323 3.73164 -1.37816 0
M  V30 7509 H 782.062 5.19931 -3.9919 0
M  V30 7510 H 781.582 5.53433 -2.3124 0
M  V30 7511 H 783.261 5.81521 -2.83623 0
M  V30 7512 N 783.393 0.737304 1.3929 0
M  V30 7513 C 784.641 0.285691 2.00071 0
M  V30 7514 C 784.962 -1.13169 1.58801 0
M  V30 7515 O 784.232 -1.77104 0.837308 0
M  V30 7516 H 782.812 0.102638 0.739915 0
M  V30 7517 H 785.474 0.947775 1.70303 0
M  V30 7518 H 784.57 0.335906 3.10287 0
M  V30 7519 N 784.871 -1.49948 0.485112 0
M  V30 7520 C 785.801 -2.31675 -0.291364 0
M  V30 7521 C 786.782 -1.39216 -0.977383 0
M  V30 7522 O 787.967 -1.68133 -0.971855 0
M  V30 7523 C 785.097 -3.19326 -1.36558 0
M  V30 7524 C 784.051 -4.2045 -0.800359 0
M  V30 7525 C 783.377 -4.96931 -1.97391 0
M  V30 7526 C 784.677 -5.21925 0.197867 0
M  V30 7527 H 786.371 -2.96839 0.390775 0
M  V30 7528 H 783.917 -1.42749 0.189375 0
M  V30 7529 H 785.87 -3.75304 -1.91638 0
M  V30 7530 H 784.594 -2.52074 -2.07668 0
M  V30 7531 H 783.253 -3.65594 -0.271428 0
M  V30 7532 H 782.901 -4.26141 -2.67232 0
M  V30 7533 H 782.601 -5.65344 -1.60187 0
M  V30 7534 H 784.125 -5.55749 -2.52935 0
M  V30 7535 H 785.539 -5.72691 -0.264239 0
M  V30 7536 H 783.936 -5.98138 0.484908 0
M  V30 7537 H 785.006 -4.71809 1.11912 0
M  V30 7538 N 786.349 -0.21828 -1.56081 0
M  V30 7539 C 787.76 0.290166 -1.84431 0
M  V30 7540 C 788.111 1.59712 -1.13958 0
M  V30 7541 O 787.236 2.12516 -0.40815 0
M  V30 7542 C 787.831 0.53325 -3.34577 0
M  V30 7543 C 786.39 0.986011 -3.63256 0
M  V30 7544 C 785.537 0.0472798 -2.7726 0
M  V30 7545 H 788.488 -0.441548 -1.52434 0
M  V30 7546 H 788.509 1.37967 -3.54606 0
M  V30 7547 H 788.021 -0.418137 -3.85841 0
M  V30 7548 H 786.122 1.95087 -3.17446 0
M  V30 7549 H 786.235 0.862684 -4.71269 0
M  V30 7550 H 784.599 0.553471 -2.48614 0
M  V30 7551 H 785.382 -0.898966 -3.31321 0
M  V30 7552 N 787.827 1.57504 0.0551401 0
M  V30 7553 C 789.075 1.87684 0.74962 0
M  V30 7554 C 789.396 0.812547 1.77264 0
M  V30 7555 O 788.666 -0.15694 1.9527 0
M  V30 7556 H 787.246 0.6926 0.279846 0
M  V30 7557 H 789.908 1.94881 0.0272745 0
M  V30 7558 H 789.004 2.85734 1.25548 0
M  V30 7559 N 789.305 -0.326896 1.54172 0
M  V30 7560 C 790.582 -1.08326 1.62864 0
M  V30 7561 C 790.962 -2.06018 0.46039 0
M  V30 7562 O 790.31 -2.21889 -0.545685 0
M  V30 7563 C 790.52 -1.78816 2.9971 0
M  V30 7564 C 791.868 -2.31958 3.55641 0
M  V30 7565 O 792.892 -1.88888 3.01993 0
M  V30 7566 O 791.751 -3.10801 4.49517 0
M  V30 7567 H 788.845 -0.499131 0.659392 0
M  V30 7568 H 791.391 -0.327054 1.66519 0
M  V30 7569 H 790.163 -1.07739 3.76176 0
M  V30 7570 H 789.786 -2.61255 2.99719 0
M  V30 7571 N 790.784 -1.46188 -0.588786 0
M  V30 7572 C 792.009 -1.5498 -1.37826 0
M  V30 7573 C 792.434 -0.189498 -1.87143 0
M  V30 7574 O 791.792 0.829293 -1.61222 0
M  V30 7575 C 791.84 -2.55369 -2.54596 0
M  V30 7576 O 790.944 -2.08452 -3.55839 0
M  V30 7577 H 790.285 -0.521741 -0.41071 0
M  V30 7578 H 792.815 -1.91708 -0.714779 0
M  V30 7579 H 792.825 -2.74782 -3.01594 0
M  V30 7580 H 791.5 -3.54155 -2.18052 0
M  V30 7581 H 790.077 -1.98999 -3.15363 0
M  V30 7582 N 792.262 0.832906 -1.33792 0
M  V30 7583 C 793.487 1.62568 -1.28788 0
M  V30 7584 C 793.912 1.87599 0.137246 0
M  V30 7585 O 793.27 1.44436 1.0958 0
M  V30 7586 C 793.318 2.9495 -2.07453 0
M  V30 7587 O 792.422 3.86546 -1.43722 0
M  V30 7588 H 791.763 0.494809 -0.442787 0
M  V30 7589 H 794.293 1.03578 -1.76445 0
M  V30 7590 H 794.303 3.44599 -2.1844 0
M  V30 7591 H 792.978 2.76055 -3.11073 0
M  V30 7592 H 791.555 3.45044 -1.41417 0
M  V30 7593 N 793.74 1.17359 1.05189 0
M  V30 7594 C 795.151 0.96793 1.5965 0
M  V30 7595 C 795.502 -0.485355 1.90102 0
M  V30 7596 O 794.627 -1.36066 1.6827 0
M  V30 7597 C 795.222 1.75068 2.90063 0
M  V30 7598 C 793.781 1.58969 3.41183 0
M  V30 7599 C 792.928 1.75231 2.14917 0
M  V30 7600 H 795.879 1.32067 0.880001 0
M  V30 7601 H 795.9 1.23308 3.59966 0
M  V30 7602 H 795.412 2.80835 2.67868 0
M  V30 7603 H 793.513 0.556906 3.68415 0
M  V30 7604 H 793.626 2.38067 4.15766 0
M  V30 7605 H 791.99 1.18073 2.25679 0
M  V30 7606 H 792.773 2.8241 1.95191 0
M  V30 7607 N 795.218 -1.23913 0.973828 0
M  V30 7608 C 796.148 -2.27453 0.527969 0
M  V30 7609 C 797.129 -1.6443 -0.435513 0
M  V30 7610 O 798.314 -1.9137 -0.330306 0
M  V30 7611 C 795.444 -3.4685 -0.176757 0
M  V30 7612 C 794.398 -4.22181 0.703352 0
M  V30 7613 C 793.724 -5.34534 -0.133215 0
M  V30 7614 C 795.024 -4.82865 1.99096 0
M  V30 7615 H 796.718 -2.65 1.3934 0
M  V30 7616 H 794.264 -1.27388 0.671446 0
M  V30 7617 H 796.217 -4.18424 -0.499934 0
M  V30 7618 H 794.941 -3.08346 -1.07659 0
M  V30 7619 H 793.6 -3.52416 1.00989 0
M  V30 7620 H 793.248 -4.92271 -1.03338 0
M  V30 7621 H 792.948 -5.85855 0.452494 0
M  V30 7622 H 794.472 -6.08933 -0.450924 0
M  V30 7623 H 795.886 -5.46481 1.73297 0
M  V30 7624 H 794.283 -5.44444 2.52389 0
M  V30 7625 H 795.353 -4.03977 2.68199 0
M  V30 7626 N 796.696 -0.74468 -1.38897 0
M  V30 7627 C 797.628 -0.0713608 -2.29089 0
M  V30 7628 C 798.641 0.693224 -1.47303 0
M  V30 7629 O 799.83 0.535785 -1.70269 0
M  V30 7630 C 796.93 0.923078 -3.26087 0
M  V30 7631 C 796.103 0.217998 -4.36856 0
M  V30 7632 C 795.162 1.12192 -5.14101 0
M  V30 7633 O 794.188 0.595771 -5.66073 0
M  V30 7634 N 795.39 2.45082 -5.26227 0
M  V30 7635 H 798.155 -0.845906 -2.87514 0
M  V30 7636 H 795.716 -0.594712 -1.50581 0
M  V30 7637 H 797.708 1.53061 -3.74639 0
M  V30 7638 H 796.278 1.59876 -2.68623 0
M  V30 7639 H 795.498 -0.570134 -3.90055 0
M  V30 7640 H 796.786 -0.270248 -5.08082 0
M  V30 7641 H 796.184 2.90294 -4.85537 0
M  V30 7642 H 794.741 3.00907 -5.78185 0
M  V30 7643 N 798.174 1.49689 -0.493057 0
M  V30 7644 C 799.42 2.02727 0.0543518 0
M  V30 7645 C 799.753 1.37264 1.37376 0
M  V30 7646 O 799.028 0.505644 1.87812 0
M  V30 7647 C 799.311 3.59456 0.215226 0
M  V30 7648 C 799.164 4.35459 -1.12675 0
M  V30 7649 C 800.483 4.29511 0.959586 0
M  V30 7650 H 797.602 0.736773 0.0182786 0
M  V30 7651 H 800.244 1.78792 -0.642924 0
M  V30 7652 H 798.394 3.79981 0.809122 0
M  V30 7653 H 800.066 4.2645 -1.75891 0
M  V30 7654 H 798.309 3.9833 -1.71801 0
M  V30 7655 H 798.98 5.43454 -0.967578 0
M  V30 7656 H 801.456 4.13594 0.455977 0
M  V30 7657 H 800.332 5.38939 1.04098 0
M  V30 7658 H 800.593 3.94202 2.00144 0
M  V30 7659 N 799.652 0.226554 1.55963 0
M  V30 7660 C 800.615 -0.668015 2.19249 0
M  V30 7661 C 801.615 -1.11794 1.1558 0
M  V30 7662 O 802.805 -1.02593 1.40784 0
M  V30 7663 C 799.937 -1.91571 2.81981 0
M  V30 7664 H 801.13 -0.116175 2.99675 0
M  V30 7665 H 798.683 -0.0230497 1.56283 0
M  V30 7666 H 799.418 -2.50929 2.05439 0
M  V30 7667 H 799.203 -1.6015 3.57903 0
M  V30 7668 H 800.693 -2.55294 3.30477 0
M  V30 7669 N 801.13 -1.57531 -0.0467866 0
M  V30 7670 C 802.379 -1.87632 -0.740069 0
M  V30 7671 C 802.692 -0.822691 -1.77457 0
M  V30 7672 O 803.898 -1.01235 -2.5192 0
M  V30 7673 C 802.354 -3.32917 -1.36727 0
M  V30 7674 C 801.962 -4.46469 -0.370035 0
M  V30 7675 C 803.706 -3.72189 -2.04146 0
M  V30 7676 C 801.613 -5.82806 -1.00457 0
M  V30 7677 H 800.543 -0.70002 -0.280158 0
M  V30 7678 H 803.194 -1.83499 0.00607151 0
M  V30 7679 H 801.576 -3.31739 -2.16252 0
M  V30 7680 H 802.75 -4.59085 0.397217 0
M  V30 7681 H 801.065 -4.15914 0.201079 0
M  V30 7682 H 803.662 -4.71357 -2.52441 0
M  V30 7683 H 804.005 -3.03268 -2.85192 0
M  V30 7684 H 804.538 -3.75465 -1.3142 0
M  V30 7685 H 801.277 -6.55083 -0.233907 0
M  V30 7686 H 800.797 -5.73944 -1.74209 0
M  V30 7687 H 802.476 -6.28961 -1.51713 0
M  V30 7688 N 802.608 0.318715 -1.54344 0
M  V30 7689 C 803.555 1.39242 -1.84066 0
M  V30 7690 C 804.525 1.51175 -0.688134 0
M  V30 7691 O 805.71 1.66318 -0.935039 0
M  V30 7692 C 802.85 2.75528 -2.07794 0
M  V30 7693 C 801.963 2.72187 -3.35467 0
M  V30 7694 C 801.098 4.00352 -3.4913 0
M  V30 7695 C 800.137 3.91338 -4.7066 0
M  V30 7696 N 799.274 5.11242 -4.81224 0
M  V30 7697 H 804.114 1.13196 -2.75664 0
M  V30 7698 H 801.651 0.547857 -1.36517 0
M  V30 7699 H 803.609 3.54763 -2.19543 0
M  V30 7700 H 802.239 2.99873 -1.19482 0
M  V30 7701 H 801.291 1.84917 -3.3243 0
M  V30 7702 H 802.603 2.61411 -4.24812 0
M  V30 7703 H 801.757 4.88019 -3.60448 0
M  V30 7704 H 800.496 4.1394 -2.57886 0
M  V30 7705 H 799.501 3.02055 -4.59394 0
M  V30 7706 H 800.726 3.7931 -5.63294 0
M  V30 7707 H 798.672 5.25327 -3.92897 0
M  V30 7708 H 798.589 5.0282 -5.64543 0
M  V30 7709 H 799.857 6.0061 -4.96879 0
M  V30 7710 N 804.086 1.46499 0.581025 0
M  V30 7711 C 805.314 1.5547 1.36517 0
M  V30 7712 C 805.729 0.196407 1.87776 0
M  V30 7713 O 805.086 -0.806577 1.63709 0
M  V30 7714 C 805.137 2.56084 2.55154 0
M  V30 7715 O 804.858 3.86637 2.06018 0
M  V30 7716 C 806.359 2.75011 3.47683 0
M  V30 7717 H 803.579 0.525703 0.416986 0
M  V30 7718 H 806.123 1.9192 0.706177 0
M  V30 7719 H 804.278 2.22633 3.17039 0
M  V30 7720 H 804.692 4.41413 2.83292 0
M  V30 7721 H 806.166 3.49329 4.27403 0
M  V30 7722 H 806.643 1.81978 3.99726 0
M  V30 7723 H 807.249 3.09565 2.91632 0
M  V30 7724 N 805.565 -0.825799 1.34232 0
M  V30 7725 C 806.495 -1.95151 1.28212 0
M  V30 7726 C 807.476 -1.69345 0.160123 0
M  V30 7727 O 808.661 -1.90983 0.352019 0
M  V30 7728 C 805.791 -3.31554 1.03388 0
M  V30 7729 C 804.745 -3.71793 2.12023 0
M  V30 7730 C 804.071 -5.06147 1.72392 0
M  V30 7731 C 805.371 -3.84193 3.53826 0
M  V30 7732 H 807.065 -2.00445 2.22401 0
M  V30 7733 H 804.611 -0.962996 1.07063 0
M  V30 7734 H 806.564 -4.09889 0.978225 0
M  V30 7735 H 805.288 -3.26551 0.0564142 0
M  V30 7736 H 803.947 -2.95731 2.16654 0
M  V30 7737 H 803.595 -4.97628 0.733137 0
M  V30 7738 H 803.295 -5.34041 2.451 0
M  V30 7739 H 804.819 -5.86943 1.68317 0
M  V30 7740 H 806.233 -4.52806 3.51624 0
M  V30 7741 H 804.63 -4.23538 4.2513 0
M  V30 7742 H 805.7 -2.86272 3.91377 0
M  V30 7743 N 807.043 -1.17915 -1.04565 0
M  V30 7744 C 808.454 -0.976383 -1.59134 0
M  V30 7745 C 808.805 0.475267 -1.90357 0
M  V30 7746 O 807.93 1.35172 -1.6899 0
M  V30 7747 C 808.525 -1.76604 -2.89131 0
M  V30 7748 C 807.084 -1.60777 -3.40335 0
M  V30 7749 C 806.231 -1.76369 -2.13985 0
M  V30 7750 H 809.182 -1.32532 -0.872985 0
M  V30 7751 H 809.203 -1.25215 -3.59307 0
M  V30 7752 H 808.715 -2.82252 -2.66375 0
M  V30 7753 H 806.816 -0.576436 -3.68114 0
M  V30 7754 H 806.929 -2.40268 -4.14497 0
M  V30 7755 H 805.293 -1.19268 -2.25049 0
M  V30 7756 H 806.076 -2.83441 -1.9369 0
M  V30 7757 N 808.521 1.23394 -0.980386 0
M  V30 7758 C 809.431 2.28561 -0.528864 0
M  V30 7759 C 810.447 1.68946 0.416329 0
M  V30 7760 O 811.623 1.99355 0.286251 0
M  V30 7761 C 808.688 3.46323 0.16155 0
M  V30 7762 C 807.749 4.21297 -0.825044 0
M  V30 7763 C 806.982 5.33437 -0.167483 0
M  V30 7764 O 807.205 5.60812 1.04146 0
M  V30 7765 O 806.139 5.95637 -0.866047 0
M  V30 7766 H 809.965 2.69326 -1.40346 0
M  V30 7767 H 807.55 1.29325 -0.748019 0
M  V30 7768 H 809.432 4.17811 0.548841 0
M  V30 7769 H 808.107 3.0751 1.01092 0
M  V30 7770 H 807.014 3.52134 -1.26303 0
M  V30 7771 H 808.347 4.6396 -1.64322 0
M  V30 7772 N 809.999 0.752036 1.385 0
M  V30 7773 C 810.929 0.138718 2.33088 0
M  V30 7774 C 811.91 -0.705318 1.54788 0
M  V30 7775 O 813.095 -0.646821 1.83112 0
M  V30 7776 C 810.225 -0.75641 3.38963 0
M  V30 7777 C 809.179 -0.0152239 4.27997 0
M  V30 7778 C 808.505 -1.0285 5.24715 0
M  V30 7779 C 809.805 1.15226 5.09431 0
M  V30 7780 H 811.499 0.928852 2.84627 0
M  V30 7781 H 809.045 0.448111 1.3685 0
M  V30 7782 H 810.998 -1.19513 4.04097 0
M  V30 7783 H 809.722 -1.57885 2.85902 0
M  V30 7784 H 808.381 0.404061 3.64366 0
M  V30 7785 H 808.029 -1.84496 4.67943 0
M  V30 7786 H 807.729 -0.537238 5.85139 0
M  V30 7787 H 809.253 -1.46657 5.92726 0
M  V30 7788 H 810.667 0.791161 5.67815 0
M  V30 7789 H 809.064 1.57428 5.79082 0
M  V30 7790 H 810.134 1.9659 4.43261 0
M  V30 7791 N 811.477 -1.49425 0.500989 0
M  V30 7792 C 812.717 -2.04357 -0.0419004 0
M  V30 7793 C 813.081 -1.37236 -1.34277 0
M  V30 7794 O 814.282 -1.82889 -1.9699 0
M  V30 7795 C 812.553 -3.56889 -0.19112 0
M  V30 7796 S 814.112 -4.33369 -0.688259 0
M  V30 7797 H 810.93 -0.710998 -0.00177796 0
M  V30 7798 H 813.532 -1.83479 0.674953 0
M  V30 7799 H 812.236 -4.03283 0.760964 0
M  V30 7800 H 811.767 -3.82171 -0.933214 0
M  V30 7801 H 813.782 -4.55961 -1.9574 0
M  V30 7802 N 812.955 -0.234822 -1.55841 0
M  V30 7803 C 814.18 0.400741 -2.03492 0
M  V30 7804 C 814.605 1.51618 -1.11327 0
M  V30 7805 O 813.963 1.81002 -0.103922 0
M  V30 7806 C 814.011 0.897184 -3.49261 0
M  V30 7807 O 813.115 2.00764 -3.60233 0
M  V30 7808 H 812.456 0.0890023 -0.658008 0
M  V30 7809 H 814.986 -0.357345 -2.01455 0
M  V30 7810 H 814.996 1.20356 -3.89844 0
M  V30 7811 H 813.671 0.0808639 -4.15821 0
M  V30 7812 H 812.248 1.70689 -3.31541 0
M  V30 7813 N 814.433 1.57553 0.0384317 0
M  V30 7814 C 815.844 1.77258 0.586211 0
M  V30 7815 C 816.195 0.864706 1.76117 0
M  V30 7816 O 815.32 0.057141 2.16325 0
M  V30 7817 C 815.915 3.21453 1.07021 0
M  V30 7818 C 814.474 3.42387 1.56358 0
M  V30 7819 C 813.621 2.72801 0.497508 0
M  V30 7820 H 816.572 1.57585 -0.187796 0
M  V30 7821 H 816.593 3.27451 1.93794 0
M  V30 7822 H 816.105 3.87505 0.214851 0
M  V30 7823 H 814.206 2.81497 2.44111 0
M  V30 7824 H 814.319 4.50968 1.61754 0
M  V30 7825 H 812.683 2.36305 0.95038 0
M  V30 7826 H 813.466 3.41529 -0.348234 0
M  V30 7827 N 815.911 -0.310526 1.54511 0
M  V30 7828 C 816.843 -1.40405 1.8116 0
M  V30 7829 C 817.856 -1.47261 0.694114 0
M  V30 7830 O 819.045 -1.49751 0.971441 0
M  V30 7831 C 816.145 -2.78849 1.92604 0
M  V30 7832 C 815.318 -2.95041 3.22908 0
M  V30 7833 C 814.377 -4.13925 3.24889 0
M  V30 7834 O 813.403 -4.06463 3.98467 0
M  V30 7835 N 814.605 -5.24099 2.496 0
M  V30 7836 H 817.37 -1.17903 2.75534 0
M  V30 7837 H 814.931 -0.500564 1.53967 0
M  V30 7838 H 816.923 -3.5661 1.91342 0
M  V30 7839 H 815.493 -2.94342 1.05268 0
M  V30 7840 H 814.713 -2.04472 3.37023 0
M  V30 7841 H 816.001 -3.02763 4.08916 0
M  V30 7842 H 815.399 -5.33039 1.89435 0
M  V30 7843 H 813.956 -6.0023 2.54102 0
M  V30 7844 N 817.389 -1.46805 -0.573248 0
M  V30 7845 C 818.666 -1.43082 -1.33368 0
M  V30 7846 C 819.046 -0.119252 -2.10763 0
M  V30 7847 O 818.394 0.899239 -2.10062 0
M  V30 7848 C 818.604 -2.66643 -2.25172 0
M  V30 7849 C 819.952 -3.13188 -2.86702 0
M  V30 7850 O 820.976 -2.67258 -2.35482 0
M  V30 7851 O 819.835 -3.92994 -3.79761 0
M  V30 7852 H 816.929 -0.569451 -0.599712 0
M  V30 7853 H 819.475 -1.58984 -0.59348 0
M  V30 7854 H 818.247 -3.53649 -1.67475 0
M  V30 7855 H 817.87 -2.53247 -3.06516 0
M  V30 7856 N 818.867 0.818669 -1.34668 0
M  V30 7857 C 819.777 1.9616 -1.2868 0
M  V30 7858 C 820.793 1.72918 -0.193742 0
M  V30 7859 O 821.969 1.96951 -0.420975 0
M  V30 7860 C 819.034 3.30534 -1.04633 0
M  V30 7861 C 818.095 3.66755 -2.23136 0
M  V30 7862 C 817.328 4.94717 -2.00227 0
M  V30 7863 O 817.551 5.62218 -0.96264 0
M  V30 7864 O 816.485 5.28915 -2.87286 0
M  V30 7865 H 820.311 2.04157 -2.24842 0
M  V30 7866 H 817.896 0.954691 -1.14917 0
M  V30 7867 H 819.778 4.11005 -0.930216 0
M  V30 7868 H 818.453 3.23495 -0.115139 0
M  V30 7869 H 817.36 2.8671 -2.40308 0
M  V30 7870 H 818.693 3.78484 -3.1466 0
M  V30 7871 N 820.346 1.18468 1.03938 0
M  V30 7872 C 821.276 0.936389 2.13902 0
M  V30 7873 C 822.257 -0.126381 1.6963 0
M  V30 7874 O 823.442 0.0264757 1.94182 0
M  V30 7875 C 820.572 0.462729 3.44204 0
M  V30 7876 C 819.526 1.46613 4.02105 0
M  V30 7877 C 818.852 0.84994 5.27902 0
M  V30 7878 C 820.152 2.84323 4.3813 0
M  V30 7879 H 821.846 1.85602 2.3493 0
M  V30 7880 H 819.392 0.893806 1.12903 0
M  V30 7881 H 821.345 0.276382 4.20493 0
M  V30 7882 H 820.069 -0.492477 3.22866 0
M  V30 7883 H 818.728 1.63944 3.27899 0
M  V30 7884 H 818.376 -0.112493 5.02874 0
M  V30 7885 H 818.076 1.51988 5.67603 0
M  V30 7886 H 819.6 0.674152 6.06867 0
M  V30 7887 H 821.014 2.70636 5.054 0
M  V30 7888 H 819.411 3.48012 4.88884 0
M  V30 7889 H 820.481 3.37776 3.47901 0
M  V30 7890 N 821.824 -1.22873 0.986916 0
M  V30 7891 C 823.101 -1.86939 0.575589 0
M  V30 7892 C 823.481 -1.88656 -0.947205 0
M  V30 7893 O 822.829 -1.3728 -1.82665 0
M  V30 7894 C 823.039 -3.28117 1.18914 0
M  V30 7895 C 824.387 -4.04659 1.28593 0
M  V30 7896 O 825.411 -3.3736 1.14308 0
M  V30 7897 O 824.27 -5.25112 1.51391 0
M  V30 7898 H 821.364 -0.803748 0.194724 0
M  V30 7899 H 823.91 -1.30698 1.08241 0
M  V30 7900 H 822.682 -3.21468 2.231 0
M  V30 7901 H 822.305 -3.91956 0.667535 0
M  V30 7902 N 823.302 -0.75937 -1.38099 0
M  V30 7903 C 824.549 -0.318113 -1.99986 0
M  V30 7904 C 824.877 1.10184 -1.6028 0
M  V30 7905 O 824.132 1.77015 -0.834524 0
M  V30 7906 C 824.431 -0.394999 -3.55211 0
M  V30 7907 C 824.097 -1.77143 -4.14646 0
M  V30 7908 C 822.759 -2.14811 -4.30592 0
M  V30 7909 C 825.111 -2.67407 -4.47373 0
M  V30 7910 C 822.439 -3.42203 -4.76565 0
M  V30 7911 C 824.791 -3.94196 -4.94765 0
M  V30 7912 C 823.455 -4.31925 -5.08918 0
M  V30 7913 H 822.725 -0.116406 -0.7318 0
M  V30 7914 H 825.372 -0.97098 -1.65058 0
M  V30 7915 H 823.677 0.341426 -3.9031 0
M  V30 7916 H 825.374 -0.0350722 -4.00985 0
M  V30 7917 H 821.964 -1.46864 -4.02652 0
M  V30 7918 H 826.148 -2.39569 -4.3465 0
M  V30 7919 H 821.404 -3.71346 -4.85708 0
M  V30 7920 H 825.578 -4.64276 -5.19057 0
M  V30 7921 H 823.205 -5.30699 -5.443 0
M  V30 7922 N 824.78 1.49157 -0.508906 0
M  V30 7923 C 825.71 2.32109 0.254469 0
M  V30 7924 C 826.691 1.40754 0.955111 0
M  V30 7925 O 827.876 1.69658 0.944983 0
M  V30 7926 C 825.006 3.21458 1.3146 0
M  V30 7927 C 823.96 4.2167 0.733368 0
M  V30 7928 C 823.286 5.00009 1.8946 0
M  V30 7929 C 824.586 5.21544 -0.280875 0
M  V30 7930 H 826.28 2.9618 -0.43795 0
M  V30 7931 H 823.826 1.4243 -0.212062 0
M  V30 7932 H 825.779 3.78305 1.85643 0
M  V30 7933 H 824.503 2.55346 2.03632 0
M  V30 7934 H 823.162 3.65979 0.213231 0
M  V30 7935 H 822.81 4.30338 2.60419 0
M  V30 7936 H 822.51 5.67821 1.51173 0
M  V30 7937 H 824.034 5.59702 2.44061 0
M  V30 7938 H 825.448 5.73039 0.173095 0
M  V30 7939 H 823.845 5.97291 -0.580006 0
M  V30 7940 H 824.915 4.69969 -1.19404 0
M  V30 7941 N 826.258 0.243083 1.55714 0
M  V30 7942 C 827.191 -0.698623 2.17243 0
M  V30 7943 C 828.169 -1.1756 1.12331 0
M  V30 7944 O 829.353 -1.25444 1.40699 0
M  V30 7945 C 826.48 -1.94901 2.77004 0
M  V30 7946 C 825.526 -1.61022 3.94936 0
M  V30 7947 S 826.359 -0.716173 5.30689 0
M  V30 7948 C 827.515 -1.97565 5.93901 0
M  V30 7949 H 827.748 -0.175724 2.9678 0
M  V30 7950 H 825.281 0.0275727 1.54375 0
M  V30 7951 H 827.239 -2.66687 3.12071 0
M  V30 7952 H 825.9 -2.44304 1.9742 0
M  V30 7953 H 825.093 -2.5398 4.35328 0
M  V30 7954 H 824.695 -0.972829 3.61126 0
M  V30 7955 H 826.987 -2.92333 6.11186 0
M  V30 7956 H 827.93 -1.61528 6.8943 0
M  V30 7957 H 828.338 -2.126 5.22935 0
M  V30 7958 N 827.736 -1.57571 -0.0300757 0
M  V30 7959 C 828.646 -2.09892 -1.04798 0
M  V30 7960 C 829.662 -1.03732 -1.39698 0
M  V30 7961 O 830.838 -1.35461 -1.49038 0
M  V30 7962 C 827.903 -2.56707 -2.33028 0
M  V30 7963 C 826.964 -3.77345 -2.04718 0
M  V30 7964 C 826.197 -4.21918 -3.26834 0
M  V30 7965 O 826.42 -3.66025 -4.37472 0
M  V30 7966 O 825.354 -5.14362 -3.12594 0
M  V30 7967 H 829.18 -2.97023 -0.633344 0
M  V30 7968 H 826.765 -1.47344 -0.246991 0
M  V30 7969 H 828.647 -2.87154 -3.08417 0
M  V30 7970 H 827.322 -1.72688 -2.73789 0
M  V30 7971 H 826.229 -3.51919 -1.26901 0
M  V30 7972 H 827.562 -4.62345 -1.68813 0
M  V30 7973 N 829.214 0.302327 -1.54673 0
M  V30 7974 C 830.177 1.35592 -1.8479 0
M  V30 7975 C 831.177 1.43743 -0.72073 0
M  V30 7976 O 832.367 1.43402 -0.989017 0
M  V30 7977 C 829.499 2.74091 -2.02699 0
M  V30 7978 H 830.692 1.10132 -2.78946 0
M  V30 7979 H 828.245 0.538926 -1.46715 0
M  V30 7980 H 828.98 3.04775 -1.10826 0
M  V30 7981 H 828.765 2.69565 -2.8474 0
M  V30 7982 H 830.255 3.50272 -2.27374 0
M  V30 7983 N 830.692 1.47107 0.565454 0
M  V30 7984 C 831.622 1.61846 1.68309 0
M  V30 7985 C 832.603 0.468159 1.63531 0
M  V30 7986 O 833.788 0.696504 1.8128 0
M  V30 7987 C 830.918 1.62474 3.06952 0
M  V30 7988 C 829.872 2.76649 3.26572 0
M  V30 7989 C 829.198 2.62345 4.65917 0
M  V30 7990 C 830.498 4.18319 3.12741 0
M  V30 7991 H 832.192 2.55407 1.5623 0
M  V30 7992 H 829.738 1.22916 0.750179 0
M  V30 7993 H 831.691 1.71378 3.84977 0
M  V30 7994 H 830.415 0.654692 3.19971 0
M  V30 7995 H 829.074 2.67242 2.50952 0
M  V30 7996 H 828.722 1.63386 4.75725 0
M  V30 7997 H 828.422 3.38936 4.79996 0
M  V30 7998 H 829.946 2.73165 5.46089 0
M  V30 7999 H 831.36 4.28745 3.80593 0
M  V30 8000 H 829.757 4.95632 3.38333 0
M  V30 8001 H 830.827 4.37263 2.09592 0
M  V30 8002 N 832.17 -0.811516 1.35101 0
M  V30 8003 C 833.419 -1.56343 1.27435 0
M  V30 8004 C 833.732 -1.95019 -0.150696 0
M  V30 8005 O 834.938 -2.6924 -0.349586 0
M  V30 8006 C 833.394 -2.82124 2.23459 0
M  V30 8007 C 833.002 -2.50706 3.71283 0
M  V30 8008 C 834.746 -3.60137 2.24726 0
M  V30 8009 C 832.653 -3.72748 4.59143 0
M  V30 8010 H 831.583 -0.58682 0.473453 0
M  V30 8011 H 834.234 -0.892465 1.60335 0
M  V30 8012 H 832.616 -3.50905 1.83525 0
M  V30 8013 H 833.79 -1.89962 4.19823 0
M  V30 8014 H 832.105 -1.85947 3.72576 0
M  V30 8015 H 834.702 -4.50775 2.87587 0
M  V30 8016 H 835.045 -3.97101 1.24965 0
M  V30 8017 H 835.578 -2.98311 2.63164 0
M  V30 8018 H 832.317 -3.40896 5.59884 0
M  V30 8019 H 831.837 -4.32735 4.15332 0
M  V30 8020 H 833.516 -4.40033 4.74321 0
M  V30 8021 N 833.648 -1.19017 -1.03309 0
M  V30 8022 C 834.897 -0.984542 -1.76039 0
M  V30 8023 C 835.21 0.485937 -1.89468 0
M  V30 8024 O 836.416 0.810278 -2.59127 0
M  V30 8025 C 834.872 -1.71261 -3.1654 0
M  V30 8026 C 834.48 -3.22291 -3.11179 0
M  V30 8027 C 836.224 -1.59007 -3.93595 0
M  V30 8028 C 834.131 -3.87704 -4.46587 0
M  V30 8029 H 833.061 -0.364749 -0.659905 0
M  V30 8030 H 835.712 -1.4247 -1.15649 0
M  V30 8031 H 834.094 -1.20025 -3.77373 0
M  V30 8032 H 835.268 -3.80611 -2.59753 0
M  V30 8033 H 833.583 -3.34772 -2.47622 0
M  V30 8034 H 836.18 -2.05232 -4.93745 0
M  V30 8035 H 836.523 -0.543534 -4.12736 0
M  V30 8036 H 837.056 -2.07564 -3.39355 0
M  V30 8037 H 833.795 -4.92437 -4.3265 0
M  V30 8038 H 833.315 -3.34172 -4.98085 0
M  V30 8039 H 834.994 -3.91008 -5.15482 0
M  V30 8040 N 835.127 1.22348 -0.993418 0
M  V30 8041 C 836.352 1.95666 -0.687727 0
M  V30 8042 C 836.777 1.72883 0.741161 0
M  V30 8043 O 836.135 1.00837 1.50671 0
M  V30 8044 C 836.183 3.46457 -0.99998 0
M  V30 8045 O 835.287 4.12281 -0.0989386 0
M  V30 8046 H 834.628 0.612102 -0.257346 0
M  V30 8047 H 837.158 1.55428 -1.33054 0
M  V30 8048 H 837.168 3.96976 -0.942035 0
M  V30 8049 H 835.843 3.62365 -2.04118 0
M  V30 8050 H 834.42 3.72295 -0.212413 0
M  V30 8051 N 836.605 0.766683 1.37694 0
M  V30 8052 C 837.552 0.147725 2.30327 0
M  V30 8053 C 838.522 -0.695366 1.50844 0
M  V30 8054 O 839.707 -0.64878 1.79431 0
M  V30 8055 C 836.847 -0.72935 3.37305 0
M  V30 8056 C 835.96 0.129795 4.31805 0
M  V30 8057 C 835.095 -0.751511 5.25857 0
M  V30 8058 C 834.134 0.110475 6.12 0
M  V30 8059 N 833.271 -0.728522 6.9831 0
M  V30 8060 H 838.111 0.943204 2.82679 0
M  V30 8061 H 835.648 0.476736 1.3916 0
M  V30 8062 H 837.606 -1.25263 3.97951 0
M  V30 8063 H 836.236 -1.49048 2.86329 0
M  V30 8064 H 835.288 0.770829 3.72508 0
M  V30 8065 H 836.6 0.794923 4.92425 0
M  V30 8066 H 835.754 -1.34146 5.91684 0
M  V30 8067 H 834.493 -1.45034 4.65636 0
M  V30 8068 H 833.498 0.712999 5.45157 0
M  V30 8069 H 834.723 0.806557 6.74293 0
M  V30 8070 H 832.669 -1.41206 6.40622 0
M  V30 8071 H 832.586 -0.12058 7.55904 0
M  V30 8072 H 833.854 -1.30303 7.68532 0
M  V30 8073 N 838.083 -1.48885 0.516809 0
M  V30 8074 C 839.33 -2.02488 -0.0220602 0
M  V30 8075 C 839.658 -1.39513 -1.35523 0
M  V30 8076 O 838.913 -0.52558 -1.8851 0
M  V30 8077 C 839.212 -3.56801 -0.206798 0
M  V30 8078 C 838.878 -4.38496 1.05035 0
M  V30 8079 C 837.54 -4.60538 1.39492 0
M  V30 8080 C 839.892 -4.85909 1.88525 0
M  V30 8081 C 837.22 -5.2724 2.57361 0
M  V30 8082 C 839.572 -5.53909 3.05561 0
M  V30 8083 C 838.236 -5.74193 3.4038 0
M  V30 8084 H 837.506 -0.740956 -0.00807238 0
M  V30 8085 H 840.153 -1.79014 0.680168 0
M  V30 8086 H 838.458 -3.79042 -0.991687 0
M  V30 8087 H 840.155 -3.95885 -0.638447 0
M  V30 8088 H 836.745 -4.2159 0.771984 0
M  V30 8089 H 840.929 -4.68694 1.63218 0
M  V30 8090 H 836.185 -5.41145 2.84556 0
M  V30 8091 H 840.359 -5.89619 3.7057 0
M  V30 8092 H 837.986 -6.25652 4.31814 0
M  V30 8093 N 839.561 -0.251338 -1.55583 0
M  V30 8094 C 840.977 0.103409 -1.59265 0
M  V30 8095 C 841.177 1.56559 -1.26852 0
M  V30 8096 O 840.233 2.31071 -1.01796 0
M  V30 8097 C 841.546 -0.249781 -2.99661 0
M  V30 8098 C 843.094 -0.194442 -3.12395 0
M  V30 8099 C 843.569 -0.521728 -4.55019 0
M  V30 8100 N 845.06 -0.472393 -4.60785 0
M  V30 8101 C 845.795 -0.698737 -5.69127 0
M  V30 8102 N 845.291 -0.988443 -6.85713 0
M  V30 8103 N 847.084 -0.629143 -5.58568 0
M  V30 8104 H 839.235 -1.20484 -1.74921 0
M  V30 8105 H 841.498 -0.485092 -0.814488 0
M  V30 8106 H 841.204 -1.26577 -3.28133 0
M  V30 8107 H 841.078 0.420973 -3.74844 0
M  V30 8108 H 843.465 0.812229 -2.83702 0
M  V30 8109 H 843.546 -0.899111 -2.39478 0
M  V30 8110 H 843.19 -1.52597 -4.84434 0
M  V30 8111 H 843.12 0.204468 -5.26203 0
M  V30 8112 H 845.611 -0.257386 -3.77022 0
M  V30 8113 H 845.924 -1.14846 -7.64219 0
M  V30 8114 H 844.269 -1.02596 -6.87386 0
M  V30 8115 H 847.46 -0.402826 -4.66364 0
M  V30 8116 H 847.633 -0.808935 -6.42931 0
M  V30 8117 N 841.039 1.57585 0.0217189 0
M  V30 8118 C 841.989 2.03506 1.02807 0
M  V30 8119 C 842.973 0.925716 1.31603 0
M  V30 8120 O 844.165 1.18958 1.31065 0
M  V30 8121 C 841.294 2.52407 2.32693 0
M  V30 8122 C 840.38 3.70176 2.06955 0
M  V30 8123 N 840.771 4.82641 1.513 0
M  V30 8124 C 839.069 3.77691 2.37204 0
M  V30 8125 C 839.77 5.64218 1.41536 0
M  V30 8126 N 838.746 5.09557 1.89348 0
M  V30 8127 H 842.548 2.87878 0.591899 0
M  V30 8128 H 840.062 1.60793 0.227875 0
M  V30 8129 H 842.059 2.83569 3.05605 0
M  V30 8130 H 840.719 1.69444 2.76982 0
M  V30 8131 H 841.73 5.03931 1.19472 0
M  V30 8132 H 838.407 3.05542 2.84517 0
M  V30 8133 H 839.797 6.64576 0.989333 0
M  V30 8134 N 842.517 -0.29412 1.54831 0
M  V30 8135 C 843.449 -1.38476 1.82639 0
M  V30 8136 C 844.462 -1.46517 0.709694 0
M  V30 8137 O 845.651 -1.48712 0.987269 0
M  V30 8138 C 842.751 -2.76791 1.95551 0
M  V30 8139 C 841.924 -2.91599 3.26019 0
M  V30 8140 C 840.983 -4.10456 3.29261 0
M  V30 8141 O 840.009 -4.02214 4.02756 0
M  V30 8142 N 841.211 -5.21422 2.55145 0
M  V30 8143 H 843.976 -1.14974 2.76769 0
M  V30 8144 H 841.537 -0.484206 1.5449 0
M  V30 8145 H 843.529 -3.5456 1.95113 0
M  V30 8146 H 842.099 -2.93209 1.08384 0
M  V30 8147 H 841.319 -2.00886 3.39173 0
M  V30 8148 H 842.607 -2.98409 4.12104 0
M  V30 8149 H 842.005 -5.31 1.95078 0
M  V30 8150 H 840.562 -5.97501 2.60454 0
M  V30 8151 N 843.995 -1.47404 -0.557645 0
M  V30 8152 C 844.943 -1.60265 -1.68576 0
M  V30 8153 C 845.937 -0.469982 -1.6275 0
M  V30 8154 O 847.143 -0.647764 -1.67941 0
M  V30 8155 H 843.518 -0.504353 -0.557792 0
M  V30 8156 H 845.489 -2.55066 -1.54867 0
M  V30 8157 C 844.238 -1.63369 -3.0693 0
M  V30 8158 H 843.561 -2.49874 -3.12095 0
M  V30 8159 H 845.001 -1.76417 -3.85556 0
M  V30 8160 C 843.46 -0.366921 -3.34896 0
M  V30 8161 O 843.99 0.53218 -3.98159 0
M  V30 8162 N 842.196 -0.247082 -2.89548 0
M  V30 8163 H 841.743 -0.979669 -2.38244 0
M  V30 8164 H 841.701 0.599552 -3.0863 0
M  V30 8165 N 845.473 0.80434 -1.35529 0
M  V30 8166 C 846.722 1.55665 -1.28263 0
M  V30 8167 C 847.035 1.95096 0.140352 0
M  V30 8168 O 848.241 2.69422 0.335303 0
M  V30 8169 C 846.697 2.80935 -2.24952 0
M  V30 8170 C 846.305 2.48733 -3.72607 0
M  V30 8171 C 848.049 3.5894 -2.26632 0
M  V30 8172 C 845.956 3.70308 -4.61114 0
M  V30 8173 H 844.886 0.584301 -0.476559 0
M  V30 8174 H 847.537 0.88395 -1.60806 0
M  V30 8175 H 845.919 3.49927 -1.85383 0
M  V30 8176 H 847.093 1.87733 -4.20824 0
M  V30 8177 H 845.408 1.83969 -3.73557 0
M  V30 8178 H 848.005 4.49244 -2.89973 0
M  V30 8179 H 848.348 3.96433 -1.27069 0
M  V30 8180 H 848.881 2.96912 -2.64742 0
M  V30 8181 H 845.62 3.37922 -5.61684 0
M  V30 8182 H 845.14 4.30526 -4.17621 0
M  V30 8183 H 846.819 4.37511 -4.76648 0
M  V30 8184 N 846.951 1.19563 1.02676 0
M  V30 8185 C 848.197 1.00105 1.76371 0
M  V30 8186 C 848.53 -0.466823 1.88506 0
M  V30 8187 O 847.805 -1.34665 1.40341 0
M  V30 8188 C 848.088 1.67321 3.18866 0
M  V30 8189 C 847.941 3.21486 3.1459 0
M  V30 8190 C 849.26 1.39794 4.17308 0
M  V30 8191 H 846.379 0.365075 0.640226 0
M  V30 8192 H 849.021 1.47433 1.19848 0
M  V30 8193 H 847.171 1.27081 3.67128 0
M  V30 8194 H 848.843 3.70953 2.7421 0
M  V30 8195 H 847.086 3.5292 2.52249 0
M  V30 8196 H 847.757 3.63665 4.15273 0
M  V30 8197 H 850.233 1.74685 3.77657 0
M  V30 8198 H 849.109 1.89371 5.15199 0
M  V30 8199 H 849.37 0.323505 4.40915 0
M  V30 8200 N 848.429 -1.21819 0.999893 0
M  V30 8201 C 849.845 -1.42847 0.711824 0
M  V30 8202 C 850.045 -1.88391 -0.714928 0
M  V30 8203 O 849.101 -2.0422 -1.48494 0
M  V30 8204 C 850.414 -2.46417 1.72334 0
M  V30 8205 C 851.962 -2.60207 1.73958 0
M  V30 8206 C 852.437 -3.67005 2.73992 0
M  V30 8207 N 853.928 -3.7447 2.72628 0
M  V30 8208 C 854.663 -4.56718 3.46693 0
M  V30 8209 N 854.159 -5.42904 4.3038 0
M  V30 8210 N 855.952 -4.51094 3.35366 0
M  V30 8211 H 848.103 -0.905656 1.92124 0
M  V30 8212 H 850.366 -0.459893 0.828977 0
M  V30 8213 H 850.072 -2.19914 2.74465 0
M  V30 8214 H 849.946 -3.45137 1.52186 0
M  V30 8215 H 852.333 -2.8605 0.725217 0
M  V30 8216 H 852.414 -1.61739 1.98177 0
M  V30 8217 H 852.058 -3.41908 3.75582 0
M  V30 8218 H 851.988 -4.65058 2.4704 0
M  V30 8219 H 854.479 -3.12895 2.11909 0
M  V30 8220 H 854.792 -6.02704 4.83702 0
M  V30 8221 H 853.137 -5.42463 4.34464 0
M  V30 8222 H 856.328 -3.82791 2.69423 0
M  V30 8223 H 856.501 -5.1496 3.93344 0
M  V30 8224 N 849.908 -0.773975 -1.37286 0
M  V30 8225 C 851.148 -0.344505 -2.01476 0
M  V30 8226 C 851.512 1.05966 -1.6011 0
M  V30 8227 O 852.713 1.58937 -2.16778 0
M  V30 8228 C 850.984 -0.485816 -3.54083 0
M  V30 8229 S 852.543 -0.141939 -4.3857 0
M  V30 8230 H 849.361 -0.13243 -0.698558 0
M  V30 8231 H 851.963 -1.00908 -1.67445 0
M  V30 8232 H 850.667 -1.50835 -3.81677 0
M  V30 8233 H 850.198 0.195232 -3.92915 0
M  V30 8234 H 852.213 1.06177 -4.84707 0
M  V30 8235 N 851.386 1.48609 -0.524698 0
M  V30 8236 C 852.632 2.02797 0.0113382 0
M  V30 8237 C 852.965 1.40147 1.34433 0
M  V30 8238 O 852.24 0.545368 1.86698 0
M  V30 8239 C 852.523 3.59832 0.138931 0
M  V30 8240 C 852.376 4.32971 -1.21886 0
M  V30 8241 C 853.695 4.3145 0.868265 0
M  V30 8242 H 850.814 0.736995 0.00264645 0
M  V30 8243 H 853.456 1.77388 -0.680704 0
M  V30 8244 H 851.606 3.81612 0.72834 0
M  V30 8245 H 853.278 4.22624 -1.84897 0
M  V30 8246 H 851.521 3.94597 -1.80211 0
M  V30 8247 H 852.192 5.41279 -1.08263 0
M  V30 8248 H 854.668 4.14468 0.368145 0
M  V30 8249 H 853.544 5.41025 0.926428 0
M  V30 8250 H 853.805 3.98358 1.91737 0
M  V30 8251 N 852.864 0.259585 1.55447 0
M  V30 8252 C 854.112 -0.360893 1.98852 0
M  V30 8253 C 854.433 -1.57535 1.14924 0
M  V30 8254 O 853.703 -1.94485 0.235025 0
M  V30 8255 H 852.283 -0.136332 0.734454 0
M  V30 8256 H 854.945 0.361319 1.91522 0
M  V30 8257 H 854.041 -0.661388 3.05012 0
M  V30 8258 N 854.342 -1.57594 -0.0133615 0
M  V30 8259 C 855.272 -2.10611 -1.00823 0
M  V30 8260 C 856.253 -1.01217 -1.36708 0
M  V30 8261 O 857.438 -1.28827 -1.45318 0
M  V30 8262 C 854.568 -2.59844 -2.30431 0
M  V30 8263 C 853.522 -3.73644 -2.08745 0
M  V30 8264 C 852.848 -4.09141 -3.4425 0
M  V30 8265 C 854.148 -5.01454 -1.46086 0
M  V30 8266 H 855.842 -2.93985 -0.566849 0
M  V30 8267 H 853.388 -1.41423 -0.271219 0
M  V30 8268 H 855.341 -2.95557 -3.00373 0
M  V30 8269 H 854.065 -1.73573 -2.76658 0
M  V30 8270 H 852.724 -3.38303 -1.41232 0
M  V30 8271 H 852.372 -3.19914 -3.88155 0
M  V30 8272 H 852.072 -4.85802 -3.3056 0
M  V30 8273 H 853.596 -4.47402 -4.15528 0
M  V30 8274 H 855.01 -5.35024 -2.05966 0
M  V30 8275 H 853.407 -5.82832 -1.42924 0
M  V30 8276 H 854.477 -4.83003 -0.428471 0
M  V30 8277 N 855.82 0.285905 -1.54985 0
M  V30 8278 C 857.045 1.04207 -1.7932 0
M  V30 8279 C 857.47 1.79622 -0.558343 0
M  V30 8280 O 856.828 1.74506 0.491661 0
M  V30 8281 C 856.876 1.98648 -3.0095 0
M  V30 8282 O 855.98 3.07207 -2.75132 0
M  V30 8283 H 855.321 0.298596 -0.593074 0
M  V30 8284 H 857.851 0.318736 -2.02102 0
M  V30 8285 H 857.861 2.4084 -3.29333 0
M  V30 8286 H 856.536 1.43167 -3.90482 0
M  V30 8287 H 855.113 2.69423 -2.57809 0
M  V30 8288 N 857.298 1.47698 0.54982 0
M  V30 8289 C 858.228 1.63622 1.66583 0
M  V30 8290 C 859.209 0.485477 1.63025 0
M  V30 8291 O 860.394 0.715692 1.80531 0
M  V30 8292 C 857.524 1.65721 3.05211 0
M  V30 8293 C 856.478 2.80097 3.2362 0
M  V30 8294 C 855.804 2.67272 4.63109 0
M  V30 8295 C 857.104 4.21612 3.08286 0
M  V30 8296 H 858.798 2.57049 1.53512 0
M  V30 8297 H 856.344 1.23705 0.737099 0
M  V30 8298 H 858.297 1.75451 3.83138 0
M  V30 8299 H 857.021 0.688593 3.19258 0
M  V30 8300 H 855.68 2.69889 2.48104 0
M  V30 8301 H 855.328 1.68422 4.73965 0
M  V30 8302 H 855.028 3.44008 4.76374 0
M  V30 8303 H 856.552 2.78942 5.43161 0
M  V30 8304 H 857.966 4.32758 3.76024 0
M  V30 8305 H 856.363 4.99193 3.33057 0
M  V30 8306 H 857.433 4.39462 2.04942 0
M  V30 8307 N 858.776 -0.797141 1.35954 0
M  V30 8308 C 860.192 -1.09408 1.16198 0
M  V30 8309 C 860.392 -2.01491 -0.0191682 0
M  V30 8310 O 859.448 -2.42977 -0.686902 0
M  V30 8311 C 860.761 -1.71597 2.46931 0
M  V30 8312 C 862.309 -1.83974 2.53224 0
M  V30 8313 C 862.784 -2.49579 3.84024 0
M  V30 8314 N 864.275 -2.57055 3.85327 0
M  V30 8315 C 865.01 -3.08608 4.83268 0
M  V30 8316 N 864.506 -3.60527 5.91601 0
M  V30 8317 N 866.299 -3.07249 4.70696 0
M  V30 8318 H 858.45 -0.185209 2.11591 0
M  V30 8319 H 860.713 -0.144768 0.936881 0
M  V30 8320 H 860.419 -1.11404 3.3359 0
M  V30 8321 H 860.293 -2.71193 2.62172 0
M  V30 8322 H 862.68 -2.43308 1.66988 0
M  V30 8323 H 862.761 -0.83207 2.41889 0
M  V30 8324 H 862.405 -1.90892 4.70662 0
M  V30 8325 H 862.335 -3.50902 3.92651 0
M  V30 8326 H 864.826 -2.20283 3.07057 0
M  V30 8327 H 865.139 -3.98192 6.62317 0
M  V30 8328 H 863.484 -3.587 5.95281 0
M  V30 8329 H 866.675 -2.65972 3.85197 0
M  V30 8330 H 866.848 -3.47119 5.47186 0
M  V30 8331 N 860.254 -1.20106 -1.0204 0
M  V30 8332 C 861.217 -0.948261 -2.08664 0
M  V30 8333 C 862.217 0.0746753 -1.60627 0
M  V30 8334 O 863.407 -0.160981 -1.73455 0
M  V30 8335 C 860.539 -0.426854 -3.38217 0
M  V30 8336 H 861.732 -1.894 -2.32524 0
M  V30 8337 H 859.285 -1.0159 -1.18782 0
M  V30 8338 H 860.02 0.524532 -3.2003 0
M  V30 8339 H 859.805 -1.16451 -3.74408 0
M  V30 8340 H 861.295 -0.269346 -4.1673 0
M  V30 8341 N 861.732 1.21287 -1.00634 0
M  V30 8342 C 862.96 1.94385 -0.708678 0
M  V30 8343 C 863.375 1.7416 0.728957 0
M  V30 8344 O 862.732 1.04906 1.49335 0
M  V30 8345 C 862.783 3.46755 -1.02193 0
M  V30 8346 O 862.504 3.6631 -2.40309 0
M  V30 8347 C 864.005 4.37014 -0.743867 0
M  V30 8348 H 861.225 0.618136 -0.261052 0
M  V30 8349 H 863.769 1.54067 -1.34475 0
M  V30 8350 H 861.924 3.8499 -0.431441 0
M  V30 8351 H 862.338 4.60393 -2.51274 0
M  V30 8352 H 863.812 5.42621 -1.01321 0
M  V30 8353 H 864.289 4.38017 0.322084 0
M  V30 8354 H 864.895 4.04426 -1.31603 0
M  V30 8355 N 863.21 0.781244 1.36873 0
M  V30 8356 C 864.621 0.414093 1.8205 0
M  V30 8357 C 864.972 -1.06098 1.65039 0
M  V30 8358 O 864.097 -1.82251 1.16677 0
M  V30 8359 C 864.692 0.744837 3.30511 0
M  V30 8360 C 863.251 0.430621 3.73929 0
M  V30 8361 C 862.398 0.983746 2.59264 0
M  V30 8362 H 865.349 0.975091 1.2521 0
M  V30 8363 H 865.37 0.032936 3.80486 0
M  V30 8364 H 864.882 1.81847 3.42861 0
M  V30 8365 H 862.983 -0.635308 3.67144 0
M  V30 8366 H 863.096 0.945514 4.69677 0
M  V30 8367 H 861.46 0.407433 2.5142 0
M  V30 8368 H 862.243 2.06297 2.74402 0
M  V30 8369 N 864.689 -1.48329 0.532571 0
M  V30 8370 C 866.105 -1.58458 0.190605 0
M  V30 8371 C 866.305 -1.53427 -1.30623 0
M  V30 8372 O 865.361 -1.4247 -2.08467 0
M  V30 8373 C 866.674 -2.89989 0.79543 0
M  V30 8374 C 868.222 -3.03523 0.7644 0
M  V30 8375 C 868.697 -4.37718 1.34785 0
M  V30 8376 N 870.188 -4.44292 1.30993 0
M  V30 8377 C 870.923 -5.4664 1.73124 0
M  V30 8378 N 870.419 -6.5593 2.22997 0
M  V30 8379 N 872.212 -5.37538 1.64346 0
M  V30 8380 H 864.363 -1.49842 1.50537 0
M  V30 8381 H 866.626 -0.71164 0.626316 0
M  V30 8382 H 866.332 -2.99333 1.84642 0
M  V30 8383 H 866.206 -3.76203 0.27403 0
M  V30 8384 H 868.593 -2.93789 -0.277831 0
M  V30 8385 H 868.674 -2.18912 1.3233 0
M  V30 8386 H 868.318 -4.48206 2.38902 0
M  V30 8387 H 868.248 -5.21019 0.764609 0
M  V30 8388 H 870.739 -3.65897 0.944868 0
M  V30 8389 H 871.052 -7.30167 2.53133 0
M  V30 8390 H 869.397 -6.56886 2.26992 0
M  V30 8391 H 872.588 -4.51052 1.25178 0
M  V30 8392 H 872.761 -6.17169 1.97501 0
M  V30 8393 N 866.167 -0.267825 -1.55308 0
M  V30 8394 C 867.097 0.616585 -2.25212 0
M  V30 8395 C 868.078 1.16472 -1.23969 0
M  V30 8396 O 869.263 1.20021 -1.52672 0
M  V30 8397 C 866.393 1.80412 -2.96764 0
M  V30 8398 C 865.347 1.38784 -4.04874 0
M  V30 8399 C 864.673 2.65789 -4.63961 0
M  V30 8400 C 865.973 0.543415 -5.19465 0
M  V30 8401 H 867.667 0.0336257 -2.99381 0
M  V30 8402 H 865.213 0.0147328 -1.43992 0
M  V30 8403 H 867.166 2.42866 -3.44375 0
M  V30 8404 H 865.89 2.4128 -2.20118 0
M  V30 8405 H 864.549 0.786541 -3.58063 0
M  V30 8406 H 864.197 3.24899 -3.83992 0
M  V30 8407 H 863.897 2.38651 -5.36954 0
M  V30 8408 H 865.421 3.29104 -5.14318 0
M  V30 8409 H 866.835 1.07277 -5.63174 0
M  V30 8410 H 865.232 0.367219 -5.98975 0
M  V30 8411 H 866.302 -0.439534 -4.82904 0
M  V30 8412 N 867.645 1.57599 0.00500368 0
M  V30 8413 C 868.894 1.89528 0.690061 0
M  V30 8414 C 869.207 0.869451 1.75214 0
M  V30 8415 O 870.413 1.07879 2.49147 0
M  V30 8416 C 868.869 3.36425 1.27852 0
M  V30 8417 C 868.477 4.47293 0.251531 0
M  V30 8418 C 870.221 3.77471 1.94206 0
M  V30 8419 C 868.128 5.85264 0.8497 0
M  V30 8420 H 867.058 0.707201 0.2615 0
M  V30 8421 H 869.709 1.83418 -0.0547209 0
M  V30 8422 H 868.091 3.37356 2.07381 0
M  V30 8423 H 869.265 4.5787 -0.518796 0
M  V30 8424 H 867.58 4.15235 -0.311281 0
M  V30 8425 H 870.177 4.77884 2.39855 0
M  V30 8426 H 870.52 3.10722 2.77051 0
M  V30 8427 H 871.053 3.78817 1.21419 0
M  V30 8428 H 867.792 6.55472 0.0601408 0
M  V30 8429 H 867.312 5.78361 1.5893 0
M  V30 8430 H 868.991 6.32762 1.34984 0
M  V30 8431 N 869.123 -0.277682 1.55134 0
M  V30 8432 C 870.053 -1.34742 1.90701 0
M  V30 8433 C 871.034 -1.51757 0.768354 0
M  V30 8434 O 872.219 -1.64879 1.02609 0
M  V30 8435 C 869.349 -2.70775 2.17481 0
M  V30 8436 C 868.303 -2.68497 3.33307 0
M  V30 8437 C 867.629 -4.08037 3.45557 0
M  V30 8438 C 868.929 -2.28178 4.69821 0
M  V30 8439 H 870.623 -1.05224 2.803 0
M  V30 8440 H 868.169 -0.504738 1.34864 0
M  V30 8441 H 870.122 -3.45719 2.40949 0
M  V30 8442 H 868.846 -3.01867 1.24676 0
M  V30 8443 H 867.505 -1.9601 3.09799 0
M  V30 8444 H 867.153 -4.36344 2.50226 0
M  V30 8445 H 866.853 -4.07409 4.23429 0
M  V30 8446 H 868.377 -4.84726 3.71312 0
M  V30 8447 H 869.791 -2.92843 4.92865 0
M  V30 8448 H 868.188 -2.3872 5.50575 0
M  V30 8449 H 869.258 -1.23308 4.6896 0
M  V30 8450 N 870.601 -1.47988 -0.541979 0
M  V30 8451 C 871.531 -1.64503 -1.65713 0
M  V30 8452 C 872.512 -0.494116 -1.62765 0
M  V30 8453 O 873.697 -0.725256 -1.80149 0
M  V30 8454 C 870.827 -1.67337 -3.04328 0
M  V30 8455 C 869.781 -2.81809 -3.2213 0
M  V30 8456 C 869.107 -2.69724 -4.61685 0
M  V30 8457 C 870.407 -4.23241 -3.06046 0
M  V30 8458 H 872.101 -2.5786 -1.52147 0
M  V30 8459 H 869.647 -1.24094 -0.730529 0
M  V30 8460 H 871.6 -1.77481 -3.82202 0
M  V30 8461 H 870.324 -0.705514 -3.18889 0
M  V30 8462 H 868.983 -2.71201 -2.46669 0
M  V30 8463 H 868.631 -1.70934 -4.73065 0
M  V30 8464 H 868.331 -3.4653 -4.74543 0
M  V30 8465 H 869.855 -2.81818 -5.41674 0
M  V30 8466 H 871.269 -4.34746 -3.73723 0
M  V30 8467 H 869.666 -5.00952 -3.30405 0
M  V30 8468 H 870.736 -4.40543 -2.02609 0
M  V30 8469 N 872.079 0.78992 -1.36375 0
M  V30 8470 C 872.989 1.93386 -1.32812 0
M  V30 8471 C 874.005 1.72468 -0.230377 0
M  V30 8472 O 875.181 1.96014 -0.462657 0
M  V30 8473 C 872.246 3.2824 -1.11621 0
M  V30 8474 C 871.307 3.61939 -2.30865 0
M  V30 8475 C 870.54 4.90359 -2.10675 0
M  V30 8476 O 870.763 5.6005 -1.08168 0
M  V30 8477 O 869.697 5.22702 -2.9844 0
M  V30 8478 H 873.523 1.99342 -2.29121 0
M  V30 8479 H 871.108 0.9301 -1.16917 0
M  V30 8480 H 872.99 4.08939 -1.01719 0
M  V30 8481 H 871.665 3.23178 -0.183732 0
M  V30 8482 H 870.572 2.81549 -2.46335 0
M  V30 8483 H 871.905 3.71725 -3.22617 0
M  V30 8484 N 873.557 1.20646 1.01402 0
M  V30 8485 C 874.487 0.98155 2.11867 0
M  V30 8486 C 875.468 -0.0903712 1.6986 0
M  V30 8487 O 876.653 0.0676586 1.94082 0
M  V30 8488 C 873.783 0.535636 3.43145 0
M  V30 8489 C 872.737 1.55109 3.98905 0
M  V30 8490 C 872.063 0.961725 5.2598 0
M  V30 8491 C 873.363 2.93552 4.32001 0
M  V30 8492 H 875.057 1.90544 2.3094 0
M  V30 8493 H 872.603 0.917554 1.10982 0
M  V30 8494 H 874.556 0.365512 4.19812 0
M  V30 8495 H 873.28 -0.423882 3.23838 0
M  V30 8496 H 871.939 1.70862 3.24348 0
M  V30 8497 H 871.587 -0.00580108 5.03 0
M  V30 8498 H 871.287 1.63993 5.64252 0
M  V30 8499 H 872.811 0.802726 6.053 0
M  V30 8500 H 874.225 2.81295 4.99546 0
M  V30 8501 H 872.622 3.58303 4.81393 0
M  V30 8502 H 873.692 3.4508 3.40658 0
M  V30 8503 N 875.035 -1.20752 1.01276 0
M  V30 8504 C 875.968 -2.22091 0.524472 0
M  V30 8505 C 876.946 -1.5692 -0.426017 0
M  V30 8506 O 878.13 -1.8528 -0.346919 0
M  V30 8507 C 875.257 -3.37868 -0.237224 0
M  V30 8508 C 874.303 -4.21327 0.662236 0
M  V30 8509 S 875.136 -4.91352 2.12916 0
M  V30 8510 C 876.292 -6.10553 1.37752 0
M  V30 8511 H 876.525 -2.63166 1.38315 0
M  V30 8512 H 874.058 -1.30742 0.821332 0
M  V30 8513 H 876.016 -4.04985 -0.670599 0
M  V30 8514 H 874.677 -2.95261 -1.07143 0
M  V30 8515 H 873.87 -5.03944 0.0751085 0
M  V30 8516 H 873.472 -3.59445 1.03322 0
M  V30 8517 H 875.764 -6.74322 0.655491 0
M  V30 8518 H 876.707 -6.73717 2.17969 0
M  V30 8519 H 877.115 -5.57566 0.882088 0
M  V30 8520 N 876.513 -0.788492 -1.36457 0
M  V30 8521 C 877.738 -0.371224 -2.04051 0
M  V30 8522 C 878.163 1.004 -1.59064 0
M  V30 8523 O 877.521 1.64663 -0.758679 0
M  V30 8524 C 877.569 -0.442275 -3.57877 0
M  V30 8525 O 876.673 0.55113 -4.08701 0
M  V30 8526 H 876.014 -0.157808 -0.644975 0
M  V30 8527 H 878.544 -1.06935 -1.74431 0
M  V30 8528 H 878.554 -0.305548 -4.06854 0
M  V30 8529 H 877.229 -1.44547 -3.89973 0
M  V30 8530 H 875.806 0.37614 -3.70998 0
M  V30 8531 N 877.991 1.48044 -0.54043 0
M  V30 8532 C 879.239 2.02097 -0.0101367 0
M  V30 8533 C 879.56 1.41881 1.33771 0
M  V30 8534 O 878.83 0.587923 1.8687 0
M  V30 8535 H 877.41 0.747 -0.000758716 0
M  V30 8536 H 880.072 1.81639 -0.706634 0
M  V30 8537 H 879.168 3.11969 0.0904474 0
M  V30 8538 N 879.47 0.276058 1.55163 0
M  V30 8539 C 880.718 -0.339782 1.99223 0
M  V30 8540 C 881.039 -1.56307 1.16589 0
M  V30 8541 O 880.309 -1.94225 0.25564 0
M  V30 8542 H 878.889 -0.128534 0.735859 0
M  V30 8543 H 881.551 0.381612 1.91128 0
M  V30 8544 H 880.647 -0.629 3.05696 0
M  V30 8545 N 880.948 -1.576 0.00335426 0
M  V30 8546 C 882.225 -1.81945 -0.718015 0
M  V30 8547 C 882.605 -0.881788 -1.91801 0
M  V30 8548 O 881.953 0.0687118 -2.28397 0
M  V30 8549 C 882.163 -3.30521 -1.12058 0
M  V30 8550 C 883.511 -3.96345 -1.52303 0
M  V30 8551 O 884.535 -3.34864 -1.21428 0
M  V30 8552 O 883.394 -5.04655 -2.09728 0
M  V30 8553 H 880.488 -0.749328 -0.34991 0
M  V30 8554 H 883.034 -1.69675 0.0290654 0
M  V30 8555 H 881.806 -3.90399 -0.265378 0
M  V30 8556 H 881.429 -3.47802 -1.92665 0
M  V30 8557 N 882.426 0.269451 -1.5528 0
M  V30 8558 C 883.359 1.3588 -1.83336 0
M  V30 8559 C 884.337 1.4739 -0.68666 0
M  V30 8560 O 885.521 1.63959 -0.930037 0
M  V30 8561 C 882.648 2.73483 -1.99812 0
M  V30 8562 C 881.694 2.79239 -3.22378 0
M  V30 8563 S 882.527 2.38125 -4.79642 0
M  V30 8564 C 883.683 3.77697 -4.99095 0
M  V30 8565 H 883.916 1.11878 -2.75446 0
M  V30 8566 H 881.449 0.469268 -1.47096 0
M  V30 8567 H 883.407 3.52725 -2.09989 0
M  V30 8568 H 882.068 2.94735 -1.08583 0
M  V30 8569 H 881.261 3.80243 -3.30804 0
M  V30 8570 H 880.863 2.08022 -3.1081 0
M  V30 8571 H 883.155 4.72999 -4.85055 0
M  V30 8572 H 884.098 3.7422 -6.01136 0
M  V30 8573 H 884.506 3.69164 -4.27058 0
M  V30 8574 N 883.904 1.48273 0.534124 0
M  V30 8575 C 884.851 1.62487 1.6391 0
M  V30 8576 C 885.821 0.467062 1.59398 0
M  V30 8577 O 887.006 0.690029 1.77885 0
M  V30 8578 C 884.146 1.66671 3.02183 0
M  V30 8579 C 883.259 2.9353 3.16961 0
M  V30 8580 C 882.394 2.88902 4.45768 0
M  V30 8581 C 881.433 4.10483 4.54059 0
M  V30 8582 N 880.57 4.03956 5.74251 0
M  V30 8583 H 885.41 2.56851 1.51101 0
M  V30 8584 H 882.947 1.27381 0.735704 0
M  V30 8585 H 884.905 1.67079 3.82283 0
M  V30 8586 H 883.535 0.758011 3.13774 0
M  V30 8587 H 882.587 3.02886 2.3014 0
M  V30 8588 H 883.899 3.83501 3.18949 0
M  V30 8589 H 883.053 2.87688 5.34154 0
M  V30 8590 H 881.792 1.96652 4.46295 0
M  V30 8591 H 880.797 4.11977 3.64081 0
M  V30 8592 H 882.022 5.03887 4.55274 0
M  V30 8593 H 879.968 3.14525 5.75682 0
M  V30 8594 H 879.885 4.87628 5.77715 0
M  V30 8595 H 881.153 4.06795 6.64935 0
M  V30 8596 N 885.382 -0.782676 1.36792 0
M  V30 8597 C 886.607 -1.57676 1.34733 0
M  V30 8598 C 887.032 -1.87979 -0.0675253 0
M  V30 8599 O 886.39 -1.48404 -1.04144 0
M  V30 8600 C 886.438 -2.87047 2.18257 0
M  V30 8601 O 885.542 -3.80946 1.57969 0
M  V30 8602 H 884.883 -0.478034 0.460846 0
M  V30 8603 H 887.413 -0.969578 1.80168 0
M  V30 8604 H 887.423 -3.36254 2.31079 0
M  V30 8605 H 886.098 -2.64319 3.21104 0
M  V30 8606 H 884.675 -3.39558 1.54126 0
M  V30 8607 N 886.86 -1.21182 -1.00761 0
M  V30 8608 C 888.107 -1.02746 -1.74498 0
M  V30 8609 C 888.435 0.439344 -1.89473 0
M  V30 8610 O 887.69 1.34232 -1.42409 0
M  V30 8611 C 887.989 -1.6667 -3.16158 0
M  V30 8612 C 887.655 -3.16515 -3.21137 0
M  V30 8613 C 886.317 -3.57405 -3.22203 0
M  V30 8614 C 888.669 -4.12495 -3.18587 0
M  V30 8615 C 885.997 -4.92786 -3.18401 0
M  V30 8616 C 888.349 -5.47833 -3.16326 0
M  V30 8617 C 887.013 -5.88124 -3.157 0
M  V30 8618 H 886.283 -0.375974 -0.638533 0
M  V30 8619 H 888.93 -1.50736 -1.18114 0
M  V30 8620 H 887.235 -1.10966 -3.75758 0
M  V30 8621 H 888.932 -1.49911 -3.71924 0
M  V30 8622 H 885.522 -2.83947 -3.21048 0
M  V30 8623 H 889.706 -3.81932 -3.16925 0
M  V30 8624 H 884.962 -5.23253 -3.16253 0
M  V30 8625 H 889.136 -6.21942 -3.13306 0
M  V30 8626 H 886.763 -6.92995 -3.12508 0
M  V30 8627 N 888.338 1.20213 -1.01915 0
M  V30 8628 C 889.268 2.25336 -0.612023 0
M  V30 8629 C 890.249 1.65933 0.374186 0
M  V30 8630 O 891.434 1.92464 0.259053 0
M  V30 8631 C 888.564 3.47267 0.047904 0
M  V30 8632 C 887.518 4.1928 -0.859557 0
M  V30 8633 C 886.844 5.3466 -0.0652655 0
M  V30 8634 C 888.144 4.75143 -2.1688 0
M  V30 8635 H 889.838 2.59645 -1.49079 0
M  V30 8636 H 887.384 1.24808 -0.718263 0
M  V30 8637 H 889.337 4.19991 0.344294 0
M  V30 8638 H 888.061 3.12129 0.961404 0
M  V30 8639 H 886.72 3.48425 -1.13999 0
M  V30 8640 H 886.368 4.95767 0.849964 0
M  V30 8641 H 886.068 5.83772 -0.669618 0
M  V30 8642 H 887.592 6.10187 0.224612 0
M  V30 8643 H 889.006 5.39672 -1.9346 0
M  V30 8644 H 887.403 5.34702 -2.72422 0
M  V30 8645 H 888.473 3.93744 -2.83008 0
M  V30 8646 N 889.816 0.795718 1.36037 0
M  V30 8647 C 891.232 0.478145 1.52269 0
M  V30 8648 C 891.432 -1.0025 1.74792 0
M  V30 8649 O 890.488 -1.78783 1.78305 0
M  V30 8650 C 891.801 1.31406 2.70468 0
M  V30 8651 C 893.349 1.3084 2.84341 0
M  V30 8652 C 893.824 2.12819 4.05551 0
M  V30 8653 N 895.315 2.10298 4.12709 0
M  V30 8654 C 896.05 2.70495 5.05589 0
M  V30 8655 N 895.546 3.39576 6.03871 0
M  V30 8656 N 897.339 2.60195 4.98252 0
M  V30 8657 H 889.49 1.75477 1.19673 0
M  V30 8658 H 891.753 0.74627 0.584624 0
M  V30 8659 H 891.459 2.36435 2.60368 0
M  V30 8660 H 891.333 0.959726 3.64786 0
M  V30 8661 H 893.72 0.266003 2.93899 0
M  V30 8662 H 893.801 1.70254 1.90912 0
M  V30 8663 H 893.445 3.17093 3.96755 0
M  V30 8664 H 893.375 1.70772 4.98141 0
M  V30 8665 H 895.866 1.60026 3.42345 0
M  V30 8666 H 896.179 3.82823 6.71317 0
M  V30 8667 H 894.524 3.43679 6.04077 0
M  V30 8668 H 897.715 2.05823 4.20422 0
M  V30 8669 H 897.888 3.074 5.70447 0
M  V30 8670 N 891.294 -1.47756 0.548274 0
M  V30 8671 C 892.244 -2.26891 -0.224628 0
M  V30 8672 C 893.228 -1.33816 -0.893421 0
M  V30 8673 O 894.42 -1.58232 -0.793204 0
M  V30 8674 C 891.549 -3.19358 -1.25959 0
M  V30 8675 C 890.635 -4.1991 -0.594662 0
M  V30 8676 N 891.026 -5.04721 0.330148 0
M  V30 8677 C 889.324 -4.37832 -0.849672 0
M  V30 8678 C 890.025 -5.77282 0.71553 0
M  V30 8679 N 889.001 -5.43552 0.0723997 0
M  V30 8680 H 892.803 -2.89844 0.486561 0
M  V30 8681 H 890.317 -1.58185 0.367577 0
M  V30 8682 H 892.314 -3.74726 -1.82718 0
M  V30 8683 H 890.974 -2.57961 -1.97196 0
M  V30 8684 H 891.985 -5.13095 0.703811 0
M  V30 8685 H 888.662 -3.87612 -1.55123 0
M  V30 8686 H 890.052 -6.55512 1.47493 0
M  V30 8687 N 892.772 -0.284283 -1.55015 0
M  V30 8688 C 893.997 0.335799 -2.04664 0
M  V30 8689 C 894.422 1.47999 -1.16094 0
M  V30 8690 O 893.78 1.8058 -0.161454 0
M  V30 8691 C 893.828 0.785615 -3.51938 0
M  V30 8692 O 892.932 1.89202 -3.66437 0
M  V30 8693 H 892.273 0.0680233 -0.660506 0
M  V30 8694 H 894.803 -0.421255 -2.00216 0
M  V30 8695 H 894.813 1.07892 -3.93476 0
M  V30 8696 H 893.488 -0.0514675 -4.15868 0
M  V30 8697 H 892.065 1.60055 -3.36804 0
M  V30 8698 N 894.251 1.57596 -0.0117121 0
M  V30 8699 C 895.667 1.55837 0.344506 0
M  V30 8700 C 895.867 1.01557 1.74036 0
M  V30 8701 O 894.923 0.654563 2.43868 0
M  V30 8702 C 896.236 2.99973 0.209023 0
M  V30 8703 C 897.784 3.11717 0.283092 0
M  V30 8704 C 898.259 4.57659 0.176599 0
M  V30 8705 N 899.75 4.62608 0.234133 0
M  V30 8706 C 900.485 5.73132 0.175252 0
M  V30 8707 N 899.981 6.92768 0.0662888 0
M  V30 8708 N 901.774 5.61638 0.227972 0
M  V30 8709 H 893.925 1.91215 -0.924692 0
M  V30 8710 H 896.188 0.878807 -0.355531 0
M  V30 8711 H 895.894 3.4357 -0.751826 0
M  V30 8712 H 895.768 3.64075 0.98635 0
M  V30 8713 H 898.155 2.68043 1.23439 0
M  V30 8714 H 898.236 2.50369 -0.52431 0
M  V30 8715 H 897.88 5.02011 -0.771205 0
M  V30 8716 H 897.81 5.16967 1.00264 0
M  V30 8717 H 900.301 3.76549 0.319203 0
M  V30 8718 H 900.614 7.72795 0.0275765 0
M  V30 8719 H 898.959 6.94993 0.0317502 0
M  V30 8720 H 902.15 4.67063 0.311377 0
M  V30 8721 H 902.323 6.47754 0.178621 0
M  V30 8722 N 895.729 -0.261212 1.5542 0
M  V30 8723 C 897.14 -0.83138 1.67167 0
M  V30 8724 C 897.491 -1.8659 0.606525 0
M  V30 8725 O 896.616 -2.14953 -0.24985 0
M  V30 8726 C 897.211 -1.51475 3.03052 0
M  V30 8727 C 895.77 -2.0328 3.16787 0
M  V30 8728 C 894.917 -0.878903 2.63003 0
M  V30 8729 H 897.868 -0.0373102 1.58656 0
M  V30 8730 H 897.889 -2.38222 2.96699 0
M  V30 8731 H 897.401 -0.76157 3.80554 0
M  V30 8732 H 895.502 -2.81523 2.44082 0
M  V30 8733 H 895.615 -2.24001 4.2351 0
M  V30 8734 H 893.979 -1.27551 2.2046 0
M  V30 8735 H 894.762 -0.13904 3.43018 0
M  V30 8736 N 897.207 -1.48554 -0.526253 0
M  V30 8737 C 898.157 -1.59753 -1.62674 0
M  V30 8738 C 899.141 -0.454452 -1.54349 0
M  V30 8739 O 900.333 -0.706091 -1.62306 0
M  V30 8740 C 897.462 -1.64388 -3.01383 0
M  V30 8741 C 896.548 -2.84188 -3.14798 0
M  V30 8742 N 896.939 -4.08564 -2.98176 0
M  V30 8743 C 895.237 -2.81599 -3.45859 0
M  V30 8744 C 895.938 -4.88961 -3.15106 0
M  V30 8745 N 894.914 -4.21848 -3.42849 0
M  V30 8746 H 898.716 -2.5366 -1.48438 0
M  V30 8747 H 896.23 -1.44977 -0.731801 0
M  V30 8748 H 898.227 -1.70505 -3.80439 0
M  V30 8749 H 896.887 -0.716006 -3.16707 0
M  V30 8750 H 897.898 -4.38943 -2.74862 0
M  V30 8751 H 894.575 -1.98083 -3.67518 0
M  V30 8752 H 895.965 -5.97683 -3.0696 0
M  V30 8753 N 898.685 0.775411 -1.37205 0
M  V30 8754 C 899.615 1.90258 -1.35367 0
M  V30 8755 C 900.596 1.68634 -0.222864 0
M  V30 8756 O 901.781 1.89545 -0.422659 0
M  V30 8757 C 898.911 3.27488 -1.15623 0
M  V30 8758 C 897.865 3.63668 -2.25676 0
M  V30 8759 C 897.191 4.994 -1.91059 0
M  V30 8760 C 898.491 3.70797 -3.67841 0
M  V30 8761 H 900.185 1.92053 -2.29687 0
M  V30 8762 H 897.731 0.922597 -1.10563 0
M  V30 8763 H 899.684 4.05976 -1.12968 0
M  V30 8764 H 898.408 3.26117 -0.177573 0
M  V30 8765 H 897.067 2.87486 -2.2748 0
M  V30 8766 H 896.715 4.94565 -0.917324 0
M  V30 8767 H 896.415 5.24576 -2.64751 0
M  V30 8768 H 897.939 5.80291 -1.89985 0
M  V30 8769 H 899.353 4.39444 -3.68187 0
M  V30 8770 H 897.75 4.07468 -4.40556 0
M  V30 8771 H 898.82 2.71549 -4.01732 0
M  V30 8772 N 900.163 1.21714 1.00117 0
M  V30 8773 C 901.411 1.03465 1.73607 0
M  V30 8774 C 901.732 -0.432295 1.90148 0
M  V30 8775 O 901.002 -1.31157 1.45515 0
M  V30 8776 H 899.582 0.379857 0.643209 0
M  V30 8777 H 902.244 1.53088 1.20624 0
M  V30 8778 H 901.34 1.50574 2.73375 0
M  V30 8779 N 901.641 -1.19671 1.02551 0
M  V30 8780 C 902.573 -2.22215 0.561517 0
M  V30 8781 C 903.586 -1.58751 -0.360821 0
M  V30 8782 O 904.775 -1.77802 -0.157749 0
M  V30 8783 C 901.875 -3.383 -0.201494 0
M  V30 8784 C 901.048 -4.3135 0.724952 0
M  V30 8785 C 900.107 -5.26199 0.00794334 0
M  V30 8786 O 899.133 -5.65665 0.633398 0
M  V30 8787 N 900.335 -5.66573 -1.26394 0
M  V30 8788 H 903.1 -2.6265 1.44343 0
M  V30 8789 H 900.661 -1.34303 0.904122 0
M  V30 8790 H 902.653 -3.98764 -0.690625 0
M  V30 8791 H 901.223 -2.96683 -0.98479 0
M  V30 8792 H 900.443 -3.6872 1.39423 0
M  V30 8793 H 901.731 -4.90433 1.35472 0
M  V30 8794 H 901.129 -5.36538 -1.79287 0
M  V30 8795 H 899.686 -6.29304 -1.69763 0
M  V30 8796 N 903.119 -0.802921 -1.35613 0
M  V30 8797 C 904.53 -0.443004 -1.81368 0
M  V30 8798 C 904.881 1.03459 -1.66706 0
M  V30 8799 O 904.006 1.80372 -1.19561 0
M  V30 8800 C 904.601 -0.797324 -3.29284 0
M  V30 8801 C 903.16 -0.490055 -3.73196 0
M  V30 8802 C 902.307 -1.02487 -2.57666 0
M  V30 8803 H 905.258 -0.994888 -1.23643 0
M  V30 8804 H 905.279 -0.0934638 -3.80385 0
M  V30 8805 H 904.791 -1.87278 -3.39924 0
M  V30 8806 H 902.892 0.576818 -3.68108 0
M  V30 8807 H 903.005 -1.02012 -4.68114 0
M  V30 8808 H 901.369 -0.44738 -2.5074 0
M  V30 8809 H 902.152 -2.10636 -2.71085 0
M  V30 8810 N 904.597 1.47463 -0.556102 0
M  V30 8811 C 905.822 2.07371 -0.0344729 0
M  V30 8812 C 906.247 1.40621 1.2493 0
M  V30 8813 O 905.605 0.48082 1.74808 0
M  V30 8814 C 905.653 3.60306 0.145563 0
M  V30 8815 O 904.757 3.94299 1.20839 0
M  V30 8816 H 904.098 0.662052 -0.0508274 0
M  V30 8817 H 906.628 1.89498 -0.771469 0
M  V30 8818 H 906.638 4.06408 0.360112 0
M  V30 8819 H 905.313 4.08288 -0.792089 0
M  V30 8820 H 903.89 3.59944 0.97442 0
M  V30 8821 N 906.075 0.2925 1.54862 0
M  V30 8822 C 907.486 -0.201841 1.85606 0
M  V30 8823 C 907.837 -1.54093 1.21449 0
M  V30 8824 O 906.962 -2.10327 0.509079 0
M  V30 8825 C 907.557 -0.373011 3.3674 0
M  V30 8826 C 906.116 -0.811574 3.67547 0
M  V30 8827 C 905.263 0.0850583 2.7717 0
M  V30 8828 H 908.214 0.513774 1.50153 0
M  V30 8829 H 908.235 -1.20892 3.60785 0
M  V30 8830 H 907.747 0.601751 3.83407 0
M  V30 8831 H 905.848 -1.79719 3.26392 0
M  V30 8832 H 905.961 -0.636853 4.74848 0
M  V30 8833 H 904.325 -0.434224 2.50971 0
M  V30 8834 H 905.108 1.05602 3.26654 0
M  V30 8835 N 907.553 -1.57587 0.0200696 0
M  V30 8836 C 908.483 -2.12702 -0.963333 0
M  V30 8837 C 909.464 -1.04094 -1.34531 0
M  V30 8838 O 910.649 -1.31881 -1.42552 0
M  V30 8839 C 907.779 -2.64673 -2.24868 0
M  V30 8840 C 906.733 -3.77987 -2.00772 0
M  V30 8841 C 906.059 -4.16351 -3.35494 0
M  V30 8842 C 907.359 -5.0444 -1.35416 0
M  V30 8843 H 909.053 -2.95121 -0.504363 0
M  V30 8844 H 906.599 -1.41966 -0.24116 0
M  V30 8845 H 908.552 -3.01862 -2.94036 0
M  V30 8846 H 907.276 -1.79403 -2.72914 0
M  V30 8847 H 905.935 -3.41223 -1.34025 0
M  V30 8848 H 905.583 -3.28075 -3.81282 0
M  V30 8849 H 905.283 -4.92705 -3.20181 0
M  V30 8850 H 906.807 -4.56115 -4.05945 0
M  V30 8851 H 908.221 -5.39273 -1.94571 0
M  V30 8852 H 906.618 -5.85732 -1.30529 0
M  V30 8853 H 907.688 -4.83803 -0.325923 0
M  V30 8854 N 909.032 0.252966 -1.55557 0
M  V30 8855 C 910.278 0.983306 -1.77367 0
M  V30 8856 C 910.611 1.85203 -0.584258 0
M  V30 8857 O 909.886 1.89963 0.417644 0
M  V30 8858 C 910.169 1.84896 -3.09007 0
M  V30 8859 C 910.022 1.00883 -4.38341 0
M  V30 8860 C 911.341 2.83254 -3.36831 0
M  V30 8861 H 908.46 0.356056 -0.645286 0
M  V30 8862 H 911.102 0.254232 -1.88291 0
M  V30 8863 H 909.252 2.47058 -2.99825 0
M  V30 8864 H 910.924 0.40638 -4.59507 0
M  V30 8865 H 909.167 0.31297 -4.3267 0
M  V30 8866 H 909.838 1.64818 -5.2682 0
M  V30 8867 H 912.314 2.31228 -3.45937 0
M  V30 8868 H 911.19 3.40949 -4.30169 0
M  V30 8869 H 911.451 3.59407 -2.57447 0
M  V30 8870 N 910.51 1.48831 0.518367 0
M  V30 8871 C 911.443 1.588 1.63884 0
M  V30 8872 C 912.421 0.437847 1.56594 0
M  V30 8873 O 913.605 0.651042 1.769 0
M  V30 8874 C 910.732 1.52681 3.02335 0
M  V30 8875 C 909.778 2.7268 3.27945 0
M  V30 8876 S 910.611 4.34536 3.12951 0
M  V30 8877 C 911.767 4.31034 4.53828 0
M  V30 8878 H 912 2.53587 1.5518 0
M  V30 8879 H 909.533 1.37507 0.702218 0
M  V30 8880 H 911.491 1.49837 3.82177 0
M  V30 8881 H 910.152 0.592107 3.08469 0
M  V30 8882 H 909.345 2.64569 4.28974 0
M  V30 8883 H 908.947 2.72847 2.55794 0
M  V30 8884 H 911.239 4.01683 5.45579 0
M  V30 8885 H 912.182 5.32282 4.66991 0
M  V30 8886 H 912.59 3.61343 4.33695 0
M  V30 8887 N 911.988 -0.768124 1.37614 0
M  V30 8888 C 913.404 -1.06919 1.18493 0
M  V30 8889 C 913.604 -2.01486 0.0235753 0
M  V30 8890 O 912.66 -2.4438 -0.635209 0
M  V30 8891 C 913.973 -1.66321 2.50515 0
M  V30 8892 C 915.521 -1.78562 2.57069 0
M  V30 8893 C 915.996 -2.41377 3.89231 0
M  V30 8894 N 917.487 -2.48824 3.90693 0
M  V30 8895 C 918.222 -2.98288 4.89706 0
M  V30 8896 N 917.718 -3.47897 5.99115 0
M  V30 8897 N 919.511 -2.97196 4.77107 0
M  V30 8898 H 911.662 -0.140286 2.11936 0
M  V30 8899 H 913.925 -0.124863 0.939741 0
M  V30 8900 H 913.631 -1.04303 3.35878 0
M  V30 8901 H 913.505 -2.65571 2.67866 0
M  V30 8902 H 915.892 -2.39712 1.72111 0
M  V30 8903 H 915.973 -0.780574 2.43599 0
M  V30 8904 H 915.617 -1.80866 4.74605 0
M  V30 8905 H 915.547 -3.42495 4.00006 0
M  V30 8906 H 918.038 -2.1372 3.1166 0
M  V30 8907 H 918.351 -3.84053 6.70614 0
M  V30 8908 H 916.696 -3.45993 6.02755 0
M  V30 8909 H 919.887 -2.57741 3.90752 0
M  V30 8910 H 920.06 -3.35434 5.54426 0
M  V30 8911 N 913.466 -1.22244 -0.994698 0
M  V30 8912 C 914.743 -0.954459 -1.70732 0
M  V30 8913 C 915.123 0.530945 -2.04314 0
M  V30 8914 O 914.471 1.49851 -1.72502 0
M  V30 8915 C 914.681 -1.85016 -2.95922 0
M  V30 8916 C 916.029 -2.10517 -3.68738 0
M  V30 8917 O 917.053 -1.82449 -3.05926 0
M  V30 8918 O 915.912 -2.58044 -4.81742 0
M  V30 8919 H 913.006 -0.35879 -0.745116 0
M  V30 8920 H 915.552 -1.33221 -1.0512 0
M  V30 8921 H 914.324 -2.85498 -2.67594 0
M  V30 8922 H 913.947 -1.47388 -3.69273 0
M  V30 8923 N 914.944 1.19125 -1.03184 0
M  V30 8924 C 915.874 2.24675 -0.635889 0
M  V30 8925 C 916.855 1.66321 0.356565 0
M  V30 8926 O 918.04 1.92728 0.238625 0
M  V30 8927 C 915.17 3.47298 0.011069 0
M  V30 8928 C 914.124 4.18345 -0.903979 0
M  V30 8929 C 913.45 5.34561 -0.12197 0
M  V30 8930 C 914.75 4.72816 -2.21907 0
M  V30 8931 H 916.444 2.5805 -1.51825 0
M  V30 8932 H 913.99 1.24039 -0.73146 0
M  V30 8933 H 915.943 4.20333 0.299729 0
M  V30 8934 H 914.667 3.13131 0.928245 0
M  V30 8935 H 913.326 3.47196 -1.17688 0
M  V30 8936 H 912.974 4.9664 0.797334 0
M  V30 8937 H 912.674 5.83029 -0.731498 0
M  V30 8938 H 914.198 6.10391 0.159881 0
M  V30 8939 H 915.612 5.3759 -1.99173 0
M  V30 8940 H 914.009 5.31782 -2.78078 0
M  V30 8941 H 915.079 3.9072 -2.87168 0
M  V30 8942 N 916.422 0.810101 1.35185 0
M  V30 8943 C 917.352 0.237453 2.32289 0
M  V30 8944 C 918.333 -0.639032 1.5764 0
M  V30 8945 O 919.518 -0.568575 1.8569 0
M  V30 8946 C 916.648 -0.611964 3.41866 0
M  V30 8947 C 915.602 0.166318 4.27677 0
M  V30 8948 C 914.928 -0.805024 5.28605 0
M  V30 8949 C 916.228 1.36729 5.04086 0
M  V30 8950 H 917.922 1.04874 2.80432 0
M  V30 8951 H 915.468 0.505751 1.34826 0
M  V30 8952 H 917.421 -1.02267 4.08802 0
M  V30 8953 H 916.145 -1.45617 2.92341 0
M  V30 8954 H 914.804 0.558238 3.62325 0
M  V30 8955 H 914.452 -1.64483 4.75347 0
M  V30 8956 H 914.152 -0.288577 5.86891 0
M  V30 8957 H 915.676 -1.21386 5.98413 0
M  V30 8958 H 917.09 1.03128 5.63948 0
M  V30 8959 H 915.487 1.81848 5.71884 0
M  V30 8960 H 916.557 2.15214 4.34524 0
M  V30 8961 N 917.9 -1.47166 0.563914 0
M  V30 8962 C 918.832 -2.28165 -0.217583 0
M  V30 8963 C 919.845 -1.37405 -0.873134 0
M  V30 8964 O 921.034 -1.6217 -0.745857 0
M  V30 8965 C 918.134 -3.11873 -1.32621 0
M  V30 8966 C 917.307 -4.30637 -0.766177 0
M  V30 8967 C 916.366 -4.95889 -1.76014 0
M  V30 8968 O 915.392 -5.54071 -1.3036 0
M  V30 8969 N 916.594 -4.91191 -3.09373 0
M  V30 8970 H 919.359 -2.95876 0.477256 0
M  V30 8971 H 916.92 -1.5687 0.40043 0
M  V30 8972 H 918.912 -3.52392 -1.99003 0
M  V30 8973 H 917.482 -2.46361 -1.92419 0
M  V30 8974 H 916.702 -3.94129 0.0745998 0
M  V30 8975 H 917.99 -5.07442 -0.371472 0
M  V30 8976 H 917.388 -4.45133 -3.49104 0
M  V30 8977 H 915.945 -5.35708 -3.71295 0
M  V30 8978 N 919.378 -0.300708 -1.54705 0
M  V30 8979 C 920.308 0.568675 -2.26469 0
M  V30 8980 C 921.289 1.13817 -1.26411 0
M  V30 8981 O 922.474 1.16756 -1.55183 0
M  V30 8982 C 919.604 1.74077 -3.00524 0
M  V30 8983 C 918.558 1.30165 -4.07727 0
M  V30 8984 C 917.884 2.55888 -4.69495 0
M  V30 8985 C 919.184 0.433106 -5.20501 0
M  V30 8986 H 920.878 -0.0298851 -2.99385 0
M  V30 8987 H 918.424 -0.0158135 -1.43991 0
M  V30 8988 H 920.377 2.35506 -3.49449 0
M  V30 8989 H 919.101 2.36556 -2.25186 0
M  V30 8990 H 917.76 0.710414 -3.59651 0
M  V30 8991 H 917.408 3.16681 -3.90797 0
M  V30 8992 H 917.108 2.27207 -5.41895 0
M  V30 8993 H 918.632 3.18121 -5.21183 0
M  V30 8994 H 920.046 0.95307 -5.65322 0
M  V30 8995 H 918.443 0.240085 -5.9962 0
M  V30 8996 H 919.513 -0.541866 -4.81863 0
M  V30 8997 N 920.856 1.57574 -0.0284266 0
M  V30 8998 C 921.819 2.09096 0.938691 0
M  V30 8999 C 922.819 1.00588 1.25454 0
M  V30 9000 O 924.009 1.2675 1.19499 0
M  V30 9001 C 921.141 2.55624 2.25542 0
M  V30 9002 H 922.334 2.95829 0.49248 0
M  V30 9003 H 919.887 1.5475 0.219594 0
M  V30 9004 H 920.622 1.72218 2.74793 0
M  V30 9005 H 920.407 3.34896 2.03929 0
M  V30 9006 H 921.897 2.95712 2.94863 0
M  V30 9007 N 922.334 -0.244713 1.55689 0
M  V30 9008 C 923.266 -1.32595 1.86952 0
M  V30 9009 C 924.279 -1.44185 0.755948 0
M  V30 9010 O 925.468 -1.45496 1.03408 0
M  V30 9011 C 922.568 -2.70429 2.04258 0
M  V30 9012 C 921.741 -2.8108 3.35131 0
M  V30 9013 C 920.8 -3.99773 3.42152 0
M  V30 9014 O 919.826 -3.89197 4.15348 0
M  V30 9015 N 921.028 -5.13041 2.71604 0
M  V30 9016 H 923.793 -1.06111 2.80287 0
M  V30 9017 H 921.354 -0.434811 1.55952 0
M  V30 9018 H 923.346 -3.48173 2.06295 0
M  V30 9019 H 921.916 -2.89612 1.17658 0
M  V30 9020 H 921.136 -1.89994 3.45392 0
M  V30 9021 H 922.424 -2.85147 4.21389 0
M  V30 9022 H 921.822 -5.24525 2.11872 0
M  V30 9023 H 920.379 -5.88912 2.79331 0
M  V30 9024 N 923.813 -1.49104 -0.510467 0
M  V30 9025 C 925.09 -1.48609 -1.27179 0
M  V30 9026 C 925.47 -0.208537 -2.10067 0
M  V30 9027 O 924.818 0.809335 -2.13687 0
M  V30 9028 C 925.028 -2.75953 -2.1366 0
M  V30 9029 C 926.376 -3.25067 -2.73161 0
M  V30 9030 O 927.4 -2.77005 -2.23934 0
M  V30 9031 O 926.259 -4.08747 -3.62751 0
M  V30 9032 H 923.353 -0.594374 -0.57502 0
M  V30 9033 H 925.899 -1.61358 -0.525515 0
M  V30 9034 H 924.671 -3.60434 -1.52325 0
M  V30 9035 H 924.294 -2.66019 -2.95499 0
M  V30 9036 N 925.291 0.760815 -1.38019 0
M  V30 9037 C 926.54 1.51506 -1.3315 0
M  V30 9038 C 926.853 1.95444 0.0782124 0
M  V30 9039 O 928.059 2.70352 0.249418 0
M  V30 9040 C 926.515 2.73636 -2.33776 0
M  V30 9041 C 926.123 2.36753 -3.80332 0
M  V30 9042 C 927.867 3.51548 -2.37937 0
M  V30 9043 C 925.774 3.55451 -4.72661 0
M  V30 9044 H 924.704 0.568844 -0.494907 0
M  V30 9045 H 927.355 0.832343 -1.63537 0
M  V30 9046 H 925.737 3.43852 -1.96422 0
M  V30 9047 H 926.911 1.7425 -4.26584 0
M  V30 9048 H 925.226 1.71991 -3.7922 0
M  V30 9049 H 927.823 4.39791 -3.04119 0
M  V30 9050 H 928.166 3.9219 -1.39617 0
M  V30 9051 H 928.699 2.88339 -2.74054 0
M  V30 9052 H 925.438 3.19882 -5.7215 0
M  V30 9053 H 924.958 4.17022 -4.31107 0
M  V30 9054 H 926.637 4.22125 -4.90326 0
M  V30 9055 N 926.769 1.22769 0.988202 0
M  V30 9056 C 927.732 1.00325 2.06076 0
M  V30 9057 C 928.732 -0.0320618 1.60768 0
M  V30 9058 O 929.922 0.206912 1.72967 0
M  V30 9059 C 927.054 0.516376 3.36966 0
M  V30 9060 H 928.247 1.95499 2.27421 0
M  V30 9061 H 925.8 1.04704 1.16047 0
M  V30 9062 H 926.535 -0.439498 3.21308 0
M  V30 9063 H 926.32 1.26337 3.71189 0
M  V30 9064 H 927.81 0.37974 4.1587 0
M  V30 9065 N 928.247 -1.18576 1.03814 0
M  V30 9066 C 929.179 -2.21607 0.585055 0
M  V30 9067 C 930.192 -1.59125 -0.343963 0
M  V30 9068 O 931.381 -1.77959 -0.138882 0
M  V30 9069 C 928.481 -3.38495 -0.165602 0
M  V30 9070 C 927.654 -4.30557 0.770662 0
M  V30 9071 C 926.713 -5.26161 0.0637534 0
M  V30 9072 O 925.739 -5.64961 0.693359 0
M  V30 9073 N 926.941 -5.67882 -1.20377 0
M  V30 9074 H 929.706 -2.61104 1.47121 0
M  V30 9075 H 927.267 -1.33336 0.918316 0
M  V30 9076 H 929.259 -3.99474 -0.648292 0
M  V30 9077 H 927.829 -2.97711 -0.953268 0
M  V30 9078 H 927.049 -3.67221 1.43326 0
M  V30 9079 H 928.337 -4.88969 1.40667 0
M  V30 9080 H 927.735 -5.38409 -1.73586 0
M  V30 9081 H 926.292 -6.31069 -1.63079 0
M  V30 9082 N 929.725 -0.817259 -1.34754 0
M  V30 9083 C 930.973 -0.401852 -1.98065 0
M  V30 9084 C 931.294 1.03718 -1.65129 0
M  V30 9085 O 930.564 1.71921 -0.939141 0
M  V30 9086 H 929.144 -0.145603 -0.732672 0
M  V30 9087 H 931.806 -1.04545 -1.64488 0
M  V30 9088 H 930.902 -0.516241 -3.07801 0
M  V30 9089 N 931.203 1.46865 -0.571711 0
M  V30 9090 C 932.443 2.04324 -0.0556487 0
M  V30 9091 C 932.807 1.43486 1.27576 0
M  V30 9092 O 934.008 1.92079 1.8804 0
M  V30 9093 C 932.279 3.57394 0.0206263 0
M  V30 9094 S 933.838 4.36159 0.480709 0
M  V30 9095 H 930.656 0.710273 -0.0321467 0
M  V30 9096 H 933.258 1.8005 -0.761725 0
M  V30 9097 H 931.962 3.99193 -0.952509 0
M  V30 9098 H 931.493 3.86188 0.749812 0
M  V30 9099 H 933.508 4.6478 1.73763 0
M  V30 9100 N 932.681 0.308908 1.54543 0
M  V30 9101 C 933.631 -0.578902 2.20528 0
M  V30 9102 C 934.615 -1.09288 1.18088 0
M  V30 9103 O 935.807 -1.03234 1.43777 0
M  V30 9104 C 932.936 -1.74649 2.95555 0
M  V30 9105 C 932.022 -1.24809 4.05319 0
M  V30 9106 N 932.413 -0.46828 5.03628 0
M  V30 9107 C 930.711 -1.52813 4.19004 0
M  V30 9108 C 931.412 -0.201896 5.8135 0
M  V30 9109 N 930.388 -0.783927 5.37918 0
M  V30 9110 H 934.19 0.0243496 2.9389 0
M  V30 9111 H 931.704 0.114049 1.61999 0
M  V30 9112 H 933.701 -2.39414 3.41301 0
M  V30 9113 H 932.361 -2.35336 2.23712 0
M  V30 9114 H 933.372 -0.112453 5.17778 0
M  V30 9115 H 930.049 -2.14191 3.58369 0
M  V30 9116 H 931.439 0.424929 6.70555 0
M  V30 9117 N 934.159 -1.57557 0.0367827 0
M  V30 9118 C 935.389 -1.96134 -0.649225 0
M  V30 9119 C 935.797 -0.912279 -1.65753 0
M  V30 9120 O 935.14 0.113569 -1.83349 0
M  V30 9121 C 935.202 -3.30889 -1.40545 0
M  V30 9122 C 934.866 -4.53622 -0.554609 0
M  V30 9123 C 935.863 -5.19611 0.17331 0
M  V30 9124 C 933.548 -4.99907 -0.48976 0
M  V30 9125 C 935.542 -6.3021 0.95467 0
M  V30 9126 C 933.229 -6.10386 0.295299 0
M  V30 9127 C 934.227 -6.75398 1.01621 0
M  V30 9128 O 933.915 -7.83755 1.78839 0
M  V30 9129 H 933.647 -0.650662 -0.183344 0
M  V30 9130 H 936.201 -2.05179 0.0951512 0
M  V30 9131 H 934.431 -3.18356 -2.19513 0
M  V30 9132 H 936.12 -3.54315 -1.9803 0
M  V30 9133 H 936.886 -4.84819 0.132589 0
M  V30 9134 H 932.765 -4.49105 -1.04046 0
M  V30 9135 H 936.309 -6.80886 1.51789 0
M  V30 9136 H 932.206 -6.44616 0.33771 0
M  V30 9137 H 932.974 -8.0046 1.70898 0
M  V30 9138 N 935.637 0.236453 -1.55816 0
M  V30 9139 C 936.567 1.29639 -1.94206 0
M  V30 9140 C 937.548 1.49667 -0.808319 0
M  V30 9141 O 938.733 1.621 -1.06945 0
M  V30 9142 C 935.863 2.64914 -2.24584 0
M  V30 9143 C 934.817 2.59565 -3.40308 0
M  V30 9144 C 934.143 3.98732 -3.56254 0
M  V30 9145 C 935.443 2.15642 -4.75706 0
M  V30 9146 H 937.137 0.977552 -2.82992 0
M  V30 9147 H 934.683 0.468804 -1.36155 0
M  V30 9148 H 936.636 3.39209 -2.50031 0
M  V30 9149 H 935.36 2.98455 -1.32636 0
M  V30 9150 H 934.019 1.87728 -3.14887 0
M  V30 9151 H 933.667 4.29556 -2.61707 0
M  V30 9152 H 933.367 3.96039 -4.34082 0
M  V30 9153 H 934.891 4.74711 -3.84033 0
M  V30 9154 H 936.305 2.79673 -5.00456 0
M  V30 9155 H 934.702 2.24039 -5.56711 0
M  V30 9156 H 935.772 1.10831 -4.72064 0
M  V30 9157 N 937.115 1.49373 0.502552 0
M  V30 9158 C 938.025 1.68659 1.63068 0
M  V30 9159 C 939.041 0.569182 1.64427 0
M  V30 9160 O 940.217 0.843695 1.82876 0
M  V30 9161 C 937.282 1.74745 2.99441 0
M  V30 9162 C 936.343 2.98311 3.08721 0
M  V30 9163 C 935.576 3.04097 4.38589 0
M  V30 9164 O 935.799 2.17519 5.27297 0
M  V30 9165 O 934.733 3.96544 4.52809 0
M  V30 9166 H 938.559 2.64226 1.49727 0
M  V30 9167 H 936.144 1.33096 0.67867 0
M  V30 9168 H 938.026 1.8111 3.80496 0
M  V30 9169 H 936.701 0.823565 3.13048 0
M  V30 9170 H 935.608 2.97465 2.2686 0
M  V30 9171 H 936.941 3.90174 3.00041 0
M  V30 9172 N 938.594 -0.753485 1.38421 0
M  V30 9173 C 939.504 -1.89797 1.37892 0
M  V30 9174 C 940.52 -1.71797 0.276023 0
M  V30 9175 O 941.696 -1.94718 0.514464 0
M  V30 9176 C 938.761 -3.25166 1.20284 0
M  V30 9177 C 937.822 -3.55691 2.4038 0
M  V30 9178 C 937.055 -4.84601 2.23602 0
M  V30 9179 O 937.278 -5.56985 1.22979 0
M  V30 9180 O 936.212 -5.14605 3.12194 0
M  V30 9181 H 940.038 -1.93197 2.34326 0
M  V30 9182 H 937.623 -0.898775 1.19342 0
M  V30 9183 H 939.505 -4.06099 1.12525 0
M  V30 9184 H 938.18 -3.22577 0.269352 0
M  V30 9185 H 937.087 -2.74919 2.53714 0
M  V30 9186 H 938.42 -3.6304 3.32359 0
M  V30 9187 N 940.072 -1.23292 -0.981677 0
M  V30 9188 C 941.02 -1.0104 -2.09508 0
M  V30 9189 C 942.014 0.0501977 -1.69326 0
M  V30 9190 O 943.22 -0.103197 -1.79704 0
M  V30 9191 H 939.595 -0.309629 -0.685298 0
M  V30 9192 H 941.566 -1.95493 -2.25444 0
M  V30 9193 C 940.315 -0.616885 -3.42184 0
M  V30 9194 H 939.638 -1.4247 -3.73554 0
M  V30 9195 H 941.078 -0.500688 -4.21033 0
M  V30 9196 C 939.537 0.674721 -3.30074 0
M  V30 9197 O 940.067 1.72421 -3.62814 0
M  V30 9198 N 938.273 0.650151 -2.83234 0
M  V30 9199 H 937.82 -0.204225 -2.56789 0
M  V30 9200 H 937.778 1.51458 -2.75514 0
M  V30 9201 N 941.55 1.18024 -1.04442 0
M  V30 9202 C 942.5 2.19714 -0.609069 0
M  V30 9203 C 943.484 1.57037 0.350473 0
M  V30 9204 O 944.676 1.76192 0.16892 0
M  V30 9205 C 941.805 3.43293 0.0225911 0
M  V30 9206 C 940.891 4.13084 -0.960325 0
M  V30 9207 N 941.282 4.58819 -2.12883 0
M  V30 9208 C 939.58 4.38999 -0.787146 0
M  V30 9209 C 940.281 5.12589 -2.75004 0
M  V30 9210 N 939.257 5.04333 -2.02853 0
M  V30 9211 H 943.059 2.5277 -1.49948 0
M  V30 9212 H 940.573 1.34271 -0.913517 0
M  V30 9213 H 942.57 4.1541 0.352196 0
M  V30 9214 H 941.23 3.11731 0.908495 0
M  V30 9215 H 942.241 4.53148 -2.50754 0
M  V30 9216 H 938.918 4.17472 0.048348 0
M  V30 9217 H 940.308 5.58152 -3.74053 0
M  V30 9218 N 943.028 0.824394 1.34319 0
M  V30 9219 C 944.275 0.413167 1.9824 0
M  V30 9220 C 944.603 -1.02412 1.65354 0
M  V30 9221 O 943.858 -1.72831 0.91803 0
M  V30 9222 C 944.157 0.564024 3.52921 0
M  V30 9223 C 943.823 1.96725 4.05722 0
M  V30 9224 C 942.485 2.35111 4.19853 0
M  V30 9225 C 944.837 2.88447 4.34106 0
M  V30 9226 C 942.165 3.64551 4.59695 0
M  V30 9227 C 944.517 4.17353 4.75394 0
M  V30 9228 C 943.181 4.55714 4.8773 0
M  V30 9229 H 942.451 0.151188 0.725412 0
M  V30 9230 H 945.098 1.04863 1.60238 0
M  V30 9231 H 943.403 -0.154816 3.91494 0
M  V30 9232 H 945.1 0.226347 4.00361 0
M  V30 9233 H 941.69 1.65908 3.95187 0
M  V30 9234 H 945.874 2.60034 4.22725 0
M  V30 9235 H 941.13 3.94097 4.67437 0
M  V30 9236 H 945.304 4.88512 4.96315 0
M  V30 9237 H 942.931 5.56064 5.1836 0
M  V30 9238 N 944.506 -1.46559 0.579492 0
M  V30 9239 C 945.755 -2.01606 0.0615735 0
M  V30 9240 C 946.068 -1.45695 -1.30508 0
M  V30 9241 O 947.274 -1.92541 -1.91416 0
M  V30 9242 C 945.73 -3.59851 0.059496 0
M  V30 9243 C 945.338 -4.24757 1.42427 0
M  V30 9244 C 947.082 -4.22567 -0.404646 0
M  V30 9245 C 944.989 -5.75072 1.38009 0
M  V30 9246 H 943.919 -0.753754 0.0192491 0
M  V30 9247 H 946.57 -1.68326 0.73066 0
M  V30 9248 H 944.952 -3.90193 -0.675691 0
M  V30 9249 H 946.126 -4.06029 2.17893 0
M  V30 9250 H 944.441 -3.74121 1.82817 0
M  V30 9251 H 947.038 -5.32748 -0.456441 0
M  V30 9252 H 947.381 -3.91279 -1.42149 0
M  V30 9253 H 947.914 -3.96839 0.276376 0
M  V30 9254 H 944.653 -6.11014 2.37364 0
M  V30 9255 H 944.173 -5.96073 0.667583 0
M  V30 9256 H 945.852 -6.37724 1.09163 0
M  V30 9257 N 945.984 -0.3171 -1.54377 0
M  V30 9258 C 946.934 0.567199 -2.20832 0
M  V30 9259 C 947.918 1.08661 -1.18666 0
M  V30 9260 O 949.11 1.0247 -1.44322 0
M  V30 9261 C 946.239 1.73079 -2.96477 0
M  V30 9262 C 945.325 1.22658 -4.05975 0
M  V30 9263 N 945.716 0.441565 -5.03869 0
M  V30 9264 C 944.014 1.50589 -4.19808 0
M  V30 9265 C 944.715 0.171063 -5.81448 0
M  V30 9266 N 943.691 0.755389 -5.38326 0
M  V30 9267 H 947.493 -0.0399349 -2.93873 0
M  V30 9268 H 945.007 -0.122639 -1.61936 0
M  V30 9269 H 947.004 2.37601 -3.42566 0
M  V30 9270 H 945.664 2.34146 -2.24957 0
M  V30 9271 H 946.675 0.0849921 -5.1783 0
M  V30 9272 H 943.352 2.12288 -3.595 0
M  V30 9273 H 944.742 -0.460484 -6.7032 0
M  V30 9274 N 947.462 1.57535 -0.0451378 0
M  V30 9275 C 948.878 1.56533 0.311373 0
M  V30 9276 C 949.078 1.05225 1.71843 0
M  V30 9277 O 948.134 0.706144 2.42425 0
M  V30 9278 C 949.447 3.00349 0.145348 0
M  V30 9279 C 950.995 3.12248 0.216908 0
M  V30 9280 C 951.47 4.57931 0.0794834 0
M  V30 9281 N 952.961 4.63 0.135954 0
M  V30 9282 C 953.696 5.73375 0.0536426 0
M  V30 9283 N 953.192 6.92753 -0.0806725 0
M  V30 9284 N 954.985 5.61995 0.108789 0
M  V30 9285 H 947.136 1.89211 -0.965044 0
M  V30 9286 H 949.399 0.871068 -0.374091 0
M  V30 9287 H 949.105 3.41898 -0.824533 0
M  V30 9288 H 948.979 3.66086 0.908903 0
M  V30 9289 H 951.366 2.70601 1.17726 0
M  V30 9290 H 951.447 2.49201 -0.577299 0
M  V30 9291 H 951.091 5.00262 -0.877516 0
M  V30 9292 H 951.021 5.18977 0.892758 0
M  V30 9293 H 953.512 3.77142 0.23926 0
M  V30 9294 H 953.825 7.7268 -0.136351 0
M  V30 9295 H 952.17 6.94904 -0.115675 0
M  V30 9296 H 955.361 4.67619 0.212235 0
M  V30 9297 H 955.534 6.47987 0.0411822 0
M  V30 9298 N 948.94 -0.228186 1.55939 0
M  V30 9299 C 950.217 -0.977492 1.69424 0
M  V30 9300 C 950.597 -2.02674 0.590479 0
M  V30 9301 O 949.945 -2.2491 -0.403467 0
M  V30 9302 C 950.155 -1.59394 3.10475 0
M  V30 9303 C 951.503 -2.08871 3.69673 0
M  V30 9304 O 952.527 -1.693 3.13394 0
M  V30 9305 O 951.386 -2.81584 4.68372 0
M  V30 9306 H 948.48 -0.456185 0.6898 0
M  V30 9307 H 951.026 -0.220492 1.68261 0
M  V30 9308 H 949.798 -0.835971 3.82266 0
M  V30 9309 H 949.421 -2.41665 3.15727 0
M  V30 9310 N 950.418 -1.49637 -0.494624 0
M  V30 9311 C 951.667 -1.58691 -1.24499 0
M  V30 9312 C 951.98 -0.281763 -1.9356 0
M  V30 9313 O 953.186 -0.250925 -2.70338 0
M  V30 9314 C 951.642 -2.8002 -2.26091 0
M  V30 9315 C 951.25 -4.17318 -1.6294 0
M  V30 9316 C 952.994 -2.98407 -3.01916 0
M  V30 9317 C 950.901 -5.29862 -2.62679 0
M  V30 9318 H 949.831 -0.590888 -0.468367 0
M  V30 9319 H 952.482 -1.76034 -0.518112 0
M  V30 9320 H 950.864 -2.56185 -3.01969 0
M  V30 9321 H 952.038 -4.51315 -0.930108 0
M  V30 9322 H 950.353 -4.04342 -0.994819 0
M  V30 9323 H 952.95 -3.79658 -3.76516 0
M  V30 9324 H 953.293 -2.09214 -3.5991 0
M  V30 9325 H 953.826 -3.22312 -2.33152 0
M  V30 9326 H 950.565 -6.21134 -2.09458 0
M  V30 9327 H 950.085 -5.00311 -3.3083 0
M  V30 9328 H 951.764 -5.59461 -3.2498 0
M  V30 9329 N 951.896 0.746133 -1.38819 0
M  V30 9330 C 952.859 1.84167 -1.36437 0
M  V30 9331 C 953.859 1.58626 -0.263499 0
M  V30 9332 O 955.049 1.66233 -0.520801 0
M  V30 9333 C 952.181 3.21769 -1.12596 0
M  V30 9334 H 953.374 1.87684 -2.33912 0
M  V30 9335 H 950.927 0.948625 -1.24221 0
M  V30 9336 H 951.662 3.23917 -0.15758 0
M  V30 9337 H 951.447 3.41702 -1.92307 0
M  V30 9338 H 952.937 4.0184 -1.13643 0
M  V30 9339 N 953.375 1.23811 0.975125 0
M  V30 9340 C 954.338 1.02505 2.05001 0
M  V30 9341 C 955.338 -0.0150084 1.60793 0
M  V30 9342 O 956.528 0.225246 1.72738 0
M  V30 9343 C 953.66 0.552087 3.364 0
M  V30 9344 H 954.853 1.979 2.25335 0
M  V30 9345 H 952.406 1.05929 1.1493 0
M  V30 9346 H 953.141 -0.405394 3.21756 0
M  V30 9347 H 952.926 1.30267 3.69828 0
M  V30 9348 H 954.416 0.423828 4.15444 0
M  V30 9349 N 954.853 -1.17469 1.05066 0
M  V30 9350 C 956.269 -1.39699 0.771769 0
M  V30 9351 C 956.469 -1.91253 -0.634382 0
M  V30 9352 O 955.525 -2.10334 -1.39699 0
M  V30 9353 C 956.838 -2.38886 1.82631 0
M  V30 9354 C 958.386 -2.52595 1.84838 0
M  V30 9355 C 958.861 -3.55054 2.89311 0
M  V30 9356 N 960.352 -3.6257 2.88266 0
M  V30 9357 C 961.087 -4.41603 3.65752 0
M  V30 9358 N 960.583 -5.24162 4.53019 0
M  V30 9359 N 962.376 -4.36464 3.54197 0
M  V30 9360 H 954.527 -0.823355 1.95792 0
M  V30 9361 H 956.79 -0.42432 0.847736 0
M  V30 9362 H 956.496 -2.08075 2.83545 0
M  V30 9363 H 956.37 -3.38371 1.66687 0
M  V30 9364 H 958.757 -2.82717 0.845888 0
M  V30 9365 H 958.838 -1.53188 2.04859 0
M  V30 9366 H 958.482 -3.2567 3.89745 0
M  V30 9367 H 958.412 -4.54162 2.66542 0
M  V30 9368 H 960.903 -3.03625 2.24989 0
M  V30 9369 H 961.216 -5.81646 5.0883 0
M  V30 9370 H 959.561 -5.23547 4.57081 0
M  V30 9371 H 962.752 -3.7102 2.85416 0
M  V30 9372 H 962.925 -4.97814 4.14832 0
M  V30 9373 N 956.331 -0.831506 -1.3388 0
M  V30 9374 C 957.279 -0.247896 -2.31275 0
M  V30 9375 C 958.273 0.616083 -1.578 0
M  V30 9376 O 959.479 0.506465 -1.72728 0
M  V30 9377 H 955.854 -0.0614293 -0.749487 0
M  V30 9378 H 957.825 -1.08401 -2.78014 0
M  V30 9379 C 956.574 0.568434 -3.43022 0
M  V30 9380 H 955.897 -0.0870654 -3.99705 0
M  V30 9381 H 957.337 0.942751 -4.13386 0
M  V30 9382 C 955.796 1.74431 -2.88228 0
M  V30 9383 O 956.326 2.84278 -2.83811 0
M  V30 9384 N 954.532 1.56382 -2.44935 0
M  V30 9385 H 954.079 0.670255 -2.48727 0
M  V30 9386 H 954.037 2.35208 -2.08625 0
M  V30 9387 N 957.809 1.4625 -0.587256 0
M  V30 9388 C 959.049 2.04254 -0.0773169 0
M  V30 9389 C 959.413 1.44831 1.26047 0
M  V30 9390 O 960.614 1.94063 1.85992 0
M  V30 9391 C 958.885 3.57396 -0.0172813 0
M  V30 9392 S 960.444 4.36644 0.434422 0
M  V30 9393 H 957.262 0.709892 -0.0396783 0
M  V30 9394 H 959.864 1.79232 -0.780779 0
M  V30 9395 H 958.568 3.98161 -0.994795 0
M  V30 9396 H 958.099 3.86962 0.70881 0
M  V30 9397 H 960.114 4.66597 1.68824 0
M  V30 9398 N 959.287 0.325282 1.54207 0
M  V30 9399 C 960.217 -0.532574 2.27345 0
M  V30 9400 C 961.198 -1.11791 1.28206 0
M  V30 9401 O 962.383 -1.14272 1.57021 0
M  V30 9402 C 959.513 -1.69274 3.03255 0
M  V30 9403 C 958.467 -1.23662 4.09746 0
M  V30 9404 C 957.793 -2.48386 4.73506 0
M  V30 9405 C 959.093 -0.350244 5.21124 0
M  V30 9406 H 960.787 0.0775108 2.993 0
M  V30 9407 H 958.333 0.0387193 1.43948 0
M  V30 9408 H 960.286 -2.29917 3.53152 0
M  V30 9409 H 959.01 -2.32944 2.28921 0
M  V30 9410 H 957.669 -0.653106 3.60735 0
M  V30 9411 H 957.317 -3.10424 3.95786 0
M  V30 9412 H 957.017 -2.18558 5.45441 0
M  V30 9413 H 958.541 -3.09789 5.26178 0
M  V30 9414 H 959.955 -0.863011 5.66767 0
M  V30 9415 H 958.352 -0.14466 5.99926 0
M  V30 9416 H 959.422 0.618457 4.8094 0
M  V30 9417 N 960.765 -1.57509 0.0534917 0
M  V30 9418 C 961.695 -2.14698 -0.917999 0
M  V30 9419 C 962.676 -1.06924 -1.32292 0
M  V30 9420 O 963.861 -1.34875 -1.39723 0
M  V30 9421 C 960.991 -2.69383 -2.19203 0
M  V30 9422 C 959.945 -3.82161 -1.9271 0
M  V30 9423 C 959.271 -4.23373 -3.26587 0
M  V30 9424 C 960.571 -5.07199 -1.24686 0
M  V30 9425 H 962.265 -2.96125 -0.44165 0
M  V30 9426 H 959.811 -1.42446 -0.210993 0
M  V30 9427 H 961.764 -3.08031 -2.87567 0
M  V30 9428 H 960.488 -1.85151 -2.69048 0
M  V30 9429 H 959.147 -3.43989 -1.26757 0
M  V30 9430 H 958.795 -3.36089 -3.74237 0
M  V30 9431 H 958.495 -4.99385 -3.09658 0
M  V30 9432 H 960.019 -4.64623 -3.96178 0
M  V30 9433 H 961.433 -5.43279 -1.83088 0
M  V30 9434 H 959.83 -5.88369 -1.18076 0
M  V30 9435 H 960.9 -4.84386 -0.223227 0
M  V30 9436 N 962.243 0.219913 -1.56058 0
M  V30 9437 C 963.468 0.965073 -1.83579 0
M  V30 9438 C 963.893 1.77092 -0.634024 0
M  V30 9439 O 963.251 1.76434 0.417205 0
M  V30 9440 C 963.299 1.85705 -3.09105 0
M  V30 9441 O 962.403 2.95261 -2.87914 0
M  V30 9442 H 961.744 0.273173 -0.605204 0
M  V30 9443 H 964.274 0.23273 -2.03272 0
M  V30 9444 H 964.284 2.26655 -3.39252 0
M  V30 9445 H 962.959 1.26476 -3.96203 0
M  V30 9446 H 961.536 2.58246 -2.69005 0
M  V30 9447 N 963.721 1.49897 0.486681 0
M  V30 9448 C 964.961 1.61732 1.24988 0
M  V30 9449 C 965.325 0.303724 1.89582 0
M  V30 9450 O 966.526 0.297373 2.6715 0
M  V30 9451 C 964.797 2.75429 2.27757 0
M  V30 9452 S 966.356 3.07304 3.13225 0
M  V30 9453 H 963.174 0.570316 0.424571 0
M  V30 9454 H 965.776 1.87617 0.549549 0
M  V30 9455 H 964.48 3.69376 1.78857 0
M  V30 9456 H 964.011 2.51582 3.0244 0
M  V30 9457 H 966.026 2.49928 4.28661 0
M  V30 9458 N 965.199 -0.738761 1.39212 0
M  V30 9459 C 966.162 -1.83441 1.37412 0
M  V30 9460 C 967.162 -1.58484 0.271908 0
M  V30 9461 O 968.352 -1.65954 0.529609 0
M  V30 9462 C 965.484 -3.21167 1.143 0
M  V30 9463 H 966.677 -1.86441 2.34904 0
M  V30 9464 H 964.23 -0.942023 1.24722 0
M  V30 9465 H 964.965 -3.23829 0.174756 0
M  V30 9466 H 964.75 -3.40678 1.94116 0
M  V30 9467 H 966.24 -4.01231 1.15773 0
M  V30 9468 N 966.677 -1.24326 -0.968545 0
M  V30 9469 C 967.925 -1.08032 -1.70803 0
M  V30 9470 C 968.246 0.381728 -1.91227 0
M  V30 9471 O 967.516 1.27253 -1.48942 0
M  V30 9472 H 966.096 -0.396777 -0.632912 0
M  V30 9473 H 968.758 -1.56232 -1.16523 0
M  V30 9474 H 967.854 -1.57769 -2.69287 0
M  V30 9475 N 968.156 1.1691 -1.05688 0
M  V30 9476 C 969.567 1.68915 -0.795273 0
M  V30 9477 C 969.918 1.83968 0.681925 0
M  V30 9478 O 969.043 1.53083 1.52953 0
M  V30 9479 C 969.638 3.06814 -1.43703 0
M  V30 9480 C 968.197 3.55965 -1.22335 0
M  V30 9481 C 967.344 2.32099 -1.51741 0
M  V30 9482 H 970.295 1.01357 -1.22116 0
M  V30 9483 H 970.316 3.70907 -0.849016 0
M  V30 9484 H 969.828 2.95826 -2.51214 0
M  V30 9485 H 967.929 3.72222 -0.16771 0
M  V30 9486 H 968.042 4.38427 -1.9318 0
M  V30 9487 H 966.406 2.36811 -0.937696 0
M  V30 9488 H 967.189 2.23715 -2.60397 0
M  V30 9489 N 969.634 0.838594 1.33437 0
M  V30 9490 C 970.859 0.446701 2.02532 0
M  V30 9491 C 971.284 -0.944275 1.62681 0
M  V30 9492 O 970.642 -1.61733 0.81927 0
M  V30 9493 C 970.69 0.574794 3.55989 0
M  V30 9494 O 969.794 -0.399063 4.10465 0
M  V30 9495 H 969.135 0.181637 0.638674 0
M  V30 9496 H 971.665 1.13335 1.70342 0
M  V30 9497 H 971.675 0.456339 4.0544 0
M  V30 9498 H 970.35 1.58921 3.8434 0
M  V30 9499 H 968.927 -0.238187 3.72139 0
M  V30 9500 N 971.112 -1.45937 0.595003 0
M  V30 9501 C 972.528 -1.57507 0.257641 0
M  V30 9502 C 972.728 -1.58829 -1.23998 0
M  V30 9503 O 971.784 -1.51183 -2.02237 0
M  V30 9504 C 973.097 -2.86354 0.917708 0
M  V30 9505 C 974.645 -3.00007 0.892446 0
M  V30 9506 C 975.12 -4.31607 1.53229 0
M  V30 9507 N 976.611 -4.38336 1.49719 0
M  V30 9508 C 977.346 -5.38805 1.96154 0
M  V30 9509 N 976.842 -6.45882 2.50617 0
M  V30 9510 N 978.635 -5.30084 1.86997 0
M  V30 9511 H 970.786 -1.43322 1.56756 0
M  V30 9512 H 973.049 -0.684436 0.655936 0
M  V30 9513 H 972.755 -2.91233 1.97171 0
M  V30 9514 H 972.629 -3.74703 0.433344 0
M  V30 9515 H 975.016 -2.94703 -0.152975 0
M  V30 9516 H 975.097 -2.13103 1.41495 0
M  V30 9517 H 974.741 -4.3767 2.57697 0
M  V30 9518 H 974.671 -5.17308 0.984903 0
M  V30 9519 H 977.162 -3.6156 1.09921 0
M  V30 9520 H 977.475 -7.18774 2.83874 0
M  V30 9521 H 975.82 -6.46668 2.54649 0
M  V30 9522 H 979.011 -4.45337 1.44196 0
M  V30 9523 H 979.184 -6.08237 2.23499 0
M  V30 9524 N 972.59 -0.333456 -1.54032 0
M  V30 9525 C 973.836 0.266527 -2.01041 0
M  V30 9526 C 974.169 1.51006 -1.2211 0
M  V30 9527 O 973.444 1.92078 -0.306016 0
M  V30 9528 C 973.727 0.59078 -3.55221 0
M  V30 9529 C 973.58 -0.664143 -4.4487 0
M  V30 9530 C 974.899 1.40447 -4.17088 0
M  V30 9531 H 972.018 0.0953979 -0.7308 0
M  V30 9532 H 974.66 -0.451995 -1.84545 0
M  V30 9533 H 972.81 1.20292 -3.69408 0
M  V30 9534 H 974.482 -1.30227 -4.42537 0
M  V30 9535 H 972.725 -1.29106 -4.14143 0
M  V30 9536 H 973.396 -0.392664 -5.50602 0
M  V30 9537 H 975.872 0.886946 -4.06537 0
M  V30 9538 H 974.748 1.6001 -5.2506 0
M  V30 9539 H 975.009 2.40357 -3.71054 0
M  V30 9540 N 974.068 1.57479 -0.061844 0
M  V30 9541 C 975.031 2.1104 0.894127 0
M  V30 9542 C 976.031 1.03227 1.23292 0
M  V30 9543 O 977.221 1.29256 1.16784 0
M  V30 9544 C 974.353 2.6035 2.20069 0
M  V30 9545 H 975.546 2.96807 0.429619 0
M  V30 9546 H 973.099 1.55181 0.18672 0
M  V30 9547 H 973.834 1.78008 2.71079 0
M  V30 9548 H 973.619 3.39146 1.9678 0
M  V30 9549 H 975.109 3.019 2.88525 0
M  V30 9550 N 975.546 -0.211634 1.56173 0
M  V30 9551 C 976.493 -1.26231 1.93221 0
M  V30 9552 C 977.463 -1.46076 0.790641 0
M  V30 9553 O 978.648 -1.59482 1.04739 0
M  V30 9554 C 975.788 -2.60559 2.26281 0
M  V30 9555 C 974.901 -2.48431 3.5342 0
M  V30 9556 C 974.036 -3.7535 3.7588 0
M  V30 9557 C 973.075 -3.57985 4.96501 0
M  V30 9558 N 972.212 -4.76877 5.15299 0
M  V30 9559 H 977.052 -0.939367 2.82807 0
M  V30 9560 H 974.589 -0.452511 1.39967 0
M  V30 9561 H 976.547 -3.38796 2.43461 0
M  V30 9562 H 975.177 -2.9093 1.39855 0
M  V30 9563 H 974.229 -1.61577 3.44379 0
M  V30 9564 H 975.541 -2.31526 4.41811 0
M  V30 9565 H 974.695 -4.62029 3.9321 0
M  V30 9566 H 973.434 -3.95191 2.85788 0
M  V30 9567 H 972.439 -2.69691 4.79111 0
M  V30 9568 H 973.664 -3.39605 5.88086 0
M  V30 9569 H 971.61 -4.97013 4.28152 0
M  V30 9570 H 971.527 -4.62735 5.9784 0
M  V30 9571 H 972.795 -5.64954 5.37073 0
M  V30 9572 N 977.024 -1.50153 -0.478725 0
M  V30 9573 C 978.273 -1.60002 -1.22809 0
M  V30 9574 C 978.586 -0.302277 -1.9325 0
M  V30 9575 O 979.792 -0.279583 -2.70057 0
M  V30 9576 C 978.248 -2.82402 -2.23108 0
M  V30 9577 C 977.856 -4.19023 -1.58505 0
M  V30 9578 C 979.6 -3.01593 -2.98734 0
M  V30 9579 C 977.507 -5.32618 -2.57045 0
M  V30 9580 H 976.437 -0.595822 -0.462073 0
M  V30 9581 H 979.088 -1.76573 -0.499412 0
M  V30 9582 H 977.47 -2.59373 -2.99235 0
M  V30 9583 H 978.644 -4.52277 -0.882187 0
M  V30 9584 H 976.959 -4.05374 -0.951877 0
M  V30 9585 H 979.556 -3.8363 -3.72468 0
M  V30 9586 H 979.899 -2.1302 -3.57671 0
M  V30 9587 H 980.432 -3.24766 -2.29721 0
M  V30 9588 H 977.171 -6.23321 -2.02858 0
M  V30 9589 H 976.691 -5.03792 -3.25505 0
M  V30 9590 H 978.37 -5.62877 -3.19028 0
M  V30 9591 N 978.502 0.731368 -1.39602 0
M  V30 9592 C 979.75 1.48805 -1.36753 0
M  V30 9593 C 980.071 1.94969 0.034676 0
M  V30 9594 O 979.341 1.69243 0.986591 0
M  V30 9595 H 977.921 0.55203 -0.503261 0
M  V30 9596 H 980.583 0.868013 -1.74504 0
M  V30 9597 H 979.679 2.36844 -2.03252 0
M  V30 9598 N 979.98 1.24838 0.961938 0
M  V30 9599 C 981.257 0.99939 1.68141 0
M  V30 9600 C 981.637 -0.476588 2.0565 0
M  V30 9601 O 980.985 -1.45224 1.76415 0
M  V30 9602 C 981.195 1.92797 2.90913 0
M  V30 9603 C 982.543 2.20219 3.63027 0
M  V30 9604 O 983.567 1.90496 3.00981 0
M  V30 9605 O 982.426 2.70725 4.74731 0
M  V30 9606 H 979.52 0.37842 0.735342 0
M  V30 9607 H 982.066 1.35961 1.01551 0
M  V30 9608 H 980.838 2.92492 2.59931 0
M  V30 9609 H 980.461 1.57127 3.65235 0
M  V30 9610 N 981.458 -1.16348 1.06306 0
M  V30 9611 C 982.705 -1.86881 0.779852 0
M  V30 9612 C 983.033 -1.8171 -0.693668 0
M  V30 9613 O 982.288 -1.22769 -1.52401 0
M  V30 9614 C 982.587 -3.35936 1.21991 0
M  V30 9615 C 982.253 -3.61307 2.69756 0
M  V30 9616 C 980.915 -3.6794 3.10119 0
M  V30 9617 C 983.267 -3.71871 3.65187 0
M  V30 9618 C 980.595 -3.82639 4.44752 0
M  V30 9619 C 982.947 -3.88091 4.99568 0
M  V30 9620 C 981.611 -3.92967 5.39568 0
M  V30 9621 H 980.881 -0.683847 0.285368 0
M  V30 9622 H 983.528 -1.37569 1.33218 0
M  V30 9623 H 981.833 -3.87381 0.586774 0
M  V30 9624 H 983.53 -3.88895 0.977821 0
M  V30 9625 H 980.12 -3.56777 2.37504 0
M  V30 9626 H 984.304 -3.66057 3.35136 0
M  V30 9627 H 979.56 -3.84666 4.75228 0
M  V30 9628 H 983.734 -3.95207 5.73397 0
M  V30 9629 H 981.361 -4.04109 6.43895 0
M  V30 9630 N 982.937 -0.845659 -1.3299 0
M  V30 9631 C 984.185 -0.443774 -1.97168 0
M  V30 9632 C 984.506 1.00192 -1.67292 0
M  V30 9633 O 983.776 1.69891 -0.975397 0
M  V30 9634 H 982.356 -0.161111 -0.729419 0
M  V30 9635 H 985.018 -1.08011 -1.62233 0
M  V30 9636 H 984.114 -0.581414 -3.06637 0
M  V30 9637 N 984.415 1.45619 -0.602734 0
M  V30 9638 C 985.348 2.27583 0.167708 0
M  V30 9639 C 986.326 1.36844 0.878206 0
M  V30 9640 O 987.51 1.6627 0.888058 0
M  V30 9641 C 984.637 3.15094 1.24232 0
M  V30 9642 C 983.683 4.21739 0.63549 0
M  V30 9643 S 984.516 5.32638 -0.552944 0
M  V30 9644 C 985.672 6.23716 0.522382 0
M  V30 9645 H 985.905 2.92579 -0.527697 0
M  V30 9646 H 983.438 1.4939 -0.390127 0
M  V30 9647 H 985.396 3.66071 1.85748 0
M  V30 9648 H 984.057 2.49372 1.90978 0
M  V30 9649 H 983.25 4.82874 1.44389 0
M  V30 9650 H 982.852 3.73878 0.0955772 0
M  V30 9651 H 985.144 6.62819 1.40276 0
M  V30 9652 H 986.087 7.0808 -0.0526951 0
M  V30 9653 H 986.495 5.58282 0.83553 0
M  V30 9654 N 985.893 0.34162 1.53853 0
M  V30 9655 C 986.856 -0.503541 2.236 0
M  V30 9656 C 987.856 -1.02912 1.23554 0
M  V30 9657 O 989.046 -0.918678 1.48007 0
M  V30 9658 C 986.178 -1.70126 2.95415 0
M  V30 9659 H 987.371 0.106437 2.99711 0
M  V30 9660 H 984.924 0.0929408 1.56023 0
M  V30 9661 H 985.659 -2.34999 2.23486 0
M  V30 9662 H 985.444 -1.33161 3.68796 0
M  V30 9663 H 986.934 -2.30077 3.48503 0
M  V30 9664 N 987.371 -1.57444 0.0701946 0
M  V30 9665 C 988.787 -1.57009 -0.286431 0
M  V30 9666 C 988.987 -1.07946 -1.70147 0
M  V30 9667 O 988.043 -0.744622 -2.41271 0
M  V30 9668 C 989.356 -3.00542 -0.0975466 0
M  V30 9669 C 990.904 -3.12553 -0.167205 0
M  V30 9670 C 991.379 -4.58 -0.00662047 0
M  V30 9671 N 992.87 -4.63158 -0.0622778 0
M  V30 9672 C 993.605 -5.73388 0.0375831 0
M  V30 9673 N 993.101 -6.92537 0.190873 0
M  V30 9674 N 994.894 -5.62097 -0.0193672 0
M  V30 9675 H 987.045 -1.87651 0.995023 0
M  V30 9676 H 989.308 -0.865006 0.387902 0
M  V30 9677 H 989.014 -3.40543 0.878822 0
M  V30 9678 H 988.888 -3.67485 -0.850547 0
M  V30 9679 H 991.275 -2.72439 -1.13406 0
M  V30 9680 H 991.356 -2.48251 0.616871 0
M  V30 9681 H 991 -4.98803 0.956992 0
M  V30 9682 H 990.93 -5.20332 -0.810081 0
M  V30 9683 H 993.421 -3.77475 -0.179229 0
M  V30 9684 H 993.734 -7.72365 0.25926 0
M  V30 9685 H 992.079 -6.94632 0.226214 0
M  V30 9686 H 995.27 -4.67897 -0.137815 0
M  V30 9687 H 995.443 -6.4797 0.0619121 0
M  V30 9688 N 988.849 0.203349 -1.56283 0
M  V30 9689 C 990.126 0.950415 -1.70958 0
M  V30 9690 C 990.506 2.01708 -0.622647 0
M  V30 9691 O 989.854 2.25523 0.367635 0
M  V30 9692 C 990.064 1.54434 -3.12971 0
M  V30 9693 C 991.412 2.02964 -3.72949 0
M  V30 9694 O 992.436 1.64293 -3.16048 0
M  V30 9695 O 991.295 2.74097 -4.72793 0
M  V30 9696 H 988.389 0.445154 -0.69697 0
M  V30 9697 H 990.935 0.193695 -1.68591 0
M  V30 9698 H 989.707 0.77505 -3.83547 0
M  V30 9699 H 989.33 2.36611 -3.19532 0
M  V30 9700 N 990.327 1.50405 0.470755 0
M  V30 9701 C 991.576 1.60652 1.21959 0
M  V30 9702 C 991.889 0.312521 1.93087 0
M  V30 9703 O 993.095 0.293901 2.69905 0
M  V30 9704 C 991.551 2.83581 2.21607 0
M  V30 9705 C 991.159 4.19858 1.5628 0
M  V30 9706 C 992.903 3.03173 2.9713 0
M  V30 9707 C 990.81 5.33974 2.54217 0
M  V30 9708 H 989.74 0.598264 0.458907 0
M  V30 9709 H 992.391 1.76836 0.490041 0
M  V30 9710 H 990.773 2.60957 2.97855 0
M  V30 9711 H 991.947 4.52738 0.85819 0
M  V30 9712 H 990.262 4.05873 0.930366 0
M  V30 9713 H 992.859 3.856 3.70428 0
M  V30 9714 H 993.202 2.14914 3.56536 0
M  V30 9715 H 993.735 3.2598 2.27995 0
M  V30 9716 H 990.474 6.24388 1.99549 0
M  V30 9717 H 989.994 5.05511 3.22829 0
M  V30 9718 H 991.673 5.64561 3.16039 0
M  V30 9719 N 991.805 -0.723954 1.39988 0
M  V30 9720 C 993.035 -1.51094 1.40905 0
M  V30 9721 C 993.443 -1.89199 0.00476744 0
M  V30 9722 O 992.786 -1.55398 -0.979646 0
M  V30 9723 C 992.848 -2.82114 2.22827 0
M  V30 9724 C 992.512 -2.66379 3.71337 0
M  V30 9725 C 993.509 -2.34192 4.64166 0
M  V30 9726 C 991.194 -2.82905 4.15054 0
M  V30 9727 C 993.188 -2.18729 5.98696 0
M  V30 9728 C 990.875 -2.67059 5.49657 0
M  V30 9729 C 991.873 -2.35018 6.41292 0
M  V30 9730 O 991.561 -2.19284 7.73414 0
M  V30 9731 H 991.293 -0.473142 0.482818 0
M  V30 9732 H 993.847 -0.901321 1.84568 0
M  V30 9733 H 992.077 -3.45377 1.7393 0
M  V30 9734 H 993.766 -3.43789 2.15787 0
M  V30 9735 H 994.532 -2.21065 4.31689 0
M  V30 9736 H 990.411 -3.06834 3.44055 0
M  V30 9737 H 993.955 -1.93641 6.70186 0
M  V30 9738 H 989.852 -2.79768 5.81722 0
M  V30 9739 H 990.62 -2.34269 7.84258 0
M  V30 9740 N 993.283 -1.25346 -0.955304 0
M  V30 9741 C 994.699 -1.02154 -1.22625 0
M  V30 9742 C 994.899 0.26206 -1.99789 0
M  V30 9743 O 993.955 0.974958 -2.32918 0
M  V30 9744 C 995.268 -2.2443 -2.00129 0
M  V30 9745 C 996.816 -2.29185 -2.13174 0
M  V30 9746 C 997.291 -3.51117 -2.94077 0
M  V30 9747 N 998.782 -3.51509 -3.01655 0
M  V30 9748 C 999.517 -4.42517 -3.64645 0
M  V30 9749 N 999.013 -5.43796 -4.29252 0
M  V30 9750 N 1000.81 -4.302 -3.61779 0
M  V30 9751 H 992.957 -2.07812 -0.439071 0
M  V30 9752 H 995.22 -0.91258 -0.256715 0
M  V30 9753 H 994.926 -3.17717 -1.50827 0
M  V30 9754 H 994.8 -2.27548 -3.00835 0
M  V30 9755 H 997.187 -1.36422 -2.61674 0
M  V30 9756 H 997.268 -2.30087 -1.11775 0
M  V30 9757 H 996.912 -4.44201 -2.46268 0
M  V30 9758 H 996.842 -3.4746 -3.95701 0
M  V30 9759 H 999.333 -2.78245 -2.55711 0
M  V30 9760 H 999.646 -6.09453 -4.75171 0
M  V30 9761 H 997.991 -5.4767 -4.27882 0
M  V30 9762 H 1001.18 -3.50304 -3.10491 0
M  V30 9763 H 1001.36 -5.01323 -4.10584 0
M  V30 9764 N 994.761 1.15782 -1.06922 0
M  V30 9765 C 995.724 2.18578 -0.689654 0
M  V30 9766 C 996.724 1.58553 0.267872 0
M  V30 9767 O 997.914 1.7413 0.0494097 0
M  V30 9768 C 995.046 3.40896 -0.0157919 0
M  V30 9769 H 996.239 2.53672 -1.59971 0
M  V30 9770 H 993.792 1.30168 -0.865214 0
M  V30 9771 H 994.527 3.11367 0.906712 0
M  V30 9772 H 994.312 3.85721 -0.704415 0
M  V30 9773 H 995.802 4.16937 0.235266 0
M  V30 9774 N 996.239 0.8527 1.3254 0
M  V30 9775 C 997.464 0.468157 2.02047 0
M  V30 9776 C 997.889 -0.926967 1.63673 0
M  V30 9777 O 997.247 -1.60855 0.836378 0
M  V30 9778 C 997.295 0.612519 3.5536 0
M  V30 9779 O 996.399 -0.355506 4.10865 0
M  V30 9780 H 995.74 0.188401 0.636711 0
M  V30 9781 H 998.27 1.15135 1.6913 0
M  V30 9782 H 998.28 0.499315 4.04933 0
M  V30 9783 H 996.955 1.62988 3.82632 0
M  V30 9784 H 995.532 -0.198703 3.7237 0
M  V30 9785 N 997.718 -1.45297 0.610449 0
M  V30 9786 C 998.948 -2.0629 0.113047 0
M  V30 9787 C 999.356 -1.45527 -1.20907 0
M  V30 9788 O 998.699 -0.564837 -1.74801 0
M  V30 9789 C 998.761 -3.59366 -0.0979692 0
M  V30 9790 C 998.425 -4.42481 1.14279 0
M  V30 9791 C 999.422 -4.77277 2.06161 0
M  V30 9792 C 997.107 -4.83187 1.37241 0
M  V30 9793 C 999.101 -5.51639 3.19333 0
M  V30 9794 C 996.788 -5.57303 2.50713 0
M  V30 9795 C 997.786 -5.91445 3.41587 0
M  V30 9796 O 997.474 -6.64056 4.53083 0
M  V30 9797 H 997.206 -0.67264 0.0673159 0
M  V30 9798 H 999.76 -1.87486 0.838937 0
M  V30 9799 H 997.99 -3.76582 -0.878783 0
M  V30 9800 H 999.679 -4.02193 -0.547327 0
M  V30 9801 H 1000.44 -4.46384 1.89647 0
M  V30 9802 H 996.324 -4.56045 0.67407 0
M  V30 9803 H 999.868 -5.78207 3.90286 0
M  V30 9804 H 995.765 -5.8761 2.67179 0
M  V30 9805 H 996.533 -6.82509 4.51801 0
M  V30 9806 N 999.196 -0.349774 -1.5367 0
M  V30 9807 C 1000.43 0.245682 -2.05134 0
M  V30 9808 C 1000.83 1.44269 -1.22406 0
M  V30 9809 O 1000.18 1.81938 -0.25379 0
M  V30 9810 C 1000.24 0.718439 -3.52248 0
M  V30 9811 C 999.903 -0.35975 -4.55582 0
M  V30 9812 C 1000.9 -1.20449 -5.05755 0
M  V30 9813 C 998.585 -0.515463 -4.99648 0
M  V30 9814 C 1000.58 -2.19043 -5.98581 0
M  V30 9815 C 998.266 -1.50479 -5.92283 0
M  V30 9816 C 999.264 -2.34072 -6.41638 0
M  V30 9817 O 998.952 -3.31319 -7.3245 0
M  V30 9818 H 998.684 0.0501122 -0.67414 0
M  V30 9819 H 1001.24 -0.5018 -1.99176 0
M  V30 9820 H 999.468 1.51727 -3.55691 0
M  V30 9821 H 1001.16 1.23513 -3.86651 0
M  V30 9822 H 1001.92 -1.09531 -4.7247 0
M  V30 9823 H 997.802 0.12537 -4.60829 0
M  V30 9824 H 1001.35 -2.84327 -6.37027 0
M  V30 9825 H 997.243 -1.61451 -6.24983 0
M  V30 9826 H 998.011 -3.26863 -7.50402 0
M  V30 9827 N 1000.67 1.57404 -0.0785433 0
M  V30 9828 C 1002.09 1.57158 0.2781 0
M  V30 9829 C 1002.29 1.08847 1.69572 0
M  V30 9830 O 1001.35 0.757407 2.40873 0
M  V30 9831 C 1002.66 3.00589 0.0816067 0
M  V30 9832 C 1004.21 3.12637 0.150627 0
M  V30 9833 C 1004.68 4.57997 -0.0176685 0
M  V30 9834 N 1006.17 4.63185 0.0377145 0
M  V30 9835 C 1006.91 5.7336 -0.0679907 0
M  V30 9836 N 1006.4 6.92426 -0.227598 0
M  V30 9837 N 1008.2 5.62099 -0.0104424 0
M  V30 9838 H 1000.35 1.87121 -1.00496 0
M  V30 9839 H 1002.61 0.862937 -0.392484 0
M  V30 9840 H 1002.32 3.40072 -0.896869 0
M  V30 9841 H 1002.19 3.67931 0.831046 0
M  V30 9842 H 1004.58 2.73037 1.11959 0
M  V30 9843 H 1004.66 2.4792 -0.630028 0
M  V30 9844 H 1004.3 4.98288 -0.983431 0
M  V30 9845 H 1004.23 5.20754 0.782475 0
M  V30 9846 H 1006.72 3.77564 0.159208 0
M  V30 9847 H 1007.04 7.72217 -0.300217 0
M  V30 9848 H 1005.38 6.94502 -0.263049 0
M  V30 9849 H 1008.57 4.67964 0.112999 0
M  V30 9850 H 1008.75 6.47928 -0.0962747 0
M  V30 9851 N 1002.15 -0.195058 1.56388 0
M  V30 9852 C 1003.57 -0.545894 1.49974 0
M  V30 9853 C 1003.77 -1.85851 0.778568 0
M  V30 9854 O 1002.82 -2.50346 0.329105 0
M  V30 9855 C 1004.14 -0.600599 2.94641 0
M  V30 9856 C 1005.68 -0.689429 3.05313 0
M  V30 9857 C 1006.16 -0.775243 4.51391 0
M  V30 9858 N 1007.65 -0.838769 4.55542 0
M  V30 9859 C 1008.39 -0.925337 5.65884 0
M  V30 9860 N 1007.88 -0.974204 6.85916 0
M  V30 9861 N 1009.67 -0.962528 5.53798 0
M  V30 9862 H 1001.83 0.66595 2.0169 0
M  V30 9863 H 1004.09 0.237215 0.917842 0
M  V30 9864 H 1003.79 0.29478 3.50462 0
M  V30 9865 H 1003.67 -1.45528 3.47996 0
M  V30 9866 H 1006.06 -1.57524 2.4954 0
M  V30 9867 H 1006.14 0.191451 2.55083 0
M  V30 9868 H 1005.78 0.106215 5.07789 0
M  V30 9869 H 1005.71 -1.67193 4.99354 0
M  V30 9870 H 1008.2 -0.810249 3.69112 0
M  V30 9871 H 1008.51 -1.04077 7.6576 0
M  V30 9872 H 1006.86 -0.942881 6.88574 0
M  V30 9873 H 1010.05 -0.921188 4.58946 0
M  V30 9874 H 1010.22 -1.02653 6.39817 0
M  V30 9875 N 1003.63 -1.50653 -0.462772 0
M  V30 9876 C 1004.88 -1.61737 -1.21184 0
M  V30 9877 C 1005.2 -0.32369 -1.92295 0
M  V30 9878 O 1004.47 0.659269 -1.84473 0
M  V30 9879 H 1003.05 -0.596015 -0.450306 0
M  V30 9880 H 1005.71 -1.87469 -0.533051 0
M  V30 9881 H 1004.81 -2.43262 -1.95525 0
M  V30 9882 N 1005.11 0.71652 -1.4037 0
M  V30 9883 C 1006.39 1.46947 -1.29097 0
M  V30 9884 C 1006.77 2.10903 0.0911182 0
M  V30 9885 O 1006.11 2.00068 1.10385 0
M  V30 9886 C 1006.32 2.50594 -2.42907 0
M  V30 9887 C 1007.67 3.16451 -2.83097 0
M  V30 9888 O 1008.7 2.60913 -2.42493 0
M  V30 9889 O 1007.55 4.16991 -3.53244 0
M  V30 9890 H 1004.65 0.653413 -0.506932 0
M  V30 9891 H 1007.19 0.748774 -1.52287 0
M  V30 9892 H 1005.97 2.01843 -3.35224 0
M  V30 9893 H 1005.59 3.302 -2.21481 0
M  V30 9894 N 1006.59 1.25851 0.948643 0
M  V30 9895 C 1008 1.02802 1.22081 0
M  V30 9896 C 1008.2 -0.251461 1.99925 0
M  V30 9897 O 1007.26 -0.962592 2.33432 0
M  V30 9898 C 1008.57 2.25489 1.98936 0
M  V30 9899 C 1010.12 2.30312 2.11956 0
M  V30 9900 C 1010.59 3.52671 2.92211 0
M  V30 9901 N 1012.09 3.53103 2.99787 0
M  V30 9902 C 1012.82 4.44445 3.62294 0
M  V30 9903 N 1012.32 5.46065 4.26362 0
M  V30 9904 N 1014.11 4.32113 3.59493 0
M  V30 9905 H 1006.26 2.08042 0.428044 0
M  V30 9906 H 1008.52 0.913928 0.251872 0
M  V30 9907 H 1008.23 3.18513 1.4914 0
M  V30 9908 H 1008.1 2.2914 2.99624 0
M  V30 9909 H 1010.49 1.37808 2.60946 0
M  V30 9910 H 1010.57 2.30676 1.10554 0
M  V30 9911 H 1010.22 4.45501 2.43909 0
M  V30 9912 H 1010.15 3.49554 3.93853 0
M  V30 9913 H 1012.64 2.79597 2.54232 0
M  V30 9914 H 1012.95 6.11964 4.71932 0
M  V30 9915 H 1011.29 5.49931 4.24972 0
M  V30 9916 H 1014.49 3.51946 3.08629 0
M  V30 9917 H 1014.66 5.03493 4.0792 0
M  V30 9918 N 1008.06 -1.15214 1.07534 0
M  V30 9919 C 1009.03 -2.18209 0.701237 0
M  V30 9920 C 1010.03 -1.58693 -0.25946 0
M  V30 9921 O 1011.22 -1.74154 -0.0401744 0
M  V30 9922 C 1008.35 -3.40883 0.0338703 0
M  V30 9923 H 1009.54 -2.5282 1.61314 0
M  V30 9924 H 1007.1 -1.29707 0.872105 0
M  V30 9925 H 1007.83 -3.11843 -0.890187 0
M  V30 9926 H 1007.62 -3.85342 0.72486 0
M  V30 9927 H 1009.11 -4.17056 -0.213152 0
M  V30 9928 N 1009.54 -0.859717 -1.32086 0
M  V30 9929 C 1010.47 -0.323502 -2.31248 0
M  V30 9930 C 1011.45 0.580085 -1.59903 0
M  V30 9931 O 1012.64 0.499265 -1.87673 0
M  V30 9932 C 1009.77 0.484661 -3.43902 0
M  V30 9933 C 1008.72 -0.324933 -4.26765 0
M  V30 9934 C 1008.05 0.608281 -5.31229 0
M  V30 9935 C 1009.35 -1.55344 -4.98664 0
M  V30 9936 H 1011.04 -1.15209 -2.76346 0
M  V30 9937 H 1008.59 -0.555442 -1.32856 0
M  V30 9938 H 1010.54 0.870238 -4.12316 0
M  V30 9939 H 1009.27 1.34666 -2.97544 0
M  V30 9940 H 1007.92 -0.692328 -3.60003 0
M  V30 9941 H 1007.57 1.46727 -4.81124 0
M  V30 9942 H 1007.27 0.0705571 -5.87558 0
M  V30 9943 H 1008.8 0.990925 -6.02506 0
M  V30 9944 H 1010.21 -1.23987 -5.59732 0
M  V30 9945 H 1008.61 -2.02947 -5.64741 0
M  V30 9946 H 1009.68 -2.31192 -4.26237 0
M  V30 9947 N 1011.02 1.44971 -0.618145 0
M  V30 9948 C 1011.95 2.33357 0.0815955 0
M  V30 9949 C 1012.93 1.47451 0.848072 0
M  V30 9950 O 1014.12 1.762 0.816532 0
M  V30 9951 C 1011.25 3.30324 1.07253 0
M  V30 9952 C 1010.2 4.25948 0.418563 0
M  V30 9953 C 1009.53 5.12685 1.51849 0
M  V30 9954 C 1010.83 5.18024 -0.66697 0
M  V30 9955 H 1012.52 2.92115 -0.656442 0
M  V30 9956 H 1010.07 1.40465 -0.317129 0
M  V30 9957 H 1012.02 3.91033 1.57069 0
M  V30 9958 H 1010.74 2.69748 1.8413 0
M  V30 9959 H 1009.4 3.66553 -0.0588308 0
M  V30 9960 H 1009.05 4.4847 2.2778 0
M  V30 9961 H 1008.75 5.7747 1.08637 0
M  V30 9962 H 1010.27 5.76264 2.01871 0
M  V30 9963 H 1011.69 5.72744 -0.252448 0
M  V30 9964 H 1010.09 5.91343 -1.02146 0
M  V30 9965 H 1011.16 4.59817 -1.53936 0
M  V30 9966 N 1012.5 0.357919 1.53482 0
M  V30 9967 C 1013.91 -0.122938 1.86295 0
M  V30 9968 C 1014.26 -1.48803 1.27875 0
M  V30 9969 O 1013.39 -2.07978 0.597828 0
M  V30 9970 C 1013.98 -0.229853 3.38019 0
M  V30 9971 C 1012.54 -0.654955 3.70658 0
M  V30 9972 C 1011.69 0.202539 2.76559 0
M  V30 9973 H 1014.64 0.576997 1.47839 0
M  V30 9974 H 1014.66 -1.05481 3.65587 0
M  V30 9975 H 1014.17 0.763825 3.80509 0
M  V30 9976 H 1012.27 -1.65714 3.33721 0
M  V30 9977 H 1012.38 -0.43488 4.77122 0
M  V30 9978 H 1010.75 -0.327388 2.52587 0
M  V30 9979 H 1011.53 1.19361 3.21882 0
M  V30 9980 N 1013.98 -1.5736 0.0868897 0
M  V30 9981 C 1015.22 -1.94341 -0.579598 0
M  V30 9982 C 1015.56 -0.968238 -1.68341 0
M  V30 9983 O 1014.83 8.29649e-05 -1.945 0
M  V30 9984 C 1015.11 -3.41497 -1.14245 0
M  V30 9985 C 1014.97 -4.49778 -0.044255 0
M  V30 9986 C 1016.29 -3.89788 -2.04336 0
M  V30 9987 H 1013.4 -0.70668 -0.20922 0
M  V30 9988 H 1016.05 -1.89359 0.15593 0
M  V30 9989 H 1014.2 -3.45873 -1.76929 0
M  V30 9990 H 1015.87 -4.57517 0.58959 0
M  V30 9991 H 1014.11 -4.293 0.623207 0
M  V30 9992 H 1014.78 -5.4992 -0.478749 0
M  V30 9993 H 1017.26 -3.87513 -1.51569 0
M  V30 9994 H 1016.13 -4.93335 -2.40648 0
M  V30 9995 H 1016.4 -3.28603 -2.95757 0
M  V30 9996 N 1015.45 0.186762 -1.56489 0
M  V30 9997 C 1016.4 1.23141 -1.95205 0
M  V30 9998 C 1017.37 1.44799 -0.81378 0
M  V30 9999 O 1018.56 1.57795 -1.07263 0
M  V30 10000 C 1015.7 2.56926 -2.30397 0
M  V30 10001 C 1014.81 2.42777 -3.57328 0
M  V30 10002 C 1013.94 3.69323 -3.81804 0
M  V30 10003 C 1012.98 3.50041 -5.02133 0
M  V30 10004 N 1012.12 4.68619 -5.2282 0
M  V30 10005 H 1016.96 0.894256 -2.84266 0
M  V30 10006 H 1014.5 0.430187 -1.40669 0
M  V30 10007 H 1016.46 3.3488 -2.4882 0
M  V30 10008 H 1015.09 2.88668 -1.44466 0
M  V30 10009 H 1014.14 1.56078 -3.46906 0
M  V30 10010 H 1015.45 2.24468 -4.45439 0
M  V30 10011 H 1014.6 4.55715 -4.00511 0
M  V30 10012 H 1013.34 3.90595 -2.92039 0
M  V30 10013 H 1012.35 2.62034 -4.8334 0
M  V30 10014 H 1013.57 3.30206 -5.93414 0
M  V30 10015 H 1011.52 4.90139 -4.36005 0
M  V30 10016 H 1011.44 4.53165 -6.05126 0
M  V30 10017 H 1012.7 5.56338 -5.45993 0
M  V30 10018 N 1016.93 1.50896 0.454776 0
M  V30 10019 C 1018.18 1.63905 1.20444 0
M  V30 10020 C 1018.53 0.342692 1.89323 0
M  V30 10021 O 1017.83 -0.660465 1.79857 0
M  V30 10022 C 1018.02 2.76839 2.26042 0
M  V30 10023 C 1017.85 4.17332 1.67524 0
M  V30 10024 C 1016.62 4.83512 1.46779 0
M  V30 10025 C 1018.82 5.01022 1.1611 0
M  V30 10026 N 1016.8 6.08171 0.83675 0
M  V30 10027 C 1018.17 6.16538 0.654283 0
M  V30 10028 C 1020.23 4.86677 1.05119 0
M  V30 10029 C 1018.93 7.19284 0.0483821 0
M  V30 10030 C 1020.95 5.89614 0.459211 0
M  V30 10031 C 1020.32 7.0439 -0.0371476 0
M  V30 10032 H 1016.42 0.653802 0.42903 0
M  V30 10033 H 1019 1.88069 0.503783 0
M  V30 10034 H 1017.17 2.54369 2.93515 0
M  V30 10035 H 1018.9 2.7912 2.93043 0
M  V30 10036 H 1015.66 4.41082 1.72464 0
M  V30 10037 H 1016.08 6.7485 0.539176 0
M  V30 10038 H 1020.72 3.98211 1.42085 0
M  V30 10039 H 1018.44 8.07412 -0.333438 0
M  V30 10040 H 1022.03 5.80582 0.376315 0
M  V30 10041 H 1020.91 7.8268 -0.488035 0
M  V30 10042 N 1018.41 -0.709066 1.40748 0
M  V30 10043 C 1019.34 -1.83293 1.35937 0
M  V30 10044 C 1020.32 -1.60983 0.22871 0
M  V30 10045 O 1021.51 -1.8391 0.413435 0
M  V30 10046 C 1018.63 -3.19746 1.11714 0
M  V30 10047 C 1017.68 -3.60872 2.27319 0
M  V30 10048 S 1018.51 -3.67233 3.89743 0
M  V30 10049 C 1019.67 -5.06434 3.67797 0
M  V30 10050 H 1019.9 -1.87095 2.31047 0
M  V30 10051 H 1017.43 -0.876479 1.27111 0
M  V30 10052 H 1019.39 -3.98526 0.984245 0
M  V30 10053 H 1018.05 -3.1357 0.182472 0
M  V30 10054 H 1017.25 -4.59965 2.06029 0
M  V30 10055 H 1016.85 -2.89366 2.36946 0
M  V30 10056 H 1019.14 -5.93544 3.26668 0
M  V30 10057 H 1020.08 -5.32761 4.66445 0
M  V30 10058 H 1020.49 -4.77336 3.01348 0
M  V30 10059 N 1019.89 -1.26353 -0.941956 0
M  V30 10060 C 1021.3 -1.10774 -1.50287 0
M  V30 10061 C 1021.65 0.312229 -1.937 0
M  V30 10062 O 1020.78 1.20364 -1.79838 0
M  V30 10063 C 1021.37 -2.00473 -2.73123 0
M  V30 10064 C 1019.93 -1.89042 -3.25485 0
M  V30 10065 C 1019.08 -1.93869 -1.98267 0
M  V30 10066 H 1022.03 -1.39454 -0.757523 0
M  V30 10067 H 1022.05 -1.55216 -3.47402 0
M  V30 10068 H 1021.56 -3.03812 -2.41495 0
M  V30 10069 H 1019.66 -0.886341 -3.61904 0
M  V30 10070 H 1019.78 -2.74533 -3.92643 0
M  V30 10071 H 1018.14 -1.37912 -2.14132 0
M  V30 10072 H 1018.92 -2.98837 -1.68972 0
M  V30 10073 N 1021.37 1.14642 -1.08144 0
M  V30 10074 C 1022.78 1.6719 -0.830923 0
M  V30 10075 C 1023.13 1.85373 0.642749 0
M  V30 10076 O 1022.25 1.56293 1.49671 0
M  V30 10077 C 1022.85 3.03697 -1.50179 0
M  V30 10078 C 1021.41 3.5329 -1.29858 0
M  V30 10079 C 1020.56 2.28828 -1.5663 0
M  V30 10080 H 1023.51 0.987441 -1.24239 0
M  V30 10081 H 1023.53 3.69023 -0.9275 0
M  V30 10082 H 1023.04 2.90431 -2.57432 0
M  V30 10083 H 1021.14 3.71783 -0.246626 0
M  V30 10084 H 1021.25 4.34231 -2.02436 0
M  V30 10085 H 1019.62 2.34769 -0.987716 0
M  V30 10086 H 1020.4 2.18141 -2.65084 0
M  V30 10087 N 1022.85 0.866709 1.31628 0
M  V30 10088 C 1023.76 0.323408 2.3236 0
M  V30 10089 C 1024.77 -0.564995 1.64572 0
M  V30 10090 O 1025.95 -0.462489 1.96018 0
M  V30 10091 C 1023.01 -0.469045 3.43513 0
M  V30 10092 C 1022.07 0.446928 4.26967 0
M  V30 10093 C 1021.31 -0.307799 5.32812 0
M  V30 10094 O 1021.53 -1.5363 5.49321 0
M  V30 10095 O 1020.46 0.332653 6.0098 0
M  V30 10096 H 1024.29 1.15827 2.80745 0
M  V30 10097 H 1021.87 0.629987 1.35468 0
M  V30 10098 H 1023.76 -0.918405 4.1127 0
M  V30 10099 H 1022.43 -1.28051 2.97296 0
M  V30 10100 H 1021.34 0.944719 3.61975 0
M  V30 10101 H 1022.67 1.2239 4.76741 0
M  V30 10102 N 1024.32 -1.44642 0.625825 0
M  V30 10103 C 1025.29 -2.29085 -0.072526 0
M  V30 10104 C 1026.29 -1.40755 -0.777467 0
M  V30 10105 O 1027.48 -1.62684 -0.622861 0
M  V30 10106 C 1024.61 -3.22212 -1.1132 0
M  V30 10107 H 1025.8 -2.92317 0.670124 0
M  V30 10108 H 1023.35 -1.51466 0.38571 0
M  V30 10109 H 1024.09 -2.63819 -1.88601 0
M  V30 10110 H 1023.87 -3.87299 -0.611709 0
M  V30 10111 H 1025.36 -3.8566 -1.60175 0
M  V30 10112 N 1025.8 -0.366053 -1.5329 0
M  V30 10113 C 1027.05 0.223493 -2.01263 0
M  V30 10114 C 1027.38 1.48736 -1.25331 0
M  V30 10115 O 1026.63 1.92805 -0.335341 0
M  V30 10116 C 1026.93 0.560906 -3.52971 0
M  V30 10117 C 1026.6 -0.60869 -4.46773 0
M  V30 10118 C 1025.26 -0.929609 -4.72135 0
M  V30 10119 C 1027.61 -1.39225 -5.02261 0
M  V30 10120 C 1024.94 -2.03606 -5.50238 0
M  V30 10121 C 1027.29 -2.48912 -5.81572 0
M  V30 10122 C 1025.95 -2.81538 -6.05221 0
M  V30 10123 H 1025.22 0.0817818 -0.736473 0
M  V30 10124 H 1027.87 -0.498613 -1.84895 0
M  V30 10125 H 1026.18 1.36403 -3.67289 0
M  V30 10126 H 1027.87 1.02931 -3.87564 0
M  V30 10127 H 1024.46 -0.348529 -4.27181 0
M  V30 10128 H 1028.65 -1.15757 -4.82612 0
M  V30 10129 H 1023.9 -2.29281 -5.6678 0
M  V30 10130 H 1028.08 -3.10044 -6.23575 0
M  V30 10131 H 1025.7 -3.67396 -6.65525 0
M  V30 10132 N 1027.28 1.57312 -0.0952337 0
M  V30 10133 C 1028.21 2.17056 0.860753 0
M  V30 10134 C 1029.19 1.10394 1.29411 0
M  V30 10135 O 1030.38 1.38532 1.36098 0
M  V30 10136 C 1027.51 2.751 2.11984 0
M  V30 10137 C 1026.46 3.87136 1.8251 0
M  V30 10138 C 1025.79 4.31883 3.15247 0
M  V30 10139 C 1027.09 5.10326 1.11194 0
M  V30 10140 H 1028.78 2.97192 0.362983 0
M  V30 10141 H 1026.33 1.42955 0.173151 0
M  V30 10142 H 1028.28 3.15547 2.79299 0
M  V30 10143 H 1027 1.92219 2.64044 0
M  V30 10144 H 1025.66 3.47229 1.17592 0
M  V30 10145 H 1025.31 3.45893 3.65195 0
M  V30 10146 H 1025.01 5.0742 2.96309 0
M  V30 10147 H 1026.53 4.74964 3.83721 0
M  V30 10148 H 1027.95 5.47942 1.6862 0
M  V30 10149 H 1026.34 5.91293 1.02435 0
M  V30 10150 H 1027.41 4.84807 0.0947227 0
M  V30 10151 N 1028.76 -0.17846 1.56586 0
M  V30 10152 C 1029.67 -1.24115 1.9908 0
M  V30 10153 C 1030.68 -1.48854 0.901031 0
M  V30 10154 O 1031.86 -1.61142 1.2081 0
M  V30 10155 C 1028.92 -2.56187 2.33601 0
M  V30 10156 C 1027.99 -2.39373 3.56369 0
M  V30 10157 C 1027.22 -3.65147 3.89234 0
M  V30 10158 O 1027.44 -4.70024 3.23162 0
M  V30 10159 O 1026.38 -3.59683 4.82609 0
M  V30 10160 H 1030.2 -0.910482 2.89731 0
M  V30 10161 H 1027.79 -0.38477 1.4436 0
M  V30 10162 H 1029.67 -3.34109 2.56806 0
M  V30 10163 H 1028.34 -2.88847 1.46113 0
M  V30 10164 H 1027.25 -1.59506 3.38391 0
M  V30 10165 H 1028.58 -2.1164 4.44375 0
M  V30 10166 N 1030.24 -1.51135 -0.446768 0
M  V30 10167 C 1031.48 -1.63013 -1.19461 0
M  V30 10168 C 1031.8 -0.344067 -1.91941 0
M  V30 10169 O 1031.07 0.639666 -1.85162 0
M  V30 10170 H 1029.65 -0.600757 -0.443959 0
M  V30 10171 H 1032.32 -1.88024 -0.513137 0
M  V30 10172 H 1031.41 -2.45322 -1.92933 0
M  V30 10173 N 1031.71 0.701592 -1.41122 0
M  V30 10174 C 1032.96 1.45722 -1.39456 0
M  V30 10175 C 1033.28 1.95599 -0.00475228 0
M  V30 10176 O 1034.48 2.71166 0.134529 0
M  V30 10177 C 1032.94 2.63475 -2.45172 0
M  V30 10178 C 1032.55 2.20409 -3.90031 0
M  V30 10179 C 1034.29 3.4114 -2.52633 0
M  V30 10180 C 1032.2 3.35084 -4.87312 0
M  V30 10181 H 1031.13 0.547341 -0.518588 0
M  V30 10182 H 1033.78 0.762233 -1.6692 0
M  V30 10183 H 1032.16 3.35212 -2.10829 0
M  V30 10184 H 1033.33 1.56 -4.3359 0
M  V30 10185 H 1031.65 1.55752 -3.86174 0
M  V30 10186 H 1034.25 4.26496 -3.22498 0
M  V30 10187 H 1034.59 3.85915 -1.56125 0
M  V30 10188 H 1035.12 2.76456 -2.86037 0
M  V30 10189 H 1031.86 2.95327 -5.85203 0
M  V30 10190 H 1031.38 3.98362 -4.48406 0
M  V30 10191 H 1033.06 4.00949 -5.07788 0
M  V30 10192 N 1033.19 1.2685 0.935242 0
M  V30 10193 C 1034.44 1.12745 1.68211 0
M  V30 10194 C 1034.77 -0.328128 1.91712 0
M  V30 10195 O 1034.02 -1.25701 1.49993 0
M  V30 10196 C 1034.32 1.8482 3.05903 0
M  V30 10197 C 1033.99 3.347 3.02137 0
M  V30 10198 C 1032.65 3.75583 3.00817 0
M  V30 10199 C 1035 4.30368 2.93995 0
M  V30 10200 C 1032.33 5.10511 2.89129 0
M  V30 10201 C 1034.68 5.65343 2.83848 0
M  V30 10202 C 1033.34 6.0553 2.80874 0
M  V30 10203 H 1032.61 0.412563 0.615527 0
M  V30 10204 H 1035.26 1.57366 1.09124 0
M  V30 10205 H 1033.57 1.32685 3.68649 0
M  V30 10206 H 1035.26 1.71341 3.62551 0
M  V30 10207 H 1031.85 3.02182 3.03947 0
M  V30 10208 H 1036.04 3.9976 2.94118 0
M  V30 10209 H 1031.29 5.40802 2.85208 0
M  V30 10210 H 1035.47 6.39151 2.76512 0
M  V30 10211 H 1033.09 7.10037 2.71573 0
M  V30 10212 N 1034.67 -1.14067 1.0875 0
M  V30 10213 C 1035.9 -1.89041 0.840902 0
M  V30 10214 C 1036.31 -1.78768 -0.60725 0
M  V30 10215 O 1035.67 -1.14945 -1.41753 0
M  V30 10216 C 1035.72 -3.38891 1.25838 0
M  V30 10217 O 1035.44 -3.48886 2.64972 0
M  V30 10218 C 1036.94 -4.30852 1.04315 0
M  V30 10219 H 1034.16 -0.598685 0.303014 0
M  V30 10220 H 1036.71 -1.44438 1.44769 0
M  V30 10221 H 1034.86 -3.81103 0.695627 0
M  V30 10222 H 1035.28 -4.41989 2.82393 0
M  V30 10223 H 1036.75 -5.34353 1.38461 0
M  V30 10224 H 1037.23 -4.39196 -0.0195784 0
M  V30 10225 H 1037.83 -3.944 1.59151 0
M  V30 10226 N 1036.15 -0.873678 -1.31166 0
M  V30 10227 C 1037.37 -0.500242 -2.01277 0
M  V30 10228 C 1037.8 0.900811 -1.65127 0
M  V30 10229 O 1037.16 1.59504 -0.861862 0
M  V30 10230 C 1037.2 -0.668976 -3.5434 0
M  V30 10231 O 1036.31 0.290096 -4.11378 0
M  V30 10232 H 1035.65 -0.198507 -0.633633 0
M  V30 10233 H 1038.18 -1.17811 -1.67277 0
M  V30 10234 H 1038.19 -0.563673 -4.04088 0
M  V30 10235 H 1036.86 -1.69055 -3.79991 0
M  V30 10236 H 1035.44 0.139437 -3.72639 0
M  V30 10237 N 1037.63 1.44308 -0.633487 0
M  V30 10238 C 1038.57 2.30694 0.0700257 0
M  V30 10239 C 1039.54 1.43618 0.834447 0
M  V30 10240 O 1040.73 1.72517 0.815014 0
M  V30 10241 C 1037.87 3.28929 1.04403 0
M  V30 10242 C 1036.98 4.31106 0.277779 0
M  V30 10243 C 1036.12 5.16433 1.24381 0
M  V30 10244 C 1035.16 6.10317 0.466855 0
M  V30 10245 N 1034.29 6.88335 1.38347 0
M  V30 10246 H 1039.13 2.90311 -0.672567 0
M  V30 10247 H 1036.67 1.43034 -0.343449 0
M  V30 10248 H 1038.63 3.84373 1.62214 0
M  V30 10249 H 1037.26 2.71006 1.75372 0
M  V30 10250 H 1036.31 3.78115 -0.416292 0
M  V30 10251 H 1037.62 4.97725 -0.327251 0
M  V30 10252 H 1036.78 5.76406 1.89318 0
M  V30 10253 H 1035.51 4.49893 1.88276 0
M  V30 10254 H 1034.52 5.49451 -0.195989 0
M  V30 10255 H 1035.74 6.78894 -0.167414 0
M  V30 10256 H 1033.69 6.24461 2.00959 0
M  V30 10257 H 1033.61 7.51402 0.832517 0
M  V30 10258 H 1034.88 7.52829 2.0216 0
M  V30 10259 N 1039.1 0.374177 1.53094 0
M  V30 10260 C 1040.33 -0.213325 2.05797 0
M  V30 10261 C 1040.75 -1.41753 1.24706 0
M  V30 10262 O 1040.1 -1.80183 0.289868 0
M  V30 10263 C 1040.16 -0.598367 3.56513 0
M  V30 10264 O 1039.88 0.557983 4.34532 0
M  V30 10265 C 1041.38 -1.24334 4.25507 0
M  V30 10266 H 1038.6 -0.0357398 0.670048 0
M  V30 10267 H 1041.14 0.535035 1.97377 0
M  V30 10268 H 1039.3 -1.29663 3.65056 0
M  V30 10269 H 1039.71 0.244911 5.23928 0
M  V30 10270 H 1041.18 -1.46325 5.32253 0
M  V30 10271 H 1041.66 -2.20622 3.79766 0
M  V30 10272 H 1042.27 -0.586269 4.2124 0
M  V30 10273 N 1040.58 -1.57259 0.103575 0
M  V30 10274 C 1041.86 -1.86143 -0.600852 0
M  V30 10275 C 1042.24 -1.00198 -1.85805 0
M  V30 10276 O 1041.59 -0.0766791 -2.28371 0
M  V30 10277 C 1041.8 -3.36978 -0.908108 0
M  V30 10278 C 1043.15 -4.05228 -1.26788 0
M  V30 10279 O 1044.17 -3.41908 -0.998859 0
M  V30 10280 O 1043.03 -5.16971 -1.7721 0
M  V30 10281 H 1040.12 -0.770064 -0.301547 0
M  V30 10282 H 1042.67 -1.69147 0.136914 0
M  V30 10283 H 1041.44 -3.91296 -0.0165615 0
M  V30 10284 H 1041.06 -3.5935 -1.70156 0
M  V30 10285 N 1042.06 0.170153 -1.56679 0
M  V30 10286 C 1043.29 0.90618 -1.86556 0
M  V30 10287 C 1043.71 1.74986 -0.690044 0
M  V30 10288 O 1043.07 1.77672 0.360862 0
M  V30 10289 C 1043.12 1.75777 -3.14857 0
M  V30 10290 O 1042.22 2.85952 -2.97162 0
M  V30 10291 H 1041.56 0.253781 -0.613589 0
M  V30 10292 H 1044.09 0.167943 -2.0391 0
M  V30 10293 H 1044.1 2.15747 -3.46291 0
M  V30 10294 H 1042.78 1.13807 -4.00026 0
M  V30 10295 H 1041.35 2.49557 -2.77084 0
M  V30 10296 N 1043.54 1.5137 0.438746 0
M  V30 10297 C 1044.78 1.65173 1.18698 0
M  V30 10298 C 1045.14 0.362753 1.88949 0
M  V30 10299 O 1044.43 -0.641351 1.80547 0
M  V30 10300 C 1044.63 2.79221 2.23093 0
M  V30 10301 C 1044.46 4.19085 1.63088 0
M  V30 10302 C 1043.23 4.85042 1.41642 0
M  V30 10303 C 1045.42 5.02225 1.10789 0
M  V30 10304 N 1043.41 6.09024 0.772198 0
M  V30 10305 C 1044.78 6.17197 0.588854 0
M  V30 10306 C 1046.83 4.87764 0.999516 0
M  V30 10307 C 1045.53 7.19295 -0.0279103 0
M  V30 10308 C 1047.56 5.90068 0.396648 0
M  V30 10309 C 1046.92 7.04311 -0.111855 0
M  V30 10310 H 1043.02 0.658316 0.422071 0
M  V30 10311 H 1045.61 1.88593 0.483808 0
M  V30 10312 H 1043.78 2.57468 2.908 0
M  V30 10313 H 1045.51 2.82213 2.90066 0
M  V30 10314 H 1042.26 4.42886 1.67776 0
M  V30 10315 H 1042.69 6.75383 0.467568 0
M  V30 10316 H 1047.33 3.99695 1.37853 0
M  V30 10317 H 1045.05 8.07013 -0.419056 0
M  V30 10318 H 1048.63 5.80948 0.314715 0
M  V30 10319 H 1047.51 7.82118 -0.571021 0
M  V30 10320 N 1045.02 -0.694098 1.41492 0
M  V30 10321 C 1046.24 -1.48789 1.44488 0
M  V30 10322 C 1046.67 -1.88028 0.0521588 0
M  V30 10323 O 1046.02 -1.54727 -0.944952 0
M  V30 10324 C 1046.07 -2.72586 2.3607 0
M  V30 10325 O 1045.18 -3.70128 1.81876 0
M  V30 10326 H 1044.52 -0.447758 0.490315 0
M  V30 10327 H 1047.05 -0.853036 1.85969 0
M  V30 10328 H 1047.06 -3.20877 2.51995 0
M  V30 10329 H 1045.73 -2.43363 3.37264 0
M  V30 10330 H 1044.31 -3.29069 1.75408 0
M  V30 10331 N 1046.49 -1.27344 -0.928501 0
M  V30 10332 C 1047.74 -1.13635 -1.6761 0
M  V30 10333 C 1048.07 0.317957 -1.91884 0
M  V30 10334 O 1047.32 1.24904 -1.50657 0
M  V30 10335 C 1047.62 -1.86439 -3.04918 0
M  V30 10336 C 1047.29 -3.36298 -3.00358 0
M  V30 10337 C 1045.95 -3.77173 -2.98821 0
M  V30 10338 C 1048.3 -4.31921 -2.91708 0
M  V30 10339 C 1045.63 -5.12037 -2.86417 0
M  V30 10340 C 1047.98 -5.66841 -2.80846 0
M  V30 10341 C 1046.65 -6.07011 -2.77659 0
M  V30 10342 H 1045.92 -0.415821 -0.61333 0
M  V30 10343 H 1048.56 -1.57943 -1.08288 0
M  V30 10344 H 1046.87 -1.34638 -3.6794 0
M  V30 10345 H 1048.57 -1.73261 -3.61637 0
M  V30 10346 H 1045.16 -3.0379 -3.0234 0
M  V30 10347 H 1049.34 -4.01314 -2.91994 0
M  V30 10348 H 1044.6 -5.42307 -2.82336 0
M  V30 10349 H 1048.77 -6.40608 -2.73119 0
M  V30 10350 H 1046.4 -7.11467 -2.67804 0
M  V30 10351 N 1047.97 1.13488 -1.09353 0
M  V30 10352 C 1049.22 1.84383 -0.827488 0
M  V30 10353 C 1049.54 1.83892 0.648745 0
M  V30 10354 O 1048.81 1.29415 1.47066 0
M  V30 10355 H 1047.39 0.682732 -0.303127 0
M  V30 10356 H 1050.05 1.37477 -1.38152 0
M  V30 10357 H 1049.15 2.88919 -1.18035 0
M  V30 10358 N 1049.45 0.880621 1.30701 0
M  V30 10359 C 1050.7 0.497611 1.966 0
M  V30 10360 C 1051.03 -0.949901 1.69383 0
M  V30 10361 O 1050.31 -1.67054 0.996152 0
M  V30 10362 C 1050.59 0.767919 3.51817 0
M  V30 10363 C 1050.44 2.26574 3.88567 0
M  V30 10364 C 1051.76 0.241502 4.39437 0
M  V30 10365 H 1048.88 0.182267 0.714106 0
M  V30 10366 H 1051.52 1.10382 1.54648 0
M  V30 10367 H 1049.67 0.251967 3.87682 0
M  V30 10368 H 1051.34 2.84977 3.62748 0
M  V30 10369 H 1049.59 2.73411 3.36792 0
M  V30 10370 H 1050.26 2.40549 4.9683 0
M  V30 10371 H 1052.73 0.683051 4.10455 0
M  V30 10372 H 1051.61 0.459997 5.46969 0
M  V30 10373 H 1051.87 -0.857068 4.33713 0
M  V30 10374 N 1050.93 -1.4397 0.641131 0
M  V30 10375 C 1051.86 -2.33458 -0.04446 0
M  V30 10376 C 1052.84 -1.48781 -0.824507 0
M  V30 10377 O 1054.03 -1.77477 -0.788397 0
M  V30 10378 C 1051.16 -3.31989 -1.01984 0
M  V30 10379 C 1050.11 -4.2656 -0.350745 0
M  V30 10380 C 1049.44 -5.15036 -1.43673 0
M  V30 10381 C 1050.74 -5.16897 0.749299 0
M  V30 10382 H 1052.43 -2.91034 0.702832 0
M  V30 10383 H 1049.98 -1.39942 0.339435 0
M  V30 10384 H 1051.93 -3.93483 -1.50828 0
M  V30 10385 H 1050.65 -2.72643 -1.79815 0
M  V30 10386 H 1049.31 -3.66413 0.117139 0
M  V30 10387 H 1048.96 -4.52037 -2.20617 0
M  V30 10388 H 1048.66 -5.79125 -0.994358 0
M  V30 10389 H 1050.18 -5.79403 -1.92678 0
M  V30 10390 H 1051.6 -5.7227 0.343534 0
M  V30 10391 H 1049.99 -5.89643 1.11541 0
M  V30 10392 H 1051.06 -4.5731 1.61232 0
M  V30 10393 N 1052.41 -0.382291 -1.52893 0
M  V30 10394 C 1053.34 0.447829 -2.29165 0
M  V30 10395 C 1054.32 1.06956 -1.32267 0
M  V30 10396 O 1055.5 1.08365 -1.61154 0
M  V30 10397 C 1052.63 1.57902 -3.09329 0
M  V30 10398 C 1051.59 1.08369 -4.14053 0
M  V30 10399 C 1050.91 2.30641 -4.82399 0
M  V30 10400 C 1052.21 0.156591 -5.22065 0
M  V30 10401 H 1053.91 -0.188541 -2.98806 0
M  V30 10402 H 1051.45 -0.0921179 -1.43705 0
M  V30 10403 H 1053.41 2.16652 -3.61442 0
M  V30 10404 H 1052.13 2.24287 -2.37409 0
M  V30 10405 H 1050.79 0.518772 -3.62911 0
M  V30 10406 H 1050.44 2.9552 -4.07034 0
M  V30 10407 H 1050.14 1.98163 -5.53177 0
M  V30 10408 H 1051.66 2.90047 -5.37313 0
M  V30 10409 H 1053.08 0.652065 -5.6958 0
M  V30 10410 H 1051.47 -0.0780978 -6.00049 0
M  V30 10411 H 1052.54 -0.796529 -4.78313 0
M  V30 10412 N 1053.89 1.57202 -0.111913 0
M  V30 10413 C 1055.13 1.96035 0.542393 0
M  V30 10414 C 1055.49 0.993925 1.64739 0
M  V30 10415 O 1054.78 0.0227369 1.91587 0
M  V30 10416 C 1054.97 3.39152 1.12741 0
M  V30 10417 C 1054.8 4.49628 0.0806232 0
M  V30 10418 C 1053.57 5.04095 -0.348737 0
M  V30 10419 C 1055.77 5.09546 -0.697655 0
M  V30 10420 N 1053.75 5.98141 -1.38204 0
M  V30 10421 C 1055.12 5.99468 -1.58234 0
M  V30 10422 C 1057.18 4.92229 -0.749324 0
M  V30 10423 C 1055.88 6.7393 -2.51418 0
M  V30 10424 C 1057.91 5.67366 -1.66884 0
M  V30 10425 C 1057.27 6.56968 -2.54112 0
M  V30 10426 H 1053.37 0.763672 0.168311 0
M  V30 10427 H 1055.95 1.93687 -0.198387 0
M  V30 10428 H 1054.12 3.42161 1.83794 0
M  V30 10429 H 1055.86 3.65125 1.74546 0
M  V30 10430 H 1052.61 4.73581 0.042288 0
M  V30 10431 H 1053.03 6.49868 -1.8974 0
M  V30 10432 H 1057.68 4.22706 -0.0890808 0
M  V30 10433 H 1055.39 7.42704 -3.18459 0
M  V30 10434 H 1058.98 5.55974 -1.71417 0
M  V30 10435 H 1057.86 7.1409 -3.24107 0
M  V30 10436 N 1055.36 -0.161842 1.56767 0
M  V30 10437 C 1056.27 -1.21996 2.00385 0
M  V30 10438 C 1057.29 -1.4789 0.916768 0
M  V30 10439 O 1058.47 -1.59852 1.22513 0
M  V30 10440 C 1055.53 -2.53695 2.36305 0
M  V30 10441 C 1054.59 -2.3558 3.58888 0
M  V30 10442 C 1053.82 -3.60998 3.93085 0
M  V30 10443 O 1054.05 -4.6657 3.28129 0
M  V30 10444 O 1052.98 -3.54544 4.86397 0
M  V30 10445 H 1056.81 -0.879701 2.9068 0
M  V30 10446 H 1054.39 -0.369437 1.4476 0
M  V30 10447 H 1056.27 -3.31366 2.60335 0
M  V30 10448 H 1054.95 -2.87281 1.49169 0
M  V30 10449 H 1053.86 -1.55908 3.40064 0
M  V30 10450 H 1055.19 -2.06915 4.46595 0
M  V30 10451 N 1056.84 -1.516 -0.430713 0
M  V30 10452 C 1058.09 -1.63829 -1.17657 0
M  V30 10453 C 1058.4 -0.363605 -1.92191 0
M  V30 10454 O 1059.61 -0.365358 -2.6903 0
M  V30 10455 C 1058.07 -2.89357 -2.14011 0
M  V30 10456 C 1057.67 -4.23854 -1.45094 0
M  V30 10457 C 1059.42 -3.10944 -2.88988 0
M  V30 10458 C 1057.32 -5.40526 -2.3997 0
M  V30 10459 H 1056.25 -0.610221 -0.442884 0
M  V30 10460 H 1058.91 -1.78073 -0.442984 0
M  V30 10461 H 1057.29 -2.68762 -2.90832 0
M  V30 10462 H 1058.46 -4.54854 -0.737853 0
M  V30 10463 H 1056.78 -4.08197 -0.822429 0
M  V30 10464 H 1059.37 -3.95286 -3.60074 0
M  V30 10465 H 1059.72 -2.24291 -3.50712 0
M  V30 10466 H 1060.25 -3.3191 -2.19272 0
M  V30 10467 H 1056.99 -6.29459 -1.82925 0
M  V30 10468 H 1056.51 -5.13893 -3.09313 0
M  V30 10469 H 1058.19 -5.72741 -3.00959 0
M  V30 10470 N 1058.32 0.686584 -1.41858 0
M  V30 10471 C 1059.57 1.44665 -1.41698 0
M  V30 10472 C 1059.89 1.94478 -0.0292442 0
M  V30 10473 O 1059.15 1.70512 0.960421 0
M  V30 10474 C 1059.45 2.66793 -2.37816 0
M  V30 10475 C 1059.11 2.35587 -3.8446 0
M  V30 10476 C 1057.78 2.26788 -4.24406 0
M  V30 10477 C 1060.13 2.10028 -4.77009 0
M  V30 10478 C 1057.46 1.90538 -5.54898 0
M  V30 10479 C 1059.81 1.75285 -6.07831 0
M  V30 10480 C 1058.47 1.64987 -6.46789 0
M  V30 10481 H 1057.74 0.529367 -0.518509 0
M  V30 10482 H 1060.39 0.783938 -1.74719 0
M  V30 10483 H 1058.69 3.38041 -1.9808 0
M  V30 10484 H 1060.39 3.24953 -2.34961 0
M  V30 10485 H 1056.98 2.43334 -3.52826 0
M  V30 10486 H 1061.17 2.15766 -4.46944 0
M  V30 10487 H 1056.42 1.81125 -5.83955 0
M  V30 10488 H 1060.6 1.5453 -6.79039 0
M  V30 10489 H 1058.22 1.36667 -7.47814 0
M  V30 10490 N 1059.8 1.27835 0.921735 0
M  V30 10491 C 1061.02 1.17465 1.70929 0
M  V30 10492 C 1061.45 -0.264171 1.86236 0
M  V30 10493 O 1060.81 -1.19124 1.36671 0
M  V30 10494 C 1060.85 1.8697 3.08342 0
M  V30 10495 O 1059.96 1.17173 3.95404 0
M  V30 10496 H 1059.3 0.408206 0.523702 0
M  V30 10497 H 1061.83 1.69013 1.15307 0
M  V30 10498 H 1061.84 1.94564 3.58621 0
M  V30 10499 H 1060.51 2.91633 2.96518 0
M  V30 10500 H 1059.09 1.17688 3.53842 0
M  V30 10501 N 1061.28 -1.12907 1.09954 0
M  V30 10502 C 1062.21 -2.20585 0.765799 0
M  V30 10503 C 1063.19 -1.68117 -0.258989 0
M  V30 10504 O 1064.37 -1.93792 -0.125853 0
M  V30 10505 C 1061.5 -3.46772 0.191435 0
M  V30 10506 C 1060.46 -4.12363 1.14635 0
M  V30 10507 C 1059.78 -5.3294 0.433426 0
M  V30 10508 C 1061.08 -4.59073 2.49096 0
M  V30 10509 H 1062.78 -2.48759 1.66612 0
M  V30 10510 H 1060.32 -1.19563 0.802534 0
M  V30 10511 H 1062.27 -4.21365 -0.0541535 0
M  V30 10512 H 1061 -3.18011 -0.744101 0
M  V30 10513 H 1059.66 -3.39744 1.37731 0
M  V30 10514 H 1059.31 -5.00444 -0.506422 0
M  V30 10515 H 1059.01 -5.77772 1.07018 0
M  V30 10516 H 1060.53 -6.10284 0.196267 0
M  V30 10517 H 1061.94 -5.25063 2.30177 0
M  V30 10518 H 1060.34 -5.14665 3.0861 0
M  V30 10519 H 1061.41 -3.73313 3.0946 0
M  V30 10520 N 1062.75 -0.88754 -1.30232 0
M  V30 10521 C 1064 -0.506277 -1.95656 0
M  V30 10522 C 1064.32 0.948191 -1.70395 0
M  V30 10523 O 1063.59 1.66701 -1.02895 0
M  V30 10524 H 1062.17 -0.184235 -0.723924 0
M  V30 10525 H 1064.83 -1.13118 -1.58715 0
M  V30 10526 H 1063.93 -0.678673 -3.04632 0
M  V30 10527 N 1064.23 1.43628 -0.648757 0
M  V30 10528 C 1065.46 2.05918 -0.167701 0
M  V30 10529 C 1065.87 1.48681 1.17006 0
M  V30 10530 O 1065.21 0.610984 1.73242 0
M  V30 10531 C 1065.28 3.595 0.00265514 0
M  V30 10532 C 1064.94 4.39295 -1.2597 0
M  V30 10533 C 1065.94 4.71643 -2.18743 0
M  V30 10534 C 1063.62 4.79379 -1.50004 0
M  V30 10535 C 1065.62 5.42978 -3.33846 0
M  V30 10536 C 1063.3 5.50459 -2.65401 0
M  V30 10537 C 1064.3 5.82181 -3.57148 0
M  V30 10538 O 1063.99 6.5181 -4.7053 0
M  V30 10539 H 1063.72 0.670619 -0.0851261 0
M  V30 10540 H 1066.27 1.85196 -0.888351 0
M  V30 10541 H 1064.5 3.7878 0.77863 0
M  V30 10542 H 1066.19 4.03503 0.440501 0
M  V30 10543 H 1066.96 4.41199 -2.01416 0
M  V30 10544 H 1062.84 4.54098 -0.794745 0
M  V30 10545 H 1066.38 5.67656 -4.05479 0
M  V30 10546 H 1062.28 5.8032 -2.82664 0
M  V30 10547 H 1063.05 6.7029 -4.69738 0
M  V30 10548 N 1065.71 0.390394 1.52688 0
M  V30 10549 C 1066.64 -0.48838 2.22913 0
M  V30 10550 C 1067.62 -1.06319 1.23025 0
M  V30 10551 O 1068.81 -1.11462 1.52015 0
M  V30 10552 C 1065.93 -1.67612 2.9432 0
M  V30 10553 C 1064.98 -1.22646 4.08485 0
M  V30 10554 S 1065.81 -0.207092 5.35099 0
M  V30 10555 C 1066.97 -1.40058 6.10028 0
M  V30 10556 H 1067.2 0.107949 2.97104 0
M  V30 10557 H 1064.73 0.174588 1.5341 0
M  V30 10558 H 1066.69 -2.35728 3.36069 0
M  V30 10559 H 1065.35 -2.24375 2.19806 0
M  V30 10560 H 1064.55 -2.11331 4.57554 0
M  V30 10561 H 1064.15 -0.624197 3.68754 0
M  V30 10562 H 1066.44 -2.32747 6.36266 0
M  V30 10563 H 1067.38 -0.950804 7.01687 0
M  V30 10564 H 1067.79 -1.61789 5.40818 0
M  V30 10565 N 1067.19 -1.57141 0.120249 0
M  V30 10566 C 1068.6 -1.82256 -0.404931 0
M  V30 10567 C 1068.95 -1.03748 -1.66526 0
M  V30 10568 O 1068.08 -0.274456 -2.14653 0
M  V30 10569 C 1068.67 -3.30588 -0.741431 0
M  V30 10570 C 1067.23 -3.56379 -1.21124 0
M  V30 10571 C 1066.38 -2.76421 -0.220569 0
M  V30 10572 H 1069.33 -1.54897 0.345361 0
M  V30 10573 H 1069.35 -3.45284 -1.59872 0
M  V30 10574 H 1068.86 -3.87701 0.176036 0
M  V30 10575 H 1066.96 -3.04625 -2.14556 0
M  V30 10576 H 1067.07 -4.64952 -1.1557 0
M  V30 10577 H 1065.44 -2.44666 -0.707857 0
M  V30 10578 H 1066.22 -3.36294 0.690018 0
M  V30 10579 N 1068.67 0.153526 -1.5685 0
M  V30 10580 C 1069.9 0.881055 -1.86872 0
M  V30 10581 C 1070.3 1.75547 -0.705692 0
M  V30 10582 O 1069.65 1.8064 0.333888 0
M  V30 10583 C 1069.71 1.79429 -3.11521 0
M  V30 10584 C 1069.37 1.0977 -4.43621 0
M  V30 10585 C 1070.37 0.454693 -5.17908 0
M  V30 10586 C 1068.06 1.08915 -4.9035 0
M  V30 10587 C 1070.05 -0.187562 -6.37124 0
M  V30 10588 C 1067.74 0.443084 -6.09492 0
M  V30 10589 C 1068.73 -0.194154 -6.82724 0
M  V30 10590 O 1068.42 -0.829995 -7.99604 0
M  V30 10591 H 1068.15 0.260486 -0.623797 0
M  V30 10592 H 1070.71 0.153024 -2.04829 0
M  V30 10593 H 1068.94 2.5631 -2.89555 0
M  V30 10594 H 1070.63 2.39321 -3.27842 0
M  V30 10595 H 1071.39 0.453151 -4.82878 0
M  V30 10596 H 1067.27 1.57456 -4.33276 0
M  V30 10597 H 1070.82 -0.685542 -6.94223 0
M  V30 10598 H 1066.71 0.44227 -6.43983 0
M  V30 10599 H 1067.48 -0.731013 -8.15229 0
M  V30 10600 N 1070.14 1.51827 0.422667 0
M  V30 10601 C 1071.56 1.57533 1.00201 0
M  V30 10602 C 1071.91 0.407623 1.91919 0
M  V30 10603 O 1071.03 -0.473763 2.1115 0
M  V30 10604 C 1071.63 2.85508 1.82403 0
M  V30 10605 C 1070.19 2.93737 2.35362 0
M  V30 10606 C 1069.33 2.52343 1.14971 0
M  V30 10607 H 1072.28 1.57391 0.20339 0
M  V30 10608 H 1072.3 2.70097 2.68007 0
M  V30 10609 H 1071.82 3.70477 1.15623 0
M  V30 10610 H 1069.92 2.13231 3.05554 0
M  V30 10611 H 1070.03 3.977 2.67155 0
M  V30 10612 H 1068.39 2.05878 1.49955 0
M  V30 10613 H 1069.18 3.39672 0.497786 0
M  V30 10614 N 1071.62 -0.679052 1.4222 0
M  V30 10615 C 1072.87 -1.43627 1.42182 0
M  V30 10616 C 1073.19 -1.94964 0.0377095 0
M  V30 10617 O 1072.46 -1.72788 -0.923098 0
M  V30 10618 H 1071.04 -0.532972 0.523402 0
M  V30 10619 H 1073.7 -0.802649 1.77605 0
M  V30 10620 H 1072.8 -2.29137 2.11902 0
M  V30 10621 N 1073.1 -1.28322 -0.914942 0
M  V30 10622 C 1074.52 -1.06003 -1.19313 0
M  V30 10623 C 1074.72 0.198366 -2.00521 0
M  V30 10624 O 1073.77 0.900364 -2.35902 0
M  V30 10625 C 1075.09 -2.30684 -1.92887 0
M  V30 10626 C 1076.63 -2.35851 -2.05775 0
M  V30 10627 C 1077.11 -3.60295 -2.82757 0
M  V30 10628 N 1078.6 -3.60928 -2.9032 0
M  V30 10629 C 1079.33 -4.53894 -3.50383 0
M  V30 10630 N 1078.83 -5.57178 -4.11734 0
M  V30 10631 N 1080.62 -4.41492 -3.4791 0
M  V30 10632 H 1072.77 -2.09104 -0.372735 0
M  V30 10633 H 1075.04 -0.920285 -0.227552 0
M  V30 10634 H 1074.74 -3.22355 -1.40643 0
M  V30 10635 H 1074.62 -2.37003 -2.93444 0
M  V30 10636 H 1077 -1.44678 -2.57201 0
M  V30 10637 H 1077.09 -2.33526 -1.04399 0
M  V30 10638 H 1076.73 -4.51811 -2.32011 0
M  V30 10639 H 1076.66 -3.59873 -3.84446 0
M  V30 10640 H 1079.15 -2.8624 -2.46729 0
M  V30 10641 H 1079.46 -6.24261 -4.55541 0
M  V30 10642 H 1077.81 -5.61005 -4.10242 0
M  V30 10643 H 1081 -3.60005 -2.99189 0
M  V30 10644 H 1081.17 -5.14132 -3.94427 0
M  V30 10645 N 1074.58 1.12322 -1.10551 0
M  V30 10646 C 1075.81 1.87679 -0.87087 0
M  V30 10647 C 1076.22 1.79711 0.578733 0
M  V30 10648 O 1075.58 1.17185 1.39907 0
M  V30 10649 C 1075.63 3.36846 -1.31213 0
M  V30 10650 O 1075.35 3.44626 -2.70489 0
M  V30 10651 C 1076.85 4.29138 -1.11156 0
M  V30 10652 H 1074.07 0.593788 -0.3125 0
M  V30 10653 H 1076.62 1.42116 -1.47048 0
M  V30 10654 H 1074.77 3.79948 -0.756169 0
M  V30 10655 H 1075.18 4.37441 -2.89389 0
M  V30 10656 H 1076.66 5.32082 -1.46944 0
M  V30 10657 H 1077.14 4.39171 -0.0502963 0
M  V30 10658 H 1077.74 3.91818 -1.65405 0
M  V30 10659 N 1076.06 0.894434 1.2976 0
M  V30 10660 C 1077 0.357958 2.29829 0
M  V30 10661 C 1078 -0.540093 1.6056 0
M  V30 10662 O 1079.2 -0.423478 1.74948 0
M  V30 10663 H 1075.58 0.0971183 0.745702 0
M  V30 10664 H 1077.55 1.21542 2.72526 0
M  V30 10665 C 1076.3 -0.404126 3.45343 0
M  V30 10666 H 1075.62 0.277671 3.98835 0
M  V30 10667 H 1077.06 -0.744446 4.17413 0
M  V30 10668 C 1075.52 -1.6048 2.96222 0
M  V30 10669 O 1076.05 -2.70414 2.97051 0
M  V30 10670 N 1074.26 -1.44517 2.52117 0
M  V30 10671 H 1073.8 -0.55082 2.51642 0
M  V30 10672 H 1073.76 -2.24987 2.1961 0
M  V30 10673 N 1077.53 -1.43282 0.656365 0
M  V30 10674 C 1078.47 -2.29087 -0.0720378 0
M  V30 10675 C 1079.48 -1.4268 -0.783982 0
M  V30 10676 O 1080.67 -1.66585 -0.641213 0
M  V30 10677 C 1077.77 -3.19676 -1.12519 0
M  V30 10678 C 1076.94 -4.34638 -0.490756 0
M  V30 10679 C 1076 -5.06079 -1.44121 0
M  V30 10680 O 1075.03 -5.6124 -0.948595 0
M  V30 10681 N 1076.23 -5.09872 -2.77509 0
M  V30 10682 H 1078.99 -2.92241 0.664456 0
M  V30 10683 H 1076.55 -1.54006 0.499383 0
M  V30 10684 H 1078.55 -3.64334 -1.76189 0
M  V30 10685 H 1077.12 -2.581 -1.76362 0
M  V30 10686 H 1076.34 -3.92857 0.3251 0
M  V30 10687 H 1077.62 -5.08777 -0.0480061 0
M  V30 10688 H 1077.02 -4.66433 -3.20088 0
M  V30 10689 H 1075.58 -5.58237 -3.36474 0
M  V30 10690 N 1079.01 -0.398486 -1.52479 0
M  V30 10691 C 1079.92 0.439328 -2.3045 0
M  V30 10692 C 1080.94 1.06322 -1.37738 0
M  V30 10693 O 1082.12 1.06704 -1.7081 0
M  V30 10694 C 1079.18 1.54655 -3.10294 0
M  V30 10695 C 1078.24 0.946824 -4.18729 0
M  V30 10696 C 1077.47 2.00129 -4.94757 0
M  V30 10697 O 1077.7 3.2178 -4.70971 0
M  V30 10698 O 1076.63 1.61345 -5.79872 0
M  V30 10699 H 1080.46 -0.196118 -3.03066 0
M  V30 10700 H 1078.04 -0.161961 -1.4852 0
M  V30 10701 H 1079.92 2.18958 -3.60049 0
M  V30 10702 H 1078.6 2.1668 -2.40482 0
M  V30 10703 H 1077.51 0.266802 -3.73147 0
M  V30 10704 H 1078.84 0.370664 -4.90802 0
M  V30 10705 N 1080.49 1.57075 -0.12858 0
M  V30 10706 C 1081.74 1.9581 0.527868 0
M  V30 10707 C 1082.07 1.01253 1.65715 0
M  V30 10708 O 1081.35 0.0514853 1.94432 0
M  V30 10709 C 1081.63 3.44406 1.05151 0
M  V30 10710 C 1081.48 4.49737 -0.0750113 0
M  V30 10711 C 1082.8 3.95069 1.9393 0
M  V30 10712 H 1079.92 0.711978 0.19041 0
M  V30 10713 H 1082.56 1.88879 -0.206081 0
M  V30 10714 H 1080.71 3.50443 1.67697 0
M  V30 10715 H 1082.38 4.55793 -0.710685 0
M  V30 10716 H 1080.63 4.27497 -0.736809 0
M  V30 10717 H 1081.3 5.50996 0.332779 0
M  V30 10718 H 1083.77 3.91395 1.41241 0
M  V30 10719 H 1082.65 4.99542 2.27484 0
M  V30 10720 H 1082.91 3.36329 2.86941 0
M  V30 10721 N 1081.97 -0.145205 1.5693 0
M  V30 10722 C 1082.9 -1.18096 2.01434 0
M  V30 10723 C 1083.88 -1.447 0.894204 0
M  V30 10724 O 1085.07 -1.55589 1.16214 0
M  V30 10725 C 1082.2 -2.51369 2.39647 0
M  V30 10726 C 1081.15 -2.39283 3.54863 0
M  V30 10727 C 1080.48 -3.77283 3.78895 0
M  V30 10728 C 1081.78 -1.8754 4.87469 0
M  V30 10729 H 1083.47 -0.810897 2.8821 0
M  V30 10730 H 1081.02 -0.388624 1.38657 0
M  V30 10731 H 1082.97 -3.24054 2.69382 0
M  V30 10732 H 1081.69 -2.90214 1.49811 0
M  V30 10733 H 1080.35 -1.6905 3.25296 0
M  V30 10734 H 1080 -4.13567 2.86307 0
M  V30 10735 H 1079.7 -3.70057 4.56433 0
M  V30 10736 H 1081.22 -4.51514 4.11057 0
M  V30 10737 H 1082.64 -2.50019 5.1591 0
M  V30 10738 H 1081.03 -1.912 5.68826 0
M  V30 10739 H 1082.1 -0.831194 4.77723 0
M  V30 10740 N 1083.45 -1.52049 -0.414609 0
M  V30 10741 C 1084.72 -1.56397 -1.17471 0
M  V30 10742 C 1085.1 -0.34171 -2.08316 0
M  V30 10743 O 1084.45 0.6718 -2.18401 0
M  V30 10744 C 1084.66 -2.88983 -1.95678 0
M  V30 10745 C 1086.01 -3.41781 -2.51935 0
M  V30 10746 O 1087.03 -2.90686 -2.05865 0
M  V30 10747 O 1085.89 -4.30989 -3.36022 0
M  V30 10748 H 1082.99 -0.62974 -0.536056 0
M  V30 10749 H 1085.53 -1.64374 -0.421834 0
M  V30 10750 H 1084.31 -3.69392 -1.29094 0
M  V30 10751 H 1083.93 -2.84274 -2.77983 0
M  V30 10752 N 1084.93 0.6715 -1.42579 0
M  V30 10753 C 1086.17 1.43154 -1.43224 0
M  V30 10754 C 1086.5 1.94436 -0.0498695 0
M  V30 10755 O 1085.76 1.71521 0.942282 0
M  V30 10756 C 1086.05 2.64256 -2.40632 0
M  V30 10757 C 1085.72 2.31497 -3.86937 0
M  V30 10758 C 1084.38 2.22274 -4.26788 0
M  V30 10759 C 1086.73 2.04957 -4.7921 0
M  V30 10760 C 1084.06 1.84642 -5.56888 0
M  V30 10761 C 1086.41 1.68828 -6.09656 0
M  V30 10762 C 1085.08 1.58118 -6.48502 0
M  V30 10763 H 1084.35 0.523838 -0.524094 0
M  V30 10764 H 1087 0.765363 -1.7554 0
M  V30 10765 H 1085.3 3.35921 -2.01654 0
M  V30 10766 H 1087 3.22443 -2.38394 0
M  V30 10767 H 1083.59 2.39578 -3.55387 0
M  V30 10768 H 1087.77 2.11014 -4.49207 0
M  V30 10769 H 1083.03 1.74921 -5.85843 0
M  V30 10770 H 1087.2 1.47319 -6.8064 0
M  V30 10771 H 1084.83 1.28728 -7.49222 0
M  V30 10772 N 1086.4 1.28806 0.908124 0
M  V30 10773 C 1087.65 1.1646 1.66027 0
M  V30 10774 C 1087.98 -0.285025 1.92097 0
M  V30 10775 O 1087.26 -1.20675 1.52538 0
M  V30 10776 C 1087.54 1.96951 3.01467 0
M  V30 10777 C 1087.39 3.50007 2.82515 0
M  V30 10778 C 1088.71 1.78932 4.02084 0
M  V30 10779 H 1085.83 0.424435 0.602515 0
M  V30 10780 H 1088.47 1.58185 1.0525 0
M  V30 10781 H 1086.62 1.61495 3.53344 0
M  V30 10782 H 1088.3 3.95401 2.37605 0
M  V30 10783 H 1086.54 3.75356 2.17463 0
M  V30 10784 H 1087.21 4.01591 3.7872 0
M  V30 10785 H 1089.69 2.09885 3.59287 0
M  V30 10786 H 1088.56 2.37615 4.94803 0
M  V30 10787 H 1088.82 0.742286 4.35824 0
M  V30 10788 N 1087.88 -1.11734 1.11145 0
M  V30 10789 C 1089.13 -1.83677 0.859684 0
M  V30 10790 C 1089.46 -1.84265 -0.613182 0
M  V30 10791 O 1088.74 -1.29351 -1.45254 0
M  V30 10792 C 1089.02 -3.31003 1.41805 0
M  V30 10793 C 1088.87 -3.38827 2.95831 0
M  V30 10794 C 1090.19 -4.26984 1.06645 0
M  V30 10795 H 1087.31 -0.666879 0.313754 0
M  V30 10796 H 1089.95 -1.31038 1.37583 0
M  V30 10797 H 1088.1 -3.75961 0.979054 0
M  V30 10798 H 1089.77 -3.02451 3.48312 0
M  V30 10799 H 1088.02 -2.79143 3.32056 0
M  V30 10800 H 1088.69 -4.42508 3.29986 0
M  V30 10801 H 1091.16 -3.9019 1.44537 0
M  V30 10802 H 1090.04 -5.2846 1.48394 0
M  V30 10803 H 1090.3 -4.42094 -0.0231866 0
M  V30 10804 N 1089.36 -0.901303 -1.29284 0
M  V30 10805 C 1090.61 -0.527 -1.95108 0
M  V30 10806 C 1090.93 0.930065 -1.71391 0
M  V30 10807 O 1090.2 1.65601 -1.04658 0
M  V30 10808 H 1088.78 -0.191903 -0.721929 0
M  V30 10809 H 1091.44 -1.14795 -1.57506 0
M  V30 10810 H 1090.54 -0.710945 -3.03895 0
M  V30 10811 N 1090.84 1.42931 -0.663954 0
M  V30 10812 C 1092.09 2.01284 -0.181379 0
M  V30 10813 C 1092.41 1.52708 1.21265 0
M  V30 10814 O 1091.68 0.744181 1.81215 0
M  V30 10815 H 1090.26 0.744248 -0.0640646 0
M  V30 10816 H 1092.92 1.74997 -0.858031 0
M  V30 10817 H 1092.01 3.11613 -0.174273 0
M  V30 10818 N 1092.32 0.406567 1.52266 0
M  V30 10819 C 1093.56 -0.169717 2.01386 0
M  V30 10820 C 1093.88 -1.45864 1.29417 0
M  V30 10821 O 1093.15 -1.9136 0.419327 0
M  V30 10822 H 1091.73 -0.0657075 0.744105 0
M  V30 10823 H 1094.4 0.542221 1.87206 0
M  V30 10824 H 1093.49 -0.367659 3.09927 0
M  V30 10825 N 1093.79 -1.57004 0.136909 0
M  V30 10826 C 1095.21 -1.58082 -0.21958 0
M  V30 10827 C 1095.41 -1.15065 -1.65415 0
M  V30 10828 O 1094.47 -0.846284 -2.37896 0
M  V30 10829 C 1095.78 -3.00685 0.0300112 0
M  V30 10830 C 1097.33 -3.12981 -0.0344899 0
M  V30 10831 C 1097.8 -4.57615 0.187639 0
M  V30 10832 N 1099.29 -4.63005 0.134219 0
M  V30 10833 C 1100.03 -5.72712 0.280743 0
M  V30 10834 N 1099.52 -6.91104 0.48443 0
M  V30 10835 N 1101.32 -5.61673 0.219055 0
M  V30 10836 H 1093.47 -1.83262 1.07372 0
M  V30 10837 H 1095.73 -0.847776 0.424241 0
M  V30 10838 H 1095.44 -3.36509 1.02247 0
M  V30 10839 H 1095.31 -3.70762 -0.693918 0
M  V30 10840 H 1097.7 -2.77004 -1.01749 0
M  V30 10841 H 1097.78 -2.45411 0.721608 0
M  V30 10842 H 1097.42 -4.94295 1.16769 0
M  V30 10843 H 1097.35 -5.23299 -0.588661 0
M  V30 10844 H 1099.84 -3.77895 -0.0189681 0
M  V30 10845 H 1100.16 -7.7057 0.586613 0
M  V30 10846 H 1098.5 -6.93047 0.520627 0
M  V30 10847 H 1101.69 -4.68061 0.0607606 0
M  V30 10848 H 1101.87 -6.47125 0.336683 0
M  V30 10849 N 1095.27 0.136881 -1.57004 0
M  V30 10850 C 1096.21 1.19853 -1.94192 0
M  V30 10851 C 1097.18 1.4104 -0.809103 0
M  V30 10852 O 1098.37 1.55487 -1.06565 0
M  V30 10853 C 1095.49 2.55565 -2.22271 0
M  V30 10854 C 1094.54 2.50913 -3.44884 0
M  V30 10855 S 1095.37 1.96619 -4.98098 0
M  V30 10856 C 1096.53 3.34039 -5.2931 0
M  V30 10857 H 1096.76 0.881316 -2.83937 0
M  V30 10858 H 1094.3 0.342915 -1.50544 0
M  V30 10859 H 1096.25 3.33659 -2.39127 0
M  V30 10860 H 1094.91 2.84472 -1.33172 0
M  V30 10861 H 1094.11 3.50839 -3.6184 0
M  V30 10862 H 1093.71 1.80932 -3.27322 0
M  V30 10863 H 1096 4.30189 -5.23397 0
M  V30 10864 H 1096.94 3.21927 -6.30689 0
M  V30 10865 H 1097.35 3.31642 -4.56808 0
M  V30 10866 N 1096.75 1.52266 0.40654 0
M  V30 10867 C 1098.03 1.57018 1.1664 0
M  V30 10868 C 1098.41 0.352752 2.08132 0
M  V30 10869 O 1097.76 -0.660208 2.18754 0
M  V30 10870 C 1097.97 2.90016 1.94143 0
M  V30 10871 C 1099.31 3.43112 2.50119 0
M  V30 10872 O 1100.34 2.91773 2.0432 0
M  V30 10873 O 1099.2 4.32765 3.33731 0
M  V30 10874 H 1096.29 0.632574 0.532709 0
M  V30 10875 H 1098.84 1.64595 0.413111 0
M  V30 10876 H 1097.61 3.70071 1.27134 0
M  V30 10877 H 1097.23 2.85744 2.76471 0
M  V30 10878 N 1098.23 -0.663929 1.42933 0
M  V30 10879 C 1099.64 -1.24484 1.39143 0
M  V30 10880 C 1099.99 -1.95993 0.0901142 0
M  V30 10881 O 1099.12 -2.00636 -0.810812 0
M  V30 10882 C 1099.71 -2.26402 2.52047 0
M  V30 10883 C 1098.27 -2.79995 2.51555 0
M  V30 10884 C 1097.42 -1.54475 2.30289 0
M  V30 10885 H 1100.37 -0.456619 1.51989 0
M  V30 10886 H 1100.39 -3.08361 2.22921 0
M  V30 10887 H 1099.9 -1.74328 3.46744 0
M  V30 10888 H 1098 -3.36161 1.60707 0
M  V30 10889 H 1098.11 -3.2827 3.48964 0
M  V30 10890 H 1096.48 -1.81437 1.78753 0
M  V30 10891 H 1097.26 -1.04351 3.27056 0
M  V30 10892 N 1099.71 -1.29285 -0.901281 0
M  V30 10893 C 1101.12 -1.15499 -1.46686 0
M  V30 10894 C 1101.47 0.250446 -1.94595 0
M  V30 10895 O 1100.59 1.14581 -1.83576 0
M  V30 10896 C 1101.19 -2.0906 -2.66607 0
M  V30 10897 C 1099.75 -1.99301 -3.19306 0
M  V30 10898 C 1098.89 -2.00079 -1.91999 0
M  V30 10899 H 1101.85 -1.41793 -0.712773 0
M  V30 10900 H 1101.87 -1.6619 -3.42288 0
M  V30 10901 H 1101.38 -3.11341 -2.31707 0
M  V30 10902 H 1099.48 -1.00103 -3.58901 0
M  V30 10903 H 1099.59 -2.86885 -3.8371 0
M  V30 10904 H 1097.96 -1.44655 -2.09636 0
M  V30 10905 H 1098.74 -3.04061 -1.59379 0
M  V30 10906 N 1101.18 1.11143 -1.11736 0
M  V30 10907 C 1102.6 1.34962 -0.851905 0
M  V30 10908 C 1102.8 1.94627 0.521797 0
M  V30 10909 O 1101.86 2.18121 1.27198 0
M  V30 10910 C 1103.17 2.27832 -1.96248 0
M  V30 10911 C 1104.72 2.41388 -1.9925 0
M  V30 10912 C 1105.19 3.37582 -3.09519 0
M  V30 10913 N 1106.68 3.45147 -3.08914 0
M  V30 10914 C 1107.42 4.19527 -3.90876 0
M  V30 10915 N 1106.91 4.96858 -4.82809 0
M  V30 10916 N 1108.71 4.15071 -3.79042 0
M  V30 10917 H 1100.86 0.707801 -2.0026 0
M  V30 10918 H 1103.12 0.374172 -0.871033 0
M  V30 10919 H 1102.83 1.91189 -2.95194 0
M  V30 10920 H 1102.7 3.28078 -1.86132 0
M  V30 10921 H 1105.09 2.77304 -1.00928 0
M  V30 10922 H 1105.17 1.40983 -2.13442 0
M  V30 10923 H 1104.81 3.02393 -4.0807 0
M  V30 10924 H 1104.74 4.37849 -2.92568 0
M  V30 10925 H 1107.23 2.89991 -2.42309 0
M  V30 10926 H 1107.55 5.5099 -5.41876 0
M  V30 10927 H 1105.89 4.96008 -4.86828 0
M  V30 10928 H 1109.08 3.53748 -3.06562 0
M  V30 10929 H 1109.26 4.72781 -4.4315 0
M  V30 10930 N 1102.66 0.908147 1.28804 0
M  V30 10931 C 1103.91 0.53734 1.94826 0
M  V30 10932 C 1104.23 -0.920962 1.71882 0
M  V30 10933 O 1103.5 -1.65043 1.05534 0
M  V30 10934 H 1102.08 0.195729 0.720902 0
M  V30 10935 H 1104.74 1.15628 1.56895 0
M  V30 10936 H 1103.84 0.727052 3.03513 0
M  V30 10937 N 1104.14 -1.42577 0.671525 0
M  V30 10938 C 1105.38 -2.03455 0.196271 0
M  V30 10939 C 1105.74 -1.51934 -1.17389 0
M  V30 10940 O 1106.95 -2.04577 -1.74361 0
M  V30 10941 C 1105.22 -3.56687 0.225624 0
M  V30 10942 S 1106.78 -4.38434 -0.179107 0
M  V30 10943 H 1103.59 -0.706371 0.0809995 0
M  V30 10944 H 1106.2 -1.74375 0.883948 0
M  V30 10945 H 1104.9 -3.91684 1.22524 0
M  V30 10946 H 1104.43 -3.90436 -0.481994 0
M  V30 10947 H 1106.45 -4.75646 -1.41332 0
M  V30 10948 N 1105.62 -0.414636 -1.52048 0
M  V30 10949 C 1107.03 0.0537107 -1.86623 0
M  V30 10950 C 1107.38 1.43955 -1.3331 0
M  V30 10951 O 1106.51 2.05616 -0.674606 0
M  V30 10952 C 1107.1 0.104241 -3.3864 0
M  V30 10953 C 1105.66 0.516936 -3.72833 0
M  V30 10954 C 1104.81 -0.305042 -2.75617 0
M  V30 10955 H 1107.76 -0.631469 -1.45596 0
M  V30 10956 H 1107.78 0.918395 -3.6925 0
M  V30 10957 H 1107.29 -0.904523 -3.77412 0
M  V30 10958 H 1105.39 1.53214 -3.39641 0
M  V30 10959 H 1105.5 0.2575 -4.78408 0
M  V30 10960 H 1103.87 0.233416 -2.53628 0
M  V30 10961 H 1104.65 -1.31226 -3.1723 0
M  V30 10962 N 1107.1 1.56929 -0.145233 0
M  V30 10963 C 1108.34 1.95681 0.50532 0
M  V30 10964 C 1108.67 1.03098 1.65516 0
M  V30 10965 O 1107.94 0.0921961 1.95683 0
M  V30 10966 H 1106.52 0.72252 0.189668 0
M  V30 10967 H 1109.18 1.93651 -0.220318 0
M  V30 10968 H 1108.27 2.99359 0.882631 0
M  V30 10969 N 1108.58 -0.128553 1.57075 0
M  V30 10970 C 1109.99 -0.686713 1.73612 0
M  V30 10971 C 1110.34 -1.80778 0.762478 0
M  V30 10972 O 1109.46 -2.16297 -0.0667779 0
M  V30 10973 C 1110.06 -1.25246 3.148 0
M  V30 10974 C 1108.62 -1.757 3.32876 0
M  V30 10975 C 1107.76 -0.652844 2.69506 0
M  V30 10976 H 1110.71 0.0972859 1.58402 0
M  V30 10977 H 1110.74 -2.1222 3.15821 0
M  V30 10978 H 1110.25 -0.436308 3.8564 0
M  V30 10979 H 1108.35 -2.59824 2.67063 0
M  V30 10980 H 1108.46 -1.87302 4.4097 0
M  V30 10981 H 1106.83 -1.08408 2.30477 0
M  V30 10982 H 1107.61 0.15217 3.42963 0
M  V30 10983 N 1110.05 -1.5248 -0.398459 0
M  V30 10984 C 1111.3 -1.67309 -1.1461 0
M  V30 10985 C 1111.63 -0.407095 -1.89885 0
M  V30 10986 O 1110.91 0.594834 -1.85181 0
M  V30 10987 C 1111.19 -2.90204 -2.13198 0
M  V30 10988 C 1111.04 -4.26881 -1.4175 0
M  V30 10989 C 1112.36 -3.08634 -3.13741 0
M  V30 10990 H 1109.48 -0.608853 -0.415292 0
M  V30 10991 H 1112.12 -1.85057 -0.430573 0
M  V30 10992 H 1110.27 -2.75204 -2.74218 0
M  V30 10993 H 1111.95 -4.53631 -0.837676 0
M  V30 10994 H 1110.19 -4.27793 -0.719387 0
M  V30 10995 H 1110.86 -5.08939 -2.1374 0
M  V30 10996 H 1113.34 -3.22603 -2.62805 0
M  V30 10997 H 1112.21 -3.96117 -3.79977 0
M  V30 10998 H 1112.47 -2.22425 -3.82073 0
M  V30 10999 N 1111.53 0.65634 -1.43283 0
M  V30 11000 C 1112.76 1.44199 -1.47954 0
M  V30 11001 C 1113.17 1.88961 -0.0950315 0
M  V30 11002 O 1112.51 1.59895 0.904388 0
M  V30 11003 C 1112.57 2.71161 -2.36033 0
M  V30 11004 C 1112.24 2.48359 -3.83623 0
M  V30 11005 C 1113.24 2.1178 -4.74811 0
M  V30 11006 C 1110.92 2.6278 -4.28079 0
M  V30 11007 C 1112.91 1.89915 -6.0845 0
M  V30 11008 C 1110.6 2.4053 -5.61772 0
M  V30 11009 C 1111.6 2.04154 -6.51775 0
M  V30 11010 O 1111.29 1.82134 -7.82996 0
M  V30 11011 H 1111.02 0.449567 -0.504842 0
M  V30 11012 H 1113.57 0.812234 -1.88658 0
M  V30 11013 H 1111.8 3.36685 -1.9021 0
M  V30 11014 H 1113.49 3.33102 -2.31944 0
M  V30 11015 H 1114.26 2.00217 -4.41744 0
M  V30 11016 H 1110.14 2.9007 -3.58302 0
M  V30 11017 H 1113.68 1.61445 -6.78661 0
M  V30 11018 H 1109.58 2.51695 -5.94407 0
M  V30 11019 H 1110.35 1.96584 -7.94542 0
M  V30 11020 N 1113.01 1.29761 0.894412 0
M  V30 11021 C 1114.43 1.07888 1.17611 0
M  V30 11022 C 1114.63 -0.16644 2.00811 0
M  V30 11023 O 1113.68 -0.86272 2.37304 0
M  V30 11024 C 1114.99 2.33723 1.89193 0
M  V30 11025 C 1116.54 2.39095 2.01997 0
M  V30 11026 C 1117.02 3.64747 2.7699 0
M  V30 11027 N 1118.51 3.65501 2.84541 0
M  V30 11028 C 1119.24 4.59411 3.43117 0
M  V30 11029 N 1118.74 5.63657 4.02818 0
M  V30 11030 N 1120.53 4.46971 3.40842 0
M  V30 11031 H 1112.68 2.0967 0.339421 0
M  V30 11032 H 1114.95 0.923788 0.212882 0
M  V30 11033 H 1114.65 3.24551 1.35496 0
M  V30 11034 H 1114.53 2.41642 2.89636 0
M  V30 11035 H 1116.91 1.48751 2.54867 0
M  V30 11036 H 1116.99 2.35158 1.0067 0
M  V30 11037 H 1116.64 4.55445 2.24794 0
M  V30 11038 H 1116.57 3.65944 3.78672 0
M  V30 11039 H 1119.06 2.90129 2.42144 0
M  V30 11040 H 1119.37 6.31429 4.45552 0
M  V30 11041 H 1117.72 5.67461 4.01265 0
M  V30 11042 H 1120.91 3.64719 2.93424 0
M  V30 11043 H 1121.08 5.20341 3.86198 0
M  V30 11044 N 1114.49 -1.10549 1.12324 0
M  V30 11045 C 1115.74 -1.81851 0.872531 0
M  V30 11046 C 1116.05 -1.86058 -0.603468 0
M  V30 11047 O 1117.26 -2.53553 -0.970736 0
M  V30 11048 C 1115.71 -3.26631 1.51131 0
M  V30 11049 C 1115.32 -3.30725 3.02201 0
M  V30 11050 C 1117.06 -4.02768 1.34082 0
M  V30 11051 C 1114.97 -4.69957 3.59018 0
M  V30 11052 H 1113.9 -0.681422 0.322769 0
M  V30 11053 H 1116.55 -1.24332 1.34959 0
M  V30 11054 H 1114.93 -3.8414 0.961913 0
M  V30 11055 H 1116.11 -2.83046 3.63623 0
M  V30 11056 H 1114.42 -2.68072 3.18632 0
M  V30 11057 H 1117.02 -5.05612 1.73955 0
M  V30 11058 H 1117.36 -4.15328 0.284369 0
M  V30 11059 H 1117.9 -3.51671 1.85937 0
M  V30 11060 H 1114.63 -4.62597 4.64418 0
M  V30 11061 H 1114.15 -5.18008 3.02371 0
M  V30 11062 H 1115.83 -5.38925 3.58007 0
M  V30 11063 N 1115.97 -0.914965 -1.28321 0
M  V30 11064 C 1116.9 -0.348729 -2.2552 0
M  V30 11065 C 1117.88 0.547737 -1.53097 0
M  V30 11066 O 1119.06 0.491119 -1.8199 0
M  V30 11067 C 1116.19 0.501397 -3.34968 0
M  V30 11068 C 1115.23 -0.329859 -4.25223 0
M  V30 11069 S 1116.07 -1.73737 -5.06533 0
M  V30 11070 C 1117.22 -0.89458 -6.19474 0
M  V30 11071 H 1117.46 -1.17256 -2.732 0
M  V30 11072 H 1114.99 -0.716297 -1.36779 0
M  V30 11073 H 1116.95 0.986061 -3.98481 0
M  V30 11074 H 1115.61 1.29962 -2.85952 0
M  V30 11075 H 1114.8 0.320236 -5.02982 0
M  V30 11076 H 1114.4 -0.748221 -3.66439 0
M  V30 11077 H 1116.69 -0.124776 -6.77385 0
M  V30 11078 H 1117.64 -1.64475 -6.88733 0
M  V30 11079 H 1118.05 -0.442217 -5.62765 0
M  V30 11080 N 1117.44 1.42219 -0.679077 0
M  V30 11081 C 1118.67 2.05815 -0.211649 0
M  V30 11082 C 1119.09 1.51037 1.13284 0
M  V30 11083 O 1118.44 0.651894 1.7046 0
M  V30 11084 C 1118.49 3.61218 -0.142663 0
M  V30 11085 O 1118.22 4.13965 -1.43402 0
M  V30 11086 C 1119.72 4.41934 0.347746 0
M  V30 11087 H 1116.94 0.663215 -0.101914 0
M  V30 11088 H 1119.48 1.82282 -0.927017 0
M  V30 11089 H 1117.64 3.83848 0.52342 0
M  V30 11090 H 1118.05 5.07872 -1.31021 0
M  V30 11091 H 1119.52 5.50921 0.344916 0
M  V30 11092 H 1120 4.16832 1.38377 0
M  V30 11093 H 1120.61 4.24332 -0.286751 0
M  V30 11094 N 1118.92 0.422693 1.51826 0
M  V30 11095 C 1119.85 -0.43167 2.25098 0
M  V30 11096 C 1120.87 -0.998758 1.28564 0
M  V30 11097 O 1122.06 -0.89539 1.54418 0
M  V30 11098 C 1119.16 -1.61426 2.97985 0
M  V30 11099 C 1118.33 -1.16866 4.21499 0
M  V30 11100 C 1117.39 -2.2197 4.77091 0
M  V30 11101 O 1116.41 -1.82004 5.39317 0
M  V30 11102 N 1117.62 -3.54293 4.59844 0
M  V30 11103 H 1120.38 0.196255 2.99057 0
M  V30 11104 H 1117.94 0.25079 1.59946 0
M  V30 11105 H 1119.93 -2.31331 3.32066 0
M  V30 11106 H 1118.5 -2.14783 2.27128 0
M  V30 11107 H 1117.72 -0.297217 3.93078 0
M  V30 11108 H 1119.01 -0.848106 5.01682 0
M  V30 11109 H 1118.41 -3.89505 4.10247 0
M  V30 11110 H 1116.97 -4.20135 4.98327 0
M  V30 11111 N 1120.4 -1.5685 0.153553 0
M  V30 11112 C 1121.64 -1.98226 -0.498586 0
M  V30 11113 C 1122 -1.03671 -1.61605 0
M  V30 11114 O 1123.2 -1.34117 -2.32951 0
M  V30 11115 C 1121.48 -3.43539 -0.985678 0
M  V30 11116 S 1123.03 -4.0694 -1.6415 0
M  V30 11117 H 1119.85 -0.692533 -0.160993 0
M  V30 11118 H 1122.45 -1.93936 0.246817 0
M  V30 11119 H 1121.16 -4.10081 -0.161708 0
M  V30 11120 H 1120.69 -3.51557 -1.76555 0
M  V30 11121 H 1122.7 -4.0053 -2.929 0
M  V30 11122 N 1121.88 0.120221 -1.57141 0
M  V30 11123 C 1123.12 0.824472 -1.85941 0
M  V30 11124 C 1123.48 1.77552 -0.741152 0
M  V30 11125 O 1122.77 1.89842 0.258939 0
M  V30 11126 C 1122.97 1.61338 -3.18912 0
M  V30 11127 C 1122.79 0.740224 -4.43566 0
M  V30 11128 C 1121.56 0.39553 -5.0375 0
M  V30 11129 C 1123.76 0.0584053 -5.14267 0
M  V30 11130 N 1121.74 -0.488415 -6.11954 0
M  V30 11131 C 1123.12 -0.684591 -6.16209 0
M  V30 11132 C 1125.17 -0.0181409 -4.97897 0
M  V30 11133 C 1123.87 -1.49694 -7.03551 0
M  V30 11134 C 1125.9 -0.817313 -5.85725 0
M  V30 11135 C 1125.26 -1.54851 -6.87169 0
M  V30 11136 H 1121.36 0.278664 -0.730664 0
M  V30 11137 H 1123.94 0.0882789 -1.945 0
M  V30 11138 H 1122.12 2.32062 -3.11451 0
M  V30 11139 H 1123.85 2.26287 -3.35524 0
M  V30 11140 H 1120.6 0.737491 -4.67823 0
M  V30 11141 H 1121.03 -0.9222 -6.7069 0
M  V30 11142 H 1125.67 0.532815 -4.19429 0
M  V30 11143 H 1123.39 -2.05906 -7.81427 0
M  V30 11144 H 1126.97 -0.878884 -5.75123 0
M  V30 11145 H 1125.85 -2.15696 -7.53953 0
M  V30 11146 N 1123.36 1.52689 0.390367 0
M  V30 11147 C 1124.29 1.73622 1.49626 0
M  V30 11148 C 1125.3 0.616682 1.50668 0
M  V30 11149 O 1126.49 0.892341 1.54595 0
M  V30 11150 C 1123.59 1.77859 2.88477 0
M  V30 11151 C 1122.76 3.07146 3.11416 0
M  V30 11152 C 1121.82 3.02949 4.30242 0
M  V30 11153 O 1120.85 3.76816 4.26613 0
M  V30 11154 N 1122.05 2.22039 5.36357 0
M  V30 11155 H 1124.82 2.69037 1.32057 0
M  V30 11156 H 1122.38 1.51159 0.579867 0
M  V30 11157 H 1124.37 1.72559 3.66067 0
M  V30 11158 H 1122.94 0.898367 2.99413 0
M  V30 11159 H 1122.16 3.25947 2.21703 0
M  V30 11160 H 1123.45 3.92637 3.23595 0
M  V30 11161 H 1122.84 1.6149 5.4216 0
M  V30 11162 H 1121.4 2.2258 6.12619 0
M  V30 11163 N 1124.83 -0.648732 1.43629 0
M  V30 11164 C 1125.78 -1.75473 1.45579 0
M  V30 11165 C 1126.77 -1.57611 0.323683 0
M  V30 11166 O 1127.96 -1.67646 0.56778 0
M  V30 11167 C 1125.09 -3.14083 1.38589 0
M  V30 11168 C 1124.18 -3.37477 2.56846 0
M  V30 11169 N 1124.57 -3.31322 3.82177 0
M  V30 11170 C 1122.86 -3.68212 2.51666 0
M  V30 11171 C 1123.57 -3.54921 4.60875 0
M  V30 11172 N 1122.54 -3.76951 3.91675 0
M  V30 11173 H 1126.34 -1.69146 2.40347 0
M  V30 11174 H 1123.86 -0.850566 1.38344 0
M  V30 11175 H 1125.85 -3.93374 1.38068 0
M  V30 11176 H 1124.51 -3.21588 0.448442 0
M  V30 11177 H 1125.53 -3.10633 4.144 0
M  V30 11178 H 1122.2 -3.82806 1.66631 0
M  V30 11179 H 1123.59 -3.55904 5.69897 0
M  V30 11180 N 1126.31 -1.30234 -0.887518 0
M  V30 11181 C 1127.22 -1.18316 -2.02579 0
M  V30 11182 C 1128.24 -0.103658 -1.73691 0
M  V30 11183 O 1129.41 -0.3181 -1.98872 0
M  V30 11184 C 1126.48 -0.873222 -3.35523 0
M  V30 11185 C 1125.54 -2.03783 -3.7785 0
M  V30 11186 C 1124.77 -1.74258 -5.0445 0
M  V30 11187 O 1125 -0.669295 -5.6646 0
M  V30 11188 O 1123.93 -2.59423 -5.43124 0
M  V30 11189 H 1127.76 -2.13933 -2.15561 0
M  V30 11190 H 1125.34 -1.09803 -1.0131 0
M  V30 11191 H 1127.22 -0.715463 -4.15282 0
M  V30 11192 H 1125.9 0.053056 -3.23657 0
M  V30 11193 H 1124.81 -2.2509 -2.98806 0
M  V30 11194 H 1126.14 -2.94574 -3.94318 0
M  V30 11195 N 1127.79 1.09952 -1.12909 0
M  V30 11196 C 1129.2 1.63516 -0.901087 0
M  V30 11197 C 1129.55 1.87932 0.563547 0
M  V30 11198 O 1128.68 1.625 1.42908 0
M  V30 11199 C 1129.27 2.97054 -1.62924 0
M  V30 11200 C 1127.83 3.47464 -1.44725 0
M  V30 11201 C 1126.98 2.21979 -1.66194 0
M  V30 11202 H 1129.93 0.933858 -1.28315 0
M  V30 11203 H 1129.95 3.64757 -1.08318 0
M  V30 11204 H 1129.46 2.79251 -2.69519 0
M  V30 11205 H 1127.56 3.70402 -0.40409 0
M  V30 11206 H 1127.68 4.25254 -2.20671 0
M  V30 11207 H 1126.04 2.30368 -1.0864 0
M  V30 11208 H 1126.82 2.06702 -2.74097 0
M  V30 11209 N 1129.27 0.921757 1.27833 0
M  V30 11210 C 1130.18 0.421668 2.30779 0
M  V30 11211 C 1131.19 -0.494686 1.6682 0
M  V30 11212 O 1132.37 -0.378935 1.97803 0
M  V30 11213 C 1129.44 -0.322928 3.45193 0
M  V30 11214 C 1128.5 0.627618 4.24687 0
M  V30 11215 C 1127.73 -0.0815385 5.33638 0
M  V30 11216 O 1127.95 -1.30193 5.55343 0
M  V30 11217 O 1126.89 0.58725 5.99028 0
M  V30 11218 H 1130.71 1.2763 2.7558 0
M  V30 11219 H 1128.3 0.686877 1.32674 0
M  V30 11220 H 1130.18 -0.743145 4.14796 0
M  V30 11221 H 1128.85 -1.15326 3.02459 0
M  V30 11222 H 1127.76 1.09739 3.57642 0
M  V30 11223 H 1129.09 1.425 4.71121 0
M  V30 11224 N 1130.75 -1.41857 0.686609 0
M  V30 11225 C 1131.68 -2.33481 0.0298353 0
M  V30 11226 C 1132.66 -1.51329 -0.776756 0
M  V30 11227 O 1133.84 -1.79895 -0.731535 0
M  V30 11228 C 1130.97 -3.35065 -0.913707 0
M  V30 11229 C 1129.93 -4.2746 -0.214861 0
M  V30 11230 C 1129.25 -5.19346 -1.27215 0
M  V30 11231 C 1130.55 -5.14252 0.913367 0
M  V30 11232 H 1132.25 -2.8865 0.795067 0
M  V30 11233 H 1129.79 -1.38792 0.383785 0
M  V30 11234 H 1131.75 -3.98082 -1.38234 0
M  V30 11235 H 1130.47 -2.78226 -1.7105 0
M  V30 11236 H 1129.13 -3.65855 0.233651 0
M  V30 11237 H 1128.78 -4.58827 -2.06124 0
M  V30 11238 H 1128.48 -5.81996 -0.80961 0
M  V30 11239 H 1130 -5.85239 -1.74147 0
M  V30 11240 H 1131.41 -5.70887 0.525424 0
M  V30 11241 H 1129.81 -5.85796 1.30244 0
M  V30 11242 H 1130.88 -4.51949 1.75699 0
M  V30 11243 N 1132.22 -0.430739 -1.51599 0
M  V30 11244 C 1133.64 -0.0826902 -1.59386 0
M  V30 11245 C 1133.84 1.40729 -1.44214 0
M  V30 11246 O 1132.9 2.1765 -1.28002 0
M  V30 11247 C 1134.21 -0.59691 -2.94716 0
M  V30 11248 C 1135.76 -0.556772 -3.08008 0
M  V30 11249 C 1136.23 -1.04786 -4.45852 0
M  V30 11250 N 1137.72 -1.00557 -4.52153 0
M  V30 11251 C 1138.46 -1.35649 -5.57124 0
M  V30 11252 N 1137.95 -1.77994 -6.69545 0
M  V30 11253 N 1139.75 -1.27508 -5.47447 0
M  V30 11254 H 1131.9 -1.40027 -1.59707 0
M  V30 11255 H 1134.16 -0.576606 -0.752482 0
M  V30 11256 H 1133.87 -1.63914 -3.11167 0
M  V30 11257 H 1133.74 -0.0182342 -3.77196 0
M  V30 11258 H 1136.13 0.476457 -2.91228 0
M  V30 11259 H 1136.21 -1.17177 -2.27383 0
M  V30 11260 H 1135.85 -2.07952 -4.63377 0
M  V30 11261 H 1135.78 -0.409461 -5.25006 0
M  V30 11262 H 1138.27 -0.694518 -3.71463 0
M  V30 11263 H 1138.59 -2.03026 -7.45654 0
M  V30 11264 H 1136.93 -1.81916 -6.70769 0
M  V30 11265 H 1140.12 -0.942969 -4.58504 0
M  V30 11266 H 1140.3 -1.55185 -6.29143 0
M  V30 11267 N 1133.7 1.56767 -0.161869 0
M  V30 11268 C 1135.11 1.83265 0.356466 0
M  V30 11269 C 1135.46 1.08127 1.63716 0
M  V30 11270 O 1134.59 0.33127 2.13849 0
M  V30 11271 C 1135.18 3.32437 0.653521 0
M  V30 11272 C 1133.74 3.59465 1.11633 0
M  V30 11273 C 1132.89 2.76909 0.147204 0
M  V30 11274 H 1135.84 1.53926 -0.386308 0
M  V30 11275 H 1135.86 3.49401 1.50662 0
M  V30 11276 H 1135.37 3.87098 -0.278766 0
M  V30 11277 H 1133.48 3.10206 2.06404 0
M  V30 11278 H 1133.59 4.67853 1.03202 0
M  V30 11279 H 1131.95 2.46457 0.642739 0
M  V30 11280 H 1132.74 3.34346 -0.778938 0
M  V30 11281 N 1135.18 -0.111886 1.57202 0
M  V30 11282 C 1136.41 -0.836317 1.89791 0
M  V30 11283 C 1136.83 -1.72304 0.754513 0
M  V30 11284 O 1136.19 -1.78889 -0.294672 0
M  V30 11285 C 1136.24 -1.63971 3.21164 0
M  V30 11286 O 1135.34 -2.74726 3.0757 0
M  V30 11287 H 1134.68 -0.230833 0.622585 0
M  V30 11288 H 1137.21 -0.0921478 2.04392 0
M  V30 11289 H 1137.22 -2.02746 3.54059 0
M  V30 11290 H 1135.9 -0.98882 4.03974 0
M  V30 11291 H 1134.47 -2.39101 2.86156 0
M  V30 11292 N 1136.66 -1.52894 -0.382264 0
M  V30 11293 C 1137.91 -1.68266 -1.12663 0
M  V30 11294 C 1138.23 -0.425974 -1.89778 0
M  V30 11295 O 1137.49 0.59178 -1.86538 0
M  V30 11296 C 1137.79 -2.87309 -2.12576 0
M  V30 11297 C 1137.45 -4.24484 -1.52067 0
M  V30 11298 C 1136.12 -4.6179 -1.35292 0
M  V30 11299 C 1138.47 -5.09858 -1.08138 0
M  V30 11300 C 1135.8 -5.82123 -0.731449 0
M  V30 11301 C 1138.15 -6.30822 -0.473986 0
M  V30 11302 C 1136.81 -6.66854 -0.293585 0
M  V30 11303 H 1136.08 -0.615728 -0.412262 0
M  V30 11304 H 1138.73 -1.8705 -0.410425 0
M  V30 11305 H 1137.03 -2.62968 -2.90439 0
M  V30 11306 H 1138.73 -2.96397 -2.70092 0
M  V30 11307 H 1135.32 -3.951 -1.66114 0
M  V30 11308 H 1139.5 -4.816 -1.19898 0
M  V30 11309 H 1134.76 -6.08643 -0.579938 0
M  V30 11310 H 1138.93 -6.96287 -0.125324 0
M  V30 11311 H 1136.56 -7.59962 0.190054 0
M  V30 11312 N 1138.14 0.641106 -1.43971 0
M  V30 11313 C 1139.1 1.73539 -1.49723 0
M  V30 11314 C 1140.1 1.56235 -0.380438 0
M  V30 11315 O 1141.29 1.61912 -0.642673 0
M  V30 11316 C 1138.42 3.1253 -1.36153 0
M  V30 11317 H 1139.62 1.69816 -2.47189 0
M  V30 11318 H 1137.17 0.853867 -1.30915 0
M  V30 11319 H 1137.9 3.21856 -0.39742 0
M  V30 11320 H 1137.69 3.26496 -2.17124 0
M  V30 11321 H 1139.18 3.92303 -1.43138 0
M  V30 11322 N 1139.62 1.30703 0.880598 0
M  V30 11323 C 1140.84 1.22843 1.67106 0
M  V30 11324 C 1141.27 -0.204788 1.86982 0
M  V30 11325 O 1140.62 -1.14716 1.40392 0
M  V30 11326 C 1140.67 1.96685 3.02237 0
M  V30 11327 O 1139.78 1.29693 3.91476 0
M  V30 11328 H 1139.12 0.424661 0.51045 0
M  V30 11329 H 1141.65 1.72596 1.09871 0
M  V30 11330 H 1141.66 2.05874 3.52249 0
M  V30 11331 H 1140.33 3.00919 2.8709 0
M  V30 11332 H 1138.91 1.28886 3.49918 0
M  V30 11333 N 1141.09 -1.09351 1.1349 0
M  V30 11334 C 1142.34 -1.80915 0.89177 0
M  V30 11335 C 1142.66 -1.86688 -0.5837 0
M  V30 11336 O 1143.86 -2.54568 -0.943788 0
M  V30 11337 C 1142.32 -3.25009 1.54587 0
M  V30 11338 C 1141.93 -3.27501 3.05691 0
M  V30 11339 C 1143.67 -4.01323 1.38346 0
M  V30 11340 C 1141.58 -4.66123 3.63983 0
M  V30 11341 H 1140.51 -0.677961 0.329978 0
M  V30 11342 H 1143.16 -1.22893 1.3627 0
M  V30 11343 H 1141.54 -3.83098 1.0026 0
M  V30 11344 H 1142.71 -2.79174 3.66604 0
M  V30 11345 H 1141.03 -2.64677 3.21457 0
M  V30 11346 H 1143.63 -5.03739 1.79307 0
M  V30 11347 H 1143.97 -4.15003 0.328404 0
M  V30 11348 H 1144.5 -3.49679 1.89656 0
M  V30 11349 H 1141.24 -4.57646 4.69298 0
M  V30 11350 H 1140.76 -5.14772 3.07848 0
M  V30 11351 H 1142.44 -5.35097 3.63703 0
M  V30 11352 N 1142.57 -0.928524 -1.27343 0
M  V30 11353 C 1143.5 -0.445627 -2.29208 0
M  V30 11354 C 1144.48 0.494508 -1.62753 0
M  V30 11355 O 1145.67 0.399082 -1.90055 0
M  V30 11356 C 1142.8 0.301684 -3.45987 0
M  V30 11357 C 1141.75 -0.550695 -4.24442 0
M  V30 11358 C 1141.08 0.325833 -5.33706 0
M  V30 11359 C 1142.38 -1.81559 -4.89728 0
M  V30 11360 H 1144.07 -1.29696 -2.69851 0
M  V30 11361 H 1141.62 -0.625085 -1.29725 0
M  V30 11362 H 1143.57 0.650455 -4.1635 0
M  V30 11363 H 1142.29 1.18705 -3.04264 0
M  V30 11364 H 1140.95 -0.882185 -3.55827 0
M  V30 11365 H 1140.6 1.21018 -4.88225 0
M  V30 11366 H 1140.3 -0.240994 -5.87106 0
M  V30 11367 H 1141.83 0.670156 -6.06911 0
M  V30 11368 H 1143.24 -1.53483 -5.52373 0
M  V30 11369 H 1141.64 -2.32598 -5.53189 0
M  V30 11370 H 1142.71 -2.53461 -4.13383 0
M  V30 11371 N 1144.05 1.41491 -0.694123 0
M  V30 11372 C 1144.96 2.34583 -0.0283414 0
M  V30 11373 C 1145.98 1.5615 0.767662 0
M  V30 11374 O 1147.15 1.88637 0.705556 0
M  V30 11375 C 1144.22 3.34876 0.897726 0
M  V30 11376 C 1143.28 4.29197 0.0940905 0
M  V30 11377 C 1142.51 5.24699 0.976051 0
M  V30 11378 O 1142.73 5.25613 2.21556 0
M  V30 11379 O 1141.67 6.00387 0.426503 0
M  V30 11380 H 1145.49 2.93092 -0.795656 0
M  V30 11381 H 1143.08 1.4232 -0.45445 0
M  V30 11382 H 1144.96 3.96438 1.4288 0
M  V30 11383 H 1143.64 2.78812 1.64456 0
M  V30 11384 H 1142.54 3.70988 -0.481552 0
M  V30 11385 H 1143.88 4.88355 -0.614045 0
M  V30 11386 N 1145.53 0.438773 1.51369 0
M  V30 11387 C 1146.94 0.0911416 1.5934 0
M  V30 11388 C 1147.14 -1.39962 1.44958 0
M  V30 11389 O 1146.2 -2.16968 1.29155 0
M  V30 11390 C 1147.51 0.612531 2.94395 0
M  V30 11391 C 1149.06 0.573098 3.07709 0
M  V30 11392 C 1149.54 1.07149 4.4529 0
M  V30 11393 N 1151.03 1.02953 4.51614 0
M  V30 11394 C 1151.76 1.38602 5.56397 0
M  V30 11395 N 1151.26 1.81543 6.68591 0
M  V30 11396 N 1153.05 1.30409 5.46763 0
M  V30 11397 H 1145.2 1.40872 1.58962 0
M  V30 11398 H 1147.46 0.580589 0.749414 0
M  V30 11399 H 1147.17 1.65562 3.10294 0
M  V30 11400 H 1147.04 0.0382375 3.77181 0
M  V30 11401 H 1149.43 -0.461006 2.91477 0
M  V30 11402 H 1149.51 1.18381 2.26759 0
M  V30 11403 H 1149.16 2.10406 4.62268 0
M  V30 11404 H 1149.09 0.437297 5.24781 0
M  V30 11405 H 1151.58 0.714208 3.7109 0
M  V30 11406 H 1151.89 2.06977 7.44567 0
M  V30 11407 H 1150.24 1.8547 6.69795 0
M  V30 11408 H 1153.43 0.967272 4.57997 0
M  V30 11409 H 1153.6 1.5852 6.28312 0
M  V30 11410 N 1147.01 -1.56678 0.170181 0
M  V30 11411 C 1147.94 -2.20916 -0.756213 0
M  V30 11412 C 1148.92 -1.16442 -1.23997 0
M  V30 11413 O 1150.1 -1.44867 -1.29333 0
M  V30 11414 C 1147.23 -2.84901 -1.98617 0
M  V30 11415 C 1146.19 -3.95403 -1.63831 0
M  V30 11416 C 1145.51 -4.46432 -2.94282 0
M  V30 11417 C 1146.81 -5.15051 -0.867195 0
M  V30 11418 H 1148.51 -2.98585 -0.220776 0
M  V30 11419 H 1146.05 -1.43619 -0.104748 0
M  V30 11420 H 1148 -3.28514 -2.63926 0
M  V30 11421 H 1146.73 -2.04598 -2.54572 0
M  V30 11422 H 1145.39 -3.52444 -1.00891 0
M  V30 11423 H 1145.04 -3.62923 -3.48276 0
M  V30 11424 H 1144.74 -5.20979 -2.71762 0
M  V30 11425 H 1146.26 -4.92731 -3.60622 0
M  V30 11426 H 1147.67 -5.55363 -1.42285 0
M  V30 11427 H 1146.07 -5.95507 -0.741065 0
M  V30 11428 H 1147.14 -4.84707 0.136693 0
M  V30 11429 N 1148.48 0.103547 -1.57259 0
M  V30 11430 C 1149.42 1.15225 -1.98131 0
M  V30 11431 C 1150.43 1.36793 -0.882692 0
M  V30 11432 O 1151.62 1.35595 -1.16088 0
M  V30 11433 C 1148.72 2.50941 -2.27776 0
M  V30 11434 C 1147.89 2.49765 -3.59077 0
M  V30 11435 C 1146.95 3.67344 -3.76756 0
M  V30 11436 O 1145.98 3.50221 -4.48702 0
M  V30 11437 N 1147.18 4.86504 -3.16692 0
M  V30 11438 H 1149.94 0.804448 -2.88702 0
M  V30 11439 H 1147.5 0.292636 -1.59233 0
M  V30 11440 H 1149.5 3.28186 -2.36804 0
M  V30 11441 H 1148.07 2.77843 -1.43255 0
M  V30 11442 H 1147.29 1.58125 -3.61096 0
M  V30 11443 H 1148.57 2.4605 -4.4535 0
M  V30 11444 H 1147.97 5.03319 -2.58236 0
M  V30 11445 H 1146.53 5.61371 -3.31218 0
M  V30 11446 N 1149.96 1.53094 0.37415 0
M  V30 11447 C 1151.19 1.72508 1.13687 0
M  V30 11448 C 1151.6 0.449922 1.83773 0
M  V30 11449 O 1150.94 -0.586391 1.74089 0
M  V30 11450 C 1151 2.82965 2.21746 0
M  V30 11451 C 1150.67 4.23599 1.71501 0
M  V30 11452 C 1151.67 5.06245 1.1837 0
M  V30 11453 C 1149.35 4.69978 1.77273 0
M  V30 11454 C 1151.34 6.33357 0.71679 0
M  V30 11455 C 1149.03 5.9707 1.30194 0
M  V30 11456 C 1150.03 6.7859 0.774856 0
M  V30 11457 O 1149.72 8.03298 0.310981 0
M  V30 11458 H 1149.45 0.580611 0.346218 0
M  V30 11459 H 1152 2.00596 0.441614 0
M  V30 11460 H 1150.23 2.5033 2.9474 0
M  V30 11461 H 1151.92 2.90638 2.83345 0
M  V30 11462 H 1152.69 4.71591 1.13256 0
M  V30 11463 H 1148.57 4.06605 2.17241 0
M  V30 11464 H 1152.11 6.96934 0.30471 0
M  V30 11465 H 1148.01 6.31225 1.34999 0
M  V30 11466 H 1148.78 8.17364 0.431098 0
M  V30 11467 N 1151.44 -0.633461 1.44309 0
M  V30 11468 C 1152.68 -1.40465 1.48489 0
M  V30 11469 C 1153.04 -1.91664 0.113519 0
M  V30 11470 O 1154.24 -2.68783 0.0299948 0
M  V30 11471 C 1152.52 -2.54041 2.51392 0
M  V30 11472 S 1154.07 -3.42256 2.74602 0
M  V30 11473 H 1150.89 -0.479228 0.525225 0
M  V30 11474 H 1153.49 -0.733561 1.81216 0
M  V30 11475 H 1152.2 -2.14734 3.49739 0
M  V30 11476 H 1151.73 -3.25979 2.2023 0
M  V30 11477 H 1153.74 -4.51409 2.06021 0
M  V30 11478 N 1152.92 -1.31168 -0.873655 0
M  V30 11479 C 1154.15 -1.23595 -1.65927 0
M  V30 11480 C 1154.56 0.199349 -1.87745 0
M  V30 11481 O 1153.92 1.13013 -1.43298 0
M  V30 11482 C 1153.97 -1.97268 -3.02932 0
M  V30 11483 O 1153.69 -3.35196 -2.82091 0
M  V30 11484 C 1155.19 -1.9649 -3.97374 0
M  V30 11485 H 1152.41 -0.427228 -0.517414 0
M  V30 11486 H 1154.96 -1.72983 -1.09074 0
M  V30 11487 H 1153.11 -1.51651 -3.56484 0
M  V30 11488 H 1153.52 -3.7266 -3.69087 0
M  V30 11489 H 1155 -2.52557 -4.90835 0
M  V30 11490 H 1155.48 -0.946525 -4.28879 0
M  V30 11491 H 1156.08 -2.4197 -3.49758 0
M  V30 11492 N 1154.4 1.08748 -1.14068 0
M  V30 11493 C 1155.33 2.1544 -0.782199 0
M  V30 11494 C 1156.34 1.61575 0.199301 0
M  V30 11495 O 1157.53 1.78487 -0.0219044 0
M  V30 11496 C 1154.63 3.38611 -0.13983 0
M  V30 11497 C 1153.8 4.2187 -1.15518 0
M  V30 11498 C 1152.86 5.23451 -0.537216 0
M  V30 11499 O 1151.89 5.56424 -1.1992 0
M  V30 11500 N 1153.09 5.76413 0.6876 0
M  V30 11501 H 1155.86 2.46798 -1.70032 0
M  V30 11502 H 1153.42 1.24527 -1.03463 0
M  V30 11503 H 1155.41 4.03688 0.285999 0
M  V30 11504 H 1153.98 3.05084 0.681357 0
M  V30 11505 H 1153.2 3.52825 -1.75806 0
M  V30 11506 H 1154.49 4.74318 -1.84119 0
M  V30 11507 H 1153.88 5.51851 1.24406 0
M  V30 11508 H 1152.44 6.43189 1.05599 0
M  V30 11509 N 1155.87 0.935264 1.26849 0
M  V30 11510 C 1157.15 0.497797 1.8916 0
M  V30 11511 C 1157.53 -1.02441 1.84578 0
M  V30 11512 O 1156.88 -1.88185 1.29609 0
M  V30 11513 C 1157.09 1.05244 3.32753 0
M  V30 11514 C 1158.44 1.11751 4.0963 0
M  V30 11515 O 1159.46 1.0026 3.41799 0
M  V30 11516 O 1158.32 1.29548 5.30923 0
M  V30 11517 H 1155.41 0.161322 0.811113 0
M  V30 11518 H 1157.96 1.02744 1.35062 0
M  V30 11519 H 1156.73 2.09617 3.30419 0
M  V30 11520 H 1156.36 0.504889 3.94381 0
M  V30 11521 N 1157.35 -1.41121 0.701616 0
M  V30 11522 C 1158.76 -1.84122 0.309208 0
M  V30 11523 C 1159.11 -1.58695 -1.15371 0
M  V30 11524 O 1158.24 -1.06053 -1.88631 0
M  V30 11525 C 1158.83 -3.34233 0.554429 0
M  V30 11526 C 1157.39 -3.7578 0.215876 0
M  V30 11527 C 1156.54 -2.6447 0.833729 0
M  V30 11528 H 1159.49 -1.30587 0.901822 0
M  V30 11529 H 1159.51 -3.8005 -0.18491 0
M  V30 11530 H 1159.02 -3.52707 1.61923 0
M  V30 11531 H 1157.13 -3.62905 -0.844421 0
M  V30 11532 H 1157.24 -4.74319 0.675118 0
M  V30 11533 H 1155.6 -2.5334 0.262851 0
M  V30 11534 H 1156.39 -2.85761 1.90252 0
M  V30 11535 N 1158.83 -0.446794 -1.51134 0
M  V30 11536 C 1160.11 0.176892 -1.94798 0
M  V30 11537 C 1160.49 1.59229 -1.38598 0
M  V30 11538 O 1159.84 2.21097 -0.576905 0
M  V30 11539 C 1160.05 0.145 -3.48699 0
M  V30 11540 C 1161.39 0.345917 -4.23189 0
M  V30 11541 O 1162.42 0.222691 -3.55503 0
M  V30 11542 O 1161.28 0.592112 -5.43283 0
M  V30 11543 H 1158.37 0.12486 -0.81752 0
M  V30 11544 H 1160.92 -0.505453 -1.61998 0
M  V30 11545 H 1159.69 -0.844156 -3.82086 0
M  V30 11546 H 1159.31 0.869851 -3.87968 0
M  V30 11547 N 1160.31 1.56586 -0.178487 0
M  V30 11548 C 1161.55 1.9739 0.465306 0
M  V30 11549 C 1161.89 1.06474 1.6241 0
M  V30 11550 O 1161.16 0.113316 1.9417 0
M  V30 11551 C 1161.45 3.47577 0.941408 0
M  V30 11552 C 1161.3 4.49271 -0.218054 0
M  V30 11553 C 1162.62 4.01038 1.81263 0
M  V30 11554 H 1159.74 0.717676 0.167663 0
M  V30 11555 H 1162.38 1.88128 -0.266067 0
M  V30 11556 H 1160.53 3.556 1.56463 0
M  V30 11557 H 1162.2 4.53301 -0.855332 0
M  V30 11558 H 1160.44 4.24936 -0.872441 0
M  V30 11559 H 1161.11 5.51776 0.157315 0
M  V30 11560 H 1163.59 3.9569 1.28718 0
M  V30 11561 H 1162.47 5.06526 2.11476 0
M  V30 11562 H 1162.73 3.45288 2.76096 0
M  V30 11563 N 1161.79 -0.095206 1.57312 0
M  V30 11564 C 1162.72 -1.11627 2.05089 0
M  V30 11565 C 1163.7 -1.41782 0.939787 0
M  V30 11566 O 1164.88 -1.51813 1.21105 0
M  V30 11567 C 1162.01 -2.43618 2.47523 0
M  V30 11568 C 1160.97 -2.27872 3.62296 0
M  V30 11569 C 1160.29 -3.65038 3.90706 0
M  V30 11570 C 1161.59 -1.71936 4.93189 0
M  V30 11571 H 1163.29 -0.718795 2.90644 0
M  V30 11572 H 1160.83 -0.344315 1.39823 0
M  V30 11573 H 1162.79 -3.1532 2.79556 0
M  V30 11574 H 1161.51 -2.85301 1.58968 0
M  V30 11575 H 1160.17 -1.58615 3.3051 0
M  V30 11576 H 1159.82 -4.04249 2.99319 0
M  V30 11577 H 1159.52 -3.55349 4.67976 0
M  V30 11578 H 1161.04 -4.38208 4.25213 0
M  V30 11579 H 1162.45 -2.33479 5.23603 0
M  V30 11580 H 1160.85 -1.73006 5.74621 0
M  V30 11581 H 1161.92 -0.678789 4.80125 0
M  V30 11582 N 1163.26 -1.53291 -0.366026 0
M  V30 11583 C 1164.21 -1.80367 -1.4687 0
M  V30 11584 C 1165.21 -0.672767 -1.55468 0
M  V30 11585 O 1166.41 -0.8557 -1.5836 0
M  V30 11586 H 1162.79 -0.571076 -0.48926 0
M  V30 11587 H 1164.76 -2.72661 -1.21237 0
M  V30 11588 C 1163.51 -2.01008 -2.8371 0
M  V30 11589 H 1162.83 -2.87468 -2.77853 0
M  V30 11590 H 1164.27 -2.2393 -3.60043 0
M  V30 11591 C 1162.73 -0.789054 -3.27529 0
M  V30 11592 O 1163.26 0.0224712 -4.01694 0
M  V30 11593 N 1161.47 -0.612621 -2.84069 0
M  V30 11594 H 1161.01 -1.27416 -2.23881 0
M  V30 11595 H 1160.97 0.202943 -3.13744 0
M  V30 11596 N 1164.74 0.6258 -1.44643 0
M  V30 11597 C 1165.97 1.41726 -1.51422 0
M  V30 11598 C 1166.39 1.87565 -0.14181 0
M  V30 11599 O 1165.75 1.59059 0.870054 0
M  V30 11600 C 1165.8 2.61012 -2.48807 0
M  V30 11601 O 1164.9 3.61029 -1.99328 0
M  V30 11602 H 1164.24 0.423855 -0.511119 0
M  V30 11603 H 1166.77 0.763336 -1.89827 0
M  V30 11604 H 1166.78 3.08489 -2.67018 0
M  V30 11605 H 1165.46 2.26995 -3.48491 0
M  V30 11606 H 1164.04 3.20325 -1.90909 0
M  V30 11607 N 1166.22 1.31629 0.866686 0
M  V30 11608 C 1167.15 1.22151 1.99001 0
M  V30 11609 C 1168.13 0.107972 1.69757 0
M  V30 11610 O 1169.32 0.293125 1.91975 0
M  V30 11611 C 1166.45 0.93144 3.34577 0
M  V30 11612 C 1165.4 2.0049 3.78137 0
M  V30 11613 C 1164.73 1.56747 5.11209 0
M  V30 11614 C 1166.03 3.41844 3.94892 0
M  V30 11615 H 1167.72 2.16132 2.0719 0
M  V30 11616 H 1165.27 1.04051 0.995463 0
M  V30 11617 H 1167.22 0.851719 4.12703 0
M  V30 11618 H 1165.94 -0.0440289 3.2657 0
M  V30 11619 H 1164.6 2.07457 3.02253 0
M  V30 11620 H 1164.25 0.579767 4.99648 0
M  V30 11621 H 1163.95 2.28562 5.41326 0
M  V30 11622 H 1165.47 1.50188 5.91841 0
M  V30 11623 H 1166.89 3.37534 4.63405 0
M  V30 11624 H 1165.29 4.11905 4.36411 0
M  V30 11625 H 1166.36 3.82389 2.98172 0
M  V30 11626 N 1167.7 -1.08142 1.14644 0
M  V30 11627 C 1168.63 -2.17139 0.858667 0
M  V30 11628 C 1169.61 -1.69064 -0.187452 0
M  V30 11629 O 1170.8 -1.94151 -0.0435458 0
M  V30 11630 C 1167.93 -3.45648 0.33834 0
M  V30 11631 C 1166.88 -4.07129 1.32021 0
M  V30 11632 C 1166.21 -5.30623 0.659075 0
M  V30 11633 C 1167.51 -4.48095 2.68343 0
M  V30 11634 H 1169.2 -2.41468 1.77012 0
M  V30 11635 H 1166.75 -1.16052 0.852523 0
M  V30 11636 H 1168.7 -4.21216 0.124611 0
M  V30 11637 H 1167.42 -3.2088 -0.608553 0
M  V30 11638 H 1166.08 -3.33596 1.52016 0
M  V30 11639 H 1165.73 -5.02142 -0.293711 0
M  V30 11640 H 1165.43 -5.72714 1.31427 0
M  V30 11641 H 1166.95 -6.08903 0.454933 0
M  V30 11642 H 1168.37 -5.14828 2.5224 0
M  V30 11643 H 1166.76 -5.01113 3.30161 0
M  V30 11644 H 1167.83 -3.59852 3.25015 0
M  V30 11645 N 1169.18 -0.941978 -1.26351 0
M  V30 11646 C 1170.59 -0.632522 -1.75659 0
M  V30 11647 C 1170.94 0.852287 -1.76722 0
M  V30 11648 O 1170.06 1.66701 -1.37985 0
M  V30 11649 C 1170.66 -1.14145 -3.18993 0
M  V30 11650 C 1169.22 -0.882391 -3.65911 0
M  V30 11651 C 1168.37 -1.29189 -2.45368 0
M  V30 11652 H 1171.32 -1.12019 -1.12416 0
M  V30 11653 H 1171.34 -0.495639 -3.77258 0
M  V30 11654 H 1170.85 -2.22213 -3.18187 0
M  V30 11655 H 1168.95 0.183873 -3.72146 0
M  V30 11656 H 1169.06 -1.50996 -4.54683 0
M  V30 11657 H 1167.43 -0.710316 -2.44595 0
M  V30 11658 H 1168.21 -2.38152 -2.47262 0
M  V30 11659 N 1170.66 1.40747 -0.709091 0
M  V30 11660 C 1171.59 2.282 -0.00156906 0
M  V30 11661 C 1172.57 1.42981 0.774279 0
M  V30 11662 O 1173.75 1.724 0.762276 0
M  V30 11663 C 1170.88 3.23441 1.00517 0
M  V30 11664 C 1169.92 4.25291 0.320904 0
M  V30 11665 S 1170.76 5.27069 -0.946518 0
M  V30 11666 C 1171.91 6.25873 0.0582856 0
M  V30 11667 H 1172.15 2.87859 -0.743271 0
M  V30 11668 H 1169.68 1.46085 -0.499866 0
M  V30 11669 H 1171.64 3.78841 1.58082 0
M  V30 11670 H 1170.3 2.62851 1.71954 0
M  V30 11671 H 1169.49 4.92255 1.08173 0
M  V30 11672 H 1169.09 3.73557 -0.18202 0
M  V30 11673 H 1171.38 6.71398 0.907233 0
M  V30 11674 H 1172.33 7.05739 -0.577787 0
M  V30 11675 H 1172.74 5.62942 0.419108 0
M  V30 11676 N 1172.13 0.454803 1.50895 0
M  V30 11677 C 1173.04 -0.353495 2.31921 0
M  V30 11678 C 1174.06 -1.01136 1.41589 0
M  V30 11679 O 1175.24 -1.00291 1.74653 0
M  V30 11680 C 1172.3 -1.43032 3.15821 0
M  V30 11681 C 1171.36 -0.790763 4.21954 0
M  V30 11682 C 1170.59 -1.81628 5.01843 0
M  V30 11683 O 1170.82 -3.04078 4.8259 0
M  V30 11684 O 1169.75 -1.39713 5.8546 0
M  V30 11685 H 1173.58 0.308463 3.02129 0
M  V30 11686 H 1171.16 0.216971 1.47816 0
M  V30 11687 H 1173.04 -2.05444 3.67927 0
M  V30 11688 H 1171.72 -2.07605 2.48358 0
M  V30 11689 H 1170.63 -0.128127 3.73881 0
M  V30 11690 H 1171.96 -0.188251 4.9184 0
M  V30 11691 N 1173.61 -1.56489 0.186789 0
M  V30 11692 C 1174.54 -2.21705 -0.732739 0
M  V30 11693 C 1175.52 -1.17751 -1.22755 0
M  V30 11694 O 1176.71 -1.46231 -1.27789 0
M  V30 11695 C 1173.84 -2.86992 -1.95584 0
M  V30 11696 C 1172.79 -3.97118 -1.59628 0
M  V30 11697 C 1172.12 -4.49529 -2.89531 0
M  V30 11698 C 1173.42 -5.15941 -0.812518 0
M  V30 11699 H 1175.11 -2.98802 -0.189094 0
M  V30 11700 H 1172.66 -1.43722 -0.0895099 0
M  V30 11701 H 1174.61 -3.31295 -2.60426 0
M  V30 11702 H 1173.33 -2.07287 -2.52388 0
M  V30 11703 H 1171.99 -3.53494 -0.971475 0
M  V30 11704 H 1171.64 -3.66596 -3.44407 0
M  V30 11705 H 1171.34 -5.23832 -2.66221 0
M  V30 11706 H 1172.87 -4.96528 -3.55376 0
M  V30 11707 H 1174.28 -5.56841 -1.36386 0
M  V30 11708 H 1172.68 -5.96259 -0.677862 0
M  V30 11709 H 1173.75 -4.84535 0.188095 0
M  V30 11710 N 1175.09 0.086862 -1.5736 0
M  V30 11711 C 1176.34 0.787281 -1.86135 0
M  V30 11712 C 1176.66 1.78866 -0.776667 0
M  V30 11713 O 1175.93 1.94915 0.19625 0
M  V30 11714 H 1174.51 0.293744 -0.686821 0
M  V30 11715 H 1177.17 0.0665326 -1.94786 0
M  V30 11716 H 1176.27 1.3128 -2.83147 0
M  V30 11717 N 1176.57 1.53483 0.357892 0
M  V30 11718 C 1177.98 1.61641 0.934289 0
M  V30 11719 C 1178.33 0.488655 1.90017 0
M  V30 11720 O 1177.45 -0.38378 2.1297 0
M  V30 11721 C 1178.05 2.92987 1.7013 0
M  V30 11722 C 1176.61 3.03456 2.22692 0
M  V30 11723 C 1175.76 2.56992 1.04165 0
M  V30 11724 H 1178.71 1.58112 0.136452 0
M  V30 11725 H 1178.73 2.81221 2.5631 0
M  V30 11726 H 1178.24 3.75047 0.998056 0
M  V30 11727 H 1176.34 2.25999 2.96235 0
M  V30 11728 H 1176.45 4.08673 2.50046 0
M  V30 11729 H 1174.82 2.12052 1.41088 0
M  V30 11730 H 1175.6 3.41477 0.353272 0
M  V30 11731 N 1178.05 -0.61812 1.44973 0
M  V30 11732 C 1179.27 -1.40429 1.51945 0
M  V30 11733 C 1179.69 -1.88215 0.148556 0
M  V30 11734 O 1179.05 -1.61603 -0.847978 0
M  V30 11735 C 1179.1 -2.61588 2.49507 0
M  V30 11736 O 1178.82 -2.15791 3.81269 0
M  V30 11737 C 1180.32 -3.5457 2.66074 0
M  V30 11738 H 1177.54 -0.43023 0.514921 0
M  V30 11739 H 1180.08 -0.754791 1.90061 0
M  V30 11740 H 1178.24 -3.22602 2.14492 0
M  V30 11741 H 1178.65 -2.94434 4.34061 0
M  V30 11742 H 1180.13 -4.36155 3.38338 0
M  V30 11743 H 1180.6 -4.04227 1.71746 0
M  V30 11744 H 1181.21 -2.99416 3.02043 0
M  V30 11745 N 1179.52 -1.32087 -0.859693 0
M  V30 11746 C 1180.93 -1.20107 -1.42938 0
M  V30 11747 C 1181.29 0.188411 -1.95293 0
M  V30 11748 O 1180.41 1.08683 -1.87128 0
M  V30 11749 C 1181.01 -2.17436 -2.59821 0
M  V30 11750 C 1179.56 -2.09359 -3.12803 0
M  V30 11751 C 1178.71 -2.06086 -1.85537 0
M  V30 11752 H 1181.66 -1.43989 -0.667302 0
M  V30 11753 H 1181.68 -1.76996 -3.36828 0
M  V30 11754 H 1181.2 -3.18555 -2.21685 0
M  V30 11755 H 1179.3 -1.1147 -3.55535 0
M  V30 11756 H 1179.41 -2.98947 -3.74389 0
M  V30 11757 H 1177.77 -1.51251 -2.04928 0
M  V30 11758 H 1178.56 -3.08978 -1.49625 0
M  V30 11759 N 1181 1.07532 -1.15215 0
M  V30 11760 C 1181.91 2.18222 -0.861192 0
M  V30 11761 C 1182.93 1.73246 0.161798 0
M  V30 11762 O 1184.1 2.01397 -0.0118386 0
M  V30 11763 C 1181.17 3.44902 -0.352601 0
M  V30 11764 C 1180.23 4.04455 -1.43926 0
M  V30 11765 C 1179.46 5.25089 -0.954841 0
M  V30 11766 O 1179.69 5.70048 0.200294 0
M  V30 11767 O 1178.62 5.76269 -1.73774 0
M  V30 11768 H 1182.45 2.45599 -1.78648 0
M  V30 11769 H 1180.03 1.16835 -0.93112 0
M  V30 11770 H 1181.91 4.21333 -0.0753347 0
M  V30 11771 H 1180.59 3.19082 0.544841 0
M  V30 11772 H 1179.49 3.29573 -1.7701 0
M  V30 11773 H 1180.83 4.34544 -2.31155 0
M  V30 11774 N 1182.48 0.948665 1.2585 0
M  V30 11775 C 1183.39 0.470525 2.29833 0
M  V30 11776 C 1184.41 -0.45919 1.67832 0
M  V30 11777 O 1185.58 -0.336893 1.98562 0
M  V30 11778 C 1182.65 -0.249635 3.458 0
M  V30 11779 C 1181.71 0.717559 4.23261 0
M  V30 11780 C 1180.94 0.0316724 5.33691 0
M  V30 11781 O 1181.16 -1.18384 5.5798 0
M  V30 11782 O 1180.1 0.71418 5.97648 0
M  V30 11783 H 1183.92 1.33447 2.72811 0
M  V30 11784 H 1181.51 0.714864 1.31187 0
M  V30 11785 H 1183.39 -0.654993 4.16279 0
M  V30 11786 H 1182.07 -1.08885 3.04837 0
M  V30 11787 H 1180.97 1.17301 3.55234 0
M  V30 11788 H 1182.31 1.52461 4.67992 0
M  V30 11789 N 1183.96 -1.40369 0.716545 0
M  V30 11790 C 1184.87 -2.34508 0.065658 0
M  V30 11791 C 1185.88 -1.57352 -0.742723 0
M  V30 11792 O 1187.06 -1.89735 -0.675456 0
M  V30 11793 C 1184.13 -3.36262 -0.844337 0
M  V30 11794 C 1183.19 -4.29292 -0.0257971 0
M  V30 11795 C 1182.42 -5.26185 -0.892452 0
M  V30 11796 O 1182.64 -5.29071 -2.13166 0
M  V30 11797 O 1181.58 -6.0099 -0.330933 0
M  V30 11798 H 1185.4 -2.91789 0.842184 0
M  V30 11799 H 1182.99 -1.41579 0.477034 0
M  V30 11800 H 1184.87 -3.98661 -1.36555 0
M  V30 11801 H 1183.54 -2.81393 -1.59999 0
M  V30 11802 H 1182.45 -3.70175 0.540512 0
M  V30 11803 H 1183.78 -4.87316 0.69166 0
M  V30 11804 N 1185.44 -0.462799 -1.50652 0
M  V30 11805 C 1186.68 0.0948568 -2.01877 0
M  V30 11806 C 1187.01 1.4096 -1.34741 0
M  V30 11807 O 1186.28 1.89671 -0.49006 0
M  V30 11808 H 1184.86 0.0380453 -0.746031 0
M  V30 11809 H 1187.52 -0.611327 -1.85064 0
M  V30 11810 H 1186.61 0.252378 -3.11078 0
M  V30 11811 N 1186.91 1.56388 -0.195085 0
M  V30 11812 C 1188.14 2.01963 0.449289 0
M  V30 11813 C 1188.56 1.07522 1.55192 0
M  V30 11814 O 1187.91 0.0800915 1.82324 0
M  V30 11815 C 1187.97 3.47231 1.00561 0
M  V30 11816 O 1187.69 4.38068 -0.0530241 0
M  V30 11817 C 1189.19 4.08324 1.72587 0
M  V30 11818 H 1186.41 0.661452 0.112792 0
M  V30 11819 H 1188.95 2.02231 -0.303788 0
M  V30 11820 H 1187.11 3.47663 1.70907 0
M  V30 11821 H 1187.52 5.23256 0.361076 0
M  V30 11822 H 1188.99 5.11821 2.06744 0
M  V30 11823 H 1189.47 3.51782 2.62956 0
M  V30 11824 H 1190.08 4.11665 1.06826 0
M  V30 11825 N 1188.39 -0.0785156 1.57404 0
M  V30 11826 C 1189.62 -0.795871 1.91522 0
M  V30 11827 C 1190.04 -1.70665 0.790892 0
M  V30 11828 O 1189.4 -1.79474 -0.25666 0
M  V30 11829 C 1189.45 -1.57121 3.24569 0
M  V30 11830 O 1188.55 -2.6814 3.13328 0
M  V30 11831 H 1187.89 -0.217575 0.627341 0
M  V30 11832 H 1190.42 -0.0487724 2.04542 0
M  V30 11833 H 1190.43 -1.9519 3.5828 0
M  V30 11834 H 1189.11 -0.902909 4.05981 0
M  V30 11835 H 1187.69 -2.32978 2.91163 0
M  V30 11836 N 1189.87 -1.5367 -0.349747 0
M  V30 11837 C 1191.12 -1.70281 -1.08853 0
M  V30 11838 C 1191.44 -0.465438 -1.89364 0
M  V30 11839 O 1190.71 0.520615 -1.88856 0
M  V30 11840 H 1189.29 -0.627775 -0.404854 0
M  V30 11841 H 1191.95 -1.90906 -0.392523 0
M  V30 11842 H 1191.05 -2.57096 -1.76941 0
M  V30 11843 N 1191.35 0.610423 -1.45298 0
M  V30 11844 C 1192.28 1.73207 -1.56594 0
M  V30 11845 C 1193.26 1.64893 -0.417651 0
M  V30 11846 O 1194.44 1.83336 -0.64043 0
M  V30 11847 C 1191.57 3.11803 -1.52959 0
M  V30 11848 C 1190.53 3.34925 -2.66475 0
M  V30 11849 C 1189.85 4.73764 -2.47894 0
M  V30 11850 C 1191.15 3.25456 -4.08504 0
M  V30 11851 H 1192.85 1.6401 -2.50482 0
M  V30 11852 H 1190.39 0.787621 -1.20551 0
M  V30 11853 H 1192.35 3.90065 -1.59458 0
M  V30 11854 H 1191.07 3.21833 -0.55599 0
M  V30 11855 H 1189.73 2.59051 -2.59399 0
M  V30 11856 H 1189.38 4.80524 -1.4868 0
M  V30 11857 H 1189.08 4.90191 -3.24016 0
M  V30 11858 H 1190.6 5.54231 -2.56243 0
M  V30 11859 H 1192.02 3.93597 -4.16839 0
M  V30 11860 H 1190.41 3.53414 -4.84994 0
M  V30 11861 H 1191.48 2.22939 -4.30612 0
M  V30 11862 N 1192.83 1.32541 0.852676 0
M  V30 11863 C 1194.07 1.22971 1.60383 0
M  V30 11864 C 1194.4 -0.208009 1.93887 0
M  V30 11865 O 1193.67 -1.13326 1.59794 0
M  V30 11866 H 1192.25 0.452149 0.594618 0
M  V30 11867 H 1194.91 1.66089 1.01983 0
M  V30 11868 H 1194 1.81373 2.53989 0
M  V30 11869 N 1194.3 -1.0692 1.15784 0
M  V30 11870 C 1195.25 -2.16335 0.854506 0
M  V30 11871 C 1196.25 -1.68505 -0.173868 0
M  V30 11872 O 1197.45 -1.79977 -0.0284722 0
M  V30 11873 H 1193.83 -0.706103 0.258694 0
M  V30 11874 H 1195.8 -2.39135 1.78486 0
M  V30 11875 C 1194.55 -3.45778 0.365042 0
M  V30 11876 H 1193.87 -3.82971 1.14776 0
M  V30 11877 H 1195.31 -4.23567 0.191504 0
M  V30 11878 C 1193.77 -3.24258 -0.914253 0
M  V30 11879 O 1194.3 -3.49236 -1.98487 0
M  V30 11880 N 1192.51 -2.77722 -0.855501 0
M  V30 11881 H 1192.05 -2.57595 0.0159233 0
M  V30 11882 H 1192.01 -2.63702 -1.71198 0
M  V30 11883 N 1195.78 -0.955326 -1.25345 0
M  V30 11884 C 1197.2 -0.659863 -1.4532 0
M  V30 11885 C 1197.4 0.78238 -1.85691 0
M  V30 11886 O 1196.45 1.5576 -1.98734 0
M  V30 11887 C 1197.77 -1.63339 -2.5247 0
M  V30 11888 C 1199.32 -1.64464 -2.66309 0
M  V30 11889 C 1199.79 -2.60583 -3.76644 0
M  V30 11890 N 1201.28 -2.58951 -3.84055 0
M  V30 11891 C 1202.02 -3.30002 -4.6892 0
M  V30 11892 N 1201.51 -4.10528 -5.58067 0
M  V30 11893 N 1203.31 -3.18886 -4.62891 0
M  V30 11894 H 1195.46 -1.88734 -0.97433 0
M  V30 11895 H 1197.72 -0.811858 -0.48948 0
M  V30 11896 H 1197.43 -2.66358 -2.29665 0
M  V30 11897 H 1197.3 -1.39644 -3.50399 0
M  V30 11898 H 1199.69 -0.621622 -2.88479 0
M  V30 11899 H 1199.77 -1.92218 -1.68778 0
M  V30 11900 H 1199.41 -3.63011 -3.55226 0
M  V30 11901 H 1199.34 -2.30113 -4.73662 0
M  V30 11902 H 1201.83 -2.00491 -3.20331 0
M  V30 11903 H 1202.15 -4.6166 -6.1975 0
M  V30 11904 H 1200.49 -4.14626 -5.57773 0
M  V30 11905 H 1203.68 -2.55447 -3.92255 0
M  V30 11906 H 1203.85 -3.74524 -5.28806 0
M  V30 11907 N 1197.26 1.39987 -0.723979 0
M  V30 11908 C 1198.49 2.0556 -0.275634 0
M  V30 11909 C 1198.91 1.54207 1.07711 0
M  V30 11910 O 1198.27 0.681041 1.68022 0
M  V30 11911 C 1198.32 3.59551 -0.27485 0
M  V30 11912 O 1197.42 4.05685 0.741182 0
M  V30 11913 H 1196.76 0.651634 -0.12755 0
M  V30 11914 H 1199.29 1.79229 -0.986814 0
M  V30 11915 H 1199.3 4.07837 -0.115425 0
M  V30 11916 H 1197.98 3.96291 -1.26198 0
M  V30 11917 H 1196.55 3.6884 0.548795 0
M  V30 11918 N 1198.74 0.470782 1.50404 0
M  V30 11919 C 1199.67 -0.313458 2.31386 0
M  V30 11920 C 1200.65 -0.990623 1.38278 0
M  V30 11921 O 1201.84 -0.987854 1.67198 0
M  V30 11922 C 1198.97 -1.39599 3.18009 0
M  V30 11923 C 1197.92 -0.840443 4.19667 0
M  V30 11924 C 1197.25 -2.02124 4.95025 0
M  V30 11925 C 1198.55 0.148055 5.2209 0
M  V30 11926 H 1200.24 0.362432 2.97198 0
M  V30 11927 H 1197.79 0.175745 1.42924 0
M  V30 11928 H 1199.74 -1.9521 3.73458 0
M  V30 11929 H 1198.46 -2.10064 2.50081 0
M  V30 11930 H 1197.12 -0.306302 3.65318 0
M  V30 11931 H 1196.77 -2.71286 4.23571 0
M  V30 11932 H 1196.47 -1.65574 5.6379 0
M  V30 11933 H 1197.99 -2.58226 5.5331 0
M  V30 11934 H 1199.41 -0.318874 5.72413 0
M  V30 11935 H 1197.8 0.427811 5.98573 0
M  V30 11936 H 1198.87 1.07404 4.72855 0
M  V30 11937 N 1200.22 -1.56282 0.203376 0
M  V30 11938 C 1201.13 -2.23086 -0.725922 0
M  V30 11939 C 1202.14 -1.23258 -1.22814 0
M  V30 11940 O 1203.32 -1.5602 -1.27357 0
M  V30 11941 C 1200.38 -2.88358 -1.92485 0
M  V30 11942 C 1199.45 -4.03479 -1.46639 0
M  V30 11943 C 1198.68 -4.65629 -2.60816 0
M  V30 11944 O 1198.9 -4.2672 -3.78506 0
M  V30 11945 O 1197.84 -5.54949 -2.33056 0
M  V30 11946 H 1201.66 -3.03124 -0.18694 0
M  V30 11947 H 1199.25 -1.49377 -0.0262829 0
M  V30 11948 H 1201.13 -3.29623 -2.62539 0
M  V30 11949 H 1199.8 -2.11294 -2.45228 0
M  V30 11950 H 1198.71 -3.66821 -0.734396 0
M  V30 11951 H 1200.04 -4.82232 -0.985535 0
M  V30 11952 N 1201.7 0.070167 -1.57444 0
M  V30 11953 C 1202.94 0.774338 -1.89165 0
M  V30 11954 C 1203.3 1.7466 -0.797353 0
M  V30 11955 O 1204.5 2.49599 -0.997682 0
M  V30 11956 C 1202.77 1.46235 -3.26114 0
M  V30 11957 S 1204.33 2.20136 -3.79586 0
M  V30 11958 H 1201.15 0.257464 -0.662747 0
M  V30 11959 H 1203.75 0.0303734 -1.95476 0
M  V30 11960 H 1202.45 0.740942 -4.03656 0
M  V30 11961 H 1201.99 2.24571 -3.23004 0
M  V30 11962 H 1204 3.4668 -3.55003 0
M  V30 11963 N 1203.17 1.53854 0.341593 0
M  V30 11964 C 1204.1 1.84966 1.42513 0
M  V30 11965 C 1205.08 0.704944 1.54805 0
M  V30 11966 O 1206.27 0.957036 1.68981 0
M  V30 11967 C 1203.4 2.06099 2.79536 0
M  V30 11968 C 1202.35 3.21919 2.82049 0
M  V30 11969 C 1201.68 3.28389 4.21977 0
M  V30 11970 C 1202.98 4.59984 2.4741 0
M  V30 11971 H 1204.67 2.7571 1.16724 0
M  V30 11972 H 1202.22 1.32662 0.560073 0
M  V30 11973 H 1204.17 2.26448 3.55386 0
M  V30 11974 H 1202.9 1.12087 3.06764 0
M  V30 11975 H 1201.56 3.01429 2.08653 0
M  V30 11976 H 1201.2 2.3197 4.46317 0
M  V30 11977 H 1200.9 4.0622 4.24569 0
M  V30 11978 H 1202.43 3.50951 4.99666 0
M  V30 11979 H 1203.84 4.80334 3.12973 0
M  V30 11980 H 1202.24 5.40233 2.61282 0
M  V30 11981 H 1203.31 4.6346 1.42594 0
M  V30 11982 N 1204.65 -0.602709 1.4562 0
M  V30 11983 C 1206.07 -0.923983 1.30133 0
M  V30 11984 C 1206.27 -1.99842 0.25796 0
M  V30 11985 O 1205.32 -2.50112 -0.346414 0
M  V30 11986 C 1206.64 -1.36029 2.68173 0
M  V30 11987 C 1208.18 -1.47423 2.76108 0
M  V30 11988 C 1208.66 -1.94427 4.14683 0
M  V30 11989 N 1210.15 -2.01653 4.17002 0
M  V30 11990 C 1210.89 -2.39255 5.211 0
M  V30 11991 N 1210.38 -2.75791 6.3554 0
M  V30 11992 N 1212.17 -2.39636 5.08459 0
M  V30 11993 H 1204.33 0.107377 2.12128 0
M  V30 11994 H 1206.59 -0.0146216 0.947887 0
M  V30 11995 H 1206.29 -0.644949 3.45736 0
M  V30 11996 H 1206.17 -2.32584 2.96959 0
M  V30 11997 H 1208.56 -2.18047 1.98845 0
M  V30 11998 H 1208.64 -0.4917 2.5103 0
M  V30 11999 H 1208.28 -1.24389 4.92433 0
M  V30 12000 H 1208.21 -2.93603 4.37156 0
M  V30 12001 H 1210.7 -1.75988 3.3442 0
M  V30 12002 H 1211.01 -3.03378 7.10761 0
M  V30 12003 H 1209.36 -2.73475 6.38934 0
M  V30 12004 H 1212.55 -2.10502 4.18098 0
M  V30 12005 H 1212.72 -2.68614 5.89704 0
M  V30 12006 N 1206.13 -1.32992 -0.845635 0
M  V30 12007 C 1207.54 -1.21616 -1.41656 0
M  V30 12008 C 1207.89 0.167687 -1.95482 0
M  V30 12009 O 1207.02 1.06692 -1.8827 0
M  V30 12010 C 1207.61 -2.2018 -2.575 0
M  V30 12011 C 1206.17 -2.12664 -3.10565 0
M  V30 12012 C 1205.32 -2.08042 -1.83341 0
M  V30 12013 H 1208.27 -1.44688 -0.651993 0
M  V30 12014 H 1208.29 -1.80558 -3.34931 0
M  V30 12015 H 1207.8 -3.20888 -2.18294 0
M  V30 12016 H 1205.9 -1.15235 -3.54333 0
M  V30 12017 H 1206.02 -3.02902 -3.71197 0
M  V30 12018 H 1204.38 -1.53416 -2.03312 0
M  V30 12019 H 1205.16 -3.10547 -1.46339 0
M  V30 12020 N 1207.61 1.06304 -1.1635 0
M  V30 12021 C 1209.02 1.60566 -0.952652 0
M  V30 12022 C 1209.37 1.8963 0.503473 0
M  V30 12023 O 1208.49 1.66964 1.37666 0
M  V30 12024 C 1209.09 2.9172 -1.72292 0
M  V30 12025 C 1207.65 3.42684 -1.55707 0
M  V30 12026 C 1206.8 2.16579 -1.73172 0
M  V30 12027 H 1209.75 0.892563 -1.31221 0
M  V30 12028 H 1209.77 3.61126 -1.19868 0
M  V30 12029 H 1209.28 2.70535 -2.78267 0
M  V30 12030 H 1207.38 3.68929 -0.521726 0
M  V30 12031 H 1207.49 4.18018 -2.34088 0
M  V30 12032 H 1205.86 2.26795 -1.15914 0
M  V30 12033 H 1206.64 1.97877 -2.80535 0
M  V30 12034 N 1209.09 0.96196 1.24836 0
M  V30 12035 C 1210.02 0.445329 2.24832 0
M  V30 12036 C 1211.03 -0.442797 1.56663 0
M  V30 12037 O 1212.22 -0.249896 1.76742 0
M  V30 12038 C 1209.32 -0.376953 3.36797 0
M  V30 12039 C 1208.49 0.499908 4.34534 0
M  V30 12040 C 1207.55 -0.265402 5.2553 0
M  V30 12041 O 1206.58 0.338707 5.68191 0
M  V30 12042 N 1207.78 -1.55654 5.59243 0
M  V30 12043 H 1210.54 1.30505 2.69793 0
M  V30 12044 H 1208.11 0.833137 1.38818 0
M  V30 12045 H 1210.1 -0.896831 3.94638 0
M  V30 12046 H 1208.67 -1.13757 2.91167 0
M  V30 12047 H 1207.89 1.20082 3.75465 0
M  V30 12048 H 1209.18 1.09814 4.96808 0
M  V30 12049 H 1208.57 -2.06916 5.265 0
M  V30 12050 H 1207.13 -2.02223 6.19636 0
M  V30 12051 N 1210.56 -1.39601 0.731392 0
M  V30 12052 C 1211.97 -1.83424 0.348194 0
M  V30 12053 C 1212.33 -1.61106 -1.11979 0
M  V30 12054 O 1211.45 -1.1003 -1.86339 0
M  V30 12055 C 1212.05 -3.32982 0.6252 0
M  V30 12056 C 1210.6 -3.75238 0.295536 0
M  V30 12057 C 1209.75 -2.62642 0.88964 0
M  V30 12058 H 1212.7 -1.28644 0.929318 0
M  V30 12059 H 1212.72 -3.80357 -0.104254 0
M  V30 12060 H 1212.24 -3.49193 1.69368 0
M  V30 12061 H 1210.34 -3.64615 -0.767254 0
M  V30 12062 H 1210.45 -4.72781 0.775576 0
M  V30 12063 H 1208.81 -2.52726 0.316529 0
M  V30 12064 H 1209.6 -2.81661 1.96271 0
M  V30 12065 N 1212.04 -0.478751 -1.50152 0
M  V30 12066 C 1212.97 0.347829 -2.26545 0
M  V30 12067 C 1213.99 0.950354 -1.32182 0
M  V30 12068 O 1215.18 0.837462 -1.57635 0
M  V30 12069 C 1212.28 1.50255 -3.0377 0
M  V30 12070 C 1211.45 1.01142 -4.25546 0
M  V30 12071 C 1210.51 2.0411 -4.85 0
M  V30 12072 O 1209.53 1.61862 -5.45701 0
M  V30 12073 N 1210.74 3.36982 -4.72677 0
M  V30 12074 H 1213.5 -0.307113 -2.98122 0
M  V30 12075 H 1211.06 -0.309981 -1.58905 0
M  V30 12076 H 1213.05 2.18848 -3.40423 0
M  V30 12077 H 1211.62 2.06205 -2.34943 0
M  V30 12078 H 1210.84 0.151124 -3.9391 0
M  V30 12079 H 1212.13 0.661326 -5.04484 0
M  V30 12080 H 1211.53 3.74011 -4.2442 0
M  V30 12081 H 1210.09 4.0135 -5.13577 0
M  V30 12082 N 1213.52 1.56172 -0.211661 0
M  V30 12083 C 1214.43 2.23468 0.714081 0
M  V30 12084 C 1215.45 1.23908 1.22159 0
M  V30 12085 O 1216.62 1.56693 1.26528 0
M  V30 12086 C 1213.69 2.89375 1.90953 0
M  V30 12087 C 1212.75 4.04251 1.44497 0
M  V30 12088 C 1211.98 4.67006 2.58343 0
M  V30 12089 O 1212.2 4.28721 3.76237 0
M  V30 12090 O 1211.14 5.56177 2.3011 0
M  V30 12091 H 1214.96 3.03219 0.170862 0
M  V30 12092 H 1212.55 1.49389 0.0183607 0
M  V30 12093 H 1214.43 3.3101 2.60787 0
M  V30 12094 H 1213.11 2.12591 2.44104 0
M  V30 12095 H 1212.01 3.67205 0.714932 0
M  V30 12096 H 1213.35 4.82748 0.959947 0
M  V30 12097 N 1215 -0.0618163 1.57479 0
M  V30 12098 C 1215.93 -1.07252 2.07411 0
M  V30 12099 C 1216.91 -1.39756 0.969649 0
M  V30 12100 O 1218.09 -1.4921 1.24298 0
M  V30 12101 C 1215.22 -2.38313 2.52635 0
M  V30 12102 C 1214.18 -2.20136 3.67048 0
M  V30 12103 C 1213.5 -3.56668 3.98361 0
M  V30 12104 C 1214.8 -1.61437 4.96725 0
M  V30 12105 H 1216.5 -0.656983 2.92103 0
M  V30 12106 H 1214.04 -0.314579 1.40522 0
M  V30 12107 H 1216 -3.09319 2.86181 0
M  V30 12108 H 1214.72 -2.81865 1.64984 0
M  V30 12109 H 1213.38 -1.51569 3.338 0
M  V30 12110 H 1213.03 -3.97809 3.07826 0
M  V30 12111 H 1212.73 -3.45342 4.75408 0
M  V30 12112 H 1214.25 -4.2909 4.34413 0
M  V30 12113 H 1215.67 -2.2232 5.28438 0
M  V30 12114 H 1214.06 -1.60779 5.78161 0
M  V30 12115 H 1215.13 -0.576795 4.81457 0
M  V30 12116 N 1216.48 -1.54033 -0.333429 0
M  V30 12117 C 1217.7 -1.76031 -1.09672 0
M  V30 12118 C 1218.13 -0.502844 -1.81254 0
M  V30 12119 O 1217.48 0.54509 -1.72912 0
M  V30 12120 C 1217.53 -2.947 -2.07809 0
M  V30 12121 O 1216.64 -2.65555 -3.15522 0
M  V30 12122 H 1215.98 -0.583611 -0.316692 0
M  V30 12123 H 1218.51 -2.01026 -0.380732 0
M  V30 12124 H 1218.52 -3.21771 -2.50853 0
M  V30 12125 H 1217.19 -3.85895 -1.55106 0
M  V30 12126 H 1215.77 -2.49403 -2.77223 0
M  V30 12127 N 1217.95 0.594978 -1.45938 0
M  V30 12128 C 1219.37 1.17703 -1.44924 0
M  V30 12129 C 1219.72 1.9534 -0.183522 0
M  V30 12130 O 1218.84 2.04276 0.714163 0
M  V30 12131 C 1219.44 2.14119 -2.62561 0
M  V30 12132 C 1218 2.67674 -2.64627 0
M  V30 12133 C 1217.14 1.43312 -2.37397 0
M  V30 12134 H 1220.09 0.383583 -1.53995 0
M  V30 12135 H 1220.11 2.97374 -2.3738 0
M  V30 12136 H 1219.63 1.57586 -3.54667 0
M  V30 12137 H 1217.73 3.28111 -1.76562 0
M  V30 12138 H 1217.84 3.11246 -3.64229 0
M  V30 12139 H 1216.2 1.72702 -1.87206 0
M  V30 12140 H 1216.99 0.886276 -3.31663 0
M  V30 12141 N 1219.43 1.33438 0.838571 0
M  V30 12142 C 1220.34 1.25753 1.98049 0
M  V30 12143 C 1221.36 0.168051 1.73187 0
M  V30 12144 O 1222.53 0.391691 1.97554 0
M  V30 12145 C 1219.6 0.997148 3.32051 0
M  V30 12146 C 1218.66 2.17667 3.70027 0
M  V30 12147 C 1217.89 1.92861 4.97635 0
M  V30 12148 O 1218.12 0.879072 5.63585 0
M  V30 12149 O 1217.05 2.79402 5.33121 0
M  V30 12150 H 1220.88 2.21786 2.07472 0
M  V30 12151 H 1218.46 1.13488 0.971645 0
M  V30 12152 H 1220.34 0.869099 4.1234 0
M  V30 12153 H 1219.02 0.0671036 3.2363 0
M  V30 12154 H 1217.93 2.36025 2.90246 0
M  V30 12155 H 1219.26 3.09006 3.83114 0
M  V30 12156 N 1220.91 -1.05686 1.16912 0
M  V30 12157 C 1221.86 -2.13312 0.88129 0
M  V30 12158 C 1222.83 -1.65199 -0.172783 0
M  V30 12159 O 1224.01 -1.90765 -0.0366542 0
M  V30 12160 C 1221.15 -3.42829 0.395264 0
M  V30 12161 C 1220.27 -4.04643 1.51288 0
M  V30 12162 C 1219.4 -5.22059 0.981238 0
M  V30 12163 C 1218.44 -5.75869 2.07464 0
M  V30 12164 N 1217.58 -6.84592 1.55813 0
M  V30 12165 H 1222.42 -2.37271 1.80295 0
M  V30 12166 H 1219.95 -1.16407 0.899322 0
M  V30 12167 H 1221.91 -4.17092 0.0950633 0
M  V30 12168 H 1220.54 -3.19068 -0.489445 0
M  V30 12169 H 1219.59 -3.27867 1.92891 0
M  V30 12170 H 1220.91 -4.40626 2.33774 0
M  V30 12171 H 1220.06 -6.03372 0.634586 0
M  V30 12172 H 1218.8 -4.87538 0.125754 0
M  V30 12173 H 1217.8 -4.93188 2.42992 0
M  V30 12174 H 1219.03 -6.12439 2.93419 0
M  V30 12175 H 1216.97 -6.51978 0.725283 0
M  V30 12176 H 1216.89 -7.19551 2.31911 0
M  V30 12177 H 1218.16 -7.6957 1.24025 0
M  V30 12178 N 1222.39 -0.968567 -1.24324 0
M  V30 12179 C 1223.32 -0.518323 -2.27674 0
M  V30 12180 C 1224.3 0.442479 -1.64244 0
M  V30 12181 O 1225.48 0.338416 -1.91229 0
M  V30 12182 C 1222.61 0.191459 -3.46772 0
M  V30 12183 C 1221.57 -0.685449 -4.22476 0
M  V30 12184 C 1220.89 0.155873 -5.34473 0
M  V30 12185 C 1222.19 -1.97047 -4.83704 0
M  V30 12186 H 1223.89 -1.38215 -2.65588 0
M  V30 12187 H 1221.43 -0.66604 -1.27671 0
M  V30 12188 H 1223.39 0.517667 -4.18208 0
M  V30 12189 H 1222.11 1.08965 -3.07887 0
M  V30 12190 H 1220.77 -0.994942 -3.52841 0
M  V30 12191 H 1220.42 1.05424 -4.91828 0
M  V30 12192 H 1220.12 -0.427655 -5.86042 0
M  V30 12193 H 1221.64 0.476733 -6.08736 0
M  V30 12194 H 1223.06 -1.70979 -5.4721 0
M  V30 12195 H 1221.45 -2.50079 -5.45509 0
M  V30 12196 H 1222.52 -2.66484 -4.0511 0
M  V30 12197 N 1223.87 1.39211 -0.738786 0
M  V30 12198 C 1224.81 2.30578 -0.10129 0
M  V30 12199 C 1225.78 1.49412 0.725616 0
M  V30 12200 O 1226.97 1.78087 0.684799 0
M  V30 12201 C 1224.11 3.35767 0.797161 0
M  V30 12202 C 1223.22 4.31979 -0.0427701 0
M  V30 12203 C 1222.36 5.24236 0.857306 0
M  V30 12204 C 1221.4 6.12099 0.0128501 0
M  V30 12205 N 1220.53 6.96701 0.869067 0
M  V30 12206 H 1225.37 2.84522 -0.88606 0
M  V30 12207 H 1222.91 1.40093 -0.448602 0
M  V30 12208 H 1224.87 3.95347 1.33255 0
M  V30 12209 H 1223.5 2.83268 1.54787 0
M  V30 12210 H 1222.55 3.73986 -0.695622 0
M  V30 12211 H 1223.86 4.93927 -0.69555 0
M  V30 12212 H 1223.02 5.88861 1.4604 0
M  V30 12213 H 1221.75 4.62619 1.54386 0
M  V30 12214 H 1220.76 5.46483 -0.603018 0
M  V30 12215 H 1221.98 6.75781 -0.67054 0
M  V30 12216 H 1219.93 6.37647 1.54084 0
M  V30 12217 H 1219.85 7.55507 0.272852 0
M  V30 12218 H 1221.12 7.65751 1.4576 0
M  V30 12219 N 1225.34 0.486708 1.49896 0
M  V30 12220 C 1226.57 -0.0622999 2.07306 0
M  V30 12221 C 1226.99 -1.31353 1.3464 0
M  V30 12222 O 1226.35 -1.76861 0.398752 0
M  V30 12223 C 1226.4 -0.313481 3.59235 0
M  V30 12224 O 1225.5 -1.39101 3.88233 0
M  V30 12225 H 1224.85 0.0198885 0.663702 0
M  V30 12226 H 1227.38 0.682232 1.92891 0
M  V30 12227 H 1227.39 -0.549302 4.04285 0
M  V30 12228 H 1226.06 0.600767 4.11538 0
M  V30 12229 H 1224.64 -1.14127 3.55006 0
M  V30 12230 N 1226.82 -1.56058 0.219941 0
M  V30 12231 C 1228.07 -1.99306 -0.40606 0
M  V30 12232 C 1228.42 -1.10505 -1.57501 0
M  V30 12233 O 1227.72 -0.154663 -1.90975 0
M  V30 12234 C 1227.91 -3.46113 -0.8911 0
M  V30 12235 C 1227.74 -4.49115 0.229307 0
M  V30 12236 C 1226.51 -5.00495 0.695169 0
M  V30 12237 C 1228.71 -5.0353 1.04701 0
M  V30 12238 N 1226.69 -5.872 1.7908 0
M  V30 12239 C 1228.06 -5.87144 1.99154 0
M  V30 12240 C 1230.12 -4.85898 1.08663 0
M  V30 12241 C 1228.82 -6.55009 2.97246 0
M  V30 12242 C 1230.85 -5.54521 2.05572 0
M  V30 12243 C 1230.21 -6.37902 2.98765 0
M  V30 12244 H 1226.31 -0.773453 -0.115304 0
M  V30 12245 H 1228.89 -1.9186 0.331342 0
M  V30 12246 H 1227.06 -3.5401 -1.59787 0
M  V30 12247 H 1228.79 -3.76281 -1.48978 0
M  V30 12248 H 1225.55 -4.72747 0.284052 0
M  V30 12249 H 1225.97 -6.35253 2.34057 0
M  V30 12250 H 1230.61 -4.21088 0.380063 0
M  V30 12251 H 1228.33 -7.19002 3.68866 0
M  V30 12252 H 1231.92 -5.42845 2.0931 0
M  V30 12253 H 1230.8 -6.90067 3.72529 0
M  V30 12254 N 1228.3 0.053464 -1.57509 0
M  V30 12255 C 1229.55 0.747622 -1.87763 0
M  V30 12256 C 1229.87 1.77178 -0.814433 0
M  V30 12257 O 1229.14 1.95287 0.154862 0
M  V30 12258 H 1227.72 0.279109 -0.692898 0
M  V30 12259 H 1230.38 0.0252006 -1.94884 0
M  V30 12260 H 1229.48 1.25244 -2.85868 0
M  V30 12261 N 1229.78 1.54207 0.325255 0
M  V30 12262 C 1231.03 1.71991 1.0613 0
M  V30 12263 C 1231.35 0.495505 1.88599 0
M  V30 12264 O 1230.62 -0.490504 1.8966 0
M  V30 12265 H 1229.2 0.634137 0.394816 0
M  V30 12266 H 1231.86 1.91507 0.362101 0
M  V30 12267 H 1230.96 2.59878 1.72829 0
M  V30 12268 N 1231.26 -0.58723 1.46251 0
M  V30 12269 C 1232.48 -1.37661 1.55126 0
M  V30 12270 C 1232.91 -1.87123 0.191489 0
M  V30 12271 O 1232.27 -1.6131 -0.827576 0
M  V30 12272 C 1232.31 -2.54324 2.5564 0
M  V30 12273 O 1231.42 -3.55617 2.0883 0
M  V30 12274 H 1230.76 -0.410154 0.522178 0
M  V30 12275 H 1233.29 -0.712738 1.91784 0
M  V30 12276 H 1233.3 -3.01301 2.75103 0
M  V30 12277 H 1231.97 -2.17675 3.54387 0
M  V30 12278 H 1230.55 -3.15151 1.99335 0
M  V30 12279 N 1232.74 -1.33881 -0.831482 0
M  V30 12280 C 1234.15 -1.23112 -1.40358 0
M  V30 12281 C 1234.5 0.146944 -1.95649 0
M  V30 12282 O 1233.62 1.04689 -1.89391 0
M  V30 12283 C 1234.22 -2.22899 -2.5515 0
M  V30 12284 C 1232.78 -2.15946 -3.08292 0
M  V30 12285 C 1231.92 -2.09975 -1.81124 0
M  V30 12286 H 1234.87 -1.45372 -0.63661 0
M  V30 12287 H 1234.9 -1.841 -3.32997 0
M  V30 12288 H 1234.41 -3.23186 -2.14878 0
M  V30 12289 H 1232.51 -1.18987 -3.53091 0
M  V30 12290 H 1232.62 -3.06822 -3.67964 0
M  V30 12291 H 1230.99 -1.55564 -2.01673 0
M  V30 12292 H 1231.77 -3.12082 -1.43037 0
M  V30 12293 N 1234.21 1.05064 -1.1747 0
M  V30 12294 C 1235.14 2.14786 -0.915936 0
M  V30 12295 C 1236.12 1.69502 0.142561 0
M  V30 12296 O 1237.31 1.94198 -0.00794522 0
M  V30 12297 C 1234.44 3.44629 -0.429864 0
M  V30 12298 C 1233.39 4.03486 -1.42769 0
M  V30 12299 C 1232.72 5.28689 -0.799528 0
M  V30 12300 C 1234.02 4.40823 -2.80129 0
M  V30 12301 H 1235.71 2.3669 -1.83352 0
M  V30 12302 H 1233.26 1.13751 -0.882992 0
M  V30 12303 H 1235.21 4.20737 -0.236245 0
M  V30 12304 H 1233.94 3.22381 0.523263 0
M  V30 12305 H 1232.6 3.29449 -1.60808 0
M  V30 12306 H 1232.24 5.02744 0.160474 0
M  V30 12307 H 1231.94 5.69028 -1.46565 0
M  V30 12308 H 1233.47 6.07483 -0.616212 0
M  V30 12309 H 1234.88 5.07959 -2.65801 0
M  V30 12310 H 1233.28 4.92183 -3.43331 0
M  V30 12311 H 1234.35 3.51108 -3.34441 0
M  V30 12312 N 1235.69 0.975146 1.23809 0
M  V30 12313 C 1236.94 0.639858 1.91704 0
M  V30 12314 C 1237.26 -0.828557 1.76522 0
M  V30 12315 O 1236.53 -1.59217 1.14135 0
M  V30 12316 H 1235.11 0.233667 0.709513 0
M  V30 12317 H 1237.77 1.23782 1.50545 0
M  V30 12318 H 1236.87 0.886915 2.99233 0
M  V30 12319 N 1237.17 -1.38817 0.746158 0
M  V30 12320 C 1238.58 -1.83045 0.367629 0
M  V30 12321 C 1238.93 -1.62285 -1.10263 0
M  V30 12322 O 1238.06 -1.12001 -1.85162 0
M  V30 12323 C 1238.65 -3.323 0.660482 0
M  V30 12324 C 1237.21 -3.74903 0.335318 0
M  V30 12325 C 1236.36 -2.61683 0.917446 0
M  V30 12326 H 1239.31 -1.27651 0.94291 0
M  V30 12327 H 1239.33 -3.80446 -0.0639061 0
M  V30 12328 H 1238.84 -3.47377 1.73062 0
M  V30 12329 H 1236.94 -3.65408 -0.728538 0
M  V30 12330 H 1237.06 -4.71932 0.825677 0
M  V30 12331 H 1235.42 -2.52376 0.343316 0
M  V30 12332 H 1236.2 -2.79563 1.99247 0
M  V30 12333 N 1238.65 -0.49465 -1.49636 0
M  V30 12334 C 1239.89 0.0442152 -2.03352 0
M  V30 12335 C 1240.25 1.35275 -1.36815 0
M  V30 12336 O 1239.54 1.85158 -0.492671 0
M  V30 12337 C 1239.74 0.259743 -3.56455 0
M  V30 12338 C 1239.56 -1.02635 -4.37831 0
M  V30 12339 C 1238.33 -1.57636 -4.80082 0
M  V30 12340 C 1240.53 -1.92797 -4.76795 0
M  V30 12341 N 1238.51 -2.80902 -5.45864 0
M  V30 12342 C 1239.89 -3.00644 -5.4223 0
M  V30 12343 C 1241.94 -1.93552 -4.5874 0
M  V30 12344 C 1240.64 -4.09265 -5.91519 0
M  V30 12345 C 1242.67 -3.01144 -5.08986 0
M  V30 12346 C 1242.03 -4.07709 -5.74415 0
M  V30 12347 H 1238.13 -0.0244415 -0.781618 0
M  V30 12348 H 1240.71 -0.668098 -1.82878 0
M  V30 12349 H 1238.89 0.941108 -3.76826 0
M  V30 12350 H 1240.62 0.795048 -3.96814 0
M  V30 12351 H 1237.37 -1.12236 -4.60109 0
M  V30 12352 H 1237.8 -3.43565 -5.83345 0
M  V30 12353 H 1242.44 -1.12473 -4.07566 0
M  V30 12354 H 1240.16 -4.91146 -6.41717 0
M  V30 12355 H 1243.74 -3.02739 -4.9683 0
M  V30 12356 H 1242.62 -4.89591 -6.12593 0
M  V30 12357 N 1240.13 1.55939 -0.228214 0
M  V30 12358 C 1241.06 2.2357 0.6737 0
M  V30 12359 C 1242.04 1.20964 1.1959 0
M  V30 12360 O 1243.22 1.49568 1.23867 0
M  V30 12361 C 1240.35 2.92076 1.87906 0
M  V30 12362 C 1239.31 4.01211 1.49043 0
M  V30 12363 C 1238.63 4.57047 2.77511 0
M  V30 12364 C 1239.93 5.17914 0.67544 0
M  V30 12365 H 1241.63 2.99199 0.109806 0
M  V30 12366 H 1239.17 1.43908 0.0513732 0
M  V30 12367 H 1241.12 3.38083 2.51551 0
M  V30 12368 H 1239.85 2.13906 2.46803 0
M  V30 12369 H 1238.51 3.55945 0.877411 0
M  V30 12370 H 1238.16 3.75599 3.34566 0
M  V30 12371 H 1237.86 5.30707 2.52239 0
M  V30 12372 H 1239.38 5.05776 3.42087 0
M  V30 12373 H 1240.79 5.60261 1.21575 0
M  V30 12374 H 1239.19 5.97847 0.519536 0
M  V30 12375 H 1240.26 4.83866 -0.316495 0
M  V30 12376 N 1241.6 -0.0451101 1.57535 0
M  V30 12377 C 1242.83 -0.755068 1.93167 0
M  V30 12378 C 1243.25 -1.68949 0.826915 0
M  V30 12379 O 1242.61 -1.79978 -0.218534 0
M  V30 12380 C 1242.66 -1.50201 3.27829 0
M  V30 12381 O 1241.76 -2.61434 3.18945 0
M  V30 12382 H 1241.11 -0.204219 0.631815 0
M  V30 12383 H 1243.64 -0.00537504 2.04599 0
M  V30 12384 H 1243.65 -1.87547 3.6234 0
M  V30 12385 H 1242.32 -0.816591 4.07805 0
M  V30 12386 H 1240.9 -2.26749 2.96039 0
M  V30 12387 N 1243.08 -1.54377 -0.317073 0
M  V30 12388 C 1244.31 -1.77184 -1.07798 0
M  V30 12389 C 1244.73 -0.52204 -1.80711 0
M  V30 12390 O 1244.09 0.52672 -1.7348 0
M  V30 12391 C 1244.14 -2.96887 -2.04671 0
M  V30 12392 O 1243.24 -2.68887 -3.12688 0
M  V30 12393 H 1242.58 -0.586937 -0.310485 0
M  V30 12394 H 1245.11 -2.01419 -0.35939 0
M  V30 12395 H 1245.12 -3.24414 -2.47426 0
M  V30 12396 H 1243.8 -3.87518 -1.51005 0
M  V30 12397 H 1242.38 -2.52329 -2.74562 0
M  V30 12398 N 1244.56 0.579466 -1.4656 0
M  V30 12399 C 1245.81 1.33492 -1.51738 0
M  V30 12400 C 1246.13 1.94241 -0.171926 0
M  V30 12401 O 1245.4 1.78737 0.801875 0
M  V30 12402 H 1243.98 0.49565 -0.558874 0
M  V30 12403 H 1246.64 0.678394 -1.82712 0
M  V30 12404 H 1245.74 2.13995 -2.27183 0
M  V30 12405 N 1246.04 1.3432 0.824371 0
M  V30 12406 C 1246.97 1.2842 1.95014 0
M  V30 12407 C 1247.95 0.161925 1.69328 0
M  V30 12408 O 1249.13 0.354052 1.90945 0
M  V30 12409 C 1246.26 1.03741 3.31444 0
M  V30 12410 C 1245.22 2.12419 3.71567 0
M  V30 12411 C 1244.54 1.72931 5.05963 0
M  V30 12412 C 1245.84 3.54235 3.83817 0
M  V30 12413 H 1247.54 2.22614 2.00209 0
M  V30 12414 H 1245.08 1.07165 0.961856 0
M  V30 12415 H 1247.04 0.982586 4.09784 0
M  V30 12416 H 1245.76 0.0598892 3.26545 0
M  V30 12417 H 1244.42 2.16968 2.955 0
M  V30 12418 H 1244.07 0.738433 4.9755 0
M  V30 12419 H 1243.77 2.45668 5.3378 0
M  V30 12420 H 1245.29 1.68941 5.86763 0
M  V30 12421 H 1246.71 3.52106 4.52432 0
M  V30 12422 H 1245.1 4.25581 4.23085 0
M  V30 12423 H 1246.17 3.91682 2.85856 0
M  V30 12424 N 1247.52 -1.0444 1.18026 0
M  V30 12425 C 1248.46 -2.12365 0.903865 0
M  V30 12426 C 1249.43 -1.65373 -0.155252 0
M  V30 12427 O 1250.62 -1.90793 -0.016419 0
M  V30 12428 C 1247.76 -3.4239 0.431603 0
M  V30 12429 C 1246.87 -4.03016 1.55571 0
M  V30 12430 C 1246.01 -5.20988 1.03655 0
M  V30 12431 C 1245.05 -5.73636 2.1356 0
M  V30 12432 N 1244.18 -6.82901 1.63066 0
M  V30 12433 H 1249.02 -2.35346 1.82802 0
M  V30 12434 H 1246.56 -1.15447 0.911618 0
M  V30 12435 H 1248.52 -4.16967 0.139296 0
M  V30 12436 H 1247.15 -3.19569 -0.455576 0
M  V30 12437 H 1246.2 -3.25803 1.96358 0
M  V30 12438 H 1247.51 -4.38122 2.38434 0
M  V30 12439 H 1246.67 -6.02665 0.698546 0
M  V30 12440 H 1245.4 -4.87377 0.177457 0
M  V30 12441 H 1244.41 -4.90583 2.4821 0
M  V30 12442 H 1245.63 -6.09293 2.99899 0
M  V30 12443 H 1243.58 -6.51172 0.794394 0
M  V30 12444 H 1243.5 -7.1705 2.3953 0
M  V30 12445 H 1244.77 -7.68211 1.32181 0
M  V30 12446 N 1248.99 -0.981699 -1.2329 0
M  V30 12447 C 1250.41 -0.688087 -1.73558 0
M  V30 12448 C 1250.76 0.795633 -1.79344 0
M  V30 12449 O 1249.88 1.62227 -1.43218 0
M  V30 12450 C 1250.48 -1.24235 -3.152 0
M  V30 12451 C 1249.04 -0.998356 -3.62918 0
M  V30 12452 C 1248.18 -1.3693 -2.41134 0
M  V30 12453 H 1251.13 -1.15539 -1.08795 0
M  V30 12454 H 1251.15 -0.61541 -3.7549 0
M  V30 12455 H 1250.67 -2.32223 -3.10957 0
M  V30 12456 H 1248.77 0.0653847 -3.72543 0
M  V30 12457 H 1248.88 -1.65385 -4.49649 0
M  V30 12458 H 1247.24 -0.787773 -2.42211 0
M  V30 12459 H 1248.03 -2.45898 -2.39561 0
M  V30 12460 N 1250.47 1.3842 -0.753509 0
M  V30 12461 C 1251.4 2.33073 -0.141198 0
M  V30 12462 C 1252.38 1.54863 0.70367 0
M  V30 12463 O 1253.57 1.8318 0.644872 0
M  V30 12464 C 1250.7 3.39043 0.752802 0
M  V30 12465 C 1249.65 4.27999 0.0106692 0
M  V30 12466 C 1248.98 5.24824 1.02291 0
M  V30 12467 C 1250.28 5.09308 -1.15768 0
M  V30 12468 H 1251.97 2.84528 -0.93188 0
M  V30 12469 H 1249.52 1.36802 -0.449567 0
M  V30 12470 H 1251.47 4.04224 1.19083 0
M  V30 12471 H 1250.2 2.8607 1.57581 0
M  V30 12472 H 1248.85 3.64323 -0.407939 0
M  V30 12473 H 1248.5 4.68139 1.83998 0
M  V30 12474 H 1248.2 5.85196 0.53101 0
M  V30 12475 H 1249.73 5.92882 1.46026 0
M  V30 12476 H 1251.14 5.6773 -0.797203 0
M  V30 12477 H 1249.54 5.78914 -1.58044 0
M  V30 12478 H 1250.61 4.43051 -1.97062 0
M  V30 12479 N 1251.95 0.502579 1.49372 0
M  V30 12480 C 1252.9 -0.275004 2.29156 0
M  V30 12481 C 1253.87 -0.95892 1.35624 0
M  V30 12482 O 1255.05 -0.965276 1.64581 0
M  V30 12483 C 1252.19 -1.33255 3.18335 0
M  V30 12484 C 1251.31 -0.660248 4.26925 0
M  V30 12485 C 1250.44 -1.69837 5.03318 0
M  V30 12486 C 1249.48 -1.00802 6.03743 0
M  V30 12487 N 1248.62 -1.99042 6.73295 0
M  V30 12488 H 1253.46 0.411599 2.95144 0
M  V30 12489 H 1250.99 0.214824 1.45523 0
M  V30 12490 H 1252.95 -1.95769 3.68416 0
M  V30 12491 H 1251.58 -1.98789 2.54328 0
M  V30 12492 H 1250.63 0.0782181 3.8032 0
M  V30 12493 H 1251.95 -0.11689 4.98663 0
M  V30 12494 H 1251.1 -2.39852 5.57275 0
M  V30 12495 H 1249.84 -2.27558 4.31357 0
M  V30 12496 H 1248.84 -0.293654 5.49015 0
M  V30 12497 H 1250.07 -0.437285 6.77691 0
M  V30 12498 H 1248.01 -2.55722 6.04104 0
M  V30 12499 H 1247.93 -1.49776 7.41015 0
M  V30 12500 H 1249.2 -2.6834 7.31856 0
M  V30 12501 N 1253.43 -1.55816 0.23648 0
M  V30 12502 C 1254.65 -2.03534 -0.398575 0
M  V30 12503 C 1255.08 -1.11488 -1.51499 0
M  V30 12504 O 1254.44 -0.105848 -1.80991 0
M  V30 12505 C 1254.48 -3.49356 -0.893467 0
M  V30 12506 O 1253.59 -3.60446 -2.00381 0
M  V30 12507 H 1252.93 -0.658102 -0.0883021 0
M  V30 12508 H 1255.46 -2.01417 0.359488 0
M  V30 12509 H 1255.47 -3.89972 -1.19941 0
M  V30 12510 H 1254.14 -4.1583 -0.0764388 0
M  V30 12511 H 1252.72 -3.31723 -1.70336 0
M  V30 12512 N 1254.91 0.036755 -1.57557 0
M  V30 12513 C 1256.32 0.392264 -1.54704 0
M  V30 12514 C 1256.52 1.77076 -0.96157 0
M  V30 12515 O 1255.58 2.45766 -0.579263 0
M  V30 12516 C 1256.89 0.301168 -2.99188 0
M  V30 12517 C 1258.44 0.378813 -3.10699 0
M  V30 12518 C 1258.91 0.317249 -4.569 0
M  V30 12519 N 1260.41 0.376277 -4.61669 0
M  V30 12520 C 1261.14 0.351411 -5.72322 0
M  V30 12521 N 1260.64 0.279288 -6.92237 0
M  V30 12522 N 1262.43 0.400571 -5.60671 0
M  V30 12523 H 1254.58 -0.865455 -1.93968 0
M  V30 12524 H 1256.84 -0.328339 -0.889324 0
M  V30 12525 H 1256.55 -0.64582 -3.4572 0
M  V30 12526 H 1256.42 1.09784 -3.6087 0
M  V30 12527 H 1258.81 1.31623 -2.6412 0
M  V30 12528 H 1258.89 -0.447072 -2.51863 0
M  V30 12529 H 1258.54 -0.616469 -5.04145 0
M  V30 12530 H 1258.47 1.16114 -5.13639 0
M  V30 12531 H 1260.96 0.434843 -3.7539 0
M  V30 12532 H 1261.27 0.265202 -7.72345 0
M  V30 12533 H 1259.61 0.24545 -6.94566 0
M  V30 12534 H 1262.81 0.454854 -4.65885 0
M  V30 12535 H 1262.98 0.377724 -6.46898 0
M  V30 12536 N 1256.39 1.54543 0.308881 0
M  V30 12537 C 1257.63 1.73107 1.043 0
M  V30 12538 C 1257.95 0.515481 1.88063 0
M  V30 12539 O 1257.22 -0.47036 1.90169 0
M  V30 12540 H 1255.8 0.638289 0.388068 0
M  V30 12541 H 1258.47 1.9188 0.341769 0
M  V30 12542 H 1257.56 2.61697 1.70063 0
M  V30 12543 N 1257.86 -0.571685 1.46866 0
M  V30 12544 C 1258.79 -1.68994 1.61131 0
M  V30 12545 C 1259.77 -1.63728 0.461222 0
M  V30 12546 O 1260.96 -1.81574 0.688813 0
M  V30 12547 C 1258.09 -3.07638 1.61172 0
M  V30 12548 C 1257.04 -3.27742 2.75262 0
M  V30 12549 C 1256.37 -4.67025 2.60368 0
M  V30 12550 C 1257.67 -3.14511 4.16989 0
M  V30 12551 H 1259.36 -1.57311 2.54742 0
M  V30 12552 H 1256.91 -0.755382 1.22597 0
M  V30 12553 H 1258.86 -3.857 1.69744 0
M  V30 12554 H 1257.59 -3.20245 0.641122 0
M  V30 12555 H 1256.25 -2.52083 2.66176 0
M  V30 12556 H 1255.89 -4.76413 1.61368 0
M  V30 12557 H 1255.59 -4.81428 3.36899 0
M  V30 12558 H 1257.12 -5.47242 2.70848 0
M  V30 12559 H 1258.53 -3.82407 4.27128 0
M  V30 12560 H 1256.93 -3.40431 4.94193 0
M  V30 12561 H 1258 -2.11443 4.36371 0
M  V30 12562 N 1259.34 -1.34755 -0.817236 0
M  V30 12563 C 1260.27 -1.22648 -1.93624 0
M  V30 12564 C 1261.29 -0.152226 -1.62087 0
M  V30 12565 O 1262.48 -0.404578 -1.73855 0
M  V30 12566 C 1259.58 -0.863519 -3.27714 0
M  V30 12567 C 1258.75 -2.03394 -3.87233 0
M  V30 12568 C 1257.81 -1.64846 -4.99712 0
M  V30 12569 O 1256.83 -2.3658 -5.17705 0
M  V30 12570 N 1258.04 -0.565909 -5.77735 0
M  V30 12571 H 1260.8 -2.19051 -2.0454 0
M  V30 12572 H 1258.36 -1.27785 -0.994113 0
M  V30 12573 H 1260.35 -0.58733 -4.00415 0
M  V30 12574 H 1258.92 0.0104987 -3.12598 0
M  V30 12575 H 1258.14 -2.47454 -3.06856 0
M  V30 12576 H 1259.43 -2.81655 -4.23731 0
M  V30 12577 H 1258.83 0.030313 -5.65692 0
M  V30 12578 H 1257.39 -0.349467 -6.50862 0
M  V30 12579 N 1260.82 1.03812 -1.18578 0
M  V30 12580 C 1262.23 1.58509 -0.986496 0
M  V30 12581 C 1262.58 1.90655 0.463136 0
M  V30 12582 O 1261.71 1.69847 1.34093 0
M  V30 12583 C 1262.3 2.88 -1.78441 0
M  V30 12584 C 1260.86 3.39304 -1.6294 0
M  V30 12585 C 1260.01 2.12857 -1.77727 0
M  V30 12586 H 1262.96 0.864528 -1.33085 0
M  V30 12587 H 1262.98 3.58502 -1.27501 0
M  V30 12588 H 1262.49 2.64572 -2.83942 0
M  V30 12589 H 1260.59 3.6774 -0.599864 0
M  V30 12590 H 1260.71 4.12959 -2.42902 0
M  V30 12591 H 1259.07 2.24285 -1.20699 0
M  V30 12592 H 1259.85 1.91882 -2.84669 0
M  V30 12593 N 1262.3 0.988223 1.22768 0
M  V30 12594 C 1263.23 0.492919 2.23837 0
M  V30 12595 C 1264.24 -0.409467 1.57567 0
M  V30 12596 O 1265.43 -0.21235 1.77232 0
M  V30 12597 C 1262.53 -0.305428 3.37521 0
M  V30 12598 C 1261.7 0.591966 4.33376 0
M  V30 12599 C 1260.76 -0.15387 5.25975 0
M  V30 12600 O 1259.79 0.459153 5.67345 0
M  V30 12601 N 1260.99 -1.43756 5.62418 0
M  V30 12602 H 1263.76 1.36199 2.66965 0
M  V30 12603 H 1261.32 0.862395 1.3702 0
M  V30 12604 H 1263.31 -0.812921 3.96451 0
M  V30 12605 H 1261.88 -1.07556 2.93514 0
M  V30 12606 H 1261.1 1.28019 3.72833 0
M  V30 12607 H 1262.39 1.20327 4.94367 0
M  V30 12608 H 1261.79 -1.95701 5.30771 0
M  V30 12609 H 1260.34 -1.89034 6.23786 0
M  V30 12610 N 1263.78 -1.38018 0.760839 0
M  V30 12611 C 1264.72 -2.32251 0.127425 0
M  V30 12612 C 1265.72 -1.54387 -0.69722 0
M  V30 12613 O 1266.92 -1.69864 -0.595505 0
M  V30 12614 H 1263.3 -0.751666 0.0224141 0
M  V30 12615 H 1265.27 -2.8327 0.93813 0
M  V30 12616 C 1264.02 -3.39606 -0.745849 0
M  V30 12617 H 1263.34 -3.99618 -0.120679 0
M  V30 12618 H 1264.78 -4.07931 -1.15621 0
M  V30 12619 C 1263.24 -2.78778 -1.89167 0
M  V30 12620 O 1263.77 -2.68661 -2.98637 0
M  V30 12621 N 1261.98 -2.36481 -1.68894 0
M  V30 12622 H 1261.52 -2.4491 -0.798551 0
M  V30 12623 H 1261.48 -1.96126 -2.45728 0
M  V30 12624 N 1265.25 -0.510493 -1.49103 0
M  V30 12625 C 1266.18 0.251999 -2.32136 0
M  V30 12626 C 1267.16 0.953613 -1.40855 0
M  V30 12627 O 1268.35 0.943178 -1.69758 0
M  V30 12628 C 1265.48 1.31118 -3.21598 0
M  V30 12629 C 1264.43 0.72888 -4.21748 0
M  V30 12630 C 1263.76 1.88928 -5.0021 0
M  V30 12631 C 1265.06 -0.286425 -5.21514 0
M  V30 12632 H 1266.75 -0.441102 -2.96133 0
M  V30 12633 H 1264.3 -0.213577 -1.42407 0
M  V30 12634 H 1266.25 1.8524 -3.78503 0
M  V30 12635 H 1264.98 2.0336 -2.55563 0
M  V30 12636 H 1263.64 0.209336 -3.66002 0
M  V30 12637 H 1263.28 2.59961 -4.30615 0
M  V30 12638 H 1262.98 1.50568 -5.67981 0
M  V30 12639 H 1264.51 2.43465 -5.59962 0
M  V30 12640 H 1265.92 0.166997 -5.73057 0
M  V30 12641 H 1264.32 -0.586361 -5.97228 0
M  V30 12642 H 1265.39 -1.19904 -4.69842 0
M  V30 12643 N 1266.73 1.55688 -0.24474 0
M  V30 12644 C 1267.98 1.99926 0.374301 0
M  V30 12645 C 1268.33 1.12997 1.55723 0
M  V30 12646 O 1267.63 0.185026 1.90705 0
M  V30 12647 C 1267.82 3.47487 0.835923 0
M  V30 12648 C 1267.65 4.48693 -0.300729 0
M  V30 12649 C 1266.42 4.99326 -0.774706 0
M  V30 12650 C 1268.62 5.018 -1.12699 0
M  V30 12651 N 1266.6 5.84276 -1.88399 0
M  V30 12652 C 1267.97 5.83901 -2.0847 0
M  V30 12653 C 1270.02 4.84108 -1.16379 0
M  V30 12654 C 1268.73 6.50197 -3.07629 0
M  V30 12655 C 1270.75 5.51181 -2.14368 0
M  V30 12656 C 1270.12 6.33068 -3.08876 0
M  V30 12657 H 1266.21 0.775189 0.102984 0
M  V30 12658 H 1268.8 1.91308 -0.361824 0
M  V30 12659 H 1266.97 3.56507 1.54135 0
M  V30 12660 H 1268.7 3.78604 1.42973 0
M  V30 12661 H 1265.46 4.72236 -0.359226 0
M  V30 12662 H 1265.88 6.31449 -2.44134 0
M  V30 12663 H 1270.52 4.2043 -0.447006 0
M  V30 12664 H 1268.24 7.13042 -3.80258 0
M  V30 12665 H 1271.83 5.39446 -2.1792 0
M  V30 12666 H 1270.71 6.84053 -3.8346 0
M  V30 12667 N 1268.21 -0.0283989 1.57574 0
M  V30 12668 C 1269.16 -1.04723 2.07692 0
M  V30 12669 C 1270.15 -1.37399 0.990847 0
M  V30 12670 O 1271.36 -1.36297 1.17572 0
M  V30 12671 H 1267.73 -0.355251 0.662798 0
M  V30 12672 H 1269.7 -0.598737 2.92331 0
M  V30 12673 C 1268.45 -2.33941 2.57229 0
M  V30 12674 H 1267.78 -2.09659 3.40416 0
M  V30 12675 H 1269.22 -3.03574 2.96005 0
M  V30 12676 C 1267.67 -3.02953 1.47381 0
M  V30 12677 O 1268.2 -3.9281 0.840431 0
M  V30 12678 N 1266.41 -2.64294 1.20819 0
M  V30 12679 H 1265.96 -1.91307 1.72509 0
M  V30 12680 H 1265.92 -3.10786 0.475353 0
M  V30 12681 N 1269.69 -1.54705 -0.300681 0
M  V30 12682 C 1271.1 -1.64998 -0.873654 0
M  V30 12683 C 1271.45 -0.558842 -1.88073 0
M  V30 12684 O 1270.57 0.304474 -2.14247 0
M  V30 12685 C 1271.17 -2.99099 -1.59138 0
M  V30 12686 C 1269.73 -3.11512 -2.11276 0
M  V30 12687 C 1268.88 -2.60681 -0.945551 0
M  V30 12688 H 1271.83 -1.5851 -0.0776752 0
M  V30 12689 H 1271.85 -2.9054 -2.45696 0
M  V30 12690 H 1271.36 -3.78493 -0.858172 0
M  V30 12691 H 1269.46 -2.36838 -2.87643 0
M  V30 12692 H 1269.57 -4.17672 -2.34707 0
M  V30 12693 H 1267.94 -2.17143 -1.33121 0
M  V30 12694 H 1268.72 -3.42553 -0.226291 0
M  V30 12695 N 1271.17 0.563888 -1.47167 0
M  V30 12696 C 1272.39 1.34693 -1.57052 0
M  V30 12697 C 1272.81 1.87534 -0.218308 0
M  V30 12698 O 1272.17 1.64639 0.787416 0
M  V30 12699 C 1272.22 2.52148 -2.59044 0
M  V30 12700 O 1271.94 2.01492 -3.89015 0
M  V30 12701 C 1273.44 3.4445 -2.7905 0
M  V30 12702 H 1270.66 0.410822 -0.530534 0
M  V30 12703 H 1273.2 0.683731 -1.92731 0
M  V30 12704 H 1271.36 3.14419 -2.26317 0
M  V30 12705 H 1271.77 2.78122 -4.44689 0
M  V30 12706 H 1273.25 4.23297 -3.54293 0
M  V30 12707 H 1273.72 3.97575 -1.86631 0
M  V30 12708 H 1274.33 2.88 -3.12948 0
M  V30 12709 N 1272.64 1.35187 0.810078 0
M  V30 12710 C 1273.87 1.31181 1.59609 0
M  V30 12711 C 1274.28 -0.113556 1.88859 0
M  V30 12712 O 1273.63 -1.07491 1.48968 0
M  V30 12713 C 1273.69 2.04749 2.95496 0
M  V30 12714 C 1273.35 3.53952 2.89079 0
M  V30 12715 C 1274.35 4.48612 2.6276 0
M  V30 12716 C 1272.03 3.96551 3.08306 0
M  V30 12717 C 1274.03 5.83846 2.5574 0
M  V30 12718 C 1271.71 5.31881 3.00909 0
M  V30 12719 C 1272.71 6.2534 2.74661 0
M  V30 12720 O 1272.4 7.58188 2.6722 0
M  V30 12721 H 1272.13 0.452285 0.502408 0
M  V30 12722 H 1274.69 1.78571 1.01497 0
M  V30 12723 H 1272.92 1.51992 3.55577 0
M  V30 12724 H 1274.61 1.93866 3.5661 0
M  V30 12725 H 1275.37 4.1702 2.47628 0
M  V30 12726 H 1271.25 3.24194 3.27749 0
M  V30 12727 H 1274.79 6.56765 2.35172 0
M  V30 12728 H 1270.69 5.63088 3.15598 0
M  V30 12729 H 1271.46 7.68073 2.82853 0
M  V30 12730 N 1274.12 -1.03182 1.19127 0
M  V30 12731 C 1275.54 -1.28773 0.942854 0
M  V30 12732 C 1275.74 -1.97759 -0.386483 0
M  V30 12733 O 1274.79 -2.26365 -1.1187 0
M  V30 12734 C 1276.11 -2.13771 2.11476 0
M  V30 12735 C 1277.66 -2.27089 2.15406 0
M  V30 12736 C 1278.13 -3.15458 3.32039 0
M  V30 12737 N 1279.62 -3.23046 3.31957 0
M  V30 12738 C 1280.36 -3.91604 4.18848 0
M  V30 12739 N 1279.85 -4.62418 5.15889 0
M  V30 12740 N 1281.65 -3.87974 4.06734 0
M  V30 12741 H 1273.8 -0.568165 2.0466 0
M  V30 12742 H 1276.06 -0.31328 0.89474 0
M  V30 12743 H 1275.77 -1.704 3.07663 0
M  V30 12744 H 1275.64 -3.14476 2.0829 0
M  V30 12745 H 1278.03 -2.69693 1.19791 0
M  V30 12746 H 1278.11 -1.25945 2.22647 0
M  V30 12747 H 1277.75 -2.73564 4.27931 0
M  V30 12748 H 1277.68 -4.16654 3.22035 0
M  V30 12749 H 1280.17 -2.7261 2.6171 0
M  V30 12750 H 1280.49 -5.12353 5.78545 0
M  V30 12751 H 1278.83 -4.61293 5.1984 0
M  V30 12752 H 1282.02 -3.31789 3.30202 0
M  V30 12753 H 1282.19 -4.4113 4.74666 0
M  V30 12754 N 1275.6 -0.99472 -1.22242 0
M  V30 12755 C 1276.83 -0.689809 -1.95592 0
M  V30 12756 C 1277.25 0.739321 -1.72961 0
M  V30 12757 O 1276.61 1.50563 -1.00997 0
M  V30 12758 C 1276.66 -1.00367 -3.46351 0
M  V30 12759 O 1275.76 -0.103326 -4.12271 0
M  V30 12760 H 1275.1 -0.257997 -0.611828 0
M  V30 12761 H 1277.63 -1.33219 -1.55286 0
M  V30 12762 H 1277.64 -0.946259 -3.96875 0
M  V30 12763 H 1276.32 -2.04504 -3.62148 0
M  V30 12764 H 1274.89 -0.216374 -3.72272 0
M  V30 12765 O 1277.12 1.33759 -0.905026 0
M  V30 12766 H 1277.81 1.86638 -0.518252 0
M  V30 END ATOM
M  V30 BEGIN BOND
M  V30 END BOND
M  V30 END CTAB
M  END
$$$$
