drugbank_target|P27017 Aliphatic amidase expression-regulating protein (DB02121; DB02736)
 OpenBabel12092119543D

  0  0  0     0  0            999 V3000
M  V30 BEGIN CTAB
M  V30 COUNTS 5937 6013 0 0 0
M  V30 BEGIN ATOM
M  V30 1 H -0.908 1.98254 -0.117106 0
M  V30 2 N 0 1.576 0 0
M  V30 3 C 0.933 2.03868 1.02534 0
M  V30 4 C 1.911 0.928543 1.3348 0
M  V30 5 O 3.095 1.19667 1.45644 0
M  V30 6 C 0.222 2.43627 2.35294 0
M  V30 7 C -0.732 3.65373 2.2001 0
M  V30 8 S 0.101 5.13292 1.52614 0
M  V30 9 C 1.257 5.56322 2.86805 0
M  V30 10 H 1.49 2.90518 0.631377 0
M  V30 11 H -0.977 1.52953 0.210867 0
M  V30 12 H 0.981 2.67203 3.11629 0
M  V30 13 H -0.358 1.57376 2.7183 0
M  V30 14 H -1.165 3.90944 3.18086 0
M  V30 15 H -1.563 3.418 1.51819 0
M  V30 16 H 0.729 5.58782 3.83104 0
M  V30 17 H 1.672 6.56266 2.65933 0
M  V30 18 H 2.08 4.83886 2.90714 0
M  V30 19 N 1.4781 -0.272755 1.55222 0
M  V30 20 C 2.7261 -1.00234 1.75492 0
M  V30 21 C 3.0471 -1.8681 0.5592 0
M  V30 22 O 2.3171 -1.91215 -0.425882 0
M  V30 23 H 0.8971 -0.373076 0.647166 0
M  V30 24 H 3.5591 -0.296926 1.92625 0
M  V30 25 H 2.6551 -1.63913 2.65592 0
M  V30 26 N 2.9562 -1.48159 -0.537278 0
M  V30 27 C 4.1812 -1.59707 -1.32319 0
M  V30 28 C 4.6062 -0.254859 -1.86365 0
M  V30 29 O 3.9642 0.772378 -1.64024 0
M  V30 30 C 4.0122 -2.6412 -2.45505 0
M  V30 31 O 3.1162 -2.20774 -3.48328 0
M  V30 32 H 2.4572 -0.535791 -0.392204 0
M  V30 33 H 4.9872 -1.94092 -0.647268 0
M  V30 34 H 4.9972 -2.85166 -2.91795 0
M  V30 35 H 3.6722 -3.61567 -2.05528 0
M  V30 36 H 2.2492 -2.09911 -3.08207 0
M  V30 37 N 4.4343 0.785586 -1.36625 0
M  V30 38 C 5.3843 1.88822 -1.27789 0
M  V30 39 C 6.3683 1.60014 -0.168579 0
M  V30 40 O 7.5603 1.72381 -0.401737 0
M  V30 41 C 4.6893 3.26092 -1.07327 0
M  V30 42 C 3.7753 3.60897 -2.22743 0
M  V30 43 N 4.1663 3.66982 -3.48077 0
M  V30 44 C 2.4643 3.90981 -2.14593 0
M  V30 45 C 3.1653 3.98137 -4.24101 0
M  V30 46 N 2.1413 4.13319 -3.53084 0
M  V30 47 H 5.9433 1.91759 -2.22723 0
M  V30 48 H 3.4573 0.981311 -1.29399 0
M  V30 49 H 5.4543 4.04954 -0.990842 0
M  V30 50 H 4.1143 3.24428 -0.132977 0
M  V30 51 H 5.1253 3.49531 -3.82163 0
M  V30 52 H 1.8023 3.9722 -1.2854 0
M  V30 53 H 3.1923 4.09737 -5.32509 0
M  V30 54 N 5.9124 1.20967 1.01018 0
M  V30 55 C 6.8444 0.922059 2.09835 0
M  V30 56 C 7.8574 -0.0927106 1.62536 0
M  V30 57 O 9.0464 0.139127 1.77957 0
M  V30 58 C 6.1464 0.362004 3.36961 0
M  V30 59 C 5.3194 1.42986 4.13369 0
M  V30 60 C 4.3784 0.879976 5.1879 0
M  V30 61 O 3.4044 1.56219 5.47343 0
M  V30 62 N 4.6064 -0.307396 5.79686 0
M  V30 63 H 7.3714 1.8588 2.35093 0
M  V30 64 H 4.9324 1.11422 1.1746 0
M  V30 65 H 6.9244 -0.0201474 4.04695 0
M  V30 66 H 5.4944 -0.479437 3.08902 0
M  V30 67 H 4.7144 1.98608 3.40512 0
M  V30 68 H 6.0024 2.14885 4.61196 0
M  V30 69 H 5.4004 -0.878796 5.58832 0
M  V30 70 H 3.9574 -0.631115 6.48737 0
M  V30 71 N 7.3905 -1.2043 1.01659 0
M  V30 72 C 8.3005 -2.2689 0.596484 0
M  V30 73 C 9.3165 -1.70107 -0.36599 0
M  V30 74 O 10.4925 -2.00117 -0.226942 0
M  V30 75 C 7.5575 -3.4665 -0.0586659 0
M  V30 76 C 6.6185 -4.18662 0.949751 0
M  V30 77 C 5.8515 -5.32705 0.32577 0
M  V30 78 O 6.0745 -5.63656 -0.874509 0
M  V30 79 O 5.0085 -5.92803 1.04249 0
M  V30 80 H 8.8345 -2.65041 1.4828 0
M  V30 81 H 6.4195 -1.27048 0.786082 0
M  V30 82 H 8.3015 -4.19256 -0.424564 0
M  V30 83 H 6.9765 -3.10375 -0.91918 0
M  V30 84 H 5.8835 -3.48229 1.36702 0
M  V30 85 H 7.2165 -4.58878 1.78023 0
M  V30 86 N 8.8686 -0.792821 -1.36206 0
M  V30 87 C 10.2846 -0.474903 -1.52371 0
M  V30 88 C 10.4846 1.00622 -1.74578 0
M  V30 89 O 9.5406 1.79162 -1.77924 0
M  V30 90 C 10.8536 -1.3083 -2.70747 0
M  V30 91 C 12.4016 -1.30234 -2.84619 0
M  V30 92 C 12.8766 -2.11956 -4.06004 0
M  V30 93 N 14.3676 -2.09419 -4.13156 0
M  V30 94 C 15.1026 -2.69419 -5.06163 0
M  V30 95 N 14.5986 -3.3829 -6.04592 0
M  V30 96 N 16.3916 -2.59134 -4.98804 0
M  V30 97 H 8.5426 -1.75222 -1.20046 0
M  V30 98 H 10.8056 -0.745024 -0.586211 0
M  V30 99 H 10.5116 -2.35881 -2.6087 0
M  V30 100 H 10.3856 -0.95196 -3.6499 0
M  V30 101 H 12.7726 -0.259748 -2.93955 0
M  V30 102 H 12.8536 -1.69847 -1.91274 0
M  V30 103 H 12.4976 -3.16248 -3.97429 0
M  V30 104 H 12.4276 -1.69711 -4.98503 0
M  V30 105 H 14.9186 -1.59297 -3.42685 0
M  V30 106 H 15.2316 -3.81394 -6.7213 0
M  V30 107 H 13.5766 -3.42393 -6.04807 0
M  V30 108 H 16.7676 -2.04927 -4.20859 0
M  V30 109 H 16.9406 -3.06185 -5.711 0
M  V30 110 N 10.3467 1.47872 -0.545128 0
M  V30 111 C 11.7577 1.86384 -0.108581 0
M  V30 112 C 12.1087 1.45309 1.31832 0
M  V30 113 O 11.2337 0.850641 1.9898 0
M  V30 114 C 11.8287 3.38265 -0.190274 0
M  V30 115 C 10.3877 3.75914 0.191164 0
M  V30 116 C 9.5347 2.71926 -0.543273 0
M  V30 117 H 12.4857 1.39561 -0.755537 0
M  V30 118 H 12.5067 3.75831 0.594217 0
M  V30 119 H 12.0187 3.6813 -1.2289 0
M  V30 120 H 10.1197 3.51665 1.23136 0
M  V30 121 H 10.2327 4.78836 -0.158987 0
M  V30 122 H 8.5967 2.54697 0.0122495 0
M  V30 123 H 9.3797 3.04634 -1.58282 0
M  V30 124 N 11.8248 0.280983 1.55075 0
M  V30 125 C 12.7548 -0.597469 2.25727 0
M  V30 126 C 13.7358 -1.15417 1.24952 0
M  V30 127 O 14.9208 -1.18722 1.53684 0
M  V30 128 C 12.0508 -1.7789 2.98283 0
M  V30 129 C 11.0048 -1.35347 4.06036 0
M  V30 130 C 10.3308 -2.61846 4.66198 0
M  V30 131 C 11.6308 -0.499354 5.19907 0
M  V30 132 H 13.3248 -0.00824265 2.99399 0
M  V30 133 H 10.8708 -0.0025244 1.44 0
M  V30 134 H 12.8238 -2.39937 3.46422 0
M  V30 135 H 11.5478 -2.39405 2.22155 0
M  V30 136 H 10.2068 -0.756156 3.58717 0
M  V30 137 H 9.8548 -3.21632 3.86732 0
M  V30 138 H 9.5548 -2.3409 5.38958 0
M  V30 139 H 11.0788 -3.24732 5.1709 0
M  V30 140 H 12.4928 -1.02498 5.64063 0
M  V30 141 H 10.8898 -0.316424 5.99265 0
M  V30 142 H 11.9598 0.480459 4.82514 0
M  V30 143 N 13.3029 -1.57598 0.00835791 0
M  V30 144 C 14.5519 -1.90107 -0.673968 0
M  V30 145 C 14.8649 -0.884275 -1.7447 0
M  V30 146 O 16.0709 -1.09987 -2.48224 0
M  V30 147 C 14.5269 -3.37497 -1.24995 0
M  V30 148 C 14.1349 -4.47491 -0.2136 0
M  V30 149 C 15.8789 -3.79104 -1.90999 0
M  V30 150 C 13.7859 -5.85963 -0.80005 0
M  V30 151 H 12.7159 -0.709393 -0.255495 0
M  V30 152 H 15.3669 -1.83365 0.0702693 0
M  V30 153 H 13.7489 -3.39102 -2.04513 0
M  V30 154 H 14.9229 -4.57414 0.557596 0
M  V30 155 H 13.2379 -4.14956 0.346474 0
M  V30 156 H 15.8349 -4.79901 -2.35795 0
M  V30 157 H 16.1779 -3.1306 -2.74407 0
M  V30 158 H 16.7109 -3.79833 -1.18203 0
M  V30 159 H 13.4499 -6.555 -0.00456708 0
M  V30 160 H 12.9699 -5.79687 -1.54021 0
M  V30 161 H 14.6489 -6.33884 -1.29615 0
M  V30 162 N 14.781 0.264519 -1.55364 0
M  V30 163 C 16.029 0.993021 -1.76021 0
M  V30 164 C 16.35 1.86511 -0.569099 0
M  V30 165 O 15.62 1.91438 0.415735 0
M  V30 166 H 14.2 0.369639 -0.649135 0
M  V30 167 H 16.862 0.286707 -1.9278 0
M  V30 168 H 15.958 1.62502 -2.66457 0
M  V30 169 N 16.2591 1.48442 0.529413 0
M  V30 170 C 17.1891 1.65902 1.64313 0
M  V30 171 C 18.1701 0.507897 1.6234 0
M  V30 172 O 19.3551 0.740503 1.79528 0
M  V30 173 C 16.4851 1.69911 3.02898 0
M  V30 174 C 15.4391 2.8453 3.19729 0
M  V30 175 C 14.7651 2.73629 4.59381 0
M  V30 176 C 16.0651 4.25821 3.02447 0
M  V30 177 H 17.7591 2.5914 1.49955 0
M  V30 178 H 15.3051 1.24709 0.719982 0
M  V30 179 H 17.2581 1.80715 3.80684 0
M  V30 180 H 15.9821 0.732524 3.18279 0
M  V30 181 H 14.6411 2.73283 2.44361 0
M  V30 182 H 14.2891 1.74938 4.71599 0
M  V30 183 H 13.9891 3.50541 4.71588 0
M  V30 184 H 15.5131 2.86401 5.39265 0
M  V30 185 H 16.9271 4.37898 3.70024 0
M  V30 186 H 15.3241 5.03735 3.26146 0
M  V30 187 H 16.3941 4.42244 1.98867 0
M  V30 188 N 17.7372 -0.778329 1.37039 0
M  V30 189 C 18.6672 -1.90546 1.34962 0
M  V30 190 C 19.6482 -1.68681 0.219274 0
M  V30 191 O 20.8332 -1.89634 0.418624 0
M  V30 192 C 17.9632 -3.27734 1.14925 0
M  V30 193 C 16.9172 -3.64147 2.24902 0
M  V30 194 C 16.2432 -4.99806 1.89996 0
M  V30 195 C 17.5432 -3.71579 3.67051 0
M  V30 196 H 19.2372 -1.92541 2.29277 0
M  V30 197 H 16.7832 -0.924948 1.10366 0
M  V30 198 H 18.7362 -4.06215 1.12104 0
M  V30 199 H 17.4602 -3.26154 0.170631 0
M  V30 200 H 16.1192 -2.8797 2.26868 0
M  V30 201 H 15.7672 -4.94759 0.906796 0
M  V30 202 H 15.4672 -5.25139 2.63634 0
M  V30 203 H 16.9912 -5.80694 1.88749 0
M  V30 204 H 18.4052 -4.40227 3.67251 0
M  V30 205 H 16.8022 -4.08405 4.39688 0
M  V30 206 H 17.8722 -2.72404 4.01154 0
M  V30 207 N 19.2153 -1.21501 -1.00376 0
M  V30 208 C 20.4623 -1.03299 -1.74171 0
M  V30 209 C 20.7903 0.433326 -1.89612 0
M  V30 210 O 20.0453 1.33779 -1.42834 0
M  V30 211 C 20.3443 -1.67673 -3.15627 0
M  V30 212 C 20.0103 -3.17533 -3.2013 0
M  V30 213 C 18.6723 -3.58427 -3.21067 0
M  V30 214 C 21.0243 -4.13504 -3.17275 0
M  V30 215 C 18.3523 -4.93794 -3.16835 0
M  V30 216 C 20.7043 -5.48834 -3.14585 0
M  V30 217 C 19.3683 -5.89123 -3.13831 0
M  V30 218 H 18.6383 -0.377999 -0.637336 0
M  V30 219 H 21.2853 -1.51111 -1.17634 0
M  V30 220 H 19.5903 -1.12158 -3.75404 0
M  V30 221 H 21.2873 -1.51091 -3.71446 0
M  V30 222 H 17.8773 -2.84965 -3.20145 0
M  V30 223 H 22.0613 -3.82936 -3.15711 0
M  V30 224 H 17.3173 -5.24255 -3.1459 0
M  V30 225 H 21.4913 -6.22934 -3.1133 0
M  V30 226 H 19.1183 -6.93984 -3.10307 0
M  V30 227 N 20.6934 1.19889 -1.02296 0
M  V30 228 C 21.9184 1.9393 -0.735237 0
M  V30 229 C 22.3434 1.74639 0.698782 0
M  V30 230 O 21.7014 1.04481 1.48167 0
M  V30 231 C 21.7494 3.43916 -1.08417 0
M  V30 232 O 20.8534 4.11917 -0.199446 0
M  V30 233 H 20.1944 0.605645 -0.272196 0
M  V30 234 H 22.7244 1.52137 -1.36804 0
M  V30 235 H 22.7344 3.9456 -1.03856 0
M  V30 236 H 21.4094 3.5728 -2.12894 0
M  V30 237 H 19.9864 3.71666 -0.303136 0
M  V30 238 N 22.1715 0.800033 1.35784 0
M  V30 239 C 23.0815 0.207204 2.33683 0
M  V30 240 C 24.0975 -0.64631 1.61551 0
M  V30 241 O 25.2735 -0.559604 1.93469 0
M  V30 242 C 22.3385 -0.639659 3.40748 0
M  V30 243 C 21.3995 0.233585 4.28664 0
M  V30 244 C 20.6325 -0.572954 5.30616 0
M  V30 245 O 20.8555 -1.80816 5.40982 0
M  V30 246 O 19.7895 0.0327285 6.01891 0
M  V30 247 H 23.6155 1.01692 2.86169 0
M  V30 248 H 21.2005 0.561691 1.38439 0
M  V30 249 H 23.0825 -1.12223 4.06182 0
M  V30 250 H 21.7575 -1.42708 2.90544 0
M  V30 251 H 20.6645 0.763147 3.66233 0
M  V30 252 H 21.9975 0.984784 4.82248 0
M  V30 253 N 23.6496 -1.47581 0.552962 0
M  V30 254 C 24.8776 -2.06875 0.0320556 0
M  V30 255 C 25.2926 -1.40625 -1.25976 0
M  V30 256 O 24.6496 -0.501349 -1.75479 0
M  V30 257 C 24.7006 -3.61092 -0.17167 0
M  V30 258 O 24.4216 -4.24858 1.06899 0
M  V30 259 C 25.9226 -4.37242 -0.730344 0
M  V30 260 H 23.1426 -0.669561 0.043915 0
M  V30 261 H 25.6866 -1.89646 0.765163 0
M  V30 262 H 23.8416 -3.7785 -0.854894 0
M  V30 263 H 24.2556 -5.17334 0.864059 0
M  V30 264 H 25.7296 -5.45842 -0.822203 0
M  V30 265 H 26.2066 -4.03235 -1.74064 0
M  V30 266 H 26.8126 -4.25219 -0.0829543 0
M  V30 267 N 25.1277 -0.289203 -1.54924 0
M  V30 268 C 26.3757 0.322879 -1.99504 0
M  V30 269 C 26.6967 1.55313 -1.1791 0
M  V30 270 O 25.9667 1.94001 -0.272097 0
M  V30 271 H 24.5467 0.122291 -0.736922 0
M  V30 272 H 27.2087 -0.397802 -1.90797 0
M  V30 273 H 26.3047 0.603061 -3.06218 0
M  V30 274 N 26.6058 1.57591 -0.0167156 0
M  V30 275 C 27.8518 1.91567 0.665582 0
M  V30 276 C 28.1848 0.892298 1.72487 0
M  V30 277 O 27.4598 -0.0867127 1.94307 0
M  V30 278 C 27.7428 3.36069 1.29342 0
M  V30 279 C 27.5958 4.49135 0.244541 0
M  V30 280 C 28.9148 3.803 2.21495 0
M  V30 281 H 26.0338 0.69666 0.240488 0
M  V30 282 H 28.6758 1.89866 -0.0714356 0
M  V30 283 H 26.8258 3.3765 1.92158 0
M  V30 284 H 28.4978 4.59689 -0.385228 0
M  V30 285 H 26.7408 4.3165 -0.431379 0
M  V30 286 H 27.4118 5.47242 0.723207 0
M  V30 287 H 29.8878 3.80377 1.68678 0
M  V30 288 H 28.7638 4.82127 2.62382 0
M  V30 289 H 29.0248 3.15104 3.101 0
M  V30 290 N 28.0839 -0.256276 1.55502 0
M  V30 291 C 29.3119 -1.00342 1.8094 0
M  V30 292 C 29.7269 -1.79307 0.59114 0
M  V30 293 O 29.0839 -1.77114 -0.440081 0
M  V30 294 C 29.1349 -1.94875 3.04476 0
M  V30 295 O 28.8559 -1.19107 4.21598 0
M  V30 296 C 30.3569 -2.81266 3.42644 0
M  V30 297 H 27.5769 -0.295685 0.602338 0
M  V30 298 H 30.1209 -0.281998 2.02546 0
M  V30 299 H 28.2759 -2.62457 2.84947 0
M  V30 300 H 28.6899 -1.82969 4.91551 0
M  V30 301 H 30.1639 -3.43362 4.32211 0
M  V30 302 H 30.6409 -3.51897 2.62802 0
M  V30 303 H 31.2469 -2.1915 3.64491 0
M  V30 304 N 29.562 -1.4872 -0.521534 0
M  V30 305 C 30.525 -1.63379 -1.60748 0
M  V30 306 C 31.525 -0.50661 -1.52611 0
M  V30 307 O 32.715 -0.772601 -1.5613 0
M  V30 308 C 29.847 -1.61192 -3.00383 0
M  V30 309 H 31.04 -2.60217 -1.49087 0
M  V30 310 H 28.593 -1.37444 -0.744235 0
M  V30 311 H 29.328 -0.65863 -3.17541 0
M  V30 312 H 29.113 -2.43032 -3.07698 0
M  V30 313 H 30.603 -1.7466 -3.7932 0
M  V30 314 N 31.0401 0.771051 -1.3745 0
M  V30 315 C 32.3171 1.519 -1.23231 0
M  V30 316 C 32.6971 2.10383 0.173809 0
M  V30 317 O 32.0451 1.95583 1.18151 0
M  V30 318 C 32.2551 2.59933 -2.32886 0
M  V30 319 C 33.6031 3.27316 -2.70461 0
M  V30 320 O 34.6271 2.70228 -2.32068 0
M  V30 321 O 33.4861 4.30531 -3.36608 0
M  V30 322 H 30.5801 0.672803 -0.480901 0
M  V30 323 H 33.1261 0.807957 -1.49232 0
M  V30 324 H 31.8981 2.14842 -3.27045 0
M  V30 325 H 31.5211 3.38637 -2.08353 0
M  V30 326 N 32.5182 1.22032 0.997298 0
M  V30 327 C 33.7672 1.03637 1.73038 0
M  V30 328 C 34.0802 -0.429475 1.90827 0
M  V30 329 O 35.2862 -0.732995 2.61418 0
M  V30 330 C 33.7422 1.80582 3.11317 0
M  V30 331 C 33.3502 3.31387 3.01474 0
M  V30 332 C 35.0942 1.70621 3.88701 0
M  V30 333 C 33.0012 4.00791 4.3488 0
M  V30 334 H 31.9312 0.384179 0.648785 0
M  V30 335 H 34.5822 1.4584 1.11368 0
M  V30 336 H 32.9642 1.31175 3.73643 0
M  V30 337 H 34.1382 3.88155 2.4834 0
M  V30 338 H 32.4532 3.41976 2.37575 0
M  V30 339 H 35.0502 2.19799 4.87434 0
M  V30 340 H 35.3932 0.665823 4.10941 0
M  V30 341 H 35.9262 2.17547 3.33044 0
M  V30 342 H 32.6652 5.05064 4.1784 0
M  V30 343 H 32.1852 3.48811 4.87945 0
M  V30 344 H 33.8642 4.06139 5.03647 0
M  V30 345 N 33.9963 -1.19345 1.0293 0
M  V30 346 C 34.9063 -2.26245 0.620515 0
M  V30 347 C 35.9223 -1.70486 -0.347928 0
M  V30 348 O 37.0983 -2.00347 -0.205704 0
M  V30 349 C 34.1633 -3.46693 -0.0218957 0
M  V30 350 C 33.2243 -4.17632 0.994102 0
M  V30 351 C 32.4573 -5.32329 0.382253 0
M  V30 352 O 32.6803 -5.64552 -0.814676 0
M  V30 353 O 31.6143 -5.91664 1.10531 0
M  V30 354 H 35.4403 -2.63453 1.51083 0
M  V30 355 H 33.0253 -1.26207 0.799513 0
M  V30 356 H 34.9073 -4.19683 -0.380072 0
M  V30 357 H 33.5823 -3.11333 -0.886209 0
M  V30 358 H 32.4893 -3.4676 1.40387 0
M  V30 359 H 33.8223 -4.56964 1.8288 0
M  V30 360 N 35.4744 -0.807222 -1.35358 0
M  V30 361 C 36.8904 -0.491038 -1.51858 0
M  V30 362 C 37.0904 0.987648 -1.75635 0
M  V30 363 O 36.1464 1.77265 -1.79815 0
M  V30 364 C 37.4594 -1.33695 -2.69344 0
M  V30 365 C 39.0074 -1.33246 -2.83222 0
M  V30 366 C 39.4824 -2.1625 -4.03733 0
M  V30 367 N 40.9734 -2.1379 -4.10911 0
M  V30 368 C 41.7084 -2.74772 -5.03277 0
M  V30 369 N 41.2044 -3.44684 -6.0097 0
M  V30 370 N 42.9974 -2.6441 -4.96028 0
M  V30 371 H 35.1484 -1.76485 -1.18181 0
M  V30 372 H 37.4114 -0.751199 -0.578276 0
M  V30 373 H 37.1174 -2.38634 -2.58354 0
M  V30 374 H 36.9914 -0.990618 -3.6396 0
M  V30 375 H 39.3784 -0.290911 -2.93663 0
M  V30 376 H 39.4594 -1.71866 -1.89461 0
M  V30 377 H 39.1034 -3.20445 -3.94052 0
M  V30 378 H 39.0334 -1.74989 -4.96675 0
M  V30 379 H 41.5244 -1.62923 -3.40976 0
M  V30 380 H 41.8374 -3.88501 -6.68047 0
M  V30 381 H 40.1824 -3.48788 -6.01142 0
M  V30 382 H 43.3734 -2.0938 -4.18662 0
M  V30 383 H 43.5464 -3.12225 -5.6782 0
M  V30 384 N 36.9525 1.47285 -0.560781 0
M  V30 385 C 38.1775 2.07359 -0.0410566 0
M  V30 386 C 38.6025 1.41017 1.24483 0
M  V30 387 O 37.9605 0.486368 1.74654 0
M  V30 388 C 38.0085 3.6035 0.134123 0
M  V30 389 O 37.1125 3.94681 1.19587 0
M  V30 390 H 36.4535 0.661887 -0.0529291 0
M  V30 391 H 38.9835 1.89252 -0.777482 0
M  V30 392 H 38.9935 4.0652 0.347207 0
M  V30 393 H 37.6685 4.08034 -0.805047 0
M  V30 394 H 36.2455 3.60251 0.962987 0
M  V30 395 N 38.4306 0.297415 1.54768 0
M  V30 396 C 39.3626 -0.613881 2.20826 0
M  V30 397 C 40.3756 -1.10032 1.19987 0
M  V30 398 O 41.5646 -1.01839 1.46598 0
M  V30 399 C 38.6646 -1.852 2.83821 0
M  V30 400 C 37.8376 -1.50865 4.10559 0
M  V30 401 C 36.8966 -2.60154 4.57391 0
M  V30 402 O 35.9226 -2.25398 5.2267 0
M  V30 403 N 37.1246 -3.90629 4.29406 0
M  V30 404 H 39.8896 -0.048389 2.99661 0
M  V30 405 H 37.4506 0.11946 1.61459 0
M  V30 406 H 39.4426 -2.57652 3.12086 0
M  V30 407 H 38.0126 -2.32597 2.08847 0
M  V30 408 H 37.2326 -0.616925 3.89343 0
M  V30 409 H 38.5206 -1.25458 4.9309 0
M  V30 410 H 37.9186 -4.21677 3.77101 0
M  V30 411 H 36.4756 -4.59391 4.62388 0
M  V30 412 N 39.9087 -1.5758 0.0250728 0
M  V30 413 C 41.3247 -1.56124 -0.331282 0
M  V30 414 C 41.5247 -1.03029 -1.73169 0
M  V30 415 O 40.5807 -0.675215 -2.43305 0
M  V30 416 C 41.8937 -3.00139 -0.183584 0
M  V30 417 C 43.4417 -3.11946 -0.256654 0
M  V30 418 C 43.9167 -4.57793 -0.137792 0
M  V30 419 N 45.4077 -4.6279 -0.194904 0
M  V30 420 C 46.1427 -5.7326 -0.126655 0
M  V30 421 N 45.6387 -6.928 -0.00755288 0
M  V30 422 N 47.4317 -5.61811 -0.180348 0
M  V30 423 H 39.5827 -1.90424 0.94087 0
M  V30 424 H 41.8457 -0.875761 0.362968 0
M  V30 425 H 41.5517 -3.4292 0.780927 0
M  V30 426 H 41.4257 -3.64899 -0.955448 0
M  V30 427 H 43.8127 -2.69079 -1.21162 0
M  V30 428 H 43.8937 -2.49915 0.545517 0
M  V30 429 H 43.5377 -5.01339 0.813739 0
M  V30 430 H 43.4677 -5.17798 -0.958775 0
M  V30 431 H 45.9587 -3.76807 -0.287267 0
M  V30 432 H 46.2717 -7.72791 0.0379428 0
M  V30 433 H 44.6167 -6.94995 0.0271731 0
M  V30 434 H 47.8077 -4.6731 -0.271767 0
M  V30 435 H 47.9807 -6.47882 -0.123697 0
M  V30 436 N 41.3868 0.248026 -1.55636 0
M  V30 437 C 42.6168 0.992367 -1.81206 0
M  V30 438 C 43.0248 1.7949 -0.598324 0
M  V30 439 O 42.3678 1.78292 0.442434 0
M  V30 440 C 42.4298 1.97926 -3.00109 0
M  V30 441 C 42.0938 1.36377 -4.36177 0
M  V30 442 C 43.0908 0.76682 -5.14214 0
M  V30 443 C 40.7758 1.38347 -4.82872 0
M  V30 444 C 42.7698 0.197778 -6.37093 0
M  V30 445 C 40.4568 0.810574 -6.057 0
M  V30 446 C 41.4548 0.218754 -6.8265 0
M  V30 447 O 41.1428 -0.345298 -8.03158 0
M  V30 448 H 40.8748 0.297704 -0.606917 0
M  V30 449 H 43.4288 0.276517 -2.0353 0
M  V30 450 H 41.6588 2.73339 -2.73538 0
M  V30 451 H 43.3478 2.58694 -3.12781 0
M  V30 452 H 44.1138 0.744114 -4.79258 0
M  V30 453 H 39.9928 1.8335 -4.2297 0
M  V30 454 H 43.5368 -0.264788 -6.97097 0
M  V30 455 H 39.4338 0.830604 -6.40134 0
M  V30 456 H 40.2018 -0.237055 -8.18157 0
M  V30 457 N 42.8649 1.48995 0.513639 0
M  V30 458 C 44.1129 1.57531 1.26604 0
M  V30 459 C 44.4339 0.258236 1.93283 0
M  V30 460 O 43.7039 -0.721502 1.8213 0
M  V30 461 H 42.2839 0.580387 0.470276 0
M  V30 462 H 44.9459 1.85552 0.596373 0
M  V30 463 H 44.0419 2.36486 2.03669 0
M  V30 464 N 44.343 -0.763751 1.37857 0
M  V30 465 C 45.306 -1.85889 1.34081 0
M  V30 466 C 46.306 -1.58949 0.243277 0
M  V30 467 O 47.496 -1.66882 0.499589 0
M  V30 468 C 44.628 -3.23176 1.08489 0
M  V30 469 H 45.821 -1.90648 2.31502 0
M  V30 470 H 43.374 -0.964367 1.23003 0
M  V30 471 H 44.109 -3.24091 0.116318 0
M  V30 472 H 43.894 -3.44124 1.8794 0
M  V30 473 H 45.384 -4.03254 1.08517 0
M  V30 474 N 45.8211 -1.22559 -0.990812 0
M  V30 475 C 46.7511 -1.0218 -2.09956 0
M  V30 476 C 47.7321 0.0579394 -1.70001 0
M  V30 477 O 48.9171 -0.104684 -1.93918 0
M  V30 478 C 46.0471 -0.601023 -3.4206 0
M  V30 479 C 45.0011 -1.62694 -3.95872 0
M  V30 480 C 44.3271 -1.06193 -5.24049 0
M  V30 481 C 45.6271 -3.01743 -4.2632 0
M  V30 482 H 47.3211 -1.94916 -2.27262 0
M  V30 483 H 44.8671 -0.938566 -1.09211 0
M  V30 484 H 46.8201 -0.445561 -4.19038 0
M  V30 485 H 45.5441 0.362005 -3.24588 0
M  V30 486 H 44.2031 -1.77021 -3.21028 0
M  V30 487 H 43.8511 -0.0901903 -5.02919 0
M  V30 488 H 43.5511 -1.74732 -5.61019 0
M  V30 489 H 45.0751 -0.918092 -6.03658 0
M  V30 490 H 46.4891 -2.90777 -4.94087 0
M  V30 491 H 44.8861 -3.67425 -4.74467 0
M  V30 492 H 45.9561 -3.51518 -3.34011 0
M  V30 493 N 47.2992 1.18797 -1.03562 0
M  V30 494 C 48.2292 2.24472 -0.643019 0
M  V30 495 C 49.2102 1.66433 0.351283 0
M  V30 496 O 50.3952 1.92803 0.232505 0
M  V30 497 C 47.5252 3.473 4.24935e-05 0
M  V30 498 C 46.4792 4.18055 -0.917257 0
M  V30 499 C 45.8052 5.34519 -0.138941 0
M  V30 500 C 47.1052 4.72109 -2.23407 0
M  V30 501 H 48.7992 2.57566 -1.52643 0
M  V30 502 H 46.3452 1.23806 -0.735394 0
M  V30 503 H 48.2982 4.20426 0.286383 0
M  V30 504 H 47.0222 3.13424 0.918299 0
M  V30 505 H 45.6812 3.46821 -1.1879 0
M  V30 506 H 45.3292 4.96891 0.781562 0
M  V30 507 H 45.0292 5.82794 -0.750005 0
M  V30 508 H 46.5532 6.10438 0.1405 0
M  V30 509 H 47.9672 5.36955 -2.00879 0
M  V30 510 H 46.3642 5.30897 -2.79765 0
M  V30 511 H 47.4342 3.89807 -2.88407 0
M  V30 512 N 48.7773 0.814389 1.34928 0
M  V30 513 C 49.7403 0.235759 2.27984 0
M  V30 514 C 50.7403 -0.581412 1.49921 0
M  V30 515 O 51.9303 -0.398758 1.69575 0
M  V30 516 C 49.0623 -0.670433 3.34242 0
M  V30 517 H 50.2553 1.05659 2.80671 0
M  V30 518 H 47.8083 0.585614 1.44915 0
M  V30 519 H 48.5433 -1.51466 2.86755 0
M  V30 520 H 48.3283 -0.0860822 3.92005 0
M  V30 521 H 49.8183 -1.06935 4.03676 0
M  V30 522 N 50.2554 -1.46986 0.568584 0
M  V30 523 C 51.5014 -2.02741 0.0488709 0
M  V30 524 C 51.8344 -1.44077 -1.30214 0
M  V30 525 O 51.1094 -0.600552 -1.84996 0
M  V30 526 C 51.3924 -3.60086 -0.032047 0
M  V30 527 C 51.2454 -4.29162 1.34686 0
M  V30 528 C 52.5644 -4.33838 -0.739798 0
M  V30 529 H 49.6834 -0.736749 0.0192338 0
M  V30 530 H 52.3254 -1.75289 0.733065 0
M  V30 531 H 50.4754 -3.83606 -0.61473 0
M  V30 532 H 52.1474 -4.16948 1.97362 0
M  V30 533 H 50.3904 -3.89073 1.91846 0
M  V30 534 H 51.0614 -5.37826 1.24285 0
M  V30 535 H 53.5374 -4.15378 -0.244939 0
M  V30 536 H 52.4134 -5.43537 -0.765406 0
M  V30 537 H 52.6744 -4.03875 -1.79827 0
M  V30 538 N 51.7335 -0.305618 -1.54608 0
M  V30 539 C 52.6435 0.57778 -2.27374 0
M  V30 540 C 53.6595 1.14451 -1.31061 0
M  V30 541 O 54.8355 1.16831 -1.6405 0
M  V30 542 C 51.9005 1.73123 -3.00382 0
M  V30 543 C 50.9615 1.19812 -4.12242 0
M  V30 544 C 50.1945 2.2966 -4.81759 0
M  V30 545 O 50.4175 3.49651 -4.50666 0
M  V30 546 O 49.3515 1.96091 -5.69062 0
M  V30 547 H 53.1775 -0.012624 -3.03697 0
M  V30 548 H 50.7625 -0.0719184 -1.49227 0
M  V30 549 H 52.6445 2.40315 -3.4616 0
M  V30 550 H 51.3195 2.30815 -2.26949 0
M  V30 551 H 50.2265 0.491798 -3.70853 0
M  V30 552 H 51.5595 0.666566 -4.87666 0
M  V30 553 N 53.2116 1.57565 -0.0334293 0
M  V30 554 C 54.1436 2.0739 0.975811 0
M  V30 555 C 55.1566 0.998166 1.2861 0
M  V30 556 O 56.3456 1.27426 1.25 0
M  V30 557 C 53.4456 2.4871 2.30209 0
M  V30 558 C 52.6186 3.79413 2.17634 0
M  V30 559 C 51.6776 4.07237 3.33233 0
M  V30 560 O 50.7036 4.77425 3.09927 0
M  V30 561 N 51.9056 3.5775 4.5716 0
M  V30 562 H 54.6706 2.94598 0.55066 0
M  V30 563 H 52.2316 1.61173 0.15323 0
M  V30 564 H 54.2236 2.64413 3.06378 0
M  V30 565 H 52.7936 1.66845 2.64351 0
M  V30 566 H 52.0136 3.73465 1.26165 0
M  V30 567 H 53.3016 4.65038 2.0644 0
M  V30 568 H 52.6996 3.00976 4.78989 0
M  V30 569 H 51.2566 3.78724 5.30482 0
M  V30 570 N 54.6897 -0.239769 1.55765 0
M  V30 571 C 55.6197 -1.30052 1.9393 0
M  V30 572 C 56.6007 -1.49839 0.805132 0
M  V30 573 O 57.7857 -1.62328 1.06599 0
M  V30 574 C 54.9157 -2.65391 2.2402 0
M  V30 575 C 53.8697 -2.60289 3.39755 0
M  V30 576 C 53.1957 -3.99489 3.55405 0
M  V30 577 C 54.4957 -2.16654 4.75246 0
M  V30 578 H 56.1897 -0.983573 2.82783 0
M  V30 579 H 53.7357 -0.471701 1.36055 0
M  V30 580 H 55.6887 -3.3974 2.49308 0
M  V30 581 H 54.4127 -2.98736 1.32 0
M  V30 582 H 53.0717 -1.88398 3.14487 0
M  V30 583 H 52.7197 -4.30112 2.60793 0
M  V30 584 H 52.4197 -3.96962 4.33238 0
M  V30 585 H 53.9437 -4.75528 3.83022 0
M  V30 586 H 55.3577 -2.80737 4.99859 0
M  V30 587 H 53.7547 -2.25223 5.56232 0
M  V30 588 H 54.8247 -1.11835 4.71827 0
M  V30 589 N 56.1678 -1.49265 -0.50573 0
M  V30 590 C 57.1158 -1.66065 -1.62866 0
M  V30 591 C 58.1098 -0.526636 -1.61006 0
M  V30 592 O 59.3158 -0.706126 -1.65571 0
M  V30 593 H 55.6908 -0.52356 -0.539805 0
M  V30 594 H 57.6618 -2.60329 -1.45848 0
M  V30 595 C 56.4108 -1.74008 -3.01026 0
M  V30 596 H 55.7338 -2.6064 -3.03161 0
M  V30 597 H 57.1738 -1.89798 -3.79147 0
M  V30 598 C 55.6328 -0.483868 -3.33407 0
M  V30 599 O 56.1628 0.392548 -3.99777 0
M  V30 600 N 54.3688 -0.348236 -2.88506 0
M  V30 601 H 53.9158 -1.06242 -2.34671 0
M  V30 602 H 53.8738 0.491204 -3.10539 0
M  V30 603 N 57.6459 0.756429 -1.3826 0
M  V30 604 C 59.0619 1.0591 -1.19395 0
M  V30 605 C 59.2619 2.01459 -0.0406567 0
M  V30 606 O 58.3179 2.44909 0.614467 0
M  V30 607 C 59.6309 1.64191 -2.51916 0
M  V30 608 C 61.1789 1.76376 -2.58574 0
M  V30 609 C 61.6539 2.38069 -3.91264 0
M  V30 610 N 63.1449 2.45503 -3.92788 0
M  V30 611 C 63.8799 2.94126 -4.92217 0
M  V30 612 N 63.3759 3.42805 -6.02043 0
M  V30 613 N 65.1689 2.9314 -4.7961 0
M  V30 614 H 57.3199 0.122313 -2.12048 0
M  V30 615 H 59.5829 0.116892 -0.940766 0
M  V30 616 H 59.2889 1.01451 -3.3675 0
M  V30 617 H 59.1629 2.6329 -2.70108 0
M  V30 618 H 61.5499 2.38244 -1.74137 0
M  V30 619 H 61.6309 0.759894 -2.44252 0
M  V30 620 H 61.2749 1.76835 -4.76121 0
M  V30 621 H 61.2049 3.39091 -4.02895 0
M  V30 622 H 63.6959 2.1107 -3.13461 0
M  V30 623 H 64.0089 3.78354 -6.73846 0
M  V30 624 H 62.3539 3.4087 -6.05667 0
M  V30 625 H 65.5449 2.54419 -3.92923 0
M  V30 626 H 65.7179 3.30721 -5.5725 0
M  V30 627 N 59.124 1.23083 0.984299 0
M  V30 628 C 60.034 1.02515 2.11016 0
M  V30 629 C 61.05 -0.0291702 1.73976 0
M  V30 630 O 62.226 0.165434 2.00719 0
M  V30 631 C 59.291 0.614673 3.41208 0
M  V30 632 C 58.352 1.74359 3.92297 0
M  V30 633 C 57.585 1.35261 5.16275 0
M  V30 634 O 57.808 0.235136 5.69915 0
M  V30 635 O 56.742 2.17227 5.61334 0
M  V30 636 H 60.568 1.96862 2.31255 0
M  V30 637 H 58.153 1.01753 1.09392 0
M  V30 638 H 60.035 0.396518 4.1953 0
M  V30 639 H 58.71 -0.299851 3.22308 0
M  V30 640 H 57.617 2.01635 3.1511 0
M  V30 641 H 58.95 2.63629 4.15645 0
M  V30 642 N 60.6021 -1.18246 1.0419 0
M  V30 643 C 61.8501 -1.87886 0.744543 0
M  V30 644 C 62.1711 -1.8082 -0.730006 0
M  V30 645 O 61.4411 -1.22736 -1.52685 0
M  V30 646 H 60.0211 -0.695556 0.272417 0
M  V30 647 H 62.6831 -1.43494 1.31892 0
M  V30 648 H 61.7791 -2.9389 1.05049 0
M  V30 649 N 62.0802 -0.821533 -1.34494 0
M  V30 650 C 63.3282 -0.408139 -1.97936 0
M  V30 651 C 63.6492 1.03193 -1.65457 0
M  V30 652 O 62.9192 1.71622 -0.944595 0
M  V30 653 H 61.4992 -0.147928 -0.732206 0
M  V30 654 H 64.1612 -1.05067 -1.64155 0
M  V30 655 H 63.2572 -0.52601 -3.07635 0
M  V30 656 N 63.5583 1.46682 -0.576371 0
M  V30 657 C 64.8043 2.02712 -0.0596221 0
M  V30 658 C 65.1373 1.44765 1.29448 0
M  V30 659 O 64.4123 0.610355 1.84675 0
M  V30 660 C 64.6953 3.60098 0.0129503 0
M  V30 661 C 64.5483 4.28441 -1.3696 0
M  V30 662 C 65.8673 4.34224 0.71678 0
M  V30 663 H 62.9863 0.736637 -0.0231407 0
M  V30 664 H 65.6283 1.74898 -0.742351 0
M  V30 665 H 63.7783 3.83926 0.594378 0
M  V30 666 H 65.4503 4.15896 -1.9957 0
M  V30 667 H 63.6933 3.8805 -1.93907 0
M  V30 668 H 64.3643 5.3716 -1.27135 0
M  V30 669 H 66.8403 4.15503 0.222908 0
M  V30 670 H 65.7163 5.43936 0.73657 0
M  V30 671 H 65.9773 4.04823 1.77682 0
M  V30 672 N 65.0364 0.313813 1.54444 0
M  V30 673 C 66.2844 -0.291099 1.99993 0
M  V30 674 C 66.6054 -1.53418 1.20366 0
M  V30 675 O 65.8754 -1.93544 0.302927 0
M  V30 676 H 64.4554 -0.110552 0.738774 0
M  V30 677 H 67.1174 0.428106 1.9014 0
M  V30 678 H 66.2134 -0.554268 3.07139 0
M  V30 679 N 66.5145 -1.57545 0.0417849 0
M  V30 680 C 67.7625 -1.91937 -0.632829 0
M  V30 681 C 68.0835 -0.919978 -1.71934 0
M  V30 682 O 67.3535 0.0366064 -1.95866 0
M  V30 683 H 65.9335 -0.708493 -0.236742 0
M  V30 684 H 68.5955 -1.9468 0.0925745 0
M  V30 685 H 67.6915 -2.92912 -1.07746 0
M  V30 686 N 67.9926 0.231505 -1.5589 0
M  V30 687 C 69.4086 0.580748 -1.48659 0
M  V30 688 C 69.6086 1.87617 -0.73498 0
M  V30 689 O 68.6646 2.51046 -0.270586 0
M  V30 690 C 69.9776 0.669202 -2.93159 0
M  V30 691 C 71.5256 0.760499 -3.03621 0
M  V30 692 C 72.0006 0.880383 -4.49459 0
M  V30 693 N 73.4916 0.944861 -4.53461 0
M  V30 694 C 74.2266 1.05716 -5.63571 0
M  V30 695 N 73.7226 1.13403 -6.83456 0
M  V30 696 N 75.5156 1.09152 -5.514 0
M  V30 697 H 67.6666 -0.618695 -2.03189 0
M  V30 698 H 69.9296 -0.215728 -0.923128 0
M  V30 699 H 69.6356 -0.212904 -3.51055 0
M  V30 700 H 69.5096 1.5361 -3.44505 0
M  V30 701 H 71.8966 1.63305 -2.45796 0
M  V30 702 H 71.9776 -0.131864 -2.5546 0
M  V30 703 H 71.6216 0.0123284 -5.07899 0
M  V30 704 H 71.5516 1.78802 -4.95316 0
M  V30 705 H 74.0426 0.896176 -3.6712 0
M  V30 706 H 74.3556 1.21921 -7.63122 0
M  V30 707 H 72.7006 1.10333 -6.86186 0
M  V30 708 H 75.8916 1.02805 -4.56671 0
M  V30 709 H 76.0646 1.17558 -6.37247 0
M  V30 710 N 69.4707 1.49531 0.497807 0
M  V30 711 C 70.8817 1.52344 1.07927 0
M  V30 712 C 71.2327 0.311469 1.93712 0
M  V30 713 O 70.3577 -0.578405 2.08527 0
M  V30 714 C 70.9527 2.76062 1.96405 0
M  V30 715 C 69.5117 2.81643 2.49709 0
M  V30 716 C 68.6587 2.46299 1.27404 0
M  V30 717 H 71.6097 1.56182 0.281576 0
M  V30 718 H 71.6307 2.56405 2.81135 0
M  V30 719 H 71.1427 3.64254 1.33943 0
M  V30 720 H 69.2437 1.97739 3.15801 0
M  V30 721 H 69.3567 3.83891 2.86643 0
M  V30 722 H 67.7207 1.98148 1.60029 0
M  V30 723 H 68.5037 3.36769 0.66645 0
M  V30 724 N 70.9488 -0.749086 1.3866 0
M  V30 725 C 72.1978 -1.50371 1.3443 0
M  V30 726 C 72.5108 -1.95503 -0.0616397 0
M  V30 727 O 73.7168 -2.70554 -0.226489 0
M  V30 728 C 72.1728 -2.71644 2.36088 0
M  V30 729 C 71.7808 -2.3352 3.82325 0
M  V30 730 C 73.5248 -3.49518 2.40909 0
M  V30 731 C 71.4318 -3.51431 4.75658 0
M  V30 732 H 70.3618 -0.564628 0.499712 0
M  V30 733 H 73.0128 -0.818449 1.64237 0
M  V30 734 H 71.3948 -3.42175 1.9933 0
M  V30 735 H 72.5688 -1.70627 4.28046 0
M  V30 736 H 70.8838 -1.6877 3.80665 0
M  V30 737 H 73.4808 -4.37197 3.07836 0
M  V30 738 H 73.8238 -3.90992 1.42937 0
M  V30 739 H 74.3568 -2.86005 2.76489 0
M  V30 740 H 71.0958 -3.15019 5.74842 0
M  V30 741 H 70.6158 -4.13352 4.34627 0
M  V30 742 H 72.2948 -4.17953 4.93887 0
M  V30 743 N 72.4269 -1.23603 -0.977757 0
M  V30 744 C 73.3369 -1.03632 -2.1047 0
M  V30 745 C 74.3529 0.0199435 -1.73989 0
M  V30 746 O 75.5289 -0.176076 -2.00629 0
M  V30 747 C 72.5939 -0.63276 -3.40877 0
M  V30 748 C 71.6549 -1.76437 -3.91367 0
M  V30 749 C 70.8879 -1.37997 -5.15551 0
M  V30 750 O 71.1109 -0.265357 -5.69782 0
M  V30 751 O 70.0449 -2.20201 -5.60174 0
M  V30 752 H 73.8709 -1.98086 -2.30208 0
M  V30 753 H 71.4559 -1.02332 -1.08851 0
M  V30 754 H 73.3379 -0.418761 -4.19314 0
M  V30 755 H 72.0129 0.282754 -3.22463 0
M  V30 756 H 70.9199 -2.03304 -3.14036 0
M  V30 757 H 72.2529 -2.6583 -4.14241 0
M  V30 758 N 73.905 1.17692 -1.04816 0
M  V30 759 C 75.133 1.91786 -0.776254 0
M  V30 760 C 75.548 1.76604 0.667577 0
M  V30 761 O 74.905 1.10067 1.45573 0
M  V30 762 C 74.956 3.42967 -1.14263 0
M  V30 763 O 74.677 3.57678 -2.52978 0
M  V30 764 C 76.178 4.34144 -0.896311 0
M  V30 765 H 73.398 0.608624 -0.282519 0
M  V30 766 H 75.942 1.49268 -1.39783 0
M  V30 767 H 74.097 3.83245 -0.565874 0
M  V30 768 H 74.511 4.51319 -2.67229 0
M  V30 769 H 75.985 5.38744 -1.20244 0
M  V30 770 H 76.462 4.38876 0.168636 0
M  V30 771 H 77.068 3.99574 -1.45672 0
M  V30 772 N 75.3831 0.828654 1.34056 0
M  V30 773 C 76.3131 0.269443 2.3194 0
M  V30 774 C 77.2941 -0.617247 1.58506 0
M  V30 775 O 78.4791 -0.542931 1.86456 0
M  V30 776 C 75.6091 -0.564793 3.42677 0
M  V30 777 C 74.5631 0.225241 4.27407 0
M  V30 778 C 73.8891 -0.7321 5.29664 0
M  V30 779 C 75.1891 1.43663 5.02154 0
M  V30 780 H 76.8831 1.08728 2.7896 0
M  V30 781 H 74.4291 0.524283 1.34117 0
M  V30 782 H 76.3821 -0.966233 4.10173 0
M  V30 783 H 75.1061 -1.41574 2.9432 0
M  V30 784 H 73.7651 0.608117 3.61521 0
M  V30 785 H 73.4131 -1.57916 4.77568 0
M  V30 786 H 73.1131 -0.20767 5.87233 0
M  V30 787 H 74.6371 -1.13128 6.00029 0
M  V30 788 H 76.0511 1.1089 5.62473 0
M  V30 789 H 74.4481 1.89711 5.69324 0
M  V30 790 H 75.5181 2.21181 4.31517 0
M  V30 791 N 76.8612 -1.46375 0.584142 0
M  V30 792 C 78.0862 -2.07268 0.0740405 0
M  V30 793 C 78.5112 -1.42979 -1.22223 0
M  V30 794 O 77.8692 -0.514092 -1.73859 0
M  V30 795 C 77.9172 -3.60518 -0.0767769 0
M  V30 796 O 77.0212 -3.96533 -1.13292 0
M  V30 797 H 76.3622 -0.660961 0.0634524 0
M  V30 798 H 78.8922 -1.87991 0.807492 0
M  V30 799 H 78.9022 -4.07021 -0.282489 0
M  V30 800 H 77.5772 -4.06702 0.86986 0
M  V30 801 H 76.1542 -3.61738 -0.905553 0
M  V30 802 N 78.3393 -0.321999 -1.54275 0
M  V30 803 C 79.2713 0.578671 -2.21775 0
M  V30 804 C 80.2843 1.08109 -1.21722 0
M  V30 805 O 81.4733 0.994938 -1.482 0
M  V30 806 C 78.5733 1.80661 -2.86731 0
M  V30 807 C 77.7463 1.44314 -4.12907 0
M  V30 808 C 76.8053 2.52845 -4.61472 0
M  V30 809 O 75.8313 2.17054 -5.2619 0
M  V30 810 N 77.0333 3.83748 -4.35566 0
M  V30 811 H 79.7983 0.000709447 -2.997 0
M  V30 812 H 77.3593 -0.145132 -1.61248 0
M  V30 813 H 79.3513 2.52655 -3.16145 0
M  V30 814 H 77.9213 2.29245 -2.12521 0
M  V30 815 H 77.1413 0.554906 -3.90275 0
M  V30 816 H 78.4293 1.17598 -4.95023 0
M  V30 817 H 77.8273 4.15625 -3.83761 0
M  V30 818 H 76.3843 4.51977 -4.69638 0
M  V30 819 N 79.8174 1.5752 -0.0501392 0
M  V30 820 C 81.0944 1.83996 0.663685 0
M  V30 821 C 81.4744 0.938339 1.89099 0
M  V30 822 O 80.8224 -0.00087759 2.285 0
M  V30 823 C 81.0324 3.33702 1.02196 0
M  V30 824 C 82.3804 4.00691 1.40469 0
M  V30 825 O 83.4044 3.38321 1.11433 0
M  V30 826 O 82.2634 5.10658 1.94654 0
M  V30 827 H 79.3574 0.759385 0.32751 0
M  V30 828 H 81.9034 1.69514 -0.0794238 0
M  V30 829 H 80.6754 3.91015 0.149364 0
M  V30 830 H 80.2984 3.53368 1.82255 0
M  V30 831 N 81.2955 -0.223234 1.56011 0
M  V30 832 C 82.7065 -0.790368 1.69145 0
M  V30 833 C 83.0575 -1.85055 0.651845 0
M  V30 834 O 82.1825 -2.15498 -0.197359 0
M  V30 835 C 82.7775 -1.4404 3.06656 0
M  V30 836 C 81.3365 -1.95494 3.2165 0
M  V30 837 C 80.4835 -0.814506 2.65068 0
M  V30 838 H 83.4345 0.00139011 1.587 0
M  V30 839 H 83.4555 -2.30916 3.0242 0
M  V30 840 H 82.9675 -0.668543 3.82298 0
M  V30 841 H 81.0685 -2.75487 2.50874 0
M  V30 842 H 81.1815 -2.13607 4.28846 0
M  V30 843 H 79.5455 -1.22137 2.23505 0
M  V30 844 H 80.3285 -0.0553515 3.43255 0
M  V30 845 N 82.7736 -1.49793 -0.48987 0
M  V30 846 C 84.0216 -1.59525 -1.24081 0
M  V30 847 C 84.3426 -0.288953 -1.92847 0
M  V30 848 O 83.6126 0.692436 -1.83254 0
M  V30 849 H 82.1926 -0.587796 -0.460983 0
M  V30 850 H 84.8546 -1.86477 -0.566778 0
M  V30 851 H 83.9506 -2.39696 -1.99881 0
M  V30 852 N 84.2517 0.741722 -1.39055 0
M  V30 853 C 85.4997 1.49818 -1.35643 0
M  V30 854 C 85.8207 1.94938 0.0491642 0
M  V30 855 O 85.0907 1.68505 0.999141 0
M  V30 856 H 83.6707 0.555755 -0.499144 0
M  V30 857 H 86.3327 0.880957 -1.73854 0
M  V30 858 H 85.4287 2.38348 -2.01486 0
M  V30 859 N 85.7298 1.2412 0.971189 0
M  V30 860 C 87.0068 0.986867 1.6888 0
M  V30 861 C 87.3868 -0.491857 2.0529 0
M  V30 862 O 86.7348 -1.46531 1.75331 0
M  V30 863 C 86.9448 1.9063 2.92338 0
M  V30 864 C 88.2928 2.17515 3.64654 0
M  V30 865 O 89.3168 1.88254 3.02388 0
M  V30 866 O 88.1758 2.6719 4.7673 0
M  V30 867 H 85.2698 0.372944 0.738134 0
M  V30 868 H 87.8158 1.35203 1.02559 0
M  V30 869 H 86.5878 2.90552 2.62097 0
M  V30 870 H 86.2108 1.54408 3.66393 0
M  V30 871 N 87.2079 -1.17134 1.05439 0
M  V30 872 C 88.6189 -1.69084 0.791676 0
M  V30 873 C 88.9699 -1.83822 -0.685839 0
M  V30 874 O 88.0949 -1.52757 -1.53278 0
M  V30 875 C 88.6899 -3.07119 1.4305 0
M  V30 876 C 87.2489 -3.56225 1.21577 0
M  V30 877 C 86.3959 -2.32421 1.51247 0
M  V30 878 H 89.3469 -1.01617 1.219 0
M  V30 879 H 89.3679 -3.71087 0.84112 0
M  V30 880 H 88.8799 -2.9636 2.50584 0
M  V30 881 H 86.9809 -3.72257 0.159787 0
M  V30 882 H 87.0939 -4.38837 1.92246 0
M  V30 883 H 85.4579 -2.3701 0.932653 0
M  V30 884 H 86.2409 -2.24268 2.5992 0
M  V30 885 N 88.686 -0.835752 -1.33615 0
M  V30 886 C 89.963 -0.352017 -1.92406 0
M  V30 887 C 90.343 1.16225 -1.76224 0
M  V30 888 O 89.691 1.97526 -1.14873 0
M  V30 889 C 89.901 -0.795485 -3.39813 0
M  V30 890 C 91.249 -0.801703 -4.16963 0
M  V30 891 O 92.273 -0.738889 -3.48452 0
M  V30 892 O 91.132 -0.886607 -5.3926 0
M  V30 893 H 88.226 -0.0989641 -0.821057 0
M  V30 894 H 90.772 -0.921397 -1.42507 0
M  V30 895 H 89.544 -1.83795 -3.45449 0
M  V30 896 H 89.167 -0.202505 -3.97084 0
M  V30 897 N 90.1641 1.46063 -0.591896 0
M  V30 898 C 91.5801 1.57561 -0.254288 0
M  V30 899 C 91.7801 1.58565 1.24336 0
M  V30 900 O 90.8361 1.50753 2.02558 0
M  V30 901 C 92.1491 2.86549 -0.911611 0
M  V30 902 C 93.6971 3.00197 -0.886059 0
M  V30 903 C 94.1721 4.31933 -1.5231 0
M  V30 904 N 95.6631 4.38654 -1.48786 0
M  V30 905 C 96.3981 5.39222 -1.95006 0
M  V30 906 N 95.8941 6.46414 -2.49241 0
M  V30 907 N 97.6871 5.3048 -1.85868 0
M  V30 908 H 89.8381 1.43655 -1.56451 0
M  V30 909 H 92.1011 0.68583 -0.654478 0
M  V30 910 H 91.8071 2.91651 -1.96551 0
M  V30 911 H 91.6811 3.74794 -0.425368 0
M  V30 912 H 94.0681 2.9467 0.159246 0
M  V30 913 H 94.1491 2.13403 -1.41041 0
M  V30 914 H 93.7931 4.38217 -2.56765 0
M  V30 915 H 93.7231 5.17516 -0.973891 0
M  V30 916 H 96.2141 3.61793 -1.09151 0
M  V30 917 H 96.5271 7.19376 -2.82344 0
M  V30 918 H 94.8721 6.47208 -2.53272 0
M  V30 919 H 98.0631 4.45643 -1.43248 0
M  V30 920 H 98.2361 6.08711 -2.22204 0
M  V30 921 N 91.6422 0.330177 1.54103 0
M  V30 922 C 92.8722 -0.271784 2.04805 0
M  V30 923 C 93.2802 -1.45816 1.20559 0
M  V30 924 O 92.6232 -1.82247 0.2306 0
M  V30 925 C 92.6852 -0.763238 3.51305 0
M  V30 926 C 92.3492 0.301705 4.56003 0
M  V30 927 C 93.3462 1.13999 5.07248 0
M  V30 928 C 91.0312 0.451793 5.00264 0
M  V30 929 C 93.0252 2.11402 6.01322 0
M  V30 930 C 90.7122 1.42924 5.94151 0
M  V30 931 C 91.7102 2.25882 6.44567 0
M  V30 932 O 91.3982 3.21965 7.3661 0
M  V30 933 H 91.1302 -0.058693 0.673447 0
M  V30 934 H 93.6842 0.476395 1.99799 0
M  V30 935 H 91.9142 -1.56244 3.5373 0
M  V30 936 H 93.6032 -1.28427 3.85047 0
M  V30 937 H 94.3692 1.03505 4.73827 0
M  V30 938 H 90.2482 -0.184044 4.60632 0
M  V30 939 H 93.7922 2.76192 6.40596 0
M  V30 940 H 89.6892 1.53479 6.26988 0
M  V30 941 H 90.4572 3.17281 7.54503 0
M  V30 942 N 93.1203 -1.57491 0.0584922 0
M  V30 943 C 94.5363 -1.56792 -0.298091 0
M  V30 944 C 94.7363 -1.06679 -1.70944 0
M  V30 945 O 93.7923 -0.726672 -2.41818 0
M  V30 946 C 95.1053 -3.00461 -0.119879 0
M  V30 947 C 96.6533 -3.1242 -0.190428 0
M  V30 948 C 97.1283 -4.57982 -0.0406567 0
M  V30 949 N 98.6193 -4.63099 -0.0966958 0
M  V30 950 C 99.3543 -5.734 -0.00502943 0
M  V30 951 N 98.8503 -6.9266 0.139402 0
M  V30 952 N 100.643 -5.62067 -0.0611391 0
M  V30 953 H 92.7943 -1.88386 0.98105 0
M  V30 954 H 95.0573 -0.867865 0.381463 0
M  V30 955 H 94.7633 -3.41187 0.85349 0
M  V30 956 H 94.6373 -3.66843 -0.877833 0
M  V30 957 H 97.0243 -2.71589 -1.15427 0
M  V30 958 H 97.1053 -2.48702 0.598405 0
M  V30 959 H 96.7493 -4.995 0.919897 0
M  V30 960 H 96.6793 -5.19715 -0.848727 0
M  V30 961 H 99.1703 -3.77331 -0.207277 0
M  V30 962 H 99.4833 -7.72536 0.201855 0
M  V30 963 H 97.8283 -6.94781 0.174586 0
M  V30 964 H 101.019 -4.67782 -0.172583 0
M  V30 965 H 101.192 -6.47999 0.0137562 0
M  V30 966 N 94.5984 0.214957 -1.56127 0
M  V30 967 C 95.5284 1.2695 -1.95974 0
M  V30 968 C 96.5094 1.48539 -0.828868 0
M  V30 969 O 97.6944 1.60611 -1.09168 0
M  V30 970 C 94.8244 2.61794 -2.28214 0
M  V30 971 C 93.7784 2.54851 -3.43853 0
M  V30 972 C 93.1044 3.93785 -3.61715 0
M  V30 973 C 94.4044 2.09065 -4.78632 0
M  V30 974 H 96.0984 0.93846 -2.84312 0
M  V30 975 H 93.6444 0.449996 -1.36788 0
M  V30 976 H 95.5974 3.35731 -2.54682 0
M  V30 977 H 94.3214 2.96599 -1.36736 0
M  V30 978 H 92.9804 1.8337 -3.17444 0
M  V30 979 H 92.6284 4.25908 -2.67602 0
M  V30 980 H 92.3284 3.90019 -4.39498 0
M  V30 981 H 93.8524 4.69374 -3.90539 0
M  V30 982 H 95.2664 2.7275 -5.04262 0
M  V30 983 H 93.6634 2.16346 -5.59745 0
M  V30 984 H 94.7334 1.04315 -4.73547 0
M  V30 985 N 96.0765 1.50051 0.48192 0
M  V30 986 C 97.3165 1.62128 1.24474 0
M  V30 987 C 97.6805 0.309742 1.89485 0
M  V30 988 O 98.8815 0.305854 2.67054 0
M  V30 989 C 97.1525 2.76151 2.26882 0
M  V30 990 S 98.7115 3.08297 3.12247 0
M  V30 991 H 95.5295 0.571661 0.422759 0
M  V30 992 H 98.1315 1.87791 0.54359 0
M  V30 993 H 96.8355 3.69942 1.77683 0
M  V30 994 H 96.3665 2.52541 3.0164 0
M  V30 995 H 98.3815 2.51287 4.27866 0
M  V30 996 N 97.5546 -0.734337 1.39446 0
M  V30 997 C 98.5176 -1.83004 1.37994 0
M  V30 998 C 99.5176 -1.58397 0.276938 0
M  V30 999 O 100.708 -1.65785 0.534875 0
M  V30 1000 C 97.8396 -3.20802 1.1532 0
M  V30 1001 H 99.0326 -1.85694 2.35494 0
M  V30 1002 H 96.5856 -0.938059 1.25021 0
M  V30 1003 H 97.3206 -3.23772 0.185036 0
M  V30 1004 H 97.1056 -3.4006 1.95197 0
M  V30 1005 H 98.5956 -4.00862 1.17046 0
M  V30 1006 N 99.0327 -1.24633 -0.964593 0
M  V30 1007 C 99.9427 -1.05859 -2.09359 0
M  V30 1008 C 100.959 0.00148855 -1.74 0
M  V30 1009 O 102.135 -0.197346 -2.00431 0
M  V30 1010 C 99.1997 -0.668879 -3.40187 0
M  V30 1011 C 98.2607 -1.80578 -3.89474 0
M  V30 1012 C 97.4937 -1.43457 -5.14058 0
M  V30 1013 O 97.7167 -0.325775 -5.69469 0
M  V30 1014 O 96.6507 -2.2613 -5.57807 0
M  V30 1015 H 100.477 -2.00516 -2.28094 0
M  V30 1016 H 98.0617 -1.03481 -1.0776 0
M  V30 1017 H 99.9437 -0.463211 -4.18846 0
M  V30 1018 H 98.6187 0.248536 -3.22744 0
M  V30 1019 H 97.5257 -2.06623 -3.11862 0
M  V30 1020 H 98.8587 -2.70208 -4.11398 0
M  V30 1021 N 100.511 1.16574 -1.06058 0
M  V30 1022 C 101.788 1.83048 -0.689416 0
M  V30 1023 C 102.168 1.94122 0.829443 0
M  V30 1024 O 101.516 1.48249 1.7388 0
M  V30 1025 C 101.726 3.20186 -1.38859 0
M  V30 1026 C 103.074 3.95989 -1.53226 0
M  V30 1027 O 104.098 3.29696 -1.3483 0
M  V30 1028 O 102.957 5.14813 -1.83384 0
M  V30 1029 H 100.051 0.790258 -0.243764 0
M  V30 1030 H 102.597 1.23797 -1.16071 0
M  V30 1031 H 101.369 3.07146 -2.4244 0
M  V30 1032 H 100.992 3.87112 -0.907216 0
M  V30 1033 N 101.989 0.842826 1.3317 0
M  V30 1034 C 103.236 0.440447 1.97652 0
M  V30 1035 C 103.564 -1.00123 1.6675 0
M  V30 1036 O 102.819 -1.7155 0.941761 0
M  V30 1037 C 103.118 0.612607 3.52111 0
M  V30 1038 C 102.784 2.02297 4.02972 0
M  V30 1039 C 101.446 2.40874 4.16573 0
M  V30 1040 C 103.798 2.94402 4.30089 0
M  V30 1041 C 101.126 3.70852 4.54627 0
M  V30 1042 C 103.478 4.23865 4.69597 0
M  V30 1043 C 102.142 4.62392 4.81404 0
M  V30 1044 H 101.412 0.161171 0.72326 0
M  V30 1045 H 104.059 1.07061 1.58777 0
M  V30 1046 H 102.364 -0.100849 3.9167 0
M  V30 1047 H 104.061 0.2815 4.00011 0
M  V30 1048 H 100.651 1.71338 3.92863 0
M  V30 1049 H 104.835 2.65835 4.19101 0
M  V30 1050 H 100.091 4.00501 4.61962 0
M  V30 1051 H 104.265 4.95306 4.89536 0
M  V30 1052 H 101.892 5.63154 5.10648 0
M  V30 1053 N 103.467 -1.45747 0.599634 0
M  V30 1054 C 104.716 -2.01502 0.0893511 0
M  V30 1055 C 105.029 -1.4748 -1.28488 0
M  V30 1056 O 106.235 -1.95161 -1.88745 0
M  V30 1057 C 104.691 -3.59735 0.109082 0
M  V30 1058 C 104.299 -4.22754 1.48267 0
M  V30 1059 C 106.043 -4.23085 -0.346374 0
M  V30 1060 C 103.95 -5.73115 1.45921 0
M  V30 1061 H 102.88 -0.753417 0.0296347 0
M  V30 1062 H 105.531 -1.67303 0.753788 0
M  V30 1063 H 103.913 -3.91087 -0.621854 0
M  V30 1064 H 105.087 -4.02987 2.23468 0
M  V30 1065 H 103.402 -3.71567 1.87955 0
M  V30 1066 H 105.999 -5.33327 -0.38298 0
M  V30 1067 H 106.342 -3.93201 -1.36743 0
M  V30 1068 H 106.875 -3.9642 0.331038 0
M  V30 1069 H 103.614 -6.07685 2.45762 0
M  V30 1070 H 103.134 -5.95097 0.749665 0
M  V30 1071 H 104.813 -6.3616 1.17941 0
M  V30 1072 N 104.945 -0.338344 -1.53925 0
M  V30 1073 C 106.361 0.0137736 -1.59594 0
M  V30 1074 C 106.561 1.49186 -1.35447 0
M  V30 1075 O 105.617 2.24987 -1.14616 0
M  V30 1076 C 106.93 -0.41773 -2.97784 0
M  V30 1077 C 108.478 -0.369633 -3.1081 0
M  V30 1078 C 108.953 -0.776524 -4.51369 0
M  V30 1079 N 110.444 -0.730506 -4.57403 0
M  V30 1080 C 111.179 -1.01736 -5.64303 0
M  V30 1081 N 110.675 -1.3721 -6.79077 0
M  V30 1082 N 112.468 -0.941942 -5.54151 0
M  V30 1083 H 104.619 -1.3012 -1.67876 0
M  V30 1084 H 106.882 -0.530082 -0.78595 0
M  V30 1085 H 106.588 -1.44811 -3.20504 0
M  V30 1086 H 106.462 0.209729 -3.76616 0
M  V30 1087 H 108.849 0.651568 -2.87817 0
M  V30 1088 H 108.93 -1.03223 -2.34049 0
M  V30 1089 H 108.574 -1.79571 -4.75096 0
M  V30 1090 H 108.504 -0.0914649 -5.26521 0
M  V30 1091 H 110.995 -0.468783 -3.74981 0
M  V30 1092 H 111.308 -1.57597 -7.5656 0
M  V30 1093 H 109.653 -1.4105 -6.80536 0
M  V30 1094 H 112.844 -0.664184 -4.63364 0
M  V30 1095 H 113.017 -1.16884 -6.37371 0
M  V30 1096 N 106.423 1.57458 -0.0668435 0
M  V30 1097 C 107.371 2.13639 0.919851 0
M  V30 1098 C 108.365 1.07204 1.31163 0
M  V30 1099 O 109.571 1.25591 1.28945 0
M  V30 1100 H 105.946 0.683048 0.314562 0
M  V30 1101 H 107.917 2.95415 0.421047 0
M  V30 1102 C 106.666 2.70892 2.17975 0
M  V30 1103 H 105.989 3.5246 1.88711 0
M  V30 1104 H 107.429 3.13803 2.85138 0
M  V30 1105 C 105.888 1.65414 2.93496 0
M  V30 1106 O 106.418 1.07619 3.87015 0
M  V30 1107 N 104.624 1.36564 2.56512 0
M  V30 1108 H 104.171 1.83751 1.80536 0
M  V30 1109 H 104.129 0.66223 3.07347 0
M  V30 1110 N 107.901 -0.206675 1.56239 0
M  V30 1111 C 109.317 -0.557025 1.49564 0
M  V30 1112 C 109.517 -1.86424 0.764735 0
M  V30 1113 O 108.573 -2.50584 0.310491 0
M  V30 1114 C 109.886 -0.622478 2.94186 0
M  V30 1115 C 111.434 -0.712099 3.04792 0
M  V30 1116 C 111.909 -0.808767 4.50803 0
M  V30 1117 N 113.4 -0.8726 4.54907 0
M  V30 1118 C 114.135 -0.967365 5.65181 0
M  V30 1119 N 113.631 -1.02515 6.85173 0
M  V30 1120 N 115.424 -1.00366 5.53067 0
M  V30 1121 H 107.575 0.650943 2.02179 0
M  V30 1122 H 109.838 0.230387 0.919579 0
M  V30 1123 H 109.544 0.268727 3.50672 0
M  V30 1124 H 109.418 -1.4811 3.46905 0
M  V30 1125 H 111.805 -1.59374 2.48363 0
M  V30 1126 H 111.886 0.172489 2.55218 0
M  V30 1127 H 111.53 0.0684754 5.07854 0
M  V30 1128 H 111.46 -1.70899 4.98098 0
M  V30 1129 H 113.951 -0.837657 3.68499 0
M  V30 1130 H 114.264 -1.09765 7.64965 0
M  V30 1131 H 112.609 -0.994026 6.87855 0
M  V30 1132 H 115.8 -0.95527 4.58249 0
M  V30 1133 H 115.973 -1.07405 6.39037 0
M  V30 1134 N 109.379 -1.50304 -0.473955 0
M  V30 1135 C 110.627 -1.60832 -1.22382 0
M  V30 1136 C 110.948 -0.30939 -1.9253 0
M  V30 1137 O 110.218 0.67296 -1.83978 0
M  V30 1138 H 108.798 -0.592652 -0.454723 0
M  V30 1139 H 111.46 -1.87068 -0.546968 0
M  V30 1140 H 110.556 -2.41803 -1.97327 0
M  V30 1141 N 110.857 0.726932 -1.39834 0
M  V30 1142 C 112.103 1.48884 -1.377 0
M  V30 1143 C 112.436 1.94185 0.0244852 0
M  V30 1144 O 111.711 1.67361 0.990986 0
M  V30 1145 C 111.994 2.72288 -2.3565 0
M  V30 1146 C 111.847 2.32956 -3.84775 0
M  V30 1147 C 113.166 3.74414 -2.31306 0
M  V30 1148 H 110.285 0.540062 -0.5015 0
M  V30 1149 H 112.927 0.830547 -1.70886 0
M  V30 1150 H 111.077 3.28457 -2.07481 0
M  V30 1151 H 112.749 1.82356 -4.23726 0
M  V30 1152 H 110.992 1.65088 -4.01159 0
M  V30 1153 H 111.663 3.21362 -4.4881 0
M  V30 1154 H 114.139 3.27849 -2.56231 0
M  V30 1155 H 113.015 4.58414 -3.01907 0
M  V30 1156 H 113.276 4.21909 -1.32081 0
M  V30 1157 N 112.336 1.25143 0.95797 0
M  V30 1158 C 113.752 1.01892 1.22842 0
M  V30 1159 C 113.952 -0.266311 1.99732 0
M  V30 1160 O 113.008 -0.979913 2.3271 0
M  V30 1161 C 114.321 2.24004 2.00606 0
M  V30 1162 C 115.869 2.28731 2.13662 0
M  V30 1163 C 116.344 3.5049 2.94823 0
M  V30 1164 N 117.835 3.50866 3.02403 0
M  V30 1165 C 118.57 4.4174 3.65586 0
M  V30 1166 N 118.066 5.42882 4.30408 0
M  V30 1167 N 119.859 4.29429 3.62694 0
M  V30 1168 H 112.01 2.07718 0.443493 0
M  V30 1169 H 114.273 0.912031 0.258657 0
M  V30 1170 H 113.979 3.17395 1.51503 0
M  V30 1171 H 113.853 2.26907 3.01319 0
M  V30 1172 H 116.24 1.35865 2.61963 0
M  V30 1173 H 116.321 2.29848 1.12265 0
M  V30 1174 H 115.965 4.43676 2.47213 0
M  V30 1175 H 115.895 3.46617 3.96439 0
M  V30 1176 H 118.386 2.777 2.56302 0
M  V30 1177 H 118.699 6.0844 4.76467 0
M  V30 1178 H 117.044 5.46758 4.29047 0
M  V30 1179 H 120.235 3.49643 3.11236 0
M  V30 1180 H 120.408 5.00448 4.1165 0
M  V30 1181 N 113.814 -1.1601 1.06675 0
M  V30 1182 C 115.061 -1.86633 0.785781 0
M  V30 1183 C 115.389 -1.81929 -0.687896 0
M  V30 1184 O 114.644 -1.23253 -1.52011 0
M  V30 1185 C 114.943 -3.35547 1.23057 0
M  V30 1186 C 114.609 -3.60448 2.70902 0
M  V30 1187 C 113.271 -3.66954 3.11285 0
M  V30 1188 C 115.623 -3.7071 3.66365 0
M  V30 1189 C 112.951 -3.81225 4.45965 0
M  V30 1190 C 115.303 -3.86503 5.00797 0
M  V30 1191 C 113.967 -3.91252 5.40813 0
M  V30 1192 H 113.237 -0.682937 0.287538 0
M  V30 1193 H 115.884 -1.37146 1.33654 0
M  V30 1194 H 114.189 -3.87193 0.59907 0
M  V30 1195 H 115.886 -3.88583 0.990163 0
M  V30 1196 H 112.476 -3.56021 2.38636 0
M  V30 1197 H 116.66 -3.64991 3.36296 0
M  V30 1198 H 111.916 -3.83155 4.76447 0
M  V30 1199 H 116.09 -3.93385 5.74649 0
M  V30 1200 H 113.717 -4.02062 6.45174 0
M  V30 1201 N 115.292 -0.849877 -1.32721 0
M  V30 1202 C 116.222 -0.306308 -2.31482 0
M  V30 1203 C 117.203 0.591952 -1.59468 0
M  V30 1204 O 118.388 0.513199 -1.87296 0
M  V30 1205 C 115.518 0.510204 -3.43532 0
M  V30 1206 C 114.472 -0.293209 -4.26994 0
M  V30 1207 C 113.798 0.647743 -5.30762 0
M  V30 1208 C 115.098 -1.51634 -4.99804 0
M  V30 1209 H 116.792 -1.13153 -2.77195 0
M  V30 1210 H 114.338 -0.545553 -1.33266 0
M  V30 1211 H 116.291 0.900856 -4.11658 0
M  V30 1212 H 115.015 1.36874 -2.96535 0
M  V30 1213 H 113.674 -0.665555 -3.60508 0
M  V30 1214 H 113.322 1.50299 -4.8002 0
M  V30 1215 H 113.022 0.11422 -5.87489 0
M  V30 1216 H 114.546 1.03567 -6.01753 0
M  V30 1217 H 115.96 -1.19824 -5.60638 0
M  V30 1218 H 114.357 -1.98745 -5.66234 0
M  V30 1219 H 115.427 -2.28018 -4.27943 0
M  V30 1220 N 116.77 1.45427 -0.607355 0
M  V30 1221 C 118.016 2.0254 -0.102607 0
M  V30 1222 C 118.349 1.47478 1.26348 0
M  V30 1223 O 117.624 0.64939 1.83339 0
M  V30 1224 C 117.907 3.60044 -0.0634347 0
M  V30 1225 C 117.76 4.2544 -1.46017 0
M  V30 1226 C 119.079 4.35646 0.624514 0
M  V30 1227 H 116.198 0.73598 -0.0387607 0
M  V30 1228 H 118.84 1.73284 -0.779282 0
M  V30 1229 H 116.99 3.85101 0.512808 0
M  V30 1230 H 118.662 4.11569 -2.08347 0
M  V30 1231 H 116.905 3.83849 -2.02094 0
M  V30 1232 H 117.576 5.34342 -1.385 0
M  V30 1233 H 120.052 4.15882 0.134723 0
M  V30 1234 H 118.928 5.45376 0.621028 0
M  V30 1235 H 119.189 4.08501 1.69055 0
M  V30 1236 N 118.248 0.346503 1.53744 0
M  V30 1237 C 119.496 -0.248612 2.00565 0
M  V30 1238 C 119.817 -1.5083 1.23593 0
M  V30 1239 O 119.087 -1.92858 0.343912 0
M  V30 1240 H 117.667 -0.0948564 0.740953 0
M  V30 1241 H 120.329 0.468341 1.89189 0
M  V30 1242 H 119.425 -0.488994 3.08245 0
M  V30 1243 N 119.726 -1.57421 0.075193 0
M  V30 1244 C 120.966 -1.95495 -0.596757 0
M  V30 1245 C 121.33 -0.954886 -1.66571 0
M  V30 1246 O 122.531 -1.22341 -2.39345 0
M  V30 1247 C 120.802 -3.382 -1.15566 0
M  V30 1248 S 122.361 -3.98254 -1.84226 0
M  V30 1249 H 119.179 -0.683649 -0.195307 0
M  V30 1250 H 121.781 -1.94925 0.149859 0
M  V30 1251 H 120.485 -4.08766 -0.36588 0
M  V30 1252 H 120.016 -3.42321 -1.93856 0
M  V30 1253 H 122.031 -3.85435 -3.12497 0
M  V30 1254 N 121.204 0.198386 -1.56346 0
M  V30 1255 C 122.434 0.934215 -1.84271 0
M  V30 1256 C 122.842 1.77496 -0.655125 0
M  V30 1257 O 122.185 1.7961 0.385488 0
M  V30 1258 C 122.247 1.88278 -3.06254 0
M  V30 1259 C 121.911 1.22431 -4.40295 0
M  V30 1260 C 122.908 0.602839 -5.16393 0
M  V30 1261 C 120.593 1.22915 -4.87029 0
M  V30 1262 C 122.587 -0.0050083 -6.374 0
M  V30 1263 C 120.274 0.617465 -6.07973 0
M  V30 1264 C 121.272 0.00146341 -6.83 0
M  V30 1265 O 120.96 -0.600642 -8.01653 0
M  V30 1266 H 120.692 0.278245 -0.616081 0
M  V30 1267 H 123.246 0.211626 -2.04307 0
M  V30 1268 H 121.476 2.64498 -2.82095 0
M  V30 1269 H 123.165 2.48612 -3.20853 0
M  V30 1270 H 123.931 0.591265 -4.81382 0
M  V30 1271 H 119.81 1.69801 -4.28589 0
M  V30 1272 H 123.354 -0.48643 -6.95902 0
M  V30 1273 H 119.251 0.62653 -6.42452 0
M  V30 1274 H 120.019 -0.497225 -8.16988 0
M  V30 1275 N 122.682 1.50554 0.465978 0
M  V30 1276 C 123.615 1.64436 1.58227 0
M  V30 1277 C 124.593 0.492367 1.54966 0
M  V30 1278 O 125.777 0.712536 1.74514 0
M  V30 1279 C 122.904 1.63165 2.96808 0
M  V30 1280 C 121.95 2.83987 3.18204 0
M  V30 1281 S 122.783 4.45219 2.97557 0
M  V30 1282 C 123.939 4.46649 4.3847 0
M  V30 1283 H 124.172 2.58861 1.46213 0
M  V30 1284 H 121.705 1.3988 0.653678 0
M  V30 1285 H 123.663 1.63116 3.76701 0
M  V30 1286 H 122.324 0.69967 3.06208 0
M  V30 1287 H 121.517 2.79416 4.19455 0
M  V30 1288 H 121.119 2.81629 2.46092 0
M  V30 1289 H 123.411 4.20526 5.31191 0
M  V30 1290 H 124.354 5.48295 4.48082 0
M  V30 1291 H 124.762 3.76296 4.20787 0
M  V30 1292 N 124.16 -0.719506 1.40217 0
M  V30 1293 C 125.385 -1.51371 1.4178 0
M  V30 1294 C 125.81 -1.88091 0.0182355 0
M  V30 1295 O 125.168 -1.52997 -0.972707 0
M  V30 1296 C 125.216 -2.768 2.31115 0
M  V30 1297 O 124.32 -3.73349 1.7517 0
M  V30 1298 H 123.661 -0.456529 0.482159 0
M  V30 1299 H 126.191 -0.88644 1.844 0
M  V30 1300 H 126.201 -3.25371 2.46167 0
M  V30 1301 H 124.876 -2.49407 3.3282 0
M  V30 1302 H 123.453 -3.32179 1.69444 0
M  V30 1303 N 125.638 -1.25649 -0.95132 0
M  V30 1304 C 126.588 -1.03004 -2.03406 0
M  V30 1305 C 127.572 0.034187 -1.60864 0
M  V30 1306 O 128.764 -0.181549 -1.76066 0
M  V30 1307 C 125.893 -0.654255 -3.37008 0
M  V30 1308 C 124.979 -1.75542 -3.86065 0
M  V30 1309 N 125.37 -2.99113 -4.07879 0
M  V30 1310 C 123.668 -1.63669 -4.14884 0
M  V30 1311 C 124.369 -3.70611 -4.48356 0
M  V30 1312 N 123.345 -2.98247 -4.54477 0
M  V30 1313 H 127.147 -1.96813 -2.1827 0
M  V30 1314 H 124.661 -1.16017 -1.13639 0
M  V30 1315 H 126.658 -0.473206 -4.14206 0
M  V30 1316 H 125.318 0.276468 -3.23521 0
M  V30 1317 H 126.329 -3.35124 -3.94857 0
M  V30 1318 H 123.006 -0.775161 -4.10241 0
M  V30 1319 H 124.396 -4.76695 -4.73509 0
M  V30 1320 N 127.117 1.15442 -1.07289 0
M  V30 1321 C 128.345 1.90096 -0.81676 0
M  V30 1322 C 128.76 1.7798 0.629966 0
M  V30 1323 O 128.117 1.1313 1.43206 0
M  V30 1324 C 128.168 3.40466 -1.21512 0
M  V30 1325 O 127.889 3.52232 -2.60508 0
M  V30 1326 C 129.39 4.32145 -0.988198 0
M  V30 1327 H 126.61 0.602495 -0.295366 0
M  V30 1328 H 129.154 1.4627 -1.42918 0
M  V30 1329 H 127.309 3.81958 -0.647039 0
M  V30 1330 H 127.723 4.45549 -2.76742 0
M  V30 1331 H 129.197 5.36072 -1.31645 0
M  V30 1332 H 129.674 4.39135 0.0755063 0
M  V30 1333 H 130.28 3.96395 -1.54115 0
M  V30 1334 N 128.595 0.856903 1.32268 0
M  V30 1335 C 130.011 0.547061 1.49931 0
M  V30 1336 C 130.211 -0.921781 1.7918 0
M  V30 1337 O 129.267 -1.70469 1.8627 0
M  V30 1338 C 130.58 1.43599 2.64196 0
M  V30 1339 C 132.128 1.43665 2.78081 0
M  V30 1340 C 132.603 2.31085 3.95428 0
M  V30 1341 N 134.094 2.28893 4.02694 0
M  V30 1342 C 134.829 2.93262 4.92732 0
M  V30 1343 N 134.325 3.66751 5.87763 0
M  V30 1344 N 136.118 2.82638 4.85873 0
M  V30 1345 H 128.269 1.8075 1.11549 0
M  V30 1346 H 130.532 0.772144 0.549997 0
M  V30 1347 H 130.238 2.48058 2.49319 0
M  V30 1348 H 130.112 1.12502 3.60032 0
M  V30 1349 H 132.499 0.399701 2.92381 0
M  V30 1350 H 132.58 1.7878 1.82952 0
M  V30 1351 H 132.224 3.34849 3.81888 0
M  V30 1352 H 132.154 1.93302 4.89839 0
M  V30 1353 H 134.645 1.75466 3.34694 0
M  V30 1354 H 134.958 4.13027 6.53168 0
M  V30 1355 H 133.303 3.70859 5.87783 0
M  V30 1356 H 136.494 2.24774 4.10602 0
M  V30 1357 H 136.667 3.33084 5.55841 0
M  V30 1358 N 130.073 -1.45103 0.615059 0
M  V30 1359 C 131.02 -2.30586 -0.0993978 0
M  V30 1360 C 131.99 -1.42544 -0.852669 0
M  V30 1361 O 133.175 -1.71465 -0.836917 0
M  V30 1362 C 130.315 -3.27572 -1.08583 0
M  V30 1363 C 129.428 -4.30717 -0.332656 0
M  V30 1364 C 128.563 -5.14807 -1.30947 0
M  V30 1365 C 127.602 -6.09673 -0.544538 0
M  V30 1366 N 126.739 -6.86517 -1.47101 0
M  V30 1367 H 131.579 -2.91144 0.635542 0
M  V30 1368 H 129.116 -1.4346 0.325206 0
M  V30 1369 H 131.074 -3.82276 -1.67095 0
M  V30 1370 H 129.704 -2.68751 -1.78809 0
M  V30 1371 H 128.756 -3.78615 0.368107 0
M  V30 1372 H 130.068 -4.98102 0.263842 0
M  V30 1373 H 129.222 -5.73948 -1.96643 0
M  V30 1374 H 127.961 -4.47458 -1.9399 0
M  V30 1375 H 126.966 -5.49656 0.126003 0
M  V30 1376 H 128.191 -6.79052 0.080947 0
M  V30 1377 H 126.137 -6.21851 -2.08895 0
M  V30 1378 H 126.054 -7.50281 -0.928137 0
M  V30 1379 H 127.322 -7.50194 -2.11731 0
M  V30 1380 N 131.551 -0.354651 -1.53558 0
M  V30 1381 C 132.514 0.484566 -2.24019 0
M  V30 1382 C 133.514 1.01861 -1.24422 0
M  V30 1383 O 134.704 0.906097 -1.4878 0
M  V30 1384 C 131.836 1.67615 -2.96847 0
M  V30 1385 H 133.029 -0.131843 -2.9961 0
M  V30 1386 H 130.582 -0.106165 -1.55939 0
M  V30 1387 H 131.317 2.33095 -2.25471 0
M  V30 1388 H 131.102 1.30029 -3.69912 0
M  V30 1389 H 132.592 2.27114 -3.50441 0
M  V30 1390 N 133.029 1.57378 -0.0835403 0
M  V30 1391 C 134.275 1.94217 0.583733 0
M  V30 1392 C 134.608 0.964653 1.68547 0
M  V30 1393 O 133.883 -0.00422258 1.945 0
M  V30 1394 C 134.166 3.41253 1.14972 0
M  V30 1395 C 134.019 4.49768 0.0538277 0
M  V30 1396 C 135.338 3.89352 2.05166 0
M  V30 1397 H 132.457 0.706233 0.210724 0
M  V30 1398 H 135.099 1.89392 -0.1519 0
M  V30 1399 H 133.249 3.45496 1.77665 0
M  V30 1400 H 134.921 4.57641 -0.579851 0
M  V30 1401 H 133.164 4.29432 -0.614068 0
M  V30 1402 H 133.835 5.49817 0.490452 0
M  V30 1403 H 136.311 3.87189 1.52393 0
M  V30 1404 H 135.187 4.92822 2.41698 0
M  V30 1405 H 135.448 3.27973 2.96456 0
M  V30 1406 N 134.507 -0.190092 1.56449 0
M  V30 1407 C 135.44 -1.26375 1.90012 0
M  V30 1408 C 136.418 -1.43705 0.760765 0
M  V30 1409 O 137.602 -1.59014 1.01226 0
M  V30 1410 C 134.729 -2.62962 2.13468 0
M  V30 1411 C 133.775 -2.62474 3.36169 0
M  V30 1412 S 134.608 -2.13412 4.91137 0
M  V30 1413 C 135.764 -3.51812 5.17667 0
M  V30 1414 H 135.997 -0.977181 2.80782 0
M  V30 1415 H 133.53 -0.393814 1.49293 0
M  V30 1416 H 135.488 -3.41583 2.27664 0
M  V30 1417 H 134.149 -2.88828 1.23439 0
M  V30 1418 H 133.342 -3.62918 3.49723 0
M  V30 1419 H 132.944 -1.91937 3.20992 0
M  V30 1420 H 135.236 -4.47706 5.08494 0
M  V30 1421 H 136.179 -3.43148 6.19399 0
M  V30 1422 H 136.587 -3.46956 4.45288 0
M  V30 1423 N 135.985 -1.50799 -0.457987 0
M  V30 1424 C 137.396 -1.55152 -1.0385 0
M  V30 1425 C 137.747 -0.362719 -1.92818 0
M  V30 1426 O 136.872 0.522915 -2.09987 0
M  V30 1427 C 137.467 -2.81173 -1.89017 0
M  V30 1428 C 136.026 -2.88164 -2.42154 0
M  V30 1429 C 135.173 -2.49591 -1.20829 0
M  V30 1430 H 138.124 -1.56874 -0.240068 0
M  V30 1431 H 138.145 -2.63769 -2.74238 0
M  V30 1432 H 137.657 -3.67677 -1.24238 0
M  V30 1433 H 135.758 -2.06042 -3.10447 0
M  V30 1434 H 135.871 -3.91356 -2.76364 0
M  V30 1435 H 134.235 -2.02322 -1.54719 0
M  V30 1436 H 135.018 -3.38418 -0.576927 0
M  V30 1437 N 137.463 0.71206 -1.40597 0
M  V30 1438 C 138.709 1.47416 -1.39271 0
M  V30 1439 C 139.042 1.942 0.00388791 0
M  V30 1440 O 138.317 1.68403 0.973179 0
M  V30 1441 C 138.6 2.69774 -2.38525 0
M  V30 1442 C 138.453 2.28861 -3.87224 0
M  V30 1443 C 139.772 3.71939 -2.35264 0
M  V30 1444 H 136.891 0.534713 -0.5072 0
M  V30 1445 H 139.533 0.812375 -1.71757 0
M  V30 1446 H 137.683 3.26238 -2.10953 0
M  V30 1447 H 139.355 1.77852 -4.25636 0
M  V30 1448 H 137.598 1.60824 -4.02887 0
M  V30 1449 H 138.269 3.16584 -4.52193 0
M  V30 1450 H 140.745 3.25113 -2.59694 0
M  V30 1451 H 139.621 4.55186 -3.06753 0
M  V30 1452 H 139.882 4.20484 -1.36549 0
M  V30 1453 N 138.941 1.26152 0.944643 0
M  V30 1454 C 140.187 1.11657 1.69294 0
M  V30 1455 C 140.52 -0.339926 1.91202 0
M  V30 1456 O 139.795 -1.24994 1.49019 0
M  V30 1457 C 140.078 1.88236 3.06984 0
M  V30 1458 C 139.931 3.41772 2.92424 0
M  V30 1459 C 141.25 1.67343 4.07043 0
M  V30 1460 H 138.369 0.407004 0.614424 0
M  V30 1461 H 141.011 1.55106 1.09737 0
M  V30 1462 H 139.161 1.51308 3.57824 0
M  V30 1463 H 140.833 3.88433 2.48832 0
M  V30 1464 H 139.076 3.68974 2.28124 0
M  V30 1465 H 139.747 3.90579 3.90067 0
M  V30 1466 H 142.223 1.99509 3.65151 0
M  V30 1467 H 141.099 2.23346 5.01406 0
M  V30 1468 H 141.36 0.617158 4.37771 0
M  V30 1469 N 140.419 -1.14872 1.07899 0
M  V30 1470 C 141.329 -2.2341 0.715915 0
M  V30 1471 C 142.345 -1.71808 -0.275306 0
M  V30 1472 O 143.521 -2.01039 -0.120545 0
M  V30 1473 C 140.586 -3.46474 0.125168 0
M  V30 1474 C 139.647 -4.13039 1.17034 0
M  V30 1475 C 138.88 -5.30229 0.607688 0
M  V30 1476 O 139.103 -5.675 -0.574497 0
M  V30 1477 O 138.037 -5.86444 1.35526 0
M  V30 1478 H 141.863 -2.56808 1.62121 0
M  V30 1479 H 139.448 -1.22702 0.852322 0
M  V30 1480 H 141.33 -4.20917 -0.201729 0
M  V30 1481 H 140.005 -3.14811 -0.753364 0
M  V30 1482 H 138.912 -3.40493 1.54968 0
M  V30 1483 H 140.245 -4.48796 2.02097 0
M  V30 1484 N 141.898 -0.863906 -1.31812 0
M  V30 1485 C 143.314 -0.555004 -1.49639 0
M  V30 1486 C 143.514 0.912266 -1.79666 0
M  V30 1487 O 142.57 1.69479 -1.87171 0
M  V30 1488 C 143.883 -1.44998 -2.63431 0
M  V30 1489 C 145.431 -1.45138 -2.77316 0
M  V30 1490 C 145.906 -2.33179 -3.94197 0
M  V30 1491 N 147.397 -2.31025 -4.01474 0
M  V30 1492 C 148.132 -2.95871 -4.9117 0
M  V30 1493 N 147.628 -3.69863 -5.8581 0
M  V30 1494 N 149.421 -2.85211 -4.84367 0
M  V30 1495 H 141.572 -1.81339 -1.10589 0
M  V30 1496 H 143.835 -0.77505 -0.545895 0
M  V30 1497 H 143.541 -2.49377 -2.48 0
M  V30 1498 H 143.415 -1.14409 -3.59431 0
M  V30 1499 H 145.802 -0.415201 -2.92164 0
M  V30 1500 H 145.883 -1.79747 -1.82001 0
M  V30 1501 H 145.527 -3.3687 -3.80107 0
M  V30 1502 H 145.457 -1.95897 -4.88807 0
M  V30 1503 H 147.948 -1.77238 -3.33759 0
M  V30 1504 H 148.261 -4.16486 -6.50968 0
M  V30 1505 H 146.606 -3.73971 -5.85808 0
M  V30 1506 H 149.797 -2.26948 -4.09405 0
M  V30 1507 H 149.97 -3.36027 -5.54066 0
M  V30 1508 N 143.376 1.44774 -0.622745 0
M  V30 1509 C 144.339 2.29069 0.0774015 0
M  V30 1510 C 145.339 1.4059 0.780461 0
M  V30 1511 O 146.529 1.62551 0.626322 0
M  V30 1512 C 143.661 3.21974 1.12006 0
M  V30 1513 H 144.854 2.92459 -0.663901 0
M  V30 1514 H 142.407 1.51548 -0.382486 0
M  V30 1515 H 143.142 2.63417 1.89162 0
M  V30 1516 H 142.927 3.87168 0.619951 0
M  V30 1517 H 144.417 3.85318 1.60995 0
M  V30 1518 N 144.854 0.36279 1.53368 0
M  V30 1519 C 146.131 -0.284021 1.93527 0
M  V30 1520 C 146.511 -1.66628 1.29608 0
M  V30 1521 O 145.859 -2.23942 0.45413 0
M  V30 1522 C 146.069 -0.337028 3.47369 0
M  V30 1523 C 147.417 -0.578708 4.20638 0
M  V30 1524 O 148.441 -0.418352 3.53735 0
M  V30 1525 O 147.3 -0.89074 5.39192 0
M  V30 1526 H 144.394 -0.169743 0.809393 0
M  V30 1527 H 146.94 0.41537 1.64538 0
M  V30 1528 H 145.712 0.632217 3.86159 0
M  V30 1529 H 145.335 -1.08243 3.82582 0
M  V30 1530 N 146.332 -1.57332 0.0918853 0
M  V30 1531 C 147.295 -2.12708 -0.85369 0
M  V30 1532 C 148.295 -1.05561 -1.213 0
M  V30 1533 O 149.485 -1.31461 -1.14296 0
M  V30 1534 C 146.617 -2.64503 -2.15061 0
M  V30 1535 H 147.81 -2.97573 -0.3729 0
M  V30 1536 H 145.363 -1.55509 -0.157072 0
M  V30 1537 H 146.098 -1.83149 -2.67632 0
M  V30 1538 H 145.883 -3.4284 -1.90272 0
M  V30 1539 H 147.373 -3.07351 -2.82711 0
M  V30 1540 N 147.81 0.181792 -1.56548 0
M  V30 1541 C 148.74 1.22765 -1.98623 0
M  V30 1542 C 149.721 1.46747 -0.860189 0
M  V30 1543 O 150.906 1.58259 -1.12551 0
M  V30 1544 C 148.036 2.56894 -2.33715 0
M  V30 1545 C 146.99 2.475 -3.49182 0
M  V30 1546 C 146.316 3.86023 -3.69986 0
M  V30 1547 C 147.616 1.98866 -4.82959 0
M  V30 1548 H 149.31 0.877942 -2.86239 0
M  V30 1549 H 146.856 0.42088 -1.37712 0
M  V30 1550 H 148.809 3.30253 -2.61746 0
M  V30 1551 H 147.533 2.93632 -1.42997 0
M  V30 1552 H 146.192 1.76596 -3.21262 0
M  V30 1553 H 145.84 4.20136 -2.76576 0
M  V30 1554 H 145.54 3.80609 -4.47672 0
M  V30 1555 H 147.064 4.60984 -4.00407 0
M  V30 1556 H 148.478 2.61992 -5.09934 0
M  V30 1557 H 146.875 2.04424 -5.64208 0
M  V30 1558 H 147.945 0.942465 -4.75653 0
M  V30 1559 N 149.288 1.51039 0.449983 0
M  V30 1560 C 150.218 1.74379 1.55288 0
M  V30 1561 C 151.199 0.593236 1.5942 0
M  V30 1562 O 152.384 0.834625 1.7535 0
M  V30 1563 C 149.514 1.85728 2.93466 0
M  V30 1564 C 148.468 3.01078 3.04197 0
M  V30 1565 C 147.794 2.97595 4.44231 0
M  V30 1566 C 149.094 4.41254 2.7945 0
M  V30 1567 H 150.788 2.66725 1.36008 0
M  V30 1568 H 148.334 1.2835 0.652864 0
M  V30 1569 H 150.287 2.0064 3.70569 0
M  V30 1570 H 149.011 0.900207 3.13949 0
M  V30 1571 H 147.67 2.85851 2.29531 0
M  V30 1572 H 147.318 1.99691 4.61663 0
M  V30 1573 H 147.018 3.75046 4.52343 0
M  V30 1574 H 148.542 3.14583 5.23326 0
M  V30 1575 H 149.956 4.56897 3.46292 0
M  V30 1576 H 148.353 5.20315 2.98985 0
M  V30 1577 H 149.423 4.52164 1.75144 0
M  V30 1578 N 150.766 -0.704594 1.40972 0
M  V30 1579 C 152.006 -1.47691 1.41304 0
M  V30 1580 C 152.37 -1.91992 0.0178582 0
M  V30 1581 O 153.571 -2.68599 -0.103996 0
M  V30 1582 C 151.842 -2.66254 2.38419 0
M  V30 1583 S 153.401 -3.55516 2.57204 0
M  V30 1584 H 150.219 -0.504808 0.500689 0
M  V30 1585 H 152.821 -0.822962 1.77335 0
M  V30 1586 H 151.525 -2.31897 3.38603 0
M  V30 1587 H 151.056 -3.3655 2.03711 0
M  V30 1588 H 153.071 -4.61115 1.83268 0
M  V30 1589 N 152.244 -1.26651 -0.937939 0
M  V30 1590 C 153.474 -1.15006 -1.71631 0
M  V30 1591 C 153.882 0.297026 -1.86854 0
M  V30 1592 O 153.225 1.21493 -1.37786 0
M  V30 1593 C 153.287 -1.74984 -3.14039 0
M  V30 1594 C 152.951 -3.24103 -3.2219 0
M  V30 1595 C 153.948 -4.20877 -3.05219 0
M  V30 1596 C 151.633 -3.64625 -3.45476 0
M  V30 1597 C 153.627 -5.56151 -3.11408 0
M  V30 1598 C 151.314 -5.00032 -3.513 0
M  V30 1599 C 152.312 -5.95604 -3.34282 0
M  V30 1600 O 152 -7.28545 -3.3982 0
M  V30 1601 H 151.732 -0.401183 -0.544085 0
M  V30 1602 H 154.286 -1.67832 -1.18413 0
M  V30 1603 H 152.516 -1.16624 -3.68695 0
M  V30 1604 H 154.205 -1.58199 -3.73802 0
M  V30 1605 H 154.971 -3.90908 -2.87081 0
M  V30 1606 H 150.85 -2.90718 -3.57777 0
M  V30 1607 H 154.394 -6.30727 -2.98043 0
M  V30 1608 H 150.291 -5.29659 -3.68959 0
M  V30 1609 H 151.059 -7.3686 -3.56343 0
M  V30 1610 N 153.722 1.14298 -1.08507 0
M  V30 1611 C 155.133 1.66926 -0.836227 0
M  V30 1612 C 155.484 1.85576 0.63686 0
M  V30 1613 O 154.609 1.56767 1.49175 0
M  V30 1614 C 155.204 3.03219 -1.51142 0
M  V30 1615 C 153.763 3.52876 -1.30979 0
M  V30 1616 C 152.91 2.2833 -1.57356 0
M  V30 1617 H 155.861 0.983491 -1.24552 0
M  V30 1618 H 155.882 3.68726 -0.939211 0
M  V30 1619 H 155.394 2.89612 -2.58353 0
M  V30 1620 H 153.495 3.71703 -0.258429 0
M  V30 1621 H 153.608 4.33586 -2.03814 0
M  V30 1622 H 151.972 2.34454 -0.995164 0
M  V30 1623 H 152.755 2.17298 -2.65775 0
M  V30 1624 N 155.201 0.870884 1.31352 0
M  V30 1625 C 156.429 0.49677 2.00848 0
M  V30 1626 C 156.844 -0.910998 1.65367 0
M  V30 1627 O 156.201 -1.59696 0.883374 0
M  V30 1628 C 156.252 0.645308 3.55694 0
M  V30 1629 O 155.973 1.99764 3.89905 0
M  V30 1630 C 157.474 0.272326 4.42463 0
M  V30 1631 H 154.694 0.193462 0.642506 0
M  V30 1632 H 157.238 1.1723 1.67563 0
M  V30 1633 H 155.393 0.0173176 3.87396 0
M  V30 1634 H 155.807 2.00607 4.84621 0
M  V30 1635 H 157.281 0.427208 5.50344 0
M  V30 1636 H 157.758 -0.788587 4.32062 0
M  V30 1637 H 158.364 0.876054 4.1618 0
M  V30 1638 N 156.679 -1.44442 0.630414 0
M  V30 1639 C 158.09 -1.85434 0.217063 0
M  V30 1640 C 158.441 -1.52748 -1.23136 0
M  V30 1641 O 157.566 -0.965205 -1.93682 0
M  V30 1642 C 158.161 -3.36581 0.387168 0
M  V30 1643 C 156.72 -3.76389 0.0283297 0
M  V30 1644 C 155.867 -2.68296 0.700889 0
M  V30 1645 H 158.818 -1.34919 0.83562 0
M  V30 1646 H 158.839 -3.78657 -0.374086 0
M  V30 1647 H 158.351 -3.60339 1.44144 0
M  V30 1648 H 156.452 -3.58246 -1.02423 0
M  V30 1649 H 156.565 -4.77095 0.437892 0
M  V30 1650 H 154.929 -2.54335 0.136267 0
M  V30 1651 H 155.712 -2.94887 1.75774 0
M  V30 1652 N 158.157 -0.370918 -1.53173 0
M  V30 1653 C 159.387 0.217389 -2.05453 0
M  V30 1654 C 159.795 1.42568 -1.24382 0
M  V30 1655 O 159.138 1.81571 -0.278839 0
M  V30 1656 C 159.2 0.669827 -3.53205 0
M  V30 1657 C 158.864 -0.4225 -4.55043 0
M  V30 1658 C 159.861 -1.27407 -5.04047 0
M  V30 1659 C 157.546 -0.58427 -4.9889 0
M  V30 1660 C 159.54 -2.27271 -5.95505 0
M  V30 1661 C 157.227 -1.58627 -5.90153 0
M  V30 1662 C 158.225 -2.42892 -6.38351 0
M  V30 1663 O 157.913 -3.41382 -7.27814 0
M  V30 1664 H 157.645 0.0408171 -0.674767 0
M  V30 1665 H 160.199 -0.5292 -1.98466 0
M  V30 1666 H 158.429 1.4681 -3.57748 0
M  V30 1667 H 160.118 1.18173 -3.88317 0
M  V30 1668 H 160.884 -1.16031 -4.70916 0
M  V30 1669 H 156.763 0.061851 -4.60959 0
M  V30 1670 H 160.307 -2.93079 -6.33049 0
M  V30 1671 H 156.204 -1.70048 -6.22699 0
M  V30 1672 H 156.972 -3.37173 -7.45826 0
M  V30 1673 N 159.635 1.57281 -0.100228 0
M  V30 1674 C 160.545 2.17833 0.870965 0
M  V30 1675 C 161.561 1.14921 1.30649 0
M  V30 1676 O 162.737 1.47313 1.37335 0
M  V30 1677 C 159.802 2.75085 2.1102 0
M  V30 1678 C 158.863 3.9297 1.72838 0
M  V30 1679 C 158.096 4.47482 2.90854 0
M  V30 1680 O 158.319 4.00922 4.05731 0
M  V30 1681 O 157.253 5.38433 2.69023 0
M  V30 1682 H 161.079 3.0124 0.38575 0
M  V30 1683 H 158.664 1.48881 0.124397 0
M  V30 1684 H 160.546 3.11656 2.83634 0
M  V30 1685 H 159.221 1.94721 2.58584 0
M  V30 1686 H 158.128 3.61201 0.973883 0
M  V30 1687 H 159.461 4.74713 1.30033 0
M  V30 1688 N 161.113 -0.173488 1.56642 0
M  V30 1689 C 162.361 -0.888706 1.81512 0
M  V30 1690 C 162.682 -1.82875 0.676872 0
M  V30 1691 O 161.952 -1.93536 -0.303414 0
M  V30 1692 H 160.532 -0.331164 0.669582 0
M  V30 1693 H 163.194 -0.173823 1.94123 0
M  V30 1694 H 162.29 -1.46691 2.75478 0
M  V30 1695 N 162.591 -1.51276 -0.441967 0
M  V30 1696 C 163.838 -1.63715 -1.19179 0
M  V30 1697 C 164.166 -0.351175 -1.91303 0
M  V30 1698 O 163.421 0.664524 -1.84072 0
M  V30 1699 C 163.72 -2.78746 -2.23686 0
M  V30 1700 C 163.386 -4.18189 -1.68607 0
M  V30 1701 C 162.048 -4.56125 -1.53308 0
M  V30 1702 C 164.4 -5.05222 -1.28062 0
M  V30 1703 C 161.728 -5.78804 -0.959317 0
M  V30 1704 C 164.08 -6.28476 -0.721162 0
M  V30 1705 C 162.744 -6.65188 -0.55504 0
M  V30 1706 H 162.014 -0.599076 -0.436106 0
M  V30 1707 H 164.661 -1.85296 -0.48351 0
M  V30 1708 H 162.966 -2.51369 -3.00535 0
M  V30 1709 H 164.663 -2.8557 -2.81515 0
M  V30 1710 H 161.253 -3.88277 -1.8149 0
M  V30 1711 H 165.437 -4.76524 -1.38704 0
M  V30 1712 H 160.693 -6.05899 -0.81833 0
M  V30 1713 H 164.867 -6.95259 -0.398458 0
M  V30 1714 H 162.494 -7.60123 -0.108311 0
M  V30 1715 N 164.069 0.697108 -1.41344 0
M  V30 1716 C 164.979 1.84088 -1.45427 0
M  V30 1717 C 165.995 1.70545 -0.34501 0
M  V30 1718 O 167.171 1.92488 -0.592492 0
M  V30 1719 C 164.236 3.20056 -1.33286 0
M  V30 1720 C 163.297 3.45718 -2.54514 0
M  V30 1721 C 162.53 4.75199 -2.42944 0
M  V30 1722 O 162.753 5.51579 -1.45318 0
M  V30 1723 O 161.687 5.0161 -3.32672 0
M  V30 1724 H 165.513 1.836 -2.41919 0
M  V30 1725 H 163.098 0.849966 -1.22866 0
M  V30 1726 H 164.98 4.01236 -1.28794 0
M  V30 1727 H 163.655 3.2123 -0.39909 0
M  V30 1728 H 162.562 2.64474 -2.64583 0
M  V30 1729 H 163.895 3.49356 -3.46715 0
M  V30 1730 N 165.547 1.27147 0.931209 0
M  V30 1731 C 166.777 1.15914 1.71019 0
M  V30 1732 C 167.185 -0.287112 1.87009 0
M  V30 1733 O 166.528 -1.20761 1.38429 0
M  V30 1734 C 166.59 1.76647 3.13107 0
M  V30 1735 C 166.254 3.25807 3.20467 0
M  V30 1736 C 167.251 4.22489 3.02983 0
M  V30 1737 C 164.936 3.66452 3.43538 0
M  V30 1738 C 166.93 5.57794 3.08454 0
M  V30 1739 C 164.617 5.01888 3.48643 0
M  V30 1740 C 165.615 5.97369 3.31119 0
M  V30 1741 O 165.303 7.30337 3.35952 0
M  V30 1742 H 165.035 0.404062 0.54195 0
M  V30 1743 H 167.589 1.68457 1.17521 0
M  V30 1744 H 165.819 1.18578 3.68071 0
M  V30 1745 H 167.508 1.60179 3.72958 0
M  V30 1746 H 168.274 3.92425 2.85004 0
M  V30 1747 H 164.153 2.92611 3.5623 0
M  V30 1748 H 167.697 6.32298 2.94694 0
M  V30 1749 H 163.594 5.31609 3.66145 0
M  V30 1750 H 164.362 7.38739 3.5243 0
M  V30 1751 N 167.025 -1.13721 1.09112 0
M  V30 1752 C 168.25 -1.89314 0.847053 0
M  V30 1753 C 168.675 -1.78416 -0.595774 0
M  V30 1754 O 168.033 -1.12942 -1.41823 0
M  V30 1755 C 168.081 -3.3701 1.28284 0
M  V30 1756 O 167.185 -4.10054 0.439267 0
M  V30 1757 H 166.526 -0.588745 0.307044 0
M  V30 1758 H 169.056 -1.43902 1.45442 0
M  V30 1759 H 169.066 -3.87834 1.26683 0
M  V30 1760 H 167.741 -3.4426 2.33363 0
M  V30 1761 H 166.318 -3.69266 0.519312 0
M  V30 1762 N 168.503 -0.877838 -1.30888 0
M  V30 1763 C 169.914 -0.544193 -1.78593 0
M  V30 1764 C 170.265 0.939301 -1.72254 0
M  V30 1765 O 169.39 1.7337 -1.29505 0
M  V30 1766 C 169.985 -0.98105 -3.24285 0
M  V30 1767 C 168.544 -0.698935 -3.69854 0
M  V30 1768 C 167.691 -1.168 -2.51502 0
M  V30 1769 H 170.642 -1.06278 -1.17859 0
M  V30 1770 H 170.663 -0.307009 -3.79259 0
M  V30 1771 H 170.175 -2.06079 -3.28866 0
M  V30 1772 H 168.276 0.369112 -3.70767 0
M  V30 1773 H 168.389 -1.28148 -4.61644 0
M  V30 1774 H 166.753 -0.587535 -2.47831 0
M  V30 1775 H 167.536 -2.25533 -2.58824 0
M  V30 1776 N 169.982 1.44106 -0.638065 0
M  V30 1777 C 170.93 2.3248 0.0748149 0
M  V30 1778 C 171.924 1.47746 0.828702 0
M  V30 1779 O 173.13 1.64049 0.740816 0
M  V30 1780 H 169.505 0.750771 0.0429686 0
M  V30 1781 H 171.476 2.90348 -0.688504 0
M  V30 1782 C 170.225 3.31843 1.03805 0
M  V30 1783 H 169.548 3.97059 0.467375 0
M  V30 1784 H 170.988 3.96345 1.50622 0
M  V30 1785 C 169.447 2.61291 2.1267 0
M  V30 1786 O 169.977 2.41702 3.20847 0
M  V30 1787 N 168.183 2.20915 1.88798 0
M  V30 1788 H 167.73 2.37047 1.00829 0
M  V30 1789 H 167.688 1.74038 2.61836 0
M  V30 1790 N 171.46 0.379036 1.52974 0
M  V30 1791 C 172.709 -0.207612 2.00629 0
M  V30 1792 C 173.022 -1.48758 1.27006 0
M  V30 1793 O 174.228 -2.15365 1.65318 0
M  V30 1794 C 172.684 -0.42053 3.57435 0
M  V30 1795 C 172.292 0.845587 4.39948 0
M  V30 1796 C 174.036 -0.964102 4.13407 0
M  V30 1797 C 171.943 0.601513 5.88333 0
M  V30 1798 H 170.873 -0.0813591 0.749598 0
M  V30 1799 H 173.524 0.499853 1.76561 0
M  V30 1800 H 171.906 -1.18959 3.7771 0
M  V30 1801 H 173.08 1.61848 4.31442 0
M  V30 1802 H 171.395 1.31336 3.95145 0
M  V30 1803 H 173.992 -1.16225 5.21916 0
M  V30 1804 H 174.335 -1.93019 3.68849 0
M  V30 1805 H 174.868 -0.25487 3.96983 0
M  V30 1806 H 171.607 1.53831 6.37194 0
M  V30 1807 H 171.127 -0.132628 5.99653 0
M  V30 1808 H 172.806 0.232134 6.46583 0
M  V30 1809 N 172.938 -1.57226 0.108567 0
M  V30 1810 C 174.184 -1.95121 -0.552761 0
M  V30 1811 C 174.517 -0.991345 -1.66991 0
M  V30 1812 O 173.792 -0.0267211 -1.94482 0
M  V30 1813 C 174.075 -3.43039 -1.09528 0
M  V30 1814 C 173.928 -4.49797 0.0177332 0
M  V30 1815 C 175.247 -3.92567 -1.98945 0
M  V30 1816 H 172.366 -0.709496 -0.199461 0
M  V30 1817 H 175.008 -1.89126 0.182011 0
M  V30 1818 H 173.158 -3.48279 -1.72146 0
M  V30 1819 H 174.83 -4.56661 0.652584 0
M  V30 1820 H 173.073 -4.284 0.682309 0
M  V30 1821 H 173.744 -5.50528 -0.402919 0
M  V30 1822 H 176.22 -3.89565 -1.46214 0
M  V30 1823 H 175.096 -4.96605 -2.33827 0
M  V30 1824 H 175.357 -3.32648 -2.91201 0
M  V30 1825 N 174.416 0.165178 -1.56732 0
M  V30 1826 C 175.646 0.894919 -1.86212 0
M  V30 1827 C 176.054 1.76066 -0.692627 0
M  V30 1828 O 175.397 1.80387 0.347303 0
M  V30 1829 C 175.459 1.8174 -3.10179 0
M  V30 1830 C 175.123 1.13064 -4.42793 0
M  V30 1831 C 176.12 0.493169 -5.17556 0
M  V30 1832 C 173.805 1.12556 -4.89527 0
M  V30 1833 C 175.799 -0.140209 -6.37246 0
M  V30 1834 C 173.486 0.488366 -6.09145 0
M  V30 1835 C 174.484 -0.143411 -6.82849 0
M  V30 1836 O 174.172 -0.77055 -8.00199 0
M  V30 1837 H 173.904 0.265114 -0.621844 0
M  V30 1838 H 176.458 0.168242 -2.0471 0
M  V30 1839 H 174.688 2.58455 -2.87642 0
M  V30 1840 H 176.377 2.4175 -3.26055 0
M  V30 1841 H 177.143 0.489023 -4.82528 0
M  V30 1842 H 173.022 1.60672 -4.32094 0
M  V30 1843 H 176.566 -0.633932 -6.94714 0
M  V30 1844 H 172.463 0.490116 -6.43637 0
M  V30 1845 H 173.231 -0.670408 -8.1575 0
M  V30 1846 N 175.894 1.51508 0.433938 0
M  V30 1847 C 177.142 1.6402 1.18075 0
M  V30 1848 C 177.463 0.360328 1.91642 0
M  V30 1849 O 176.733 -0.623945 1.85698 0
M  V30 1850 H 175.313 0.6045 0.43885 0
M  V30 1851 H 177.975 1.88452 0.497178 0
M  V30 1852 H 177.071 2.46949 1.90847 0
M  V30 1853 N 177.372 -0.689602 1.41712 0
M  V30 1854 C 178.62 -1.4468 1.4111 0
M  V30 1855 C 178.941 -1.94986 0.0232196 0
M  V30 1856 O 178.211 -1.72097 -0.935913 0
M  V30 1857 H 176.791 -0.536847 0.519427 0
M  V30 1858 H 179.453 -0.815825 1.77004 0
M  V30 1859 H 178.549 -2.30706 2.10193 0
M  V30 1860 N 178.85 -1.27639 -0.924453 0
M  V30 1861 C 180.261 -1.12834 -1.48746 0
M  V30 1862 C 180.612 0.285505 -1.94112 0
M  V30 1863 O 179.737 1.17874 -1.81479 0
M  V30 1864 C 180.332 -2.04217 -2.70334 0
M  V30 1865 C 178.891 -1.93509 -3.22848 0
M  V30 1866 C 178.038 -1.96583 -1.95577 0
M  V30 1867 H 180.989 -1.40484 -0.738233 0
M  V30 1868 H 181.01 -1.59989 -3.4523 0
M  V30 1869 H 180.522 -3.07111 -2.37285 0
M  V30 1870 H 178.623 -0.936131 -3.60649 0
M  V30 1871 H 178.736 -2.79917 -3.88823 0
M  V30 1872 H 177.1 -1.4085 -2.12211 0
M  V30 1873 H 177.883 -3.01137 -1.64837 0
M  V30 1874 N 180.328 1.1314 -1.09713 0
M  V30 1875 C 181.291 2.16831 -0.742751 0
M  V30 1876 C 182.291 1.59159 0.229129 0
M  V30 1877 O 183.481 1.74199 0.00693237 0
M  V30 1878 C 180.613 3.40756 -0.0989168 0
M  V30 1879 H 181.806 2.49695 -1.66109 0
M  V30 1880 H 179.359 1.2802 -0.896699 0
M  V30 1881 H 180.094 3.13485 0.830514 0
M  V30 1882 H 179.879 3.83888 -0.798265 0
M  V30 1883 H 181.369 4.17386 0.133524 0
M  V30 1884 N 181.806 0.884767 1.30421 0
M  V30 1885 C 183.217 0.553656 1.78302 0
M  V30 1886 C 183.568 -0.930153 1.7275 0
M  V30 1887 O 182.693 -1.72681 1.30423 0
M  V30 1888 C 183.288 0.998234 3.2376 0
M  V30 1889 C 181.847 0.71854 3.69478 0
M  V30 1890 C 180.994 1.18132 2.50879 0
M  V30 1891 H 183.945 1.06901 1.17294 0
M  V30 1892 H 183.966 0.327118 3.79091 0
M  V30 1893 H 183.478 2.0782 3.27769 0
M  V30 1894 H 181.579 -0.349444 3.70958 0
M  V30 1895 H 181.692 1.30595 4.60958 0
M  V30 1896 H 180.056 0.600669 2.47516 0
M  V30 1897 H 180.839 2.26902 2.57624 0
M  V30 1898 N 183.284 -1.43765 0.645699 0
M  V30 1899 C 184.232 -2.32516 -0.0624849 0
M  V30 1900 C 185.226 -1.48183 -0.820855 0
M  V30 1901 O 186.432 -1.64439 -0.732106 0
M  V30 1902 H 182.807 -0.750989 -0.0389864 0
M  V30 1903 H 184.778 -2.89979 0.703892 0
M  V30 1904 C 183.527 -3.32389 -1.02044 0
M  V30 1905 H 182.85 -3.97301 -0.446312 0
M  V30 1906 H 184.29 -3.97138 -1.48517 0
M  V30 1907 C 182.749 -2.62416 -2.11281 0
M  V30 1908 O 183.279 -2.434 -3.19561 0
M  V30 1909 N 181.485 -2.21913 -1.87624 0
M  V30 1910 H 181.032 -2.37578 -0.995703 0
M  V30 1911 H 180.99 -1.75424 -2.6091 0
M  V30 1912 N 184.763 -0.387143 -1.52771 0
M  V30 1913 C 185.695 0.484089 -2.2403 0
M  V30 1914 C 186.708 1.02849 -1.26198 0
M  V30 1915 O 187.897 0.931186 -1.52286 0
M  V30 1916 C 184.997 1.68337 -2.94136 0
M  V30 1917 C 184.17 1.26672 -4.18656 0
M  V30 1918 C 183.229 2.33045 -4.7178 0
M  V30 1919 O 182.255 1.94541 -5.34923 0
M  V30 1920 N 183.457 3.64929 -4.5145 0
M  V30 1921 H 186.222 -0.126404 -2.99433 0
M  V30 1922 H 183.783 -0.213392 -1.60488 0
M  V30 1923 H 185.775 2.39019 -3.26577 0
M  V30 1924 H 184.345 2.20025 -2.22053 0
M  V30 1925 H 183.565 0.388878 -3.92277 0
M  V30 1926 H 184.853 0.964964 -4.99566 0
M  V30 1927 H 184.251 3.98974 -4.01044 0
M  V30 1928 H 182.808 4.31651 -4.88386 0
M  V30 1929 N 186.241 1.57166 -0.116904 0
M  V30 1930 C 187.189 2.16457 0.851418 0
M  V30 1931 C 188.183 1.11323 1.27686 0
M  V30 1932 O 189.389 1.2963 1.24884 0
M  V30 1933 H 185.764 0.69271 0.292672 0
M  V30 1934 H 187.735 2.96605 0.32685 0
M  V30 1935 C 186.484 2.77689 2.09246 0
M  V30 1936 H 185.807 3.58285 1.77402 0
M  V30 1937 H 187.247 3.22716 2.7501 0
M  V30 1938 C 185.706 1.74667 2.88085 0
M  V30 1939 O 186.236 1.19877 3.83396 0
M  V30 1940 N 184.442 1.44656 2.52038 0
M  V30 1941 H 183.989 1.89402 1.74599 0
M  V30 1942 H 183.947 0.759675 3.05084 0
M  V30 1943 N 187.719 -0.156864 1.56817 0
M  V30 1944 C 188.944 -0.890331 1.87318 0
M  V30 1945 C 189.369 -1.74394 0.704855 0
M  V30 1946 O 188.727 -1.77972 -0.345786 0
M  V30 1947 C 188.775 -1.73102 3.16336 0
M  V30 1948 O 187.879 -2.83422 2.99576 0
M  V30 1949 H 187.22 -0.24857 0.615718 0
M  V30 1950 H 189.75 -0.150649 2.04045 0
M  V30 1951 H 189.76 -2.12803 3.48107 0
M  V30 1952 H 188.435 -1.10412 4.00976 0
M  V30 1953 H 187.012 -2.47199 2.7919 0
M  V30 1954 N 189.197 -1.51736 -0.425897 0
M  V30 1955 C 190.16 -1.73271 -1.50032 0
M  V30 1956 C 191.16 -0.602639 -1.4908 0
M  V30 1957 O 192.35 -0.87033 -1.509 0
M  V30 1958 C 189.482 -1.79969 -2.89523 0
M  V30 1959 H 190.675 -2.69172 -1.32237 0
M  V30 1960 H 188.228 -1.41899 -0.65532 0
M  V30 1961 H 188.963 -0.859241 -3.1271 0
M  V30 1962 H 188.748 -2.62109 -2.91619 0
M  V30 1963 H 190.238 -1.9843 -3.67444 0
M  V30 1964 N 190.675 0.682077 -1.42076 0
M  V30 1965 C 192.086 1.26246 -1.37546 0
M  V30 1966 C 192.437 1.96092 -0.0651481 0
M  V30 1967 O 191.562 1.99587 0.836297 0
M  V30 1968 C 192.157 2.29594 -2.49143 0
M  V30 1969 C 190.716 2.83175 -2.47969 0
M  V30 1970 C 189.863 1.57395 -2.28303 0
M  V30 1971 H 192.814 0.475937 -1.51395 0
M  V30 1972 H 192.835 3.11175 -2.18976 0
M  V30 1973 H 192.347 1.78729 -3.44496 0
M  V30 1974 H 190.448 3.3818 -1.56413 0
M  V30 1975 H 190.561 3.32687 -3.44755 0
M  V30 1976 H 188.925 1.83699 -1.76428 0
M  V30 1977 H 189.708 1.08507 -3.25701 0
M  V30 1978 N 192.153 1.28127 0.917671 0
M  V30 1979 C 193.083 1.14248 2.03641 0
M  V30 1980 C 194.064 0.0412748 1.7005 0
M  V30 1981 O 195.249 0.217566 1.92977 0
M  V30 1982 C 192.379 0.799431 3.37974 0
M  V30 1983 C 191.333 1.85497 3.85713 0
M  V30 1984 C 190.659 1.36565 5.16966 0
M  V30 1985 C 191.959 3.26085 4.08002 0
M  V30 1986 H 193.653 2.07835 2.15511 0
M  V30 1987 H 191.199 1.00064 1.03553 0
M  V30 1988 H 193.152 0.689114 4.15727 0
M  V30 1989 H 191.876 -0.172145 3.26146 0
M  V30 1990 H 190.535 1.95437 3.10161 0
M  V30 1991 H 190.183 0.383253 5.01538 0
M  V30 1992 H 189.883 2.07143 5.49878 0
M  V30 1993 H 191.407 1.26848 5.97279 0
M  V30 1994 H 192.821 3.19089 4.76293 0
M  V30 1995 H 191.218 3.94462 4.52238 0
M  V30 1996 H 192.288 3.70394 3.12948 0
M  V30 1997 N 193.631 -1.12557 1.10312 0
M  V30 1998 C 194.594 -2.16434 0.75424 0
M  V30 1999 C 195.594 -1.59278 -0.220685 0
M  V30 2000 O 196.784 -1.742 0.00230591 0
M  V30 2001 C 193.916 -3.40699 0.116987 0
M  V30 2002 H 195.109 -2.48811 1.67431 0
M  V30 2003 H 192.662 -1.27542 0.903475 0
M  V30 2004 H 193.397 -3.13921 -0.813877 0
M  V30 2005 H 193.182 -3.83459 0.818613 0
M  V30 2006 H 194.672 -4.17451 -0.111387 0
M  V30 2007 N 195.109 -0.891671 -1.2995 0
M  V30 2008 C 196.072 -0.36828 -2.26222 0
M  V30 2009 C 197.072 0.493014 -1.53056 0
M  V30 2010 O 198.262 0.299213 -1.71611 0
M  V30 2011 C 195.394 0.47442 -3.37583 0
M  V30 2012 H 196.587 -1.21844 -2.74033 0
M  V30 2013 H 194.14 -0.669107 -1.41254 0
M  V30 2014 H 194.875 1.34489 -2.95099 0
M  V30 2015 H 194.66 -0.142615 -3.91841 0
M  V30 2016 H 196.15 0.83218 -4.09224 0
M  V30 2017 N 196.587 1.43421 -0.653314 0
M  V30 2018 C 197.817 2.05864 -0.174238 0
M  V30 2019 C 198.225 1.49052 1.16534 0
M  V30 2020 O 197.568 0.616481 1.73047 0
M  V30 2021 C 197.63 3.59499 -0.00875873 0
M  V30 2022 C 197.294 4.38893 -1.27364 0
M  V30 2023 C 198.291 4.70947 -2.20239 0
M  V30 2024 C 195.976 4.789 -1.51525 0
M  V30 2025 C 197.97 5.41916 -3.35568 0
M  V30 2026 C 195.657 5.49614 -2.67147 0
M  V30 2027 C 196.655 5.81044 -3.58994 0
M  V30 2028 O 196.343 6.50313 -4.72597 0
M  V30 2029 H 196.075 0.670345 -0.0872549 0
M  V30 2030 H 198.629 1.84913 -0.894226 0
M  V30 2031 H 196.859 3.79025 0.7666 0
M  V30 2032 H 198.548 4.0364 0.427687 0
M  V30 2033 H 199.314 4.40558 -2.02815 0
M  V30 2034 H 195.193 4.53843 -0.809158 0
M  V30 2035 H 198.737 5.66365 -4.07279 0
M  V30 2036 H 194.634 5.79419 -2.84505 0
M  V30 2037 H 195.402 6.68795 -4.71864 0
M  V30 2038 N 198.065 0.39524 1.52563 0
M  V30 2039 C 198.995 -0.428384 2.29537 0
M  V30 2040 C 199.976 -1.05831 1.33169 0
M  V30 2041 O 201.161 -1.06995 1.62067 0
M  V30 2042 C 198.291 -1.55274 3.10656 0
M  V30 2043 C 197.245 -1.04855 4.14957 0
M  V30 2044 C 196.571 -2.26543 4.84337 0
M  V30 2045 C 197.871 -0.112324 5.22179 0
M  V30 2046 H 199.565 0.213867 2.98635 0
M  V30 2047 H 197.111 0.104298 1.43622 0
M  V30 2048 H 199.064 -2.1358 3.63265 0
M  V30 2049 H 197.788 -2.22266 2.39302 0
M  V30 2050 H 196.447 -0.487985 3.63338 0
M  V30 2051 H 196.095 -2.92059 4.09525 0
M  V30 2052 H 195.795 -1.93466 5.54837 0
M  V30 2053 H 197.319 -2.85481 5.39753 0
M  V30 2054 H 198.733 -0.603752 5.70112 0
M  V30 2055 H 197.13 0.128968 5.99961 0
M  V30 2056 H 198.2 0.837052 4.77621 0
M  V30 2057 N 199.544 -1.57102 0.125237 0
M  V30 2058 C 200.793 -1.94582 -0.531095 0
M  V30 2059 C 201.106 -1.01126 -1.6743 0
M  V30 2060 O 202.312 -1.28097 -2.39381 0
M  V30 2061 C 200.768 -3.45839 -0.996164 0
M  V30 2062 C 200.376 -4.47842 0.118926 0
M  V30 2063 C 202.12 -3.92227 -1.62352 0
M  V30 2064 C 200.027 -5.90284 -0.363192 0
M  V30 2065 H 198.957 -0.726391 -0.20217 0
M  V30 2066 H 201.608 -1.82339 0.206092 0
M  V30 2067 H 199.99 -3.53338 -1.78796 0
M  V30 2068 H 201.164 -4.52018 0.895358 0
M  V30 2069 H 199.479 -4.11243 0.653324 0
M  V30 2070 H 202.076 -4.96069 -1.99548 0
M  V30 2071 H 202.419 -3.32552 -2.50429 0
M  V30 2072 H 202.952 -3.87554 -0.897019 0
M  V30 2073 H 199.691 -6.53728 0.481679 0
M  V30 2074 H 199.211 -5.89515 -1.10597 0
M  V30 2075 H 200.89 -6.41752 -0.822377 0
M  V30 2076 N 201.022 0.148545 -1.56898 0
M  V30 2077 C 202.438 0.501131 -1.51528 0
M  V30 2078 C 202.638 1.83458 -0.833399 0
M  V30 2079 O 201.694 2.49259 -0.40328 0
M  V30 2080 C 203.007 0.512864 -2.96294 0
M  V30 2081 C 204.555 0.598487 -3.07225 0
M  V30 2082 C 205.03 0.640897 -4.53494 0
M  V30 2083 N 206.521 0.703163 -4.57832 0
M  V30 2084 C 207.256 0.756935 -5.68382 0
M  V30 2085 N 206.752 0.770147 -6.88506 0
M  V30 2086 N 208.545 0.797698 -5.56411 0
M  V30 2087 H 200.696 -0.725532 -1.99624 0
M  V30 2088 H 202.959 -0.264358 -0.910395 0
M  V30 2089 H 202.665 -0.398691 -3.49433 0
M  V30 2090 H 202.539 1.35133 -3.52163 0
M  V30 2091 H 204.926 1.50046 -2.54106 0
M  V30 2092 H 205.007 -0.267093 -2.54402 0
M  V30 2093 H 204.651 -0.256915 -5.0725 0
M  V30 2094 H 204.581 1.52295 -5.04097 0
M  V30 2095 H 207.072 0.700314 -3.71354 0
M  V30 2096 H 207.385 0.812983 -7.68512 0
M  V30 2097 H 205.73 0.738049 -6.9107 0
M  V30 2098 H 208.921 0.784535 -4.61479 0
M  V30 2099 H 209.094 0.83614 -6.42583 0
M  V30 2100 N 202.5 1.5196 0.417844 0
M  V30 2101 C 203.45 1.7106 1.5074 0
M  V30 2102 C 204.434 0.564487 1.50673 0
M  V30 2103 O 205.626 0.821206 1.56797 0
M  V30 2104 C 202.755 1.85677 2.88754 0
M  V30 2105 C 201.841 3.06133 2.93502 0
M  V30 2106 N 202.232 4.28987 2.67962 0
M  V30 2107 C 200.53 3.05787 3.24669 0
M  V30 2108 C 201.231 5.10395 2.79055 0
M  V30 2109 N 200.207 4.45455 3.11561 0
M  V30 2110 H 204.009 2.63696 1.29775 0
M  V30 2111 H 201.523 1.49873 0.625436 0
M  V30 2112 H 203.52 1.97475 3.67164 0
M  V30 2113 H 202.18 0.942348 3.10725 0
M  V30 2114 H 203.191 4.57607 2.4252 0
M  V30 2115 H 199.868 2.2405 3.52289 0
M  V30 2116 H 201.258 6.18247 2.63097 0
M  V30 2117 N 203.978 -0.674533 1.42435 0
M  V30 2118 C 205.208 -1.46071 1.46105 0
M  V30 2119 C 205.616 -1.89067 0.0709605 0
M  V30 2120 O 204.959 -1.58731 -0.924677 0
M  V30 2121 C 205.021 -2.74145 2.32561 0
M  V30 2122 C 204.685 -2.53224 3.8043 0
M  V30 2123 C 205.682 -2.17809 4.72075 0
M  V30 2124 C 203.367 -2.6821 4.24698 0
M  V30 2125 C 205.361 -1.97648 6.05982 0
M  V30 2126 C 203.048 -2.47665 5.58664 0
M  V30 2127 C 204.046 -2.12437 6.49122 0
M  V30 2128 O 203.734 -1.9209 7.80613 0
M  V30 2129 H 203.466 -0.455959 0.499076 0
M  V30 2130 H 206.02 -0.836193 1.87609 0
M  V30 2131 H 204.25 -3.3908 1.85908 0
M  V30 2132 H 205.939 -3.36028 2.27683 0
M  V30 2133 H 206.705 -2.05826 4.39159 0
M  V30 2134 H 202.584 -2.94609 3.54579 0
M  V30 2135 H 206.128 -1.70075 6.7655 0
M  V30 2136 H 202.025 -2.59244 5.91154 0
M  V30 2137 H 202.793 -2.06686 7.91974 0
M  V30 2138 N 205.456 -1.28612 -0.910864 0
M  V30 2139 C 206.704 -1.15705 -1.65701 0
M  V30 2140 C 207.025 0.29416 -1.92769 0
M  V30 2141 O 206.295 1.20331 -1.54588 0
M  V30 2142 H 204.875 -0.425216 -0.614167 0
M  V30 2143 H 207.537 -1.61381 -1.0928 0
M  V30 2144 H 206.633 -1.6988 -2.61815 0
M  V30 2145 N 206.934 1.1197 -1.10907 0
M  V30 2146 C 207.844 2.21433 -0.774896 0
M  V30 2147 C 208.86 1.72478 0.229657 0
M  V30 2148 O 210.036 2.01288 0.0672008 0
M  V30 2149 C 207.101 3.4602 -0.216986 0
M  V30 2150 C 206.162 4.09791 -1.27944 0
M  V30 2151 C 205.395 5.28431 -0.748055 0
M  V30 2152 O 205.618 5.68823 0.423833 0
M  V30 2153 O 204.552 5.82644 -1.51027 0
M  V30 2154 H 208.378 2.5242 -1.68873 0
M  V30 2155 H 205.963 1.20399 -0.884555 0
M  V30 2156 H 207.845 4.21304 0.090059 0
M  V30 2157 H 206.52 3.16698 0.669633 0
M  V30 2158 H 205.427 3.36265 -1.63941 0
M  V30 2159 H 206.76 4.4328 -2.13925 0
M  V30 2160 N 208.412 0.89855 1.29475 0
M  V30 2161 C 209.828 0.594483 1.48115 0
M  V30 2162 C 210.028 -0.86431 1.82022 0
M  V30 2163 O 209.084 -1.64457 1.91599 0
M  V30 2164 C 210.397 1.51932 2.59494 0
M  V30 2165 C 211.945 1.5244 2.7337 0
M  V30 2166 C 212.42 2.43548 3.87877 0
M  V30 2167 N 213.911 2.41589 3.95208 0
M  V30 2168 C 214.646 3.08789 4.83153 0
M  V30 2169 N 214.142 3.85265 5.75798 0
M  V30 2170 N 215.935 2.97952 4.76635 0
M  V30 2171 H 208.086 1.84207 1.05742 0
M  V30 2172 H 210.349 0.789251 0.525154 0
M  V30 2173 H 210.055 2.55865 2.41301 0
M  V30 2174 H 209.929 1.23899 3.56271 0
M  V30 2175 H 212.316 0.492518 2.90961 0
M  V30 2176 H 212.397 1.8451 1.77172 0
M  V30 2177 H 212.041 3.46829 3.71041 0
M  V30 2178 H 211.971 2.08788 4.83441 0
M  V30 2179 H 214.462 1.86025 3.28943 0
M  V30 2180 H 214.775 4.33598 6.39697 0
M  V30 2181 H 213.12 3.89371 5.75687 0
M  V30 2182 H 216.311 2.37723 4.03244 0
M  V30 2183 H 216.484 3.50599 5.44962 0
M  V30 2184 N 209.89 -1.43072 0.660911 0
M  V30 2185 C 211.136 -2.0202 0.177708 0
M  V30 2186 C 211.469 -1.52066 -1.20787 0
M  V30 2187 O 210.744 -0.716987 -1.80802 0
M  V30 2188 C 211.027 -3.59561 0.197019 0
M  V30 2189 C 210.88 -4.19727 1.61706 0
M  V30 2190 C 212.199 -4.37664 -0.462396 0
M  V30 2191 H 209.318 -0.734034 0.0660494 0
M  V30 2192 H 211.96 -1.70272 0.843058 0
M  V30 2193 H 210.11 -3.86739 -0.369527 0
M  V30 2194 H 211.782 -4.03553 2.23479 0
M  V30 2195 H 210.025 -3.76084 2.16201 0
M  V30 2196 H 210.696 -5.28834 1.58237 0
M  V30 2197 H 213.172 -4.16095 0.0197215 0
M  V30 2198 H 212.048 -5.47305 -0.418188 0
M  V30 2199 H 212.309 -4.14493 -1.53778 0
M  V30 2200 N 211.368 -0.403325 -1.52352 0
M  V30 2201 C 212.614 0.174605 -2.02047 0
M  V30 2202 C 212.947 1.45282 -1.28867 0
M  V30 2203 O 212.222 1.90483 -0.393257 0
M  V30 2204 C 212.505 0.428238 -3.57545 0
M  V30 2205 C 212.358 -0.866248 -4.4138 0
M  V30 2206 C 213.677 1.21287 -4.23057 0
M  V30 2207 H 210.796 0.0619851 -0.734389 0
M  V30 2208 H 213.438 -0.53565 -1.82293 0
M  V30 2209 H 211.588 1.03327 -3.74507 0
M  V30 2210 H 213.26 -1.50265 -4.3614 0
M  V30 2211 H 211.503 -1.47851 -4.07827 0
M  V30 2212 H 212.174 -0.643249 -5.48239 0
M  V30 2213 H 214.65 0.700703 -4.10158 0
M  V30 2214 H 213.526 1.35909 -5.31808 0
M  V30 2215 H 213.787 2.23193 -3.81625 0
M  V30 2216 N 212.846 1.57033 -0.133567 0
M  V30 2217 C 214.093 1.95686 0.520877 0
M  V30 2218 C 214.421 1.0177 1.6575 0
M  V30 2219 O 213.676 0.0443195 1.9565 0
M  V30 2220 C 213.975 3.40674 1.08057 0
M  V30 2221 C 213.641 4.50855 0.0637899 0
M  V30 2222 C 212.303 4.80716 -0.215757 0
M  V30 2223 C 214.655 5.17398 -0.62835 0
M  V30 2224 C 211.983 5.74433 -1.19348 0
M  V30 2225 C 214.335 6.12167 -1.5948 0
M  V30 2226 C 212.999 6.40414 -1.88218 0
M  V30 2227 H 212.269 0.716067 0.190602 0
M  V30 2228 H 214.916 1.9026 -0.217556 0
M  V30 2229 H 213.221 3.42865 1.89606 0
M  V30 2230 H 214.918 3.67902 1.59529 0
M  V30 2231 H 211.508 4.27605 0.291855 0
M  V30 2232 H 215.692 4.94472 -0.425562 0
M  V30 2233 H 210.948 5.94616 -1.42272 0
M  V30 2234 H 215.122 6.6281 -2.13671 0
M  V30 2235 H 212.749 7.12838 -2.64133 0
M  V30 2236 N 214.325 -0.140222 1.56975 0
M  V30 2237 C 215.574 -0.850152 1.82908 0
M  V30 2238 C 215.887 -1.82028 0.715892 0
M  V30 2239 O 217.093 -2.57485 0.861016 0
M  V30 2240 C 215.549 -1.5625 3.24213 0
M  V30 2241 C 215.157 -0.63443 4.43485 0
M  V30 2242 C 216.901 -2.25881 3.59413 0
M  V30 2243 C 214.808 -1.34879 5.75814 0
M  V30 2244 H 213.738 -0.321221 0.682153 0
M  V30 2245 H 216.389 -0.102874 1.83211 0
M  V30 2246 H 214.771 -2.35565 3.18316 0
M  V30 2247 H 215.945 0.12398 4.60633 0
M  V30 2248 H 214.26 -0.0461836 4.16374 0
M  V30 2249 H 216.857 -2.79978 4.5554 0
M  V30 2250 H 217.2 -3.02693 2.85802 0
M  V30 2251 H 217.733 -1.53477 3.67001 0
M  V30 2252 H 214.472 -0.622385 6.52539 0
M  V30 2253 H 213.992 -2.07974 5.6259 0
M  V30 2254 H 215.671 -1.88784 6.18845 0
M  V30 2255 N 215.803 -1.52179 -0.40978 0
M  V30 2256 C 217.051 -1.65878 -1.15451 0
M  V30 2257 C 217.372 -0.390771 -1.91044 0
M  V30 2258 O 216.642 0.594323 -1.86667 0
M  V30 2259 H 215.222 -0.611405 -0.429177 0
M  V30 2260 H 217.884 -1.89219 -0.467134 0
M  V30 2261 H 216.98 -2.49954 -1.86894 0
M  V30 2262 N 217.281 0.66697 -1.42791 0
M  V30 2263 C 218.506 1.46004 -1.47301 0
M  V30 2264 C 218.931 1.87894 -0.0880317 0
M  V30 2265 O 218.289 1.56502 0.915253 0
M  V30 2266 C 218.337 2.68031 -2.41229 0
M  V30 2267 O 217.441 3.6659 -1.88906 0
M  V30 2268 H 216.782 0.43832 -0.49877 0
M  V30 2269 H 219.312 0.817391 -1.87563 0
M  V30 2270 H 219.322 3.1601 -2.58073 0
M  V30 2271 H 217.997 2.36883 -3.41847 0
M  V30 2272 H 216.574 3.25661 -1.81656 0
M  V30 2273 N 218.759 1.29093 0.90403 0
M  V30 2274 C 220.036 1.075 1.63411 0
M  V30 2275 C 220.416 -0.382346 2.07609 0
M  V30 2276 O 219.764 -1.37031 1.82851 0
M  V30 2277 C 219.974 2.05858 2.81822 0
M  V30 2278 C 221.322 2.36539 3.52611 0
M  V30 2279 O 222.346 2.04019 2.91984 0
M  V30 2280 O 221.205 2.92085 4.61897 0
M  V30 2281 H 218.299 0.411547 0.717327 0
M  V30 2282 H 220.845 1.40449 0.952479 0
M  V30 2283 H 219.617 3.04037 2.46327 0
M  V30 2284 H 219.24 1.73613 3.57693 0
M  V30 2285 N 220.237 -1.11381 1.11499 0
M  V30 2286 C 221.467 -1.86663 0.885464 0
M  V30 2287 C 221.875 -1.80464 -0.568281 0
M  V30 2288 O 221.218 -1.18445 -1.40415 0
M  V30 2289 C 221.28 -3.36337 1.26956 0
M  V30 2290 C 220.944 -3.66304 2.73259 0
M  V30 2291 C 221.941 -3.63733 3.71476 0
M  V30 2292 C 219.626 -3.9529 3.09921 0
M  V30 2293 C 221.62 -3.89725 5.04374 0
M  V30 2294 C 219.307 -4.20941 4.43004 0
M  V30 2295 C 220.305 -4.18147 5.40039 0
M  V30 2296 O 219.993 -4.43153 6.70724 0
M  V30 2297 H 219.725 -0.597114 0.316908 0
M  V30 2298 H 222.279 -1.41782 1.48617 0
M  V30 2299 H 220.509 -3.81826 0.611999 0
M  V30 2300 H 222.198 -3.92986 1.01573 0
M  V30 2301 H 222.964 -3.41389 3.44498 0
M  V30 2302 H 218.843 -3.966 2.35009 0
M  V30 2303 H 222.387 -3.8746 5.80104 0
M  V30 2304 H 218.284 -4.42761 4.69716 0
M  V30 2305 H 219.052 -4.60717 6.76522 0
M  V30 2306 N 221.715 -0.905404 -1.28997 0
M  V30 2307 C 222.964 -0.530191 -1.94607 0
M  V30 2308 C 223.277 0.929185 -1.72121 0
M  V30 2309 O 224.483 1.41218 -2.31883 0
M  V30 2310 C 222.939 -0.897333 -3.48534 0
M  V30 2311 C 222.547 -2.37587 -3.79811 0
M  V30 2312 C 224.291 -0.592304 -4.20347 0
M  V30 2313 C 222.198 -2.68357 -5.27009 0
M  V30 2314 H 221.128 -0.194558 -0.728466 0
M  V30 2315 H 223.779 -1.10318 -1.46636 0
M  V30 2316 H 222.161 -0.253214 -3.9519 0
M  V30 2317 H 223.335 -3.06602 -3.43994 0
M  V30 2318 H 221.65 -2.6505 -3.2115 0
M  V30 2319 H 224.247 -0.798975 -5.28697 0
M  V30 2320 H 224.59 0.469474 -4.13644 0
M  V30 2321 H 225.123 -1.19452 -3.79442 0
M  V30 2322 H 221.862 -3.73355 -5.38782 0
M  V30 2323 H 221.382 -2.03971 -5.64053 0
M  V30 2324 H 223.061 -2.54922 -5.94663 0
M  V30 2325 N 223.193 1.4272 -0.668489 0
M  V30 2326 C 224.423 2.05668 -0.196063 0
M  V30 2327 C 224.831 1.5028 1.14946 0
M  V30 2328 O 224.174 0.6348 1.72383 0
M  V30 2329 C 224.236 3.59469 -0.0468879 0
M  V30 2330 C 223.9 4.37518 -1.32012 0
M  V30 2331 C 224.897 4.68584 -2.25222 0
M  V30 2332 C 222.582 4.77266 -1.56596 0
M  V30 2333 C 224.576 5.38326 -3.41297 0
M  V30 2334 C 222.263 5.4675 -2.72962 0
M  V30 2335 C 223.261 5.77204 -3.65137 0
M  V30 2336 O 222.949 6.45264 -4.79468 0
M  V30 2337 H 222.681 0.669382 -0.0943599 0
M  V30 2338 H 225.235 1.83954 -0.913788 0
M  V30 2339 H 223.465 3.79817 0.726357 0
M  V30 2340 H 225.154 4.04071 0.384852 0
M  V30 2341 H 225.92 4.38382 -2.07477 0
M  V30 2342 H 221.799 4.52959 -0.857249 0
M  V30 2343 H 225.343 5.62014 -4.13263 0
M  V30 2344 H 221.24 5.76369 -2.90635 0
M  V30 2345 H 222.008 6.63753 -4.78931 0
M  V30 2346 N 224.671 0.411399 1.52136 0
M  V30 2347 C 226.082 -0.0576826 1.86611 0
M  V30 2348 C 226.433 -1.44238 1.33003 0
M  V30 2349 O 225.558 -2.05759 0.670228 0
M  V30 2350 C 226.153 -0.111448 3.38617 0
M  V30 2351 C 224.712 -0.52487 3.72723 0
M  V30 2352 C 223.859 0.299176 2.75681 0
M  V30 2353 H 226.81 0.628368 1.4573 0
M  V30 2354 H 226.831 -0.926252 3.69054 0
M  V30 2355 H 226.343 0.896488 3.77604 0
M  V30 2356 H 224.444 -1.53936 3.39315 0
M  V30 2357 H 224.557 -0.267681 4.78352 0
M  V30 2358 H 222.921 -0.238814 2.53578 0
M  V30 2359 H 223.704 1.3055 3.17508 0
M  V30 2360 N 226.149 -1.5696 0.141893 0
M  V30 2361 C 227.565 -1.58151 -0.21456 0
M  V30 2362 C 227.765 -1.1559 -1.65049 0
M  V30 2363 O 226.821 -0.853832 -2.37626 0
M  V30 2364 C 228.134 -3.00674 0.0395576 0
M  V30 2365 C 229.682 -3.1299 -0.0245529 0
M  V30 2366 C 230.157 -4.57554 0.202167 0
M  V30 2367 N 231.648 -4.62961 0.148919 0
M  V30 2368 C 232.383 -5.7262 0.298924 0
M  V30 2369 N 231.879 -6.90947 0.50637 0
M  V30 2370 N 233.672 -5.61601 0.236886 0
M  V30 2371 H 225.823 -1.8292 1.07953 0
M  V30 2372 H 228.086 -0.846425 0.42693 0
M  V30 2373 H 227.792 -3.36183 1.03315 0
M  V30 2374 H 227.666 -3.70981 -0.682143 0
M  V30 2375 H 230.053 -2.77326 -1.00869 0
M  V30 2376 H 230.134 -2.4518 0.729396 0
M  V30 2377 H 229.778 -4.93922 1.18338 0
M  V30 2378 H 229.708 -5.23484 -0.572044 0
M  V30 2379 H 232.199 -3.77899 -0.00697015 0
M  V30 2380 H 232.512 -7.7038 0.611076 0
M  V30 2381 H 230.857 -6.92878 0.542628 0
M  V30 2382 H 234.048 -4.68039 0.0756209 0
M  V30 2383 H 234.221 -6.47015 0.357227 0
M  V30 2384 N 227.627 0.131896 -1.57047 0
M  V30 2385 C 228.537 1.1815 -2.02676 0
M  V30 2386 C 229.553 1.46113 -0.944824 0
M  V30 2387 O 230.729 1.57485 -1.25541 0
M  V30 2388 C 227.794 2.49139 -2.41103 0
M  V30 2389 C 226.855 2.28688 -3.63318 0
M  V30 2390 C 226.088 3.53431 -3.99903 0
M  V30 2391 O 226.311 4.60223 -3.36973 0
M  V30 2392 O 225.245 3.45198 -4.93074 0
M  V30 2393 H 229.071 0.824069 -2.92306 0
M  V30 2394 H 226.656 0.341745 -1.45439 0
M  V30 2395 H 228.538 3.26338 -2.66611 0
M  V30 2396 H 227.213 2.84382 -1.54624 0
M  V30 2397 H 226.12 1.4939 -3.42977 0
M  V30 2398 H 227.453 1.98355 -4.50462 0
M  V30 2399 N 229.106 1.52395 0.401703 0
M  V30 2400 C 230.331 1.70972 1.17403 0
M  V30 2401 C 230.756 0.421615 1.83314 0
M  V30 2402 O 230.114 -0.621564 1.70312 0
M  V30 2403 C 230.162 2.85151 2.20728 0
M  V30 2404 O 229.266 2.51238 3.27037 0
M  V30 2405 H 228.607 0.568927 0.342372 0
M  V30 2406 H 231.137 1.99131 0.469891 0
M  V30 2407 H 231.147 3.10279 2.64936 0
M  V30 2408 H 229.822 3.78603 1.7214 0
M  V30 2409 H 228.399 2.36808 2.88057 0
M  V30 2410 N 230.584 -0.659388 1.43143 0
M  V30 2411 C 231.532 -1.79374 1.4808 0
M  V30 2412 C 232.526 -1.65639 0.354988 0
M  V30 2413 O 233.732 -1.7206 0.528704 0
M  V30 2414 H 230.107 -0.591705 0.4641 0
M  V30 2415 H 232.078 -1.72329 2.43609 0
M  V30 2416 C 230.827 -3.17606 1.41499 0
M  V30 2417 H 230.15 -3.28809 2.27431 0
M  V30 2418 H 231.59 -3.96951 1.49015 0
M  V30 2419 C 230.049 -3.36642 0.131765 0
M  V30 2420 O 230.579 -3.93461 -0.809386 0
M  V30 2421 N 228.785 -2.90567 0.0439396 0
M  V30 2422 H 228.332 -2.44513 0.810619 0
M  V30 2423 H 228.29 -3.03681 -0.813969 0
M  V30 2424 N 232.062 -1.29571 -0.897171 0
M  V30 2425 C 233.012 -1.11539 -1.98855 0
M  V30 2426 C 233.996 -0.0340716 -1.60864 0
M  V30 2427 O 235.188 -0.256062 -1.75138 0
M  V30 2428 C 232.317 -0.796603 -3.3393 0
M  V30 2429 C 231.403 -1.91758 -3.78272 0
M  V30 2430 N 231.794 -3.16143 -3.94826 0
M  V30 2431 C 230.092 -1.81119 -4.07568 0
M  V30 2432 C 230.793 -3.89293 -4.32233 0
M  V30 2433 N 229.769 -3.17255 -4.41419 0
M  V30 2434 H 233.571 -2.05894 -2.09726 0
M  V30 2435 H 231.085 -1.20732 -1.08616 0
M  V30 2436 H 233.082 -0.648459 -4.11826 0
M  V30 2437 H 231.742 0.139003 -3.24402 0
M  V30 2438 H 232.753 -3.5157 -3.80288 0
M  V30 2439 H 229.43 -0.948461 -4.06584 0
M  V30 2440 H 230.82 -4.9635 -4.52865 0
M  V30 2441 N 233.54 1.10788 -1.12088 0
M  V30 2442 C 234.786 1.82942 -0.875226 0
M  V30 2443 C 235.119 1.84779 0.597538 0
M  V30 2444 O 234.394 1.30578 1.44152 0
M  V30 2445 C 234.677 3.29789 -1.44606 0
M  V30 2446 C 234.53 3.36307 -2.98693 0
M  V30 2447 C 235.849 4.26064 -1.10261 0
M  V30 2448 H 232.968 0.664195 -0.319397 0
M  V30 2449 H 235.61 1.29867 -1.38689 0
M  V30 2450 H 233.76 3.75118 -1.01089 0
M  V30 2451 H 235.432 2.99487 -3.50864 0
M  V30 2452 H 233.675 2.76318 -3.34411 0
M  V30 2453 H 234.346 4.39694 -3.33726 0
M  V30 2454 H 236.822 3.88951 -1.4784 0
M  V30 2455 H 235.698 5.27183 -1.52869 0
M  V30 2456 H 235.959 4.42098 -0.0142953 0
M  V30 2457 N 235.018 0.912232 1.28515 0
M  V30 2458 C 235.951 0.343928 2.25593 0
M  V30 2459 C 236.929 -0.550994 1.5298 0
M  V30 2460 O 238.113 -0.494991 1.81885 0
M  V30 2461 C 235.24 -0.508525 3.34861 0
M  V30 2462 C 234.286 0.320808 4.25292 0
M  V30 2463 S 235.119 1.72658 5.06902 0
M  V30 2464 C 236.275 0.881394 6.19663 0
M  V30 2465 H 236.508 1.16674 2.73449 0
M  V30 2466 H 234.041 0.713384 1.36931 0
M  V30 2467 H 235.999 -0.994539 3.9827 0
M  V30 2468 H 234.66 -1.30571 2.85675 0
M  V30 2469 H 233.853 -0.330941 5.02912 0
M  V30 2470 H 233.455 0.74042 3.66598 0
M  V30 2471 H 235.747 0.110359 6.7741 0
M  V30 2472 H 236.69 1.63009 6.89082 0
M  V30 2473 H 237.098 0.430239 5.62858 0
M  V30 2474 N 236.496 -1.42363 0.676048 0
M  V30 2475 C 237.912 -1.55811 0.345718 0
M  V30 2476 C 238.112 -1.65544 -1.14879 0
M  V30 2477 O 237.168 -1.62306 -1.93424 0
M  V30 2478 C 238.481 -2.80746 1.07713 0
M  V30 2479 C 240.029 -2.9452 1.05958 0
M  V30 2480 C 240.504 -4.22318 1.77233 0
M  V30 2481 N 241.995 -4.29233 1.74108 0
M  V30 2482 C 242.73 -5.26935 2.26113 0
M  V30 2483 N 242.226 -6.30783 2.86505 0
M  V30 2484 N 244.019 -5.18741 2.1648 0
M  V30 2485 H 236.17 -1.34289 1.6456 0
M  V30 2486 H 238.433 -0.646506 0.69335 0
M  V30 2487 H 238.139 -2.79696 2.13221 0
M  V30 2488 H 238.013 -3.71676 0.64316 0
M  V30 2489 H 240.4 -2.95097 0.0128255 0
M  V30 2490 H 240.481 -2.04817 1.53244 0
M  V30 2491 H 240.125 -4.22502 2.81877 0
M  V30 2492 H 240.055 -5.10958 1.27396 0
M  V30 2493 H 242.546 -3.54814 1.30059 0
M  V30 2494 H 242.859 -7.01691 3.23805 0
M  V30 2495 H 241.204 -6.31341 2.90575 0
M  V30 2496 H 244.395 -4.36533 1.68987 0
M  V30 2497 H 244.568 -5.94721 2.57316 0
M  V30 2498 N 237.974 -0.419461 -1.51915 0
M  V30 2499 C 238.924 0.418496 -2.24126 0
M  V30 2500 C 239.908 1.00495 -1.25656 0
M  V30 2501 O 241.1 0.926058 -1.50842 0
M  V30 2502 C 238.229 1.52899 -3.07371 0
M  V30 2503 C 237.315 0.952797 -4.13258 0
M  V30 2504 N 237.706 0.104175 -5.05693 0
M  V30 2505 C 236.004 1.22224 -4.28926 0
M  V30 2506 C 236.705 -0.21752 -5.81293 0
M  V30 2507 N 235.681 0.394293 -5.42168 0
M  V30 2508 H 239.483 -0.236048 -2.92951 0
M  V30 2509 H 236.997 -0.230481 -1.60756 0
M  V30 2510 H 238.994 2.14199 -3.57665 0
M  V30 2511 H 237.654 2.18605 -2.40088 0
M  V30 2512 H 238.665 -0.260924 -5.17242 0
M  V30 2513 H 235.342 1.87812 -3.72871 0
M  V30 2514 H 236.732 -0.906992 -6.6575 0
M  V30 2515 N 239.452 1.56882 -0.150215 0
M  V30 2516 C 240.382 2.19935 0.784284 0
M  V30 2517 C 241.363 1.14854 1.25469 0
M  V30 2518 O 242.548 1.43209 1.31168 0
M  V30 2519 C 239.678 2.82349 2.02229 0
M  V30 2520 C 238.632 3.93285 1.68853 0
M  V30 2521 C 237.958 4.42649 2.99944 0
M  V30 2522 C 239.258 5.13904 0.932714 0
M  V30 2523 H 240.952 2.9828 0.258781 0
M  V30 2524 H 238.498 1.43473 0.123029 0
M  V30 2525 H 240.451 3.25126 2.68088 0
M  V30 2526 H 239.175 2.0134 2.57157 0
M  V30 2527 H 237.834 3.5113 1.05371 0
M  V30 2528 H 237.482 3.58458 3.52869 0
M  V30 2529 H 237.182 5.17476 2.78374 0
M  V30 2530 H 238.706 4.88099 3.66868 0
M  V30 2531 H 240.12 5.53506 1.49345 0
M  V30 2532 H 238.517 5.94515 0.81684 0
M  V30 2533 H 239.587 4.84842 -0.0749568 0
M  V30 2534 N 240.93 -0.123565 1.57115 0
M  V30 2535 C 242.16 -0.845233 1.88519 0
M  V30 2536 C 242.568 -1.74168 0.739064 0
M  V30 2537 O 241.911 -1.81244 -0.299355 0
M  V30 2538 C 241.973 -1.73452 3.14888 0
M  V30 2539 C 241.637 -1.01285 4.45635 0
M  V30 2540 C 242.634 -0.355774 5.18681 0
M  V30 2541 C 240.319 -0.99538 4.92339 0
M  V30 2542 C 242.313 0.309114 6.3665 0
M  V30 2543 C 240 -0.32669 6.10226 0
M  V30 2544 C 240.998 0.324406 6.82229 0
M  V30 2545 O 240.686 0.982437 7.97874 0
M  V30 2546 H 240.418 -0.248534 0.628655 0
M  V30 2547 H 242.972 -0.113907 2.05084 0
M  V30 2548 H 241.202 -2.50737 2.94394 0
M  V30 2549 H 242.891 -2.33021 3.32349 0
M  V30 2550 H 243.657 -0.360918 4.83655 0
M  V30 2551 H 239.536 -1.49159 4.36202 0
M  V30 2552 H 243.08 0.8179 6.92789 0
M  V30 2553 H 238.977 -0.319294 6.4471 0
M  V30 2554 H 239.745 0.886454 8.13686 0
M  V30 2555 N 242.408 -1.52605 -0.393616 0
M  V30 2556 C 243.824 -1.41753 -0.733357 0
M  V30 2557 C 244.024 -0.534293 -1.94287 0
M  V30 2558 O 243.08 -0.0059787 -2.52499 0
M  V30 2559 C 244.393 -2.84531 -0.972772 0
M  V30 2560 C 245.941 -2.93978 -1.07453 0
M  V30 2561 C 246.416 -4.37756 -1.3466 0
M  V30 2562 N 247.907 -4.4106 -1.41492 0
M  V30 2563 C 248.642 -5.49387 -1.642 0
M  V30 2564 N 248.138 -6.67806 -1.8441 0
M  V30 2565 N 249.931 -5.36923 -1.66342 0
M  V30 2566 H 242.082 -2.08555 0.402328 0
M  V30 2567 H 244.345 -0.940654 0.117789 0
M  V30 2568 H 244.051 -3.51353 -0.156204 0
M  V30 2569 H 243.925 -3.26508 -1.88871 0
M  V30 2570 H 246.312 -2.27326 -1.88167 0
M  V30 2571 H 246.393 -2.55435 -0.136605 0
M  V30 2572 H 246.037 -5.04972 -0.544581 0
M  V30 2573 H 245.967 -4.73848 -2.2973 0
M  V30 2574 H 248.458 -3.55705 -1.27601 0
M  V30 2575 H 248.771 -7.46141 -2.01231 0
M  V30 2576 H 247.116 -6.70843 -1.81644 0
M  V30 2577 H 250.307 -4.43381 -1.50102 0
M  V30 2578 H 250.48 -6.21416 -1.837 0
M  V30 2579 N 243.887 0.651787 -1.4349 0
M  V30 2580 C 244.819 1.77725 -1.44729 0
M  V30 2581 C 245.832 1.59141 -0.343231 0
M  V30 2582 O 247.021 1.67835 -0.607751 0
M  V30 2583 C 244.121 3.15172 -1.24579 0
M  V30 2584 C 243.294 3.60402 -2.47849 0
M  V30 2585 C 242.353 4.76656 -2.22902 0
M  V30 2586 O 241.379 4.86022 -2.96263 0
M  V30 2587 N 242.581 5.66958 -1.24656 0
M  V30 2588 H 245.346 1.77141 -2.41746 0
M  V30 2589 H 242.907 0.835678 -1.38665 0
M  V30 2590 H 244.899 3.90634 -1.0577 0
M  V30 2591 H 243.469 3.1052 -0.360015 0
M  V30 2592 H 242.689 2.75369 -2.82073 0
M  V30 2593 H 243.977 3.87368 -3.29884 0
M  V30 2594 H 243.375 5.62065 -0.640265 0
M  V30 2595 H 241.932 6.42135 -1.1183 0
M  V30 2596 N 245.365 1.30045 0.890287 0
M  V30 2597 C 246.315 1.12592 1.9826 0
M  V30 2598 C 247.299 0.0426021 1.60844 0
M  V30 2599 O 248.491 0.265346 1.75 0
M  V30 2600 C 245.62 0.814301 3.33503 0
M  V30 2601 C 244.706 1.93761 3.7725 0
M  V30 2602 N 245.097 3.18232 3.93143 0
M  V30 2603 C 243.395 1.83277 4.06602 0
M  V30 2604 C 244.096 3.9158 4.30163 0
M  V30 2605 N 243.072 3.19591 4.3973 0
M  V30 2606 H 246.874 2.07003 2.08631 0
M  V30 2607 H 244.388 1.21307 1.07974 0
M  V30 2608 H 246.385 0.67029 4.11476 0
M  V30 2609 H 245.045 -0.121797 3.24471 0
M  V30 2610 H 246.056 3.53581 3.78419 0
M  V30 2611 H 242.733 0.97001 4.06075 0
M  V30 2612 H 244.123 4.98744 4.50226 0
M  V30 2613 N 246.843 -1.10192 1.12674 0
M  V30 2614 C 248.091 -1.81845 0.881861 0
M  V30 2615 C 248.412 -1.85737 -0.593867 0
M  V30 2616 O 247.682 -1.33724 -1.4316 0
M  V30 2617 H 246.262 -0.673432 0.323261 0
M  V30 2618 H 248.924 -1.33316 1.42172 0
M  V30 2619 H 248.02 -2.85288 1.2656 0
M  V30 2620 N 248.321 -0.919034 -1.28029 0
M  V30 2621 C 249.569 -0.553838 -1.94363 0
M  V30 2622 C 249.89 0.906357 -1.72656 0
M  V30 2623 O 249.16 1.64143 -1.0693 0
M  V30 2624 H 247.74 -0.201834 -0.719216 0
M  V30 2625 H 250.402 -1.16954 -1.55909 0
M  V30 2626 H 249.498 -0.752758 -3.02886 0
M  V30 2627 N 249.799 1.42003 -0.683588 0
M  V30 2628 C 251.027 2.05746 -0.218182 0
M  V30 2629 C 251.442 1.51396 1.12804 0
M  V30 2630 O 250.799 0.657303 1.70252 0
M  V30 2631 C 250.85 3.61171 -0.154131 0
M  V30 2632 O 250.571 4.13508 -1.44716 0
M  V30 2633 C 252.072 4.42042 0.333713 0
M  V30 2634 H 249.292 0.662888 -0.10402 0
M  V30 2635 H 251.836 1.81987 -0.9328 0
M  V30 2636 H 249.991 3.84012 0.511231 0
M  V30 2637 H 250.405 5.07453 -1.32632 0
M  V30 2638 H 251.879 5.51028 0.327423 0
M  V30 2639 H 252.356 4.17269 1.37053 0
M  V30 2640 H 252.962 4.24239 -0.300222 0
M  V30 2641 N 251.277 0.427512 1.51691 0
M  V30 2642 C 252.523 -0.142439 2.02299 0
M  V30 2643 C 252.856 -1.43214 1.31162 0
M  V30 2644 O 252.131 -1.89833 0.423511 0
M  V30 2645 C 252.414 -0.371301 3.58181 0
M  V30 2646 C 252.267 0.936358 4.39946 0
M  V30 2647 C 253.586 -1.14542 4.24933 0
M  V30 2648 H 250.705 -0.0502937 0.735282 0
M  V30 2649 H 253.347 0.564584 1.81418 0
M  V30 2650 H 251.497 -0.973559 3.76104 0
M  V30 2651 H 253.169 1.57184 4.33694 0
M  V30 2652 H 251.412 1.5432 4.05423 0
M  V30 2653 H 252.083 0.730388 5.47147 0
M  V30 2654 H 254.559 -0.635362 4.11221 0
M  V30 2655 H 253.435 -1.27431 5.33903 0
M  V30 2656 H 253.696 -2.17093 3.85127 0
M  V30 2657 N 252.755 -1.56801 0.158532 0
M  V30 2658 C 253.685 -2.20347 -0.772609 0
M  V30 2659 C 254.666 -1.15518 -1.24859 0
M  V30 2660 O 255.851 -1.43902 -1.30406 0
M  V30 2661 C 252.981 -2.83417 -2.00729 0
M  V30 2662 C 251.935 -3.94174 -1.66765 0
M  V30 2663 C 251.261 -4.44233 -2.97592 0
M  V30 2664 C 252.561 -5.14392 -0.905447 0
M  V30 2665 H 254.255 -2.98413 -0.242959 0
M  V30 2666 H 251.801 -1.43537 -0.115419 0
M  V30 2667 H 253.754 -3.26543 -2.6636 0
M  V30 2668 H 252.478 -2.02701 -2.56086 0
M  V30 2669 H 251.137 -3.51684 -1.03508 0
M  V30 2670 H 250.785 -3.60325 -3.50963 0
M  V30 2671 H 250.485 -5.18945 -2.75626 0
M  V30 2672 H 252.009 -4.90037 -3.64274 0
M  V30 2673 H 253.423 -5.5429 -1.46408 0
M  V30 2674 H 251.82 -5.9494 -0.7853 0
M  V30 2675 H 252.89 -4.84795 0.100668 0
M  V30 2676 N 254.233 0.115231 -1.57178 0
M  V30 2677 C 255.143 1.15994 -2.03918 0
M  V30 2678 C 256.159 1.45103 -0.960268 0
M  V30 2679 O 257.335 1.56144 -1.27204 0
M  V30 2680 C 254.4 2.46568 -2.43732 0
M  V30 2681 C 253.461 2.24822 -3.65723 0
M  V30 2682 C 252.694 3.4917 -4.03629 0
M  V30 2683 O 252.917 4.56623 -3.41835 0
M  V30 2684 O 251.851 3.39949 -4.96708 0
M  V30 2685 H 255.677 0.793019 -2.93164 0
M  V30 2686 H 253.262 0.3263 -1.45793 0
M  V30 2687 H 255.144 3.23492 -2.70057 0
M  V30 2688 H 253.819 2.82726 -1.57631 0
M  V30 2689 H 252.726 1.45744 -3.44542 0
M  V30 2690 H 254.059 1.93566 -4.52541 0
M  V30 2691 N 255.711 1.52812 0.385517 0
M  V30 2692 C 256.621 1.80766 1.49535 0
M  V30 2693 C 257.637 0.694651 1.59532 0
M  V30 2694 O 258.813 0.982611 1.75803 0
M  V30 2695 C 255.878 1.97381 2.85029 0
M  V30 2696 C 254.939 3.21295 2.84724 0
M  V30 2697 C 254.172 3.37108 4.13756 0
M  V30 2698 O 254.395 2.5765 5.08893 0
M  V30 2699 O 253.329 4.30378 4.20783 0
M  V30 2700 H 257.155 2.75015 1.28842 0
M  V30 2701 H 254.74 1.37946 0.573697 0
M  V30 2702 H 256.622 2.09996 3.65349 0
M  V30 2703 H 255.297 1.06322 3.05741 0
M  V30 2704 H 254.204 3.1412 2.03174 0
M  V30 2705 H 255.537 4.12212 2.68965 0
M  V30 2706 N 257.189 -0.644168 1.43834 0
M  V30 2707 C 258.438 -1.39985 1.45214 0
M  V30 2708 C 258.751 -1.95421 0.0835494 0
M  V30 2709 O 259.957 -2.71488 -0.0251748 0
M  V30 2710 C 258.413 -2.53384 2.55587 0
M  V30 2711 C 258.021 -2.04517 3.98594 0
M  V30 2712 C 259.765 -3.30685 2.66172 0
M  V30 2713 C 257.672 -3.1518 5.00416 0
M  V30 2714 H 256.602 -0.526005 0.540218 0
M  V30 2715 H 259.253 -0.694367 1.69855 0
M  V30 2716 H 257.635 -3.26446 2.24163 0
M  V30 2717 H 258.809 -1.38405 4.39523 0
M  V30 2718 H 257.124 -1.40068 3.92135 0
M  V30 2719 H 259.721 -4.13158 3.39418 0
M  V30 2720 H 260.064 -3.79312 1.71546 0
M  V30 2721 H 260.597 -2.64708 2.96942 0
M  V30 2722 H 257.336 -2.71511 5.96625 0
M  V30 2723 H 256.856 -3.79974 4.64091 0
M  V30 2724 H 258.535 -3.80166 5.23529 0
M  V30 2725 N 258.668 -1.30515 -0.883378 0
M  V30 2726 C 259.898 -1.22182 -1.66599 0
M  V30 2727 C 260.306 0.217507 -1.87946 0
M  V30 2728 O 259.649 1.1554 -1.42815 0
M  V30 2729 C 259.711 -1.88146 -3.06335 0
M  V30 2730 C 259.375 -3.37476 -3.08154 0
M  V30 2731 C 260.372 -4.33443 -2.87094 0
M  V30 2732 C 258.057 -3.7895 -3.29701 0
M  V30 2733 C 260.051 -5.68858 -2.8754 0
M  V30 2734 C 257.738 -5.14482 -3.29776 0
M  V30 2735 C 258.736 -6.09246 -3.0872 0
M  V30 2736 O 258.424 -7.42302 -3.08615 0
M  V30 2737 H 258.156 -0.423898 -0.52658 0
M  V30 2738 H 260.71 -1.72703 -1.11188 0
M  V30 2739 H 258.94 -1.32157 -3.63416 0
M  V30 2740 H 260.629 -1.7391 -3.66756 0
M  V30 2741 H 261.395 -4.02733 -2.70243 0
M  V30 2742 H 257.274 -3.05631 -3.45124 0
M  V30 2743 H 260.818 -6.428 -2.71024 0
M  V30 2744 H 256.715 -5.44832 -3.46163 0
M  V30 2745 H 257.483 -7.5131 -3.24769 0
M  V30 2746 N 260.146 1.09593 -1.13257 0
M  V30 2747 C 261.395 1.81105 -0.887917 0
M  V30 2748 C 261.708 1.86563 0.587672 0
M  V30 2749 O 262.914 2.54367 0.949204 0
M  V30 2750 C 261.37 3.25338 -1.53895 0
M  V30 2751 C 260.978 3.28151 -3.04994 0
M  V30 2752 C 262.722 4.01617 -1.37492 0
M  V30 2753 C 260.629 4.66897 -3.6299 0
M  V30 2754 H 259.559 0.678661 -0.328534 0
M  V30 2755 H 262.21 1.23183 -1.36008 0
M  V30 2756 H 260.592 3.8331 -0.994446 0
M  V30 2757 H 261.766 2.79953 -3.66009 0
M  V30 2758 H 260.081 2.65361 -3.20893 0
M  V30 2759 H 262.678 5.04119 -1.78235 0
M  V30 2760 H 263.021 4.15072 -0.31957 0
M  V30 2761 H 263.554 3.50082 -1.88912 0
M  V30 2762 H 260.293 4.58643 -4.68323 0
M  V30 2763 H 259.813 5.15426 -3.06752 0
M  V30 2764 H 261.492 5.3587 -3.62563 0
M  V30 2765 N 261.624 0.925811 1.2754 0
M  V30 2766 C 263.035 0.610102 1.7645 0
M  V30 2767 C 263.386 -0.874723 1.75622 0
M  V30 2768 O 262.511 -1.68444 1.35851 0
M  V30 2769 C 263.106 1.10073 3.20421 0
M  V30 2770 C 261.665 0.835723 3.67005 0
M  V30 2771 C 260.812 1.26054 2.46993 0
M  V30 2772 H 263.763 1.10579 1.13833 0
M  V30 2773 H 263.784 0.447557 3.77859 0
M  V30 2774 H 263.296 2.18143 3.20991 0
M  V30 2775 H 261.397 -0.231249 3.71882 0
M  V30 2776 H 261.51 1.45193 4.56569 0
M  V30 2777 H 259.874 0.679111 2.45479 0
M  V30 2778 H 260.657 2.34984 2.50275 0
M  V30 2779 N 263.102 -1.41638 0.69111 0
M  V30 2780 C 264.032 -2.3347 0.037248 0
M  V30 2781 C 265.013 -1.51575 -0.771947 0
M  V30 2782 O 266.198 -1.80126 -0.72582 0
M  V30 2783 C 263.328 -3.35354 -0.903064 0
M  V30 2784 C 262.282 -4.27526 -0.201288 0
M  V30 2785 C 261.608 -5.19747 -1.25565 0
M  V30 2786 C 262.908 -5.13959 0.929689 0
M  V30 2787 H 264.602 -2.88397 0.804227 0
M  V30 2788 H 262.148 -1.38669 0.388189 0
M  V30 2789 H 264.101 -3.98519 -1.36969 0
M  V30 2790 H 262.825 -2.78767 -1.70166 0
M  V30 2791 H 261.484 -3.65779 0.245265 0
M  V30 2792 H 261.132 -4.59479 -2.04666 0
M  V30 2793 H 260.832 -5.8225 -0.791128 0
M  V30 2794 H 262.356 -5.85789 -1.72288 0
M  V30 2795 H 263.77 -5.70718 0.543546 0
M  V30 2796 H 262.167 -5.85379 1.32103 0
M  V30 2797 H 263.237 -4.51389 1.77133 0
M  V30 2798 N 264.58 -0.43555 -1.51462 0
M  V30 2799 C 265.81 0.130053 -2.0619 0
M  V30 2800 C 266.218 1.37164 -1.30317 0
M  V30 2801 O 265.561 1.80225 -0.355598 0
M  V30 2802 C 265.623 0.519418 -3.55728 0
M  V30 2803 C 265.287 -0.615119 -4.52841 0
M  V30 2804 C 266.284 -1.48671 -4.9819 0
M  V30 2805 C 263.969 -0.795341 -4.95963 0
M  V30 2806 C 265.963 -2.52324 -5.8533 0
M  V30 2807 C 263.65 -1.83514 -5.82894 0
M  V30 2808 C 264.648 -2.69748 -6.27475 0
M  V30 2809 O 264.336 -3.71944 -7.1268 0
M  V30 2810 H 264.068 0.0121612 -0.675891 0
M  V30 2811 H 266.622 -0.6129 -1.96043 0
M  V30 2812 H 264.852 1.31505 -3.63653 0
M  V30 2813 H 266.541 1.01597 -3.92979 0
M  V30 2814 H 267.307 -1.359 -4.65571 0
M  V30 2815 H 263.186 -0.133713 -4.60806 0
M  V30 2816 H 266.73 -3.19665 -6.20048 0
M  V30 2817 H 262.627 -1.96306 -6.14926 0
M  V30 2818 H 263.395 -3.68503 -7.30854 0
M  V30 2819 N 266.058 1.56714 -0.166846 0
M  V30 2820 C 267.469 1.83378 0.350646 0
M  V30 2821 C 267.82 1.08646 1.63372 0
M  V30 2822 O 266.945 0.338058 2.13743 0
M  V30 2823 C 267.54 3.32643 0.642963 0
M  V30 2824 C 266.099 3.59818 1.10491 0
M  V30 2825 C 265.246 2.76954 0.138411 0
M  V30 2826 H 268.197 1.53803 -0.391193 0
M  V30 2827 H 268.218 3.49878 1.49551 0
M  V30 2828 H 267.73 3.87007 -0.291055 0
M  V30 2829 H 265.831 3.1086 2.05418 0
M  V30 2830 H 265.944 4.68178 1.01716 0
M  V30 2831 H 264.308 2.4666 0.634911 0
M  V30 2832 H 265.091 3.34097 -0.789549 0
M  V30 2833 N 267.536 -0.106894 1.57237 0
M  V30 2834 C 268.761 -0.830287 1.90055 0
M  V30 2835 C 269.186 -1.72064 0.75998 0
M  V30 2836 O 268.544 -1.78982 -0.288991 0
M  V30 2837 C 268.592 -1.6295 3.21683 0
M  V30 2838 O 267.696 -2.73748 3.08441 0
M  V30 2839 H 267.037 -0.228855 0.623315 0
M  V30 2840 H 269.567 -0.085658 2.04421 0
M  V30 2841 H 269.577 -2.01621 3.54701 0
M  V30 2842 H 268.252 -0.975989 4.04286 0
M  V30 2843 H 266.829 -2.38192 2.86913 0
M  V30 2844 N 269.014 -1.53014 -0.377408 0
M  V30 2845 C 270.291 -1.59215 -1.13622 0
M  V30 2846 C 270.671 -0.392407 -2.07421 0
M  V30 2847 O 270.019 0.618342 -2.19975 0
M  V30 2848 C 270.229 -2.93669 -1.88573 0
M  V30 2849 C 271.577 -3.47822 -2.43526 0
M  V30 2850 O 272.601 -2.9562 -1.98715 0
M  V30 2851 O 271.46 -4.39055 -3.25412 0
M  V30 2852 H 268.554 -0.642625 -0.52054 0
M  V30 2853 H 271.1 -1.65353 -0.381625 0
M  V30 2854 H 269.872 -3.7243 -1.20048 0
M  V30 2855 H 269.495 -2.90968 -2.70968 0
M  V30 2856 N 270.492 0.636531 -1.44174 0
M  V30 2857 C 271.769 1.39463 -1.37148 0
M  V30 2858 C 272.149 2.11082 -0.027507 0
M  V30 2859 O 271.497 2.05954 0.989716 0
M  V30 2860 C 271.707 2.36552 -2.56601 0
M  V30 2861 C 273.055 3.00048 -3.00427 0
M  V30 2862 O 274.079 2.46878 -2.56767 0
M  V30 2863 O 272.938 3.96488 -3.76111 0
M  V30 2864 H 270.032 0.623903 -0.542839 0
M  V30 2865 H 272.578 0.662039 -1.56253 0
M  V30 2866 H 271.35 1.82692 -3.46034 0
M  V30 2867 H 270.973 3.17236 -2.39681 0
M  V30 2868 N 271.97 1.30982 0.876444 0
M  V30 2869 C 273.247 1.10942 1.61094 0
M  V30 2870 C 273.627 -0.338223 2.08373 0
M  V30 2871 O 272.975 -1.33122 1.85717 0
M  V30 2872 C 273.185 2.11789 2.77392 0
M  V30 2873 C 274.533 2.43965 3.47514 0
M  V30 2874 O 275.557 2.10166 2.87591 0
M  V30 2875 O 274.416 3.01817 4.55597 0
M  V30 2876 H 271.51 0.42667 0.708436 0
M  V30 2877 H 274.056 1.42438 0.922474 0
M  V30 2878 H 272.828 3.09194 2.39823 0
M  V30 2879 H 272.451 1.81161 3.5393 0
M  V30 2880 N 273.449 -1.08991 1.13837 0
M  V30 2881 C 274.695 -1.81526 0.90422 0
M  V30 2882 C 275.028 -1.85706 -0.568066 0
M  V30 2883 O 274.303 -1.32855 -1.42056 0
M  V30 2884 C 274.586 -3.27447 1.49835 0
M  V30 2885 C 274.439 -3.31512 3.04006 0
M  V30 2886 C 275.758 -4.24256 1.17025 0
M  V30 2887 H 272.877 -0.659029 0.329923 0
M  V30 2888 H 275.519 -1.27644 1.40737 0
M  V30 2889 H 273.669 -3.73462 1.07044 0
M  V30 2890 H 275.341 -2.93867 3.55584 0
M  V30 2891 H 273.584 -2.70963 3.38765 0
M  V30 2892 H 274.255 -4.34329 3.40679 0
M  V30 2893 H 276.731 -3.86549 1.54009 0
M  V30 2894 H 275.607 -5.24684 1.61237 0
M  V30 2895 H 275.868 -4.42019 0.0846274 0
M  V30 2896 N 274.927 -0.932562 -1.27047 0
M  V30 2897 C 275.859 -0.392734 -2.2581 0
M  V30 2898 C 276.872 0.479241 -1.55586 0
M  V30 2899 O 278.061 0.291078 -1.76111 0
M  V30 2900 C 275.161 0.455456 -3.35826 0
M  V30 2901 C 274.334 -0.398355 -4.35582 0
M  V30 2902 C 273.393 0.387985 -5.24768 0
M  V30 2903 O 272.419 -0.206003 -5.68827 0
M  V30 2904 N 273.621 1.68664 -5.55457 0
M  V30 2905 H 276.386 -1.24173 -2.72766 0
M  V30 2906 H 273.947 -0.800511 -1.40725 0
M  V30 2907 H 275.939 0.988692 -3.92437 0
M  V30 2908 H 274.509 1.20522 -2.88432 0
M  V30 2909 H 273.729 -1.11286 -3.78165 0
M  V30 2910 H 275.017 -0.981889 -4.99236 0
M  V30 2911 H 274.415 2.19147 -5.21528 0
M  V30 2912 H 272.972 2.1663 -6.14748 0
M  V30 2913 N 276.405 1.4127 -0.698611 0
M  V30 2914 C 277.821 1.55241 -0.370462 0
M  V30 2915 C 278.021 1.67351 1.12231 0
M  V30 2916 O 277.077 1.65363 1.90818 0
M  V30 2917 C 278.39 2.78997 -1.12165 0
M  V30 2918 C 279.938 2.92797 -1.1063 0
M  V30 2919 C 280.413 4.19445 -1.8393 0
M  V30 2920 N 281.904 4.26409 -1.80914 0
M  V30 2921 C 282.639 5.23271 -2.34467 0
M  V30 2922 N 282.135 6.26145 -2.96504 0
M  V30 2923 N 283.928 5.15232 -2.24706 0
M  V30 2924 H 276.079 1.31654 -1.66676 0
M  V30 2925 H 278.342 0.635393 -0.703548 0
M  V30 2926 H 278.048 2.76268 -2.17644 0
M  V30 2927 H 277.922 3.70606 -0.702209 0
M  V30 2928 H 280.309 2.95039 -0.0597713 0
M  V30 2929 H 280.39 2.02353 -1.56483 0
M  V30 2930 H 280.034 4.17964 -2.88563 0
M  V30 2931 H 279.964 5.08866 -1.35509 0
M  V30 2932 H 282.455 3.527 -1.35687 0
M  V30 2933 H 282.768 6.96451 -3.34927 0
M  V30 2934 H 281.113 6.26638 -3.00583 0
M  V30 2935 H 284.304 4.33789 -1.7591 0
M  V30 2936 H 284.477 5.90552 -2.66745 0
M  V30 2937 N 277.883 0.443576 1.51229 0
M  V30 2938 C 278.846 -0.353132 2.26463 0
M  V30 2939 C 279.846 -0.944338 1.3015 0
M  V30 2940 O 281.036 -0.817813 1.5381 0
M  V30 2941 C 278.168 -1.50023 3.06114 0
M  V30 2942 H 279.361 0.3063 2.98332 0
M  V30 2943 H 276.914 0.196902 1.55055 0
M  V30 2944 H 277.649 -2.19553 2.38677 0
M  V30 2945 H 277.434 -1.08241 3.76864 0
M  V30 2946 H 278.924 -2.06296 3.63087 0
M  V30 2947 N 279.361 -1.56624 0.175154 0
M  V30 2948 C 280.607 -1.9729 -0.469506 0
M  V30 2949 C 280.94 -1.06128 -1.62636 0
M  V30 2950 O 280.215 -0.109183 -1.94193 0
M  V30 2951 C 280.498 -3.47375 -0.948804 0
M  V30 2952 C 280.351 -4.49317 0.208491 0
M  V30 2953 C 281.67 -4.00652 -1.82116 0
M  V30 2954 H 278.789 -0.717317 -0.16919 0
M  V30 2955 H 281.431 -1.88184 0.262062 0
M  V30 2956 H 279.581 -3.55267 -1.57219 0
M  V30 2957 H 281.253 -4.53482 0.845682 0
M  V30 2958 H 279.496 -4.25121 0.863395 0
M  V30 2959 H 280.167 -5.51741 -0.169059 0
M  V30 2960 H 282.643 -3.95416 -1.2956 0
M  V30 2961 H 281.519 -5.06075 -2.12554 0
M  V30 2962 H 281.78 -3.44699 -2.7683 0
M  V30 2963 N 280.839 0.0985539 -1.57292 0
M  V30 2964 C 281.749 1.13824 -2.05137 0
M  V30 2965 C 282.765 1.44076 -0.975604 0
M  V30 2966 O 283.941 1.54786 -1.28853 0
M  V30 2967 C 281.006 2.43969 -2.46333 0
M  V30 2968 C 280.067 2.2093 -3.68087 0
M  V30 2969 C 279.3 3.44869 -4.0731 0
M  V30 2970 O 279.523 4.52972 -3.46659 0
M  V30 2971 O 278.457 3.34661 -5.00285 0
M  V30 2972 H 282.283 0.761881 -2.93988 0
M  V30 2973 H 279.868 0.310818 -1.46131 0
M  V30 2974 H 281.75 3.20609 -2.73473 0
M  V30 2975 H 280.425 2.81038 -1.60621 0
M  V30 2976 H 279.332 1.42081 -3.46069 0
M  V30 2977 H 280.665 1.88755 -4.54568 0
M  V30 2978 N 282.317 1.53212 0.369288 0
M  V30 2979 C 283.733 1.42902 0.710712 0
M  V30 2980 C 283.933 0.565135 1.93413 0
M  V30 2981 O 282.989 0.0461484 2.52458 0
M  V30 2982 C 284.302 2.86042 0.927382 0
M  V30 2983 C 285.85 2.9565 1.02762 0
M  V30 2984 C 286.325 4.39843 1.27679 0
M  V30 2985 N 287.816 4.43256 1.34457 0
M  V30 2986 C 288.551 5.51929 1.55439 0
M  V30 2987 N 288.047 6.70655 1.73762 0
M  V30 2988 N 289.84 5.39502 1.57779 0
M  V30 2989 H 281.991 2.07888 -0.435457 0
M  V30 2990 H 284.254 0.938661 -0.132739 0
M  V30 2991 H 283.96 3.51557 0.100287 0
M  V30 2992 H 283.834 3.29472 1.83653 0
M  V30 2993 H 286.221 2.30291 1.84527 0
M  V30 2994 H 286.302 2.5562 0.0959504 0
M  V30 2995 H 285.946 5.05774 0.464175 0
M  V30 2996 H 285.876 4.77443 2.22162 0
M  V30 2997 H 288.367 3.5769 1.21926 0
M  V30 2998 H 288.68 7.49248 1.89335 0
M  V30 2999 H 287.025 6.73648 1.70948 0
M  V30 3000 H 290.216 4.45713 1.43029 0
M  V30 3001 H 290.389 6.2426 1.7379 0
M  V30 3002 N 283.795 -0.628877 1.44509 0
M  V30 3003 C 285.044 -1.38437 1.4669 0
M  V30 3004 C 285.357 -1.95322 0.104272 0
M  V30 3005 O 286.563 -2.715 0.00362163 0
M  V30 3006 C 285.019 -2.50659 2.5826 0
M  V30 3007 C 284.627 -2.00277 4.0074 0
M  V30 3008 C 286.371 -3.27844 2.69664 0
M  V30 3009 C 284.278 -3.09854 5.0373 0
M  V30 3010 H 283.208 -0.520245 0.545766 0
M  V30 3011 H 285.859 -0.676313 1.70582 0
M  V30 3012 H 284.241 -3.2405 2.27612 0
M  V30 3013 H 285.415 -1.33736 4.40966 0
M  V30 3014 H 283.73 -1.35901 3.93599 0
M  V30 3015 H 286.327 -4.09534 3.43781 0
M  V30 3016 H 286.67 -3.77471 1.75559 0
M  V30 3017 H 287.203 -2.61543 2.99733 0
M  V30 3018 H 283.942 -2.65168 5.99472 0
M  V30 3019 H 283.462 -3.7503 4.68095 0
M  V30 3020 H 285.141 -3.74592 5.27532 0
M  V30 3021 N 285.273 -1.31445 -0.869486 0
M  V30 3022 C 286.503 -1.23942 -1.65294 0
M  V30 3023 C 286.911 0.197561 -1.88166 0
M  V30 3024 O 286.254 1.14019 -1.44033 0
M  V30 3025 C 286.316 -1.91385 -3.04322 0
M  V30 3026 C 285.98 -3.40726 -3.04557 0
M  V30 3027 C 286.977 -4.36464 -2.82481 0
M  V30 3028 C 284.662 -3.82425 -3.25663 0
M  V30 3029 C 286.656 -5.71876 -2.8149 0
M  V30 3030 C 284.343 -5.1795 -3.243 0
M  V30 3031 C 285.341 -6.12486 -3.02241 0
M  V30 3032 O 285.029 -7.45534 -3.00724 0
M  V30 3033 H 284.761 -0.429459 -0.522054 0
M  V30 3034 H 287.315 -1.73873 -1.0935 0
M  V30 3035 H 285.545 -1.36004 -3.61994 0
M  V30 3036 H 287.234 -1.77791 -3.64891 0
M  V30 3037 H 288 -4.05576 -2.65956 0
M  V30 3038 H 283.879 -3.09274 -3.41863 0
M  V30 3039 H 287.423 -6.45638 -2.64191 0
M  V30 3040 H 283.32 -5.48473 -3.40365 0
M  V30 3041 H 284.088 -7.54713 -3.16782 0
M  V30 3042 N 286.751 1.08385 -1.14413 0
M  V30 3043 C 287.683 2.1519 -0.789036 0
M  V30 3044 C 288.696 1.61638 0.19417 0
M  V30 3045 O 289.885 1.78479 -0.0275711 0
M  V30 3046 C 286.985 3.38565 -0.15058 0
M  V30 3047 C 286.158 4.21501 -1.16857 0
M  V30 3048 C 285.217 5.23277 -0.553832 0
M  V30 3049 O 284.243 5.56041 -1.21686 0
M  V30 3050 N 285.445 5.76629 0.669296 0
M  V30 3051 H 288.21 2.46257 -1.70814 0
M  V30 3052 H 285.771 1.24198 -1.03858 0
M  V30 3053 H 287.763 4.03777 0.273181 0
M  V30 3054 H 286.333 3.05299 0.671667 0
M  V30 3055 H 285.553 3.52265 -1.76926 0
M  V30 3056 H 286.841 4.73731 -1.85624 0
M  V30 3057 H 286.239 5.52243 1.22654 0
M  V30 3058 H 284.796 6.43521 1.03556 0
M  V30 3059 N 288.23 0.939286 1.26551 0
M  V30 3060 C 289.193 0.451987 2.24699 0
M  V30 3061 C 290.193 -0.435869 1.5478 0
M  V30 3062 O 291.383 -0.235314 1.72603 0
M  V30 3063 C 288.515 -0.348801 3.39111 0
M  V30 3064 H 289.708 1.3193 2.69322 0
M  V30 3065 H 287.261 0.721072 1.38673 0
M  V30 3066 H 287.996 -1.23444 2.99887 0
M  V30 3067 H 287.781 0.287945 3.91041 0
M  V30 3068 H 289.271 -0.679726 4.12031 0
M  V30 3069 N 289.708 -1.40897 0.706093 0
M  V30 3070 C 291.124 -1.55042 0.37869 0
M  V30 3071 C 291.324 -1.67944 -1.11342 0
M  V30 3072 O 290.38 -1.66372 -1.89938 0
M  V30 3073 C 291.693 -2.78398 1.13643 0
M  V30 3074 C 293.241 -2.92206 1.12181 0
M  V30 3075 C 293.716 -4.18463 1.86152 0
M  V30 3076 N 295.207 -4.25443 1.83173 0
M  V30 3077 C 295.942 -5.2202 2.37239 0
M  V30 3078 N 295.438 -6.24563 2.99821 0
M  V30 3079 N 297.231 -5.14033 2.27435 0
M  V30 3080 H 289.382 -1.30769 1.67372 0
M  V30 3081 H 291.645 -0.631653 0.706907 0
M  V30 3082 H 291.351 -2.7511 2.19106 0
M  V30 3083 H 291.225 -3.70228 0.721853 0
M  V30 3084 H 293.612 -2.95004 0.0754171 0
M  V30 3085 H 293.693 -2.01521 1.57554 0
M  V30 3086 H 293.337 -4.16427 2.90776 0
M  V30 3087 H 293.267 -5.08141 1.38206 0
M  V30 3088 H 295.758 -3.51976 1.37556 0
M  V30 3089 H 296.071 -6.94665 3.38616 0
M  V30 3090 H 294.416 -6.25035 3.03902 0
M  V30 3091 H 297.607 -4.3285 1.78208 0
M  V30 3092 H 297.78 -5.89129 2.69873 0
M  V30 3093 N 291.186 -0.45159 -1.50991 0
M  V30 3094 C 292.149 0.341117 -2.26647 0
M  V30 3095 C 293.149 0.937422 -1.30649 0
M  V30 3096 O 294.339 0.809644 -1.54241 0
M  V30 3097 C 291.471 1.48398 -3.06905 0
M  V30 3098 H 292.664 -0.322117 -2.98165 0
M  V30 3099 H 290.217 -0.205122 -1.54948 0
M  V30 3100 H 290.952 2.18284 -2.39838 0
M  V30 3101 H 290.737 1.06241 -3.77432 0
M  V30 3102 H 292.227 2.04367 -3.64176 0
M  V30 3103 N 292.664 1.56529 -0.183458 0
M  V30 3104 C 293.941 1.88959 0.50536 0
M  V30 3105 C 294.321 1.09523 1.80466 0
M  V30 3106 O 293.669 0.19278 2.27685 0
M  V30 3107 C 293.879 3.41162 0.73547 0
M  V30 3108 C 295.227 4.11155 1.06005 0
M  V30 3109 O 296.251 3.46548 0.823594 0
M  V30 3110 O 295.11 5.25318 1.50675 0
M  V30 3111 H 292.204 0.78441 0.261973 0
M  V30 3112 H 294.75 1.68231 -0.222802 0
M  V30 3113 H 293.522 3.90874 -0.182561 0
M  V30 3114 H 293.145 3.67543 1.51651 0
M  V30 3115 N 294.142 -0.090211 1.57342 0
M  V30 3116 C 295.388 -0.793982 1.86611 0
M  V30 3117 C 295.721 -1.78142 0.773252 0
M  V30 3118 O 294.996 -1.93271 -0.218304 0
M  V30 3119 C 295.279 -1.51839 3.26523 0
M  V30 3120 C 295.132 -0.548609 4.46442 0
M  V30 3121 C 296.451 -2.46779 3.64401 0
M  V30 3122 H 293.57 -0.287186 0.678744 0
M  V30 3123 H 296.212 -0.0575076 1.89913 0
M  V30 3124 H 294.362 -2.14617 3.23839 0
M  V30 3125 H 296.034 0.0725513 4.61243 0
M  V30 3126 H 294.277 0.137614 4.33582 0
M  V30 3127 H 294.948 -1.09271 5.41076 0
M  V30 3128 H 297.424 -1.94089 3.68061 0
M  V30 3129 H 296.3 -2.94479 4.63221 0
M  V30 3130 H 296.561 -3.30758 2.93346 0
M  V30 3131 N 295.62 -1.53406 -0.361157 0
M  V30 3132 C 296.866 -1.70054 -1.10496 0
M  V30 3133 C 297.199 -0.453278 -1.88836 0
M  V30 3134 O 296.474 0.5495 -1.86576 0
M  V30 3135 C 296.757 -2.95317 -2.06058 0
M  V30 3136 C 296.61 -4.3021 -1.31298 0
M  V30 3137 C 297.929 -3.16193 -3.06121 0
M  V30 3138 H 295.048 -0.618799 -0.400321 0
M  V30 3139 H 297.69 -1.86052 -0.385318 0
M  V30 3140 H 295.84 -2.81809 -2.67425 0
M  V30 3141 H 297.512 -4.55538 -0.726807 0
M  V30 3142 H 295.755 -4.29421 -0.614853 0
M  V30 3143 H 296.426 -5.14 -2.01265 0
M  V30 3144 H 298.902 -3.28916 -2.5486 0
M  V30 3145 H 297.778 -4.05266 -3.70204 0
M  V30 3146 H 298.039 -2.31676 -3.76535 0
M  V30 3147 N 297.098 0.621204 -1.44841 0
M  V30 3148 C 298.345 1.38055 -1.48145 0
M  V30 3149 C 298.673 1.94143 -0.117867 0
M  V30 3150 O 297.928 1.74713 0.881694 0
M  V30 3151 C 298.227 2.55675 -2.4973 0
M  V30 3152 C 297.893 2.17817 -3.94799 0
M  V30 3153 C 296.555 2.07205 -4.34303 0
M  V30 3154 C 298.907 1.88065 -4.86087 0
M  V30 3155 C 296.235 1.65045 -5.63007 0
M  V30 3156 C 298.587 1.47394 -6.15189 0
M  V30 3157 C 297.251 1.35331 -6.53637 0
M  V30 3158 H 296.521 0.505181 -0.542101 0
M  V30 3159 H 299.168 0.703477 -1.78111 0
M  V30 3160 H 297.473 3.2866 -2.13284 0
M  V30 3161 H 299.17 3.13904 -2.4953 0
M  V30 3162 H 295.76 2.26998 -3.63552 0
M  V30 3163 H 299.944 1.95168 -4.56315 0
M  V30 3164 H 295.2 1.54317 -5.91605 0
M  V30 3165 H 299.374 1.23415 -6.85377 0
M  V30 3166 H 297.001 1.02435 -7.53267 0
M  V30 3167 N 298.576 1.31904 0.862503 0
M  V30 3168 C 299.801 1.25135 1.65397 0
M  V30 3169 C 300.226 -0.179 1.87246 0
M  V30 3170 O 299.584 -1.1277 1.4196 0
M  V30 3171 C 299.632 2.00832 2.99498 0
M  V30 3172 O 298.736 1.35075 3.89652 0
M  V30 3173 H 298.077 0.431655 0.504549 0
M  V30 3174 H 300.607 1.74094 1.07483 0
M  V30 3175 H 300.617 2.10709 3.49379 0
M  V30 3176 H 299.292 3.04847 2.82916 0
M  V30 3177 H 297.869 1.33696 3.48109 0
M  V30 3178 N 300.054 -1.07777 1.14986 0
M  V30 3179 C 301.282 -1.84018 0.945773 0
M  V30 3180 C 301.697 -1.81897 -0.505863 0
M  V30 3181 O 301.054 -1.22726 -1.35072 0
M  V30 3182 C 301.105 -3.31287 1.44677 0
M  V30 3183 O 300.826 -3.33449 2.84154 0
M  V30 3184 C 302.327 -4.24311 1.28355 0
M  V30 3185 H 299.547 -0.580716 0.336169 0
M  V30 3186 H 302.091 -1.36077 1.52654 0
M  V30 3187 H 300.246 -3.76594 0.908625 0
M  V30 3188 H 300.66 -4.25427 3.06777 0
M  V30 3189 H 302.134 -5.2573 1.68261 0
M  V30 3190 H 302.611 -4.38612 0.227184 0
M  V30 3191 H 303.217 -3.84836 1.81056 0
M  V30 3192 N 301.532 -0.945985 -1.26051 0
M  V30 3193 C 302.778 -0.597002 -1.93814 0
M  V30 3194 C 303.111 0.862484 -1.73997 0
M  V30 3195 O 302.386 1.61769 -1.07986 0
M  V30 3196 C 302.669 -0.945937 -3.47454 0
M  V30 3197 C 302.522 -2.46052 -3.76535 0
M  V30 3198 C 303.841 -0.464785 -4.37639 0
M  V30 3199 H 300.96 -0.218366 -0.703907 0
M  V30 3200 H 303.602 -1.18107 -1.48831 0
M  V30 3201 H 301.752 -0.448902 -3.85898 0
M  V30 3202 H 303.424 -3.03065 -3.47778 0
M  V30 3203 H 301.667 -2.90194 -3.22444 0
M  V30 3204 H 302.338 -2.65517 -4.83947 0
M  V30 3205 H 304.814 -0.891016 -4.06448 0
M  V30 3206 H 303.69 -0.737712 -5.4392 0
M  V30 3207 H 303.951 0.635274 -4.37512 0
M  V30 3208 N 303.011 1.40521 -0.713556 0
M  V30 3209 C 304.257 2.01221 -0.252564 0
M  V30 3210 C 304.59 1.56444 1.1506 0
M  V30 3211 O 303.865 0.783597 1.78017 0
M  V30 3212 C 304.148 3.58582 -0.330332 0
M  V30 3213 C 304.001 4.13437 -1.77173 0
M  V30 3214 C 305.32 4.39079 0.299641 0
M  V30 3215 H 302.439 0.731077 -0.0932471 0
M  V30 3216 H 305.081 1.67026 -0.905673 0
M  V30 3217 H 303.231 3.87844 0.225737 0
M  V30 3218 H 304.903 3.9498 -2.38303 0
M  V30 3219 H 303.146 3.67801 -2.3001 0
M  V30 3220 H 303.817 5.22597 -1.77755 0
M  V30 3221 H 306.293 4.15735 -0.174139 0
M  V30 3222 H 305.169 5.4848 0.214771 0
M  V30 3223 H 305.43 4.19915 1.38288 0
M  V30 3224 N 304.489 0.459591 1.5075 0
M  V30 3225 C 305.737 -0.0991532 2.01857 0
M  V30 3226 C 306.058 -1.41247 1.34441 0
M  V30 3227 O 305.328 -1.89775 0.486022 0
M  V30 3228 H 303.908 -0.039633 0.745948 0
M  V30 3229 H 306.57 0.607387 1.85194 0
M  V30 3230 H 305.666 -0.258998 3.11023 0
M  V30 3231 N 305.967 -1.56429 0.191757 0
M  V30 3232 C 307.195 -2.01867 -0.453586 0
M  V30 3233 C 307.61 -1.07191 -1.5542 0
M  V30 3234 O 306.967 -0.0762108 -1.82341 0
M  V30 3235 C 307.018 -3.47017 -1.013 0
M  V30 3236 O 306.739 -4.38078 0.0437005 0
M  V30 3237 C 308.24 -4.07956 -1.73456 0
M  V30 3238 H 305.46 -0.661211 -0.114199 0
M  V30 3239 H 308.004 -2.02295 0.299483 0
M  V30 3240 H 306.159 -3.47298 -1.71647 0
M  V30 3241 H 306.573 -5.23178 -0.372212 0
M  V30 3242 H 308.047 -5.1138 -2.07833 0
M  V30 3243 H 308.524 -3.51222 -2.63704 0
M  V30 3244 H 309.13 -4.11437 -1.07702 0
M  V30 3245 N 307.445 0.0818655 -1.57387 0
M  V30 3246 C 308.693 0.781368 -1.86384 0
M  V30 3247 C 309.014 1.78618 -0.782342 0
M  V30 3248 O 308.284 1.94976 0.190061 0
M  V30 3249 H 306.864 0.291562 -0.687751 0
M  V30 3250 H 309.526 0.060348 -1.94807 0
M  V30 3251 H 308.622 1.3038 -2.83562 0
M  V30 3252 N 308.923 1.53595 0.353017 0
M  V30 3253 C 310.151 1.74311 1.1146 0
M  V30 3254 C 310.566 0.477854 1.82653 0
M  V30 3255 O 309.923 -0.549977 1.74016 0
M  V30 3256 C 309.974 2.91694 2.13534 0
M  V30 3257 O 309.695 4.13325 1.45238 0
M  V30 3258 C 311.196 3.24384 3.02142 0
M  V30 3259 H 308.416 0.582669 0.332773 0
M  V30 3260 H 310.96 2.00386 0.408107 0
M  V30 3261 H 309.115 2.67977 2.79763 0
M  V30 3262 H 309.529 4.79148 2.13349 0
M  V30 3263 H 311.003 4.09893 3.69718 0
M  V30 3264 H 311.48 2.40282 3.67643 0
M  V30 3265 H 312.086 3.50073 2.41514 0
M  V30 3266 N 310.401 -0.613514 1.45168 0
M  V30 3267 C 311.364 -1.7065 1.53007 0
M  V30 3268 C 312.364 -1.5548 0.410184 0
M  V30 3269 O 313.554 -1.60656 0.673455 0
M  V30 3270 C 310.686 -3.09875 1.42093 0
M  V30 3271 H 311.879 -1.65068 2.50385 0
M  V30 3272 H 309.432 -0.828728 1.32521 0
M  V30 3273 H 310.167 -3.21039 0.458769 0
M  V30 3274 H 309.952 -3.22293 2.23315 0
M  V30 3275 H 311.442 -3.895 1.50598 0
M  V30 3276 N 311.879 -1.3236 -0.855495 0
M  V30 3277 C 312.789 -1.23221 -1.99634 0
M  V30 3278 C 313.805 -0.145983 -1.73387 0
M  V30 3279 O 314.981 -0.366502 -1.98037 0
M  V30 3280 C 312.046 -0.954782 -3.33294 0
M  V30 3281 C 311.107 -2.12937 -3.72769 0
M  V30 3282 C 310.34 -1.86508 -5.00051 0
M  V30 3283 O 310.563 -0.807231 -5.64659 0
M  V30 3284 O 309.497 -2.72591 -5.36636 0
M  V30 3285 H 313.323 -2.19126 -2.1028 0
M  V30 3286 H 310.908 -1.12241 -0.986018 0
M  V30 3287 H 312.79 -0.816519 -4.13414 0
M  V30 3288 H 311.465 -0.0258854 -3.2369 0
M  V30 3289 H 310.372 -2.3231 -2.93228 0
M  V30 3290 H 311.705 -3.04102 -3.87018 0
M  V30 3291 N 313.357 1.07166 -1.15556 0
M  V30 3292 C 314.287 2.16403 -0.877046 0
M  V30 3293 C 315.268 1.69217 0.173111 0
M  V30 3294 O 316.453 1.94181 0.027084 0
M  V30 3295 C 313.583 3.45349 -0.367632 0
M  V30 3296 C 312.537 4.05995 -1.35468 0
M  V30 3297 C 311.863 5.30045 -0.704038 0
M  V30 3298 C 313.163 4.45804 -2.72132 0
M  V30 3299 H 314.857 2.39959 -1.79053 0
M  V30 3300 H 312.403 1.15325 -0.862331 0
M  V30 3301 H 314.356 4.21095 -0.160317 0
M  V30 3302 H 313.08 3.21385 0.581326 0
M  V30 3303 H 311.739 3.32296 -1.54839 0
M  V30 3304 H 311.387 5.02373 0.251128 0
M  V30 3305 H 311.087 5.71579 -1.36277 0
M  V30 3306 H 312.611 6.08495 -0.50654 0
M  V30 3307 H 314.025 5.12671 -2.56595 0
M  V30 3308 H 312.422 4.98296 -3.34397 0
M  V30 3309 H 313.492 3.57083 -3.28054 0
M  V30 3310 N 314.835 0.952656 1.25548 0
M  V30 3311 C 316.065 0.622592 1.96996 0
M  V30 3312 C 316.473 -0.809112 1.71026 0
M  V30 3313 O 315.816 -1.55258 0.981861 0
M  V30 3314 C 315.878 0.798946 3.5051 0
M  V30 3315 C 315.542 2.20744 4.00151 0
M  V30 3316 C 316.539 3.18394 4.11001 0
M  V30 3317 C 314.224 2.5311 4.33867 0
M  V30 3318 C 316.218 4.46504 4.54877 0
M  V30 3319 C 313.905 3.8145 4.7743 0
M  V30 3320 C 314.903 4.77959 4.87897 0
M  V30 3321 O 314.591 6.04012 5.30494 0
M  V30 3322 H 314.323 0.232503 0.634758 0
M  V30 3323 H 316.877 1.2789 1.60728 0
M  V30 3324 H 315.107 0.0854903 3.86605 0
M  V30 3325 H 316.796 0.47023 4.03167 0
M  V30 3326 H 317.562 2.94715 3.85186 0
M  V30 3327 H 313.441 1.78719 4.24948 0
M  V30 3328 H 316.985 5.21835 4.62962 0
M  V30 3329 H 312.882 4.04936 5.0269 0
M  V30 3330 H 313.65 6.0736 5.48685 0
M  V30 3331 N 316.313 -1.40141 0.720998 0
M  V30 3332 C 317.729 -1.54632 0.395113 0
M  V30 3333 C 317.929 -1.69115 -1.09555 0
M  V30 3334 O 316.985 -1.68377 -1.88163 0
M  V30 3335 C 318.298 -2.77177 1.1659 0
M  V30 3336 C 319.846 -2.91 1.15274 0
M  V30 3337 C 320.321 -4.16465 1.90579 0
M  V30 3338 N 321.812 -4.23476 1.87675 0
M  V30 3339 C 322.547 -5.19475 2.42762 0
M  V30 3340 N 322.043 -6.21348 3.06428 0
M  V30 3341 N 323.836 -5.11592 2.32874 0
M  V30 3342 H 315.987 -1.28986 1.68749 0
M  V30 3343 H 318.25 -0.62412 0.713567 0
M  V30 3344 H 317.956 -2.72771 2.22011 0
M  V30 3345 H 317.83 -3.69442 0.76108 0
M  V30 3346 H 320.217 -2.94907 0.106702 0
M  V30 3347 H 320.298 -1.99838 1.59682 0
M  V30 3348 H 319.942 -4.1332 2.95176 0
M  V30 3349 H 319.872 -5.06646 1.43587 0
M  V30 3350 H 322.363 -3.50497 1.41281 0
M  V30 3351 H 322.676 -6.91034 3.45965 0
M  V30 3352 H 321.021 -6.21777 3.10514 0
M  V30 3353 H 324.212 -4.30936 1.82789 0
M  V30 3354 H 324.385 -5.86233 2.76106 0
M  V30 3355 N 317.792 -0.46758 -1.50504 0
M  V30 3356 C 318.755 0.317059 -2.26996 0
M  V30 3357 C 319.755 0.923513 -1.31635 0
M  V30 3358 O 320.945 0.793239 -1.55091 0
M  V30 3359 C 318.077 1.45134 -3.08462 0
M  V30 3360 H 319.27 -0.353723 -2.97807 0
M  V30 3361 H 316.823 -0.221545 -1.54722 0
M  V30 3362 H 317.558 2.15728 -2.4214 0
M  V30 3363 H 317.343 1.02232 -3.78538 0
M  V30 3364 H 318.833 2.00493 -3.66323 0
M  V30 3365 N 319.27 1.56325 -0.20005 0
M  V30 3366 C 320.519 1.96895 0.437652 0
M  V30 3367 C 320.832 1.08999 1.62415 0
M  V30 3368 O 322.038 1.39372 2.32997 0
M  V30 3369 C 320.494 3.50198 0.830025 0
M  V30 3370 C 320.102 4.46765 -0.332461 0
M  V30 3371 C 321.846 3.99526 1.43453 0
M  V30 3372 C 319.753 5.91344 0.0811468 0
M  V30 3373 H 318.683 0.735209 0.167282 0
M  V30 3374 H 321.334 1.81148 -0.292853 0
M  V30 3375 H 319.716 3.61467 1.61734 0
M  V30 3376 H 320.89 4.47231 -1.11 0
M  V30 3377 H 319.205 4.07657 -0.848789 0
M  V30 3378 H 321.802 5.05025 1.75652 0
M  V30 3379 H 322.145 3.44122 2.34277 0
M  V30 3380 H 322.678 3.91393 0.71109 0
M  V30 3381 H 319.417 6.50685 -0.793033 0
M  V30 3382 H 318.937 5.94121 0.823445 0
M  V30 3383 H 320.616 6.44945 0.515252 0
M  V30 3384 N 320.748 -0.0735177 1.57428 0
M  V30 3385 C 321.711 -1.07192 2.02589 0
M  V30 3386 C 322.711 -1.31695 0.922661 0
M  V30 3387 O 323.901 -1.27445 1.18758 0
M  V30 3388 C 321.033 -2.41599 2.40506 0
M  V30 3389 H 322.226 -0.682727 2.92025 0
M  V30 3390 H 319.779 -0.319193 1.53006 0
M  V30 3391 H 320.514 -2.85354 1.5409 0
M  V30 3392 H 320.299 -2.25156 3.21009 0
M  V30 3393 H 321.789 -3.13367 2.76027 0
M  V30 3394 N 322.226 -1.5378 -0.344866 0
M  V30 3395 C 323.642 -1.44015 -0.687888 0
M  V30 3396 C 323.842 -0.595834 -1.92489 0
M  V30 3397 O 322.898 -0.0863064 -2.52352 0
M  V30 3398 C 324.211 -2.87481 -0.881758 0
M  V30 3399 C 325.759 -2.97247 -0.980459 0
M  V30 3400 C 326.234 -4.41819 -1.20665 0
M  V30 3401 N 327.725 -4.45339 -1.27389 0
M  V30 3402 C 328.46 -5.54333 -1.46639 0
M  V30 3403 N 327.956 -6.73335 -1.63071 0
M  V30 3404 N 329.749 -5.41944 -1.49176 0
M  V30 3405 H 321.9 -2.07169 0.468475 0
M  V30 3406 H 324.163 -0.93643 0.147655 0
M  V30 3407 H 323.869 -3.51672 -0.0443444 0
M  V30 3408 H 323.743 -3.32352 -1.78388 0
M  V30 3409 H 326.13 -2.33197 -1.8084 0
M  V30 3410 H 326.211 -2.5574 -0.0552713 0
M  V30 3411 H 325.855 -5.06449 -0.383652 0
M  V30 3412 H 325.785 -4.80917 -2.14539 0
M  V30 3413 H 328.276 -3.59585 -1.1622 0
M  V30 3414 H 328.589 -7.52165 -1.77391 0
M  V30 3415 H 326.934 -6.76282 -1.60209 0
M  V30 3416 H 330.125 -4.47932 -1.3592 0
M  V30 3417 H 330.298 -6.26946 -1.63837 0
M  V30 3418 N 323.704 0.605807 -1.45491 0
M  V30 3419 C 325.12 0.926751 -1.29936 0
M  V30 3420 C 325.32 1.99896 -0.253706 0
M  V30 3421 O 324.376 2.50038 0.351737 0
M  V30 3422 C 325.689 1.36599 -2.67883 0
M  V30 3423 C 327.237 1.4801 -2.75793 0
M  V30 3424 C 327.712 1.95309 -4.14268 0
M  V30 3425 N 329.203 2.0254 -4.16571 0
M  V30 3426 C 329.938 2.40363 -5.20589 0
M  V30 3427 N 329.434 2.77143 -6.34952 0
M  V30 3428 N 331.227 2.40718 -5.07948 0
M  V30 3429 H 323.378 -0.102862 -2.12151 0
M  V30 3430 H 325.641 0.016639 -0.947854 0
M  V30 3431 H 325.347 0.652306 -3.45598 0
M  V30 3432 H 325.221 2.33215 -2.96463 0
M  V30 3433 H 327.608 2.1847 -1.98381 0
M  V30 3434 H 327.689 0.497041 -2.50925 0
M  V30 3435 H 327.333 1.25436 -4.92167 0
M  V30 3436 H 327.263 2.94532 -4.3653 0
M  V30 3437 H 329.754 1.76699 -3.34045 0
M  V30 3438 H 330.067 3.0489 -7.10114 0
M  V30 3439 H 328.412 2.74834 -6.3835 0
M  V30 3440 H 331.603 2.11392 -4.1765 0
M  V30 3441 H 331.776 2.69869 -5.89131 0
M  V30 3442 N 325.182 1.32811 0.848464 0
M  V30 3443 C 326.412 1.26556 1.63301 0
M  V30 3444 C 326.82 -0.1676 1.88456 0
M  V30 3445 O 326.163 -1.11713 1.45828 0
M  V30 3446 C 326.225 1.96202 3.01239 0
M  V30 3447 C 325.889 3.45528 2.99098 0
M  V30 3448 C 326.886 4.40903 2.75501 0
M  V30 3449 C 324.571 3.87558 3.19537 0
M  V30 3450 C 326.565 5.76282 2.72356 0
M  V30 3451 C 324.252 5.23044 3.16019 0
M  V30 3452 C 325.25 6.17217 2.92458 0
M  V30 3453 O 324.938 7.50223 2.88825 0
M  V30 3454 H 324.67 0.43771 0.515156 0
M  V30 3455 H 327.224 1.7559 1.0657 0
M  V30 3456 H 325.454 1.41746 3.59785 0
M  V30 3457 H 327.143 1.83573 3.62016 0
M  V30 3458 H 327.909 4.09756 2.5947 0
M  V30 3459 H 323.788 3.14674 3.369 0
M  V30 3460 H 327.332 6.4976 2.53886 0
M  V30 3461 H 323.229 5.53818 3.31596 0
M  V30 3462 H 323.997 7.59657 3.04735 0
M  V30 3463 N 326.66 -1.06551 1.16123 0
M  V30 3464 C 327.908 -1.78947 0.939267 0
M  V30 3465 C 328.229 -1.87532 -0.534476 0
M  V30 3466 O 327.499 -1.38211 -1.38833 0
M  V30 3467 H 326.079 -0.662807 0.344523 0
M  V30 3468 H 328.741 -1.28725 1.46342 0
M  V30 3469 H 327.837 -2.81117 1.35572 0
M  V30 3470 N 328.138 -0.959301 -1.25041 0
M  V30 3471 C 329.415 -0.533805 -1.88175 0
M  V30 3472 C 329.795 0.988994 -1.865 0
M  V30 3473 O 329.143 1.85677 -1.33177 0
M  V30 3474 C 329.353 -1.11575 -3.30684 0
M  V30 3475 C 330.701 -1.19548 -4.07423 0
M  V30 3476 O 331.725 -1.06765 -3.39823 0
M  V30 3477 O 330.584 -1.39656 -5.28354 0
M  V30 3478 H 327.678 -0.176772 -0.807887 0
M  V30 3479 H 330.224 -1.05303 -1.33076 0
M  V30 3480 H 328.996 -2.15884 -3.26358 0
M  V30 3481 H 328.619 -0.580059 -3.93346 0
M  V30 3482 N 329.616 1.39756 -0.72842 0
M  V30 3483 C 330.864 2.00248 -0.272946 0
M  V30 3484 C 331.185 1.58077 1.14178 0
M  V30 3485 O 330.455 0.826014 1.77634 0
M  V30 3486 H 329.035 0.740554 -0.0979247 0
M  V30 3487 H 331.697 1.70903 -0.936912 0
M  V30 3488 H 330.793 3.10495 -0.316142 0
M  V30 3489 N 331.094 0.475555 1.50254 0
M  V30 3490 C 332.51 0.12997 1.5907 0
M  V30 3491 C 332.71 -1.36385 1.48328 0
M  V30 3492 O 331.766 -2.13754 1.34407 0
M  V30 3493 C 333.079 0.684139 2.92814 0
M  V30 3494 C 334.627 0.647965 3.0622 0
M  V30 3495 C 335.102 1.17975 4.42545 0
M  V30 3496 N 336.593 1.13936 4.48969 0
M  V30 3497 C 337.328 1.52129 5.52851 0
M  V30 3498 N 336.824 1.97793 6.63965 0
M  V30 3499 N 338.617 1.43704 5.4342 0
M  V30 3500 H 330.768 1.44706 1.55479 0
M  V30 3501 H 333.031 0.598691 0.735033 0
M  V30 3502 H 332.737 1.73079 3.06164 0
M  V30 3503 H 332.611 0.130204 3.76975 0
M  V30 3504 H 334.998 -0.38979 2.92514 0
M  V30 3505 H 335.079 1.23876 2.23805 0
M  V30 3506 H 334.723 2.21616 4.57 0
M  V30 3507 H 334.653 0.565138 5.23559 0
M  V30 3508 H 337.144 0.804488 3.69238 0
M  V30 3509 H 337.457 2.25072 7.39299 0
M  V30 3510 H 335.802 2.01749 6.65073 0
M  V30 3511 H 338.993 1.07867 4.55502 0
M  V30 3512 H 339.166 1.73794 6.24259 0
M  V30 3513 N 332.573 -1.56217 0.208337 0
M  V30 3514 C 333.989 -1.58919 -0.14729 0
M  V30 3515 C 334.189 -1.22486 -1.59998 0
M  V30 3516 O 333.245 -0.953849 -2.3379 0
M  V30 3517 C 334.558 -3.00236 0.167048 0
M  V30 3518 C 336.106 -3.12813 0.108219 0
M  V30 3519 C 336.581 -4.56284 0.396049 0
M  V30 3520 N 338.072 -4.61912 0.345142 0
M  V30 3521 C 338.807 -5.70837 0.541523 0
M  V30 3522 N 338.303 -6.88178 0.798968 0
M  V30 3523 N 340.096 -5.60091 0.474867 0
M  V30 3524 H 332.247 -1.78177 1.15614 0
M  V30 3525 H 334.51 -0.827555 0.462446 0
M  V30 3526 H 334.216 -3.31499 1.1748 0
M  V30 3527 H 334.09 -3.7354 -0.524184 0
M  V30 3528 H 336.477 -2.81354 -0.890157 0
M  V30 3529 H 336.558 -2.41866 0.832729 0
M  V30 3530 H 336.202 -4.88458 1.3918 0
M  V30 3531 H 336.132 -5.25439 -0.349502 0
M  V30 3532 H 338.623 -3.77589 0.153316 0
M  V30 3533 H 338.936 -7.67095 0.93727 0
M  V30 3534 H 337.281 -6.89953 0.836013 0
M  V30 3535 H 340.472 -4.67297 0.274064 0
M  V30 3536 H 340.645 -6.44917 0.631326 0
M  V30 3537 N 334.051 0.0651679 -1.57465 0
M  V30 3538 C 335.462 0.616213 -1.76238 0
M  V30 3539 C 335.813 1.7756 -0.834689 0
M  V30 3540 O 334.938 2.1639 -0.0204156 0
M  V30 3541 C 335.533 1.12462 -3.1959 0
M  V30 3542 C 334.092 1.62147 -3.39684 0
M  V30 3543 C 333.239 0.543739 -2.71917 0
M  V30 3544 H 336.19 -0.161022 -1.57881 0
M  V30 3545 H 336.211 1.99324 -3.24114 0
M  V30 3546 H 335.723 0.280592 -3.87084 0
M  V30 3547 H 333.824 2.48854 -2.77313 0
M  V30 3548 H 333.937 1.69385 -4.48158 0
M  V30 3549 H 332.301 0.990352 -2.34657 0
M  V30 3550 H 333.084 -0.290216 -3.42071 0
M  V30 3551 N 335.529 1.53961 0.336706 0
M  V30 3552 C 336.94 1.62914 0.911925 0
M  V30 3553 C 337.291 0.514795 1.89326 0
M  V30 3554 O 336.416 -0.354395 2.13478 0
M  V30 3555 C 337.011 2.95304 1.66076 0
M  V30 3556 C 335.57 3.06496 2.18489 0
M  V30 3557 C 334.717 2.58403 1.00613 0
M  V30 3558 H 337.668 1.58285 0.114649 0
M  V30 3559 H 337.689 2.84727 2.5241 0
M  V30 3560 H 337.201 3.76387 0.946276 0
M  V30 3561 H 335.302 2.3006 2.93092 0
M  V30 3562 H 335.415 4.1208 2.44391 0
M  V30 3563 H 333.779 2.13977 1.38152 0
M  V30 3564 H 334.562 3.41932 0.306179 0
M  V30 3565 N 337.007 -0.598083 1.45811 0
M  V30 3566 C 338.256 -1.35295 1.49594 0
M  V30 3567 C 338.569 -1.95057 0.145679 0
M  V30 3568 O 339.775 -2.71431 0.0612099 0
M  V30 3569 C 338.231 -2.45124 2.63519 0
M  V30 3570 C 337.839 -1.91732 4.04899 0
M  V30 3571 C 339.583 -3.2205 2.76558 0
M  V30 3572 C 337.49 -2.991 5.1019 0
M  V30 3573 H 336.42 -0.508552 0.556679 0
M  V30 3574 H 339.071 -0.639977 1.71978 0
M  V30 3575 H 337.453 -3.19149 2.34435 0
M  V30 3576 H 338.627 -1.24352 4.43704 0
M  V30 3577 H 336.942 -1.27522 3.96393 0
M  V30 3578 H 339.539 -4.0215 3.52391 0
M  V30 3579 H 339.882 -3.73663 1.83526 0
M  V30 3580 H 340.415 -2.55127 3.05213 0
M  V30 3581 H 337.154 -2.52393 6.04961 0
M  V30 3582 H 336.674 -3.65017 4.75944 0
M  V30 3583 H 338.353 -3.63318 5.35359 0
M  V30 3584 N 338.485 -1.33259 -0.841409 0
M  V30 3585 C 339.448 -1.23221 -1.9326 0
M  V30 3586 C 340.448 -0.151895 -1.60081 0
M  V30 3587 O 341.638 -0.403246 -1.69468 0
M  V30 3588 C 338.77 -0.898123 -3.28856 0
M  V30 3589 H 339.963 -2.2021 -2.03587 0
M  V30 3590 H 337.516 -1.17281 -1.03319 0
M  V30 3591 H 338.251 0.0693841 -3.24226 0
M  V30 3592 H 338.036 -1.67934 -3.54317 0
M  V30 3593 H 339.526 -0.852563 -4.08805 0
M  V30 3594 N 339.963 1.05934 -1.16686 0
M  V30 3595 C 341.188 1.83029 -0.975455 0
M  V30 3596 C 341.613 1.82096 0.471452 0
M  V30 3597 O 340.971 1.22443 1.33706 0
M  V30 3598 C 341.019 3.27372 -1.51195 0
M  V30 3599 O 340.123 4.06054 -0.720701 0
M  V30 3600 H 339.464 0.566194 -0.346872 0
M  V30 3601 H 341.994 1.33541 -1.55009 0
M  V30 3602 H 342.004 3.78186 -1.53099 0
M  V30 3603 H 340.679 3.27366 -2.56523 0
M  V30 3604 H 339.256 3.64812 -0.772458 0
M  V30 3605 N 341.441 0.965919 1.2453 0
M  V30 3606 C 342.371 0.513476 2.27784 0
M  V30 3607 C 343.352 -0.445974 1.6415 0
M  V30 3608 O 344.537 -0.342485 1.91156 0
M  V30 3609 C 341.667 -0.198839 3.4673 0
M  V30 3610 C 340.621 0.676456 4.2262 0
M  V30 3611 C 339.947 -0.167248 5.34438 0
M  V30 3612 C 341.247 1.96017 4.84123 0
M  V30 3613 H 342.941 1.3765 2.65881 0
M  V30 3614 H 340.487 0.663321 1.27813 0
M  V30 3615 H 342.44 -0.526567 4.18097 0
M  V30 3616 H 341.164 -1.0962 3.07654 0
M  V30 3617 H 339.823 0.98743 3.53052 0
M  V30 3618 H 339.471 -1.0647 4.91603 0
M  V30 3619 H 339.171 0.415181 5.86131 0
M  V30 3620 H 340.695 -0.489688 6.08633 0
M  V30 3621 H 342.109 1.69814 5.47573 0
M  V30 3622 H 340.506 2.48918 5.4604 0
M  V30 3623 H 341.576 2.65622 4.05676 0
M  V30 3624 N 342.919 -1.39368 0.735821 0
M  V30 3625 C 344.147 -2.04795 0.294393 0
M  V30 3626 C 344.562 -1.55478 -1.07107 0
M  V30 3627 O 343.919 -0.720038 -1.67695 0
M  V30 3628 C 343.97 -3.6035 0.288071 0
M  V30 3629 O 343.691 -4.07852 1.59963 0
M  V30 3630 C 345.192 -4.42976 -0.169422 0
M  V30 3631 H 342.412 -0.658571 0.128551 0
M  V30 3632 H 344.956 -1.78399 0.999701 0
M  V30 3633 H 343.111 -3.85645 -0.368355 0
M  V30 3634 H 343.525 -5.02181 1.51375 0
M  V30 3635 H 344.999 -5.51864 -0.122687 0
M  V30 3636 H 345.476 -4.22068 -1.21472 0
M  V30 3637 H 346.082 -4.22832 0.457469 0
M  V30 3638 N 344.397 -0.483516 -1.5 0
M  V30 3639 C 345.625 0.0644831 -2.06799 0
M  V30 3640 C 346.04 1.32399 -1.34596 0
M  V30 3641 O 345.397 1.77626 -0.418946 0
M  V30 3642 C 345.448 0.339927 -3.59898 0
M  V30 3643 O 345.169 -0.869635 -4.29382 0
M  V30 3644 C 346.67 0.933515 -4.33359 0
M  V30 3645 H 343.89 -0.0126333 -0.670881 0
M  V30 3646 H 346.434 -0.675864 -1.93009 0
M  V30 3647 H 344.589 1.03022 -3.7345 0
M  V30 3648 H 345.003 -0.62179 -5.20801 0
M  V30 3649 H 346.477 1.07593 -5.41413 0
M  V30 3650 H 346.954 1.92685 -3.94676 0
M  V30 3651 H 347.56 0.281221 -4.24369 0
M  V30 3652 N 345.875 1.56104 -0.216619 0
M  V30 3653 C 347.1 2.0301 0.424462 0
M  V30 3654 C 347.525 1.0955 1.52907 0
M  V30 3655 O 346.883 0.0827914 1.81111 0
M  V30 3656 C 346.931 3.4819 0.937883 0
M  V30 3657 O 346.035 3.57865 2.04955 0
M  V30 3658 H 345.376 0.656925 0.0966755 0
M  V30 3659 H 347.906 2.01859 -0.33381 0
M  V30 3660 H 347.916 3.88413 1.24897 0
M  V30 3661 H 346.591 4.15699 0.129387 0
M  V30 3662 H 345.168 3.29527 1.74546 0
M  V30 3663 N 347.353 -0.0568162 1.57498 0
M  V30 3664 C 348.263 -1.08346 2.08083 0
M  V30 3665 C 349.279 -1.41439 1.01346 0
M  V30 3666 O 350.455 -1.51316 1.32912 0
M  V30 3667 C 347.52 -2.37352 2.52715 0
M  V30 3668 C 346.581 -2.11093 3.73816 0
M  V30 3669 C 345.814 -3.33949 4.1631 0
M  V30 3670 O 346.037 -4.43622 3.58547 0
M  V30 3671 O 344.971 -3.21279 5.08983 0
M  V30 3672 H 348.797 -0.683667 2.95905 0
M  V30 3673 H 346.382 -0.271965 1.46904 0
M  V30 3674 H 348.264 -3.13246 2.81877 0
M  V30 3675 H 346.939 -2.76681 1.68016 0
M  V30 3676 H 345.846 -1.32856 3.49714 0
M  V30 3677 H 347.179 -1.76637 4.59413 0
M  V30 3678 N 348.832 -1.54138 -0.328536 0
M  V30 3679 C 349.795 -1.82462 -1.38709 0
M  V30 3680 C 350.795 -0.696229 -1.44946 0
M  V30 3681 O 351.985 -0.964535 -1.4506 0
M  V30 3682 C 349.117 -1.98018 -2.77492 0
M  V30 3683 H 350.31 -2.77037 -1.14851 0
M  V30 3684 H 347.863 -1.45779 -0.563751 0
M  V30 3685 H 348.598 -1.05637 -3.06613 0
M  V30 3686 H 348.383 -2.80124 -2.74359 0
M  V30 3687 H 349.873 -2.21396 -3.54081 0
M  V30 3688 N 350.31 0.590341 -1.46126 0
M  V30 3689 C 351.22 1.72793 -1.58681 0
M  V30 3690 C 352.236 1.67516 -0.470566 0
M  V30 3691 O 353.412 1.87562 -0.733642 0
M  V30 3692 C 350.477 3.09287 -1.5666 0
M  V30 3693 C 349.538 3.25886 -2.79458 0
M  V30 3694 C 348.771 4.55869 -2.77524 0
M  V30 3695 O 348.994 5.3928 -1.85832 0
M  V30 3696 O 347.928 4.75552 -3.68964 0
M  V30 3697 H 351.754 1.65149 -2.54872 0
M  V30 3698 H 349.339 0.756486 -1.28832 0
M  V30 3699 H 351.221 3.90577 -1.58202 0
M  V30 3700 H 349.896 3.17385 -0.636271 0
M  V30 3701 H 348.803 2.44119 -2.83472 0
M  V30 3702 H 350.136 3.22675 -3.71674 0
M  V30 3703 N 351.788 1.33704 0.83433 0
M  V30 3704 C 353.034 1.25603 1.59222 0
M  V30 3705 C 353.367 -0.176659 1.93395 0
M  V30 3706 O 352.642 -1.11915 1.59076 0
M  V30 3707 C 352.925 2.13576 2.89926 0
M  V30 3708 C 352.778 3.65326 2.62406 0
M  V30 3709 C 354.097 2.01238 3.91397 0
M  V30 3710 H 351.216 0.457613 0.577719 0
M  V30 3711 H 353.858 1.63848 0.961972 0
M  V30 3712 H 352.008 1.8109 3.43713 0
M  V30 3713 H 353.68 4.08124 2.15017 0
M  V30 3714 H 351.923 3.8698 1.96033 0
M  V30 3715 H 352.594 4.22232 3.55562 0
M  V30 3716 H 355.07 2.29738 3.46929 0
M  V30 3717 H 353.946 2.65036 4.80673 0
M  V30 3718 H 354.207 0.985951 4.30966 0
M  V30 3719 N 353.266 -1.05314 1.17247 0
M  V30 3720 C 354.229 -2.112 0.890357 0
M  V30 3721 C 355.229 -1.60359 -0.118943 0
M  V30 3722 O 356.419 -1.73833 0.113086 0
M  V30 3723 C 353.551 -3.39266 0.333422 0
M  V30 3724 H 354.744 -2.37659 1.82916 0
M  V30 3725 H 352.297 -1.21538 0.982758 0
M  V30 3726 H 353.032 -3.18462 -0.612587 0
M  V30 3727 H 352.817 -3.77477 1.06082 0
M  V30 3728 H 354.307 -4.17315 0.154322 0
M  V30 3729 N 354.744 -0.972509 -1.24016 0
M  V30 3730 C 355.691 -0.505969 -2.25186 0
M  V30 3731 C 356.661 0.451009 -1.5986 0
M  V30 3732 O 357.846 0.360307 -1.87367 0
M  V30 3733 C 354.986 0.193089 -3.44559 0
M  V30 3734 C 354.099 -0.803222 -4.24467 0
M  V30 3735 C 353.234 -0.0797793 -5.3114 0
M  V30 3736 C 352.273 -1.06583 -6.02749 0
M  V30 3737 N 351.41 -0.372074 -7.01113 0
M  V30 3738 H 356.25 -1.37351 -2.64459 0
M  V30 3739 H 353.787 -0.688419 -1.29997 0
M  V30 3740 H 355.745 0.615125 -4.1264 0
M  V30 3741 H 354.375 1.02455 -3.06109 0
M  V30 3742 H 353.427 -1.34368 -3.55878 0
M  V30 3743 H 354.739 -1.55494 -4.73944 0
M  V30 3744 H 353.893 0.400015 -6.0538 0
M  V30 3745 H 352.632 0.704597 -4.82583 0
M  V30 3746 H 351.637 -1.55645 -5.27309 0
M  V30 3747 H 352.862 -1.85074 -6.53395 0
M  V30 3748 H 350.808 0.393238 -6.5482 0
M  V30 3749 H 350.725 -1.06258 -7.48495 0
M  V30 3750 H 351.993 0.0855932 -7.79453 0
M  V30 3751 N 356.222 1.38976 -0.743202 0
M  V30 3752 C 357.155 2.28128 -0.0572165 0
M  V30 3753 C 358.133 1.44827 0.739182 0
M  V30 3754 O 359.317 1.74207 0.720009 0
M  V30 3755 C 356.444 3.25796 0.926001 0
M  V30 3756 C 355.49 4.25947 0.217099 0
M  V30 3757 S 356.323 5.24604 -1.07477 0
M  V30 3758 C 357.479 6.25829 -0.0943545 0
M  V30 3759 H 357.712 2.85961 -0.813246 0
M  V30 3760 H 355.245 1.44822 -0.535341 0
M  V30 3761 H 357.203 3.82583 1.48797 0
M  V30 3762 H 355.864 2.66966 1.65493 0
M  V30 3763 H 355.057 4.94746 0.961372 0
M  V30 3764 H 354.659 3.73002 -0.273059 0
M  V30 3765 H 356.951 6.73411 0.743239 0
M  V30 3766 H 357.894 7.0412 -0.749713 0
M  V30 3767 H 358.302 5.63797 0.281706 0
M  V30 3768 N 357.7 0.491464 1.49741 0
M  V30 3769 C 358.61 -0.296835 2.32715 0
M  V30 3770 C 359.626 -0.976536 1.44013 0
M  V30 3771 O 360.802 -0.960023 1.77047 0
M  V30 3772 C 357.867 -1.35288 3.19215 0
M  V30 3773 C 356.928 -0.687632 4.23757 0
M  V30 3774 C 356.161 -1.69336 5.06123 0
M  V30 3775 O 356.384 -2.92219 4.89861 0
M  V30 3776 O 355.318 -1.25394 5.88693 0
M  V30 3777 H 359.144 0.382048 3.01287 0
M  V30 3778 H 356.729 0.252953 1.47243 0
M  V30 3779 H 358.611 -1.96411 3.72828 0
M  V30 3780 H 357.286 -2.01487 2.53347 0
M  V30 3781 H 356.193 -0.0369159 3.74082 0
M  V30 3782 H 357.526 -0.0682566 4.92153 0
M  V30 3783 N 359.178 -1.55987 0.224894 0
M  V30 3784 C 360.403 -2.03232 -0.41369 0
M  V30 3785 C 360.828 -1.10359 -1.52323 0
M  V30 3786 O 360.186 -0.092395 -1.81064 0
M  V30 3787 C 360.234 -3.48682 -0.919405 0
M  V30 3788 O 359.338 -3.58947 -2.03054 0
M  V30 3789 H 358.679 -0.657428 -0.0931903 0
M  V30 3790 H 361.209 -2.01679 0.34451 0
M  V30 3791 H 361.219 -3.8907 -1.22835 0
M  V30 3792 H 359.894 -4.15761 -0.107339 0
M  V30 3793 H 358.471 -3.30448 -1.72796 0
M  V30 3794 N 360.656 0.0484629 -1.57525 0
M  V30 3795 C 361.933 0.777447 -1.79486 0
M  V30 3796 C 362.313 1.94597 -0.818251 0
M  V30 3797 O 361.661 2.28047 0.143767 0
M  V30 3798 C 361.871 1.22864 -3.26658 0
M  V30 3799 C 363.219 1.65251 -3.91123 0
M  V30 3800 O 364.243 1.32372 -3.3069 0
M  V30 3801 O 363.102 2.26207 -4.97486 0
M  V30 3802 H 360.196 0.374357 -0.737419 0
M  V30 3803 H 362.742 0.0267359 -1.69679 0
M  V30 3804 H 361.514 0.393589 -3.89316 0
M  V30 3805 H 361.137 2.03996 -3.41279 0
M  V30 3806 N 362.134 1.5431 0.320358 0
M  V30 3807 C 363.38 1.72924 1.05949 0
M  V30 3808 C 363.713 0.503185 1.87568 0
M  V30 3809 O 362.988 -0.499839 1.87968 0
M  V30 3810 C 363.271 3.00676 1.98156 0
M  V30 3811 C 363.124 4.3354 1.19845 0
M  V30 3812 C 364.443 3.24198 2.9763 0
M  V30 3813 H 361.562 0.629195 0.383774 0
M  V30 3814 H 364.204 1.87008 0.335854 0
M  V30 3815 H 362.354 2.888 2.59859 0
M  V30 3816 H 364.026 4.57305 0.605773 0
M  V30 3817 H 362.269 4.309 0.500784 0
M  V30 3818 H 362.94 5.19156 1.87567 0
M  V30 3819 H 365.416 3.35557 2.4605 0
M  V30 3820 H 364.292 4.14938 3.59329 0
M  V30 3821 H 364.553 2.41577 3.7026 0
M  V30 3822 N 363.613 -0.582584 1.46437 0
M  V30 3823 C 364.576 -1.67366 1.56592 0
M  V30 3824 C 365.576 -1.54575 0.443072 0
M  V30 3825 O 366.766 -1.59191 0.707381 0
M  V30 3826 C 363.898 -3.06791 1.48634 0
M  V30 3827 H 365.091 -1.5972 2.5383 0
M  V30 3828 H 362.644 -0.800432 1.34249 0
M  V30 3829 H 363.379 -3.19993 0.526763 0
M  V30 3830 H 363.164 -3.17484 2.30101 0
M  V30 3831 H 364.654 -3.86218 1.58826 0
M  V30 3832 N 365.091 -1.34144 -0.827227 0
M  V30 3833 C 366.001 -1.27428 -1.96975 0
M  V30 3834 C 367.017 -0.182728 -1.73038 0
M  V30 3835 O 368.193 -0.408426 -1.97215 0
M  V30 3836 C 365.258 -1.02526 -3.31194 0
M  V30 3837 C 364.319 -2.20796 -3.68168 0
M  V30 3838 C 363.552 -1.97073 -4.95982 0
M  V30 3839 O 363.775 -0.926822 -5.6282 0
M  V30 3840 O 362.709 -2.83912 -5.30733 0
M  V30 3841 H 366.535 -2.23537 -2.05584 0
M  V30 3842 H 364.12 -1.14307 -0.961989 0
M  V30 3843 H 366.002 -0.904026 -4.11589 0
M  V30 3844 H 364.677 -0.0945389 -3.23562 0
M  V30 3845 H 363.584 -2.38477 -2.88235 0
M  V30 3846 H 364.917 -3.12243 -3.8048 0
M  V30 3847 N 366.569 1.04691 -1.17803 0
M  V30 3848 C 367.817 1.7743 -0.967617 0
M  V30 3849 C 368.138 1.88359 0.504574 0
M  V30 3850 O 367.408 1.40402 1.36617 0
M  V30 3851 H 365.988 0.657242 -0.355024 0
M  V30 3852 H 368.65 1.2638 -1.48371 0
M  V30 3853 H 367.746 2.78924 -1.40027 0
M  V30 3854 N 368.047 0.979072 1.23499 0
M  V30 3855 C 368.979 0.476271 2.24197 0
M  V30 3856 C 369.992 -0.421166 1.57258 0
M  V30 3857 O 371.181 -0.225515 1.7707 0
M  V30 3858 C 368.281 -0.330503 3.37285 0
M  V30 3859 C 367.454 0.559744 4.33804 0
M  V30 3860 C 366.513 -0.192954 5.25846 0
M  V30 3861 O 365.539 0.416978 5.67671 0
M  V30 3862 N 366.741 -1.47932 5.61334 0
M  V30 3863 H 369.506 1.34211 2.67969 0
M  V30 3864 H 367.067 0.852189 1.37657 0
M  V30 3865 H 369.059 -0.842361 3.95836 0
M  V30 3866 H 367.629 -1.09734 2.92707 0
M  V30 3867 H 366.849 1.25245 3.73775 0
M  V30 3868 H 368.137 1.1665 4.95248 0
M  V30 3869 H 367.535 -1.9964 5.29302 0
M  V30 3870 H 366.092 -1.93664 6.22364 0
M  V30 3871 N 369.525 -1.3858 0.750561 0
M  V30 3872 C 370.771 -2.00481 0.305825 0
M  V30 3873 C 371.104 -1.5944 -1.10872 0
M  V30 3874 O 370.379 -0.83052 -1.75877 0
M  V30 3875 C 370.662 -3.5758 0.425287 0
M  V30 3876 C 370.515 -4.08594 1.88072 0
M  V30 3877 C 371.834 -4.39719 -0.183122 0
M  V30 3878 H 368.953 -0.728348 0.112598 0
M  V30 3879 H 371.595 -1.64566 0.949638 0
M  V30 3880 H 369.745 -3.88306 -0.122828 0
M  V30 3881 H 371.417 -3.88523 2.48691 0
M  V30 3882 H 369.66 -3.61574 2.39681 0
M  V30 3883 H 370.331 -5.177 1.91548 0
M  V30 3884 H 372.807 -4.15128 0.284303 0
M  V30 3885 H 371.683 -5.48856 -0.0692757 0
M  V30 3886 H 371.944 -4.23434 -1.27106 0
M  V30 3887 N 371.003 -0.499398 -1.49478 0
M  V30 3888 C 372.249 0.0457576 -2.02748 0
M  V30 3889 C 372.582 1.36793 -1.37846 0
M  V30 3890 O 371.857 1.87596 -0.513601 0
M  V30 3891 C 372.14 0.199986 -3.59544 0
M  V30 3892 C 371.993 -1.1452 -4.34977 0
M  V30 3893 C 373.312 0.94137 -4.29914 0
M  V30 3894 H 370.431 0.0151552 -0.736844 0
M  V30 3895 H 373.073 -0.650498 -1.78518 0
M  V30 3896 H 371.223 0.793007 -3.8032 0
M  V30 3897 H 372.895 -1.77697 -4.25701 0
M  V30 3898 H 371.138 -1.73488 -3.97598 0
M  V30 3899 H 371.809 -0.990607 -5.43039 0
M  V30 3900 H 374.285 0.43844 -4.13784 0
M  V30 3901 H 373.161 1.01812 -5.39375 0
M  V30 3902 H 373.422 1.98471 -3.95046 0
M  V30 3903 N 372.481 1.55866 -0.233164 0
M  V30 3904 C 373.727 1.98897 0.395959 0
M  V30 3905 C 374.06 1.12091 1.58585 0
M  V30 3906 O 373.335 0.181182 1.93654 0
M  V30 3907 C 373.618 3.50658 0.819224 0
M  V30 3908 C 373.471 4.48233 -0.375109 0
M  V30 3909 C 374.79 4.07135 1.67121 0
M  V30 3910 H 371.909 0.723102 0.142451 0
M  V30 3911 H 374.551 1.87082 -0.331725 0
M  V30 3912 H 372.701 3.60857 1.43925 0
M  V30 3913 H 374.373 4.50031 -1.01341 0
M  V30 3914 H 372.616 4.21624 -1.02058 0
M  V30 3915 H 373.287 5.51988 -0.0358328 0
M  V30 3916 H 375.763 3.99952 1.14795 0
M  V30 3917 H 374.639 5.13615 1.93625 0
M  V30 3918 H 374.9 3.54736 2.63846 0
M  V30 3919 N 373.959 -0.0401083 1.57549 0
M  V30 3920 C 374.922 -1.02871 2.04817 0
M  V30 3921 C 375.922 -1.29708 0.950388 0
M  V30 3922 O 377.112 -1.24897 1.21435 0
M  V30 3923 C 374.244 -2.36443 2.45576 0
M  V30 3924 H 375.437 -0.620631 2.93408 0
M  V30 3925 H 372.99 -0.286667 1.53649 0
M  V30 3926 H 373.725 -2.82021 1.60108 0
M  V30 3927 H 373.51 -2.18296 3.25713 0
M  V30 3928 H 375 -3.07441 2.82612 0
M  V30 3929 N 375.437 -1.54477 -0.31217 0
M  V30 3930 C 376.848 -1.64344 -0.885891 0
M  V30 3931 C 377.199 -0.54485 -1.88483 0
M  V30 3932 O 376.324 0.320387 -2.14015 0
M  V30 3933 C 376.919 -2.97908 -1.61357 0
M  V30 3934 C 375.478 -3.09933 -2.13585 0
M  V30 3935 C 374.625 -2.59971 -0.964897 0
M  V30 3936 H 377.576 -1.58448 -0.0894528 0
M  V30 3937 H 377.597 -2.88706 -2.47848 0
M  V30 3938 H 377.109 -3.77845 -0.886277 0
M  V30 3939 H 375.21 -2.34694 -2.89395 0
M  V30 3940 H 375.323 -4.15916 -2.37804 0
M  V30 3941 H 373.687 -2.16147 -1.34731 0
M  V30 3942 H 374.47 -3.42376 -0.251742 0
M  V30 3943 N 376.915 0.57481 -1.46744 0
M  V30 3944 C 378.145 1.35659 -1.55821 0
M  V30 3945 C 378.553 1.88129 -0.201036 0
M  V30 3946 O 377.896 1.64723 0.813134 0
M  V30 3947 C 377.958 2.57473 -2.50894 0
M  V30 3948 C 377.622 2.26415 -3.9697 0
M  V30 3949 C 378.619 1.84771 -4.85958 0
M  V30 3950 C 376.304 2.38316 -4.42166 0
M  V30 3951 C 378.298 1.55434 -6.18158 0
M  V30 3952 C 375.985 2.08591 -5.74398 0
M  V30 3953 C 376.983 1.67216 -6.62214 0
M  V30 3954 O 376.671 1.37859 -7.91991 0
M  V30 3955 H 376.403 0.420496 -0.529301 0
M  V30 3956 H 378.957 0.704967 -1.92923 0
M  V30 3957 H 377.187 3.25468 -2.08824 0
M  V30 3958 H 378.876 3.19546 -2.50291 0
M  V30 3959 H 379.642 1.75085 -4.52295 0
M  V30 3960 H 375.521 2.69483 -3.74032 0
M  V30 3961 H 379.065 1.23065 -6.86659 0
M  V30 3962 H 374.962 2.17905 -6.07608 0
M  V30 3963 H 375.73 1.51638 -8.04331 0
M  V30 3964 N 378.394 1.34581 0.820102 0
M  V30 3965 C 379.641 1.27096 1.57648 0
M  V30 3966 C 379.969 -0.158317 1.93855 0
M  V30 3967 O 379.224 -1.12028 1.60463 0
M  V30 3968 C 379.523 2.10997 2.8847 0
M  V30 3969 C 379.189 3.59966 2.71543 0
M  V30 3970 C 377.851 4.00575 2.66634 0
M  V30 3971 C 380.203 4.54548 2.55021 0
M  V30 3972 C 377.531 5.33953 2.43128 0
M  V30 3973 C 379.883 5.88109 2.33047 0
M  V30 3974 C 378.547 6.27878 2.26552 0
M  V30 3975 H 377.817 0.465078 0.576874 0
M  V30 3976 H 380.464 1.6635 0.948671 0
M  V30 3977 H 378.769 1.6458 3.55557 0
M  V30 3978 H 380.466 2.0255 3.46084 0
M  V30 3979 H 377.056 3.27733 2.76205 0
M  V30 3980 H 381.24 4.24069 2.57835 0
M  V30 3981 H 376.496 5.63781 2.3656 0
M  V30 3982 H 380.67 6.60985 2.19251 0
M  V30 3983 H 378.297 7.31162 2.081 0
M  V30 3984 N 379.872 -1.04064 1.18357 0
M  V30 3985 C 381.097 -1.81454 1.00445 0
M  V30 3986 C 381.522 -1.82823 -0.442423 0
M  V30 3987 O 380.88 -1.24555 -1.31741 0
M  V30 3988 C 380.928 -3.24925 1.56384 0
M  V30 3989 O 380.032 -4.04856 0.785209 0
M  V30 3990 H 379.373 -0.560604 0.355835 0
M  V30 3991 H 381.903 -1.31059 1.57114 0
M  V30 3992 H 381.913 -3.75702 1.59097 0
M  V30 3993 H 380.588 -3.23244 2.61699 0
M  V30 3994 H 379.165 -3.63537 0.830399 0
M  V30 3995 N 381.35 -0.985608 -1.22978 0
M  V30 3996 C 382.575 -0.675254 -1.961 0
M  V30 3997 C 383 0.752154 -1.72407 0
M  V30 3998 O 382.358 1.5131 -0.998751 0
M  V30 3999 C 382.406 -0.977899 -3.47087 0
M  V30 4000 O 381.51 -0.072685 -4.12336 0
M  V30 4001 H 380.851 -0.253443 -0.613728 0
M  V30 4002 H 383.381 -1.32061 -1.56272 0
M  V30 4003 H 383.391 -0.916739 -3.97567 0
M  V30 4004 H 382.066 -2.01807 -3.63657 0
M  V30 4005 H 380.643 -0.188703 -3.72422 0
M  V30 4006 N 382.828 1.3818 -0.7579 0
M  V30 4007 C 384.077 1.99261 -0.312744 0
M  V30 4008 C 384.39 1.60846 1.11301 0
M  V30 4009 O 385.596 2.14929 1.65885 0
M  V30 4010 C 384.052 3.56294 -0.50821 0
M  V30 4011 C 383.66 4.03657 -1.94333 0
M  V30 4012 C 385.404 4.24313 -0.125982 0
M  V30 4013 C 383.311 5.53347 -2.08712 0
M  V30 4014 H 382.241 0.745456 -0.113185 0
M  V30 4015 H 384.892 1.57889 -0.935056 0
M  V30 4016 H 383.274 3.95575 0.183353 0
M  V30 4017 H 384.448 3.75655 -2.66871 0
M  V30 4018 H 382.763 3.48376 -2.28086 0
M  V30 4019 H 385.36 5.34279 -0.212125 0
M  V30 4020 H 385.703 4.05962 0.921964 0
M  V30 4021 H 386.236 3.90285 -0.769563 0
M  V30 4022 H 382.975 5.76607 -3.11777 0
M  V30 4023 H 382.495 5.83078 -1.4064 0
M  V30 4024 H 384.174 6.19111 -1.87912 0
M  V30 4025 N 384.306 0.507319 1.49211 0
M  V30 4026 C 385.583 -0.0982702 1.95353 0
M  V30 4027 C 385.963 -1.53516 1.449 0
M  V30 4028 O 385.311 -2.18594 0.66551 0
M  V30 4029 C 385.521 -0.00440283 3.49 0
M  V30 4030 C 386.869 -0.175147 4.24239 0
M  V30 4031 O 387.893 -0.0792891 3.56112 0
M  V30 4032 O 386.752 -0.37276 5.45227 0
M  V30 4033 H 383.846 -0.0918236 0.821887 0
M  V30 4034 H 386.392 0.570307 1.5983 0
M  V30 4035 H 385.164 0.997402 3.78375 0
M  V30 4036 H 384.787 -0.712845 3.91158 0
M  V30 4037 N 385.784 -1.5574 0.241426 0
M  V30 4038 C 387.012 -2.03208 -0.389134 0
M  V30 4039 C 387.427 -1.12082 -1.51931 0
M  V30 4040 O 386.784 -0.134183 -1.82006 0
M  V30 4041 C 386.835 -3.50064 -0.902087 0
M  V30 4042 O 386.556 -4.37717 0.18305 0
M  V30 4043 C 388.057 -4.13268 -1.60389 0
M  V30 4044 H 385.277 -0.664509 -0.0931053 0
M  V30 4045 H 387.821 -2.0124 0.36369 0
M  V30 4046 H 385.976 -3.52583 -1.60511 0
M  V30 4047 H 386.39 -5.24097 -0.205579 0
M  V30 4048 H 387.864 -5.17733 -1.91458 0
M  V30 4049 H 388.341 -3.59434 -2.52397 0
M  V30 4050 H 388.947 -4.14655 -0.945576 0
M  V30 4051 N 387.262 0.0317525 -1.57568 0
M  V30 4052 C 388.225 1.01783 -2.0536 0
M  V30 4053 C 389.225 1.29203 -0.957253 0
M  V30 4054 O 390.415 1.24251 -1.22095 0
M  V30 4055 C 387.547 2.35137 -2.46827 0
M  V30 4056 H 388.74 0.605062 -2.93733 0
M  V30 4057 H 386.293 0.278514 -1.53799 0
M  V30 4058 H 387.028 2.81168 -1.61602 0
M  V30 4059 H 386.813 2.16566 -3.26866 0
M  V30 4060 H 388.303 3.05938 -2.84239 0
M  V30 4061 N 388.74 1.54641 0.303973 0
M  V30 4062 C 389.703 1.84646 1.35789 0
M  V30 4063 C 390.703 0.7192 1.4382 0
M  V30 4064 O 391.893 0.987491 1.43507 0
M  V30 4065 C 389.025 2.02407 2.74307 0
M  V30 4066 H 390.218 2.78829 1.10429 0
M  V30 4067 H 387.771 1.46658 0.540487 0
M  V30 4068 H 388.506 1.10502 3.04893 0
M  V30 4069 H 388.291 2.84453 2.69868 0
M  V30 4070 H 389.781 2.27002 3.50514 0
M  V30 4071 N 390.218 -0.567019 1.47046 0
M  V30 4072 C 391.443 -1.3551 1.57009 0
M  V30 4073 C 391.868 -1.86841 0.217259 0
M  V30 4074 O 391.226 -1.62435 -0.805268 0
M  V30 4075 C 391.274 -2.50777 2.5912 0
M  V30 4076 O 390.378 -3.52706 2.13711 0
M  V30 4077 H 389.719 -0.402919 0.52778 0
M  V30 4078 H 392.249 -0.686241 1.92748 0
M  V30 4079 H 392.259 -2.97481 2.79229 0
M  V30 4080 H 390.934 -2.12771 3.57353 0
M  V30 4081 H 389.511 -3.12374 2.03659 0
M  V30 4082 N 391.696 -1.35014 -0.812953 0
M  V30 4083 C 393.112 -1.14914 -1.10757 0
M  V30 4084 C 393.312 0.0426818 -2.01455 0
M  V30 4085 O 392.368 0.715212 -2.42159 0
M  V30 4086 C 393.681 -2.44911 -1.74468 0
M  V30 4087 C 395.229 -2.5106 -1.86917 0
M  V30 4088 C 395.704 -3.81085 -2.54044 0
M  V30 4089 N 397.195 -3.82301 -2.61535 0
M  V30 4090 C 397.93 -4.79634 -3.14227 0
M  V30 4091 N 397.426 -5.87353 -3.67407 0
M  V30 4092 N 399.219 -4.67078 -3.12721 0
M  V30 4093 H 391.37 -2.1136 -0.20989 0
M  V30 4094 H 393.633 -0.935128 -0.155692 0
M  V30 4095 H 393.339 -3.32267 -1.15289 0
M  V30 4096 H 393.213 -2.58989 -2.74234 0
M  V30 4097 H 395.6 -1.64137 -2.45241 0
M  V30 4098 H 395.681 -2.40901 -0.860242 0
M  V30 4099 H 395.325 -4.68402 -1.96372 0
M  V30 4100 H 395.255 -3.88529 -3.55461 0
M  V30 4101 H 397.746 -3.04465 -2.23851 0
M  V30 4102 H 398.059 -6.57624 -4.05894 0
M  V30 4103 H 396.404 -5.91054 -3.65623 0
M  V30 4104 H 399.595 -3.82067 -2.70449 0
M  V30 4105 H 399.768 -5.43098 -3.53481 0
M  V30 4106 N 393.175 1.03435 -1.18907 0
M  V30 4107 C 394.138 2.09756 -0.923844 0
M  V30 4108 C 395.138 1.60528 0.093416 0
M  V30 4109 O 396.328 1.73631 -0.140727 0
M  V30 4110 C 393.46 3.38692 -0.387354 0
M  V30 4111 H 394.653 2.34719 -1.86674 0
M  V30 4112 H 392.206 1.19959 -1.00197 0
M  V30 4113 H 392.941 3.19396 0.561845 0
M  V30 4114 H 392.726 3.75742 -1.12074 0
M  V30 4115 H 394.216 4.17016 -0.220694 0
M  V30 4116 N 394.653 0.992116 1.22453 0
M  V30 4117 C 395.9 0.667534 1.91181 0
M  V30 4118 C 396.228 -0.800317 1.77271 0
M  V30 4119 O 395.483 -1.59421 1.13505 0
M  V30 4120 C 395.782 1.01832 3.42586 0
M  V30 4121 C 395.448 2.47831 3.76684 0
M  V30 4122 C 394.11 2.87729 3.85701 0
M  V30 4123 C 396.462 3.42466 3.92895 0
M  V30 4124 C 393.79 4.21252 4.08367 0
M  V30 4125 C 396.142 4.75648 4.17064 0
M  V30 4126 C 394.806 5.15288 4.24305 0
M  V30 4127 H 394.076 0.244268 0.699581 0
M  V30 4128 H 396.723 1.24816 1.45235 0
M  V30 4129 H 395.028 0.355769 3.90181 0
M  V30 4130 H 396.725 0.745228 3.94014 0
M  V30 4131 H 393.315 2.15905 3.70247 0
M  V30 4132 H 397.499 3.12814 3.85307 0
M  V30 4133 H 392.755 4.51554 4.122 0
M  V30 4134 H 396.929 5.48924 4.2855 0
M  V30 4135 H 394.556 6.18769 4.41621 0
M  V30 4136 N 396.131 -1.37776 0.765217 0
M  V30 4137 C 397.377 -2.00145 0.327072 0
M  V30 4138 C 397.71 -1.60607 -1.09175 0
M  V30 4139 O 396.985 -0.849127 -1.74986 0
M  V30 4140 C 397.268 -3.57109 0.46319 0
M  V30 4141 C 397.121 -4.06576 1.92395 0
M  V30 4142 C 398.44 -4.39888 -0.136473 0
M  V30 4143 H 395.559 -0.727113 0.120316 0
M  V30 4144 H 398.201 -1.63549 0.967039 0
M  V30 4145 H 396.351 -3.88414 -0.0816358 0
M  V30 4146 H 398.023 -3.85864 2.52798 0
M  V30 4147 H 396.266 -3.59011 2.43503 0
M  V30 4148 H 396.937 -5.15639 1.97028 0
M  V30 4149 H 399.413 -4.14803 0.328317 0
M  V30 4150 H 398.289 -5.48899 -0.0110582 0
M  V30 4151 H 398.55 -4.24758 -1.22608 0
M  V30 4152 N 397.609 -0.515225 -1.4894 0
M  V30 4153 C 398.541 0.292481 -2.27326 0
M  V30 4154 C 399.554 0.917838 -1.3446 0
M  V30 4155 O 400.743 0.798772 -1.5963 0
M  V30 4156 C 397.843 1.42803 -3.07344 0
M  V30 4157 C 397.016 0.907347 -4.27885 0
M  V30 4158 C 396.075 1.92222 -4.89834 0
M  V30 4159 O 395.101 1.48506 -5.49486 0
M  V30 4160 N 396.303 3.25355 -4.80754 0
M  V30 4161 H 399.068 -0.379721 -2.97285 0
M  V30 4162 H 396.629 -0.348638 -1.58102 0
M  V30 4163 H 398.621 2.10481 -3.45658 0
M  V30 4164 H 397.191 2.00414 -2.39902 0
M  V30 4165 H 396.411 0.0550218 -3.94162 0
M  V30 4166 H 397.699 0.538108 -5.05946 0
M  V30 4167 H 397.097 3.6355 -4.33414 0
M  V30 4168 H 395.654 3.88707 -5.23211 0
M  V30 4169 N 399.087 1.5561 -0.249682 0
M  V30 4170 C 400.05 2.20217 0.635394 0
M  V30 4171 C 401.05 1.17227 1.10066 0
M  V30 4172 O 402.24 1.42292 1.00492 0
M  V30 4173 C 399.372 2.84794 1.87363 0
M  V30 4174 H 400.565 2.99814 0.0716752 0
M  V30 4175 H 398.118 1.563 -0.000153234 0
M  V30 4176 H 398.853 2.09142 2.47851 0
M  V30 4177 H 398.638 3.60241 1.5482 0
M  V30 4178 H 400.128 3.3423 2.5036 0
M  V30 4179 N 400.565 -0.0233959 1.57583 0
M  V30 4180 C 401.805 -0.71784 1.9138 0
M  V30 4181 C 402.169 -1.72216 0.848853 0
M  V30 4182 O 403.37 -2.46527 1.07134 0
M  V30 4183 C 401.641 -1.36489 3.30311 0
M  V30 4184 S 403.2 -2.0877 3.85954 0
M  V30 4185 H 400.018 -0.237676 0.670098 0
M  V30 4186 H 402.62 0.0276709 1.9548 0
M  V30 4187 H 401.324 -0.620782 4.05678 0
M  V30 4188 H 400.855 -2.14883 3.29528 0
M  V30 4189 H 402.87 -3.35988 3.65139 0
M  V30 4190 N 402.043 -1.548 -0.295768 0
M  V30 4191 C 402.993 -1.82497 -1.3667 0
M  V30 4192 C 403.977 -0.682434 -1.45711 0
M  V30 4193 O 405.169 -0.943207 -1.49775 0
M  V30 4194 C 402.298 -2.08036 -2.73086 0
M  V30 4195 C 401.384 -3.28488 -2.68247 0
M  V30 4196 N 401.775 -4.48924 -2.33025 0
M  V30 4197 C 400.073 -3.3062 -2.99343 0
M  V30 4198 C 400.774 -5.30956 -2.37613 0
M  V30 4199 N 399.75 -4.68805 -2.75178 0
M  V30 4200 H 403.552 -2.73175 -1.0841 0
M  V30 4201 H 401.066 -1.5437 -0.504361 0
M  V30 4202 H 403.063 -2.26027 -3.5031 0
M  V30 4203 H 401.723 -1.18629 -3.02254 0
M  V30 4204 H 402.734 -4.75432 -2.05389 0
M  V30 4205 H 399.411 -2.51336 -3.33371 0
M  V30 4206 H 400.801 -6.37199 -2.13135 0
M  V30 4207 N 403.521 0.559213 -1.47345 0
M  V30 4208 C 404.769 1.31388 -1.53563 0
M  V30 4209 C 405.09 1.93985 -0.198678 0
M  V30 4210 O 404.36 1.79825 0.777167 0
M  V30 4211 H 402.94 0.487901 -0.565652 0
M  V30 4212 H 405.602 0.65315 -1.8363 0
M  V30 4213 H 404.698 2.10844 -2.30111 0
M  V30 4214 N 404.999 1.35443 0.805782 0
M  V30 4215 C 406.246 1.28761 1.56291 0
M  V30 4216 C 406.574 -0.137747 1.94012 0
M  V30 4217 O 405.829 -1.1032 1.61642 0
M  V30 4218 C 406.128 2.14045 2.86216 0
M  V30 4219 C 405.794 3.62826 2.67709 0
M  V30 4220 C 404.456 4.0338 2.6237 0
M  V30 4221 C 406.808 4.57227 2.50186 0
M  V30 4222 C 404.136 5.36501 2.37451 0
M  V30 4223 C 406.488 5.90547 2.26797 0
M  V30 4224 C 405.152 6.30245 2.1988 0
M  V30 4225 H 404.422 0.471171 0.571908 0
M  V30 4226 H 407.069 1.67347 0.930974 0
M  V30 4227 H 405.374 1.68342 3.53791 0
M  V30 4228 H 407.071 2.0621 3.43917 0
M  V30 4229 H 403.661 3.30644 2.72713 0
M  V30 4230 H 407.845 4.2678 2.53323 0
M  V30 4231 H 403.101 5.66259 2.30567 0
M  V30 4232 H 407.275 6.63274 2.12228 0
M  V30 4233 H 404.902 7.33328 2.00333 0
M  V30 4234 N 406.477 -1.02803 1.19454 0
M  V30 4235 C 407.724 -1.76217 0.997693 0
M  V30 4236 C 408.052 -1.887 -0.47144 0
M  V30 4237 O 407.307 -1.4011 -1.3663 0
M  V30 4238 C 407.606 -3.18941 1.6128 0
M  V30 4239 C 407.272 -3.26463 3.11019 0
M  V30 4240 C 405.934 -3.28223 3.51885 0
M  V30 4241 C 408.286 -3.25542 4.07028 0
M  V30 4242 C 405.614 -3.26719 4.8731 0
M  V30 4243 C 407.966 -3.25579 5.42385 0
M  V30 4244 C 406.63 -3.25637 5.82681 0
M  V30 4245 H 405.9 -0.644823 0.365082 0
M  V30 4246 H 408.547 -1.20655 1.4871 0
M  V30 4247 H 406.852 -3.77587 1.04572 0
M  V30 4248 H 408.549 -3.74415 1.43577 0
M  V30 4249 H 405.139 -3.25822 2.78457 0
M  V30 4250 H 409.323 -3.23362 3.76498 0
M  V30 4251 H 404.579 -3.25089 5.1781 0
M  V30 4252 H 408.753 -3.23817 6.16535 0
M  V30 4253 H 406.38 -3.24226 6.87591 0
M  V30 4254 N 407.956 -0.998596 -1.21925 0
M  V30 4255 C 409.367 -0.711939 -1.72593 0
M  V30 4256 C 409.718 0.770842 -1.80423 0
M  V30 4257 O 408.843 1.60237 -1.4544 0
M  V30 4258 C 409.438 -1.28567 -3.13458 0
M  V30 4259 C 407.997 -1.04828 -3.61508 0
M  V30 4260 C 407.144 -1.4024 -2.39224 0
M  V30 4261 H 410.095 -1.17027 -1.07193 0
M  V30 4262 H 410.116 -0.667098 -3.74607 0
M  V30 4263 H 409.628 -2.36486 -3.07727 0
M  V30 4264 H 407.729 0.0140383 -3.72597 0
M  V30 4265 H 407.842 -1.71566 -4.47328 0
M  V30 4266 H 406.206 -0.821077 -2.41103 0
M  V30 4267 H 406.989 -2.49176 -2.36149 0
M  V30 4268 N 409.434 1.37368 -0.772513 0
M  V30 4269 C 410.344 2.34053 -0.160081 0
M  V30 4270 C 411.36 1.60216 0.678728 0
M  V30 4271 O 412.536 1.92303 0.59847 0
M  V30 4272 C 409.601 3.3939 0.708182 0
M  V30 4273 C 408.662 4.29048 -0.147172 0
M  V30 4274 C 407.895 5.29354 0.679744 0
M  V30 4275 O 408.118 5.3723 1.91678 0
M  V30 4276 O 407.052 6.01835 0.0885444 0
M  V30 4277 H 410.878 2.88159 -0.959053 0
M  V30 4278 H 408.463 1.39543 -0.533685 0
M  V30 4279 H 410.345 4.03839 1.20384 0
M  V30 4280 H 409.02 2.8761 1.48533 0
M  V30 4281 H 407.927 3.67697 -0.689205 0
M  V30 4282 H 409.26 4.84134 -0.887423 0
M  V30 4283 N 410.912 0.523116 1.48665 0
M  V30 4284 C 411.86 -0.256859 2.31177 0
M  V30 4285 C 412.854 -0.94199 1.40794 0
M  V30 4286 O 414.06 -0.867157 1.57735 0
M  V30 4287 H 410.435 -0.1017 0.745091 0
M  V30 4288 H 412.406 0.458739 2.94853 0
M  V30 4289 C 411.155 -1.29503 3.22683 0
M  V30 4290 H 410.478 -0.777248 3.92172 0
M  V30 4291 H 411.918 -1.81233 3.83315 0
M  V30 4292 C 410.377 -2.32501 2.43813 0
M  V30 4293 O 410.907 -3.3881 2.15803 0
M  V30 4294 N 409.113 -2.05538 2.05432 0
M  V30 4295 H 408.66 -1.19104 2.28412 0
M  V30 4296 H 408.618 -2.74676 1.52973 0
M  V30 4297 N 412.39 -1.55475 0.257931 0
M  V30 4298 C 413.353 -2.20551 -0.623706 0
M  V30 4299 C 414.353 -1.17809 -1.09443 0
M  V30 4300 O 415.543 -1.42823 -0.997362 0
M  V30 4301 C 412.675 -2.85784 -1.8585 0
M  V30 4302 H 413.868 -2.99848 -0.0557743 0
M  V30 4303 H 411.421 -1.56298 0.0084422 0
M  V30 4304 H 412.156 -2.10453 -2.46739 0
M  V30 4305 H 411.941 -3.61057 -1.52907 0
M  V30 4306 H 413.431 -3.35553 -2.48584 0
M  V30 4307 N 413.868 0.0150385 -1.57593 0
M  V30 4308 C 415.096 0.714395 -1.94175 0
M  V30 4309 C 415.511 1.68135 -0.858841 0
M  V30 4310 O 414.868 1.81766 0.163567 0
M  V30 4311 C 414.919 1.45933 -3.30735 0
M  V30 4312 O 414.64 0.531167 -4.34868 0
M  V30 4313 C 416.141 2.25456 -3.81686 0
M  V30 4314 H 413.361 0.199923 -0.640525 0
M  V30 4315 H 415.905 -0.0316096 -2.04476 0
M  V30 4316 H 414.06 2.15709 -3.21789 0
M  V30 4317 H 414.474 1.05509 -5.13778 0
M  V30 4318 H 415.948 2.731 -4.79709 0
M  V30 4319 H 416.425 3.07485 -3.13607 0
M  V30 4320 H 417.031 1.60727 -3.9376 0
M  V30 4321 N 415.346 1.54954 0.287554 0
M  V30 4322 C 416.595 1.74081 1.01877 0
M  V30 4323 C 416.908 0.541135 1.87966 0
M  V30 4324 O 418.114 0.614491 2.64455 0
M  V30 4325 C 416.57 3.08042 1.86113 0
M  V30 4326 C 416.178 4.35531 1.04961 0
M  V30 4327 C 417.922 3.36523 2.58752 0
M  V30 4328 C 415.829 5.60538 1.88551 0
M  V30 4329 H 414.759 0.64884 0.384087 0
M  V30 4330 H 417.41 1.81426 0.275101 0
M  V30 4331 H 415.792 2.94696 2.64519 0
M  V30 4332 H 416.966 4.59751 0.31074 0
M  V30 4333 H 415.281 4.14085 0.43843 0
M  V30 4334 H 417.878 4.27122 3.21668 0
M  V30 4335 H 418.221 2.56 3.28283 0
M  V30 4336 H 418.754 3.50901 1.87386 0
M  V30 4337 H 415.493 6.43767 1.23466 0
M  V30 4338 H 415.013 5.40483 2.60074 0
M  V30 4339 H 416.692 5.98297 2.46273 0
M  V30 4340 N 416.824 -0.551391 1.4764 0
M  V30 4341 C 418.052 -1.33357 1.58189 0
M  V30 4342 C 418.467 -1.87342 0.234199 0
M  V30 4343 O 417.824 -1.65301 -0.77343 0
M  V30 4344 C 417.875 -2.49942 2.61173 0
M  V30 4345 O 417.596 -1.98187 3.90709 0
M  V30 4346 C 419.097 -3.42072 2.8196 0
M  V30 4347 H 416.317 -0.40631 0.533998 0
M  V30 4348 H 418.861 -0.667367 1.93304 0
M  V30 4349 H 417.016 -3.12489 2.28975 0
M  V30 4350 H 417.43 -2.74342 4.47031 0
M  V30 4351 H 418.904 -4.20278 3.57869 0
M  V30 4352 H 419.381 -3.95978 1.89995 0
M  V30 4353 H 419.987 -2.85336 3.15378 0
M  V30 4354 N 418.302 -1.35869 -0.798587 0
M  V30 4355 C 419.265 -1.29307 -1.89242 0
M  V30 4356 C 420.265 -0.202747 -1.59517 0
M  V30 4357 O 421.455 -0.456957 -1.681 0
M  V30 4358 C 418.587 -1.00229 -3.25833 0
M  V30 4359 H 419.78 -2.26576 -1.96478 0
M  V30 4360 H 417.333 -1.20509 -0.995358 0
M  V30 4361 H 418.068 -0.033801 -3.24282 0
M  V30 4362 H 417.853 -1.79121 -3.48795 0
M  V30 4363 H 419.343 -0.98219 -4.05885 0
M  V30 4364 N 419.78 1.02168 -1.19998 0
M  V30 4365 C 421.026 1.7606 -1.01855 0
M  V30 4366 C 421.381 1.87178 0.445222 0
M  V30 4367 O 420.674 1.3828 1.32624 0
M  V30 4368 C 420.868 3.18081 -1.62969 0
M  V30 4369 C 420.697 3.20809 -3.15137 0
M  V30 4370 C 419.467 3.28342 -3.84083 0
M  V30 4371 C 421.665 3.07268 -4.1242 0
M  V30 4372 N 419.647 3.2052 -5.23584 0
M  V30 4373 C 421.018 3.0716 -5.38566 0
M  V30 4374 C 423.073 2.91448 -4.03686 0
M  V30 4375 C 421.776 2.92853 -6.56985 0
M  V30 4376 C 423.802 2.78494 -5.21723 0
M  V30 4377 C 423.164 2.79046 -6.46771 0
M  V30 4378 H 419.263 0.655192 -0.426905 0
M  V30 4379 H 421.847 1.21564 -1.52087 0
M  V30 4380 H 420.018 3.70882 -1.15329 0
M  V30 4381 H 421.75 3.80375 -1.38192 0
M  V30 4382 H 418.505 3.34859 -3.34913 0
M  V30 4383 H 418.929 3.19997 -5.96599 0
M  V30 4384 H 423.571 2.89838 -3.07821 0
M  V30 4385 H 421.289 2.93213 -7.53028 0
M  V30 4386 H 424.875 2.67278 -5.16773 0
M  V30 4387 H 423.755 2.69134 -7.36571 0
M  V30 4388 N 421.258 1.00505 1.21394 0
M  V30 4389 C 422.221 0.570459 2.21987 0
M  V30 4390 C 423.221 -0.353211 1.56873 0
M  V30 4391 O 424.411 -0.14349 1.73608 0
M  V30 4392 C 421.543 -0.168555 3.40483 0
M  V30 4393 H 422.736 1.46021 2.6195 0
M  V30 4394 H 420.289 0.793565 1.34656 0
M  V30 4395 H 421.024 -1.07374 3.06009 0
M  V30 4396 H 420.809 0.494823 3.88965 0
M  V30 4397 H 422.299 -0.460362 4.15055 0
M  V30 4398 N 422.737 -1.36956 0.779787 0
M  V30 4399 C 423.647 -2.33965 0.172491 0
M  V30 4400 C 424.663 -1.60574 -0.670222 0
M  V30 4401 O 425.839 -1.92617 -0.588263 0
M  V30 4402 C 422.904 -3.39761 -0.690173 0
M  V30 4403 C 421.965 -4.28964 0.169924 0
M  V30 4404 C 421.198 -5.29707 -0.651662 0
M  V30 4405 O 421.421 -5.38238 -1.88827 0
M  V30 4406 O 420.355 -6.01873 -0.0566264 0
M  V30 4407 H 424.181 -2.87647 0.974321 0
M  V30 4408 H 421.766 -1.39258 0.541078 0
M  V30 4409 H 423.648 -4.04471 -1.1824 0
M  V30 4410 H 422.323 -2.88394 -1.47006 0
M  V30 4411 H 421.23 -3.67326 0.708696 0
M  V30 4412 H 422.563 -4.83656 0.913085 0
M  V30 4413 N 424.215 -0.530993 -1.48385 0
M  V30 4414 C 425.178 0.220497 -2.28137 0
M  V30 4415 C 426.178 0.866851 -1.35434 0
M  V30 4416 O 427.368 0.726746 -1.58316 0
M  V30 4417 C 424.5 1.31921 -3.1434 0
M  V30 4418 H 425.693 -0.479714 -2.96038 0
M  V30 4419 H 423.246 -0.286968 -1.53643 0
M  V30 4420 H 423.981 2.05264 -2.51072 0
M  V30 4421 H 423.766 0.86085 -3.82533 0
M  V30 4422 H 425.256 1.84776 -3.74497 0
M  V30 4423 N 425.693 1.55336 -0.266172 0
M  V30 4424 C 426.656 2.20878 0.612001 0
M  V30 4425 C 427.656 1.18388 1.08816 0
M  V30 4426 O 428.846 1.4335 0.989774 0
M  V30 4427 C 425.978 2.86765 1.84332 0
M  V30 4428 H 427.171 2.99873 0.0398718 0
M  V30 4429 H 424.724 1.56291 -0.0167309 0
M  V30 4430 H 425.459 2.11759 2.45619 0
M  V30 4431 H 425.244 3.61862 1.5099 0
M  V30 4432 H 426.734 3.36867 2.46801 0
M  V30 4433 N 427.171 -0.0066808 1.57599 0
M  V30 4434 C 428.401 -0.703066 1.94269 0
M  V30 4435 C 428.809 -1.68206 0.866222 0
M  V30 4436 O 428.152 -1.82966 -0.164087 0
M  V30 4437 C 428.214 -1.49616 3.26887 0
M  V30 4438 C 427.878 -0.679494 4.5192 0
M  V30 4439 C 428.875 0.0299508 5.19891 0
M  V30 4440 C 426.56 -0.627433 4.98366 0
M  V30 4441 C 428.554 0.780514 6.32603 0
M  V30 4442 C 426.241 0.126861 6.10968 0
M  V30 4443 C 427.239 0.829574 6.77943 0
M  V30 4444 O 426.927 1.57157 7.88389 0
M  V30 4445 H 426.659 -0.201217 0.645359 0
M  V30 4446 H 429.213 0.0385326 2.05364 0
M  V30 4447 H 427.443 -2.28209 3.12182 0
M  V30 4448 H 429.132 -2.07726 3.48719 0
M  V30 4449 H 429.898 -0.00115963 4.85 0
M  V30 4450 H 425.777 -1.16392 4.46065 0
M  V30 4451 H 429.321 1.32954 6.84813 0
M  V30 4452 H 425.218 0.159815 6.45302 0
M  V30 4453 H 425.986 1.48758 8.04868 0
M  V30 4454 N 428.649 -1.55105 -0.279332 0
M  V30 4455 C 429.895 -1.76597 -1.00921 0
M  V30 4456 C 430.25 -0.556831 -1.84166 0
M  V30 4457 O 429.543 0.450573 -1.86227 0
M  V30 4458 C 429.737 -3.0086 -1.92919 0
M  V30 4459 C 429.566 -4.33744 -1.18728 0
M  V30 4460 C 428.336 -4.9712 -0.905545 0
M  V30 4461 C 430.534 -5.11009 -0.580857 0
M  V30 4462 N 428.516 -6.13749 -0.136169 0
M  V30 4463 C 429.887 -6.19976 0.0546661 0
M  V30 4464 C 431.942 -4.95502 -0.488067 0
M  V30 4465 C 430.645 -7.15123 0.774028 0
M  V30 4466 C 432.671 -5.90999 0.217688 0
M  V30 4467 C 432.033 -6.9935 0.841975 0
M  V30 4468 H 428.132 -0.698553 -0.351493 0
M  V30 4469 H 430.716 -1.92595 -0.285531 0
M  V30 4470 H 428.887 -2.86249 -2.62519 0
M  V30 4471 H 430.619 -3.10784 -2.59221 0
M  V30 4472 H 427.374 -4.57903 -1.20921 0
M  V30 4473 H 427.798 -6.7659 0.235665 0
M  V30 4474 H 432.44 -4.11841 -0.956406 0
M  V30 4475 H 430.158 -7.9831 1.25407 0
M  V30 4476 H 433.744 -5.81078 0.289717 0
M  V30 4477 H 432.624 -7.71973 1.37939 0
M  V30 4478 N 430.127 0.543554 -1.4793 0
M  V30 4479 C 431.059 1.665 -1.57513 0
M  V30 4480 C 432.072 1.56156 -0.460333 0
M  V30 4481 O 433.261 1.62865 -0.730573 0
M  V30 4482 C 430.361 3.05063 -1.47614 0
M  V30 4483 C 429.534 3.41024 -2.739 0
M  V30 4484 C 428.593 4.58809 -2.57645 0
M  V30 4485 O 427.619 4.62707 -3.31498 0
M  V30 4486 N 428.821 5.56149 -1.66368 0
M  V30 4487 H 431.586 1.5872 -2.5422 0
M  V30 4488 H 429.147 0.730517 -1.44482 0
M  V30 4489 H 431.139 3.81712 -1.34455 0
M  V30 4490 H 429.709 3.06994 -0.589359 0
M  V30 4491 H 428.929 2.53687 -3.01723 0
M  V30 4492 H 430.217 3.61831 -3.57709 0
M  V30 4493 H 429.615 5.55767 -1.05543 0
M  V30 4494 H 428.172 6.32071 -1.59154 0
M  V30 4495 N 431.605 1.3629 0.791371 0
M  V30 4496 C 432.833 1.33562 1.58016 0
M  V30 4497 C 433.248 -0.0835616 1.88615 0
M  V30 4498 O 432.605 -1.0399 1.49974 0
M  V30 4499 C 432.656 2.15517 2.90232 0
M  V30 4500 O 432.377 3.51902 2.60953 0
M  V30 4501 C 433.878 2.20546 3.84544 0
M  V30 4502 H 431.098 0.458226 0.490173 0
M  V30 4503 H 433.642 1.79361 0.982345 0
M  V30 4504 H 431.797 1.73278 3.46487 0
M  V30 4505 H 432.211 3.94644 3.4548 0
M  V30 4506 H 433.685 2.82252 4.74382 0
M  V30 4507 H 434.162 1.20838 4.2225 0
M  V30 4508 H 434.768 2.63013 3.34222 0
M  V30 4509 N 433.083 -1.0153 1.20538 0
M  V30 4510 C 434.013 -2.11972 0.979295 0
M  V30 4511 C 434.994 -1.6985 -0.0921787 0
M  V30 4512 O 436.179 -1.94089 0.0655932 0
M  V30 4513 C 433.309 -3.43201 0.531984 0
M  V30 4514 C 432.263 -3.9907 1.54685 0
M  V30 4515 C 431.589 -5.26082 0.956127 0
M  V30 4516 C 432.889 -4.32313 2.93092 0
M  V30 4517 H 434.583 -2.31143 1.90298 0
M  V30 4518 H 432.129 -1.11079 0.916372 0
M  V30 4519 H 434.082 -4.1985 0.361044 0
M  V30 4520 H 432.806 -3.23792 -0.427327 0
M  V30 4521 H 431.465 -3.2453 1.70517 0
M  V30 4522 H 431.113 -5.02999 -0.0111538 0
M  V30 4523 H 430.813 -5.64426 1.63393 0
M  V30 4524 H 432.337 -6.05386 0.796284 0
M  V30 4525 H 433.751 -4.99845 2.80763 0
M  V30 4526 H 432.148 -4.81774 3.57791 0
M  V30 4527 H 433.218 -3.41025 3.44717 0
M  V30 4528 N 434.561 -1.01147 -1.20859 0
M  V30 4529 C 435.491 -0.597663 -2.25722 0
M  V30 4530 C 436.472 0.384744 -1.65692 0
M  V30 4531 O 437.657 0.271303 -1.92296 0
M  V30 4532 C 434.787 0.0700149 -3.47229 0
M  V30 4533 C 433.741 -0.832843 -4.19819 0
M  V30 4534 C 433.067 -0.0312202 -5.34691 0
M  V30 4535 C 434.367 -2.1385 -4.76514 0
M  V30 4536 H 436.061 -1.47423 -2.60589 0
M  V30 4537 H 433.607 -0.710301 -1.25263 0
M  V30 4538 H 435.56 0.37103 -4.19763 0
M  V30 4539 H 434.284 0.981259 -3.11511 0
M  V30 4540 H 432.943 -1.11778 -3.49144 0
M  V30 4541 H 432.591 0.881515 -4.95215 0
M  V30 4542 H 432.291 -0.632434 -5.84187 0
M  V30 4543 H 433.815 0.26346 -6.10031 0
M  V30 4544 H 435.229 -1.9002 -5.40893 0
M  V30 4545 H 433.626 -2.69012 -5.36426 0
M  V30 4546 H 434.696 -2.80495 -3.95538 0
M  V30 4547 N 436.039 1.36541 -0.78704 0
M  V30 4548 C 436.969 2.32659 -0.197992 0
M  V30 4549 C 437.95 1.56533 0.665697 0
M  V30 4550 O 439.135 1.84698 0.60001 0
M  V30 4551 C 436.265 3.40778 0.669901 0
M  V30 4552 C 435.219 4.27897 -0.0937039 0
M  V30 4553 C 434.545 5.27163 0.894629 0
M  V30 4554 C 435.845 5.06334 -1.28154 0
M  V30 4555 H 437.539 2.82171 -1.00099 0
M  V30 4556 H 435.085 1.35665 -0.482793 0
M  V30 4557 H 437.038 4.07008 1.09191 0
M  V30 4558 H 435.762 2.89827 1.50558 0
M  V30 4559 H 434.421 3.6322 -0.49666 0
M  V30 4560 H 434.069 4.72486 1.72527 0
M  V30 4561 H 433.769 5.86317 0.388149 0
M  V30 4562 H 435.293 5.96266 1.31525 0
M  V30 4563 H 436.707 5.65617 -0.93541 0
M  V30 4564 H 435.104 5.74888 -1.72115 0
M  V30 4565 H 436.174 4.38114 -2.07807 0
M  V30 4566 N 437.518 0.538854 1.48102 0
M  V30 4567 C 438.766 0.00798599 2.02098 0
M  V30 4568 C 439.087 -1.33922 1.41739 0
M  V30 4569 O 438.357 -1.86932 0.585934 0
M  V30 4570 H 436.937 -3.62179e-05 0.747 0
M  V30 4571 H 439.599 0.7047 1.81714 0
M  V30 4572 H 438.695 -0.0937672 3.11959 0
M  V30 4573 N 438.996 -1.55193 0.274407 0
M  V30 4574 C 440.412 -1.59401 -0.0797543 0
M  V30 4575 C 440.612 -1.29162 -1.54659 0
M  V30 4576 O 439.668 -1.05215 -2.29534 0
M  V30 4577 C 440.981 -2.99257 0.294238 0
M  V30 4578 C 442.529 -3.12072 0.240796 0
M  V30 4579 C 443.004 -4.54194 0.589218 0
M  V30 4580 N 444.495 -4.60033 0.540744 0
M  V30 4581 C 445.23 -5.68027 0.783147 0
M  V30 4582 N 444.726 -6.8417 1.09013 0
M  V30 4583 N 446.519 -5.57572 0.711993 0
M  V30 4584 H 438.67 -1.73113 1.23067 0
M  V30 4585 H 440.933 -0.807197 0.497129 0
M  V30 4586 H 440.639 -3.26217 1.31435 0
M  V30 4587 H 440.513 -3.75427 -0.365281 0
M  V30 4588 H 442.9 -2.84877 -0.770024 0
M  V30 4589 H 442.981 -2.38117 0.934563 0
M  V30 4590 H 442.625 -4.82115 1.59772 0
M  V30 4591 H 442.555 -5.26448 -0.126331 0
M  V30 4592 H 445.046 -3.76599 0.313327 0
M  V30 4593 H 445.359 -7.6243 1.26178 0
M  V30 4594 H 443.704 -6.85787 1.12789 0
M  V30 4595 H 446.895 -4.65714 0.472014 0
M  V30 4596 H 447.068 -6.41659 0.90429 0
M  V30 4597 N 440.474 -0.00167713 -1.576 0
M  V30 4598 C 441.437 0.974046 -2.07473 0
M  V30 4599 C 442.437 1.27143 -0.984444 0
M  V30 4600 O 443.627 1.21633 -1.24703 0
M  V30 4601 C 440.759 2.29849 -2.51759 0
M  V30 4602 H 441.952 0.54262 -2.9495 0
M  V30 4603 H 439.505 0.245829 -1.54355 0
M  V30 4604 H 440.24 2.77677 -1.67529 0
M  V30 4605 H 440.025 2.09584 -3.31386 0
M  V30 4606 H 441.515 2.9984 -2.90664 0
M  V30 4607 N 441.952 1.55251 0.271103 0
M  V30 4608 C 442.915 1.87484 1.31842 0
M  V30 4609 C 443.915 0.749545 1.42262 0
M  V30 4610 O 445.105 1.01771 1.4138 0
M  V30 4611 C 442.237 2.0818 2.69951 0
M  V30 4612 H 443.43 2.81108 1.0449 0
M  V30 4613 H 440.983 1.47771 0.509258 0
M  V30 4614 H 441.718 1.16944 3.02481 0
M  V30 4615 H 441.503 2.90114 2.63774 0
M  V30 4616 H 442.993 2.34385 3.4562 0
M  V30 4617 N 443.43 -0.535701 1.48216 0
M  V30 4618 C 444.362 -1.65662 1.58394 0
M  V30 4619 C 445.375 -1.5591 0.468607 0
M  V30 4620 O 446.564 -1.62475 0.7392 0
M  V30 4621 C 443.664 -3.04276 1.4923 0
M  V30 4622 C 442.837 -3.39567 2.75705 0
M  V30 4623 C 441.896 -4.57436 2.60075 0
M  V30 4624 O 440.922 -4.60942 3.33948 0
M  V30 4625 N 442.124 -5.55259 1.69315 0
M  V30 4626 H 444.889 -1.5737 2.55058 0
M  V30 4627 H 442.45 -0.722845 1.44867 0
M  V30 4628 H 444.442 -3.80994 1.36477 0
M  V30 4629 H 443.012 -3.06677 0.605632 0
M  V30 4630 H 442.232 -2.52083 3.03064 0
M  V30 4631 H 443.52 -3.59929 3.59623 0
M  V30 4632 H 442.918 -5.552 1.08489 0
M  V30 4633 H 441.475 -6.31218 1.62504 0
M  V30 4634 N 444.908 -1.36708 -0.784132 0
M  V30 4635 C 445.871 -1.31307 -1.87859 0
M  V30 4636 C 446.871 -0.219654 -1.59293 0
M  V30 4637 O 448.061 -0.47476 -1.67606 0
M  V30 4638 C 445.193 -1.03679 -3.24751 0
M  V30 4639 H 446.386 -2.28647 -1.94064 0
M  V30 4640 H 443.939 -1.21558 -0.98252 0
M  V30 4641 H 444.674 -0.0681936 -3.24228 0
M  V30 4642 H 444.459 -1.82811 -3.46876 0
M  V30 4643 H 445.949 -1.02518 -4.04821 0
M  V30 4644 N 446.386 1.0089 -1.21074 0
M  V30 4645 C 447.349 2.0775 -0.968129 0
M  V30 4646 C 448.349 1.6069 0.0593445 0
M  V30 4647 O 449.539 1.73293 -0.177525 0
M  V30 4648 C 446.671 3.37794 -0.459108 0
M  V30 4649 H 447.864 2.30707 -1.9161 0
M  V30 4650 H 445.417 1.17807 -1.02719 0
M  V30 4651 H 446.152 3.20516 0.49397 0
M  V30 4652 H 445.937 3.7328 -1.20019 0
M  V30 4653 H 447.427 4.16454 -0.309099 0
M  V30 4654 N 447.864 1.01787 1.20321 0
M  V30 4655 C 449.112 0.706538 1.89347 0
M  V30 4656 C 449.433 -0.766289 1.79313 0
M  V30 4657 O 448.703 -1.55126 1.19635 0
M  V30 4658 H 447.283 0.258348 0.700903 0
M  V30 4659 H 449.945 1.28974 1.46122 0
M  V30 4660 H 449.041 0.991066 2.95946 0
M  V30 4661 N 449.342 -1.36122 0.79427 0
M  V30 4662 C 450.567 -2.03891 0.379871 0
M  V30 4663 C 450.992 -1.59488 -0.997251 0
M  V30 4664 O 450.35 -0.765652 -1.64339 0
M  V30 4665 C 450.398 -3.57687 0.457442 0
M  V30 4666 O 449.502 -4.08931 -0.5338 0
M  V30 4667 H 448.843 -0.6443 0.160541 0
M  V30 4668 H 451.373 -1.73976 1.07673 0
M  V30 4669 H 451.383 -4.06721 0.322792 0
M  V30 4670 H 450.058 -3.89357 1.46199 0
M  V30 4671 H 448.635 -3.71154 -0.360409 0
M  V30 4672 N 450.82 -0.546701 -1.47814 0
M  V30 4673 C 452.066 -0.0269594 -2.03382 0
M  V30 4674 C 452.421 1.30406 -1.41464 0
M  V30 4675 O 451.714 1.8332 -0.557151 0
M  V30 4676 C 451.908 0.134869 -3.57145 0
M  V30 4677 C 451.737 -1.17891 -4.33972 0
M  V30 4678 C 450.507 -1.74336 -4.74273 0
M  V30 4679 C 452.705 -2.09361 -4.69758 0
M  V30 4680 N 450.687 -2.99829 -5.35701 0
M  V30 4681 C 452.058 -3.19431 -5.31379 0
M  V30 4682 C 454.113 -2.09484 -4.51687 0
M  V30 4683 C 452.816 -4.2971 -5.76838 0
M  V30 4684 C 454.842 -3.18767 -4.98138 0
M  V30 4685 C 454.204 -4.27557 -5.59799 0
M  V30 4686 H 450.303 -0.0517733 -0.780284 0
M  V30 4687 H 452.887 -0.731673 -1.80429 0
M  V30 4688 H 451.058 0.80869 -3.79888 0
M  V30 4689 H 452.79 0.655726 -3.99352 0
M  V30 4690 H 449.545 -1.28265 -4.559 0
M  V30 4691 H 449.969 -3.63765 -5.70968 0
M  V30 4692 H 454.611 -1.26663 -4.03381 0
M  V30 4693 H 452.329 -5.13297 -6.24141 0
M  V30 4694 H 455.915 -3.19937 -4.85934 0
M  V30 4695 H 454.795 -5.10725 -5.95088 0
M  V30 4696 N 452.299 1.55045 -0.282633 0
M  V30 4697 C 453.715 1.59441 0.0712997 0
M  V30 4698 C 453.915 1.2998 1.53972 0
M  V30 4699 O 452.971 1.06431 2.28973 0
M  V30 4700 C 454.284 2.99097 -0.310104 0
M  V30 4701 C 455.832 3.1194 -0.257343 0
M  V30 4702 C 456.307 4.53875 -0.613297 0
M  V30 4703 N 457.798 4.5974 -0.565134 0
M  V30 4704 C 458.533 5.67603 -0.81326 0
M  V30 4705 N 458.029 6.83582 -1.1264 0
M  V30 4706 N 459.822 5.57187 -0.741553 0
M  V30 4707 H 451.973 1.72458 -1.23984 0
M  V30 4708 H 454.236 0.804549 -0.501403 0
M  V30 4709 H 453.942 3.25516 -1.33163 0
M  V30 4710 H 453.816 3.75616 0.345366 0
M  V30 4711 H 456.203 2.85281 0.754905 0
M  V30 4712 H 456.284 2.37618 -0.947178 0
M  V30 4713 H 455.928 4.81261 -1.62327 0
M  V30 4714 H 455.858 5.26508 0.09841 0
M  V30 4715 H 458.349 3.76427 -0.333294 0
M  V30 4716 H 458.662 7.6175 -1.30219 0
M  V30 4717 H 457.007 6.85179 -1.16425 0
M  V30 4718 H 460.198 4.65457 -0.496705 0
M  V30 4719 H 460.371 6.41171 -0.938306 0
M  V30 4720 N 453.777 0.010035 1.57597 0
M  V30 4721 C 455.023 -0.673697 1.91283 0
M  V30 4722 C 455.356 -1.72863 0.884979 0
M  V30 4723 O 454.631 -1.94268 -0.0949487 0
M  V30 4724 C 454.914 -1.30766 3.35518 0
M  V30 4725 C 454.767 -0.263578 4.49027 0
M  V30 4726 C 456.086 -2.23105 3.79358 0
M  V30 4727 H 453.205 -0.243439 0.695634 0
M  V30 4728 H 455.847 0.0633864 1.89894 0
M  V30 4729 H 453.997 -1.93588 3.36832 0
M  V30 4730 H 455.669 0.365738 4.59848 0
M  V30 4731 H 453.912 0.413077 4.31829 0
M  V30 4732 H 454.583 -0.746398 5.4693 0
M  V30 4733 H 457.059 -1.70289 3.79659 0
M  V30 4734 H 455.935 -2.64424 4.81011 0
M  V30 4735 H 456.196 -3.11433 3.13787 0
M  V30 4736 N 455.255 -1.55392 -0.262866 0
M  V30 4737 C 456.165 -1.92077 -1.34698 0
M  V30 4738 C 457.181 -0.819227 -1.53508 0
M  V30 4739 O 458.357 -1.11921 -1.67439 0
M  V30 4740 C 455.422 -2.19407 -2.68443 0
M  V30 4741 C 454.483 -3.42905 -2.58292 0
M  V30 4742 C 453.716 -3.68921 -3.85659 0
M  V30 4743 O 453.939 -2.97275 -4.8681 0
M  V30 4744 O 452.873 -4.62455 -3.85252 0
M  V30 4745 H 456.699 -2.84384 -1.06581 0
M  V30 4746 H 454.284 -1.42069 -0.462264 0
M  V30 4747 H 456.166 -2.38365 -3.47506 0
M  V30 4748 H 454.841 -1.30282 -2.96325 0
M  V30 4749 H 453.748 -3.29272 -1.7757 0
M  V30 4750 H 455.081 -4.32282 -2.35358 0
M  V30 4751 N 456.733 0.527833 -1.48498 0
M  V30 4752 C 458.01 1.28905 -1.47115 0
M  V30 4753 C 458.39 2.10297 -0.184007 0
M  V30 4754 O 457.738 2.12728 0.834218 0
M  V30 4755 C 457.948 2.16866 -2.73441 0
M  V30 4756 C 459.296 2.76936 -3.21857 0
M  V30 4757 O 460.32 2.27152 -2.74373 0
M  V30 4758 O 459.179 3.67496 -4.04486 0
M  V30 4759 H 456.273 0.581918 -0.587623 0
M  V30 4760 H 458.819 0.544311 -1.60734 0
M  V30 4761 H 457.591 1.56521 -3.58632 0
M  V30 4762 H 457.214 2.98583 -2.62553 0
M  V30 4763 N 458.211 1.37122 0.776871 0
M  V30 4764 C 459.457 1.32243 1.53752 0
M  V30 4765 C 459.79 -0.0944745 1.9397 0
M  V30 4766 O 459.065 -1.05068 1.6368 0
M  V30 4767 C 459.348 2.25681 2.80607 0
M  V30 4768 C 459.201 3.76127 2.46676 0
M  V30 4769 C 460.52 2.17657 3.82509 0
M  V30 4770 H 457.639 0.481704 0.557791 0
M  V30 4771 H 460.281 1.6778 0.891612 0
M  V30 4772 H 458.431 1.95505 3.35723 0
M  V30 4773 H 460.103 4.16877 1.97513 0
M  V30 4774 H 458.346 3.94946 1.79443 0
M  V30 4775 H 459.017 4.36933 3.37333 0
M  V30 4776 H 461.493 2.44245 3.36873 0
M  V30 4777 H 460.369 2.85185 4.69 0
M  V30 4778 H 460.63 1.16785 4.26396 0
M  V30 4779 N 459.689 -1.00246 1.21608 0
M  V30 4780 C 460.621 -2.09244 0.935401 0
M  V30 4781 C 461.634 -1.62592 -0.0823594 0
M  V30 4782 O 462.823 -1.77865 0.150456 0
M  V30 4783 C 459.923 -3.36724 0.383453 0
M  V30 4784 C 459.096 -4.1245 1.45615 0
M  V30 4785 C 458.155 -5.18219 0.912991 0
M  V30 4786 O 457.181 -5.46337 1.59701 0
M  V30 4787 N 458.383 -5.7987 -0.270478 0
M  V30 4788 H 461.148 -2.33905 1.87373 0
M  V30 4789 H 458.709 -1.16748 1.12167 0
M  V30 4790 H 460.701 -4.047 0.00562157 0
M  V30 4791 H 459.271 -3.09201 -0.459758 0
M  V30 4792 H 458.491 -3.39241 2.00772 0
M  V30 4793 H 459.779 -4.59819 2.17817 0
M  V30 4794 H 459.177 -5.59381 -0.843195 0
M  V30 4795 H 457.734 -6.49126 -0.589794 0
M  V30 4796 N 461.167 -1.02423 -1.1978 0
M  V30 4797 C 462.583 -0.740459 -1.41384 0
M  V30 4798 C 462.783 0.676827 -1.89793 0
M  V30 4799 O 461.839 1.4435 -2.0717 0
M  V30 4800 C 463.152 -1.77264 -2.42895 0
M  V30 4801 C 464.7 -1.79165 -2.56649 0
M  V30 4802 C 465.175 -2.8133 -3.6141 0
M  V30 4803 N 466.666 -2.80118 -3.68901 0
M  V30 4804 C 467.401 -3.55824 -4.49641 0
M  V30 4805 N 466.897 -4.41231 -5.34123 0
M  V30 4806 N 468.69 -3.44387 -4.44246 0
M  V30 4807 H 460.841 -1.9391 -0.866764 0
M  V30 4808 H 463.104 -0.838074 -0.443098 0
M  V30 4809 H 462.81 -2.7884 -2.14339 0
M  V30 4810 H 462.684 -1.59108 -3.42001 0
M  V30 4811 H 465.071 -0.782702 -2.84531 0
M  V30 4812 H 465.152 -2.01396 -1.57713 0
M  V30 4813 H 464.796 -3.82394 -3.34271 0
M  V30 4814 H 464.726 -2.56359 -4.59986 0
M  V30 4815 H 467.217 -2.1817 -3.08562 0
M  V30 4816 H 467.53 -4.95747 -5.92836 0
M  V30 4817 H 465.875 -4.45306 -5.33599 0
M  V30 4818 H 469.066 -2.7708 -3.77285 0
M  V30 4819 H 469.239 -4.0364 -5.06931 0
M  V30 4820 N 462.645 1.35699 -0.801477 0
M  V30 4821 C 463.595 2.2728 -0.181073 0
M  V30 4822 C 464.579 1.47533 0.642098 0
M  V30 4823 O 465.771 1.69785 0.500193 0
M  V30 4824 C 462.9 3.36626 0.673612 0
M  V30 4825 C 461.986 4.23802 -0.159008 0
M  V30 4826 N 462.377 4.90879 -1.2195 0
M  V30 4827 C 460.675 4.45959 0.0602005 0
M  V30 4828 C 461.376 5.5546 -1.72738 0
M  V30 4829 N 460.352 5.33663 -1.03465 0
M  V30 4830 H 464.154 2.76632 -0.992582 0
M  V30 4831 H 461.668 1.49166 -0.642127 0
M  V30 4832 H 463.665 4.01179 1.13408 0
M  V30 4833 H 462.325 2.88828 1.48353 0
M  V30 4834 H 463.336 4.92497 -1.60209 0
M  V30 4835 H 460.013 4.08969 0.839664 0
M  V30 4836 H 461.403 6.18991 -2.61342 0
M  V30 4837 N 464.123 0.554532 1.47522 0
M  V30 4838 C 465.053 -0.182974 2.32782 0
M  V30 4839 C 466.034 -0.911377 1.43624 0
M  V30 4840 O 467.219 -0.892366 1.72483 0
M  V30 4841 C 464.349 -1.21513 3.25349 0
M  V30 4842 C 463.303 -0.603355 4.23726 0
M  V30 4843 C 462.629 -1.73995 5.05598 0
M  V30 4844 C 463.929 0.441121 5.20434 0
M  V30 4845 H 465.623 0.52882 2.94693 0
M  V30 4846 H 463.169 0.255759 1.41711 0
M  V30 4847 H 465.122 -1.73922 3.83835 0
M  V30 4848 H 463.846 -1.95683 2.61487 0
M  V30 4849 H 462.505 -0.10059 3.66462 0
M  V30 4850 H 462.153 -2.47063 4.38143 0
M  V30 4851 H 461.853 -1.3364 5.72201 0
M  V30 4852 H 463.377 -2.26735 5.66942 0
M  V30 4853 H 464.791 0.00319931 5.733 0
M  V30 4854 H 463.188 0.763402 5.95224 0
M  V30 4855 H 464.258 1.33799 4.66075 0
M  V30 4856 N 465.601 -1.54893 0.290851 0
M  V30 4857 C 466.831 -2.04047 -0.323818 0
M  V30 4858 C 467.239 -1.16809 -1.48837 0
M  V30 4859 O 466.582 -0.184145 -1.82775 0
M  V30 4860 C 466.644 -3.49248 -0.852395 0
M  V30 4861 C 466.308 -4.56623 0.185557 0
M  V30 4862 C 467.305 -5.09985 1.01053 0
M  V30 4863 C 464.99 -5.01252 0.324332 0
M  V30 4864 C 466.984 -6.06507 1.96031 0
M  V30 4865 C 464.671 -5.97596 1.27757 0
M  V30 4866 C 465.669 -6.50107 2.09405 0
M  V30 4867 O 465.357 -7.44565 3.03114 0
M  V30 4868 H 465.089 -0.671735 -0.0758129 0
M  V30 4869 H 467.643 -2.00947 0.425393 0
M  V30 4870 H 465.873 -3.49639 -1.65195 0
M  V30 4871 H 467.562 -3.81654 -1.38185 0
M  V30 4872 H 468.328 -4.76307 0.914129 0
M  V30 4873 H 464.207 -4.60015 -0.301213 0
M  V30 4874 H 467.751 -6.47418 2.598 0
M  V30 4875 H 463.648 -6.30691 1.37473 0
M  V30 4876 H 464.416 -7.62334 2.97976 0
M  V30 4877 N 467.08 -0.0183926 -1.57589 0
M  V30 4878 C 468.357 0.700621 -1.82622 0
M  V30 4879 C 468.737 1.90951 -0.90005 0
M  V30 4880 O 468.085 2.28452 0.0469145 0
M  V30 4881 C 468.295 1.08899 -3.31575 0
M  V30 4882 C 469.643 1.48514 -3.9778 0
M  V30 4883 O 470.667 1.18227 -3.36007 0
M  V30 4884 O 469.526 2.04903 -5.06633 0
M  V30 4885 H 466.62 0.342743 -0.752633 0
M  V30 4886 H 469.166 -0.0452548 -1.6964 0
M  V30 4887 H 467.938 0.228113 -3.90635 0
M  V30 4888 H 467.561 1.89338 -3.49624 0
M  V30 4889 N 468.558 1.5553 0.254621 0
M  V30 4890 C 469.807 1.76202 0.981612 0
M  V30 4891 C 470.12 0.580883 1.86776 0
M  V30 4892 O 471.326 0.670448 2.63092 0
M  V30 4893 C 469.782 3.11921 1.79537 0
M  V30 4894 C 469.39 4.37659 0.956991 0
M  V30 4895 C 471.134 3.41936 2.51555 0
M  V30 4896 C 469.041 5.64411 1.76619 0
M  V30 4897 H 467.971 0.656841 0.370237 0
M  V30 4898 H 470.622 1.81969 0.236556 0
M  V30 4899 H 469.004 3.00241 2.58208 0
M  V30 4900 H 470.178 4.60307 0.21315 0
M  V30 4901 H 468.493 4.14922 0.350497 0
M  V30 4902 H 471.09 4.33849 3.12536 0
M  V30 4903 H 471.433 2.62905 3.22779 0
M  V30 4904 H 471.966 3.54797 1.799 0
M  V30 4905 H 468.705 6.46241 1.09783 0
M  V30 4906 H 468.225 5.45877 2.48551 0
M  V30 4907 H 469.904 6.03386 2.33527 0
M  V30 4908 N 470.036 -0.519951 1.48776 0
M  V30 4909 C 471.276 -1.2856 1.58908 0
M  V30 4910 C 471.64 -1.90212 0.261418 0
M  V30 4911 O 472.841 -2.67746 0.237791 0
M  V30 4912 C 471.112 -2.33836 2.70288 0
M  V30 4913 S 472.671 -3.19992 3.0025 0
M  V30 4914 H 469.489 -0.43717 0.560717 0
M  V30 4915 H 472.091 -0.591205 1.86346 0
M  V30 4916 H 470.795 -1.87041 3.653 0
M  V30 4917 H 470.326 -3.07969 2.44783 0
M  V30 4918 H 472.341 -4.34122 2.40317 0
M  V30 4919 N 471.514 -1.37532 -0.769588 0
M  V30 4920 C 472.763 -1.32183 -1.5235 0
M  V30 4921 C 473.076 0.0906555 -1.9539 0
M  V30 4922 O 474.282 0.266628 -2.70188 0
M  V30 4923 C 472.738 -2.32029 -2.75119 0
M  V30 4924 C 472.346 -3.78816 -2.3917 0
M  V30 4925 C 474.09 -2.35694 -3.53056 0
M  V30 4926 C 471.997 -4.70388 -3.58453 0
M  V30 4927 H 470.927 -0.491275 -0.571984 0
M  V30 4928 H 473.578 -1.63004 -0.842739 0
M  V30 4929 H 471.96 -1.94229 -3.45096 0
M  V30 4930 H 473.134 -4.25466 -1.76962 0
M  V30 4931 H 471.449 -3.78117 -1.74402 0
M  V30 4932 H 474.046 -3.01312 -4.41718 0
M  V30 4933 H 474.389 -1.37117 -3.93071 0
M  V30 4934 H 474.922 -2.72212 -2.90078 0
M  V30 4935 H 471.661 -5.70102 -3.23518 0
M  V30 4936 H 471.181 -4.28442 -4.19758 0
M  V30 4937 H 472.86 -4.87628 -4.25239 0
M  V30 4938 N 472.992 0.995999 -1.22138 0
M  V30 4939 C 474.269 1.70834 -0.952642 0
M  V30 4940 C 474.649 2.04257 0.533119 0
M  V30 4941 O 473.997 1.72343 1.50034 0
M  V30 4942 C 474.207 2.96119 -1.84701 0
M  V30 4943 C 475.555 3.68962 -2.10124 0
M  V30 4944 O 476.579 3.0612 -1.82124 0
M  V30 4945 O 475.438 4.82017 -2.57531 0
M  V30 4946 H 472.532 0.745498 -0.357997 0
M  V30 4947 H 475.078 1.05262 -1.33109 0
M  V30 4948 H 473.85 2.67898 -2.85213 0
M  V30 4949 H 473.473 3.6943 -1.46995 0
M  V30 4950 N 474.47 1.03057 1.19235 0
M  V30 4951 C 475.433 0.617418 2.20727 0
M  V30 4952 C 476.433 -0.319856 1.57587 0
M  V30 4953 O 477.623 -0.106633 1.73873 0
M  V30 4954 C 474.755 -0.096296 3.40764 0
M  V30 4955 H 475.948 1.51544 2.58794 0
M  V30 4956 H 473.501 0.821949 1.32942 0
M  V30 4957 H 474.236 -1.00859 3.08217 0
M  V30 4958 H 474.021 0.577217 3.87828 0
M  V30 4959 H 475.511 -0.372219 4.15938 0
M  V30 4960 N 475.948 -1.35272 0.808662 0
M  V30 4961 C 477.359 -1.81179 0.450688 0
M  V30 4962 C 477.71 -1.67143 -1.02751 0
M  V30 4963 O 476.835 -1.20325 -1.79864 0
M  V30 4964 C 477.43 -3.28943 0.811275 0
M  V30 4965 C 475.989 -3.72985 0.505871 0
M  V30 4966 C 475.136 -2.57229 1.03578 0
M  V30 4967 H 478.087 -1.2322 1.00012 0
M  V30 4968 H 478.108 -3.80342 0.109588 0
M  V30 4969 H 477.62 -3.39127 1.88718 0
M  V30 4970 H 475.721 -3.68349 -0.561209 0
M  V30 4971 H 475.834 -4.67677 1.03995 0
M  V30 4972 H 474.198 -2.50548 0.458005 0
M  V30 4973 H 474.981 -2.7019 2.11784 0
M  V30 4974 N 477.426 -0.562348 -1.47226 0
M  V30 4975 C 478.358 0.220011 -2.28142 0
M  V30 4976 C 479.371 0.874596 -1.37312 0
M  V30 4977 O 480.56 0.747583 -1.62091 0
M  V30 4978 C 477.66 1.32953 -3.11732 0
M  V30 4979 C 476.833 0.770759 -4.30556 0
M  V30 4980 C 475.892 1.76541 -4.95701 0
M  V30 4981 O 474.918 1.3095 -5.53932 0
M  V30 4982 N 476.12 3.09896 -4.90861 0
M  V30 4983 H 478.885 -0.474107 -2.95926 0
M  V30 4984 H 476.446 -0.398761 -1.56912 0
M  V30 4985 H 478.438 1.99378 -3.5218 0
M  V30 4986 H 477.008 1.92681 -2.46156 0
M  V30 4987 H 476.228 -0.0704056 -3.94137 0
M  V30 4988 H 477.516 0.376872 -5.07402 0
M  V30 4989 H 476.914 3.49577 -4.44761 0
M  V30 4990 H 475.471 3.71865 -5.35313 0
M  V30 4991 N 478.904 1.54736 -0.299062 0
M  V30 4992 C 480.152 1.99706 0.31017 0
M  V30 4993 C 480.473 1.18896 1.54559 0
M  V30 4994 O 479.743 0.284445 1.93824 0
M  V30 4995 H 478.323 0.737686 0.117596 0
M  V30 4996 H 480.985 1.9054 -0.409943 0
M  V30 4997 H 480.081 3.06596 0.58355 0
M  V30 4998 N 480.382 0.0267497 1.57577 0
M  V30 4999 C 481.793 -0.512413 1.79531 0
M  V30 5000 C 482.144 -1.72391 0.936791 0
M  V30 5001 O 481.269 -2.15903 0.146543 0
M  V30 5002 C 481.864 -0.936378 3.25603 0
M  V30 5003 C 480.423 -1.42067 3.4856 0
M  V30 5004 C 479.57 -0.384278 2.74624 0
M  V30 5005 H 482.521 0.252797 1.56674 0
M  V30 5006 H 482.542 -1.80088 3.35184 0
M  V30 5007 H 482.054 -0.0544332 3.88062 0
M  V30 5008 H 480.155 -2.32262 2.9135 0
M  V30 5009 H 480.268 -1.42968 4.57271 0
M  V30 5010 H 478.632 -0.851855 2.40032 0
M  V30 5011 H 479.415 0.489159 3.39797 0
M  V30 5012 N 481.861 -1.55662 -0.24637 0
M  V30 5013 C 483.107 -1.77782 -0.975779 0
M  V30 5014 C 483.44 -0.592103 -1.84953 0
M  V30 5015 O 482.715 0.409588 -1.90138 0
M  V30 5016 C 482.998 -3.09788 -1.83584 0
M  V30 5017 C 482.851 -4.38764 -0.990241 0
M  V30 5018 C 484.17 -3.38029 -2.81823 0
M  V30 5019 H 481.289 -0.646789 -0.353317 0
M  V30 5020 H 483.931 -1.88398 -0.246248 0
M  V30 5021 H 482.081 -3.00869 -2.45784 0
M  V30 5022 H 483.753 -4.59675 -0.386897 0
M  V30 5023 H 481.996 -4.32798 -0.294626 0
M  V30 5024 H 482.667 -5.27514 -1.62584 0
M  V30 5025 H 485.143 -3.46915 -2.2976 0
M  V30 5026 H 484.019 -4.3161 -3.39122 0
M  V30 5027 H 484.28 -2.58968 -3.58313 0
M  V30 5028 N 483.339 0.512053 -1.4905 0
M  V30 5029 C 484.755 0.84224 -1.35567 0
M  V30 5030 C 484.955 1.97878 -0.380319 0
M  V30 5031 O 484.011 2.51769 0.19201 0
M  V30 5032 C 485.324 1.19286 -2.76028 0
M  V30 5033 C 486.872 1.30171 -2.84648 0
M  V30 5034 C 487.347 1.68568 -4.25851 0
M  V30 5035 N 488.838 1.75638 -4.28609 0
M  V30 5036 C 489.573 2.06769 -5.34821 0
M  V30 5037 N 489.069 2.36201 -6.51292 0
M  V30 5038 N 490.862 2.07927 -5.22229 0
M  V30 5039 H 483.013 -0.237574 -2.11067 0
M  V30 5040 H 485.276 -0.0436747 -0.946993 0
M  V30 5041 H 484.982 0.431199 -3.49047 0
M  V30 5042 H 484.856 2.13889 -3.10695 0
M  V30 5043 H 487.243 2.05411 -2.11873 0
M  V30 5044 H 487.324 0.336457 -2.53578 0
M  V30 5045 H 486.968 0.938824 -4.99148 0
M  V30 5046 H 486.898 2.66174 -4.54377 0
M  V30 5047 H 489.389 1.55097 -3.44606 0
M  V30 5048 H 489.702 2.59112 -7.28066 0
M  V30 5049 H 488.047 2.33681 -6.54536 0
M  V30 5050 H 491.238 1.84403 -4.30248 0
M  V30 5051 H 491.411 2.31856 -6.05101 0
M  V30 5052 N 484.817 1.37938 0.762283 0
M  V30 5053 C 486.063 1.33866 1.52341 0
M  V30 5054 C 486.396 -0.0738961 1.94059 0
M  V30 5055 O 485.671 -1.03326 1.64785 0
M  V30 5056 C 485.954 2.28644 2.78197 0
M  V30 5057 C 485.807 3.78722 2.42672 0
M  V30 5058 C 487.126 2.21702 3.80179 0
M  V30 5059 H 484.245 0.487593 0.55265 0
M  V30 5060 H 486.887 1.68717 0.873767 0
M  V30 5061 H 485.037 1.99055 3.33631 0
M  V30 5062 H 486.709 4.18948 1.93081 0
M  V30 5063 H 484.952 3.96827 1.75244 0
M  V30 5064 H 485.623 4.40486 3.3268 0
M  V30 5065 H 488.099 2.47805 3.34263 0
M  V30 5066 H 486.975 2.90143 4.65949 0
M  V30 5067 H 487.236 1.21301 4.25133 0
M  V30 5068 N 486.295 -0.989507 1.22664 0
M  V30 5069 C 487.205 -2.11449 1.01619 0
M  V30 5070 C 488.221 -1.73962 -0.036545 0
M  V30 5071 O 489.397 -2.00788 0.156924 0
M  V30 5072 C 486.462 -3.41465 0.600204 0
M  V30 5073 C 485.523 -3.93033 1.72695 0
M  V30 5074 C 484.756 -5.16844 1.33071 0
M  V30 5075 O 484.979 -5.7001 0.210975 0
M  V30 5076 O 483.913 -5.6225 2.14845 0
M  V30 5077 H 487.739 -2.32088 1.9588 0
M  V30 5078 H 485.324 -1.09823 1.01289 0
M  V30 5079 H 487.206 -4.19695 0.37873 0
M  V30 5080 H 485.881 -3.22178 -0.313511 0
M  V30 5081 H 484.788 -3.15961 2.00298 0
M  V30 5082 H 486.121 -4.16758 2.61865 0
M  V30 5083 N 487.773 -1.03688 -1.18687 0
M  V30 5084 C 489.189 -0.755413 -1.4059 0
M  V30 5085 C 489.389 0.656659 -1.905 0
M  V30 5086 O 488.445 1.42144 -2.08689 0
M  V30 5087 C 489.758 -1.7983 -2.41001 0
M  V30 5088 C 491.306 -1.81877 -2.54735 0
M  V30 5089 C 491.781 -2.85148 -3.58406 0
M  V30 5090 N 493.272 -2.84015 -3.6591 0
M  V30 5091 C 494.007 -3.60573 -4.45841 0
M  V30 5092 N 493.503 -4.46871 -5.29413 0
M  V30 5093 N 495.296 -3.49079 -4.40568 0
M  V30 5094 H 487.447 -1.94818 -0.846148 0
M  V30 5095 H 489.71 -0.842727 -0.434184 0
M  V30 5096 H 489.416 -2.81097 -2.1137 0
M  V30 5097 H 489.29 -1.62727 -3.40294 0
M  V30 5098 H 491.677 -0.812836 -2.83685 0
M  V30 5099 H 491.758 -2.03057 -1.55568 0
M  V30 5100 H 491.402 -3.85918 -3.30197 0
M  V30 5101 H 491.332 -2.61224 -4.57241 0
M  V30 5102 H 493.823 -2.21431 -3.0623 0
M  V30 5103 H 494.136 -5.02007 -5.87545 0
M  V30 5104 H 492.481 -4.5094 -5.28846 0
M  V30 5105 H 495.672 -2.81066 -3.74325 0
M  V30 5106 H 495.845 -4.08994 -5.02621 0
M  V30 5107 N 489.251 1.34841 -0.815825 0
M  V30 5108 C 490.183 2.28409 -0.190265 0
M  V30 5109 C 491.196 1.50705 0.615771 0
M  V30 5110 O 492.385 1.72822 0.446616 0
M  V30 5111 C 489.485 3.30441 0.752446 0
M  V30 5112 C 488.658 4.37399 -0.00922152 0
M  V30 5113 C 487.717 5.19234 0.853351 0
M  V30 5114 O 486.743 5.68404 0.300919 0
M  V30 5115 N 487.945 5.38248 2.17416 0
M  V30 5116 H 490.71 2.82732 -0.994114 0
M  V30 5117 H 488.271 1.47289 -0.672129 0
M  V30 5118 H 490.263 3.82084 1.33394 0
M  V30 5119 H 488.833 2.76565 1.45707 0
M  V30 5120 H 488.053 3.86567 -0.771979 0
M  V30 5121 H 489.341 5.05992 -0.533807 0
M  V30 5122 H 488.739 4.99961 2.6468 0
M  V30 5123 H 487.296 5.93035 2.70467 0
M  V30 5124 N 490.729 0.570148 1.46925 0
M  V30 5125 C 491.677 -0.183181 2.31878 0
M  V30 5126 C 492.671 -0.896721 1.43719 0
M  V30 5127 O 493.877 -0.816536 1.60414 0
M  V30 5128 H 490.252 -0.077944 0.74795 0
M  V30 5129 H 492.223 0.552312 2.93244 0
M  V30 5130 C 490.972 -1.19172 3.2664 0
M  V30 5131 H 490.295 -0.652088 3.94446 0
M  V30 5132 H 491.735 -1.68946 3.88887 0
M  V30 5133 C 490.194 -2.24627 2.51086 0
M  V30 5134 O 490.724 -3.31773 2.26472 0
M  V30 5135 N 488.93 -1.98898 2.11867 0
M  V30 5136 H 488.477 -1.11777 2.32086 0
M  V30 5137 H 488.435 -2.6967 1.61634 0
M  V30 5138 N 492.207 -1.54576 0.307264 0
M  V30 5139 C 493.155 -2.25208 -0.581723 0
M  V30 5140 C 494.149 -1.26031 -1.13192 0
M  V30 5141 O 495.355 -1.43862 -1.08184 0
M  V30 5142 H 491.73 -0.723173 -0.206214 0
M  V30 5143 H 493.701 -2.98378 0.0364663 0
M  V30 5144 C 492.45 -3.01086 -1.73904 0
M  V30 5145 H 491.773 -3.77208 -1.32491 0
M  V30 5146 H 493.213 -3.5378 -2.33701 0
M  V30 5147 C 491.672 -2.08422 -2.64692 0
M  V30 5148 O 492.202 -1.65636 -3.65961 0
M  V30 5149 N 490.408 -1.74247 -2.32564 0
M  V30 5150 H 489.955 -2.09238 -1.50257 0
M  V30 5151 H 489.913 -1.12524 -2.93574 0
M  V30 5152 N 493.685 -0.035106 -1.57561 0
M  V30 5153 C 494.635 0.954034 -2.0708 0
M  V30 5154 C 495.619 1.2818 -0.972558 0
M  V30 5155 O 496.811 1.26691 -1.23606 0
M  V30 5156 C 493.94 2.23442 -2.60631 0
M  V30 5157 C 493.026 1.93475 -3.77396 0
M  V30 5158 N 493.417 1.33802 -4.87781 0
M  V30 5159 C 491.715 2.23434 -3.85996 0
M  V30 5160 C 492.416 1.21103 -5.68954 0
M  V30 5161 N 491.392 1.70855 -5.16052 0
M  V30 5162 H 495.194 0.487731 -2.89825 0
M  V30 5163 H 492.708 0.169759 -1.6151 0
M  V30 5164 H 494.705 2.95183 -2.94402 0
M  V30 5165 H 493.365 2.70693 -1.79319 0
M  V30 5166 H 494.376 1.01227 -5.07911 0
M  V30 5167 H 491.053 2.73317 -3.15601 0
M  V30 5168 H 492.443 0.749105 -6.67711 0
M  V30 5169 N 495.163 1.55791 0.238111 0
M  V30 5170 C 496.388 1.8244 0.986432 0
M  V30 5171 C 496.813 0.613314 1.7782 0
M  V30 5172 O 496.171 -0.437767 1.75935 0
M  V30 5173 C 496.219 3.06917 1.893 0
M  V30 5174 O 495.323 2.84449 2.98601 0
M  V30 5175 H 494.664 0.601975 0.280218 0
M  V30 5176 H 497.194 2.02987 0.256437 0
M  V30 5177 H 497.204 3.36583 2.30598 0
M  V30 5178 H 495.879 3.947 1.31091 0
M  V30 5179 H 494.456 2.65972 2.61368 0
M  V30 5180 N 496.642 -0.504142 1.49319 0
M  V30 5181 C 498.058 -0.835039 1.36012 0
M  V30 5182 C 498.258 -1.97674 0.390808 0
M  V30 5183 O 497.314 -2.51867 -0.178655 0
M  V30 5184 C 498.627 -1.17821 2.76656 0
M  V30 5185 C 500.175 -1.2866 2.85334 0
M  V30 5186 C 500.65 -1.66307 4.26739 0
M  V30 5187 N 502.141 -1.73362 4.29534 0
M  V30 5188 C 502.876 -2.0393 5.35911 0
M  V30 5189 N 502.372 -2.32744 6.52535 0
M  V30 5190 N 504.165 -2.05155 5.23324 0
M  V30 5191 H 496.316 0.248764 2.10938 0
M  V30 5192 H 498.579 0.0486962 0.946748 0
M  V30 5193 H 498.285 -0.412682 3.4927 0
M  V30 5194 H 498.159 -2.12239 3.11825 0
M  V30 5195 H 500.546 -2.04285 2.1296 0
M  V30 5196 H 500.627 -0.323004 2.53752 0
M  V30 5197 H 500.271 -0.91234 4.99639 0
M  V30 5198 H 500.201 -2.63761 4.55782 0
M  V30 5199 H 502.692 -1.53268 3.45424 0
M  V30 5200 H 503.005 -2.55248 7.2943 0
M  V30 5201 H 501.35 -2.30207 6.55767 0
M  V30 5202 H 504.541 -1.82119 4.3122 0
M  V30 5203 H 504.714 -2.28644 6.06322 0
M  V30 5204 N 498.12 -1.38341 -0.754957 0
M  V30 5205 C 499.05 -1.38176 -1.88227 0
M  V30 5206 C 500.031 -0.247873 -1.68284 0
M  V30 5207 O 501.216 -0.45075 -1.88896 0
M  V30 5208 C 498.346 -1.20471 -3.25736 0
M  V30 5209 C 497.3 -2.3105 -3.60278 0
M  V30 5210 C 496.626 -1.98452 -4.96509 0
M  V30 5211 C 497.926 -3.73305 -3.65295 0
M  V30 5212 H 499.62 -2.32512 -1.88622 0
M  V30 5213 H 497.166 -1.1192 -0.906082 0
M  V30 5214 H 499.119 -1.18982 -4.04254 0
M  V30 5215 H 497.843 -0.225965 -3.25817 0
M  V30 5216 H 496.502 -2.31723 -2.84078 0
M  V30 5217 H 496.15 -0.990641 -4.93148 0
M  V30 5218 H 495.85 -2.7251 -5.20588 0
M  V30 5219 H 497.374 -1.98578 -5.77407 0
M  V30 5220 H 498.788 -3.7467 -4.3393 0
M  V30 5221 H 497.185 -4.46557 -4.00883 0
M  V30 5222 H 498.255 -4.05719 -2.65556 0
M  V30 5223 N 499.598 0.982988 -1.23187 0
M  V30 5224 C 500.823 1.76455 -1.08988 0
M  V30 5225 C 501.248 1.84726 0.354691 0
M  V30 5226 O 500.606 1.30699 1.25649 0
M  V30 5227 C 500.654 3.17094 -1.71708 0
M  V30 5228 O 499.758 4.00648 -0.977477 0
M  V30 5229 H 499.099 0.542988 -0.382177 0
M  V30 5230 H 501.629 1.23413 -1.63188 0
M  V30 5231 H 501.639 3.67684 -1.76841 0
M  V30 5232 H 500.314 3.10389 -2.76823 0
M  V30 5233 H 498.891 3.59161 -1.0029 0
M  V30 5234 N 501.076 1.04316 1.18135 0
M  V30 5235 C 502.301 0.768047 1.92655 0
M  V30 5236 C 502.726 -0.66904 1.758 0
M  V30 5237 O 502.084 -1.46372 1.06981 0
M  V30 5238 C 502.132 1.14239 3.42026 0
M  V30 5239 O 501.236 0.269333 4.1152 0
M  V30 5240 H 500.577 0.282436 0.600937 0
M  V30 5241 H 503.107 1.39367 1.49793 0
M  V30 5242 H 503.117 1.10538 3.92741 0
M  V30 5243 H 501.792 2.18928 3.53615 0
M  V30 5244 H 500.369 0.366175 3.71098 0
M  V30 5245 N 502.554 -1.34406 0.822964 0
M  V30 5246 C 503.97 -1.51275 0.508727 0
M  V30 5247 C 504.17 -1.76776 -0.967083 0
M  V30 5248 O 503.226 -1.81871 -1.75155 0
M  V30 5249 C 504.539 -2.67765 1.36829 0
M  V30 5250 C 506.087 -2.81647 1.36542 0
M  V30 5251 C 506.562 -4.01181 2.20947 0
M  V30 5252 N 508.053 -4.08388 2.18571 0
M  V30 5253 C 508.788 -5.00036 2.80627 0
M  V30 5254 N 508.284 -5.96906 3.51674 0
M  V30 5255 N 510.077 -4.92908 2.70181 0
M  V30 5256 H 502.228 -1.16113 1.77852 0
M  V30 5257 H 504.491 -0.56947 0.757897 0
M  V30 5258 H 504.197 -2.55551 2.41633 0
M  V30 5259 H 504.071 -3.62779 1.03303 0
M  V30 5260 H 506.458 -2.93303 0.325163 0
M  V30 5261 H 506.539 -1.87443 1.74066 0
M  V30 5262 H 506.183 -3.90286 3.25022 0
M  V30 5263 H 506.113 -4.94599 1.80774 0
M  V30 5264 H 508.604 -3.39051 1.66891 0
M  V30 5265 H 508.917 -6.63468 3.96271 0
M  V30 5266 H 507.262 -5.9703 3.5578 0
M  V30 5267 H 510.453 -4.1619 2.14251 0
M  V30 5268 H 510.626 -5.64137 3.18831 0
M  V30 5269 N 504.032 -0.577932 -1.46621 0
M  V30 5270 C 505.281 -0.0594281 -2.01612 0
M  V30 5271 C 505.594 1.30663 -1.45556 0
M  V30 5272 O 506.8 1.91621 -1.92337 0
M  V30 5273 C 505.256 -0.0556666 -3.59857 0
M  V30 5274 C 504.864 -1.41975 -4.24908 0
M  V30 5275 C 506.608 0.409143 -4.22524 0
M  V30 5276 C 504.515 -1.37397 -5.75218 0
M  V30 5277 H 503.445 -0.0184469 -0.753774 0
M  V30 5278 H 506.096 -0.728869 -1.68404 0
M  V30 5279 H 504.478 0.679843 -3.90121 0
M  V30 5280 H 505.652 -2.17461 -4.0626 0
M  V30 5281 H 503.967 -1.82419 -3.74316 0
M  V30 5282 H 506.564 0.46211 -5.32699 0
M  V30 5283 H 506.907 1.42565 -3.91128 0
M  V30 5284 H 507.44 -0.272152 -3.96868 0
M  V30 5285 H 504.179 -2.36714 -6.11267 0
M  V30 5286 H 503.699 -0.661239 -5.96144 0
M  V30 5287 H 505.378 -1.08484 -6.3784 0
M  V30 5288 N 505.51 1.54411 -0.315457 0
M  V30 5289 C 506.473 2.22713 0.54142 0
M  V30 5290 C 507.473 1.2179 1.04995 0
M  V30 5291 O 508.663 1.46426 0.943667 0
M  V30 5292 C 505.795 2.92485 1.75116 0
M  V30 5293 H 506.988 2.99849 -0.0555508 0
M  V30 5294 H 504.541 1.56159 -0.0664453 0
M  V30 5295 H 505.276 2.19466 2.38758 0
M  V30 5296 H 505.061 3.66483 1.39401 0
M  V30 5297 H 506.551 3.44548 2.35959 0
M  V30 5298 N 506.988 0.0434614 1.5754 0
M  V30 5299 C 507.898 -0.94893 2.14552 0
M  V30 5300 C 508.914 -1.34707 1.10136 0
M  V30 5301 O 510.09 -1.42557 1.42266 0
M  V30 5302 C 507.155 -2.208 2.67298 0
M  V30 5303 C 506.216 -1.86893 3.86484 0
M  V30 5304 C 505.449 -3.06797 4.36705 0
M  V30 5305 O 505.672 -4.19921 3.86034 0
M  V30 5306 O 504.606 -2.8826 5.28384 0
M  V30 5307 H 508.432 -0.494099 2.99654 0
M  V30 5308 H 506.017 -0.177989 1.48336 0
M  V30 5309 H 507.899 -2.94686 3.01228 0
M  V30 5310 H 506.574 -2.65436 1.85272 0
M  V30 5311 H 505.481 -1.10347 3.57455 0
M  V30 5312 H 506.814 -1.47062 4.69716 0
M  V30 5313 N 508.466 -1.55915 -0.229846 0
M  V30 5314 C 509.715 -1.77742 -0.953455 0
M  V30 5315 C 510.028 -0.610524 -1.85828 0
M  V30 5316 O 511.234 -0.712219 -2.61992 0
M  V30 5317 C 509.69 -3.14738 -1.74551 0
M  V30 5318 C 509.298 -4.39126 -0.887242 0
M  V30 5319 C 511.042 -3.45895 -2.46084 0
M  V30 5320 C 508.949 -5.67149 -1.67617 0
M  V30 5321 H 507.879 -0.662648 -0.359741 0
M  V30 5322 H 510.53 -1.82322 -0.207576 0
M  V30 5323 H 508.912 -3.04311 -2.53399 0
M  V30 5324 H 510.086 -4.60588 -0.139892 0
M  V30 5325 H 508.401 -4.15427 -0.284443 0
M  V30 5326 H 510.998 -4.38767 -3.05594 0
M  V30 5327 H 511.341 -2.68007 -3.18556 0
M  V30 5328 H 511.874 -3.57614 -1.74233 0
M  V30 5329 H 508.613 -6.47906 -0.994881 0
M  V30 5330 H 508.133 -5.49763 -2.39836 0
M  V30 5331 H 509.812 -6.07025 -2.23898 0
M  V30 5332 N 509.944 0.496216 -1.49584 0
M  V30 5333 C 511.221 1.25755 -1.49816 0
M  V30 5334 C 511.601 2.09859 -0.228572 0
M  V30 5335 O 510.949 2.14449 0.788908 0
M  V30 5336 C 511.159 2.11017 -2.7798 0
M  V30 5337 C 512.507 2.70047 -3.27658 0
M  V30 5338 O 513.531 2.21281 -2.79129 0
M  V30 5339 O 512.39 3.58834 -4.1219 0
M  V30 5340 H 509.484 0.569322 -0.599834 0
M  V30 5341 H 512.03 0.510094 -1.61852 0
M  V30 5342 H 510.802 1.48879 -3.61871 0
M  V30 5343 H 510.425 2.92947 -2.68827 0
M  V30 5344 N 511.423 1.38739 0.74761 0
M  V30 5345 C 512.386 1.36241 1.84312 0
M  V30 5346 C 513.386 0.261811 1.58654 0
M  V30 5347 O 514.576 0.519031 1.66288 0
M  V30 5348 C 511.708 1.12253 3.21888 0
M  V30 5349 H 512.901 2.33712 1.87933 0
M  V30 5350 H 510.454 1.2412 0.949946 0
M  V30 5351 H 511.189 0.154133 3.23934 0
M  V30 5352 H 510.974 1.91943 3.41907 0
M  V30 5353 H 512.464 1.13215 4.0196 0
M  V30 5354 N 512.901 -0.976442 1.23707 0
M  V30 5355 C 514.317 -1.24341 1.00058 0
M  V30 5356 C 514.517 -1.99315 -0.295932 0
M  V30 5357 O 513.573 -2.3123 -1.01435 0
M  V30 5358 C 514.886 -2.03909 2.21001 0
M  V30 5359 C 516.434 -2.17034 2.25534 0
M  V30 5360 C 516.909 -2.99994 3.46075 0
M  V30 5361 N 518.4 -3.07578 3.46338 0
M  V30 5362 C 519.135 -3.72104 4.36264 0
M  V30 5363 N 518.631 -4.3842 5.36432 0
M  V30 5364 N 520.424 -3.69029 4.23998 0
M  V30 5365 H 512.575 -0.47428 2.07037 0
M  V30 5366 H 514.838 -0.272167 0.908091 0
M  V30 5367 H 514.544 -1.56198 3.15111 0
M  V30 5368 H 514.418 -3.04654 2.22409 0
M  V30 5369 H 516.805 -2.63951 1.31961 0
M  V30 5370 H 516.886 -1.15664 2.28156 0
M  V30 5371 H 516.53 -2.53772 4.39957 0
M  V30 5372 H 516.46 -4.01541 3.40694 0
M  V30 5373 H 518.951 -2.60397 2.73865 0
M  V30 5374 H 519.264 -4.85447 6.013 0
M  V30 5375 H 517.609 -4.37116 5.40328 0
M  V30 5376 H 520.8 -3.16392 3.44984 0
M  V30 5377 H 520.973 -4.19034 4.94282 0
M  V30 5378 N 514.379 -1.04941 -1.1758 0
M  V30 5379 C 515.627 -0.756492 -1.87408 0
M  V30 5380 C 515.948 0.718478 -1.81281 0
M  V30 5381 O 515.218 1.519 -1.23706 0
M  V30 5382 H 513.798 -0.276841 -0.693807 0
M  V30 5383 H 516.46 -1.32803 -1.42652 0
M  V30 5384 H 515.556 -1.06918 -2.93215 0
M  V30 5385 N 515.857 1.33968 -0.830081 0
M  V30 5386 C 517.103 1.98357 -0.422191 0
M  V30 5387 C 517.436 1.65633 1.01387 0
M  V30 5388 O 516.711 0.931648 1.70735 0
M  V30 5389 C 516.994 3.54492 -0.633043 0
M  V30 5390 C 516.847 3.96934 -2.11574 0
M  V30 5391 C 518.166 4.40039 -0.0735584 0
M  V30 5392 H 515.285 0.720544 -0.154871 0
M  V30 5393 H 517.927 1.58749 -1.04397 0
M  V30 5394 H 516.077 3.88361 -0.103775 0
M  V30 5395 H 517.749 3.73363 -2.7092 0
M  V30 5396 H 515.992 3.46984 -2.60354 0
M  V30 5397 H 516.663 5.05651 -2.21406 0
M  V30 5398 H 519.139 4.12764 -0.52585 0
M  V30 5399 H 518.015 5.48327 -0.250841 0
M  V30 5400 H 518.276 4.30124 1.02202 0
M  V30 5401 N 517.335 0.585699 1.46312 0
M  V30 5402 C 518.582 0.0724211 2.0237 0
M  V30 5403 C 518.91 -1.28868 1.45683 0
M  V30 5404 O 518.165 -1.85853 0.612945 0
M  V30 5405 C 518.464 -0.0401312 3.57377 0
M  V30 5406 C 518.13 1.25376 4.33119 0
M  V30 5407 C 516.792 1.60824 4.5353 0
M  V30 5408 C 519.144 2.10987 4.76586 0
M  V30 5409 C 516.472 2.81676 5.14661 0
M  V30 5410 C 518.824 3.31068 5.39052 0
M  V30 5411 C 517.488 3.66794 5.5769 0
M  V30 5412 H 516.758 0.0265007 0.740526 0
M  V30 5413 H 519.405 0.762935 1.75646 0
M  V30 5414 H 517.71 -0.813791 3.83255 0
M  V30 5415 H 519.407 -0.453078 3.98432 0
M  V30 5416 H 515.997 0.967808 4.1753 0
M  V30 5417 H 520.181 1.84904 4.60569 0
M  V30 5418 H 515.437 3.0949 5.27282 0
M  V30 5419 H 519.611 3.97672 5.71691 0
M  V30 5420 H 517.238 4.60529 6.04828 0
M  V30 5421 N 518.813 -1.54241 0.323641 0
M  V30 5422 C 519.745 -2.21836 -0.576311 0
M  V30 5423 C 520.758 -1.21837 -1.07979 0
M  V30 5424 O 521.947 -1.48306 -0.99336 0
M  V30 5425 C 519.047 -2.86923 -1.80356 0
M  V30 5426 C 518.22 -4.1306 -1.43875 0
M  V30 5427 C 517.279 -4.6174 -2.52353 0
M  V30 5428 O 516.305 -5.26421 -2.16494 0
M  V30 5429 N 517.507 -4.35974 -3.83284 0
M  V30 5430 H 520.272 -2.997 0.00247987 0
M  V30 5431 H 517.833 -1.61233 0.146848 0
M  V30 5432 H 519.825 -3.16414 -2.52318 0
M  V30 5433 H 518.395 -2.12765 -2.29019 0
M  V30 5434 H 517.615 -3.90334 -0.550752 0
M  V30 5435 H 518.903 -4.95148 -1.17071 0
M  V30 5436 H 518.301 -3.84203 -4.15216 0
M  V30 5437 H 516.858 -4.70119 -4.51477 0
M  V30 5438 N 520.291 -0.0518155 -1.57515 0
M  V30 5439 C 521.537 0.622745 -1.93002 0
M  V30 5440 C 521.87 1.70456 -0.930499 0
M  V30 5441 O 521.145 1.94452 0.0434086 0
M  V30 5442 C 521.428 1.21824 -3.38867 0
M  V30 5443 C 521.281 0.144434 -4.49568 0
M  V30 5444 C 522.6 2.12968 -3.8514 0
M  V30 5445 H 519.719 0.22491 -0.701844 0
M  V30 5446 H 522.361 -0.113711 -1.89659 0
M  V30 5447 H 520.511 1.8459 -3.41846 0
M  V30 5448 H 522.183 -0.48753 -4.58717 0
M  V30 5449 H 520.426 -0.527424 -4.30582 0
M  V30 5450 H 521.097 0.601127 -5.48717 0
M  V30 5451 H 523.573 1.60163 -3.8404 0
M  V30 5452 H 522.449 2.51578 -4.87852 0
M  V30 5453 H 522.71 3.03004 -3.21934 0
M  V30 5454 N 521.769 1.56035 0.221574 0
M  V30 5455 C 523.185 1.49026 0.571271 0
M  V30 5456 C 523.385 0.746912 1.87146 0
M  V30 5457 O 522.441 0.286566 2.50869 0
M  V30 5458 C 523.754 2.93579 0.650522 0
M  V30 5459 C 525.302 3.04099 0.741151 0
M  V30 5460 C 525.777 4.5001 0.851747 0
M  V30 5461 N 527.268 4.54053 0.915968 0
M  V30 5462 C 528.003 5.64232 1.02125 0
M  V30 5463 N 527.499 6.84164 1.09049 0
M  V30 5464 N 529.292 5.52084 1.05639 0
M  V30 5465 H 521.443 2.02791 -0.63162 0
M  V30 5466 H 523.706 0.921736 -0.221602 0
M  V30 5467 H 523.412 3.50912 -0.235253 0
M  V30 5468 H 523.286 3.45476 1.51413 0
M  V30 5469 H 525.673 2.4683 1.61737 0
M  V30 5470 H 525.754 2.55371 -0.148128 0
M  V30 5471 H 525.398 5.07896 -0.0200117 0
M  V30 5472 H 525.328 4.96444 1.75644 0
M  V30 5473 H 527.819 3.67683 0.872782 0
M  V30 5474 H 528.132 7.63883 1.1706 0
M  V30 5475 H 526.477 6.86875 1.05962 0
M  V30 5476 H 529.668 4.57317 0.998953 0
M  V30 5477 H 529.841 6.37983 1.13498 0
M  V30 5478 N 523.247 -0.488276 1.49845 0
M  V30 5479 C 524.493 -1.24065 1.61182 0
M  V30 5480 C 524.848 -1.9004 0.300435 0
M  V30 5481 O 524.141 -1.78341 -0.700365 0
M  V30 5482 C 524.335 -2.32152 2.71735 0
M  V30 5483 C 524.164 -1.76778 4.13497 0
M  V30 5484 C 522.934 -1.57513 4.80123 0
M  V30 5485 C 525.132 -1.27242 4.98311 0
M  V30 5486 N 523.114 -0.972015 6.06156 0
M  V30 5487 C 524.485 -0.791457 6.14928 0
M  V30 5488 C 526.54 -1.15934 4.84214 0
M  V30 5489 C 525.243 -0.208593 7.18997 0
M  V30 5490 C 527.269 -0.590436 5.88445 0
M  V30 5491 C 526.631 -0.119767 7.04298 0
M  V30 5492 H 522.73 -0.443487 0.644083 0
M  V30 5493 H 525.314 -0.545551 1.86901 0
M  V30 5494 H 523.485 -2.99108 2.47768 0
M  V30 5495 H 525.217 -2.99187 2.72523 0
M  V30 5496 H 521.972 -1.82247 4.37131 0
M  V30 5497 H 522.396 -0.689367 6.73481 0
M  V30 5498 H 527.038 -1.5092 3.94947 0
M  V30 5499 H 524.756 0.153501 8.07954 0
M  V30 5500 H 528.342 -0.505548 5.79599 0
M  V30 5501 H 527.222 0.313568 7.83573 0
M  V30 5502 N 524.725 -1.39134 -0.740242 0
M  V30 5503 C 525.657 -1.33332 -1.86428 0
M  V30 5504 C 526.67 -0.243042 -1.60976 0
M  V30 5505 O 527.859 -0.501608 -1.71307 0
M  V30 5506 C 524.959 -1.04626 -3.22346 0
M  V30 5507 C 524.132 -2.24826 -3.75196 0
M  V30 5508 C 523.191 -1.92659 -4.89662 0
M  V30 5509 O 522.217 -2.6529 -5.03597 0
M  V30 5510 N 523.419 -0.889575 -5.73643 0
M  V30 5511 H 526.184 -2.30196 -1.91911 0
M  V30 5512 H 523.745 -1.33168 -0.920756 0
M  V30 5513 H 525.737 -0.811347 -3.96484 0
M  V30 5514 H 524.307 -0.165129 -3.12164 0
M  V30 5515 H 523.527 -2.64301 -2.9247 0
M  V30 5516 H 524.815 -3.05015 -4.07239 0
M  V30 5517 H 524.213 -0.287529 -5.64969 0
M  V30 5518 H 522.77 -0.714557 -6.47871 0
M  V30 5519 N 526.204 0.969867 -1.24223 0
M  V30 5520 C 527.429 1.75289 -1.10853 0
M  V30 5521 C 527.854 1.85091 0.335079 0
M  V30 5522 O 527.212 1.32024 1.24255 0
M  V30 5523 C 527.26 3.15255 -1.75062 0
M  V30 5524 O 526.364 3.99589 -1.01992 0
M  V30 5525 H 525.705 0.538904 -0.387915 0
M  V30 5526 H 528.235 1.21675 -1.64488 0
M  V30 5527 H 528.245 3.65787 -1.80731 0
M  V30 5528 H 526.92 3.07436 -2.801 0
M  V30 5529 H 525.497 3.58077 -1.04094 0
M  V30 5530 N 527.682 1.05563 1.17022 0
M  V30 5531 C 529.093 0.793475 1.69 0
M  V30 5532 C 529.444 -0.683882 1.83895 0
M  V30 5533 O 528.569 -1.53116 1.5292 0
M  V30 5534 C 529.164 1.43376 3.06967 0
M  V30 5535 C 527.723 1.21956 3.56095 0
M  V30 5536 C 526.87 1.51494 2.3226 0
M  V30 5537 H 529.821 1.22008 1.01487 0
M  V30 5538 H 529.842 0.845068 3.70997 0
M  V30 5539 H 529.354 2.50899 2.96093 0
M  V30 5540 H 527.455 0.163749 3.7224 0
M  V30 5541 H 527.568 1.92713 4.38633 0
M  V30 5542 H 525.932 0.935175 2.3691 0
M  V30 5543 H 526.715 2.60159 2.23992 0
M  V30 5544 N 529.16 -1.33526 0.837174 0
M  V30 5545 C 530.07 -2.33023 0.271568 0
M  V30 5546 C 531.086 -1.63272 -0.601514 0
M  V30 5547 O 532.262 -1.94939 -0.506038 0
M  V30 5548 C 529.327 -3.42382 -0.545448 0
M  V30 5549 C 528.388 -4.27857 0.351709 0
M  V30 5550 C 527.621 -5.31994 -0.426409 0
M  V30 5551 O 527.844 -5.45763 -1.65828 0
M  V30 5552 O 526.778 -6.01572 0.1987 0
M  V30 5553 H 530.604 -2.83256 1.09545 0
M  V30 5554 H 528.189 -1.36837 0.599655 0
M  V30 5555 H 530.071 -4.09122 -1.00979 0
M  V30 5556 H 528.746 -2.94369 -1.34641 0
M  V30 5557 H 527.653 -3.6399 0.863853 0
M  V30 5558 H 528.986 -4.79349 1.1174 0
M  V30 5559 N 530.638 -0.59345 -1.46 0
M  V30 5560 C 532.049 -0.169801 -1.85926 0
M  V30 5561 C 532.4 1.26984 -1.49565 0
M  V30 5562 O 531.525 1.96076 -0.915602 0
M  V30 5563 C 532.12 -0.301385 -3.37457 0
M  V30 5564 C 530.679 0.0674684 -3.7634 0
M  V30 5565 C 529.826 -0.632383 -2.69993 0
M  V30 5566 H 532.777 -0.801014 -1.37002 0
M  V30 5567 H 532.798 0.470331 -3.77582 0
M  V30 5568 H 532.31 -1.34927 -3.63891 0
M  V30 5569 H 530.411 1.11507 -3.55523 0
M  V30 5570 H 530.524 -0.316332 -4.78055 0
M  V30 5571 H 528.888 -0.0714961 -2.546 0
M  V30 5572 H 529.671 -1.68212 -2.99265 0
M  V30 5573 N 532.116 1.54067 -0.331816 0
M  V30 5574 C 533.365 1.99895 0.269209 0
M  V30 5575 C 533.678 1.22371 1.52593 0
M  V30 5576 O 534.884 1.58618 2.20347 0
M  V30 5577 C 533.34 3.55972 0.530244 0
M  V30 5578 C 532.948 4.4234 -0.709901 0
M  V30 5579 C 534.692 4.10247 1.09077 0
M  V30 5580 C 532.599 5.89905 -0.420312 0
M  V30 5581 H 531.529 0.746741 0.104371 0
M  V30 5582 H 534.18 1.78014 -0.445324 0
M  V30 5583 H 532.562 3.73873 1.30518 0
M  V30 5584 H 533.736 4.36215 -1.48504 0
M  V30 5585 H 532.051 3.98997 -1.19123 0
M  V30 5586 H 534.648 5.18095 1.32219 0
M  V30 5587 H 534.991 3.62739 2.0427 0
M  V30 5588 H 535.524 3.96011 0.376824 0
M  V30 5589 H 532.263 6.41623 -1.34164 0
M  V30 5590 H 531.783 5.98962 0.316962 0
M  V30 5591 H 533.462 6.46991 -0.0331956 0
M  V30 5592 N 533.594 0.0601682 1.57485 0
M  V30 5593 C 535.01 -0.296422 1.56823 0
M  V30 5594 C 535.21 -1.70831 1.0686 0
M  V30 5595 O 534.266 -2.4174 0.729245 0
M  V30 5596 C 535.579 -0.116681 3.00474 0
M  V30 5597 C 537.127 -0.187103 3.1244 0
M  V30 5598 C 537.602 -0.035783 4.57986 0
M  V30 5599 N 539.093 -0.0917676 4.63109 0
M  V30 5600 C 539.828 0.00107251 5.734 0
M  V30 5601 N 539.324 0.146773 6.92645 0
M  V30 5602 N 541.117 -0.0551577 5.62073 0
M  V30 5603 H 533.268 0.983055 1.88281 0
M  V30 5604 H 535.531 0.382386 0.867459 0
M  V30 5605 H 535.237 0.85712 3.41096 0
M  V30 5606 H 535.111 -0.873929 3.66936 0
M  V30 5607 H 537.498 -1.15138 2.71712 0
M  V30 5608 H 537.579 0.601052 2.48638 0
M  V30 5609 H 537.223 0.925212 4.99402 0
M  V30 5610 H 537.153 -0.843196 5.19806 0
M  V30 5611 H 539.644 -0.203261 3.77353 0
M  V30 5612 H 539.957 0.210076 7.72514 0
M  V30 5613 H 538.302 0.181979 6.94762 0
M  V30 5614 H 541.493 -0.167605 4.678 0
M  V30 5615 H 541.666 0.020652 6.47997 0
M  V30 5616 N 535.072 -1.5615 -0.213296 0
M  V30 5617 C 536.483 -1.69645 -0.779582 0
M  V30 5618 C 536.834 -0.663615 -1.84636 0
M  V30 5619 O 535.959 0.183633 -2.15619 0
M  V30 5620 C 536.554 -3.07567 -1.42084 0
M  V30 5621 C 535.113 -3.22889 -1.93442 0
M  V30 5622 C 534.26 -2.65581 -0.797612 0
M  V30 5623 H 537.211 -1.58696 0.0114951 0
M  V30 5624 H 537.232 -3.03884 -2.28986 0
M  V30 5625 H 536.744 -3.82716 -0.644187 0
M  V30 5626 H 534.845 -2.52623 -2.73884 0
M  V30 5627 H 534.958 -4.30197 -2.10872 0
M  V30 5628 H 533.322 -2.24278 -1.20712 0
M  V30 5629 H 534.105 -3.43284 -0.033494 0
M  V30 5630 N 536.55 0.480323 -1.50102 0
M  V30 5631 C 537.827 1.24159 -1.51142 0
M  V30 5632 C 538.207 2.09605 -0.250818 0
M  V30 5633 O 537.555 2.15274 0.766118 0
M  V30 5634 C 537.765 2.08057 -2.80202 0
M  V30 5635 C 539.113 2.66556 -3.30504 0
M  V30 5636 O 540.137 2.18308 -2.81461 0
M  V30 5637 O 538.996 3.54442 -4.15973 0
M  V30 5638 H 536.09 0.562928 -0.605839 0
M  V30 5639 H 538.636 0.492899 -1.62384 0
M  V30 5640 H 537.408 1.45032 -3.6343 0
M  V30 5641 H 537.031 2.90079 -2.71919 0
M  V30 5642 N 538.028 1.39524 0.732853 0
M  V30 5643 C 539.439 1.32905 1.31122 0
M  V30 5644 C 539.79 -0.00558708 1.96199 0
M  V30 5645 O 538.915 -0.907706 1.96443 0
M  V30 5646 C 539.51 2.40704 2.38426 0
M  V30 5647 C 538.069 2.37599 2.91931 0
M  V30 5648 C 537.216 2.2248 1.65523 0
M  V30 5649 H 540.167 1.49581 0.530207 0
M  V30 5650 H 540.188 2.07616 3.18867 0
M  V30 5651 H 539.7 3.37829 1.91033 0
M  V30 5652 H 537.801 1.44119 3.43599 0
M  V30 5653 H 537.914 3.32538 3.44899 0
M  V30 5654 H 536.278 1.69691 1.8994 0
M  V30 5655 H 537.061 3.21577 1.20178 0
M  V30 5656 N 539.506 -0.963266 1.24736 0
M  V30 5657 C 540.736 -1.73913 1.11524 0
M  V30 5658 C 541.144 -1.86218 -0.334612 0
M  V30 5659 O 540.487 -1.3531 -1.24245 0
M  V30 5660 C 540.549 -3.17501 1.68622 0
M  V30 5661 C 540.213 -3.28655 3.17546 0
M  V30 5662 C 541.21 -3.13637 4.14642 0
M  V30 5663 C 538.895 -3.52753 3.5759 0
M  V30 5664 C 540.889 -3.2255 5.49764 0
M  V30 5665 C 538.576 -3.61303 4.92852 0
M  V30 5666 C 539.574 -3.46214 5.88748 0
M  V30 5667 O 539.262 -3.5443 7.2155 0
M  V30 5668 H 538.994 -0.552057 0.390139 0
M  V30 5669 H 541.548 -1.2177 1.65412 0
M  V30 5670 H 539.778 -3.70969 1.09172 0
M  V30 5671 H 541.467 -3.76914 1.50635 0
M  V30 5672 H 542.233 -2.94899 3.85045 0
M  V30 5673 H 538.112 -3.63561 2.83451 0
M  V30 5674 H 541.656 -3.1069 6.24594 0
M  V30 5675 H 537.553 -3.79556 5.22118 0
M  V30 5676 H 538.321 -3.71116 7.29531 0
M  V30 5677 N 540.985 -1.06182 -1.16461 0
M  V30 5678 C 542.231 -0.779015 -1.87241 0
M  V30 5679 C 542.564 0.692715 -1.81425 0
M  V30 5680 O 541.839 1.5074 -1.22913 0
M  V30 5681 C 542.122 -1.2728 -3.36856 0
M  V30 5682 C 541.975 -2.80821 -3.51368 0
M  V30 5683 C 543.294 -0.879799 -4.31216 0
M  V30 5684 H 540.413 -0.284464 -0.679889 0
M  V30 5685 H 543.055 -1.31755 -1.36896 0
M  V30 5686 H 541.205 -0.814673 -3.79862 0
M  V30 5687 H 542.877 -3.34833 -3.17308 0
M  V30 5688 H 541.12 -3.19606 -2.93316 0
M  V30 5689 H 541.791 -3.10435 -4.56436 0
M  V30 5690 H 544.267 -1.27436 -3.96105 0
M  V30 5691 H 543.143 -1.25278 -5.34412 0
M  V30 5692 H 543.404 0.215372 -4.41575 0
M  V30 5693 N 542.463 1.3308 -0.844243 0
M  V30 5694 C 543.709 1.97898 -0.443206 0
M  V30 5695 C 544.042 1.66699 0.99625 0
M  V30 5696 O 543.317 0.949704 1.69738 0
M  V30 5697 C 543.6 3.53801 -0.670606 0
M  V30 5698 C 543.453 3.94667 -2.15772 0
M  V30 5699 C 544.772 4.39936 -0.120226 0
M  V30 5700 H 541.891 0.718861 -0.162504 0
M  V30 5701 H 544.533 1.57633 -1.06075 0
M  V30 5702 H 542.683 3.88229 -0.14496 0
M  V30 5703 H 544.355 3.70469 -2.74865 0
M  V30 5704 H 542.598 3.44203 -2.6402 0
M  V30 5705 H 543.269 5.03275 -2.26757 0
M  V30 5706 H 545.745 4.12183 -0.5696 0
M  V30 5707 H 544.621 5.4803 -0.308984 0
M  V30 5708 H 544.882 4.31184 0.976347 0
M  V30 5709 N 543.941 0.601185 1.45683 0
M  V30 5710 C 545.187 0.0940202 2.02582 0
M  V30 5711 C 545.52 -1.26972 1.46941 0
M  V30 5712 O 544.795 -1.83613 0.641612 0
M  V30 5713 C 545.078 0.0481715 3.60068 0
M  V30 5714 C 544.931 1.44212 4.26055 0
M  V30 5715 C 546.25 -0.642975 4.35378 0
M  V30 5716 H 543.369 0.0356404 0.736138 0
M  V30 5717 H 546.011 0.771929 1.73612 0
M  V30 5718 H 544.161 -0.529128 3.8488 0
M  V30 5719 H 545.833 2.06601 4.12449 0
M  V30 5720 H 544.076 2.00465 3.84703 0
M  V30 5721 H 544.747 1.36234 5.34925 0
M  V30 5722 H 547.223 -0.152351 4.15821 0
M  V30 5723 H 546.099 -0.644141 5.45107 0
M  V30 5724 H 546.36 -1.70785 4.0778 0
M  V30 5725 N 545.419 -1.53889 0.339982 0
M  V30 5726 C 546.369 -2.2165 -0.534354 0
M  V30 5727 C 547.353 -1.20266 -1.06887 0
M  V30 5728 O 548.545 -1.45827 -1.00316 0
M  V30 5729 C 545.674 -2.99014 -1.68659 0
M  V30 5730 C 544.76 -4.07751 -1.16618 0
M  V30 5731 N 545.151 -5.04469 -0.366717 0
M  V30 5732 C 543.449 -4.21998 -1.4434 0
M  V30 5733 C 544.15 -5.81638 -0.0847275 0
M  V30 5734 N 543.126 -5.39388 -0.675391 0
M  V30 5735 H 546.928 -2.93781 0.0835562 0
M  V30 5736 H 544.442 -1.61736 0.146665 0
M  V30 5737 H 546.439 -3.46056 -2.32489 0
M  V30 5738 H 545.099 -2.28408 -2.30781 0
M  V30 5739 H 546.11 -5.17899 -0.00811038 0
M  V30 5740 H 542.787 -3.62612 -2.06928 0
M  V30 5741 H 544.177 -6.69563 0.559943 0
M  V30 5742 N 546.897 -0.0685191 -1.57451 0
M  V30 5743 C 547.845 0.917577 -2.13736 0
M  V30 5744 C 548.839 1.31049 -1.07344 0
M  V30 5745 O 550.045 1.28811 -1.25728 0
M  V30 5746 H 546.42 0.313835 -0.683382 0
M  V30 5747 H 548.391 0.417903 -2.95459 0
M  V30 5748 C 547.14 2.17686 -2.71123 0
M  V30 5749 H 546.463 1.88336 -3.52661 0
M  V30 5750 H 547.903 2.84803 -3.14107 0
M  V30 5751 C 546.362 2.9332 -1.65726 0
M  V30 5752 O 546.892 3.86901 -1.08031 0
M  V30 5753 N 545.098 2.56367 -1.36837 0
M  V30 5754 H 544.645 1.80341 -1.83943 0
M  V30 5755 H 544.603 3.07276 -0.665501 0
M  V30 5756 N 548.375 1.56261 0.205012 0
M  V30 5757 C 549.305 1.96779 1.257 0
M  V30 5758 C 550.286 0.838309 1.48008 0
M  V30 5759 O 551.471 1.10189 1.59913 0
M  V30 5760 C 548.601 2.29876 2.60335 0
M  V30 5761 C 547.555 3.45469 2.52656 0
M  V30 5762 C 546.881 3.64215 3.91473 0
M  V30 5763 C 548.181 4.79954 2.06014 0
M  V30 5764 H 549.875 2.84904 0.920338 0
M  V30 5765 H 547.421 1.37072 0.441277 0
M  V30 5766 H 549.374 2.56814 3.34102 0
M  V30 5767 H 548.098 1.38622 2.95722 0
M  V30 5768 H 546.757 3.18605 1.81345 0
M  V30 5769 H 546.405 2.70309 4.24196 0
M  V30 5770 H 546.105 4.41973 3.87213 0
M  V30 5771 H 547.629 3.93519 4.66878 0
M  V30 5772 H 549.043 5.05989 2.69533 0
M  V30 5773 H 547.44 5.61111 2.12777 0
M  V30 5774 H 548.51 4.74201 1.01297 0
M  V30 5775 N 549.853 -0.472356 1.50355 0
M  V30 5776 C 551.13 -1.23356 1.51798 0
M  V30 5777 C 551.51 -2.09469 0.26193 0
M  V30 5778 O 550.858 -2.15677 -0.754691 0
M  V30 5779 C 551.068 -2.06568 2.81302 0
M  V30 5780 C 552.416 -2.648 3.31913 0
M  V30 5781 O 553.44 -2.16812 2.82614 0
M  V30 5782 O 552.299 -3.52231 4.17846 0
M  V30 5783 H 549.393 -0.559707 0.608816 0
M  V30 5784 H 551.939 -0.48428 1.62643 0
M  V30 5785 H 550.711 -1.43103 3.64194 0
M  V30 5786 H 550.334 -2.88633 2.73454 0
M  V30 5787 N 551.331 -1.39911 -0.725443 0
M  V30 5788 C 552.608 -1.28158 -1.47766 0
M  V30 5789 C 552.988 0.104545 -2.10841 0
M  V30 5790 O 552.336 1.11657 -1.99361 0
M  V30 5791 C 552.546 -2.41306 -2.52135 0
M  V30 5792 C 553.894 -2.81076 -3.18247 0
M  V30 5793 O 554.918 -2.40827 -2.62452 0
M  V30 5794 O 553.777 -3.50581 -4.19231 0
M  V30 5795 H 550.871 -0.502761 -0.656628 0
M  V30 5796 H 553.417 -1.51808 -0.758456 0
M  V30 5797 H 552.189 -3.33932 -2.03974 0
M  V30 5798 H 551.812 -2.19374 -3.31603 0
M  V30 5799 N 552.809 0.956637 -1.25245 0
M  V30 5800 C 554.055 1.70413 -1.11044 0
M  V30 5801 C 554.41 1.89275 0.345377 0
M  V30 5802 O 553.703 1.45116 1.25107 0
M  V30 5803 C 553.897 3.08996 -1.79601 0
M  V30 5804 C 553.726 3.03654 -3.317 0
M  V30 5805 C 552.496 3.07521 -4.00947 0
M  V30 5806 C 554.694 2.84975 -4.28128 0
M  V30 5807 N 552.676 2.92316 -5.39838 0
M  V30 5808 C 554.047 2.7818 -5.5409 0
M  V30 5809 C 556.102 2.6964 -4.18568 0
M  V30 5810 C 554.805 2.57616 -6.71585 0
M  V30 5811 C 556.831 2.50447 -5.35752 0
M  V30 5812 C 556.193 2.4437 -6.60653 0
M  V30 5813 H 552.292 0.631642 -0.461035 0
M  V30 5814 H 554.876 1.13331 -1.58317 0
M  V30 5815 H 553.047 3.64248 -1.34826 0
M  V30 5816 H 554.779 3.72515 -1.58161 0
M  V30 5817 H 551.534 3.16635 -3.52192 0
M  V30 5818 H 551.958 2.87923 -6.12723 0
M  V30 5819 H 556.6 2.73113 -3.22752 0
M  V30 5820 H 554.318 2.52885 -7.67512 0
M  V30 5821 H 557.904 2.39509 -5.30214 0
M  V30 5822 H 556.784 2.29712 -7.49801 0
M  V30 5823 N 554.287 1.06798 1.15896 0
M  V30 5824 C 555.512 0.808739 1.90982 0
M  V30 5825 C 555.937 -0.6316 1.77179 0
M  V30 5826 O 555.295 -1.4407 1.10061 0
M  V30 5827 C 555.343 1.21468 3.39526 0
M  V30 5828 O 554.447 0.356562 4.10856 0
M  V30 5829 H 553.788 0.29512 0.594811 0
M  V30 5830 H 556.318 1.42513 1.46804 0
M  V30 5831 H 556.328 1.18844 3.90308 0
M  V30 5832 H 555.003 2.26379 3.48891 0
M  V30 5833 H 553.58 0.444808 3.70238 0
M  V30 5834 N 555.766 -1.3263 0.851289 0
M  V30 5835 C 556.729 -2.27247 0.298541 0
M  V30 5836 C 557.729 -1.51467 -0.539847 0
M  V30 5837 O 558.919 -1.7061 -0.351843 0
M  V30 5838 C 556.051 -3.35964 -0.578004 0
M  V30 5839 H 557.244 -2.7765 1.13359 0
M  V30 5840 H 554.797 -1.43245 0.625354 0
M  V30 5841 H 555.532 -2.90823 -1.435 0
M  V30 5842 H 555.317 -3.92094 0.0220539 0
M  V30 5843 H 556.807 -4.06472 -0.957626 0
M  V30 5844 N 557.244 -0.608902 -1.45362 0
M  V30 5845 C 558.469 -0.10921 -2.07112 0
M  V30 5846 C 558.894 1.19779 -1.45033 0
M  V30 5847 O 558.252 1.72961 -0.543527 0
M  V30 5848 C 558.3 0.0155745 -3.60597 0
M  V30 5849 O 557.404 1.06546 -3.98399 0
M  V30 5850 H 556.745 -0.0746619 -0.659789 0
M  V30 5851 H 559.275 -0.839283 -1.86594 0
M  V30 5852 H 559.285 0.213364 -4.07442 0
M  V30 5853 H 557.96 -0.938765 -4.05167 0
M  V30 5854 H 556.537 0.844024 -3.63223 0
M  V30 5855 N 558.722 1.53707 -0.348139 0
M  V30 5856 C 559.655 2.21481 0.549667 0
M  V30 5857 C 560.633 1.20046 1.09671 0
M  V30 5858 O 561.817 1.48883 1.15612 0
M  V30 5859 C 558.944 2.89585 1.75664 0
M  V30 5860 C 557.99 4.04948 1.33864 0
M  V30 5861 S 558.823 5.34325 0.354577 0
M  V30 5862 C 559.979 6.05934 1.56828 0
M  V30 5863 H 560.212 2.97289 -0.0259755 0
M  V30 5864 H 557.745 1.53833 -0.132216 0
M  V30 5865 H 559.703 3.29441 2.44906 0
M  V30 5866 H 558.364 2.13535 2.30351 0
M  V30 5867 H 557.557 4.51552 2.23868 0
M  V30 5868 H 557.159 3.66893 0.725651 0
M  V30 5869 H 559.451 6.29606 2.50205 0
M  V30 5870 H 560.394 6.98799 1.14395 0
M  V30 5871 H 560.802 5.36151 1.76642 0
M  V30 5872 N 560.2 0.0768682 1.57412 0
M  V30 5873 C 561.448 -0.589918 1.93299 0
M  V30 5874 C 561.769 -1.69842 0.958049 0
M  V30 5875 O 561.039 -1.95899 0.00703261 0
M  V30 5876 H 559.619 -0.220901 0.713591 0
M  V30 5877 H 562.281 0.135917 1.94425 0
M  V30 5878 H 561.377 -1.01195 2.95239 0
M  V30 5879 N 561.678 -1.56367 -0.196722 0
M  V30 5880 C 562.926 -1.80172 -0.915554 0
M  V30 5881 C 563.247 -0.649649 -1.8386 0
M  V30 5882 O 562.517 0.332111 -1.93064 0
M  V30 5883 H 561.097 -0.664592 -0.341067 0
M  V30 5884 H 563.759 -1.93844 -0.202622 0
M  V30 5885 H 562.855 -2.7327 -1.50764 0
M  V30 5886 N 563.156 0.464375 -1.50603 0
M  V30 5887 C 564.404 1.21356 -1.61608 0
M  V30 5888 C 564.725 1.92329 -0.321643 0
M  V30 5889 O 563.995 1.84403 0.661232 0
M  V30 5890 H 562.575 0.45094 -0.595535 0
M  V30 5891 H 565.237 0.535046 -1.87412 0
M  V30 5892 H 564.333 1.95783 -2.43054 0
M  V30 5893 N 564.634 1.40294 0.718013 0
M  V30 5894 C 565.597 1.4012 1.81381 0
M  V30 5895 C 566.597 0.295405 1.58063 0
M  V30 5896 O 567.787 0.554187 1.6515 0
M  V30 5897 C 564.919 1.19056 3.19435 0
M  V30 5898 H 566.112 2.37645 1.82933 0
M  V30 5899 H 563.665 1.26107 0.923405 0
M  V30 5900 H 564.4 0.222809 3.23534 0
M  V30 5901 H 564.185 1.99152 3.37758 0
M  V30 5902 H 565.675 1.21716 3.99468 0
M  V30 5903 N 566.112 -0.949982 1.2575 0
M  V30 5904 C 567.042 -2.06483 1.09028 0
M  V30 5905 C 568.023 -1.701 -0.00201532 0
M  V30 5906 O 569.208 -1.93469 0.168383 0
M  V30 5907 C 566.338 -3.39899 0.71316 0
M  V30 5908 C 565.292 -3.90309 1.75621 0
M  V30 5909 C 564.618 -5.20274 1.23365 0
M  V30 5910 C 565.918 -4.16169 3.15596 0
M  V30 5911 H 567.612 -2.20731 2.02283 0
M  V30 5912 H 565.158 -1.06066 0.973964 0
M  V30 5913 H 567.111 -4.17346 0.58309 0
M  V30 5914 H 565.835 -3.25602 -0.255091 0
M  V30 5915 H 564.494 -3.15035 1.8748 0
M  V30 5916 H 564.142 -5.02351 0.255491 0
M  V30 5917 H 563.842 -5.54971 1.93082 0
M  V30 5918 H 565.366 -6.00314 1.11607 0
M  V30 5919 H 566.78 -4.84259 3.06864 0
M  V30 5920 H 565.177 -4.62131 3.82825 0
M  V30 5921 H 566.247 -3.22273 3.6231 0
M  V30 5922 N 567.59 -1.07411 -1.15328 0
M  V30 5923 C 569.001 -0.820261 -1.67716 0
M  V30 5924 C 569.352 0.654539 -1.8496 0
M  V30 5925 O 568.477 1.50664 -1.55337 0
M  V30 5926 C 569.072 -1.48242 -3.04647 0
M  V30 5927 C 567.631 -1.27606 -3.5411 0
M  V30 5928 C 566.778 -1.5517 -2.29821 0
M  V30 5929 H 569.729 -1.23608 -0.995332 0
M  V30 5930 H 569.75 -0.903984 -3.69606 0
M  V30 5931 H 569.262 -2.55578 -2.92064 0
M  V30 5932 H 567.363 -0.222948 -3.71932 0
M  V30 5933 H 567.476 -1.99667 -4.35511 0
M  V30 5934 H 565.84 -0.972747 -2.35393 0
M  V30 5935 H 566.623 -2.63689 -2.19824 0
M  V30 5936 O 569.107 1.27418 -0.99231 0
M  V30 5937 H 569.798 1.82762 -0.641704 0
M  V30 END ATOM
M  V30 BEGIN BOND
M  V30 END BOND
M  V30 END CTAB
M  END
$$$$
