drugbank_target|P00490 Maltodextrin phosphorylase (DB02379; DB02843; DB03323)
 OpenBabel12092119583D

  0  0  0     0  0            999 V3000
M  V30 BEGIN CTAB
M  V30 COUNTS 12738 12888 0 0 0
M  V30 BEGIN ATOM
M  V30 1 H -0.908 1.98254 -0.117106 0
M  V30 2 N 0 1.576 0 0
M  V30 3 C 0.933 2.03868 1.02534 0
M  V30 4 C 1.911 0.928543 1.3348 0
M  V30 5 O 3.095 1.19667 1.45644 0
M  V30 6 C 0.222 2.43627 2.35294 0
M  V30 7 C -0.732 3.65373 2.2001 0
M  V30 8 S 0.101 5.13292 1.52614 0
M  V30 9 C 1.257 5.56322 2.86805 0
M  V30 10 H 1.49 2.90518 0.631377 0
M  V30 11 H -0.977 1.52953 0.210867 0
M  V30 12 H 0.981 2.67203 3.11629 0
M  V30 13 H -0.358 1.57376 2.7183 0
M  V30 14 H -1.165 3.90944 3.18086 0
M  V30 15 H -1.563 3.418 1.51819 0
M  V30 16 H 0.729 5.58782 3.83104 0
M  V30 17 H 1.672 6.56266 2.65933 0
M  V30 18 H 2.08 4.83886 2.90714 0
M  V30 19 N 1.4781 -0.272755 1.55222 0
M  V30 20 C 2.7031 -1.02683 1.80197 0
M  V30 21 C 3.1281 -1.79142 0.573551 0
M  V30 22 O 2.4861 -1.74917 -0.476849 0
M  V30 23 C 2.5341 -1.9609 3.02624 0
M  V30 24 O 1.6381 -3.04863 2.77727 0
M  V30 25 H 0.9791 -0.293557 0.595584 0
M  V30 26 H 3.5091 -0.30159 2.02365 0
M  V30 27 H 3.5191 -2.38039 3.31363 0
M  V30 28 H 2.1941 -1.39851 3.91682 0
M  V30 29 H 0.7711 -2.67228 2.60084 0
M  V30 30 N 2.9562 -1.48159 -0.537278 0
M  V30 31 C 3.8882 -1.58218 -1.65831 0
M  V30 32 C 4.9012 -0.466948 -1.5596 0
M  V30 33 O 6.0902 -0.73747 -1.62553 0
M  V30 34 C 3.1902 -1.48906 -3.04434 0
M  V30 35 C 2.3632 -2.75343 -3.3986 0
M  V30 36 C 1.4222 -2.59588 -4.57712 0
M  V30 37 O 0.4482 -3.33457 -4.61297 0
M  V30 38 N 1.6502 -1.68724 -5.55439 0
M  V30 39 H 4.4152 -2.54891 -1.57641 0
M  V30 40 H 1.9762 -1.4479 -0.724386 0
M  V30 41 H 3.9682 -1.36072 -3.81139 0
M  V30 42 H 2.5382 -0.602368 -3.06741 0
M  V30 43 H 1.7582 -3.02795 -2.52406 0
M  V30 44 H 3.0462 -3.5924 -3.60311 0
M  V30 45 H 2.4442 -1.07898 -5.55315 0
M  V30 46 H 1.0012 -1.61832 -6.3139 0
M  V30 47 N 4.4343 0.785586 -1.36625 0
M  V30 48 C 5.8453 1.36101 -1.27803 0
M  V30 49 C 6.1963 1.96035 0.0804875 0
M  V30 50 O 5.3213 1.92834 0.982042 0
M  V30 51 C 5.9163 2.47442 -2.31426 0
M  V30 52 C 4.4753 3.00789 -2.26281 0
M  V30 53 C 3.6223 1.73896 -2.15999 0
M  V30 54 H 6.5733 0.586928 -1.47448 0
M  V30 55 H 6.5943 3.2656 -1.95291 0
M  V30 56 H 6.1063 2.03791 -3.30289 0
M  V30 57 H 4.2073 3.48851 -1.30896 0
M  V30 58 H 4.3203 3.57343 -3.19128 0
M  V30 59 H 2.6843 1.9628 -1.62316 0
M  V30 60 H 3.4673 1.32368 -3.16755 0
M  V30 61 N 5.9124 1.20967 1.01018 0
M  V30 62 C 7.1614 1.01796 1.74128 0
M  V30 63 C 7.4744 -0.449691 1.90361 0
M  V30 64 O 8.6804 -0.76068 2.60626 0
M  V30 65 C 7.1364 1.7727 3.13215 0
M  V30 66 C 6.7444 3.28171 3.04972 0
M  V30 67 C 8.4884 1.66489 3.90489 0
M  V30 68 C 6.3954 3.96156 4.39107 0
M  V30 69 H 5.3254 0.377276 0.652824 0
M  V30 70 H 7.9764 1.44651 1.12909 0
M  V30 71 H 6.3584 1.27205 3.75013 0
M  V30 72 H 7.5324 3.85499 2.52443 0
M  V30 73 H 5.8474 3.39437 2.41188 0
M  V30 74 H 8.4444 2.14617 4.89738 0
M  V30 75 H 8.7874 0.6222 4.11624 0
M  V30 76 H 9.3204 2.14003 3.35332 0
M  V30 77 H 6.0594 5.00604 4.23174 0
M  V30 78 H 5.5794 3.43617 4.91617 0
M  V30 79 H 7.2584 4.00774 5.07926 0
M  V30 80 N 7.3905 -1.2043 1.01659 0
M  V30 81 C 8.6375 -1.89797 0.705917 0
M  V30 82 C 8.9655 -1.78848 -0.764439 0
M  V30 83 O 8.2205 -1.16694 -1.57102 0
M  V30 84 C 8.5195 -3.40464 1.08714 0
M  V30 85 C 8.1855 -3.71614 2.5537 0
M  V30 86 C 6.8475 -3.79826 2.95441 0
M  V30 87 C 9.1995 -3.85915 3.50313 0
M  V30 88 C 6.5275 -3.99797 4.29394 0
M  V30 89 C 8.8795 -4.07396 4.83954 0
M  V30 90 C 7.5435 -4.13837 5.23732 0
M  V30 91 H 6.8135 -0.694518 0.258313 0
M  V30 92 H 9.4605 -1.42691 1.27717 0
M  V30 93 H 7.7655 -3.89385 0.434309 0
M  V30 94 H 9.4625 -3.92433 0.824461 0
M  V30 95 H 6.0525 -3.65822 2.23321 0
M  V30 96 H 10.2365 -3.78926 3.20513 0
M  V30 97 H 5.4925 -4.03018 4.59768 0
M  V30 98 H 9.6665 -4.17404 5.57447 0
M  V30 99 H 7.2935 -4.29064 6.27541 0
M  V30 100 N 8.8686 -0.792821 -1.36206 0
M  V30 101 C 9.8166 -0.181555 -2.3189 0
M  V30 102 C 10.8106 0.661025 -1.55971 0
M  V30 103 O 12.0166 0.555728 -1.71206 0
M  V30 104 H 8.3916 -0.0399382 -0.750939 0
M  V30 105 H 10.3626 -1.00394 -2.81005 0
M  V30 106 C 9.1116 0.666444 -3.41253 0
M  V30 107 H 8.4346 0.0274489 -3.99791 0
M  V30 108 H 9.8746 1.06076 -4.10517 0
M  V30 109 C 8.3336 1.82614 -2.83114 0
M  V30 110 O 8.8636 2.9229 -2.75553 0
M  V30 111 N 7.0696 1.63333 -2.40356 0
M  V30 112 H 6.6166 0.741217 -2.46706 0
M  V30 113 H 6.5746 2.41087 -2.01803 0
M  V30 114 N 10.3467 1.47872 -0.545128 0
M  V30 115 C 11.6237 1.9554 0.0485222 0
M  V30 116 C 12.0037 1.4876 1.49779 0
M  V30 117 O 11.3517 0.720925 2.16829 0
M  V30 118 C 11.5617 3.48898 -0.084417 0
M  V30 119 C 12.9097 4.24547 0.0671239 0
M  V30 120 O 13.9337 3.56198 -0.0113649 0
M  V30 121 O 12.7927 5.45999 0.233882 0
M  V30 122 H 9.8867 0.823957 0.0708773 0
M  V30 123 H 12.4327 1.58327 -0.610798 0
M  V30 124 H 11.2047 3.75714 -1.09337 0
M  V30 125 H 10.8277 3.92845 0.613066 0
M  V30 126 N 11.8248 0.280983 1.55075 0
M  V30 127 C 12.7718 -0.603937 2.22758 0
M  V30 128 C 13.7418 -1.1452 1.20309 0
M  V30 129 O 14.9268 -1.19343 1.48869 0
M  V30 130 C 12.0668 -1.77947 2.95684 0
M  V30 131 C 11.1798 -1.2715 4.12864 0
M  V30 132 C 10.3148 -2.4093 4.7342 0
M  V30 133 C 9.3538 -1.87165 5.82783 0
M  V30 134 N 8.4908 -2.94441 6.37377 0
M  V30 135 H 13.3308 -0.020124 2.97993 0
M  V30 136 H 10.8678 0.00183425 1.471 0
M  V30 137 H 12.8258 -2.47055 3.36184 0
M  V30 138 H 11.4558 -2.33522 2.22861 0
M  V30 139 H 10.5078 -0.473331 3.77444 0
M  V30 140 H 11.8198 -0.837751 4.91715 0
M  V30 141 H 10.9738 -3.18021 5.1667 0
M  V30 142 H 9.7128 -2.87623 3.93859 0
M  V30 143 H 8.7178 -1.08556 5.38976 0
M  V30 144 H 9.9428 -1.41401 6.64216 0
M  V30 145 H 7.8888 -3.40505 5.60707 0
M  V30 146 H 7.8058 -2.55501 7.11516 0
M  V30 147 H 9.0738 -3.71489 6.85285 0
M  V30 148 N 13.3029 -1.57598 0.00835791 0
M  V30 149 C 14.2349 -2.05811 -1.00868 0
M  V30 150 C 15.2479 -0.977579 -1.30182 0
M  V30 151 O 16.4369 -1.25421 -1.27011 0
M  V30 152 C 13.5369 -2.45016 -2.34137 0
M  V30 153 C 12.7099 -3.75903 -2.23643 0
M  V30 154 C 11.7689 -4.01884 -3.3967 0
M  V30 155 O 10.7949 -4.72433 -3.17483 0
M  V30 156 N 11.9969 -3.50432 -4.62793 0
M  V30 157 H 14.7619 -2.93684 -0.597458 0
M  V30 158 H 12.3229 -1.60909 -0.178852 0
M  V30 159 H 14.3149 -2.59506 -3.10546 0
M  V30 160 H 12.8849 -1.62618 -2.66972 0
M  V30 161 H 12.1049 -3.7141 -1.32091 0
M  V30 162 H 13.3929 -4.61695 -2.13812 0
M  V30 163 H 12.7909 -2.93317 -4.83716 0
M  V30 164 H 11.3479 -3.70236 -5.3644 0
M  V30 165 N 14.781 0.264519 -1.55364 0
M  V30 166 C 16.028 0.994986 -1.7637 0
M  V30 167 C 16.356 1.85976 -0.5695 0
M  V30 168 O 15.611 1.90509 0.44776 0
M  V30 169 C 15.91 1.9004 -3.02687 0
M  V30 170 C 15.576 1.19243 -4.34847 0
M  V30 171 C 14.238 0.996709 -4.70764 0
M  V30 172 C 16.59 0.689296 -5.16622 0
M  V30 173 C 13.918 0.285261 -5.86006 0
M  V30 174 C 16.27 -0.00860079 -6.32599 0
M  V30 175 C 14.934 -0.215963 -6.67151 0
M  V30 176 H 14.204 0.364091 -0.645383 0
M  V30 177 H 16.851 0.266543 -1.89636 0
M  V30 178 H 15.156 2.69533 -2.84357 0
M  V30 179 H 16.853 2.46695 -3.16137 0
M  V30 180 H 13.443 1.3549 -4.06621 0
M  V30 181 H 17.627 0.828108 -4.89342 0
M  V30 182 H 12.883 0.113961 -6.11294 0
M  V30 183 H 17.057 -0.406186 -6.95214 0
M  V30 184 H 14.684 -0.769217 -7.56298 0
M  V30 185 N 16.2591 1.48442 0.529413 0
M  V30 186 C 17.1911 1.59095 1.64989 0
M  V30 187 C 18.2041 0.475212 1.5571 0
M  V30 188 O 19.3931 0.746081 1.6216 0
M  V30 189 C 16.4931 1.50518 3.0364 0
M  V30 190 C 15.6661 2.77142 3.38395 0
M  V30 191 C 14.7251 2.62012 4.56329 0
M  V30 192 O 13.7511 3.35898 4.59522 0
M  V30 193 N 14.9531 1.71667 5.54536 0
M  V30 194 H 17.7181 2.55723 1.56287 0
M  V30 195 H 15.2791 1.45173 0.716697 0
M  V30 196 H 17.2711 1.38091 3.80412 0
M  V30 197 H 15.8411 0.618627 3.06418 0
M  V30 198 H 15.0611 3.0413 2.50796 0
M  V30 199 H 16.3491 3.61146 3.58401 0
M  V30 200 H 15.7471 1.10841 5.54735 0
M  V30 201 H 14.3041 1.65178 6.30523 0
M  V30 202 N 17.7372 -0.778329 1.37039 0
M  V30 203 C 18.6472 -1.92253 1.34446 0
M  V30 204 C 19.6632 -1.72267 0.244991 0
M  V30 205 O 20.8392 -1.95615 0.479258 0
M  V30 206 C 17.9042 -3.27282 1.144 0
M  V30 207 C 16.9652 -3.59969 2.33925 0
M  V30 208 C 16.1982 -4.88555 2.14825 0
M  V30 209 O 16.4212 -5.59113 1.12912 0
M  V30 210 O 15.3552 -5.20153 3.02861 0
M  V30 211 H 19.1812 -1.97392 2.30803 0
M  V30 212 H 16.7662 -0.920154 1.17701 0
M  V30 213 H 18.6482 -4.08062 1.05182 0
M  V30 214 H 17.3232 -3.23011 0.211124 0
M  V30 215 H 16.2302 -2.7945 2.48714 0
M  V30 216 H 17.5632 -3.68976 3.25757 0
M  V30 217 N 19.2153 -1.21501 -1.00376 0
M  V30 218 C 20.1783 -0.976927 -2.07337 0
M  V30 219 C 21.1783 0.0525322 -1.60714 0
M  V30 220 O 22.3683 -0.184869 -1.73216 0
M  V30 221 C 19.5003 -0.473423 -3.37597 0
M  V30 222 H 20.6933 -1.92587 -2.29892 0
M  V30 223 H 18.2463 -1.03217 -1.17371 0
M  V30 224 H 18.9813 0.480379 -3.20722 0
M  V30 225 H 18.7663 -1.216 -3.72768 0
M  V30 226 H 20.2563 -0.32675 -4.1632 0
M  V30 227 N 20.6934 1.19889 -1.02296 0
M  V30 228 C 21.6234 2.25141 -0.619174 0
M  V30 229 C 22.6044 1.66051 0.368915 0
M  V30 230 O 23.7894 1.92546 0.252941 0
M  V30 231 C 20.9194 3.4728 0.0368783 0
M  V30 232 C 19.8734 4.19005 -0.872865 0
M  V30 233 C 19.1994 5.34637 -0.0822402 0
M  V30 234 C 20.4994 4.74452 -2.18387 0
M  V30 235 H 22.1934 2.59171 -1.49903 0
M  V30 236 H 19.7394 1.24579 -0.722222 0
M  V30 237 H 21.6924 4.20098 0.330958 0
M  V30 238 H 20.4164 3.12433 0.95149 0
M  V30 239 H 19.0754 3.48061 -1.15105 0
M  V30 240 H 18.7234 4.96034 0.83422 0
M  V30 241 H 18.4234 5.83557 -0.688149 0
M  V30 242 H 19.9474 6.10255 0.205238 0
M  V30 243 H 21.3614 5.39055 -1.95172 0
M  V30 244 H 19.7584 5.33834 -2.74119 0
M  V30 245 H 20.8284 3.92844 -2.84257 0
M  V30 246 N 22.1715 0.800033 1.35784 0
M  V30 247 C 23.3965 0.388511 2.03729 0
M  V30 248 C 23.8215 -0.990481 1.5991 0
M  V30 249 O 23.1795 -1.64013 0.772612 0
M  V30 250 C 23.2275 0.4726 3.5749 0
M  V30 251 O 22.3315 -0.51646 4.09153 0
M  V30 252 H 21.6725 0.163271 0.643614 0
M  V30 253 H 24.2025 1.0841 1.73518 0
M  V30 254 H 24.2125 0.34003 4.06581 0
M  V30 255 H 22.8875 1.47848 3.88734 0
M  V30 256 H 21.4645 -0.344673 3.71304 0
M  V30 257 N 23.6496 -1.47581 0.552962 0
M  V30 258 C 25.0656 -1.5818 0.212424 0
M  V30 259 C 25.2656 -1.55213 -1.28496 0
M  V30 260 O 24.3216 -1.45329 -2.06484 0
M  V30 261 C 25.6346 -2.88865 0.835318 0
M  V30 262 C 27.1826 -3.0244 0.806156 0
M  V30 263 C 27.6576 -4.35819 1.40804 0
M  V30 264 N 29.1486 -4.42444 1.37103 0
M  V30 265 C 29.8836 -5.44202 1.80641 0
M  V30 266 N 29.3796 -6.52795 2.32015 0
M  V30 267 N 31.1726 -5.35222 1.71738 0
M  V30 268 H 23.3236 -1.47753 1.52587 0
M  V30 269 H 25.5866 -0.702941 0.636064 0
M  V30 270 H 25.2926 -2.9676 1.88749 0
M  V30 271 H 25.1666 -3.7579 0.325848 0
M  V30 272 H 27.5536 -2.94144 -0.237317 0
M  V30 273 H 27.6346 -2.17068 1.35334 0
M  V30 274 H 27.2786 -4.44871 2.45056 0
M  V30 275 H 27.2086 -5.19916 0.836338 0
M  V30 276 H 29.6996 -3.6456 0.995202 0
M  V30 277 H 30.0126 -7.26609 2.63171 0
M  V30 278 H 28.3576 -6.53696 2.36023 0
M  V30 279 H 31.5486 -4.49284 1.31382 0
M  V30 280 H 31.7216 -6.14389 2.05987 0
M  V30 281 N 25.1277 -0.289203 -1.54924 0
M  V30 282 C 26.0597 0.625583 -2.20497 0
M  V30 283 C 27.0727 1.10667 -1.19402 0
M  V30 284 O 28.2617 1.02615 -1.46056 0
M  V30 285 C 25.3617 1.86702 -2.82835 0
M  V30 286 C 24.5347 1.5304 -4.09753 0
M  V30 287 C 23.5937 2.62576 -4.56005 0
M  V30 288 O 22.6197 2.28167 -5.21468 0
M  V30 289 N 23.8217 3.92901 -4.27328 0
M  V30 290 H 26.5867 0.0642801 -2.99631 0
M  V30 291 H 24.1477 -0.110896 -1.6152 0
M  V30 292 H 26.1397 2.59304 -3.10715 0
M  V30 293 H 24.7097 2.33702 -2.07611 0
M  V30 294 H 23.9297 0.637564 -3.8901 0
M  V30 295 H 25.2177 1.28072 -4.92418 0
M  V30 296 H 24.6157 4.23671 -3.74859 0
M  V30 297 H 23.1727 4.61837 -4.59946 0
M  V30 298 N 26.6058 1.57591 -0.0167156 0
M  V30 299 C 27.8518 1.92399 0.659861 0
M  V30 300 C 28.2068 0.892561 1.70444 0
M  V30 301 O 27.4998 -0.0930755 1.91374 0
M  V30 302 C 27.6938 3.3172 1.33029 0
M  V30 303 C 27.5228 4.48319 0.352174 0
M  V30 304 C 26.2928 5.05281 -0.0434883 0
M  V30 305 C 28.4908 5.12831 -0.388474 0
M  V30 306 N 26.4728 6.05399 -1.01807 0
M  V30 307 C 27.8438 6.07934 -1.2172 0
M  V30 308 C 29.8988 4.95858 -0.450513 0
M  V30 309 C 28.6018 6.87891 -2.10235 0
M  V30 310 C 30.6278 5.76413 -1.32295 0
M  V30 311 C 29.9898 6.71123 -2.13948 0
M  V30 312 H 26.0888 0.752106 0.21415 0
M  V30 313 H 28.6728 1.94532 -0.0809846 0
M  V30 314 H 26.8438 3.3043 2.04134 0
M  V30 315 H 28.5758 3.5391 1.9629 0
M  V30 316 H 25.3308 4.7246 0.328384 0
M  V30 317 H 25.7548 6.60145 -1.50123 0
M  V30 318 H 30.3968 4.22472 0.166512 0
M  V30 319 H 28.1148 7.60591 -2.72997 0
M  V30 320 H 31.7008 5.65317 -1.37508 0
M  V30 321 H 30.5808 7.3237 -2.80364 0
M  V30 322 N 28.0839 -0.256276 1.55502 0
M  V30 323 C 29.0159 -1.33981 1.85962 0
M  V30 324 C 30.0289 -1.44743 0.745212 0
M  V30 325 O 31.2179 -1.4626 1.02324 0
M  V30 326 C 28.3179 -2.7194 2.02242 0
M  V30 327 C 27.4909 -2.83562 3.33033 0
M  V30 328 C 26.5499 -4.02304 3.39172 0
M  V30 329 O 25.5759 -3.92273 4.12444 0
M  V30 330 N 26.7779 -5.15045 2.67784 0
M  V30 331 H 29.5429 -1.08191 2.7949 0
M  V30 332 H 27.1039 -0.446388 1.55624 0
M  V30 333 H 29.0959 -3.49697 2.03701 0
M  V30 334 H 27.6659 -2.90479 1.15502 0
M  V30 335 H 26.8859 -1.92555 3.43971 0
M  V30 336 H 28.1739 -2.88271 4.19258 0
M  V30 337 H 27.5719 -5.26085 2.07968 0
M  V30 338 H 26.1289 -5.90972 2.74947 0
M  V30 339 N 29.562 -1.4872 -0.521534 0
M  V30 340 C 30.978 -1.35028 -0.850855 0
M  V30 341 C 31.178 -0.367712 -1.98116 0
M  V30 342 O 30.234 0.208037 -2.51642 0
M  V30 343 C 31.547 -2.75263 -1.21041 0
M  V30 344 C 33.095 -2.83813 -1.31981 0
M  V30 345 C 33.57 -4.24769 -1.71276 0
M  V30 346 N 35.061 -4.27482 -1.78363 0
M  V30 347 C 35.796 -5.33494 -2.1017 0
M  V30 348 N 35.292 -6.49775 -2.40343 0
M  V30 349 N 37.085 -5.20894 -2.11248 0
M  V30 350 H 29.236 -2.11214 0.22413 0
M  V30 351 H 31.499 -0.947252 0.0376439 0
M  V30 352 H 31.205 -3.48765 -0.453415 0
M  V30 353 H 31.079 -3.09327 -2.15863 0
M  V30 354 H 33.466 -2.10561 -2.06756 0
M  V30 355 H 33.547 -2.53358 -0.352596 0
M  V30 356 H 33.191 -4.9854 -0.970588 0
M  V30 357 H 33.121 -4.52673 -2.69062 0
M  V30 358 H 35.612 -3.43611 -1.57288 0
M  V30 359 H 35.925 -7.26402 -2.63743 0
M  V30 360 H 34.27 -6.53035 -2.37844 0
M  V30 361 H 37.461 -4.29065 -1.87139 0
M  V30 362 H 37.634 -6.03612 -2.35704 0
M  V30 363 N 31.0401 0.771051 -1.3745 0
M  V30 364 C 32.2701 1.55789 -1.35696 0
M  V30 365 C 32.6781 1.89107 0.0594523 0
M  V30 366 O 32.0211 1.51984 1.03183 0
M  V30 367 C 32.0831 2.89515 -2.13123 0
M  V30 368 C 31.7471 2.78829 -3.62082 0
M  V30 369 C 32.7441 2.49812 -4.5595 0
M  V30 370 C 30.4291 2.9683 -4.05213 0
M  V30 371 C 32.4231 2.38923 -5.90927 0
M  V30 372 C 30.1101 2.85562 -5.40276 0
M  V30 373 C 31.1081 2.56649 -6.32946 0
M  V30 374 O 30.7961 2.45408 -7.65526 0
M  V30 375 H 30.5281 0.489257 -0.466481 0
M  V30 376 H 33.0821 0.963446 -1.81403 0
M  V30 377 H 31.3121 3.51081 -1.62107 0
M  V30 378 H 33.0011 3.50915 -2.03994 0
M  V30 379 H 33.7671 2.3559 -4.23937 0
M  V30 380 H 29.6461 3.18335 -3.33442 0
M  V30 381 H 33.1901 2.16277 -6.63227 0
M  V30 382 H 29.0871 2.99351 -5.71891 0
M  V30 383 H 29.8551 2.60753 -7.75855 0
M  V30 384 N 32.5182 1.22032 0.997298 0
M  V30 385 C 33.7662 1.04016 1.73278 0
M  V30 386 C 34.0872 -0.426255 1.90284 0
M  V30 387 O 33.3572 -1.30694 1.45931 0
M  V30 388 H 31.9372 0.381897 0.642 0
M  V30 389 H 34.5992 1.5347 1.20137 0
M  V30 390 H 33.6952 1.51441 2.72896 0
M  V30 391 N 33.9963 -1.19345 1.0293 0
M  V30 392 C 34.9263 -2.2481 0.631105 0
M  V30 393 C 35.9073 -1.66245 -0.360104 0
M  V30 394 O 37.0923 -1.92677 -0.242726 0
M  V30 395 C 34.2223 -3.47295 -0.0184607 0
M  V30 396 C 33.1763 -4.18536 0.895073 0
M  V30 397 C 32.5023 -5.34586 0.110592 0
M  V30 398 C 33.8023 -4.73287 2.209 0
M  V30 399 H 35.4963 -2.58372 1.51275 0
M  V30 400 H 33.0423 -1.24194 0.728818 0
M  V30 401 H 34.9953 -4.20268 -0.308675 0
M  V30 402 H 33.7193 -3.12933 -0.934907 0
M  V30 403 H 32.3783 -3.47446 1.16949 0
M  V30 404 H 32.0263 -4.96469 -0.807902 0
M  V30 405 H 31.7263 -5.83183 0.719087 0
M  V30 406 H 33.2503 -6.10355 -0.172871 0
M  V30 407 H 34.6643 -5.38013 1.98028 0
M  V30 408 H 33.0613 -5.32373 2.76946 0
M  V30 409 H 34.1313 -3.91331 2.86336 0
M  V30 410 N 35.4744 -0.807222 -1.35358 0
M  V30 411 C 36.4224 -0.20614 -2.31685 0
M  V30 412 C 37.4164 0.644445 -1.56663 0
M  V30 413 O 38.6224 0.537538 -1.71786 0
M  V30 414 H 34.9974 -0.0479006 -0.750473 0
M  V30 415 H 36.9684 -1.03369 -2.79924 0
M  V30 416 C 35.7174 0.630212 -3.41941 0
M  V30 417 H 35.0404 -0.0149558 -3.99797 0
M  V30 418 H 36.4804 1.01716 -4.11619 0
M  V30 419 C 34.9394 1.79601 -2.85035 0
M  V30 420 O 35.4694 2.89351 -2.78637 0
M  V30 421 N 33.6754 1.60774 -2.42074 0
M  V30 422 H 33.2224 0.715009 -2.47478 0
M  V30 423 H 33.1804 2.38933 -2.04349 0
M  V30 424 N 36.9525 1.47285 -0.560781 0
M  V30 425 C 38.1775 2.07359 -0.0410566 0
M  V30 426 C 38.6025 1.41017 1.24483 0
M  V30 427 O 37.9605 0.486368 1.74654 0
M  V30 428 C 38.0085 3.6035 0.134123 0
M  V30 429 O 37.1125 3.94681 1.19587 0
M  V30 430 H 36.4535 0.661887 -0.0529291 0
M  V30 431 H 38.9835 1.89252 -0.777482 0
M  V30 432 H 38.9935 4.0652 0.347207 0
M  V30 433 H 37.6685 4.08034 -0.805047 0
M  V30 434 H 36.2455 3.60251 0.962987 0
M  V30 435 N 38.4306 0.297415 1.54768 0
M  V30 436 C 39.3936 -0.567375 2.22066 0
M  V30 437 C 40.3936 -1.06409 1.20556 0
M  V30 438 O 41.5836 -0.960691 1.45315 0
M  V30 439 C 38.7156 -1.78517 2.90421 0
M  V30 440 H 39.9086 0.0205534 2.99893 0
M  V30 441 H 37.4616 0.0482163 1.56226 0
M  V30 442 H 38.1966 -2.41303 2.16664 0
M  V30 443 H 37.9816 -1.43669 3.64831 0
M  V30 444 H 39.4716 -2.39964 3.41771 0
M  V30 445 N 39.9087 -1.5758 0.0250728 0
M  V30 446 C 40.8717 -2.08896 -0.943139 0
M  V30 447 C 41.8717 -1.00321 -1.25668 0
M  V30 448 O 43.0617 -1.26495 -1.19769 0
M  V30 449 C 40.1937 -2.55143 -2.26086 0
M  V30 450 H 41.3867 -2.95723 -0.498775 0
M  V30 451 H 38.9397 -1.54703 -0.222888 0
M  V30 452 H 39.6747 -1.71633 -2.75159 0
M  V30 453 H 39.4597 -3.34461 -2.04641 0
M  V30 454 H 40.9497 -2.95083 -2.95492 0
M  V30 455 N 41.3868 0.248026 -1.55636 0
M  V30 456 C 42.2968 1.32859 -1.93354 0
M  V30 457 C 43.3128 1.52719 -0.833838 0
M  V30 458 O 44.4888 1.66363 -1.13513 0
M  V30 459 C 41.5538 2.66337 -2.21958 0
M  V30 460 C 40.6148 2.55008 -3.45354 0
M  V30 461 C 39.8478 3.82121 -3.72584 0
M  V30 462 O 40.0708 4.83951 -3.01907 0
M  V30 463 O 39.0048 3.80822 -4.6611 0
M  V30 464 H 42.8308 1.03862 -2.85388 0
M  V30 465 H 40.4158 0.448686 -1.42503 0
M  V30 466 H 42.2978 3.45216 -2.4167 0
M  V30 467 H 40.9728 2.95068 -1.33103 0
M  V30 468 H 39.8798 1.7442 -3.30951 0
M  V30 469 H 41.2128 2.31222 -4.34508 0
M  V30 470 N 42.8649 1.48995 0.513639 0
M  V30 471 C 43.7979 1.59319 1.63379 0
M  V30 472 C 44.7759 0.442816 1.56454 0
M  V30 473 O 45.9599 0.656655 1.76693 0
M  V30 474 C 43.0869 1.5364 3.01848 0
M  V30 475 C 42.1329 2.7372 3.27078 0
M  V30 476 S 42.9659 4.35528 3.1157 0
M  V30 477 C 44.1219 4.32473 4.52458 0
M  V30 478 H 44.3549 2.54079 1.54374 0
M  V30 479 H 41.8879 1.3773 0.697849 0
M  V30 480 H 43.8459 1.51049 3.81699 0
M  V30 481 H 42.5069 0.601898 3.08279 0
M  V30 482 H 41.6999 2.6593 4.28132 0
M  V30 483 H 41.3019 2.73657 2.54927 0
M  V30 484 H 43.5939 4.03414 5.44301 0
M  V30 485 H 44.5369 5.33762 4.65299 0
M  V30 486 H 44.9449 3.62718 4.32546 0
M  V30 487 N 44.343 -0.763751 1.37857 0
M  V30 488 C 45.571 -1.55293 1.36718 0
M  V30 489 C 45.986 -1.88745 -0.0455434 0
M  V30 490 O 45.343 -1.52039 -1.00947 0
M  V30 491 C 45.394 -2.85831 2.2132 0
M  V30 492 O 45.115 -2.5381 3.57089 0
M  V30 493 C 46.616 -3.80023 2.28249 0
M  V30 494 H 43.836 -0.480841 0.468009 0
M  V30 495 H 46.38 -0.946009 1.81303 0
M  V30 496 H 44.535 -3.42926 1.80223 0
M  V30 497 H 44.949 -3.37459 4.01524 0
M  V30 498 H 46.423 -4.68599 2.91752 0
M  V30 499 H 46.9 -4.1973 1.2932 0
M  V30 500 H 47.506 -3.28855 2.69693 0
M  V30 501 N 45.8211 -1.22559 -0.990812 0
M  V30 502 C 47.2321 -1.04791 -1.54518 0
M  V30 503 C 47.5831 0.387998 -1.92325 0
M  V30 504 O 46.7081 1.27328 -1.74976 0
M  V30 505 C 47.3031 -1.896 -2.80779 0
M  V30 506 C 45.8621 -1.76124 -3.32652 0
M  V30 507 C 45.0091 -1.8594 -2.05722 0
M  V30 508 H 47.9601 -1.36374 -0.811662 0
M  V30 509 H 47.9811 -1.41464 -3.53225 0
M  V30 510 H 47.4931 -2.94101 -2.53231 0
M  V30 511 H 45.5941 -0.743643 -3.65104 0
M  V30 512 H 45.7071 -2.58913 -4.03114 0
M  V30 513 H 44.0711 -1.29403 -2.19379 0
M  V30 514 H 44.8541 -2.91976 -1.80568 0
M  V30 515 N 47.2992 1.18797 -1.03562 0
M  V30 516 C 48.7152 1.40671 -0.753917 0
M  V30 517 C 48.9152 1.9043 0.658686 0
M  V30 518 O 47.9712 2.08538 1.42366 0
M  V30 519 C 49.2842 2.41192 -1.79574 0
M  V30 520 C 50.8322 2.54928 -1.81606 0
M  V30 521 C 51.3072 3.58709 -2.84766 0
M  V30 522 N 52.7982 3.66212 -2.83625 0
M  V30 523 C 53.5332 4.46225 -3.60098 0
M  V30 524 N 53.0292 5.29888 -4.46308 0
M  V30 525 N 54.8222 4.40939 -3.4861 0
M  V30 526 H 46.9732 0.848221 -1.94728 0
M  V30 527 H 49.2362 0.435081 -0.842264 0
M  V30 528 H 48.9422 2.11669 -2.80872 0
M  V30 529 H 48.8162 3.40467 -1.62365 0
M  V30 530 H 51.2032 2.83771 -0.809817 0
M  V30 531 H 51.2842 1.55784 -2.02891 0
M  V30 532 H 50.9282 3.30607 -3.85566 0
M  V30 533 H 50.8582 4.57519 -2.60737 0
M  V30 534 H 53.3492 3.06466 -2.21105 0
M  V30 535 H 53.6622 5.88078 -5.01382 0
M  V30 536 H 52.0072 5.29326 -4.50377 0
M  V30 537 H 55.1982 3.74624 -2.80668 0
M  V30 538 H 55.3712 5.03056 -4.08459 0
M  V30 539 N 48.7773 0.814389 1.34928 0
M  V30 540 C 49.7093 0.187834 2.28429 0
M  V30 541 C 50.7223 -0.617374 1.5064 0
M  V30 542 O 51.9113 -0.448454 1.72775 0
M  V30 543 C 49.0113 -0.755962 3.30361 0
M  V30 544 C 48.1843 0.00456686 4.374 0
M  V30 545 C 47.2433 -0.858876 5.19143 0
M  V30 546 O 46.2693 -0.306968 5.68372 0
M  V30 547 N 47.4713 -2.17988 5.38016 0
M  V30 548 H 50.2363 0.991105 2.82838 0
M  V30 549 H 47.7973 0.670561 1.4736 0
M  V30 550 H 49.7893 -1.338 3.81942 0
M  V30 551 H 48.3593 -1.46001 2.7641 0
M  V30 552 H 47.5793 0.767865 3.86649 0
M  V30 553 H 48.8673 0.528422 5.06049 0
M  V30 554 H 48.2653 -2.65212 4.99679 0
M  V30 555 H 46.8223 -2.71098 5.92747 0
M  V30 556 N 50.2554 -1.46986 0.568584 0
M  V30 557 C 51.5014 -2.0332 0.0571487 0
M  V30 558 C 51.8564 -1.43384 -1.28291 0
M  V30 559 O 51.1494 -0.584304 -1.82473 0
M  V30 560 C 51.3434 -3.57306 -0.081836 0
M  V30 561 C 51.1724 -4.32174 1.24321 0
M  V30 562 C 49.9424 -4.71633 1.81358 0
M  V30 563 C 52.1404 -4.66598 2.16312 0
M  V30 564 N 50.1224 -5.31191 3.07748 0
M  V30 565 C 51.4934 -5.26578 3.27285 0
M  V30 566 C 53.5484 -4.48527 2.16166 0
M  V30 567 C 52.2514 -5.70395 4.38226 0
M  V30 568 C 54.2774 -4.93351 3.26127 0
M  V30 569 C 53.6394 -5.5339 4.3582 0
M  V30 570 H 49.7384 -0.77943 0.063351 0
M  V30 571 H 52.3224 -1.79323 0.758378 0
M  V30 572 H 50.4934 -3.81046 -0.752207 0
M  V30 573 H 52.2254 -4.00282 -0.59637 0
M  V30 574 H 48.9804 -4.53946 1.35019 0
M  V30 575 H 49.4044 -5.65505 3.72201 0
M  V30 576 H 54.0464 -4.01456 1.32638 0
M  V30 577 H 51.7644 -6.16452 5.22506 0
M  V30 578 H 55.3504 -4.81131 3.27115 0
M  V30 579 H 54.2304 -5.87441 5.19503 0
M  V30 580 N 51.7335 -0.305618 -1.54608 0
M  V30 581 C 52.9795 0.295595 -2.01241 0
M  V30 582 C 53.3345 1.51171 -1.19018 0
M  V30 583 O 52.6275 1.89832 -0.259684 0
M  V30 584 C 52.8215 0.698983 -3.50498 0
M  V30 585 C 52.6505 -0.476491 -4.47168 0
M  V30 586 C 51.4205 -0.969963 -4.95903 0
M  V30 587 C 53.6185 -1.32294 -4.96994 0
M  V30 588 N 51.6005 -2.11172 -5.76437 0
M  V30 589 C 52.9715 -2.31212 -5.75275 0
M  V30 590 C 55.0265 -1.35278 -4.7917 0
M  V30 591 C 53.7295 -3.32896 -6.37631 0
M  V30 592 C 55.7555 -2.35823 -5.42348 0
M  V30 593 C 55.1175 -3.33469 -6.20466 0
M  V30 594 H 51.2165 0.0724992 -0.778632 0
M  V30 595 H 53.8005 -0.436583 -1.89742 0
M  V30 596 H 51.9715 1.40032 -3.62278 0
M  V30 597 H 53.7035 1.28013 -3.8392 0
M  V30 598 H 50.4585 -0.544178 -4.70463 0
M  V30 599 H 50.8825 -2.68714 -6.21387 0
M  V30 600 H 55.5245 -0.61157 -4.18354 0
M  V30 601 H 53.2425 -4.07933 -6.97579 0
M  V30 602 H 56.8285 -2.38911 -5.30484 0
M  V30 603 H 55.7085 -4.09996 -6.68485 0
M  V30 604 N 53.2116 1.57565 -0.0334293 0
M  V30 605 C 54.1416 2.13511 0.945265 0
M  V30 606 C 55.1226 1.05231 1.33643 0
M  V30 607 O 56.3076 1.33084 1.41429 0
M  V30 608 C 53.4376 2.6657 2.22616 0
M  V30 609 C 52.3916 3.79676 1.97561 0
M  V30 610 C 51.7176 4.1918 3.31952 0
M  V30 611 C 53.0176 5.0557 1.31135 0
M  V30 612 H 54.7116 2.95538 0.479325 0
M  V30 613 H 52.2576 1.42166 0.229115 0
M  V30 614 H 54.2106 3.04344 2.91466 0
M  V30 615 H 52.9346 1.8171 2.71384 0
M  V30 616 H 51.5936 3.42347 1.31127 0
M  V30 617 H 51.2416 3.31296 3.78487 0
M  V30 618 H 50.9416 4.95402 3.15992 0
M  V30 619 H 52.4656 4.59541 4.02063 0
M  V30 620 H 53.8796 5.40903 1.89992 0
M  V30 621 H 52.2766 5.86818 1.25559 0
M  V30 622 H 53.3466 4.84062 0.284894 0
M  V30 623 N 54.6897 -0.239769 1.55765 0
M  V30 624 C 55.6527 -1.28038 1.90103 0
M  V30 625 C 56.6527 -1.40723 0.778055 0
M  V30 626 O 57.8427 -1.39301 1.04599 0
M  V30 627 C 54.9747 -2.65702 2.13577 0
M  V30 628 H 56.1677 -0.988048 2.83157 0
M  V30 629 H 53.7207 -0.479382 1.48767 0
M  V30 630 H 54.4557 -3.00063 1.23015 0
M  V30 631 H 54.2407 -2.57875 2.95369 0
M  V30 632 H 55.7307 -3.40828 2.41301 0
M  V30 633 N 56.1678 -1.49265 -0.50573 0
M  V30 634 C 57.4138 -1.58748 -1.26202 0
M  V30 635 C 57.7468 -0.271227 -1.92297 0
M  V30 636 O 57.0218 0.724831 -1.80489 0
M  V30 637 C 57.3048 -2.74332 -2.33268 0
M  V30 638 C 57.1578 -4.15737 -1.71705 0
M  V30 639 C 58.4768 -2.85576 -3.34865 0
M  V30 640 H 55.5958 -0.577826 -0.457478 0
M  V30 641 H 58.2378 -1.81532 -0.560897 0
M  V30 642 H 56.3878 -2.55036 -2.93068 0
M  V30 643 H 58.0598 -4.46537 -1.15769 0
M  V30 644 H 56.3028 -4.21605 -1.02135 0
M  V30 645 H 56.9738 -4.92477 -2.49341 0
M  V30 646 H 59.4498 -3.03127 -2.8505 0
M  V30 647 H 58.3258 -3.68135 -4.07146 0
M  V30 648 H 58.5868 -1.94732 -3.96903 0
M  V30 649 N 57.6459 0.756429 -1.3826 0
M  V30 650 C 58.8709 1.55077 -1.37717 0
M  V30 651 C 59.2959 1.88073 0.03164 0
M  V30 652 O 58.6539 1.50364 1.01293 0
M  V30 653 C 58.7019 2.8283 -2.23695 0
M  V30 654 O 57.8059 3.77862 -1.6521 0
M  V30 655 H 57.1469 0.469152 -0.469885 0
M  V30 656 H 59.6769 0.935019 -1.81985 0
M  V30 657 H 59.6869 3.31783 -2.37453 0
M  V30 658 H 58.3619 2.58144 -3.2609 0
M  V30 659 H 56.9389 3.36555 -1.60578 0
M  V30 660 N 59.124 1.23083 0.984299 0
M  V30 661 C 60.034 1.02515 2.11016 0
M  V30 662 C 61.05 -0.0291702 1.73976 0
M  V30 663 O 62.226 0.165434 2.00719 0
M  V30 664 C 59.291 0.614673 3.41208 0
M  V30 665 C 58.352 1.74359 3.92297 0
M  V30 666 C 57.585 1.35261 5.16275 0
M  V30 667 O 57.808 0.235136 5.69915 0
M  V30 668 O 56.742 2.17227 5.61334 0
M  V30 669 H 60.568 1.96862 2.31255 0
M  V30 670 H 58.153 1.01753 1.09392 0
M  V30 671 H 60.035 0.396518 4.1953 0
M  V30 672 H 58.71 -0.299851 3.22308 0
M  V30 673 H 57.617 2.01635 3.1511 0
M  V30 674 H 58.95 2.63629 4.15645 0
M  V30 675 N 60.6021 -1.18246 1.0419 0
M  V30 676 C 61.5651 -2.20128 0.638452 0
M  V30 677 C 62.5651 -1.57885 -0.304805 0
M  V30 678 O 63.7551 -1.73967 -0.0900369 0
M  V30 679 C 60.8871 -3.4084 -0.0637751 0
M  V30 680 H 62.0801 -2.57336 1.54007 0
M  V30 681 H 59.6331 -1.32152 0.834598 0
M  V30 682 H 60.3681 -3.09166 -0.979136 0
M  V30 683 H 60.1531 -3.8726 0.614198 0
M  V30 684 H 61.6431 -4.16274 -0.332512 0
M  V30 685 N 62.0802 -0.821533 -1.34494 0
M  V30 686 C 63.0102 -0.257138 -2.3208 0
M  V30 687 C 63.9912 0.625645 -1.58176 0
M  V30 688 O 65.1762 0.552811 -1.86166 0
M  V30 689 C 62.3062 0.582958 -3.42372 0
M  V30 690 C 61.2602 -0.202571 -4.2752 0
M  V30 691 C 60.5862 0.760179 -5.29269 0
M  V30 692 C 61.8862 -1.40998 -5.02908 0
M  V30 693 H 63.5802 -1.07247 -2.79532 0
M  V30 694 H 61.1262 -0.517163 -1.34393 0
M  V30 695 H 63.0792 0.987972 -4.09655 0
M  V30 696 H 61.8032 1.43133 -2.93565 0
M  V30 697 H 60.4622 -0.588936 -3.61838 0
M  V30 698 H 60.1102 1.60447 -4.76724 0
M  V30 699 H 59.8102 0.238809 -5.87115 0
M  V30 700 H 61.3342 1.16308 -5.9942 0
M  V30 701 H 62.7482 -1.07905 -5.63054 0
M  V30 702 H 61.1452 -1.86689 -5.70322 0
M  V30 703 H 62.2152 -2.1889 -4.32684 0
M  V30 704 N 63.5583 1.46682 -0.576371 0
M  V30 705 C 64.5213 2.28707 0.150239 0
M  V30 706 C 65.5213 1.38035 0.824794 0
M  V30 707 O 66.7113 1.60476 0.677719 0
M  V30 708 C 63.8433 3.18248 1.22192 0
M  V30 709 H 65.0363 2.94423 -0.570521 0
M  V30 710 H 62.5893 1.52688 -0.334078 0
M  V30 711 H 63.3243 2.57265 1.97447 0
M  V30 712 H 63.1093 3.85 0.742812 0
M  V30 713 H 64.5993 3.80001 1.73172 0
M  V30 714 N 65.0364 0.313813 1.54444 0
M  V30 715 C 65.9464 -0.565714 2.27677 0
M  V30 716 C 66.9624 -1.13754 1.31666 0
M  V30 717 O 68.1384 -1.15959 1.64668 0
M  V30 718 C 65.2034 -1.71528 3.01296 0
M  V30 719 C 64.2644 -1.17624 4.12872 0
M  V30 720 C 63.4974 -2.27102 4.8297 0
M  V30 721 O 63.7204 -3.47256 4.52514 0
M  V30 722 O 62.6544 -1.9307 5.70094 0
M  V30 723 H 66.4804 0.0287296 3.03686 0
M  V30 724 H 64.0654 0.0798312 1.49187 0
M  V30 725 H 65.9474 -2.38476 3.4743 0
M  V30 726 H 64.6224 -2.29608 2.2817 0
M  V30 727 H 63.5294 -0.472124 3.71109 0
M  V30 728 H 64.8624 -0.640695 4.88012 0
M  V30 729 N 66.5145 -1.57545 0.0417849 0
M  V30 730 C 67.4475 -2.06514 -0.970928 0
M  V30 731 C 68.4255 -0.963607 -1.30971 0
M  V30 732 O 69.6095 -1.23486 -1.4242 0
M  V30 733 C 66.7365 -2.4978 -2.28752 0
M  V30 734 C 65.7825 -3.71078 -2.10246 0
M  V30 735 S 66.6155 -5.17158 -1.38952 0
M  V30 736 C 67.7715 -5.6373 -2.71954 0
M  V30 737 H 68.0045 -2.9209 -0.554129 0
M  V30 738 H 65.5375 -1.53459 -0.17024 0
M  V30 739 H 67.4955 -2.75371 -3.04435 0
M  V30 740 H 66.1565 -1.64527 -2.67562 0
M  V30 741 H 65.3495 -3.9924 -3.07609 0
M  V30 742 H 64.9515 -3.45705 -1.42704 0
M  V30 743 H 67.2435 -5.68743 -3.68154 0
M  V30 744 H 68.1865 -6.63086 -2.4844 0
M  V30 745 H 68.5945 -4.91424 -2.77782 0
M  V30 746 N 67.9926 0.231505 -1.5589 0
M  V30 747 C 68.9226 1.29022 -1.94617 0
M  V30 748 C 69.9036 1.4941 -0.813067 0
M  V30 749 O 71.0886 1.6176 -1.07459 0
M  V30 750 C 68.2186 2.64199 -2.25424 0
M  V30 751 C 67.1726 2.58484 -3.41131 0
M  V30 752 C 66.4986 3.97599 -3.57518 0
M  V30 753 C 67.7986 2.1413 -4.76388 0
M  V30 754 H 69.4926 0.968563 -2.83301 0
M  V30 755 H 67.0386 0.464479 -1.36303 0
M  V30 756 H 68.9916 3.38413 -2.51107 0
M  V30 757 H 67.7156 2.98032 -1.33583 0
M  V30 758 H 66.3746 1.86727 -3.15481 0
M  V30 759 H 66.0226 4.28723 -2.6307 0
M  V30 760 H 65.7226 3.94659 -4.35337 0
M  V30 761 H 67.2466 4.7349 -3.85538 0
M  V30 762 H 68.6606 2.78083 -5.01341 0
M  V30 763 H 67.0576 2.2227 -5.57419 0
M  V30 764 H 68.1276 1.09331 -4.72414 0
M  V30 765 N 69.4707 1.49531 0.497807 0
M  V30 766 C 70.8867 1.36365 0.829266 0
M  V30 767 C 71.0867 0.399184 1.97506 0
M  V30 768 O 70.1427 -0.167977 2.51941 0
M  V30 769 C 71.4557 2.77153 1.16647 0
M  V30 770 C 73.0037 2.85877 1.27449 0
M  V30 771 C 73.4787 4.2744 1.64497 0
M  V30 772 N 74.9697 4.30265 1.7154 0
M  V30 773 C 75.7047 5.3677 2.01656 0
M  V30 774 N 75.2007 6.53516 2.29976 0
M  V30 775 N 76.9937 5.24189 2.02934 0
M  V30 776 H 69.1447 2.10831 -0.257703 0
M  V30 777 H 71.4077 0.946534 -0.0527091 0
M  V30 778 H 71.1137 3.49442 0.397872 0
M  V30 779 H 70.9877 3.12722 2.10915 0
M  V30 780 H 73.3747 2.13824 2.0338 0
M  V30 781 H 73.4557 2.53887 0.312244 0
M  V30 782 H 73.0997 5.00021 0.891151 0
M  V30 783 H 73.0297 4.56896 2.61827 0
M  V30 784 H 75.5207 3.4607 1.51802 0
M  V30 785 H 75.8337 7.30506 2.52153 0
M  V30 786 H 74.1787 6.56737 2.27425 0
M  V30 787 H 77.3697 4.31988 1.80289 0
M  V30 788 H 77.5427 6.07286 2.26071 0
M  V30 789 N 70.9488 -0.749086 1.3866 0
M  V30 790 C 71.9118 -1.84457 1.36045 0
M  V30 791 C 72.9118 -1.58682 0.260122 0
M  V30 792 O 74.1018 -1.66343 0.517261 0
M  V30 793 C 71.2338 -3.22008 1.11911 0
M  V30 794 H 72.4268 -1.88182 2.33512 0
M  V30 795 H 69.9798 -0.951266 1.24019 0
M  V30 796 H 70.7148 -3.2395 0.150686 0
M  V30 797 H 70.4998 -3.42111 1.91579 0
M  V30 798 H 71.9898 -4.0208 1.12788 0
M  V30 799 N 72.4269 -1.23603 -0.977757 0
M  V30 800 C 73.3589 -0.977369 -2.07317 0
M  V30 801 C 74.3719 0.0495845 -1.62724 0
M  V30 802 O 75.5609 -0.186261 -1.77526 0
M  V30 803 C 72.6609 -0.451216 -3.35883 0
M  V30 804 C 71.8339 -1.53896 -4.09432 0
M  V30 805 C 70.8929 -1.01721 -5.16274 0
M  V30 806 O 69.9189 -1.70676 -5.43009 0
M  V30 807 N 71.1209 0.153594 -5.80297 0
M  V30 808 H 73.8859 -1.92047 -2.30082 0
M  V30 809 H 71.4469 -1.14497 -1.14465 0
M  V30 810 H 73.4389 -0.0871574 -4.04606 0
M  V30 811 H 72.0089 0.397368 -3.10064 0
M  V30 812 H 71.2289 -2.07566 -3.35127 0
M  V30 813 H 72.5169 -2.27037 -4.55337 0
M  V30 814 H 71.9149 0.730323 -5.60966 0
M  V30 815 H 70.4719 0.458892 -6.50183 0
M  V30 816 N 73.905 1.17692 -1.04816 0
M  V30 817 C 75.316 1.69501 -0.782698 0
M  V30 818 C 75.667 1.83456 0.695577 0
M  V30 819 O 74.792 1.51942 1.54086 0
M  V30 820 C 75.387 3.07874 -1.41419 0
M  V30 821 C 73.946 3.56864 -1.19686 0
M  V30 822 C 73.093 2.3322 -1.50012 0
M  V30 823 H 76.044 1.02262 -1.2136 0
M  V30 824 H 76.065 3.71528 -0.821428 0
M  V30 825 H 75.577 2.97685 -2.49009 0
M  V30 826 H 73.678 3.72337 -0.140043 0
M  V30 827 H 73.791 4.39851 -1.89916 0
M  V30 828 H 72.155 2.37501 -0.920071 0
M  V30 829 H 72.938 2.25644 -2.58727 0
M  V30 830 N 75.3831 0.828654 1.34056 0
M  V30 831 C 76.6301 0.419458 1.98108 0
M  V30 832 C 76.9581 -1.01886 1.65679 0
M  V30 833 O 76.2131 -1.72539 0.923512 0
M  V30 834 C 76.5121 0.575226 3.52741 0
M  V30 835 C 76.1781 1.98012 4.05095 0
M  V30 836 C 74.8401 2.36442 4.19104 0
M  V30 837 C 77.1921 2.89824 4.33188 0
M  V30 838 C 74.5201 3.66009 4.58535 0
M  V30 839 C 76.8721 4.1886 4.74066 0
M  V30 840 C 75.5361 4.5726 4.86281 0
M  V30 841 H 74.8061 0.153491 0.724929 0
M  V30 842 H 77.4531 1.05371 1.59904 0
M  V30 843 H 75.7581 -0.142385 3.91541 0
M  V30 844 H 77.4551 0.239057 4.00287 0
M  V30 845 H 74.0451 1.67162 3.94658 0
M  V30 846 H 78.2291 2.61375 4.21897 0
M  V30 847 H 73.4851 3.95579 4.66184 0
M  V30 848 H 77.6591 4.90086 4.94761 0
M  V30 849 H 75.2861 5.57707 5.16592 0
M  V30 850 N 76.8612 -1.46375 0.584142 0
M  V30 851 C 77.8242 -2.28784 -0.138108 0
M  V30 852 C 78.8242 -1.38471 -0.817462 0
M  V30 853 O 80.0142 -1.60833 -0.669199 0
M  V30 854 C 77.1462 -3.18892 -1.20503 0
M  V30 855 H 78.3392 -2.94117 0.586127 0
M  V30 856 H 75.8922 -1.52509 0.342171 0
M  V30 857 H 76.6272 -2.58309 -1.96079 0
M  V30 858 H 76.4122 -3.85388 -0.722384 0
M  V30 859 H 77.9022 -3.80914 -1.71155 0
M  V30 860 N 78.3393 -0.321999 -1.54275 0
M  V30 861 C 79.2863 0.544664 -2.24281 0
M  V30 862 C 80.2563 1.1129 -1.23303 0
M  V30 863 O 81.4413 1.15354 -1.51981 0
M  V30 864 C 78.5813 1.70045 -3.00298 0
M  V30 865 C 77.6943 1.16159 -4.1609 0
M  V30 866 C 76.8293 2.28293 -4.79641 0
M  V30 867 C 75.8683 1.71648 -5.8754 0
M  V30 868 N 75.0053 2.77438 -6.44959 0
M  V30 869 H 79.8453 -0.0588907 -2.97942 0
M  V30 870 H 77.3823 -0.0408345 -1.47043 0
M  V30 871 H 79.3403 2.38054 -3.42616 0
M  V30 872 H 77.9703 2.27531 -2.28975 0
M  V30 873 H 77.0223 0.373092 -3.78566 0
M  V30 874 H 78.3343 0.707087 -4.93763 0
M  V30 875 H 77.4883 3.0421 -5.2492 0
M  V30 876 H 76.2273 2.77079 -4.01346 0
M  V30 877 H 75.2323 0.942282 -5.41665 0
M  V30 878 H 76.4573 1.23741 -6.67731 0
M  V30 879 H 74.4033 3.25519 -5.69538 0
M  V30 880 H 74.3203 2.36547 -7.1804 0
M  V30 881 H 75.5883 3.53189 -6.94894 0
M  V30 882 N 79.8174 1.5752 -0.0501392 0
M  V30 883 C 81.2284 1.80271 0.485705 0
M  V30 884 C 81.5794 0.96228 1.70981 0
M  V30 885 O 80.7044 0.178578 2.15662 0
M  V30 886 C 81.2994 3.26957 0.887938 0
M  V30 887 C 79.8584 3.5063 1.36877 0
M  V30 888 C 79.0054 2.75165 0.343468 0
M  V30 889 H 81.9564 1.56281 -0.276028 0
M  V30 890 H 81.9774 3.37821 1.75093 0
M  V30 891 H 81.4894 3.881 -0.0031809 0
M  V30 892 H 79.5904 2.94766 2.27911 0
M  V30 893 H 79.7034 4.59343 1.36164 0
M  V30 894 H 78.0674 2.4127 0.816128 0
M  V30 895 H 78.8504 3.39034 -0.539548 0
M  V30 896 N 81.2955 -0.223234 1.56011 0
M  V30 897 C 82.5415 -0.949279 1.79211 0
M  V30 898 C 82.8745 -1.84054 0.619494 0
M  V30 899 O 82.1495 -1.90726 -0.381317 0
M  V30 900 C 82.4325 -1.78965 3.12479 0
M  V30 901 C 82.2855 -0.924997 4.40186 0
M  V30 902 C 83.6045 -2.76774 3.42175 0
M  V30 903 H 80.7235 -0.343676 0.651963 0
M  V30 904 H 83.3655 -0.218253 1.88742 0
M  V30 905 H 81.5155 -2.41291 3.04485 0
M  V30 906 H 83.1875 -0.318615 4.60198 0
M  V30 907 H 81.4305 -0.230344 4.33188 0
M  V30 908 H 82.1015 -1.54735 5.29869 0
M  V30 909 H 84.5775 -2.24584 3.50287 0
M  V30 910 H 83.4535 -3.32678 4.36597 0
M  V30 911 H 83.7145 -3.54429 2.64258 0
M  V30 912 N 82.7736 -1.49793 -0.48987 0
M  V30 913 C 83.7366 -1.66752 -1.57246 0
M  V30 914 C 84.7366 -0.538867 -1.51502 0
M  V30 915 O 85.9266 -0.805545 -1.54456 0
M  V30 916 C 83.0586 -1.67528 -2.96896 0
M  V30 917 H 84.2516 -2.63321 -1.43534 0
M  V30 918 H 81.8046 -1.38992 -0.714914 0
M  V30 919 H 82.5396 -0.725837 -3.16073 0
M  V30 920 H 82.3246 -2.49504 -3.02473 0
M  V30 921 H 83.8146 -1.82667 -3.7553 0
M  V30 922 N 84.2517 0.741722 -1.39055 0
M  V30 923 C 85.1997 1.87702 -1.3737 0
M  V30 924 C 86.1937 1.67427 -0.257812 0
M  V30 925 O 87.3997 1.7485 -0.427489 0
M  V30 926 H 83.7747 0.617757 -0.428812 0
M  V30 927 H 85.7457 1.86239 -2.33147 0
M  V30 928 C 84.4947 3.25315 -1.22741 0
M  V30 929 H 83.8177 3.41509 -2.07873 0
M  V30 930 H 85.2577 4.04964 -1.25618 0
M  V30 931 C 83.7167 3.36838 0.0647316 0
M  V30 932 O 84.2467 3.88073 1.03741 0
M  V30 933 N 82.4527 2.90329 0.125544 0
M  V30 934 H 81.9997 2.48823 -0.666682 0
M  V30 935 H 81.9577 2.98418 0.989639 0
M  V30 936 N 85.7298 1.2412 0.971189 0
M  V30 937 C 86.6618 0.988349 2.06795 0
M  V30 938 C 87.6748 -0.0409541 1.62748 0
M  V30 939 O 88.8638 0.195673 1.77424 0
M  V30 940 C 85.9638 0.469023 3.35639 0
M  V30 941 C 85.1368 1.56065 4.08611 0
M  V30 942 C 84.1958 1.04458 5.15728 0
M  V30 943 O 83.2218 1.73553 5.42096 0
M  V30 944 N 84.4238 -0.122817 5.8037 0
M  V30 945 H 87.1888 1.93265 2.29061 0
M  V30 946 H 84.7498 1.15102 1.13856 0
M  V30 947 H 86.7418 0.108613 4.04554 0
M  V30 948 H 85.3118 -0.380919 3.1027 0
M  V30 949 H 84.5318 2.09341 3.34021 0
M  V30 950 H 85.8198 2.29449 4.54126 0
M  V30 951 H 85.2178 -0.700563 5.61345 0
M  V30 952 H 83.7748 -0.424404 6.50417 0
M  V30 953 N 87.2079 -1.17134 1.05439 0
M  V30 954 C 88.6239 -1.39454 0.776201 0
M  V30 955 C 88.8239 -1.91454 -0.628307 0
M  V30 956 O 87.8799 -2.10777 -1.39031 0
M  V30 957 C 89.1929 -2.38305 1.83388 0
M  V30 958 C 90.7409 -2.52006 1.85639 0
M  V30 959 C 91.2159 -3.54133 2.90437 0
M  V30 960 N 92.7069 -3.61653 2.89415 0
M  V30 961 C 93.4419 -4.4044 3.67152 0
M  V30 962 N 92.9379 -5.22721 4.54681 0
M  V30 963 N 94.7309 -4.35337 3.55581 0
M  V30 964 H 86.8819 -0.817134 1.96053 0
M  V30 965 H 89.1449 -0.421626 0.849079 0
M  V30 966 H 88.8509 -2.07173 2.84204 0
M  V30 967 H 88.7249 -3.37841 1.67761 0
M  V30 968 H 91.1119 -2.82447 0.85486 0
M  V30 969 H 91.1929 -1.52537 2.05344 0
M  V30 970 H 90.8369 -3.24431 3.90777 0
M  V30 971 H 90.7669 -4.53313 2.67983 0
M  V30 972 H 93.2579 -3.02909 2.25952 0
M  V30 973 H 93.5709 -5.80027 5.10674 0
M  V30 974 H 91.9159 -5.22093 4.58741 0
M  V30 975 H 95.1069 -3.70112 2.86592 0
M  V30 976 H 95.2799 -4.96494 4.1641 0
M  V30 977 N 88.686 -0.835752 -1.33615 0
M  V30 978 C 89.636 -0.238856 -2.26745 0
M  V30 979 C 90.62 0.604343 -1.49119 0
M  V30 980 O 91.812 0.456822 -1.71003 0
M  V30 981 C 88.941 0.587725 -3.38232 0
M  V30 982 C 88.027 -0.266811 -4.2326 0
M  V30 983 N 88.418 -1.34403 -4.87616 0
M  V30 984 C 86.716 -0.0533131 -4.45968 0
M  V30 985 C 87.417 -1.86819 -5.50884 0
M  V30 986 N 86.393 -1.17013 -5.30857 0
M  V30 987 H 90.195 -1.06266 -2.74016 0
M  V30 988 H 87.709 -0.679881 -1.47483 0
M  V30 989 H 89.706 1.03161 -4.03935 0
M  V30 990 H 88.366 1.40954 -2.9251 0
M  V30 991 H 89.377 -1.7269 -4.88261 0
M  V30 992 H 86.054 0.735312 -4.10974 0
M  V30 993 H 87.444 -2.7701 -6.1214 0
M  V30 994 N 90.1641 1.46063 -0.591896 0
M  V30 995 C 91.4101 2.02638 -0.0811191 0
M  V30 996 C 91.7431 1.4613 1.27905 0
M  V30 997 O 91.0181 0.629908 1.84017 0
M  V30 998 C 91.3011 3.60091 -0.0252436 0
M  V30 999 C 91.1541 4.26965 -1.41496 0
M  V30 1000 C 92.4731 4.3496 0.670685 0
M  V30 1001 H 89.5921 0.73635 -0.0309524 0
M  V30 1002 H 92.2341 1.741 -0.760859 0
M  V30 1003 H 90.3841 3.84535 0.553624 0
M  V30 1004 H 92.0561 4.13756 -2.0397 0
M  V30 1005 H 90.2991 3.85971 -1.98011 0
M  V30 1006 H 90.9701 5.35781 -1.32825 0
M  V30 1007 H 93.4461 4.15716 0.178825 0
M  V30 1008 H 92.3221 5.44686 0.678837 0
M  V30 1009 H 92.5831 4.06685 1.73379 0
M  V30 1010 N 91.6422 0.330177 1.54103 0
M  V30 1011 C 92.5902 -0.548226 2.26047 0
M  V30 1012 C 93.5842 -1.11309 1.27698 0
M  V30 1013 O 94.7902 -1.06036 1.45452 0
M  V30 1014 H 91.1652 -0.195456 0.726155 0
M  V30 1015 H 93.1362 0.0807567 2.98291 0
M  V30 1016 C 91.8852 -1.69415 3.03634 0
M  V30 1017 H 91.2082 -1.26876 3.79134 0
M  V30 1018 H 92.6482 -2.28423 3.5721 0
M  V30 1019 C 91.1072 -2.61569 2.12328 0
M  V30 1020 O 91.6372 -3.63462 1.7105 0
M  V30 1021 N 89.8432 -2.29952 1.77681 0
M  V30 1022 H 89.3902 -1.47134 2.11446 0
M  V30 1023 H 89.3482 -2.91871 1.16869 0
M  V30 1024 N 93.1203 -1.57491 0.0584922 0
M  V30 1025 C 94.3503 -1.9701 -0.622134 0
M  V30 1026 C 94.7583 -0.935034 -1.6448 0
M  V30 1027 O 94.1013 0.0882904 -1.83488 0
M  V30 1028 C 94.1633 -3.32794 -1.35972 0
M  V30 1029 C 93.8273 -4.54343 -0.492043 0
M  V30 1030 C 94.8243 -5.19323 0.244901 0
M  V30 1031 C 92.5093 -5.00534 -0.420821 0
M  V30 1032 C 94.5033 -6.28835 1.04143 0
M  V30 1033 C 92.1903 -6.09921 0.379389 0
M  V30 1034 C 93.1883 -6.73933 1.10919 0
M  V30 1035 O 92.8763 -7.81216 1.89623 0
M  V30 1036 H 92.6083 -0.653127 -0.174359 0
M  V30 1037 H 95.1623 -2.05029 0.123418 0
M  V30 1038 H 93.3923 -3.21351 -2.15105 0
M  V30 1039 H 95.0813 -3.5701 -1.93129 0
M  V30 1040 H 95.8473 -4.8459 0.19939 0
M  V30 1041 H 91.7263 -4.50496 -0.978474 0
M  V30 1042 H 95.2703 -6.7873 1.61157 0
M  V30 1043 H 91.1673 -6.44089 0.426512 0
M  V30 1044 H 91.9353 -7.98029 1.81913 0
M  V30 1045 N 94.5984 0.214957 -1.56127 0
M  V30 1046 C 95.8474 0.936451 -1.78643 0
M  V30 1047 C 96.1604 1.85237 -0.628229 0
M  V30 1048 O 97.3664 2.613 -0.737186 0
M  V30 1049 C 95.8224 1.7154 -3.16389 0
M  V30 1050 C 95.4304 0.845299 -4.39953 0
M  V30 1051 C 97.1744 2.42772 -3.48227 0
M  V30 1052 C 95.0814 1.62198 -5.68723 0
M  V30 1053 H 94.0114 0.353401 -0.666051 0
M  V30 1054 H 96.6624 0.190169 -1.82512 0
M  V30 1055 H 95.0444 2.50484 -3.06715 0
M  V30 1056 H 96.2184 0.0959353 -4.607 0
M  V30 1057 H 94.5334 0.244789 -4.1568 0
M  V30 1058 H 97.1304 3.01394 -4.41663 0
M  V30 1059 H 97.4734 3.15984 -2.71035 0
M  V30 1060 H 98.0064 1.70813 -3.5926 0
M  V30 1061 H 94.7454 0.933011 -6.48826 0
M  V30 1062 H 94.2654 2.34579 -5.52026 0
M  V30 1063 H 95.9444 2.18095 -6.09133 0
M  V30 1064 N 96.0765 1.50051 0.48192 0
M  V30 1065 C 97.3015 1.64508 1.26301 0
M  V30 1066 C 97.7265 0.323851 1.85291 0
M  V30 1067 O 97.0845 -0.710969 1.66778 0
M  V30 1068 C 97.1325 2.7305 2.35533 0
M  V30 1069 O 96.2365 2.3355 3.39895 0
M  V30 1070 H 95.5775 0.549978 0.372048 0
M  V30 1071 H 98.1075 1.9636 0.574786 0
M  V30 1072 H 98.1175 2.95799 2.8101 0
M  V30 1073 H 96.7925 3.68946 1.91967 0
M  V30 1074 H 95.3695 2.21205 3.00204 0
M  V30 1075 N 97.5546 -0.734337 1.39446 0
M  V30 1076 C 98.4876 -1.85715 1.32609 0
M  V30 1077 C 99.4656 -1.6137 0.199636 0
M  V30 1078 O 100.65 -1.84626 0.380195 0
M  V30 1079 C 97.7766 -3.21709 1.05929 0
M  V30 1080 C 96.8226 -3.64913 2.20773 0
M  V30 1081 S 97.6556 -3.74203 3.83056 0
M  V30 1082 C 98.8116 -5.12986 3.58603 0
M  V30 1083 H 99.0446 -1.91232 2.27635 0
M  V30 1084 H 96.5776 -0.899263 1.25509 0
M  V30 1085 H 98.5356 -4.00236 0.912203 0
M  V30 1086 H 97.1966 -3.13848 0.125883 0
M  V30 1087 H 96.3896 -4.63606 1.97699 0
M  V30 1088 H 95.9916 -2.93593 2.31688 0
M  V30 1089 H 98.2836 -5.99339 3.15909 0
M  V30 1090 H 99.2266 -5.41088 4.5676 0
M  V30 1091 H 99.6346 -4.82694 2.9269 0
M  V30 1092 N 99.0327 -1.24633 -0.964593 0
M  V30 1093 C 99.9427 -1.05859 -2.09359 0
M  V30 1094 C 100.959 0.00148855 -1.74 0
M  V30 1095 O 102.135 -0.197346 -2.00431 0
M  V30 1096 C 99.1997 -0.668879 -3.40187 0
M  V30 1097 C 98.2607 -1.80578 -3.89474 0
M  V30 1098 C 97.4937 -1.43457 -5.14058 0
M  V30 1099 O 97.7167 -0.325775 -5.69469 0
M  V30 1100 O 96.6507 -2.2613 -5.57807 0
M  V30 1101 H 100.477 -2.00516 -2.28094 0
M  V30 1102 H 98.0617 -1.03481 -1.0776 0
M  V30 1103 H 99.9437 -0.463211 -4.18846 0
M  V30 1104 H 98.6187 0.248536 -3.22744 0
M  V30 1105 H 97.5257 -2.06623 -3.11862 0
M  V30 1106 H 98.8587 -2.70208 -4.11398 0
M  V30 1107 N 100.511 1.16574 -1.06058 0
M  V30 1108 C 101.758 1.87047 -0.775873 0
M  V30 1109 C 102.086 1.81562 0.697534 0
M  V30 1110 O 101.341 1.22445 1.52662 0
M  V30 1111 C 101.64 3.36195 -1.21275 0
M  V30 1112 C 101.306 3.6188 -2.68986 0
M  V30 1113 C 99.9678 3.68599 -3.09335 0
M  V30 1114 C 102.32 3.72648 -3.64394 0
M  V30 1115 C 99.6478 3.83584 -4.43937 0
M  V30 1116 C 102 3.89154 -4.98741 0
M  V30 1117 C 100.664 3.94114 -5.3873 0
M  V30 1118 H 99.9338 0.684452 -0.283912 0
M  V30 1119 H 102.581 1.37853 -1.32925 0
M  V30 1120 H 100.886 3.87505 -0.578528 0
M  V30 1121 H 102.583 3.89103 -0.969542 0
M  V30 1122 H 99.1728 3.57281 -2.36744 0
M  V30 1123 H 103.357 3.66769 -3.34356 0
M  V30 1124 H 98.6128 3.85677 -4.74409 0
M  V30 1125 H 102.787 3.96427 -5.72554 0
M  V30 1126 H 100.414 4.05478 -6.43033 0
M  V30 1127 N 101.989 0.842826 1.3317 0
M  V30 1128 C 102.919 0.294028 2.31641 0
M  V30 1129 C 103.9 -0.600401 1.59151 0
M  V30 1130 O 105.085 -0.523124 1.87022 0
M  V30 1131 C 102.215 -0.528416 3.43257 0
M  V30 1132 C 101.169 0.27056 4.27144 0
M  V30 1133 C 100.495 -0.675881 5.30411 0
M  V30 1134 C 101.795 1.48981 5.00602 0
M  V30 1135 H 103.489 1.11681 2.77791 0
M  V30 1136 H 101.035 0.538478 1.33553 0
M  V30 1137 H 102.988 -0.922674 4.11175 0
M  V30 1138 H 101.712 -1.38445 2.95805 0
M  V30 1139 H 100.371 0.646427 3.60856 0
M  V30 1140 H 100.019 -1.52842 4.79216 0
M  V30 1141 H 99.7189 -0.145374 5.8742 0
M  V30 1142 H 101.243 -1.06757 6.01195 0
M  V30 1143 H 102.657 1.16849 5.61266 0
M  V30 1144 H 101.054 1.95739 5.6728 0
M  V30 1145 H 102.124 2.25746 4.29147 0
M  V30 1146 N 103.467 -1.45747 0.599634 0
M  V30 1147 C 104.716 -2.01502 0.0893511 0
M  V30 1148 C 105.029 -1.4748 -1.28488 0
M  V30 1149 O 106.235 -1.95161 -1.88745 0
M  V30 1150 C 104.691 -3.59735 0.109082 0
M  V30 1151 C 104.299 -4.22754 1.48267 0
M  V30 1152 C 106.043 -4.23085 -0.346374 0
M  V30 1153 C 103.95 -5.73115 1.45921 0
M  V30 1154 H 102.88 -0.753417 0.0296347 0
M  V30 1155 H 105.531 -1.67303 0.753788 0
M  V30 1156 H 103.913 -3.91087 -0.621854 0
M  V30 1157 H 105.087 -4.02987 2.23468 0
M  V30 1158 H 103.402 -3.71567 1.87955 0
M  V30 1159 H 105.999 -5.33327 -0.38298 0
M  V30 1160 H 106.342 -3.93201 -1.36743 0
M  V30 1161 H 106.875 -3.9642 0.331038 0
M  V30 1162 H 103.614 -6.07685 2.45762 0
M  V30 1163 H 103.134 -5.95097 0.749665 0
M  V30 1164 H 104.813 -6.3616 1.17941 0
M  V30 1165 N 104.945 -0.338344 -1.53925 0
M  V30 1166 C 106.193 0.259245 -2.0043 0
M  V30 1167 C 106.514 1.51484 -1.22791 0
M  V30 1168 O 105.784 1.93037 -0.33368 0
M  V30 1169 H 104.364 0.0987845 -0.740439 0
M  V30 1170 H 107.026 -0.458302 -1.89435 0
M  V30 1171 H 106.122 0.505334 -3.07982 0
M  V30 1172 N 106.423 1.57458 -0.0668435 0
M  V30 1173 C 107.839 1.56947 0.289772 0
M  V30 1174 C 108.039 1.07584 1.70376 0
M  V30 1175 O 107.095 0.739486 2.41429 0
M  V30 1176 C 108.408 3.0052 0.103943 0
M  V30 1177 C 109.956 3.12517 0.173857 0
M  V30 1178 C 110.431 4.57997 0.0163682 0
M  V30 1179 N 111.922 4.63144 0.0721352 0
M  V30 1180 C 112.657 5.73394 -0.0253794 0
M  V30 1181 N 112.153 6.92576 -0.176133 0
M  V30 1182 N 113.946 5.62091 0.0313305 0
M  V30 1183 H 106.097 1.87863 -0.991027 0
M  V30 1184 H 108.36 0.86583 -0.38606 0
M  V30 1185 H 108.066 3.40729 -0.871572 0
M  V30 1186 H 107.94 3.67304 0.858366 0
M  V30 1187 H 110.327 2.72197 1.13985 0
M  V30 1188 H 110.408 2.48381 -0.611586 0
M  V30 1189 H 110.052 4.99005 -0.946374 0
M  V30 1190 H 109.982 5.20158 0.821153 0
M  V30 1191 H 112.473 3.77436 0.187263 0
M  V30 1192 H 112.786 7.72418 -0.242821 0
M  V30 1193 H 111.131 6.94678 -0.211429 0
M  V30 1194 H 114.322 4.67867 0.147773 0
M  V30 1195 H 114.495 6.47982 -0.048121 0
M  V30 1196 N 107.901 -0.206675 1.56239 0
M  V30 1197 C 108.831 -1.25909 1.96645 0
M  V30 1198 C 109.812 -1.48097 0.836734 0
M  V30 1199 O 110.997 -1.6003 1.10019 0
M  V30 1200 C 108.127 -2.6058 2.29599 0
M  V30 1201 C 107.081 -2.53024 3.452 0
M  V30 1202 C 106.407 -3.91861 3.63798 0
M  V30 1203 C 107.707 -2.06524 4.79734 0
M  V30 1204 H 109.401 -0.923369 2.84806 0
M  V30 1205 H 106.947 -0.442735 1.37025 0
M  V30 1206 H 108.9 -3.34375 2.56459 0
M  V30 1207 H 107.624 -2.95869 1.38307 0
M  V30 1208 H 106.283 -1.81684 3.18412 0
M  V30 1209 H 105.931 -4.24483 2.69857 0
M  V30 1210 H 105.631 -3.87683 4.4156 0
M  V30 1211 H 107.155 -4.67296 3.93022 0
M  V30 1212 H 108.569 -2.70072 5.05702 0
M  V30 1213 H 106.966 -2.13374 5.60885 0
M  V30 1214 H 108.036 -1.01802 4.74093 0
M  V30 1215 N 109.379 -1.50304 -0.473955 0
M  V30 1216 C 110.607 -1.64902 -1.24959 0
M  V30 1217 C 111.022 -0.331198 -1.85872 0
M  V30 1218 O 110.379 0.68652 -1.69095 0
M  V30 1219 C 110.43 -2.73803 -2.36038 0
M  V30 1220 O 110.151 -4.00477 -1.77624 0
M  V30 1221 C 111.652 -2.99349 -3.26964 0
M  V30 1222 H 108.872 -0.554383 -0.378022 0
M  V30 1223 H 111.416 -1.9651 -0.566054 0
M  V30 1224 H 109.571 -2.44898 -3.00173 0
M  V30 1225 H 109.985 -4.60678 -2.5075 0
M  V30 1226 H 111.459 -3.79217 -4.01121 0
M  V30 1227 H 111.936 -2.10307 -3.85574 0
M  V30 1228 H 112.542 -3.29774 -2.68569 0
M  V30 1229 N 110.857 0.726932 -1.39834 0
M  V30 1230 C 112.105 1.4837 -1.37225 0
M  V30 1231 C 112.426 1.94979 0.0284857 0
M  V30 1232 O 111.696 1.69555 0.981213 0
M  V30 1233 H 110.276 0.55043 -0.505011 0
M  V30 1234 H 112.938 0.862468 -1.74778 0
M  V30 1235 H 112.034 2.36198 -2.04003 0
M  V30 1236 N 112.336 1.25143 0.95797 0
M  V30 1237 C 113.284 1.05019 2.07542 0
M  V30 1238 C 114.278 -0.0178751 1.69391 0
M  V30 1239 O 115.484 0.137472 1.79474 0
M  V30 1240 H 111.859 0.32265 0.679265 0
M  V30 1241 H 113.83 1.99759 2.21673 0
M  V30 1242 C 112.579 0.682074 3.40944 0
M  V30 1243 H 111.902 1.49573 3.70767 0
M  V30 1244 H 113.342 0.580945 4.20001 0
M  V30 1245 C 111.801 -0.611608 3.31302 0
M  V30 1246 O 112.331 -1.65465 3.66038 0
M  V30 1247 N 110.537 -0.595982 2.84423 0
M  V30 1248 H 110.084 0.253192 2.56353 0
M  V30 1249 H 110.042 -1.46173 2.78354 0
M  V30 1250 N 113.814 -1.1601 1.06675 0
M  V30 1251 C 114.762 -2.22586 0.675157 0
M  V30 1252 C 115.756 -1.66525 -0.310766 0
M  V30 1253 O 116.962 -1.79145 -0.175215 0
M  V30 1254 H 113.337 -0.724855 0.200223 0
M  V30 1255 H 115.308 -2.52899 1.58381 0
M  V30 1256 C 114.057 -3.47604 0.0817162 0
M  V30 1257 H 113.38 -3.91058 0.831484 0
M  V30 1258 H 114.82 -4.23718 -0.154708 0
M  V30 1259 C 113.279 -3.15718 -1.17576 0
M  V30 1260 O 113.809 -3.31878 -2.26318 0
M  V30 1261 N 112.015 -2.69816 -1.07923 0
M  V30 1262 H 111.562 -2.56866 -0.194293 0
M  V30 1263 H 111.52 -2.48855 -1.92141 0
M  V30 1264 N 115.292 -0.849877 -1.32721 0
M  V30 1265 C 116.222 -0.306308 -2.31482 0
M  V30 1266 C 117.203 0.591952 -1.59468 0
M  V30 1267 O 118.388 0.513199 -1.87296 0
M  V30 1268 C 115.518 0.510204 -3.43532 0
M  V30 1269 C 114.472 -0.293209 -4.26994 0
M  V30 1270 C 113.798 0.647743 -5.30762 0
M  V30 1271 C 115.098 -1.51634 -4.99804 0
M  V30 1272 H 116.792 -1.13153 -2.77195 0
M  V30 1273 H 114.338 -0.545553 -1.33266 0
M  V30 1274 H 116.291 0.900856 -4.11658 0
M  V30 1275 H 115.015 1.36874 -2.96535 0
M  V30 1276 H 113.674 -0.665555 -3.60508 0
M  V30 1277 H 113.322 1.50299 -4.8002 0
M  V30 1278 H 113.022 0.11422 -5.87489 0
M  V30 1279 H 114.546 1.03567 -6.01753 0
M  V30 1280 H 115.96 -1.19824 -5.60638 0
M  V30 1281 H 114.357 -1.98745 -5.66234 0
M  V30 1282 H 115.427 -2.28018 -4.27943 0
M  V30 1283 N 116.77 1.45427 -0.607355 0
M  V30 1284 C 117.7 2.3329 0.0989352 0
M  V30 1285 C 118.681 1.46816 0.859007 0
M  V30 1286 O 119.866 1.75588 0.829604 0
M  V30 1287 C 116.996 3.29518 1.09705 0
M  V30 1288 C 115.95 4.25626 0.450206 0
M  V30 1289 C 115.276 5.11542 1.55655 0
M  V30 1290 C 116.576 5.18505 -0.628455 0
M  V30 1291 H 118.27 2.92595 -0.634716 0
M  V30 1292 H 115.816 1.40696 -0.306681 0
M  V30 1293 H 117.769 3.89855 1.59971 0
M  V30 1294 H 116.493 2.68372 1.86129 0
M  V30 1295 H 115.152 3.66586 -0.0315886 0
M  V30 1296 H 114.8 4.46765 2.31107 0
M  V30 1297 H 114.5 5.76647 1.12925 0
M  V30 1298 H 116.024 5.74748 2.06148 0
M  V30 1299 H 117.438 5.72916 -0.209877 0
M  V30 1300 H 115.835 5.92085 -0.977489 0
M  V30 1301 H 116.905 4.60948 -1.50514 0
M  V30 1302 N 118.248 0.346503 1.53744 0
M  V30 1303 C 119.196 -0.52422 2.26616 0
M  V30 1304 C 120.19 -1.09948 1.28871 0
M  V30 1305 O 121.396 -1.04488 1.46568 0
M  V30 1306 H 117.771 -0.187743 0.728187 0
M  V30 1307 H 119.742 0.11239 2.98188 0
M  V30 1308 C 118.491 -1.66186 3.05414 0
M  V30 1309 H 117.814 -1.22848 3.80458 0
M  V30 1310 H 119.254 -2.24622 3.59612 0
M  V30 1311 C 117.713 -2.59302 2.1509 0
M  V30 1312 O 118.243 -3.61628 1.74895 0
M  V30 1313 N 116.449 -2.28055 1.8011 0
M  V30 1314 H 115.996 -1.44883 2.12994 0
M  V30 1315 H 115.954 -2.90615 1.19958 0
M  V30 1316 N 119.726 -1.57421 0.075193 0
M  V30 1317 C 120.656 -2.15942 -0.888324 0
M  V30 1318 C 121.637 -1.08737 -1.30806 0
M  V30 1319 O 122.822 -1.36787 -1.37851 0
M  V30 1320 C 119.952 -2.72379 -2.1547 0
M  V30 1321 C 118.906 -3.8478 -1.87425 0
M  V30 1322 C 118.232 -4.27834 -3.20721 0
M  V30 1323 C 119.532 -5.08869 -1.17684 0
M  V30 1324 H 121.226 -2.96705 -0.400799 0
M  V30 1325 H 118.772 -1.42723 -0.191342 0
M  V30 1326 H 120.725 -3.11965 -2.83295 0
M  V30 1327 H 119.449 -1.88841 -2.6647 0
M  V30 1328 H 118.108 -3.45703 -1.22004 0
M  V30 1329 H 117.756 -3.41214 -3.6957 0
M  V30 1330 H 117.456 -5.03605 -3.02746 0
M  V30 1331 H 118.98 -4.70039 -3.89738 0
M  V30 1332 H 120.394 -5.4575 -1.75584 0
M  V30 1333 H 118.791 -5.8994 -1.09956 0
M  V30 1334 H 119.861 -4.84648 -0.156453 0
M  V30 1335 N 121.204 0.198386 -1.56346 0
M  V30 1336 C 122.452 0.91747 -1.80075 0
M  V30 1337 C 122.773 1.83929 -0.647692 0
M  V30 1338 O 122.043 1.93029 0.334166 0
M  V30 1339 H 120.623 0.341774 -0.664228 0
M  V30 1340 H 123.285 0.204684 -1.93822 0
M  V30 1341 H 122.381 1.51055 -2.7311 0
M  V30 1342 N 122.682 1.50554 0.465978 0
M  V30 1343 C 123.928 1.63006 1.21658 0
M  V30 1344 C 124.283 0.328613 1.89573 0
M  V30 1345 O 123.576 -0.673813 1.79361 0
M  V30 1346 C 123.77 2.75152 2.28093 0
M  V30 1347 C 123.599 4.16075 1.7062 0
M  V30 1348 C 122.369 4.82408 1.50368 0
M  V30 1349 C 124.567 5.00145 1.1983 0
M  V30 1350 N 122.549 6.07532 0.881924 0
M  V30 1351 C 123.92 6.16035 0.700083 0
M  V30 1352 C 125.975 4.85882 1.08733 0
M  V30 1353 C 124.678 7.19228 0.101835 0
M  V30 1354 C 126.704 5.89257 0.503016 0
M  V30 1355 C 126.066 7.04398 0.0152005 0
M  V30 1356 H 122.165 0.650596 0.433877 0
M  V30 1357 H 124.749 1.8769 0.517746 0
M  V30 1358 H 122.92 2.52181 2.95397 0
M  V30 1359 H 124.652 2.76935 2.95109 0
M  V30 1360 H 121.407 4.39788 1.75737 0
M  V30 1361 H 121.831 6.7443 0.589312 0
M  V30 1362 H 126.473 3.97144 1.4504 0
M  V30 1363 H 124.191 8.07637 -0.273426 0
M  V30 1364 H 127.777 5.80286 0.419451 0
M  V30 1365 H 126.657 7.83021 -0.429856 0
M  V30 1366 N 124.16 -0.719506 1.40217 0
M  V30 1367 C 125.39 -1.50646 1.41384 0
M  V30 1368 C 125.798 -1.89197 0.0107743 0
M  V30 1369 O 125.141 -1.55709 -0.974708 0
M  V30 1370 C 125.203 -2.81405 2.23722 0
M  V30 1371 C 124.867 -2.65199 3.72181 0
M  V30 1372 C 125.864 -2.32717 4.64907 0
M  V30 1373 C 123.549 -2.81586 4.1595 0
M  V30 1374 C 125.543 -2.16827 5.99387 0
M  V30 1375 C 123.23 -2.65313 5.50502 0
M  V30 1376 C 124.228 -2.32981 6.42035 0
M  V30 1377 O 123.916 -2.16827 7.74107 0
M  V30 1378 H 123.648 -0.471606 0.484318 0
M  V30 1379 H 126.202 -0.895456 1.84853 0
M  V30 1380 H 124.432 -3.44823 1.75026 0
M  V30 1381 H 126.121 -3.43102 2.16878 0
M  V30 1382 H 126.887 -2.19694 4.32388 0
M  V30 1383 H 122.766 -3.0574 3.45027 0
M  V30 1384 H 126.31 -1.91513 6.70797 0
M  V30 1385 H 122.207 -2.7792 5.82607 0
M  V30 1386 H 122.975 -2.31778 7.84998 0
M  V30 1387 N 125.638 -1.25649 -0.95132 0
M  V30 1388 C 126.57 -1.02112 -2.05197 0
M  V30 1389 C 127.583 0.0150571 -1.62793 0
M  V30 1390 O 128.772 -0.223874 -1.77091 0
M  V30 1391 C 125.872 -0.522361 -3.3485 0
M  V30 1392 C 125.045 -1.62546 -4.06076 0
M  V30 1393 C 124.104 -1.12649 -5.14001 0
M  V30 1394 O 123.13 -1.82156 -5.39266 0
M  V30 1395 N 124.332 0.03047 -5.80492 0
M  V30 1396 H 127.097 -1.96885 -2.25957 0
M  V30 1397 H 124.658 -1.16899 -1.1201 0
M  V30 1398 H 126.65 -0.172961 -4.0433 0
M  V30 1399 H 125.22 0.33151 -3.10837 0
M  V30 1400 H 124.44 -2.14628 -3.30649 0
M  V30 1401 H 125.728 -2.36644 -4.50419 0
M  V30 1402 H 125.126 0.611169 -5.62389 0
M  V30 1403 H 123.683 0.320875 -6.5101 0
M  V30 1404 N 127.117 1.15442 -1.07289 0
M  V30 1405 C 128.394 1.82306 -0.708792 0
M  V30 1406 C 128.774 1.94991 0.808807 0
M  V30 1407 O 128.122 1.50085 1.72298 0
M  V30 1408 C 128.332 3.18695 -1.42247 0
M  V30 1409 C 129.68 3.94341 -1.57417 0
M  V30 1410 O 130.704 3.28247 -1.38319 0
M  V30 1411 O 129.563 5.12839 -1.88834 0
M  V30 1412 H 126.657 0.787628 -0.252132 0
M  V30 1413 H 129.203 1.22559 -1.17377 0
M  V30 1414 H 127.975 3.04557 -2.45684 0
M  V30 1415 H 127.598 3.86128 -0.948223 0
M  V30 1416 N 128.595 0.856903 1.32268 0
M  V30 1417 C 129.841 0.462069 1.97466 0
M  V30 1418 C 130.174 -0.980298 1.67642 0
M  V30 1419 O 129.449 -1.68824 0.965858 0
M  V30 1420 C 129.732 0.704336 3.53145 0
M  V30 1421 C 129.585 2.19529 3.9259 0
M  V30 1422 C 130.904 0.1622 4.39801 0
M  V30 1423 H 128.023 0.169357 0.717278 0
M  V30 1424 H 130.665 1.07574 1.56614 0
M  V30 1425 H 128.815 0.181999 3.88073 0
M  V30 1426 H 130.487 2.78387 3.67829 0
M  V30 1427 H 128.73 2.67292 3.41668 0
M  V30 1428 H 129.401 2.31549 5.01088 0
M  V30 1429 H 131.877 0.608905 4.11621 0
M  V30 1430 H 130.753 0.361265 5.4771 0
M  V30 1431 H 131.014 -0.935158 4.32096 0
M  V30 1432 N 130.073 -1.45103 0.615059 0
M  V30 1433 C 131.005 -2.28786 -0.13762 0
M  V30 1434 C 132.018 -1.40376 -0.824525 0
M  V30 1435 O 133.207 -1.64681 -0.688662 0
M  V30 1436 C 130.307 -3.16322 -1.21628 0
M  V30 1437 C 129.48 -4.33054 -0.615039 0
M  V30 1438 C 128.539 -5.01743 -1.58556 0
M  V30 1439 O 127.565 -5.58293 -1.10895 0
M  V30 1440 N 128.767 -5.01714 -2.91998 0
M  V30 1441 H 131.532 -2.94025 0.580483 0
M  V30 1442 H 129.093 -1.55373 0.45507 0
M  V30 1443 H 131.085 -3.59139 -1.86552 0
M  V30 1444 H 129.655 -2.52943 -1.83681 0
M  V30 1445 H 128.875 -3.93627 0.21245 0
M  V30 1446 H 130.163 -5.08431 -0.193704 0
M  V30 1447 H 129.561 -4.57075 -3.33316 0
M  V30 1448 H 128.118 -5.48371 -3.52325 0
M  V30 1449 N 131.551 -0.354651 -1.53558 0
M  V30 1450 C 132.828 0.294281 -1.93374 0
M  V30 1451 C 133.208 1.67313 -1.28723 0
M  V30 1452 O 132.556 2.24179 -0.442247 0
M  V30 1453 C 132.766 0.355445 -3.47185 0
M  V30 1454 C 134.114 0.601007 -4.20325 0
M  V30 1455 O 135.138 0.437106 -3.53508 0
M  V30 1456 O 133.997 0.919322 -5.38712 0
M  V30 1457 H 131.091 0.174033 -0.808481 0
M  V30 1458 H 133.637 -0.406638 -1.64756 0
M  V30 1459 H 132.409 -0.611729 -3.86489 0
M  V30 1460 H 132.032 1.1027 -3.82003 0
M  V30 1461 N 133.029 1.57378 -0.0835403 0
M  V30 1462 C 134.254 1.98682 0.594987 0
M  V30 1463 C 134.679 0.961969 1.61641 0
M  V30 1464 O 134.037 -0.0709989 1.81161 0
M  V30 1465 C 134.085 3.38988 1.2296 0
M  V30 1466 O 133.189 3.39208 2.34546 0
M  V30 1467 H 132.53 0.646368 0.152002 0
M  V30 1468 H 135.06 2.03961 -0.161533 0
M  V30 1469 H 135.07 3.76431 1.57366 0
M  V30 1470 H 133.745 4.13107 0.481228 0
M  V30 1471 H 132.322 3.13548 2.01846 0
M  V30 1472 N 134.507 -0.190092 1.56449 0
M  V30 1473 C 135.437 -1.23816 1.97969 0
M  V30 1474 C 136.418 -1.47201 0.852395 0
M  V30 1475 O 137.603 -1.58854 1.1171 0
M  V30 1476 C 134.733 -2.5813 2.3235 0
M  V30 1477 C 133.687 -2.49348 3.47864 0
M  V30 1478 C 133.013 -3.8798 3.67934 0
M  V30 1479 C 134.313 -2.01424 4.81898 0
M  V30 1480 H 136.007 -0.89311 2.85769 0
M  V30 1481 H 133.553 -0.428177 1.37487 0
M  V30 1482 H 135.506 -3.31637 2.59991 0
M  V30 1483 H 134.23 -2.94386 1.41438 0
M  V30 1484 H 132.889 -1.78297 3.20321 0
M  V30 1485 H 132.537 -4.21597 2.74344 0
M  V30 1486 H 132.237 -3.82978 4.45648 0
M  V30 1487 H 133.761 -4.63101 3.97957 0
M  V30 1488 H 135.175 -2.64693 5.08538 0
M  V30 1489 H 133.572 -2.07413 5.63116 0
M  V30 1490 H 134.642 -0.967677 4.75146 0
M  V30 1491 N 135.985 -1.50799 -0.457987 0
M  V30 1492 C 136.932 -1.70617 -1.5543 0
M  V30 1493 C 137.902 -0.547562 -1.56815 0
M  V30 1494 O 139.087 -0.779647 -1.74144 0
M  V30 1495 C 136.227 -1.81831 -2.93311 0
M  V30 1496 C 135.34 -3.09278 -3.01615 0
M  V30 1497 C 134.475 -3.11209 -4.30491 0
M  V30 1498 C 133.514 -4.33055 -4.32585 0
M  V30 1499 N 132.651 -4.32652 -5.52952 0
M  V30 1500 H 137.491 -2.64207 -1.37836 0
M  V30 1501 H 135.028 -1.30959 -0.669937 0
M  V30 1502 H 136.986 -1.86314 -3.73287 0
M  V30 1503 H 135.616 -0.916685 -3.0951 0
M  V30 1504 H 134.668 -3.14203 -2.1443 0
M  V30 1505 H 135.98 -3.99233 -2.99022 0
M  V30 1506 H 135.134 -3.14494 -5.18824 0
M  V30 1507 H 133.873 -2.19106 -4.35711 0
M  V30 1508 H 132.878 -4.29969 -3.42647 0
M  V30 1509 H 134.103 -5.264 -4.29046 0
M  V30 1510 H 132.049 -3.43409 -5.58933 0
M  V30 1511 H 131.966 -5.16392 -5.52155 0
M  V30 1512 H 133.234 -4.40101 -6.43375 0
M  V30 1513 N 137.463 0.71206 -1.40597 0
M  V30 1514 C 138.426 1.80785 -1.40888 0
M  V30 1515 C 139.426 1.57937 -0.302103 0
M  V30 1516 O 140.616 1.64913 -0.561182 0
M  V30 1517 C 137.748 3.18927 -1.20409 0
M  V30 1518 H 138.941 1.81924 -2.38419 0
M  V30 1519 H 136.494 0.91805 -1.26497 0
M  V30 1520 H 137.229 3.23436 -0.236522 0
M  V30 1521 H 137.014 3.36911 -2.00582 0
M  V30 1522 H 138.504 3.98949 -1.23408 0
M  V30 1523 N 138.941 1.26152 0.944643 0
M  V30 1524 C 140.171 1.14094 1.72239 0
M  V30 1525 C 140.579 -0.306931 1.86694 0
M  V30 1526 O 139.922 -1.22222 1.3714 0
M  V30 1527 C 139.984 1.73316 3.14963 0
M  V30 1528 C 139.648 3.2239 3.23904 0
M  V30 1529 C 140.645 4.19252 3.07447 0
M  V30 1530 C 138.33 3.62788 3.47405 0
M  V30 1531 C 140.324 5.54491 3.14353 0
M  V30 1532 C 138.011 4.98162 3.53947 0
M  V30 1533 C 139.009 5.93823 3.37436 0
M  V30 1534 O 138.697 7.26732 3.43679 0
M  V30 1535 H 138.429 0.398292 0.546205 0
M  V30 1536 H 140.983 1.67201 1.19301 0
M  V30 1537 H 139.213 1.14667 3.69308 0
M  V30 1538 H 140.902 1.56214 3.74636 0
M  V30 1539 H 141.668 3.8938 2.8915 0
M  V30 1540 H 137.547 2.88816 3.59313 0
M  V30 1541 H 141.091 6.29137 3.01384 0
M  V30 1542 H 136.988 5.27695 3.71763 0
M  V30 1543 H 137.756 7.3496 3.60245 0
M  V30 1544 N 140.419 -1.14872 1.07899 0
M  V30 1545 C 141.696 -1.81928 0.71845 0
M  V30 1546 C 142.076 -1.95417 -0.798455 0
M  V30 1547 O 141.424 -1.50997 -1.715 0
M  V30 1548 C 141.634 -3.17937 1.43935 0
M  V30 1549 C 142.982 -3.93501 1.59506 0
M  V30 1550 O 144.006 -3.27509 1.40058 0
M  V30 1551 O 142.865 -5.1183 1.91551 0
M  V30 1552 H 139.959 -0.78628 0.256305 0
M  V30 1553 H 142.505 -1.21934 1.18026 0
M  V30 1554 H 141.277 -3.0325 2.47295 0
M  V30 1555 H 140.9 -3.85619 0.968687 0
M  V30 1556 N 141.898 -0.863906 -1.31812 0
M  V30 1557 C 143.147 -0.46801 -1.96195 0
M  V30 1558 C 143.46 0.983474 -1.69077 0
M  V30 1559 O 144.666 1.48523 -2.27273 0
M  V30 1560 C 143.122 -0.785995 -3.51212 0
M  V30 1561 C 142.73 -2.25383 -3.87178 0
M  V30 1562 C 144.474 -0.458274 -4.22019 0
M  V30 1563 C 142.381 -2.51455 -5.3528 0
M  V30 1564 H 141.311 -0.171283 -0.734287 0
M  V30 1565 H 143.962 -1.05597 -1.50072 0
M  V30 1566 H 142.344 -0.127359 -3.95795 0
M  V30 1567 H 143.518 -2.95502 -3.53575 0
M  V30 1568 H 141.833 -2.54698 -3.2942 0
M  V30 1569 H 144.43 -0.630369 -5.30971 0
M  V30 1570 H 144.773 0.600834 -4.11941 0
M  V30 1571 H 145.306 -1.07319 -3.8305 0
M  V30 1572 H 142.045 -3.56025 -5.50387 0
M  V30 1573 H 141.565 -1.85923 -5.70257 0
M  V30 1574 H 143.244 -2.35874 -6.02472 0
M  V30 1575 N 143.376 1.44774 -0.622745 0
M  V30 1576 C 144.324 2.32387 0.0994683 0
M  V30 1577 C 145.318 1.46859 0.844326 0
M  V30 1578 O 146.524 1.63254 0.758174 0
M  V30 1579 H 142.899 0.750273 0.0509291 0
M  V30 1580 H 144.87 2.91062 -0.65767 0
M  V30 1581 C 143.619 3.30723 1.07319 0
M  V30 1582 H 142.942 3.96541 0.509462 0
M  V30 1583 H 144.382 3.94725 1.54817 0
M  V30 1584 C 142.841 2.59021 2.15429 0
M  V30 1585 O 143.371 2.38286 3.23393 0
M  V30 1586 N 141.577 2.189 1.91131 0
M  V30 1587 H 141.124 2.35964 1.03337 0
M  V30 1588 H 141.082 1.71251 2.63668 0
M  V30 1589 N 144.854 0.36279 1.53368 0
M  V30 1590 C 145.784 -0.476976 2.28576 0
M  V30 1591 C 146.765 -1.08631 1.30894 0
M  V30 1592 O 147.95 -1.10409 1.59761 0
M  V30 1593 C 145.08 -1.61828 3.07293 0
M  V30 1594 C 144.034 -1.13633 4.1264 0
M  V30 1595 C 143.36 -2.36766 4.79423 0
M  V30 1596 C 144.66 -0.223061 5.21823 0
M  V30 1597 H 146.354 0.150474 2.99022 0
M  V30 1598 H 143.9 0.0738103 1.43811 0
M  V30 1599 H 145.853 -2.21237 3.58653 0
M  V30 1600 H 144.577 -2.27292 2.34533 0
M  V30 1601 H 143.236 -0.564945 3.62221 0
M  V30 1602 H 142.884 -3.0068 4.03238 0
M  V30 1603 H 142.584 -2.05192 5.50609 0
M  V30 1604 H 144.108 -2.96865 5.33576 0
M  V30 1605 H 145.522 -0.724545 5.68703 0
M  V30 1606 H 143.919 0.001678 6.001 0
M  V30 1607 H 144.989 0.735553 4.79289 0
M  V30 1608 N 146.332 -1.57332 0.0918853 0
M  V30 1609 C 147.56 -1.98574 -0.581048 0
M  V30 1610 C 147.975 -0.970903 -1.61923 0
M  V30 1611 O 147.332 0.0399054 -1.82456 0
M  V30 1612 C 147.383 -3.39872 -1.23164 0
M  V30 1613 O 147.104 -4.37469 -0.234989 0
M  V30 1614 C 148.605 -3.96099 -1.99049 0
M  V30 1615 H 145.825 -0.65261 -0.156018 0
M  V30 1616 H 148.369 -2.0379 0.170225 0
M  V30 1617 H 146.524 -3.35679 -1.93386 0
M  V30 1618 H 146.938 -5.19751 -0.70418 0
M  V30 1619 H 148.412 -4.97127 -2.39934 0
M  V30 1620 H 148.889 -3.3374 -2.85507 0
M  V30 1621 H 149.495 -4.03755 -1.3365 0
M  V30 1622 N 147.81 0.181792 -1.56548 0
M  V30 1623 C 149.087 0.926765 -1.72251 0
M  V30 1624 C 149.467 2.00831 -0.650386 0
M  V30 1625 O 148.815 2.26008 0.336521 0
M  V30 1626 C 149.025 1.50106 -3.1507 0
M  V30 1627 C 150.373 1.97805 -3.75711 0
M  V30 1628 O 151.397 1.59922 -3.18282 0
M  V30 1629 O 150.256 2.67555 -4.76525 0
M  V30 1630 H 147.35 0.435506 -0.703039 0
M  V30 1631 H 149.896 0.170443 -1.68842 0
M  V30 1632 H 148.668 0.72212 -3.84579 0
M  V30 1633 H 148.291 2.32186 -3.22763 0
M  V30 1634 N 149.288 1.51039 0.449983 0
M  V30 1635 C 150.218 1.74379 1.55288 0
M  V30 1636 C 151.199 0.593236 1.5942 0
M  V30 1637 O 152.384 0.834625 1.7535 0
M  V30 1638 C 149.514 1.85728 2.93466 0
M  V30 1639 C 148.468 3.01078 3.04197 0
M  V30 1640 C 147.794 2.97595 4.44231 0
M  V30 1641 C 149.094 4.41254 2.7945 0
M  V30 1642 H 150.788 2.66725 1.36008 0
M  V30 1643 H 148.334 1.2835 0.652864 0
M  V30 1644 H 150.287 2.0064 3.70569 0
M  V30 1645 H 149.011 0.900207 3.13949 0
M  V30 1646 H 147.67 2.85851 2.29531 0
M  V30 1647 H 147.318 1.99691 4.61663 0
M  V30 1648 H 147.018 3.75046 4.52343 0
M  V30 1649 H 148.542 3.14583 5.23326 0
M  V30 1650 H 149.956 4.56897 3.46292 0
M  V30 1651 H 148.353 5.20315 2.98985 0
M  V30 1652 H 149.423 4.52164 1.75144 0
M  V30 1653 N 150.766 -0.704594 1.40972 0
M  V30 1654 C 151.696 -1.83124 1.44872 0
M  V30 1655 C 152.677 -1.67281 0.30838 0
M  V30 1656 O 153.862 -1.87149 0.518556 0
M  V30 1657 C 150.992 -3.21181 1.32136 0
M  V30 1658 C 149.946 -3.51714 2.43888 0
M  V30 1659 C 149.272 -4.89032 2.16222 0
M  V30 1660 C 150.572 -3.516 3.86232 0
M  V30 1661 H 152.266 -1.80117 2.39161 0
M  V30 1662 H 149.812 -0.865145 1.15114 0
M  V30 1663 H 151.765 -3.99702 1.33479 0
M  V30 1664 H 150.489 -3.24791 0.343279 0
M  V30 1665 H 149.148 -2.75539 2.41813 0
M  V30 1666 H 148.796 -4.89256 1.16778 0
M  V30 1667 H 148.496 -5.10426 2.911 0
M  V30 1668 H 150.02 -5.69873 2.19265 0
M  V30 1669 H 151.434 -4.2014 3.9007 0
M  V30 1670 H 149.831 -3.84523 4.60719 0
M  V30 1671 H 150.901 -2.50757 4.15029 0
M  V30 1672 N 152.244 -1.26651 -0.937939 0
M  V30 1673 C 153.154 -1.10276 -2.07066 0
M  V30 1674 C 154.17 -0.0354197 -1.73964 0
M  V30 1675 O 155.346 -0.239816 -1.99967 0
M  V30 1676 C 152.411 -0.740887 -3.38691 0
M  V30 1677 C 151.472 -1.88799 -3.85556 0
M  V30 1678 C 150.705 -1.54329 -5.10899 0
M  V30 1679 O 150.928 -0.446494 -5.6865 0
M  V30 1680 O 149.862 -2.37911 -5.52885 0
M  V30 1681 H 153.688 -2.05309 -2.23789 0
M  V30 1682 H 151.273 -1.05743 -1.0554 0
M  V30 1683 H 153.155 -0.55195 -4.1777 0
M  V30 1684 H 151.83 0.180022 -3.23199 0
M  V30 1685 H 150.737 -2.13191 -3.07409 0
M  V30 1686 H 152.07 -2.78874 -4.05574 0
M  V30 1687 N 153.722 1.14298 -1.08507 0
M  V30 1688 C 154.632 2.23027 -0.727753 0
M  V30 1689 C 155.648 1.71952 0.26619 0
M  V30 1690 O 156.824 2.011 0.109882 0
M  V30 1691 C 153.889 3.46403 -0.143541 0
M  V30 1692 C 152.95 4.12413 -1.19223 0
M  V30 1693 C 152.183 5.29899 -0.635798 0
M  V30 1694 O 152.406 5.67796 0.544393 0
M  V30 1695 O 151.34 5.85717 -1.38634 0
M  V30 1696 H 155.166 2.55945 -1.63481 0
M  V30 1697 H 152.751 1.22248 -0.858817 0
M  V30 1698 H 154.633 4.21018 0.179404 0
M  V30 1699 H 153.308 3.15206 0.736659 0
M  V30 1700 H 152.215 3.39667 -1.56772 0
M  V30 1701 H 153.548 4.47718 -2.04474 0
M  V30 1702 N 155.201 0.870884 1.31352 0
M  V30 1703 C 156.111 0.330783 2.32256 0
M  V30 1704 C 157.127 -0.559767 1.6475 0
M  V30 1705 O 158.303 -0.456263 1.96164 0
M  V30 1706 C 155.368 -0.458137 3.4366 0
M  V30 1707 C 154.429 0.460482 4.26823 0
M  V30 1708 C 153.662 -0.290881 5.32907 0
M  V30 1709 O 153.885 -1.51885 5.49806 0
M  V30 1710 O 152.819 0.351732 6.00871 0
M  V30 1711 H 156.645 1.16718 2.80376 0
M  V30 1712 H 154.23 0.634285 1.35267 0
M  V30 1713 H 156.112 -0.905343 4.1156 0
M  V30 1714 H 154.787 -1.27106 2.97701 0
M  V30 1715 H 153.694 0.956207 3.61673 0
M  V30 1716 H 155.027 1.23903 4.7635 0
M  V30 1717 N 156.679 -1.44442 0.630414 0
M  V30 1718 C 157.928 -2.01267 0.132073 0
M  V30 1719 C 158.241 -1.50172 -1.25331 0
M  V30 1720 O 159.447 -1.9912 -1.84562 0
M  V30 1721 C 157.903 -3.59422 0.185362 0
M  V30 1722 C 157.511 -4.19514 1.57201 0
M  V30 1723 C 159.255 -4.23724 -0.256553 0
M  V30 1724 C 157.162 -5.69891 1.58045 0
M  V30 1725 H 156.092 -0.752619 0.0456092 0
M  V30 1726 H 158.743 -1.65666 0.789106 0
M  V30 1727 H 157.125 -3.92318 -0.538759 0
M  V30 1728 H 158.299 -3.98156 2.31966 0
M  V30 1729 H 156.614 -3.67496 1.95795 0
M  V30 1730 H 159.211 -5.34019 -0.269767 0
M  V30 1731 H 159.554 -3.96013 -1.28372 0
M  V30 1732 H 160.087 -3.95629 0.41505 0
M  V30 1733 H 156.826 -6.02336 2.58597 0
M  V30 1734 H 156.346 -5.93373 0.875725 0
M  V30 1735 H 158.025 -6.33515 1.31408 0
M  V30 1736 N 158.157 -0.370918 -1.53173 0
M  V30 1737 C 159.434 0.273754 -1.93675 0
M  V30 1738 C 159.814 1.65938 -1.3049 0
M  V30 1739 O 159.162 2.23698 -0.465999 0
M  V30 1740 C 159.372 0.318602 -3.47543 0
M  V30 1741 C 160.72 0.556392 -4.20939 0
M  V30 1742 O 161.744 0.399587 -3.53952 0
M  V30 1743 O 160.603 0.862133 -5.39657 0
M  V30 1744 H 157.697 0.165448 -0.810281 0
M  V30 1745 H 160.243 -0.42409 -1.64315 0
M  V30 1746 H 159.015 -0.652687 -3.85818 0
M  V30 1747 H 158.638 1.06212 -3.83151 0
M  V30 1748 N 159.635 1.57281 -0.100228 0
M  V30 1749 C 161.046 1.81725 0.428107 0
M  V30 1750 C 161.397 1.01619 1.67833 0
M  V30 1751 O 160.522 0.247098 2.14985 0
M  V30 1752 C 161.117 3.29617 0.78347 0
M  V30 1753 C 159.676 3.54808 1.25653 0
M  V30 1754 C 158.823 2.76118 0.255752 0
M  V30 1755 H 161.774 1.55324 -0.325608 0
M  V30 1756 H 161.795 3.4322 1.64256 0
M  V30 1757 H 161.307 3.87893 -0.12665 0
M  V30 1758 H 159.408 3.01868 2.18418 0
M  V30 1759 H 159.521 4.63443 1.21482 0
M  V30 1760 H 157.885 2.43745 0.738956 0
M  V30 1761 H 158.668 3.37145 -0.647136 0
M  V30 1762 N 161.113 -0.173488 1.56642 0
M  V30 1763 C 162.076 -1.19859 1.95362 0
M  V30 1764 C 163.076 -1.37296 0.83704 0
M  V30 1765 O 164.266 -1.34739 1.10413 0
M  V30 1766 C 161.398 -2.56405 2.24654 0
M  V30 1767 H 162.591 -0.867062 2.87092 0
M  V30 1768 H 160.144 -0.415853 1.50666 0
M  V30 1769 H 160.879 -2.94576 1.35631 0
M  V30 1770 H 160.664 -2.45115 3.06041 0
M  V30 1771 H 162.154 -3.30287 2.5554 0
M  V30 1772 N 162.591 -1.51276 -0.441967 0
M  V30 1773 C 163.521 -1.752 -1.54361 0
M  V30 1774 C 164.502 -0.601682 -1.59103 0
M  V30 1775 O 165.687 -0.843913 -1.74905 0
M  V30 1776 C 162.817 -1.87282 -2.92477 0
M  V30 1777 C 161.771 -3.02687 -3.02596 0
M  V30 1778 C 161.097 -2.99947 -4.42647 0
M  V30 1779 C 162.397 -4.4273 -2.77106 0
M  V30 1780 H 164.091 -2.67442 -1.34592 0
M  V30 1781 H 161.637 -1.28694 -0.646048 0
M  V30 1782 H 163.59 -2.02602 -3.695 0
M  V30 1783 H 162.314 -0.916844 -3.13467 0
M  V30 1784 H 160.973 -2.87065 -2.28012 0
M  V30 1785 H 160.621 -2.02136 -4.60597 0
M  V30 1786 H 160.321 -3.77439 -4.50348 0
M  V30 1787 H 161.845 -3.17354 -5.2165 0
M  V30 1788 H 163.259 -4.58727 -3.43864 0
M  V30 1789 H 161.656 -5.21893 -2.96222 0
M  V30 1790 H 162.726 -4.53087 -1.72744 0
M  V30 1791 N 164.069 0.697108 -1.41344 0
M  V30 1792 C 165.317 1.45426 -1.40341 0
M  V30 1793 C 165.638 1.94996 -0.0128787 0
M  V30 1794 O 164.908 1.71599 0.945027 0
M  V30 1795 H 163.488 0.539594 -0.516573 0
M  V30 1796 H 166.15 0.825201 -1.76569 0
M  V30 1797 H 165.246 2.31817 -2.08967 0
M  V30 1798 N 165.547 1.27147 0.931209 0
M  V30 1799 C 166.495 1.09398 2.05268 0
M  V30 1800 C 167.489 0.0180591 1.6939 0
M  V30 1801 O 168.695 0.17551 1.79142 0
M  V30 1802 H 165.07 0.336986 0.672268 0
M  V30 1803 H 167.041 2.04416 2.17386 0
M  V30 1804 C 165.79 0.75424 3.39421 0
M  V30 1805 H 165.113 1.57404 3.67511 0
M  V30 1806 H 166.553 0.669903 4.18674 0
M  V30 1807 C 165.012 -0.541197 3.32525 0
M  V30 1808 O 165.542 -1.57664 3.69466 0
M  V30 1809 N 163.748 -0.535517 2.85623 0
M  V30 1810 H 163.295 0.307511 2.55758 0
M  V30 1811 H 163.253 -1.40236 2.81392 0
M  V30 1812 N 167.025 -1.13721 1.09112 0
M  V30 1813 C 168.273 -1.84559 0.823562 0
M  V30 1814 C 168.594 -1.83754 -0.652658 0
M  V30 1815 O 167.864 -1.29102 -1.47342 0
M  V30 1816 H 166.444 -0.683376 0.301673 0
M  V30 1817 H 169.106 -1.37771 1.37859 0
M  V30 1818 H 168.202 -2.8917 1.17419 0
M  V30 1819 N 168.503 -0.877838 -1.30888 0
M  V30 1820 C 169.751 -0.491723 -1.96027 0
M  V30 1821 C 170.072 0.960827 -1.69685 0
M  V30 1822 O 169.342 1.67462 -1.01654 0
M  V30 1823 H 167.922 -0.17885 -0.725273 0
M  V30 1824 H 170.584 -1.11935 -1.59551 0
M  V30 1825 H 169.68 -0.656016 -3.05128 0
M  V30 1826 N 169.982 1.44106 -0.638065 0
M  V30 1827 C 170.912 2.33448 0.0494287 0
M  V30 1828 C 171.893 1.48606 0.827672 0
M  V30 1829 O 173.078 1.77308 0.792173 0
M  V30 1830 C 170.208 3.31771 1.02691 0
M  V30 1831 C 169.162 4.26485 0.359823 0
M  V30 1832 C 168.488 5.14729 1.44769 0
M  V30 1833 C 169.788 5.17056 -0.738296 0
M  V30 1834 H 171.482 2.91183 -0.696636 0
M  V30 1835 H 169.028 1.40014 -0.336456 0
M  V30 1836 H 170.981 3.93161 1.51666 0
M  V30 1837 H 169.705 2.7226 1.80395 0
M  V30 1838 H 168.364 3.66437 -0.10934 0
M  V30 1839 H 168.012 4.51566 2.21578 0
M  V30 1840 H 167.712 5.78913 1.00668 0
M  V30 1841 H 169.236 5.78991 1.93911 0
M  V30 1842 H 170.65 5.72342 -0.331354 0
M  V30 1843 H 169.047 5.89879 -1.10286 0
M  V30 1844 H 170.117 4.57652 -1.60258 0
M  V30 1845 N 171.46 0.379036 1.52974 0
M  V30 1846 C 172.708 -0.206014 2.01047 0
M  V30 1847 C 173.029 -1.48175 1.26765 0
M  V30 1848 O 172.299 -1.92085 0.384743 0
M  V30 1849 H 170.879 -0.0791184 0.742798 0
M  V30 1850 H 173.541 0.508366 1.88153 0
M  V30 1851 H 172.637 -0.423501 3.09213 0
M  V30 1852 N 172.938 -1.57226 0.108567 0
M  V30 1853 C 174.354 -1.5766 -0.248058 0
M  V30 1854 C 174.554 -1.12063 -1.67464 0
M  V30 1855 O 173.61 -0.803236 -2.39383 0
M  V30 1856 C 174.923 -3.0069 -0.0242287 0
M  V30 1857 C 176.471 -3.12868 -0.0909372 0
M  V30 1858 C 176.946 -4.57879 0.105067 0
M  V30 1859 N 178.437 -4.63172 0.0506846 0
M  V30 1860 C 179.172 -5.73126 0.177396 0
M  V30 1861 N 178.668 -6.91866 0.359696 0
M  V30 1862 N 180.461 -5.61977 0.117709 0
M  V30 1863 H 172.612 -1.85169 1.04049 0
M  V30 1864 H 174.875 -0.85529 0.40888 0
M  V30 1865 H 174.581 -3.38299 0.961604 0
M  V30 1866 H 174.455 -3.6945 -0.76068 0
M  V30 1867 H 176.842 -2.75124 -1.06729 0
M  V30 1868 H 176.923 -2.46672 0.677225 0
M  V30 1869 H 176.567 -4.96321 1.07834 0
M  V30 1870 H 176.497 -5.22153 -0.682954 0
M  V30 1871 H 178.988 -3.778 -0.0871266 0
M  V30 1872 H 179.301 -7.71503 0.447529 0
M  V30 1873 H 177.646 -6.93874 0.395536 0
M  V30 1874 H 180.837 -4.68094 -0.0236741 0
M  V30 1875 H 181.01 -6.47627 0.219905 0
M  V30 1876 N 174.416 0.165178 -1.56732 0
M  V30 1877 C 175.346 1.20651 -1.99914 0
M  V30 1878 C 176.327 1.45827 -0.875705 0
M  V30 1879 O 177.512 1.57057 -1.14223 0
M  V30 1880 C 174.642 2.54401 -2.36427 0
M  V30 1881 C 173.596 2.43782 -3.51787 0
M  V30 1882 C 172.922 3.82078 -3.7406 0
M  V30 1883 C 174.222 1.93732 -4.85041 0
M  V30 1884 H 175.916 0.847534 -2.87154 0
M  V30 1885 H 173.462 0.40625 -1.38151 0
M  V30 1886 H 175.415 3.27458 -2.65234 0
M  V30 1887 H 174.139 2.92098 -1.46103 0
M  V30 1888 H 172.798 1.73178 -3.23117 0
M  V30 1889 H 172.446 4.17179 -2.81017 0
M  V30 1890 H 172.146 3.7584 -4.51684 0
M  V30 1891 H 173.67 4.56712 -4.05274 0
M  V30 1892 H 175.084 2.56569 -5.12684 0
M  V30 1893 H 173.481 1.98428 -5.66345 0
M  V30 1894 H 174.551 0.891962 -4.76626 0
M  V30 1895 N 175.894 1.51508 0.433938 0
M  V30 1896 C 176.857 1.72473 1.50949 0
M  V30 1897 C 177.857 0.594725 1.49398 0
M  V30 1898 O 179.047 0.862315 1.5136 0
M  V30 1899 C 176.179 1.78431 2.90474 0
M  V30 1900 H 177.372 2.68467 1.33662 0
M  V30 1901 H 174.925 1.41549 0.662836 0
M  V30 1902 H 175.66 0.842645 3.13161 0
M  V30 1903 H 175.445 2.60558 2.93005 0
M  V30 1904 H 176.935 1.96479 3.68491 0
M  V30 1905 N 177.372 -0.689602 1.41712 0
M  V30 1906 C 178.335 -1.78521 1.43746 0
M  V30 1907 C 179.335 -1.57436 0.327191 0
M  V30 1908 O 180.525 -1.64 0.587348 0
M  V30 1909 C 177.657 -3.16971 1.25467 0
M  V30 1910 H 178.85 -1.78108 2.41283 0
M  V30 1911 H 176.403 -0.89781 1.27942 0
M  V30 1912 H 177.138 -3.23019 0.287948 0
M  V30 1913 H 176.923 -3.33678 2.05917 0
M  V30 1914 H 178.413 -3.96935 1.2974 0
M  V30 1915 N 178.85 -1.27639 -0.924453 0
M  V30 1916 C 180.09 -1.15407 -1.68703 0
M  V30 1917 C 180.454 0.294581 -1.89727 0
M  V30 1918 O 181.655 0.539385 -2.63333 0
M  V30 1919 C 179.926 -1.9195 -3.0148 0
M  V30 1920 S 181.485 -1.95969 -3.92609 0
M  V30 1921 H 178.303 -0.411937 -0.579507 0
M  V30 1922 H 180.905 -1.61592 -1.10038 0
M  V30 1923 H 179.609 -2.96387 -2.83871 0
M  V30 1924 H 179.14 -1.46272 -3.65196 0
M  V30 1925 H 181.155 -1.05846 -4.84779 0
M  V30 1926 N 180.328 1.1314 -1.09713 0
M  V30 1927 C 181.575 1.84484 -0.834987 0
M  V30 1928 C 181.903 1.83689 0.639418 0
M  V30 1929 O 181.158 1.2724 1.4869 0
M  V30 1930 C 181.457 3.32167 -1.3191 0
M  V30 1931 C 181.123 3.53139 -2.80363 0
M  V30 1932 C 179.785 3.58571 -3.20905 0
M  V30 1933 C 182.137 3.60866 -3.76065 0
M  V30 1934 C 179.465 3.69267 -4.55916 0
M  V30 1935 C 181.817 3.73089 -5.10869 0
M  V30 1936 C 180.481 3.76775 -5.50996 0
M  V30 1937 H 179.751 0.675073 -0.305544 0
M  V30 1938 H 182.398 1.33554 -1.37243 0
M  V30 1939 H 180.703 3.85469 -0.701517 0
M  V30 1940 H 182.4 3.85821 -1.09284 0
M  V30 1941 H 178.99 3.49569 -2.47991 0
M  V30 1942 H 183.174 3.55946 -3.45855 0
M  V30 1943 H 178.43 3.70388 -4.86438 0
M  V30 1944 H 182.604 3.78011 -5.84877 0
M  V30 1945 H 180.231 3.84815 -6.55608 0
M  V30 1946 N 181.806 0.884767 1.30421 0
M  V30 1947 C 182.736 0.367574 2.30589 0
M  V30 1948 C 183.717 -0.549464 1.60981 0
M  V30 1949 O 184.902 -0.46336 1.88591 0
M  V30 1950 C 182.032 -0.418944 3.44764 0
M  V30 1951 C 180.986 0.406316 4.26067 0
M  V30 1952 C 180.312 -0.506793 5.32293 0
M  V30 1953 C 181.612 1.64832 4.95608 0
M  V30 1954 H 183.306 1.20462 2.74097 0
M  V30 1955 H 180.852 0.580695 1.31772 0
M  V30 1956 H 182.805 -0.791395 4.13902 0
M  V30 1957 H 181.529 -1.28964 3.0006 0
M  V30 1958 H 180.188 0.760903 3.58617 0
M  V30 1959 H 179.836 -1.37519 4.83836 0
M  V30 1960 H 179.536 0.0415828 5.87585 0
M  V30 1961 H 181.06 -0.875764 6.04287 0
M  V30 1962 H 182.474 1.34646 5.57264 0
M  V30 1963 H 180.871 2.13688 5.60765 0
M  V30 1964 H 181.941 2.39284 4.21748 0
M  V30 1965 N 183.284 -1.43765 0.645699 0
M  V30 1966 C 184.561 -1.9541 0.0862963 0
M  V30 1967 C 184.941 -1.58725 -1.39175 0
M  V30 1968 O 184.289 -0.868581 -2.11348 0
M  V30 1969 C 184.499 -3.47488 0.324565 0
M  V30 1970 C 185.847 -4.24001 0.225497 0
M  V30 1971 O 186.871 -3.55274 0.256715 0
M  V30 1972 O 185.73 -5.46313 0.142801 0
M  V30 1973 H 182.824 -0.826882 -0.0139483 0
M  V30 1974 H 185.37 -1.53743 0.718415 0
M  V30 1975 H 184.142 -3.67289 1.3496 0
M  V30 1976 H 183.765 -3.96135 -0.340987 0
M  V30 1977 N 184.763 -0.387143 -1.52771 0
M  V30 1978 C 185.988 0.198407 -2.06449 0
M  V30 1979 C 186.413 1.39918 -1.25716 0
M  V30 1980 O 185.771 1.79099 -0.281657 0
M  V30 1981 C 185.819 0.548893 -3.56398 0
M  V30 1982 O 184.923 1.64315 -3.78252 0
M  V30 1983 H 184.264 0.0237731 -0.663574 0
M  V30 1984 H 186.794 -0.553989 -1.96957 0
M  V30 1985 H 186.804 0.813812 -3.99801 0
M  V30 1986 H 185.479 -0.329005 -4.14597 0
M  V30 1987 H 184.056 1.37211 -3.46738 0
M  V30 1988 N 186.241 1.57166 -0.116904 0
M  V30 1989 C 187.174 2.10912 0.871291 0
M  V30 1990 C 188.152 1.025 1.26224 0
M  V30 1991 O 189.336 1.3014 1.36366 0
M  V30 1992 C 186.463 2.6041 2.16574 0
M  V30 1993 C 185.509 3.80687 1.92302 0
M  V30 1994 S 186.342 5.23199 1.14119 0
M  V30 1995 C 187.498 5.76064 2.44748 0
M  V30 1996 H 187.731 2.94401 0.414138 0
M  V30 1997 H 185.264 1.54096 0.096829 0
M  V30 1998 H 187.222 2.89583 2.9095 0
M  V30 1999 H 185.883 1.77106 2.59408 0
M  V30 2000 H 185.076 4.13462 2.8821 0
M  V30 2001 H 184.678 3.5212 1.26047 0
M  V30 2002 H 186.97 5.8566 3.406 0
M  V30 2003 H 187.913 6.74184 2.16521 0
M  V30 2004 H 188.321 5.04117 2.54019 0
M  V30 2005 N 187.719 -0.156864 1.56817 0
M  V30 2006 C 188.682 -1.17781 1.96622 0
M  V30 2007 C 189.682 -1.36401 0.851555 0
M  V30 2008 O 190.872 -1.33561 1.11836 0
M  V30 2009 C 188.004 -2.54008 2.27361 0
M  V30 2010 H 189.197 -0.836564 2.87996 0
M  V30 2011 H 186.75 -0.39985 1.51099 0
M  V30 2012 H 187.485 -2.9312 1.38748 0
M  V30 2013 H 187.27 -2.41856 3.08623 0
M  V30 2014 H 188.76 -3.27558 2.59029 0
M  V30 2015 N 189.197 -1.51736 -0.425897 0
M  V30 2016 C 190.425 -1.68794 -1.1965 0
M  V30 2017 C 190.84 -0.390164 -1.84725 0
M  V30 2018 O 190.197 0.632376 -1.71194 0
M  V30 2019 C 190.248 -2.81174 -2.27208 0
M  V30 2020 O 189.969 -4.05925 -1.64793 0
M  V30 2021 C 191.47 -3.09599 -3.17275 0
M  V30 2022 H 188.69 -0.566128 -0.360194 0
M  V30 2023 H 191.234 -1.98211 -0.503249 0
M  V30 2024 H 189.389 -2.54324 -2.9223 0
M  V30 2025 H 189.803 -4.68423 -2.35967 0
M  V30 2026 H 191.277 -3.91786 -3.88854 0
M  V30 2027 H 191.754 -2.22468 -3.78688 0
M  V30 2028 H 192.36 -3.38151 -2.57941 0
M  V30 2029 N 190.675 0.682077 -1.42076 0
M  V30 2030 C 191.921 1.44428 -1.42367 0
M  V30 2031 C 192.254 1.94164 -0.0373056 0
M  V30 2032 O 191.529 1.70429 0.937239 0
M  V30 2033 C 191.812 2.64654 -2.44194 0
M  V30 2034 C 191.665 2.20596 -3.91991 0
M  V30 2035 C 192.984 3.66865 -2.431 0
M  V30 2036 H 190.103 0.523834 -0.518428 0
M  V30 2037 H 192.745 0.77576 -1.73442 0
M  V30 2038 H 190.895 3.2169 -2.17826 0
M  V30 2039 H 192.567 1.68783 -4.29313 0
M  V30 2040 H 190.81 1.52242 -4.06208 0
M  V30 2041 H 191.481 3.06921 -4.58807 0
M  V30 2042 H 193.957 3.19531 -2.66532 0
M  V30 2043 H 192.833 4.48577 -3.16339 0
M  V30 2044 H 193.094 4.17493 -1.45437 0
M  V30 2045 N 192.153 1.28127 0.917671 0
M  V30 2046 C 193.401 1.14825 1.66312 0
M  V30 2047 C 193.722 -0.304379 1.9261 0
M  V30 2048 O 192.992 -1.21149 1.53947 0
M  V30 2049 H 191.572 0.421953 0.616413 0
M  V30 2050 H 194.234 1.608 1.10134 0
M  V30 2051 H 193.33 1.68489 2.62712 0
M  V30 2052 N 193.631 -1.12557 1.10312 0
M  V30 2053 C 194.563 -2.17971 0.708625 0
M  V30 2054 C 195.576 -1.60806 -0.254027 0
M  V30 2055 O 196.765 -1.78458 -0.0386891 0
M  V30 2056 C 193.865 -3.38891 0.0248198 0
M  V30 2057 C 193.038 -4.25548 1.01132 0
M  V30 2058 C 192.097 -5.24972 0.35924 0
M  V30 2059 O 191.123 -5.60174 1.00965 0
M  V30 2060 N 192.325 -5.73747 -0.882847 0
M  V30 2061 H 195.09 -2.52427 1.61557 0
M  V30 2062 H 192.651 -1.27967 0.991771 0
M  V30 2063 H 194.643 -4.02485 -0.422852 0
M  V30 2064 H 193.213 -3.02596 -0.784514 0
M  V30 2065 H 192.433 -3.58589 1.6373 0
M  V30 2066 H 193.721 -4.80294 1.67914 0
M  V30 2067 H 193.119 -5.4731 -1.43065 0
M  V30 2068 H 191.676 -6.39234 -1.27369 0
M  V30 2069 N 195.109 -0.891671 -1.2995 0
M  V30 2070 C 196.334 -0.527932 -2.00568 0
M  V30 2071 C 196.759 0.877969 -1.66353 0
M  V30 2072 O 196.117 1.58301 -0.883762 0
M  V30 2073 C 196.165 -0.717745 -3.53385 0
M  V30 2074 O 195.269 0.233376 -4.11739 0
M  V30 2075 H 194.61 -0.20722 -0.630837 0
M  V30 2076 H 197.14 -1.20105 -1.65638 0
M  V30 2077 H 197.15 -0.619307 -4.03272 0
M  V30 2078 H 195.825 -1.74276 -3.77625 0
M  V30 2079 H 194.402 0.0880706 -3.72796 0
M  V30 2080 N 196.587 1.43421 -0.653314 0
M  V30 2081 C 197.55 2.29182 0.0287951 0
M  V30 2082 C 198.55 1.42213 0.750465 0
M  V30 2083 O 199.74 1.63843 0.591701 0
M  V30 2084 C 196.872 3.24278 1.05151 0
M  V30 2085 H 198.065 2.90985 -0.725786 0
M  V30 2086 H 195.618 1.50702 -0.414545 0
M  V30 2087 H 196.353 2.6737 1.83532 0
M  V30 2088 H 196.138 3.88396 0.537687 0
M  V30 2089 H 197.628 3.88647 1.52786 0
M  V30 2090 N 198.065 0.39524 1.52563 0
M  V30 2091 C 199.293 -0.184943 2.06072 0
M  V30 2092 C 199.708 -1.40021 1.26647 0
M  V30 2093 O 199.065 -1.79767 0.314672 0
M  V30 2094 C 199.116 -0.549179 3.57304 0
M  V30 2095 O 198.837 0.617813 4.33722 0
M  V30 2096 C 200.338 -1.18459 4.2718 0
M  V30 2097 H 197.558 -0.0265025 0.670476 0
M  V30 2098 H 200.102 0.562184 1.96621 0
M  V30 2099 H 198.257 -1.2462 3.66809 0
M  V30 2100 H 198.671 0.317091 5.23541 0
M  V30 2101 H 200.145 -1.38976 5.34219 0
M  V30 2102 H 200.622 -2.15368 3.82771 0
M  V30 2103 H 201.228 -0.528163 4.22008 0
M  V30 2104 N 199.544 -1.57102 0.125237 0
M  V30 2105 C 200.792 -1.95021 -0.530198 0
M  V30 2106 C 201.113 -1.00982 -1.66816 0
M  V30 2107 O 200.383 -0.0672693 -1.95784 0
M  V30 2108 H 198.963 -0.720046 -0.198853 0
M  V30 2109 H 201.625 -1.93916 0.19564 0
M  V30 2110 H 200.721 -2.98211 -0.920681 0
M  V30 2111 N 201.022 0.148545 -1.56898 0
M  V30 2112 C 202.252 0.875118 -1.8715 0
M  V30 2113 C 202.66 1.75322 -0.711262 0
M  V30 2114 O 202.003 1.80745 0.328151 0
M  V30 2115 C 202.065 1.7844 -3.12089 0
M  V30 2116 C 201.729 1.08361 -4.43967 0
M  V30 2117 C 202.726 0.438247 -5.1805 0
M  V30 2118 C 200.411 1.07358 -4.90693 0
M  V30 2119 C 202.405 -0.20779 -6.37061 0
M  V30 2120 C 200.092 0.42373 -6.09629 0
M  V30 2121 C 201.09 -0.215829 -6.82659 0
M  V30 2122 O 200.778 -0.855378 -7.99336 0
M  V30 2123 H 200.51 0.258504 -0.624621 0
M  V30 2124 H 203.064 0.14652 -2.04877 0
M  V30 2125 H 201.294 2.55389 -2.90367 0
M  V30 2126 H 202.983 2.38279 -3.286 0
M  V30 2127 H 203.749 0.437817 -4.8302 0
M  V30 2128 H 199.628 1.5608 -4.33774 0
M  V30 2129 H 203.172 -0.70758 -6.94002 0
M  V30 2130 H 199.069 0.421822 -6.4412 0
M  V30 2131 H 199.837 -0.756892 -8.14993 0
M  V30 2132 N 202.5 1.5196 0.417844 0
M  V30 2133 C 203.748 1.65263 1.16329 0
M  V30 2134 C 204.069 0.380634 1.91249 0
M  V30 2135 O 203.339 -0.604214 1.86349 0
M  V30 2136 H 201.919 0.60912 0.432414 0
M  V30 2137 H 204.581 1.88969 0.477162 0
M  V30 2138 H 203.677 2.4896 1.88217 0
M  V30 2139 N 203.978 -0.674533 1.42435 0
M  V30 2140 C 204.908 -1.80009 1.48724 0
M  V30 2141 C 205.889 -1.6659 0.343793 0
M  V30 2142 O 207.074 -1.86007 0.558137 0
M  V30 2143 C 204.204 -3.18306 1.38919 0
M  V30 2144 C 203.158 -3.46461 2.51294 0
M  V30 2145 C 202.484 -4.84335 2.26547 0
M  V30 2146 C 203.784 -3.43328 3.93603 0
M  V30 2147 H 205.478 -1.75004 2.42928 0
M  V30 2148 H 203.024 -0.840533 1.16923 0
M  V30 2149 H 204.977 -3.9678 1.41927 0
M  V30 2150 H 203.701 -3.2399 0.412094 0
M  V30 2151 H 202.36 -2.70348 2.47604 0
M  V30 2152 H 202.008 -4.86669 1.2713 0
M  V30 2153 H 201.708 -5.04136 3.01861 0
M  V30 2154 H 203.232 -5.65094 2.31304 0
M  V30 2155 H 204.646 -4.11772 3.98894 0
M  V30 2156 H 203.043 -3.74664 4.68771 0
M  V30 2157 H 204.113 -2.41897 4.20255 0
M  V30 2158 N 205.456 -1.28612 -0.910864 0
M  V30 2159 C 206.404 -1.1265 -2.03501 0
M  V30 2160 C 207.398 -0.0450054 -1.6934 0
M  V30 2161 O 208.604 -0.203988 -1.7884 0
M  V30 2162 H 204.979 -0.347639 -0.666822 0
M  V30 2163 H 206.95 -2.07849 -2.14106 0
M  V30 2164 C 205.699 -0.808143 -3.38178 0
M  V30 2165 H 205.022 -1.63231 -3.6496 0
M  V30 2166 H 206.462 -0.736426 -4.17556 0
M  V30 2167 C 204.921 0.488226 -3.33344 0
M  V30 2168 O 205.451 1.51766 -3.71927 0
M  V30 2169 N 203.657 0.490009 -2.86439 0
M  V30 2170 H 203.204 -0.348161 -2.55236 0
M  V30 2171 H 203.162 1.35741 -2.83587 0
M  V30 2172 N 206.934 1.1197 -1.10907 0
M  V30 2173 C 208.164 1.8713 -0.875553 0
M  V30 2174 C 208.572 1.8016 0.577843 0
M  V30 2175 O 207.915 1.17699 1.41042 0
M  V30 2176 C 207.977 3.37005 -1.2517 0
M  V30 2177 C 207.641 3.67748 -2.71313 0
M  V30 2178 C 208.638 3.65698 -3.69542 0
M  V30 2179 C 206.323 3.96928 -3.07821 0
M  V30 2180 C 208.317 3.92395 -5.023 0
M  V30 2181 C 206.004 4.23284 -4.40765 0
M  V30 2182 C 207.002 4.21005 -5.37814 0
M  V30 2183 O 206.69 4.46704 -6.68364 0
M  V30 2184 H 206.422 0.598786 -0.313737 0
M  V30 2185 H 208.976 1.42568 -1.47863 0
M  V30 2186 H 207.206 3.82146 -0.591741 0
M  V30 2187 H 208.895 3.93519 -0.994877 0
M  V30 2188 H 209.661 3.43211 -3.42682 0
M  V30 2189 H 205.54 3.97841 -2.32902 0
M  V30 2190 H 209.084 3.90531 -5.78041 0
M  V30 2191 H 204.981 4.45246 -4.67361 0
M  V30 2192 H 205.749 4.64299 -6.74069 0
M  V30 2193 N 208.412 0.89855 1.29475 0
M  V30 2194 C 209.344 0.332726 2.26772 0
M  V30 2195 C 210.357 -0.520323 1.54261 0
M  V30 2196 O 211.546 -0.337668 1.75277 0
M  V30 2197 C 208.646 -0.544334 3.345 0
M  V30 2198 C 207.819 0.282728 4.36485 0
M  V30 2199 C 206.878 -0.526982 5.23555 0
M  V30 2200 O 205.904 0.0551165 5.69173 0
M  V30 2201 N 207.106 -1.83331 5.5079 0
M  V30 2202 H 209.871 1.16897 2.75962 0
M  V30 2203 H 207.432 0.762919 1.42798 0
M  V30 2204 H 209.424 -1.09239 3.89678 0
M  V30 2205 H 207.994 -1.28127 2.85136 0
M  V30 2206 H 207.214 1.01221 3.80983 0
M  V30 2207 H 208.502 0.84918 5.01664 0
M  V30 2208 H 207.9 -2.32898 5.15534 0
M  V30 2209 H 206.457 -2.32852 6.08788 0
M  V30 2210 N 209.89 -1.43072 0.660911 0
M  V30 2211 C 211.12 -2.05769 0.185153 0
M  V30 2212 C 211.528 -1.49668 -1.15742 0
M  V30 2213 O 210.871 -0.625649 -1.72717 0
M  V30 2214 C 210.933 -3.59489 0.0278237 0
M  V30 2215 C 210.597 -4.38212 1.2969 0
M  V30 2216 C 211.594 -4.69772 2.22734 0
M  V30 2217 C 209.279 -4.7809 1.54063 0
M  V30 2218 C 211.273 -5.40129 3.38437 0
M  V30 2219 C 208.96 -5.4819 2.70058 0
M  V30 2220 C 209.958 -5.79132 3.62071 0
M  V30 2221 O 209.646 -6.47798 4.76039 0
M  V30 2222 H 209.378 -0.669873 0.0908086 0
M  V30 2223 H 211.932 -1.84436 0.90402 0
M  V30 2224 H 210.162 -3.79426 -0.746489 0
M  V30 2225 H 211.851 -4.03862 -0.406275 0
M  V30 2226 H 212.617 -4.39476 2.05149 0
M  V30 2227 H 208.496 -4.53408 0.833215 0
M  V30 2228 H 212.04 -5.64198 4.10277 0
M  V30 2229 H 207.937 -5.77902 2.87574 0
M  V30 2230 H 208.705 -6.66283 4.75404 0
M  V30 2231 N 211.368 -0.403325 -1.52352 0
M  V30 2232 C 212.616 0.174003 -2.0135 0
M  V30 2233 C 212.937 1.46139 -1.29106 0
M  V30 2234 O 212.207 1.91448 -0.415253 0
M  V30 2235 H 210.787 0.0672911 -0.743963 0
M  V30 2236 H 213.449 -0.538235 -1.87321 0
M  V30 2237 H 212.545 0.374254 -3.09848 0
M  V30 2238 N 212.846 1.57033 -0.133567 0
M  V30 2239 C 213.776 2.1909 0.807567 0
M  V30 2240 C 214.757 1.13517 1.26681 0
M  V30 2241 O 215.942 1.41809 1.32679 0
M  V30 2242 C 213.072 2.80188 2.05212 0
M  V30 2243 C 212.026 3.91471 1.73015 0
M  V30 2244 C 211.352 4.39443 3.04622 0
M  V30 2245 C 212.652 5.12886 0.987168 0
M  V30 2246 H 214.346 2.97988 0.290403 0
M  V30 2247 H 211.892 1.43335 0.138239 0
M  V30 2248 H 213.845 3.22264 2.71521 0
M  V30 2249 H 212.569 1.98601 2.59278 0
M  V30 2250 H 211.228 3.49993 1.0909 0
M  V30 2251 H 210.876 3.54695 3.56651 0
M  V30 2252 H 210.576 5.14495 2.83847 0
M  V30 2253 H 212.1 4.8418 3.72024 0
M  V30 2254 H 213.514 5.51891 1.55208 0
M  V30 2255 H 211.911 5.93615 0.87985 0
M  V30 2256 H 212.981 4.84894 -0.0235286 0
M  V30 2257 N 214.325 -0.140222 1.56975 0
M  V30 2258 C 215.572 -0.851687 1.83719 0
M  V30 2259 C 215.9 -1.80862 0.715485 0
M  V30 2260 O 215.155 -1.93464 -0.294956 0
M  V30 2261 C 215.454 -1.65386 3.16832 0
M  V30 2262 C 215.12 -0.843112 4.42947 0
M  V30 2263 C 213.782 -0.619464 4.77196 0
M  V30 2264 C 216.134 -0.276582 5.20466 0
M  V30 2265 C 213.462 0.181312 5.8642 0
M  V30 2266 C 215.814 0.51127 6.30531 0
M  V30 2267 C 214.478 0.745432 6.63325 0
M  V30 2268 H 213.748 -0.311654 0.672274 0
M  V30 2269 H 216.395 -0.115006 1.91154 0
M  V30 2270 H 214.7 -2.46084 3.04877 0
M  V30 2271 H 216.397 -2.20793 3.34741 0
M  V30 2272 H 212.987 -1.0275 4.16101 0
M  V30 2273 H 217.171 -0.436632 4.94376 0
M  V30 2274 H 212.427 0.372165 6.10266 0
M  V30 2275 H 216.601 0.957354 6.89788 0
M  V30 2276 H 214.228 1.36778 7.47794 0
M  V30 2277 N 215.803 -1.52179 -0.40978 0
M  V30 2278 C 217.219 -1.40968 -0.74835 0
M  V30 2279 C 217.419 -0.513657 -1.94843 0
M  V30 2280 O 216.475 0.0208026 -2.52491 0
M  V30 2281 C 217.788 -2.83483 -1.0029 0
M  V30 2282 C 219.336 -2.92821 -1.10565 0
M  V30 2283 C 219.811 -4.36303 -1.39296 0
M  V30 2284 N 221.302 -4.39535 -1.46162 0
M  V30 2285 C 222.037 -5.47614 -1.70018 0
M  V30 2286 N 221.533 -6.65812 -1.91483 0
M  V30 2287 N 223.326 -5.35129 -1.72027 0
M  V30 2288 H 215.477 -2.0897 0.380186 0
M  V30 2289 H 217.74 -0.94185 0.107805 0
M  V30 2290 H 217.446 -3.51168 -0.193461 0
M  V30 2291 H 217.32 -3.24487 -1.92323 0
M  V30 2292 H 219.707 -2.25318 -1.90568 0
M  V30 2293 H 219.788 -2.55276 -0.16369 0
M  V30 2294 H 219.432 -5.04366 -0.598109 0
M  V30 2295 H 219.362 -4.71385 -2.34743 0
M  V30 2296 H 221.853 -3.54332 -1.31367 0
M  V30 2297 H 222.166 -7.43964 -2.09134 0
M  V30 2298 H 220.511 -6.68879 -1.88749 0
M  V30 2299 H 223.702 -4.41764 -1.54796 0
M  V30 2300 H 223.875 -6.19433 -1.9028 0
M  V30 2301 N 217.281 0.66697 -1.42791 0
M  V30 2302 C 218.213 1.7925 -1.42836 0
M  V30 2303 C 219.226 1.59496 -0.326333 0
M  V30 2304 O 220.415 1.6847 -0.589916 0
M  V30 2305 C 217.515 3.16476 -1.21229 0
M  V30 2306 C 216.688 3.63011 -2.44013 0
M  V30 2307 C 215.747 4.78993 -2.17834 0
M  V30 2308 O 214.773 4.89137 -2.91091 0
M  V30 2309 N 215.975 5.68248 -1.18635 0
M  V30 2310 H 218.74 1.79695 -2.39854 0
M  V30 2311 H 216.301 0.850338 -1.37771 0
M  V30 2312 H 218.293 3.91734 -1.01621 0
M  V30 2313 H 216.863 3.10884 -0.32706 0
M  V30 2314 H 216.083 2.78346 -2.79137 0
M  V30 2315 H 217.371 3.90845 -3.25757 0
M  V30 2316 H 216.769 5.62712 -0.580615 0
M  V30 2317 H 215.326 6.43285 -1.05013 0
M  V30 2318 N 218.759 1.29093 0.90403 0
M  V30 2319 C 219.984 1.19809 1.69294 0
M  V30 2320 C 220.409 -0.238481 1.86582 0
M  V30 2321 O 219.767 -1.1723 1.383 0
M  V30 2322 C 219.815 1.91202 3.05736 0
M  V30 2323 O 218.919 1.22611 3.93752 0
M  V30 2324 H 218.26 0.415385 0.518027 0
M  V30 2325 H 220.79 1.70586 1.12967 0
M  V30 2326 H 220.8 1.99487 3.55906 0
M  V30 2327 H 219.475 2.95692 2.92471 0
M  V30 2328 H 218.052 1.22554 3.52186 0
M  V30 2329 N 220.237 -1.11381 1.11499 0
M  V30 2330 C 221.484 -1.83132 0.864231 0
M  V30 2331 C 221.812 -1.84683 -0.610114 0
M  V30 2332 O 221.067 -1.29589 -1.46646 0
M  V30 2333 C 221.366 -3.30026 1.37177 0
M  V30 2334 C 221.032 -3.48634 2.85946 0
M  V30 2335 C 219.694 -3.53421 3.26569 0
M  V30 2336 C 222.046 -3.54837 3.81759 0
M  V30 2337 C 219.374 -3.61967 4.61733 0
M  V30 2338 C 221.726 -3.64915 5.1674 0
M  V30 2339 C 220.39 -3.67962 5.5692 0
M  V30 2340 H 219.66 -0.670127 0.316245 0
M  V30 2341 H 222.307 -1.31354 1.3935 0
M  V30 2342 H 220.612 -3.84304 0.762753 0
M  V30 2343 H 222.309 -3.84034 1.15408 0
M  V30 2344 H 218.899 -3.45579 2.53521 0
M  V30 2345 H 223.083 -3.50399 3.51474 0
M  V30 2346 H 218.339 -3.62603 4.92269 0
M  V30 2347 H 222.513 -3.68658 5.90816 0
M  V30 2348 H 220.14 -3.74336 6.61647 0
M  V30 2349 N 221.715 -0.905404 -1.28997 0
M  V30 2350 C 222.961 -0.535039 -1.95615 0
M  V30 2351 C 223.294 0.917404 -1.71165 0
M  V30 2352 O 222.569 1.65123 -1.02785 0
M  V30 2353 C 222.852 -0.834918 -3.50287 0
M  V30 2354 C 222.705 -2.33948 -3.84172 0
M  V30 2355 C 224.024 -0.325318 -4.38896 0
M  V30 2356 H 221.143 -0.195861 -0.710498 0
M  V30 2357 H 223.785 -1.13313 -1.52513 0
M  V30 2358 H 221.935 -0.325904 -3.87131 0
M  V30 2359 H 223.607 -2.91847 -3.57243 0
M  V30 2360 H 221.85 -2.79789 -3.31513 0
M  V30 2361 H 222.521 -2.49987 -4.92149 0
M  V30 2362 H 224.997 -0.761256 -4.09077 0
M  V30 2363 H 223.873 -0.564295 -5.45992 0
M  V30 2364 H 224.134 0.774144 -4.35269 0
M  V30 2365 N 223.193 1.4272 -0.668489 0
M  V30 2366 C 224.47 1.95248 -0.117373 0
M  V30 2367 C 224.85 1.60919 1.36632 0
M  V30 2368 O 224.198 0.902095 2.09939 0
M  V30 2369 C 224.408 3.46927 -0.379806 0
M  V30 2370 C 225.756 4.23588 -0.292923 0
M  V30 2371 O 226.78 3.5482 -0.313204 0
M  V30 2372 O 225.639 5.46017 -0.229697 0
M  V30 2373 H 222.733 0.827 0.00079152 0
M  V30 2374 H 225.279 1.52581 -0.742783 0
M  V30 2375 H 224.051 3.65096 -1.40786 0
M  V30 2376 H 223.674 3.96627 0.277923 0
M  V30 2377 N 224.671 0.411399 1.52136 0
M  V30 2378 C 225.919 -0.163322 2.01439 0
M  V30 2379 C 226.24 -1.45453 1.29879 0
M  V30 2380 O 225.51 -1.91225 0.4254 0
M  V30 2381 H 224.09 -0.0633447 0.744309 0
M  V30 2382 H 226.752 0.548161 1.87033 0
M  V30 2383 H 225.848 -0.357817 3.10042 0
M  V30 2384 N 226.149 -1.5696 0.141893 0
M  V30 2385 C 227.096 -2.16501 -0.799737 0
M  V30 2386 C 228.066 -1.09643 -1.24771 0
M  V30 2387 O 229.251 -1.3766 -1.32115 0
M  V30 2388 C 226.391 -2.78679 -2.03549 0
M  V30 2389 C 225.504 -3.99914 -1.6338 0
M  V30 2390 C 224.639 -4.50106 -2.82096 0
M  V30 2391 C 223.678 -5.63819 -2.38275 0
M  V30 2392 N 222.815 -6.08651 -3.49983 0
M  V30 2393 H 227.655 -2.96632 -0.285179 0
M  V30 2394 H 225.192 -1.46533 -0.129053 0
M  V30 2395 H 227.15 -3.1287 -2.75986 0
M  V30 2396 H 225.78 -2.012 -2.52425 0
M  V30 2397 H 224.832 -3.71735 -0.807279 0
M  V30 2398 H 226.144 -4.82311 -1.27192 0
M  V30 2399 H 225.298 -4.86325 -3.62729 0
M  V30 2400 H 224.037 -3.66706 -3.21525 0
M  V30 2401 H 223.042 -5.2718 -1.56081 0
M  V30 2402 H 224.267 -6.49 -1.99938 0
M  V30 2403 H 222.213 -5.28188 -3.89042 0
M  V30 2404 H 222.13 -6.85961 -3.17794 0
M  V30 2405 H 223.398 -6.49515 -4.30988 0
M  V30 2406 N 227.627 0.131896 -1.57047 0
M  V30 2407 C 228.559 1.1878 -1.9602 0
M  V30 2408 C 229.572 1.38363 -0.857875 0
M  V30 2409 O 230.761 1.37666 -1.13623 0
M  V30 2410 C 227.861 2.55008 -2.23213 0
M  V30 2411 C 227.034 2.56201 -3.54513 0
M  V30 2412 C 226.093 3.7408 -3.70069 0
M  V30 2413 O 225.119 3.58258 -4.42312 0
M  V30 2414 N 226.321 4.92137 -3.07866 0
M  V30 2415 H 229.086 0.85639 -2.87204 0
M  V30 2416 H 226.647 0.321309 -1.5868 0
M  V30 2417 H 228.639 3.32404 -2.30846 0
M  V30 2418 H 227.209 2.80382 -1.3822 0
M  V30 2419 H 226.429 1.64613 -3.58185 0
M  V30 2420 H 227.717 2.54043 -4.4084 0
M  V30 2421 H 227.115 5.07895 -2.49116 0
M  V30 2422 H 225.672 5.67254 -3.21039 0
M  V30 2423 N 229.106 1.52395 0.401703 0
M  V30 2424 C 230.352 1.67065 1.14966 0
M  V30 2425 C 230.685 0.403052 1.89971 0
M  V30 2426 O 229.96 -0.598774 1.85054 0
M  V30 2427 C 230.243 2.8975 2.13815 0
M  V30 2428 C 230.096 4.26578 1.42658 0
M  V30 2429 C 231.415 3.07965 3.14397 0
M  V30 2430 H 228.534 0.607968 0.416587 0
M  V30 2431 H 231.176 1.84965 0.434511 0
M  V30 2432 H 229.326 2.74619 2.74803 0
M  V30 2433 H 230.998 4.53451 0.847329 0
M  V30 2434 H 229.241 4.27639 0.72849 0
M  V30 2435 H 229.912 5.08483 2.14823 0
M  V30 2436 H 232.388 3.22043 2.63491 0
M  V30 2437 H 231.264 3.95308 3.80819 0
M  V30 2438 H 231.525 2.21611 3.82545 0
M  V30 2439 N 230.584 -0.659388 1.43143 0
M  V30 2440 C 231.494 -1.80167 1.50256 0
M  V30 2441 C 232.51 -1.69571 0.390106 0
M  V30 2442 O 233.686 -1.90849 0.643319 0
M  V30 2443 C 230.751 -3.16409 1.41725 0
M  V30 2444 C 229.812 -3.38848 2.63591 0
M  V30 2445 C 229.045 -4.68591 2.55458 0
M  V30 2446 O 229.268 -5.47532 1.59891 0
M  V30 2447 O 228.202 -4.92614 3.45854 0
M  V30 2448 H 232.028 -1.77121 2.46702 0
M  V30 2449 H 229.613 -0.817092 1.25076 0
M  V30 2450 H 231.495 -3.9768 1.39387 0
M  V30 2451 H 230.17 -3.20059 0.484118 0
M  V30 2452 H 229.077 -2.57366 2.71502 0
M  V30 2453 H 230.41 -3.4004 3.55856 0
M  V30 2454 N 232.062 -1.29571 -0.897171 0
M  V30 2455 C 233.025 -1.14913 -1.98312 0
M  V30 2456 C 234.025 -0.0838629 -1.60581 0
M  V30 2457 O 235.215 -0.331006 -1.71026 0
M  V30 2458 C 232.347 -0.757835 -3.3237 0
M  V30 2459 H 233.54 -2.11377 -2.12743 0
M  V30 2460 H 231.093 -1.12793 -1.08201 0
M  V30 2461 H 231.828 0.206837 -3.2364 0
M  V30 2462 H 231.613 -1.52755 -3.61121 0
M  V30 2463 H 233.103 -0.678408 -4.12053 0
M  V30 2464 N 233.54 1.10788 -1.12088 0
M  V30 2465 C 234.951 1.64181 -0.88891 0
M  V30 2466 C 235.302 1.87508 0.577498 0
M  V30 2467 O 234.427 1.61434 1.44112 0
M  V30 2468 C 235.022 2.98257 -1.60712 0
M  V30 2469 C 233.581 3.4853 -1.42139 0
M  V30 2470 C 232.728 2.23208 -1.6454 0
M  V30 2471 H 235.679 0.943368 -1.27618 0
M  V30 2472 H 235.7 3.65552 -1.05604 0
M  V30 2473 H 235.212 2.81246 -2.67436 0
M  V30 2474 H 233.313 3.70692 -0.376552 0
M  V30 2475 H 233.426 4.26882 -2.17505 0
M  V30 2476 H 231.79 2.31169 -1.06925 0
M  V30 2477 H 232.573 2.08733 -2.72554 0
M  V30 2478 N 235.018 0.912232 1.28515 0
M  V30 2479 C 236.295 0.463597 1.90027 0
M  V30 2480 C 236.675 -1.05753 1.82701 0
M  V30 2481 O 236.023 -1.90492 1.26194 0
M  V30 2482 C 236.233 0.992253 3.34597 0
M  V30 2483 C 237.581 1.04344 4.11579 0
M  V30 2484 O 238.605 0.94079 3.43551 0
M  V30 2485 O 237.464 1.1995 5.33174 0
M  V30 2486 H 234.558 0.146666 0.813891 0
M  V30 2487 H 237.104 1.00292 1.36893 0
M  V30 2488 H 235.876 2.03623 3.34146 0
M  V30 2489 H 235.499 0.433672 3.95228 0
M  V30 2490 N 236.496 -1.42363 0.676048 0
M  V30 2491 C 237.773 -1.95183 0.127726 0
M  V30 2492 C 238.153 -1.61641 -1.35777 0
M  V30 2493 O 237.501 -0.913216 -2.09458 0
M  V30 2494 C 237.711 -3.46721 0.398199 0
M  V30 2495 C 239.059 -4.23427 0.315383 0
M  V30 2496 O 240.083 -3.54649 0.332016 0
M  V30 2497 O 238.942 -5.45888 0.25865 0
M  V30 2498 H 236.036 -0.826992 0.00359427 0
M  V30 2499 H 238.582 -1.52184 0.750864 0
M  V30 2500 H 237.354 -3.64344 1.4272 0
M  V30 2501 H 236.977 -3.96769 -0.256885 0
M  V30 2502 N 237.974 -0.419461 -1.51915 0
M  V30 2503 C 239.22 0.145505 -2.02879 0
M  V30 2504 C 239.575 1.41926 -1.29903 0
M  V30 2505 O 238.868 1.87383 -0.399782 0
M  V30 2506 C 239.062 0.437067 -3.54717 0
M  V30 2507 C 238.891 -0.806877 -4.42402 0
M  V30 2508 C 237.661 -1.33514 -4.87342 0
M  V30 2509 C 239.859 -1.68796 -4.85811 0
M  V30 2510 N 237.841 -2.53349 -5.59185 0
M  V30 2511 C 239.212 -2.73247 -5.56539 0
M  V30 2512 C 241.267 -1.70449 -4.67816 0
M  V30 2513 C 239.97 -3.79276 -6.11181 0
M  V30 2514 C 241.996 -2.75403 -5.23361 0
M  V30 2515 C 241.358 -3.78575 -5.9402 0
M  V30 2516 H 237.457 0.0145424 -0.781865 0
M  V30 2517 H 240.041 -0.576126 -1.85981 0
M  V30 2518 H 238.212 1.12774 -3.71667 0
M  V30 2519 H 239.944 0.99182 -3.92358 0
M  V30 2520 H 236.699 -0.891657 -4.65131 0
M  V30 2521 H 237.123 -3.14066 -5.99743 0
M  V30 2522 H 241.765 -0.920209 -4.12664 0
M  V30 2523 H 239.483 -4.58554 -6.65397 0
M  V30 2524 H 243.069 -2.77603 -5.113 0
M  V30 2525 H 241.949 -4.58453 -6.36231 0
M  V30 2526 N 239.452 1.56882 -0.150215 0
M  V30 2527 C 240.402 2.13501 0.800071 0
M  V30 2528 C 241.386 1.06368 1.20726 0
M  V30 2529 O 242.578 1.32538 1.17314 0
M  V30 2530 C 239.707 2.76271 2.03787 0
M  V30 2531 C 238.793 3.90533 1.65364 0
M  V30 2532 N 239.184 4.96259 0.977794 0
M  V30 2533 C 237.482 4.013 1.94613 0
M  V30 2534 C 238.183 5.76286 0.791794 0
M  V30 2535 N 237.159 5.27163 1.32666 0
M  V30 2536 H 240.961 2.92615 0.274517 0
M  V30 2537 H 238.475 1.62319 0.0512144 0
M  V30 2538 H 240.472 3.15197 2.72867 0
M  V30 2539 H 239.132 1.98631 2.56857 0
M  V30 2540 H 240.143 5.13953 0.638193 0
M  V30 2541 H 236.82 3.3474 2.4951 0
M  V30 2542 H 238.21 6.71401 0.258894 0
M  V30 2543 N 240.93 -0.123565 1.57115 0
M  V30 2544 C 242.346 -0.476961 1.52306 0
M  V30 2545 C 242.546 -1.82109 0.86248 0
M  V30 2546 O 241.602 -2.48586 0.442884 0
M  V30 2547 C 242.915 -0.465661 2.97073 0
M  V30 2548 C 244.463 -0.549534 3.08138 0
M  V30 2549 C 244.938 -0.568669 4.54456 0
M  V30 2550 N 246.429 -0.630237 4.58892 0
M  V30 2551 C 247.164 -0.666415 5.69514 0
M  V30 2552 N 246.66 -0.660514 6.89644 0
M  V30 2553 N 248.453 -0.709077 5.5761 0
M  V30 2554 H 240.604 0.757198 1.98445 0
M  V30 2555 H 242.867 0.278808 0.906074 0
M  V30 2556 H 242.573 0.454232 3.48754 0
M  V30 2557 H 242.447 -1.29513 3.54269 0
M  V30 2558 H 244.834 -1.45985 2.56461 0
M  V30 2559 H 244.915 0.307532 2.53945 0
M  V30 2560 H 244.559 0.337581 5.06777 0
M  V30 2561 H 244.489 -1.44256 5.06456 0
M  V30 2562 H 246.98 -0.641146 3.72421 0
M  V30 2563 H 247.293 -0.690616 7.69708 0
M  V30 2564 H 245.638 -0.628012 6.92157 0
M  V30 2565 H 248.829 -0.711019 4.62668 0
M  V30 2566 H 249.002 -0.733804 6.43832 0
M  V30 2567 N 242.408 -1.52605 -0.393616 0
M  V30 2568 C 243.633 -1.71592 -1.16495 0
M  V30 2569 C 244.058 -0.43133 -1.83088 0
M  V30 2570 O 243.416 0.612523 -1.7064 0
M  V30 2571 C 243.464 -2.86318 -2.19213 0
M  V30 2572 O 242.568 -2.52969 -3.257 0
M  V30 2573 H 241.909 -0.570734 -0.33935 0
M  V30 2574 H 244.439 -1.99377 -0.459324 0
M  V30 2575 H 244.449 -3.1168 -2.63286 0
M  V30 2576 H 243.124 -3.79511 -1.7013 0
M  V30 2577 H 241.701 -2.38332 -2.86797 0
M  V30 2578 N 243.887 0.651787 -1.4349 0
M  V30 2579 C 244.835 1.78586 -1.49029 0
M  V30 2580 C 245.829 1.65448 -0.363767 0
M  V30 2581 O 247.035 1.71777 -0.537821 0
M  V30 2582 H 243.41 0.589236 -0.467231 0
M  V30 2583 H 245.381 1.71035 -2.44519 0
M  V30 2584 C 244.13 3.16851 -1.43181 0
M  V30 2585 H 243.453 3.27598 -2.29171 0
M  V30 2586 H 244.893 3.96156 -1.51118 0
M  V30 2587 C 243.352 3.36568 -0.149616 0
M  V30 2588 O 243.882 3.93885 0.788509 0
M  V30 2589 N 242.088 2.90539 -0.0593484 0
M  V30 2590 H 241.635 2.4408 -0.823575 0
M  V30 2591 H 241.593 3.04108 0.797853 0
M  V30 2592 N 245.365 1.30045 0.890287 0
M  V30 2593 C 246.595 1.21296 1.67245 0
M  V30 2594 C 247.003 -0.227471 1.87828 0
M  V30 2595 O 246.346 -1.16296 1.422 0
M  V30 2596 C 246.408 1.86519 3.07329 0
M  V30 2597 C 246.072 3.35837 3.09939 0
M  V30 2598 C 247.069 4.31915 2.89389 0
M  V30 2599 C 244.754 3.77196 3.31706 0
M  V30 2600 C 246.748 5.67325 2.90552 0
M  V30 2601 C 244.435 5.12725 3.32499 0
M  V30 2602 C 245.433 6.076 3.11947 0
M  V30 2603 O 245.121 7.40655 3.12547 0
M  V30 2604 H 244.853 0.4211 0.528821 0
M  V30 2605 H 247.407 1.72111 1.12103 0
M  V30 2606 H 245.637 1.30228 3.64112 0
M  V30 2607 H 247.326 1.71963 3.67673 0
M  V30 2608 H 248.092 4.01294 2.72375 0
M  V30 2609 H 243.971 3.03796 3.4674 0
M  V30 2610 H 247.515 6.41354 2.74429 0
M  V30 2611 H 243.412 5.42988 3.49047 0
M  V30 2612 H 244.18 7.49577 3.28749 0
M  V30 2613 N 246.843 -1.10192 1.12674 0
M  V30 2614 C 248.254 -1.63707 0.897604 0
M  V30 2615 C 248.605 -1.87812 -0.567546 0
M  V30 2616 O 247.73 -1.62196 -1.43253 0
M  V30 2617 C 248.325 -2.974 1.62292 0
M  V30 2618 C 246.884 -3.47772 1.43986 0
M  V30 2619 C 246.031 -2.22332 1.65722 0
M  V30 2620 H 248.982 -0.936587 1.28116 0
M  V30 2621 H 249.003 -3.64986 1.07541 0
M  V30 2622 H 248.515 -2.79824 2.68924 0
M  V30 2623 H 246.616 -3.70487 0.396206 0
M  V30 2624 H 246.729 -4.25723 2.19765 0
M  V30 2625 H 245.093 -2.30599 1.08149 0
M  V30 2626 H 245.876 -2.07285 2.73657 0
M  V30 2627 N 248.321 -0.919034 -1.28029 0
M  V30 2628 C 249.567 -0.565221 -1.95389 0
M  V30 2629 C 249.922 0.882325 -1.70976 0
M  V30 2630 O 249.215 1.61988 -1.02325 0
M  V30 2631 C 249.409 -0.816855 -3.4794 0
M  V30 2632 C 249.238 -2.28731 -3.87185 0
M  V30 2633 C 248.008 -2.93841 -4.11079 0
M  V30 2634 C 250.206 -3.26415 -3.97439 0
M  V30 2635 N 248.188 -4.31129 -4.37037 0
M  V30 2636 C 249.559 -4.48884 -4.27672 0
M  V30 2637 C 251.614 -3.21742 -3.79982 0
M  V30 2638 C 250.317 -5.67268 -4.42266 0
M  V30 2639 C 252.343 -4.39431 -3.95796 0
M  V30 2640 C 251.705 -5.60675 -4.26407 0
M  V30 2641 H 247.804 -0.256797 -0.738633 0
M  V30 2642 H 250.388 -1.18386 -1.54573 0
M  V30 2643 H 248.559 -0.227445 -3.87733 0
M  V30 2644 H 250.291 -0.426542 -4.02446 0
M  V30 2645 H 247.046 -2.44547 -4.05578 0
M  V30 2646 H 247.47 -5.02127 -4.5409 0
M  V30 2647 H 252.112 -2.29079 -3.55363 0
M  V30 2648 H 249.83 -6.60406 -4.65714 0
M  V30 2649 H 253.416 -4.37323 -3.83719 0
M  V30 2650 H 252.296 -6.50223 -4.38383 0
M  V30 2651 N 249.799 1.42003 -0.683588 0
M  V30 2652 C 251.046 2.01413 -0.209514 0
M  V30 2653 C 251.374 1.54088 1.1869 0
M  V30 2654 O 250.629 0.737591 1.81268 0
M  V30 2655 C 250.928 3.56827 -0.202357 0
M  V30 2656 C 250.594 4.23617 -1.54464 0
M  V30 2657 C 249.256 4.41577 -1.91215 0
M  V30 2658 C 251.608 4.61178 -2.42826 0
M  V30 2659 C 248.936 4.9437 -3.15935 0
M  V30 2660 C 251.288 5.15355 -3.66867 0
M  V30 2661 C 249.952 5.31528 -4.03776 0
M  V30 2662 H 249.222 0.737023 -0.0766668 0
M  V30 2663 H 251.869 1.70067 -0.880312 0
M  V30 2664 H 250.174 3.87892 0.551969 0
M  V30 2665 H 251.871 4.00588 0.181793 0
M  V30 2666 H 248.461 4.10004 -1.24877 0
M  V30 2667 H 252.645 4.46968 -2.15717 0
M  V30 2668 H 247.901 5.05076 -3.44541 0
M  V30 2669 H 252.075 5.43402 -4.35531 0
M  V30 2670 H 249.702 5.72199 -5.00492 0
M  V30 2671 N 251.277 0.427512 1.51691 0
M  V30 2672 C 252.693 0.0792977 1.59403 0
M  V30 2673 C 252.893 -1.41035 1.43914 0
M  V30 2674 O 251.949 -2.17922 1.27539 0
M  V30 2675 C 253.262 0.590636 2.94842 0
M  V30 2676 C 254.81 0.550215 3.08126 0
M  V30 2677 C 255.285 1.03836 4.46074 0
M  V30 2678 N 256.776 0.995943 4.52366 0
M  V30 2679 C 257.511 1.34463 5.57411 0
M  V30 2680 N 257.007 1.76569 6.69922 0
M  V30 2681 N 258.8 1.26343 5.47717 0
M  V30 2682 H 250.951 1.39687 1.60004 0
M  V30 2683 H 253.214 0.575003 0.753708 0
M  V30 2684 H 252.92 1.63251 3.11516 0
M  V30 2685 H 252.794 0.0102061 3.77199 0
M  V30 2686 H 255.181 -0.482654 2.91126 0
M  V30 2687 H 255.262 1.16693 2.27632 0
M  V30 2688 H 254.906 2.06965 4.63819 0
M  V30 2689 H 254.836 0.398286 5.25092 0
M  V30 2690 H 257.327 0.68661 3.7161 0
M  V30 2691 H 257.64 2.01438 7.46085 0
M  V30 2692 H 255.985 1.80488 6.71155 0
M  V30 2693 H 259.176 0.933209 4.58703 0
M  V30 2694 H 259.349 1.53846 6.29472 0
M  V30 2695 N 252.755 -1.56801 0.158532 0
M  V30 2696 C 253.705 -2.13923 -0.788738 0
M  V30 2697 C 254.689 -1.07006 -1.2016 0
M  V30 2698 O 255.881 -1.33159 -1.1661 0
M  V30 2699 C 253.01 -2.77348 -2.02319 0
M  V30 2700 C 252.096 -3.91404 -1.6329 0
M  V30 2701 N 252.487 -4.9677 -0.951463 0
M  V30 2702 C 250.785 -4.02326 -1.92482 0
M  V30 2703 C 251.486 -5.76698 -0.761221 0
M  V30 2704 N 250.462 -5.27859 -1.29869 0
M  V30 2705 H 254.264 -2.92757 -0.258995 0
M  V30 2706 H 251.778 -1.62344 -0.0426055 0
M  V30 2707 H 253.775 -3.16639 -2.71192 0
M  V30 2708 H 252.435 -1.99991 -2.558 0
M  V30 2709 H 253.446 -5.14284 -0.610928 0
M  V30 2710 H 250.123 -3.36059 -2.47732 0
M  V30 2711 H 251.513 -6.71529 -0.223284 0
M  V30 2712 N 254.233 0.115231 -1.57178 0
M  V30 2713 C 255.181 1.16014 -2.01602 0
M  V30 2714 C 256.175 1.42653 -0.913587 0
M  V30 2715 O 257.381 1.42571 -1.09879 0
M  V30 2716 H 253.756 0.391252 -0.642204 0
M  V30 2717 H 255.727 0.758998 -2.88586 0
M  V30 2718 C 254.476 2.47767 -2.4394 0
M  V30 2719 H 253.799 2.28108 -3.28339 0
M  V30 2720 H 255.239 3.19432 -2.78818 0
M  V30 2721 C 253.698 3.10617 -1.30455 0
M  V30 2722 O 254.228 3.96846 -0.622585 0
M  V30 2723 N 252.434 2.70553 -1.06064 0
M  V30 2724 H 251.981 2.00527 -1.61699 0
M  V30 2725 H 251.939 3.12934 -0.303284 0
M  V30 2726 N 255.711 1.52812 0.385517 0
M  V30 2727 C 256.621 1.80766 1.49535 0
M  V30 2728 C 257.637 0.694651 1.59532 0
M  V30 2729 O 258.813 0.982611 1.75803 0
M  V30 2730 C 255.878 1.97381 2.85029 0
M  V30 2731 C 254.939 3.21295 2.84724 0
M  V30 2732 C 254.172 3.37108 4.13756 0
M  V30 2733 O 254.395 2.5765 5.08893 0
M  V30 2734 O 253.329 4.30378 4.20783 0
M  V30 2735 H 257.155 2.75015 1.28842 0
M  V30 2736 H 254.74 1.37946 0.573697 0
M  V30 2737 H 256.622 2.09996 3.65349 0
M  V30 2738 H 255.297 1.06322 3.05741 0
M  V30 2739 H 254.204 3.1412 2.03174 0
M  V30 2740 H 255.537 4.12212 2.68965 0
M  V30 2741 N 257.189 -0.644168 1.43834 0
M  V30 2742 C 258.152 -1.73857 1.49353 0
M  V30 2743 C 259.152 -1.56315 0.377112 0
M  V30 2744 O 260.342 -1.62048 0.639226 0
M  V30 2745 C 257.474 -3.12819 1.35488 0
M  V30 2746 H 258.667 -1.70342 2.46827 0
M  V30 2747 H 256.22 -0.856652 1.30733 0
M  V30 2748 H 256.955 -3.2194 0.390569 0
M  V30 2749 H 256.74 -3.26958 2.16428 0
M  V30 2750 H 258.23 -3.92606 1.42302 0
M  V30 2751 N 258.668 -1.30515 -0.883378 0
M  V30 2752 C 259.598 -1.19607 -2.00541 0
M  V30 2753 C 260.579 -0.086346 -1.69881 0
M  V30 2754 O 261.764 -0.268654 -1.92333 0
M  V30 2755 C 258.894 -0.888758 -3.35736 0
M  V30 2756 C 257.848 -1.95659 -3.8066 0
M  V30 2757 C 257.174 -1.50224 -5.13164 0
M  V30 2758 C 258.474 -3.36788 -3.99213 0
M  V30 2759 H 260.168 -2.13476 -2.09925 0
M  V30 2760 H 257.714 -1.02775 -1.00863 0
M  V30 2761 H 259.667 -0.799094 -4.13754 0
M  V30 2762 H 258.391 0.0856125 -3.26488 0
M  V30 2763 H 257.05 -2.03591 -3.04871 0
M  V30 2764 H 256.698 -0.516092 -5.00345 0
M  V30 2765 H 256.398 -2.2165 -5.44192 0
M  V30 2766 H 257.922 -1.42639 -5.93706 0
M  V30 2767 H 259.336 -3.31605 -4.67665 0
M  V30 2768 H 257.733 -4.06314 -4.41621 0
M  V30 2769 H 258.803 -3.78561 -3.03017 0
M  V30 2770 N 260.146 1.09593 -1.13257 0
M  V30 2771 C 261.423 1.78293 -0.804432 0
M  V30 2772 C 261.803 1.99004 0.70431 0
M  V30 2773 O 261.151 1.59007 1.641 0
M  V30 2774 C 261.361 3.10707 -1.5894 0
M  V30 2775 C 262.709 3.85443 -1.78099 0
M  V30 2776 O 263.733 3.20454 -1.55525 0
M  V30 2777 O 262.592 5.02108 -2.15753 0
M  V30 2778 H 259.686 0.773156 -0.293528 0
M  V30 2779 H 262.232 1.16164 -1.23709 0
M  V30 2780 H 261.004 2.91106 -2.61482 0
M  V30 2781 H 260.627 3.80558 -1.15157 0
M  V30 2782 N 261.624 0.925811 1.2754 0
M  V30 2783 C 262.87 0.566092 1.94739 0
M  V30 2784 C 263.203 -0.890057 1.72603 0
M  V30 2785 O 262.478 -1.63467 1.05399 0
M  V30 2786 C 262.761 0.89054 3.48915 0
M  V30 2787 C 262.614 2.4003 3.80402 0
M  V30 2788 C 263.933 0.395101 4.38323 0
M  V30 2789 H 261.052 0.20714 0.707292 0
M  V30 2790 H 263.694 1.15725 1.50691 0
M  V30 2791 H 261.844 0.387452 3.86563 0
M  V30 2792 H 263.516 2.97494 3.52555 0
M  V30 2793 H 261.759 2.85028 3.2702 0
M  V30 2794 H 262.43 2.57785 4.8811 0
M  V30 2795 H 264.906 0.826241 4.07814 0
M  V30 2796 H 263.782 0.651086 5.45025 0
M  V30 2797 H 264.043 -0.704798 4.36446 0
M  V30 2798 N 263.102 -1.41638 0.69111 0
M  V30 2799 C 264.034 -2.29194 -0.0161523 0
M  V30 2800 C 265.047 -1.44549 -0.748955 0
M  V30 2801 O 266.236 -1.681 -0.6004 0
M  V30 2802 C 263.336 -3.22325 -1.0469 0
M  V30 2803 C 262.509 -4.35706 -0.384621 0
M  V30 2804 C 261.568 -5.09443 -1.31737 0
M  V30 2805 O 260.594 -5.63386 -0.811451 0
M  V30 2806 N 261.796 -5.16487 -2.64993 0
M  V30 2807 H 264.561 -2.90534 0.735523 0
M  V30 2808 H 262.122 -1.52742 0.53679 0
M  V30 2809 H 264.114 -3.68522 -1.67252 0
M  V30 2810 H 262.684 -2.62323 -1.70015 0
M  V30 2811 H 261.904 -3.91948 0.420804 0
M  V30 2812 H 263.192 -5.08743 0.0760765 0
M  V30 2813 H 262.59 -4.741 -3.08619 0
M  V30 2814 H 261.147 -5.66276 -3.22761 0
M  V30 2815 N 264.58 -0.43555 -1.51462 0
M  V30 2816 C 265.826 0.131709 -2.02372 0
M  V30 2817 C 266.159 1.42516 -1.3192 0
M  V30 2818 O 265.434 1.89606 -0.433573 0
M  V30 2819 C 265.717 0.352301 -3.58373 0
M  V30 2820 C 265.57 -0.959676 -4.39443 0
M  V30 2821 C 266.889 1.12286 -4.25535 0
M  V30 2822 H 264.008 0.0463936 -0.735538 0
M  V30 2823 H 266.65 -0.574197 -1.81116 0
M  V30 2824 H 264.8 0.9536 -3.76615 0
M  V30 2825 H 266.472 -1.59482 -4.32855 0
M  V30 2826 H 264.715 -1.56468 -4.04599 0
M  V30 2827 H 265.386 -0.759394 -5.46752 0
M  V30 2828 H 267.862 0.613545 -4.11552 0
M  V30 2829 H 266.738 1.24598 -5.34571 0
M  V30 2830 H 266.999 2.15048 -3.86273 0
M  V30 2831 N 266.058 1.56714 -0.166846 0
M  V30 2832 C 267.306 1.96358 0.478305 0
M  V30 2833 C 267.627 1.0537 1.6408 0
M  V30 2834 O 266.897 0.119154 1.95537 0
M  V30 2835 H 265.477 0.725065 0.179692 0
M  V30 2836 H 268.139 1.93329 -0.246985 0
M  V30 2837 H 267.235 3.00547 0.841292 0
M  V30 2838 N 267.536 -0.106894 1.57237 0
M  V30 2839 C 268.785 -0.811163 1.8467 0
M  V30 2840 C 269.098 -1.80469 0.754342 0
M  V30 2841 O 270.304 -2.55601 0.915439 0
M  V30 2842 C 268.76 -1.49337 3.27454 0
M  V30 2843 C 268.368 -0.540217 4.44731 0
M  V30 2844 C 270.112 -2.18206 3.64124 0
M  V30 2845 C 268.019 -1.22634 5.78545 0
M  V30 2846 H 266.949 -0.306679 0.688813 0
M  V30 2847 H 269.6 -0.0639887 1.83388 0
M  V30 2848 H 267.982 -2.2876 3.23241 0
M  V30 2849 H 269.156 0.221659 4.60267 0
M  V30 2850 H 267.471 0.042146 4.16379 0
M  V30 2851 H 270.068 -2.70253 4.61376 0
M  V30 2852 H 270.411 -2.96562 2.92158 0
M  V30 2853 H 270.944 -1.45658 3.70174 0
M  V30 2854 H 267.683 -0.483832 6.53712 0
M  V30 2855 H 267.203 -1.95993 5.66874 0
M  V30 2856 H 268.882 -1.75615 6.2271 0
M  V30 2857 N 269.014 -1.53014 -0.377408 0
M  V30 2858 C 270.262 -1.6829 -1.11906 0
M  V30 2859 C 270.583 -0.431206 -1.90173 0
M  V30 2860 O 269.853 0.554595 -1.87886 0
M  V30 2861 H 268.433 -0.620371 -0.416112 0
M  V30 2862 H 271.095 -1.90167 -0.426893 0
M  V30 2863 H 270.191 -2.53862 -1.8155 0
M  V30 2864 N 270.492 0.636531 -1.44174 0
M  V30 2865 C 271.74 1.39343 -1.46383 0
M  V30 2866 C 272.061 1.94766 -0.0955715 0
M  V30 2867 O 271.331 1.75452 0.871395 0
M  V30 2868 H 269.911 0.517199 -0.538994 0
M  V30 2869 H 272.573 0.74957 -1.7991 0
M  V30 2870 H 271.669 2.22746 -2.18611 0
M  V30 2871 N 271.97 1.30982 0.876444 0
M  V30 2872 C 272.917 1.18085 1.98304 0
M  V30 2873 C 273.887 0.0682263 1.6596 0
M  V30 2874 O 275.072 0.239937 1.89285 0
M  V30 2875 C 272.212 0.887475 3.33493 0
M  V30 2876 C 271.325 2.08281 3.78475 0
M  V30 2877 C 270.46 1.72678 5.0235 0
M  V30 2878 C 269.499 2.88657 5.39762 0
M  V30 2879 N 268.636 2.53292 6.54819 0
M  V30 2880 H 273.476 2.1275 2.08666 0
M  V30 2881 H 271.013 1.05839 1.02159 0
M  V30 2882 H 272.971 0.697961 4.1132 0
M  V30 2883 H 271.601 -0.022315 3.22792 0
M  V30 2884 H 270.653 2.3833 2.96484 0
M  V30 2885 H 271.965 2.95108 4.02135 0
M  V30 2886 H 271.119 1.50151 5.87826 0
M  V30 2887 H 269.858 0.830327 4.8058 0
M  V30 2888 H 268.863 3.1184 4.52809 0
M  V30 2889 H 270.088 3.79002 5.63502 0
M  V30 2890 H 268.034 1.66163 6.34607 0
M  V30 2891 H 267.951 3.3365 6.7839 0
M  V30 2892 H 269.219 2.34143 7.43503 0
M  V30 2893 N 273.449 -1.08991 1.13837 0
M  V30 2894 C 274.695 -1.81526 0.90422 0
M  V30 2895 C 275.028 -1.85706 -0.568066 0
M  V30 2896 O 274.303 -1.32855 -1.42056 0
M  V30 2897 C 274.586 -3.27447 1.49835 0
M  V30 2898 C 274.439 -3.31512 3.04006 0
M  V30 2899 C 275.758 -4.24256 1.17025 0
M  V30 2900 H 272.877 -0.659029 0.329923 0
M  V30 2901 H 275.519 -1.27644 1.40737 0
M  V30 2902 H 273.669 -3.73462 1.07044 0
M  V30 2903 H 275.341 -2.93867 3.55584 0
M  V30 2904 H 273.584 -2.70963 3.38765 0
M  V30 2905 H 274.255 -4.34329 3.40679 0
M  V30 2906 H 276.731 -3.86549 1.54009 0
M  V30 2907 H 275.607 -5.24684 1.61237 0
M  V30 2908 H 275.868 -4.42019 0.0846274 0
M  V30 2909 N 274.927 -0.932562 -1.27047 0
M  V30 2910 C 276.155 -0.592031 -1.98249 0
M  V30 2911 C 276.57 0.831062 -1.69525 0
M  V30 2912 O 275.927 1.55299 -0.958561 0
M  V30 2913 C 275.978 -0.814279 -3.5221 0
M  V30 2914 O 275.699 -2.18139 -3.7993 0
M  V30 2915 C 277.2 -0.483121 -4.4066 0
M  V30 2916 H 274.42 -0.223896 -0.632544 0
M  V30 2917 H 276.964 -1.25091 -1.61779 0
M  V30 2918 H 275.119 -0.20213 -3.86872 0
M  V30 2919 H 275.533 -2.235 -4.74498 0
M  V30 2920 H 277.007 -0.689298 -5.47679 0
M  V30 2921 H 277.484 0.581546 -4.35333 0
M  V30 2922 H 278.09 -1.07362 -4.11526 0
M  V30 2923 N 276.405 1.4127 -0.698611 0
M  V30 2924 C 277.352 2.30773 -0.0352094 0
M  V30 2925 C 278.322 1.47273 0.768111 0
M  V30 2926 O 279.507 1.76053 0.735524 0
M  V30 2927 C 276.647 3.33346 0.893 0
M  V30 2928 C 275.76 4.31924 0.0809695 0
M  V30 2929 C 274.895 5.21566 1.0071 0
M  V30 2930 C 273.934 6.11811 0.188155 0
M  V30 2931 N 273.071 6.93926 1.06825 0
M  V30 2932 H 277.911 2.86943 -0.804207 0
M  V30 2933 H 275.448 1.4132 -0.408294 0
M  V30 2934 H 277.406 3.91368 1.44523 0
M  V30 2935 H 276.036 2.78719 1.62836 0
M  V30 2936 H 275.088 3.75825 -0.588224 0
M  V30 2937 H 276.4 4.95716 -0.553801 0
M  V30 2938 H 275.554 5.84437 1.62845 0
M  V30 2939 H 274.293 4.58008 1.67572 0
M  V30 2940 H 273.298 5.47986 -0.446254 0
M  V30 2941 H 274.523 6.77425 -0.476716 0
M  V30 2942 H 272.469 6.32973 1.72283 0
M  V30 2943 H 272.386 7.54416 0.489123 0
M  V30 2944 H 273.654 7.61262 1.67632 0
M  V30 2945 N 277.883 0.443576 1.51229 0
M  V30 2946 C 279.16 -0.181038 1.9476 0
M  V30 2947 C 279.54 -1.59523 1.38259 0
M  V30 2948 O 278.888 -2.2122 0.572198 0
M  V30 2949 C 279.098 -0.152422 3.48667 0
M  V30 2950 C 280.446 -0.354923 4.23114 0
M  V30 2951 O 281.47 -0.230257 3.55455 0
M  V30 2952 O 280.329 -0.603674 5.43156 0
M  V30 2953 H 277.423 -0.1266 0.817252 0
M  V30 2954 H 279.969 0.502004 1.62105 0
M  V30 2955 H 278.741 0.836022 3.82265 0
M  V30 2956 H 278.364 -0.878107 3.87782 0
M  V30 2957 N 279.361 -1.56624 0.175154 0
M  V30 2958 C 280.609 -1.96609 -0.467885 0
M  V30 2959 C 280.93 -1.06238 -1.63519 0
M  V30 2960 O 280.2 -0.129523 -1.95471 0
M  V30 2961 H 278.78 -0.726008 -0.175845 0
M  V30 2962 H 281.442 -1.93195 0.257234 0
M  V30 2963 H 280.538 -3.00989 -0.825342 0
M  V30 2964 N 280.839 0.0985539 -1.57292 0
M  V30 2965 C 282.255 0.45267 -1.53046 0
M  V30 2966 C 282.455 1.80713 -0.891342 0
M  V30 2967 O 281.511 2.4785 -0.482375 0
M  V30 2968 C 282.824 0.418341 -2.97776 0
M  V30 2969 C 284.372 0.500443 -3.08973 0
M  V30 2970 C 284.847 0.496297 -4.55303 0
M  V30 2971 N 286.338 0.557151 -4.59837 0
M  V30 2972 C 287.073 0.575726 -5.70502 0
M  V30 2973 N 286.569 0.550714 -6.90608 0
M  V30 2974 N 288.362 0.620277 -5.58667 0
M  V30 2975 H 280.513 -0.788673 -1.97215 0
M  V30 2976 H 282.776 -0.293188 -0.901524 0
M  V30 2977 H 282.482 -0.509659 -3.47988 0
M  V30 2978 H 282.356 1.2386 -3.56284 0
M  V30 2979 H 284.743 1.41886 -2.58751 0
M  V30 2980 H 284.824 -0.347894 -2.53423 0
M  V30 2981 H 284.468 -0.418162 -5.06176 0
M  V30 2982 H 284.398 1.3618 -5.08687 0
M  V30 2983 H 286.889 0.581816 -3.73394 0
M  V30 2984 H 287.202 0.568075 -7.70709 0
M  V30 2985 H 285.547 0.517816 -6.93068 0
M  V30 2986 H 288.738 0.637322 -4.63741 0
M  V30 2987 H 288.911 0.631283 -6.44918 0
M  V30 2988 N 282.317 1.53212 0.369288 0
M  V30 2989 C 283.563 1.70413 1.11046 0
M  V30 2990 C 283.918 0.448509 1.87099 0
M  V30 2991 O 283.211 -0.558382 1.83283 0
M  V30 2992 C 283.405 2.89101 2.10132 0
M  V30 2993 C 283.234 4.26084 1.43814 0
M  V30 2994 C 282.004 4.90994 1.19384 0
M  V30 2995 C 284.202 5.06754 0.877802 0
M  V30 2996 N 282.184 6.11911 0.49377 0
M  V30 2997 C 283.555 6.1924 0.306891 0
M  V30 2998 C 285.61 4.91814 0.776129 0
M  V30 2999 C 284.313 7.1842 -0.355774 0
M  V30 3000 C 286.339 5.91263 0.127252 0
M  V30 3001 C 285.701 7.03069 -0.432801 0
M  V30 3002 H 281.8 0.676872 0.391623 0
M  V30 3003 H 284.384 1.90603 0.397334 0
M  V30 3004 H 282.555 2.70456 2.78761 0
M  V30 3005 H 284.287 2.95142 2.76899 0
M  V30 3006 H 281.042 4.50074 1.47413 0
M  V30 3007 H 281.466 6.76813 0.159207 0
M  V30 3008 H 286.108 4.05564 1.19489 0
M  V30 3009 H 283.826 8.04264 -0.786499 0
M  V30 3010 H 287.412 5.81779 0.0495613 0
M  V30 3011 H 286.292 7.78702 -0.926958 0
M  V30 3012 N 283.795 -0.628877 1.44509 0
M  V30 3013 C 284.705 -1.7694 1.54044 0
M  V30 3014 C 285.721 -1.68705 0.425987 0
M  V30 3015 O 286.897 -1.89442 0.683656 0
M  V30 3016 C 283.962 -3.13332 1.48405 0
M  V30 3017 C 283.023 -3.33181 2.70719 0
M  V30 3018 C 282.256 -4.63067 2.6534 0
M  V30 3019 O 282.479 -5.44017 1.71469 0
M  V30 3020 O 281.413 -4.85167 3.56226 0
M  V30 3021 H 285.239 -1.71848 2.50403 0
M  V30 3022 H 282.824 -0.790378 1.26781 0
M  V30 3023 H 284.706 -3.94634 1.47791 0
M  V30 3024 H 283.381 -3.1896 0.551898 0
M  V30 3025 H 282.288 -2.51549 2.769 0
M  V30 3026 H 283.621 -3.32416 3.62988 0
M  V30 3027 N 285.273 -1.31445 -0.869486 0
M  V30 3028 C 286.684 -1.19042 -1.43826 0
M  V30 3029 C 287.035 0.202919 -1.95148 0
M  V30 3030 O 286.16 1.10071 -1.86315 0
M  V30 3031 C 286.755 -2.15499 -2.6143 0
M  V30 3032 C 285.314 -2.07028 -3.14351 0
M  V30 3033 C 284.461 -2.04701 -1.87063 0
M  V30 3034 H 287.412 -1.43489 -0.677984 0
M  V30 3035 H 287.433 -1.74488 -3.38134 0
M  V30 3036 H 286.945 -3.16899 -2.24046 0
M  V30 3037 H 285.046 -1.08825 -3.56354 0
M  V30 3038 H 285.159 -2.96157 -3.766 0
M  V30 3039 H 283.523 -1.49724 -2.06046 0
M  V30 3040 H 284.306 -3.07857 -1.51917 0
M  V30 3041 N 286.751 1.08385 -1.14413 0
M  V30 3042 C 287.661 2.18856 -0.844951 0
M  V30 3043 C 288.677 1.73121 0.174668 0
M  V30 3044 O 289.853 2.014 0.00312857 0
M  V30 3045 C 286.918 3.45155 -0.32696 0
M  V30 3046 C 285.979 4.05513 -1.40916 0
M  V30 3047 C 285.212 5.25784 -0.915793 0
M  V30 3048 O 285.435 5.69884 0.242651 0
M  V30 3049 O 284.369 5.77545 -1.69487 0
M  V30 3050 H 288.195 2.46919 -1.76818 0
M  V30 3051 H 285.78 1.17524 -0.922411 0
M  V30 3052 H 287.662 4.21377 -0.0440211 0
M  V30 3053 H 286.337 3.18668 0.568539 0
M  V30 3054 H 285.244 3.30879 -1.74556 0
M  V30 3055 H 286.577 4.3625 -2.27919 0
M  V30 3056 N 288.23 0.939286 1.26551 0
M  V30 3057 C 289.477 0.585847 1.9384 0
M  V30 3058 C 289.805 -0.874784 1.73718 0
M  V30 3059 O 289.06 -1.64092 1.06642 0
M  V30 3060 C 289.359 0.872106 3.46596 0
M  V30 3061 C 289.025 2.31632 3.86856 0
M  V30 3062 C 287.687 2.71111 3.97558 0
M  V30 3063 C 290.039 3.25494 4.07066 0
M  V30 3064 C 287.367 4.03553 4.25866 0
M  V30 3065 C 289.719 4.57531 4.36862 0
M  V30 3066 C 288.383 4.96828 4.45778 0
M  V30 3067 H 287.653 0.214377 0.709312 0
M  V30 3068 H 290.3 1.18544 1.50398 0
M  V30 3069 H 288.605 0.18996 3.91339 0
M  V30 3070 H 290.302 0.577442 3.96821 0
M  V30 3071 H 286.892 2.00008 3.79071 0
M  V30 3072 H 291.076 2.9619 3.98227 0
M  V30 3073 H 286.332 4.33665 4.30981 0
M  V30 3074 H 290.506 5.30254 4.51446 0
M  V30 3075 H 288.133 5.99482 4.67468 0
M  V30 3076 N 289.708 -1.40897 0.706093 0
M  V30 3077 C 290.936 -2.05373 0.250887 0
M  V30 3078 C 291.351 -1.53172 -1.10381 0
M  V30 3079 O 290.708 -0.684305 -1.69185 0
M  V30 3080 C 290.759 -3.6088 0.211571 0
M  V30 3081 O 290.48 -4.11153 1.51276 0
M  V30 3082 C 291.981 -4.42517 -0.263346 0
M  V30 3083 H 289.201 -0.66115 0.114552 0
M  V30 3084 H 291.745 -1.80479 0.961635 0
M  V30 3085 H 289.9 -3.84777 -0.450073 0
M  V30 3086 H 290.314 -5.05279 1.40689 0
M  V30 3087 H 291.788 -5.51479 -0.239718 0
M  V30 3088 H 292.265 -4.19396 -1.30397 0
M  V30 3089 H 292.871 -4.23708 0.367677 0
M  V30 3090 N 291.186 -0.45159 -1.50991 0
M  V30 3091 C 292.435 0.111653 -2.01391 0
M  V30 3092 C 292.748 1.42529 -1.33959 0
M  V30 3093 O 293.954 2.07232 -1.75405 0
M  V30 3094 C 292.41 0.249514 -3.59034 0
M  V30 3095 C 292.018 -1.05453 -4.35412 0
M  V30 3096 C 293.762 0.765762 -4.17536 0
M  V30 3097 C 291.669 -0.881529 -5.84793 0
M  V30 3098 H 290.599 0.0455022 -0.752626 0
M  V30 3099 H 293.25 -0.583524 -1.73975 0
M  V30 3100 H 291.632 1.00803 -3.82955 0
M  V30 3101 H 292.806 -1.82248 -4.23229 0
M  V30 3102 H 291.121 -1.50039 -3.88429 0
M  V30 3103 H 293.718 0.911913 -5.26866 0
M  V30 3104 H 294.061 1.75201 -3.77638 0
M  V30 3105 H 294.594 0.0651744 -3.97747 0
M  V30 3106 H 291.333 -1.84057 -6.29129 0
M  V30 3107 H 290.853 -0.153625 -5.99603 0
M  V30 3108 H 292.532 -0.540363 -6.4474 0
M  V30 3109 N 292.664 1.56529 -0.183458 0
M  V30 3110 C 293.892 2.01623 0.464285 0
M  V30 3111 C 294.307 1.06366 1.55986 0
M  V30 3112 O 293.664 0.0665398 1.82379 0
M  V30 3113 C 293.715 3.46475 1.03139 0
M  V30 3114 O 293.436 4.38095 -0.0204675 0
M  V30 3115 C 294.937 4.0703 1.75617 0
M  V30 3116 H 292.157 0.660596 0.117704 0
M  V30 3117 H 294.701 2.02451 -0.288751 0
M  V30 3118 H 292.856 3.46383 1.73486 0
M  V30 3119 H 293.27 5.22973 0.399952 0
M  V30 3120 H 294.744 5.10271 2.10542 0
M  V30 3121 H 295.221 3.49819 2.65563 0
M  V30 3122 H 295.827 4.1086 1.09882 0
M  V30 3123 N 294.142 -0.090211 1.57342 0
M  V30 3124 C 295.39 -0.791241 1.85967 0
M  V30 3125 C 295.711 -1.7903 0.772859 0
M  V30 3126 O 294.981 -1.94872 -0.200398 0
M  V30 3127 H 293.561 -0.295205 0.686195 0
M  V30 3128 H 296.223 -0.0706782 1.94772 0
M  V30 3129 H 295.319 -1.31882 2.82867 0
M  V30 3130 N 295.62 -1.53406 -0.361157 0
M  V30 3131 C 296.552 -1.76446 -1.46286 0
M  V30 3132 C 297.565 -0.645322 -1.49464 0
M  V30 3133 O 298.754 -0.921681 -1.52864 0
M  V30 3134 C 295.854 -1.83332 -2.85031 0
M  V30 3135 C 295.027 -3.13033 -3.05498 0
M  V30 3136 C 294.086 -3.11104 -4.24383 0
M  V30 3137 O 293.112 -3.84888 -4.19344 0
M  V30 3138 N 294.314 -2.32234 -5.32022 0
M  V30 3139 H 297.079 -2.71508 -1.26899 0
M  V30 3140 H 294.64 -1.52238 -0.550915 0
M  V30 3141 H 296.632 -1.79514 -3.62708 0
M  V30 3142 H 295.202 -0.955342 -2.97644 0
M  V30 3143 H 294.422 -3.30119 -2.15442 0
M  V30 3144 H 295.71 -3.9874 -3.16044 0
M  V30 3145 H 295.108 -1.71807 -5.38979 0
M  V30 3146 H 293.665 -2.3423 -6.08259 0
M  V30 3147 N 297.098 0.621204 -1.44841 0
M  V30 3148 C 298.061 1.71459 -1.521 0
M  V30 3149 C 299.061 1.55696 -0.401933 0
M  V30 3150 O 300.251 1.61011 -0.664925 0
M  V30 3151 C 297.383 3.10624 -1.40447 0
M  V30 3152 H 298.576 1.66394 -2.49506 0
M  V30 3153 H 296.129 0.835745 -1.3208 0
M  V30 3154 H 296.864 3.21277 -0.441737 0
M  V30 3155 H 296.649 3.23473 -2.21602 0
M  V30 3156 H 298.139 3.90293 -1.4853 0
M  V30 3157 N 298.576 1.31904 0.862503 0
M  V30 3158 C 299.822 1.23207 1.61838 0
M  V30 3159 C 300.177 -0.206062 1.91293 0
M  V30 3160 O 299.47 -1.14162 1.53875 0
M  V30 3161 C 299.664 2.01713 2.95037 0
M  V30 3162 C 299.493 3.53014 2.78588 0
M  V30 3163 C 298.263 4.22359 2.77382 0
M  V30 3164 C 300.461 4.47819 2.52909 0
M  V30 3165 N 298.443 5.59766 2.52062 0
M  V30 3166 C 299.814 5.72947 2.36922 0
M  V30 3167 C 301.869 4.37162 2.38314 0
M  V30 3168 C 300.572 6.88623 2.07823 0
M  V30 3169 C 302.598 5.5263 2.10604 0
M  V30 3170 C 301.96 6.76752 1.95411 0
M  V30 3171 H 298.059 0.505984 0.596242 0
M  V30 3172 H 300.643 1.66179 1.01452 0
M  V30 3173 H 298.814 1.61098 3.53415 0
M  V30 3174 H 300.546 1.84975 3.59953 0
M  V30 3175 H 297.301 3.74401 2.90036 0
M  V30 3176 H 297.725 6.32135 2.42352 0
M  V30 3177 H 302.367 3.41857 2.48784 0
M  V30 3178 H 300.085 7.83948 1.9609 0
M  V30 3179 H 303.671 5.46307 2.00101 0
M  V30 3180 H 302.551 7.6459 1.74274 0
M  V30 3181 N 300.054 -1.07777 1.14986 0
M  V30 3182 C 301.331 -1.7699 0.832695 0
M  V30 3183 C 301.711 -2.001 -0.672561 0
M  V30 3184 O 301.059 -1.61598 -1.6155 0
M  V30 3185 C 301.269 -3.08139 1.63863 0
M  V30 3186 C 302.617 -3.8256 1.84208 0
M  V30 3187 O 303.641 -3.17939 1.60603 0
M  V30 3188 O 302.5 -4.98612 2.23714 0
M  V30 3189 H 299.594 -0.768389 0.305791 0
M  V30 3190 H 302.14 -1.14182 1.25541 0
M  V30 3191 H 300.912 -2.86909 2.6608 0
M  V30 3192 H 300.535 -3.78678 1.21197 0
M  V30 3193 N 301.532 -0.945985 -1.26051 0
M  V30 3194 C 302.462 -0.477172 -2.28572 0
M  V30 3195 C 303.443 0.472032 -1.63419 0
M  V30 3196 O 304.628 0.372853 -1.90587 0
M  V30 3197 C 301.758 0.253975 -3.4637 0
M  V30 3198 C 300.712 -0.609135 -4.23643 0
M  V30 3199 C 300.038 0.252252 -5.34105 0
M  V30 3200 C 301.338 -1.8829 -4.8718 0
M  V30 3201 H 303.032 -1.33402 -2.68038 0
M  V30 3202 H 300.578 -0.642904 -1.28852 0
M  V30 3203 H 302.531 0.593016 -4.17207 0
M  V30 3204 H 301.255 1.145 -3.05871 0
M  V30 3205 H 299.914 -0.931138 -3.54578 0
M  V30 3206 H 299.562 1.14278 -4.89846 0
M  V30 3207 H 299.262 -0.32188 -5.86718 0
M  V30 3208 H 300.786 0.586454 -6.07777 0
M  V30 3209 H 302.2 -1.61081 -5.50205 0
M  V30 3210 H 300.597 -2.40199 -5.49931 0
M  V30 3211 H 301.667 -2.59134 -4.09851 0
M  V30 3212 N 303.011 1.40521 -0.713556 0
M  V30 3213 C 304.422 1.83853 -0.324807 0
M  V30 3214 C 304.773 1.59667 1.14021 0
M  V30 3215 O 303.898 1.07649 1.87725 0
M  V30 3216 C 304.493 3.33751 -0.582746 0
M  V30 3217 C 303.052 3.75584 -0.247727 0
M  V30 3218 C 302.199 2.63753 -0.856121 0
M  V30 3219 H 305.15 1.29817 -0.91286 0
M  V30 3220 H 305.171 3.80194 0.152682 0
M  V30 3221 H 304.683 3.51322 -1.64908 0
M  V30 3222 H 302.784 3.63608 0.813624 0
M  V30 3223 H 302.897 4.7373 -0.715307 0
M  V30 3224 H 301.261 2.53108 -0.28432 0
M  V30 3225 H 302.044 2.84137 -1.92668 0
M  V30 3226 N 304.489 0.459591 1.5075 0
M  V30 3227 C 305.735 -0.0994966 2.02556 0
M  V30 3228 C 306.068 -1.40399 1.3417 0
M  V30 3229 O 305.343 -1.88892 0.463683 0
M  V30 3230 C 305.626 -0.295242 3.58888 0
M  V30 3231 C 305.479 1.02947 4.37861 0
M  V30 3232 C 306.798 -1.05502 4.27267 0
M  V30 3233 H 303.917 -0.034686 0.736183 0
M  V30 3234 H 306.559 0.602938 1.8018 0
M  V30 3235 H 304.709 -0.893563 3.78084 0
M  V30 3236 H 306.381 1.66348 4.30263 0
M  V30 3237 H 304.624 1.62885 4.02058 0
M  V30 3238 H 305.295 0.846281 5.45474 0
M  V30 3239 H 307.771 -0.547993 4.12476 0
M  V30 3240 H 306.647 -1.16077 5.36486 0
M  V30 3241 H 306.908 -2.08875 3.89645 0
M  V30 3242 N 305.967 -1.56429 0.191757 0
M  V30 3243 C 307.213 -1.97777 -0.448554 0
M  V30 3244 C 307.546 -1.07847 -1.61501 0
M  V30 3245 O 306.821 -0.129774 -1.94067 0
M  V30 3246 C 307.104 -3.48362 -0.911906 0
M  V30 3247 C 306.957 -4.4907 0.256136 0
M  V30 3248 C 308.276 -4.02561 -1.77857 0
M  V30 3249 H 305.395 -0.719071 -0.161572 0
M  V30 3250 H 308.037 -1.87896 0.282007 0
M  V30 3251 H 306.187 -3.56914 -1.53442 0
M  V30 3252 H 307.859 -4.5256 0.893733 0
M  V30 3253 H 306.102 -4.24181 0.908436 0
M  V30 3254 H 306.773 -5.51889 -0.11053 0
M  V30 3255 H 309.249 -3.96767 -1.25359 0
M  V30 3256 H 308.125 -5.08301 -2.07174 0
M  V30 3257 H 308.386 -3.47616 -2.73158 0
M  V30 3258 N 307.445 0.0818655 -1.57387 0
M  V30 3259 C 308.693 0.781368 -1.86384 0
M  V30 3260 C 309.014 1.78618 -0.782342 0
M  V30 3261 O 308.284 1.94976 0.190061 0
M  V30 3262 H 306.864 0.291562 -0.687751 0
M  V30 3263 H 309.526 0.060348 -1.94807 0
M  V30 3264 H 308.622 1.3038 -2.83562 0
M  V30 3265 N 308.923 1.53595 0.353017 0
M  V30 3266 C 310.153 1.74058 1.11299 0
M  V30 3267 C 310.561 0.475205 1.83135 0
M  V30 3268 O 309.904 -0.562344 1.74881 0
M  V30 3269 C 309.966 2.85994 2.17825 0
M  V30 3270 C 309.63 4.25923 1.65647 0
M  V30 3271 C 310.627 5.07829 1.11383 0
M  V30 3272 C 308.312 4.72377 1.7078 0
M  V30 3273 C 310.306 6.34285 0.629439 0
M  V30 3274 C 307.993 5.98808 1.21953 0
M  V30 3275 C 308.991 6.79594 0.681265 0
M  V30 3276 O 308.679 8.03651 0.200248 0
M  V30 3277 H 308.411 0.585327 0.338183 0
M  V30 3278 H 310.965 2.01186 0.413927 0
M  V30 3279 H 309.195 2.54368 2.91262 0
M  V30 3280 H 310.884 2.94515 2.79313 0
M  V30 3281 H 311.65 4.73107 1.06746 0
M  V30 3282 H 307.529 4.0956 2.11617 0
M  V30 3283 H 311.073 6.97288 0.208636 0
M  V30 3284 H 306.97 6.33026 1.26287 0
M  V30 3285 H 307.738 8.1788 0.318416 0
M  V30 3286 N 310.401 -0.613514 1.45168 0
M  V30 3287 C 311.817 -0.933629 1.29443 0
M  V30 3288 C 312.017 -2.00028 0.243101 0
M  V30 3289 O 311.073 -2.49848 -0.364992 0
M  V30 3290 C 312.386 -1.38018 2.67155 0
M  V30 3291 C 313.934 -1.49471 2.75004 0
M  V30 3292 C 314.409 -1.97503 4.13227 0
M  V30 3293 N 315.9 -2.04746 4.15491 0
M  V30 3294 C 316.635 -2.43121 5.19307 0
M  V30 3295 N 316.131 -2.80506 6.33473 0
M  V30 3296 N 317.924 -2.43408 5.06664 0
M  V30 3297 H 310.075 0.0916097 2.12202 0
M  V30 3298 H 312.338 -0.0216655 0.947752 0
M  V30 3299 H 312.044 -0.670625 3.45247 0
M  V30 3300 H 311.918 -2.34784 2.95222 0
M  V30 3301 H 314.305 -2.19519 1.9722 0
M  V30 3302 H 314.386 -0.510342 2.50657 0
M  V30 3303 H 314.03 -1.28045 4.91495 0
M  V30 3304 H 313.96 -2.96843 4.34962 0
M  V30 3305 H 316.451 -1.78468 3.33103 0
M  V30 3306 H 316.764 -3.08652 7.08487 0
M  V30 3307 H 315.109 -2.78216 6.36884 0
M  V30 3308 H 318.3 -2.13604 4.16523 0
M  V30 3309 H 318.473 -2.72989 5.87691 0
M  V30 3310 N 311.879 -1.3236 -0.855495 0
M  V30 3311 C 312.827 -1.2118 -1.9854 0
M  V30 3312 C 313.821 -0.116788 -1.68997 0
M  V30 3313 O 315.027 -0.279657 -1.77814 0
M  V30 3314 H 311.402 -0.375608 -0.651477 0
M  V30 3315 H 313.373 -2.16743 -2.05098 0
M  V30 3316 C 312.122 -0.950849 -3.34446 0
M  V30 3317 H 311.445 -1.78563 -3.57708 0
M  V30 3318 H 312.885 -0.912863 -4.14057 0
M  V30 3319 C 311.344 0.346404 -3.35114 0
M  V30 3320 O 311.874 1.35855 -3.7803 0
M  V30 3321 N 310.08 0.36808 -2.88259 0
M  V30 3322 H 309.627 -0.456102 -2.5353 0
M  V30 3323 H 309.585 1.23591 -2.89089 0
M  V30 3324 N 313.357 1.07166 -1.15556 0
M  V30 3325 C 314.605 1.79443 -0.929764 0
M  V30 3326 C 314.926 1.87246 0.544414 0
M  V30 3327 O 314.196 1.37473 1.39564 0
M  V30 3328 H 312.776 0.664625 -0.341003 0
M  V30 3329 H 315.438 1.29499 -1.45657 0
M  V30 3330 H 314.534 2.81832 -1.34079 0
M  V30 3331 N 314.835 0.952656 1.25548 0
M  V30 3332 C 316.081 0.607272 1.93494 0
M  V30 3333 C 316.414 -0.853245 1.74452 0
M  V30 3334 O 315.689 -1.61194 1.08843 0
M  V30 3335 C 315.972 0.96435 3.46947 0
M  V30 3336 C 315.825 2.48045 3.75225 0
M  V30 3337 C 317.144 0.487987 4.37386 0
M  V30 3338 H 314.263 0.222096 0.702739 0
M  V30 3339 H 316.905 1.18895 1.48203 0
M  V30 3340 H 315.055 0.469361 3.85654 0
M  V30 3341 H 316.727 3.04905 3.46166 0
M  V30 3342 H 314.97 2.919 3.209 0
M  V30 3343 H 315.641 2.6808 4.82532 0
M  V30 3344 H 318.117 0.912558 4.0597 0
M  V30 3345 H 316.993 0.766547 5.43521 0
M  V30 3346 H 317.254 -0.612063 4.37843 0
M  V30 3347 N 316.313 -1.40141 0.720998 0
M  V30 3348 C 317.276 -2.29058 0.0805834 0
M  V30 3349 C 318.276 -1.45632 -0.681758 0
M  V30 3350 O 319.466 -1.6648 -0.512856 0
M  V30 3351 C 316.598 -3.28925 -0.895593 0
M  V30 3352 H 317.791 -2.87191 0.863793 0
M  V30 3353 H 315.344 -1.48553 0.485975 0
M  V30 3354 H 316.079 -2.75822 -1.70566 0
M  V30 3355 H 315.864 -3.90519 -0.351766 0
M  V30 3356 H 317.354 -3.95494 -1.34069 0
M  V30 3357 N 317.792 -0.46758 -1.50504 0
M  V30 3358 C 318.724 0.364655 -2.26281 0
M  V30 3359 C 319.737 0.960151 -1.31472 0
M  V30 3360 O 320.926 0.849153 -1.57008 0
M  V30 3361 C 318.026 1.52509 -3.02645 0
M  V30 3362 C 317.199 1.04302 -4.24782 0
M  V30 3363 C 316.258 2.07709 -4.8347 0
M  V30 3364 O 315.284 1.65913 -5.44483 0
M  V30 3365 N 316.486 3.40485 -4.70159 0
M  V30 3366 H 319.251 -0.28495 -2.98342 0
M  V30 3367 H 316.812 -0.298163 -1.59131 0
M  V30 3368 H 318.804 2.21371 -3.38787 0
M  V30 3369 H 317.374 2.07945 -2.33404 0
M  V30 3370 H 316.594 0.180393 -3.93787 0
M  V30 3371 H 317.882 0.698798 -5.03978 0
M  V30 3372 H 317.28 3.77155 -4.21629 0
M  V30 3373 H 315.837 4.05156 -5.1058 0
M  V30 3374 N 319.27 1.56325 -0.20005 0
M  V30 3375 C 320.681 1.8408 0.31167 0
M  V30 3376 C 321.032 1.12087 1.61031 0
M  V30 3377 O 320.157 0.38332 2.12978 0
M  V30 3378 C 320.752 3.33932 0.57226 0
M  V30 3379 C 319.311 3.6208 1.02834 0
M  V30 3380 C 318.458 2.77186 0.079634 0
M  V30 3381 H 321.409 1.52939 -0.423729 0
M  V30 3382 H 321.43 3.52971 1.42096 0
M  V30 3383 H 320.942 3.86303 -0.37308 0
M  V30 3384 H 319.043 3.15147 1.98778 0
M  V30 3385 H 319.156 4.7023 0.917624 0
M  V30 3386 H 317.52 2.47951 0.582448 0
M  V30 3387 H 318.303 3.32347 -0.860238 0
M  V30 3388 N 320.748 -0.0735177 1.57428 0
M  V30 3389 C 321.678 -1.0879 2.06608 0
M  V30 3390 C 322.659 -1.40473 0.959237 0
M  V30 3391 O 323.844 -1.5013 1.23185 0
M  V30 3392 C 320.974 -2.40183 2.50857 0
M  V30 3393 C 319.928 -2.22858 3.65402 0
M  V30 3394 C 319.254 -3.59619 3.957 0
M  V30 3395 C 320.554 -1.65123 4.95511 0
M  V30 3396 H 322.248 -0.678673 2.91607 0
M  V30 3397 H 319.794 -0.325013 1.40284 0
M  V30 3398 H 321.747 -3.11437 2.83874 0
M  V30 3399 H 320.471 -2.83083 1.62885 0
M  V30 3400 H 319.13 -1.54045 3.32664 0
M  V30 3401 H 318.778 -4.00086 3.04861 0
M  V30 3402 H 318.478 -3.48866 4.72828 0
M  V30 3403 H 320.002 -4.32306 4.31212 0
M  V30 3404 H 321.416 -2.26241 5.26771 0
M  V30 3405 H 319.813 -1.65071 5.7695 0
M  V30 3406 H 320.883 -0.612559 4.81015 0
M  V30 3407 N 322.226 -1.5378 -0.344866 0
M  V30 3408 C 323.642 -1.44015 -0.687888 0
M  V30 3409 C 323.842 -0.595834 -1.92489 0
M  V30 3410 O 322.898 -0.0863064 -2.52352 0
M  V30 3411 C 324.211 -2.87481 -0.881758 0
M  V30 3412 C 325.759 -2.97247 -0.980459 0
M  V30 3413 C 326.234 -4.41819 -1.20665 0
M  V30 3414 N 327.725 -4.45339 -1.27389 0
M  V30 3415 C 328.46 -5.54333 -1.46639 0
M  V30 3416 N 327.956 -6.73335 -1.63071 0
M  V30 3417 N 329.749 -5.41944 -1.49176 0
M  V30 3418 H 321.9 -2.07169 0.468475 0
M  V30 3419 H 324.163 -0.93643 0.147655 0
M  V30 3420 H 323.869 -3.51672 -0.0443444 0
M  V30 3421 H 323.743 -3.32352 -1.78388 0
M  V30 3422 H 326.13 -2.33197 -1.8084 0
M  V30 3423 H 326.211 -2.5574 -0.0552713 0
M  V30 3424 H 325.855 -5.06449 -0.383652 0
M  V30 3425 H 325.785 -4.80917 -2.14539 0
M  V30 3426 H 328.276 -3.59585 -1.1622 0
M  V30 3427 H 328.589 -7.52165 -1.77391 0
M  V30 3428 H 326.934 -6.76282 -1.60209 0
M  V30 3429 H 330.125 -4.47932 -1.3592 0
M  V30 3430 H 330.298 -6.26946 -1.63837 0
M  V30 3431 N 323.704 0.605807 -1.45491 0
M  V30 3432 C 324.634 1.72709 -1.57143 0
M  V30 3433 C 325.615 1.6476 -0.422884 0
M  V30 3434 O 326.8 1.83132 -0.646247 0
M  V30 3435 C 323.93 3.11316 -1.53948 0
M  V30 3436 C 322.884 3.34077 -2.67537 0
M  V30 3437 C 322.21 4.72975 -2.49397 0
M  V30 3438 C 323.51 3.24158 -4.09535 0
M  V30 3439 H 325.204 1.63214 -2.51001 0
M  V30 3440 H 322.75 0.78379 -1.208 0
M  V30 3441 H 324.703 3.89557 -1.60696 0
M  V30 3442 H 323.427 3.21655 -0.566205 0
M  V30 3443 H 322.086 2.58227 -2.6022 0
M  V30 3444 H 321.734 4.8005 -1.50205 0
M  V30 3445 H 321.434 4.8916 -3.25571 0
M  V30 3446 H 322.958 5.53414 -2.58002 0
M  V30 3447 H 324.372 3.92271 -4.18086 0
M  V30 3448 H 322.769 3.51872 -4.86113 0
M  V30 3449 H 323.839 2.2157 -4.31317 0
M  V30 3450 N 325.182 1.32811 0.848464 0
M  V30 3451 C 326.428 1.24917 1.60522 0
M  V30 3452 C 326.783 -0.185761 1.91501 0
M  V30 3453 O 326.076 -1.12524 1.55077 0
M  V30 3454 C 326.27 2.04831 2.92881 0
M  V30 3455 C 326.099 3.55949 2.74828 0
M  V30 3456 C 324.869 4.25277 2.72887 0
M  V30 3457 C 327.067 4.50476 2.48145 0
M  V30 3458 N 325.049 5.62408 2.46111 0
M  V30 3459 C 326.42 5.75427 2.30832 0
M  V30 3460 C 328.475 4.39665 2.33664 0
M  V30 3461 C 327.178 6.90789 2.00508 0
M  V30 3462 C 329.204 5.54833 2.04731 0
M  V30 3463 C 328.566 6.78787 1.88223 0
M  V30 3464 H 324.665 0.512279 0.590842 0
M  V30 3465 H 327.249 1.67246 0.996839 0
M  V30 3466 H 325.42 1.64837 3.51686 0
M  V30 3467 H 327.152 1.88782 3.57971 0
M  V30 3468 H 323.907 3.77456 2.86049 0
M  V30 3469 H 324.331 6.3467 2.35634 0
M  V30 3470 H 328.973 3.44477 2.45144 0
M  V30 3471 H 326.691 7.85984 1.87765 0
M  V30 3472 H 330.277 5.48398 1.94295 0
M  V30 3473 H 329.157 7.66396 1.66155 0
M  V30 3474 N 326.66 -1.06551 1.16123 0
M  V30 3475 C 327.592 -2.13908 0.823171 0
M  V30 3476 C 328.605 -1.61926 -0.16843 0
M  V30 3477 O 329.794 -1.78412 0.055962 0
M  V30 3478 C 326.894 -3.38283 0.204424 0
M  V30 3479 C 326.067 -4.19589 1.23548 0
M  V30 3480 C 325.126 -5.2233 0.637011 0
M  V30 3481 O 324.152 -5.54034 1.30516 0
M  V30 3482 N 325.354 -5.77621 -0.577474 0
M  V30 3483 H 328.119 -2.43508 1.74711 0
M  V30 3484 H 325.68 -1.2253 1.05821 0
M  V30 3485 H 327.672 -4.0416 -0.208909 0
M  V30 3486 H 326.242 -3.06329 -0.623012 0
M  V30 3487 H 325.462 -3.49406 1.82507 0
M  V30 3488 H 326.75 -4.70718 1.93137 0
M  V30 3489 H 326.148 -5.54125 -1.13853 0
M  V30 3490 H 324.705 -6.45087 -0.933053 0
M  V30 3491 N 328.138 -0.959301 -1.25041 0
M  V30 3492 C 329.101 -0.487677 -2.23952 0
M  V30 3493 C 330.101 0.41119 -1.55454 0
M  V30 3494 O 331.291 0.207825 -1.72956 0
M  V30 3495 C 328.423 0.294807 -3.39623 0
M  V30 3496 H 329.616 -1.36198 -2.67189 0
M  V30 3497 H 327.169 -0.743042 -1.37508 0
M  V30 3498 H 327.904 1.18658 -3.01813 0
M  V30 3499 H 327.689 -0.35012 -3.90534 0
M  V30 3500 H 329.179 0.614089 -4.1306 0
M  V30 3501 N 329.616 1.39756 -0.72842 0
M  V30 3502 C 330.844 2.04948 -0.283528 0
M  V30 3503 C 331.259 1.54908 1.0793 0
M  V30 3504 O 330.616 0.711135 1.68075 0
M  V30 3505 C 330.667 3.60498 -0.268957 0
M  V30 3506 O 330.388 4.08695 -1.57798 0
M  V30 3507 C 331.889 4.4288 0.192912 0
M  V30 3508 H 329.109 0.659243 -0.125056 0
M  V30 3509 H 331.653 1.78927 -0.990226 0
M  V30 3510 H 329.808 3.85444 0.388801 0
M  V30 3511 H 330.222 5.02977 -1.48709 0
M  V30 3512 H 331.696 5.51791 0.151952 0
M  V30 3513 H 332.173 4.21418 1.23708 0
M  V30 3514 H 332.779 4.23069 -0.435039 0
M  V30 3515 N 331.094 0.475555 1.50254 0
M  V30 3516 C 332.044 -0.335025 2.25525 0
M  V30 3517 C 333.028 -0.957625 1.29299 0
M  V30 3518 O 334.22 -0.869436 1.54175 0
M  V30 3519 C 331.349 -1.41385 3.12834 0
M  V30 3520 C 330.435 -0.798762 4.1651 0
M  V30 3521 N 330.826 0.0835815 5.05731 0
M  V30 3522 C 329.124 -1.06221 4.33166 0
M  V30 3523 C 329.825 0.433113 5.80085 0
M  V30 3524 N 328.801 -0.1928 5.43258 0
M  V30 3525 H 332.603 0.344612 2.91873 0
M  V30 3526 H 330.117 0.289986 1.5979 0
M  V30 3527 H 332.114 -2.00777 3.65368 0
M  V30 3528 H 330.774 -2.09543 2.48036 0
M  V30 3529 H 331.785 0.452715 5.15918 0
M  V30 3530 H 328.462 -1.73844 3.79585 0
M  V30 3531 H 329.852 1.15346 6.61925 0
M  V30 3532 N 332.573 -1.56217 0.208337 0
M  V30 3533 C 333.536 -2.18455 -0.693557 0
M  V30 3534 C 334.536 -1.14268 -1.13135 0
M  V30 3535 O 335.726 -1.39577 -1.0423 0
M  V30 3536 C 332.858 -2.79727 -1.94848 0
M  V30 3537 H 334.051 -2.99519 -0.15114 0
M  V30 3538 H 331.604 -1.56245 -0.041287 0
M  V30 3539 H 332.339 -2.02497 -2.53309 0
M  V30 3540 H 332.124 -3.56009 -1.64316 0
M  V30 3541 H 333.614 -3.27475 -2.59133 0
M  V30 3542 N 334.051 0.0651679 -1.57465 0
M  V30 3543 C 335.001 1.0838 -2.00594 0
M  V30 3544 C 335.985 1.34106 -0.889071 0
M  V30 3545 O 337.177 1.34295 -1.15299 0
M  V30 3546 C 334.306 2.39565 -2.45894 0
M  V30 3547 C 333.392 2.17085 -3.64328 0
M  V30 3548 N 333.783 1.64553 -4.78285 0
M  V30 3549 C 332.081 2.4753 -3.71006 0
M  V30 3550 C 332.782 1.57042 -5.60101 0
M  V30 3551 N 331.758 2.03328 -5.04141 0
M  V30 3552 H 335.56 0.671062 -2.86136 0
M  V30 3553 H 333.074 0.27213 -1.60104 0
M  V30 3554 H 335.071 3.13308 -2.75034 0
M  V30 3555 H 333.731 2.81549 -1.61741 0
M  V30 3556 H 334.742 1.33323 -5.00445 0
M  V30 3557 H 331.419 2.92835 -2.9758 0
M  V30 3558 H 332.809 1.17223 -6.61595 0
M  V30 3559 N 335.529 1.53961 0.336706 0
M  V30 3560 C 336.94 1.62914 0.911925 0
M  V30 3561 C 337.291 0.514795 1.89326 0
M  V30 3562 O 336.416 -0.354395 2.13478 0
M  V30 3563 C 337.011 2.95304 1.66076 0
M  V30 3564 C 335.57 3.06496 2.18489 0
M  V30 3565 C 334.717 2.58403 1.00613 0
M  V30 3566 H 337.668 1.58285 0.114649 0
M  V30 3567 H 337.689 2.84727 2.5241 0
M  V30 3568 H 337.201 3.76387 0.946276 0
M  V30 3569 H 335.302 2.3006 2.93092 0
M  V30 3570 H 335.415 4.1208 2.44391 0
M  V30 3571 H 333.779 2.13977 1.38152 0
M  V30 3572 H 334.562 3.41932 0.306179 0
M  V30 3573 N 337.007 -0.598083 1.45811 0
M  V30 3574 C 338.254 -1.35681 1.50323 0
M  V30 3575 C 338.582 -1.9393 0.148739 0
M  V30 3576 O 337.837 -1.76094 -0.853787 0
M  V30 3577 C 338.136 -2.51669 2.53766 0
M  V30 3578 C 337.802 -2.11508 3.98215 0
M  V30 3579 C 336.464 -2.0027 4.37545 0
M  V30 3580 C 338.816 -1.80308 4.89018 0
M  V30 3581 C 336.144 -1.56067 5.65562 0
M  V30 3582 C 338.496 -1.37589 6.17456 0
M  V30 3583 C 337.16 -1.24916 6.55708 0
M  V30 3584 H 336.43 -0.496492 0.550069 0
M  V30 3585 H 339.077 -0.675052 1.79207 0
M  V30 3586 H 337.382 -3.25225 2.18486 0
M  V30 3587 H 339.079 -3.09895 2.54492 0
M  V30 3588 H 335.669 -2.21185 3.67117 0
M  V30 3589 H 339.853 -1.87884 4.59362 0
M  V30 3590 H 335.109 -1.44886 5.93985 0
M  V30 3591 H 339.283 -1.12495 6.87254 0
M  V30 3592 H 336.91 -0.904386 7.54801 0
M  V30 3593 N 338.485 -1.33259 -0.841409 0
M  V30 3594 C 339.762 -1.15174 -1.58096 0
M  V30 3595 C 340.142 0.282858 -2.09196 0
M  V30 3596 O 339.49 1.28151 -1.89181 0
M  V30 3597 C 339.7 -2.1907 -2.71679 0
M  V30 3598 C 341.048 -2.53093 -3.40924 0
M  V30 3599 O 342.072 -2.17717 -2.81918 0
M  V30 3600 O 340.931 -3.1379 -4.47435 0
M  V30 3601 H 338.025 -0.445303 -0.696875 0
M  V30 3602 H 340.571 -1.44833 -0.884385 0
M  V30 3603 H 339.343 -3.15443 -2.31541 0
M  V30 3604 H 338.966 -1.90481 -3.49002 0
M  V30 3605 N 339.963 1.05934 -1.16686 0
M  V30 3606 C 340.893 2.1546 -0.899949 0
M  V30 3607 C 341.874 1.69391 0.155154 0
M  V30 3608 O 343.059 1.94199 0.00648693 0
M  V30 3609 C 340.189 3.44939 -0.404241 0
M  V30 3610 C 339.143 4.04536 -1.39767 0
M  V30 3611 C 338.469 5.29268 -0.760216 0
M  V30 3612 C 339.769 4.42893 -2.76845 0
M  V30 3613 H 341.463 2.38046 -1.81588 0
M  V30 3614 H 339.009 1.14404 -0.874514 0
M  V30 3615 H 340.962 4.20901 -0.204971 0
M  V30 3616 H 339.686 3.21983 0.547206 0
M  V30 3617 H 338.345 3.30635 -1.58355 0
M  V30 3618 H 337.993 5.02611 0.197831 0
M  V30 3619 H 337.693 5.70101 -1.42332 0
M  V30 3620 H 339.217 6.07924 -0.57105 0
M  V30 3621 H 340.631 5.09921 -2.62019 0
M  V30 3622 H 339.028 4.94721 -3.39663 0
M  V30 3623 H 340.098 3.53584 -3.31823 0
M  V30 3624 N 341.441 0.965919 1.2453 0
M  V30 3625 C 342.669 0.644385 1.96609 0
M  V30 3626 C 343.084 -0.785823 1.71669 0
M  V30 3627 O 342.441 -1.52703 0.999399 0
M  V30 3628 C 342.492 0.907375 3.49927 0
M  V30 3629 O 342.213 2.28136 3.74013 0
M  V30 3630 C 343.714 0.599784 4.39224 0
M  V30 3631 H 340.934 0.240588 0.626385 0
M  V30 3632 H 343.478 1.29337 1.58405 0
M  V30 3633 H 341.633 0.304631 3.862 0
M  V30 3634 H 342.047 2.36002 4.68405 0
M  V30 3635 H 343.521 0.834263 5.45659 0
M  V30 3636 H 343.998 -0.465921 4.36722 0
M  V30 3637 H 344.604 1.18235 4.08535 0
M  V30 3638 N 342.919 -1.39368 0.735821 0
M  V30 3639 C 343.866 -2.30599 0.0963825 0
M  V30 3640 C 344.836 -1.49257 -0.728794 0
M  V30 3641 O 346.021 -1.77941 -0.688588 0
M  V30 3642 C 343.161 -3.35596 -0.804305 0
M  V30 3643 C 342.274 -4.31987 0.0335761 0
M  V30 3644 C 341.409 -5.24053 -0.868461 0
M  V30 3645 C 340.448 -6.12095 -0.0258776 0
M  V30 3646 N 339.585 -6.96514 -0.883893 0
M  V30 3647 H 344.425 -2.8471 0.880002 0
M  V30 3648 H 341.962 -1.40188 0.445619 0
M  V30 3649 H 343.92 -3.95062 -1.34096 0
M  V30 3650 H 342.55 -2.82938 -1.55389 0
M  V30 3651 H 341.602 -3.74133 0.68766 0
M  V30 3652 H 342.914 -4.94074 0.685036 0
M  V30 3653 H 342.068 -5.88549 -1.47293 0
M  V30 3654 H 340.807 -4.62289 -1.5537 0
M  V30 3655 H 339.812 -5.4661 0.591386 0
M  V30 3656 H 341.037 -6.75923 0.656156 0
M  V30 3657 H 338.983 -6.37318 -1.55441 0
M  V30 3658 H 338.9 -7.55448 -0.288931 0
M  V30 3659 H 340.168 -7.65439 -1.4739 0
M  V30 3660 N 344.397 -0.483516 -1.5 0
M  V30 3661 C 345.644 0.0671597 -2.02389 0
M  V30 3662 C 345.972 1.38597 -1.36459 0
M  V30 3663 O 345.227 1.89634 -0.483458 0
M  V30 3664 C 345.526 0.286226 -3.56252 0
M  V30 3665 C 345.192 -0.952416 -4.40726 0
M  V30 3666 C 343.854 -1.29199 -4.63531 0
M  V30 3667 C 346.206 -1.77655 -4.89988 0
M  V30 3668 C 343.534 -2.45553 -5.32842 0
M  V30 3669 C 345.886 -2.93147 -5.60578 0
M  V30 3670 C 344.55 -3.27505 -5.81633 0
M  V30 3671 H 343.82 0.0245755 -0.740592 0
M  V30 3672 H 346.467 -0.640124 -1.80485 0
M  V30 3673 H 344.772 1.07587 -3.76739 0
M  V30 3674 H 346.469 0.726473 -3.94365 0
M  V30 3675 H 343.059 -0.677881 -4.23205 0
M  V30 3676 H 347.243 -1.52737 -4.72213 0
M  V30 3677 H 342.499 -2.72431 -5.47349 0
M  V30 3678 H 346.673 -3.57344 -5.97727 0
M  V30 3679 H 344.3 -4.1777 -6.35116 0
M  V30 3680 N 345.875 1.56104 -0.216619 0
M  V30 3681 C 346.823 2.21434 0.712036 0
M  V30 3682 C 347.817 1.19218 1.20348 0
M  V30 3683 O 349.023 1.3731 1.16387 0
M  V30 3684 H 345.398 0.70992 0.248026 0
M  V30 3685 H 347.369 2.98083 0.137558 0
M  V30 3686 C 346.118 2.90434 1.91163 0
M  V30 3687 H 345.441 3.68842 1.54258 0
M  V30 3688 H 346.881 3.39552 2.5393 0
M  V30 3689 C 345.34 1.92635 2.76394 0
M  V30 3690 O 345.87 1.44017 3.74996 0
M  V30 3691 N 344.076 1.60392 2.42328 0
M  V30 3692 H 343.623 2.00122 1.622 0
M  V30 3693 H 343.581 0.952159 2.99635 0
M  V30 3694 N 347.353 -0.0568162 1.57498 0
M  V30 3695 C 348.63 -0.786954 1.79071 0
M  V30 3696 C 349.01 -1.95028 0.80792 0
M  V30 3697 O 348.358 -2.27968 -0.155858 0
M  V30 3698 C 348.568 -1.24594 3.26002 0
M  V30 3699 C 349.916 -1.67323 3.90241 0
M  V30 3700 O 350.94 -1.34124 3.29984 0
M  V30 3701 O 349.799 -2.28842 4.9628 0
M  V30 3702 H 346.893 -0.378262 0.735423 0
M  V30 3703 H 349.439 -0.035734 1.69662 0
M  V30 3704 H 348.211 -0.41423 3.89101 0
M  V30 3705 H 347.834 -2.05803 3.40192 0
M  V30 3706 N 348.832 -1.54138 -0.328536 0
M  V30 3707 C 350.08 -1.71765 -1.06496 0
M  V30 3708 C 350.401 -0.49149 -1.88704 0
M  V30 3709 O 349.671 0.494539 -1.89555 0
M  V30 3710 H 348.251 -0.633295 -0.396164 0
M  V30 3711 H 350.913 -1.91429 -0.366176 0
M  V30 3712 H 350.009 -2.5951 -1.73381 0
M  V30 3713 N 350.31 0.590341 -1.46126 0
M  V30 3714 C 351.587 1.35029 -1.41515 0
M  V30 3715 C 351.967 2.10888 -0.0946472 0
M  V30 3716 O 351.315 2.08998 0.923693 0
M  V30 3717 C 351.525 2.28269 -2.63997 0
M  V30 3718 C 352.873 2.90338 -3.09821 0
M  V30 3719 O 353.897 2.38585 -2.64492 0
M  V30 3720 O 352.756 3.84321 -3.88535 0
M  V30 3721 H 349.85 0.606317 -0.562413 0
M  V30 3722 H 352.396 0.611994 -1.58281 0
M  V30 3723 H 351.168 1.71591 -3.51671 0
M  V30 3724 H 350.791 3.0945 -2.49652 0
M  V30 3725 N 351.788 1.33704 0.83433 0
M  V30 3726 C 353.035 1.25417 1.58987 0
M  V30 3727 C 353.363 -0.178869 1.93676 0
M  V30 3728 O 352.618 -1.13723 1.59265 0
M  V30 3729 C 352.917 2.07926 2.90692 0
M  V30 3730 C 352.583 3.57066 2.75345 0
M  V30 3731 C 351.245 3.97724 2.70867 0
M  V30 3732 C 353.597 4.51817 2.59828 0
M  V30 3733 C 350.925 5.31344 2.48778 0
M  V30 3734 C 353.277 5.85604 2.39272 0
M  V30 3735 C 351.941 6.25439 2.33199 0
M  V30 3736 H 351.211 0.458934 0.581774 0
M  V30 3737 H 353.858 1.65335 0.966261 0
M  V30 3738 H 352.163 1.608 3.57282 0
M  V30 3739 H 353.86 1.98868 3.48213 0
M  V30 3740 H 350.45 3.24785 2.79665 0
M  V30 3741 H 354.634 4.21311 2.62319 0
M  V30 3742 H 349.89 5.61241 2.42526 0
M  V30 3743 H 354.064 6.58623 2.2625 0
M  V30 3744 H 351.691 7.28914 2.15843 0
M  V30 3745 N 353.266 -1.05314 1.17247 0
M  V30 3746 C 354.196 -2.1498 0.911362 0
M  V30 3747 C 355.177 -1.69471 -0.146169 0
M  V30 3748 O 356.362 -1.942 0.003812 0
M  V30 3749 C 353.492 -3.4472 0.422528 0
M  V30 3750 C 352.446 -4.03789 1.4191 0
M  V30 3751 C 351.772 -5.28858 0.788274 0
M  V30 3752 C 353.072 -4.41418 2.7919 0
M  V30 3753 H 354.766 -2.3708 1.82848 0
M  V30 3754 H 352.312 -1.13938 0.880569 0
M  V30 3755 H 354.265 -4.20787 0.227289 0
M  V30 3756 H 352.989 -3.22269 -0.530123 0
M  V30 3757 H 351.648 -3.2979 1.60106 0
M  V30 3758 H 351.296 -5.02709 -0.171173 0
M  V30 3759 H 350.996 -5.69338 1.45353 0
M  V30 3760 H 352.52 -6.07612 0.603282 0
M  V30 3761 H 353.934 -5.08524 2.64719 0
M  V30 3762 H 352.331 -4.92913 3.42282 0
M  V30 3763 H 353.401 -3.51819 3.33693 0
M  V30 3764 N 354.744 -0.972509 -1.24016 0
M  V30 3765 C 356.16 -0.679827 -1.44397 0
M  V30 3766 C 356.36 0.756716 -1.86751 0
M  V30 3767 O 355.416 1.53007 -2.00861 0
M  V30 3768 C 356.729 -1.66803 -2.50195 0
M  V30 3769 C 358.277 -1.68119 -2.64017 0
M  V30 3770 C 358.752 -2.65748 -3.73017 0
M  V30 3771 N 360.243 -2.64219 -3.8045 0
M  V30 3772 C 360.978 -3.36433 -4.64328 0
M  V30 3773 N 360.474 -4.1818 -5.52356 0
M  V30 3774 N 362.267 -3.25235 -4.58453 0
M  V30 3775 H 354.418 -1.90059 -0.948228 0
M  V30 3776 H 356.681 -0.818527 -0.478245 0
M  V30 3777 H 356.387 -2.69498 -2.25973 0
M  V30 3778 H 356.261 -1.4446 -3.48441 0
M  V30 3779 H 358.648 -0.661319 -2.87594 0
M  V30 3780 H 358.729 -1.94525 -1.66113 0
M  V30 3781 H 358.373 -3.67872 -3.50189 0
M  V30 3782 H 358.303 -2.36619 -4.70446 0
M  V30 3783 H 360.794 -2.04887 -3.17537 0
M  V30 3784 H 361.107 -4.70157 -6.13329 0
M  V30 3785 H 359.452 -4.22273 -5.52006 0
M  V30 3786 H 362.643 -2.60829 -3.88698 0
M  V30 3787 H 362.816 -3.81776 -5.23594 0
M  V30 3788 N 356.222 1.38976 -0.743202 0
M  V30 3789 C 357.185 2.28901 -0.117014 0
M  V30 3790 C 358.185 1.46698 0.658503 0
M  V30 3791 O 359.375 1.67274 0.486305 0
M  V30 3792 C 356.507 3.30309 0.84315 0
M  V30 3793 H 357.7 2.8578 -0.909373 0
M  V30 3794 H 355.253 1.47761 -0.509547 0
M  V30 3795 H 355.988 2.785 1.66157 0
M  V30 3796 H 355.773 3.91029 0.289594 0
M  V30 3797 H 357.263 3.97577 1.2776 0
M  V30 3798 N 357.7 0.491464 1.49741 0
M  V30 3799 C 358.61 -0.296835 2.32715 0
M  V30 3800 C 359.626 -0.976536 1.44013 0
M  V30 3801 O 360.802 -0.960023 1.77047 0
M  V30 3802 C 357.867 -1.35288 3.19215 0
M  V30 3803 C 356.928 -0.687632 4.23757 0
M  V30 3804 C 356.161 -1.69336 5.06123 0
M  V30 3805 O 356.384 -2.92219 4.89861 0
M  V30 3806 O 355.318 -1.25394 5.88693 0
M  V30 3807 H 359.144 0.382048 3.01287 0
M  V30 3808 H 356.729 0.252953 1.47243 0
M  V30 3809 H 358.611 -1.96411 3.72828 0
M  V30 3810 H 357.286 -2.01487 2.53347 0
M  V30 3811 H 356.193 -0.0369159 3.74082 0
M  V30 3812 H 357.526 -0.0682566 4.92153 0
M  V30 3813 N 359.178 -1.55987 0.224894 0
M  V30 3814 C 360.11 -2.17722 -0.716224 0
M  V30 3815 C 361.123 -1.14723 -1.15509 0
M  V30 3816 O 362.312 -1.41688 -1.08567 0
M  V30 3817 C 359.412 -2.74873 -1.98238 0
M  V30 3818 C 358.585 -4.03074 -1.69853 0
M  V30 3819 C 357.644 -4.44757 -2.81208 0
M  V30 3820 O 356.67 -5.11587 -2.49534 0
M  V30 3821 N 357.872 -4.10716 -4.10235 0
M  V30 3822 H 360.637 -2.99109 -0.188123 0
M  V30 3823 H 358.198 -1.6184 0.0440123 0
M  V30 3824 H 360.19 -2.99727 -2.7193 0
M  V30 3825 H 358.76 -1.9777 -2.42086 0
M  V30 3826 H 357.98 -3.86041 -0.797875 0
M  V30 3827 H 359.268 -4.86701 -1.48324 0
M  V30 3828 H 358.666 -3.57019 -4.38809 0
M  V30 3829 H 357.223 -4.40455 -4.80461 0
M  V30 3830 N 360.656 0.0484629 -1.57525 0
M  V30 3831 C 361.588 1.08222 -2.02041 0
M  V30 3832 C 362.601 1.33621 -0.930012 0
M  V30 3833 O 363.79 1.3145 -1.20761 0
M  V30 3834 C 360.89 2.42818 -2.36416 0
M  V30 3835 C 360.063 2.37049 -3.67596 0
M  V30 3836 C 359.122 3.53937 -3.89378 0
M  V30 3837 O 358.148 3.34308 -4.60681 0
M  V30 3838 N 359.35 4.75126 -3.3352 0
M  V30 3839 H 362.115 0.702946 -2.9134 0
M  V30 3840 H 359.676 0.236745 -1.6016 0
M  V30 3841 H 361.668 3.197 -2.48141 0
M  V30 3842 H 360.238 2.72661 -1.52888 0
M  V30 3843 H 359.458 1.45395 -3.66407 0
M  V30 3844 H 360.746 2.30318 -4.53686 0
M  V30 3845 H 360.144 4.93976 -2.75688 0
M  V30 3846 H 358.701 5.49439 -3.50656 0
M  V30 3847 N 362.134 1.5431 0.320358 0
M  V30 3848 C 363.382 1.72327 1.05583 0
M  V30 3849 C 363.703 0.50149 1.88441 0
M  V30 3850 O 362.973 -0.48448 1.89815 0
M  V30 3851 H 361.553 0.635387 0.3928 0
M  V30 3852 H 364.215 1.91621 0.356019 0
M  V30 3853 H 363.311 2.60426 1.72003 0
M  V30 3854 N 363.613 -0.582584 1.46437 0
M  V30 3855 C 364.862 -1.337 1.5102 0
M  V30 3856 C 365.175 -1.94891 0.166359 0
M  V30 3857 O 366.381 -2.71351 0.0899954 0
M  V30 3858 C 364.837 -2.42315 2.66104 0
M  V30 3859 C 364.445 -1.87427 4.06909 0
M  V30 3860 C 366.189 -3.19099 2.79958 0
M  V30 3861 C 364.096 -2.93672 5.13333 0
M  V30 3862 H 363.026 -0.502619 0.562041 0
M  V30 3863 H 365.677 -0.621701 1.72647 0
M  V30 3864 H 364.059 -3.16645 2.37807 0
M  V30 3865 H 365.233 -1.19639 4.44998 0
M  V30 3866 H 363.548 -1.2331 3.97723 0
M  V30 3867 H 366.145 -3.9839 3.56636 0
M  V30 3868 H 366.488 -3.71695 1.87479 0
M  V30 3869 H 367.021 -2.51875 3.07902 0
M  V30 3870 H 363.76 -2.45962 6.07604 0
M  V30 3871 H 363.28 -3.59948 4.79789 0
M  V30 3872 H 364.959 -3.5762 5.39182 0
M  V30 3873 N 365.091 -1.34144 -0.827227 0
M  V30 3874 C 366.039 -1.25364 -1.95925 0
M  V30 3875 C 367.033 -0.152608 -1.68711 0
M  V30 3876 O 368.239 -0.317311 -1.77181 0
M  V30 3877 H 364.614 -0.389342 -0.643364 0
M  V30 3878 H 366.585 -2.21045 -2.00454 0
M  V30 3879 C 365.334 -1.02158 -3.32354 0
M  V30 3880 H 364.657 -1.86111 -3.5384 0
M  V30 3881 H 366.097 -1.00048 -4.12027 0
M  V30 3882 C 364.556 0.275244 -3.35774 0
M  V30 3883 O 365.086 1.27806 -3.80826 0
M  V30 3884 N 363.292 0.306853 -2.88975 0
M  V30 3885 H 362.839 -0.509777 -2.52506 0
M  V30 3886 H 362.797 1.17432 -2.91646 0
M  V30 3887 N 366.569 1.04691 -1.17803 0
M  V30 3888 C 367.532 2.10724 -0.901545 0
M  V30 3889 C 368.532 1.6042 0.110437 0
M  V30 3890 O 369.722 1.7377 -0.122303 0
M  V30 3891 C 366.854 3.39084 -0.351409 0
M  V30 3892 H 368.047 2.36686 -1.84174 0
M  V30 3893 H 365.6 1.21015 -0.98919 0
M  V30 3894 H 366.335 3.18782 0.59569 0
M  V30 3895 H 366.12 3.76909 -1.08083 0
M  V30 3896 H 367.61 4.17227 -0.176451 0
M  V30 3897 N 368.047 0.979072 1.23499 0
M  V30 3898 C 368.957 0.526431 2.28617 0
M  V30 3899 C 369.973 -0.418126 1.68901 0
M  V30 3900 O 371.149 -0.288372 1.99325 0
M  V30 3901 C 368.214 -0.165235 3.46306 0
M  V30 3902 C 367.275 0.82056 4.21385 0
M  V30 3903 C 366.508 0.161807 5.33455 0
M  V30 3904 O 366.731 -1.04742 5.60701 0
M  V30 3905 O 365.665 0.859708 5.95729 0
M  V30 3906 H 369.491 1.4006 2.69475 0
M  V30 3907 H 367.076 0.746643 1.29405 0
M  V30 3908 H 368.958 -0.553287 4.17752 0
M  V30 3909 H 367.633 -1.01419 3.07402 0
M  V30 3910 H 366.54 1.25929 3.52268 0
M  V30 3911 H 367.873 1.63828 4.64135 0
M  V30 3912 N 369.525 -1.3858 0.750561 0
M  V30 3913 C 370.472 -2.30483 0.120835 0
M  V30 3914 C 371.442 -1.50022 -0.712923 0
M  V30 3915 O 372.627 -1.78662 -0.669676 0
M  V30 3916 C 369.767 -3.36431 -0.768666 0
M  V30 3917 C 368.88 -4.31927 0.0793922 0
M  V30 3918 C 368.015 -5.24944 -0.81283 0
M  V30 3919 C 367.054 -6.12088 0.0390447 0
M  V30 3920 N 366.191 -6.97412 -0.809969 0
M  V30 3921 H 371.031 -2.83761 0.91015 0
M  V30 3922 H 368.568 -1.39707 0.460463 0
M  V30 3923 H 370.526 -3.96462 -1.29898 0
M  V30 3924 H 369.156 -2.8457 -1.5238 0
M  V30 3925 H 368.208 -3.73382 0.727303 0
M  V30 3926 H 369.52 -4.93319 0.737401 0
M  V30 3927 H 368.674 -5.90078 -1.41042 0
M  V30 3928 H 367.413 -4.63911 -1.50458 0
M  V30 3929 H 366.418 -5.45952 0.649328 0
M  V30 3930 H 367.643 -6.75189 0.727809 0
M  V30 3931 H 365.589 -6.38931 -1.48672 0
M  V30 3932 H 365.506 -7.55712 -0.208789 0
M  V30 3933 H 366.774 -7.66959 -1.39263 0
M  V30 3934 N 371.003 -0.499398 -1.49478 0
M  V30 3935 C 371.933 0.269244 -2.31943 0
M  V30 3936 C 372.914 0.964054 -1.40143 0
M  V30 3937 O 374.099 0.955767 -1.69052 0
M  V30 3938 C 371.229 1.33504 -3.20615 0
M  V30 3939 C 370.183 0.760202 -4.21195 0
M  V30 3940 C 369.509 1.9264 -4.98792 0
M  V30 3941 C 370.809 -0.247661 -5.21712 0
M  V30 3942 H 372.503 -0.419082 -2.96452 0
M  V30 3943 H 370.049 -0.202988 -1.42562 0
M  V30 3944 H 372.002 1.88048 -3.77115 0
M  V30 3945 H 370.726 2.05253 -2.54045 0
M  V30 3946 H 369.385 0.23653 -3.65836 0
M  V30 3947 H 369.033 2.63154 -4.28671 0
M  V30 3948 H 368.733 1.54785 -5.66847 0
M  V30 3949 H 370.257 2.4762 -5.58137 0
M  V30 3950 H 371.671 0.209579 -5.72917 0
M  V30 3951 H 370.068 -0.541962 -5.97648 0
M  V30 3952 H 371.138 -1.16409 -4.7072 0
M  V30 3953 N 372.481 1.55866 -0.233164 0
M  V30 3954 C 373.709 2.02998 0.399905 0
M  V30 3955 C 374.124 1.11274 1.52524 0
M  V30 3956 O 373.481 0.124528 1.82075 0
M  V30 3957 C 373.532 3.4958 0.920639 0
M  V30 3958 O 373.253 4.37808 -0.159834 0
M  V30 3959 C 374.754 4.12411 1.62578 0
M  V30 3960 H 371.974 0.664006 0.0966281 0
M  V30 3961 H 374.518 2.0143 -0.353013 0
M  V30 3962 H 372.673 3.51727 1.62379 0
M  V30 3963 H 373.087 5.23981 0.23337 0
M  V30 3964 H 374.561 5.16711 1.94201 0
M  V30 3965 H 375.038 3.5809 2.54299 0
M  V30 3966 H 375.644 4.14148 0.967553 0
M  V30 3967 N 373.959 -0.0401083 1.57549 0
M  V30 3968 C 374.906 -1.04413 2.05831 0
M  V30 3969 C 375.876 -1.36585 0.945184 0
M  V30 3970 O 377.061 -1.47112 1.21502 0
M  V30 3971 C 374.201 -2.34336 2.53339 0
M  V30 3972 C 373.314 -2.08419 3.78398 0
M  V30 3973 C 372.449 -3.32133 4.14561 0
M  V30 3974 C 371.488 -3.01721 5.3257 0
M  V30 3975 N 370.625 -4.17855 5.64218 0
M  V30 3976 H 375.465 -0.625442 2.91363 0
M  V30 3977 H 373.002 -0.297218 1.44066 0
M  V30 3978 H 374.96 -3.10234 2.78946 0
M  V30 3979 H 373.59 -2.73948 1.7074 0
M  V30 3980 H 372.642 -1.23069 3.59942 0
M  V30 3981 H 373.954 -1.81978 4.64419 0
M  V30 3982 H 373.108 -4.16406 4.41238 0
M  V30 3983 H 371.847 -3.61678 3.2717 0
M  V30 3984 H 370.852 -2.15849 5.05657 0
M  V30 3985 H 372.077 -2.73466 6.21605 0
M  V30 3986 H 370.023 -4.47372 4.79786 0
M  V30 3987 H 369.94 -3.94798 6.44725 0
M  V30 3988 H 371.208 -5.03033 5.95465 0
M  V30 3989 N 375.437 -1.54477 -0.31217 0
M  V30 3990 C 376.683 -1.73483 -1.0503 0
M  V30 3991 C 377.016 -0.513125 -1.87298 0
M  V30 3992 O 376.291 0.489864 -1.8823 0
M  V30 3993 C 376.574 -3.01723 -1.96558 0
M  V30 3994 C 376.427 -4.3417 -1.17545 0
M  V30 3995 C 377.746 -3.25772 -2.95907 0
M  V30 3996 H 374.865 -0.631222 -0.380432 0
M  V30 3997 H 377.507 -1.87184 -0.325932 0
M  V30 3998 H 375.657 -2.90174 -2.58324 0
M  V30 3999 H 377.329 -4.5762 -0.581513 0
M  V30 4000 H 375.572 -4.31159 -0.477925 0
M  V30 4001 H 376.243 -5.20143 -1.84811 0
M  V30 4002 H 378.719 -3.36857 -2.44267 0
M  V30 4003 H 377.595 -4.16838 -3.57123 0
M  V30 4004 H 377.856 -2.43537 -3.68974 0
M  V30 4005 N 376.915 0.57481 -1.46744 0
M  V30 4006 C 377.845 1.69337 -1.60771 0
M  V30 4007 C 378.826 1.63825 -0.457736 0
M  V30 4008 O 380.011 1.8172 -0.684947 0
M  V30 4009 C 377.141 3.0798 -1.60517 0
M  V30 4010 C 376.095 3.28327 -2.74564 0
M  V30 4011 C 375.421 4.67578 -2.59373 0
M  V30 4012 C 376.721 3.15398 -4.16319 0
M  V30 4013 H 378.415 1.57853 -2.54407 0
M  V30 4014 H 375.961 0.75799 -1.22436 0
M  V30 4015 H 377.914 3.86061 -1.68923 0
M  V30 4016 H 376.638 3.20381 -0.634305 0
M  V30 4017 H 375.297 2.52649 -2.65639 0
M  V30 4018 H 374.945 4.76755 -1.60353 0
M  V30 4019 H 374.645 4.82144 -3.35873 0
M  V30 4020 H 376.169 5.47817 -2.69682 0
M  V30 4021 H 377.583 3.83315 -4.26313 0
M  V30 4022 H 375.98 3.41482 -4.93468 0
M  V30 4023 H 377.05 2.12372 -4.3592 0
M  V30 4024 N 378.394 1.34581 0.820102 0
M  V30 4025 C 379.624 1.29991 1.6058 0
M  V30 4026 C 380.032 -0.127588 1.88769 0
M  V30 4027 O 379.375 -1.08595 1.48165 0
M  V30 4028 C 379.437 2.02548 2.9701 0
M  V30 4029 C 379.101 3.51794 2.91701 0
M  V30 4030 C 380.098 4.46647 2.66087 0
M  V30 4031 C 377.783 3.94249 3.11245 0
M  V30 4032 C 379.777 5.81929 2.60071 0
M  V30 4033 C 377.464 5.2963 3.04853 0
M  V30 4034 C 378.462 6.23282 2.793 0
M  V30 4035 O 378.15 7.56181 2.72847 0
M  V30 4036 H 377.882 0.448539 0.505756 0
M  V30 4037 H 380.436 1.77811 1.02822 0
M  V30 4038 H 378.666 1.49345 3.56697 0
M  V30 4039 H 380.355 1.91211 3.58041 0
M  V30 4040 H 381.121 4.15168 2.5072 0
M  V30 4041 H 377 3.21749 3.30149 0
M  V30 4042 H 380.544 6.54999 2.40046 0
M  V30 4043 H 376.441 5.60727 3.19774 0
M  V30 4044 H 377.209 7.6595 2.88553 0
M  V30 4045 N 379.872 -1.04064 1.18357 0
M  V30 4046 C 381.283 -1.58719 0.98312 0
M  V30 4047 C 381.634 -1.90556 -0.467193 0
M  V30 4048 O 380.759 -1.69561 -1.34454 0
M  V30 4049 C 381.354 -2.88379 1.77828 0
M  V30 4050 C 379.913 -3.3965 1.62218 0
M  V30 4051 C 379.06 -2.13235 1.77274 0
M  V30 4052 H 382.011 -0.867359 1.32901 0
M  V30 4053 H 382.032 -3.58773 1.26737 0
M  V30 4054 H 381.544 -2.65176 2.83379 0
M  V30 4055 H 379.645 -3.67866 0.592036 0
M  V30 4056 H 379.758 -4.13475 2.42023 0
M  V30 4057 H 378.122 -2.24542 1.20221 0
M  V30 4058 H 378.905 -1.92487 2.8426 0
M  V30 4059 N 381.35 -0.985608 -1.22978 0
M  V30 4060 C 382.298 -0.522631 -2.26652 0
M  V30 4061 C 383.292 0.422998 -1.64034 0
M  V30 4062 O 384.498 0.296319 -1.77544 0
M  V30 4063 H 380.873 -0.150597 -0.736766 0
M  V30 4064 H 382.844 -1.40863 -2.63059 0
M  V30 4065 C 381.593 0.154238 -3.47358 0
M  V30 4066 H 380.916 -0.564329 -3.95797 0
M  V30 4067 H 382.356 0.441744 -4.21693 0
M  V30 4068 C 380.815 1.38719 -3.07016 0
M  V30 4069 O 381.345 2.48307 -3.15764 0
M  V30 4070 N 379.551 1.25975 -2.61875 0
M  V30 4071 H 379.098 0.368068 -2.54957 0
M  V30 4072 H 379.056 2.08578 -2.3525 0
M  V30 4073 N 382.828 1.3818 -0.7579 0
M  V30 4074 C 384.105 1.94106 -0.241306 0
M  V30 4075 C 384.485 1.69282 1.26122 0
M  V30 4076 O 383.833 1.03378 2.03777 0
M  V30 4077 C 384.043 3.43809 -0.59967 0
M  V30 4078 C 385.391 4.20868 -0.561717 0
M  V30 4079 O 386.415 3.5211 -0.538222 0
M  V30 4080 O 385.274 5.43451 -0.576478 0
M  V30 4081 H 382.368 0.825376 -0.0518042 0
M  V30 4082 H 384.914 1.47548 -0.838315 0
M  V30 4083 H 383.686 3.55403 -1.6372 0
M  V30 4084 H 383.309 3.97592 0.0251197 0
M  V30 4085 N 384.306 0.507319 1.49211 0
M  V30 4086 C 385.254 -0.281364 2.30892 0
M  V30 4087 C 386.248 -0.95687 1.39787 0
M  V30 4088 O 387.454 -0.883838 1.56807 0
M  V30 4089 H 383.829 -0.109597 0.743971 0
M  V30 4090 H 385.8 0.42744 2.95323 0
M  V30 4091 C 384.549 -1.32918 3.21291 0
M  V30 4092 H 383.872 -0.818799 3.91326 0
M  V30 4093 H 385.312 -1.85288 3.81372 0
M  V30 4094 C 383.771 -2.35074 2.41333 0
M  V30 4095 O 384.301 -3.4108 2.12197 0
M  V30 4096 N 382.507 -2.07705 2.03241 0
M  V30 4097 H 382.054 -1.2152 2.27136 0
M  V30 4098 H 382.012 -2.76283 1.50051 0
M  V30 4099 N 385.784 -1.5574 0.241426 0
M  V30 4100 C 386.734 -2.17803 -0.674233 0
M  V30 4101 C 387.718 -1.13225 -1.14319 0
M  V30 4102 O 388.91 -1.39153 -1.09387 0
M  V30 4103 C 386.039 -2.87682 -1.87333 0
M  V30 4104 C 385.125 -3.99509 -1.42313 0
M  V30 4105 N 385.516 -5.01115 -0.686798 0
M  V30 4106 C 383.814 -4.11964 -1.70885 0
M  V30 4107 C 384.515 -5.79922 -0.454456 0
M  V30 4108 N 383.491 -5.34001 -1.01705 0
M  V30 4109 H 387.293 -2.93718 -0.103447 0
M  V30 4110 H 384.807 -1.62342 0.0435095 0
M  V30 4111 H 386.804 -3.3057 -2.54026 0
M  V30 4112 H 385.464 -2.13269 -2.4484 0
M  V30 4113 H 386.475 -5.16799 -0.337459 0
M  V30 4114 H 383.152 -3.48718 -2.2957 0
M  V30 4115 H 384.542 -6.71768 0.132992 0
M  V30 4116 N 387.262 0.0317525 -1.57568 0
M  V30 4117 C 388.49 0.734949 -1.93407 0
M  V30 4118 C 388.905 1.69036 -0.84096 0
M  V30 4119 O 388.262 1.81582 0.182836 0
M  V30 4120 C 388.313 1.49432 -3.29169 0
M  V30 4121 O 388.034 0.577261 -4.3428 0
M  V30 4122 C 389.535 2.29492 -3.79273 0
M  V30 4123 H 386.755 0.206706 -0.638368 0
M  V30 4124 H 389.299 -0.00992046 -2.04498 0
M  V30 4125 H 387.454 2.1911 -3.19483 0
M  V30 4126 H 387.868 1.10952 -5.1263 0
M  V30 4127 H 389.342 2.78172 -4.76785 0
M  V30 4128 H 389.819 3.10794 -3.10328 0
M  V30 4129 H 390.425 1.64894 -3.92033 0
M  V30 4130 N 388.74 1.54641 0.303973 0
M  V30 4131 C 389.703 1.84646 1.35789 0
M  V30 4132 C 390.703 0.7192 1.4382 0
M  V30 4133 O 391.893 0.987491 1.43507 0
M  V30 4134 C 389.025 2.02407 2.74307 0
M  V30 4135 H 390.218 2.78829 1.10429 0
M  V30 4136 H 387.771 1.46658 0.540487 0
M  V30 4137 H 388.506 1.10502 3.04893 0
M  V30 4138 H 388.291 2.84453 2.69868 0
M  V30 4139 H 389.781 2.27002 3.50514 0
M  V30 4140 N 390.218 -0.567019 1.47046 0
M  V30 4141 C 391.466 -1.322 1.52864 0
M  V30 4142 C 391.787 -1.94088 0.188388 0
M  V30 4143 O 391.057 -1.7941 -0.786693 0
M  V30 4144 H 389.637 -0.490894 0.563056 0
M  V30 4145 H 392.299 -0.662879 1.83281 0
M  V30 4146 H 391.395 -2.12062 2.2899 0
M  V30 4147 N 391.696 -1.35014 -0.812953 0
M  V30 4148 C 392.643 -1.27412 -1.92444 0
M  V30 4149 C 393.613 -0.14733 -1.65445 0
M  V30 4150 O 394.798 -0.329974 -1.87925 0
M  V30 4151 C 391.938 -1.04558 -3.28879 0
M  V30 4152 C 391.051 -2.26101 -3.68106 0
M  V30 4153 C 390.186 -1.96449 -4.9354 0
M  V30 4154 C 389.225 -3.14081 -5.25376 0
M  V30 4155 N 388.362 -2.84246 -6.41988 0
M  V30 4156 H 393.202 -2.22463 -1.98278 0
M  V30 4157 H 390.739 -1.10593 -0.969933 0
M  V30 4158 H 392.697 -0.893413 -4.07522 0
M  V30 4159 H 391.327 -0.131719 -3.22531 0
M  V30 4160 H 390.379 -2.52204 -2.84775 0
M  V30 4161 H 391.691 -3.13959 -3.87597 0
M  V30 4162 H 390.845 -1.78026 -5.79993 0
M  V30 4163 H 389.584 -1.05867 -4.76071 0
M  V30 4164 H 388.589 -3.33089 -4.37415 0
M  V30 4165 H 389.814 -4.05455 -5.44778 0
M  V30 4166 H 387.76 -1.96252 -6.25956 0
M  V30 4167 H 387.677 -3.65637 -6.61699 0
M  V30 4168 H 388.945 -2.6935 -7.31485 0
M  V30 4169 N 393.175 1.03435 -1.18907 0
M  V30 4170 C 394.122 2.11591 -0.921837 0
M  V30 4171 C 395.092 1.65499 0.141226 0
M  V30 4172 O 396.277 1.908 0.000242829 0
M  V30 4173 C 393.417 3.42012 -0.460616 0
M  V30 4174 C 392.53 4.01682 -1.58982 0
M  V30 4175 C 391.665 5.20091 -1.08069 0
M  V30 4176 C 390.704 5.71805 -2.18416 0
M  V30 4177 N 389.841 6.81494 -1.68849 0
M  V30 4178 H 394.681 2.33787 -1.8479 0
M  V30 4179 H 392.218 1.1467 -0.921373 0
M  V30 4180 H 394.176 4.16834 -0.174642 0
M  V30 4181 H 392.806 3.19944 0.428467 0
M  V30 4182 H 391.858 3.24127 -1.99113 0
M  V30 4183 H 393.17 4.36084 -2.4214 0
M  V30 4184 H 392.324 6.02051 -0.749615 0
M  V30 4185 H 391.063 4.87209 -0.218771 0
M  V30 4186 H 390.068 4.88461 -2.5236 0
M  V30 4187 H 391.293 6.06728 -3.05054 0
M  V30 4188 H 389.239 6.50475 -0.849572 0
M  V30 4189 H 389.156 7.14994 -2.45601 0
M  V30 4190 H 390.424 7.67063 -1.38689 0
M  V30 4191 N 394.653 0.992116 1.22453 0
M  V30 4192 C 395.583 0.561677 2.26644 0
M  V30 4193 C 396.564 -0.411055 1.65059 0
M  V30 4194 O 397.749 -0.301861 1.9184 0
M  V30 4195 C 394.879 -0.125247 3.47074 0
M  V30 4196 C 393.833 0.765948 4.21091 0
M  V30 4197 C 393.159 -0.0538484 5.34673 0
M  V30 4198 C 394.459 2.06242 4.79856 0
M  V30 4199 H 396.153 1.43259 2.62902 0
M  V30 4200 H 393.699 0.690283 1.26377 0
M  V30 4201 H 395.652 -0.437764 4.1912 0
M  V30 4202 H 394.376 -1.03069 3.0991 0
M  V30 4203 H 393.035 1.0621 3.50878 0
M  V30 4204 H 392.683 -0.960188 4.9375 0
M  V30 4205 H 392.383 0.539415 5.85119 0
M  V30 4206 H 393.907 -0.360477 6.09535 0
M  V30 4207 H 395.321 1.8139 5.43848 0
M  V30 4208 H 393.718 2.60444 5.40638 0
M  V30 4209 H 394.788 2.74167 3.99951 0
M  V30 4210 N 396.131 -1.37776 0.765217 0
M  V30 4211 C 397.547 -1.53297 0.444108 0
M  V30 4212 C 397.747 -1.72515 -1.04119 0
M  V30 4213 O 396.803 -1.74278 -1.82711 0
M  V30 4214 C 398.116 -2.73328 1.25349 0
M  V30 4215 C 399.664 -2.87185 1.24473 0
M  V30 4216 C 400.139 -4.10191 2.03733 0
M  V30 4217 N 401.63 -4.17291 2.01053 0
M  V30 4218 C 402.365 -5.11488 2.59166 0
M  V30 4219 N 401.861 -6.11285 3.26041 0
M  V30 4220 N 403.654 -5.03924 2.49032 0
M  V30 4221 H 395.805 -1.23552 1.72768 0
M  V30 4222 H 398.068 -0.601103 0.733062 0
M  V30 4223 H 397.774 -2.6557 2.30577 0
M  V30 4224 H 397.648 -3.66834 0.87823 0
M  V30 4225 H 400.035 -2.94418 0.20047 0
M  V30 4226 H 400.116 -1.94657 1.65959 0
M  V30 4227 H 399.76 -4.0372 3.08176 0
M  V30 4228 H 399.69 -5.01821 1.59633 0
M  V30 4229 H 402.181 -3.45825 1.5236 0
M  V30 4230 H 402.494 -6.79678 3.67774 0
M  V30 4231 H 400.839 -6.11583 3.30138 0
M  V30 4232 H 404.03 -4.24902 1.96407 0
M  V30 4233 H 404.203 -5.77152 2.94617 0
M  V30 4234 N 397.609 -0.515225 -1.4894 0
M  V30 4235 C 398.539 0.244628 -2.32215 0
M  V30 4236 C 399.52 0.949136 -1.41157 0
M  V30 4237 O 400.705 0.937783 -1.70057 0
M  V30 4238 C 397.835 1.30096 -3.22013 0
M  V30 4239 C 396.789 0.715486 -4.21977 0
M  V30 4240 C 396.115 1.87339 -5.00808 0
M  V30 4241 C 397.415 -0.302982 -5.2142 0
M  V30 4242 H 399.109 -0.450501 -2.95991 0
M  V30 4243 H 396.655 -0.218098 -1.42339 0
M  V30 4244 H 398.608 1.84037 -3.79089 0
M  V30 4245 H 397.332 2.02547 -2.56207 0
M  V30 4246 H 395.991 0.197715 -3.66066 0
M  V30 4247 H 395.639 2.58592 -4.31438 0
M  V30 4248 H 395.339 1.48764 -5.68457 0
M  V30 4249 H 396.863 2.41686 -5.60732 0
M  V30 4250 H 398.277 0.148802 -5.73107 0
M  V30 4251 H 396.674 -0.60532 -5.97039 0
M  V30 4252 H 397.744 -1.21395 -4.69459 0
M  V30 4253 N 399.087 1.5561 -0.249682 0
M  V30 4254 C 400.02 2.17537 0.689408 0
M  V30 4255 C 400.998 1.12829 1.17083 0
M  V30 4256 O 402.182 1.41229 1.24846 0
M  V30 4257 C 399.309 2.77828 1.93725 0
M  V30 4258 C 398.355 3.95615 1.59346 0
M  V30 4259 S 399.188 5.30988 0.69367 0
M  V30 4260 C 400.344 5.94734 1.95046 0
M  V30 4261 H 400.577 2.96852 0.163142 0
M  V30 4262 H 398.11 1.54362 -0.0341166 0
M  V30 4263 H 400.068 3.13199 2.65361 0
M  V30 4264 H 398.729 1.98454 2.43465 0
M  V30 4265 H 397.922 4.364 2.52132 0
M  V30 4266 H 397.524 3.61535 0.957512 0
M  V30 4267 H 399.816 6.12419 2.89739 0
M  V30 4268 H 400.759 6.90109 1.58604 0
M  V30 4269 H 401.167 5.23832 2.10381 0
M  V30 4270 N 400.565 -0.0233959 1.57583 0
M  V30 4271 C 401.497 -1.04994 2.03737 0
M  V30 4272 C 402.51 -1.32125 0.951152 0
M  V30 4273 O 403.699 -1.29512 1.22837 0
M  V30 4274 C 400.799 -2.39026 2.40249 0
M  V30 4275 C 399.972 -2.31171 3.7132 0
M  V30 4276 C 399.031 -3.47698 3.94959 0
M  V30 4277 O 398.057 -3.26937 4.65941 0
M  V30 4278 N 399.259 -4.6976 3.41037 0
M  V30 4279 H 402.024 -0.656507 2.92421 0
M  V30 4280 H 399.585 -0.211235 1.60516 0
M  V30 4281 H 401.577 -3.15712 2.53196 0
M  V30 4282 H 400.147 -2.70194 1.57207 0
M  V30 4283 H 399.367 -1.39547 3.68674 0
M  V30 4284 H 400.655 -2.23071 4.57293 0
M  V30 4285 H 400.053 -4.89528 2.83512 0
M  V30 4286 H 398.61 -5.43791 3.59353 0
M  V30 4287 N 402.043 -1.548 -0.295768 0
M  V30 4288 C 402.975 -1.82492 -1.3867 0
M  V30 4289 C 403.988 -0.708134 -1.46592 0
M  V30 4290 O 405.177 -0.985686 -1.48817 0
M  V30 4291 C 402.277 -1.95256 -2.76999 0
M  V30 4292 C 401.45 -3.25709 -2.91946 0
M  V30 4293 C 400.509 -3.28824 -4.10806 0
M  V30 4294 O 399.535 -4.02328 -4.02643 0
M  V30 4295 N 400.737 -2.5459 -5.21694 0
M  V30 4296 H 403.502 -2.76646 -1.15269 0
M  V30 4297 H 401.063 -1.54438 -0.485849 0
M  V30 4298 H 403.055 -1.94736 -3.54768 0
M  V30 4299 H 401.625 -1.08072 -2.93324 0
M  V30 4300 H 400.845 -3.38959 -2.01247 0
M  V30 4301 H 402.133 -4.11786 -2.98847 0
M  V30 4302 H 401.531 -1.94512 -5.31208 0
M  V30 4303 H 400.088 -2.59818 -5.97778 0
M  V30 4304 N 403.521 0.559213 -1.47345 0
M  V30 4305 C 404.751 1.33999 -1.57251 0
M  V30 4306 C 405.159 1.87905 -0.220978 0
M  V30 4307 O 404.502 1.65577 0.795617 0
M  V30 4308 C 404.564 2.54798 -2.53611 0
M  V30 4309 C 404.228 2.22192 -3.99349 0
M  V30 4310 C 405.225 1.79607 -4.87891 0
M  V30 4311 C 402.91 2.33613 -4.44669 0
M  V30 4312 C 404.904 1.48868 -6.19772 0
M  V30 4313 C 402.591 2.02487 -5.76578 0
M  V30 4314 C 403.589 1.60183 -6.63951 0
M  V30 4315 O 403.277 1.29451 -7.93409 0
M  V30 4316 H 403.009 0.414858 -0.533731 0
M  V30 4317 H 405.563 0.684465 -1.9366 0
M  V30 4318 H 403.793 3.23235 -2.12265 0
M  V30 4319 H 405.482 3.16873 -2.53666 0
M  V30 4320 H 406.248 1.70278 -4.54126 0
M  V30 4321 H 402.127 2.65501 -3.76869 0
M  V30 4322 H 405.671 1.15775 -6.87926 0
M  V30 4323 H 401.568 2.11448 -6.09885 0
M  V30 4324 H 402.336 1.43098 -8.05894 0
M  V30 4325 N 404.999 1.35443 0.805782 0
M  V30 4326 C 406.246 1.28761 1.56291 0
M  V30 4327 C 406.574 -0.137747 1.94012 0
M  V30 4328 O 405.829 -1.1032 1.61642 0
M  V30 4329 C 406.128 2.14045 2.86216 0
M  V30 4330 C 405.794 3.62826 2.67709 0
M  V30 4331 C 404.456 4.0338 2.6237 0
M  V30 4332 C 406.808 4.57227 2.50186 0
M  V30 4333 C 404.136 5.36501 2.37451 0
M  V30 4334 C 406.488 5.90547 2.26797 0
M  V30 4335 C 405.152 6.30245 2.1988 0
M  V30 4336 H 404.422 0.471171 0.571908 0
M  V30 4337 H 407.069 1.67347 0.930974 0
M  V30 4338 H 405.374 1.68342 3.53791 0
M  V30 4339 H 407.071 2.0621 3.43917 0
M  V30 4340 H 403.661 3.30644 2.72713 0
M  V30 4341 H 407.845 4.2678 2.53323 0
M  V30 4342 H 403.101 5.66259 2.30567 0
M  V30 4343 H 407.275 6.63274 2.12228 0
M  V30 4344 H 404.902 7.33328 2.00333 0
M  V30 4345 N 406.477 -1.02803 1.19454 0
M  V30 4346 C 407.409 -2.11181 0.890807 0
M  V30 4347 C 408.422 -1.6238 -0.116829 0
M  V30 4348 O 409.611 -1.78144 0.112694 0
M  V30 4349 C 406.711 -3.37461 0.311942 0
M  V30 4350 C 405.884 -4.15446 1.36834 0
M  V30 4351 C 404.943 -5.20039 0.802864 0
M  V30 4352 O 403.969 -5.49602 1.48077 0
M  V30 4353 N 405.171 -5.79165 -0.393417 0
M  V30 4354 H 407.936 -2.37827 1.82369 0
M  V30 4355 H 405.497 -1.19101 1.09666 0
M  V30 4356 H 407.489 -4.0462 -0.0802225 0
M  V30 4357 H 406.059 -3.08156 -0.52524 0
M  V30 4358 H 405.279 -3.43423 1.93531 0
M  V30 4359 H 406.567 -4.64335 2.08015 0
M  V30 4360 H 405.965 -5.57466 -0.961658 0
M  V30 4361 H 404.522 -6.47729 -0.727351 0
M  V30 4362 N 407.956 -0.998596 -1.21925 0
M  V30 4363 C 409.196 -0.685948 -1.92546 0
M  V30 4364 C 409.56 0.768441 -1.75952 0
M  V30 4365 O 410.761 1.19277 -2.40887 0
M  V30 4366 C 409.032 -1.08767 -3.40448 0
M  V30 4367 S 410.591 -0.894251 -4.29591 0
M  V30 4368 H 407.409 -0.250622 -0.665364 0
M  V30 4369 H 410.011 -1.28207 -1.47591 0
M  V30 4370 H 408.715 -2.14242 -3.50041 0
M  V30 4371 H 408.246 -0.48357 -3.90417 0
M  V30 4372 H 410.261 0.212149 -4.95746 0
M  V30 4373 N 409.434 1.37368 -0.772513 0
M  V30 4374 C 410.397 2.28601 -0.165541 0
M  V30 4375 C 411.397 1.48062 0.627238 0
M  V30 4376 O 412.587 1.68268 0.450715 0
M  V30 4377 C 409.719 3.32023 0.772897 0
M  V30 4378 H 410.912 2.83787 -0.969787 0
M  V30 4379 H 408.465 1.46647 -0.540775 0
M  V30 4380 H 409.2 2.81962 1.60212 0
M  V30 4381 H 408.985 3.91555 0.206585 0
M  V30 4382 H 410.475 4.00197 1.19298 0
M  V30 4383 N 410.912 0.523116 1.48665 0
M  V30 4384 C 412.152 -0.0115588 2.04397 0
M  V30 4385 C 412.516 -1.32225 1.39214 0
M  V30 4386 O 413.717 -1.94253 1.85793 0
M  V30 4387 C 411.988 -0.138119 3.57133 0
M  V30 4388 S 413.547 -0.623849 4.34343 0
M  V30 4389 H 410.365 0.00877706 0.710946 0
M  V30 4390 H 412.967 0.702116 1.82457 0
M  V30 4391 H 411.671 0.820748 4.02109 0
M  V30 4392 H 411.202 -0.876377 3.83514 0
M  V30 4393 H 413.217 -1.8895 4.58816 0
M  V30 4394 N 412.39 -1.55475 0.257931 0
M  V30 4395 C 413.615 -2.04064 -0.370488 0
M  V30 4396 C 414.04 -1.13565 -1.49948 0
M  V30 4397 O 413.398 -0.130781 -1.80828 0
M  V30 4398 C 413.446 -3.50554 -0.845237 0
M  V30 4399 O 412.55 -3.63173 -1.95394 0
M  V30 4400 H 411.891 -0.659257 -0.0792243 0
M  V30 4401 H 414.421 -2.00903 0.387212 0
M  V30 4402 H 414.431 -3.91588 -1.14555 0
M  V30 4403 H 413.106 -4.15896 -0.0191259 0
M  V30 4404 H 411.683 -3.34039 -1.65748 0
M  V30 4405 N 413.868 0.0150385 -1.57593 0
M  V30 4406 C 415.114 0.704043 -1.90187 0
M  V30 4407 C 415.447 1.74249 -0.857366 0
M  V30 4408 O 414.722 1.94092 0.125843 0
M  V30 4409 C 415.005 1.36087 -3.33395 0
M  V30 4410 C 414.858 0.334981 -4.48551 0
M  V30 4411 C 416.177 2.29112 -3.7576 0
M  V30 4412 H 413.296 0.254475 -0.691673 0
M  V30 4413 H 415.938 -0.0331678 -1.89971 0
M  V30 4414 H 414.088 1.98922 -3.3371 0
M  V30 4415 H 415.76 -0.292534 -4.60372 0
M  V30 4416 H 414.003 -0.344325 -4.32431 0
M  V30 4417 H 414.674 0.833316 -5.45674 0
M  V30 4418 H 417.15 1.76308 -3.76902 0
M  V30 4419 H 416.026 2.72043 -4.76743 0
M  V30 4420 H 416.287 3.16385 -3.08793 0
M  V30 4421 N 415.346 1.54954 0.287554 0
M  V30 4422 C 416.309 1.86076 1.33823 0
M  V30 4423 C 417.309 0.734414 1.43049 0
M  V30 4424 O 418.499 1.00266 1.42452 0
M  V30 4425 C 415.631 2.05305 2.72144 0
M  V30 4426 H 416.824 2.79984 1.07465 0
M  V30 4427 H 414.377 1.47223 0.524902 0
M  V30 4428 H 415.112 1.1373 3.03704 0
M  V30 4429 H 414.897 2.873 2.66836 0
M  V30 4430 H 416.387 2.30706 3.48087 0
M  V30 4431 N 416.824 -0.551391 1.4764 0
M  V30 4432 C 418.101 -1.31229 1.45046 0
M  V30 4433 C 418.481 -2.10563 0.150527 0
M  V30 4434 O 417.829 -2.11374 -0.867956 0
M  V30 4435 C 418.039 -2.21189 2.69956 0
M  V30 4436 C 419.387 -2.82021 3.1741 0
M  V30 4437 O 420.411 -2.31488 2.70724 0
M  V30 4438 O 419.27 -3.73885 3.98588 0
M  V30 4439 H 416.364 -0.591193 0.578291 0
M  V30 4440 H 418.91 -0.569813 1.59847 0
M  V30 4441 H 417.682 -1.62207 3.56096 0
M  V30 4442 H 417.305 -3.02722 2.57769 0
M  V30 4443 N 418.302 -1.35869 -0.798587 0
M  V30 4444 C 419.551 -1.28921 -1.5512 0
M  V30 4445 C 419.864 0.13208 -1.95154 0
M  V30 4446 O 421.07 0.323879 -2.69561 0
M  V30 4447 C 419.526 -2.26141 -2.79979 0
M  V30 4448 C 419.134 -3.73658 -2.47151 0
M  V30 4449 C 420.878 -2.28152 -3.57976 0
M  V30 4450 C 418.785 -4.62679 -3.6835 0
M  V30 4451 H 417.715 -0.479031 -0.582276 0
M  V30 4452 H 420.366 -1.61179 -0.877125 0
M  V30 4453 H 418.748 -1.86865 -3.49138 0
M  V30 4454 H 419.922 -4.21616 -1.85947 0
M  V30 4455 H 418.237 -3.74333 -1.82383 0
M  V30 4456 H 420.834 -2.91875 -4.4801 0
M  V30 4457 H 421.177 -1.28748 -3.95891 0
M  V30 4458 H 421.71 -2.65998 -2.95787 0
M  V30 4459 H 418.449 -5.63111 -3.35538 0
M  V30 4460 H 417.969 -4.19442 -4.28752 0
M  V30 4461 H 419.648 -4.78498 -4.35487 0
M  V30 4462 N 419.78 1.02168 -1.19998 0
M  V30 4463 C 420.71 2.12488 -0.96804 0
M  V30 4464 C 421.691 1.69799 0.101185 0
M  V30 4465 O 422.876 1.94121 -0.0552993 0
M  V30 4466 C 420.006 3.43479 -0.513776 0
M  V30 4467 C 418.96 3.99884 -1.52566 0
M  V30 4468 C 418.286 5.26582 -0.928214 0
M  V30 4469 C 419.586 4.33861 -2.90795 0
M  V30 4470 H 421.28 2.32149 -1.89069 0
M  V30 4471 H 418.826 1.11564 -0.910468 0
M  V30 4472 H 420.779 4.20036 -0.338774 0
M  V30 4473 H 419.503 3.23561 0.444493 0
M  V30 4474 H 418.162 3.25429 -1.68794 0
M  V30 4475 H 417.81 5.02986 0.0378289 0
M  V30 4476 H 417.51 5.65284 -1.60397 0
M  V30 4477 H 419.034 6.05799 -0.764167 0
M  V30 4478 H 420.448 5.01327 -2.78109 0
M  V30 4479 H 418.845 4.83664 -3.55231 0
M  V30 4480 H 419.915 3.42848 -3.42904 0
M  V30 4481 N 421.258 1.00505 1.21394 0
M  V30 4482 C 422.674 0.717873 1.42544 0
M  V30 4483 C 422.874 -0.706936 1.88692 0
M  V30 4484 O 421.93 -1.47627 2.04847 0
M  V30 4485 C 423.243 1.73377 2.45684 0
M  V30 4486 C 424.791 1.75059 2.59467 0
M  V30 4487 C 425.266 2.75545 3.6584 0
M  V30 4488 N 426.757 2.74213 3.73311 0
M  V30 4489 C 427.492 3.48626 4.55245 0
M  V30 4490 N 426.988 4.32678 5.41075 0
M  V30 4491 N 428.781 3.37276 4.49668 0
M  V30 4492 H 420.932 1.92506 0.897503 0
M  V30 4493 H 423.195 0.830919 0.456375 0
M  V30 4494 H 422.901 2.75395 2.18748 0
M  V30 4495 H 422.775 1.53647 3.44489 0
M  V30 4496 H 425.162 0.737337 2.8574 0
M  V30 4497 H 425.243 1.98861 1.60897 0
M  V30 4498 H 424.887 3.77028 3.40313 0
M  V30 4499 H 424.817 2.49009 4.64007 0
M  V30 4500 H 427.308 2.13234 3.11993 0
M  V30 4501 H 427.621 4.86253 6.00648 0
M  V30 4502 H 425.966 4.3676 5.40616 0
M  V30 4503 H 429.157 2.71043 3.81646 0
M  V30 4504 H 429.33 3.95524 5.13288 0
M  V30 4505 N 422.737 -1.36956 0.779787 0
M  V30 4506 C 424.153 -1.52817 0.460342 0
M  V30 4507 C 424.353 -1.7361 -1.02283 0
M  V30 4508 O 423.409 -1.76207 -1.80852 0
M  V30 4509 C 424.722 -2.71983 1.28241 0
M  V30 4510 C 426.27 -2.85849 1.27512 0
M  V30 4511 C 426.745 -4.08008 2.08072 0
M  V30 4512 N 428.236 -4.15135 2.05467 0
M  V30 4513 C 428.971 -5.08711 2.64577 0
M  V30 4514 N 428.467 -6.07792 3.32506 0
M  V30 4515 N 430.26 -5.01254 2.54363 0
M  V30 4516 H 422.411 -1.21713 1.74068 0
M  V30 4517 H 424.674 -0.593294 0.739396 0
M  V30 4518 H 424.38 -2.63109 2.33381 0
M  V30 4519 H 424.254 -3.65882 0.917088 0
M  V30 4520 H 426.641 -2.94189 0.231686 0
M  V30 4521 H 426.722 -1.92886 1.68014 0
M  V30 4522 H 426.366 -4.00429 3.12441 0
M  V30 4523 H 426.296 -5.001 1.64947 0
M  V30 4524 H 428.787 -3.44189 1.5602 0
M  V30 4525 H 429.1 -6.75739 3.74963 0
M  V30 4526 H 427.445 -6.08047 3.36606 0
M  V30 4527 H 430.636 -4.22795 2.00902 0
M  V30 4528 H 430.809 -5.73995 3.00722 0
M  V30 4529 N 424.215 -0.530993 -1.48385 0
M  V30 4530 C 425.165 0.251092 -2.26613 0
M  V30 4531 C 426.149 0.908977 -1.32765 0
M  V30 4532 O 427.341 0.811616 -1.57295 0
M  V30 4533 C 424.47 1.29677 -3.17866 0
M  V30 4534 C 423.556 0.643627 -4.19188 0
M  V30 4535 N 423.947 -0.271223 -5.05072 0
M  V30 4536 C 422.245 0.900711 -4.3681 0
M  V30 4537 C 422.946 -0.648109 -5.78078 0
M  V30 4538 N 421.922 -0.00895987 -5.43599 0
M  V30 4539 H 425.724 -0.452702 -2.90393 0
M  V30 4540 H 423.238 -0.349091 -1.58604 0
M  V30 4541 H 425.235 1.87079 -3.72568 0
M  V30 4542 H 423.895 2.00193 -2.55642 0
M  V30 4543 H 424.906 -0.643883 -5.13882 0
M  V30 4544 H 421.583 1.59636 -3.85775 0
M  V30 4545 H 422.973 -1.39833 -6.57188 0
M  V30 4546 N 425.693 1.55336 -0.266172 0
M  V30 4547 C 426.643 2.18848 0.639497 0
M  V30 4548 C 427.627 1.1503 1.12503 0
M  V30 4549 O 428.819 1.40875 1.0716 0
M  V30 4550 C 425.948 2.90626 1.82733 0
M  V30 4551 C 425.034 4.01723 1.35939 0
M  V30 4552 N 425.425 5.02145 0.606988 0
M  V30 4553 C 423.723 4.1463 1.6431 0
M  V30 4554 C 424.424 5.80572 0.362138 0
M  V30 4555 N 423.4 5.35551 0.931971 0
M  V30 4556 H 427.202 2.93845 0.0567057 0
M  V30 4557 H 424.716 1.62252 -0.0693312 0
M  V30 4558 H 426.713 3.34569 2.48735 0
M  V30 4559 H 425.373 2.17137 2.41416 0
M  V30 4560 H 426.384 5.17271 0.255198 0
M  V30 4561 H 423.061 3.52326 2.23993 0
M  V30 4562 H 424.451 6.71472 -0.239848 0
M  V30 4563 N 427.171 -0.0066808 1.57599 0
M  V30 4564 C 428.101 -0.999296 2.11036 0
M  V30 4565 C 429.082 -1.36278 1.01795 0
M  V30 4566 O 430.267 -1.4477 1.29442 0
M  V30 4567 C 427.397 -2.29328 2.60818 0
M  V30 4568 C 426.351 -2.07159 3.74525 0
M  V30 4569 C 425.677 -3.42512 4.10596 0
M  V30 4570 C 426.977 -1.43959 5.02069 0
M  V30 4571 H 428.671 -0.554382 2.94223 0
M  V30 4572 H 426.217 -0.265221 1.41536 0
M  V30 4573 H 428.17 -2.99117 2.96828 0
M  V30 4574 H 426.894 -2.7592 1.74745 0
M  V30 4575 H 425.553 -1.39797 3.38899 0
M  V30 4576 H 425.201 -3.86795 3.21556 0
M  V30 4577 H 424.901 -3.28498 4.87199 0
M  V30 4578 H 426.425 -4.13628 4.4916 0
M  V30 4579 H 427.839 -2.03696 5.35893 0
M  V30 4580 H 426.236 -1.40452 5.83432 0
M  V30 4581 H 427.306 -0.407992 4.83181 0
M  V30 4582 N 428.649 -1.55105 -0.279332 0
M  V30 4583 C 429.612 -1.86783 -1.32834 0
M  V30 4584 C 430.612 -0.74199 -1.42657 0
M  V30 4585 O 431.802 -1.0102 -1.41918 0
M  V30 4586 C 428.934 -2.06746 -2.71052 0
M  V30 4587 H 430.127 -2.8055 -1.05979 0
M  V30 4588 H 427.68 -1.47499 -0.517087 0
M  V30 4589 H 428.415 -1.15339 -3.03097 0
M  V30 4590 H 428.2 -2.88711 -2.65309 0
M  V30 4591 H 429.69 -2.32549 -3.46858 0
M  V30 4592 N 430.127 0.543554 -1.4793 0
M  V30 4593 C 431.375 1.29752 -1.54948 0
M  V30 4594 C 431.696 1.93764 -0.219242 0
M  V30 4595 O 430.966 1.80639 0.75805 0
M  V30 4596 H 429.546 0.481874 -0.570795 0
M  V30 4597 H 432.208 0.633636 -1.84312 0
M  V30 4598 H 431.304 2.08392 -2.32334 0
M  V30 4599 N 431.605 1.3629 0.791371 0
M  V30 4600 C 433.021 1.16661 1.08914 0
M  V30 4601 C 433.221 -0.0106266 2.01497 0
M  V30 4602 O 432.277 -0.676596 2.43266 0
M  V30 4603 C 433.59 2.47656 1.70549 0
M  V30 4604 C 435.138 2.54002 1.82899 0
M  V30 4605 C 435.613 3.85078 2.47949 0
M  V30 4606 N 437.104 3.86413 2.5542 0
M  V30 4607 C 437.839 4.84572 3.06557 0
M  V30 4608 N 437.335 5.93124 3.58016 0
M  V30 4609 N 439.128 4.71994 3.05251 0
M  V30 4610 H 431.279 2.11668 0.176238 0
M  V30 4611 H 433.542 0.937486 0.140796 0
M  V30 4612 H 433.248 3.34059 1.09989 0
M  V30 4613 H 433.122 2.63319 2.70079 0
M  V30 4614 H 435.509 1.68018 2.42598 0
M  V30 4615 H 435.59 2.42239 0.821808 0
M  V30 4616 H 435.234 4.71467 1.88895 0
M  V30 4617 H 435.164 3.94135 3.49235 0
M  V30 4618 H 437.655 3.07988 2.18979 0
M  V30 4619 H 437.968 6.63999 3.95381 0
M  V30 4620 H 436.313 5.96796 3.56173 0
M  V30 4621 H 439.504 3.86321 2.64336 0
M  V30 4622 H 439.677 5.48653 3.44796 0
M  V30 4623 N 433.083 -1.0153 1.20538 0
M  V30 4624 C 434.03 -2.10098 0.955383 0
M  V30 4625 C 435 -1.65702 -0.114878 0
M  V30 4626 O 436.185 -1.90776 0.0301118 0
M  V30 4627 C 433.325 -3.41236 0.514969 0
M  V30 4628 C 432.438 -3.99102 1.65353 0
M  V30 4629 C 431.573 -5.18306 1.16329 0
M  V30 4630 C 430.612 -5.68258 2.27485 0
M  V30 4631 N 429.749 -6.78722 1.7967 0
M  V30 4632 H 434.589 -2.30818 1.88486 0
M  V30 4633 H 432.126 -1.13189 0.939499 0
M  V30 4634 H 434.084 -4.16504 0.240935 0
M  V30 4635 H 432.714 -3.20585 -0.377512 0
M  V30 4636 H 431.766 -3.20918 2.04245 0
M  V30 4637 H 433.078 -4.32177 2.49047 0
M  V30 4638 H 432.232 -6.00782 0.845302 0
M  V30 4639 H 430.971 -4.86799 0.296254 0
M  V30 4640 H 429.976 -4.84385 2.60099 0
M  V30 4641 H 431.201 -6.01798 3.14667 0
M  V30 4642 H 429.147 -6.49042 0.95295 0
M  V30 4643 H 429.064 -7.10996 2.56944 0
M  V30 4644 H 430.332 -7.64759 1.50875 0
M  V30 4645 N 434.561 -1.01147 -1.20859 0
M  V30 4646 C 435.491 -0.597663 -2.25722 0
M  V30 4647 C 436.472 0.384744 -1.65692 0
M  V30 4648 O 437.657 0.271303 -1.92296 0
M  V30 4649 C 434.787 0.0700149 -3.47229 0
M  V30 4650 C 433.741 -0.832843 -4.19819 0
M  V30 4651 C 433.067 -0.0312202 -5.34691 0
M  V30 4652 C 434.367 -2.1385 -4.76514 0
M  V30 4653 H 436.061 -1.47423 -2.60589 0
M  V30 4654 H 433.607 -0.710301 -1.25263 0
M  V30 4655 H 435.56 0.37103 -4.19763 0
M  V30 4656 H 434.284 0.981259 -3.11511 0
M  V30 4657 H 432.943 -1.11778 -3.49144 0
M  V30 4658 H 432.591 0.881515 -4.95215 0
M  V30 4659 H 432.291 -0.632434 -5.84187 0
M  V30 4660 H 433.815 0.26346 -6.10031 0
M  V30 4661 H 435.229 -1.9002 -5.40893 0
M  V30 4662 H 433.626 -2.69012 -5.36426 0
M  V30 4663 H 434.696 -2.80495 -3.95538 0
M  V30 4664 N 436.039 1.36541 -0.78704 0
M  V30 4665 C 436.989 2.27459 -0.156957 0
M  V30 4666 C 437.973 1.46843 0.657709 0
M  V30 4667 O 439.165 1.69245 0.518173 0
M  V30 4668 C 436.294 3.35893 0.709278 0
M  V30 4669 C 435.38 4.23947 -0.114049 0
M  V30 4670 N 435.771 4.92145 -1.16736 0
M  V30 4671 C 434.069 4.4587 0.107497 0
M  V30 4672 C 434.77 5.57261 -1.66837 0
M  V30 4673 N 433.746 5.3473 -0.977992 0
M  V30 4674 H 437.548 2.77669 -0.963185 0
M  V30 4675 H 435.062 1.49839 -0.62627 0
M  V30 4676 H 437.059 3.99953 1.17656 0
M  V30 4677 H 435.719 2.87238 1.51408 0
M  V30 4678 H 436.73 4.94169 -1.54976 0
M  V30 4679 H 433.407 4.08056 0.882994 0
M  V30 4680 H 434.797 6.21728 -2.54762 0
M  V30 4681 N 437.518 0.538854 1.48102 0
M  V30 4682 C 438.428 -0.222648 2.33541 0
M  V30 4683 C 439.444 -0.930225 1.47047 0
M  V30 4684 O 440.62 -0.903211 1.80011 0
M  V30 4685 C 437.685 -1.25064 3.23357 0
M  V30 4686 C 436.746 -0.552469 4.2573 0
M  V30 4687 C 435.979 -1.53149 5.11254 0
M  V30 4688 O 436.202 -2.76487 4.9891 0
M  V30 4689 O 435.136 -1.06602 5.92385 0
M  V30 4690 H 438.962 0.477707 2.99919 0
M  V30 4691 H 436.547 0.299669 1.46364 0
M  V30 4692 H 438.429 -1.8445 3.78888 0
M  V30 4693 H 437.104 -1.93325 2.59629 0
M  V30 4694 H 436.011 0.082114 3.7401 0
M  V30 4695 H 437.344 0.0883526 4.92121 0
M  V30 4696 N 438.996 -1.55193 0.274407 0
M  V30 4697 C 439.926 -2.25471 -0.607032 0
M  V30 4698 C 440.907 -1.24461 -1.15946 0
M  V30 4699 O 442.092 -1.53179 -1.19373 0
M  V30 4700 C 439.222 -2.97526 -1.79153 0
M  V30 4701 C 438.176 -4.05459 -1.37067 0
M  V30 4702 C 437.502 -4.65084 -2.6382 0
M  V30 4703 C 438.802 -5.19691 -0.521389 0
M  V30 4704 H 440.496 -2.99393 -0.0209343 0
M  V30 4705 H 438.042 -1.43997 -0.00862866 0
M  V30 4706 H 439.995 -3.45402 -2.41404 0
M  V30 4707 H 438.719 -2.21138 -2.40344 0
M  V30 4708 H 437.378 -3.58393 -0.771355 0
M  V30 4709 H 437.026 -3.85365 -3.23268 0
M  V30 4710 H 436.726 -5.37961 -2.36372 0
M  V30 4711 H 438.25 -5.15708 -3.26921 0
M  V30 4712 H 439.664 -5.63623 -1.04889 0
M  V30 4713 H 438.061 -5.99126 -0.341825 0
M  V30 4714 H 439.131 -4.82713 0.46 0
M  V30 4715 N 440.474 -0.00167713 -1.576 0
M  V30 4716 C 441.437 0.974046 -2.07473 0
M  V30 4717 C 442.437 1.27143 -0.984444 0
M  V30 4718 O 443.627 1.21633 -1.24703 0
M  V30 4719 C 440.759 2.29849 -2.51759 0
M  V30 4720 H 441.952 0.54262 -2.9495 0
M  V30 4721 H 439.505 0.245829 -1.54355 0
M  V30 4722 H 440.24 2.77677 -1.67529 0
M  V30 4723 H 440.025 2.09584 -3.31386 0
M  V30 4724 H 441.515 2.9984 -2.90664 0
M  V30 4725 N 441.952 1.55251 0.271103 0
M  V30 4726 C 443.229 1.66664 1.02384 0
M  V30 4727 C 443.609 0.534363 2.04225 0
M  V30 4728 O 442.957 -0.465337 2.23712 0
M  V30 4729 C 443.167 3.05961 1.67895 0
M  V30 4730 C 444.515 3.63772 2.18986 0
M  V30 4731 O 445.539 3.08606 1.77878 0
M  V30 4732 O 444.398 4.60429 2.94393 0
M  V30 4733 H 441.492 0.676957 0.475035 0
M  V30 4734 H 444.038 1.67589 0.26681 0
M  V30 4735 H 442.81 3.79815 0.941071 0
M  V30 4736 H 442.433 3.08943 2.5028 0
M  V30 4737 N 443.43 -0.535701 1.48216 0
M  V30 4738 C 444.66 -1.3148 1.59363 0
M  V30 4739 C 445.068 -1.8753 0.250844 0
M  V30 4740 O 444.411 -1.66821 -0.769174 0
M  V30 4741 C 444.473 -2.50731 2.57632 0
M  V30 4742 C 444.137 -2.15811 4.02833 0
M  V30 4743 C 445.134 -1.71822 4.90686 0
M  V30 4744 C 442.819 -2.26509 4.48329 0
M  V30 4745 C 444.813 -1.3899 6.22062 0
M  V30 4746 C 442.5 -1.93289 5.79726 0
M  V30 4747 C 443.498 -1.49599 6.66415 0
M  V30 4748 O 443.186 -1.16812 7.95368 0
M  V30 4749 H 442.918 -0.406315 0.540263 0
M  V30 4750 H 445.472 -0.653569 1.94725 0
M  V30 4751 H 443.702 -3.19817 2.1738 0
M  V30 4752 H 445.391 -3.12797 2.58675 0
M  V30 4753 H 446.157 -1.63031 4.56778 0
M  V30 4754 H 442.036 -2.59471 3.81045 0
M  V30 4755 H 445.58 -1.04816 6.89681 0
M  V30 4756 H 441.477 -2.01718 6.13172 0
M  V30 4757 H 442.245 -1.30259 8.08069 0
M  V30 4758 N 444.908 -1.36708 -0.784132 0
M  V30 4759 C 445.818 -1.3363 -1.92822 0
M  V30 4760 C 446.834 -0.237686 -1.72369 0
M  V30 4761 O 448.01 -0.470962 -1.95816 0
M  V30 4762 C 445.075 -1.13011 -3.27764 0
M  V30 4763 C 444.136 -2.32397 -3.60957 0
M  V30 4764 C 443.369 -2.12752 -4.89461 0
M  V30 4765 O 443.592 -1.10541 -5.59586 0
M  V30 4766 O 442.526 -3.00653 -5.21432 0
M  V30 4767 H 446.352 -2.29964 -1.98369 0
M  V30 4768 H 443.937 -1.1731 -0.925136 0
M  V30 4769 H 445.819 -1.03451 -4.08504 0
M  V30 4770 H 444.494 -0.19743 -3.23097 0
M  V30 4771 H 443.401 -2.47527 -2.80502 0
M  V30 4772 H 444.734 -3.2419 -3.70354 0
M  V30 4773 N 446.386 1.0089 -1.21074 0
M  V30 4774 C 447.632 1.74866 -1.02712 0
M  V30 4775 C 447.965 1.89178 0.438787 0
M  V30 4776 O 447.24 1.42325 1.32567 0
M  V30 4777 C 447.523 3.16347 -1.72036 0
M  V30 4778 C 447.376 3.09782 -3.26121 0
M  V30 4779 C 448.695 4.15187 -1.45973 0
M  V30 4780 H 445.814 0.634736 -0.374539 0
M  V30 4781 H 448.456 1.17646 -1.49196 0
M  V30 4782 H 446.606 3.65201 -1.32517 0
M  V30 4783 H 448.278 2.68673 -3.74983 0
M  V30 4784 H 446.521 2.46982 -3.56626 0
M  V30 4785 H 447.192 4.09829 -3.6979 0
M  V30 4786 H 449.668 3.75022 -1.80272 0
M  V30 4787 H 448.544 5.12331 -1.96999 0
M  V30 4788 H 448.805 4.40386 -0.388924 0
M  V30 4789 N 447.864 1.01787 1.20321 0
M  V30 4790 C 449.113 0.703249 1.89043 0
M  V30 4791 C 449.426 -0.770445 1.79787 0
M  V30 4792 O 450.632 -1.19767 2.43656 0
M  V30 4793 C 449.088 1.20749 3.3904 0
M  V30 4794 C 448.696 2.70817 3.56878 0
M  V30 4795 C 450.44 0.968352 4.13308 0
M  V30 4796 C 448.347 3.14716 5.00708 0
M  V30 4797 H 447.277 0.259354 0.707991 0
M  V30 4798 H 449.928 1.23072 1.36108 0
M  V30 4799 H 448.31 0.607989 3.91305 0
M  V30 4800 H 449.484 3.36327 3.14993 0
M  V30 4801 H 447.799 2.92888 2.95983 0
M  V30 4802 H 450.396 1.27173 5.19356 0
M  V30 4803 H 450.739 -0.095149 4.16191 0
M  V30 4804 H 451.272 1.53129 3.67146 0
M  V30 4805 H 448.011 4.20347 5.02979 0
M  V30 4806 H 447.531 2.53927 5.43398 0
M  V30 4807 H 449.21 3.07426 5.69296 0
M  V30 4808 N 449.342 -1.36122 0.79427 0
M  V30 4809 C 450.274 -2.28683 0.153903 0
M  V30 4810 C 451.287 -1.49707 -0.639669 0
M  V30 4811 O 452.476 -1.7209 -0.474054 0
M  V30 4812 C 449.576 -3.29202 -0.804921 0
M  V30 4813 C 448.749 -4.37358 -0.060366 0
M  V30 4814 C 447.808 -5.17811 -0.935849 0
M  V30 4815 O 446.834 -5.67853 -0.391309 0
M  V30 4816 N 448.036 -5.34721 -2.25951 0
M  V30 4817 H 450.801 -2.84278 0.949008 0
M  V30 4818 H 448.362 -1.4834 0.648611 0
M  V30 4819 H 450.354 -3.79914 -1.39455 0
M  V30 4820 H 448.924 -2.74212 -1.50088 0
M  V30 4821 H 448.144 -3.87746 0.710382 0
M  V30 4822 H 449.432 -5.06777 0.45324 0
M  V30 4823 H 448.83 -4.95687 -2.72601 0
M  V30 4824 H 447.387 -5.88657 -2.79867 0
M  V30 4825 N 450.82 -0.546701 -1.47814 0
M  V30 4826 C 451.75 0.195317 -2.32682 0
M  V30 4827 C 452.731 0.918981 -1.43139 0
M  V30 4828 O 453.916 0.901501 -1.72008 0
M  V30 4829 C 451.046 1.23237 -3.247 0
M  V30 4830 C 450 0.625818 -4.234 0
M  V30 4831 C 449.326 1.76674 -5.04669 0
M  V30 4832 C 450.626 -0.413515 -5.2066 0
M  V30 4833 H 452.32 -0.513184 -2.94969 0
M  V30 4834 H 449.866 -0.248241 -1.41844 0
M  V30 4835 H 451.819 1.75955 -3.82907 0
M  V30 4836 H 450.543 1.97067 -2.60446 0
M  V30 4837 H 449.202 0.120023 -3.66403 0
M  V30 4838 H 448.85 2.49383 -4.36826 0
M  V30 4839 H 448.55 1.36673 -5.71484 0
M  V30 4840 H 450.074 2.29738 -5.65732 0
M  V30 4841 H 451.488 0.0272042 -5.73294 0
M  V30 4842 H 449.885 -0.731825 -5.95621 0
M  V30 4843 H 450.955 -1.31325 -4.66778 0
M  V30 4844 N 452.299 1.55045 -0.282633 0
M  V30 4845 C 453.247 2.24254 0.617478 0
M  V30 4846 C 454.241 1.24215 1.15183 0
M  V30 4847 O 455.447 1.42123 1.10459 0
M  V30 4848 H 451.822 0.719801 0.217693 0
M  V30 4849 H 453.793 2.98398 0.0110076 0
M  V30 4850 C 452.542 2.98281 1.78672 0
M  V30 4851 H 451.865 3.75053 1.38475 0
M  V30 4852 H 453.305 3.50017 2.393 0
M  V30 4853 C 451.764 2.04184 2.67975 0
M  V30 4854 O 452.294 1.59792 3.6855 0
M  V30 4855 N 450.5 1.70526 2.35307 0
M  V30 4856 H 450.047 2.06821 1.53567 0
M  V30 4857 H 450.005 1.07839 2.95327 0
M  V30 4858 N 453.777 0.010035 1.57597 0
M  V30 4859 C 455.054 -0.710296 1.82248 0
M  V30 4860 C 455.434 -1.91426 0.889911 0
M  V30 4861 O 454.782 -2.28424 -0.0590292 0
M  V30 4862 C 454.992 -1.10655 3.30993 0
M  V30 4863 C 456.34 -1.50621 3.96987 0
M  V30 4864 O 457.364 -1.20007 3.35375 0
M  V30 4865 O 456.223 -2.07587 5.05539 0
M  V30 4866 H 453.317 -0.34673 0.750804 0
M  V30 4867 H 455.863 0.0362578 1.69661 0
M  V30 4868 H 454.635 -0.248826 3.90508 0
M  V30 4869 H 454.258 -1.91189 3.48615 0
M  V30 4870 N 455.255 -1.55392 -0.262866 0
M  V30 4871 C 456.483 -1.80513 -1.01108 0
M  V30 4872 C 456.898 -0.583533 -1.79556 0
M  V30 4873 O 456.255 0.447585 -1.76926 0
M  V30 4874 C 456.306 -3.03648 -1.96164 0
M  V30 4875 O 456.027 -4.2109 -1.20893 0
M  V30 4876 C 457.528 -3.41448 -2.82715 0
M  V30 4877 H 454.748 -0.601079 -0.298236 0
M  V30 4878 H 457.292 -2.02425 -0.290582 0
M  V30 4879 H 455.447 -2.83832 -2.63663 0
M  V30 4880 H 455.861 -4.90771 -1.85051 0
M  V30 4881 H 457.335 -4.30751 -3.45192 0
M  V30 4882 H 457.812 -2.61308 -3.53008 0
M  V30 4883 H 458.418 -3.63559 -2.20693 0
M  V30 4884 N 456.733 0.527833 -1.48498 0
M  V30 4885 C 457.683 1.62844 -1.5958 0
M  V30 4886 C 458.667 1.54397 -0.452809 0
M  V30 4887 O 459.859 1.62381 -0.704364 0
M  V30 4888 C 456.988 3.01557 -1.64067 0
M  V30 4889 C 456.074 3.151 -2.83853 0
M  V30 4890 N 456.465 2.9861 -4.08247 0
M  V30 4891 C 454.763 3.46158 -2.8123 0
M  V30 4892 C 455.464 3.15626 -4.88626 0
M  V30 4893 N 454.44 3.43298 -4.21483 0
M  V30 4894 H 458.242 1.48708 -2.53502 0
M  V30 4895 H 455.756 0.733343 -1.44899 0
M  V30 4896 H 457.753 3.8062 -1.70101 0
M  V30 4897 H 456.413 3.16783 -0.712636 0
M  V30 4898 H 457.424 2.75329 -4.3865 0
M  V30 4899 H 454.101 3.67728 -1.97692 0
M  V30 4900 H 455.491 3.07596 -5.97356 0
M  V30 4901 N 458.211 1.37122 0.776871 0
M  V30 4902 C 459.622 1.28667 1.35284 0
M  V30 4903 C 459.973 -0.0680035 1.96082 0
M  V30 4904 O 459.098 -0.969743 1.93455 0
M  V30 4905 C 459.693 2.32997 2.45963 0
M  V30 4906 C 458.252 2.28191 2.99342 0
M  V30 4907 C 457.399 2.17101 1.72517 0
M  V30 4908 H 460.35 1.47819 0.577527 0
M  V30 4909 H 460.371 1.97366 3.2531 0
M  V30 4910 H 459.883 3.3158 2.01684 0
M  V30 4911 H 457.984 1.33115 3.4801 0
M  V30 4912 H 458.097 3.21397 3.55304 0
M  V30 4913 H 456.461 1.63562 1.95242 0
M  V30 4914 H 457.244 3.17591 1.30348 0
M  V30 4915 N 459.689 -1.00246 1.21608 0
M  V30 4916 C 460.917 -1.77631 1.06089 0
M  V30 4917 C 461.332 -1.84746 -0.38916 0
M  V30 4918 O 460.689 -1.31068 -1.26994 0
M  V30 4919 C 460.74 -3.21415 1.65453 0
M  V30 4920 O 460.461 -3.14703 3.04785 0
M  V30 4921 C 461.962 -4.15289 1.55079 0
M  V30 4922 H 459.182 -0.558162 0.37242 0
M  V30 4923 H 461.726 -1.26093 1.60999 0
M  V30 4924 H 459.881 -3.70053 1.14629 0
M  V30 4925 H 460.295 -4.05056 3.33212 0
M  V30 4926 H 461.769 -5.13965 2.01355 0
M  V30 4927 H 462.246 -4.36279 0.505665 0
M  V30 4928 H 462.852 -3.72543 2.05163 0
M  V30 4929 N 461.167 -1.02423 -1.1978 0
M  V30 4930 C 462.416 -0.713265 -1.88667 0
M  V30 4931 C 462.729 0.7609 -1.80193 0
M  V30 4932 O 463.935 1.18473 -2.44288 0
M  V30 4933 C 462.391 -1.22545 -3.38394 0
M  V30 4934 C 461.999 -2.72706 -3.55437 0
M  V30 4935 C 463.743 -0.990257 -4.12788 0
M  V30 4936 C 461.65 -3.17367 -4.99031 0
M  V30 4937 H 460.58 -0.263105 -0.706606 0
M  V30 4938 H 463.231 -1.23792 -1.35454 0
M  V30 4939 H 461.613 -0.628732 -3.90977 0
M  V30 4940 H 462.787 -3.37993 -3.13205 0
M  V30 4941 H 461.102 -2.94453 -2.94425 0
M  V30 4942 H 463.699 -1.29926 -5.18675 0
M  V30 4943 H 464.042 0.0730761 -4.16236 0
M  V30 4944 H 464.575 -1.55074 -3.66329 0
M  V30 4945 H 461.314 -4.23009 -5.00743 0
M  V30 4946 H 460.834 -2.56805 -5.42044 0
M  V30 4947 H 462.513 -3.10441 -5.67658 0
M  V30 4948 N 462.645 1.35699 -0.801477 0
M  V30 4949 C 463.608 2.28199 -0.213994 0
M  V30 4950 C 464.608 1.49359 0.595691 0
M  V30 4951 O 465.798 1.69186 0.414921 0
M  V30 4952 C 462.93 3.33587 0.702297 0
M  V30 4953 H 464.123 2.81666 -1.02976 0
M  V30 4954 H 461.676 1.45467 -0.571759 0
M  V30 4955 H 462.411 2.85297 1.54195 0
M  V30 4956 H 462.196 3.91906 0.123484 0
M  V30 4957 H 463.686 4.02638 1.10783 0
M  V30 4958 N 464.123 0.554532 1.47522 0
M  V30 4959 C 465.372 0.0273458 2.01681 0
M  V30 4960 C 465.685 -1.32962 1.43459 0
M  V30 4961 O 466.891 -1.94657 1.89265 0
M  V30 4962 C 465.347 -0.00159057 3.599 0
M  V30 4963 C 464.955 1.35197 4.27113 0
M  V30 4964 C 466.699 -0.476311 4.21819 0
M  V30 4965 C 464.606 1.28229 5.77331 0
M  V30 4966 H 463.536 0.00645269 0.753972 0
M  V30 4967 H 466.187 0.701985 1.69542 0
M  V30 4968 H 464.569 -0.741821 3.8899 0
M  V30 4969 H 465.743 2.1097 4.09668 0
M  V30 4970 H 464.058 1.76441 3.77171 0
M  V30 4971 H 466.655 -0.5468 5.31897 0
M  V30 4972 H 466.998 -1.4877 3.8881 0
M  V30 4973 H 467.531 0.20898 3.97251 0
M  V30 4974 H 464.27 2.26959 6.14955 0
M  V30 4975 H 463.79 0.566314 5.97121 0
M  V30 4976 H 465.469 0.983226 6.39485 0
M  V30 4977 N 465.601 -1.54893 0.290851 0
M  V30 4978 C 467.012 -1.85584 -0.203816 0
M  V30 4979 C 467.363 -1.21285 -1.54222 0
M  V30 4980 O 466.488 -0.506841 -2.10381 0
M  V30 4981 C 467.083 -3.367 -0.376595 0
M  V30 4982 C 465.642 -3.6746 -0.815485 0
M  V30 4983 C 464.789 -2.77178 0.0821087 0
M  V30 4984 H 467.74 -1.50208 0.512175 0
M  V30 4985 H 467.761 -3.60656 -1.21275 0
M  V30 4986 H 467.273 -3.8347 0.59767 0
M  V30 4987 H 465.374 -3.26201 -1.80066 0
M  V30 4988 H 465.487 -4.7478 -0.641905 0
M  V30 4989 H 463.851 -2.50925 -0.436895 0
M  V30 4990 H 464.634 -3.26767 1.05254 0
M  V30 4991 N 467.08 -0.0183926 -1.57589 0
M  V30 4992 C 467.99 0.982943 -2.13015 0
M  V30 4993 C 469.006 1.36443 -1.07979 0
M  V30 4994 O 470.182 1.44802 -1.3998 0
M  V30 4995 C 467.247 2.25024 -2.63752 0
M  V30 4996 C 466.308 1.93018 -3.83461 0
M  V30 4997 C 465.541 3.13706 -4.31769 0
M  V30 4998 O 465.764 4.2601 -3.79305 0
M  V30 4999 O 464.698 2.96629 -5.23732 0
M  V30 5000 H 468.524 0.541709 -2.9883 0
M  V30 5001 H 466.109 0.201565 -1.48034 0
M  V30 5002 H 467.991 2.99441 -2.96502 0
M  V30 5003 H 466.666 2.68349 -1.81026 0
M  V30 5004 H 465.573 1.16019 -3.55655 0
M  V30 5005 H 466.906 1.54516 -4.67317 0
M  V30 5006 N 468.558 1.5553 0.254621 0
M  V30 5007 C 469.488 1.9268 1.31897 0
M  V30 5008 C 470.469 0.790797 1.506 0
M  V30 5009 O 471.654 1.05045 1.63337 0
M  V30 5010 C 468.784 2.21477 2.67517 0
M  V30 5011 C 467.738 3.37256 2.63519 0
M  V30 5012 C 467.064 3.51576 4.02862 0
M  V30 5013 C 468.364 4.73157 2.21179 0
M  V30 5014 H 470.058 2.81832 1.01051 0
M  V30 5015 H 467.604 1.35599 0.484662 0
M  V30 5016 H 469.557 2.46055 3.42104 0
M  V30 5017 H 468.281 1.29144 2.99982 0
M  V30 5018 H 466.94 3.12675 1.9139 0
M  V30 5019 H 466.588 2.56676 4.32581 0
M  V30 5020 H 466.288 4.2943 4.01078 0
M  V30 5021 H 467.812 3.78467 4.79161 0
M  V30 5022 H 469.226 4.97158 2.85494 0
M  V30 5023 H 467.623 5.54058 2.30521 0
M  V30 5024 H 468.693 4.70739 1.16332 0
M  V30 5025 N 470.036 -0.519951 1.48776 0
M  V30 5026 C 470.966 -1.63253 1.66945 0
M  V30 5027 C 471.947 -1.62014 0.518224 0
M  V30 5028 O 473.132 -1.79053 0.751919 0
M  V30 5029 C 470.262 -3.0181 1.71836 0
M  V30 5030 C 469.216 -3.17911 2.8656 0
M  V30 5031 C 468.542 -4.5763 2.76548 0
M  V30 5032 C 469.842 -2.99729 4.27738 0
M  V30 5033 H 471.536 -1.48302 2.6009 0
M  V30 5034 H 469.082 -0.712026 1.25165 0
M  V30 5035 H 471.035 -3.79525 1.83135 0
M  V30 5036 H 469.759 -3.17806 0.752775 0
M  V30 5037 H 468.418 -2.42616 2.74833 0
M  V30 5038 H 468.066 -4.70476 1.77937 0
M  V30 5039 H 467.766 -4.69346 3.53536 0
M  V30 5040 H 469.29 -5.37431 2.89828 0
M  V30 5041 H 470.704 -3.67228 4.40246 0
M  V30 5042 H 469.101 -3.22932 5.05801 0
M  V30 5043 H 470.171 -1.96047 4.43502 0
M  V30 5044 N 471.514 -1.37532 -0.769588 0
M  V30 5045 C 472.93 -1.18379 -1.07045 0
M  V30 5046 C 473.13 -0.0214312 -2.01489 0
M  V30 5047 O 472.186 0.637809 -2.44312 0
M  V30 5048 C 473.499 -2.50338 -1.66588 0
M  V30 5049 C 475.047 -2.56879 -1.78835 0
M  V30 5050 C 475.522 -3.88974 -2.41792 0
M  V30 5051 N 477.013 -3.90428 -2.4924 0
M  V30 5052 C 477.748 -4.89388 -2.98809 0
M  V30 5053 N 477.244 -5.98745 -3.48535 0
M  V30 5054 N 479.037 -4.76791 -2.97703 0
M  V30 5055 H 471.188 -2.11921 -0.142541 0
M  V30 5056 H 473.451 -0.939608 -0.125863 0
M  V30 5057 H 473.157 -3.35767 -1.0466 0
M  V30 5058 H 473.031 -2.67583 -2.65856 0
M  V30 5059 H 475.418 -1.71856 -2.39895 0
M  V30 5060 H 475.499 -2.43516 -0.783166 0
M  V30 5061 H 475.143 -4.74412 -1.81371 0
M  V30 5062 H 475.073 -3.99641 -3.4292 0
M  V30 5063 H 477.564 -3.11433 -2.14052 0
M  V30 5064 H 477.877 -6.70205 -3.84767 0
M  V30 5065 H 476.222 -6.02387 -3.46634 0
M  V30 5066 H 479.413 -3.90478 -2.58157 0
M  V30 5067 H 479.586 -5.54069 -3.36024 0
M  V30 5068 N 472.992 0.995999 -1.22138 0
M  V30 5069 C 474.238 1.73767 -1.04561 0
M  V30 5070 C 474.571 1.89633 0.418698 0
M  V30 5071 O 473.846 1.43723 1.3105 0
M  V30 5072 C 474.129 3.14505 -1.75382 0
M  V30 5073 C 473.982 3.06306 -3.29388 0
M  V30 5074 C 475.301 4.13615 -1.50369 0
M  V30 5075 H 472.42 0.630728 -0.38125 0
M  V30 5076 H 475.062 1.16057 -1.50435 0
M  V30 5077 H 473.212 3.63775 -1.36383 0
M  V30 5078 H 474.884 2.64681 -3.77812 0
M  V30 5079 H 473.127 2.43186 -3.59226 0
M  V30 5080 H 473.798 4.05884 -3.74116 0
M  V30 5081 H 476.274 3.73089 -1.84239 0
M  V30 5082 H 475.15 5.10212 -2.02421 0
M  V30 5083 H 475.411 4.39949 -0.435611 0
M  V30 5084 N 474.47 1.03057 1.19235 0
M  V30 5085 C 475.4 0.633497 2.24742 0
M  V30 5086 C 476.381 -0.358335 1.66283 0
M  V30 5087 O 477.566 -0.240676 1.92703 0
M  V30 5088 C 474.696 -0.0147648 3.47297 0
M  V30 5089 C 473.65 0.899527 4.18441 0
M  V30 5090 C 472.976 0.116281 5.34574 0
M  V30 5091 C 474.276 2.21404 4.73051 0
M  V30 5092 H 475.97 1.5155 2.58211 0
M  V30 5093 H 473.516 0.73014 1.24117 0
M  V30 5094 H 475.469 -0.304202 4.20301 0
M  V30 5095 H 474.193 -0.931577 3.13032 0
M  V30 5096 H 472.852 1.17319 3.47321 0
M  V30 5097 H 472.5 -0.802619 4.96555 0
M  V30 5098 H 472.2 0.725293 5.83107 0
M  V30 5099 H 473.724 -0.166376 6.10373 0
M  V30 5100 H 475.138 1.98601 5.37802 0
M  V30 5101 H 473.535 2.77512 5.32078 0
M  V30 5102 H 474.605 2.86752 3.91026 0
M  V30 5103 N 475.948 -1.35272 0.808662 0
M  V30 5104 C 477.197 -1.97963 0.386483 0
M  V30 5105 C 477.51 -1.64866 -1.05255 0
M  V30 5106 O 478.716 -2.20937 -1.57794 0
M  V30 5107 C 477.172 -3.54162 0.640096 0
M  V30 5108 C 476.78 -3.96166 2.0918 0
M  V30 5109 C 478.524 -4.23553 0.283376 0
M  V30 5110 C 476.431 -5.4522 2.29106 0
M  V30 5111 H 475.361 -0.740742 0.140774 0
M  V30 5112 H 478.012 -1.5431 0.993012 0
M  V30 5113 H 476.394 -3.95983 -0.0364117 0
M  V30 5114 H 477.568 -3.65491 2.80629 0
M  V30 5115 H 475.883 -3.3967 2.40859 0
M  V30 5116 H 478.48 -5.33124 0.410273 0
M  V30 5117 H 478.823 -4.09105 -0.770659 0
M  V30 5118 H 479.356 -3.8716 0.913884 0
M  V30 5119 H 476.095 -5.64638 3.32962 0
M  V30 5120 H 475.615 -5.77457 1.62184 0
M  V30 5121 H 477.294 -6.1171 2.1076 0
M  V30 5122 N 477.426 -0.562348 -1.47226 0
M  V30 5123 C 478.703 0.0256985 -1.95583 0
M  V30 5124 C 479.083 1.48032 -1.50498 0
M  V30 5125 O 478.431 2.15973 -0.746181 0
M  V30 5126 C 478.641 -0.125129 -3.48776 0
M  V30 5127 C 479.989 0.0175728 -4.24596 0
M  V30 5128 O 481.013 -0.0529341 -3.56161 0
M  V30 5129 O 479.872 0.170145 -5.46235 0
M  V30 5130 H 476.966 0.0612565 -0.824728 0
M  V30 5131 H 479.512 -0.629233 -1.57603 0
M  V30 5132 H 478.284 -1.13715 -3.74412 0
M  V30 5133 H 477.907 0.567178 -3.93534 0
M  V30 5134 N 478.904 1.54736 -0.299062 0
M  V30 5135 C 479.814 2.27127 0.587413 0
M  V30 5136 C 480.83 1.30575 1.15005 0
M  V30 5137 O 482.006 1.63554 1.17525 0
M  V30 5138 C 479.071 2.99645 1.74395 0
M  V30 5139 C 478.132 4.11731 1.21559 0
M  V30 5140 C 477.365 4.80781 2.317 0
M  V30 5141 O 477.588 4.4918 3.51558 0
M  V30 5142 O 476.522 5.68226 1.98501 0
M  V30 5143 H 480.348 3.037 0.000250109 0
M  V30 5144 H 477.933 1.49256 -0.0655919 0
M  V30 5145 H 479.815 3.45138 2.4178 0
M  V30 5146 H 478.49 2.25969 2.31775 0
M  V30 5147 H 477.397 3.70641 0.507514 0
M  V30 5148 H 478.73 4.87379 0.687233 0
M  V30 5149 N 480.382 0.0267497 1.57577 0
M  V30 5150 C 481.332 -0.965003 2.06571 0
M  V30 5151 C 482.316 -1.28694 0.965746 0
M  V30 5152 O 483.508 -1.27345 1.22932 0
M  V30 5153 C 480.637 -2.24821 2.59443 0
M  V30 5154 C 479.723 -1.95474 3.76365 0
M  V30 5155 N 480.114 -1.36387 4.87065 0
M  V30 5156 C 478.412 -2.25478 3.84806 0
M  V30 5157 C 479.113 -1.24119 5.68304 0
M  V30 5158 N 478.089 -1.7359 5.15138 0
M  V30 5159 H 481.891 -0.503095 2.89562 0
M  V30 5160 H 479.405 -0.178322 1.61418 0
M  V30 5161 H 481.402 -2.9674 2.92833 0
M  V30 5162 H 480.062 -2.7164 1.77881 0
M  V30 5163 H 481.073 -1.03919 5.07367 0
M  V30 5164 H 477.75 -2.74987 3.14147 0
M  V30 5165 H 479.14 -0.784504 6.67304 0
M  V30 5166 N 481.861 -1.55662 -0.24637 0
M  V30 5167 C 482.793 -1.86811 -1.32794 0
M  V30 5168 C 483.806 -0.754413 -1.44265 0
M  V30 5169 O 484.995 -1.03253 -1.45606 0
M  V30 5170 C 482.095 -2.0397 -2.70646 0
M  V30 5171 C 481.268 -3.34832 -2.81436 0
M  V30 5172 C 480.327 -3.41727 -4.00136 0
M  V30 5173 O 479.353 -4.14934 -3.89639 0
M  V30 5174 N 480.555 -2.71058 -5.1333 0
M  V30 5175 H 483.32 -2.80174 -1.06409 0
M  V30 5176 H 480.881 -1.55906 -0.43647 0
M  V30 5177 H 482.873 -2.05924 -3.48393 0
M  V30 5178 H 481.443 -1.1735 -2.89738 0
M  V30 5179 H 480.663 -3.4519 -1.90361 0
M  V30 5180 H 481.951 -4.21085 -2.85595 0
M  V30 5181 H 481.349 -2.11314 -5.2475 0
M  V30 5182 H 479.906 -2.78704 -5.89209 0
M  V30 5183 N 483.339 0.512053 -1.4905 0
M  V30 5184 C 484.272 1.63209 -1.59493 0
M  V30 5185 C 485.25 1.56407 -0.444481 0
M  V30 5186 O 486.434 1.76623 -0.658535 0
M  V30 5187 C 483.561 3.01685 -1.53961 0
M  V30 5188 C 482.607 3.26786 -2.74068 0
M  V30 5189 S 483.44 3.11107 -4.35859 0
M  V30 5190 C 484.596 4.51997 -4.32954 0
M  V30 5191 H 484.829 1.54104 -2.54243 0
M  V30 5192 H 482.362 0.696382 -1.37804 0
M  V30 5193 H 484.32 3.81538 -1.51455 0
M  V30 5194 H 482.981 3.08215 -0.605178 0
M  V30 5195 H 482.174 4.27849 -2.66386 0
M  V30 5196 H 481.776 2.54635 -2.73928 0
M  V30 5197 H 484.068 5.43871 -4.03993 0
M  V30 5198 H 485.011 4.64731 -5.34257 0
M  V30 5199 H 485.419 4.32159 -3.63178 0
M  V30 5200 N 484.817 1.37938 0.762283 0
M  V30 5201 C 486.042 1.37059 1.55659 0
M  V30 5202 C 486.467 -0.0396123 1.88058 0
M  V30 5203 O 485.825 -1.01929 1.49934 0
M  V30 5204 C 485.873 2.22494 2.83776 0
M  V30 5205 O 484.977 1.63607 3.78559 0
M  V30 5206 H 484.318 0.467892 0.47114 0
M  V30 5207 H 486.848 1.81587 0.942725 0
M  V30 5208 H 486.858 2.36045 3.32786 0
M  V30 5209 H 485.533 3.24993 2.59524 0
M  V30 5210 H 484.11 1.5915 3.37233 0
M  V30 5211 N 486.295 -0.989507 1.22664 0
M  V30 5212 C 487.541 -1.73298 1.06487 0
M  V30 5213 C 487.896 -1.88292 -0.395438 0
M  V30 5214 O 487.189 -1.41748 -1.28911 0
M  V30 5215 C 487.383 -3.13649 1.71345 0
M  V30 5216 C 487.212 -3.12341 3.23532 0
M  V30 5217 C 485.982 -3.18044 3.92653 0
M  V30 5218 C 488.18 -2.96226 4.20422 0
M  V30 5219 N 486.162 -3.06526 5.31898 0
M  V30 5220 C 487.533 -2.92773 5.4652 0
M  V30 5221 C 489.588 -2.80642 4.11271 0
M  V30 5222 C 488.291 -2.75332 6.64519 0
M  V30 5223 C 490.317 -2.64563 5.28924 0
M  V30 5224 C 489.679 -2.618 6.53942 0
M  V30 5225 H 485.778 -0.643643 0.444126 0
M  V30 5226 H 488.362 -1.17489 1.55256 0
M  V30 5227 H 486.533 -3.67694 1.25122 0
M  V30 5228 H 488.265 -3.76577 1.48229 0
M  V30 5229 H 485.02 -3.25861 3.43673 0
M  V30 5230 H 485.444 -3.04067 6.04874 0
M  V30 5231 H 490.086 -2.81574 3.15398 0
M  V30 5232 H 487.804 -2.73145 7.60538 0
M  V30 5233 H 491.39 -2.53482 5.23677 0
M  V30 5234 H 490.27 -2.49511 7.43447 0
M  V30 5235 N 487.773 -1.03688 -1.18687 0
M  V30 5236 C 489.05 -0.652397 -1.84399 0
M  V30 5237 C 489.43 0.868386 -1.92412 0
M  V30 5238 O 488.778 1.76832 -1.44716 0
M  V30 5239 C 488.988 -1.3238 -3.22919 0
M  V30 5240 C 490.336 -1.45216 -3.98996 0
M  V30 5241 O 491.36 -1.2816 -3.32345 0
M  V30 5242 O 490.219 -1.72975 -5.18403 0
M  V30 5243 H 487.313 -0.227793 -0.795009 0
M  V30 5244 H 489.859 -1.13553 -1.2611 0
M  V30 5245 H 488.631 -2.36202 -3.11968 0
M  V30 5246 H 488.254 -0.829039 -3.88861 0
M  V30 5247 N 489.251 1.34841 -0.815825 0
M  V30 5248 C 490.528 1.92908 -0.323416 0
M  V30 5249 C 490.908 1.74479 1.18828 0
M  V30 5250 O 490.256 1.11928 1.99209 0
M  V30 5251 C 490.466 3.40957 -0.744952 0
M  V30 5252 C 491.814 4.18107 -0.739716 0
M  V30 5253 O 492.838 3.49511 -0.68708 0
M  V30 5254 O 491.697 5.40517 -0.806456 0
M  V30 5255 H 488.791 0.822436 -0.0867646 0
M  V30 5256 H 491.337 1.4386 -0.90014 0
M  V30 5257 H 490.109 3.4814 -1.78646 0
M  V30 5258 H 489.732 3.97341 -0.143535 0
M  V30 5259 N 490.729 0.570148 1.46925 0
M  V30 5260 C 491.692 -0.159933 2.28641 0
M  V30 5261 C 492.692 -0.830638 1.37685 0
M  V30 5262 O 493.882 -0.684516 1.60187 0
M  V30 5263 C 491.014 -1.2354 3.17727 0
M  V30 5264 H 492.207 0.558035 2.94662 0
M  V30 5265 H 489.76 0.327603 1.52828 0
M  V30 5266 H 490.495 -1.98535 2.56426 0
M  V30 5267 H 490.28 -0.759125 3.84681 0
M  V30 5268 H 491.77 -1.74782 3.79264 0
M  V30 5269 N 492.207 -1.54576 0.307264 0
M  V30 5270 C 493.453 -2.01272 -0.293453 0
M  V30 5271 C 493.808 -1.19178 -1.51044 0
M  V30 5272 O 493.101 -0.261704 -1.89804 0
M  V30 5273 C 493.295 -3.50572 -0.695253 0
M  V30 5274 C 493.124 -4.47118 0.481249 0
M  V30 5275 C 491.894 -4.958 0.97524 0
M  V30 5276 C 494.092 -4.96853 1.32823 0
M  V30 5277 N 492.074 -5.76212 2.11785 0
M  V30 5278 C 493.445 -5.75028 2.31824 0
M  V30 5279 C 495.5 -4.79026 1.35788 0
M  V30 5280 C 494.203 -6.37276 3.33574 0
M  V30 5281 C 496.229 -5.42097 2.364 0
M  V30 5282 C 495.591 -6.2011 3.34129 0
M  V30 5283 H 491.69 -0.778709 -0.0716705 0
M  V30 5284 H 494.274 -1.89695 0.438602 0
M  V30 5285 H 492.445 -3.62427 -1.39647 0
M  V30 5286 H 494.177 -3.84056 -1.27604 0
M  V30 5287 H 490.932 -4.70405 0.549184 0
M  V30 5288 H 491.356 -6.21101 2.69375 0
M  V30 5289 H 495.998 -4.18288 0.616021 0
M  V30 5290 H 493.716 -6.97144 4.08676 0
M  V30 5291 H 497.302 -5.30229 2.39475 0
M  V30 5292 H 496.182 -6.68049 4.10707 0
M  V30 5293 N 493.685 -0.035106 -1.57561 0
M  V30 5294 C 494.648 0.929819 -2.09492 0
M  V30 5295 C 495.648 1.25026 -1.01119 0
M  V30 5296 O 496.838 1.18961 -1.27255 0
M  V30 5297 C 493.97 2.24457 -2.56577 0
M  V30 5298 H 495.163 0.479935 -2.96035 0
M  V30 5299 H 492.716 0.213033 -1.54841 0
M  V30 5300 H 493.451 2.74061 -1.73382 0
M  V30 5301 H 493.236 2.02508 -3.35757 0
M  V30 5302 H 494.726 2.93607 -2.96959 0
M  V30 5303 N 495.163 1.55791 0.238111 0
M  V30 5304 C 496.412 1.77234 0.962868 0
M  V30 5305 C 496.725 0.600661 1.86149 0
M  V30 5306 O 497.931 0.698315 2.62366 0
M  V30 5307 C 496.387 3.13808 1.76218 0
M  V30 5308 C 495.995 4.3865 0.910518 0
M  V30 5309 C 497.739 3.44585 2.47914 0
M  V30 5310 C 495.646 5.66252 1.70623 0
M  V30 5311 H 494.576 0.660731 0.36325 0
M  V30 5312 H 497.227 1.8221 0.217242 0
M  V30 5313 H 495.609 3.02963 2.55009 0
M  V30 5314 H 496.783 4.60507 0.164316 0
M  V30 5315 H 495.098 4.15271 0.30647 0
M  V30 5316 H 497.695 4.3714 3.07917 0
M  V30 5317 H 498.038 2.66314 3.19973 0
M  V30 5318 H 498.571 3.56685 1.76127 0
M  V30 5319 H 495.31 6.47369 1.02923 0
M  V30 5320 H 494.83 5.48483 2.42748 0
M  V30 5321 H 496.509 6.05829 2.27114 0
M  V30 5322 N 496.642 -0.504142 1.49319 0
M  V30 5323 C 497.87 -1.28256 1.62351 0
M  V30 5324 C 498.285 -1.86502 0.293682 0
M  V30 5325 O 497.642 -1.67678 -0.720449 0
M  V30 5326 C 497.693 -2.41507 2.68992 0
M  V30 5327 O 497.414 -1.85656 3.96817 0
M  V30 5328 C 498.915 -3.32929 2.927 0
M  V30 5329 H 496.135 -0.389115 0.546654 0
M  V30 5330 H 498.679 -0.605531 1.95329 0
M  V30 5331 H 496.834 -3.05046 2.38801 0
M  V30 5332 H 497.248 -2.59981 4.55533 0
M  V30 5333 H 498.722 -4.0868 3.71058 0
M  V30 5334 H 499.199 -3.89733 2.02496 0
M  V30 5335 H 499.805 -2.75158 3.24296 0
M  V30 5336 N 498.12 -1.38341 -0.754957 0
M  V30 5337 C 499.345 -1.37882 -1.5493 0
M  V30 5338 C 499.77 0.0296385 -1.88077 0
M  V30 5339 O 499.128 1.01133 -1.50472 0
M  V30 5340 C 499.176 -2.23996 -2.82592 0
M  V30 5341 O 498.28 -1.65612 -3.77686 0
M  V30 5342 H 497.621 -0.470384 -0.468652 0
M  V30 5343 H 500.151 -1.82084 -0.933082 0
M  V30 5344 H 500.161 -2.37806 -3.3153 0
M  V30 5345 H 498.836 -3.26365 -2.57796 0
M  V30 5346 H 497.413 -1.60936 -3.36384 0
M  V30 5347 N 499.598 0.982988 -1.23187 0
M  V30 5348 C 500.545 2.07491 -1.01075 0
M  V30 5349 C 501.515 1.65949 0.070905 0
M  V30 5350 O 502.7 1.90629 -0.0806822 0
M  V30 5351 C 499.84 3.39751 -0.605261 0
M  V30 5352 C 498.953 3.94578 -1.75876 0
M  V30 5353 C 498.088 5.15039 -1.3003 0
M  V30 5354 C 497.127 5.62027 -2.42472 0
M  V30 5355 N 496.264 6.73719 -1.97602 0
M  V30 5356 H 501.104 2.25739 -1.9454 0
M  V30 5357 H 498.641 1.10659 -0.969179 0
M  V30 5358 H 500.599 4.15719 -0.351279 0
M  V30 5359 H 499.229 3.21473 0.292382 0
M  V30 5360 H 498.281 3.1539 -2.12681 0
M  V30 5361 H 499.593 4.25422 -2.60418 0
M  V30 5362 H 498.747 5.9833 -1.00429 0
M  V30 5363 H 497.486 4.85843 -0.425216 0
M  V30 5364 H 496.491 4.77318 -2.7285 0
M  V30 5365 H 497.716 5.93244 -3.30512 0
M  V30 5366 H 495.662 6.46287 -1.1247 0
M  V30 5367 H 495.579 7.03934 -2.75705 0
M  V30 5368 H 496.847 7.6049 -1.71098 0
M  V30 5369 N 501.076 1.04316 1.18135 0
M  V30 5370 C 502.304 0.768117 1.92113 0
M  V30 5371 C 502.719 -0.675057 1.76319 0
M  V30 5372 O 502.076 -1.46038 1.09449 0
M  V30 5373 C 502.127 1.12808 3.43448 0
M  V30 5374 O 501.848 2.5146 3.58747 0
M  V30 5375 C 503.349 0.8779 4.3452 0
M  V30 5376 H 500.569 0.279937 0.609817 0
M  V30 5377 H 503.113 1.39149 1.49859 0
M  V30 5378 H 501.268 0.549623 3.83481 0
M  V30 5379 H 501.682 2.65313 4.52448 0
M  V30 5380 H 503.156 1.17959 5.39249 0
M  V30 5381 H 503.633 -0.187239 4.38801 0
M  V30 5382 H 504.239 1.43977 4.00188 0
M  V30 5383 N 502.554 -1.34406 0.822964 0
M  V30 5384 C 503.801 -1.98284 0.411057 0
M  V30 5385 C 504.129 -1.65245 -1.02588 0
M  V30 5386 O 503.384 -0.91619 -1.72929 0
M  V30 5387 C 503.683 -3.52981 0.560268 0
M  V30 5388 C 503.349 -4.05931 1.96293 0
M  V30 5389 C 502.011 -4.20103 2.34664 0
M  V30 5390 C 504.363 -4.34412 2.87985 0
M  V30 5391 C 501.691 -4.60082 3.64062 0
M  V30 5392 C 504.043 -4.75838 4.16847 0
M  V30 5393 C 502.707 -4.88215 4.55195 0
M  V30 5394 H 501.977 -0.725573 0.150416 0
M  V30 5395 H 504.624 -1.60349 1.04692 0
M  V30 5396 H 502.929 -3.91477 -0.158982 0
M  V30 5397 H 504.626 -4.00385 0.222087 0
M  V30 5398 H 501.216 -3.95363 1.65487 0
M  V30 5399 H 505.4 -4.23001 2.59584 0
M  V30 5400 H 500.656 -4.67856 3.93599 0
M  V30 5401 H 504.83 -4.96834 4.87984 0
M  V30 5402 H 502.457 -5.18952 5.55512 0
M  V30 5403 N 504.032 -0.577932 -1.46621 0
M  V30 5404 C 504.995 0.147805 -2.28723 0
M  V30 5405 C 505.995 0.823325 -1.38123 0
M  V30 5406 O 507.185 0.676011 -1.60548 0
M  V30 5407 C 504.317 1.21853 -3.18378 0
M  V30 5408 H 505.51 -0.573654 -2.94362 0
M  V30 5409 H 503.063 -0.335703 -1.52652 0
M  V30 5410 H 503.798 1.97173 -2.57475 0
M  V30 5411 H 503.583 0.738714 -3.85078 0
M  V30 5412 H 505.073 1.72768 -3.80186 0
M  V30 5413 N 505.51 1.54411 -0.315457 0
M  V30 5414 C 506.74 2.04536 0.291315 0
M  V30 5415 C 507.148 1.19162 1.4696 0
M  V30 5416 O 506.491 0.213199 1.82459 0
M  V30 5417 C 506.553 3.5056 0.796725 0
M  V30 5418 C 506.217 4.5627 -0.258178 0
M  V30 5419 C 507.214 5.08312 -1.09153 0
M  V30 5420 C 504.899 5.00672 -0.404036 0
M  V30 5421 C 506.893 6.03312 -2.05655 0
M  V30 5422 C 504.58 5.95488 -1.37248 0
M  V30 5423 C 505.578 6.46693 -2.19721 0
M  V30 5424 O 505.266 7.39648 -3.14921 0
M  V30 5425 H 504.998 0.672856 0.0651165 0
M  V30 5426 H 507.552 2.00244 -0.457308 0
M  V30 5427 H 505.782 3.52223 1.59612 0
M  V30 5428 H 507.471 3.83804 1.32096 0
M  V30 5429 H 508.237 4.74793 -0.98979 0
M  V30 5430 H 504.116 4.60436 0.22799 0
M  V30 5431 H 507.66 6.43203 -2.70067 0
M  V30 5432 H 503.557 6.28424 -1.47489 0
M  V30 5433 H 504.325 7.57496 -3.10067 0
M  V30 5434 N 506.988 0.0434614 1.5754 0
M  V30 5435 C 508.216 -0.641835 1.96693 0
M  V30 5436 C 508.631 -1.64832 0.920652 0
M  V30 5437 O 507.988 -1.82247 -0.095993 0
M  V30 5438 C 508.039 -1.33557 3.35924 0
M  V30 5439 O 507.76 -0.369403 4.3654 0
M  V30 5440 C 509.261 -2.11135 3.89791 0
M  V30 5441 H 506.481 -0.176013 0.647503 0
M  V30 5442 H 509.025 0.107478 2.04217 0
M  V30 5443 H 507.18 -2.03617 3.29574 0
M  V30 5444 H 507.594 -0.863674 5.1734 0
M  V30 5445 H 509.068 -2.55107 4.89514 0
M  V30 5446 H 509.545 -2.95634 3.24803 0
M  V30 5447 H 510.151 -1.46002 3.99454 0
M  V30 5448 N 508.466 -1.55915 -0.229846 0
M  V30 5449 C 509.414 -1.9258 -1.30444 0
M  V30 5450 C 510.408 -0.806839 -1.48951 0
M  V30 5451 O 511.614 -0.991606 -1.50224 0
M  V30 5452 H 507.989 -0.611878 -0.437161 0
M  V30 5453 H 509.96 -2.82264 -0.96797 0
M  V30 5454 C 508.709 -2.25171 -2.6494 0
M  V30 5455 H 508.032 -3.10782 -2.51504 0
M  V30 5456 H 509.472 -2.54716 -3.38963 0
M  V30 5457 C 507.931 -1.07394 -3.19324 0
M  V30 5458 O 508.461 -0.330759 -4.00336 0
M  V30 5459 N 506.667 -0.859984 -2.77584 0
M  V30 5460 H 506.214 -1.46605 -2.11813 0
M  V30 5461 H 506.172 -0.0736671 -3.14314 0
M  V30 5462 N 509.944 0.496216 -1.49584 0
M  V30 5463 C 510.894 1.59422 -1.62999 0
M  V30 5464 C 511.878 1.53402 -0.485457 0
M  V30 5465 O 513.07 1.60851 -0.738649 0
M  V30 5466 C 510.199 2.98009 -1.70427 0
M  V30 5467 C 509.285 3.09008 -2.90473 0
M  V30 5468 N 509.676 2.89884 -4.14489 0
M  V30 5469 C 507.974 3.40115 -2.8851 0
M  V30 5470 C 508.675 3.0519 -4.95211 0
M  V30 5471 N 507.651 3.3428 -4.2867 0
M  V30 5472 H 511.453 1.43297 -2.56599 0
M  V30 5473 H 508.967 0.702443 -1.46422 0
M  V30 5474 H 510.964 3.76926 -1.78136 0
M  V30 5475 H 509.624 3.152 -0.77967 0
M  V30 5476 H 510.635 2.65963 -4.44392 0
M  V30 5477 H 507.312 3.63452 -2.05448 0
M  V30 5478 H 508.702 2.94856 -6.03746 0
M  V30 5479 N 511.423 1.38739 0.74761 0
M  V30 5480 C 512.651 1.38521 1.53686 0
M  V30 5481 C 513.066 -0.0235129 1.88785 0
M  V30 5482 O 512.423 -0.991662 1.53207 0
M  V30 5483 C 512.474 2.24641 2.83229 0
M  V30 5484 O 512.195 3.60026 2.49625 0
M  V30 5485 C 513.696 2.32669 3.77333 0
M  V30 5486 H 510.916 0.473589 0.475347 0
M  V30 5487 H 513.46 1.82395 0.924786 0
M  V30 5488 H 511.615 1.84213 3.40799 0
M  V30 5489 H 512.029 4.05435 3.3275 0
M  V30 5490 H 513.503 2.97201 4.65162 0
M  V30 5491 H 513.98 1.3421 4.18192 0
M  V30 5492 H 514.586 2.73512 3.25685 0
M  V30 5493 N 512.901 -0.976442 1.23707 0
M  V30 5494 C 513.831 -2.08749 1.04624 0
M  V30 5495 C 514.812 -1.70057 -0.0380956 0
M  V30 5496 O 515.997 -1.93782 0.127308 0
M  V30 5497 C 513.127 -3.41335 0.640902 0
M  V30 5498 C 512.081 -3.93947 1.67302 0
M  V30 5499 C 511.407 -5.22774 1.12301 0
M  V30 5500 C 512.707 -4.22769 3.06697 0
M  V30 5501 H 514.401 -2.24972 1.97555 0
M  V30 5502 H 511.947 -1.08108 0.951247 0
M  V30 5503 H 513.9 -4.18489 0.494434 0
M  V30 5504 H 512.624 -3.24988 -0.324099 0
M  V30 5505 H 511.283 -3.18941 1.80755 0
M  V30 5506 H 510.931 -5.0278 0.148877 0
M  V30 5507 H 510.631 -5.58942 1.81267 0
M  V30 5508 H 512.155 -6.02546 0.988479 0
M  V30 5509 H 513.569 -4.90659 2.96524 0
M  V30 5510 H 511.966 -4.70147 3.72937 0
M  V30 5511 H 513.036 -3.29885 3.55392 0
M  V30 5512 N 514.379 -1.04941 -1.1758 0
M  V30 5513 C 515.312 -0.592518 -2.20373 0
M  V30 5514 C 516.29 0.377561 -1.58156 0
M  V30 5515 O 517.474 0.28978 -1.86259 0
M  V30 5516 C 514.601 0.133215 -3.38438 0
M  V30 5517 C 513.647 -0.791484 -4.19092 0
M  V30 5518 S 514.48 -2.27925 -4.84572 0
M  V30 5519 C 515.636 -1.56462 -6.06028 0
M  V30 5520 H 515.869 -1.46342 -2.58788 0
M  V30 5521 H 513.402 -0.861148 -1.28155 0
M  V30 5522 H 515.36 0.545746 -4.06856 0
M  V30 5523 H 514.021 0.980124 -2.98416 0
M  V30 5524 H 513.214 -0.230039 -5.03475 0
M  V30 5525 H 512.816 -1.14326 -3.56098 0
M  V30 5526 H 515.108 -0.862539 -6.71987 0
M  V30 5527 H 516.051 -2.38583 -6.66696 0
M  V30 5528 H 516.459 -1.05313 -5.5459 0
M  V30 5529 N 515.857 1.33968 -0.830081 0
M  V30 5530 C 517.268 1.80439 -0.479455 0
M  V30 5531 C 517.619 1.68756 1.00079 0
M  V30 5532 O 516.744 1.23171 1.77927 0
M  V30 5533 C 517.339 3.27611 -0.863505 0
M  V30 5534 C 515.898 3.72133 -0.565145 0
M  V30 5535 C 515.045 2.55549 -1.07657 0
M  V30 5536 H 517.996 1.21614 -1.0196 0
M  V30 5537 H 518.017 3.8012 -0.170083 0
M  V30 5538 H 517.529 3.36082 -1.94089 0
M  V30 5539 H 515.63 3.69196 0.502536 0
M  V30 5540 H 515.743 4.65963 -1.11422 0
M  V30 5541 H 514.107 2.49788 -0.497807 0
M  V30 5542 H 514.89 2.66786 -2.16055 0
M  V30 5543 N 517.335 0.585699 1.46312 0
M  V30 5544 C 518.245 -0.148236 2.34131 0
M  V30 5545 C 519.261 -0.882972 1.49932 0
M  V30 5546 O 520.437 -0.845484 1.82794 0
M  V30 5547 C 517.502 -1.14714 3.27172 0
M  V30 5548 C 516.563 -0.416746 4.27272 0
M  V30 5549 C 515.796 -1.36806 5.15868 0
M  V30 5550 O 516.019 -2.60475 5.07454 0
M  V30 5551 O 514.953 -0.877018 5.95476 0
M  V30 5552 H 518.779 0.572882 2.98248 0
M  V30 5553 H 516.364 0.346082 1.45336 0
M  V30 5554 H 518.246 -1.72303 3.84564 0
M  V30 5555 H 516.921 -1.84967 2.65648 0
M  V30 5556 H 515.828 0.201061 3.73559 0
M  V30 5557 H 517.161 0.244872 4.9159 0
M  V30 5558 N 518.813 -1.54241 0.323641 0
M  V30 5559 C 519.776 -2.22997 -0.529602 0
M  V30 5560 C 520.776 -1.22345 -1.04347 0
M  V30 5561 O 521.966 -1.46924 -0.935889 0
M  V30 5562 C 519.098 -2.93409 -1.73562 0
M  V30 5563 H 520.291 -2.99815 0.0714518 0
M  V30 5564 H 517.844 -1.56121 0.0747258 0
M  V30 5565 H 518.579 -2.20729 -2.37591 0
M  V30 5566 H 518.364 -3.67217 -1.37456 0
M  V30 5567 H 519.854 -3.45794 -2.34128 0
M  V30 5568 N 520.291 -0.0518155 -1.57515 0
M  V30 5569 C 521.221 0.920283 -2.146 0
M  V30 5570 C 522.202 1.32406 -1.06783 0
M  V30 5571 O 523.387 1.39866 -1.34726 0
M  V30 5572 C 520.517 2.1949 -2.6915 0
M  V30 5573 C 519.471 1.93116 -3.81956 0
M  V30 5574 C 518.797 3.27037 -4.23026 0
M  V30 5575 C 520.097 1.25225 -5.07066 0
M  V30 5576 H 521.791 0.444801 -2.96077 0
M  V30 5577 H 519.337 0.212508 -1.42423 0
M  V30 5578 H 521.29 2.87894 -3.07725 0
M  V30 5579 H 520.014 2.69244 -1.84865 0
M  V30 5580 H 518.673 1.27123 -3.43854 0
M  V30 5581 H 518.321 3.74595 -3.3569 0
M  V30 5582 H 518.021 3.10189 -4.99056 0
M  V30 5583 H 519.545 3.96673 -4.64202 0
M  V30 5584 H 520.959 1.83666 -5.43083 0
M  V30 5585 H 519.356 1.18702 -5.88243 0
M  V30 5586 H 520.426 0.228382 -4.84362 0
M  V30 5587 N 521.769 1.56035 0.221574 0
M  V30 5588 C 522.679 1.95581 1.29558 0
M  V30 5589 C 523.695 0.859639 1.51282 0
M  V30 5590 O 524.871 1.16321 1.64413 0
M  V30 5591 C 521.936 2.26447 2.62531 0
M  V30 5592 C 520.997 3.49632 2.4911 0
M  V30 5593 C 520.23 3.79017 3.75742 0
M  V30 5594 O 520.453 3.10077 4.78757 0
M  V30 5595 O 519.387 4.72507 3.72855 0
M  V30 5596 H 523.213 2.8711 0.990035 0
M  V30 5597 H 520.798 1.43244 0.424434 0
M  V30 5598 H 522.68 2.47494 3.41064 0
M  V30 5599 H 521.355 1.38092 2.92766 0
M  V30 5600 H 520.262 3.33864 1.68777 0
M  V30 5601 H 521.595 4.3837 2.23814 0
M  V30 5602 N 523.247 -0.488276 1.49845 0
M  V30 5603 C 524.663 -0.820566 1.3689 0
M  V30 5604 C 524.863 -1.97248 0.411752 0
M  V30 5605 O 523.919 -2.52042 -0.151931 0
M  V30 5606 C 525.232 -1.1488 2.77891 0
M  V30 5607 C 526.78 -1.25626 2.86683 0
M  V30 5608 C 527.255 -1.61772 4.28479 0
M  V30 5609 N 528.746 -1.68797 4.31349 0
M  V30 5610 C 529.481 -1.98235 5.38043 0
M  V30 5611 N 528.977 -2.2581 6.54967 0
M  V30 5612 N 530.77 -1.99593 5.2547 0
M  V30 5613 H 522.921 0.271123 2.10662 0
M  V30 5614 H 525.184 0.058735 0.946179 0
M  V30 5615 H 524.89 -0.375614 3.49688 0
M  V30 5616 H 524.764 -2.08919 3.14058 0
M  V30 5617 H 527.151 -2.02014 2.15114 0
M  V30 5618 H 527.232 -0.296072 2.54081 0
M  V30 5619 H 526.876 -0.859295 5.00578 0
M  V30 5620 H 526.806 -2.58912 4.58554 0
M  V30 5621 H 529.297 -1.49595 3.4703 0
M  V30 5622 H 529.61 -2.47497 7.32096 0
M  V30 5623 H 527.955 -2.23239 6.58171 0
M  V30 5624 H 531.146 -1.77535 4.33127 0
M  V30 5625 H 531.319 -2.222 6.08713 0
M  V30 5626 N 524.725 -1.39134 -0.740242 0
M  V30 5627 C 525.971 -1.37278 -1.50088 0
M  V30 5628 C 526.326 0.0329967 -1.92372 0
M  V30 5629 O 525.619 0.998447 -1.63529 0
M  V30 5630 C 525.813 -2.27457 -2.75678 0
M  V30 5631 C 525.642 -3.76662 -2.45674 0
M  V30 5632 C 524.412 -4.45617 -2.38229 0
M  V30 5633 C 526.61 -4.6877 -2.11563 0
M  V30 5634 N 524.592 -5.80187 -2.00641 0
M  V30 5635 C 525.963 -5.91951 -1.84376 0
M  V30 5636 C 528.018 -4.56843 -1.97987 0
M  V30 5637 C 526.721 -7.04538 -1.4498 0
M  V30 5638 C 528.747 -5.69347 -1.59994 0
M  V30 5639 C 528.109 -6.91597 -1.33687 0
M  V30 5640 H 524.208 -0.557611 -0.548265 0
M  V30 5641 H 526.792 -1.74638 -0.860784 0
M  V30 5642 H 524.963 -1.92263 -3.37475 0
M  V30 5643 H 526.695 -2.16631 -3.41838 0
M  V30 5644 H 523.45 -3.98993 -2.5515 0
M  V30 5645 H 523.874 -6.51387 -1.84454 0
M  V30 5646 H 528.516 -3.62868 -2.16995 0
M  V30 5647 H 526.234 -7.98419 -1.24712 0
M  V30 5648 H 529.82 -5.62104 -1.50102 0
M  V30 5649 H 528.7 -7.77176 -1.04728 0
M  V30 5650 N 526.204 0.969867 -1.24223 0
M  V30 5651 C 527.481 1.68774 -0.988664 0
M  V30 5652 C 527.861 2.05342 0.489673 0
M  V30 5653 O 527.209 1.75486 1.46345 0
M  V30 5654 C 527.419 2.92135 -1.90941 0
M  V30 5655 C 528.767 3.64422 -2.17903 0
M  V30 5656 O 529.791 3.02188 -1.88576 0
M  V30 5657 O 528.65 4.76446 -2.67697 0
M  V30 5658 H 525.744 0.737736 -0.37373 0
M  V30 5659 H 528.29 1.02415 -1.35312 0
M  V30 5660 H 527.062 2.61788 -2.90831 0
M  V30 5661 H 526.685 3.66228 -1.54798 0
M  V30 5662 N 527.682 1.05563 1.17022 0
M  V30 5663 C 528.928 0.769074 1.87652 0
M  V30 5664 C 529.261 -0.702326 1.81055 0
M  V30 5665 O 528.536 -1.5139 1.22112 0
M  V30 5666 C 528.819 1.25492 3.37526 0
M  V30 5667 C 528.672 2.78953 3.52853 0
M  V30 5668 C 529.991 0.856919 4.31677 0
M  V30 5669 H 527.11 0.280854 0.681388 0
M  V30 5670 H 529.752 1.31027 1.37593 0
M  V30 5671 H 527.902 0.794516 3.80289 0
M  V30 5672 H 529.574 3.33146 3.19079 0
M  V30 5673 H 527.817 3.18046 2.95007 0
M  V30 5674 H 528.488 3.08011 4.58076 0
M  V30 5675 H 530.964 1.25334 3.96775 0
M  V30 5676 H 529.84 1.22443 5.35069 0
M  V30 5677 H 530.101 -0.238787 4.41455 0
M  V30 5678 N 529.16 -1.33526 0.837174 0
M  V30 5679 C 530.107 -2.29248 0.267169 0
M  V30 5680 C 531.077 -1.54252 -0.616071 0
M  V30 5681 O 532.262 -1.82559 -0.554699 0
M  V30 5682 C 529.402 -3.40638 -0.553152 0
M  V30 5683 C 528.515 -4.30548 0.353921 0
M  V30 5684 C 527.65 -5.29051 -0.477339 0
M  V30 5685 C 526.689 -6.106 0.42823 0
M  V30 5686 N 525.826 -7.01152 -0.364801 0
M  V30 5687 H 530.666 -2.77398 1.08877 0
M  V30 5688 H 528.203 -1.36496 0.54838 0
M  V30 5689 H 530.161 -4.03921 -1.04422 0
M  V30 5690 H 528.791 -2.93685 -1.33973 0
M  V30 5691 H 527.843 -3.68001 0.963289 0
M  V30 5692 H 529.155 -4.87631 1.04964 0
M  V30 5693 H 528.309 -5.97853 -1.0323 0
M  V30 5694 H 527.048 -4.72541 -1.2065 0
M  V30 5695 H 526.053 -5.40718 0.995219 0
M  V30 5696 H 527.278 -6.69193 1.15573 0
M  V30 5697 H 525.224 -6.47092 -1.07738 0
M  V30 5698 H 525.141 -7.5551 0.272238 0
M  V30 5699 H 526.409 -7.74263 -0.902054 0
M  V30 5700 N 530.638 -0.59345 -1.46 0
M  V30 5701 C 531.568 0.121192 -2.33185 0
M  V30 5702 C 532.549 0.872977 -1.4599 0
M  V30 5703 O 533.734 0.846321 -1.74789 0
M  V30 5704 C 530.864 1.12844 -3.28456 0
M  V30 5705 C 529.818 0.4908 -4.25177 0
M  V30 5706 C 529.144 1.60529 -5.10034 0
M  V30 5707 C 530.444 -0.578949 -5.19081 0
M  V30 5708 H 532.138 -0.606767 -2.93187 0
M  V30 5709 H 529.684 -0.293242 -1.40983 0
M  V30 5710 H 531.637 1.63684 -3.88311 0
M  V30 5711 H 530.361 1.88681 -2.66584 0
M  V30 5712 H 529.02 0.00339328 -3.666 0
M  V30 5713 H 528.668 2.35359 -4.44539 0
M  V30 5714 H 528.368 1.18422 -5.75543 0
M  V30 5715 H 529.892 2.11623 -5.72755 0
M  V30 5716 H 531.306 -0.155199 -5.7309 0
M  V30 5717 H 529.703 -0.920947 -5.92991 0
M  V30 5718 H 530.773 -1.46109 -4.62364 0
M  V30 5719 N 532.116 1.54067 -0.331816 0
M  V30 5720 C 533.362 2.01012 0.268667 0
M  V30 5721 C 533.695 1.2195 1.51136 0
M  V30 5722 O 532.97 0.303972 1.9211 0
M  V30 5723 C 533.253 3.55158 0.59456 0
M  V30 5724 C 533.106 4.4494 -0.659409 0
M  V30 5725 C 534.425 4.16939 1.4089 0
M  V30 5726 H 531.544 0.730698 0.0961756 0
M  V30 5727 H 534.186 1.84593 -0.450031 0
M  V30 5728 H 532.336 3.6928 1.20685 0
M  V30 5729 H 534.008 4.42675 -1.29756 0
M  V30 5730 H 532.251 4.1428 -1.28665 0
M  V30 5731 H 532.922 5.50643 -0.386804 0
M  V30 5732 H 535.398 4.06443 0.891272 0
M  V30 5733 H 534.274 5.24889 1.60569 0
M  V30 5734 H 534.535 3.70798 2.40752 0
M  V30 5735 N 533.594 0.0601682 1.57485 0
M  V30 5736 C 534.541 -0.91112 2.12055 0
M  V30 5737 C 535.511 -1.30298 1.03013 0
M  V30 5738 O 536.696 -1.39087 1.30612 0
M  V30 5739 C 533.836 -2.1775 2.67729 0
M  V30 5740 C 532.949 -1.83933 3.90887 0
M  V30 5741 C 532.084 -3.05096 4.34845 0
M  V30 5742 C 531.123 -2.67241 5.5068 0
M  V30 5743 N 530.26 -3.81127 5.8965 0
M  V30 5744 H 535.1 -0.43888 2.9475 0
M  V30 5745 H 532.637 -0.204995 1.45665 0
M  V30 5746 H 534.595 -2.91866 2.98111 0
M  V30 5747 H 533.225 -2.62535 1.87816 0
M  V30 5748 H 532.277 -0.999287 3.6704 0
M  V30 5749 H 533.589 -1.52074 4.75052 0
M  V30 5750 H 532.743 -3.87502 4.66827 0
M  V30 5751 H 531.482 -3.40139 3.49509 0
M  V30 5752 H 530.487 -1.83254 5.18361 0
M  V30 5753 H 531.712 -2.3338 6.37738 0
M  V30 5754 H 529.658 -4.15954 5.07266 0
M  V30 5755 H 529.575 -3.52997 6.68528 0
M  V30 5756 H 530.843 -4.64145 6.2625 0
M  V30 5757 N 535.072 -1.5615 -0.213296 0
M  V30 5758 C 536.32 -1.79191 -0.934612 0
M  V30 5759 C 536.641 -0.630112 -1.84539 0
M  V30 5760 O 535.911 0.35257 -1.92701 0
M  V30 5761 H 534.491 -0.660937 -0.348097 0
M  V30 5762 H 537.153 -1.93618 -0.22317 0
M  V30 5763 H 536.249 -2.71656 -1.53654 0
M  V30 5764 N 536.55 0.480323 -1.50102 0
M  V30 5765 C 537.48 1.58769 -1.71215 0
M  V30 5766 C 538.461 1.60583 -0.560997 0
M  V30 5767 O 539.646 1.76996 -0.799127 0
M  V30 5768 C 536.776 2.97148 -1.79778 0
M  V30 5769 C 535.73 3.10201 -2.94888 0
M  V30 5770 C 535.056 4.50137 -2.88584 0
M  V30 5771 C 536.356 2.88283 -4.35534 0
M  V30 5772 H 538.05 1.41354 -2.6393 0
M  V30 5773 H 535.596 0.678591 -1.27008 0
M  V30 5774 H 537.549 3.74536 -1.93133 0
M  V30 5775 H 536.273 3.15699 -0.836772 0
M  V30 5776 H 534.932 2.35244 -2.81169 0
M  V30 5777 H 534.58 4.65593 -1.90349 0
M  V30 5778 H 534.28 4.59808 -3.65856 0
M  V30 5779 H 535.804 5.29558 -3.03976 0
M  V30 5780 H 537.218 3.55427 -4.49827 0
M  V30 5781 H 535.615 3.09408 -5.14186 0
M  V30 5782 H 536.685 1.84219 -4.48544 0
M  V30 5783 N 538.028 1.39524 0.732853 0
M  V30 5784 C 538.958 1.41153 1.86005 0
M  V30 5785 C 539.939 0.274614 1.67869 0
M  V30 5786 O 541.124 0.480745 1.88155 0
M  V30 5787 C 538.254 1.25638 3.23778 0
M  V30 5788 C 537.208 2.36752 3.56556 0
M  V30 5789 C 536.534 2.06326 4.93289 0
M  V30 5790 C 537.834 3.79069 3.5931 0
M  V30 5791 H 539.528 2.35484 1.84899 0
M  V30 5792 H 537.074 1.13348 0.888162 0
M  V30 5793 H 539.027 1.25398 4.0231 0
M  V30 5794 H 537.751 0.277772 3.25417 0
M  V30 5795 H 536.41 2.36213 2.80355 0
M  V30 5796 H 536.058 1.06897 4.9151 0
M  V30 5797 H 535.758 2.80757 5.16187 0
M  V30 5798 H 537.282 2.07739 5.74175 0
M  V30 5799 H 538.696 3.81526 4.27914 0
M  V30 5800 H 537.093 4.52878 3.93728 0
M  V30 5801 H 538.163 4.09893 2.59068 0
M  V30 5802 N 539.506 -0.963266 1.24736 0
M  V30 5803 C 540.917 -1.52145 1.08207 0
M  V30 5804 C 541.268 -1.93142 -0.345061 0
M  V30 5805 O 540.393 -1.77769 -1.23399 0
M  V30 5806 C 540.988 -2.76486 1.95808 0
M  V30 5807 C 539.547 -3.28646 1.8349 0
M  V30 5808 C 538.694 -2.01529 1.90476 0
M  V30 5809 H 541.645 -0.781083 1.38148 0
M  V30 5810 H 541.666 -3.49986 1.49297 0
M  V30 5811 H 541.178 -2.46617 2.99669 0
M  V30 5812 H 539.279 -3.63357 0.824787 0
M  V30 5813 H 539.392 -3.97246 2.67829 0
M  V30 5814 H 537.756 -2.16442 1.34258 0
M  V30 5815 H 538.539 -1.7402 2.95926 0
M  V30 5816 N 540.985 -1.06182 -1.16461 0
M  V30 5817 C 542.401 -0.785065 -1.38956 0
M  V30 5818 C 542.601 0.616103 -1.9185 0
M  V30 5819 O 541.657 1.37686 -2.11657 0
M  V30 5820 C 542.97 -1.84902 -2.37132 0
M  V30 5821 C 544.518 -1.8724 -2.50819 0
M  V30 5822 C 544.993 -2.92686 -3.52277 0
M  V30 5823 N 546.484 -2.91712 -3.59803 0
M  V30 5824 C 547.219 -3.69949 -4.38093 0
M  V30 5825 N 546.715 -4.58 -5.19815 0
M  V30 5826 N 548.508 -3.58346 -4.33064 0
M  V30 5827 H 540.659 -1.96569 -0.804634 0
M  V30 5828 H 542.922 -0.851747 -0.416211 0
M  V30 5829 H 542.628 -2.85518 -2.0536 0
M  V30 5830 H 542.502 -1.69908 -3.36766 0
M  V30 5831 H 544.889 -0.872827 -2.81897 0
M  V30 5832 H 544.97 -2.06311 -1.51226 0
M  V30 5833 H 544.614 -3.92835 -3.21937 0
M  V30 5834 H 544.544 -2.70864 -4.51598 0
M  V30 5835 H 547.035 -2.27876 -3.01464 0
M  V30 5836 H 547.348 -5.14357 -5.76764 0
M  V30 5837 H 545.693 -4.62056 -5.19162 0
M  V30 5838 H 548.884 -2.88943 -3.68279 0
M  V30 5839 H 549.057 -4.19563 -4.93833 0
M  V30 5840 N 542.463 1.3308 -0.844243 0
M  V30 5841 C 543.413 2.26589 -0.253289 0
M  V30 5842 C 544.397 1.49501 0.594836 0
M  V30 5843 O 545.589 1.71291 0.445924 0
M  V30 5844 C 542.718 3.38599 0.566176 0
M  V30 5845 C 541.804 4.23081 -0.293756 0
M  V30 5846 N 542.195 4.86751 -1.37505 0
M  V30 5847 C 540.493 4.45925 -0.0817086 0
M  V30 5848 C 541.194 5.49684 -1.90323 0
M  V30 5849 N 540.17 5.30101 -1.20391 0
M  V30 5850 H 543.972 2.73334 -1.08009 0
M  V30 5851 H 541.486 1.47048 -0.689258 0
M  V30 5852 H 543.483 4.04584 1.00587 0
M  V30 5853 H 542.143 2.93401 1.39089 0
M  V30 5854 H 543.154 4.87151 -1.75796 0
M  V30 5855 H 539.831 4.11434 0.709129 0
M  V30 5856 H 541.221 6.10363 -2.80902 0
M  V30 5857 N 543.941 0.601185 1.45683 0
M  V30 5858 C 544.874 -0.17013 2.27565 0
M  V30 5859 C 545.852 -0.879661 1.36751 0
M  V30 5860 O 547.036 -0.889827 1.66176 0
M  V30 5861 C 544.163 -1.24568 3.14961 0
M  V30 5862 C 543.209 -0.639978 4.21671 0
M  V30 5863 S 544.042 0.547275 5.32696 0
M  V30 5864 C 545.198 -0.529019 6.2366 0
M  V30 5865 H 545.431 0.524583 2.92635 0
M  V30 5866 H 542.964 0.388537 1.49431 0
M  V30 5867 H 544.922 -1.86138 3.65873 0
M  V30 5868 H 543.583 -1.91243 2.49169 0
M  V30 5869 H 542.776 -1.44903 4.8272 0
M  V30 5870 H 542.378 -0.0995558 3.73867 0
M  V30 5871 H 544.67 -1.40981 6.62669 0
M  V30 5872 H 545.613 0.0451599 7.08086 0
M  V30 5873 H 546.021 -0.84147 5.58193 0
M  V30 5874 N 545.419 -1.53889 0.339982 0
M  V30 5875 C 546.351 -2.22435 -0.55275 0
M  V30 5876 C 547.364 -1.22975 -1.06681 0
M  V30 5877 O 548.553 -1.49351 -0.977575 0
M  V30 5878 C 545.653 -2.8882 -1.77302 0
M  V30 5879 C 544.826 -4.14563 -1.39486 0
M  V30 5880 C 543.885 -4.64391 -2.47442 0
M  V30 5881 O 542.911 -5.28687 -2.10899 0
M  V30 5882 N 544.113 -4.40015 -3.78639 0
M  V30 5883 H 546.878 -2.9968 0.0342669 0
M  V30 5884 H 544.439 -1.61068 0.16394 0
M  V30 5885 H 546.431 -3.19072 -2.48948 0
M  V30 5886 H 545.001 -2.15182 -2.26749 0
M  V30 5887 H 544.221 -3.90896 -0.509321 0
M  V30 5888 H 545.509 -4.96362 -1.11813 0
M  V30 5889 H 544.907 -3.88586 -4.11118 0
M  V30 5890 H 543.464 -4.74881 -4.46465 0
M  V30 5891 N 546.897 -0.0685191 -1.57451 0
M  V30 5892 C 548.146 0.600898 -1.92541 0
M  V30 5893 C 548.459 1.70967 -0.950239 0
M  V30 5894 O 549.665 2.43844 -1.19384 0
M  V30 5895 C 548.121 1.12019 -3.42023 0
M  V30 5896 C 547.729 0.0426028 -4.4798 0
M  V30 5897 C 549.473 1.76386 -3.86119 0
M  V30 5898 C 547.38 0.575759 -5.88591 0
M  V30 5899 H 546.31 0.228225 -0.71863 0
M  V30 5900 H 548.961 -0.140223 -1.82963 0
M  V30 5901 H 547.343 1.91418 -3.46663 0
M  V30 5902 H 548.517 -0.73182 -4.54952 0
M  V30 5903 H 546.832 -0.504642 -4.13331 0
M  V30 5904 H 549.429 2.17302 -4.88553 0
M  V30 5905 H 549.772 2.62255 -3.23308 0
M  V30 5906 H 550.305 1.03615 -3.84069 0
M  V30 5907 H 547.044 -0.245691 -6.55039 0
M  V30 5908 H 546.564 1.31778 -5.85145 0
M  V30 5909 H 548.243 1.0532 -6.3837 0
M  V30 5910 N 548.375 1.56261 0.205012 0
M  V30 5911 C 549.624 1.79236 0.925058 0
M  V30 5912 C 549.937 0.640011 1.84833 0
M  V30 5913 O 551.143 0.753809 2.60826 0
M  V30 5914 C 549.599 3.17475 1.69522 0
M  V30 5915 C 549.207 4.40482 0.817269 0
M  V30 5916 C 550.951 3.49766 2.4055 0
M  V30 5917 C 548.858 5.69744 1.58573 0
M  V30 5918 H 547.788 0.668287 0.349153 0
M  V30 5919 H 550.439 1.82629 0.178544 0
M  V30 5920 H 548.821 3.08304 2.48526 0
M  V30 5921 H 549.995 4.60752 0.0665988 0
M  V30 5922 H 548.31 4.15827 0.218316 0
M  V30 5923 H 550.907 4.43573 2.98575 0
M  V30 5924 H 551.25 2.73041 3.14252 0
M  V30 5925 H 551.783 3.60341 1.68522 0
M  V30 5926 H 548.522 6.49407 0.891679 0
M  V30 5927 H 548.042 5.53509 2.31059 0
M  V30 5928 H 549.721 6.1051 2.14212 0
M  V30 5929 N 549.853 -0.472356 1.50355 0
M  V30 5930 C 550.801 -1.59126 1.69651 0
M  V30 5931 C 551.795 -1.59793 0.56237 0
M  V30 5932 O 553.001 -1.63957 0.742832 0
M  V30 5933 H 549.376 -0.528008 0.535454 0
M  V30 5934 H 551.347 -1.40013 2.63513 0
M  V30 5935 C 550.096 -2.97075 1.8067 0
M  V30 5936 H 549.419 -2.9728 2.67329 0
M  V30 5937 H 550.859 -3.74825 1.98197 0
M  V30 5938 C 549.318 -3.32247 0.558016 0
M  V30 5939 O 549.848 -4.00553 -0.303399 0
M  V30 5940 N 548.054 -2.87659 0.412415 0
M  V30 5941 H 547.601 -2.32246 1.11443 0
M  V30 5942 H 547.559 -3.11556 -0.421908 0
M  V30 5943 N 551.331 -1.39911 -0.725443 0
M  V30 5944 C 552.241 -1.41688 -1.8698 0
M  V30 5945 C 553.257 -0.310579 -1.71206 0
M  V30 5946 O 554.433 -0.55359 -1.93642 0
M  V30 5947 C 551.498 -1.26811 -3.22676 0
M  V30 5948 C 550.559 -2.47497 -3.50776 0
M  V30 5949 C 549.792 -2.3332 -4.79997 0
M  V30 5950 O 550.015 -1.34175 -5.54394 0
M  V30 5951 O 548.949 -3.22498 -5.08211 0
M  V30 5952 H 552.775 -2.38171 -1.88436 0
M  V30 5953 H 550.36 -1.21128 -0.874548 0
M  V30 5954 H 552.242 -1.20684 -4.03749 0
M  V30 5955 H 550.917 -0.334289 -3.21969 0
M  V30 5956 H 549.824 -2.59201 -2.69751 0
M  V30 5957 H 551.157 -3.39606 -3.5627 0
M  V30 5958 N 552.809 0.956637 -1.25245 0
M  V30 5959 C 554.058 1.69537 -1.0927 0
M  V30 5960 C 554.371 1.92136 0.366503 0
M  V30 5961 O 555.577 2.63687 0.64665 0
M  V30 5962 C 554.033 3.05211 -1.9072 0
M  V30 5963 C 553.641 2.90416 -3.41119 0
M  V30 5964 C 555.385 3.82882 -1.83308 0
M  V30 5965 C 553.292 4.21468 -4.14872 0
M  V30 5966 H 552.222 0.635804 -0.405302 0
M  V30 5967 H 554.873 1.06513 -1.49423 0
M  V30 5968 H 553.255 3.69128 -1.43389 0
M  V30 5969 H 554.429 2.35444 -3.9611 0
M  V30 5970 H 552.744 2.26203 -3.49602 0
M  V30 5971 H 555.341 4.79944 -2.35706 0
M  V30 5972 H 555.684 4.0853 -0.800572 0
M  V30 5973 H 556.217 3.25711 -2.28379 0
M  V30 5974 H 552.956 4.01009 -5.18529 0
M  V30 5975 H 552.476 4.76213 -3.64665 0
M  V30 5976 H 554.155 4.90022 -4.22478 0
M  V30 5977 N 554.287 1.06798 1.15896 0
M  V30 5978 C 555.235 0.677525 2.22514 0
M  V30 5979 C 556.229 -0.308994 1.66558 0
M  V30 5980 O 557.435 -0.173308 1.79164 0
M  V30 5981 H 553.81 0.200994 0.724642 0
M  V30 5982 H 555.781 1.5865 2.52731 0
M  V30 5983 C 554.53 0.0854153 3.47595 0
M  V30 5984 H 553.853 0.835645 3.90969 0
M  V30 5985 H 555.293 -0.150199 4.23734 0
M  V30 5986 C 553.752 -1.1724 3.15843 0
M  V30 5987 O 554.282 -2.25965 3.32119 0
M  V30 5988 N 552.488 -1.07636 2.69931 0
M  V30 5989 H 552.035 -0.191559 2.56887 0
M  V30 5990 H 551.993 -1.91876 2.4906 0
M  V30 5991 N 555.766 -1.3263 0.851289 0
M  V30 5992 C 556.994 -2.01563 0.466899 0
M  V30 5993 C 557.409 -1.63996 -0.935447 0
M  V30 5994 O 556.766 -0.85957 -1.6099 0
M  V30 5995 C 556.817 -3.56613 0.592433 0
M  V30 5996 O 556.538 -3.92828 1.93954 0
M  V30 5997 C 558.039 -4.42818 0.206612 0
M  V30 5998 H 555.259 -0.645307 0.183902 0
M  V30 5999 H 557.803 -1.69285 1.1473 0
M  V30 6000 H 555.958 -3.87379 -0.0401936 0
M  V30 6001 H 556.372 -4.87545 1.9339 0
M  V30 6002 H 557.846 -5.50918 0.345462 0
M  V30 6003 H 558.323 -4.30844 -0.85264 0
M  V30 6004 H 558.929 -4.17434 0.814176 0
M  V30 6005 N 557.244 -0.608902 -1.45362 0
M  V30 6006 C 558.66 -0.272659 -1.57254 0
M  V30 6007 C 558.86 1.22477 -1.60005 0
M  V30 6008 O 557.916 2.00785 -1.53106 0
M  V30 6009 C 559.229 -0.944991 -2.85465 0
M  V30 6010 C 560.777 -0.921033 -2.99142 0
M  V30 6011 C 561.252 -1.5734 -4.30126 0
M  V30 6012 N 562.743 -1.53895 -4.36887 0
M  V30 6013 C 563.478 -2.01286 -5.36909 0
M  V30 6014 N 562.974 -2.56768 -6.43461 0
M  V30 6015 N 564.767 -1.92046 -5.28275 0
M  V30 6016 H 556.918 -1.58117 -1.4182 0
M  V30 6017 H 559.181 -0.662437 -0.678146 0
M  V30 6018 H 558.887 -1.99941 -2.89338 0
M  V30 6019 H 558.761 -0.469079 -3.74272 0
M  V30 6020 H 561.148 0.124846 -2.94836 0
M  V30 6021 H 561.229 -1.43522 -2.11743 0
M  V30 6022 H 560.873 -2.61862 -4.35191 0
M  V30 6023 H 560.803 -1.03422 -5.16344 0
M  V30 6024 H 563.294 -1.13366 -3.60495 0
M  V30 6025 H 563.607 -2.9072 -7.16032 0
M  V30 6026 H 561.952 -2.60808 -6.44208 0
M  V30 6027 H 565.143 -1.48439 -4.43941 0
M  V30 6028 H 565.316 -2.29293 -6.06077 0
M  V30 6029 N 558.722 1.53707 -0.348139 0
M  V30 6030 C 559.969 2.00988 0.246966 0
M  V30 6031 C 560.297 1.23586 1.50189 0
M  V30 6032 O 559.552 0.312817 1.93184 0
M  V30 6033 C 559.851 3.52292 0.602061 0
M  V30 6034 C 559.517 4.47453 -0.556509 0
M  V30 6035 C 558.179 4.73188 -0.874446 0
M  V30 6036 C 560.531 5.03851 -1.33354 0
M  V30 6037 C 557.859 5.52577 -1.9717 0
M  V30 6038 C 560.211 5.84437 -2.42108 0
M  V30 6039 C 558.875 6.08465 -2.74456 0
M  V30 6040 H 558.145 0.735469 0.0903712 0
M  V30 6041 H 560.792 1.85464 -0.477001 0
M  V30 6042 H 559.097 3.65672 1.40681 0
M  V30 6043 H 560.794 3.86337 1.07447 0
M  V30 6044 H 557.384 4.27558 -0.298652 0
M  V30 6045 H 561.568 4.8393 -1.10117 0
M  V30 6046 H 556.824 5.69418 -2.22651 0
M  V30 6047 H 560.998 6.27151 -3.02745 0
M  V30 6048 H 558.625 6.69768 -3.59604 0
M  V30 6049 N 560.2 0.0768682 1.57412 0
M  V30 6050 C 561.147 -0.888577 2.13009 0
M  V30 6051 C 562.117 -1.29198 1.0439 0
M  V30 6052 O 563.302 -1.37694 1.3208 0
M  V30 6053 C 560.442 -2.14899 2.70023 0
M  V30 6054 C 559.555 -1.79777 3.92816 0
M  V30 6055 C 558.69 -3.00467 4.38056 0
M  V30 6056 C 557.729 -2.61385 5.53484 0
M  V30 6057 N 556.866 -3.74851 5.93659 0
M  V30 6058 H 561.706 -0.407593 2.95199 0
M  V30 6059 H 559.243 -0.189534 1.45874 0
M  V30 6060 H 561.201 -2.88688 3.0119 0
M  V30 6061 H 559.831 -2.60529 1.9059 0
M  V30 6062 H 558.883 -0.960301 3.68079 0
M  V30 6063 H 560.195 -1.47027 4.76639 0
M  V30 6064 H 559.349 -3.82529 4.7091 0
M  V30 6065 H 558.088 -3.36413 3.53097 0
M  V30 6066 H 557.093 -1.77746 5.20275 0
M  V30 6067 H 558.318 -2.26603 6.40178 0
M  V30 6068 H 556.264 -4.1055 5.11649 0
M  V30 6069 H 556.181 -3.45887 6.72234 0
M  V30 6070 H 557.449 -4.57477 6.31138 0
M  V30 6071 N 561.678 -1.56367 -0.196722 0
M  V30 6072 C 562.906 -1.84639 -0.933608 0
M  V30 6073 C 563.321 -0.659164 -1.76919 0
M  V30 6074 O 562.678 0.372142 -1.78665 0
M  V30 6075 C 562.729 -3.11694 -1.83109 0
M  V30 6076 O 562.45 -4.25838 -1.02924 0
M  V30 6077 C 563.951 -3.53132 -2.67979 0
M  V30 6078 H 561.171 -0.613188 -0.272473 0
M  V30 6079 H 563.715 -2.03475 -0.204465 0
M  V30 6080 H 561.87 -2.94759 -2.51387 0
M  V30 6081 H 562.284 -4.98178 -1.64069 0
M  V30 6082 H 563.758 -4.45005 -3.26611 0
M  V30 6083 H 564.235 -2.76045 -3.41608 0
M  V30 6084 H 564.841 -3.72592 -2.05074 0
M  V30 6085 N 563.156 0.464375 -1.50603 0
M  V30 6086 C 564.086 1.56944 -1.72889 0
M  V30 6087 C 565.067 1.59979 -0.577997 0
M  V30 6088 O 566.252 1.76138 -0.817855 0
M  V30 6089 C 563.382 2.95225 -1.8292 0
M  V30 6090 C 562.336 3.07056 -2.98162 0
M  V30 6091 C 561.662 4.47051 -2.93343 0
M  V30 6092 C 562.962 2.83648 -4.38567 0
M  V30 6093 H 564.656 1.38547 -2.65415 0
M  V30 6094 H 562.202 0.665082 -1.27721 0
M  V30 6095 H 564.155 3.72467 -1.97095 0
M  V30 6096 H 562.879 3.14793 -0.870209 0
M  V30 6097 H 561.538 2.32248 -2.83648 0
M  V30 6098 H 561.186 4.63547 -1.95276 0
M  V30 6099 H 560.886 4.55902 -3.70712 0
M  V30 6100 H 562.41 5.26304 -3.09575 0
M  V30 6101 H 563.824 3.50636 -4.53572 0
M  V30 6102 H 562.221 3.03937 -5.17438 0
M  V30 6103 H 563.291 1.79451 -4.50472 0
M  V30 6104 N 564.634 1.40294 0.718013 0
M  V30 6105 C 565.88 1.38645 1.48005 0
M  V30 6106 C 566.213 -0.0121202 1.94196 0
M  V30 6107 O 565.488 -0.980309 1.67989 0
M  V30 6108 C 565.771 2.37379 2.70782 0
M  V30 6109 C 565.624 3.8625 2.30501 0
M  V30 6110 C 566.943 2.33685 3.72933 0
M  V30 6111 H 564.062 0.504928 0.536858 0
M  V30 6112 H 566.704 1.71411 0.819649 0
M  V30 6113 H 564.854 2.09568 3.27129 0
M  V30 6114 H 566.526 4.24879 1.79655 0
M  V30 6115 H 564.769 4.02202 1.6253 0
M  V30 6116 H 565.44 4.50847 3.18498 0
M  V30 6117 H 567.916 2.58314 3.2621 0
M  V30 6118 H 566.792 3.0482 4.56482 0
M  V30 6119 H 567.053 1.34765 4.21059 0
M  V30 6120 N 566.112 -0.949982 1.2575 0
M  V30 6121 C 567.022 -2.08109 1.08295 0
M  V30 6122 C 568.038 -1.7399 0.0188181 0
M  V30 6123 O 569.214 -2.00187 0.220724 0
M  V30 6124 C 566.279 -3.39383 0.708534 0
M  V30 6125 C 565.34 -3.8734 1.85111 0
M  V30 6126 C 564.573 -5.12349 1.49447 0
M  V30 6127 O 564.796 -5.6905 0.392212 0
M  V30 6128 O 563.73 -5.5513 2.32624 0
M  V30 6129 H 567.556 -2.25738 2.03165 0
M  V30 6130 H 565.141 -1.06545 1.04731 0
M  V30 6131 H 567.023 -4.18277 0.512061 0
M  V30 6132 H 565.698 -3.23013 -0.210854 0
M  V30 6133 H 564.605 -3.09429 2.10248 0
M  V30 6134 H 565.938 -4.08216 2.74991 0
M  V30 6135 N 567.59 -1.07411 -1.15328 0
M  V30 6136 C 568.537 -0.694995 -2.20087 0
M  V30 6137 C 569.507 0.313904 -1.63107 0
M  V30 6138 O 570.692 0.200216 -1.89747 0
M  V30 6139 C 567.832 -0.0996218 -3.44956 0
M  V30 6140 C 566.945 -1.16007 -4.16133 0
M  V30 6141 C 566.08 -0.529636 -5.28553 0
M  V30 6142 C 565.119 -1.57283 -5.91548 0
M  V30 6143 N 564.256 -0.964932 -6.95438 0
M  V30 6144 H 569.096 -1.5927 -2.51867 0
M  V30 6145 H 566.633 -0.796115 -1.23695 0
M  V30 6146 H 568.591 0.263197 -4.16369 0
M  V30 6147 H 567.221 0.761435 -3.13691 0
M  V30 6148 H 566.273 -1.64045 -3.4321 0
M  V30 6149 H 567.585 -1.95101 -4.59061 0
M  V30 6150 H 566.739 -0.114487 -6.06592 0
M  V30 6151 H 565.478 0.29307 -4.86819 0
M  V30 6152 H 564.483 -1.99775 -5.12221 0
M  V30 6153 H 565.708 -2.39783 -6.35359 0
M  V30 6154 H 563.654 -0.16314 -6.55797 0
M  V30 6155 H 563.571 -1.69311 -7.36797 0
M  V30 6156 H 564.839 -0.575305 -7.77374 0
M  V30 6157 N 569.068 1.32177 -0.85831 0
M  V30 6158 C 570.296 2.01313 -0.477582 0
M  V30 6159 C 570.711 1.6449 0.926736 0
M  V30 6160 O 570.068 0.868096 1.60531 0
M  V30 6161 C 570.119 3.56293 -0.611337 0
M  V30 6162 O 569.84 3.91794 -1.96034 0
M  V30 6163 C 571.341 4.42702 -0.230093 0
M  V30 6164 H 568.561 0.644323 -0.187322 0
M  V30 6165 H 571.105 1.68674 -1.15626 0
M  V30 6166 H 569.26 3.87395 0.0196494 0
M  V30 6167 H 569.674 4.86513 -1.95973 0
M  V30 6168 H 571.148 5.50727 -0.374674 0
M  V30 6169 H 571.625 4.3129 0.829779 0
M  V30 6170 H 572.231 4.16997 -0.836302 0
M  V30 6171 N 570.547 0.616602 1.45037 0
M  V30 6172 C 571.793 0.123965 2.03022 0
M  V30 6173 C 572.148 -1.23508 1.47525 0
M  V30 6174 O 571.441 -1.80453 0.643981 0
M  V30 6175 C 571.635 0.0356829 3.57382 0
M  V30 6176 C 571.464 1.38462 4.27853 0
M  V30 6177 C 570.234 1.96766 4.65415 0
M  V30 6178 C 572.432 2.31536 4.59234 0
M  V30 6179 N 570.414 3.25046 5.20786 0
M  V30 6180 C 571.785 3.4442 5.15533 0
M  V30 6181 C 573.84 2.30796 4.41178 0
M  V30 6182 C 572.543 4.56742 5.55679 0
M  V30 6183 C 574.569 3.42171 4.82362 0
M  V30 6184 C 573.931 4.53778 5.38762 0
M  V30 6185 H 570.03 0.0889428 0.776925 0
M  V30 6186 H 572.614 0.816925 1.76733 0
M  V30 6187 H 570.785 -0.62652 3.83314 0
M  V30 6188 H 572.517 -0.464443 4.02026 0
M  V30 6189 H 569.272 1.4987 4.49261 0
M  V30 6190 H 569.696 3.90592 5.52962 0
M  V30 6191 H 574.338 1.45765 3.96878 0
M  V30 6192 H 572.056 5.42491 5.9894 0
M  V30 6193 H 575.642 3.42757 4.70116 0
M  V30 6194 H 574.522 5.38536 5.70043 0
M  V30 6195 N 572.025 -1.5352 0.356285 0
M  V30 6196 C 573.436 -1.86282 -0.12492 0
M  V30 6197 C 573.787 -1.27717 -1.48939 0
M  V30 6198 O 572.912 -0.595614 -2.08042 0
M  V30 6199 C 573.507 -3.37995 -0.23345 0
M  V30 6200 C 572.066 -3.70588 -0.658899 0
M  V30 6201 C 571.213 -2.76581 0.199596 0
M  V30 6202 H 574.164 -1.47901 0.575423 0
M  V30 6203 H 574.185 -3.65475 -1.0587 0
M  V30 6204 H 573.697 -3.8059 0.759776 0
M  V30 6205 H 571.798 -3.33544 -1.66069 0
M  V30 6206 H 571.911 -4.77076 -0.439957 0
M  V30 6207 H 570.275 -2.52552 -0.330076 0
M  V30 6208 H 571.058 -3.22008 1.19019 0
M  V30 6209 N 573.503 -0.0852151 -1.57369 0
M  V30 6210 C 574.751 0.579658 -1.93609 0
M  V30 6211 C 575.072 1.69332 -0.967043 0
M  V30 6212 O 574.342 1.95892 -0.0174215 0
M  V30 6213 H 572.922 0.217113 -0.714752 0
M  V30 6214 H 575.584 -0.146226 -1.94351 0
M  V30 6215 H 574.68 0.996276 -2.95771 0
M  V30 6216 N 574.981 1.5647 0.188427 0
M  V30 6217 C 576.258 1.71857 0.934058 0
M  V30 6218 C 576.638 0.641867 2.01105 0
M  V30 6219 O 575.986 -0.346098 2.25864 0
M  V30 6220 C 576.196 3.14431 1.5144 0
M  V30 6221 C 577.544 3.74869 1.99396 0
M  V30 6222 O 578.568 3.17601 1.61269 0
M  V30 6223 O 577.427 4.75387 2.69573 0
M  V30 6224 H 574.521 0.701186 0.438483 0
M  V30 6225 H 577.067 1.68768 0.177599 0
M  V30 6226 H 575.839 3.8427 0.738416 0
M  V30 6227 H 575.462 3.21775 2.33552 0
M  V30 6228 N 576.459 -0.456382 1.50847 0
M  V30 6229 C 577.369 -1.57805 1.73594 0
M  V30 6230 C 578.385 -1.62599 0.619476 0
M  V30 6231 O 579.561 -1.80195 0.899532 0
M  V30 6232 C 576.626 -2.93926 1.8387 0
M  V30 6233 C 575.687 -2.99402 3.07663 0
M  V30 6234 C 574.92 -4.29031 3.1744 0
M  V30 6235 O 575.143 -5.20358 2.33631 0
M  V30 6236 O 574.077 -4.40401 4.10281 0
M  V30 6237 H 577.903 -1.41531 2.68705 0
M  V30 6238 H 575.488 -0.637422 1.3512 0
M  V30 6239 H 577.37 -3.74747 1.92725 0
M  V30 6240 H 576.045 -3.10368 0.91944 0
M  V30 6241 H 574.952 -2.17606 3.043 0
M  V30 6242 H 576.285 -2.87901 3.99216 0
M  V30 6243 N 577.937 -1.40673 -0.710563 0
M  V30 6244 C 578.884 -1.41336 -1.82463 0
M  V30 6245 C 579.854 -0.269648 -1.63897 0
M  V30 6246 O 581.039 -0.468463 -1.8496 0
M  V30 6247 C 578.179 -1.28665 -3.20218 0
M  V30 6248 C 577.292 -2.52784 -3.5032 0
M  V30 6249 C 576.427 -2.32517 -4.77608 0
M  V30 6250 C 575.466 -3.52187 -5.0063 0
M  V30 6251 N 574.603 -3.31084 -6.19135 0
M  V30 6252 H 579.443 -2.36558 -1.8123 0
M  V30 6253 H 576.98 -1.17483 -0.885226 0
M  V30 6254 H 578.938 -1.19324 -3.99772 0
M  V30 6255 H 577.568 -0.370602 -3.20666 0
M  V30 6256 H 576.62 -2.72634 -2.65283 0
M  V30 6257 H 577.932 -3.41845 -3.63241 0
M  V30 6258 H 577.086 -2.20558 -5.65189 0
M  V30 6259 H 575.825 -1.40889 -4.66906 0
M  V30 6260 H 574.83 -3.64617 -4.11502 0
M  V30 6261 H 576.055 -4.44749 -5.13201 0
M  V30 6262 H 574.001 -2.42143 -6.09674 0
M  V30 6263 H 573.918 -4.13713 -6.32754 0
M  V30 6264 H 575.186 -3.22868 -7.0949 0
M  V30 6265 N 579.415 0.9433 -1.26252 0
M  V30 6266 C 580.661 1.69175 -1.11837 0
M  V30 6267 C 580.994 1.91238 0.337891 0
M  V30 6268 O 580.269 1.49152 1.24836 0
M  V30 6269 C 580.552 3.06783 -1.88563 0
M  V30 6270 C 580.405 2.9206 -3.42083 0
M  V30 6271 C 581.724 4.06865 -1.67776 0
M  V30 6272 H 578.843 0.61399 -0.407658 0
M  V30 6273 H 581.485 1.09572 -1.55222 0
M  V30 6274 H 579.635 3.57663 -1.51689 0
M  V30 6275 H 581.307 2.48419 -3.88698 0
M  V30 6276 H 579.55 2.27731 -3.69217 0
M  V30 6277 H 580.221 3.89651 -3.90994 0
M  V30 6278 H 582.697 3.64939 -1.99897 0
M  V30 6279 H 581.573 5.01168 -2.23879 0
M  V30 6280 H 581.834 4.37705 -0.621816 0
M  V30 6281 N 580.893 1.08022 1.14757 0
M  V30 6282 C 582.139 0.818552 1.86202 0
M  V30 6283 C 582.494 -0.648563 1.81139 0
M  V30 6284 O 581.787 -1.4704 1.22841 0
M  V30 6285 C 581.981 1.26964 3.34088 0
M  V30 6286 C 581.81 2.77907 3.5355 0
M  V30 6287 C 580.58 3.45604 3.68627 0
M  V30 6288 C 582.778 3.7609 3.50801 0
M  V30 6289 N 580.76 4.85119 3.76209 0
M  V30 6290 C 582.131 5.0148 3.64579 0
M  V30 6291 C 584.186 3.6915 3.34115 0
M  V30 6292 C 582.889 6.20755 3.63395 0
M  V30 6293 C 584.915 4.87896 3.34233 0
M  V30 6294 C 584.277 6.12123 3.48547 0
M  V30 6295 H 580.376 0.352186 0.698204 0
M  V30 6296 H 582.96 1.37781 1.37567 0
M  V30 6297 H 581.131 0.738008 3.81324 0
M  V30 6298 H 582.863 0.954806 3.93275 0
M  V30 6299 H 579.618 2.96016 3.69691 0
M  V30 6300 H 580.042 5.57748 3.83726 0
M  V30 6301 H 584.684 2.74045 3.21961 0
M  V30 6302 H 582.402 7.16175 3.74326 0
M  V30 6303 H 585.988 4.8421 3.2254 0
M  V30 6304 H 584.868 7.02468 3.48581 0
M  V30 6305 N 582.371 -1.3172 0.865308 0
M  V30 6306 C 583.334 -2.26918 0.322627 0
M  V30 6307 C 584.334 -1.52031 -0.523751 0
M  V30 6308 O 585.524 -1.70973 -0.333727 0
M  V30 6309 C 582.656 -3.36558 -0.542338 0
M  V30 6310 H 583.849 -2.76432 1.16298 0
M  V30 6311 H 581.402 -1.42573 0.640512 0
M  V30 6312 H 582.137 -2.92329 -1.40407 0
M  V30 6313 H 581.922 -3.92048 0.0636395 0
M  V30 6314 H 583.412 -4.07465 -0.91446 0
M  V30 6315 N 583.85 -0.624285 -1.44708 0
M  V30 6316 C 584.797 0.0847135 -2.30644 0
M  V30 6317 C 585.767 0.843575 -1.43084 0
M  V30 6318 O 586.952 0.825982 -1.71995 0
M  V30 6319 C 584.091 1.06495 -3.28257 0
M  V30 6320 C 583.205 0.305224 -4.3092 0
M  V30 6321 C 582.34 1.27667 -5.1563 0
M  V30 6322 C 581.379 0.505706 -6.10007 0
M  V30 6323 N 580.516 1.42727 -6.8744 0
M  V30 6324 H 585.356 -0.654068 -2.90733 0
M  V30 6325 H 582.893 -0.334334 -1.4325 0
M  V30 6326 H 584.851 1.64658 -3.83332 0
M  V30 6327 H 583.481 1.77094 -2.69884 0
M  V30 6328 H 582.533 -0.392207 -3.78373 0
M  V30 6329 H 583.845 -0.295553 -4.97924 0
M  V30 6330 H 582.999 1.92984 -5.75189 0
M  V30 6331 H 581.738 1.91137 -4.48685 0
M  V30 6332 H 580.743 -0.160999 -5.49564 0
M  V30 6333 H 581.968 -0.124183 -6.78986 0
M  V30 6334 H 579.913 2.04931 -6.23169 0
M  V30 6335 H 579.831 0.880345 -7.50857 0
M  V30 6336 H 581.099 2.0695 -7.51526 0
M  V30 6337 N 585.328 1.53329 -0.364422 0
M  V30 6338 C 586.258 2.28627 0.474543 0
M  V30 6339 C 587.239 1.31009 1.08492 0
M  V30 6340 O 588.424 1.59878 1.10239 0
M  V30 6341 C 585.554 3.07465 1.61501 0
M  V30 6342 C 584.508 4.1276 1.13194 0
M  V30 6343 C 583.834 4.79674 2.36255 0
M  V30 6344 C 585.134 5.21847 0.217507 0
M  V30 6345 H 586.828 2.99005 -0.153656 0
M  V30 6346 H 584.374 1.43803 -0.0753406 0
M  V30 6347 H 586.327 3.58889 2.20855 0
M  V30 6348 H 585.051 2.34775 2.27042 0
M  V30 6349 H 583.71 3.62281 0.56109 0
M  V30 6350 H 583.358 4.03557 3.00251 0
M  V30 6351 H 583.058 5.50827 2.04606 0
M  V30 6352 H 584.582 5.33892 2.96297 0
M  V30 6353 H 585.996 5.6878 0.718493 0
M  V30 6354 H 584.393 6.00099 -0.00806408 0
M  V30 6355 H 585.463 4.7921 -0.740653 0
M  V30 6356 N 586.806 0.0935595 1.57322 0
M  V30 6357 C 587.769 -0.851426 2.12799 0
M  V30 6358 C 588.769 -1.21187 1.0569 0
M  V30 6359 O 589.959 -1.14156 1.31583 0
M  V30 6360 C 587.091 -2.14779 2.64731 0
M  V30 6361 H 588.284 -0.369733 2.97612 0
M  V30 6362 H 585.837 -0.155417 1.55525 0
M  V30 6363 H 586.572 -2.67437 1.83434 0
M  V30 6364 H 586.357 -1.89907 3.43042 0
M  V30 6365 H 587.847 -2.82383 3.07651 0
M  V30 6366 N 588.284 -1.56567 -0.180126 0
M  V30 6367 C 589.53 -1.81761 -0.899497 0
M  V30 6368 C 589.863 -0.670015 -1.82276 0
M  V30 6369 O 589.138 0.328575 -1.91705 0
M  V30 6370 C 589.421 -3.17296 -1.7028 0
M  V30 6371 C 589.274 -4.4257 -0.803255 0
M  V30 6372 C 590.593 -3.49678 -2.67233 0
M  V30 6373 H 587.712 -0.661192 -0.325567 0
M  V30 6374 H 590.354 -1.89272 -0.16612 0
M  V30 6375 H 588.504 -3.11023 -2.32802 0
M  V30 6376 H 590.176 -4.60902 -0.191585 0
M  V30 6377 H 588.419 -4.33658 -0.110796 0
M  V30 6378 H 589.09 -5.33935 -1.40064 0
M  V30 6379 H 591.566 -3.56347 -2.14839 0
M  V30 6380 H 590.442 -4.45605 -3.20511 0
M  V30 6381 H 590.703 -2.73932 -3.47007 0
M  V30 6382 N 589.762 0.448376 -1.51087 0
M  V30 6383 C 591.008 1.20049 -1.6345 0
M  V30 6384 C 591.341 1.91121 -0.344444 0
M  V30 6385 O 590.616 1.83125 0.655396 0
M  V30 6386 C 590.899 2.22624 -2.83038 0
M  V30 6387 C 590.752 1.55708 -4.21989 0
M  V30 6388 C 592.071 3.23718 -2.98152 0
M  V30 6389 H 589.19 0.435085 -0.59487 0
M  V30 6390 H 591.832 0.491183 -1.83541 0
M  V30 6391 H 589.982 2.83117 -2.66039 0
M  V30 6392 H 591.654 0.986367 -4.50631 0
M  V30 6393 H 589.897 0.859647 -4.25197 0
M  V30 6394 H 590.568 2.30357 -5.01637 0
M  V30 6395 H 593.044 2.73269 -3.13788 0
M  V30 6396 H 591.92 3.92795 -3.83411 0
M  V30 6397 H 592.181 3.89179 -2.09743 0
M  V30 6398 N 591.24 1.41047 0.703093 0
M  V30 6399 C 592.19 1.38774 1.80903 0
M  V30 6400 C 593.174 0.263275 1.58731 0
M  V30 6401 O 594.366 0.503362 1.69692 0
M  V30 6402 C 591.495 1.26497 3.19145 0
M  V30 6403 C 590.581 2.43775 3.47037 0
M  V30 6404 N 590.972 3.69249 3.45672 0
M  V30 6405 C 589.27 2.37425 3.77552 0
M  V30 6406 C 589.971 4.46989 3.72258 0
M  V30 6407 N 588.947 3.76998 3.91629 0
M  V30 6408 H 592.749 2.33714 1.78199 0
M  V30 6409 H 590.263 1.34996 0.902762 0
M  V30 6410 H 592.26 1.2295 3.98358 0
M  V30 6411 H 590.92 0.32534 3.23066 0
M  V30 6412 H 591.931 4.02239 3.26228 0
M  V30 6413 H 588.608 1.51895 3.88888 0
M  V30 6414 H 589.998 5.55894 3.77402 0
M  V30 6415 N 592.718 -0.936591 1.26751 0
M  V30 6416 C 593.995 -1.66094 1.03306 0
M  V30 6417 C 594.375 -2.06568 -0.435058 0
M  V30 6418 O 593.723 -1.79305 -1.41641 0
M  V30 6419 C 593.933 -2.86969 1.98619 0
M  V30 6420 C 595.281 -3.58516 2.27489 0
M  V30 6421 O 596.305 -2.97082 1.96522 0
M  V30 6422 O 595.164 -4.69181 2.80235 0
M  V30 6423 H 592.258 -0.727568 0.393158 0
M  V30 6424 H 594.804 -0.987914 1.3798 0
M  V30 6425 H 593.576 -2.53985 2.9767 0
M  V30 6426 H 593.199 -3.61996 1.64454 0
M  V30 6427 N 594.196 -1.08629 -1.14182 0
M  V30 6428 C 595.143 -0.718299 -2.19338 0
M  V30 6429 C 596.113 0.296587 -1.63431 0
M  V30 6430 O 597.298 0.180079 -1.89948 0
M  V30 6431 C 594.438 -0.136203 -3.44831 0
M  V30 6432 C 593.551 -1.20414 -4.14879 0
M  V30 6433 C 592.686 -0.585666 -5.27962 0
M  V30 6434 C 591.725 -1.63548 -5.89846 0
M  V30 6435 N 590.862 -1.03864 -6.94375 0
M  V30 6436 H 595.702 -1.61932 -2.50164 0
M  V30 6437 H 593.239 -0.80919 -1.22844 0
M  V30 6438 H 595.197 0.219021 -4.16625 0
M  V30 6439 H 593.827 0.728121 -3.14481 0
M  V30 6440 H 592.879 -1.67676 -3.41451 0
M  V30 6441 H 594.191 -1.99959 -4.56966 0
M  V30 6442 H 593.345 -0.178818 -6.06436 0
M  V30 6443 H 592.084 0.24142 -4.87102 0
M  V30 6444 H 591.089 -2.05197 -5.10073 0
M  V30 6445 H 592.314 -2.46509 -6.3278 0
M  V30 6446 H 590.26 -0.232687 -6.55587 0
M  V30 6447 H 590.177 -1.77116 -7.3496 0
M  V30 6448 H 591.445 -0.657724 -7.7672 0
M  V30 6449 N 595.674 1.31259 -0.872281 0
M  V30 6450 C 596.606 2.27396 -0.28697 0
M  V30 6451 C 597.619 1.53181 0.551297 0
M  V30 6452 O 598.808 1.74561 0.372914 0
M  V30 6453 C 595.908 3.33335 0.611617 0
M  V30 6454 C 595.081 4.36966 -0.194729 0
M  V30 6455 C 594.14 5.22387 0.632358 0
M  V30 6456 O 593.166 5.69169 0.0595691 0
M  V30 6457 N 594.368 5.46985 1.94391 0
M  V30 6458 H 597.133 2.78261 -1.11314 0
M  V30 6459 H 594.694 1.44306 -0.733994 0
M  V30 6460 H 596.686 3.87398 1.17068 0
M  V30 6461 H 595.256 2.82496 1.33846 0
M  V30 6462 H 594.476 3.82945 -0.935241 0
M  V30 6463 H 595.764 5.03273 -0.747935 0
M  V30 6464 H 595.162 5.10737 2.43237 0
M  V30 6465 H 593.719 6.03973 2.45071 0
M  V30 6466 N 597.152 0.631951 1.44375 0
M  V30 6467 C 598.398 0.13697 2.02337 0
M  V30 6468 C 598.731 -1.23826 1.49602 0
M  V30 6469 O 598.006 -1.8221 0.680415 0
M  V30 6470 C 598.289 0.124536 3.59885 0
M  V30 6471 C 598.142 1.53217 4.229 0
M  V30 6472 C 599.461 -0.550481 4.36644 0
M  V30 6473 H 596.58 0.051247 0.735216 0
M  V30 6474 H 599.222 0.808581 1.71936 0
M  V30 6475 H 597.372 -0.44737 3.85916 0
M  V30 6476 H 599.044 2.15303 4.07973 0
M  V30 6477 H 597.287 2.0858 3.80364 0
M  V30 6478 H 597.958 1.4755 5.31914 0
M  V30 6479 H 600.434 -0.0641154 4.16051 0
M  V30 6480 H 599.31 -0.528371 5.46351 0
M  V30 6481 H 599.571 -1.62097 4.11311 0
M  V30 6482 N 598.631 -1.53133 0.372548 0
M  V30 6483 C 599.581 -2.22733 -0.487218 0
M  V30 6484 C 600.565 -1.22506 -1.04312 0
M  V30 6485 O 601.757 -1.47923 -0.972005 0
M  V30 6486 C 598.886 -3.02524 -1.62278 0
M  V30 6487 C 597.972 -4.10133 -1.07943 0
M  V30 6488 N 598.363 -5.05133 -0.259629 0
M  V30 6489 C 596.661 -4.24964 -1.35356 0
M  V30 6490 C 597.362 -5.81687 0.0386656 0
M  V30 6491 N 596.338 -5.40699 -0.560827 0
M  V30 6492 H 600.14 -2.93538 0.145853 0
M  V30 6493 H 597.654 -1.61389 0.180938 0
M  V30 6494 H 599.651 -3.50909 -2.25096 0
M  V30 6495 H 598.311 -2.33252 -2.25884 0
M  V30 6496 H 599.322 -5.178 0.101746 0
M  V30 6497 H 595.999 -3.66919 -1.9919 0
M  V30 6498 H 597.389 -6.68224 0.701841 0
M  V30 6499 N 600.109 -0.101901 -1.5727 0
M  V30 6500 C 601.042 0.891377 -2.10071 0
M  V30 6501 C 602.02 1.27197 -1.01291 0
M  V30 6502 O 603.204 1.37602 -1.28833 0
M  V30 6503 C 600.331 2.19049 -2.58331 0
M  V30 6504 C 599.377 1.95925 -3.78834 0
M  V30 6505 S 600.21 1.19106 -5.22086 0
M  V30 6506 C 601.366 2.50234 -5.73702 0
M  V30 6507 H 601.599 0.442212 -2.93993 0
M  V30 6508 H 599.132 0.111529 -1.53997 0
M  V30 6509 H 601.09 2.937 -2.86793 0
M  V30 6510 H 599.751 2.61086 -1.74622 0
M  V30 6511 H 598.944 2.92143 -4.10693 0
M  V30 6512 H 598.546 1.29401 -3.50901 0
M  V30 6513 H 600.838 3.46173 -5.82384 0
M  V30 6514 H 601.781 2.22944 -6.72088 0
M  V30 6515 H 602.189 2.58818 -5.01671 0
M  V30 6516 N 601.587 1.56661 0.17182 0
M  V30 6517 C 602.55 1.9549 1.19651 0
M  V30 6518 C 603.55 0.838501 1.37207 0
M  V30 6519 O 604.74 1.10556 1.34622 0
M  V30 6520 C 601.872 2.24927 2.56166 0
M  V30 6521 H 603.065 2.87184 0.864007 0
M  V30 6522 H 600.618 1.50711 0.41425 0
M  V30 6523 H 601.353 1.35944 2.94431 0
M  V30 6524 H 601.138 3.06301 2.4479 0
M  V30 6525 H 602.628 2.55891 3.30014 0
M  V30 6526 N 603.065 -0.440357 1.51323 0
M  V30 6527 C 604.013 -1.55492 1.72988 0
M  V30 6528 C 605.007 -1.58564 0.596138 0
M  V30 6529 O 606.213 -1.62345 0.777443 0
M  V30 6530 H 602.588 -0.516532 0.546533 0
M  V30 6531 H 604.559 -1.34392 2.66423 0
M  V30 6532 C 603.308 -2.93176 1.86931 0
M  V30 6533 H 602.631 -2.91543 2.73574 0
M  V30 6534 H 604.071 -3.70537 2.06103 0
M  V30 6535 C 602.53 -3.30988 0.628365 0
M  V30 6536 O 603.06 -4.01106 -0.218367 0
M  V30 6537 N 601.266 -2.86719 0.473339 0
M  V30 6538 H 600.813 -2.2983 1.16345 0
M  V30 6539 H 600.771 -3.12381 -0.355727 0
M  V30 6540 N 604.543 -1.41418 -0.695603 0
M  V30 6541 C 605.473 -1.46035 -1.82197 0
M  V30 6542 C 606.454 -0.319025 -1.67082 0
M  V30 6543 O 607.639 -0.530462 -1.86815 0
M  V30 6544 C 604.769 -1.34179 -3.20333 0
M  V30 6545 C 603.723 -2.46123 -3.50154 0
M  V30 6546 C 603.049 -2.19332 -4.87645 0
M  V30 6547 C 604.349 -3.88463 -3.49133 0
M  V30 6548 H 606.043 -2.40303 -1.78591 0
M  V30 6549 H 603.589 -1.15663 -0.857797 0
M  V30 6550 H 605.542 -1.36021 -3.98844 0
M  V30 6551 H 604.266 -0.363952 -3.24566 0
M  V30 6552 H 602.925 -2.43563 -2.73994 0
M  V30 6553 H 602.573 -1.19891 -4.88503 0
M  V30 6554 H 602.273 -2.94344 -5.08562 0
M  V30 6555 H 603.797 -2.22889 -5.68465 0
M  V30 6556 H 605.211 -3.92738 -4.17648 0
M  V30 6557 H 603.608 -4.63158 -3.81582 0
M  V30 6558 H 604.678 -4.16617 -2.48109 0
M  V30 6559 N 606.021 0.929856 -1.27246 0
M  V30 6560 C 607.261 1.6919 -1.14691 0
M  V30 6561 C 607.625 1.896 0.302621 0
M  V30 6562 O 608.826 2.63102 0.550543 0
M  V30 6563 C 607.097 3.02291 -1.9067 0
M  V30 6564 S 608.656 3.93436 -1.94303 0
M  V30 6565 H 605.474 0.581248 -0.409477 0
M  V30 6566 H 608.076 1.10722 -1.61124 0
M  V30 6567 H 606.78 2.85125 -2.95181 0
M  V30 6568 H 606.311 3.65813 -1.44723 0
M  V30 6569 H 608.326 4.85224 -1.0379 0
M  V30 6570 N 607.499 1.09233 1.13605 0
M  V30 6571 C 608.745 0.828385 1.8511 0
M  V30 6572 C 609.078 -0.64437 1.83198 0
M  V30 6573 O 608.353 -1.47428 1.26867 0
M  V30 6574 C 608.636 1.36167 3.33363 0
M  V30 6575 C 608.489 2.90038 3.438 0
M  V30 6576 C 609.808 0.993819 4.28732 0
M  V30 6577 H 606.927 0.30239 0.672108 0
M  V30 6578 H 609.569 1.35339 1.33355 0
M  V30 6579 H 607.719 0.9151 3.77569 0
M  V30 6580 H 609.391 3.43128 3.08319 0
M  V30 6581 H 607.634 3.27271 2.84739 0
M  V30 6582 H 608.305 3.22428 4.48045 0
M  V30 6583 H 610.781 1.37893 3.92587 0
M  V30 6584 H 609.657 1.39403 5.30903 0
M  V30 6585 H 609.918 -0.0982206 4.41991 0
M  V30 6586 N 608.977 -1.30795 0.87923 0
M  V30 6587 C 610.223 -1.96653 0.495519 0
M  V30 6588 C 610.556 -1.69282 -0.951703 0
M  V30 6589 O 609.831 -0.994374 -1.6716 0
M  V30 6590 C 610.114 -3.51898 0.764174 0
M  V30 6591 C 609.967 -3.88808 2.2616 0
M  V30 6592 C 611.286 -4.39462 0.236825 0
M  V30 6593 H 608.405 -0.7143 0.181507 0
M  V30 6594 H 611.047 -1.54765 1.10217 0
M  V30 6595 H 609.197 -3.87709 0.247841 0
M  V30 6596 H 610.869 -3.63051 2.8459 0
M  V30 6597 H 609.112 -3.37082 2.73053 0
M  V30 6598 H 609.783 -4.97086 2.4002 0
M  V30 6599 H 612.259 -4.10528 0.678683 0
M  V30 6600 H 611.135 -5.47018 0.454176 0
M  V30 6601 H 611.396 -4.33621 -0.861683 0
M  V30 6602 N 610.455 -0.639598 -1.44038 0
M  V30 6603 C 611.703 -0.147188 -2.01563 0
M  V30 6604 C 612.024 1.2384 -1.50628 0
M  V30 6605 O 611.294 1.82452 -0.713316 0
M  V30 6606 H 609.874 -0.0514231 -0.745228 0
M  V30 6607 H 612.536 -0.828205 -1.76428 0
M  V30 6608 H 611.632 -0.121358 -3.11864 0
M  V30 6609 N 611.933 1.52934 -0.380664 0
M  V30 6610 C 613.181 2.01069 0.203874 0
M  V30 6611 C 613.502 1.26922 1.4804 0
M  V30 6612 O 612.772 0.386787 1.92044 0
M  V30 6613 H 611.352 0.742882 0.0783279 0
M  V30 6614 H 614.014 1.88099 -0.510368 0
M  V30 6615 H 613.11 3.09258 0.42021 0
M  V30 6616 N 613.412 0.11024 1.57214 0
M  V30 6617 C 614.659 -0.54987 1.94891 0
M  V30 6618 C 614.987 -1.67243 0.992984 0
M  V30 6619 O 614.242 -1.95694 0.0152703 0
M  V30 6620 C 614.541 -1.13102 3.39032 0
M  V30 6621 C 614.207 -0.130713 4.5071 0
M  V30 6622 C 612.869 0.14437 4.80983 0
M  V30 6623 C 615.221 0.551472 5.18274 0
M  V30 6624 C 612.549 1.10807 5.76141 0
M  V30 6625 C 614.901 1.50375 6.14467 0
M  V30 6626 C 613.565 1.78691 6.43138 0
M  V30 6627 H 612.835 -0.201212 0.713158 0
M  V30 6628 H 615.482 0.189288 1.90562 0
M  V30 6629 H 613.787 -1.94675 3.40013 0
M  V30 6630 H 615.484 -1.64973 3.65493 0
M  V30 6631 H 612.074 -0.355301 4.27125 0
M  V30 6632 H 616.258 0.35211 4.95049 0
M  V30 6633 H 611.514 1.3343 5.96663 0
M  V30 6634 H 615.688 2.03808 6.65909 0
M  V30 6635 H 613.315 2.53522 7.1668 0
M  V30 6636 N 614.89 -1.56749 -0.16351 0
M  V30 6637 C 615.853 -1.96121 -1.18613 0
M  V30 6638 C 616.853 -0.845765 -1.36761 0
M  V30 6639 O 618.043 -1.11268 -1.34033 0
M  V30 6640 C 615.175 -2.26282 -2.54969 0
M  V30 6641 H 616.368 -2.87639 -0.848764 0
M  V30 6642 H 613.921 -1.50928 -0.406251 0
M  V30 6643 H 614.656 -1.37504 -2.93706 0
M  V30 6644 H 614.441 -3.07595 -2.43162 0
M  V30 6645 H 615.931 -2.57638 -3.28653 0
M  V30 6646 N 616.368 0.432326 -1.51554 0
M  V30 6647 C 617.614 1.18309 -1.64714 0
M  V30 6648 C 617.947 1.90745 -0.364696 0
M  V30 6649 O 617.222 1.8381 0.635936 0
M  V30 6650 C 617.505 2.1961 -2.85383 0
M  V30 6651 C 617.358 1.51223 -4.23617 0
M  V30 6652 C 618.677 3.20538 -3.01569 0
M  V30 6653 H 615.796 0.428751 -0.599451 0
M  V30 6654 H 618.438 0.471689 -1.84052 0
M  V30 6655 H 616.588 2.8028 -2.69027 0
M  V30 6656 H 618.26 0.938516 -4.51652 0
M  V30 6657 H 616.503 0.814501 -4.26085 0
M  V30 6658 H 617.174 2.25024 -5.04052 0
M  V30 6659 H 619.65 2.69926 -3.16669 0
M  V30 6660 H 618.526 3.88706 -3.87555 0
M  V30 6661 H 618.787 3.86933 -2.13859 0
M  V30 6662 N 617.846 1.41785 0.688094 0
M  V30 6663 C 618.794 1.44436 1.82321 0
M  V30 6664 C 619.788 0.321544 1.6632 0
M  V30 6665 O 620.994 0.493931 1.73091 0
M  V30 6666 H 617.369 0.452084 0.600936 0
M  V30 6667 H 619.34 2.40087 1.77202 0
M  V30 6668 C 618.089 1.35071 3.20392 0
M  V30 6669 H 617.412 2.2076 3.33324 0
M  V30 6670 H 618.852 1.40988 3.99873 0
M  V30 6671 C 617.311 0.0639127 3.36839 0
M  V30 6672 O 617.841 -0.888495 3.91751 0
M  V30 6673 N 616.047 -0.0146114 2.90596 0
M  V30 6674 H 615.594 0.761191 2.46097 0
M  V30 6675 H 615.552 -0.874988 3.01979 0
M  V30 6676 N 619.324 -0.923095 1.27737 0
M  V30 6677 C 620.572 -1.66797 1.14119 0
M  V30 6678 C 620.893 -1.92479 -0.312541 0
M  V30 6679 O 620.163 -1.53432 -1.218 0
M  V30 6680 H 618.743 -0.618196 0.419336 0
M  V30 6681 H 621.405 -1.10815 1.60331 0
M  V30 6682 H 620.501 -2.63424 1.67374 0
M  V30 6683 N 620.802 -1.09834 -1.13024 0
M  V30 6684 C 622.048 -0.83819 -1.84668 0
M  V30 6685 C 622.381 0.634645 -1.83537 0
M  V30 6686 O 621.656 1.46753 -1.27647 0
M  V30 6687 C 621.939 -1.37933 -3.32636 0
M  V30 6688 C 621.792 -2.91857 -3.42257 0
M  V30 6689 C 623.111 -1.01654 -4.28199 0
M  V30 6690 H 620.23 -0.30595 -0.670495 0
M  V30 6691 H 622.872 -1.36044 -1.32635 0
M  V30 6692 H 621.022 -0.935111 -3.77078 0
M  V30 6693 H 622.694 -3.44759 -3.06495 0
M  V30 6694 H 620.937 -3.28776 -2.83 0
M  V30 6695 H 621.608 -3.24799 -4.46329 0
M  V30 6696 H 624.084 -1.39973 -3.9185 0
M  V30 6697 H 622.96 -1.42217 -5.30156 0
M  V30 6698 H 623.221 0.0747794 -4.42037 0
M  V30 6699 N 622.28 1.30327 -0.886154 0
M  V30 6700 C 623.243 2.26376 -0.358687 0
M  V30 6701 C 624.243 1.52845 0.499498 0
M  V30 6702 O 625.433 1.71483 0.306485 0
M  V30 6703 C 622.565 3.37379 0.488726 0
M  V30 6704 H 623.758 2.74547 -1.20681 0
M  V30 6705 H 621.311 1.41536 -0.663113 0
M  V30 6706 H 622.046 2.94526 1.35739 0
M  V30 6707 H 621.831 3.91897 -0.126003 0
M  V30 6708 H 623.321 4.08868 0.84952 0
M  V30 6709 N 623.758 0.647228 1.43697 0
M  V30 6710 C 624.721 -0.0385101 2.29168 0
M  V30 6711 C 625.721 -0.756487 1.41894 0
M  V30 6712 O 626.911 -0.598641 1.63591 0
M  V30 6713 C 624.043 -1.06524 3.23829 0
M  V30 6714 H 625.236 0.713445 2.9129 0
M  V30 6715 H 622.789 0.408153 1.50877 0
M  V30 6716 H 623.524 -1.84664 2.66589 0
M  V30 6717 H 623.309 -0.554147 3.88164 0
M  V30 6718 H 624.799 -1.54432 3.87996 0
M  V30 6719 N 625.236 -1.5273 0.388769 0
M  V30 6720 C 626.166 -2.29353 -0.438111 0
M  V30 6721 C 627.147 -1.32719 -1.06394 0
M  V30 6722 O 628.332 -1.61612 -1.07681 0
M  V30 6723 C 625.462 -3.09995 -1.56589 0
M  V30 6724 C 624.416 -4.14509 -1.06613 0
M  V30 6725 C 623.742 -4.83372 -2.28594 0
M  V30 6726 C 625.042 -5.22127 -0.134459 0
M  V30 6727 H 626.736 -2.98723 0.201206 0
M  V30 6728 H 624.282 -1.43665 0.0982089 0
M  V30 6729 H 626.235 -3.62357 -2.15118 0
M  V30 6730 H 624.959 -2.38357 -2.23279 0
M  V30 6731 H 623.618 -3.63128 -0.503383 0
M  V30 6732 H 623.266 -4.08283 -2.93792 0
M  V30 6733 H 622.966 -5.54012 -1.95817 0
M  V30 6734 H 624.49 -5.38538 -2.87766 0
M  V30 6735 H 625.904 -5.69851 -0.627914 0
M  V30 6736 H 624.301 -6.00011 0.103534 0
M  V30 6737 H 625.371 -4.77971 0.816798 0
M  V30 6738 N 626.714 -0.118576 -1.57153 0
M  V30 6739 C 627.664 0.842924 -2.11846 0
M  V30 6740 C 628.648 1.22845 -1.03914 0
M  V30 6741 O 629.84 1.19961 -1.30148 0
M  V30 6742 C 626.969 2.09312 -2.72109 0
M  V30 6743 C 626.055 1.73198 -3.87122 0
M  V30 6744 N 626.446 1.07758 -4.94188 0
M  V30 6745 C 624.744 2.02659 -3.97298 0
M  V30 6746 C 625.445 0.907741 -5.74574 0
M  V30 6747 N 624.421 1.4326 -5.24383 0
M  V30 6748 H 628.223 0.333416 -2.92003 0
M  V30 6749 H 625.737 0.0839073 -1.62183 0
M  V30 6750 H 627.734 2.79162 -3.09635 0
M  V30 6751 H 626.394 2.60807 -1.93416 0
M  V30 6752 H 627.405 0.741613 -5.12563 0
M  V30 6753 H 624.082 2.56204 -3.29645 0
M  V30 6754 H 625.472 0.394112 -6.70743 0
M  V30 6755 N 628.193 1.56834 0.155195 0
M  V30 6756 C 629.418 1.87412 0.888337 0
M  V30 6757 C 629.843 0.70671 1.74319 0
M  V30 6758 O 629.201 -0.343892 1.78009 0
M  V30 6759 C 629.249 3.1652 1.72765 0
M  V30 6760 O 628.353 2.99877 2.83103 0
M  V30 6761 H 627.694 0.615983 0.247914 0
M  V30 6762 H 630.224 2.04061 0.148478 0
M  V30 6763 H 630.234 3.48334 2.12433 0
M  V30 6764 H 628.909 4.01094 1.09985 0
M  V30 6765 H 627.486 2.79453 2.46902 0
M  V30 6766 N 629.671 -0.424282 1.51781 0
M  V30 6767 C 630.948 -1.18464 1.55646 0
M  V30 6768 C 631.328 -2.08529 0.328438 0
M  V30 6769 O 630.676 -2.17969 -0.685693 0
M  V30 6770 C 630.886 -1.97514 2.87731 0
M  V30 6771 C 632.234 -2.54106 3.40169 0
M  V30 6772 O 633.258 -2.07711 2.89369 0
M  V30 6773 O 632.117 -3.38759 4.28841 0
M  V30 6774 H 629.211 -0.540055 0.626314 0
M  V30 6775 H 631.757 -0.432291 1.64102 0
M  V30 6776 H 630.529 -1.31444 3.68562 0
M  V30 6777 H 630.152 -2.79787 2.82498 0
M  V30 6778 N 631.149 -1.42148 -0.680565 0
M  V30 6779 C 632.079 -1.4796 -1.80638 0
M  V30 6780 C 633.06 -0.336728 -1.66734 0
M  V30 6781 O 634.245 -0.550247 -1.86242 0
M  V30 6782 C 631.375 -1.37569 -3.18892 0
M  V30 6783 C 630.329 -2.49823 -3.47524 0
M  V30 6784 C 629.655 -2.24491 -4.85291 0
M  V30 6785 C 630.955 -3.92144 -3.44994 0
M  V30 6786 H 632.649 -2.42184 -1.76032 0
M  V30 6787 H 630.195 -1.16566 -0.845481 0
M  V30 6788 H 632.148 -1.40243 -3.97379 0
M  V30 6789 H 630.872 -0.398357 -3.24162 0
M  V30 6790 H 629.531 -2.46455 -2.71395 0
M  V30 6791 H 629.179 -1.25066 -4.87204 0
M  V30 6792 H 628.879 -2.99722 -5.05411 0
M  V30 6793 H 630.403 -2.28906 -5.66069 0
M  V30 6794 H 631.817 -3.97145 -4.13459 0
M  V30 6795 H 630.214 -4.67179 -3.76648 0
M  V30 6796 H 631.284 -4.19225 -2.43676 0
M  V30 6797 N 632.627 0.916307 -1.28225 0
M  V30 6798 C 633.873 1.66765 -1.154 0
M  V30 6799 C 634.206 1.91912 0.297251 0
M  V30 6800 O 633.481 1.51766 1.21644 0
M  V30 6801 C 633.764 3.02715 -1.95028 0
M  V30 6802 C 633.617 2.84738 -3.48201 0
M  V30 6803 C 634.936 4.03215 -1.76369 0
M  V30 6804 H 632.055 0.605205 -0.42059 0
M  V30 6805 H 634.697 1.06255 -1.57512 0
M  V30 6806 H 632.847 3.54365 -1.59242 0
M  V30 6807 H 634.519 2.40118 -3.9388 0
M  V30 6808 H 632.762 2.19848 -3.73964 0
M  V30 6809 H 633.433 3.8127 -3.99171 0
M  V30 6810 H 635.909 3.60617 -2.07593 0
M  V30 6811 H 634.785 4.96306 -2.34459 0
M  V30 6812 H 635.046 4.36288 -0.71452 0
M  V30 6813 N 634.105 1.10431 1.1244 0
M  V30 6814 C 635.351 0.847972 1.84221 0
M  V30 6815 C 635.684 -0.624903 1.83871 0
M  V30 6816 O 634.959 -1.46074 1.28423 0
M  V30 6817 C 635.242 1.39695 3.319 0
M  V30 6818 C 635.095 2.93668 3.40704 0
M  V30 6819 C 636.414 1.03924 4.27654 0
M  V30 6820 H 633.533 0.309502 0.668863 0
M  V30 6821 H 636.175 1.36745 1.31912 0
M  V30 6822 H 634.325 0.955095 3.76577 0
M  V30 6823 H 635.997 3.46379 3.04662 0
M  V30 6824 H 634.24 3.30272 2.81252 0
M  V30 6825 H 634.911 3.27162 4.446 0
M  V30 6826 H 637.387 1.42049 3.91102 0
M  V30 6827 H 636.263 1.45027 5.29394 0
M  V30 6828 H 636.524 -0.051336 4.4207 0
M  V30 6829 N 635.583 -1.29855 0.893053 0
M  V30 6830 C 636.53 -2.27909 0.364161 0
M  V30 6831 C 637.5 -1.56726 -0.550093 0
M  V30 6832 O 638.685 -1.84747 -0.47677 0
M  V30 6833 C 635.825 -3.42678 -0.408178 0
M  V30 6834 C 634.938 -4.28659 0.536212 0
M  V30 6835 C 634.073 -5.30599 -0.252521 0
M  V30 6836 C 633.112 -6.08234 0.686822 0
M  V30 6837 N 632.249 -7.02068 -0.0670902 0
M  V30 6838 H 637.089 -2.72531 1.20544 0
M  V30 6839 H 634.626 -1.34047 0.605779 0
M  V30 6840 H 636.584 -4.07986 -0.871962 0
M  V30 6841 H 635.214 -2.99103 -1.21397 0
M  V30 6842 H 634.266 -3.63584 1.1185 0
M  V30 6843 H 635.578 -4.8274 1.25552 0
M  V30 6844 H 634.732 -6.01694 -0.777801 0
M  V30 6845 H 633.471 -4.77233 -1.005 0
M  V30 6846 H 632.476 -5.3601 1.22366 0
M  V30 6847 H 633.701 -6.63689 1.43852 0
M  V30 6848 H 631.647 -6.5108 -0.801955 0
M  V30 6849 H 631.564 -7.53675 0.59243 0
M  V30 6850 H 632.832 -7.77392 -0.572851 0
M  V30 6851 N 637.061 -0.65484 -1.43351 0
M  V30 6852 C 638.338 -0.0987371 -1.95351 0
M  V30 6853 C 638.718 1.38161 -1.59608 0
M  V30 6854 O 638.066 2.10791 -0.882021 0
M  V30 6855 C 638.276 -0.346684 -3.47274 0
M  V30 6856 C 639.624 -0.25249 -4.23849 0
M  V30 6857 O 640.648 -0.279332 -3.55103 0
M  V30 6858 O 639.507 -0.177584 -5.46211 0
M  V30 6859 H 636.601 0.0086829 -0.826954 0
M  V30 6860 H 639.147 -0.728189 -1.53282 0
M  V30 6861 H 637.919 -1.37296 -3.66423 0
M  V30 6862 H 637.542 0.315757 -3.96344 0
M  V30 6863 N 638.539 1.52521 -0.396863 0
M  V30 6864 C 639.469 2.29582 0.425941 0
M  V30 6865 C 640.45 1.33281 1.05689 0
M  V30 6866 O 641.635 1.62181 1.06823 0
M  V30 6867 C 638.765 3.10821 1.54943 0
M  V30 6868 C 637.719 4.15069 1.04413 0
M  V30 6869 C 637.045 4.84578 2.26028 0
M  V30 6870 C 638.345 5.22191 0.106767 0
M  V30 6871 H 640.039 2.98612 -0.217045 0
M  V30 6872 H 637.585 1.43611 -0.105826 0
M  V30 6873 H 639.538 3.63492 2.13193 0
M  V30 6874 H 638.262 2.39538 2.22011 0
M  V30 6875 H 636.921 3.63389 0.484118 0
M  V30 6876 H 636.569 4.09835 2.91623 0
M  V30 6877 H 636.269 5.55043 1.92876 0
M  V30 6878 H 637.793 5.40056 2.84906 0
M  V30 6879 H 639.207 5.70176 0.597685 0
M  V30 6880 H 637.604 5.99947 -0.135352 0
M  V30 6881 H 638.674 4.77531 -0.842134 0
M  V30 6882 N 640.017 0.126909 1.57088 0
M  V30 6883 C 641.264 -0.529168 1.95464 0
M  V30 6884 C 641.592 -1.6618 1.01067 0
M  V30 6885 O 640.847 -1.95667 0.0360254 0
M  V30 6886 C 641.146 -1.095 3.40212 0
M  V30 6887 C 640.812 -0.0829015 4.50824 0
M  V30 6888 C 639.474 0.195377 4.80803 0
M  V30 6889 C 641.826 0.606411 5.1766 0
M  V30 6890 C 639.154 1.16912 5.74933 0
M  V30 6891 C 641.506 1.56884 6.12838 0
M  V30 6892 C 640.17 1.85502 6.41206 0
M  V30 6893 H 639.44 -0.193636 0.715252 0
M  V30 6894 H 642.087 0.209489 1.90351 0
M  V30 6895 H 640.392 -1.91058 3.42059 0
M  V30 6896 H 642.089 -1.61087 3.67222 0
M  V30 6897 H 638.679 -0.309979 4.27478 0
M  V30 6898 H 642.863 0.404597 4.94648 0
M  V30 6899 H 638.119 1.3975 5.95214 0
M  V30 6900 H 642.293 2.10859 6.6371 0
M  V30 6901 H 639.92 2.61109 7.13951 0
M  V30 6902 N 641.495 -1.56914 -0.146875 0
M  V30 6903 C 642.906 -1.72799 -0.706928 0
M  V30 6904 C 643.257 -0.741329 -1.81656 0
M  V30 6905 O 642.382 0.0920162 -2.16204 0
M  V30 6906 C 642.977 -3.13317 -1.28911 0
M  V30 6907 C 641.536 -3.30803 -1.79573 0
M  V30 6908 C 640.683 -2.68725 -0.684252 0
M  V30 6909 H 643.634 -1.58504 0.0787931 0
M  V30 6910 H 643.655 -3.13323 -2.15891 0
M  V30 6911 H 643.167 -3.85104 -0.481284 0
M  V30 6912 H 641.268 -2.64012 -2.62923 0
M  V30 6913 H 641.381 -4.38754 -1.92436 0
M  V30 6914 H 639.745 -2.29196 -1.11091 0
M  V30 6915 H 640.528 -3.43117 0.112134 0
M  V30 6916 N 642.974 0.416227 -1.52004 0
M  V30 6917 C 643.884 1.53147 -1.77717 0
M  V30 6918 C 644.9 1.609 -0.662368 0
M  V30 6919 O 646.076 1.77747 -0.946991 0
M  V30 6920 C 643.141 2.88948 -1.91598 0
M  V30 6921 C 642.202 2.9114 -3.15493 0
M  V30 6922 C 641.435 4.20464 -3.28703 0
M  V30 6923 O 641.658 5.13981 -2.47345 0
M  V30 6924 O 640.592 4.29368 -4.21813 0
M  V30 6925 H 644.418 1.34357 -2.72363 0
M  V30 6926 H 642.003 0.601373 -1.36762 0
M  V30 6927 H 643.885 3.69505 -2.02593 0
M  V30 6928 H 642.56 3.07821 -1.00141 0
M  V30 6929 H 641.467 2.09461 -3.09962 0
M  V30 6930 H 642.8 2.77216 -4.06709 0
M  V30 6931 N 644.452 1.42507 0.673017 0
M  V30 6932 C 645.682 1.46261 1.45916 0
M  V30 6933 C 646.09 0.0729724 1.89059 0
M  V30 6934 O 645.433 -0.922987 1.58829 0
M  V30 6935 C 645.495 2.32853 2.73898 0
M  V30 6936 C 645.159 3.80699 2.52819 0
M  V30 6937 C 646.156 4.72307 2.17306 0
M  V30 6938 C 643.841 4.24983 2.67758 0
M  V30 6939 C 645.835 6.06192 1.97003 0
M  V30 6940 C 643.522 5.58927 2.4707 0
M  V30 6941 C 644.52 6.49348 2.11746 0
M  V30 6942 O 644.208 7.80817 1.91259 0
M  V30 6943 H 643.94 0.499561 0.455428 0
M  V30 6944 H 646.494 1.87697 0.834196 0
M  V30 6945 H 644.724 1.86268 3.38882 0
M  V30 6946 H 646.413 2.28041 3.35786 0
M  V30 6947 H 647.179 4.39378 2.05359 0
M  V30 6948 H 643.058 3.54893 2.94231 0
M  V30 6949 H 646.602 6.76731 1.69355 0
M  V30 6950 H 642.499 5.91429 2.58615 0
M  V30 6951 H 643.267 7.92194 2.05843 0
M  V30 6952 N 645.93 -0.909495 1.28709 0
M  V30 6953 C 646.88 -1.9991 1.09636 0
M  V30 6954 C 647.864 -1.60889 0.01872 0
M  V30 6955 O 649.056 -1.75374 0.239338 0
M  V30 6956 C 646.185 -3.34675 0.764702 0
M  V30 6957 C 645.271 -3.80085 1.8814 0
M  V30 6958 N 645.662 -3.97824 3.12361 0
M  V30 6959 C 643.96 -4.09278 1.77221 0
M  V30 6960 C 644.661 -4.35928 3.85151 0
M  V30 6961 N 643.637 -4.44426 3.13028 0
M  V30 6962 H 647.439 -2.11681 2.03883 0
M  V30 6963 H 644.953 -1.09763 1.1969 0
M  V30 6964 H 646.95 -4.12426 0.609132 0
M  V30 6965 H 645.61 -3.24255 -0.169952 0
M  V30 6966 H 646.621 -3.83626 3.47925 0
M  V30 6967 H 643.298 -4.0747 0.909621 0
M  V30 6968 H 644.688 -4.57581 4.92006 0
M  V30 6969 N 647.408 -1.11026 -1.11852 0
M  V30 6970 C 648.34 -0.72249 -2.17515 0
M  V30 6971 C 649.353 0.243782 -1.60964 0
M  V30 6972 O 650.542 0.0273252 -1.78479 0
M  V30 6973 C 647.642 -0.0463979 -3.38868 0
M  V30 6974 C 646.815 -1.0384 -4.24895 0
M  V30 6975 C 645.874 -0.392659 -5.24733 0
M  V30 6976 O 644.9 -1.0453 -5.5952 0
M  V30 6977 N 646.102 0.846296 -5.74298 0
M  V30 6978 H 648.867 -1.63161 -2.51393 0
M  V30 6979 H 646.428 -0.999899 -1.27333 0
M  V30 6980 H 648.42 0.397215 -4.02746 0
M  V30 6981 H 646.99 0.765231 -3.03089 0
M  V30 6982 H 646.21 -1.6601 -3.57539 0
M  V30 6983 H 647.498 -1.70968 -4.79215 0
M  V30 6984 H 646.896 1.39578 -5.4821 0
M  V30 6985 H 645.453 1.23296 -6.40032 0
M  V30 6986 N 648.886 1.2938 -0.899927 0
M  V30 6987 C 649.816 2.30144 -0.39446 0
M  V30 6988 C 650.797 1.61611 0.530639 0
M  V30 6989 O 651.982 1.89119 0.441319 0
M  V30 6990 C 649.112 3.45229 0.37868 0
M  V30 6991 C 648.066 4.25564 -0.456012 0
M  V30 6992 C 647.392 5.32848 0.444637 0
M  V30 6993 C 648.692 4.93651 -1.70605 0
M  V30 6994 H 650.386 2.72673 -1.23653 0
M  V30 6995 H 647.932 1.31086 -0.596034 0
M  V30 6996 H 649.885 4.14797 0.743037 0
M  V30 6997 H 648.609 3.01545 1.25453 0
M  V30 6998 H 647.268 3.57704 -0.802704 0
M  V30 6999 H 646.916 4.85408 1.31863 0
M  V30 7000 H 646.616 5.87497 -0.110154 0
M  V30 7001 H 648.14 6.05268 0.805182 0
M  V30 7002 H 649.554 5.55655 -1.41141 0
M  V30 7003 H 647.951 5.58233 -2.20217 0
M  V30 7004 H 649.021 4.18926 -2.4419 0
M  V30 7005 N 650.364 0.662433 1.43002 0
M  V30 7006 C 651.61 0.188492 2.02525 0
M  V30 7007 C 651.965 -1.18752 1.51379 0
M  V30 7008 O 651.258 -1.78313 0.701065 0
M  V30 7009 C 651.452 0.149363 3.57088 0
M  V30 7010 C 651.281 1.52004 4.23231 0
M  V30 7011 C 650.051 2.11473 4.5892 0
M  V30 7012 C 652.249 2.46028 4.51635 0
M  V30 7013 N 650.231 3.4145 5.10181 0
M  V30 7014 C 651.602 3.60647 5.04315 0
M  V30 7015 C 653.657 2.44715 4.33612 0
M  V30 7016 C 652.36 4.74189 5.40867 0
M  V30 7017 C 654.386 3.57344 4.71232 0
M  V30 7018 C 653.748 4.70689 5.24053 0
M  V30 7019 H 649.847 0.113615 0.773703 0
M  V30 7020 H 652.431 0.872738 1.74044 0
M  V30 7021 H 650.602 -0.504255 3.85113 0
M  V30 7022 H 652.334 -0.336307 4.033 0
M  V30 7023 H 649.089 1.64087 4.44266 0
M  V30 7024 H 649.513 4.07987 5.40255 0
M  V30 7025 H 654.155 1.58318 3.9204 0
M  V30 7026 H 651.873 5.61271 5.81378 0
M  V30 7027 H 655.459 3.5754 4.58973 0
M  V30 7028 H 654.339 5.56398 5.52621 0
M  V30 7029 N 651.842 -1.52309 0.404946 0
M  V30 7030 C 653.253 -1.86585 -0.0655926 0
M  V30 7031 C 653.604 -1.3239 -1.44801 0
M  V30 7032 O 652.729 -0.6615 -2.06042 0
M  V30 7033 C 653.324 -3.38566 -0.125801 0
M  V30 7034 C 651.883 -3.72497 -0.540666 0
M  V30 7035 C 651.03 -2.75806 0.287487 0
M  V30 7036 H 653.981 -1.45995 0.622185 0
M  V30 7037 H 654.002 -3.68658 -0.941888 0
M  V30 7038 H 653.514 -3.77981 0.880473 0
M  V30 7039 H 651.615 -3.38659 -1.55373 0
M  V30 7040 H 651.728 -4.78234 -0.287956 0
M  V30 7041 H 650.092 -2.53474 -0.249561 0
M  V30 7042 H 650.875 -3.18059 1.29203 0
M  V30 7043 N 653.32 -0.135238 -1.57019 0
M  V30 7044 C 654.268 0.826099 -2.17436 0
M  V30 7045 C 655.262 1.26378 -1.12805 0
M  V30 7046 O 656.468 1.23363 -1.31079 0
M  V30 7047 H 652.843 0.284568 -0.696078 0
M  V30 7048 H 654.814 0.292212 -2.96966 0
M  V30 7049 C 653.563 2.05991 -2.80112 0
M  V30 7050 H 652.886 1.73209 -3.60331 0
M  V30 7051 H 654.326 2.71225 -3.25903 0
M  V30 7052 C 652.785 2.86027 -1.78017 0
M  V30 7053 O 653.315 3.81971 -1.24344 0
M  V30 7054 N 651.521 2.50332 -1.47588 0
M  V30 7055 H 651.068 1.72377 -1.91426 0
M  V30 7056 H 651.026 3.04177 -0.795228 0
M  V30 7057 N 654.798 1.5699 0.138552 0
M  V30 7058 C 655.745 1.98899 1.17081 0
M  V30 7059 C 656.715 0.857922 1.42228 0
M  V30 7060 O 657.9 1.12065 1.54422 0
M  V30 7061 C 655.04 2.38189 2.4972 0
M  V30 7062 C 654.153 3.64624 2.31674 0
M  V30 7063 C 653.288 3.9298 3.57407 0
M  V30 7064 C 652.327 5.1266 3.34435 0
M  V30 7065 N 651.464 5.36983 4.5232 0
M  V30 7066 H 656.304 2.86881 0.80642 0
M  V30 7067 H 653.841 1.41925 0.386727 0
M  V30 7068 H 655.799 2.59 3.2707 0
M  V30 7069 H 654.429 1.53275 2.84089 0
M  V30 7070 H 653.481 3.51542 1.45337 0
M  V30 7071 H 654.793 4.52131 2.10664 0
M  V30 7072 H 653.947 4.14335 4.43183 0
M  V30 7073 H 652.686 3.03912 3.8143 0
M  V30 7074 H 651.691 4.9117 2.47048 0
M  V30 7075 H 652.916 6.03288 3.11802 0
M  V30 7076 H 650.862 4.50871 4.76499 0
M  V30 7077 H 650.779 6.18775 4.34343 0
M  V30 7078 H 652.047 5.62842 5.39285 0
M  V30 7079 N 656.276 -0.40816 1.52223 0
M  V30 7080 C 657.523 -1.15502 1.66329 0
M  V30 7081 C 657.851 -1.90474 0.393701 0
M  V30 7082 O 657.106 -1.85507 -0.623356 0
M  V30 7083 C 657.405 -2.17422 2.83659 0
M  V30 7084 C 657.071 -1.5925 4.21841 0
M  V30 7085 C 655.733 -1.4311 4.59427 0
M  V30 7086 C 658.085 -1.16776 5.0795 0
M  V30 7087 C 655.413 -0.830148 5.80797 0
M  V30 7088 C 657.765 -0.580988 6.29926 0
M  V30 7089 C 656.429 -0.406729 6.6626 0
M  V30 7090 H 655.699 -0.422653 0.608642 0
M  V30 7091 H 658.346 -0.442114 1.86327 0
M  V30 7092 H 656.651 -2.94861 2.58001 0
M  V30 7093 H 658.348 -2.75084 2.9177 0
M  V30 7094 H 654.938 -1.72796 3.92224 0
M  V30 7095 H 659.122 -1.28055 4.79495 0
M  V30 7096 H 654.378 -0.68316 6.07571 0
M  V30 7097 H 658.552 -0.243488 6.95974 0
M  V30 7098 H 656.179 0.0610366 7.60175 0
M  V30 7099 N 657.755 -1.42862 -0.66545 0
M  V30 7100 C 658.705 -1.43521 -1.7716 0
M  V30 7101 C 659.689 -0.305267 -1.57978 0
M  V30 7102 O 660.881 -0.548176 -1.68297 0
M  V30 7103 C 658.01 -1.34914 -3.15679 0
M  V30 7104 C 657.096 -2.5289 -3.40452 0
M  V30 7105 N 657.487 -3.78284 -3.3576 0
M  V30 7106 C 655.785 -2.47351 -3.71124 0
M  V30 7107 C 656.486 -4.56701 -3.60276 0
M  V30 7108 N 655.462 -3.87249 -3.81496 0
M  V30 7109 H 659.264 -2.38357 -1.7194 0
M  V30 7110 H 656.778 -1.37342 -0.866653 0
M  V30 7111 H 658.775 -1.33468 -3.94958 0
M  V30 7112 H 657.435 -0.410881 -3.2209 0
M  V30 7113 H 658.446 -4.10746 -3.15448 0
M  V30 7114 H 655.123 -1.62152 -3.84725 0
M  V30 7115 H 656.513 -5.65704 -3.6253 0
M  V30 7116 N 659.233 0.902656 -1.29189 0
M  V30 7117 C 660.181 2.0278 -1.13943 0
M  V30 7118 C 661.175 1.69308 -0.055787 0
M  V30 7119 O 662.381 1.78707 -0.215371 0
M  V30 7120 H 658.756 0.664595 -0.351877 0
M  V30 7121 H 660.727 2.12778 -2.09208 0
M  V30 7122 C 659.476 3.37657 -0.82966 0
M  V30 7123 H 658.799 3.63913 -1.65551 0
M  V30 7124 H 660.239 4.17078 -0.762998 0
M  V30 7125 C 658.698 3.33648 0.466991 0
M  V30 7126 O 659.228 3.72886 1.49395 0
M  V30 7127 N 657.434 2.86745 0.471761 0
M  V30 7128 H 656.981 2.55009 -0.364406 0
M  V30 7129 H 656.939 2.84446 1.33933 0
M  V30 7130 N 660.711 1.11618 1.11262 0
M  V30 7131 C 661.957 0.867463 1.83311 0
M  V30 7132 C 662.29 -0.605366 1.84524 0
M  V30 7133 O 661.565 -1.44704 1.29965 0
M  V30 7134 C 661.848 1.43207 3.30399 0
M  V30 7135 C 661.701 2.97265 3.3757 0
M  V30 7136 C 663.02 1.08454 4.26528 0
M  V30 7137 H 660.139 0.316578 0.665543 0
M  V30 7138 H 662.781 1.38137 1.30454 0
M  V30 7139 H 660.931 0.994982 3.75543 0
M  V30 7140 H 662.603 3.49591 3.00971 0
M  V30 7141 H 660.846 3.33237 2.77733 0
M  V30 7142 H 661.517 3.31859 4.41105 0
M  V30 7143 H 663.993 1.4619 3.89574 0
M  V30 7144 H 662.869 1.50633 5.27826 0
M  V30 7145 H 663.13 -0.00444568 4.421 0
M  V30 7146 N 662.189 -1.289 0.906776 0
M  V30 7147 C 663.417 -1.99401 0.551969 0
M  V30 7148 C 663.832 -1.67816 -0.865048 0
M  V30 7149 O 663.189 -0.927078 -1.57199 0
M  V30 7150 C 663.24 -3.53779 0.743152 0
M  V30 7151 O 662.961 -3.84248 2.1044 0
M  V30 7152 C 664.462 -4.41543 0.39424 0
M  V30 7153 H 661.682 -0.636926 0.211106 0
M  V30 7154 H 664.226 -1.64266 1.21807 0
M  V30 7155 H 662.381 -3.87201 0.124143 0
M  V30 7156 H 662.795 -4.78904 2.13895 0
M  V30 7157 H 664.269 -5.48957 0.578814 0
M  V30 7158 H 664.746 -4.34073 -0.669137 0
M  V30 7159 H 665.352 -4.13605 0.990491 0
M  V30 7160 N 663.667 -0.670007 -1.42649 0
M  V30 7161 C 664.615 0.0230106 -2.32589 0
M  V30 7162 C 665.609 0.795585 -1.49555 0
M  V30 7163 O 666.815 0.70409 -1.65658 0
M  V30 7164 H 663.19 0.0262342 -0.751542 0
M  V30 7165 H 665.161 -0.753009 -2.88743 0
M  V30 7166 C 663.91 0.963872 -3.34073 0
M  V30 7167 H 663.233 0.378813 -3.98001 0
M  V30 7168 H 664.673 1.41755 -3.99602 0
M  V30 7169 C 663.132 2.06797 -2.65964 0
M  V30 7170 O 663.662 3.15383 -2.48789 0
M  V30 7171 N 661.868 1.83831 -2.25066 0
M  V30 7172 H 661.415 0.955235 -2.39234 0
M  V30 7173 H 661.373 2.57895 -1.79827 0
M  V30 7174 N 665.145 1.52092 -0.413018 0
M  V30 7175 C 666.393 2.01456 0.161178 0
M  V30 7176 C 666.714 1.30034 1.45314 0
M  V30 7177 O 665.984 0.427435 1.9118 0
M  V30 7178 H 664.564 0.744376 0.0625526 0
M  V30 7179 H 667.226 1.86974 -0.550151 0
M  V30 7180 H 666.322 3.1008 0.354517 0
M  V30 7181 N 666.623 0.143563 1.56945 0
M  V30 7182 C 667.872 -0.50835 1.95189 0
M  V30 7183 C 668.185 -1.66239 1.03073 0
M  V30 7184 O 669.391 -2.3787 1.30882 0
M  V30 7185 C 667.847 -0.955735 3.46978 0
M  V30 7186 C 667.455 0.171183 4.47673 0
M  V30 7187 C 669.199 -1.57763 3.94095 0
M  V30 7188 C 667.106 -0.294279 5.90667 0
M  V30 7189 H 666.036 -0.193679 0.728701 0
M  V30 7190 H 668.687 0.227357 1.82086 0
M  V30 7191 H 667.069 -1.7466 3.55401 0
M  V30 7192 H 668.243 0.948049 4.50942 0
M  V30 7193 H 666.558 0.701273 4.10452 0
M  V30 7194 H 669.155 -1.93745 4.98364 0
M  V30 7195 H 669.498 -2.46531 3.35452 0
M  V30 7196 H 670.031 -0.851728 3.88575 0
M  V30 7197 H 666.77 0.557939 6.53121 0
M  V30 7198 H 666.29 -1.0371 5.90766 0
M  V30 7199 H 667.969 -0.747426 6.42668 0
M  V30 7200 N 668.101 -1.57061 -0.130224 0
M  V30 7201 C 669.329 -1.88432 -0.854456 0
M  V30 7202 C 669.744 -0.733608 -1.73964 0
M  V30 7203 O 669.101 0.296029 -1.80083 0
M  V30 7204 C 669.152 -3.1918 -1.69724 0
M  V30 7205 O 668.873 -4.2982 -0.847705 0
M  V30 7206 C 670.374 -3.6418 -2.5276 0
M  V30 7207 H 667.594 -0.624193 -0.246221 0
M  V30 7208 H 670.138 -2.04159 -0.11798 0
M  V30 7209 H 668.293 -3.05156 -2.3866 0
M  V30 7210 H 668.707 -5.04689 -1.42792 0
M  V30 7211 H 670.181 -4.58457 -3.07443 0
M  V30 7212 H 670.658 -2.90285 -3.29592 0
M  V30 7213 H 671.264 -3.80954 -1.89087 0
M  V30 7214 N 669.579 0.400081 -1.52437 0
M  V30 7215 C 670.99 0.97851 -1.59003 0
M  V30 7216 C 671.341 1.91293 -0.436068 0
M  V30 7217 O 670.466 2.1183 0.442365 0
M  V30 7218 C 671.061 1.78145 -2.88184 0
M  V30 7219 C 669.62 2.30976 -2.97199 0
M  V30 7220 C 668.767 1.11212 -2.54022 0
M  V30 7221 H 671.718 0.180002 -1.57676 0
M  V30 7222 H 671.739 2.63968 -2.74046 0
M  V30 7223 H 671.251 1.1011 -3.72152 0
M  V30 7224 H 669.352 3.02355 -2.17744 0
M  V30 7225 H 669.465 2.61221 -4.01622 0
M  V30 7226 H 667.829 1.46882 -2.08081 0
M  V30 7227 H 668.612 0.447307 -3.40373 0
M  V30 7228 N 671.057 1.43213 0.657864 0
M  V30 7229 C 672.473 1.26511 0.972992 0
M  V30 7230 C 672.673 0.181477 2.00681 0
M  V30 7231 O 671.729 -0.441649 2.48608 0
M  V30 7232 C 673.042 2.62784 1.46168 0
M  V30 7233 C 674.59 2.70278 1.57857 0
M  V30 7234 C 675.065 4.06958 2.10117 0
M  V30 7235 N 676.556 4.08999 2.17426 0
M  V30 7236 C 677.291 5.11585 2.58975 0
M  V30 7237 N 676.787 6.24548 2.99853 0
M  V30 7238 N 678.58 4.9894 2.58873 0
M  V30 7239 H 670.731 2.12384 -0.0263129 0
M  V30 7240 H 672.994 0.946638 0.0507992 0
M  V30 7241 H 672.7 3.43022 0.776474 0
M  V30 7242 H 672.574 2.87863 2.43751 0
M  V30 7243 H 674.961 1.90376 2.25479 0
M  V30 7244 H 675.042 2.4897 0.587179 0
M  V30 7245 H 674.686 4.87325 1.43098 0
M  V30 7246 H 674.616 4.25628 3.10078 0
M  V30 7247 H 677.107 3.27457 1.88627 0
M  V30 7248 H 677.42 6.98661 3.30292 0
M  V30 7249 H 675.765 6.28027 2.97669 0
M  V30 7250 H 678.956 4.09757 2.26311 0
M  V30 7251 H 679.129 5.79019 2.90932 0
M  V30 7252 N 672.536 -0.895792 1.29666 0
M  V30 7253 C 673.952 -1.17726 1.07763 0
M  V30 7254 C 674.152 -2.00794 -0.168576 0
M  V30 7255 O 673.208 -2.37213 -0.865244 0
M  V30 7256 C 674.521 -1.89441 2.33522 0
M  V30 7257 C 676.069 -2.02251 2.3888 0
M  V30 7258 C 676.544 -2.77378 3.64452 0
M  V30 7259 N 678.035 -2.8493 3.65198 0
M  V30 7260 C 678.77 -3.43606 4.59045 0
M  V30 7261 N 678.266 -4.03417 5.63228 0
M  V30 7262 N 680.059 -3.41317 4.46608 0
M  V30 7263 H 672.21 -0.341652 2.09634 0
M  V30 7264 H 674.473 -0.213865 0.923561 0
M  V30 7265 H 674.179 -1.35842 3.24407 0
M  V30 7266 H 674.053 -2.89893 2.41334 0
M  V30 7267 H 676.44 -2.55025 1.4848 0
M  V30 7268 H 676.521 -1.0092 2.3505 0
M  V30 7269 H 676.165 -2.25279 4.55205 0
M  V30 7270 H 676.095 -3.79062 3.65541 0
M  V30 7271 H 678.586 -2.42453 2.89871 0
M  V30 7272 H 678.899 -4.46224 6.30955 0
M  V30 7273 H 677.244 -4.01868 5.67033 0
M  V30 7274 H 680.435 -2.93812 3.64407 0
M  V30 7275 H 680.608 -3.86751 5.1993 0
M  V30 7276 N 674.014 -1.12206 -1.10668 0
M  V30 7277 C 675.26 -0.887096 -1.83036 0
M  V30 7278 C 675.615 0.580887 -1.83422 0
M  V30 7279 O 674.908 1.42379 -1.28213 0
M  V30 7280 C 675.102 -1.39276 -3.29146 0
M  V30 7281 C 674.931 -2.90837 -3.42992 0
M  V30 7282 C 673.701 -3.59047 -3.55546 0
M  V30 7283 C 675.899 -3.8885 -3.36601 0
M  V30 7284 N 673.881 -4.98747 -3.57945 0
M  V30 7285 C 675.252 -5.14666 -3.45716 0
M  V30 7286 C 677.307 -3.81296 -3.20184 0
M  V30 7287 C 676.01 -6.33814 -3.40106 0
M  V30 7288 C 678.036 -4.99965 -3.15895 0
M  V30 7289 C 677.398 -6.24637 -3.25589 0
M  V30 7290 H 673.497 -0.377857 -0.684652 0
M  V30 7291 H 676.081 -1.42791 -1.32358 0
M  V30 7292 H 674.252 -0.879026 -3.78322 0
M  V30 7293 H 675.984 -1.10011 -3.89461 0
M  V30 7294 H 672.739 -3.09533 -3.5845 0
M  V30 7295 H 673.163 -5.71606 -3.62762 0
M  V30 7296 H 677.805 -2.85806 -3.11569 0
M  V30 7297 H 675.523 -7.29574 -3.47487 0
M  V30 7298 H 679.109 -4.95847 -3.04347 0
M  V30 7299 H 677.989 -7.14921 -3.22269 0
M  V30 7300 N 675.492 1.28418 -0.913599 0
M  V30 7301 C 676.741 1.94265 -0.542572 0
M  V30 7302 C 677.054 1.72709 0.918207 0
M  V30 7303 O 678.26 2.32778 1.39738 0
M  V30 7304 C 676.716 3.47956 -0.919507 0
M  V30 7305 C 676.324 3.78291 -2.4 0
M  V30 7306 C 678.068 4.19962 -0.619057 0
M  V30 7307 C 675.975 5.2529 -2.71707 0
M  V30 7308 H 674.905 0.727213 -0.199192 0
M  V30 7309 H 677.556 1.45931 -1.11249 0
M  V30 7310 H 675.938 3.9502 -0.278372 0
M  V30 7311 H 677.112 3.42035 -3.08786 0
M  V30 7312 H 675.427 3.19456 -2.67089 0
M  V30 7313 H 678.024 5.28178 -0.832623 0
M  V30 7314 H 678.367 4.13935 0.443126 0
M  V30 7315 H 678.9 3.78674 -1.21865 0
M  V30 7316 H 675.639 5.36394 -3.76778 0
M  V30 7317 H 675.159 5.62743 -2.07559 0
M  V30 7318 H 676.838 5.93027 -2.58703 0
M  V30 7319 N 676.97 0.677563 1.42291 0
M  V30 7320 C 677.917 0.000947061 2.308 0
M  V30 7321 C 678.887 -0.789889 1.46116 0
M  V30 7322 O 680.072 -0.761578 1.74942 0
M  V30 7323 C 677.212 -0.942387 3.31984 0
M  V30 7324 C 676.325 -0.14508 4.31756 0
M  V30 7325 C 675.46 -1.08442 5.20013 0
M  V30 7326 C 674.499 -0.278958 6.11464 0
M  V30 7327 N 673.636 -1.17115 6.92263 0
M  V30 7328 H 678.476 0.761521 2.88106 0
M  V30 7329 H 676.013 0.38727 1.41911 0
M  V30 7330 H 677.971 -1.50317 3.89179 0
M  V30 7331 H 676.601 -1.66956 2.76271 0
M  V30 7332 H 675.653 0.532368 3.76656 0
M  V30 7333 H 676.965 0.48015 4.96484 0
M  V30 7334 H 676.119 -1.71504 5.81955 0
M  V30 7335 H 674.858 -1.74353 4.55469 0
M  V30 7336 H 673.863 0.364856 5.48588 0
M  V30 7337 H 675.088 0.376099 6.78058 0
M  V30 7338 H 673.034 -1.81661 6.30345 0
M  V30 7339 H 672.951 -0.601063 7.53607 0
M  V30 7340 H 674.219 -1.78915 7.58689 0
M  V30 7341 N 678.448 -1.51871 0.421078 0
M  V30 7342 C 679.38 -2.25052 -0.434065 0
M  V30 7343 C 680.393 -1.28458 -1.00013 0
M  V30 7344 O 681.582 -1.54323 -0.897033 0
M  V30 7345 C 678.682 -2.97813 -1.61743 0
M  V30 7346 C 677.855 -4.21374 -1.17315 0
M  V30 7347 C 676.914 -4.76854 -2.22478 0
M  V30 7348 O 675.94 -5.39123 -1.82577 0
M  V30 7349 N 677.142 -4.59467 -3.54782 0
M  V30 7350 H 679.907 -2.99077 0.193073 0
M  V30 7351 H 677.468 -1.59972 0.249088 0
M  V30 7352 H 679.46 -3.3182 -2.31685 0
M  V30 7353 H 678.03 -2.26899 -2.15024 0
M  V30 7354 H 677.25 -3.93046 -0.3014 0
M  V30 7355 H 678.538 -5.01591 -0.853444 0
M  V30 7356 H 677.936 -4.09832 -3.89941 0
M  V30 7357 H 676.493 -4.9788 -4.20665 0
M  V30 7358 N 679.926 -0.151884 -1.56866 0
M  V30 7359 C 681.166 0.500695 -1.98173 0
M  V30 7360 C 681.53 1.61715 -1.03499 0
M  V30 7361 O 682.731 2.33093 -1.33869 0
M  V30 7362 C 681.002 0.989333 -3.43434 0
M  V30 7363 S 682.561 1.64583 -4.06765 0
M  V30 7364 H 679.379 0.16173 -0.692361 0
M  V30 7365 H 681.981 -0.244754 -1.93962 0
M  V30 7366 H 680.685 0.166072 -4.10064 0
M  V30 7367 H 680.216 1.76929 -3.51368 0
M  V30 7368 H 682.231 2.93326 -4.00218 0
M  V30 7369 N 681.404 1.57128 0.121893 0
M  V30 7370 C 682.352 2.01109 1.16868 0
M  V30 7371 C 683.346 0.907532 1.43039 0
M  V30 7372 O 684.552 1.09274 1.43036 0
M  V30 7373 H 680.927 0.640539 0.393971 0
M  V30 7374 H 682.898 2.88261 0.771224 0
M  V30 7375 C 681.647 2.42887 2.48799 0
M  V30 7376 H 680.97 3.2737 2.29498 0
M  V30 7377 H 682.41 2.77461 3.20611 0
M  V30 7378 C 680.869 1.29137 3.11168 0
M  V30 7379 O 681.399 0.605756 3.97106 0
M  V30 7380 N 679.605 1.04916 2.71 0
M  V30 7381 H 679.152 1.60848 2.01211 0
M  V30 7382 H 679.11 0.290016 3.1306 0
M  V30 7383 N 682.882 -0.391992 1.52647 0
M  V30 7384 C 684.293 -0.970064 1.5952 0
M  V30 7385 C 684.644 -1.91059 0.446207 0
M  V30 7386 O 683.769 -2.12062 -0.431125 0
M  V30 7387 C 684.364 -1.76614 2.89125 0
M  V30 7388 C 682.923 -2.29396 2.9842 0
M  V30 7389 C 682.07 -1.09864 2.54608 0
M  V30 7390 H 685.021 -0.171638 1.57769 0
M  V30 7391 H 685.042 -2.62511 2.75442 0
M  V30 7392 H 684.554 -1.08135 3.72731 0
M  V30 7393 H 682.655 -3.01196 2.19344 0
M  V30 7394 H 682.768 -2.59088 4.03002 0
M  V30 7395 H 681.132 -1.45777 2.08857 0
M  V30 7396 H 681.915 -0.429249 3.40606 0
M  V30 7397 N 684.36 -1.4356 -0.65026 0
M  V30 7398 C 685.323 -1.48615 -1.74489 0
M  V30 7399 C 686.323 -0.370483 -1.56474 0
M  V30 7400 O 687.513 -0.632351 -1.62317 0
M  V30 7401 C 684.645 -1.34161 -3.13391 0
M  V30 7402 H 685.838 -2.46103 -1.71387 0
M  V30 7403 H 683.391 -1.30369 -0.862186 0
M  V30 7404 H 684.126 -0.376918 -3.22102 0
M  V30 7405 H 683.911 -2.1504 -3.27872 0
M  V30 7406 H 685.401 -1.40637 -3.93206 0
M  V30 7407 N 685.838 0.888903 -1.30139 0
M  V30 7408 C 686.768 2.01046 -1.18755 0
M  V30 7409 C 687.749 1.69916 -0.0791438 0
M  V30 7410 O 688.934 1.92445 -0.260498 0
M  V30 7411 C 686.064 3.36109 -0.874518 0
M  V30 7412 C 685.018 3.81486 -1.94043 0
M  V30 7413 C 684.344 5.13796 -1.48047 0
M  V30 7414 C 685.644 4.00637 -3.35093 0
M  V30 7415 H 687.338 2.10828 -2.12584 0
M  V30 7416 H 684.884 1.01298 -1.02346 0
M  V30 7417 H 686.837 4.14089 -0.781548 0
M  V30 7418 H 685.561 3.26449 0.0994519 0
M  V30 7419 H 684.22 3.05731 -2.02297 0
M  V30 7420 H 683.868 5.0056 -0.494878 0
M  V30 7421 H 683.568 5.45127 -2.19341 0
M  V30 7422 H 685.092 5.94305 -1.40121 0
M  V30 7423 H 686.506 4.69067 -3.2962 0
M  V30 7424 H 684.903 4.43339 -4.04438 0
M  V30 7425 H 685.973 3.0462 -3.77273 0
M  V30 7426 N 687.317 1.12792 1.10072 0
M  V30 7427 C 688.28 0.802264 2.14701 0
M  V30 7428 C 689.28 -0.18515 1.59731 0
M  V30 7429 O 690.47 0.041109 1.74151 0
M  V30 7430 C 687.602 0.19285 3.40354 0
M  V30 7431 H 688.795 1.72932 2.45019 0
M  V30 7432 H 686.348 0.931662 1.25498 0
M  V30 7433 H 687.083 -0.743748 3.15656 0
M  V30 7434 H 686.868 0.903827 3.81541 0
M  V30 7435 H 688.358 -0.0183704 4.17596 0
M  V30 7436 N 688.795 -1.27931 0.920396 0
M  V30 7437 C 689.758 -2.25345 0.41858 0
M  V30 7438 C 690.758 -1.54116 -0.458798 0
M  V30 7439 O 691.948 -1.72235 -0.260912 0
M  V30 7440 C 689.08 -3.38556 -0.399104 0
M  V30 7441 H 690.273 -2.71251 1.27918 0
M  V30 7442 H 687.826 -1.39728 0.700406 0
M  V30 7443 H 688.561 -2.98021 -1.27882 0
M  V30 7444 H 688.346 -3.91426 0.229863 0
M  V30 7445 H 689.836 -4.10976 -0.740817 0
M  V30 7446 N 690.273 -0.685099 -1.4193 0
M  V30 7447 C 691.203 -0.0273506 -2.33484 0
M  V30 7448 C 692.184 0.778366 -1.51246 0
M  V30 7449 O 693.369 0.733449 -1.79817 0
M  V30 7450 C 690.499 0.917272 -3.34968 0
M  V30 7451 C 689.453 0.21941 -4.27437 0
M  V30 7452 C 688.779 1.27768 -5.1921 0
M  V30 7453 C 690.079 -0.907894 -5.14349 0
M  V30 7454 H 691.773 -0.791994 -2.88735 0
M  V30 7455 H 689.319 -0.382308 -1.38832 0
M  V30 7456 H 691.272 1.38657 -3.97935 0
M  V30 7457 H 689.996 1.71346 -2.78043 0
M  V30 7458 H 688.655 -0.229757 -3.65879 0
M  V30 7459 H 688.303 2.06612 -4.58607 0
M  V30 7460 H 688.003 0.815803 -5.81909 0
M  V30 7461 H 689.527 1.7477 -5.85054 0
M  V30 7462 H 690.941 -0.519348 -5.70943 0
M  V30 7463 H 689.338 -1.2962 -5.85934 0
M  V30 7464 H 690.408 -1.75218 -4.52136 0
M  V30 7465 N 691.751 1.51645 -0.429126 0
M  V30 7466 C 692.681 2.30434 0.377148 0
M  V30 7467 C 693.662 1.35493 1.02838 0
M  V30 7468 O 694.847 1.6441 1.03359 0
M  V30 7469 C 691.977 3.14038 1.48315 0
M  V30 7470 C 690.931 4.1719 0.955855 0
M  V30 7471 C 690.257 4.89263 2.15698 0
M  V30 7472 C 691.557 5.223 -0.00402136 0
M  V30 7473 H 693.251 2.98085 -0.280336 0
M  V30 7474 H 690.797 1.43354 -0.136265 0
M  V30 7475 H 692.75 3.67933 2.05435 0
M  V30 7476 H 691.474 2.44193 2.16881 0
M  V30 7477 H 690.133 3.64335 0.406929 0
M  V30 7478 H 689.781 4.15929 2.82864 0
M  V30 7479 H 689.481 5.59009 1.81059 0
M  V30 7480 H 691.005 5.45978 2.73387 0
M  V30 7481 H 692.419 5.71315 0.476607 0
M  V30 7482 H 690.816 5.99525 -0.26258 0
M  V30 7483 H 691.886 4.75638 -0.943236 0
M  V30 7484 N 693.229 0.160201 1.56784 0
M  V30 7485 C 694.506 -0.533355 1.88188 0
M  V30 7486 C 694.886 -1.82072 1.06831 0
M  V30 7487 O 694.234 -2.27946 0.158959 0
M  V30 7488 C 694.444 -0.786034 3.40033 0
M  V30 7489 C 695.792 -1.12097 4.09536 0
M  V30 7490 O 696.816 -0.874949 3.45287 0
M  V30 7491 O 695.675 -1.58457 5.23023 0
M  V30 7492 H 692.769 -0.273589 0.780434 0
M  V30 7493 H 695.315 0.197803 1.68543 0
M  V30 7494 H 694.087 0.124515 3.91102 0
M  V30 7495 H 693.71 -1.57091 3.65251 0
M  V30 7496 N 694.707 -1.5719 -0.113559 0
M  V30 7497 C 695.654 -2.00736 -1.13901 0
M  V30 7498 C 696.624 -0.88044 -1.40846 0
M  V30 7499 O 697.809 -1.14507 -1.5262 0
M  V30 7500 C 694.949 -2.42132 -2.45899 0
M  V30 7501 C 694.062 -3.68264 -2.25844 0
M  V30 7502 C 693.197 -3.98617 -3.5111 0
M  V30 7503 C 692.236 -5.17915 -3.26236 0
M  V30 7504 N 691.373 -5.44111 -4.4372 0
M  V30 7505 H 696.213 -2.88128 -0.760677 0
M  V30 7506 H 693.75 -1.42523 -0.364099 0
M  V30 7507 H 695.708 -2.6417 -3.22908 0
M  V30 7508 H 694.338 -1.57775 -2.81615 0
M  V30 7509 H 693.39 -3.53809 -1.39726 0
M  V30 7510 H 694.702 -4.55425 -2.03444 0
M  V30 7511 H 693.856 -4.21333 -4.36536 0
M  V30 7512 H 692.595 -3.09942 -3.76546 0
M  V30 7513 H 691.6 -4.95038 -2.39202 0
M  V30 7514 H 692.825 -6.08172 -3.02165 0
M  V30 7515 H 690.771 -4.58394 -4.69266 0
M  V30 7516 H 690.688 -6.25606 -4.24444 0
M  V30 7517 H 691.956 -5.71351 -5.30263 0
M  V30 7518 N 696.185 0.383891 -1.52853 0
M  V30 7519 C 697.41 1.154 -1.7233 0
M  V30 7520 C 697.835 1.82809 -0.44298 0
M  V30 7521 O 697.193 1.71026 0.601645 0
M  V30 7522 C 697.241 2.17386 -2.87708 0
M  V30 7523 O 696.345 3.24082 -2.55038 0
M  V30 7524 H 695.686 0.335709 -0.572883 0
M  V30 7525 H 698.216 0.44662 -1.99666 0
M  V30 7526 H 698.226 2.61296 -3.1335 0
M  V30 7527 H 696.901 1.6771 -3.80587 0
M  V30 7528 H 695.478 2.85273 -2.40153 0
M  V30 7529 N 697.663 1.43903 0.642637 0
M  V30 7530 C 698.593 1.52697 1.76652 0
M  V30 7531 C 699.574 0.380816 1.65782 0
M  V30 7532 O 700.759 0.599432 1.84717 0
M  V30 7533 C 697.889 1.45975 3.15133 0
M  V30 7534 C 696.843 2.58949 3.40778 0
M  V30 7535 C 696.169 2.37279 4.79169 0
M  V30 7536 C 697.469 4.01153 3.34475 0
M  V30 7537 H 699.163 2.46766 1.69549 0
M  V30 7538 H 696.709 1.18767 0.814279 0
M  V30 7539 H 698.662 1.5073 3.93521 0
M  V30 7540 H 697.386 0.484162 3.22991 0
M  V30 7541 H 696.045 2.53564 2.64765 0
M  V30 7542 H 695.693 1.37939 4.83717 0
M  V30 7543 H 695.393 3.13016 4.97287 0
M  V30 7544 H 696.917 2.43834 5.59801 0
M  V30 7545 H 698.331 4.07968 4.02784 0
M  V30 7546 H 696.728 4.77001 3.64129 0
M  V30 7547 H 697.798 4.25539 2.32475 0
M  V30 7548 N 699.141 -0.881989 1.30609 0
M  V30 7549 C 700.073 -1.99375 1.13058 0
M  V30 7550 C 701.086 -1.62636 0.0729879 0
M  V30 7551 O 702.275 -1.75621 0.319301 0
M  V30 7552 C 699.375 -3.31536 0.702651 0
M  V30 7553 C 698.548 -3.96693 1.84265 0
M  V30 7554 C 697.607 -5.07158 1.40277 0
M  V30 7555 O 696.633 -5.28628 2.11048 0
M  V30 7556 N 697.835 -5.79808 0.283449 0
M  V30 7557 H 700.6 -2.14981 2.08814 0
M  V30 7558 H 698.161 -1.05526 1.22784 0
M  V30 7559 H 700.153 -4.02804 0.391331 0
M  V30 7560 H 698.723 -3.12175 -0.162954 0
M  V30 7561 H 697.943 -3.1856 2.32192 0
M  V30 7562 H 699.231 -4.36964 2.60653 0
M  V30 7563 H 698.629 -5.64871 -0.306189 0
M  V30 7564 H 697.186 -6.51792 0.0315985 0
M  V30 7565 N 700.619 -1.13374 -1.09472 0
M  V30 7566 C 701.566 -0.810682 -2.16094 0
M  V30 7567 C 702.536 0.227003 -1.64541 0
M  V30 7568 O 703.721 0.0993538 -1.90541 0
M  V30 7569 C 700.861 -0.282336 -3.43943 0
M  V30 7570 C 699.974 -1.37902 -4.09398 0
M  V30 7571 C 699.109 -0.809066 -5.25002 0
M  V30 7572 C 698.148 -1.88419 -5.82379 0
M  V30 7573 N 697.285 -1.33221 -6.89345 0
M  V30 7574 H 702.125 -1.72397 -2.43071 0
M  V30 7575 H 699.662 -0.860564 -1.19301 0
M  V30 7576 H 701.62 0.0421189 -4.17179 0
M  V30 7577 H 700.25 0.594083 -3.17286 0
M  V30 7578 H 699.302 -1.82008 -3.34032 0
M  V30 7579 H 700.614 -2.19161 -4.48074 0
M  V30 7580 H 699.768 -0.435867 -6.05132 0
M  V30 7581 H 698.507 0.0346058 -4.87688 0
M  V30 7582 H 697.512 -2.26646 -5.00911 0
M  V30 7583 H 698.737 -2.73125 -6.21755 0
M  V30 7584 H 696.683 -0.510535 -6.5401 0
M  V30 7585 H 696.6 -2.08129 -7.26786 0
M  V30 7586 H 697.868 -0.986565 -7.73232 0
M  V30 7587 N 702.098 1.27442 -0.927168 0
M  V30 7588 C 703.008 2.30599 -0.431448 0
M  V30 7589 C 704.024 1.67028 0.48761 0
M  V30 7590 O 705.2 1.97962 0.370546 0
M  V30 7591 C 702.265 3.45327 0.308292 0
M  V30 7592 C 701.326 4.24418 -0.645615 0
M  V30 7593 C 700.559 5.33667 0.0589164 0
M  V30 7594 O 700.782 5.5589 1.27838 0
M  V30 7595 O 699.716 5.98774 -0.612638 0
M  V30 7596 H 703.542 2.75036 -1.28797 0
M  V30 7597 H 701.127 1.32382 -0.692495 0
M  V30 7598 H 703.009 4.15107 0.725555 0
M  V30 7599 H 701.684 3.02945 1.14043 0
M  V30 7600 H 700.591 3.57174 -1.11255 0
M  V30 7601 H 701.924 4.70512 -1.44496 0
M  V30 7602 N 703.576 0.692616 1.41565 0
M  V30 7603 C 704.822 0.231408 2.02079 0
M  V30 7604 C 705.177 -1.15514 1.53864 0
M  V30 7605 O 704.47 -1.76786 0.73873 0
M  V30 7606 C 704.664 0.225073 3.56691 0
M  V30 7607 C 704.493 1.60947 4.19912 0
M  V30 7608 C 703.263 2.2116 4.54331 0
M  V30 7609 C 705.461 2.55553 4.46315 0
M  V30 7610 N 703.443 3.52195 5.02824 0
M  V30 7611 C 704.814 3.71263 4.96552 0
M  V30 7612 C 706.869 2.53857 4.28323 0
M  V30 7613 C 705.572 4.85555 5.30687 0
M  V30 7614 C 707.598 3.67259 4.63546 0
M  V30 7615 C 706.96 4.81699 5.13951 0
M  V30 7616 H 703.059 0.130001 0.771119 0
M  V30 7617 H 705.643 0.909459 1.72154 0
M  V30 7618 H 703.814 -0.422453 3.86096 0
M  V30 7619 H 705.546 -0.250685 4.03923 0
M  V30 7620 H 702.301 1.73474 4.40685 0
M  V30 7621 H 702.725 4.19354 5.3148 0
M  V30 7622 H 707.367 1.66598 3.88594 0
M  V30 7623 H 705.085 5.73477 5.69341 0
M  V30 7624 H 708.671 3.67195 4.51286 0
M  V30 7625 H 707.551 5.67995 5.40695 0
M  V30 7626 N 705.054 -1.51416 0.437162 0
M  V30 7627 C 706.017 -2.26312 -0.362729 0
M  V30 7628 C 707.017 -1.29748 -0.949847 0
M  V30 7629 O 708.207 -1.53462 -0.824325 0
M  V30 7630 C 705.339 -3.05475 -1.5132 0
M  V30 7631 H 706.532 -2.98459 0.29365 0
M  V30 7632 H 704.085 -1.55137 0.190327 0
M  V30 7633 H 704.82 -2.37744 -2.20563 0
M  V30 7634 H 704.605 -3.76401 -1.09838 0
M  V30 7635 H 706.095 -3.62209 -2.07833 0
M  V30 7636 N 706.532 -0.168513 -1.56696 0
M  V30 7637 C 707.48 0.779791 -2.19139 0
M  V30 7638 C 708.474 1.23957 -1.1546 0
M  V30 7639 O 709.68 1.20555 -1.33666 0
M  V30 7640 H 706.055 0.269739 -0.701958 0
M  V30 7641 H 708.026 0.229156 -2.97519 0
M  V30 7642 C 706.775 2.00003 -2.84419 0
M  V30 7643 H 706.098 1.65527 -3.63924 0
M  V30 7644 H 707.538 2.64251 -3.31583 0
M  V30 7645 C 705.997 2.82187 -1.84044 0
M  V30 7646 O 706.527 3.79247 -1.32418 0
M  V30 7647 N 704.733 2.47145 -1.52864 0
M  V30 7648 H 704.28 1.68277 -1.9504 0
M  V30 7649 H 704.238 3.02422 -0.859569 0
M  V30 7650 N 708.01 1.57248 0.105221 0
M  V30 7651 C 709.287 1.76566 0.841647 0
M  V30 7652 C 709.667 0.747566 1.9742 0
M  V30 7653 O 709.015 -0.225886 2.27381 0
M  V30 7654 C 709.225 3.22016 1.3456 0
M  V30 7655 C 710.573 3.84911 1.79244 0
M  V30 7656 O 711.597 3.25703 1.44207 0
M  V30 7657 O 710.456 4.89008 2.43995 0
M  V30 7658 H 707.55 0.723443 0.400698 0
M  V30 7659 H 710.096 1.69472 0.0878893 0
M  V30 7660 H 708.868 3.87644 0.533685 0
M  V30 7661 H 708.491 3.33703 2.16167 0
M  V30 7662 N 709.488 -0.375779 1.53054 0
M  V30 7663 C 710.418 -1.46598 1.81745 0
M  V30 7664 C 711.399 -1.56337 0.670286 0
M  V30 7665 O 712.584 -1.71071 0.919158 0
M  V30 7666 C 709.714 -2.84058 1.99821 0
M  V30 7667 C 708.668 -2.8915 3.15557 0
M  V30 7668 C 707.994 -4.29187 3.18908 0
M  V30 7669 C 709.294 -2.57595 4.54359 0
M  V30 7670 H 710.988 -1.22837 2.73041 0
M  V30 7671 H 708.534 -0.589485 1.31381 0
M  V30 7672 H 710.487 -3.60342 2.18475 0
M  V30 7673 H 709.211 -3.09184 1.05226 0
M  V30 7674 H 707.87 -2.15316 2.96706 0
M  V30 7675 H 707.518 -4.51374 2.2197 0
M  V30 7676 H 707.218 -4.33512 3.96662 0
M  V30 7677 H 708.742 -5.07359 3.39734 0
M  V30 7678 H 710.156 -3.23595 4.73243 0
M  V30 7679 H 708.553 -2.73252 5.34279 0
M  V30 7680 H 709.623 -1.52882 4.60169 0
M  V30 7681 N 710.966 -1.44241 -0.634997 0
M  V30 7682 C 712.243 -1.37296 -1.39317 0
M  V30 7683 C 712.623 -0.0297532 -2.11079 0
M  V30 7684 O 711.971 0.987524 -2.06059 0
M  V30 7685 C 712.181 -2.56853 -2.36279 0
M  V30 7686 C 713.529 -3.00747 -2.99728 0
M  V30 7687 O 714.553 -2.5703 -2.46605 0
M  V30 7688 O 713.412 -3.76533 -3.96087 0
M  V30 7689 H 710.506 -0.543503 -0.623325 0
M  V30 7690 H 713.052 -1.56324 -0.660376 0
M  V30 7691 H 711.824 -3.46228 -1.82324 0
M  V30 7692 H 711.447 -2.40019 -3.16981 0
M  V30 7693 N 712.444 0.87505 -1.31075 0
M  V30 7694 C 713.376 1.98773 -1.14114 0
M  V30 7695 C 714.389 1.62595 -0.0816119 0
M  V30 7696 O 715.578 1.75449 -0.32861 0
M  V30 7697 C 712.678 3.31159 -0.720224 0
M  V30 7698 C 711.851 3.9571 -1.86366 0
M  V30 7699 C 710.91 5.06407 -1.42965 0
M  V30 7700 O 709.936 5.27501 -2.13848 0
M  V30 7701 N 711.138 5.79649 -0.314194 0
M  V30 7702 H 713.903 2.1387 -2.09951 0
M  V30 7703 H 711.464 1.04873 -1.23342 0
M  V30 7704 H 713.456 4.0259 -0.412687 0
M  V30 7705 H 712.026 3.12257 0.146396 0
M  V30 7706 H 711.246 3.17324 -2.33879 0
M  V30 7707 H 712.534 4.35576 -2.62966 0
M  V30 7708 H 711.932 5.65025 0.276228 0
M  V30 7709 H 710.489 6.51766 -0.0661641 0
M  V30 7710 N 713.922 1.13953 1.08869 0
M  V30 7711 C 714.852 0.844824 2.17681 0
M  V30 7712 C 715.833 -0.198213 1.68941 0
M  V30 7713 O 717.018 -0.0559073 1.9412 0
M  V30 7714 C 714.148 0.316325 3.45856 0
M  V30 7715 C 713.102 1.29426 4.07962 0
M  V30 7716 C 712.428 0.625275 5.31031 0
M  V30 7717 C 713.728 2.65484 4.49795 0
M  V30 7718 H 715.422 1.75471 2.42591 0
M  V30 7719 H 712.968 0.845116 1.16592 0
M  V30 7720 H 714.921 0.0977876 4.21287 0
M  V30 7721 H 713.645 -0.628972 3.20486 0
M  V30 7722 H 712.304 1.49889 3.34558 0
M  V30 7723 H 711.952 -0.325678 5.01945 0
M  V30 7724 H 711.652 1.27777 5.73539 0
M  V30 7725 H 713.176 0.416152 6.0918 0
M  V30 7726 H 714.59 2.48957 5.16424 0
M  V30 7727 H 712.987 3.26963 5.03205 0
M  V30 7728 H 714.057 3.22717 3.61914 0
M  V30 7729 N 715.4 -1.26948 0.933913 0
M  V30 7730 C 716.649 -1.93378 0.573409 0
M  V30 7731 C 716.962 -1.74148 -0.890614 0
M  V30 7732 O 718.168 -2.34971 -1.36017 0
M  V30 7733 C 716.624 -3.46449 0.974747 0
M  V30 7734 C 716.232 -3.74425 2.45988 0
M  V30 7735 C 717.976 -4.18924 0.685791 0
M  V30 7736 C 715.883 -5.209 2.8003 0
M  V30 7737 H 714.813 -0.723952 0.210736 0
M  V30 7738 H 717.464 -1.44143 1.13557 0
M  V30 7739 H 715.846 -3.94528 0.341181 0
M  V30 7740 H 717.02 -3.37079 3.14188 0
M  V30 7741 H 715.335 -3.15167 2.72138 0
M  V30 7742 H 717.932 -5.26786 0.916546 0
M  V30 7743 H 718.275 -4.14587 -0.377217 0
M  V30 7744 H 718.808 -3.76687 1.27874 0
M  V30 7745 H 715.547 -5.30332 3.85264 0
M  V30 7746 H 715.067 -5.59369 2.16485 0
M  V30 7747 H 716.746 -5.88837 2.68105 0
M  V30 7748 N 716.879 -0.700114 -1.41195 0
M  V30 7749 C 717.827 -0.0263301 -2.32585 0
M  V30 7750 C 718.821 0.763683 -1.51209 0
M  V30 7751 O 720.027 0.668793 -1.67114 0
M  V30 7752 H 716.402 0.0102869 -0.75193 0
M  V30 7753 H 718.373 -0.814087 -2.8708 0
M  V30 7754 C 717.122 0.892793 -3.36042 0
M  V30 7755 H 716.445 0.294306 -3.98715 0
M  V30 7756 H 717.885 1.33247 -4.02518 0
M  V30 7757 C 716.344 2.01109 -2.7029 0
M  V30 7758 O 716.874 3.10035 -2.55423 0
M  V30 7759 N 715.08 1.79015 -2.28915 0
M  V30 7760 H 714.627 0.904275 -2.41207 0
M  V30 7761 H 714.585 2.54022 -1.85257 0
M  V30 7762 N 718.357 1.51182 -0.445186 0
M  V30 7763 C 719.287 2.30821 0.352686 0
M  V30 7764 C 720.268 1.36576 1.01395 0
M  V30 7765 O 721.453 1.65497 1.01609 0
M  V30 7766 C 718.583 3.15593 1.44976 0
M  V30 7767 C 717.537 4.1818 0.911553 0
M  V30 7768 C 716.863 4.91523 2.10497 0
M  V30 7769 C 718.163 5.22266 -0.059418 0
M  V30 7770 H 719.857 2.97771 -0.311936 0
M  V30 7771 H 717.403 1.43201 -0.151461 0
M  V30 7772 H 719.356 3.70091 2.01521 0
M  V30 7773 H 718.08 2.4648 2.14278 0
M  V30 7774 H 716.739 3.64746 0.368264 0
M  V30 7775 H 716.387 4.18906 2.78437 0
M  V30 7776 H 716.087 5.60898 1.7512 0
M  V30 7777 H 717.611 5.48847 2.6758 0
M  V30 7778 H 719.025 5.71789 0.415985 0
M  V30 7779 H 717.422 5.99213 -0.326152 0
M  V30 7780 H 718.492 4.7461 -0.993631 0
M  V30 7781 N 719.835 0.176821 1.56605 0
M  V30 7782 C 720.745 -0.763682 2.21822 0
M  V30 7783 C 721.761 -1.24889 1.21156 0
M  V30 7784 O 722.937 -1.29987 1.53836 0
M  V30 7785 C 720.002 -1.97352 2.8505 0
M  V30 7786 C 719.063 -1.53466 4.00932 0
M  V30 7787 C 718.296 -2.68682 4.61135 0
M  V30 7788 O 718.519 -3.85694 4.20234 0
M  V30 7789 O 717.453 -2.42442 5.50913 0
M  V30 7790 H 721.279 -0.238363 3.02763 0
M  V30 7791 H 718.864 -0.0516331 1.49311 0
M  V30 7792 H 720.746 -2.68096 3.25119 0
M  V30 7793 H 719.421 -2.48779 2.07101 0
M  V30 7794 H 718.328 -0.796551 3.65521 0
M  V30 7795 H 719.661 -1.06724 4.8049 0
M  V30 7796 N 721.313 -1.57302 -0.09688 0
M  V30 7797 C 722.26 -2.01933 -1.11766 0
M  V30 7798 C 723.23 -0.895329 -1.39904 0
M  V30 7799 O 724.415 -1.16119 -1.51397 0
M  V30 7800 C 721.555 -2.44726 -2.43317 0
M  V30 7801 C 720.668 -3.70639 -2.21925 0
M  V30 7802 C 719.803 -4.02318 -3.46862 0
M  V30 7803 C 718.842 -5.21346 -3.20725 0
M  V30 7804 N 717.979 -5.48787 -4.37924 0
M  V30 7805 H 722.819 -2.88919 -0.730075 0
M  V30 7806 H 720.356 -1.42901 -0.348962 0
M  V30 7807 H 722.314 -2.6758 -3.20088 0
M  V30 7808 H 720.944 -1.60753 -2.79926 0
M  V30 7809 H 719.996 -3.55271 -1.35965 0
M  V30 7810 H 721.308 -4.57557 -1.98603 0
M  V30 7811 H 720.462 -4.25939 -4.32042 0
M  V30 7812 H 719.201 -3.13918 -3.73238 0
M  V30 7813 H 718.206 -4.97547 -2.33938 0
M  V30 7814 H 719.431 -6.11343 -2.95697 0
M  V30 7815 H 717.377 -4.63346 -4.64378 0
M  V30 7816 H 717.294 -6.30073 -4.17785 0
M  V30 7817 H 718.562 -5.76943 -5.24173 0
M  V30 7818 N 722.791 0.367657 -1.53252 0
M  V30 7819 C 724.038 1.11052 -1.69333 0
M  V30 7820 C 724.366 1.89363 -0.444064 0
M  V30 7821 O 723.621 1.87094 0.573953 0
M  V30 7822 C 723.92 2.09825 -2.89324 0
M  V30 7823 C 723.586 1.4801 -4.25915 0
M  V30 7824 C 722.248 1.30879 -4.6306 0
M  V30 7825 C 724.6 1.03268 -5.10867 0
M  V30 7826 C 721.928 0.675868 -5.82794 0
M  V30 7827 C 724.28 0.41377 -6.31245 0
M  V30 7828 C 722.944 0.229939 -6.67104 0
M  V30 7829 H 722.214 0.406367 -0.619634 0
M  V30 7830 H 724.861 0.392558 -1.87433 0
M  V30 7831 H 723.166 2.87917 -2.65728 0
M  V30 7832 H 724.863 2.67252 -2.98961 0
M  V30 7833 H 721.453 1.62336 -3.96667 0
M  V30 7834 H 725.637 1.15297 -4.82722 0
M  V30 7835 H 720.893 0.521833 -6.09169 0
M  V30 7836 H 725.067 0.0588768 -6.96375 0
M  V30 7837 H 722.694 -0.262562 -7.59746 0
M  V30 7838 N 724.269 1.44576 0.627338 0
M  V30 7839 C 725.232 1.51372 1.72102 0
M  V30 7840 C 726.232 0.395329 1.55865 0
M  V30 7841 O 727.422 0.658094 1.61291 0
M  V30 7842 C 724.554 1.39129 3.11217 0
M  V30 7843 H 725.747 2.48798 1.6745 0
M  V30 7844 H 723.3 1.31724 0.841336 0
M  V30 7845 H 724.035 0.428114 3.21462 0
M  V30 7846 H 723.82 2.20229 3.24409 0
M  V30 7847 H 725.31 1.46874 3.90919 0
M  V30 7848 N 725.747 -0.868086 1.31537 0
M  V30 7849 C 727.024 -1.60384 1.11965 0
M  V30 7850 C 727.404 -2.08584 -0.324949 0
M  V30 7851 O 726.752 -1.86561 -1.31937 0
M  V30 7852 C 726.962 -2.76038 2.13551 0
M  V30 7853 C 728.31 -3.45954 2.46173 0
M  V30 7854 O 729.334 -2.86247 2.11993 0
M  V30 7855 O 728.193 -4.53666 3.04711 0
M  V30 7856 H 725.287 -0.705705 0.431172 0
M  V30 7857 H 727.833 -0.913385 1.43022 0
M  V30 7858 H 726.605 -2.37849 3.10714 0
M  V30 7859 H 726.228 -3.52769 1.83411 0
M  V30 7860 N 727.225 -1.14528 -1.08264 0
M  V30 7861 C 728.502 -0.825185 -1.77342 0
M  V30 7862 C 728.882 0.681037 -1.99813 0
M  V30 7863 O 728.23 1.62234 -1.60912 0
M  V30 7864 C 728.44 -1.62556 -3.08831 0
M  V30 7865 C 729.788 -1.82585 -3.83338 0
M  V30 7866 O 730.812 -1.59254 -3.18617 0
M  V30 7867 O 729.671 -2.21598 -4.99556 0
M  V30 7868 H 726.765 -0.302531 -0.769678 0
M  V30 7869 H 729.311 -1.25056 -1.14713 0
M  V30 7870 H 728.083 -2.64862 -2.88035 0
M  V30 7871 H 727.706 -1.1959 -3.79189 0
M  V30 7872 N 728.703 1.26451 -0.940633 0
M  V30 7873 C 729.666 2.24651 -0.454378 0
M  V30 7874 C 730.666 1.54826 0.434222 0
M  V30 7875 O 731.856 1.72628 0.233477 0
M  V30 7876 C 728.988 3.39148 0.345192 0
M  V30 7877 H 730.181 2.69182 -1.32217 0
M  V30 7878 H 727.734 1.38596 -0.722547 0
M  V30 7879 H 728.469 3.00018 1.23125 0
M  V30 7880 H 728.254 3.9101 -0.292107 0
M  V30 7881 H 729.744 4.12103 0.675341 0
M  V30 7882 N 730.181 0.707592 1.40822 0
M  V30 7883 C 731.128 0.0499029 2.30746 0
M  V30 7884 C 732.098 -0.758718 1.47759 0
M  V30 7885 O 733.283 -0.724299 1.76518 0
M  V30 7886 C 730.423 -0.871756 3.33908 0
M  V30 7887 C 729.536 -0.0534655 4.31967 0
M  V30 7888 C 728.671 -0.973869 5.22197 0
M  V30 7889 C 727.71 -0.149194 6.11918 0
M  V30 7890 N 726.847 -1.02404 6.94592 0
M  V30 7891 H 731.687 0.822461 2.86426 0
M  V30 7892 H 729.224 0.417285 1.41057 0
M  V30 7893 H 731.182 -1.42028 3.9228 0
M  V30 7894 H 729.812 -1.61058 2.7975 0
M  V30 7895 H 728.864 0.612142 3.75442 0
M  V30 7896 H 730.176 0.585354 4.95353 0
M  V30 7897 H 729.33 -1.59121 5.85462 0
M  V30 7898 H 728.069 -1.64652 4.59065 0
M  V30 7899 H 727.074 0.481137 5.47691 0
M  V30 7900 H 728.299 0.519841 6.77107 0
M  V30 7901 H 726.245 -1.6825 6.34057 0
M  V30 7902 H 726.162 -0.441076 7.54712 0
M  V30 7903 H 727.43 -1.62782 7.62314 0
M  V30 7904 N 731.66 -1.50943 0.453197 0
M  V30 7905 C 732.907 -2.02212 -0.107922 0
M  V30 7906 C 733.235 -1.33639 -1.41318 0
M  V30 7907 O 732.49 -0.445154 -1.9057 0
M  V30 7908 C 732.789 -3.55603 -0.357944 0
M  V30 7909 C 732.455 -4.42556 0.863427 0
M  V30 7910 C 731.117 -4.6604 1.19834 0
M  V30 7911 C 733.469 -4.93468 1.67747 0
M  V30 7912 C 730.797 -5.37681 2.34768 0
M  V30 7913 C 733.149 -5.6637 2.81793 0
M  V30 7914 C 731.813 -5.88113 3.1572 0
M  V30 7915 H 731.083 -0.739947 -0.0394916 0
M  V30 7916 H 733.73 -1.81738 0.60363 0
M  V30 7917 H 732.035 -3.74495 -1.15156 0
M  V30 7918 H 733.732 -3.92821 -0.805781 0
M  V30 7919 H 730.322 -4.24485 0.592478 0
M  V30 7920 H 734.506 -4.75194 1.43192 0
M  V30 7921 H 729.762 -5.52727 2.61348 0
M  V30 7922 H 733.936 -6.04806 3.45229 0
M  V30 7923 H 731.563 -6.43404 4.04889 0
M  V30 7924 N 733.138 -0.185124 -1.56509 0
M  V30 7925 C 734.554 0.170865 -1.58683 0
M  V30 7926 C 734.754 1.61799 -1.20098 0
M  V30 7927 O 733.81 2.35181 -0.919038 0
M  V30 7928 C 735.123 -0.122459 -3.00451 0
M  V30 7929 C 736.671 -0.0617699 -3.12939 0
M  V30 7930 C 737.146 -0.328269 -4.56822 0
M  V30 7931 N 738.637 -0.276533 -4.62374 0
M  V30 7932 C 739.372 -0.456722 -5.71578 0
M  V30 7933 N 738.868 -0.69672 -6.89288 0
M  V30 7934 N 740.661 -0.391669 -5.60734 0
M  V30 7935 H 732.812 -1.12956 -1.79874 0
M  V30 7936 H 735.075 -0.45011 -0.834329 0
M  V30 7937 H 734.781 -1.12546 -3.33206 0
M  V30 7938 H 734.655 0.579578 -3.72721 0
M  V30 7939 H 737.042 0.931826 -2.80002 0
M  V30 7940 H 737.123 -0.796732 -2.43076 0
M  V30 7941 H 736.767 -1.31914 -4.9047 0
M  V30 7942 H 736.697 0.427465 -5.24862 0
M  V30 7943 H 739.188 -0.0972458 -3.77775 0
M  V30 7944 H 739.501 -0.823291 -7.68402 0
M  V30 7945 H 737.846 -0.733497 -6.91119 0
M  V30 7946 H 741.037 -0.204663 -4.67652 0
M  V30 7947 H 741.21 -0.535518 -6.45783 0
M  V30 7948 N 734.616 1.57351 0.0885366 0
M  V30 7949 C 735.548 1.99221 1.13329 0
M  V30 7950 C 736.561 0.895705 1.35945 0
M  V30 7951 O 737.75 1.17376 1.34481 0
M  V30 7952 C 734.85 2.3016 2.48756 0
M  V30 7953 C 734.023 3.61444 2.46327 0
M  V30 7954 C 733.082 3.80244 3.63732 0
M  V30 7955 O 732.108 4.52024 3.45924 0
M  V30 7956 N 733.31 3.2132 4.8346 0
M  V30 7957 H 736.075 2.89456 0.776862 0
M  V30 7958 H 733.636 1.59505 0.277428 0
M  V30 7959 H 735.628 2.39925 3.25911 0
M  V30 7960 H 734.198 1.459 2.76464 0
M  V30 7961 H 733.418 3.62588 1.54673 0
M  V30 7962 H 734.706 4.47678 2.41789 0
M  V30 7963 H 734.104 2.63028 5.00832 0
M  V30 7964 H 732.661 3.3656 5.58185 0
M  V30 7965 N 736.094 -0.359525 1.53444 0
M  V30 7966 C 737.026 -1.46098 1.76602 0
M  V30 7967 C 738.039 -1.49395 0.646912 0
M  V30 7968 O 739.228 -1.52765 0.923307 0
M  V30 7969 C 736.328 -2.84836 1.83635 0
M  V30 7970 C 735.501 -3.05164 3.13358 0
M  V30 7971 C 734.56 -4.24051 3.11556 0
M  V30 7972 O 733.586 -4.18935 3.85334 0
M  V30 7973 N 734.788 -5.31775 2.328 0
M  V30 7974 H 737.553 -1.2661 2.71643 0
M  V30 7975 H 735.114 -0.549294 1.52297 0
M  V30 7976 H 737.106 -3.62516 1.799 0
M  V30 7977 H 735.676 -2.97542 0.958509 0
M  V30 7978 H 734.896 -2.15091 3.30348 0
M  V30 7979 H 736.184 -3.15619 3.99076 0
M  V30 7980 H 735.582 -5.38796 1.7238 0
M  V30 7981 H 734.139 -6.0801 2.34877 0
M  V30 7982 N 737.572 -1.44907 -0.619662 0
M  V30 7983 C 738.802 -1.51575 -1.40387 0
M  V30 7984 C 739.21 -0.14309 -1.88658 0
M  V30 7985 O 738.553 0.863403 -1.62145 0
M  V30 7986 C 738.615 -2.42858 -2.65067 0
M  V30 7987 C 738.279 -3.8982 -2.38515 0
M  V30 7988 C 739.276 -4.80047 -1.99627 0
M  V30 7989 C 736.961 -4.34628 -2.51801 0
M  V30 7990 C 738.955 -6.13086 -1.74369 0
M  V30 7991 C 736.642 -5.67712 -2.26156 0
M  V30 7992 C 737.64 -6.56759 -1.875 0
M  V30 7993 O 737.328 -7.87377 -1.62148 0
M  V30 7994 H 737.06 -0.51612 -0.436573 0
M  V30 7995 H 739.614 -1.90664 -0.763959 0
M  V30 7996 H 737.844 -1.98717 -3.31735 0
M  V30 7997 H 739.533 -2.40346 -3.27091 0
M  V30 7998 H 740.299 -4.46697 -1.8891 0
M  V30 7999 H 736.178 -3.65568 -2.80857 0
M  V30 8000 H 739.722 -6.8255 -1.44122 0
M  V30 8001 H 735.619 -6.0062 -2.36486 0
M  V30 8002 H 736.387 -7.99288 -1.763 0
M  V30 8003 N 739.05 0.861098 -1.31996 0
M  V30 8004 C 740.466 1.14827 -1.10846 0
M  V30 8005 C 740.666 2.0117 0.11528 0
M  V30 8006 O 739.722 2.39423 0.802048 0
M  V30 8007 C 741.035 1.83183 -2.38462 0
M  V30 8008 C 742.583 1.95847 -2.44158 0
M  V30 8009 C 743.058 2.67617 -3.71679 0
M  V30 8010 N 744.549 2.75147 -3.72624 0
M  V30 8011 C 745.284 3.31314 -4.67994 0
M  V30 8012 N 744.78 3.88343 -5.73726 0
M  V30 8013 N 746.573 3.29356 -4.55501 0
M  V30 8014 H 738.724 0.285951 -2.10466 0
M  V30 8015 H 740.987 0.189303 -0.928907 0
M  V30 8016 H 740.693 1.27193 -3.27895 0
M  V30 8017 H 740.567 2.83393 -2.48935 0
M  V30 8018 H 742.954 2.50999 -1.55189 0
M  V30 8019 H 743.035 0.94653 -2.37644 0
M  V30 8020 H 742.679 2.13131 -4.61018 0
M  V30 8021 H 742.609 3.69237 -3.75462 0
M  V30 8022 H 745.1 2.34682 -2.96197 0
M  V30 8023 H 745.413 4.29338 -6.42564 0
M  V30 8024 H 743.758 3.86693 -5.77489 0
M  V30 8025 H 746.949 2.84047 -3.72069 0
M  V30 8026 H 747.122 3.7283 -5.30001 0
M  V30 8027 N 740.528 1.15101 1.07655 0
M  V30 8028 C 741.438 0.858869 2.18313 0
M  V30 8029 C 742.454 -0.163641 1.73229 0
M  V30 8030 O 743.63 0.00969541 2.01398 0
M  V30 8031 C 740.695 0.34893 3.4494 0
M  V30 8032 C 739.756 1.43495 4.04608 0
M  V30 8033 C 738.989 0.949253 5.2519 0
M  V30 8034 O 739.212 -0.20636 5.70027 0
M  V30 8035 O 738.146 1.73161 5.76454 0
M  V30 8036 H 741.972 1.78386 2.45788 0
M  V30 8037 H 739.557 0.929876 1.16934 0
M  V30 8038 H 741.439 0.070851 4.2134 0
M  V30 8039 H 740.114 -0.548237 3.19024 0
M  V30 8040 H 739.021 1.7666 3.29761 0
M  V30 8041 H 740.354 2.30692 4.3479 0
M  V30 8042 N 742.006 -1.2595 0.947325 0
M  V30 8043 C 743.255 -1.92759 0.593887 0
M  V30 8044 C 743.568 -1.75083 -0.872093 0
M  V30 8045 O 744.774 -2.36401 -1.33518 0
M  V30 8046 C 743.23 -3.45395 1.01144 0
M  V30 8047 C 742.838 -3.71795 2.49946 0
M  V30 8048 C 744.582 -4.18173 0.730185 0
M  V30 8049 C 742.489 -5.17901 2.85539 0
M  V30 8050 H 741.419 -0.721676 0.218403 0
M  V30 8051 H 744.07 -1.4293 1.15079 0
M  V30 8052 H 742.452 -3.94143 0.383007 0
M  V30 8053 H 743.626 -3.33728 3.17746 0
M  V30 8054 H 741.941 -3.12263 2.75465 0
M  V30 8055 H 744.538 -5.25784 0.972367 0
M  V30 8056 H 744.881 -4.14964 -0.333223 0
M  V30 8057 H 745.414 -3.75309 1.31862 0
M  V30 8058 H 742.153 -5.26216 3.90867 0
M  V30 8059 H 741.673 -5.57042 2.22406 0
M  V30 8060 H 743.352 -5.8596 2.74336 0
M  V30 8061 N 743.484 -0.715051 -1.40445 0
M  V30 8062 C 744.431 -0.0621393 -2.30716 0
M  V30 8063 C 745.401 0.750871 -1.48159 0
M  V30 8064 O 746.586 0.714928 -1.76899 0
M  V30 8065 C 743.726 0.854036 -3.34365 0
M  V30 8066 C 742.839 0.0305565 -4.31989 0
M  V30 8067 C 741.974 0.946162 -5.22706 0
M  V30 8068 C 741.013 0.116741 -6.11989 0
M  V30 8069 N 740.15 0.987194 -6.95125 0
M  V30 8070 H 744.99 -0.83764 -2.85985 0
M  V30 8071 H 742.527 -0.424759 -1.40834 0
M  V30 8072 H 744.485 1.39946 -3.93028 0
M  V30 8073 H 743.115 1.59572 -2.806 0
M  V30 8074 H 742.167 -0.632044 -3.75112 0
M  V30 8075 H 743.479 -0.611615 -4.95036 0
M  V30 8076 H 742.633 1.56014 -5.86297 0
M  V30 8077 H 741.372 1.62216 -4.59932 0
M  V30 8078 H 740.377 -0.510176 -5.47428 0
M  V30 8079 H 741.602 -0.555742 -6.76822 0
M  V30 8080 H 739.548 1.64885 -6.3494 0
M  V30 8081 H 739.465 0.401046 -7.54936 0
M  V30 8082 H 740.733 1.58737 -7.63166 0
M  V30 8083 N 744.962 1.50701 -0.461195 0
M  V30 8084 C 745.894 2.26124 0.374244 0
M  V30 8085 C 746.907 1.31064 0.965715 0
M  V30 8086 O 748.096 1.56647 0.855801 0
M  V30 8087 C 745.196 3.01996 1.5379 0
M  V30 8088 C 744.369 4.24336 1.06101 0
M  V30 8089 C 743.428 4.82585 2.09756 0
M  V30 8090 O 742.454 5.43775 1.68219 0
M  V30 8091 N 743.656 4.68712 3.42475 0
M  V30 8092 H 746.421 2.9846 -0.2723 0
M  V30 8093 H 743.982 1.59256 -0.291415 0
M  V30 8094 H 745.974 3.37846 2.22806 0
M  V30 8095 H 744.544 2.32521 2.08933 0
M  V30 8096 H 743.764 3.93707 0.197085 0
M  V30 8097 H 745.052 5.03678 0.720156 0
M  V30 8098 H 744.45 4.20026 3.78938 0
M  V30 8099 H 743.007 5.08858 4.07317 0
M  V30 8100 N 746.441 0.193421 1.56409 0
M  V30 8101 C 747.404 -0.714371 2.17783 0
M  V30 8102 C 748.404 -1.1422 1.13183 0
M  V30 8103 O 749.594 -1.05557 1.38576 0
M  V30 8104 C 746.726 -1.97509 2.77855 0
M  V30 8105 H 747.919 -0.179714 2.99361 0
M  V30 8106 H 745.472 -0.0561944 1.56199 0
M  V30 8107 H 746.207 -2.5523 2.0007 0
M  V30 8108 H 745.992 -1.67706 3.54425 0
M  V30 8109 H 747.482 -2.62246 3.24987 0
M  V30 8110 N 747.919 -1.57396 -0.0801906 0
M  V30 8111 C 748.867 -2.04136 -1.11495 0
M  V30 8112 C 749.861 -0.945137 -1.40583 0
M  V30 8113 O 751.067 -1.13028 -1.40088 0
M  V30 8114 H 747.442 -0.65076 -0.37685 0
M  V30 8115 H 749.413 -2.90205 -0.694526 0
M  V30 8116 C 748.162 -2.49399 -2.42272 0
M  V30 8117 H 747.485 -3.33339 -2.20737 0
M  V30 8118 H 748.925 -2.85864 -3.13142 0
M  V30 8119 C 747.384 -1.37341 -3.07635 0
M  V30 8120 O 747.914 -0.710829 -3.95361 0
M  V30 8121 N 746.12 -1.12064 -2.68123 0
M  V30 8122 H 745.667 -1.66126 -1.96875 0
M  V30 8123 H 745.625 -0.372916 -3.12181 0
M  V30 8124 N 749.397 0.351382 -1.53633 0
M  V30 8125 C 750.344 1.43115 -1.81071 0
M  V30 8126 C 751.314 1.52601 -0.655913 0
M  V30 8127 O 752.499 1.68264 -0.89955 0
M  V30 8128 C 749.639 2.79874 -2.01903 0
M  V30 8129 C 748.752 2.79242 -3.29618 0
M  V30 8130 C 747.887 4.07667 -3.40559 0
M  V30 8131 C 746.926 4.01233 -4.62254 0
M  V30 8132 N 746.063 5.21334 -4.70271 0
M  V30 8133 H 750.903 1.19017 -2.73201 0
M  V30 8134 H 748.44 0.576691 -1.35324 0
M  V30 8135 H 750.398 3.5934 -2.11969 0
M  V30 8136 H 749.028 3.0234 -1.13094 0
M  V30 8137 H 748.08 1.91927 -3.28433 0
M  V30 8138 H 749.392 2.70363 -4.19172 0
M  V30 8139 H 748.546 4.95555 -3.50015 0
M  V30 8140 H 747.285 4.19317 -2.49047 0
M  V30 8141 H 746.29 3.11732 -4.52884 0
M  V30 8142 H 747.515 3.91173 -5.55122 0
M  V30 8143 H 745.461 5.33543 -3.81665 0
M  V30 8144 H 745.378 5.14681 -5.5375 0
M  V30 8145 H 746.646 6.11014 -4.84027 0
M  V30 8146 N 750.875 1.45233 0.611969 0
M  V30 8147 C 752.121 1.49242 1.37312 0
M  V30 8148 C 752.454 0.131963 1.93751 0
M  V30 8149 O 751.729 -0.852999 1.74798 0
M  V30 8150 C 752.012 2.56811 2.52428 0
M  V30 8151 C 751.865 4.02284 2.01215 0
M  V30 8152 C 753.184 2.60705 3.54572 0
M  V30 8153 H 750.303 0.54336 0.497925 0
M  V30 8154 H 752.945 1.77019 0.690242 0
M  V30 8155 H 751.095 2.33256 3.10683 0
M  V30 8156 H 752.767 4.37035 1.47643 0
M  V30 8157 H 751.01 4.1315 1.32248 0
M  V30 8158 H 751.681 4.7323 2.84178 0
M  V30 8159 H 754.157 2.81799 3.06151 0
M  V30 8160 H 753.033 3.37841 4.32614 0
M  V30 8161 H 753.294 1.65627 4.09903 0
M  V30 8162 N 752.353 -0.854086 1.3245 0
M  V30 8163 C 753.769 -1.14238 1.11453 0
M  V30 8164 C 753.969 -2.01228 -0.10461 0
M  V30 8165 O 753.025 -2.39845 -0.789339 0
M  V30 8166 C 754.338 -1.81916 2.39431 0
M  V30 8167 C 755.886 -1.94549 2.45193 0
M  V30 8168 C 756.361 -2.65642 3.73093 0
M  V30 8169 N 757.852 -2.73167 3.74078 0
M  V30 8170 C 758.587 -3.28828 4.69744 0
M  V30 8171 N 758.083 -3.85295 5.75778 0
M  V30 8172 N 759.876 -3.26936 4.57241 0
M  V30 8173 H 752.027 -0.274786 2.10615 0
M  V30 8174 H 754.29 -0.184375 0.929898 0
M  V30 8175 H 753.996 -1.25452 3.28565 0
M  V30 8176 H 753.87 -2.82068 2.50434 0
M  V30 8177 H 756.257 -2.50172 1.56518 0
M  V30 8178 H 756.338 -0.933914 2.38142 0
M  V30 8179 H 755.982 -2.10683 4.62142 0
M  V30 8180 H 755.912 -3.6724 3.77415 0
M  V30 8181 H 758.403 -2.33108 2.97438 0
M  V30 8182 H 758.716 -4.25925 6.44832 0
M  V30 8183 H 757.061 -3.83625 5.79531 0
M  V30 8184 H 760.252 -2.8207 3.7357 0
M  V30 8185 H 760.425 -3.70014 5.31971 0
M  V30 8186 N 753.831 -1.1567 -1.07043 0
M  V30 8187 C 754.761 -0.879348 -2.16309 0
M  V30 8188 C 755.742 0.171311 -1.69235 0
M  V30 8189 O 756.927 0.0250175 -1.94184 0
M  V30 8190 C 754.057 -0.371307 -3.45309 0
M  V30 8191 C 753.011 -1.359 -4.05851 0
M  V30 8192 C 752.337 -0.709678 -5.29969 0
M  V30 8193 C 753.637 -2.72606 -4.45514 0
M  V30 8194 H 755.331 -1.79308 -2.39768 0
M  V30 8195 H 752.877 -0.863558 -1.15233 0
M  V30 8196 H 754.83 -0.164798 -4.21078 0
M  V30 8197 H 753.554 0.577906 -3.21446 0
M  V30 8198 H 752.213 -1.55193 -3.32131 0
M  V30 8199 H 751.861 0.245782 -5.02399 0
M  V30 8200 H 751.561 -1.36886 -5.71433 0
M  V30 8201 H 753.085 -0.513015 -6.08441 0
M  V30 8202 H 754.499 -2.57141 -5.12398 0
M  V30 8203 H 752.896 -3.34927 -4.97939 0
M  V30 8204 H 753.966 -3.28434 -3.56734 0
M  V30 8205 N 755.309 1.25446 -0.953992 0
M  V30 8206 C 756.272 2.24156 -0.478179 0
M  V30 8207 C 757.272 1.55278 0.417776 0
M  V30 8208 O 758.462 1.72866 0.215155 0
M  V30 8209 C 755.594 3.39495 0.309202 0
M  V30 8210 H 756.787 2.67764 -1.35064 0
M  V30 8211 H 754.34 1.37822 -0.737206 0
M  V30 8212 H 755.075 3.01307 1.19936 0
M  V30 8213 H 754.86 3.90679 -0.333562 0
M  V30 8214 H 756.35 4.12796 0.631594 0
M  V30 8215 N 756.787 0.722489 1.40064 0
M  V30 8216 C 757.697 0.0755984 2.34478 0
M  V30 8217 C 758.713 -0.736046 1.57665 0
M  V30 8218 O 759.889 -0.667407 1.9002 0
M  V30 8219 C 756.954 -0.830075 3.36616 0
M  V30 8220 C 756.015 -0.00759884 4.29299 0
M  V30 8221 C 755.248 -0.870139 5.26559 0
M  V30 8222 O 755.471 -2.10921 5.2997 0
M  V30 8223 O 754.405 -0.305454 6.01124 0
M  V30 8224 H 758.231 0.854545 2.9143 0
M  V30 8225 H 755.816 0.483032 1.41376 0
M  V30 8226 H 757.698 -1.34864 3.99236 0
M  V30 8227 H 756.373 -1.58805 2.82069 0
M  V30 8228 H 755.28 0.556199 3.69942 0
M  V30 8229 H 756.613 0.712312 4.87018 0
M  V30 8230 N 758.265 -1.50454 0.469181 0
M  V30 8231 C 759.512 -2.02315 -0.086469 0
M  V30 8232 C 759.84 -1.3513 -1.39893 0
M  V30 8233 O 759.095 -0.465341 -1.90087 0
M  V30 8234 C 759.394 -3.55963 -0.320207 0
M  V30 8235 C 759.06 -4.41615 0.910318 0
M  V30 8236 C 757.722 -4.64743 1.2477 0
M  V30 8237 C 760.074 -4.91661 1.72971 0
M  V30 8238 C 757.402 -5.35161 2.40457 0
M  V30 8239 C 759.754 -5.6335 2.87785 0
M  V30 8240 C 758.418 -5.84732 3.2194 0
M  V30 8241 H 757.688 -0.740324 -0.0316412 0
M  V30 8242 H 760.335 -1.81087 0.622872 0
M  V30 8243 H 758.64 -3.75695 -1.11177 0
M  V30 8244 H 760.337 -3.93653 -0.764071 0
M  V30 8245 H 756.927 -4.23833 0.637467 0
M  V30 8246 H 761.111 -4.73649 1.48224 0
M  V30 8247 H 756.367 -5.49924 2.67196 0
M  V30 8248 H 760.541 -6.0111 3.51624 0
M  V30 8249 H 758.168 -6.39074 4.1169 0
M  V30 8250 N 759.743 -0.201713 -1.56304 0
M  V30 8251 C 760.989 0.435952 -1.98059 0
M  V30 8252 C 761.322 1.60811 -1.08873 0
M  V30 8253 O 760.597 1.9398 -0.142128 0
M  V30 8254 C 760.88 0.889706 -3.48936 0
M  V30 8255 C 760.733 -0.284725 -4.48898 0
M  V30 8256 C 762.052 1.7529 -4.03685 0
M  V30 8257 H 759.171 0.15699 -0.720085 0
M  V30 8258 H 761.813 -0.293965 -1.87712 0
M  V30 8259 H 759.963 1.51166 -3.57884 0
M  V30 8260 H 761.635 -0.922531 -4.51981 0
M  V30 8261 H 759.878 -0.935427 -4.23594 0
M  V30 8262 H 760.549 0.0753865 -5.51949 0
M  V30 8263 H 763.025 1.2283 -3.97558 0
M  V30 8264 H 761.901 2.03933 -5.0961 0
M  V30 8265 H 762.162 2.70939 -3.49348 0
M  V30 8266 N 761.222 1.57436 0.0718424 0
M  V30 8267 C 762.169 2.03686 1.08539 0
M  V30 8268 C 763.139 0.917474 1.38462 0
M  V30 8269 O 764.324 1.18513 1.4953 0
M  V30 8270 C 761.464 2.48566 2.39393 0
M  V30 8271 C 760.577 3.74122 2.16001 0
M  V30 8272 C 759.712 4.07786 3.40418 0
M  V30 8273 C 758.751 5.26383 3.1239 0
M  V30 8274 N 757.888 5.55685 4.29138 0
M  V30 8275 H 762.728 2.90043 0.684018 0
M  V30 8276 H 760.265 1.43438 0.326183 0
M  V30 8277 H 762.223 2.72639 3.15791 0
M  V30 8278 H 760.853 1.65186 2.77333 0
M  V30 8279 H 759.905 3.57389 1.30296 0
M  V30 8280 H 761.217 4.60659 1.91298 0
M  V30 8281 H 760.371 4.32759 4.25211 0
M  V30 8282 H 759.11 3.19817 3.68197 0
M  V30 8283 H 758.115 5.01206 2.25993 0
M  V30 8284 H 759.34 6.1597 2.85934 0
M  V30 8285 H 757.286 4.70675 4.56948 0
M  V30 8286 H 757.203 6.3664 4.07708 0
M  V30 8287 H 758.471 5.85209 5.14928 0
M  V30 8288 N 762.7 -0.34323 1.53817 0
M  V30 8289 C 763.946 -1.08504 1.71332 0
M  V30 8290 C 764.279 -1.88294 0.475285 0
M  V30 8291 O 763.554 -1.87205 -0.527688 0
M  V30 8292 C 763.837 -2.02597 2.97702 0
M  V30 8293 C 763.69 -1.26268 4.31713 0
M  V30 8294 C 765.009 -3.0241 3.19744 0
M  V30 8295 H 762.128 -0.393072 0.623429 0
M  V30 8296 H 764.77 -0.363579 1.86489 0
M  V30 8297 H 762.92 -2.64118 2.8491 0
M  V30 8298 H 764.592 -0.673594 4.56356 0
M  V30 8299 H 762.835 -0.564696 4.30109 0
M  V30 8300 H 763.506 -1.95253 5.16314 0
M  V30 8301 H 765.982 -2.51004 3.31868 0
M  V30 8302 H 764.858 -3.65449 4.09558 0
M  V30 8303 H 765.119 -3.73806 2.36054 0
M  V30 8304 N 764.178 -1.45556 -0.604258 0
M  V30 8305 C 765.594 -1.30035 -0.925368 0
M  V30 8306 C 765.794 -0.255833 -1.99869 0
M  V30 8307 O 764.85 0.349076 -2.50075 0
M  V30 8308 C 766.163 -2.68028 -1.36314 0
M  V30 8309 C 767.711 -2.75951 -1.47717 0
M  V30 8310 C 768.186 -4.14476 -1.94868 0
M  V30 8311 N 769.677 -4.16787 -2.02097 0
M  V30 8312 C 770.412 -5.20845 -2.39809 0
M  V30 8313 N 769.908 -6.35246 -2.76467 0
M  V30 8314 N 771.701 -5.08204 -2.40177 0
M  V30 8315 H 763.852 -2.1214 0.10512 0
M  V30 8316 H 766.115 -0.947871 -0.0156303 0
M  V30 8317 H 765.821 -3.45667 -0.648628 0
M  V30 8318 H 765.695 -2.96711 -2.329 0
M  V30 8319 H 768.082 -1.98613 -2.18258 0
M  V30 8320 H 768.163 -2.50977 -0.494371 0
M  V30 8321 H 767.807 -4.923 -1.24912 0
M  V30 8322 H 767.737 -4.36843 -2.94068 0
M  V30 8323 H 770.228 -3.34233 -1.76343 0
M  V30 8324 H 770.541 -7.10438 -3.04134 0
M  V30 8325 H 768.886 -6.38642 -2.74155 0
M  V30 8326 H 772.077 -4.17874 -2.10947 0
M  V30 8327 H 772.25 -5.89417 -2.69242 0
M  V30 8328 N 765.656 0.84705 -1.32902 0
M  V30 8329 C 766.884 1.63403 -1.26913 0
M  V30 8330 C 767.299 1.88108 0.161483 0
M  V30 8331 O 766.656 1.45546 1.10103 0
M  V30 8332 C 766.707 2.98896 -2.03331 0
M  V30 8333 O 766.428 2.75281 -3.40811 0
M  V30 8334 C 767.929 3.93335 -2.04457 0
M  V30 8335 H 765.149 0.508701 -0.437566 0
M  V30 8336 H 767.693 1.05567 -1.75145 0
M  V30 8337 H 765.848 3.53356 -1.58802 0
M  V30 8338 H 766.262 3.61504 -3.8002 0
M  V30 8339 H 767.736 4.85647 -2.62394 0
M  V30 8340 H 768.213 4.26885 -1.03274 0
M  V30 8341 H 768.819 3.44812 -2.48967 0
M  V30 8342 N 767.134 1.16236 1.06428 0
M  V30 8343 C 768.382 0.941171 1.78847 0
M  V30 8344 C 768.703 -0.53248 1.87589 0
M  V30 8345 O 767.973 -1.38686 1.38358 0
M  V30 8346 H 766.553 0.345228 0.66244 0
M  V30 8347 H 769.215 1.46479 1.28569 0
M  V30 8348 H 768.311 1.35871 2.80972 0
M  V30 8349 N 768.612 -1.24939 0.960631 0
M  V30 8350 C 769.861 -1.92118 0.614298 0
M  V30 8351 C 770.174 -1.75998 -0.853474 0
M  V30 8352 O 771.38 -2.37804 -1.31003 0
M  V30 8353 C 769.836 -3.44303 1.04801 0
M  V30 8354 C 769.444 -3.69123 2.53875 0
M  V30 8355 C 771.188 -4.17375 0.774497 0
M  V30 8356 C 769.095 -5.14843 2.91016 0
M  V30 8357 H 768.025 -0.719319 0.226045 0
M  V30 8358 H 770.676 -1.41701 1.16589 0
M  V30 8359 H 769.058 -3.93715 0.42479 0
M  V30 8360 H 770.232 -3.30339 3.21267 0
M  V30 8361 H 768.547 -3.09323 2.78762 0
M  V30 8362 H 771.144 -5.24723 1.02808 0
M  V30 8363 H 771.487 -4.15294 -0.289192 0
M  V30 8364 H 772.02 -3.7389 1.35835 0
M  V30 8365 H 768.759 -5.2204 3.96427 0
M  V30 8366 H 768.279 -5.54652 2.28302 0
M  V30 8367 H 769.958 -5.83017 2.80535 0
M  V30 8368 N 770.09 -0.729906 -1.39679 0
M  V30 8369 C 771 -0.0880322 -2.34435 0
M  V30 8370 C 772.016 0.727674 -1.58053 0
M  V30 8371 O 773.192 0.657321 -1.90371 0
M  V30 8372 C 770.257 0.812211 -3.37052 0
M  V30 8373 C 769.318 -0.0151681 -4.29297 0
M  V30 8374 C 768.551 0.842202 -5.27013 0
M  V30 8375 O 768.774 2.08108 -5.31081 0
M  V30 8376 O 767.708 0.27357 -6.01278 0
M  V30 8377 H 771.534 -0.869989 -2.90972 0
M  V30 8378 H 769.119 -0.490522 -1.41118 0
M  V30 8379 H 771.001 1.32745 -3.99946 0
M  V30 8380 H 769.676 1.57307 -2.82907 0
M  V30 8381 H 768.583 -0.575811 -3.69642 0
M  V30 8382 H 769.916 -0.738129 -4.86634 0
M  V30 8383 N 771.568 1.50203 -0.477153 0
M  V30 8384 C 772.817 2.01551 0.0774548 0
M  V30 8385 C 773.13 1.36359 1.40234 0
M  V30 8386 O 774.336 1.78898 2.04225 0
M  V30 8387 C 772.792 3.59406 0.188539 0
M  V30 8388 C 772.4 4.3356 -1.12828 0
M  V30 8389 C 774.144 4.18776 0.694782 0
M  V30 8390 C 772.051 5.83213 -0.98066 0
M  V30 8391 H 770.981 0.75329 0.0327212 0
M  V30 8392 H 773.632 1.72959 -0.612969 0
M  V30 8393 H 772.014 3.84611 0.942881 0
M  V30 8394 H 773.188 4.20074 -1.89405 0
M  V30 8395 H 771.503 3.85827 -1.5661 0
M  V30 8396 H 774.1 5.28338 0.822356 0
M  V30 8397 H 774.443 3.80557 1.68766 0
M  V30 8398 H 774.976 3.978 -0.00234519 0
M  V30 8399 H 771.715 6.25914 -1.94709 0
M  V30 8400 H 771.235 5.99256 -0.255375 0
M  V30 8401 H 772.914 6.4373 -0.649717 0
M  V30 8402 N 773.046 0.209999 1.56195 0
M  V30 8403 C 773.994 -0.721416 2.2113 0
M  V30 8404 C 774.988 -1.20852 1.18706 0
M  V30 8405 O 776.194 -1.16968 1.36815 0
M  V30 8406 H 772.569 -0.251033 0.708863 0
M  V30 8407 H 774.54 -0.150193 2.98022 0
M  V30 8408 C 773.289 -1.92392 2.89621 0
M  V30 8409 H 772.612 -1.5582 3.68185 0
M  V30 8410 H 774.052 -2.55367 3.38473 0
M  V30 8411 C 772.511 -2.77208 1.91461 0
M  V30 8412 O 773.041 -3.75603 1.42426 0
M  V30 8413 N 771.247 -2.43006 1.59363 0
M  V30 8414 H 770.794 -1.63047 1.99433 0
M  V30 8415 H 770.752 -3.00036 0.939449 0
M  V30 8416 N 774.524 -1.57472 -0.0634922 0
M  V30 8417 C 775.935 -1.76303 -0.614337 0
M  V30 8418 C 776.286 -0.836578 -1.77471 0
M  V30 8419 O 775.411 -0.0227184 -2.16388 0
M  V30 8420 C 776.006 -3.19709 -1.12122 0
M  V30 8421 C 774.565 -3.39856 -1.61786 0
M  V30 8422 C 773.712 -2.71975 -0.540845 0
M  V30 8423 H 776.663 -1.57864 0.162702 0
M  V30 8424 H 776.684 -3.24326 -1.98979 0
M  V30 8425 H 776.196 -3.87114 -0.276472 0
M  V30 8426 H 774.297 -2.77578 -2.48558 0
M  V30 8427 H 774.41 -4.48338 -1.68908 0
M  V30 8428 H 772.774 -2.34763 -0.987854 0
M  V30 8429 H 773.557 -3.4204 0.293856 0
M  V30 8430 N 776.003 0.335068 -1.53997 0
M  V30 8431 C 776.935 1.4327 -1.78903 0
M  V30 8432 C 777.948 1.48347 -0.670598 0
M  V30 8433 O 779.137 1.51277 -0.947494 0
M  V30 8434 C 776.237 2.81878 -1.88144 0
M  V30 8435 C 775.41 3.00141 -3.18174 0
M  V30 8436 C 774.469 4.19041 -3.18263 0
M  V30 8437 O 773.495 4.12751 -3.9195 0
M  V30 8438 N 774.697 5.28004 -2.41231 0
M  V30 8439 H 777.462 1.22272 -2.73623 0
M  V30 8440 H 775.023 0.524996 -1.53152 0
M  V30 8441 H 777.015 3.59609 -1.85644 0
M  V30 8442 H 775.585 2.9598 -1.00572 0
M  V30 8443 H 774.805 2.09808 -3.33728 0
M  V30 8444 H 776.093 3.0923 -4.04047 0
M  V30 8445 H 775.491 5.35986 -1.8093 0
M  V30 8446 H 774.048 6.04196 -2.44521 0
M  V30 8447 N 777.481 1.45874 0.596531 0
M  V30 8448 C 778.444 1.54988 1.68853 0
M  V30 8449 C 779.444 0.428302 1.54991 0
M  V30 8450 O 780.634 0.692158 1.59859 0
M  V30 8451 C 777.766 1.457 3.08195 0
M  V30 8452 H 778.959 2.52294 1.62135 0
M  V30 8453 H 776.512 1.33479 0.813206 0
M  V30 8454 H 777.247 0.496204 3.20481 0
M  V30 8455 H 777.032 2.27061 3.19665 0
M  V30 8456 H 778.522 1.55133 3.87716 0
M  V30 8457 N 778.959 -0.83999 1.33349 0
M  V30 8458 C 780.208 -1.59011 1.2409 0
M  V30 8459 C 780.521 -1.94655 -0.192029 0
M  V30 8460 O 781.727 -2.68438 -0.406617 0
M  V30 8461 C 780.183 -2.86801 2.17425 0
M  V30 8462 C 779.791 -2.58525 3.65881 0
M  V30 8463 C 781.535 -3.64823 2.17036 0
M  V30 8464 C 779.442 -3.82404 4.51133 0
M  V30 8465 H 778.372 -0.596731 0.460899 0
M  V30 8466 H 781.023 -0.926274 1.58406 0
M  V30 8467 H 779.405 -3.54719 1.7604 0
M  V30 8468 H 780.579 -1.98824 4.15699 0
M  V30 8469 H 778.894 -1.93808 3.68548 0
M  V30 8470 H 781.491 -4.56774 2.7796 0
M  V30 8471 H 781.834 -3.99663 1.16513 0
M  V30 8472 H 782.367 -3.03826 2.56777 0
M  V30 8473 H 779.106 -3.52696 5.52527 0
M  V30 8474 H 778.626 -4.41447 4.0606 0
M  V30 8475 H 780.305 -4.49995 4.6488 0
M  V30 8476 N 780.437 -1.16799 -1.0581 0
M  V30 8477 C 781.684 -0.952524 -1.78699 0
M  V30 8478 C 782.012 0.51931 -1.87439 0
M  V30 8479 O 781.267 1.40151 -1.36587 0
M  V30 8480 C 781.566 -1.53111 -3.22942 0
M  V30 8481 C 781.232 -3.0261 -3.34273 0
M  V30 8482 C 779.894 -3.43418 -3.37072 0
M  V30 8483 C 782.246 -3.98611 -3.35795 0
M  V30 8484 C 779.574 -4.78838 -3.39015 0
M  V30 8485 C 781.926 -5.33923 -3.39277 0
M  V30 8486 C 780.59 -5.74205 -3.40361 0
M  V30 8487 H 779.86 -0.348553 -0.653905 0
M  V30 8488 H 782.507 -1.45591 -1.244 0
M  V30 8489 H 780.812 -0.949286 -3.80126 0
M  V30 8490 H 782.509 -1.34002 -3.77948 0
M  V30 8491 H 779.099 -2.70075 -3.32803 0
M  V30 8492 H 783.283 -3.68146 -3.32839 0
M  V30 8493 H 778.539 -5.09369 -3.38161 0
M  V30 8494 H 782.713 -6.08094 -3.39403 0
M  V30 8495 H 780.34 -6.79117 -3.4162 0
M  V30 8496 N 781.915 1.24427 -0.967243 0
M  V30 8497 C 783.192 1.87831 -0.545776 0
M  V30 8498 C 783.572 1.87126 0.977099 0
M  V30 8499 O 782.92 1.34357 1.84826 0
M  V30 8500 C 783.13 3.29967 -1.13679 0
M  V30 8501 C 784.478 4.06654 -1.22139 0
M  V30 8502 O 785.502 3.39136 -1.08926 0
M  V30 8503 O 784.361 5.27455 -1.43017 0
M  V30 8504 H 781.455 0.806745 -0.181912 0
M  V30 8505 H 784.001 1.32403 -1.06148 0
M  V30 8506 H 782.773 3.24977 -2.17958 0
M  V30 8507 H 782.396 3.92969 -0.605093 0
M  V30 8508 N 783.393 0.737304 1.3929 0
M  V30 8509 C 784.642 0.283129 1.99703 0
M  V30 8510 C 784.955 -1.13677 1.59176 0
M  V30 8511 O 786.161 -1.69058 2.12442 0
M  V30 8512 C 784.617 0.455262 3.57009 0
M  V30 8513 C 784.225 1.88319 4.06497 0
M  V30 8514 C 785.969 0.0629786 4.24453 0
M  V30 8515 C 783.876 2.00475 5.56385 0
M  V30 8516 H 782.806 0.102106 0.747054 0
M  V30 8517 H 785.457 0.911515 1.5926 0
M  V30 8518 H 783.839 -0.242057 3.9526 0
M  V30 8519 H 785.013 2.61265 3.79575 0
M  V30 8520 H 783.328 2.2289 3.51723 0
M  V30 8521 H 785.925 0.132787 5.34535 0
M  V30 8522 H 786.268 -0.982128 4.04549 0
M  V30 8523 H 786.801 0.71154 3.91385 0
M  V30 8524 H 783.54 3.03182 5.81172 0
M  V30 8525 H 783.06 1.31969 5.85102 0
M  V30 8526 H 784.739 1.787 6.21832 0
M  V30 8527 N 784.871 -1.49948 0.485112 0
M  V30 8528 C 785.803 -2.26691 -0.338222 0
M  V30 8529 C 786.816 -1.32584 -0.944742 0
M  V30 8530 O 788.005 -1.57989 -0.830772 0
M  V30 8531 C 785.105 -3.04405 -1.48966 0
M  V30 8532 C 784.278 -4.25971 -0.993371 0
M  V30 8533 C 783.337 -4.85861 -2.02052 0
M  V30 8534 O 782.363 -5.46382 -1.59547 0
M  V30 8535 N 783.565 -4.74101 -3.34975 0
M  V30 8536 H 786.33 -2.97989 0.319748 0
M  V30 8537 H 783.891 -1.58772 0.316714 0
M  V30 8538 H 785.883 -3.41348 -2.17403 0
M  V30 8539 H 784.453 -2.35815 -2.05207 0
M  V30 8540 H 783.673 -3.93971 -0.134424 0
M  V30 8541 H 784.961 -5.0476 -0.639934 0
M  V30 8542 H 784.359 -4.26002 -3.72208 0
M  V30 8543 H 782.916 -5.15274 -3.9917 0
M  V30 8544 N 786.349 -0.21828 -1.56081 0
M  V30 8545 C 787.598 0.414644 -1.97392 0
M  V30 8546 C 787.911 1.61132 -1.10887 0
M  V30 8547 O 789.117 2.31355 -1.42082 0
M  V30 8548 C 787.573 0.789099 -3.51143 0
M  V30 8549 C 787.181 -0.384578 -4.46346 0
M  V30 8550 C 788.925 1.38781 -4.01173 0
M  V30 8551 C 786.832 0.0121288 -5.91399 0
M  V30 8552 H 785.762 0.158691 -0.737111 0
M  V30 8553 H 788.413 -0.313974 -1.80794 0
M  V30 8554 H 786.795 1.57505 -3.6333 0
M  V30 8555 H 787.969 -1.16212 -4.45905 0
M  V30 8556 H 786.284 -0.896306 -4.06639 0
M  V30 8557 H 788.881 1.69746 -5.07041 0
M  V30 8558 H 789.224 2.30245 -3.46833 0
M  V30 8559 H 789.757 0.665364 -3.92196 0
M  V30 8560 H 786.496 -0.868917 -6.49715 0
M  V30 8561 H 786.016 0.754053 -5.95041 0
M  V30 8562 H 787.695 0.439949 -6.45502 0
M  V30 8563 N 787.827 1.57504 0.0551401 0
M  V30 8564 C 788.774 2.04825 1.06373 0
M  V30 8565 C 789.744 0.932108 1.37481 0
M  V30 8566 O 790.929 1.20093 1.48265 0
M  V30 8567 C 788.069 2.51091 2.36743 0
M  V30 8568 C 787.182 3.76392 2.12021 0
M  V30 8569 C 786.317 4.11373 3.36074 0
M  V30 8570 C 785.356 5.29666 3.0679 0
M  V30 8571 N 784.493 5.60205 4.2322 0
M  V30 8572 H 789.333 2.90753 0.653216 0
M  V30 8573 H 786.87 1.43776 0.310951 0
M  V30 8574 H 788.828 2.75973 3.12881 0
M  V30 8575 H 787.458 1.68118 2.75565 0
M  V30 8576 H 786.51 3.58751 1.26498 0
M  V30 8577 H 787.822 4.62662 1.86401 0
M  V30 8578 H 786.976 4.37245 4.20597 0
M  V30 8579 H 785.715 3.23704 3.64784 0
M  V30 8580 H 784.72 5.03574 2.20664 0
M  V30 8581 H 785.945 6.18968 2.79385 0
M  V30 8582 H 783.891 4.75495 4.5193 0
M  V30 8583 H 783.808 6.40928 4.00933 0
M  V30 8584 H 785.076 5.90637 5.08692 0
M  V30 8585 N 789.305 -0.326896 1.54172 0
M  V30 8586 C 790.721 -0.671034 1.44808 0
M  V30 8587 C 790.921 -1.91781 0.618258 0
M  V30 8588 O 789.977 -2.52235 0.115751 0
M  V30 8589 C 791.29 -0.848147 2.88491 0
M  V30 8590 C 792.838 -0.945702 2.98371 0
M  V30 8591 C 793.313 -1.15501 4.43197 0
M  V30 8592 N 794.804 -1.22183 4.46795 0
M  V30 8593 C 795.539 -1.4016 5.56006 0
M  V30 8594 N 795.035 -1.55202 6.75192 0
M  V30 8595 N 796.828 -1.42841 5.43648 0
M  V30 8596 H 788.979 0.49262 2.06608 0
M  V30 8597 H 791.242 0.158574 0.934643 0
M  V30 8598 H 790.948 -0.00329969 3.517 0
M  V30 8599 H 790.822 -1.74497 3.34411 0
M  V30 8600 H 793.209 -1.78106 2.35292 0
M  V30 8601 H 793.29 -0.0254215 2.55787 0
M  V30 8602 H 792.934 -0.324521 5.06862 0
M  V30 8603 H 792.864 -2.08911 4.83388 0
M  V30 8604 H 795.355 -1.12016 3.60917 0
M  V30 8605 H 795.668 -1.68601 7.54184 0
M  V30 8606 H 794.013 -1.52306 6.78106 0
M  V30 8607 H 797.204 -1.30683 4.49488 0
M  V30 8608 H 797.377 -1.56509 6.28816 0
M  V30 8609 N 790.784 -1.46188 -0.588786 0
M  V30 8610 C 791.714 -1.59148 -1.70863 0
M  V30 8611 C 792.695 -0.442083 -1.64255 0
M  V30 8612 O 793.88 -0.667575 -1.82365 0
M  V30 8613 C 791.01 -1.5757 -3.09498 0
M  V30 8614 C 789.964 -2.71418 -3.30932 0
M  V30 8615 C 789.29 -2.549 -4.70032 0
M  V30 8616 C 790.59 -4.1329 -3.19356 0
M  V30 8617 H 792.284 -2.52889 -1.60274 0
M  V30 8618 H 789.83 -1.21707 -0.769638 0
M  V30 8619 H 791.783 -1.65231 -3.87655 0
M  V30 8620 H 790.507 -0.603705 -3.20972 0
M  V30 8621 H 789.166 -2.63216 -2.55172 0
M  V30 8622 H 788.814 -1.55797 -4.78264 0
M  V30 8623 H 788.514 -3.31257 -4.85327 0
M  V30 8624 H 790.038 -2.64443 -5.50366 0
M  V30 8625 H 791.452 -4.22636 -3.87365 0
M  V30 8626 H 789.849 -4.90187 -3.46175 0
M  V30 8627 H 790.919 -4.33874 -2.16522 0
M  V30 8628 N 792.262 0.832906 -1.33792 0
M  V30 8629 C 793.212 1.93178 -1.21105 0
M  V30 8630 C 794.196 1.60506 -0.112491 0
M  V30 8631 O 795.388 1.73681 -0.341179 0
M  V30 8632 C 792.517 3.29647 -0.958526 0
M  V30 8633 C 791.603 3.68469 -2.0998 0
M  V30 8634 N 791.994 3.78936 -3.35024 0
M  V30 8635 C 790.292 3.98249 -2.00782 0
M  V30 8636 C 790.993 4.12731 -4.09912 0
M  V30 8637 N 789.969 4.25419 -3.38407 0
M  V30 8638 H 793.771 1.99434 -2.15878 0
M  V30 8639 H 791.285 1.02598 -1.25886 0
M  V30 8640 H 793.282 4.08173 -0.848552 0
M  V30 8641 H 791.942 3.24694 -0.019387 0
M  V30 8642 H 792.953 3.62688 -3.69699 0
M  V30 8643 H 789.63 4.01474 -1.14564 0
M  V30 8644 H 791.02 4.28117 -5.17847 0
M  V30 8645 N 793.74 1.17359 1.05189 0
M  V30 8646 C 794.65 0.904984 2.16442 0
M  V30 8647 C 795.666 -0.12686 1.73537 0
M  V30 8648 O 796.842 0.0524127 2.01332 0
M  V30 8649 C 793.907 0.422019 3.44122 0
M  V30 8650 C 792.968 1.52045 4.01473 0
M  V30 8651 C 792.201 1.06044 5.23059 0
M  V30 8652 O 792.424 -0.0854023 5.70336 0
M  V30 8653 O 791.358 1.85349 5.72651 0
M  V30 8654 H 795.184 1.8356 2.41949 0
M  V30 8655 H 792.769 0.95447 1.14936 0
M  V30 8656 H 794.651 0.160208 4.21095 0
M  V30 8657 H 793.326 -0.480444 3.20115 0
M  V30 8658 H 792.233 1.83615 3.25939 0
M  V30 8659 H 793.566 2.39863 4.29798 0
M  V30 8660 N 795.218 -1.23913 0.973828 0
M  V30 8661 C 796.448 -1.95911 0.655938 0
M  V30 8662 C 796.856 -1.72375 -0.779967 0
M  V30 8663 O 796.199 -1.00807 -1.5357 0
M  V30 8664 C 796.261 -3.49103 0.858324 0
M  V30 8665 C 795.925 -3.96347 2.27504 0
M  V30 8666 C 796.922 -4.05537 3.25324 0
M  V30 8667 C 794.607 -4.29509 2.60437 0
M  V30 8668 C 796.601 -4.47233 4.5416 0
M  V30 8669 C 794.288 -4.70887 3.89498 0
M  V30 8670 C 795.286 -4.79714 4.86172 0
M  V30 8671 O 794.974 -5.20166 6.1293 0
M  V30 8672 H 794.706 -0.630721 0.243244 0
M  V30 8673 H 797.26 -1.58534 1.30599 0
M  V30 8674 H 795.49 -3.86405 0.151097 0
M  V30 8675 H 797.179 -4.02311 0.538592 0
M  V30 8676 H 797.945 -3.80128 3.0121 0
M  V30 8677 H 793.824 -4.21853 1.85906 0
M  V30 8678 H 797.368 -4.54038 5.29618 0
M  V30 8679 H 793.265 -4.95744 4.1341 0
M  V30 8680 H 794.033 -5.38298 6.16586 0
M  V30 8681 N 796.696 -0.74468 -1.38897 0
M  V30 8682 C 797.643 -0.111064 -2.30533 0
M  V30 8683 C 798.613 0.719276 -1.49719 0
M  V30 8684 O 799.798 0.677244 -1.78376 0
M  V30 8685 C 796.938 0.78292 -3.36102 0
M  V30 8686 C 796.051 -0.0610817 -4.31957 0
M  V30 8687 C 795.186 0.835075 -5.24595 0
M  V30 8688 C 794.225 -0.0130974 -6.12099 0
M  V30 8689 N 793.362 0.839525 -6.97063 0
M  V30 8690 H 798.202 -0.898113 -2.84144 0
M  V30 8691 H 795.739 -0.454537 -1.39901 0
M  V30 8692 H 797.697 1.31578 -3.95908 0
M  V30 8693 H 796.327 1.53585 -2.83922 0
M  V30 8694 H 795.379 -0.711469 -3.73687 0
M  V30 8695 H 796.691 -0.716482 -4.93627 0
M  V30 8696 H 795.845 1.43542 -5.89475 0
M  V30 8697 H 794.584 1.52423 -4.63269 0
M  V30 8698 H 793.589 -0.626179 -5.46223 0
M  V30 8699 H 794.814 -0.699181 -6.75491 0
M  V30 8700 H 792.76 1.5138 -6.38295 0
M  V30 8701 H 792.677 0.240823 -7.55616 0
M  V30 8702 H 793.945 1.42513 -7.66362 0
M  V30 8703 N 798.174 1.49689 -0.493057 0
M  V30 8704 C 799.59 1.58907 -0.148526 0
M  V30 8705 C 799.79 1.4991 1.34645 0
M  V30 8706 O 798.846 1.36893 2.12171 0
M  V30 8707 C 800.159 2.91996 -0.718265 0
M  V30 8708 C 801.707 3.05443 -0.683658 0
M  V30 8709 C 802.182 4.41138 -1.23132 0
M  V30 8710 N 803.673 4.47608 -1.19167 0
M  V30 8711 C 804.408 5.51038 -1.5857 0
M  V30 8712 N 803.904 6.61612 -2.05528 0
M  V30 8713 N 805.697 5.41706 -1.50036 0
M  V30 8714 H 797.848 1.5378 -1.46511 0
M  V30 8715 H 800.111 0.727996 -0.607228 0
M  V30 8716 H 799.817 3.04123 -1.7664 0
M  V30 8717 H 799.691 3.76798 -0.17419 0
M  V30 8718 H 802.078 2.92949 0.355626 0
M  V30 8719 H 802.159 2.22344 -1.26479 0
M  V30 8720 H 801.803 4.54382 -2.26935 0
M  V30 8721 H 801.733 5.22864 -0.626201 0
M  V30 8722 H 804.224 3.68274 -0.847524 0
M  V30 8723 H 804.537 7.36622 -2.33685 0
M  V30 8724 H 802.882 6.62674 -2.09497 0
M  V30 8725 H 806.073 4.54212 -1.13176 0
M  V30 8726 H 806.246 6.22188 -1.81068 0
M  V30 8727 N 799.652 0.226554 1.55963 0
M  V30 8728 C 800.584 -0.713907 2.17798 0
M  V30 8729 C 801.597 -1.15387 1.14846 0
M  V30 8730 O 802.786 -1.08416 1.41804 0
M  V30 8731 C 799.886 -1.97945 2.75084 0
M  V30 8732 C 799.059 -1.69424 4.03255 0
M  V30 8733 C 798.118 -2.80734 4.45056 0
M  V30 8734 O 797.144 -2.4899 5.11852 0
M  V30 8735 N 798.346 -4.09797 4.11152 0
M  V30 8736 H 801.111 -0.18494 2.99129 0
M  V30 8737 H 798.672 0.0457346 1.61835 0
M  V30 8738 H 800.664 -2.71611 3.00016 0
M  V30 8739 H 799.234 -2.41876 1.98027 0
M  V30 8740 H 798.454 -0.793767 3.86126 0
M  V30 8741 H 799.742 -1.47806 4.86858 0
M  V30 8742 H 799.14 -4.38429 3.57486 0
M  V30 8743 H 797.697 -4.79992 4.40966 0
M  V30 8744 N 801.13 -1.57531 -0.0467866 0
M  V30 8745 C 802.08 -2.01845 -1.06031 0
M  V30 8746 C 803.064 -0.904662 -1.33059 0
M  V30 8747 O 804.256 -1.16858 -1.32941 0
M  V30 8748 C 801.385 -2.48673 -2.36679 0
M  V30 8749 C 800.471 -3.66837 -2.12818 0
M  V30 8750 N 800.862 -4.80172 -1.5896 0
M  V30 8751 C 799.16 -3.73869 -2.43183 0
M  V30 8752 C 799.861 -5.61895 -1.50494 0
M  V30 8753 N 798.837 -5.0648 -1.97431 0
M  V30 8754 H 802.639 -2.869 -0.637623 0
M  V30 8755 H 800.153 -1.6041 -0.253427 0
M  V30 8756 H 802.15 -2.78671 -3.10077 0
M  V30 8757 H 800.81 -1.65016 -2.79642 0
M  V30 8758 H 801.821 -5.01967 -1.27474 0
M  V30 8759 H 798.498 -3.00977 -2.89342 0
M  V30 8760 H 799.888 -6.62918 -1.09494 0
M  V30 8761 N 802.608 0.318715 -1.54344 0
M  V30 8762 C 803.538 1.39751 -1.87061 0
M  V30 8763 C 804.519 1.53741 -0.727848 0
M  V30 8764 O 805.704 1.67541 -0.982016 0
M  V30 8765 C 802.834 2.76446 -2.10226 0
M  V30 8766 C 801.788 2.77239 -3.26071 0
M  V30 8767 C 801.114 4.17056 -3.34617 0
M  V30 8768 C 802.414 2.40555 -4.63606 0
M  V30 8769 H 804.108 1.12619 -2.77412 0
M  V30 8770 H 801.654 0.540318 -1.33479 0
M  V30 8771 H 803.607 3.51985 -2.31699 0
M  V30 8772 H 802.331 3.05066 -1.16629 0
M  V30 8773 H 800.99 2.04155 -3.04493 0
M  V30 8774 H 800.638 4.42824 -2.3857 0
M  V30 8775 H 800.338 4.18492 -4.12478 0
M  V30 8776 H 801.862 4.94401 -3.5833 0
M  V30 8777 H 803.276 3.05808 -4.84927 0
M  V30 8778 H 801.673 2.53234 -5.44052 0
M  V30 8779 H 802.743 1.35698 -4.65526 0
M  V30 8780 N 804.086 1.46499 0.581025 0
M  V30 8781 C 805.034 1.57562 1.71105 0
M  V30 8782 C 806.028 0.44403 1.63477 0
M  V30 8783 O 807.234 0.620964 1.6895 0
M  V30 8784 H 803.609 0.495415 0.565746 0
M  V30 8785 H 805.58 2.5257 1.58905 0
M  V30 8786 C 804.329 1.58465 3.0949 0
M  V30 8787 H 803.652 2.44877 3.16031 0
M  V30 8788 H 805.092 1.70261 3.88313 0
M  V30 8789 C 803.551 0.313596 3.35437 0
M  V30 8790 O 804.081 -0.595456 3.97262 0
M  V30 8791 N 802.287 0.200986 2.89904 0
M  V30 8792 H 801.834 0.941643 2.39773 0
M  V30 8793 H 801.792 -0.648577 3.07638 0
M  V30 8794 N 805.565 -0.825799 1.34232 0
M  V30 8795 C 806.495 -1.95151 1.28212 0
M  V30 8796 C 807.476 -1.69345 0.160123 0
M  V30 8797 O 808.661 -1.90983 0.352019 0
M  V30 8798 C 805.791 -3.31554 1.03388 0
M  V30 8799 C 804.745 -3.71793 2.12023 0
M  V30 8800 C 804.071 -5.06147 1.72392 0
M  V30 8801 C 805.371 -3.84193 3.53826 0
M  V30 8802 H 807.065 -2.00445 2.22401 0
M  V30 8803 H 804.611 -0.962996 1.07063 0
M  V30 8804 H 806.564 -4.09889 0.978225 0
M  V30 8805 H 805.288 -3.26551 0.0564142 0
M  V30 8806 H 803.947 -2.95731 2.16654 0
M  V30 8807 H 803.595 -4.97628 0.733137 0
M  V30 8808 H 803.295 -5.34041 2.451 0
M  V30 8809 H 804.819 -5.86943 1.68317 0
M  V30 8810 H 806.233 -4.52806 3.51624 0
M  V30 8811 H 804.63 -4.23538 4.2513 0
M  V30 8812 H 805.7 -2.86272 3.91377 0
M  V30 8813 N 807.043 -1.17915 -1.04565 0
M  V30 8814 C 807.973 -0.925033 -2.14395 0
M  V30 8815 C 808.954 0.135375 -1.6956 0
M  V30 8816 O 810.139 -0.0161774 -1.94193 0
M  V30 8817 C 807.269 -0.444469 -3.44444 0
M  V30 8818 C 806.223 -1.44478 -4.02877 0
M  V30 8819 C 805.549 -0.821933 -5.28345 0
M  V30 8820 C 806.849 -2.81995 -4.39632 0
M  V30 8821 H 808.543 -1.84354 -2.35911 0
M  V30 8822 H 806.089 -0.887806 -1.13375 0
M  V30 8823 H 808.042 -0.254078 -4.20633 0
M  V30 8824 H 806.766 0.509592 -3.226 0
M  V30 8825 H 805.425 -1.62203 -3.28764 0
M  V30 8826 H 805.073 0.139161 -5.02807 0
M  V30 8827 H 804.773 -1.48976 -5.68401 0
M  V30 8828 H 806.297 -0.641959 -6.07216 0
M  V30 8829 H 807.711 -2.67952 -5.06828 0
M  V30 8830 H 806.108 -3.45414 -4.90723 0
M  V30 8831 H 807.178 -3.35927 -3.49687 0
M  V30 8832 N 808.521 1.23394 -0.980386 0
M  V30 8833 C 809.471 2.22634 -0.491747 0
M  V30 8834 C 810.455 1.54958 0.433222 0
M  V30 8835 O 811.647 1.75049 0.262078 0
M  V30 8836 C 808.776 3.4269 0.204531 0
M  V30 8837 C 807.862 4.17594 -0.740007 0
M  V30 8838 N 808.253 4.69458 -1.88263 0
M  V30 8839 C 806.551 4.42554 -0.553335 0
M  V30 8840 C 807.252 5.26446 -2.47446 0
M  V30 8841 N 806.228 5.14377 -1.75834 0
M  V30 8842 H 810.03 2.60363 -1.36339 0
M  V30 8843 H 807.544 1.38924 -0.841059 0
M  V30 8844 H 809.541 4.12959 0.571901 0
M  V30 8845 H 808.201 3.06477 1.07246 0
M  V30 8846 H 809.212 4.65803 -2.26381 0
M  V30 8847 H 805.889 4.16629 0.269573 0
M  V30 8848 H 807.279 5.77195 -3.43941 0
M  V30 8849 N 809.999 0.752036 1.385 0
M  V30 8850 C 811.248 0.304294 1.99391 0
M  V30 8851 C 811.561 -1.11982 1.60373 0
M  V30 8852 O 812.767 -1.66795 2.14223 0
M  V30 8853 C 811.223 0.493101 3.56506 0
M  V30 8854 C 810.831 1.9262 4.04477 0
M  V30 8855 C 812.575 0.107994 4.24363 0
M  V30 8856 C 810.482 2.06365 5.54227 0
M  V30 8857 H 809.412 0.110024 0.745929 0
M  V30 8858 H 812.063 0.928355 1.58284 0
M  V30 8859 H 810.445 -0.20012 3.95494 0
M  V30 8860 H 811.619 2.65276 3.76783 0
M  V30 8861 H 809.934 2.26608 3.49339 0
M  V30 8862 H 812.531 0.189474 5.34364 0
M  V30 8863 H 812.874 -0.939165 4.05568 0
M  V30 8864 H 813.407 0.753011 3.90608 0
M  V30 8865 H 810.146 3.0933 5.77923 0
M  V30 8866 H 809.666 1.38167 5.83669 0
M  V30 8867 H 811.345 1.85286 6.19902 0
M  V30 8868 N 811.477 -1.49425 0.500989 0
M  V30 8869 C 812.407 -2.31971 -0.266775 0
M  V30 8870 C 813.388 -1.40245 -0.962563 0
M  V30 8871 O 814.573 -1.69154 -0.953968 0
M  V30 8872 C 811.703 -3.20757 -1.33163 0
M  V30 8873 C 810.657 -4.21275 -0.75572 0
M  V30 8874 C 809.983 -4.98997 -1.92109 0
M  V30 8875 C 811.283 -5.21686 0.253213 0
M  V30 8876 H 812.977 -2.96408 0.422237 0
M  V30 8877 H 810.523 -1.4254 0.204505 0
M  V30 8878 H 812.476 -3.77315 -1.87646 0
M  V30 8879 H 811.2 -2.54263 -2.04983 0
M  V30 8880 H 809.859 -3.65861 -0.232637 0
M  V30 8881 H 809.507 -4.28951 -2.62698 0
M  V30 8882 H 809.207 -5.67011 -1.54182 0
M  V30 8883 H 810.731 -5.584 -2.47026 0
M  V30 8884 H 812.145 -5.72939 -0.203483 0
M  V30 8885 H 810.542 -5.9759 0.548322 0
M  V30 8886 H 811.612 -4.70596 1.16909 0
M  V30 8887 N 812.955 -0.234822 -1.55841 0
M  V30 8888 C 813.918 0.656378 -2.196 0
M  V30 8889 C 814.918 1.11179 -1.16171 0
M  V30 8890 O 816.108 1.01845 -1.41326 0
M  V30 8891 C 813.24 1.90072 -2.82993 0
M  V30 8892 H 814.433 0.100281 -2.99732 0
M  V30 8893 H 811.986 0.0147613 -1.56293 0
M  V30 8894 H 812.721 2.49836 -2.06767 0
M  V30 8895 H 812.506 1.5825 -3.58747 0
M  V30 8896 H 813.996 2.53538 -3.31826 0
M  V30 8897 N 814.433 1.57553 0.0384317 0
M  V30 8898 C 815.363 2.0898 1.04161 0
M  V30 8899 C 816.344 0.99029 1.38301 0
M  V30 8900 O 817.529 1.26499 1.47349 0
M  V30 8901 C 814.659 2.56145 2.34536 0
M  V30 8902 C 813.613 3.70275 2.14663 0
M  V30 8903 C 812.939 4.03612 3.50715 0
M  V30 8904 C 814.239 4.99067 1.54045 0
M  V30 8905 H 815.933 2.93046 0.613548 0
M  V30 8906 H 813.479 1.40973 0.293684 0
M  V30 8907 H 815.432 2.90741 3.05037 0
M  V30 8908 H 814.156 1.6915 2.79385 0
M  V30 8909 H 812.815 3.36013 1.46597 0
M  V30 8910 H 812.463 3.13698 3.93195 0
M  V30 8911 H 812.163 4.80482 3.38247 0
M  V30 8912 H 813.687 4.40735 4.22593 0
M  V30 8913 H 815.101 5.3168 2.14451 0
M  V30 8914 H 813.498 5.80484 1.52178 0
M  V30 8915 H 814.568 4.8226 0.505259 0
M  V30 8916 N 815.911 -0.310526 1.54511 0
M  V30 8917 C 817.141 -1.06456 1.77061 0
M  V30 8918 C 817.549 -1.81755 0.525528 0
M  V30 8919 O 816.892 -1.76365 -0.513904 0
M  V30 8920 C 816.954 -2.09856 2.91892 0
M  V30 8921 C 816.618 -1.53838 4.30329 0
M  V30 8922 C 817.615 -0.973358 5.10707 0
M  V30 8923 C 815.3 -1.57688 4.76906 0
M  V30 8924 C 817.294 -0.454283 6.35779 0
M  V30 8925 C 814.981 -1.05393 6.01943 0
M  V30 8926 C 815.979 -0.493595 6.81214 0
M  V30 8927 O 815.667 0.0214506 8.03897 0
M  V30 8928 H 815.399 -0.321913 0.594431 0
M  V30 8929 H 817.953 -0.358289 2.02251 0
M  V30 8930 H 816.183 -2.84137 2.62304 0
M  V30 8931 H 817.872 -2.71085 3.02106 0
M  V30 8932 H 818.638 -0.936588 4.75871 0
M  V30 8933 H 814.517 -2.00242 4.1524 0
M  V30 8934 H 818.061 -0.0162657 6.97598 0
M  V30 8935 H 813.958 -1.08782 6.36268 0
M  V30 8936 H 814.726 -0.0927478 8.18447 0
M  V30 8937 N 817.389 -1.46805 -0.573248 0
M  V30 8938 C 818.336 -1.58084 -1.68161 0
M  V30 8939 C 819.306 -0.424636 -1.6058 0
M  V30 8940 O 820.491 -0.642623 -1.79652 0
M  V30 8941 C 817.631 -1.58601 -3.06496 0
M  V30 8942 C 816.744 -2.85023 -3.24632 0
M  V30 8943 C 815.879 -2.76981 -4.53271 0
M  V30 8944 C 814.918 -3.983 -4.64783 0
M  V30 8945 N 814.055 -3.88589 -5.84759 0
M  V30 8946 H 818.895 -2.52755 -1.57858 0
M  V30 8947 H 816.432 -1.25385 -0.769218 0
M  V30 8948 H 818.39 -1.56885 -3.86579 0
M  V30 8949 H 817.02 -0.674553 -3.15673 0
M  V30 8950 H 816.072 -2.96678 -2.38089 0
M  V30 8951 H 817.384 -3.7491 -3.29004 0
M  V30 8952 H 816.538 -2.73424 -5.41594 0
M  V30 8953 H 815.277 -1.84751 -4.51352 0
M  V30 8954 H 814.282 -4.02179 -3.74876 0
M  V30 8955 H 815.507 -4.91639 -4.68474 0
M  V30 8956 H 813.453 -2.99151 -5.83819 0
M  V30 8957 H 813.37 -4.7214 -5.90441 0
M  V30 8958 H 814.638 -3.89022 -6.75486 0
M  V30 8959 N 818.867 0.818669 -1.34668 0
M  V30 8960 C 819.777 1.9616 -1.2868 0
M  V30 8961 C 820.793 1.72918 -0.193742 0
M  V30 8962 O 821.969 1.96951 -0.420975 0
M  V30 8963 C 819.034 3.30534 -1.04633 0
M  V30 8964 C 818.095 3.66755 -2.23136 0
M  V30 8965 C 817.328 4.94717 -2.00227 0
M  V30 8966 O 817.551 5.62218 -0.96264 0
M  V30 8967 O 816.485 5.28915 -2.87286 0
M  V30 8968 H 820.311 2.04157 -2.24842 0
M  V30 8969 H 817.896 0.954691 -1.14917 0
M  V30 8970 H 819.778 4.11005 -0.930216 0
M  V30 8971 H 818.453 3.23495 -0.115139 0
M  V30 8972 H 817.36 2.8671 -2.40308 0
M  V30 8973 H 818.693 3.78484 -3.1466 0
M  V30 8974 N 820.346 1.18468 1.03938 0
M  V30 8975 C 821.595 0.975193 1.76558 0
M  V30 8976 C 821.908 -0.495978 1.89207 0
M  V30 8977 O 823.114 -0.824009 2.58694 0
M  V30 8978 C 821.57 1.69579 3.17444 0
M  V30 8979 C 821.178 3.20636 3.12884 0
M  V30 8980 C 822.922 1.56917 3.94433 0
M  V30 8981 C 820.829 3.8533 4.48636 0
M  V30 8982 H 819.759 0.361244 0.66183 0
M  V30 8983 H 822.41 1.41854 1.16403 0
M  V30 8984 H 820.792 1.18022 3.78004 0
M  V30 8985 H 821.966 3.79228 2.61768 0
M  V30 8986 H 820.281 3.33454 2.49394 0
M  V30 8987 H 822.878 2.02611 4.94826 0
M  V30 8988 H 823.221 0.521638 4.13019 0
M  V30 8989 H 823.754 2.05762 3.40451 0
M  V30 8990 H 820.493 4.90136 4.35255 0
M  V30 8991 H 820.013 3.31526 4.99851 0
M  V30 8992 H 821.692 3.88269 5.17549 0
M  V30 8993 N 821.824 -1.22873 0.986916 0
M  V30 8994 C 823.24 -1.43594 0.696633 0
M  V30 8995 C 823.44 -1.87622 -0.734869 0
M  V30 8996 O 822.496 -2.02633 -1.50652 0
M  V30 8997 C 823.809 -2.48231 1.69711 0
M  V30 8998 C 825.357 -2.62037 1.71188 0
M  V30 8999 C 825.832 -3.6989 2.70084 0
M  V30 9000 N 827.323 -3.77341 2.68641 0
M  V30 9001 C 828.058 -4.6037 3.41829 0
M  V30 9002 N 827.554 -5.47438 4.24598 0
M  V30 9003 N 829.347 -4.54626 3.30563 0
M  V30 9004 H 821.498 -0.925982 1.91153 0
M  V30 9005 H 823.761 -0.46866 0.824052 0
M  V30 9006 H 823.467 -2.22812 2.72117 0
M  V30 9007 H 823.341 -3.46731 1.48516 0
M  V30 9008 H 825.728 -2.86803 0.694837 0
M  V30 9009 H 825.809 -1.63831 1.96451 0
M  V30 9010 H 825.453 -3.45872 3.71934 0
M  V30 9011 H 825.383 -4.67652 2.42093 0
M  V30 9012 H 827.874 -3.15124 2.08578 0
M  V30 9013 H 828.187 -6.078 4.77283 0
M  V30 9014 H 826.532 -5.4704 4.28687 0
M  V30 9015 H 829.723 -3.85627 2.65347 0
M  V30 9016 H 829.896 -5.19103 3.8786 0
M  V30 9017 N 823.302 -0.75937 -1.38099 0
M  V30 9018 C 824.212 -0.13774 -2.34195 0
M  V30 9019 C 825.228 0.693985 -1.59561 0
M  V30 9020 O 826.404 0.616792 -1.91723 0
M  V30 9021 C 823.469 0.740535 -3.38699 0
M  V30 9022 C 822.53 -0.106225 -4.29169 0
M  V30 9023 C 821.763 0.730225 -5.28681 0
M  V30 9024 O 821.986 1.96796 -5.35376 0
M  V30 9025 O 820.92 0.145969 -6.01723 0
M  V30 9026 H 824.746 -0.931512 -2.89061 0
M  V30 9027 H 822.331 -0.520345 -1.40046 0
M  V30 9028 H 824.213 1.24232 -4.02672 0
M  V30 9029 H 822.888 1.51271 -2.8618 0
M  V30 9030 H 821.795 -0.654088 -3.68337 0
M  V30 9031 H 823.128 -0.841186 -4.84959 0
M  V30 9032 N 824.78 1.49157 -0.508906 0
M  V30 9033 C 825.728 2.30922 0.278906 0
M  V30 9034 C 826.722 1.39889 0.955382 0
M  V30 9035 O 827.928 1.56901 0.882169 0
M  V30 9036 H 824.303 0.744087 0.108805 0
M  V30 9037 H 826.274 2.95277 -0.430583 0
M  V30 9038 C 825.023 3.21432 1.32576 0
M  V30 9039 H 824.346 3.91413 0.814634 0
M  V30 9040 H 825.786 3.81568 1.84882 0
M  V30 9041 C 824.245 2.41583 2.34817 0
M  V30 9042 O 824.775 2.1256 3.40854 0
M  V30 9043 N 822.981 2.03462 2.07489 0
M  V30 9044 H 822.528 2.27265 1.21278 0
M  V30 9045 H 822.486 1.50345 2.76123 0
M  V30 9046 N 826.258 0.243083 1.55714 0
M  V30 9047 C 827.669 -0.260788 1.8487 0
M  V30 9048 C 828.02 -1.57879 1.16485 0
M  V30 9049 O 827.145 -2.1184 0.441908 0
M  V30 9050 C 827.74 -0.479954 3.35383 0
M  V30 9051 C 826.299 -0.928096 3.64778 0
M  V30 9052 C 825.446 -0.00316416 2.773 0
M  V30 9053 H 828.397 0.465743 1.51712 0
M  V30 9054 H 828.418 -1.32308 3.56756 0
M  V30 9055 H 827.93 0.479468 3.85127 0
M  V30 9056 H 826.031 -1.90012 3.20509 0
M  V30 9057 H 826.144 -0.7876 4.72582 0
M  V30 9058 H 824.508 -0.513849 2.49463 0
M  V30 9059 H 825.291 0.951562 3.29849 0
M  V30 9060 N 827.736 -1.57571 -0.0300757 0
M  V30 9061 C 828.668 -2.0329 -1.05857 0
M  V30 9062 C 829.681 -0.945543 -1.32527 0
M  V30 9063 O 830.87 -1.22287 -1.30032 0
M  V30 9064 C 827.97 -2.39234 -2.40042 0
M  V30 9065 C 827.143 -3.70337 -2.32743 0
M  V30 9066 C 826.202 -3.93482 -3.49369 0
M  V30 9067 O 825.228 -4.64551 -3.28909 0
M  V30 9068 N 826.43 -3.39042 -4.71201 0
M  V30 9069 H 829.195 -2.9214 -0.668897 0
M  V30 9070 H 826.756 -1.60425 -0.218038 0
M  V30 9071 H 828.748 -2.51856 -3.16782 0
M  V30 9072 H 827.318 -1.5606 -2.70858 0
M  V30 9073 H 826.538 -3.68079 -1.41109 0
M  V30 9074 H 827.826 -4.56343 -2.25007 0
M  V30 9075 H 827.224 -2.81434 -4.90725 0
M  V30 9076 H 825.781 -3.57045 -5.45309 0
M  V30 9077 N 829.214 0.302327 -1.54673 0
M  V30 9078 C 830.177 1.35592 -1.8479 0
M  V30 9079 C 831.177 1.43743 -0.72073 0
M  V30 9080 O 832.367 1.43402 -0.989017 0
M  V30 9081 C 829.499 2.74091 -2.02699 0
M  V30 9082 H 830.692 1.10132 -2.78946 0
M  V30 9083 H 828.245 0.538926 -1.46715 0
M  V30 9084 H 828.98 3.04775 -1.10826 0
M  V30 9085 H 828.765 2.69565 -2.8474 0
M  V30 9086 H 830.255 3.50272 -2.27374 0
M  V30 9087 N 830.692 1.47107 0.565454 0
M  V30 9088 C 831.969 1.43787 1.32607 0
M  V30 9089 C 832.349 0.130428 2.10697 0
M  V30 9090 O 831.697 -0.888086 2.10536 0
M  V30 9091 C 831.907 2.67833 2.23755 0
M  V30 9092 C 833.255 3.14704 2.85037 0
M  V30 9093 O 834.279 2.68503 2.34061 0
M  V30 9094 O 833.138 3.95002 3.77671 0
M  V30 9095 H 830.232 0.572623 0.596684 0
M  V30 9096 H 832.778 1.59296 0.58504 0
M  V30 9097 H 831.55 3.54532 1.65597 0
M  V30 9098 H 831.173 2.54869 3.05168 0
M  V30 9099 N 832.17 -0.811516 1.35101 0
M  V30 9100 C 833.586 -1.10634 1.15031 0
M  V30 9101 C 833.786 -2.01459 -0.0405379 0
M  V30 9102 O 832.842 -2.42235 -0.712635 0
M  V30 9103 C 834.155 -1.74207 2.45097 0
M  V30 9104 C 835.703 -1.8665 2.51258 0
M  V30 9105 C 836.178 -2.53638 3.81355 0
M  V30 9106 N 837.669 -2.61128 3.82579 0
M  V30 9107 C 838.404 -3.13717 4.79968 0
M  V30 9108 N 837.9 -3.66782 5.87744 0
M  V30 9109 N 839.693 -3.12224 4.67411 0
M  V30 9110 H 831.844 -0.207641 2.11383 0
M  V30 9111 H 834.107 -0.154697 0.935293 0
M  V30 9112 H 833.813 -1.14936 3.32389 0
M  V30 9113 H 833.687 -2.73958 2.59281 0
M  V30 9114 H 836.074 -2.45066 1.64398 0
M  V30 9115 H 836.155 -0.857678 2.40993 0
M  V30 9116 H 835.799 -1.95873 4.68611 0
M  V30 9117 H 835.729 -3.55047 3.88907 0
M  V30 9118 H 838.22 -2.23527 3.04703 0
M  V30 9119 H 838.533 -4.05194 6.58056 0
M  V30 9120 H 836.878 -3.64994 5.91443 0
M  V30 9121 H 840.069 -2.70042 3.82354 0
M  V30 9122 H 840.242 -3.52903 5.43474 0
M  V30 9123 N 833.648 -1.19017 -1.03309 0
M  V30 9124 C 834.894 -0.991681 -1.769 0
M  V30 9125 C 835.227 0.476813 -1.88255 0
M  V30 9126 O 834.502 1.35407 -1.39625 0
M  V30 9127 C 834.785 -1.65627 -3.19749 0
M  V30 9128 C 834.638 -3.19813 -3.1629 0
M  V30 9129 C 835.957 -1.37579 -4.18043 0
M  V30 9130 H 833.076 -0.361674 -0.642153 0
M  V30 9131 H 835.718 -1.46795 -1.20628 0
M  V30 9132 H 833.868 -1.25132 -3.67796 0
M  V30 9133 H 835.54 -3.69494 -2.76174 0
M  V30 9134 H 833.783 -3.51578 -2.54117 0
M  V30 9135 H 834.454 -3.61457 -4.17196 0
M  V30 9136 H 836.93 -1.72679 -3.78578 0
M  V30 9137 H 835.806 -1.86636 -5.16196 0
M  V30 9138 H 836.067 -0.300118 -4.4108 0
M  V30 9139 N 835.127 1.22348 -0.993418 0
M  V30 9140 C 836.538 1.72893 -0.704616 0
M  V30 9141 C 836.889 1.80095 0.778483 0
M  V30 9142 O 836.014 1.4476 1.60853 0
M  V30 9143 C 836.609 3.14 -1.27237 0
M  V30 9144 C 835.168 3.61949 -1.03294 0
M  V30 9145 C 834.315 2.39816 -1.39225 0
M  V30 9146 H 837.266 1.07688 -1.16572 0
M  V30 9147 H 837.287 3.74886 -0.651212 0
M  V30 9148 H 836.799 3.08727 -2.3518 0
M  V30 9149 H 834.9 3.72588 0.0298329 0
M  V30 9150 H 835.013 4.48051 -1.69668 0
M  V30 9151 H 833.377 2.41448 -0.810849 0
M  V30 9152 H 834.16 2.37203 -2.48172 0
M  V30 9153 N 836.605 0.766683 1.37694 0
M  V30 9154 C 838.021 0.445739 1.53249 0
M  V30 9155 C 838.221 -1.03935 1.72626 0
M  V30 9156 O 837.277 -1.82525 1.74473 0
M  V30 9157 C 838.59 1.2564 2.73194 0
M  V30 9158 C 840.138 1.24779 2.87053 0
M  V30 9159 C 840.613 2.04169 4.09974 0
M  V30 9160 N 842.104 2.01497 4.17077 0
M  V30 9161 C 842.839 2.5971 5.11212 0
M  V30 9162 N 842.335 3.26691 6.10938 0
M  V30 9163 N 844.128 2.49568 5.03659 0
M  V30 9164 H 836.279 1.72899 1.23368 0
M  V30 9165 H 838.542 0.733701 0.600322 0
M  V30 9166 H 838.248 2.30859 2.65324 0
M  V30 9167 H 838.122 0.882133 3.6674 0
M  V30 9168 H 840.509 0.203603 2.94397 0
M  V30 9169 H 840.59 1.66166 1.9448 0
M  V30 9170 H 840.234 3.08606 4.03392 0
M  V30 9171 H 840.164 1.60167 5.01651 0
M  V30 9172 H 842.655 1.52728 3.45662 0
M  V30 9173 H 842.968 3.68497 6.79286 0
M  V30 9174 H 841.313 3.30789 6.11231 0
M  V30 9175 H 844.504 1.96859 4.24693 0
M  V30 9176 H 844.677 2.95231 5.76839 0
M  V30 9177 N 838.083 -1.48885 0.516809 0
M  V30 9178 C 839.329 -2.02788 -0.0220928 0
M  V30 9179 C 839.662 -1.39433 -1.35175 0
M  V30 9180 O 838.937 -0.535459 -1.86984 0
M  V30 9181 C 839.22 -3.59753 -0.158012 0
M  V30 9182 C 839.073 -4.33611 1.19588 0
M  V30 9183 C 840.392 -4.30984 -0.891133 0
M  V30 9184 H 837.511 -0.736971 -0.00655488 0
M  V30 9185 H 840.153 -1.77746 0.671287 0
M  V30 9186 H 838.303 -3.8122 -0.748568 0
M  V30 9187 H 839.975 -4.23598 1.82653 0
M  V30 9188 H 838.218 -3.95547 1.78116 0
M  V30 9189 H 838.889 -5.41846 1.05391 0
M  V30 9190 H 841.365 -4.14267 -0.39012 0
M  V30 9191 H 840.241 -5.40527 -0.955107 0
M  V30 9192 H 840.502 -3.97336 -1.93847 0
M  V30 9193 N 839.561 -0.251338 -1.55583 0
M  V30 9194 C 840.808 0.372169 -1.99051 0
M  V30 9195 C 841.136 1.57623 -1.13953 0
M  V30 9196 O 840.391 1.94762 -0.191398 0
M  V30 9197 C 840.69 0.821186 -3.47838 0
M  V30 9198 C 840.356 -0.275608 -4.50057 0
M  V30 9199 C 839.018 -0.57683 -4.7773 0
M  V30 9200 C 841.37 -1.01585 -5.11204 0
M  V30 9201 C 838.698 -1.62229 -5.63825 0
M  V30 9202 C 841.05 -2.05087 -5.98433 0
M  V30 9203 C 839.714 -2.35869 -6.24437 0
M  V30 9204 H 838.984 0.136186 -0.728378 0
M  V30 9205 H 841.631 -0.360089 -1.88084 0
M  V30 9206 H 839.936 1.63272 -3.56159 0
M  V30 9207 H 841.633 1.31396 -3.78861 0
M  V30 9208 H 838.223 -0.030697 -4.28589 0
M  V30 9209 H 842.407 -0.79639 -4.89869 0
M  V30 9210 H 837.663 -1.86607 -5.82226 0
M  V30 9211 H 841.837 -2.62934 -6.44855 0
M  V30 9212 H 839.464 -3.17017 -6.90944 0
M  V30 9213 N 841.039 1.57585 0.0217189 0
M  V30 9214 C 841.969 2.10073 1.01939 0
M  V30 9215 C 842.95 1.0049 1.37243 0
M  V30 9216 O 844.135 1.28055 1.45999 0
M  V30 9217 C 841.265 2.58618 2.31806 0
M  V30 9218 C 840.219 3.72531 2.10724 0
M  V30 9219 C 839.545 4.07309 3.46415 0
M  V30 9220 C 840.845 5.00672 1.48743 0
M  V30 9221 H 842.539 2.9368 0.582432 0
M  V30 9222 H 840.085 1.41277 0.278715 0
M  V30 9223 H 842.038 2.9396 3.01936 0
M  V30 9224 H 840.762 1.72104 2.77575 0
M  V30 9225 H 839.421 3.37549 1.43025 0
M  V30 9226 H 839.069 3.17851 3.89846 0
M  V30 9227 H 838.769 4.84042 3.33132 0
M  V30 9228 H 840.293 4.45192 4.17895 0
M  V30 9229 H 841.707 5.33925 2.088 0
M  V30 9230 H 840.104 5.82065 1.46013 0
M  V30 9231 H 841.174 4.82769 0.45408 0
M  V30 9232 N 842.517 -0.29412 1.54831 0
M  V30 9233 C 843.764 -1.02846 1.74439 0
M  V30 9234 C 844.092 -1.87029 0.533905 0
M  V30 9235 O 843.347 -1.8962 -0.484035 0
M  V30 9236 C 843.646 -1.95782 2.99006 0
M  V30 9237 C 843.312 -1.2752 4.32492 0
M  V30 9238 C 841.974 -1.08637 4.68777 0
M  V30 9239 C 844.326 -0.787761 5.15212 0
M  V30 9240 C 841.654 -0.39704 5.85355 0
M  V30 9241 C 844.006 -0.112123 6.32501 0
M  V30 9242 C 842.67 0.0886071 6.67441 0
M  V30 9243 H 841.94 -0.376341 0.638317 0
M  V30 9244 H 844.587 -0.302684 1.89093 0
M  V30 9245 H 842.892 -2.74911 2.79162 0
M  V30 9246 H 844.589 -2.52684 3.11371 0
M  V30 9247 H 841.179 -1.43226 4.03961 0
M  V30 9248 H 845.363 -0.921341 4.87673 0
M  V30 9249 H 840.619 -0.230597 6.10965 0
M  V30 9250 H 844.793 0.27344 6.95863 0
M  V30 9251 H 842.42 0.624748 7.57628 0
M  V30 9252 N 843.995 -1.47404 -0.557645 0
M  V30 9253 C 845.243 -1.53703 -1.31224 0
M  V30 9254 C 845.564 -0.200742 -1.93964 0
M  V30 9255 O 844.834 0.775253 -1.79907 0
M  V30 9256 H 843.414 -0.566171 -0.487299 0
M  V30 9257 H 846.076 -1.83699 -0.651195 0
M  V30 9258 H 845.172 -2.30335 -2.10599 0
M  V30 9259 N 845.473 0.80434 -1.35529 0
M  V30 9260 C 846.436 1.89788 -1.28503 0
M  V30 9261 C 847.436 1.59601 -0.195983 0
M  V30 9262 O 848.626 1.68292 -0.449827 0
M  V30 9263 C 845.758 3.26255 -0.98847 0
M  V30 9264 H 846.951 1.97436 -2.25741 0
M  V30 9265 H 844.504 1.00046 -1.20086 0
M  V30 9266 H 845.239 3.24294 -0.0200541 0
M  V30 9267 H 845.024 3.49551 -1.77641 0
M  V30 9268 H 846.514 4.06298 -0.964975 0
M  V30 9269 N 846.951 1.19563 1.02676 0
M  V30 9270 C 847.898 0.935291 2.11 0
M  V30 9271 C 848.868 -0.130685 1.65585 0
M  V30 9272 O 850.053 0.0119062 1.90796 0
M  V30 9273 C 847.193 0.482384 3.41712 0
M  V30 9274 C 846.306 1.61537 4.00662 0
M  V30 9275 C 845.441 1.11378 5.19392 0
M  V30 9276 C 844.48 2.22052 5.70403 0
M  V30 9277 N 843.617 1.73185 6.80405 0
M  V30 9278 H 848.457 1.86275 2.32606 0
M  V30 9279 H 845.994 0.928656 1.14081 0
M  V30 9280 H 847.952 0.20118 4.16715 0
M  V30 9281 H 846.582 -0.408086 3.2021 0
M  V30 9282 H 845.634 2.01173 3.22852 0
M  V30 9283 H 846.946 2.44912 4.34534 0
M  V30 9284 H 846.1 0.787935 6.01562 0
M  V30 9285 H 844.839 0.249789 4.8706 0
M  V30 9286 H 843.844 2.55465 4.86845 0
M  V30 9287 H 845.069 3.08911 6.04774 0
M  V30 9288 H 843.015 0.890973 6.49921 0
M  V30 9289 H 842.932 2.50148 7.13416 0
M  V30 9290 H 844.2 1.4357 7.66164 0
M  V30 9291 N 848.429 -1.21819 0.999893 0
M  V30 9292 C 849.392 -2.22227 0.561044 0
M  V30 9293 C 850.392 -1.56722 -0.359858 0
M  V30 9294 O 851.582 -1.73546 -0.150848 0
M  V30 9295 C 848.714 -3.40409 -0.182987 0
M  V30 9296 H 849.907 -2.62567 1.44909 0
M  V30 9297 H 847.46 -1.34991 0.78785 0
M  V30 9298 H 848.195 -3.05551 -1.08671 0
M  V30 9299 H 847.98 -3.89171 0.47833 0
M  V30 9300 H 849.47 -4.14856 -0.477952 0
M  V30 9301 N 849.908 -0.773975 -1.37286 0
M  V30 9302 C 850.871 -0.167974 -2.28584 0
M  V30 9303 C 851.871 0.625662 -1.48129 0
M  V30 9304 O 853.061 0.448924 -1.68316 0
M  V30 9305 C 850.193 0.769364 -3.32105 0
M  V30 9306 H 851.386 -0.972806 -2.83684 0
M  V30 9307 H 848.939 -0.542335 -1.46589 0
M  V30 9308 H 849.674 1.59912 -2.82132 0
M  V30 9309 H 849.459 0.202419 -3.91577 0
M  V30 9310 H 850.949 1.18872 -4.00324 0
M  V30 9311 N 851.386 1.48609 -0.524698 0
M  V30 9312 C 852.797 1.86516 -0.0828846 0
M  V30 9313 C 853.148 1.43478 1.33822 0
M  V30 9314 O 852.273 0.823139 2.00133 0
M  V30 9315 C 852.868 3.38495 -0.143639 0
M  V30 9316 C 851.427 3.75615 0.242951 0
M  V30 9317 C 850.574 2.72649 -0.505747 0
M  V30 9318 H 853.525 1.40589 -0.736233 0
M  V30 9319 H 853.546 3.74977 0.645955 0
M  V30 9320 H 853.058 3.69789 -1.17805 0
M  V30 9321 H 851.159 3.49935 1.27971 0
M  V30 9322 H 851.272 4.7901 -0.0929834 0
M  V30 9323 H 849.636 2.54656 0.0473482 0
M  V30 9324 H 850.419 3.06786 -1.54069 0
M  V30 9325 N 852.864 0.259585 1.55447 0
M  V30 9326 C 854.112 -0.360893 1.98852 0
M  V30 9327 C 854.433 -1.57535 1.14924 0
M  V30 9328 O 853.703 -1.94485 0.235025 0
M  V30 9329 H 852.283 -0.136332 0.734454 0
M  V30 9330 H 854.945 0.361319 1.91522 0
M  V30 9331 H 854.041 -0.661388 3.05012 0
M  V30 9332 N 854.342 -1.57594 -0.0133615 0
M  V30 9333 C 855.572 -1.93969 -0.711295 0
M  V30 9334 C 855.98 -0.859084 -1.68572 0
M  V30 9335 O 855.323 0.171842 -1.82894 0
M  V30 9336 C 855.385 -3.2625 -1.51001 0
M  V30 9337 C 855.049 -4.51628 -0.698645 0
M  V30 9338 C 856.046 -5.19899 0.00791185 0
M  V30 9339 C 853.731 -4.98095 -0.648553 0
M  V30 9340 C 855.725 -6.32928 0.753691 0
M  V30 9341 C 853.412 -6.11017 0.10096 0
M  V30 9342 C 854.41 -6.78289 0.800828 0
M  V30 9343 O 854.098 -7.89048 1.53814 0
M  V30 9344 H 853.83 -0.6445 -0.203951 0
M  V30 9345 H 856.384 -2.05378 0.0298267 0
M  V30 9346 H 854.614 -3.11211 -2.29531 0
M  V30 9347 H 856.303 -3.47835 -2.09202 0
M  V30 9348 H 857.069 -4.84995 -0.0217192 0
M  V30 9349 H 852.948 -4.45568 -1.18282 0
M  V30 9350 H 856.492 -6.85371 1.3005 0
M  V30 9351 H 852.389 -6.45364 0.132459 0
M  V30 9352 H 853.157 -8.05492 1.45345 0
M  V30 9353 N 855.82 0.285905 -1.54985 0
M  V30 9354 C 857.05 1.03626 -1.78732 0
M  V30 9355 C 857.458 1.80896 -0.554377 0
M  V30 9356 O 856.801 1.77161 0.48578 0
M  V30 9357 C 856.863 2.05185 -2.95193 0
M  V30 9358 C 856.527 1.46973 -4.32722 0
M  V30 9359 C 857.524 0.891986 -5.12191 0
M  V30 9360 C 855.209 1.50081 -4.79355 0
M  V30 9361 C 857.203 0.353078 -6.36421 0
M  V30 9362 C 854.89 0.958037 -6.03544 0
M  V30 9363 C 855.888 0.385157 -6.81913 0
M  V30 9364 O 855.576 -0.149341 -8.03761 0
M  V30 9365 H 855.308 0.312416 -0.599477 0
M  V30 9366 H 857.862 0.326067 -2.02795 0
M  V30 9367 H 856.092 2.79928 -2.66791 0
M  V30 9368 H 857.781 2.66244 -3.0638 0
M  V30 9369 H 858.547 0.860762 -4.77301 0
M  V30 9370 H 854.426 1.9361 -4.18373 0
M  V30 9371 H 857.97 -0.0947181 -6.97536 0
M  V30 9372 H 853.867 0.986458 -6.37918 0
M  V30 9373 H 854.635 -0.0374719 -8.18491 0
M  V30 9374 N 857.298 1.47698 0.54982 0
M  V30 9375 C 858.228 1.63622 1.66583 0
M  V30 9376 C 859.209 0.485477 1.63025 0
M  V30 9377 O 860.394 0.715692 1.80531 0
M  V30 9378 C 857.524 1.65721 3.05211 0
M  V30 9379 C 856.478 2.80097 3.2362 0
M  V30 9380 C 855.804 2.67272 4.63109 0
M  V30 9381 C 857.104 4.21612 3.08286 0
M  V30 9382 H 858.798 2.57049 1.53512 0
M  V30 9383 H 856.344 1.23705 0.737099 0
M  V30 9384 H 858.297 1.75451 3.83138 0
M  V30 9385 H 857.021 0.688593 3.19258 0
M  V30 9386 H 855.68 2.69889 2.48104 0
M  V30 9387 H 855.328 1.68422 4.73965 0
M  V30 9388 H 855.028 3.44008 4.76374 0
M  V30 9389 H 856.552 2.78942 5.43161 0
M  V30 9390 H 857.966 4.32758 3.76024 0
M  V30 9391 H 856.363 4.99193 3.33057 0
M  V30 9392 H 857.433 4.39462 2.04942 0
M  V30 9393 N 858.776 -0.797141 1.35954 0
M  V30 9394 C 859.739 -1.89104 1.29508 0
M  V30 9395 C 860.739 -1.59495 0.204444 0
M  V30 9396 O 861.929 -1.68051 0.458746 0
M  V30 9397 C 859.061 -3.25726 1.00576 0
M  V30 9398 H 860.254 -1.96237 2.26785 0
M  V30 9399 H 857.807 -0.994075 1.20614 0
M  V30 9400 H 858.542 -3.24279 0.0372519 0
M  V30 9401 H 858.327 -3.48604 1.79492 0
M  V30 9402 H 859.817 -4.0578 0.986508 0
M  V30 9403 N 860.254 -1.20106 -1.0204 0
M  V30 9404 C 861.201 -0.946468 -2.10501 0
M  V30 9405 C 862.171 0.121902 -1.65652 0
M  V30 9406 O 863.356 -0.0220244 -1.90787 0
M  V30 9407 C 860.496 -0.500499 -3.41451 0
M  V30 9408 C 859.609 -1.63659 -3.998 0
M  V30 9409 C 858.744 -1.14131 -5.18794 0
M  V30 9410 C 857.783 -2.25074 -5.69217 0
M  V30 9411 N 856.92 -1.76791 -6.79477 0
M  V30 9412 H 861.76 -1.87506 -2.31615 0
M  V30 9413 H 859.297 -0.934693 -1.13587 0
M  V30 9414 H 861.255 -0.223276 -4.16602 0
M  V30 9415 H 859.885 0.391099 -3.20422 0
M  V30 9416 H 858.937 -2.02882 -3.21781 0
M  V30 9417 H 860.249 -2.47213 -4.33229 0
M  V30 9418 H 859.403 -0.819826 -6.01135 0
M  V30 9419 H 858.142 -0.275615 -4.86921 0
M  V30 9420 H 857.147 -2.58043 -4.85483 0
M  V30 9421 H 858.372 -3.12114 -6.03127 0
M  V30 9422 H 856.318 -0.925428 -6.4944 0
M  V30 9423 H 856.235 -2.53928 -7.12079 0
M  V30 9424 H 857.503 -1.47631 -7.65392 0
M  V30 9425 N 861.732 1.21287 -1.00634 0
M  V30 9426 C 862.68 2.25733 -0.561026 0
M  V30 9427 C 863.674 1.64728 0.395095 0
M  V30 9428 O 864.88 1.78022 0.266141 0
M  V30 9429 H 861.255 0.734104 -0.163081 0
M  V30 9430 H 863.226 2.60631 -1.45307 0
M  V30 9431 C 861.975 3.47569 0.0952587 0
M  V30 9432 H 861.298 3.94782 -0.631427 0
M  V30 9433 H 862.738 4.22382 0.370105 0
M  V30 9434 C 861.197 3.09326 1.33488 0
M  V30 9435 O 861.727 3.19933 2.42912 0
M  V30 9436 N 859.933 2.63976 1.21512 0
M  V30 9437 H 859.48 2.55545 0.324741 0
M  V30 9438 H 859.438 2.38757 2.04555 0
M  V30 9439 N 863.21 0.781244 1.36873 0
M  V30 9440 C 864.459 0.34652 1.98701 0
M  V30 9441 C 864.772 -1.08555 1.62712 0
M  V30 9442 O 865.978 -1.62213 2.17713 0
M  V30 9443 C 864.434 0.568611 3.5538 0
M  V30 9444 C 864.042 2.01156 4.003 0
M  V30 9445 C 865.786 0.197983 4.24038 0
M  V30 9446 C 863.693 2.18074 5.49725 0
M  V30 9447 H 862.623 0.125821 0.743428 0
M  V30 9448 H 865.274 0.961721 1.56279 0
M  V30 9449 H 863.656 -0.116185 3.9583 0
M  V30 9450 H 864.83 2.73209 3.71071 0
M  V30 9451 H 863.145 2.33967 3.44454 0
M  V30 9452 H 865.742 0.302778 5.33842 0
M  V30 9453 H 866.085 -0.852927 4.07469 0
M  V30 9454 H 866.618 0.835696 3.88923 0
M  V30 9455 H 863.357 3.21519 5.71232 0
M  V30 9456 H 862.877 1.50517 5.80607 0
M  V30 9457 H 864.556 1.98393 6.15832 0
M  V30 9458 N 864.689 -1.48329 0.532571 0
M  V30 9459 C 865.938 -2.017 -0.00259705 0
M  V30 9460 C 866.251 -1.41469 -1.35077 0
M  V30 9461 O 867.457 -1.86354 -1.97445 0
M  V30 9462 C 865.913 -3.59858 -0.0550179 0
M  V30 9463 C 865.521 -4.29073 1.28842 0
M  V30 9464 C 867.265 -4.21066 -0.538878 0
M  V30 9465 C 865.172 -5.79171 1.19644 0
M  V30 9466 H 864.102 -0.753985 -0.00474081 0
M  V30 9467 H 866.753 -1.70565 0.676739 0
M  V30 9468 H 865.135 -3.87846 -0.799486 0
M  V30 9469 H 866.309 -4.12755 2.04865 0
M  V30 9470 H 864.624 -3.79748 1.70822 0
M  V30 9471 H 867.221 -5.31026 -0.6257 0
M  V30 9472 H 867.564 -3.86559 -1.54525 0
M  V30 9473 H 868.097 -3.97517 0.149984 0
M  V30 9474 H 864.836 -6.18257 2.17805 0
M  V30 9475 H 864.356 -5.97895 0.477609 0
M  V30 9476 H 866.035 -6.40875 0.888186 0
M  V30 9477 N 866.167 -0.267825 -1.55308 0
M  V30 9478 C 867.414 0.351036 -1.99434 0
M  V30 9479 C 867.742 1.56406 -1.15618 0
M  V30 9480 O 866.997 1.94548 -0.212045 0
M  V30 9481 C 867.296 0.784247 -3.48689 0
M  V30 9482 C 866.962 -0.323328 -4.49739 0
M  V30 9483 C 865.624 -0.627467 -4.77091 0
M  V30 9484 C 867.976 -1.07002 -5.10098 0
M  V30 9485 C 865.304 -1.682 -5.62073 0
M  V30 9486 C 867.656 -2.11422 -5.96224 0
M  V30 9487 C 866.32 -2.42479 -6.21901 0
M  V30 9488 H 865.59 0.128453 -0.729781 0
M  V30 9489 H 868.237 -0.380018 -1.87692 0
M  V30 9490 H 866.542 1.59485 -3.57871 0
M  V30 9491 H 868.239 1.2737 -3.80234 0
M  V30 9492 H 864.829 -0.0761528 -4.28532 0
M  V30 9493 H 869.013 -0.848302 -4.88996 0
M  V30 9494 H 864.269 -1.92772 -5.80215 0
M  V30 9495 H 868.443 -2.69759 -6.4203 0
M  V30 9496 H 866.07 -3.24328 -6.87543 0
M  V30 9497 N 867.645 1.57599 0.00500368 0
M  V30 9498 C 868.608 2.07058 0.982832 0
M  V30 9499 C 869.608 0.979045 1.27559 0
M  V30 9500 O 870.798 1.24187 1.22161 0
M  V30 9501 C 867.93 2.50782 2.30914 0
M  V30 9502 H 869.123 2.94718 0.555119 0
M  V30 9503 H 866.676 1.54249 0.25237 0
M  V30 9504 H 867.411 1.66351 2.78385 0
M  V30 9505 H 867.196 3.30495 2.10987 0
M  V30 9506 H 868.686 2.89391 3.0107 0
M  V30 9507 N 869.123 -0.277682 1.55134 0
M  V30 9508 C 870.372 -1.00766 1.74726 0
M  V30 9509 C 870.685 -1.87617 0.553092 0
M  V30 9510 O 871.891 -2.64058 0.631318 0
M  V30 9511 C 870.347 -1.84147 3.09221 0
M  V30 9512 C 869.955 -1.02186 4.3619 0
M  V30 9513 C 871.699 -2.56604 3.38164 0
M  V30 9514 C 869.606 -1.84978 5.61727 0
M  V30 9515 H 868.536 -0.379948 0.651273 0
M  V30 9516 H 871.187 -0.263543 1.81598 0
M  V30 9517 H 869.569 -2.62637 2.96375 0
M  V30 9518 H 870.743 -0.281459 4.5994 0
M  V30 9519 H 869.058 -0.412054 4.14356 0
M  V30 9520 H 871.655 -3.18942 4.29162 0
M  V30 9521 H 871.998 -3.26647 2.58085 0
M  V30 9522 H 872.531 -1.85147 3.52087 0
M  V30 9523 H 869.27 -1.19365 6.4454 0
M  V30 9524 H 868.79 -2.56628 5.42128 0
M  V30 9525 H 870.469 -2.42458 5.99853 0
M  V30 9526 N 870.601 -1.47988 -0.541979 0
M  V30 9527 C 871.549 -1.62044 -1.66867 0
M  V30 9528 C 872.543 -0.487217 -1.62242 0
M  V30 9529 O 873.749 -0.66554 -1.67244 0
M  V30 9530 H 870.124 -0.51024 -0.552412 0
M  V30 9531 H 872.095 -2.56695 -1.52153 0
M  V30 9532 C 870.844 -1.66615 -3.0518 0
M  V30 9533 H 870.167 -2.5317 -3.09427 0
M  V30 9534 H 871.607 -1.80496 -3.83663 0
M  V30 9535 C 870.066 -0.402421 -3.34488 0
M  V30 9536 O 870.596 0.48992 -3.98701 0
M  V30 9537 N 868.802 -0.277778 -2.89269 0
M  V30 9538 H 868.349 -1.00488 -2.37192 0
M  V30 9539 H 868.307 0.566784 -3.09249 0
M  V30 9540 N 872.079 0.78992 -1.36375 0
M  V30 9541 C 873.026 1.90254 -1.3066 0
M  V30 9542 C 873.996 1.65171 -0.17539 0
M  V30 9543 O 875.181 1.87338 -0.361824 0
M  V30 9544 C 872.321 3.27057 -1.10125 0
M  V30 9545 C 871.434 3.64215 -2.32317 0
M  V30 9546 C 870.569 4.90134 -2.04798 0
M  V30 9547 C 869.608 5.19969 -3.22953 0
M  V30 9548 N 868.745 6.37071 -2.95102 0
M  V30 9549 H 873.585 1.94474 -2.25796 0
M  V30 9550 H 871.122 0.951022 -1.12223 0
M  V30 9551 H 873.08 4.05947 -0.962453 0
M  V30 9552 H 871.71 3.22261 -0.186444 0
M  V30 9553 H 870.762 2.80454 -2.57002 0
M  V30 9554 H 872.074 3.82212 -3.20492 0
M  V30 9555 H 871.228 5.76888 -1.87845 0
M  V30 9556 H 869.967 4.74205 -1.13932 0
M  V30 9557 H 868.972 4.31699 -3.40465 0
M  V30 9558 H 870.197 5.37817 -4.14644 0
M  V30 9559 H 868.143 6.22535 -2.06848 0
M  V30 9560 H 868.06 6.55398 -3.76815 0
M  V30 9561 H 869.328 7.26808 -2.81727 0
M  V30 9562 N 873.557 1.20646 1.01402 0
M  V30 9563 C 874.803 1.0197 1.753 0
M  V30 9564 C 875.136 -0.446803 1.8899 0
M  V30 9565 O 874.411 -1.33169 1.41762 0
M  V30 9566 C 874.694 1.70693 3.17074 0
M  V30 9567 C 874.547 3.24805 3.11162 0
M  V30 9568 C 875.866 1.44212 4.15802 0
M  V30 9569 H 872.985 0.371844 0.636318 0
M  V30 9570 H 875.627 1.48696 1.18277 0
M  V30 9571 H 873.777 1.30968 3.65759 0
M  V30 9572 H 875.449 3.73841 2.70261 0
M  V30 9573 H 873.692 3.55576 2.48492 0
M  V30 9574 H 874.363 3.68049 4.11393 0
M  V30 9575 H 876.839 1.7868 3.75783 0
M  V30 9576 H 875.715 1.94825 5.13161 0
M  V30 9577 H 875.976 0.370252 4.40547 0
M  V30 9578 N 875.035 -1.20752 1.01276 0
M  V30 9579 C 875.998 -2.2162 0.584583 0
M  V30 9580 C 876.998 -1.57094 -0.343215 0
M  V30 9581 O 878.188 -1.73696 -0.132433 0
M  V30 9582 C 875.32 -3.40583 -0.146872 0
M  V30 9583 H 876.513 -2.61015 1.47686 0
M  V30 9584 H 874.066 -1.34148 0.802123 0
M  V30 9585 H 874.801 -3.06686 -1.05424 0
M  V30 9586 H 874.586 -3.88642 0.51958 0
M  V30 9587 H 876.076 -4.15339 -0.433924 0
M  V30 9588 N 876.513 -0.788492 -1.36457 0
M  V30 9589 C 877.79 -0.284484 -1.9352 0
M  V30 9590 C 878.17 1.2232 -1.7205 0
M  V30 9591 O 877.518 2.01424 -1.07892 0
M  V30 9592 C 877.728 -0.676106 -3.42388 0
M  V30 9593 C 879.076 -0.655327 -4.19512 0
M  V30 9594 O 880.1 -0.616523 -3.50824 0
M  V30 9595 O 878.959 -0.697391 -5.42032 0
M  V30 9596 H 876.053 -0.0701769 -0.824017 0
M  V30 9597 H 878.599 -0.870974 -1.45644 0
M  V30 9598 H 877.371 -1.71596 -3.51668 0
M  V30 9599 H 876.994 -0.0634517 -3.97549 0
M  V30 9600 N 877.991 1.48044 -0.54043 0
M  V30 9601 C 879.237 2.02797 -0.0101718 0
M  V30 9602 C 879.57 1.41565 1.32939 0
M  V30 9603 O 878.845 0.565139 1.86109 0
M  V30 9604 C 879.128 3.59959 0.100758 0
M  V30 9605 C 878.981 4.31654 -1.26471 0
M  V30 9606 C 880.3 4.32347 0.822455 0
M  V30 9607 H 877.419 0.736982 -0.00517052 0
M  V30 9608 H 880.061 1.76656 -0.69948 0
M  V30 9609 H 878.211 3.82363 0.687824 0
M  V30 9610 H 879.883 4.20639 -1.89369 0
M  V30 9611 H 878.126 3.92663 -1.84386 0
M  V30 9612 H 878.797 5.401 -1.13998 0
M  V30 9613 H 881.273 4.14835 0.324164 0
M  V30 9614 H 880.149 5.41978 0.868993 0
M  V30 9615 H 880.41 4.00369 1.87501 0
M  V30 9616 N 879.47 0.276058 1.55163 0
M  V30 9617 C 880.719 -0.341098 1.98795 0
M  V30 9618 C 881.032 -1.56905 1.16791 0
M  V30 9619 O 882.238 -2.25922 1.50571 0
M  V30 9620 C 880.694 -0.658231 3.5383 0
M  V30 9621 C 880.302 0.549972 4.44611 0
M  V30 9622 C 882.046 -1.23796 4.06048 0
M  V30 9623 C 879.953 0.207373 5.91036 0
M  V30 9624 H 878.883 -0.131224 0.742493 0
M  V30 9625 H 881.534 0.380858 1.79504 0
M  V30 9626 H 879.916 -1.43911 3.68925 0
M  V30 9627 H 881.09 1.32681 4.41285 0
M  V30 9628 H 879.405 1.04661 4.03032 0
M  V30 9629 H 882.002 -1.50811 5.12991 0
M  V30 9630 H 882.345 -2.17214 3.55139 0
M  V30 9631 H 882.878 -0.519345 3.94395 0
M  V30 9632 H 879.617 1.10946 6.46043 0
M  V30 9633 H 879.137 -0.532687 5.9743 0
M  V30 9634 H 880.816 -0.200072 6.46691 0
M  V30 9635 N 880.948 -1.576 0.00335426 0
M  V30 9636 C 881.896 -2.09759 -1.00517 0
M  V30 9637 C 882.89 -1.01833 -1.35375 0
M  V30 9638 O 884.096 -1.20294 -1.339 0
M  V30 9639 H 880.471 -0.669821 -0.341825 0
M  V30 9640 H 882.442 -2.93478 -0.539718 0
M  V30 9641 C 881.191 -2.6189 -2.28711 0
M  V30 9642 H 880.514 -3.44571 -2.02758 0
M  V30 9643 H 881.954 -3.02061 -2.97548 0
M  V30 9644 C 880.413 -1.53455 -2.99922 0
M  V30 9645 O 880.943 -0.919402 -3.91037 0
M  V30 9646 N 879.149 -1.2612 -2.61806 0
M  V30 9647 H 878.696 -1.76329 -1.87792 0
M  V30 9648 H 878.654 -0.537872 -3.09765 0
M  V30 9649 N 882.426 0.269451 -1.5528 0
M  V30 9650 C 883.374 1.35303 -1.89198 0
M  V30 9651 C 884.368 1.50956 -0.768671 0
M  V30 9652 O 885.574 1.52699 -0.953054 0
M  V30 9653 H 881.949 0.452591 -0.600554 0
M  V30 9654 H 883.92 1.03949 -2.79709 0
M  V30 9655 C 882.669 2.70585 -2.18356 0
M  V30 9656 H 881.992 2.59332 -3.04281 0
M  V30 9657 H 883.432 3.45335 -2.46007 0
M  V30 9658 C 881.891 3.21954 -0.992327 0
M  V30 9659 O 882.421 4.01048 -0.228769 0
M  V30 9660 N 880.627 2.79682 -0.789062 0
M  V30 9661 H 880.174 2.15475 -1.41167 0
M  V30 9662 H 880.132 3.14399 0.00634776 0
M  V30 9663 N 883.904 1.48273 0.534124 0
M  V30 9664 C 885.181 1.46567 1.29528 0
M  V30 9665 C 885.561 0.17509 2.10373 0
M  V30 9666 O 884.909 -0.843228 2.12372 0
M  V30 9667 C 885.119 2.72519 2.18023 0
M  V30 9668 C 886.467 3.2068 2.78298 0
M  V30 9669 O 887.491 2.73408 2.28313 0
M  V30 9670 O 886.35 4.02924 3.69208 0
M  V30 9671 H 883.444 0.585151 0.584403 0
M  V30 9672 H 885.99 1.60502 0.551119 0
M  V30 9673 H 884.762 3.57965 1.5804 0
M  V30 9674 H 884.385 2.61285 2.99693 0
M  V30 9675 N 885.382 -0.782676 1.36792 0
M  V30 9676 C 886.793 -1.35828 1.28092 0
M  V30 9677 C 887.144 -1.96052 -0.076315 0
M  V30 9678 O 886.269 -1.93042 -0.977935 0
M  V30 9679 C 886.864 -2.46949 2.31952 0
M  V30 9680 C 885.423 -3.00307 2.2692 0
M  V30 9681 C 884.57 -1.73436 2.16368 0
M  V30 9682 H 887.521 -0.583788 1.47572 0
M  V30 9683 H 887.542 -3.26144 1.95986 0
M  V30 9684 H 887.054 -2.03087 3.30722 0
M  V30 9685 H 885.155 -3.48571 1.31639 0
M  V30 9686 H 885.268 -3.56663 3.19887 0
M  V30 9687 H 883.632 -1.95934 1.62733 0
M  V30 9688 H 884.415 -1.31693 3.17036 0
M  V30 9689 N 886.86 -1.21182 -1.00761 0
M  V30 9690 C 887.79 -0.992773 -2.11344 0
M  V30 9691 C 888.771 0.0813618 -1.69905 0
M  V30 9692 O 889.956 -0.0779503 -1.94043 0
M  V30 9693 C 887.086 -0.553826 -3.42856 0
M  V30 9694 C 886.04 -1.57223 -3.98077 0
M  V30 9695 C 885.366 -0.989605 -5.25463 0
M  V30 9696 C 886.666 -2.95839 -4.30438 0
M  V30 9697 H 888.36 -1.91766 -2.29927 0
M  V30 9698 H 885.906 -0.923426 -1.10494 0
M  V30 9699 H 887.859 -0.387771 -4.19612 0
M  V30 9700 H 886.583 0.406702 -3.24058 0
M  V30 9701 H 885.242 -1.7258 -3.23437 0
M  V30 9702 H 884.89 -0.0208743 -5.02996 0
M  V30 9703 H 884.59 -1.66984 -5.63374 0
M  V30 9704 H 886.114 -0.834815 -6.04866 0
M  V30 9705 H 887.528 -2.8394 -4.98047 0
M  V30 9706 H 885.925 -3.60851 -4.79486 0
M  V30 9707 H 886.995 -3.46882 -3.38823 0
M  V30 9708 N 888.338 1.20213 -1.01915 0
M  V30 9709 C 889.584 1.89928 -0.711007 0
M  V30 9710 C 889.917 1.7881 0.75767 0
M  V30 9711 O 889.192 1.17399 1.55073 0
M  V30 9712 C 889.475 3.41225 -1.15053 0
M  V30 9713 C 889.328 3.61264 -2.67971 0
M  V30 9714 C 890.647 4.34108 -0.72377 0
M  V30 9715 H 887.766 0.689702 -0.259768 0
M  V30 9716 H 890.408 1.41557 -1.26734 0
M  V30 9717 H 888.558 3.82552 -0.677199 0
M  V30 9718 H 890.23 3.29173 -3.23176 0
M  V30 9719 H 888.473 3.04647 -3.08824 0
M  V30 9720 H 889.144 4.67331 -2.93779 0
M  V30 9721 H 891.62 4.00442 -1.13073 0
M  V30 9722 H 890.496 5.38581 -1.05931 0
M  V30 9723 H 890.757 4.40512 0.374424 0
M  V30 9724 N 889.816 0.795718 1.36037 0
M  V30 9725 C 891.064 0.370291 1.98679 0
M  V30 9726 C 891.385 -1.06332 1.63458 0
M  V30 9727 O 890.655 -1.73394 0.911671 0
M  V30 9728 H 889.235 0.133928 0.734896 0
M  V30 9729 H 891.897 1.01915 1.6613 0
M  V30 9730 H 890.993 0.467207 3.08583 0
M  V30 9731 N 891.294 -1.47756 0.548274 0
M  V30 9732 C 892.571 -1.9555 -0.0443603 0
M  V30 9733 C 892.951 -1.49079 -1.49462 0
M  V30 9734 O 892.299 -0.725538 -2.16675 0
M  V30 9735 C 892.509 -3.48879 0.0918425 0
M  V30 9736 C 893.857 -4.2456 -0.0580879 0
M  V30 9737 O 894.881 -3.56195 0.018946 0
M  V30 9738 O 893.74 -5.46048 -0.222261 0
M  V30 9739 H 890.834 -0.824106 -0.0691235 0
M  V30 9740 H 893.38 -1.58196 0.614166 0
M  V30 9741 H 892.152 -3.7548 1.10137 0
M  V30 9742 H 891.775 -3.92975 -0.604704 0
M  V30 9743 N 892.772 -0.284283 -1.55015 0
M  V30 9744 C 893.719 0.599194 -2.22886 0
M  V30 9745 C 894.689 1.14264 -1.20553 0
M  V30 9746 O 895.874 1.19025 -1.49123 0
M  V30 9747 C 893.014 1.77317 -2.96062 0
M  V30 9748 C 892.127 1.26271 -4.13134 0
M  V30 9749 C 891.262 2.39922 -4.73931 0
M  V30 9750 C 890.301 1.85925 -5.8318 0
M  V30 9751 N 889.438 2.93084 -6.38002 0
M  V30 9752 H 894.278 0.0137816 -2.97997 0
M  V30 9753 H 891.815 -0.00496503 -1.47099 0
M  V30 9754 H 893.773 2.46339 -3.36709 0
M  V30 9755 H 892.403 2.33047 -2.23358 0
M  V30 9756 H 891.455 0.465296 -3.77544 0
M  V30 9757 H 892.767 0.827284 -4.91892 0
M  V30 9758 H 891.921 3.1692 -5.17346 0
M  V30 9759 H 890.66 2.86784 -3.9447 0
M  V30 9760 H 889.665 1.07409 -5.39206 0
M  V30 9761 H 890.89 1.39987 -6.64515 0
M  V30 9762 H 888.836 3.3931 -5.61431 0
M  V30 9763 H 888.753 2.53986 -7.12058 0
M  V30 9764 H 890.021 3.7003 -6.86075 0
M  V30 9765 N 894.251 1.57596 -0.0117121 0
M  V30 9766 C 895.181 2.12188 0.9746 0
M  V30 9767 C 896.162 1.03379 1.35081 0
M  V30 9768 O 897.347 1.31123 1.4325 0
M  V30 9769 C 894.477 2.63477 2.26268 0
M  V30 9770 C 893.431 3.76917 2.02774 0
M  V30 9771 C 892.757 4.14566 3.37697 0
M  V30 9772 C 894.057 5.03715 1.38089 0
M  V30 9773 H 895.751 2.9485 0.520007 0
M  V30 9774 H 893.297 1.41836 0.248685 0
M  V30 9775 H 895.25 3.00299 2.95633 0
M  V30 9776 H 893.974 1.77953 2.73862 0
M  V30 9777 H 892.633 3.40507 1.35832 0
M  V30 9778 H 892.281 3.26048 3.83016 0
M  V30 9779 H 891.981 4.91 3.22789 0
M  V30 9780 H 893.505 4.53956 4.08358 0
M  V30 9781 H 894.919 5.38233 1.97428 0
M  V30 9782 H 893.316 5.85032 1.33634 0
M  V30 9783 H 894.386 4.83624 0.351575 0
M  V30 9784 N 895.729 -0.261212 1.5542 0
M  V30 9785 C 896.676 -1.32315 1.89107 0
M  V30 9786 C 897.646 -1.48517 0.743767 0
M  V30 9787 O 898.831 -1.62733 0.996123 0
M  V30 9788 C 895.971 -2.67626 2.17877 0
M  V30 9789 C 895.084 -2.59549 3.45338 0
M  V30 9790 C 894.219 -3.87118 3.63748 0
M  V30 9791 C 893.258 -3.736 4.8486 0
M  V30 9792 N 892.395 -4.93029 4.99867 0
M  V30 9793 H 897.235 -1.02886 2.79675 0
M  V30 9794 H 894.772 -0.496812 1.38456 0
M  V30 9795 H 896.73 -3.4637 2.32559 0
M  V30 9796 H 895.36 -2.95232 1.30529 0
M  V30 9797 H 894.412 -1.72452 3.39064 0
M  V30 9798 H 895.724 -2.45465 4.34222 0
M  V30 9799 H 894.878 -4.74305 3.78312 0
M  V30 9800 H 893.617 -4.04084 2.73071 0
M  V30 9801 H 892.622 -2.84797 4.70288 0
M  V30 9802 H 893.847 -3.58143 5.76984 0
M  V30 9803 H 891.793 -5.10383 4.12123 0
M  V30 9804 H 891.71 -4.81521 5.82815 0
M  V30 9805 H 892.978 -5.81754 5.18828 0
M  V30 9806 N 897.207 -1.48554 -0.526253 0
M  V30 9807 C 898.453 -1.56994 -1.28378 0
M  V30 9808 C 898.786 -0.244701 -1.92652 0
M  V30 9809 O 898.061 0.749636 -1.79473 0
M  V30 9810 C 898.344 -2.71092 -2.37026 0
M  V30 9811 C 898.197 -4.13331 -1.77418 0
M  V30 9812 C 899.516 -2.80934 -3.38769 0
M  V30 9813 H 896.635 -0.571466 -0.465398 0
M  V30 9814 H 899.277 -1.80742 -0.585861 0
M  V30 9815 H 897.427 -2.50973 -2.96555 0
M  V30 9816 H 899.099 -4.44899 -1.21912 0
M  V30 9817 H 897.342 -4.20158 -1.07936 0
M  V30 9818 H 898.013 -4.88994 -2.56104 0
M  V30 9819 H 900.489 -2.9917 -2.892 0
M  V30 9820 H 899.365 -3.62489 -4.12181 0
M  V30 9821 H 899.626 -1.89244 -3.99549 0
M  V30 9822 N 898.685 0.775411 -1.37205 0
M  V30 9823 C 899.931 1.53611 -1.32407 0
M  V30 9824 C 900.264 1.9398 0.0924103 0
M  V30 9825 O 899.539 1.63791 1.04893 0
M  V30 9826 C 899.822 2.80367 -2.25979 0
M  V30 9827 C 899.675 2.46275 -3.76389 0
M  V30 9828 C 900.994 3.82277 -2.18064 0
M  V30 9829 H 898.113 0.557278 -0.482297 0
M  V30 9830 H 900.755 0.889826 -1.67875 0
M  V30 9831 H 898.905 3.35515 -1.95862 0
M  V30 9832 H 900.577 1.9707 -4.17087 0
M  V30 9833 H 898.82 1.79023 -3.95137 0
M  V30 9834 H 899.491 3.36868 -4.37291 0
M  V30 9835 H 901.967 3.36613 -2.44604 0
M  V30 9836 H 900.843 4.68696 -2.85684 0
M  V30 9837 H 901.104 4.26272 -1.17239 0
M  V30 9838 N 900.163 1.21714 1.00117 0
M  V30 9839 C 901.41 1.0367 1.73951 0
M  V30 9840 C 901.738 -0.429289 1.89703 0
M  V30 9841 O 900.993 -1.33475 1.43119 0
M  V30 9842 C 901.292 1.68345 3.15269 0
M  V30 9843 C 900.958 3.18214 3.19454 0
M  V30 9844 C 899.62 3.59109 3.20303 0
M  V30 9845 C 901.972 4.14179 3.16394 0
M  V30 9846 C 899.3 4.94467 3.15783 0
M  V30 9847 C 901.652 5.49502 3.13416 0
M  V30 9848 C 900.316 5.8979 3.12577 0
M  V30 9849 H 899.586 0.379355 0.63653 0
M  V30 9850 H 902.233 1.51361 1.17312 0
M  V30 9851 H 900.538 1.12957 3.75164 0
M  V30 9852 H 902.235 1.51882 3.71124 0
M  V30 9853 H 898.825 2.85646 3.19538 0
M  V30 9854 H 903.009 3.83607 3.14895 0
M  V30 9855 H 898.265 5.24923 3.13473 0
M  V30 9856 H 902.439 6.23595 3.10003 0
M  V30 9857 H 900.066 6.94643 3.08829 0
M  V30 9858 N 901.641 -1.19671 1.02551 0
M  V30 9859 C 902.571 -2.25009 0.623965 0
M  V30 9860 C 903.552 -1.66129 -0.36538 0
M  V30 9861 O 904.737 -1.92599 -0.248842 0
M  V30 9862 C 901.867 -3.47287 -0.0294869 0
M  V30 9863 C 900.821 -4.18818 0.881781 0
M  V30 9864 C 900.147 -5.34618 0.0936189 0
M  V30 9865 C 901.447 -4.73986 2.19396 0
M  V30 9866 H 903.141 -2.58851 1.50454 0
M  V30 9867 H 900.687 -1.24425 0.724872 0
M  V30 9868 H 902.64 -4.20168 -0.322016 0
M  V30 9869 H 901.364 -3.12635 -0.944838 0
M  V30 9870 H 900.023 -3.47815 1.15845 0
M  V30 9871 H 899.671 -4.9621 -0.823661 0
M  V30 9872 H 899.371 -5.83409 0.700568 0
M  V30 9873 H 900.895 -6.10297 -0.192249 0
M  V30 9874 H 902.309 -5.38639 1.96319 0
M  V30 9875 H 900.706 -5.3325 2.75254 0
M  V30 9876 H 901.776 -3.92238 2.85092 0
M  V30 9877 N 903.119 -0.802921 -1.35613 0
M  V30 9878 C 904.53 -0.443004 -1.81368 0
M  V30 9879 C 904.881 1.03459 -1.66706 0
M  V30 9880 O 904.006 1.80372 -1.19561 0
M  V30 9881 C 904.601 -0.797324 -3.29284 0
M  V30 9882 C 903.16 -0.490055 -3.73196 0
M  V30 9883 C 902.307 -1.02487 -2.57666 0
M  V30 9884 H 905.258 -0.994888 -1.23643 0
M  V30 9885 H 905.279 -0.0934638 -3.80385 0
M  V30 9886 H 904.791 -1.87278 -3.39924 0
M  V30 9887 H 902.892 0.576818 -3.68108 0
M  V30 9888 H 903.005 -1.02012 -4.68114 0
M  V30 9889 H 901.369 -0.44738 -2.5074 0
M  V30 9890 H 902.152 -2.10636 -2.71085 0
M  V30 9891 N 904.597 1.47463 -0.556102 0
M  V30 9892 C 905.874 1.9557 0.0339892 0
M  V30 9893 C 906.254 1.49869 1.48669 0
M  V30 9894 O 905.602 0.737019 2.16288 0
M  V30 9895 C 905.812 3.48826 -0.110343 0
M  V30 9896 C 907.16 4.24585 0.0355716 0
M  V30 9897 O 908.184 3.5618 -0.0378356 0
M  V30 9898 O 907.043 5.46158 0.193299 0
M  V30 9899 H 904.137 0.824461 0.0647521 0
M  V30 9900 H 906.683 1.57868 -0.622547 0
M  V30 9901 H 905.455 3.74891 -1.12126 0
M  V30 9902 H 905.078 3.9329 0.583855 0
M  V30 9903 N 906.075 0.2925 1.54862 0
M  V30 9904 C 907.305 -0.321646 2.04081 0
M  V30 9905 C 907.713 -1.48712 1.16967 0
M  V30 9906 O 907.056 -1.82755 0.18609 0
M  V30 9907 C 907.118 -0.848678 3.49339 0
M  V30 9908 C 906.782 0.190416 4.56603 0
M  V30 9909 C 907.779 1.01595 5.09877 0
M  V30 9910 C 905.464 0.329666 5.01217 0
M  V30 9911 C 907.458 1.96676 6.06298 0
M  V30 9912 C 905.145 1.28393 5.9746 0
M  V30 9913 C 906.143 2.10097 6.49883 0
M  V30 9914 O 905.831 3.03907 7.44242 0
M  V30 9915 H 905.563 -0.075098 0.671816 0
M  V30 9916 H 908.117 0.427531 2.00901 0
M  V30 9917 H 906.347 -1.64823 3.49815 0
M  V30 9918 H 908.036 -1.37779 3.81801 0
M  V30 9919 H 908.802 0.919197 4.7621 0
M  V30 9920 H 904.681 -0.296317 4.60047 0
M  V30 9921 H 908.225 2.60488 6.47141 0
M  V30 9922 H 904.122 1.38144 6.30545 0
M  V30 9923 H 904.89 2.98787 7.62016 0
M  V30 9924 N 907.553 -1.57587 0.0200696 0
M  V30 9925 C 908.793 -1.93287 -0.66479 0
M  V30 9926 C 909.157 -0.896022 -1.6981 0
M  V30 9927 O 910.358 -1.13892 -2.43479 0
M  V30 9928 C 908.629 -3.33949 -1.27328 0
M  V30 9929 S 910.188 -3.91564 -1.98047 0
M  V30 9930 H 907.006 -0.676397 -0.219106 0
M  V30 9931 H 909.608 -1.9533 0.081568 0
M  V30 9932 H 908.312 -4.07235 -0.508673 0
M  V30 9933 H 907.843 -3.35329 -2.05714 0
M  V30 9934 H 909.858 -3.74265 -3.25791 0
M  V30 9935 N 909.032 0.252966 -1.55557 0
M  V30 9936 C 910.278 0.983306 -1.77367 0
M  V30 9937 C 910.611 1.85203 -0.584258 0
M  V30 9938 O 909.886 1.89963 0.417644 0
M  V30 9939 C 910.169 1.84896 -3.09007 0
M  V30 9940 C 910.022 1.00883 -4.38341 0
M  V30 9941 C 911.341 2.83254 -3.36831 0
M  V30 9942 H 908.46 0.356056 -0.645286 0
M  V30 9943 H 911.102 0.254232 -1.88291 0
M  V30 9944 H 909.252 2.47058 -2.99825 0
M  V30 9945 H 910.924 0.40638 -4.59507 0
M  V30 9946 H 909.167 0.31297 -4.3267 0
M  V30 9947 H 909.838 1.64818 -5.2682 0
M  V30 9948 H 912.314 2.31228 -3.45937 0
M  V30 9949 H 911.19 3.40949 -4.30169 0
M  V30 9950 H 911.451 3.59407 -2.57447 0
M  V30 9951 N 910.51 1.48831 0.518367 0
M  V30 9952 C 911.735 1.61379 1.30275 0
M  V30 9953 C 912.16 0.278571 1.86026 0
M  V30 9954 O 911.518 -0.751427 1.64995 0
M  V30 9955 C 911.566 2.67225 2.42122 0
M  V30 9956 O 910.67 2.25192 3.45489 0
M  V30 9957 H 910.011 0.540742 0.385349 0
M  V30 9958 H 912.541 1.949 0.622498 0
M  V30 9959 H 912.551 2.88859 2.8814 0
M  V30 9960 H 911.226 3.64155 2.00907 0
M  V30 9961 H 909.803 2.13819 3.05509 0
M  V30 9962 N 911.988 -0.768124 1.37614 0
M  V30 9963 C 912.951 -1.86314 1.3349 0
M  V30 9964 C 913.951 -1.59025 0.23823 0
M  V30 9965 O 915.141 -1.6704 0.494288 0
M  V30 9966 C 912.273 -3.23519 1.07462 0
M  V30 9967 H 913.466 -1.91382 2.30896 0
M  V30 9968 H 911.019 -0.968267 1.22696 0
M  V30 9969 H 911.754 -3.24127 0.106028 0
M  V30 9970 H 911.539 -3.44719 1.86846 0
M  V30 9971 H 913.029 -4.03597 1.07236 0
M  V30 9972 N 913.466 -1.22244 -0.994698 0
M  V30 9973 C 914.429 -0.992308 -2.06606 0
M  V30 9974 C 915.429 0.0405872 -1.60749 0
M  V30 9975 O 916.619 -0.197737 -1.73074 0
M  V30 9976 C 913.751 -0.498499 -3.37236 0
M  V30 9977 H 914.944 -1.9429 -2.28455 0
M  V30 9978 H 912.497 -1.04087 -1.166 0
M  V30 9979 H 913.232 0.456531 -3.21071 0
M  V30 9980 H 913.017 -1.24367 -3.71854 0
M  V30 9981 H 914.507 -0.35768 -4.16065 0
M  V30 9982 N 914.944 1.19125 -1.03184 0
M  V30 9983 C 915.854 2.26112 -0.625329 0
M  V30 9984 C 916.87 1.7056 0.344298 0
M  V30 9985 O 918.046 2.0039 0.20144 0
M  V30 9986 C 915.111 3.46697 0.0145169 0
M  V30 9987 C 914.172 4.17419 -1.00299 0
M  V30 9988 C 913.405 5.32247 -0.393581 0
M  V30 9989 O 913.628 5.64724 0.802659 0
M  V30 9990 O 912.562 5.91428 -1.1179 0
M  V30 9991 H 916.388 2.63131 -1.51643 0
M  V30 9992 H 913.973 1.26036 -0.802197 0
M  V30 9993 H 915.855 4.19762 0.371139 0
M  V30 9994 H 914.53 3.11521 0.879581 0
M  V30 9995 H 913.437 3.4646 -1.41125 0
M  V30 9996 H 914.77 4.56573 -1.83852 0
M  V30 9997 N 916.422 0.810101 1.35185 0
M  V30 9998 C 917.369 0.220927 2.2974 0
M  V30 9999 C 918.339 -0.647024 1.5298 0
M  V30 10000 O 919.524 -0.591367 1.81404 0
M  V30 10001 C 916.664 -0.62167 3.39454 0
M  V30 10002 C 915.777 0.267104 4.31173 0
M  V30 10003 C 914.912 -0.583833 5.27982 0
M  V30 10004 C 913.951 0.305123 6.11339 0
M  V30 10005 N 913.088 -0.505992 7.00274 0
M  V30 10006 H 917.928 1.03266 2.79536 0
M  V30 10007 H 915.465 0.520768 1.37573 0
M  V30 10008 H 917.423 -1.12539 4.01735 0
M  V30 10009 H 916.053 -1.39863 2.90926 0
M  V30 10010 H 915.105 0.88895 3.69867 0
M  V30 10011 H 916.417 0.951182 4.89647 0
M  V30 10012 H 915.571 -1.15254 5.95652 0
M  V30 10013 H 914.31 -1.30146 4.70014 0
M  V30 10014 H 913.315 0.886075 5.42613 0
M  V30 10015 H 914.54 1.02067 6.71386 0
M  V30 10016 H 912.486 -1.20753 6.4479 0
M  V30 10017 H 912.403 0.119966 7.55905 0
M  V30 10018 H 913.671 -1.05787 7.72288 0
M  V30 10019 N 917.9 -1.47166 0.563914 0
M  V30 10020 C 918.83 -2.32894 -0.168148 0
M  V30 10021 C 919.811 -1.44202 -0.902214 0
M  V30 10022 O 920.996 -1.73048 -0.881365 0
M  V30 10023 C 918.126 -3.26116 -1.19439 0
M  V30 10024 C 917.08 -4.24101 -0.576363 0
M  V30 10025 C 916.406 -5.06696 -1.70772 0
M  V30 10026 C 917.706 -5.20142 0.47425 0
M  V30 10027 H 919.4 -2.9435 0.547573 0
M  V30 10028 H 916.946 -1.41545 0.264778 0
M  V30 10029 H 918.899 -3.84935 -1.71474 0
M  V30 10030 H 917.623 -2.62728 -1.94014 0
M  V30 10031 H 916.282 -3.66519 -0.0772534 0
M  V30 10032 H 915.93 -4.39707 -2.44268 0
M  V30 10033 H 915.63 -5.7304 -1.29994 0
M  V30 10034 H 917.154 -5.68375 -2.2312 0
M  V30 10035 H 918.568 -5.73286 0.0397035 0
M  V30 10036 H 916.965 -5.94726 0.801287 0
M  V30 10037 H 918.035 -4.65214 1.36764 0
M  V30 10038 N 919.378 -0.300708 -1.54705 0
M  V30 10039 C 920.627 0.309428 -1.99312 0
M  V30 10040 C 920.94 1.55027 -1.19272 0
M  V30 10041 O 922.146 2.23498 -1.54146 0
M  V30 10042 C 920.602 0.601856 -3.54832 0
M  V30 10043 C 920.21 -0.620636 -4.4368 0
M  V30 10044 C 921.954 1.1732 -4.07966 0
M  V30 10045 C 919.861 -0.301376 -5.90632 0
M  V30 10046 H 918.791 0.119395 -0.744487 0
M  V30 10047 H 921.442 -0.409368 -1.78875 0
M  V30 10048 H 919.824 1.38024 -3.71168 0
M  V30 10049 H 920.998 -1.39685 -4.39118 0
M  V30 10050 H 919.313 -1.1106 -4.01316 0
M  V30 10051 H 921.91 1.42631 -5.15326 0
M  V30 10052 H 922.253 2.11537 -3.5855 0
M  V30 10053 H 922.786 0.456534 -3.95172 0
M  V30 10054 H 919.525 -1.21209 -6.44196 0
M  V30 10055 H 919.045 0.437574 -5.98202 0
M  V30 10056 H 920.724 0.097164 -6.46927 0
M  V30 10057 N 920.856 1.57574 -0.0284266 0
M  V30 10058 C 922.267 1.79585 0.510502 0
M  V30 10059 C 922.618 0.938625 1.72291 0
M  V30 10060 O 921.743 0.14884 2.15888 0
M  V30 10061 C 922.338 3.25703 0.932912 0
M  V30 10062 C 920.897 3.48711 1.41696 0
M  V30 10063 C 920.044 2.74665 0.381356 0
M  V30 10064 H 922.995 1.56647 -0.254464 0
M  V30 10065 H 923.016 3.35376 1.79731 0
M  V30 10066 H 922.528 3.88067 0.0503036 0
M  V30 10067 H 920.629 2.91597 2.31952 0
M  V30 10068 H 920.742 4.57423 1.42481 0
M  V30 10069 H 919.106 2.40123 0.8493 0
M  V30 10070 H 919.889 3.39745 -0.492775 0
M  V30 10071 N 922.334 -0.244713 1.55689 0
M  V30 10072 C 923.297 -1.2864 1.89695 0
M  V30 10073 C 924.297 -1.40969 0.773583 0
M  V30 10074 O 925.487 -1.39632 1.04156 0
M  V30 10075 C 922.619 -2.66379 2.12732 0
M  V30 10076 H 923.812 -0.997033 2.82841 0
M  V30 10077 H 921.365 -0.484103 1.48614 0
M  V30 10078 H 922.1 -3.00452 1.22062 0
M  V30 10079 H 921.885 -2.58812 2.94549 0
M  V30 10080 H 923.375 -3.41592 2.40218 0
M  V30 10081 N 923.813 -1.49104 -0.510467 0
M  V30 10082 C 924.776 -1.64569 -1.59529 0
M  V30 10083 C 925.776 -0.517937 -1.5223 0
M  V30 10084 O 926.966 -0.784183 -1.55551 0
M  V30 10085 C 924.098 -1.6342 -2.99177 0
M  V30 10086 H 925.291 -2.61318 -1.4715 0
M  V30 10087 H 922.844 -1.37993 -0.734001 0
M  V30 10088 H 923.579 -0.68221 -3.17043 0
M  V30 10089 H 923.364 -2.45312 -3.05883 0
M  V30 10090 H 924.854 -1.77474 -3.78011 0
M  V30 10091 N 925.291 0.760815 -1.38019 0
M  V30 10092 C 926.568 1.5098 -1.24356 0
M  V30 10093 C 926.948 2.10507 0.158169 0
M  V30 10094 O 926.296 1.96455 1.16695 0
M  V30 10095 C 926.506 2.58195 -2.34811 0
M  V30 10096 C 927.854 3.25297 -2.72886 0
M  V30 10097 O 928.878 2.68496 -2.34069 0
M  V30 10098 O 927.737 4.28018 -3.39799 0
M  V30 10099 H 924.831 0.66921 -0.485888 0
M  V30 10100 H 927.377 0.796844 -1.49828 0
M  V30 10101 H 926.149 2.12406 -3.28633 0
M  V30 10102 H 925.772 3.37079 -2.10864 0
M  V30 10103 N 926.769 1.22769 0.988202 0
M  V30 10104 C 928.018 1.0492 1.72263 0
M  V30 10105 C 928.331 -0.415282 1.91141 0
M  V30 10106 O 929.537 -0.713547 2.61956 0
M  V30 10107 C 927.993 1.82891 3.09966 0
M  V30 10108 C 927.601 3.33618 2.99003 0
M  V30 10109 C 929.345 1.73505 3.87423 0
M  V30 10110 C 927.252 4.04012 4.3189 0
M  V30 10111 H 926.182 0.38899 0.645912 0
M  V30 10112 H 928.833 1.46664 1.10281 0
M  V30 10113 H 927.215 1.33948 3.72658 0
M  V30 10114 H 928.389 3.8999 2.45448 0
M  V30 10115 H 926.704 3.43732 2.35027 0
M  V30 10116 H 929.301 2.23416 4.85787 0
M  V30 10117 H 929.644 0.696344 4.10435 0
M  V30 10118 H 930.177 2.20016 3.31418 0
M  V30 10119 H 926.916 5.08155 4.14075 0
M  V30 10120 H 926.436 3.52428 4.8534 0
M  V30 10121 H 928.115 4.0987 5.00615 0
M  V30 10122 N 928.247 -1.18576 1.03814 0
M  V30 10123 C 929.472 -1.92978 0.759873 0
M  V30 10124 C 929.897 -1.75514 -0.676486 0
M  V30 10125 O 929.255 -1.06359 -1.46824 0
M  V30 10126 C 929.303 -3.42507 1.12788 0
M  V30 10127 O 928.407 -4.1163 0.251886 0
M  V30 10128 H 927.748 -0.602129 0.279886 0
M  V30 10129 H 930.278 -1.50383 1.3873 0
M  V30 10130 H 930.288 -3.93206 1.08872 0
M  V30 10131 H 928.963 -3.5454 2.17427 0
M  V30 10132 H 927.54 -3.7125 0.350441 0
M  V30 10133 N 929.725 -0.817259 -1.34754 0
M  V30 10134 C 930.635 -0.236946 -2.334 0
M  V30 10135 C 931.651 0.625685 -1.62361 0
M  V30 10136 O 932.827 0.534921 -1.94166 0
M  V30 10137 C 929.892 0.596215 -3.41535 0
M  V30 10138 C 928.953 -0.288154 -4.28332 0
M  V30 10139 C 928.186 0.505337 -5.31302 0
M  V30 10140 O 928.409 1.73912 -5.43241 0
M  V30 10141 O 927.343 -0.109374 -6.01801 0
M  V30 10142 H 931.169 -1.05327 -2.84851 0
M  V30 10143 H 928.754 -0.579275 -1.37713 0
M  V30 10144 H 930.636 1.07041 -4.07578 0
M  V30 10145 H 929.311 1.38997 -2.92338 0
M  V30 10146 H 928.218 -0.809724 -3.65232 0
M  V30 10147 H 929.551 -1.04612 -4.80955 0
M  V30 10148 N 931.203 1.46865 -0.571711 0
M  V30 10149 C 932.135 2.28277 0.205479 0
M  V30 10150 C 933.148 1.37866 0.865835 0
M  V30 10151 O 934.337 1.62564 0.737247 0
M  V30 10152 C 931.437 3.12572 1.30965 0
M  V30 10153 C 930.61 4.31038 0.743328 0
M  V30 10154 C 929.669 4.96815 1.73382 0
M  V30 10155 O 928.695 5.54755 1.2742 0
M  V30 10156 N 929.897 4.92825 3.06764 0
M  V30 10157 H 932.662 2.95618 -0.49294 0
M  V30 10158 H 930.223 1.56655 -0.408744 0
M  V30 10159 H 932.215 3.53442 1.97131 0
M  V30 10160 H 930.785 2.47378 1.91109 0
M  V30 10161 H 930.005 3.94084 -0.0955004 0
M  V30 10162 H 931.293 5.07632 0.344556 0
M  V30 10163 H 930.691 4.46978 3.46738 0
M  V30 10164 H 929.248 5.3767 3.68449 0
M  V30 10165 N 932.681 0.308908 1.54543 0
M  V30 10166 C 933.93 -0.298854 1.99474 0
M  V30 10167 C 934.243 -1.54393 1.20093 0
M  V30 10168 O 935.449 -2.22677 1.55329 0
M  V30 10169 C 933.905 -0.58303 3.55146 0
M  V30 10170 C 933.513 0.644157 4.43345 0
M  V30 10171 C 935.257 -1.15155 4.08582 0
M  V30 10172 C 933.164 0.332694 5.90463 0
M  V30 10173 H 932.094 -0.115445 0.74511 0
M  V30 10174 H 934.745 0.418848 1.78656 0
M  V30 10175 H 933.127 -1.36053 3.71894 0
M  V30 10176 H 934.301 1.42012 4.38371 0
M  V30 10177 H 932.616 1.13186 4.00722 0
M  V30 10178 H 935.213 -1.39896 5.16075 0
M  V30 10179 H 935.556 -2.09632 3.59667 0
M  V30 10180 H 936.089 -0.435571 3.95408 0
M  V30 10181 H 932.828 1.24624 6.43544 0
M  V30 10182 H 932.348 -0.405844 5.98425 0
M  V30 10183 H 934.027 -0.0628545 6.46969 0
M  V30 10184 N 934.159 -1.57557 0.0367827 0
M  V30 10185 C 935.384 -1.96828 -0.653707 0
M  V30 10186 C 935.809 -0.913559 -1.64425 0
M  V30 10187 O 935.167 0.124749 -1.8087 0
M  V30 10188 C 935.215 -3.35189 -1.32969 0
M  V30 10189 O 934.319 -3.32095 -2.44513 0
M  V30 10190 H 933.66 -0.64157 -0.171124 0
M  V30 10191 H 936.19 -2.04351 0.100912 0
M  V30 10192 H 936.2 -3.71593 -1.68472 0
M  V30 10193 H 934.875 -4.11496 -0.603654 0
M  V30 10194 H 933.452 -3.07418 -2.11065 0
M  V30 10195 N 935.637 0.236453 -1.55816 0
M  V30 10196 C 936.865 0.980295 -1.82203 0
M  V30 10197 C 937.28 1.7854 -0.613926 0
M  V30 10198 O 936.637 1.77661 0.417491 0
M  V30 10199 C 936.688 1.90982 -3.06933 0
M  V30 10200 O 936.409 1.13728 -4.23081 0
M  V30 10201 C 937.91 2.76879 -3.46198 0
M  V30 10202 H 935.13 0.28799 -0.606055 0
M  V30 10203 H 937.674 0.256182 -2.02889 0
M  V30 10204 H 935.829 2.58808 -2.88266 0
M  V30 10205 H 936.243 1.76694 -4.93842 0
M  V30 10206 H 937.717 3.37831 -4.36548 0
M  V30 10207 H 938.194 3.48522 -2.67262 0
M  V30 10208 H 938.8 2.1449 -3.67252 0
M  V30 10209 N 937.115 1.49373 0.502552 0
M  V30 10210 C 938.078 1.65413 1.58654 0
M  V30 10211 C 939.078 0.526003 1.51953 0
M  V30 10212 O 940.268 0.792421 1.55133 0
M  V30 10213 C 937.4 1.65005 2.98306 0
M  V30 10214 H 938.593 2.62095 1.45762 0
M  V30 10215 H 936.146 1.38381 0.726672 0
M  V30 10216 H 936.881 0.699014 3.16677 0
M  V30 10217 H 936.666 2.46931 3.04578 0
M  V30 10218 H 938.156 1.79477 3.77065 0
M  V30 10219 N 938.594 -0.753485 1.38421 0
M  V30 10220 C 939.842 -1.50962 1.34368 0
M  V30 10221 C 940.163 -1.94889 -0.0656895 0
M  V30 10222 O 939.433 -1.67652 -1.01339 0
M  V30 10223 H 938.013 -0.559967 0.494415 0
M  V30 10224 H 940.675 -0.895665 1.73101 0
M  V30 10225 H 939.771 -2.40048 1.99458 0
M  V30 10226 N 940.072 -1.23292 -0.981677 0
M  V30 10227 C 941.019 -1.01296 -2.07383 0
M  V30 10228 C 941.989 0.069139 -1.65956 0
M  V30 10229 O 943.174 -0.0827108 -1.90621 0
M  V30 10230 C 940.314 -0.608876 -3.39686 0
M  V30 10231 C 939.427 -1.76296 -3.9439 0
M  V30 10232 C 938.562 -1.30578 -5.14901 0
M  V30 10233 C 937.601 -2.4307 -5.61768 0
M  V30 10234 N 936.738 -1.98319 -6.73509 0
M  V30 10235 H 941.578 -1.9478 -2.25532 0
M  V30 10236 H 939.115 -0.970356 -1.10555 0
M  V30 10237 H 941.073 -0.355702 -4.15681 0
M  V30 10238 H 939.703 0.288961 -3.21504 0
M  V30 10239 H 938.755 -2.13017 -3.15163 0
M  V30 10240 H 940.067 -2.60871 -4.25145 0
M  V30 10241 H 939.221 -1.01066 -5.98223 0
M  V30 10242 H 937.96 -0.430386 -4.85797 0
M  V30 10243 H 936.965 -2.73358 -4.77028 0
M  V30 10244 H 938.19 -3.31144 -5.92892 0
M  V30 10245 H 936.136 -1.13157 -6.46167 0
M  V30 10246 H 936.053 -2.76454 -7.0364 0
M  V30 10247 H 937.321 -1.71907 -7.60308 0
M  V30 10248 N 941.55 1.18024 -1.04442 0
M  V30 10249 C 942.46 2.25436 -0.649276 0
M  V30 10250 C 943.476 1.70915 0.326189 0
M  V30 10251 O 944.652 2.00592 0.180174 0
M  V30 10252 C 941.717 3.46693 -0.0222558 0
M  V30 10253 C 940.778 4.16332 -1.0472 0
M  V30 10254 C 940.011 5.31799 -0.450011 0
M  V30 10255 O 940.234 5.65544 0.742717 0
M  V30 10256 O 939.168 5.90209 -1.18056 0
M  V30 10257 H 942.994 2.61508 -1.54426 0
M  V30 10258 H 940.579 1.25178 -0.81552 0
M  V30 10259 H 942.461 4.20132 0.326597 0
M  V30 10260 H 941.136 3.12436 0.84649 0
M  V30 10261 H 940.043 3.44944 -1.44792 0
M  V30 10262 H 941.376 4.54598 -1.88684 0
M  V30 10263 N 943.028 0.824394 1.34319 0
M  V30 10264 C 943.991 0.252696 2.27803 0
M  V30 10265 C 944.991 -0.570254 1.50349 0
M  V30 10266 O 946.181 -0.386145 1.69866 0
M  V30 10267 C 943.313 -0.645575 3.34731 0
M  V30 10268 H 944.506 1.07742 2.79878 0
M  V30 10269 H 942.059 0.596367 1.44475 0
M  V30 10270 H 942.794 -1.4933 2.87873 0
M  V30 10271 H 942.579 -0.0569478 3.92059 0
M  V30 10272 H 944.069 -1.03933 4.0446 0
M  V30 10273 N 944.506 -1.46559 0.579492 0
M  V30 10274 C 945.731 -2.0729 0.0674595 0
M  V30 10275 C 946.156 -1.4259 -1.22677 0
M  V30 10276 O 945.514 -0.50857 -1.74021 0
M  V30 10277 C 945.562 -3.60492 -0.0882227 0
M  V30 10278 O 944.666 -3.96172 -1.14551 0
M  V30 10279 H 944.007 -0.661159 0.0613536 0
M  V30 10280 H 946.537 -1.88247 0.801519 0
M  V30 10281 H 946.547 -4.06929 -0.295411 0
M  V30 10282 H 945.222 -4.06976 0.856943 0
M  V30 10283 H 943.799 -3.61448 -0.917033 0
M  V30 10284 N 945.984 -0.3171 -1.54377 0
M  V30 10285 C 947.232 0.286842 -2.00054 0
M  V30 10286 C 947.553 1.53161 -1.20692 0
M  V30 10287 O 946.823 1.93479 -0.307045 0
M  V30 10288 H 945.403 0.108979 -0.739008 0
M  V30 10289 H 948.065 -0.432152 -1.90049 0
M  V30 10290 H 947.161 0.547729 -3.07256 0
M  V30 10291 N 947.462 1.57535 -0.0451378 0
M  V30 10292 C 948.69 1.96761 0.639742 0
M  V30 10293 C 949.105 0.922405 1.64734 0
M  V30 10294 O 948.462 -0.0940535 1.82257 0
M  V30 10295 C 948.513 3.36066 1.33199 0
M  V30 10296 O 948.234 4.36579 0.364757 0
M  V30 10297 C 949.735 3.90015 2.1072 0
M  V30 10298 H 946.955 0.64769 0.175324 0
M  V30 10299 H 949.499 2.04206 -0.109651 0
M  V30 10300 H 947.654 3.2979 2.03266 0
M  V30 10301 H 948.068 5.17432 0.858168 0
M  V30 10302 H 949.542 4.89785 2.54586 0
M  V30 10303 H 950.019 3.25117 2.95288 0
M  V30 10304 H 950.625 3.99609 1.45577 0
M  V30 10305 N 948.94 -0.228186 1.55939 0
M  V30 10306 C 950.188 -0.951668 1.78291 0
M  V30 10307 C 950.509 -1.85132 0.612474 0
M  V30 10308 O 949.779 -1.92356 -0.370942 0
M  V30 10309 H 948.359 -0.354388 0.657585 0
M  V30 10310 H 951.021 -0.241635 1.93396 0
M  V30 10311 H 950.117 -1.56239 2.70177 0
M  V30 10312 N 950.418 -1.49637 -0.494624 0
M  V30 10313 C 951.366 -1.6727 -1.61627 0
M  V30 10314 C 952.36 -0.538587 -1.6061 0
M  V30 10315 O 953.566 -0.718411 -1.65042 0
M  V30 10316 H 949.941 -0.527557 -0.535899 0
M  V30 10317 H 951.912 -2.61405 -1.43909 0
M  V30 10318 C 950.661 -1.7624 -2.99725 0
M  V30 10319 H 949.984 -2.62886 -3.01216 0
M  V30 10320 H 951.424 -1.92611 -3.77726 0
M  V30 10321 C 949.883 -0.508632 -3.33038 0
M  V30 10322 O 950.413 0.362828 -4.00058 0
M  V30 10323 N 948.619 -0.369667 -2.88239 0
M  V30 10324 H 948.166 -1.07984 -2.33875 0
M  V30 10325 H 948.124 0.468112 -3.10896 0
M  V30 10326 N 951.896 0.746133 -1.38819 0
M  V30 10327 C 952.829 1.86833 -1.31029 0
M  V30 10328 C 953.807 1.61533 -0.185948 0
M  V30 10329 O 954.991 1.84942 -0.364529 0
M  V30 10330 C 952.118 3.22596 -1.03198 0
M  V30 10331 C 951.164 3.66772 -2.17671 0
M  V30 10332 S 951.997 3.77438 -3.7987 0
M  V30 10333 C 953.153 5.16008 -3.54241 0
M  V30 10334 H 953.386 1.93155 -2.26005 0
M  V30 10335 H 950.919 0.909872 -1.24742 0
M  V30 10336 H 952.877 4.00995 -0.878237 0
M  V30 10337 H 951.538 3.13943 -0.0992704 0
M  V30 10338 H 950.731 4.65266 -1.93762 0
M  V30 10339 H 950.333 2.95547 -2.2919 0
M  V30 10340 H 952.625 6.01996 -3.10816 0
M  V30 10341 H 953.568 5.44941 -4.52156 0
M  V30 10342 H 953.976 4.85158 -2.88587 0
M  V30 10343 N 953.375 1.23811 0.975125 0
M  V30 10344 C 954.322 1.02394 2.06843 0
M  V30 10345 C 955.292 -0.060337 1.6599 0
M  V30 10346 O 956.477 0.0928187 1.90574 0
M  V30 10347 C 953.617 0.626882 3.39359 0
M  V30 10348 C 952.73 1.78385 3.9345 0
M  V30 10349 C 951.865 1.33307 5.14201 0
M  V30 10350 C 950.904 2.46045 5.60471 0
M  V30 10351 N 950.041 2.01888 6.72448 0
M  V30 10352 H 954.881 1.95973 2.24496 0
M  V30 10353 H 952.418 0.976206 1.10039 0
M  V30 10354 H 954.376 0.377742 4.15486 0
M  V30 10355 H 953.006 -0.271907 3.21653 0
M  V30 10356 H 952.058 2.14685 3.14029 0
M  V30 10357 H 953.37 2.63122 4.23755 0
M  V30 10358 H 952.524 1.04237 5.97678 0
M  V30 10359 H 951.263 0.456143 4.85562 0
M  V30 10360 H 950.268 2.75884 4.75571 0
M  V30 10361 H 951.493 3.34283 5.91127 0
M  V30 10362 H 949.439 1.16583 6.45558 0
M  V30 10363 H 949.356 2.80182 7.02164 0
M  V30 10364 H 950.624 1.75937 7.59386 0
M  V30 10365 N 954.853 -1.17469 1.05066 0
M  V30 10366 C 955.783 -2.23635 0.671552 0
M  V30 10367 C 956.764 -1.66867 -0.33006 0
M  V30 10368 O 957.949 -1.93084 -0.207933 0
M  V30 10369 C 955.079 -3.47272 0.0441845 0
M  V30 10370 C 954.033 -4.16854 0.97042 0
M  V30 10371 C 953.359 -5.34299 0.206998 0
M  V30 10372 C 954.659 -4.69225 2.29401 0
M  V30 10373 H 956.353 -2.55602 1.55911 0
M  V30 10374 H 953.899 -1.2286 0.751101 0
M  V30 10375 H 955.852 -4.20756 -0.23282 0
M  V30 10376 H 954.576 -3.14568 -0.878311 0
M  V30 10377 H 953.235 -3.4528 1.23197 0
M  V30 10378 H 952.883 -4.97846 -0.718222 0
M  V30 10379 H 952.583 -5.81792 0.82416 0
M  V30 10380 H 954.107 -6.10568 -0.0627525 0
M  V30 10381 H 955.521 -5.34353 2.077 0
M  V30 10382 H 953.918 -5.27291 2.86503 0
M  V30 10383 H 954.988 -3.86102 2.93348 0
M  V30 10384 N 956.331 -0.831506 -1.3388 0
M  V30 10385 C 957.294 -0.264773 -2.27666 0
M  V30 10386 C 958.294 0.562273 -1.50649 0
M  V30 10387 O 959.484 0.377131 -1.70069 0
M  V30 10388 C 956.616 0.627814 -3.35069 0
M  V30 10389 H 957.809 -1.09225 -2.79303 0
M  V30 10390 H 955.362 -0.604021 -1.44157 0
M  V30 10391 H 956.097 1.47802 -2.88661 0
M  V30 10392 H 955.882 0.0361552 -3.92083 0
M  V30 10393 H 957.372 1.01786 -4.05005 0
M  V30 10394 N 957.809 1.4625 -0.587256 0
M  V30 10395 C 958.739 2.33132 0.131076 0
M  V30 10396 C 959.72 1.45619 0.879158 0
M  V30 10397 O 960.905 1.74428 0.853723 0
M  V30 10398 C 958.035 3.27975 1.14236 0
M  V30 10399 C 956.989 4.24965 0.508819 0
M  V30 10400 C 956.315 5.09349 1.62689 0
M  V30 10401 C 957.615 5.19322 -0.55694 0
M  V30 10402 H 959.309 2.93442 -0.594333 0
M  V30 10403 H 956.855 1.41106 -0.287263 0
M  V30 10404 H 958.808 3.87614 1.65328 0
M  V30 10405 H 957.532 2.65781 1.8981 0
M  V30 10406 H 956.191 3.66595 0.0189337 0
M  V30 10407 H 955.839 4.43537 2.37242 0
M  V30 10408 H 955.539 5.75036 1.20861 0
M  V30 10409 H 957.063 5.71852 2.14049 0
M  V30 10410 H 958.477 5.73151 -0.130903 0
M  V30 10411 H 956.874 5.93376 -0.895801 0
M  V30 10412 H 957.944 4.62979 -1.44148 0
M  V30 10413 N 959.287 0.325282 1.54207 0
M  V30 10414 C 960.235 -0.5554 2.25872 0
M  V30 10415 C 961.229 -1.11714 1.27344 0
M  V30 10416 O 962.435 -1.06498 1.45115 0
M  V30 10417 H 958.81 -0.19776 0.725531 0
M  V30 10418 H 960.781 0.0712858 2.98315 0
M  V30 10419 C 959.53 -1.70379 3.03095 0
M  V30 10420 H 958.853 -1.2808 3.78729 0
M  V30 10421 H 960.293 -2.29556 3.56483 0
M  V30 10422 C 958.752 -2.62242 2.11496 0
M  V30 10423 O 959.282 -3.64003 1.69895 0
M  V30 10424 N 957.488 -2.30515 1.7695 0
M  V30 10425 H 957.035 -1.47805 2.10978 0
M  V30 10426 H 956.993 -2.92241 1.15942 0
M  V30 10427 N 960.765 -1.57509 0.0534917 0
M  V30 10428 C 962.013 -1.92402 -0.618548 0
M  V30 10429 C 962.334 -0.93273 -1.71246 0
M  V30 10430 O 961.604 0.0220495 -1.95888 0
M  V30 10431 H 960.184 -0.710233 -0.23147 0
M  V30 10432 H 962.846 -1.94606 0.10704 0
M  V30 10433 H 961.942 -2.93704 -1.05566 0
M  V30 10434 N 962.243 0.219913 -1.56058 0
M  V30 10435 C 963.206 1.25606 -1.91718 0
M  V30 10436 C 964.206 1.39721 -0.795912 0
M  V30 10437 O 965.396 1.37958 -1.06364 0
M  V30 10438 C 962.528 2.62961 -2.16943 0
M  V30 10439 H 963.721 0.951909 -2.84392 0
M  V30 10440 H 961.274 0.460398 -1.49365 0
M  V30 10441 H 962.009 2.98472 -1.26826 0
M  V30 10442 H 961.794 2.54093 -2.98629 0
M  V30 10443 H 963.284 3.37727 -2.45622 0
M  V30 10444 N 963.721 1.49897 0.486681 0
M  V30 10445 C 964.651 1.7054 1.59494 0
M  V30 10446 C 965.632 0.554184 1.60819 0
M  V30 10447 O 966.817 0.791617 1.77333 0
M  V30 10448 C 963.947 1.78517 2.97908 0
M  V30 10449 C 962.901 2.93571 3.11449 0
M  V30 10450 C 962.227 2.86674 4.51356 0
M  V30 10451 C 963.527 4.34308 2.90127 0
M  V30 10452 H 965.221 2.63329 1.42472 0
M  V30 10453 H 962.767 1.2672 0.683969 0
M  V30 10454 H 964.72 1.91544 3.75352 0
M  V30 10455 H 963.444 0.823381 3.16051 0
M  V30 10456 H 962.103 2.80169 2.36433 0
M  V30 10457 H 961.751 1.88373 4.66395 0
M  V30 10458 H 961.451 3.63903 4.61355 0
M  V30 10459 H 962.975 3.01728 5.30841 0
M  V30 10460 H 964.389 4.48317 3.57331 0
M  V30 10461 H 962.786 5.12869 3.11585 0
M  V30 10462 H 963.856 4.47759 1.86119 0
M  V30 10463 N 965.199 -0.738761 1.39212 0
M  V30 10464 C 966.427 -1.52801 1.39497 0
M  V30 10465 C 966.842 -1.88797 -0.0114917 0
M  V30 10466 O 966.199 -1.53835 -0.981887 0
M  V30 10467 C 966.25 -2.81793 2.2644 0
M  V30 10468 O 965.971 -2.47328 3.61608 0
M  V30 10469 C 967.472 -3.75844 2.35067 0
M  V30 10470 H 964.692 -0.472322 0.476606 0
M  V30 10471 H 967.236 -0.913153 1.8298 0
M  V30 10472 H 965.391 -3.3962 1.8638 0
M  V30 10473 H 965.805 -3.30162 4.07545 0
M  V30 10474 H 967.279 -4.6326 3.00157 0
M  V30 10475 H 967.756 -4.17329 1.3687 0
M  V30 10476 H 968.362 -3.23937 2.75581 0
M  V30 10477 N 966.677 -1.24326 -0.968545 0
M  V30 10478 C 967.923 -1.08406 -1.71394 0
M  V30 10479 C 968.256 0.376353 -1.90518 0
M  V30 10480 O 967.531 1.27816 -1.46606 0
M  V30 10481 C 967.814 -1.82344 -3.1052 0
M  V30 10482 C 967.667 -3.3613 -2.98893 0
M  V30 10483 C 968.986 -1.59545 -4.10163 0
M  V30 10484 H 966.105 -0.395205 -0.622079 0
M  V30 10485 H 968.747 -1.52983 -1.12677 0
M  V30 10486 H 966.897 -1.44452 -3.60646 0
M  V30 10487 H 968.569 -3.83614 -2.56199 0
M  V30 10488 H 966.812 -3.64553 -2.35124 0
M  V30 10489 H 967.483 -3.83064 -3.97449 0
M  V30 10490 H 969.959 -1.92504 -3.68892 0
M  V30 10491 H 968.835 -2.13736 -5.05577 0
M  V30 10492 H 969.096 -0.533503 -4.38869 0
M  V30 10493 N 968.156 1.1691 -1.05688 0
M  V30 10494 C 969.404 1.86922 -0.768409 0
M  V30 10495 C 969.725 1.81735 0.706921 0
M  V30 10496 O 968.995 1.24671 1.51109 0
M  V30 10497 H 967.575 0.69203 -0.281253 0
M  V30 10498 H 970.237 1.41803 -1.33708 0
M  V30 10499 H 969.333 2.92528 -1.08783 0
M  V30 10500 N 969.634 0.838594 1.33437 0
M  V30 10501 C 970.862 0.447644 2.01999 0
M  V30 10502 C 971.277 -0.951053 1.63096 0
M  V30 10503 O 970.634 -1.61802 0.844169 0
M  V30 10504 C 970.685 0.558378 3.57162 0
M  V30 10505 O 970.406 1.90196 3.94661 0
M  V30 10506 C 971.907 0.164348 4.42995 0
M  V30 10507 H 969.127 0.177736 0.647032 0
M  V30 10508 H 971.671 1.13109 1.70372 0
M  V30 10509 H 969.826 -0.0771563 3.87323 0
M  V30 10510 H 970.24 1.88729 4.89369 0
M  V30 10511 H 971.714 0.292876 5.51222 0
M  V30 10512 H 972.191 -0.893713 4.30011 0
M  V30 10513 H 972.797 0.774306 4.18192 0
M  V30 10514 N 971.112 -1.45937 0.595003 0
M  V30 10515 C 972.042 -2.33198 -0.11871 0
M  V30 10516 C 973.023 -1.46083 -0.871423 0
M  V30 10517 O 974.208 -1.74879 -0.844461 0
M  V30 10518 C 971.338 -3.28576 -1.12495 0
M  V30 10519 C 970.292 -4.25229 -0.486275 0
M  V30 10520 C 969.618 -5.10204 -1.59986 0
M  V30 10521 C 970.918 -5.19019 0.584473 0
M  V30 10522 H 972.612 -2.93122 0.609886 0
M  V30 10523 H 970.158 -1.40951 0.294742 0
M  V30 10524 H 972.111 -3.88485 -1.6327 0
M  V30 10525 H 970.835 -2.66784 -1.88398 0
M  V30 10526 H 969.494 -3.666 0.000507962 0
M  V30 10527 H 969.142 -4.44789 -2.34886 0
M  V30 10528 H 968.842 -5.75669 -1.1781 0
M  V30 10529 H 970.366 -5.7298 -2.11014 0
M  V30 10530 H 971.78 -5.73073 0.161297 0
M  V30 10531 H 970.177 -5.92893 0.927256 0
M  V30 10532 H 971.247 -4.62208 1.46601 0
M  V30 10533 N 972.59 -0.333456 -1.54032 0
M  V30 10534 C 973.867 0.320902 -1.9295 0
M  V30 10535 C 974.247 1.69071 -1.26405 0
M  V30 10536 O 973.595 2.24768 -0.411311 0
M  V30 10537 C 973.805 0.403257 -3.46662 0
M  V30 10538 C 975.153 0.658875 -4.19457 0
M  V30 10539 O 976.177 0.485781 -3.52872 0
M  V30 10540 O 975.036 0.993475 -5.37394 0
M  V30 10541 H 972.13 0.185158 -0.806006 0
M  V30 10542 H 974.676 -0.383895 -1.65301 0
M  V30 10543 H 973.448 -0.558409 -3.87295 0
M  V30 10544 H 973.071 1.15524 -3.80447 0
M  V30 10545 N 974.068 1.57479 -0.061844 0
M  V30 10546 C 975.316 1.92727 0.608336 0
M  V30 10547 C 975.637 0.941799 1.70749 0
M  V30 10548 O 974.907 -0.0116608 1.95897 0
M  V30 10549 H 973.487 0.71145 0.2277 0
M  V30 10550 H 976.149 1.94546 -0.117359 0
M  V30 10551 H 975.245 2.9426 1.04007 0
M  V30 10552 N 975.546 -0.211634 1.56173 0
M  V30 10553 C 976.509 -1.24588 1.92381 0
M  V30 10554 C 977.509 -1.39297 0.803311 0
M  V30 10555 O 978.699 -1.37392 1.07094 0
M  V30 10556 C 975.831 -2.61807 2.18335 0
M  V30 10557 H 977.024 -0.936814 2.84893 0
M  V30 10558 H 974.577 -0.452471 1.49607 0
M  V30 10559 H 975.312 -2.97795 1.28407 0
M  V30 10560 H 975.097 -2.52506 2.99972 0
M  V30 10561 H 976.587 -3.3642 2.4741 0
M  V30 10562 N 977.024 -1.50153 -0.478725 0
M  V30 10563 C 977.972 -1.68975 -1.59844 0
M  V30 10564 C 978.966 -0.555591 -1.6003 0
M  V30 10565 O 980.172 -0.735875 -1.64271 0
M  V30 10566 H 976.547 -0.533211 -0.530274 0
M  V30 10567 H 978.518 -2.62917 -1.41128 0
M  V30 10568 C 977.267 -1.79409 -2.97838 0
M  V30 10569 H 976.59 -2.66066 -2.98411 0
M  V30 10570 H 978.03 -1.96606 -3.75662 0
M  V30 10571 C 976.489 -0.543927 -3.3248 0
M  V30 10572 O 977.019 0.320376 -4.0042 0
M  V30 10573 N 975.225 -0.400217 -2.87831 0
M  V30 10574 H 974.772 -1.10458 -2.32716 0
M  V30 10575 H 974.73 0.435111 -3.11375 0
M  V30 10576 N 978.502 0.731368 -1.39602 0
M  V30 10577 C 979.748 1.49321 -1.37227 0
M  V30 10578 C 980.081 1.94176 0.0306502 0
M  V30 10579 O 979.356 1.67046 0.996294 0
M  V30 10580 C 979.639 2.73035 -2.34784 0
M  V30 10581 C 979.492 2.34176 -3.84033 0
M  V30 10582 C 980.811 3.75146 -2.30116 0
M  V30 10583 H 977.93 0.541652 -0.499783 0
M  V30 10584 H 980.572 0.835968 -1.70621 0
M  V30 10585 H 978.722 3.29114 -2.06437 0
M  V30 10586 H 980.394 1.83701 -4.23145 0
M  V30 10587 H 978.637 1.66361 -4.00633 0
M  V30 10588 H 979.308 3.22786 -4.47787 0
M  V30 10589 H 981.784 3.28661 -2.55189 0
M  V30 10590 H 980.66 4.5937 -3.00451 0
M  V30 10591 H 980.921 4.22326 -1.30741 0
M  V30 10592 N 979.98 1.24838 0.961938 0
M  V30 10593 C 980.89 1.06304 2.09133 0
M  V30 10594 C 981.906 0.00221475 1.74 0
M  V30 10595 O 983.082 0.201611 2.00388 0
M  V30 10596 C 980.147 0.676117 3.40043 0
M  V30 10597 C 979.208 1.81407 3.89089 0
M  V30 10598 C 978.441 1.44551 5.13752 0
M  V30 10599 O 978.664 0.337894 5.69398 0
M  V30 10600 O 977.598 2.27316 5.57325 0
M  V30 10601 H 981.424 2.01001 2.27667 0
M  V30 10602 H 979.009 1.0371 1.07539 0
M  V30 10603 H 980.891 0.472124 4.18747 0
M  V30 10604 H 979.566 -0.241667 3.22797 0
M  V30 10605 H 978.473 2.07286 3.11421 0
M  V30 10606 H 979.806 2.71083 4.10822 0
M  V30 10607 N 981.458 -1.16348 1.06306 0
M  V30 10608 C 982.707 -1.8622 0.774909 0
M  V30 10609 C 983.02 -1.82598 -0.701245 0
M  V30 10610 O 984.226 -2.48051 -1.10377 0
M  V30 10611 C 982.682 -3.34182 1.33604 0
M  V30 10612 C 982.29 -3.46279 2.84245 0
M  V30 10613 C 984.034 -4.09309 1.12544 0
M  V30 10614 C 981.941 -4.88327 3.33602 0
M  V30 10615 H 980.871 -0.697574 0.286194 0
M  V30 10616 H 983.522 -1.31311 1.28179 0
M  V30 10617 H 981.904 -3.88698 0.756937 0
M  V30 10618 H 983.078 -3.01923 3.48108 0
M  V30 10619 H 981.393 -2.84585 3.03974 0
M  V30 10620 H 983.99 -5.14123 1.46909 0
M  V30 10621 H 984.333 -4.16251 0.0638129 0
M  V30 10622 H 984.866 -3.61032 1.67034 0
M  V30 10623 H 981.605 -4.86565 4.39244 0
M  V30 10624 H 981.125 -5.33307 2.74487 0
M  V30 10625 H 982.804 -5.57144 3.28937 0
M  V30 10626 N 982.937 -0.845659 -1.3299 0
M  V30 10627 C 983.9 -0.288905 -2.27372 0
M  V30 10628 C 984.9 0.546263 -1.51237 0
M  V30 10629 O 986.09 0.359072 -1.70459 0
M  V30 10630 C 983.222 0.59224 -3.35716 0
M  V30 10631 H 984.415 -1.12181 -2.78128 0
M  V30 10632 H 981.968 -0.619276 -1.43508 0
M  V30 10633 H 982.703 1.44732 -2.90212 0
M  V30 10634 H 982.488 -0.00543255 -3.921 0
M  V30 10635 H 983.978 0.974848 -4.06062 0
M  V30 10636 N 984.415 1.45619 -0.602734 0
M  V30 10637 C 985.325 2.34288 0.120902 0
M  V30 10638 C 986.341 1.50952 0.865414 0
M  V30 10639 O 987.517 1.83768 0.824094 0
M  V30 10640 C 984.582 3.28489 1.10888 0
M  V30 10641 C 983.643 4.2773 0.366853 0
M  V30 10642 C 982.876 5.17429 1.30776 0
M  V30 10643 O 983.099 5.10459 2.54535 0
M  V30 10644 O 982.033 5.96459 0.807464 0
M  V30 10645 H 985.859 2.97559 -0.60765 0
M  V30 10646 H 983.444 1.44922 -0.363019 0
M  V30 10647 H 985.326 3.86549 1.67803 0
M  V30 10648 H 984.001 2.67789 1.81854 0
M  V30 10649 H 982.908 3.73299 -0.244643 0
M  V30 10650 H 984.241 4.91271 -0.302226 0
M  V30 10651 N 985.893 0.34162 1.53853 0
M  V30 10652 C 986.84 -0.516058 2.24957 0
M  V30 10653 C 987.81 -1.09711 1.2471 0
M  V30 10654 O 988.995 -1.13409 1.53438 0
M  V30 10655 C 986.135 -1.66207 3.02439 0
M  V30 10656 C 985.248 -1.10851 4.17536 0
M  V30 10657 C 984.383 -2.22167 4.82509 0
M  V30 10658 C 983.422 -1.64152 5.89678 0
M  V30 10659 N 982.559 -2.69203 6.4844 0
M  V30 10660 H 987.399 0.0968275 2.97843 0
M  V30 10661 H 984.936 0.0595565 1.46979 0
M  V30 10662 H 986.894 -2.33672 3.4562 0
M  V30 10663 H 985.524 -2.24597 2.31853 0
M  V30 10664 H 984.576 -0.324853 3.7901 0
M  V30 10665 H 985.888 -0.644151 4.94623 0
M  V30 10666 H 985.042 -2.97501 5.28751 0
M  V30 10667 H 983.781 -2.71946 4.04842 0
M  V30 10668 H 982.786 -0.873228 5.42821 0
M  V30 10669 H 984.011 -1.15228 6.69253 0
M  V30 10670 H 981.957 -3.1824 5.73637 0
M  V30 10671 H 981.874 -2.27383 7.20994 0
M  V30 10672 H 983.142 -3.44312 6.99335 0
M  V30 10673 N 987.371 -1.57444 0.0701946 0
M  V30 10674 C 988.617 -1.93716 -0.600178 0
M  V30 10675 C 988.95 -0.950329 -1.69359 0
M  V30 10676 O 988.225 0.0207123 -1.94489 0
M  V30 10677 C 988.508 -3.40266 -1.17861 0
M  V30 10678 C 988.361 -4.49706 -0.0919575 0
M  V30 10679 C 989.68 -3.87599 -2.08459 0
M  V30 10680 H 986.799 -0.704421 -0.216704 0
M  V30 10681 H 989.441 -1.89514 0.135838 0
M  V30 10682 H 987.591 -3.43977 -1.80587 0
M  V30 10683 H 989.263 -4.58116 0.541031 0
M  V30 10684 H 987.506 -4.29937 0.577639 0
M  V30 10685 H 988.177 -5.49381 -0.537048 0
M  V30 10686 H 990.653 -3.85883 -1.5567 0
M  V30 10687 H 989.529 -4.90755 -2.45867 0
M  V30 10688 H 989.79 -3.25448 -2.99226 0
M  V30 10689 N 988.849 0.203349 -1.56283 0
M  V30 10690 C 990.097 0.923183 -1.79782 0
M  V30 10691 C 990.418 1.84134 -0.64185 0
M  V30 10692 O 989.688 1.92922 0.340292 0
M  V30 10693 H 988.268 0.343881 -0.66314 0
M  V30 10694 H 990.93 0.210837 -1.93756 0
M  V30 10695 H 990.026 1.51921 -2.72629 0
M  V30 10696 N 990.327 1.50405 0.470755 0
M  V30 10697 C 991.237 1.7208 1.59454 0
M  V30 10698 C 992.253 0.603932 1.63183 0
M  V30 10699 O 993.429 0.882296 1.81046 0
M  V30 10700 C 990.494 1.81057 2.95667 0
M  V30 10701 C 989.555 3.04792 3.02324 0
M  V30 10702 C 988.788 3.13332 4.3204 0
M  V30 10703 O 989.011 2.28655 5.22564 0
M  V30 10704 O 987.945 4.0606 4.44296 0
M  V30 10705 H 991.771 2.67343 1.44089 0
M  V30 10706 H 989.356 1.34505 0.650286 0
M  V30 10707 H 991.238 1.8914 3.76569 0
M  V30 10708 H 989.913 0.889782 3.11231 0
M  V30 10709 H 988.82 3.0221 2.205 0
M  V30 10710 H 990.153 3.96451 2.91698 0
M  V30 10711 N 991.805 -0.723954 1.39988 0
M  V30 10712 C 992.715 -1.86829 1.41887 0
M  V30 10713 C 993.731 -1.71173 0.312401 0
M  V30 10714 O 994.907 -1.93583 0.555651 0
M  V30 10715 C 991.972 -3.22541 1.27154 0
M  V30 10716 C 991.033 -3.50512 2.47871 0
M  V30 10717 C 990.266 -4.79749 2.33831 0
M  V30 10718 O 990.489 -5.54251 1.34765 0
M  V30 10719 O 989.423 -5.07868 3.23039 0
M  V30 10720 H 993.249 -1.88183 2.38371 0
M  V30 10721 H 990.834 -0.873259 1.21221 0
M  V30 10722 H 992.716 -4.0362 1.21114 0
M  V30 10723 H 991.391 -3.21933 0.337715 0
M  V30 10724 H 990.298 -2.69475 2.59488 0
M  V30 10725 H 991.631 -3.55909 3.39985 0
M  V30 10726 N 993.283 -1.25346 -0.955304 0
M  V30 10727 C 994.231 -1.05461 -2.07318 0
M  V30 10728 C 995.225 0.0142699 -1.69394 0
M  V30 10729 O 996.431 -0.141292 -1.79445 0
M  V30 10730 H 992.806 -0.324095 -0.678577 0
M  V30 10731 H 994.777 -2.00231 -2.21247 0
M  V30 10732 C 993.526 -0.689329 -3.40798 0
M  V30 10733 H 992.849 -1.50362 -3.70447 0
M  V30 10734 H 994.289 -0.589883 -4.19877 0
M  V30 10735 C 992.748 0.604556 -3.31431 0
M  V30 10736 O 993.278 1.64686 -3.6639 0
M  V30 10737 N 991.484 0.589927 -2.84549 0
M  V30 10738 H 991.031 -0.258647 -2.56298 0
M  V30 10739 H 990.989 1.4558 -2.78664 0
M  V30 10740 N 994.761 1.15782 -1.06922 0
M  V30 10741 C 996.01 1.85807 -0.784774 0
M  V30 10742 C 996.323 1.82967 0.691551 0
M  V30 10743 O 997.529 2.48632 1.0906 0
M  V30 10744 C 995.985 3.33469 -1.35375 0
M  V30 10745 C 995.593 3.44766 -2.86077 0
M  V30 10746 C 997.337 4.08707 -1.14713 0
M  V30 10747 C 995.244 4.86551 -3.36187 0
M  V30 10748 H 994.174 0.696046 -0.28989 0
M  V30 10749 H 996.825 1.30629 -1.28873 0
M  V30 10750 H 995.207 3.88292 -0.77754 0
M  V30 10751 H 996.381 3.00073 -3.49704 0
M  V30 10752 H 994.696 2.82969 -3.05479 0
M  V30 10753 H 997.293 5.13336 -1.49633 0
M  V30 10754 H 997.636 4.16211 -0.0858868 0
M  V30 10755 H 998.169 3.60142 -1.68946 0
M  V30 10756 H 994.908 4.84229 -4.41818 0
M  V30 10757 H 994.428 5.31844 -2.77312 0
M  V30 10758 H 996.107 5.55392 -3.31887 0
M  V30 10759 N 996.239 0.8527 1.3254 0
M  V30 10760 C 997.486 0.455123 1.97319 0
M  V30 10761 C 997.814 -0.988814 1.67489 0
M  V30 10762 O 997.069 -1.70845 0.954483 0
M  V30 10763 C 997.368 0.638757 3.51646 0
M  V30 10764 C 997.034 2.05287 4.01458 0
M  V30 10765 C 995.696 2.43963 4.14771 0
M  V30 10766 C 998.048 2.9759 4.27889 0
M  V30 10767 C 995.376 3.7422 4.51859 0
M  V30 10768 C 997.728 4.27343 4.66434 0
M  V30 10769 C 996.392 4.65957 4.77954 0
M  V30 10770 H 995.662 0.166541 0.722042 0
M  V30 10771 H 998.309 1.08238 1.57977 0
M  V30 10772 H 996.614 -0.0717394 3.91734 0
M  V30 10773 H 998.311 0.311219 3.9979 0
M  V30 10774 H 994.901 1.74253 3.91579 0
M  V30 10775 H 999.085 2.68942 4.17114 0
M  V30 10776 H 994.341 4.03923 4.58973 0
M  V30 10777 H 998.515 4.9893 4.85841 0
M  V30 10778 H 996.142 5.66934 5.06449 0
M  V30 10779 N 997.718 -1.45297 0.610449 0
M  V30 10780 C 998.967 -2.0143 0.104323 0
M  V30 10781 C 999.28 -1.48431 -1.27388 0
M  V30 10782 O 1000.49 -1.96558 -1.87289 0
M  V30 10783 C 998.942 -3.59644 0.135812 0
M  V30 10784 C 998.55 -4.2164 1.51405 0
M  V30 10785 C 1000.29 -4.2333 -0.314922 0
M  V30 10786 C 998.201 -5.72015 1.50176 0
M  V30 10787 H 997.131 -0.753176 0.035233 0
M  V30 10788 H 999.782 -1.66738 0.7662 0
M  V30 10789 H 998.164 -3.91538 -0.592773 0
M  V30 10790 H 999.338 -4.01315 2.26457 0
M  V30 10791 H 997.653 -3.70159 1.90712 0
M  V30 10792 H 1000.25 -5.33597 -0.343335 0
M  V30 10793 H 1000.59 -3.94206 -1.33817 0
M  V30 10794 H 1001.13 -3.96163 0.360489 0
M  V30 10795 H 997.865 -6.05842 2.50271 0
M  V30 10796 H 997.385 -5.94523 0.793869 0
M  V30 10797 H 999.064 -6.35266 1.22665 0
M  V30 10798 N 999.196 -0.349774 -1.5367 0
M  V30 10799 C 1000.44 0.244827 -2.01015 0
M  V30 10800 C 1000.77 1.50057 -1.23746 0
M  V30 10801 O 1000.03 1.9315 -0.314872 0
M  V30 10802 C 1000.32 0.598311 -3.52356 0
M  V30 10803 C 999.991 -0.56127 -4.47393 0
M  V30 10804 C 998.653 -0.879481 -4.73095 0
M  V30 10805 C 1001 -1.3389 -5.03709 0
M  V30 10806 C 998.333 -1.97758 -5.52366 0
M  V30 10807 C 1000.68 -2.4273 -5.84179 0
M  V30 10808 C 999.349 -2.75103 -6.08173 0
M  V30 10809 H 998.619 0.0895884 -0.735564 0
M  V30 10810 H 1001.27 -0.478975 -1.85413 0
M  V30 10811 H 999.571 1.40291 -3.65822 0
M  V30 10812 H 1001.27 1.07036 -3.86451 0
M  V30 10813 H 997.858 -0.303201 -4.27526 0
M  V30 10814 H 1002.04 -1.10632 -4.83812 0
M  V30 10815 H 997.298 -2.23257 -5.6918 0
M  V30 10816 H 1001.47 -3.03412 -6.26828 0
M  V30 10817 H 999.099 -3.60317 -6.69385 0
M  V30 10818 N 1000.67 1.57404 -0.0785433 0
M  V30 10819 C 1001.92 1.93361 0.58786 0
M  V30 10820 C 1002.24 0.959856 1.6974 0
M  V30 10821 O 1001.51 0.0091173 1.95898 0
M  V30 10822 H 1000.09 0.713825 0.220141 0
M  V30 10823 H 1002.75 1.94411 -0.137986 0
M  V30 10824 H 1001.85 2.95346 1.00881 0
M  V30 10825 N 1002.15 -0.195058 1.56388 0
M  V30 10826 C 1003.1 -1.24584 1.90952 0
M  V30 10827 C 1004.09 -1.40993 0.77522 0
M  V30 10828 O 1005.28 -1.43363 1.03808 0
M  V30 10829 C 1002.41 -2.59064 2.25258 0
M  V30 10830 C 1001.49 -2.46447 3.45145 0
M  V30 10831 N 1001.88 -2.0351 4.63052 0
M  V30 10832 C 1000.18 -2.77339 3.49283 0
M  V30 10833 C 1000.88 -2.02785 5.45209 0
M  V30 10834 N 999.859 -2.4429 4.85616 0
M  V30 10835 H 1003.66 -0.9052 2.79613 0
M  V30 10836 H 1001.17 -0.403493 1.57308 0
M  V30 10837 H 1003.17 -3.34963 2.48205 0
M  V30 10838 H 1001.83 -2.93951 1.37924 0
M  V30 10839 H 1002.84 -1.74219 4.87717 0
M  V30 10840 H 999.52 -3.16423 2.72365 0
M  V30 10841 H 1000.91 -1.71489 6.49647 0
M  V30 10842 N 1003.63 -1.50653 -0.462772 0
M  V30 10843 C 1004.86 -1.65826 -1.23731 0
M  V30 10844 C 1005.27 -0.345002 -1.85621 0
M  V30 10845 O 1004.63 0.673935 -1.69601 0
M  V30 10846 C 1004.68 -2.7555 -2.33997 0
M  V30 10847 O 1004.4 -4.01785 -1.74643 0
M  V30 10848 C 1005.9 -3.0177 -3.2473 0
M  V30 10849 H 1003.12 -0.557177 -0.373892 0
M  V30 10850 H 1005.67 -1.96925 -0.551434 0
M  V30 10851 H 1003.82 -2.47122 -2.98345 0
M  V30 10852 H 1004.24 -4.62529 -2.4732 0
M  V30 10853 H 1005.71 -3.82188 -3.98292 0
M  V30 10854 H 1006.19 -2.13167 -3.84001 0
M  V30 10855 H 1006.79 -3.31761 -2.66111 0
M  V30 10856 N 1005.11 0.71652 -1.4037 0
M  V30 10857 C 1006.35 1.47857 -1.38803 0
M  V30 10858 C 1006.69 1.94197 0.0100536 0
M  V30 10859 O 1005.96 1.68093 0.978521 0
M  V30 10860 C 1006.25 2.7053 -2.37667 0
M  V30 10861 C 1006.1 2.3009 -3.86496 0
M  V30 10862 C 1007.42 3.72684 -2.34082 0
M  V30 10863 H 1004.54 0.53632 -0.505499 0
M  V30 10864 H 1007.18 0.817824 -1.71498 0
M  V30 10865 H 1005.33 3.26906 -2.09916 0
M  V30 10866 H 1007 1.79202 -4.2507 0
M  V30 10867 H 1005.24 1.62102 -4.02375 0
M  V30 10868 H 1005.91 3.18018 -4.51186 0
M  V30 10869 H 1008.39 3.25935 -2.58661 0
M  V30 10870 H 1007.27 4.56157 -3.05306 0
M  V30 10871 H 1007.53 4.20916 -1.35213 0
M  V30 10872 N 1006.59 1.25851 0.948643 0
M  V30 10873 C 1007.5 1.08516 2.07994 0
M  V30 10874 C 1008.51 0.0206696 1.73988 0
M  V30 10875 O 1009.69 0.222854 2.00163 0
M  V30 10876 C 1006.75 0.712145 3.39307 0
M  V30 10877 C 1005.81 1.85523 3.87143 0
M  V30 10878 C 1005.05 1.49992 5.1219 0
M  V30 10879 O 1005.27 0.398268 5.69008 0
M  V30 10880 O 1004.2 2.33215 5.54882 0
M  V30 10881 H 1008.03 2.03405 2.25522 0
M  V30 10882 H 1005.62 1.04844 1.06433 0
M  V30 10883 H 1007.5 0.516512 4.18223 0
M  V30 10884 H 1006.17 -0.207416 3.23035 0
M  V30 10885 H 1005.08 2.10578 3.09205 0
M  V30 10886 H 1006.41 2.75425 4.07924 0
M  V30 10887 N 1008.06 -1.15214 1.07534 0
M  V30 10888 C 1009 -2.19634 0.655261 0
M  V30 10889 C 1010.01 -1.60139 -0.293165 0
M  V30 10890 O 1011.2 -1.78311 -0.0821957 0
M  V30 10891 C 1008.3 -3.38851 -0.0578281 0
M  V30 10892 C 1007.47 -4.27888 0.90725 0
M  V30 10893 C 1006.53 -5.25692 0.231115 0
M  V30 10894 O 1005.56 -5.62469 0.872746 0
M  V30 10895 N 1006.76 -5.71424 -1.0225 0
M  V30 10896 H 1009.52 -2.56292 1.55353 0
M  V30 10897 H 1007.08 -1.30347 0.960271 0
M  V30 10898 H 1009.08 -4.01334 -0.520874 0
M  V30 10899 H 1007.65 -3.00593 -0.858071 0
M  V30 10900 H 1006.87 -3.62475 1.54937 0
M  V30 10901 H 1008.15 -4.84246 1.56151 0
M  V30 10902 H 1007.55 -5.43659 -1.56369 0
M  V30 10903 H 1006.11 -6.35938 -1.42919 0
M  V30 10904 N 1009.54 -0.859717 -1.32086 0
M  V30 10905 C 1010.79 -0.466271 -1.97367 0
M  V30 10906 C 1011.12 0.976728 -1.6785 0
M  V30 10907 O 1010.4 1.68618 -0.969449 0
M  V30 10908 C 1010.68 -0.711851 -3.52994 0
M  V30 10909 C 1010.53 -2.20364 -3.92122 0
M  V30 10910 C 1011.85 -0.17156 -4.39765 0
M  V30 10911 H 1008.97 -0.170883 -0.716916 0
M  V30 10912 H 1011.61 -1.07907 -1.56384 0
M  V30 10913 H 1009.76 -0.190258 -3.88034 0
M  V30 10914 H 1011.43 -2.7917 -3.67236 0
M  V30 10915 H 1009.68 -2.68019 -3.41099 0
M  V30 10916 H 1010.35 -2.32615 -5.00594 0
M  V30 10917 H 1012.82 -0.617665 -4.1149 0
M  V30 10918 H 1011.7 -0.372921 -5.47632 0
M  V30 10919 H 1011.96 0.925959 -4.32294 0
M  V30 10920 N 1011.02 1.44971 -0.618145 0
M  V30 10921 C 1011.97 2.30606 0.09449 0
M  V30 10922 C 1012.94 1.42725 0.849633 0
M  V30 10923 O 1014.12 1.71643 0.833266 0
M  V30 10924 C 1011.26 3.27803 1.07886 0
M  V30 10925 C 1010.38 4.30787 0.323488 0
M  V30 10926 C 1009.51 5.15085 1.29851 0
M  V30 10927 C 1008.55 6.09788 0.531561 0
M  V30 10928 N 1007.69 6.86829 1.4564 0
M  V30 10929 H 1012.53 2.91008 -0.641738 0
M  V30 10930 H 1010.06 1.43391 -0.328259 0
M  V30 10931 H 1012.02 3.82631 1.66281 0
M  V30 10932 H 1010.65 2.69131 1.78237 0
M  V30 10933 H 1009.7 3.78536 -0.376164 0
M  V30 10934 H 1011.02 4.98044 -0.274443 0
M  V30 10935 H 1010.17 5.74365 1.95421 0
M  V30 10936 H 1008.91 4.4787 1.93037 0
M  V30 10937 H 1007.91 5.49628 -0.137702 0
M  V30 10938 H 1009.14 6.79033 -0.0953993 0
M  V30 10939 H 1007.08 6.22295 2.07571 0
M  V30 10940 H 1007 7.50477 0.912167 0
M  V30 10941 H 1008.27 7.50642 2.10134 0
M  V30 10942 N 1012.5 0.357919 1.53482 0
M  V30 10943 C 1013.46 -0.479797 2.24122 0
M  V30 10944 C 1014.46 -1.01596 1.24639 0
M  V30 10945 O 1015.65 -0.902928 1.48973 0
M  V30 10946 C 1012.78 -1.66983 2.97203 0
M  V30 10947 H 1013.98 0.138219 2.99581 0
M  V30 10948 H 1011.53 0.109484 1.55916 0
M  V30 10949 H 1012.26 -2.32615 2.25966 0
M  V30 10950 H 1012.05 -1.29242 3.70188 0
M  V30 10951 H 1013.54 -2.26367 3.50924 0
M  V30 10952 N 1013.98 -1.5736 0.0868897 0
M  V30 10953 C 1015.23 -1.93229 -0.578387 0
M  V30 10954 C 1015.54 -0.970127 -1.69847 0
M  V30 10955 O 1016.74 -1.22222 -2.42434 0
M  V30 10956 C 1015.2 -3.43307 -1.0802 0
M  V30 10957 C 1014.81 -4.47999 0.00968135 0
M  V30 10958 C 1016.55 -3.88151 -1.71868 0
M  V30 10959 C 1014.46 -5.89223 -0.507029 0
M  V30 10960 H 1013.39 -0.721245 -0.219823 0
M  V30 10961 H 1016.04 -1.82787 0.161566 0
M  V30 10962 H 1014.42 -3.48873 -1.87359 0
M  V30 10963 H 1015.6 -4.54067 0.784865 0
M  V30 10964 H 1013.91 -4.12714 0.552845 0
M  V30 10965 H 1016.51 -4.91056 -2.11585 0
M  V30 10966 H 1016.85 -3.26347 -2.58464 0
M  V30 10967 H 1017.38 -3.85252 -0.991259 0
M  V30 10968 H 1014.12 -6.54708 0.322121 0
M  V30 10969 H 1013.64 -5.86643 -1.2494 0
M  V30 10970 H 1015.32 -6.39556 -0.978628 0
M  V30 10971 N 1015.45 0.186762 -1.56489 0
M  V30 10972 C 1016.38 1.23395 -1.98232 0
M  V30 10973 C 1017.37 1.4702 -0.855526 0
M  V30 10974 O 1018.55 1.58616 -1.12048 0
M  V30 10975 C 1015.68 2.57635 -2.32898 0
M  V30 10976 C 1014.63 2.48607 -3.48394 0
M  V30 10977 C 1013.96 3.87196 -3.68759 0
M  V30 10978 C 1015.26 2.00398 -4.82325 0
M  V30 10979 H 1016.95 0.887026 -2.85958 0
M  V30 10980 H 1014.5 0.42525 -1.37578 0
M  V30 10981 H 1016.45 3.31082 -2.60696 0
M  V30 10982 H 1015.18 2.94084 -1.42064 0
M  V30 10983 H 1013.84 1.77615 -3.207 0
M  V30 10984 H 1013.48 4.21012 -2.75241 0
M  V30 10985 H 1013.18 3.82029 -4.46462 0
M  V30 10986 H 1014.71 4.62253 -3.98941 0
M  V30 10987 H 1016.12 2.6361 -5.091 0
M  V30 10988 H 1014.52 2.06214 -5.63556 0
M  V30 10989 H 1015.59 0.957562 -4.75351 0
M  V30 10990 N 1016.93 1.50896 0.454776 0
M  V30 10991 C 1017.9 1.70377 1.53312 0
M  V30 10992 C 1018.9 0.57408 1.50203 0
M  V30 10993 O 1020.09 0.841374 1.52534 0
M  V30 10994 C 1017.22 1.74411 2.92905 0
M  V30 10995 H 1018.41 2.66599 1.37349 0
M  V30 10996 H 1015.96 1.40622 0.68228 0
M  V30 10997 H 1016.7 0.799408 3.14293 0
M  V30 10998 H 1016.48 2.56496 2.96568 0
M  V30 10999 H 1017.97 1.91382 3.71164 0
M  V30 11000 N 1018.41 -0.709066 1.40748 0
M  V30 11001 C 1019.36 -1.82312 1.4153 0
M  V30 11002 C 1020.33 -1.63868 0.271392 0
M  V30 11003 O 1021.51 -1.8491 0.470431 0
M  V30 11004 C 1018.65 -3.2008 1.29006 0
M  V30 11005 C 1017.77 -3.50051 2.53156 0
M  V30 11006 C 1016.9 -4.7736 2.33025 0
M  V30 11007 C 1015.94 -5.00255 3.52719 0
M  V30 11008 N 1015.08 -6.18782 3.31743 0
M  V30 11009 H 1019.92 -1.80978 2.36751 0
M  V30 11010 H 1017.45 -0.883975 1.17577 0
M  V30 11011 H 1019.41 -3.99645 1.19749 0
M  V30 11012 H 1018.04 -3.20626 0.374014 0
M  V30 11013 H 1017.09 -2.64993 2.72916 0
M  V30 11014 H 1018.41 -3.62877 3.42231 0
M  V30 11015 H 1017.56 -5.64954 2.21159 0
M  V30 11016 H 1016.3 -4.66756 1.41386 0
M  V30 11017 H 1015.3 -4.11114 3.65055 0
M  V30 11018 H 1016.53 -5.12728 4.45295 0
M  V30 11019 H 1014.47 -6.09416 2.42791 0
M  V30 11020 H 1014.39 -6.32313 4.14386 0
M  V30 11021 H 1015.66 -7.09146 3.23623 0
M  V30 11022 N 1019.89 -1.26353 -0.941956 0
M  V30 11023 C 1021.14 -1.1163 -1.68473 0
M  V30 11024 C 1021.46 0.34108 -1.91994 0
M  V30 11025 O 1020.73 1.24065 -1.51607 0
M  V30 11026 H 1019.31 -0.410113 -0.624353 0
M  V30 11027 H 1021.97 -1.58669 -1.13182 0
M  V30 11028 H 1021.07 -1.63445 -2.6588 0
M  V30 11029 N 1021.37 1.14642 -1.08144 0
M  V30 11030 C 1022.6 1.89209 -0.82966 0
M  V30 11031 C 1023.01 1.78697 0.621604 0
M  V30 11032 O 1022.35 1.14224 1.4387 0
M  V30 11033 C 1022.41 3.39958 -1.16915 0
M  V30 11034 C 1022.07 3.74254 -2.62264 0
M  V30 11035 C 1023.07 3.746 -3.60514 0
M  V30 11036 C 1020.76 4.04316 -2.9805 0
M  V30 11037 C 1022.75 4.04527 -4.92582 0
M  V30 11038 C 1020.44 4.33906 -4.30312 0
M  V30 11039 C 1021.44 4.33995 -5.27388 0
M  V30 11040 O 1021.12 4.62869 -6.57273 0
M  V30 11041 H 1020.86 0.606259 -0.299042 0
M  V30 11042 H 1023.41 1.46132 -1.44342 0
M  V30 11043 H 1021.64 3.83475 -0.498377 0
M  V30 11044 H 1023.33 3.95828 -0.89862 0
M  V30 11045 H 1024.09 3.51466 -3.34211 0
M  V30 11046 H 1019.97 4.03402 -2.23132 0
M  V30 11047 H 1023.52 4.04511 -5.68346 0
M  V30 11048 H 1019.41 4.5651 -4.56365 0
M  V30 11049 H 1020.18 4.80598 -6.62546 0
M  V30 11050 N 1022.85 0.866709 1.31628 0
M  V30 11051 C 1024.12 0.396828 1.91532 0
M  V30 11052 C 1024.5 -1.12081 1.78889 0
M  V30 11053 O 1023.85 -1.94791 1.19452 0
M  V30 11054 C 1024.06 0.874578 3.37864 0
M  V30 11055 C 1025.41 0.8988 4.14978 0
M  V30 11056 O 1026.43 0.820014 3.46633 0
M  V30 11057 O 1025.29 1.01223 5.37044 0
M  V30 11058 H 1022.39 0.1181 0.818524 0
M  V30 11059 H 1024.93 0.954407 1.40318 0
M  V30 11060 H 1023.7 1.91807 3.41066 0
M  V30 11061 H 1023.33 0.295126 3.96503 0
M  V30 11062 N 1024.32 -1.44642 0.625825 0
M  V30 11063 C 1025.73 -1.85502 0.211175 0
M  V30 11064 C 1026.09 -1.52356 -1.2362 0
M  V30 11065 O 1025.21 -0.959051 -1.93988 0
M  V30 11066 C 1025.81 -3.36702 0.37648 0
M  V30 11067 C 1024.36 -3.76396 0.0163795 0
M  V30 11068 C 1023.51 -2.68517 0.692368 0
M  V30 11069 H 1026.46 -1.35183 0.831333 0
M  V30 11070 H 1026.48 -3.78536 -0.386106 0
M  V30 11071 H 1026 -3.60795 1.42999 0
M  V30 11072 H 1024.1 -3.57919 -1.0356 0
M  V30 11073 H 1024.21 -4.77231 0.422742 0
M  V30 11074 H 1022.57 -2.54377 0.128191 0
M  V30 11075 H 1023.36 -2.95444 1.74837 0
M  V30 11076 N 1025.8 -0.366053 -1.5329 0
M  V30 11077 C 1027.05 0.223824 -2.01561 0
M  V30 11078 C 1027.38 1.48382 -1.25286 0
M  V30 11079 O 1026.66 1.91385 -0.34669 0
M  V30 11080 C 1026.94 0.5153 -3.56394 0
M  V30 11081 C 1026.79 -0.758357 -4.43361 0
M  V30 11082 C 1028.11 1.31568 -4.19974 0
M  V30 11083 H 1025.23 0.0798751 -0.732659 0
M  V30 11084 H 1027.87 -0.491038 -1.83545 0
M  V30 11085 H 1026.02 1.12429 -3.71876 0
M  V30 11086 H 1027.69 -1.39584 -4.39675 0
M  V30 11087 H 1025.94 -1.37862 -4.11311 0
M  V30 11088 H 1026.61 -0.509366 -5.49645 0
M  V30 11089 H 1029.08 0.800514 -4.08327 0
M  V30 11090 H 1027.96 1.48837 -5.28336 0
M  V30 11091 H 1028.22 2.32432 -3.76069 0
M  V30 11092 N 1027.28 1.57312 -0.0952337 0
M  V30 11093 C 1028.23 2.14032 0.863657 0
M  V30 11094 C 1029.2 1.0589 1.27971 0
M  V30 11095 O 1030.38 1.33678 1.36143 0
M  V30 11096 C 1027.52 2.72513 2.11733 0
M  V30 11097 C 1026.63 3.94887 1.7518 0
M  V30 11098 C 1025.77 4.41533 2.95334 0
M  V30 11099 C 1024.81 5.56496 2.54908 0
M  V30 11100 N 1023.95 5.97993 3.67897 0
M  V30 11101 H 1028.79 2.95655 0.373115 0
M  V30 11102 H 1026.32 1.46085 0.172497 0
M  V30 11103 H 1028.28 3.04539 2.85153 0
M  V30 11104 H 1026.91 1.93618 2.58287 0
M  V30 11105 H 1025.96 3.69175 0.917279 0
M  V30 11106 H 1027.27 4.78322 1.41455 0
M  V30 11107 H 1026.43 4.75343 3.77007 0
M  V30 11108 H 1025.17 3.56999 3.3227 0
M  V30 11109 H 1024.17 5.22314 1.71662 0
M  V30 11110 H 1025.4 6.42779 2.19117 0
M  V30 11111 H 1023.34 5.16405 4.04551 0
M  V30 11112 H 1023.26 6.76225 3.38018 0
M  V30 11113 H 1024.53 6.36434 4.5008 0
M  V30 11114 N 1028.76 -0.17846 1.56586 0
M  V30 11115 C 1030 -0.892915 1.82753 0
M  V30 11116 C 1030.36 -1.8018 0.674744 0
M  V30 11117 O 1029.65 -1.8875 -0.329219 0
M  V30 11118 C 1029.85 -1.73063 3.12704 0
M  V30 11119 C 1029.67 -0.904341 4.40513 0
M  V30 11120 C 1028.44 -0.582221 5.01935 0
M  V30 11121 C 1030.64 -0.249232 5.13696 0
M  V30 11122 N 1028.62 0.260955 6.13345 0
M  V30 11123 C 1030 0.455417 6.18325 0
M  V30 11124 C 1032.05 -0.166663 4.97621 0
M  V30 11125 C 1030.75 1.23479 7.08622 0
M  V30 11126 C 1032.78 0.599362 5.88355 0
M  V30 11127 C 1032.14 1.2924 6.92442 0
M  V30 11128 H 1028.24 -0.30559 0.719818 0
M  V30 11129 H 1030.82 -0.160405 1.94038 0
M  V30 11130 H 1029 -2.43461 3.02624 0
M  V30 11131 H 1030.73 -2.38584 3.26894 0
M  V30 11132 H 1027.48 -0.910612 4.64763 0
M  V30 11133 H 1027.91 0.672643 6.7365 0
M  V30 11134 H 1032.55 -0.688116 4.17163 0
M  V30 11135 H 1030.27 1.76762 7.88531 0
M  V30 11136 H 1033.85 0.664826 5.77989 0
M  V30 11137 H 1032.73 1.87564 7.61439 0
M  V30 11138 N 1030.24 -1.51135 -0.446768 0
M  V30 11139 C 1031.65 -1.39101 -0.782504 0
M  V30 11140 C 1031.85 -0.46599 -1.96038 0
M  V30 11141 O 1030.91 0.0823679 -2.52366 0
M  V30 11142 C 1032.22 -2.80953 -1.07173 0
M  V30 11143 C 1033.77 -2.90038 -1.17673 0
M  V30 11144 C 1034.24 -4.32777 -1.49894 0
M  V30 11145 N 1035.73 -4.3584 -1.56837 0
M  V30 11146 C 1036.47 -5.43305 -1.83322 0
M  V30 11147 N 1035.97 -6.60945 -2.07662 0
M  V30 11148 N 1037.76 -5.30775 -1.85026 0
M  V30 11149 H 1029.91 -2.09835 0.329114 0
M  V30 11150 H 1032.17 -0.944199 0.0848054 0
M  V30 11151 H 1031.88 -3.50591 -0.279037 0
M  V30 11152 H 1031.75 -3.197 -2.00179 0
M  V30 11153 H 1034.14 -2.20603 -1.96005 0
M  V30 11154 H 1034.22 -2.54801 -0.225892 0
M  V30 11155 H 1033.86 -5.02757 -0.720924 0
M  V30 11156 H 1033.79 -4.6552 -2.46168 0
M  V30 11157 H 1036.29 -3.51023 -1.39968 0
M  V30 11158 H 1036.6 -7.38643 -2.27214 0
M  V30 11159 H 1034.94 -6.64077 -2.05003 0
M  V30 11160 H 1038.13 -4.37858 -1.65523 0
M  V30 11161 H 1038.31 -6.14609 -2.05329 0
M  V30 11162 N 1031.71 0.701592 -1.41122 0
M  V30 11163 C 1032.66 1.81559 -1.42495 0
M  V30 11164 C 1033.63 1.63722 -0.280078 0
M  V30 11165 O 1034.82 1.84658 -0.480231 0
M  V30 11166 C 1031.96 3.19392 -1.30702 0
M  V30 11167 C 1031.07 3.48704 -2.55009 0
M  V30 11168 C 1030.2 4.76118 -2.35554 0
M  V30 11169 C 1029.24 4.98378 -3.55367 0
M  V30 11170 N 1028.38 6.17014 -3.3502 0
M  V30 11171 H 1033.22 1.7972 -2.37707 0
M  V30 11172 H 1030.76 0.877727 -1.18044 0
M  V30 11173 H 1032.71 3.99004 -1.21867 0
M  V30 11174 H 1031.34 3.20423 -0.391012 0
M  V30 11175 H 1030.4 2.63542 -2.74317 0
M  V30 11176 H 1031.71 3.61057 -3.44151 0
M  V30 11177 H 1030.86 5.63774 -2.24152 0
M  V30 11178 H 1029.6 4.66 -1.43859 0
M  V30 11179 H 1028.61 4.09172 -3.6723 0
M  V30 11180 H 1029.83 5.10359 -4.48007 0
M  V30 11181 H 1027.78 6.0812 -2.4602 0
M  V30 11182 H 1027.69 6.30107 -4.17733 0
M  V30 11183 H 1028.96 7.0742 -3.27379 0
M  V30 11184 N 1033.19 1.2685 0.935242 0
M  V30 11185 C 1034.14 1.08923 2.03481 0
M  V30 11186 C 1035.11 -0.00749786 1.66098 0
M  V30 11187 O 1036.29 0.153401 1.90182 0
M  V30 11188 C 1033.43 0.734529 3.37192 0
M  V30 11189 C 1032.55 1.90812 3.87576 0
M  V30 11190 C 1031.68 1.49599 5.097 0
M  V30 11191 C 1030.72 2.63752 5.5236 0
M  V30 11192 N 1029.86 2.23179 6.65684 0
M  V30 11193 H 1034.7 2.03016 2.18148 0
M  V30 11194 H 1032.23 1.01072 1.06878 0
M  V30 11195 H 1034.19 0.509734 4.14074 0
M  V30 11196 H 1032.82 -0.169438 3.22355 0
M  V30 11197 H 1031.87 2.24567 3.0704 0
M  V30 11198 H 1033.19 2.7647 4.1517 0
M  V30 11199 H 1032.34 1.23199 5.9406 0
M  V30 11200 H 1031.08 0.61039 4.83865 0
M  V30 11201 H 1030.08 2.90874 4.66554 0
M  V30 11202 H 1031.31 3.5292 5.80193 0
M  V30 11203 H 1029.26 1.37061 6.41522 0
M  V30 11204 H 1029.17 3.02379 6.92895 0
M  V30 11205 H 1030.44 2.00007 7.53404 0
M  V30 11206 N 1034.67 -1.14067 1.0875 0
M  V30 11207 C 1035.95 -1.81389 0.73195 0
M  V30 11208 C 1036.33 -1.96005 -0.78391 0
M  V30 11209 O 1035.68 -1.52267 -1.70373 0
M  V30 11210 C 1035.89 -3.16858 1.46294 0
M  V30 11211 C 1037.23 -3.92305 1.62426 0
M  V30 11212 O 1038.26 -3.26459 1.42488 0
M  V30 11213 O 1037.12 -5.10393 1.9535 0
M  V30 11214 H 1034.21 -0.784354 0.262141 0
M  V30 11215 H 1036.76 -1.21054 1.18929 0
M  V30 11216 H 1035.53 -3.01404 2.49542 0
M  V30 11217 H 1035.15 -3.84889 0.997318 0
M  V30 11218 N 1036.15 -0.873678 -1.31166 0
M  V30 11219 C 1037.1 -0.330288 -2.28424 0
M  V30 11220 C 1038.07 0.573299 -1.55893 0
M  V30 11221 O 1039.25 0.504143 -1.84019 0
M  V30 11222 C 1036.39 0.459004 -3.42034 0
M  V30 11223 C 1035.5 -0.472519 -4.29408 0
M  V30 11224 C 1034.64 0.331261 -5.30166 0
M  V30 11225 C 1033.68 -0.596453 -6.09187 0
M  V30 11226 N 1032.81 0.171305 -7.01891 0
M  V30 11227 H 1037.65 -1.16485 -2.7429 0
M  V30 11228 H 1035.19 -0.585813 -1.34932 0
M  V30 11229 H 1037.15 0.932432 -4.06647 0
M  V30 11230 H 1035.78 1.25824 -2.97268 0
M  V30 11231 H 1034.83 -1.06441 -3.65205 0
M  V30 11232 H 1036.14 -1.18372 -4.84551 0
M  V30 11233 H 1035.3 0.867038 -6.00473 0
M  V30 11234 H 1034.04 1.07573 -4.75688 0
M  V30 11235 H 1033.04 -1.14395 -5.37767 0
M  V30 11236 H 1034.27 -1.33983 -6.65752 0
M  V30 11237 H 1032.21 0.89852 -6.49817 0
M  V30 11238 H 1032.13 -0.480481 -7.54472 0
M  V30 11239 H 1033.4 0.688192 -7.76456 0
M  V30 11240 N 1037.63 1.44308 -0.633487 0
M  V30 11241 C 1038.87 2.02322 -0.139123 0
M  V30 11242 C 1039.21 1.49733 1.23667 0
M  V30 11243 O 1038.48 0.682353 1.82138 0
M  V30 11244 C 1038.76 3.59871 -0.128366 0
M  V30 11245 C 1038.62 4.22737 -1.53667 0
M  V30 11246 C 1039.94 4.36702 0.545834 0
M  V30 11247 H 1037.05 0.735161 -0.0520293 0
M  V30 11248 H 1039.7 1.7185 -0.810411 0
M  V30 11249 H 1037.85 3.85963 0.443263 0
M  V30 11250 H 1039.52 4.07744 -2.15737 0
M  V30 11251 H 1037.76 3.80142 -2.08985 0
M  V30 11252 H 1038.43 5.31757 -1.48116 0
M  V30 11253 H 1040.91 4.16057 0.0596879 0
M  V30 11254 H 1039.78 5.46407 0.522557 0
M  V30 11255 H 1040.05 4.11483 1.6166 0
M  V30 11256 N 1039.1 0.374177 1.53094 0
M  V30 11257 C 1040.03 -0.459976 2.28925 0
M  V30 11258 C 1041.02 -1.07656 1.31698 0
M  V30 11259 O 1042.2 -1.09219 1.60577 0
M  V30 11260 C 1039.33 -1.5954 3.08487 0
M  V30 11261 C 1038.28 -1.10563 4.13473 0
M  V30 11262 C 1037.61 -2.33196 4.81169 0
M  V30 11263 C 1038.91 -0.184275 5.21975 0
M  V30 11264 H 1040.6 0.172692 2.98902 0
M  V30 11265 H 1038.15 0.0844956 1.43752 0
M  V30 11266 H 1040.1 -2.18565 3.60288 0
M  V30 11267 H 1038.83 -2.25543 2.36216 0
M  V30 11268 H 1037.49 -0.53801 3.62631 0
M  V30 11269 H 1037.13 -2.97675 4.05461 0
M  V30 11270 H 1036.83 -2.01094 5.52119 0
M  V30 11271 H 1038.36 -2.92892 5.35767 0
M  V30 11272 H 1039.77 -0.682262 5.69226 0
M  V30 11273 H 1038.17 0.0462746 6.00082 0
M  V30 11274 H 1039.24 0.771152 4.78729 0
M  V30 11275 N 1040.58 -1.57259 0.103575 0
M  V30 11276 C 1041.86 -1.86143 -0.600852 0
M  V30 11277 C 1042.24 -1.00198 -1.85805 0
M  V30 11278 O 1041.59 -0.0766791 -2.28371 0
M  V30 11279 C 1041.8 -3.36978 -0.908108 0
M  V30 11280 C 1043.15 -4.05228 -1.26788 0
M  V30 11281 O 1044.17 -3.41908 -0.998859 0
M  V30 11282 O 1043.03 -5.16971 -1.7721 0
M  V30 11283 H 1040.12 -0.770064 -0.301547 0
M  V30 11284 H 1042.67 -1.69147 0.136914 0
M  V30 11285 H 1041.44 -3.91296 -0.0165615 0
M  V30 11286 H 1041.06 -3.5935 -1.70156 0
M  V30 11287 N 1042.06 0.170153 -1.56679 0
M  V30 11288 C 1043.02 1.19443 -1.95617 0
M  V30 11289 C 1044.02 1.37118 -0.83996 0
M  V30 11290 O 1045.21 1.34504 -1.10699 0
M  V30 11291 C 1042.35 2.55926 -2.25199 0
M  V30 11292 H 1043.54 0.86095 -2.87276 0
M  V30 11293 H 1041.09 0.412646 -1.50755 0
M  V30 11294 H 1041.83 2.94286 -1.36257 0
M  V30 11295 H 1041.61 2.44464 -3.06562 0
M  V30 11296 H 1043.1 3.29742 -2.56242 0
M  V30 11297 N 1043.54 1.5137 0.438746 0
M  V30 11298 C 1044.78 1.64211 1.19006 0
M  V30 11299 C 1045.12 0.356607 1.90898 0
M  V30 11300 O 1044.39 -0.643722 1.83539 0
M  V30 11301 C 1044.68 2.8445 2.20817 0
M  V30 11302 C 1044.53 4.22972 1.53018 0
M  V30 11303 C 1045.85 3.00207 3.21813 0
M  V30 11304 H 1042.97 0.597628 0.431288 0
M  V30 11305 H 1045.61 1.8385 0.479487 0
M  V30 11306 H 1043.76 2.67836 2.81418 0
M  V30 11307 H 1045.43 4.5125 0.957654 0
M  V30 11308 H 1043.67 4.25736 0.832556 0
M  V30 11309 H 1044.34 5.03094 2.27158 0
M  V30 11310 H 1046.82 3.15522 2.71266 0
M  V30 11311 H 1045.7 3.85904 3.90345 0
M  V30 11312 H 1045.96 2.12216 3.87836 0
M  V30 11313 N 1045.02 -0.694098 1.41492 0
M  V30 11314 C 1045.95 -1.82042 1.46229 0
M  V30 11315 C 1046.93 -1.67047 0.320803 0
M  V30 11316 O 1048.11 -1.86758 0.53245 0
M  V30 11317 C 1045.24 -3.2019 1.34519 0
M  V30 11318 C 1044.2 -3.49892 2.46495 0
M  V30 11319 C 1043.52 -4.87411 2.1985 0
M  V30 11320 C 1044.82 -3.4872 3.88834 0
M  V30 11321 H 1046.52 -1.78335 2.40493 0
M  V30 11322 H 1044.06 -0.856566 1.15754 0
M  V30 11323 H 1046.02 -3.98699 1.36445 0
M  V30 11324 H 1044.74 -3.24527 0.367406 0
M  V30 11325 H 1043.4 -2.73734 2.43854 0
M  V30 11326 H 1043.05 -4.88375 1.20411 0
M  V30 11327 H 1042.75 -5.08248 2.94885 0
M  V30 11328 H 1044.27 -5.68228 2.23494 0
M  V30 11329 H 1045.68 -4.1723 3.93182 0
M  V30 11330 H 1044.08 -3.81089 4.63564 0
M  V30 11331 H 1045.15 -2.47665 4.16881 0
M  V30 11332 N 1046.49 -1.27344 -0.928501 0
M  V30 11333 C 1047.44 -1.10001 -2.029 0
M  V30 11334 C 1048.41 -0.00131084 -1.661 0
M  V30 11335 O 1049.6 -0.163485 -1.90098 0
M  V30 11336 C 1046.74 -0.7524 -3.36798 0
M  V30 11337 C 1045.85 -1.92865 -3.86558 0
M  V30 11338 C 1044.98 -1.52299 -5.08899 0
M  V30 11339 C 1044.02 -2.66677 -5.50953 0
M  V30 11340 N 1043.16 -2.26706 -6.64491 0
M  V30 11341 H 1048 -2.0417 -2.17068 0
M  V30 11342 H 1045.54 -1.01637 -1.0634 0
M  V30 11343 H 1047.5 -0.531687 -4.13798 0
M  V30 11344 H 1046.13 0.15234 -3.2244 0
M  V30 11345 H 1045.18 -2.26192 -3.05845 0
M  V30 11346 H 1046.49 -2.78668 -4.13698 0
M  V30 11347 H 1045.64 -1.26348 -5.93398 0
M  V30 11348 H 1044.38 -0.636042 -4.83535 0
M  V30 11349 H 1043.39 -2.93344 -4.65004 0
M  V30 11350 H 1044.61 -3.55992 -5.78313 0
M  V30 11351 H 1042.56 -1.40462 -6.40786 0
M  V30 11352 H 1042.48 -3.06049 -6.91281 0
M  V30 11353 H 1043.74 -2.04 -7.52333 0
M  V30 11354 N 1047.97 1.13488 -1.09353 0
M  V30 11355 C 1048.88 2.2248 -0.744307 0
M  V30 11356 C 1049.9 1.72145 0.253404 0
M  V30 11357 O 1051.07 2.01176 0.0949339 0
M  V30 11358 C 1048.14 3.46286 -0.16928 0
M  V30 11359 C 1047.2 4.11516 -1.22284 0
M  V30 11360 C 1046.43 5.29412 -0.675161 0
M  V30 11361 O 1046.66 5.68185 0.502182 0
M  V30 11362 O 1045.59 5.8467 -1.42983 0
M  V30 11363 H 1049.42 2.54723 -1.65378 0
M  V30 11364 H 1047 1.21607 -0.867879 0
M  V30 11365 H 1048.88 4.2114 0.14811 0
M  V30 11366 H 1047.56 3.15745 0.713214 0
M  V30 11367 H 1046.47 3.38492 -1.59292 0
M  V30 11368 H 1047.8 4.46186 -2.07796 0
M  V30 11369 N 1049.45 0.880621 1.30701 0
M  V30 11370 C 1050.38 0.360251 2.30704 0
M  V30 11371 C 1051.36 -0.554572 1.60806 0
M  V30 11372 O 1052.55 -0.469345 1.88443 0
M  V30 11373 C 1049.68 -0.429888 3.44629 0
M  V30 11374 C 1048.63 0.392786 4.26194 0
M  V30 11375 C 1047.96 -0.52369 5.32129 0
M  V30 11376 C 1049.26 1.63258 4.96129 0
M  V30 11377 H 1050.95 1.19591 2.74478 0
M  V30 11378 H 1048.5 0.576508 1.31956 0
M  V30 11379 H 1050.45 -0.804532 4.13649 0
M  V30 11380 H 1049.17 -1.29916 2.99649 0
M  V30 11381 H 1047.83 0.749514 3.58856 0
M  V30 11382 H 1047.48 -1.39054 4.83397 0
M  V30 11383 H 1047.18 0.0229272 5.87596 0
M  V30 11384 H 1048.71 -0.894946 6.04006 0
M  V30 11385 H 1050.12 1.32877 5.57689 0
M  V30 11386 H 1048.52 2.11906 5.61441 0
M  V30 11387 H 1049.59 2.37944 4.22505 0
M  V30 11388 N 1050.93 -1.4397 0.641131 0
M  V30 11389 C 1051.84 -2.34526 -0.058742 0
M  V30 11390 C 1052.86 -1.53194 -0.825088 0
M  V30 11391 O 1054.03 -1.85888 -0.775081 0
M  V30 11392 C 1051.1 -3.31313 -1.02139 0
M  V30 11393 C 1050.16 -4.28552 -0.253319 0
M  V30 11394 C 1049.39 -5.20715 -1.17012 0
M  V30 11395 O 1049.61 -5.17028 -2.40911 0
M  V30 11396 O 1048.55 -5.9839 -0.649039 0
M  V30 11397 H 1052.37 -2.95843 0.686329 0
M  V30 11398 H 1049.96 -1.43909 0.401316 0
M  V30 11399 H 1051.84 -3.90862 -1.57496 0
M  V30 11400 H 1050.52 -2.72516 -1.7469 0
M  V30 11401 H 1049.42 -3.72519 0.343531 0
M  V30 11402 H 1050.76 -4.90297 0.432372 0
M  V30 11403 N 1052.41 -0.382291 -1.52893 0
M  V30 11404 C 1053.63 0.204961 -2.06385 0
M  V30 11405 C 1054.06 1.40316 -1.25271 0
M  V30 11406 O 1053.42 1.79187 -0.275969 0
M  V30 11407 C 1053.46 0.560205 -3.56222 0
M  V30 11408 O 1052.57 1.65515 -3.77728 0
M  V30 11409 H 1051.91 0.0258798 -0.663495 0
M  V30 11410 H 1054.44 -0.547733 -1.97132 0
M  V30 11411 H 1054.45 0.826501 -3.99541 0
M  V30 11412 H 1053.12 -0.31584 -4.14699 0
M  V30 11413 H 1051.7 1.38311 -3.46301 0
M  V30 11414 N 1053.89 1.57202 -0.111913 0
M  V30 11415 C 1055.13 1.94565 0.546713 0
M  V30 11416 C 1055.45 0.995644 1.67666 0
M  V30 11417 O 1054.72 0.0506681 1.95834 0
M  V30 11418 H 1053.3 0.718334 0.204951 0
M  V30 11419 H 1055.97 1.94074 -0.179193 0
M  V30 11420 H 1055.06 2.9742 0.945931 0
M  V30 11421 N 1055.36 -0.161842 1.56767 0
M  V30 11422 C 1056.31 -1.2002 1.97139 0
M  V30 11423 C 1057.28 -1.43486 0.836713 0
M  V30 11424 O 1058.47 -1.56069 1.0976 0
M  V30 11425 C 1055.61 -2.53228 2.34456 0
M  V30 11426 C 1054.72 -2.37062 3.61145 0
M  V30 11427 C 1053.85 -3.63202 3.87631 0
M  V30 11428 C 1052.89 -3.42008 5.07638 0
M  V30 11429 N 1052.03 -4.60242 5.30209 0
M  V30 11430 H 1056.87 -0.848918 2.85653 0
M  V30 11431 H 1054.41 -0.407753 1.41336 0
M  V30 11432 H 1056.36 -3.30879 2.54116 0
M  V30 11433 H 1054.99 -2.86333 1.4904 0
M  V30 11434 H 1054.05 -1.50539 3.49345 0
M  V30 11435 H 1055.36 -2.17353 4.48953 0
M  V30 11436 H 1054.51 -4.49285 4.0771 0
M  V30 11437 H 1053.25 -3.85899 2.98216 0
M  V30 11438 H 1052.26 -2.54312 4.87448 0
M  V30 11439 H 1053.48 -3.20724 5.98593 0
M  V30 11440 H 1051.43 -4.8314 4.43747 0
M  V30 11441 H 1051.34 -4.43481 6.12259 0
M  V30 11442 H 1052.61 -5.47581 5.54775 0
M  V30 11443 N 1056.84 -1.516 -0.430713 0
M  V30 11444 C 1058.07 -1.68169 -1.20011 0
M  V30 11445 C 1058.48 -0.381406 -1.85316 0
M  V30 11446 O 1057.82 0.6506 -1.71793 0
M  V30 11447 C 1057.88 -2.7454 -2.32095 0
M  V30 11448 C 1057.55 -4.16942 -1.87104 0
M  V30 11449 C 1058.55 -5.01503 -1.37078 0
M  V30 11450 C 1056.23 -4.63075 -1.94594 0
M  V30 11451 C 1058.22 -6.3026 -0.951362 0
M  V30 11452 C 1055.91 -5.91827 -1.52264 0
M  V30 11453 C 1056.91 -6.75247 -1.02618 0
M  V30 11454 O 1056.6 -8.01591 -0.608905 0
M  V30 11455 H 1056.33 -0.567361 -0.367528 0
M  V30 11456 H 1058.88 -1.98819 -0.515759 0
M  V30 11457 H 1057.11 -2.39219 -3.03828 0
M  V30 11458 H 1058.8 -2.79921 -2.93937 0
M  V30 11459 H 1059.57 -4.67063 -1.30681 0
M  V30 11460 H 1055.45 -3.98262 -2.32182 0
M  V30 11461 H 1058.99 -6.95323 -0.563163 0
M  V30 11462 H 1054.89 -6.2578 -1.58333 0
M  V30 11463 H 1055.66 -8.15201 -0.73416 0
M  V30 11464 N 1058.32 0.686584 -1.41858 0
M  V30 11465 C 1059.54 1.4802 -1.45275 0
M  V30 11466 C 1059.97 1.87997 -0.0621297 0
M  V30 11467 O 1059.33 1.55226 0.936733 0
M  V30 11468 C 1059.38 2.7133 -2.37513 0
M  V30 11469 O 1058.48 3.69159 -1.83836 0
M  V30 11470 H 1057.82 0.445152 -0.492682 0
M  V30 11471 H 1060.35 0.843161 -1.86419 0
M  V30 11472 H 1060.36 3.19537 -2.53693 0
M  V30 11473 H 1059.04 2.41571 -3.3855 0
M  V30 11474 H 1057.61 3.28134 -1.77151 0
M  V30 11475 N 1059.8 1.27835 0.921735 0
M  V30 11476 C 1061.07 1.05238 1.64877 0
M  V30 11477 C 1061.45 -0.410921 2.07062 0
M  V30 11478 O 1060.8 -1.39538 1.80946 0
M  V30 11479 C 1061.01 2.01955 2.84632 0
M  V30 11480 C 1062.36 2.31657 3.55837 0
M  V30 11481 O 1063.38 1.99975 2.94768 0
M  V30 11482 O 1062.24 2.85692 4.65878 0
M  V30 11483 H 1059.34 0.401622 0.72293 0
M  V30 11484 H 1061.88 1.39123 0.971744 0
M  V30 11485 H 1060.66 3.00614 2.50494 0
M  V30 11486 H 1060.28 1.68667 3.60052 0
M  V30 11487 N 1061.28 -1.12907 1.09954 0
M  V30 11488 C 1062.52 -1.83941 0.837255 0
M  V30 11489 C 1062.84 -1.84234 -0.638984 0
M  V30 11490 O 1062.11 -1.30193 -1.46378 0
M  V30 11491 H 1060.69 -0.681115 0.306743 0
M  V30 11492 H 1063.36 -1.36743 1.38879 0
M  V30 11493 H 1062.45 -2.88289 1.19565 0
M  V30 11494 N 1062.75 -0.88754 -1.30232 0
M  V30 11495 C 1064.03 -0.427249 -1.90877 0
M  V30 11496 C 1064.41 1.0922 -1.80649 0
M  V30 11497 O 1063.76 1.92866 -1.22536 0
M  V30 11498 C 1063.97 -0.928219 -3.3643 0
M  V30 11499 C 1065.32 -0.964706 -4.13496 0
M  V30 11500 O 1066.34 -0.875057 -3.45284 0
M  V30 11501 O 1065.2 -1.09754 -5.35366 0
M  V30 11502 H 1062.29 -0.131107 -0.816541 0
M  V30 11503 H 1064.84 -0.976609 -1.38782 0
M  V30 11504 H 1063.61 -1.97209 -3.37971 0
M  V30 11505 H 1063.23 -0.358169 -3.95983 0
M  V30 11506 N 1064.23 1.43628 -0.648757 0
M  V30 11507 C 1065.18 2.30755 0.0455536 0
M  V30 11508 C 1066.15 1.44495 0.819168 0
M  V30 11509 O 1067.33 1.73372 0.79667 0
M  V30 11510 C 1064.47 3.30017 1.00908 0
M  V30 11511 C 1063.59 4.31376 0.232039 0
M  V30 11512 C 1062.72 5.17723 1.18897 0
M  V30 11513 C 1061.76 6.10778 0.402096 0
M  V30 11514 N 1060.9 6.89763 1.31038 0
M  V30 11515 H 1065.74 2.89581 -0.70332 0
M  V30 11516 H 1063.28 1.42662 -0.3586 0
M  V30 11517 H 1065.23 3.86072 1.58128 0
M  V30 11518 H 1063.86 2.72851 1.72488 0
M  V30 11519 H 1062.92 3.77652 -0.456373 0
M  V30 11520 H 1064.23 4.9735 -0.380023 0
M  V30 11521 H 1063.38 5.78381 1.83194 0
M  V30 11522 H 1062.12 4.51864 1.83494 0
M  V30 11523 H 1061.13 5.49212 -0.254255 0
M  V30 11524 H 1062.35 6.78678 -0.239411 0
M  V30 11525 H 1060.3 6.26557 1.94324 0
M  V30 11526 H 1060.21 7.52243 0.752774 0
M  V30 11527 H 1061.48 7.54931 1.94164 0
M  V30 11528 N 1065.71 0.390394 1.52688 0
M  V30 11529 C 1066.66 -0.461191 2.23287 0
M  V30 11530 C 1067.64 -1.02875 1.23716 0
M  V30 11531 O 1068.84 -0.954675 1.49047 0
M  V30 11532 C 1065.97 -1.58736 3.04397 0
M  V30 11533 C 1065.05 -1.03149 4.11365 0
M  V30 11534 N 1065.44 -0.20066 5.05402 0
M  V30 11535 C 1063.74 -1.30388 4.26515 0
M  V30 11536 C 1064.44 0.106548 5.81602 0
M  V30 11537 N 1063.42 -0.497687 5.41317 0
M  V30 11538 H 1067.22 0.1801 2.93348 0
M  V30 11539 H 1064.73 0.199761 1.61167 0
M  V30 11540 H 1066.73 -2.20986 3.53512 0
M  V30 11541 H 1065.39 -2.23147 2.35872 0
M  V30 11542 H 1066.4 0.162168 5.17646 0
M  V30 11543 H 1063.08 -1.94894 3.69219 0
M  V30 11544 H 1064.47 0.779778 6.6736 0
M  V30 11545 N 1067.19 -1.57141 0.120249 0
M  V30 11546 C 1068.15 -2.14213 -0.815185 0
M  V30 11547 C 1069.15 -1.07731 -1.19376 0
M  V30 11548 O 1070.34 -1.33502 -1.11906 0
M  V30 11549 C 1067.47 -2.68339 -2.10255 0
M  V30 11550 H 1068.67 -2.98197 -0.319166 0
M  V30 11551 H 1066.22 -1.55767 -0.128997 0
M  V30 11552 H 1066.95 -1.87946 -2.64285 0
M  V30 11553 H 1066.74 -3.46216 -1.84057 0
M  V30 11554 H 1068.23 -3.124 -2.77121 0
M  V30 11555 N 1068.67 0.153526 -1.5685 0
M  V30 11556 C 1069.91 0.867232 -1.8299 0
M  V30 11557 C 1070.24 1.81462 -0.700125 0
M  V30 11558 O 1069.5 1.93207 0.311348 0
M  V30 11559 C 1069.8 1.68066 -3.15418 0
M  V30 11560 C 1069.46 0.880635 -4.42217 0
M  V30 11561 C 1068.12 0.659899 -4.76654 0
M  V30 11562 C 1070.48 0.320698 -5.20212 0
M  V30 11563 C 1067.8 -0.131588 -5.86552 0
M  V30 11564 C 1070.16 -0.457794 -6.30941 0
M  V30 11565 C 1068.82 -0.689168 -6.63933 0
M  V30 11566 H 1068.09 0.317343 -0.669608 0
M  V30 11567 H 1070.74 0.131208 -1.9105 0
M  V30 11568 H 1069.04 2.4866 -3.02779 0
M  V30 11569 H 1070.74 2.23623 -3.32857 0
M  V30 11570 H 1067.33 1.06274 -4.15215 0
M  V30 11571 H 1071.51 0.47853 -4.93988 0
M  V30 11572 H 1066.77 -0.320413 -6.1056 0
M  V30 11573 H 1070.94 -0.898839 -6.90575 0
M  V30 11574 H 1068.57 -1.30433 -7.48927 0
M  V30 11575 N 1070.14 1.51827 0.422667 0
M  V30 11576 C 1071.42 1.55772 1.18299 0
M  V30 11577 C 1071.8 0.330657 2.08494 0
M  V30 11578 O 1071.15 -0.683373 2.18042 0
M  V30 11579 C 1071.36 2.87941 1.97208 0
M  V30 11580 C 1072.71 3.4044 2.53744 0
M  V30 11581 O 1073.73 2.8959 2.07403 0
M  V30 11582 O 1072.59 4.29201 3.38303 0
M  V30 11583 H 1069.68 0.626889 0.539388 0
M  V30 11584 H 1072.23 1.64147 0.430545 0
M  V30 11585 H 1071 3.68702 1.31052 0
M  V30 11586 H 1070.63 2.82795 2.79486 0
M  V30 11587 N 1071.62 -0.679052 1.4222 0
M  V30 11588 C 1072.55 -1.80455 1.41311 0
M  V30 11589 C 1073.57 -1.59767 0.312799 0
M  V30 11590 O 1074.76 -1.68964 0.575612 0
M  V30 11591 C 1071.86 -3.17492 1.18541 0
M  V30 11592 C 1071.03 -3.65066 2.40926 0
M  V30 11593 C 1070.09 -4.80823 2.13765 0
M  V30 11594 O 1069.11 -4.91587 2.86934 0
M  V30 11595 N 1070.32 -5.69233 1.13813 0
M  V30 11596 H 1073.08 -1.81722 2.38322 0
M  V30 11597 H 1070.64 -0.861988 1.37045 0
M  V30 11598 H 1072.63 -3.92581 0.982958 0
M  V30 11599 H 1071.2 -3.1115 0.300691 0
M  V30 11600 H 1070.42 -2.80702 2.76767 0
M  V30 11601 H 1071.71 -3.93593 3.22431 0
M  V30 11602 H 1071.11 -5.63185 0.532887 0
M  V30 11603 H 1069.67 -6.44152 0.995554 0
M  V30 11604 N 1073.1 -1.28322 -0.914942 0
M  V30 11605 C 1074.03 -1.06469 -2.01841 0
M  V30 11606 C 1075.01 0.0188681 -1.62589 0
M  V30 11607 O 1076.2 -0.128825 -1.88059 0
M  V30 11608 C 1073.32 -0.617685 -3.3302 0
M  V30 11609 C 1072.37 -1.6977 -3.91255 0
M  V30 11610 S 1073.2 -3.29337 -4.22253 0
M  V30 11611 C 1074.36 -2.86468 -5.56495 0
M  V30 11612 H 1074.59 -1.99893 -2.20068 0
M  V30 11613 H 1072.12 -1.12297 -1.05966 0
M  V30 11614 H 1074.08 -0.366481 -4.08861 0
M  V30 11615 H 1072.74 0.296709 -3.12695 0
M  V30 11616 H 1071.94 -1.33653 -4.85956 0
M  V30 11617 H 1071.54 -1.90164 -3.22046 0
M  V30 11618 H 1073.83 -2.32565 -6.36333 0
M  V30 11619 H 1074.77 -3.79962 -5.97523 0
M  V30 11620 H 1075.18 -2.2522 -5.17626 0
M  V30 11621 N 1074.58 1.12322 -1.10551 0
M  V30 11622 C 1075.51 2.20176 -0.777486 0
M  V30 11623 C 1076.49 1.68252 0.250069 0
M  V30 11624 O 1077.67 1.93856 0.115574 0
M  V30 11625 C 1074.8 3.46666 -0.209822 0
M  V30 11626 C 1073.76 4.11749 -1.1682 0
M  V30 11627 C 1073.08 5.32703 -0.461684 0
M  V30 11628 C 1074.38 4.57746 -2.51527 0
M  V30 11629 H 1076.08 2.47872 -1.67928 0
M  V30 11630 H 1073.62 1.19136 -0.808863 0
M  V30 11631 H 1075.58 4.21388 0.0318068 0
M  V30 11632 H 1074.3 3.18401 0.727226 0
M  V30 11633 H 1072.96 3.39009 -1.3953 0
M  V30 11634 H 1072.61 5.00706 0.479875 0
M  V30 11635 H 1072.31 5.77197 -1.1008 0
M  V30 11636 H 1073.83 6.10172 -0.228629 0
M  V30 11637 H 1075.25 5.23835 -2.32958 0
M  V30 11638 H 1073.64 5.13021 -3.11335 0
M  V30 11639 H 1074.71 3.71667 -3.11435 0
M  V30 11640 N 1076.06 0.894434 1.2976 0
M  V30 11641 C 1077.01 0.339611 2.25457 0
M  V30 11642 C 1077.99 -0.537326 1.51663 0
M  V30 11643 O 1079.18 -0.380204 1.72868 0
M  V30 11644 C 1076.31 -0.436494 3.40514 0
M  V30 11645 C 1075.4 0.455065 4.21651 0
M  V30 11646 N 1075.79 1.55988 4.81146 0
M  V30 11647 C 1074.09 0.251893 4.45288 0
M  V30 11648 C 1074.79 2.1117 5.42017 0
M  V30 11649 N 1073.76 1.40541 5.25118 0
M  V30 11650 H 1077.57 1.18365 2.69011 0
M  V30 11651 H 1075.08 0.744895 1.44309 0
M  V30 11652 H 1077.08 -0.850678 4.08129 0
M  V30 11653 H 1075.74 -1.27786 2.98498 0
M  V30 11654 H 1076.75 1.94266 4.80084 0
M  V30 11655 H 1073.42 -0.551536 4.13841 0
M  V30 11656 H 1074.81 3.04 5.99194 0
M  V30 11657 N 1077.53 -1.43282 0.656365 0
M  V30 11658 C 1078.76 -2.06641 0.177245 0
M  V30 11659 C 1079.18 -1.48893 -1.14946 0
M  V30 11660 O 1078.54 -0.600099 -1.7108 0
M  V30 11661 C 1078.59 -3.60453 0.10299 0
M  V30 11662 O 1077.69 -4.01687 -0.933895 0
M  V30 11663 H 1077.04 -0.656978 0.096314 0
M  V30 11664 H 1079.57 -1.83733 0.900178 0
M  V30 11665 H 1079.58 -4.07923 -0.079291 0
M  V30 11666 H 1078.25 -4.01861 1.07147 0
M  V30 11667 H 1076.83 -3.65801 -0.724148 0
M  V30 11668 N 1079.01 -0.398486 -1.52479 0
M  V30 11669 C 1080.26 0.182046 -2.00877 0
M  V30 11670 C 1080.58 1.47128 -1.2889 0
M  V30 11671 O 1081.78 2.13242 -1.68048 0
M  V30 11672 C 1080.24 0.374978 -3.57941 0
M  V30 11673 C 1079.85 -0.901544 -4.38835 0
M  V30 11674 C 1081.59 0.911378 -4.14601 0
M  V30 11675 C 1079.5 -0.676385 -5.87519 0
M  V30 11676 H 1078.43 0.0718068 -0.750573 0
M  V30 11677 H 1081.08 -0.522297 -1.7591 0
M  V30 11678 H 1079.46 1.14139 -3.79194 0
M  V30 11679 H 1080.63 -1.67329 -4.29346 0
M  V30 11680 H 1078.95 -1.36357 -3.93441 0
M  V30 11681 H 1081.55 1.09569 -5.23353 0
M  V30 11682 H 1081.89 1.88306 -3.71277 0
M  V30 11683 H 1082.42 0.204296 -3.97275 0
M  V30 11684 H 1079.16 -1.61933 -6.35184 0
M  V30 11685 H 1078.68 0.0562542 -5.99774 0
M  V30 11686 H 1080.36 -0.314454 -6.46235 0
M  V30 11687 N 1080.49 1.57075 -0.12858 0
M  V30 11688 C 1081.74 1.95134 0.526046 0
M  V30 11689 C 1082.06 1.01337 1.66601 0
M  V30 11690 O 1081.33 0.0714361 1.9577 0
M  V30 11691 H 1079.91 0.720468 0.19732 0
M  V30 11692 H 1082.57 1.93874 -0.199767 0
M  V30 11693 H 1081.67 2.98406 0.914332 0
M  V30 11694 N 1081.97 -0.145205 1.5693 0
M  V30 11695 C 1082.92 -1.17923 1.98401 0
M  V30 11696 C 1083.89 -1.42591 0.851885 0
M  V30 11697 O 1085.07 -1.54896 1.11409 0
M  V30 11698 C 1082.21 -2.50727 2.37128 0
M  V30 11699 C 1081.32 -2.33218 3.63639 0
M  V30 11700 C 1080.46 -3.5907 3.91462 0
M  V30 11701 C 1079.5 -3.36605 5.11237 0
M  V30 11702 N 1078.64 -4.54592 5.35061 0
M  V30 11703 H 1083.48 -0.818573 2.86537 0
M  V30 11704 H 1081.01 -0.392739 1.4176 0
M  V30 11705 H 1082.97 -3.28165 2.57611 0
M  V30 11706 H 1081.6 -2.84736 1.52069 0
M  V30 11707 H 1080.65 -1.46826 3.50922 0
M  V30 11708 H 1081.96 -2.12579 4.51234 0
M  V30 11709 H 1081.12 -4.44936 4.12453 0
M  V30 11710 H 1079.86 -3.82715 3.02293 0
M  V30 11711 H 1078.86 -2.49127 4.90118 0
M  V30 11712 H 1080.09 -3.14357 6.01961 0
M  V30 11713 H 1078.03 -4.78406 4.48847 0
M  V30 11714 H 1077.95 -4.36962 6.16928 0
M  V30 11715 H 1079.22 -5.41666 5.60551 0
M  V30 11716 N 1083.45 -1.52049 -0.414609 0
M  V30 11717 C 1084.38 -1.7122 -1.52369 0
M  V30 11718 C 1085.39 -0.592634 -1.5163 0
M  V30 11719 O 1086.58 -0.867634 -1.55995 0
M  V30 11720 C 1083.68 -1.73247 -2.91271 0
M  V30 11721 C 1082.85 -3.02153 -3.16263 0
M  V30 11722 C 1081.91 -2.96066 -4.35007 0
M  V30 11723 O 1080.94 -3.69981 -4.32554 0
M  V30 11724 N 1082.14 -2.13478 -5.39822 0
M  V30 11725 H 1084.91 -2.66902 -1.3632 0
M  V30 11726 H 1082.47 -1.50218 -0.603842 0
M  V30 11727 H 1084.46 -1.66714 -3.68766 0
M  V30 11728 H 1083.03 -0.85062 -3.00804 0
M  V30 11729 H 1082.25 -3.22379 -2.2686 0
M  V30 11730 H 1083.54 -3.87439 -3.29801 0
M  V30 11731 H 1082.94 -1.52844 -5.44661 0
M  V30 11732 H 1081.49 -2.12805 -6.16082 0
M  V30 11733 N 1084.93 0.6715 -1.42579 0
M  V30 11734 C 1086.17 1.42871 -1.42941 0
M  V30 11735 C 1086.49 1.94941 -0.0480483 0
M  V30 11736 O 1085.76 1.73275 0.913921 0
M  V30 11737 H 1084.34 0.530189 -0.526221 0
M  V30 11738 H 1087.01 0.793219 -1.78028 0
M  V30 11739 H 1086.1 2.2801 -2.13114 0
M  V30 11740 N 1086.4 1.28806 0.908124 0
M  V30 11741 C 1087.65 1.16058 1.65454 0
M  V30 11742 C 1087.97 -0.290057 1.92831 0
M  V30 11743 O 1087.24 -1.20001 1.54843 0
M  V30 11744 H 1085.82 0.426522 0.61326 0
M  V30 11745 H 1088.48 1.61614 1.08936 0
M  V30 11746 H 1087.58 1.70437 2.61453 0
M  V30 11747 N 1087.88 -1.11734 1.11145 0
M  V30 11748 C 1089.16 -1.79795 0.770261 0
M  V30 11749 C 1089.54 -1.97624 -0.742158 0
M  V30 11750 O 1088.89 -1.55847 -1.67105 0
M  V30 11751 C 1089.1 -3.13684 1.52982 0
M  V30 11752 C 1090.44 -3.88771 1.70711 0
M  V30 11753 O 1091.47 -3.23363 1.49381 0
M  V30 11754 O 1090.33 -5.06134 2.06132 0
M  V30 11755 H 1087.42 -0.778617 0.27872 0
M  V30 11756 H 1089.97 -1.18504 1.2147 0
M  V30 11757 H 1088.74 -2.96043 2.55879 0
M  V30 11758 H 1088.36 -3.82687 1.07873 0
M  V30 11759 N 1089.36 -0.901303 -1.29284 0
M  V30 11760 C 1090.77 -0.576317 -1.77582 0
M  V30 11761 C 1091.12 0.908078 -1.73921 0
M  V30 11762 O 1090.25 1.71006 -1.32611 0
M  V30 11763 C 1090.84 -1.03938 -3.22463 0
M  V30 11764 C 1089.4 -0.765533 -3.68533 0
M  V30 11765 C 1088.55 -1.21318 -2.49354 0
M  V30 11766 H 1091.5 -1.08386 -1.15923 0
M  V30 11767 H 1091.52 -0.375367 -3.78644 0
M  V30 11768 H 1091.03 -2.11977 -3.25096 0
M  V30 11769 H 1089.13 0.302176 -3.71373 0
M  V30 11770 H 1089.25 -1.36454 -4.59257 0
M  V30 11771 H 1087.61 -0.632141 -2.46731 0
M  V30 11772 H 1088.39 -2.30165 -2.54714 0
M  V30 11773 N 1090.84 1.42931 -0.663954 0
M  V30 11774 C 1092.07 2.05729 -0.189532 0
M  V30 11775 C 1092.48 1.49914 1.15423 0
M  V30 11776 O 1091.82 0.629324 1.72584 0
M  V30 11777 C 1091.88 3.59482 -0.0354748 0
M  V30 11778 C 1091.54 4.37935 -1.30622 0
M  V30 11779 C 1092.54 4.69297 -2.23733 0
M  V30 11780 C 1090.23 4.77761 -1.5508 0
M  V30 11781 C 1092.22 5.39407 -3.39586 0
M  V30 11782 C 1089.91 5.47613 -2.71224 0
M  V30 11783 C 1090.91 5.7836 -3.63302 0
M  V30 11784 O 1090.59 6.46783 -4.77417 0
M  V30 11785 H 1090.33 0.669678 -0.0922342 0
M  V30 11786 H 1092.88 1.84243 -0.907943 0
M  V30 11787 H 1091.11 3.79584 0.738412 0
M  V30 11788 H 1092.8 4.03947 0.397679 0
M  V30 11789 H 1093.56 4.39038 -2.06084 0
M  V30 11790 H 1089.44 4.53229 -0.842863 0
M  V30 11791 H 1092.99 5.63323 -4.11476 0
M  V30 11792 H 1088.88 5.77289 -2.88804 0
M  V30 11793 H 1089.65 6.6527 -4.76821 0
M  V30 11794 N 1092.32 0.406567 1.52266 0
M  V30 11795 C 1093.25 -0.411314 2.29849 0
M  V30 11796 C 1094.23 -1.04838 1.33952 0
M  V30 11797 O 1095.41 -1.05788 1.62857 0
M  V30 11798 C 1092.54 -1.52961 3.11802 0
M  V30 11799 C 1091.5 -1.01768 4.15725 0
M  V30 11800 C 1090.82 -2.22938 4.86007 0
M  V30 11801 C 1092.12 -0.073515 5.22248 0
M  V30 11802 H 1093.82 0.236054 2.98468 0
M  V30 11803 H 1091.36 0.114968 1.4354 0
M  V30 11804 H 1093.31 -2.10874 3.64843 0
M  V30 11805 H 1092.04 -2.20482 2.40947 0
M  V30 11806 H 1090.7 -0.46097 3.6369 0
M  V30 11807 H 1090.35 -2.89007 4.11684 0
M  V30 11808 H 1090.05 -1.89338 5.5626 0
M  V30 11809 H 1091.57 -2.81462 5.41859 0
M  V30 11810 H 1092.98 -0.561367 5.70545 0
M  V30 11811 H 1091.38 0.173551 5.99849 0
M  V30 11812 H 1092.45 0.872524 4.76985 0
M  V30 11813 N 1093.79 -1.57004 0.136909 0
M  V30 11814 C 1095.04 -1.96087 -0.517477 0
M  V30 11815 C 1095.37 -1.0213 -1.65176 0
M  V30 11816 O 1094.65 -0.0617958 -1.94402 0
M  V30 11817 C 1094.93 -3.44958 -1.03323 0
M  V30 11818 C 1094.78 -4.49691 0.0988609 0
M  V30 11819 C 1096.1 -3.96091 -1.91832 0
M  V30 11820 H 1093.22 -0.712978 -0.186632 0
M  V30 11821 H 1095.86 -1.88767 0.216095 0
M  V30 11822 H 1094.01 -3.51327 -1.65836 0
M  V30 11823 H 1095.69 -4.55409 0.734847 0
M  V30 11824 H 1093.93 -4.271 0.75947 0
M  V30 11825 H 1094.6 -5.51165 -0.303554 0
M  V30 11826 H 1097.08 -3.92139 -1.39164 0
M  V30 11827 H 1095.95 -5.00742 -2.24831 0
M  V30 11828 H 1096.21 -3.37846 -2.85153 0
M  V30 11829 N 1095.27 0.136881 -1.57004 0
M  V30 11830 C 1096.21 1.19853 -1.94192 0
M  V30 11831 C 1097.18 1.4104 -0.809103 0
M  V30 11832 O 1098.37 1.55487 -1.06565 0
M  V30 11833 C 1095.49 2.55565 -2.22271 0
M  V30 11834 C 1094.54 2.50913 -3.44884 0
M  V30 11835 S 1095.37 1.96619 -4.98098 0
M  V30 11836 C 1096.53 3.34039 -5.2931 0
M  V30 11837 H 1096.76 0.881316 -2.83937 0
M  V30 11838 H 1094.3 0.342915 -1.50544 0
M  V30 11839 H 1096.25 3.33659 -2.39127 0
M  V30 11840 H 1094.91 2.84472 -1.33172 0
M  V30 11841 H 1094.11 3.50839 -3.6184 0
M  V30 11842 H 1093.71 1.80932 -3.27322 0
M  V30 11843 H 1096 4.30189 -5.23397 0
M  V30 11844 H 1096.94 3.21927 -6.30689 0
M  V30 11845 H 1097.35 3.31642 -4.56808 0
M  V30 11846 N 1096.75 1.52266 0.40654 0
M  V30 11847 C 1097.71 1.75168 1.47814 0
M  V30 11848 C 1098.71 0.621575 1.48301 0
M  V30 11849 O 1099.9 0.889476 1.4978 0
M  V30 11850 C 1097.04 1.83642 2.87208 0
M  V30 11851 H 1098.23 2.70834 1.28798 0
M  V30 11852 H 1095.78 1.42722 0.637196 0
M  V30 11853 H 1096.52 0.898994 3.1159 0
M  V30 11854 H 1096.3 2.65801 2.88257 0
M  V30 11855 H 1097.79 2.03093 3.64888 0
M  V30 11856 N 1098.23 -0.663929 1.42933 0
M  V30 11857 C 1099.51 -1.42054 1.34462 0
M  V30 11858 C 1099.89 -2.11096 -0.0127801 0
M  V30 11859 O 1099.23 -2.04027 -1.02884 0
M  V30 11860 C 1099.44 -2.41406 2.5204 0
M  V30 11861 C 1100.79 -3.05726 2.94647 0
M  V30 11862 O 1101.82 -2.51733 2.52009 0
M  V30 11863 O 1100.67 -4.03593 3.68477 0
M  V30 11864 H 1097.77 -0.634149 0.530834 0
M  V30 11865 H 1100.31 -0.691738 1.54962 0
M  V30 11866 H 1099.09 -1.89263 3.42484 0
M  V30 11867 H 1098.71 -3.21752 2.33584 0
M  V30 11868 N 1099.71 -1.29285 -0.901281 0
M  V30 11869 C 1100.95 -1.17165 -1.65162 0
M  V30 11870 C 1101.28 0.277184 -1.92515 0
M  V30 11871 O 1100.54 1.2168 -1.53273 0
M  V30 11872 C 1100.84 -1.92865 -3.00895 0
M  V30 11873 C 1100.5 -3.42593 -2.93157 0
M  V30 11874 C 1099.16 -3.83426 -2.90754 0
M  V30 11875 C 1101.52 -4.38011 -2.82481 0
M  V30 11876 C 1098.84 -5.17997 -2.75492 0
M  V30 11877 C 1101.2 -5.7267 -2.68759 0
M  V30 11878 C 1099.86 -6.12764 -2.64721 0
M  V30 11879 H 1099.13 -0.428737 -0.604372 0
M  V30 11880 H 1101.78 -1.60204 -1.04914 0
M  V30 11881 H 1100.08 -1.42412 -3.65001 0
M  V30 11882 H 1101.78 -1.80893 -3.57881 0
M  V30 11883 H 1098.37 -3.10134 -2.95829 0
M  V30 11884 H 1102.55 -4.07417 -2.83416 0
M  V30 11885 H 1097.81 -5.48173 -2.70769 0
M  V30 11886 H 1101.98 -6.46258 -2.59469 0
M  V30 11887 H 1099.61 -7.16987 -2.52652 0
M  V30 11888 N 1101.18 1.11143 -1.11736 0
M  V30 11889 C 1102.15 2.15456 -0.78174 0
M  V30 11890 C 1103.15 1.59547 0.200383 0
M  V30 11891 O 1104.34 1.74183 -0.0244893 0
M  V30 11892 C 1101.47 3.40523 -0.160364 0
M  V30 11893 H 1102.66 2.46658 -1.70586 0
M  V30 11894 H 1100.22 1.26381 -0.919644 0
M  V30 11895 H 1100.95 3.14932 0.773835 0
M  V30 11896 H 1100.74 3.82386 -0.867378 0
M  V30 11897 H 1102.23 4.17559 0.0582175 0
M  V30 11898 N 1102.66 0.908147 1.28804 0
M  V30 11899 C 1103.63 0.397058 2.25735 0
M  V30 11900 C 1104.63 -0.473483 1.53671 0
M  V30 11901 O 1105.82 -0.277335 1.71978 0
M  V30 11902 C 1102.95 -0.431392 3.38159 0
M  V30 11903 H 1104.14 1.25323 2.72459 0
M  V30 11904 H 1101.69 0.687041 1.4039 0
M  V30 11905 H 1102.43 -1.3072 2.96787 0
M  V30 11906 H 1102.21 0.192502 3.91627 0
M  V30 11907 H 1103.7 -0.78 4.10251 0
M  V30 11908 N 1104.14 -1.42577 0.671525 0
M  V30 11909 C 1105.37 -2.05625 0.20044 0
M  V30 11910 C 1105.78 -1.50524 -1.14626 0
M  V30 11911 O 1105.12 -0.638468 -1.72248 0
M  V30 11912 C 1105.18 -3.59459 0.0545385 0
M  V30 11913 C 1104.85 -4.37236 1.32943 0
M  V30 11914 C 1105.84 -4.68104 2.26219 0
M  V30 11915 C 1103.53 -4.76932 1.57612 0
M  V30 11916 C 1105.52 -5.37599 3.42442 0
M  V30 11917 C 1103.21 -5.46167 2.74125 0
M  V30 11918 C 1104.21 -5.76425 3.66364 0
M  V30 11919 O 1103.9 -6.44242 4.8084 0
M  V30 11920 H 1103.63 -0.66918 0.0957843 0
M  V30 11921 H 1106.18 -1.83759 0.917701 0
M  V30 11922 H 1104.41 -3.79971 -0.718271 0
M  V30 11923 H 1106.1 -4.04152 -0.376251 0
M  V30 11924 H 1106.87 -4.37939 2.08409 0
M  V30 11925 H 1102.75 -4.52776 0.866887 0
M  V30 11926 H 1106.29 -5.61133 4.14458 0
M  V30 11927 H 1102.19 -5.75749 2.91861 0
M  V30 11928 H 1102.96 -6.62732 4.80342 0
M  V30 11929 N 1105.62 -0.414636 -1.52048 0
M  V30 11930 C 1106.86 0.159585 -2.02171 0
M  V30 11931 C 1107.2 1.44321 -1.29943 0
M  V30 11932 O 1106.47 1.90185 -0.407402 0
M  V30 11933 C 1106.76 0.401655 -3.57853 0
M  V30 11934 C 1106.61 -0.899026 -4.40724 0
M  V30 11935 C 1107.93 1.1814 -4.23947 0
M  V30 11936 H 1105.05 0.0565257 -0.734829 0
M  V30 11937 H 1107.69 -0.549183 -1.8189 0
M  V30 11938 H 1105.84 1.00541 -3.75265 0
M  V30 11939 H 1107.51 -1.53502 -4.35011 0
M  V30 11940 H 1105.75 -1.50877 -4.06717 0
M  V30 11941 H 1106.42 -0.683974 -5.47746 0
M  V30 11942 H 1108.9 0.670203 -4.10667 0
M  V30 11943 H 1107.78 1.31953 -5.32804 0
M  V30 11944 H 1108.04 2.2035 -3.83273 0
M  V30 11945 N 1107.1 1.56929 -0.145233 0
M  V30 11946 C 1108.01 2.20238 0.808219 0
M  V30 11947 C 1109.02 1.18615 1.27304 0
M  V30 11948 O 1110.2 1.51186 1.3306 0
M  V30 11949 C 1107.26 2.81016 2.03055 0
M  V30 11950 C 1106.32 3.97759 1.61512 0
M  V30 11951 C 1105.56 4.55628 2.77918 0
M  V30 11952 O 1105.78 4.12378 3.94082 0
M  V30 11953 O 1104.71 5.45917 2.53492 0
M  V30 11954 H 1108.54 3.02221 0.299314 0
M  V30 11955 H 1106.13 1.49176 0.0817051 0
M  V30 11956 H 1108.01 3.19652 2.74592 0
M  V30 11957 H 1106.68 2.02047 2.52901 0
M  V30 11958 H 1105.59 3.63842 0.870033 0
M  V30 11959 H 1106.92 4.78242 1.16383 0
M  V30 11960 N 1108.58 -0.128553 1.57075 0
M  V30 11961 C 1109.54 -1.14215 1.98715 0
M  V30 11962 C 1110.54 -1.34843 0.876019 0
M  V30 11963 O 1111.73 -1.31522 1.14227 0
M  V30 11964 C 1108.86 -2.49865 2.31905 0
M  V30 11965 H 1110.05 -0.784481 2.89458 0
M  V30 11966 H 1107.61 -0.372531 1.51796 0
M  V30 11967 H 1108.34 -2.9057 1.44012 0
M  V30 11968 H 1108.13 -2.3625 3.12935 0
M  V30 11969 H 1109.62 -3.22832 2.64895 0
M  V30 11970 N 1110.05 -1.5248 -0.398459 0
M  V30 11971 C 1110.99 -1.72826 -1.50545 0
M  V30 11972 C 1112 -0.608683 -1.50993 0
M  V30 11973 O 1113.19 -0.88413 -1.55066 0
M  V30 11974 C 1110.29 -1.76327 -2.89417 0
M  V30 11975 C 1109.46 -3.05491 -3.1304 0
M  V30 11976 C 1108.52 -3.00663 -4.31843 0
M  V30 11977 O 1107.55 -3.74548 -4.28605 0
M  V30 11978 N 1108.75 -2.19191 -5.37527 0
M  V30 11979 H 1111.51 -2.68333 -1.33482 0
M  V30 11980 H 1109.07 -1.5085 -0.587875 0
M  V30 11981 H 1111.07 -1.70616 -3.66977 0
M  V30 11982 H 1109.64 -0.882476 -2.99885 0
M  V30 11983 H 1108.86 -3.24767 -2.23428 0
M  V30 11984 H 1110.14 -3.90915 -3.25673 0
M  V30 11985 H 1109.54 -1.58613 -5.43009 0
M  V30 11986 H 1108.1 -2.19328 -6.1379 0
M  V30 11987 N 1111.53 0.65634 -1.43283 0
M  V30 11988 C 1112.48 1.76934 -1.48199 0
M  V30 11989 C 1113.45 1.62748 -0.332023 0
M  V30 11990 O 1114.63 1.83036 -0.538735 0
M  V30 11991 C 1111.77 3.15072 -1.40797 0
M  V30 11992 C 1110.89 3.40414 -2.65974 0
M  V30 11993 C 1110.02 4.68383 -2.50582 0
M  V30 11994 C 1109.06 4.8682 -3.71043 0
M  V30 11995 N 1108.2 6.06043 -3.5448 0
M  V30 11996 H 1113.04 1.72067 -2.43304 0
M  V30 11997 H 1110.57 0.839728 -1.20777 0
M  V30 11998 H 1112.53 3.94925 -1.345 0
M  V30 11999 H 1111.16 3.19017 -0.492754 0
M  V30 12000 H 1110.21 2.54681 -2.82563 0
M  V30 12001 H 1111.53 3.49925 -3.55463 0
M  V30 12002 H 1110.68 5.56357 -2.41975 0
M  V30 12003 H 1109.42 4.61187 -1.58612 0
M  V30 12004 H 1108.42 3.97282 -3.80062 0
M  V30 12005 H 1109.65 4.95847 -4.64017 0
M  V30 12006 H 1107.6 5.99985 -2.65242 0
M  V30 12007 H 1107.51 6.16498 -4.37568 0
M  V30 12008 H 1108.78 6.96647 -3.49719 0
M  V30 12009 N 1113.01 1.29761 0.894412 0
M  V30 12010 C 1113.94 1.1115 2.00445 0
M  V30 12011 C 1114.95 0.0574655 1.62699 0
M  V30 12012 O 1116.14 0.302528 1.75918 0
M  V30 12013 C 1113.24 0.670984 3.32191 0
M  V30 12014 C 1112.42 1.80471 3.98433 0
M  V30 12015 C 1111.48 1.35431 5.08473 0
M  V30 12016 O 1110.5 2.05994 5.30618 0
M  V30 12017 N 1111.7 0.22811 5.80052 0
M  V30 12018 H 1114.47 2.06753 2.16964 0
M  V30 12019 H 1112.03 1.21772 1.06692 0
M  V30 12020 H 1114.02 0.352877 4.03159 0
M  V30 12021 H 1112.59 -0.192735 3.12005 0
M  V30 12022 H 1111.81 2.29142 3.20761 0
M  V30 12023 H 1113.1 2.56471 4.39431 0
M  V30 12024 H 1112.5 -0.360076 5.64553 0
M  V30 12025 H 1111.05 -0.0305985 6.51793 0
M  V30 12026 N 1114.49 -1.10549 1.12324 0
M  V30 12027 C 1115.73 -1.82755 0.879117 0
M  V30 12028 C 1116.07 -1.84905 -0.593604 0
M  V30 12029 O 1115.34 -1.30884 -1.43873 0
M  V30 12030 C 1115.62 -3.29481 1.45308 0
M  V30 12031 C 1115.48 -3.3567 2.99408 0
M  V30 12032 C 1116.8 -4.25828 1.11167 0
M  V30 12033 H 1113.92 -0.663513 0.32081 0
M  V30 12034 H 1116.56 -1.29572 1.38965 0
M  V30 12035 H 1114.71 -3.74902 1.01887 0
M  V30 12036 H 1116.38 -2.98739 3.515 0
M  V30 12037 H 1114.62 -2.75606 3.34998 0
M  V30 12038 H 1115.29 -4.38983 3.34661 0
M  V30 12039 H 1117.77 -3.88635 1.48667 0
M  V30 12040 H 1116.65 -5.26857 1.53991 0
M  V30 12041 H 1116.91 -4.42094 0.0237046 0
M  V30 12042 N 1115.97 -0.914965 -1.28321 0
M  V30 12043 C 1117.24 -0.46764 -1.89928 0
M  V30 12044 C 1117.62 1.05364 -1.82925 0
M  V30 12045 O 1116.97 1.90223 -1.26599 0
M  V30 12046 C 1117.18 -0.999372 -3.34385 0
M  V30 12047 C 1118.53 -1.0522 -4.11356 0
M  V30 12048 O 1119.55 -0.9481 -3.4335 0
M  V30 12049 O 1118.41 -1.21085 -5.32917 0
M  V30 12050 H 1115.51 -0.148398 -0.813577 0
M  V30 12051 H 1118.05 -1.00583 -1.36679 0
M  V30 12052 H 1116.82 -2.04333 -3.33712 0
M  V30 12053 H 1116.45 -0.442083 -3.95135 0
M  V30 12054 N 1117.44 1.42219 -0.679077 0
M  V30 12055 C 1118.69 2.01777 -0.20342 0
M  V30 12056 C 1119.02 1.53592 1.18841 0
M  V30 12057 O 1118.3 0.739954 1.79875 0
M  V30 12058 C 1118.58 3.59281 -0.242791 0
M  V30 12059 C 1118.43 4.17634 -1.67038 0
M  V30 12060 C 1119.75 4.38218 0.406624 0
M  V30 12061 H 1116.87 0.733134 -0.0753916 0
M  V30 12062 H 1119.51 1.69185 -0.864673 0
M  V30 12063 H 1117.66 3.87178 0.320248 0
M  V30 12064 H 1119.34 4.00674 -2.286 0
M  V30 12065 H 1117.58 3.73301 -2.20973 0
M  V30 12066 H 1118.25 5.26776 -1.64958 0
M  V30 12067 H 1120.73 4.16036 -0.0727077 0
M  V30 12068 H 1119.6 5.47793 0.348457 0
M  V30 12069 H 1119.86 4.16418 1.48487 0
M  V30 12070 N 1118.92 0.422693 1.51826 0
M  V30 12071 C 1119.85 -0.386913 2.30272 0
M  V30 12072 C 1120.83 -1.03411 1.35056 0
M  V30 12073 O 1122.02 -1.04055 1.6397 0
M  V30 12074 C 1119.15 -1.49645 3.13407 0
M  V30 12075 C 1118.1 -0.973532 4.16781 0
M  V30 12076 C 1117.43 -2.1777 4.88344 0
M  V30 12077 C 1118.73 -0.0181194 5.22297 0
M  V30 12078 H 1120.42 0.267697 2.98201 0
M  V30 12079 H 1117.97 0.130186 1.4341 0
M  V30 12080 H 1119.92 -2.06993 3.67059 0
M  V30 12081 H 1118.64 -2.17914 2.43272 0
M  V30 12082 H 1117.3 -0.42237 3.64159 0
M  V30 12083 H 1116.95 -2.84625 4.14726 0
M  V30 12084 H 1116.65 -1.83427 5.58237 0
M  V30 12085 H 1118.18 -2.75699 5.44814 0
M  V30 12086 H 1119.59 -0.500822 5.71108 0
M  V30 12087 H 1117.99 0.237163 5.99631 0
M  V30 12088 H 1119.06 0.923065 4.76033 0
M  V30 12089 N 1120.4 -1.5685 0.153553 0
M  V30 12090 C 1121.63 -2.0041 -0.501949 0
M  V30 12091 C 1122.04 -1.03272 -1.58529 0
M  V30 12092 O 1121.38 -0.0227479 -1.83686 0
M  V30 12093 C 1121.44 -3.40402 -1.15613 0
M  V30 12094 C 1121.11 -4.56486 -0.216596 0
M  V30 12095 C 1122.1 -5.16894 0.558267 0
M  V30 12096 C 1119.79 -5.02162 -0.117592 0
M  V30 12097 C 1121.78 -6.21392 1.41951 0
M  V30 12098 C 1119.47 -6.06514 0.747255 0
M  V30 12099 C 1120.47 -6.65999 1.51441 0
M  V30 12100 O 1120.16 -7.6833 2.36483 0
M  V30 12101 H 1119.89 -0.66247 -0.134574 0
M  V30 12102 H 1122.44 -2.03908 0.247086 0
M  V30 12103 H 1120.67 -3.33762 -1.95294 0
M  V30 12104 H 1122.36 -3.68028 -1.71202 0
M  V30 12105 H 1123.13 -4.825 0.491851 0
M  V30 12106 H 1119.01 -4.55586 -0.704462 0
M  V30 12107 H 1122.55 -6.67751 2.01877 0
M  V30 12108 H 1118.45 -6.40335 0.81494 0
M  V30 12109 H 1119.21 -7.85578 2.29803 0
M  V30 12110 N 1121.88 0.120221 -1.57141 0
M  V30 12111 C 1123.29 0.473718 -1.52408 0
M  V30 12112 C 1123.49 1.81925 -0.866354 0
M  V30 12113 O 1122.55 2.48491 -0.448173 0
M  V30 12114 C 1123.86 0.459338 -2.97171 0
M  V30 12115 C 1125.41 0.542975 -3.08254 0
M  V30 12116 C 1125.89 0.558996 -4.54576 0
M  V30 12117 N 1127.38 0.620469 -4.59026 0
M  V30 12118 C 1128.11 0.654292 -5.69655 0
M  V30 12119 N 1127.61 0.645835 -6.89783 0
M  V30 12120 N 1129.4 0.697208 -5.57759 0
M  V30 12121 H 1121.55 -0.76142 -1.98283 0
M  V30 12122 H 1123.81 -0.280736 -0.905479 0
M  V30 12123 H 1123.52 -0.461654 -3.48657 0
M  V30 12124 H 1123.39 1.28759 -3.54543 0
M  V30 12125 H 1125.78 1.45439 -2.56772 0
M  V30 12126 H 1125.86 -0.312936 -2.53879 0
M  V30 12127 H 1125.51 -0.348367 -5.06704 0
M  V30 12128 H 1125.44 1.43177 -5.06762 0
M  V30 12129 H 1127.93 0.633218 -3.72557 0
M  V30 12130 H 1128.24 0.674233 -7.69853 0
M  V30 12131 H 1126.59 0.613279 -6.92289 0
M  V30 12132 H 1129.78 0.70117 -4.62819 0
M  V30 12133 H 1129.95 0.7201 -6.43986 0
M  V30 12134 N 1123.36 1.52689 0.390367 0
M  V30 12135 C 1124.63 1.58246 1.14968 0
M  V30 12136 C 1125.01 0.374808 2.07746 0
M  V30 12137 O 1124.36 -0.636969 2.19442 0
M  V30 12138 C 1124.57 2.92059 1.91056 0
M  V30 12139 C 1125.92 3.45745 2.46466 0
M  V30 12140 O 1126.94 2.93924 2.01214 0
M  V30 12141 O 1125.8 4.3628 3.29122 0
M  V30 12142 H 1122.9 0.638189 0.52597 0
M  V30 12143 H 1125.44 1.65024 0.39563 0
M  V30 12144 H 1124.21 3.71399 1.23201 0
M  V30 12145 H 1123.84 2.8866 2.73425 0
M  V30 12146 N 1124.83 -0.648732 1.43629 0
M  V30 12147 C 1125.77 -1.77417 1.45107 0
M  V30 12148 C 1126.78 -1.59067 0.346618 0
M  V30 12149 O 1127.97 -1.67705 0.611322 0
M  V30 12150 C 1125.07 -3.14906 1.25249 0
M  V30 12151 C 1124.24 -3.59874 2.48616 0
M  V30 12152 C 1123.3 -4.76181 2.23916 0
M  V30 12153 O 1122.33 -4.8539 2.97296 0
M  V30 12154 N 1123.53 -5.66691 1.25862 0
M  V30 12155 H 1126.29 -1.76626 2.42123 0
M  V30 12156 H 1123.85 -0.832725 1.38843 0
M  V30 12157 H 1125.85 -3.90408 1.06601 0
M  V30 12158 H 1124.42 -3.10443 0.366623 0
M  V30 12159 H 1123.64 -2.74768 2.82659 0
M  V30 12160 H 1124.92 -3.86665 3.30708 0
M  V30 12161 H 1124.32 -5.61927 0.652227 0
M  V30 12162 H 1122.88 -6.41895 1.13196 0
M  V30 12163 N 1126.31 -1.30234 -0.887518 0
M  V30 12164 C 1127.22 -1.18316 -2.02579 0
M  V30 12165 C 1128.24 -0.103658 -1.73691 0
M  V30 12166 O 1129.41 -0.3181 -1.98872 0
M  V30 12167 C 1126.48 -0.873222 -3.35523 0
M  V30 12168 C 1125.54 -2.03783 -3.7785 0
M  V30 12169 C 1124.77 -1.74258 -5.0445 0
M  V30 12170 O 1125 -0.669295 -5.6646 0
M  V30 12171 O 1123.93 -2.59423 -5.43124 0
M  V30 12172 H 1127.76 -2.13933 -2.15561 0
M  V30 12173 H 1125.34 -1.09803 -1.0131 0
M  V30 12174 H 1127.22 -0.715463 -4.15282 0
M  V30 12175 H 1125.9 0.053056 -3.23657 0
M  V30 12176 H 1124.81 -2.2509 -2.98806 0
M  V30 12177 H 1126.14 -2.94574 -3.94318 0
M  V30 12178 N 1127.79 1.09952 -1.12909 0
M  V30 12179 C 1128.75 2.14615 -0.804548 0
M  V30 12180 C 1129.75 1.5975 0.18345 0
M  V30 12181 O 1130.94 1.74147 -0.0429623 0
M  V30 12182 C 1128.08 3.40333 -0.196471 0
M  V30 12183 H 1129.27 2.44835 -1.73193 0
M  V30 12184 H 1126.82 1.25399 -0.932997 0
M  V30 12185 H 1127.56 3.15735 0.740388 0
M  V30 12186 H 1127.34 3.81444 -0.907886 0
M  V30 12187 H 1128.83 4.17598 0.0139264 0
M  V30 12188 N 1129.27 0.921757 1.27833 0
M  V30 12189 C 1130.51 0.569378 1.95268 0
M  V30 12190 C 1130.87 -0.878685 1.71163 0
M  V30 12191 O 1130.16 -1.6177 1.02669 0
M  V30 12192 C 1130.36 0.824259 3.47765 0
M  V30 12193 C 1130.19 2.29555 3.86697 0
M  V30 12194 C 1128.96 2.94715 4.10452 0
M  V30 12195 C 1131.15 3.27261 3.96743 0
M  V30 12196 N 1129.14 4.32058 4.36118 0
M  V30 12197 C 1130.51 4.49793 4.26715 0
M  V30 12198 C 1132.56 3.2255 3.79296 0
M  V30 12199 C 1131.26 5.68208 4.41057 0
M  V30 12200 C 1133.29 4.40272 3.9486 0
M  V30 12201 C 1132.65 5.61581 4.25213 0
M  V30 12202 H 1128.75 0.258368 0.738085 0
M  V30 12203 H 1131.34 1.18715 1.54321 0
M  V30 12204 H 1129.51 0.235697 3.87684 0
M  V30 12205 H 1131.24 0.435106 4.02354 0
M  V30 12206 H 1127.99 2.4541 4.05057 0
M  V30 12207 H 1128.42 5.03092 4.5302 0
M  V30 12208 H 1133.06 2.29835 3.54875 0
M  V30 12209 H 1130.78 6.61396 4.64308 0
M  V30 12210 H 1134.36 4.38138 3.82787 0
M  V30 12211 H 1133.24 6.51154 4.36998 0
M  V30 12212 N 1130.75 -1.41857 0.686609 0
M  V30 12213 C 1131.97 -2.05699 0.222561 0
M  V30 12214 C 1132.39 -1.51636 -1.12481 0
M  V30 12215 O 1131.75 -0.660925 -1.70112 0
M  V30 12216 C 1131.8 -3.61138 0.161818 0
M  V30 12217 O 1131.52 -4.13199 1.45596 0
M  V30 12218 C 1133.02 -4.42112 -0.324304 0
M  V30 12219 H 1130.24 -0.662665 0.10543 0
M  V30 12220 H 1132.78 -1.81788 0.936671 0
M  V30 12221 H 1130.94 -3.8412 -0.503056 0
M  V30 12222 H 1131.35 -5.0717 1.33712 0
M  V30 12223 H 1132.83 -5.51097 -0.315694 0
M  V30 12224 H 1133.3 -4.1756 -1.36164 0
M  V30 12225 H 1133.91 -4.24174 0.309251 0
M  V30 12226 N 1132.22 -0.430739 -1.51599 0
M  V30 12227 C 1133.64 -0.0826902 -1.59386 0
M  V30 12228 C 1133.84 1.40729 -1.44214 0
M  V30 12229 O 1132.9 2.1765 -1.28002 0
M  V30 12230 C 1134.21 -0.59691 -2.94716 0
M  V30 12231 C 1135.76 -0.556772 -3.08008 0
M  V30 12232 C 1136.23 -1.04786 -4.45852 0
M  V30 12233 N 1137.72 -1.00557 -4.52153 0
M  V30 12234 C 1138.46 -1.35649 -5.57124 0
M  V30 12235 N 1137.95 -1.77994 -6.69545 0
M  V30 12236 N 1139.75 -1.27508 -5.47447 0
M  V30 12237 H 1131.9 -1.40027 -1.59707 0
M  V30 12238 H 1134.16 -0.576606 -0.752482 0
M  V30 12239 H 1133.87 -1.63914 -3.11167 0
M  V30 12240 H 1133.74 -0.0182342 -3.77196 0
M  V30 12241 H 1136.13 0.476457 -2.91228 0
M  V30 12242 H 1136.21 -1.17177 -2.27383 0
M  V30 12243 H 1135.85 -2.07952 -4.63377 0
M  V30 12244 H 1135.78 -0.409461 -5.25006 0
M  V30 12245 H 1138.27 -0.694518 -3.71463 0
M  V30 12246 H 1138.59 -2.03026 -7.45654 0
M  V30 12247 H 1136.93 -1.81916 -6.70769 0
M  V30 12248 H 1140.12 -0.942969 -4.58504 0
M  V30 12249 H 1140.3 -1.55185 -6.29143 0
M  V30 12250 N 1133.7 1.56767 -0.161869 0
M  V30 12251 C 1134.67 2.16299 0.758104 0
M  V30 12252 C 1135.67 1.10859 1.16478 0
M  V30 12253 O 1136.86 1.36422 1.08327 0
M  V30 12254 C 1133.99 2.73819 2.03067 0
M  V30 12255 H 1135.18 2.98938 0.239992 0
M  V30 12256 H 1132.73 1.56054 0.0876532 0
M  V30 12257 H 1133.47 1.94887 2.59209 0
M  V30 12258 H 1133.25 3.50974 1.74813 0
M  V30 12259 H 1134.74 3.19638 2.68741 0
M  V30 12260 N 1135.18 -0.111886 1.57202 0
M  V30 12261 C 1136.14 -1.12101 1.99915 0
M  V30 12262 C 1137.14 -1.33906 0.890272 0
M  V30 12263 O 1138.33 -1.30303 1.15615 0
M  V30 12264 C 1135.47 -2.47392 2.34543 0
M  V30 12265 H 1136.66 -0.753736 2.90274 0
M  V30 12266 H 1134.21 -0.35641 1.52182 0
M  V30 12267 H 1134.95 -2.89026 1.47086 0
M  V30 12268 H 1134.73 -2.32917 3.15423 0
M  V30 12269 H 1136.22 -3.20004 2.68304 0
M  V30 12270 N 1136.66 -1.52894 -0.382264 0
M  V30 12271 C 1137.91 -1.67489 -1.12385 0
M  V30 12272 C 1138.22 -0.424565 -1.90937 0
M  V30 12273 O 1139.43 -0.450763 -2.67732 0
M  V30 12274 C 1137.88 -2.96019 -2.04697 0
M  V30 12275 C 1137.49 -4.28255 -1.31535 0
M  V30 12276 C 1139.23 -3.19981 -2.78949 0
M  V30 12277 C 1137.14 -5.47887 -2.22652 0
M  V30 12278 H 1136.07 -0.624002 -0.423246 0
M  V30 12279 H 1138.72 -1.79392 -0.386107 0
M  V30 12280 H 1137.1 -2.77878 -2.82134 0
M  V30 12281 H 1138.28 -4.56971 -0.592771 0
M  V30 12282 H 1136.59 -4.10607 -0.692148 0
M  V30 12283 H 1139.19 -4.06541 -3.47316 0
M  V30 12284 H 1139.53 -2.35335 -3.43399 0
M  V30 12285 H 1140.07 -3.38718 -2.08602 0
M  V30 12286 H 1136.81 -6.3496 -1.62806 0
M  V30 12287 H 1136.33 -5.23473 -2.92807 0
M  V30 12288 H 1138 -5.82026 -2.82586 0
M  V30 12289 N 1138.14 0.641106 -1.43971 0
M  V30 12290 C 1139.07 1.76489 -1.52885 0
M  V30 12291 C 1140.05 1.65742 -0.38258 0
M  V30 12292 O 1141.23 1.84653 -0.601397 0
M  V30 12293 C 1138.36 3.14977 -1.4631 0
M  V30 12294 C 1137.32 3.40502 -2.59311 0
M  V30 12295 C 1136.64 4.78916 -2.37789 0
M  V30 12296 C 1137.94 3.34048 -4.01509 0
M  V30 12297 H 1139.64 1.69286 -2.46946 0
M  V30 12298 H 1137.18 0.813015 -1.18853 0
M  V30 12299 H 1139.14 3.9336 -1.51149 0
M  V30 12300 H 1137.86 3.2294 -0.487599 0
M  V30 12301 H 1136.52 2.64495 -2.53846 0
M  V30 12302 H 1136.17 4.8357 -1.38454 0
M  V30 12303 H 1135.87 4.96954 -3.13545 0
M  V30 12304 H 1137.39 5.59541 -2.4443 0
M  V30 12305 H 1138.81 4.0235 -4.08396 0
M  V30 12306 H 1137.2 3.63622 -4.77388 0
M  V30 12307 H 1138.27 2.32022 -4.25786 0
M  V30 12308 N 1139.62 1.30703 0.880598 0
M  V30 12309 C 1140.56 1.17369 2.00817 0
M  V30 12310 C 1141.56 0.0845159 1.69189 0
M  V30 12311 O 1142.76 0.245673 1.78316 0
M  V30 12312 H 1139.14 0.363107 0.658527 0
M  V30 12313 H 1141.11 2.12789 2.09197 0
M  V30 12314 C 1139.86 0.886851 3.362 0
M  V30 12315 H 1139.18 1.71704 3.61051 0
M  V30 12316 H 1140.62 0.83368 4.15723 0
M  V30 12317 C 1139.08 -0.410293 3.34392 0
M  V30 12318 O 1139.61 -1.43044 3.75368 0
M  V30 12319 N 1137.82 -0.423023 2.87505 0
M  V30 12320 H 1137.36 0.407637 2.54354 0
M  V30 12321 H 1137.32 -1.29086 2.86678 0
M  V30 12322 N 1141.09 -1.09351 1.1349 0
M  V30 12323 C 1142.32 -1.85304 0.920324 0
M  V30 12324 C 1142.74 -1.81182 -0.530883 0
M  V30 12325 O 1142.09 -1.20853 -1.36751 0
M  V30 12326 C 1142.14 -3.33249 1.40098 0
M  V30 12327 O 1141.87 -3.37333 2.79531 0
M  V30 12328 C 1143.37 -4.2604 1.22495 0
M  V30 12329 H 1140.59 -0.585294 0.328134 0
M  V30 12330 H 1143.13 -1.38168 1.50765 0
M  V30 12331 H 1141.29 -3.7781 0.85664 0
M  V30 12332 H 1141.7 -4.29614 3.00885 0
M  V30 12333 H 1143.17 -5.27999 1.61 0
M  V30 12334 H 1143.65 -4.38883 0.166717 0
M  V30 12335 H 1144.26 -3.87295 1.75735 0
M  V30 12336 N 1142.57 -0.928524 -1.27343 0
M  V30 12337 C 1143.53 -0.43292 -2.25074 0
M  V30 12338 C 1144.53 0.448976 -1.54405 0
M  V30 12339 O 1145.72 0.249939 -1.72398 0
M  V30 12340 C 1142.86 0.377539 -3.38803 0
M  V30 12341 H 1144.05 -1.29642 -2.70431 0
M  V30 12342 H 1141.6 -0.709289 -1.3928 0
M  V30 12343 H 1142.34 1.25982 -2.98829 0
M  V30 12344 H 1142.12 -0.254782 -3.91271 0
M  V30 12345 H 1143.61 0.714634 -4.1144 0
M  V30 12346 N 1144.05 1.41491 -0.694123 0
M  V30 12347 C 1145.47 1.55358 -0.365532 0
M  V30 12348 C 1145.67 1.66994 1.12762 0
M  V30 12349 O 1144.72 1.64756 1.91342 0
M  V30 12350 C 1146.03 2.79352 -1.11279 0
M  V30 12351 C 1147.58 2.93147 -1.097 0
M  V30 12352 C 1148.06 4.20027 -1.82597 0
M  V30 12353 N 1149.55 4.26981 -1.7956 0
M  V30 12354 C 1150.28 5.24013 -2.32805 0
M  V30 12355 N 1149.78 6.27083 -2.94515 0
M  V30 12356 N 1151.57 5.15943 -2.23069 0
M  V30 12357 H 1143.72 1.32183 -1.66257 0
M  V30 12358 H 1145.99 0.637624 -0.701527 0
M  V30 12359 H 1145.69 2.76958 -2.16765 0
M  V30 12360 H 1145.57 3.70827 -0.690439 0
M  V30 12361 H 1147.95 2.95057 -0.0504037 0
M  V30 12362 H 1148.03 2.02849 -1.55839 0
M  V30 12363 H 1147.68 4.18878 -2.87235 0
M  V30 12364 H 1147.61 5.09294 -1.33893 0
M  V30 12365 H 1150.1 3.53129 -1.34567 0
M  V30 12366 H 1150.41 6.97511 -3.32714 0
M  V30 12367 H 1148.76 6.27589 -2.98592 0
M  V30 12368 H 1151.95 4.34346 -1.74532 0
M  V30 12369 H 1152.12 5.91396 -2.64868 0
M  V30 12370 N 1145.53 0.438773 1.51369 0
M  V30 12371 C 1146.77 -0.126367 2.04009 0
M  V30 12372 C 1147.13 -1.39837 1.31566 0
M  V30 12373 O 1148.33 -2.04384 1.74587 0
M  V30 12374 C 1146.6 -0.338531 3.55793 0
M  V30 12375 S 1148.16 -0.866869 4.30152 0
M  V30 12376 H 1144.98 -0.0311763 0.710316 0
M  V30 12377 H 1147.58 0.598507 1.86113 0
M  V30 12378 H 1146.29 0.593555 4.06085 0
M  V30 12379 H 1145.82 -1.09044 3.77985 0
M  V30 12380 H 1147.83 -2.14427 4.47477 0
M  V30 12381 N 1147.01 -1.56678 0.170181 0
M  V30 12382 C 1148.25 -1.9646 -0.474125 0
M  V30 12383 C 1148.57 -1.05719 -1.63855 0
M  V30 12384 O 1147.84 -0.123316 -1.95511 0
M  V30 12385 H 1146.42 -0.725446 -0.178149 0
M  V30 12386 H 1149.09 -1.93276 0.251099 0
M  V30 12387 H 1148.18 -3.00726 -0.834894 0
M  V30 12388 N 1148.48 0.103547 -1.57259 0
M  V30 12389 C 1149.42 1.15707 -1.9669 0
M  V30 12390 C 1150.39 1.39292 -0.838837 0
M  V30 12391 O 1151.58 1.53192 -1.09839 0
M  V30 12392 C 1148.71 2.50793 -2.27642 0
M  V30 12393 C 1147.75 2.43541 -3.50129 0
M  V30 12394 S 1148.58 1.86009 -5.02156 0
M  V30 12395 C 1149.74 3.22737 -5.36276 0
M  V30 12396 H 1149.97 0.820891 -2.85742 0
M  V30 12397 H 1147.51 0.310906 -1.51237 0
M  V30 12398 H 1149.46 3.28512 -2.46151 0
M  V30 12399 H 1148.13 2.81583 -1.39176 0
M  V30 12400 H 1147.32 3.43085 -3.692 0
M  V30 12401 H 1146.92 1.73948 -3.31086 0
M  V30 12402 H 1149.21 4.1899 -5.32404 0
M  V30 12403 H 1150.16 3.08477 -6.37375 0
M  V30 12404 H 1150.56 3.21878 -4.6374 0
M  V30 12405 N 1149.96 1.53094 0.37415 0
M  V30 12406 C 1151.21 1.68861 1.11769 0
M  V30 12407 C 1151.54 0.436032 1.89549 0
M  V30 12408 O 1150.79 -0.581879 1.86849 0
M  V30 12409 C 1151.09 2.88432 2.11049 0
M  V30 12410 C 1150.76 4.25284 1.49814 0
M  V30 12411 C 1149.42 4.62501 1.32841 0
M  V30 12412 C 1151.77 5.10425 1.05433 0
M  V30 12413 C 1149.1 5.82502 0.700567 0
M  V30 12414 C 1151.45 6.31064 0.440525 0
M  V30 12415 C 1150.11 6.67 0.258216 0
M  V30 12416 H 1149.38 0.617906 0.40899 0
M  V30 12417 H 1152.03 1.87265 0.4005 0
M  V30 12418 H 1150.34 2.64505 2.8904 0
M  V30 12419 H 1152.03 2.97825 2.68517 0
M  V30 12420 H 1148.62 3.95976 1.64016 0
M  V30 12421 H 1152.81 4.82229 1.17342 0
M  V30 12422 H 1148.06 6.08942 0.547652 0
M  V30 12423 H 1152.24 6.96344 0.0883962 0
M  V30 12424 H 1149.86 7.59851 -0.230354 0
M  V30 12425 N 1151.44 -0.633461 1.44309 0
M  V30 12426 C 1152.66 -1.42527 1.50668 0
M  V30 12427 C 1153.09 -1.87637 0.131861 0
M  V30 12428 O 1152.45 -1.58595 -0.878477 0
M  V30 12429 C 1152.5 -2.62328 2.47419 0
M  V30 12430 O 1151.6 -3.62081 1.97411 0
M  V30 12431 H 1150.94 -0.426559 0.508864 0
M  V30 12432 H 1153.47 -0.773392 1.8942 0
M  V30 12433 H 1153.48 -3.09901 2.65378 0
M  V30 12434 H 1152.16 -2.2884 3.47283 0
M  V30 12435 H 1150.73 -3.21333 1.89208 0
M  V30 12436 N 1152.92 -1.31168 -0.873655 0
M  V30 12437 C 1154.14 -1.23728 -1.66452 0
M  V30 12438 C 1154.57 0.194869 -1.87088 0
M  V30 12439 O 1153.93 1.1397 -1.40998 0
M  V30 12440 C 1153.97 -1.98285 -3.0119 0
M  V30 12441 O 1153.08 -1.31767 -3.90783 0
M  V30 12442 H 1152.42 -0.427362 -0.508191 0
M  V30 12443 H 1154.95 -1.73176 -1.08955 0
M  V30 12444 H 1154.96 -2.0774 -3.51153 0
M  V30 12445 H 1153.63 -3.02437 -2.8549 0
M  V30 12446 H 1152.21 -1.3074 -3.4923 0
M  V30 12447 N 1154.4 1.08748 -1.14068 0
M  V30 12448 C 1155.67 1.7769 -0.81766 0
M  V30 12449 C 1156.05 1.99522 0.689501 0
M  V30 12450 O 1155.4 1.60222 1.62914 0
M  V30 12451 C 1155.61 3.09517 -1.61245 0
M  V30 12452 C 1156.96 3.84108 -1.80958 0
M  V30 12453 O 1157.98 3.19289 -1.57902 0
M  V30 12454 O 1156.84 5.00491 -2.19479 0
M  V30 12455 H 1153.94 0.770953 -0.299265 0
M  V30 12456 H 1156.48 1.15242 -1.24569 0
M  V30 12457 H 1155.25 2.89155 -2.63638 0
M  V30 12458 H 1154.88 3.79692 -1.17982 0
M  V30 12459 N 1155.87 0.935264 1.26849 0
M  V30 12460 C 1157.29 0.636661 1.46352 0
M  V30 12461 C 1157.49 -0.811823 1.84423 0
M  V30 12462 O 1156.55 -1.58902 1.9623 0
M  V30 12463 C 1157.86 1.59301 2.55036 0
M  V30 12464 C 1159.41 1.60207 2.68892 0
M  V30 12465 C 1159.88 2.54558 3.80742 0
M  V30 12466 N 1161.37 2.52809 3.88126 0
M  V30 12467 C 1162.11 3.225 4.74111 0
M  V30 12468 N 1161.6 4.01598 5.64527 0
M  V30 12469 N 1163.4 3.11481 4.67906 0
M  V30 12470 H 1155.55 1.8716 1.00423 0
M  V30 12471 H 1157.81 0.803968 0.502334 0
M  V30 12472 H 1157.52 2.62671 2.33874 0
M  V30 12473 H 1157.39 1.34052 3.52576 0
M  V30 12474 H 1159.78 0.575649 2.89431 0
M  V30 12475 H 1159.86 1.89508 1.71815 0
M  V30 12476 H 1159.5 3.57314 3.60956 0
M  V30 12477 H 1159.43 2.22549 4.77263 0
M  V30 12478 H 1161.92 1.9537 3.2348 0
M  V30 12479 H 1162.24 4.51742 6.27016 0
M  V30 12480 H 1160.58 4.057 5.64298 0
M  V30 12481 H 1163.77 2.49175 3.9627 0
M  V30 12482 H 1163.95 3.66064 5.34697 0
M  V30 12483 N 1157.35 -1.41121 0.701616 0
M  V30 12484 C 1158.58 -2.05973 0.242896 0
M  V30 12485 C 1159 -1.52474 -1.10151 0
M  V30 12486 O 1158.36 -0.654224 -1.69085 0
M  V30 12487 C 1158.41 -3.59943 0.217614 0
M  V30 12488 O 1157.51 -4.04454 -0.805629 0
M  V30 12489 H 1156.85 -0.653581 0.117166 0
M  V30 12490 H 1159.38 -1.80777 0.958175 0
M  V30 12491 H 1159.39 -4.07969 0.0505267 0
M  V30 12492 H 1158.07 -3.98249 1.19877 0
M  V30 12493 H 1156.65 -3.6792 -0.607404 0
M  V30 12494 N 1158.83 -0.446794 -1.51134 0
M  V30 12495 C 1160.08 0.118047 -2.01354 0
M  V30 12496 C 1160.39 1.42953 -1.33505 0
M  V30 12497 O 1161.6 2.07788 -1.74747 0
M  V30 12498 C 1160.05 0.260912 -3.58953 0
M  V30 12499 C 1159.66 -1.0407 -4.35745 0
M  V30 12500 C 1161.41 0.779014 -4.17291 0
M  V30 12501 C 1159.31 -0.862958 -5.8507 0
M  V30 12502 H 1158.24 0.0478915 -0.752478 0
M  V30 12503 H 1160.89 -0.577997 -1.74159 0
M  V30 12504 H 1159.28 1.02018 -3.82633 0
M  V30 12505 H 1160.45 -1.80903 -4.23805 0
M  V30 12506 H 1158.77 -1.48805 -3.88904 0
M  V30 12507 H 1161.36 0.928636 -5.26574 0
M  V30 12508 H 1161.71 1.76399 -3.7708 0
M  V30 12509 H 1162.24 0.0778022 -3.97724 0
M  V30 12510 H 1158.98 -1.82059 -6.2971 0
M  V30 12511 H 1158.5 -0.134588 -5.99649 0
M  V30 12512 H 1160.18 -0.51989 -6.44908 0
M  V30 12513 N 1160.31 1.56586 -0.178487 0
M  V30 12514 C 1161.72 1.58609 0.17759 0
M  V30 12515 C 1161.92 1.19411 1.62306 0
M  V30 12516 O 1160.98 0.90906 2.35568 0
M  V30 12517 C 1162.29 3.005 -0.109722 0
M  V30 12518 C 1163.84 3.12962 -0.0485036 0
M  V30 12519 C 1164.32 4.56957 -0.308901 0
M  V30 12520 N 1165.81 4.62487 -0.25693 0
M  V30 12521 C 1166.54 5.71767 -0.432488 0
M  V30 12522 N 1166.04 6.89577 -0.667494 0
M  V30 12523 N 1167.83 5.60895 -0.367895 0
M  V30 12524 H 1159.98 1.80351 -1.12193 0
M  V30 12525 H 1162.25 0.83623 -0.446569 0
M  V30 12526 H 1161.95 3.3368 -1.11133 0
M  V30 12527 H 1161.83 3.72472 0.595373 0
M  V30 12528 H 1164.21 2.79604 0.943687 0
M  V30 12529 H 1164.29 2.43411 -0.78642 0
M  V30 12530 H 1163.94 4.91025 -1.29833 0
M  V30 12531 H 1163.87 5.24676 0.449711 0
M  V30 12532 H 1166.36 3.77813 -0.0812308 0
M  V30 12533 H 1166.67 7.68744 -0.79071 0
M  V30 12534 H 1165.02 6.91423 -0.704193 0
M  V30 12535 H 1168.21 4.67735 -0.184837 0
M  V30 12536 H 1168.38 6.46005 -0.508138 0
M  V30 12537 N 1161.79 -0.095206 1.57312 0
M  V30 12538 C 1163.06 -0.830388 1.77099 0
M  V30 12539 C 1163.44 -1.9694 0.760121 0
M  V30 12540 O 1162.79 -2.2752 -0.211403 0
M  V30 12541 C 1163 -1.32507 3.22867 0
M  V30 12542 C 1164.35 -1.7679 3.86045 0
M  V30 12543 O 1165.37 -1.42131 3.26615 0
M  V30 12544 O 1164.23 -2.40876 4.90552 0
M  V30 12545 H 1161.33 -0.396083 0.72598 0
M  V30 12546 H 1163.87 -0.0770965 1.69525 0
M  V30 12547 H 1162.64 -0.508992 3.87975 0
M  V30 12548 H 1162.27 -2.14037 3.35073 0
M  V30 12549 N 1163.26 -1.53291 -0.366026 0
M  V30 12550 C 1164.49 -1.73108 -1.1277 0
M  V30 12551 C 1164.9 -0.459662 -1.83531 0
M  V30 12552 O 1164.25 0.577151 -1.74398 0
M  V30 12553 C 1164.31 -2.84137 -2.20242 0
M  V30 12554 C 1163.97 -4.24503 -1.69252 0
M  V30 12555 C 1164.97 -5.06866 -1.15684 0
M  V30 12556 C 1162.65 -4.70912 -1.74778 0
M  V30 12557 C 1164.65 -6.33728 -0.683191 0
M  V30 12558 C 1162.33 -5.97752 -1.27025 0
M  V30 12559 C 1163.33 -6.78992 -0.738858 0
M  V30 12560 O 1163.02 -8.03452 -0.268375 0
M  V30 12561 H 1162.75 -0.582439 -0.343134 0
M  V30 12562 H 1165.31 -2.00828 -0.430969 0
M  V30 12563 H 1163.54 -2.5189 -2.93408 0
M  V30 12564 H 1165.23 -2.92136 -2.818 0
M  V30 12565 H 1165.99 -4.72185 -1.10753 0
M  V30 12566 H 1161.87 -4.07751 -2.15081 0
M  V30 12567 H 1165.41 -6.97086 -0.267746 0
M  V30 12568 H 1161.31 -6.31933 -1.31649 0
M  V30 12569 H 1162.08 -8.17581 -0.387745 0
M  V30 12570 N 1164.74 0.6258 -1.44643 0
M  V30 12571 C 1165.67 1.75086 -1.47911 0
M  V30 12572 C 1166.69 1.58496 -0.37188 0
M  V30 12573 O 1167.88 1.66712 -0.637925 0
M  V30 12574 C 1164.98 3.12874 -1.30243 0
M  V30 12575 C 1164.15 3.55873 -2.54309 0
M  V30 12576 C 1163.21 4.72558 -2.31464 0
M  V30 12577 O 1162.23 4.80599 -3.04981 0
M  V30 12578 N 1163.44 5.64617 -1.34862 0
M  V30 12579 H 1166.2 1.72751 -2.44902 0
M  V30 12580 H 1163.76 0.810531 -1.4015 0
M  V30 12581 H 1165.75 3.88663 -1.12798 0
M  V30 12582 H 1164.32 3.0982 -0.415966 0
M  V30 12583 H 1163.54 2.70237 -2.86994 0
M  V30 12584 H 1164.83 3.81355 -3.36817 0
M  V30 12585 H 1164.23 5.60819 -0.741542 0
M  V30 12586 H 1162.79 6.40013 -1.23394 0
M  V30 12587 N 1166.22 1.31629 0.866686 0
M  V30 12588 C 1167.18 1.1951 1.95576 0
M  V30 12589 C 1168.18 0.121319 1.60342 0
M  V30 12590 O 1169.37 0.370832 1.70207 0
M  V30 12591 C 1166.51 0.835201 3.30511 0
M  V30 12592 H 1167.7 2.16285 2.07752 0
M  V30 12593 H 1165.25 1.15288 1.05539 0
M  V30 12594 H 1165.99 -0.131245 3.24034 0
M  V30 12595 H 1165.77 1.61142 3.57457 0
M  V30 12596 H 1167.26 0.774393 4.10357 0
M  V30 12597 N 1167.7 -1.08142 1.14644 0
M  V30 12598 C 1169.12 -1.32656 0.887388 0
M  V30 12599 C 1169.32 -1.95942 -0.470012 0
M  V30 12600 O 1168.37 -2.21417 -1.21371 0
M  V30 12601 C 1169.68 -2.22549 2.02219 0
M  V30 12602 C 1171.23 -2.36021 2.0558 0
M  V30 12603 C 1171.71 -3.29257 3.18361 0
M  V30 12604 N 1173.2 -3.36835 3.17957 0
M  V30 12605 C 1173.93 -4.09017 4.01862 0
M  V30 12606 N 1173.43 -4.83882 4.95812 0
M  V30 12607 N 1175.22 -4.04875 3.89913 0
M  V30 12608 H 1167.37 -0.654457 2.02066 0
M  V30 12609 H 1169.64 -0.350947 0.880648 0
M  V30 12610 H 1169.34 -1.83296 3.00159 0
M  V30 12611 H 1169.22 -3.23027 1.94765 0
M  V30 12612 H 1171.6 -2.74531 1.08245 0
M  V30 12613 H 1171.68 -1.35275 2.17105 0
M  V30 12614 H 1171.33 -2.91468 4.15944 0
M  V30 12615 H 1171.26 -4.29938 3.04074 0
M  V30 12616 H 1173.75 -2.83465 2.49912 0
M  V30 12617 H 1174.06 -5.3643 5.56294 0
M  V30 12618 H 1172.41 -4.82926 4.99808 0
M  V30 12619 H 1175.6 -3.45496 3.15833 0
M  V30 12620 H 1175.77 -4.60866 4.55529 0
M  V30 12621 N 1169.18 -0.941978 -1.26351 0
M  V30 12622 C 1170.43 -0.585711 -1.93009 0
M  V30 12623 C 1170.74 0.879507 -1.74711 0
M  V30 12624 O 1171.95 1.34518 -2.35833 0
M  V30 12625 C 1170.4 -0.996787 -3.45821 0
M  V30 12626 C 1170.01 -2.48367 -3.72851 0
M  V30 12627 C 1171.75 -0.712452 -4.18479 0
M  V30 12628 C 1169.66 -2.83341 -5.19107 0
M  V30 12629 H 1168.59 -0.215342 -0.722595 0
M  V30 12630 H 1171.24 -1.14472 -1.43417 0
M  V30 12631 H 1169.62 -0.366295 -3.94302 0
M  V30 12632 H 1170.8 -3.16328 -3.35072 0
M  V30 12633 H 1169.11 -2.74139 -3.13427 0
M  V30 12634 H 1171.71 -0.95007 -5.26192 0
M  V30 12635 H 1172.05 0.350811 -4.14819 0
M  V30 12636 H 1172.59 -1.3027 -3.75865 0
M  V30 12637 H 1169.32 -3.88633 -5.27868 0
M  V30 12638 H 1168.84 -2.20043 -5.5798 0
M  V30 12639 H 1170.52 -2.71849 -5.87118 0
M  V30 12640 N 1170.66 1.40747 -0.709091 0
M  V30 12641 C 1171.9 2.01796 -0.254976 0
M  V30 12642 C 1172.26 1.55202 1.13711 0
M  V30 12643 O 1171.55 0.759312 1.75912 0
M  V30 12644 C 1171.74 3.56404 -0.266685 0
M  V30 12645 C 1171.57 4.18005 -1.65837 0
M  V30 12646 C 1170.34 4.51719 -2.26447 0
M  V30 12647 C 1172.54 4.43302 -2.60744 0
M  V30 12648 N 1170.52 4.9868 -3.58039 0
M  V30 12649 C 1171.89 4.92185 -3.77033 0
M  V30 12650 C 1173.95 4.25332 -2.58839 0
M  V30 12651 C 1172.65 5.24984 -4.91715 0
M  V30 12652 C 1174.68 4.59228 -3.72644 0
M  V30 12653 C 1174.04 5.08294 -4.87664 0
M  V30 12654 H 1170.14 0.769549 -0.138991 0
M  V30 12655 H 1172.72 1.71081 -0.929488 0
M  V30 12656 H 1170.89 3.86562 0.377365 0
M  V30 12657 H 1172.63 4.04188 0.203528 0
M  V30 12658 H 1169.38 4.38631 -1.78605 0
M  V30 12659 H 1169.8 5.2655 -4.25528 0
M  V30 12660 H 1174.45 3.86623 -1.71121 0
M  V30 12661 H 1172.16 5.6261 -5.80082 0
M  V30 12662 H 1175.75 4.4697 -3.72437 0
M  V30 12663 H 1174.63 5.3403 -5.74267 0
M  V30 12664 N 1172.13 0.454803 1.50895 0
M  V30 12665 C 1173.07 -0.383826 2.25963 0
M  V30 12666 C 1174.08 -0.971263 1.30653 0
M  V30 12667 O 1175.27 -0.862434 1.56283 0
M  V30 12668 C 1172.37 -1.55069 3.01342 0
M  V30 12669 C 1171.54 -1.07899 4.23883 0
M  V30 12670 C 1170.6 -2.118 4.81692 0
M  V30 12671 O 1169.63 -1.70523 5.43057 0
M  V30 12672 N 1170.83 -3.44459 4.67256 0
M  V30 12673 H 1173.59 0.259646 2.98573 0
M  V30 12674 H 1171.15 0.284661 1.59378 0
M  V30 12675 H 1173.15 -2.24236 3.36898 0
M  V30 12676 H 1171.72 -2.09917 2.31633 0
M  V30 12677 H 1170.94 -0.213773 3.9362 0
M  V30 12678 H 1172.22 -0.741501 5.03368 0
M  V30 12679 H 1171.62 -3.80716 4.18416 0
M  V30 12680 H 1170.18 -4.0947 5.07127 0
M  V30 12681 N 1173.61 -1.56489 0.186789 0
M  V30 12682 C 1174.57 -2.17478 -0.723596 0
M  V30 12683 C 1175.57 -1.12698 -1.14699 0
M  V30 12684 O 1176.76 -1.38128 -1.06143 0
M  V30 12685 C 1173.9 -2.77015 -1.98685 0
M  V30 12686 H 1175.09 -2.99282 -0.192403 0
M  V30 12687 H 1172.64 -1.56174 -0.0628153 0
M  V30 12688 H 1173.38 -1.98987 -2.56076 0
M  V30 12689 H 1173.16 -3.53711 -1.69207 0
M  V30 12690 H 1174.65 -3.23872 -2.63622 0
M  V30 12691 N 1175.09 0.086862 -1.5736 0
M  V30 12692 C 1176.04 1.10478 -2.02641 0
M  V30 12693 C 1177.01 1.39331 -0.904219 0
M  V30 12694 O 1178.19 1.50654 -1.17081 0
M  V30 12695 C 1175.33 2.41754 -2.4627 0
M  V30 12696 C 1174.44 2.19561 -3.72044 0
M  V30 12697 C 1173.58 3.44294 -4.04519 0
M  V30 12698 C 1172.62 3.17399 -5.23378 0
M  V30 12699 N 1171.76 4.3442 -5.51564 0
M  V30 12700 H 1176.6 0.711663 -2.89378 0
M  V30 12701 H 1174.13 0.339856 -1.4312 0
M  V30 12702 H 1176.09 3.18378 -2.69613 0
M  V30 12703 H 1174.72 2.78896 -1.62532 0
M  V30 12704 H 1173.77 1.337 -3.5613 0
M  V30 12705 H 1175.08 1.95685 -4.58812 0
M  V30 12706 H 1174.24 4.29321 -4.28682 0
M  V30 12707 H 1172.98 3.71232 -3.16289 0
M  V30 12708 H 1171.98 2.30765 -4.99026 0
M  V30 12709 H 1173.21 2.91799 -6.13213 0
M  V30 12710 H 1171.15 4.61418 -4.66293 0
M  V30 12711 H 1171.07 4.13764 -6.3272 0
M  V30 12712 H 1172.34 5.20489 -5.80269 0
M  V30 12713 N 1176.57 1.53483 0.357892 0
M  V30 12714 C 1177.98 1.43426 0.700073 0
M  V30 12715 C 1178.18 0.579493 1.92987 0
M  V30 12716 O 1177.24 0.0649086 2.52417 0
M  V30 12717 C 1178.55 2.86723 0.906099 0
M  V30 12718 C 1180.1 2.96405 1.00563 0
M  V30 12719 C 1180.58 4.4078 1.24407 0
M  V30 12720 N 1182.07 4.44243 1.3116 0
M  V30 12721 C 1182.8 5.53069 1.51333 0
M  V30 12722 N 1182.3 6.71928 1.68774 0
M  V30 12723 N 1184.09 5.40659 1.53765 0
M  V30 12724 H 1176.24 2.07559 -0.450894 0
M  V30 12725 H 1178.5 0.937649 -0.139711 0
M  V30 12726 H 1178.21 3.51622 0.0741579 0
M  V30 12727 H 1178.08 3.30827 1.81199 0
M  V30 12728 H 1180.47 2.31656 1.8281 0
M  V30 12729 H 1180.55 2.55684 0.0769512 0
M  V30 12730 H 1180.2 5.06105 0.426575 0
M  V30 12731 H 1180.13 4.7908 2.18608 0
M  V30 12732 H 1182.62 3.58587 1.19265 0
M  V30 12733 H 1182.93 7.50634 1.83762 0
M  V30 12734 H 1181.28 6.749 1.65937 0
M  V30 12735 H 1184.47 4.46764 1.39713 0
M  V30 12736 H 1184.64 6.25535 1.69146 0
M  V30 12737 O 1178.08 -0.50387 1.53439 0
M  V30 12738 H 1178.78 -1.15877 1.55217 0
M  V30 END ATOM
M  V30 BEGIN BOND
M  V30 END BOND
M  V30 END CTAB
M  END
$$$$
