drugbank_target|Q9I194 Acyl-homoserine lactone acylase PvdQ (DB03017)
 OpenBabel12092120453D

  0  0  0     0  0            999 V3000
M  V30 BEGIN CTAB
M  V30 COUNTS 11770 11906 0 0 0
M  V30 BEGIN ATOM
M  V30 1 H -0.908 1.98254 -0.117106 0
M  V30 2 N 0 1.576 0 0
M  V30 3 C 0.933 2.03868 1.02534 0
M  V30 4 C 1.911 0.928543 1.3348 0
M  V30 5 O 3.095 1.19667 1.45644 0
M  V30 6 C 0.222 2.43627 2.35294 0
M  V30 7 C -0.732 3.65373 2.2001 0
M  V30 8 S 0.101 5.13292 1.52614 0
M  V30 9 C 1.257 5.56322 2.86805 0
M  V30 10 H 1.49 2.90518 0.631377 0
M  V30 11 H -0.977 1.52953 0.210867 0
M  V30 12 H 0.981 2.67203 3.11629 0
M  V30 13 H -0.358 1.57376 2.7183 0
M  V30 14 H -1.165 3.90944 3.18086 0
M  V30 15 H -1.563 3.418 1.51819 0
M  V30 16 H 0.729 5.58782 3.83104 0
M  V30 17 H 1.672 6.56266 2.65933 0
M  V30 18 H 2.08 4.83886 2.90714 0
M  V30 19 N 1.4781 -0.272755 1.55222 0
M  V30 20 C 2.7261 -1.00234 1.75492 0
M  V30 21 C 3.0471 -1.8681 0.5592 0
M  V30 22 O 2.3171 -1.91215 -0.425882 0
M  V30 23 H 0.8971 -0.373076 0.647166 0
M  V30 24 H 3.5591 -0.296926 1.92625 0
M  V30 25 H 2.6551 -1.63913 2.65592 0
M  V30 26 N 2.9562 -1.48159 -0.537278 0
M  V30 27 C 3.8892 -1.567 -1.65893 0
M  V30 28 C 4.8672 -0.41787 -1.57139 0
M  V30 29 O 6.0512 -0.628461 -1.77715 0
M  V30 30 C 3.1782 -1.48818 -3.04255 0
M  V30 31 C 2.2242 -2.68482 -3.31391 0
M  V30 32 S 3.0572 -4.30516 -3.1846 0
M  V30 33 C 4.2132 -4.2522 -4.59281 0
M  V30 34 H 4.4462 -2.5159 -1.58397 0
M  V30 35 H 1.9792 -1.36602 -0.719672 0
M  V30 36 H 3.9372 -1.44958 -3.84054 0
M  V30 37 H 2.5982 -0.552777 -3.09198 0
M  V30 38 H 1.7912 -2.59085 -4.32309 0
M  V30 39 H 1.3932 -2.69567 -2.59248 0
M  V30 40 H 3.6852 -3.94703 -5.5065 0
M  V30 41 H 4.6282 -5.26292 -4.73732 0
M  V30 42 H 5.0362 -3.55791 -4.38261 0
M  V30 43 N 4.4343 0.785586 -1.36625 0
M  V30 44 C 5.8503 1.08419 -1.17122 0
M  V30 45 C 6.0503 2.015 0.00208491 0
M  V30 46 O 5.1063 2.43551 0.666278 0
M  V30 47 C 6.4193 1.69498 -2.48377 0
M  V30 48 C 7.9673 1.81821 -2.54775 0
M  V30 49 C 8.4423 2.46315 -3.86126 0
M  V30 50 N 9.9333 2.53779 -3.87492 0
M  V30 51 C 10.6683 3.045 -4.85868 0
M  V30 52 N 10.1643 3.55499 -5.94637 0
M  V30 53 N 11.9573 3.03247 -4.73284 0
M  V30 54 H 4.1083 0.167264 -2.1174 0
M  V30 55 H 6.3713 0.13682 -0.938075 0
M  V30 56 H 6.0773 1.08571 -3.34522 0
M  V30 57 H 5.9513 2.6896 -2.64462 0
M  V30 58 H 8.3383 2.41884 -1.69045 0
M  V30 59 H 8.4193 0.811532 -2.42586 0
M  V30 60 H 8.0633 1.86895 -4.72263 0
M  V30 61 H 7.9933 3.47561 -3.95612 0
M  V30 62 H 10.4843 2.17672 -3.08913 0
M  V30 63 H 10.7973 3.92562 -6.65669 0
M  V30 64 H 9.1423 3.5364 -5.98301 0
M  V30 65 H 12.3333 2.62696 -3.87438 0
M  V30 66 H 12.5063 3.42467 -5.50109 0
M  V30 67 N 5.9124 1.20967 1.01018 0
M  V30 68 C 7.1404 1.04956 1.78303 0
M  V30 69 C 7.5554 -0.400915 1.84494 0
M  V30 70 O 6.9124 -1.27826 1.30257 0
M  V30 71 C 6.9634 1.63403 3.22462 0
M  V30 72 O 6.6844 3.02775 3.16637 0
M  V30 73 C 8.1854 1.52432 4.16268 0
M  V30 74 H 5.4054 0.368858 0.560522 0
M  V30 75 H 7.9494 1.60193 1.27116 0
M  V30 76 H 6.1044 1.1227 3.70775 0
M  V30 77 H 6.5184 3.30626 4.07169 0
M  V30 78 H 7.9924 1.98078 5.15237 0
M  V30 79 H 8.4694 0.477875 4.36592 0
M  V30 80 H 9.0754 2.02787 3.73841 0
M  V30 81 N 7.3905 -1.2043 1.01659 0
M  V30 82 C 8.6365 -1.90079 0.706963 0
M  V30 83 C 8.9695 -1.78648 -0.761474 0
M  V30 84 O 8.2445 -1.17069 -1.55323 0
M  V30 85 C 8.5275 -3.41469 1.14327 0
M  V30 86 C 8.3805 -3.61833 2.67201 0
M  V30 87 C 9.6995 -4.34261 0.714529 0
M  V30 88 H 6.8185 -0.690254 0.2583 0
M  V30 89 H 9.4605 -1.41826 1.26433 0
M  V30 90 H 7.6105 -3.82696 0.669056 0
M  V30 91 H 9.2825 -3.2986 3.22475 0
M  V30 92 H 7.5255 -3.05304 3.08175 0
M  V30 93 H 8.1965 -4.67955 2.92783 0
M  V30 94 H 10.6725 -4.00682 1.12221 0
M  V30 95 H 9.5485 -5.38806 1.04784 0
M  V30 96 H 9.8095 -4.40431 -0.383799 0
M  V30 97 N 8.8686 -0.792821 -1.36206 0
M  V30 98 C 9.7986 -0.207853 -2.32573 0
M  V30 99 C 10.7796 0.659055 -1.56813 0
M  V30 100 O 11.9646 0.592176 -1.84951 0
M  V30 101 C 9.0946 0.655449 -3.41059 0
M  V30 102 C 8.0486 -0.111842 -4.27854 0
M  V30 103 C 7.3746 0.872274 -5.27537 0
M  V30 104 C 8.6746 -1.30299 -5.05786 0
M  V30 105 H 10.3686 -1.01294 -2.81744 0
M  V30 106 H 7.9146 -0.48854 -1.3546 0
M  V30 107 H 9.8676 1.07464 -4.07467 0
M  V30 108 H 8.5916 1.49328 -2.90463 0
M  V30 109 H 7.2506 -0.512053 -3.63006 0
M  V30 110 H 6.8986 1.70523 -4.73214 0
M  V30 111 H 6.5986 0.363291 -5.86476 0
M  V30 112 H 8.1226 1.28996 -5.96818 0
M  V30 113 H 9.5366 -0.959379 -5.65216 0
M  V30 114 H 7.9336 -1.7455 -5.74154 0
M  V30 115 H 9.0036 -2.09663 -4.37229 0
M  V30 116 N 10.3467 1.47872 -0.545128 0
M  V30 117 C 11.5747 2.06889 -0.021084 0
M  V30 118 C 11.9897 1.39955 1.2672 0
M  V30 119 O 11.3467 0.492036 1.75742 0
M  V30 120 C 11.3977 3.60996 0.190817 0
M  V30 121 O 11.1187 4.25419 -1.04644 0
M  V30 122 C 12.6197 4.36849 0.753521 0
M  V30 123 H 9.8397 0.669785 -0.0403635 0
M  V30 124 H 12.3837 1.90049 -0.755095 0
M  V30 125 H 10.5387 3.77391 0.87492 0
M  V30 126 H 10.9527 5.17785 -0.836611 0
M  V30 127 H 12.4267 5.45399 0.851139 0
M  V30 128 H 12.9037 4.02306 1.762 0
M  V30 129 H 13.5097 4.25169 0.105503 0
M  V30 130 N 11.8248 0.280983 1.55075 0
M  V30 131 C 13.0728 -0.333455 1.9933 0
M  V30 132 C 13.3938 -1.55937 1.17085 0
M  V30 133 O 12.6638 -1.94143 0.261805 0
M  V30 134 H 11.2438 -0.126197 0.736263 0
M  V30 135 H 13.9058 0.387678 1.91005 0
M  V30 136 H 13.0018 -0.619292 3.05894 0
M  V30 137 N 13.3029 -1.57598 0.00835791 0
M  V30 138 C 14.2329 -2.1198 -0.979113 0
M  V30 139 C 15.2139 -1.03091 -1.35301 0
M  V30 140 O 16.3989 -1.30818 -1.43528 0
M  V30 141 C 13.5289 -2.62995 -2.26828 0
M  V30 142 C 12.4829 -3.76485 -2.03576 0
M  V30 143 C 11.8089 -4.13846 -3.38579 0
M  V30 144 C 13.1089 -5.0342 -1.39161 0
M  V30 145 H 14.8029 -2.94738 -0.526281 0
M  V30 146 H 12.3489 -1.41783 -0.251704 0
M  V30 147 H 14.3019 -2.99669 -2.96271 0
M  V30 148 H 13.0259 -1.7737 -2.7424 0
M  V30 149 H 11.6849 -3.40217 -1.36557 0
M  V30 150 H 11.3329 -3.25232 -3.83709 0
M  V30 151 H 11.0329 -4.90312 -3.23834 0
M  V30 152 H 12.5569 -4.53086 -4.09323 0
M  V30 153 H 13.9709 -5.37812 -1.98573 0
M  V30 154 H 12.3679 -5.84746 -1.34878 0
M  V30 155 H 13.4379 -4.83548 -0.361868 0
M  V30 156 N 14.781 0.264519 -1.55364 0
M  V30 157 C 15.744 1.31046 -1.88042 0
M  V30 158 C 16.744 1.41943 -0.755569 0
M  V30 159 O 17.934 1.40947 -1.02369 0
M  V30 160 C 15.066 2.69067 -2.09323 0
M  V30 161 H 16.259 1.03297 -2.81549 0
M  V30 162 H 13.812 0.502989 -1.47986 0
M  V30 163 H 14.547 3.01982 -1.18226 0
M  V30 164 H 14.332 2.62542 -2.91229 0
M  V30 165 H 15.822 3.44623 -2.35848 0
M  V30 166 N 16.2591 1.48442 0.529413 0
M  V30 167 C 17.5071 1.56179 1.28267 0
M  V30 168 C 17.8281 0.237721 1.93546 0
M  V30 169 O 17.0981 -0.740779 1.81354 0
M  V30 170 H 15.6781 0.575367 0.476405 0
M  V30 171 H 18.3401 1.84909 0.61602 0
M  V30 172 H 17.4361 2.34312 2.06165 0
M  V30 173 N 17.7372 -0.778329 1.37039 0
M  V30 174 C 18.6702 -1.8984 1.26633 0
M  V30 175 C 19.6482 -1.61923 0.148197 0
M  V30 176 O 20.8322 -1.85742 0.321265 0
M  V30 177 C 17.9592 -3.24916 0.956403 0
M  V30 178 C 17.0052 -3.71752 2.09051 0
M  V30 179 S 17.8382 -3.86201 3.70957 0
M  V30 180 C 18.9942 -5.24135 3.42101 0
M  V30 181 H 19.2272 -1.98377 2.21436 0
M  V30 182 H 16.7602 -0.938738 1.22585 0
M  V30 183 H 18.7182 -4.02936 0.784409 0
M  V30 184 H 17.3792 -3.14089 0.0259713 0
M  V30 185 H 16.5722 -4.69661 1.8285 0
M  V30 186 H 16.1742 -3.00815 2.2223 0
M  V30 187 H 18.4662 -6.09086 2.96682 0
M  V30 188 H 19.4092 -5.55346 4.39314 0
M  V30 189 H 19.8172 -4.91761 2.77185 0
M  V30 190 N 19.2153 -1.21501 -1.00376 0
M  V30 191 C 20.1453 -0.999478 -2.11028 0
M  V30 192 C 21.1263 0.0759671 -1.6993 0
M  V30 193 O 22.3113 -0.0841106 -1.94018 0
M  V30 194 C 19.4413 -0.564709 -3.42678 0
M  V30 195 C 18.3953 -1.58486 -3.97576 0
M  V30 196 C 17.7213 -1.00628 -5.25146 0
M  V30 197 C 19.0213 -2.97204 -4.29496 0
M  V30 198 H 20.7153 -1.92495 -2.29317 0
M  V30 199 H 18.2613 -0.92693 -1.102 0
M  V30 200 H 20.2143 -0.401091 -4.19487 0
M  V30 201 H 18.9383 0.396411 -3.24185 0
M  V30 202 H 17.5973 -1.73606 -3.22888 0
M  V30 203 H 17.2453 -0.0368439 -5.02987 0
M  V30 204 H 16.9453 -1.68771 -5.62841 0
M  V30 205 H 18.4693 -0.854015 -6.04598 0
M  V30 206 H 19.8833 -2.8552 -4.97143 0
M  V30 207 H 18.2803 -3.62372 -4.78338 0
M  V30 208 H 19.3503 -3.47956 -3.3772 0
M  V30 209 N 20.6934 1.19889 -1.02296 0
M  V30 210 C 21.6234 2.25141 -0.619174 0
M  V30 211 C 22.6044 1.66051 0.368915 0
M  V30 212 O 23.7894 1.92546 0.252941 0
M  V30 213 C 20.9194 3.4728 0.0368783 0
M  V30 214 C 19.8734 4.19005 -0.872865 0
M  V30 215 C 19.1994 5.34637 -0.0822402 0
M  V30 216 C 20.4994 4.74452 -2.18387 0
M  V30 217 H 22.1934 2.59171 -1.49903 0
M  V30 218 H 19.7394 1.24579 -0.722222 0
M  V30 219 H 21.6924 4.20098 0.330958 0
M  V30 220 H 20.4164 3.12433 0.95149 0
M  V30 221 H 19.0754 3.48061 -1.15105 0
M  V30 222 H 18.7234 4.96034 0.83422 0
M  V30 223 H 18.4234 5.83557 -0.688149 0
M  V30 224 H 19.9474 6.10255 0.205238 0
M  V30 225 H 21.3614 5.39055 -1.95172 0
M  V30 226 H 19.7584 5.33834 -2.74119 0
M  V30 227 H 20.8284 3.92844 -2.84257 0
M  V30 228 N 22.1715 0.800033 1.35784 0
M  V30 229 C 23.4195 0.376597 1.9856 0
M  V30 230 C 23.7405 -1.05812 1.63795 0
M  V30 231 O 23.0105 -1.73103 0.917171 0
M  V30 232 H 21.5905 0.136261 0.734467 0
M  V30 233 H 24.2525 1.02442 1.65806 0
M  V30 234 H 23.3485 0.477002 3.08433 0
M  V30 235 N 23.6496 -1.47581 0.552962 0
M  V30 236 C 24.8746 -2.07378 0.0300593 0
M  V30 237 C 25.2996 -1.40355 -1.25229 0
M  V30 238 O 24.6576 -0.477099 -1.7491 0
M  V30 239 C 24.7056 -3.60274 -0.153231 0
M  V30 240 O 23.8096 -3.94041 -1.21678 0
M  V30 241 H 23.1506 -0.662158 0.0494182 0
M  V30 242 H 25.6806 -1.89662 0.767434 0
M  V30 243 H 25.6906 -4.0633 -0.368761 0
M  V30 244 H 24.3656 -4.08455 0.783397 0
M  V30 245 H 22.9426 -3.59735 -0.982079 0
M  V30 246 N 25.1277 -0.289203 -1.54924 0
M  V30 247 C 26.0607 0.633823 -2.19221 0
M  V30 248 C 27.0387 1.14174 -1.15772 0
M  V30 249 O 28.2227 1.21211 -1.44361 0
M  V30 250 C 25.3497 1.86592 -2.82668 0
M  V30 251 C 24.3957 1.49227 -3.99542 0
M  V30 252 S 25.2287 0.558312 -5.32582 0
M  V30 253 C 26.3847 1.79847 -5.99505 0
M  V30 254 H 26.6177 0.0875416 -2.97171 0
M  V30 255 H 24.1507 -0.0733899 -1.54225 0
M  V30 256 H 26.1087 2.57305 -3.19851 0
M  V30 257 H 24.7697 2.38335 -2.04585 0
M  V30 258 H 23.9627 2.40945 -4.42676 0
M  V30 259 H 23.5647 0.865193 -3.63855 0
M  V30 260 H 25.8567 2.7406 -6.19595 0
M  V30 261 H 26.7997 1.4099 -6.93922 0
M  V30 262 H 27.2077 1.96982 -5.29016 0
M  V30 263 N 26.6058 1.57591 -0.0167156 0
M  V30 264 C 27.5388 2.04944 1.00366 0
M  V30 265 C 28.5168 0.942648 1.32487 0
M  V30 266 O 29.7008 1.21205 1.44367 0
M  V30 267 C 26.8278 2.46109 2.32697 0
M  V30 268 C 25.8738 3.67686 2.16123 0
M  V30 269 S 26.7068 5.14882 1.47161 0
M  V30 270 C 27.8628 5.59332 2.80888 0
M  V30 271 H 28.0958 2.91172 0.600528 0
M  V30 272 H 25.6288 1.53168 0.194632 0
M  V30 273 H 27.5868 2.70493 3.08778 0
M  V30 274 H 26.2478 1.6025 2.70146 0
M  V30 275 H 25.4408 3.94296 3.13922 0
M  V30 276 H 25.0428 3.43391 1.48185 0
M  V30 277 H 27.3348 5.62814 3.77156 0
M  V30 278 H 28.2778 6.5905 2.58958 0
M  V30 279 H 28.6858 4.86942 2.85565 0
M  V30 280 N 28.0839 -0.256276 1.55502 0
M  V30 281 C 29.4949 -0.826068 1.67431 0
M  V30 282 C 29.8459 -1.86396 0.612446 0
M  V30 283 O 28.9709 -2.15031 -0.243025 0
M  V30 284 C 29.5659 -1.50512 3.03532 0
M  V30 285 C 28.1249 -2.02273 3.17431 0
M  V30 286 C 27.2719 -0.870548 2.63281 0
M  V30 287 H 30.2229 -0.0322728 1.58667 0
M  V30 288 H 30.2439 -2.37279 2.97454 0
M  V30 289 H 29.7559 -0.749484 3.80794 0
M  V30 290 H 27.8569 -2.80746 2.44974 0
M  V30 291 H 27.9699 -2.22655 4.24219 0
M  V30 292 H 26.3339 -1.26851 2.20864 0
M  V30 293 H 27.1169 -0.128149 3.43061 0
M  V30 294 N 29.562 -1.4872 -0.521534 0
M  V30 295 C 30.808 -1.574 -1.27879 0
M  V30 296 C 31.141 -0.250817 -1.92573 0
M  V30 297 O 30.416 0.743934 -1.79711 0
M  V30 298 C 30.699 -2.71843 -2.36164 0
M  V30 299 C 30.552 -4.13893 -1.76105 0
M  V30 300 C 31.871 -2.82008 -3.37875 0
M  V30 301 H 28.99 -0.572941 -0.463581 0
M  V30 302 H 31.632 -1.80927 -0.580119 0
M  V30 303 H 29.782 -2.51914 -2.95756 0
M  V30 304 H 31.454 -4.45284 -1.20499 0
M  V30 305 H 29.697 -4.20498 -1.06601 0
M  V30 306 H 30.368 -4.89804 -2.5455 0
M  V30 307 H 32.844 -3.00086 -2.88249 0
M  V30 308 H 31.72 -3.63796 -4.11028 0
M  V30 309 H 31.981 -1.90511 -3.98946 0
M  V30 310 N 31.0401 0.771051 -1.3745 0
M  V30 311 C 31.9721 1.89352 -1.29146 0
M  V30 312 C 32.9851 1.61477 -0.207124 0
M  V30 313 O 34.1741 1.72382 -0.463324 0
M  V30 314 C 31.2741 3.24596 -0.974195 0
M  V30 315 C 30.4471 3.80111 -2.16413 0
M  V30 316 C 29.5061 4.93832 -1.81703 0
M  V30 317 O 28.5321 5.09382 -2.54006 0
M  V30 318 N 29.7341 5.75483 -0.761573 0
M  V30 319 H 32.4991 1.96991 -2.25864 0
M  V30 320 H 30.0601 0.950191 -1.31084 0
M  V30 321 H 32.0521 3.98193 -0.722828 0
M  V30 322 H 30.6221 3.12454 -0.0955527 0
M  V30 323 H 29.8421 2.98284 -2.57721 0
M  V30 324 H 31.1301 4.13932 -2.95867 0
M  V30 325 H 30.5281 5.65469 -0.161609 0
M  V30 326 H 29.0851 6.49302 -0.570064 0
M  V30 327 N 32.5182 1.22032 0.997298 0
M  V30 328 C 33.4812 0.987909 2.06816 0
M  V30 329 C 34.4812 -0.0440084 1.6074 0
M  V30 330 O 35.6712 0.194053 1.73116 0
M  V30 331 C 32.8032 0.49132 3.37341 0
M  V30 332 H 33.9962 1.93803 2.28868 0
M  V30 333 H 31.5492 1.03838 1.16822 0
M  V30 334 H 32.2842 -0.463364 3.20973 0
M  V30 335 H 32.0692 1.23575 3.72118 0
M  V30 336 H 33.5592 0.348824 4.16141 0
M  V30 337 N 33.9963 -1.19345 1.0293 0
M  V30 338 C 35.2733 -1.84811 0.640642 0
M  V30 339 C 35.6533 -1.91855 -0.88062 0
M  V30 340 O 35.0013 -1.43587 -1.7775 0
M  V30 341 C 35.2113 -3.23755 1.30321 0
M  V30 342 C 36.5593 -3.99912 1.42673 0
M  V30 343 O 37.5833 -3.33155 1.26041 0
M  V30 344 O 36.4423 -5.19494 1.6967 0
M  V30 345 H 33.5363 -0.796443 0.222726 0
M  V30 346 H 36.0823 -1.26831 1.12748 0
M  V30 347 H 34.8543 -3.13466 2.34211 0
M  V30 348 H 34.4773 -3.89381 0.804261 0
M  V30 349 N 35.4744 -0.807222 -1.35358 0
M  V30 350 C 36.4074 -0.163572 -2.27613 0
M  V30 351 C 37.3854 0.670817 -1.48118 0
M  V30 352 O 38.5694 0.63796 -1.77376 0
M  V30 353 C 35.6964 0.773015 -3.29761 0
M  V30 354 C 34.7424 0.0181653 -4.26496 0
M  V30 355 S 35.5754 -1.31831 -5.19019 0
M  V30 356 C 36.7314 -0.38619 -6.24707 0
M  V30 357 H 36.9644 -0.945757 -2.81856 0
M  V30 358 H 34.4974 -0.602315 -1.42167 0
M  V30 359 H 36.4554 1.30788 -3.89108 0
M  V30 360 H 35.1164 1.52859 -2.74396 0
M  V30 361 H 34.3094 0.729534 -4.98692 0
M  V30 362 H 33.9114 -0.446761 -3.71322 0
M  V30 363 H 36.2034 0.428295 -6.76145 0
M  V30 364 H 37.1464 -1.07736 -6.99856 0
M  V30 365 H 37.5544 0.018398 -5.64497 0
M  V30 366 N 36.9525 1.47285 -0.560781 0
M  V30 367 C 38.3635 1.86258 -0.128343 0
M  V30 368 C 38.7145 1.46699 1.30284 0
M  V30 369 O 37.8395 0.871698 1.98067 0
M  V30 370 C 38.4345 3.38044 -0.22614 0
M  V30 371 C 36.9935 3.76096 0.151283 0
M  V30 372 C 36.1405 2.71335 -0.572084 0
M  V30 373 H 39.0915 1.38752 -0.770297 0
M  V30 374 H 39.1125 3.76441 0.554322 0
M  V30 375 H 38.6245 3.66806 -1.26788 0
M  V30 376 H 36.7255 3.52951 1.19399 0
M  V30 377 H 36.8385 4.78641 -0.209765 0
M  V30 378 H 35.2025 2.54696 -0.0147653 0
M  V30 379 H 35.9855 3.02938 -1.61504 0
M  V30 380 N 38.4306 0.297415 1.54768 0
M  V30 381 C 39.8466 -0.0560823 1.59501 0
M  V30 382 C 40.0466 -1.52725 1.31444 0
M  V30 383 O 39.1026 -2.27947 1.08611 0
M  V30 384 C 40.4156 0.338631 2.98787 0
M  V30 385 C 41.9636 0.287097 3.11681 0
M  V30 386 C 42.4386 0.656579 4.53269 0
M  V30 387 N 43.9296 0.608977 4.59179 0
M  V30 388 C 44.6646 0.867385 5.66802 0
M  V30 389 N 44.1606 1.19157 6.82476 0
M  V30 390 N 45.9536 0.794687 5.56454 0
M  V30 391 H 38.1046 1.25624 1.71267 0
M  V30 392 H 40.3676 0.509057 0.799728 0
M  V30 393 H 40.0736 1.36263 3.2423 0
M  V30 394 H 39.9476 -0.309508 3.75928 0
M  V30 395 H 42.3346 -0.727649 2.85988 0
M  V30 396 H 42.4156 0.969809 2.36703 0
M  V30 397 H 42.0596 1.66912 4.7969 0
M  V30 398 H 41.9896 -0.0481649 5.26578 0
M  V30 399 H 44.4806 0.369198 3.76092 0
M  V30 400 H 44.7936 1.37482 7.60473 0
M  V30 401 H 43.1386 1.22958 6.84037 0
M  V30 402 H 46.3296 0.541098 4.64962 0
M  V30 403 H 46.5026 0.999445 6.40246 0
M  V30 404 N 39.9087 -1.5758 0.0250728 0
M  V30 405 C 41.3197 -1.79476 -0.514323 0
M  V30 406 C 41.6707 -0.934956 -1.72491 0
M  V30 407 O 40.7957 -0.144245 -2.15919 0
M  V30 408 C 41.3907 -3.25503 -0.939842 0
M  V30 409 C 39.9497 -3.48408 -1.42438 0
M  V30 410 C 39.0967 -2.74583 -0.387201 0
M  V30 411 H 42.0477 -1.567 0.25113 0
M  V30 412 H 42.0687 -3.34992 -1.80445 0
M  V30 413 H 41.5807 -3.88056 -0.0585628 0
M  V30 414 H 39.6817 -2.91103 -2.32572 0
M  V30 415 H 39.7947 -4.57119 -1.43455 0
M  V30 416 H 38.1587 -2.39942 -0.854409 0
M  V30 417 H 38.9417 -3.39849 0.485543 0
M  V30 418 N 41.3868 0.248026 -1.55636 0
M  V30 419 C 42.6148 0.993808 -1.81469 0
M  V30 420 C 43.0298 1.78991 -0.60064 0
M  V30 421 O 42.3868 1.77345 0.430682 0
M  V30 422 C 42.4378 1.93258 -3.05506 0
M  V30 423 O 42.1588 1.16869 -4.22224 0
M  V30 424 C 43.6598 2.79444 -3.4413 0
M  V30 425 H 40.8798 0.292486 -0.603898 0
M  V30 426 H 43.4238 0.271253 -2.02693 0
M  V30 427 H 41.5788 2.60943 -2.86335 0
M  V30 428 H 41.9928 1.80359 -4.92515 0
M  V30 429 H 43.4668 3.41066 -4.34026 0
M  V30 430 H 43.9438 3.50499 -2.64665 0
M  V30 431 H 44.5498 2.17214 -3.65648 0
M  V30 432 N 42.8649 1.48995 0.513639 0
M  V30 433 C 44.1129 1.57531 1.26604 0
M  V30 434 C 44.4339 0.258236 1.93283 0
M  V30 435 O 43.7039 -0.721502 1.8213 0
M  V30 436 H 42.2839 0.580387 0.470276 0
M  V30 437 H 44.9459 1.85552 0.596373 0
M  V30 438 H 44.0419 2.36486 2.03669 0
M  V30 439 N 44.343 -0.763751 1.37857 0
M  V30 440 C 45.273 -1.89103 1.36975 0
M  V30 441 C 46.254 -1.68439 0.237152 0
M  V30 442 O 47.439 -1.8918 0.438713 0
M  V30 443 C 44.569 -3.26496 1.18395 0
M  V30 444 C 43.523 -3.61741 2.28751 0
M  V30 445 C 42.849 -4.97762 1.95286 0
M  V30 446 C 44.149 -3.67665 3.70972 0
M  V30 447 H 45.843 -1.90099 2.31307 0
M  V30 448 H 43.389 -0.91319 1.11341 0
M  V30 449 H 45.342 -4.05003 1.16406 0
M  V30 450 H 44.066 -3.25955 0.205215 0
M  V30 451 H 42.725 -2.85547 2.29909 0
M  V30 452 H 42.373 -4.93769 0.959221 0
M  V30 453 H 42.073 -5.22313 2.69189 0
M  V30 454 H 43.597 -5.7866 1.94898 0
M  V30 455 H 45.011 -4.36307 3.719 0
M  V30 456 H 43.408 -4.03718 4.43995 0
M  V30 457 H 44.478 -2.68134 4.0402 0
M  V30 458 N 45.8211 -1.22559 -0.990812 0
M  V30 459 C 46.7841 -0.998863 -2.0629 0
M  V30 460 C 47.7841 0.0354834 -1.60761 0
M  V30 461 O 48.9741 -0.203231 -1.7301 0
M  V30 462 C 46.1061 -0.509203 -3.37076 0
M  V30 463 H 47.2991 -1.95014 -2.27837 0
M  V30 464 H 44.8521 -1.04456 -1.16269 0
M  V30 465 H 45.5871 0.446335 -3.21214 0
M  V30 466 H 45.3721 -1.25547 -3.71457 0
M  V30 467 H 46.8621 -0.370888 -4.1595 0
M  V30 468 N 47.2992 1.18797 -1.03562 0
M  V30 469 C 48.2622 2.20464 -0.626769 0
M  V30 470 C 49.2622 1.57721 0.313173 0
M  V30 471 O 50.4522 1.73917 0.0992615 0
M  V30 472 C 47.5842 3.40802 0.0818498 0
M  V30 473 H 48.7772 2.58149 -1.5264 0
M  V30 474 H 46.3302 1.32593 -0.827578 0
M  V30 475 H 47.0652 3.08642 0.995518 0
M  V30 476 H 46.8502 3.8758 -0.593652 0
M  V30 477 H 48.3402 4.16092 0.354584 0
M  V30 478 N 48.7773 0.814389 1.34928 0
M  V30 479 C 50.0543 0.321363 1.92942 0
M  V30 480 C 50.4343 -1.19014 1.74353 0
M  V30 481 O 49.7823 -1.99328 1.11716 0
M  V30 482 C 49.9923 0.741323 3.41036 0
M  V30 483 C 51.3403 0.735266 4.18185 0
M  V30 484 O 52.3643 0.68336 3.49584 0
M  V30 485 O 51.2233 0.800703 5.40602 0
M  V30 486 H 48.3173 0.0858893 0.822528 0
M  V30 487 H 50.8633 0.898609 1.43955 0
M  V30 488 H 49.6353 1.78276 3.4833 0
M  V30 489 H 49.2583 0.139307 3.97356 0
M  V30 490 N 50.2554 -1.46986 0.568584 0
M  V30 491 C 51.5044 -2.01646 0.0465894 0
M  V30 492 C 51.8174 -1.44721 -1.31587 0
M  V30 493 O 53.0234 -1.91113 -1.92842 0
M  V30 494 C 51.4794 -3.59885 0.032752 0
M  V30 495 C 51.0874 -4.25804 1.39266 0
M  V30 496 C 52.8314 -4.22255 -0.436038 0
M  V30 497 C 50.7384 -5.76081 1.33732 0
M  V30 498 H 49.6684 -0.753876 0.013647 0
M  V30 499 H 52.3194 -1.68864 0.718131 0
M  V30 500 H 50.7014 -3.8968 -0.704669 0
M  V30 501 H 51.8754 -4.07637 2.1487 0
M  V30 502 H 50.1904 -3.7547 1.80032 0
M  V30 503 H 52.7874 -5.32394 -0.49602 0
M  V30 504 H 53.1304 -3.90212 -1.45053 0
M  V30 505 H 53.6634 -3.97033 0.246877 0
M  V30 506 H 50.4024 -6.12761 2.32817 0
M  V30 507 H 49.9224 -5.96553 0.623267 0
M  V30 508 H 51.6014 -6.38518 1.0442 0
M  V30 509 N 51.7335 -0.305618 -1.54608 0
M  V30 510 C 53.1495 0.0476228 -1.59529 0
M  V30 511 C 53.3495 1.52025 -1.32252 0
M  V30 512 O 52.4055 2.27368 -1.09818 0
M  V30 513 C 53.7185 -0.354471 -2.98603 0
M  V30 514 C 55.2665 -0.303622 -3.11524 0
M  V30 515 C 55.7415 -0.680608 -4.52915 0
M  V30 516 N 57.2325 -0.63332 -4.5885 0
M  V30 517 C 57.9675 -0.897432 -5.66334 0
M  V30 518 N 57.4635 -1.22775 -6.81834 0
M  V30 519 N 59.2565 -0.824186 -5.56025 0
M  V30 520 H 51.4075 -1.2653 -1.70599 0
M  V30 521 H 53.6705 -0.513291 -0.797017 0
M  V30 522 H 53.3765 -1.3798 -3.23503 0
M  V30 523 H 53.2505 0.289568 -3.76087 0
M  V30 524 H 55.6375 0.712472 -2.8637 0
M  V30 525 H 55.7185 -0.982348 -2.36185 0
M  V30 526 H 55.3625 -1.69453 -4.78799 0
M  V30 527 H 55.2925 0.0202385 -5.26596 0
M  V30 528 H 57.7835 -0.389138 -3.75891 0
M  V30 529 H 58.0965 -1.41513 -7.59733 0
M  V30 530 H 56.4415 -1.26583 -6.83375 0
M  V30 531 H 59.6325 -0.565748 -4.64669 0
M  V30 532 H 59.8055 -1.03338 -6.39707 0
M  V30 533 N 53.2116 1.57565 -0.0334293 0
M  V30 534 C 54.4576 1.93088 0.639417 0
M  V30 535 C 54.8126 0.910589 1.69488 0
M  V30 536 O 54.1056 -0.0727725 1.91462 0
M  V30 537 C 54.2996 3.33112 1.29504 0
M  V30 538 C 54.1286 4.48667 0.304604 0
M  V30 539 C 52.8986 5.05207 -0.0970777 0
M  V30 540 C 55.0966 5.1239 -0.442845 0
M  V30 541 N 53.0786 6.04286 -1.08223 0
M  V30 542 C 54.4496 6.06609 -1.28161 0
M  V30 543 C 56.5046 4.95352 -0.50308 0
M  V30 544 C 55.2076 6.85622 -2.17519 0
M  V30 545 C 57.2336 5.74978 -1.38401 0
M  V30 546 C 56.5956 6.68816 -2.21054 0
M  V30 547 H 52.6946 0.754335 0.206161 0
M  V30 548 H 55.2786 1.94435 -0.101613 0
M  V30 549 H 53.4496 3.32576 2.00618 0
M  V30 550 H 55.1816 3.55972 1.92525 0
M  V30 551 H 51.9366 4.72782 0.278255 0
M  V30 552 H 52.3606 6.58516 -1.57117 0
M  V30 553 H 57.0026 4.22625 0.121694 0
M  V30 554 H 54.7206 7.57652 -2.81049 0
M  V30 555 H 58.3066 5.63826 -1.43496 0
M  V30 556 H 57.1866 7.29355 -2.88116 0
M  V30 557 N 54.6897 -0.239769 1.55765 0
M  V30 558 C 55.9177 -0.98417 1.81994 0
M  V30 559 C 56.3327 -1.7867 0.610124 0
M  V30 560 O 55.6897 -1.77571 -0.421271 0
M  V30 561 C 55.7407 -1.91635 3.06526 0
M  V30 562 O 55.4617 -1.14629 4.22838 0
M  V30 563 C 56.9627 -2.77616 3.45607 0
M  V30 564 H 54.1827 -0.28928 0.605441 0
M  V30 565 H 56.7267 -0.260499 2.02834 0
M  V30 566 H 54.8817 -2.5942 2.87715 0
M  V30 567 H 55.2957 -1.77745 4.93464 0
M  V30 568 H 56.7697 -3.38759 4.35828 0
M  V30 569 H 57.2467 -3.4909 2.6652 0
M  V30 570 H 57.8527 -2.15271 3.66795 0
M  V30 571 N 56.1678 -1.49265 -0.50573 0
M  V30 572 C 57.1308 -1.65075 -1.59006 0
M  V30 573 C 58.1308 -0.522768 -1.52065 0
M  V30 574 O 59.3208 -0.789117 -1.55302 0
M  V30 575 C 56.4528 -1.64369 -2.98656 0
M  V30 576 H 57.6458 -2.61784 -1.46319 0
M  V30 577 H 55.1988 -1.38226 -0.729616 0
M  V30 578 H 55.9338 -0.692272 -3.16825 0
M  V30 579 H 55.7188 -2.46282 -3.05103 0
M  V30 580 H 57.2088 -1.78674 -3.77446 0
M  V30 581 N 57.6459 0.756429 -1.3826 0
M  V30 582 C 58.8759 1.54341 -1.3734 0
M  V30 583 C 59.2839 1.89159 0.0393917 0
M  V30 584 O 58.6269 1.5307 1.01565 0
M  V30 585 C 58.6889 2.87238 -2.16182 0
M  V30 586 C 58.3529 2.74973 -3.65019 0
M  V30 587 C 59.3499 2.44962 -4.58574 0
M  V30 588 C 57.0349 2.92515 -4.08338 0
M  V30 589 C 59.0289 2.32642 -5.93428 0
M  V30 590 C 56.7159 2.79815 -5.43274 0
M  V30 591 C 57.7139 2.49921 -6.35632 0
M  V30 592 O 57.4019 2.37275 -7.68086 0
M  V30 593 H 57.1339 0.484281 -0.471643 0
M  V30 594 H 59.6879 0.944152 -1.82414 0
M  V30 595 H 57.9179 3.49342 -1.65822 0
M  V30 596 H 59.6069 3.48731 -2.07705 0
M  V30 597 H 60.3729 2.31081 -4.26412 0
M  V30 598 H 56.2519 3.14781 -3.368 0
M  V30 599 H 59.7959 2.0923 -6.65484 0
M  V30 600 H 55.6929 2.93269 -5.75034 0
M  V30 601 H 56.4609 2.52509 -7.78577 0
M  V30 602 N 59.124 1.23083 0.984299 0
M  V30 603 C 60.372 1.05848 1.72165 0
M  V30 604 C 60.693 -0.406049 1.90726 0
M  V30 605 O 59.963 -1.29139 1.47309 0
M  V30 606 H 58.543 0.388685 0.637913 0
M  V30 607 H 61.205 1.54736 1.18503 0
M  V30 608 H 60.301 1.54327 2.71274 0
M  V30 609 N 60.6021 -1.18246 1.0419 0
M  V30 610 C 61.8481 -1.88536 0.747122 0
M  V30 611 C 62.1811 -1.80223 -0.723409 0
M  V30 612 O 61.4561 -1.20337 -1.52804 0
M  V30 613 C 61.7391 -3.38968 1.21544 0
M  V30 614 C 61.5921 -3.56084 2.74816 0
M  V30 615 C 62.9111 -4.32648 0.806482 0
M  V30 616 H 60.0301 -0.684619 0.272883 0
M  V30 617 H 62.6721 -1.39113 1.29413 0
M  V30 618 H 60.8221 -3.8119 0.750081 0
M  V30 619 H 62.4941 -3.22946 3.29399 0
M  V30 620 H 60.7371 -2.98699 3.14582 0
M  V30 621 H 61.4081 -4.61639 3.02644 0
M  V30 622 H 63.8841 -3.98211 1.20695 0
M  V30 623 H 62.7601 -5.36462 1.1619 0
M  V30 624 H 63.0211 -4.41146 -0.29029 0
M  V30 625 N 62.0802 -0.821533 -1.34494 0
M  V30 626 C 63.4912 -0.467956 -1.8074 0
M  V30 627 C 63.8422 1.01151 -1.68116 0
M  V30 628 O 62.9672 1.78707 -1.22036 0
M  V30 629 C 63.5622 -0.842627 -3.28154 0
M  V30 630 C 62.1212 -0.541439 -3.72485 0
M  V30 631 C 61.2682 -1.06028 -2.56229 0
M  V30 632 H 64.2192 -1.01183 -1.22261 0
M  V30 633 H 64.2402 -0.145876 -3.8022 0
M  V30 634 H 63.7522 -1.91945 -3.37311 0
M  V30 635 H 61.8532 0.526034 -3.68868 0
M  V30 636 H 61.9662 -1.08453 -4.66663 0
M  V30 637 H 60.3302 -0.481892 -2.501 0
M  V30 638 H 61.1132 -2.14352 -2.68157 0
M  V30 639 N 63.5583 1.46682 -0.576371 0
M  V30 640 C 64.5083 2.27278 0.181288 0
M  V30 641 C 65.4923 1.35497 0.867721 0
M  V30 642 O 66.6843 1.59717 0.762863 0
M  V30 643 C 63.8133 3.21703 1.19841 0
M  V30 644 C 62.8993 4.20969 0.51442 0
M  V30 645 N 63.2903 5.03999 -0.426407 0
M  V30 646 C 61.5883 4.39373 0.765963 0
M  V30 647 C 62.2893 5.75812 -0.825565 0
M  V30 648 N 61.2653 5.43315 -0.176116 0
M  V30 649 H 65.0673 2.88863 -0.541785 0
M  V30 650 H 62.5813 1.57455 -0.397697 0
M  V30 651 H 64.5783 3.78145 1.75533 0
M  V30 652 H 63.2383 2.61677 1.92238 0
M  V30 653 H 64.2493 5.11659 -0.8016 0
M  V30 654 H 60.9263 3.90502 1.47698 0
M  V30 655 H 62.3163 6.52577 -1.59976 0
M  V30 656 N 65.0364 0.313813 1.54444 0
M  V30 657 C 66.2854 -0.292519 1.99568 0
M  V30 658 C 66.5984 -1.54011 1.20582 0
M  V30 659 O 67.8044 -2.22183 1.56035 0
M  V30 660 C 66.2604 -0.571752 3.55329 0
M  V30 661 C 65.8684 0.658229 4.43138 0
M  V30 662 C 67.6124 -1.13857 4.08946 0
M  V30 663 C 65.5194 0.351439 5.90355 0
M  V30 664 H 64.4494 -0.113079 0.745472 0
M  V30 665 H 67.1004 0.424518 1.78522 0
M  V30 666 H 65.4824 -1.34872 3.72325 0
M  V30 667 H 66.6564 1.43403 4.37918 0
M  V30 668 H 64.9714 1.14458 4.0036 0
M  V30 669 H 67.5684 -1.38257 5.16516 0
M  V30 670 H 67.9114 -2.08489 3.6033 0
M  V30 671 H 68.4444 -0.423015 3.95544 0
M  V30 672 H 65.1834 1.26667 6.43145 0
M  V30 673 H 64.7034 -0.386842 5.98551 0
M  V30 674 H 66.3824 -0.0423134 6.46986 0
M  V30 675 N 66.5145 -1.57545 0.0417849 0
M  V30 676 C 67.9305 -1.56467 -0.314704 0
M  V30 677 C 68.1305 -1.04859 -1.72066 0
M  V30 678 O 67.1865 -0.700983 -2.42575 0
M  V30 679 C 68.4995 -3.00317 -0.15174 0
M  V30 680 C 70.0475 -3.12201 -0.223553 0
M  V30 681 C 70.5225 -4.57913 -0.0892295 0
M  V30 682 N 72.0135 -4.6297 -0.145808 0
M  V30 683 C 72.7485 -5.73362 -0.0658459 0
M  V30 684 N 72.2445 -6.92769 0.0659282 0
M  V30 685 N 74.0375 -5.6197 -0.12075 0
M  V30 686 H 66.1885 -1.89416 0.961014 0
M  V30 687 H 68.4515 -0.871862 0.372237 0
M  V30 688 H 68.1575 -3.42073 0.817254 0
M  V30 689 H 68.0315 -3.65892 -0.916692 0
M  V30 690 H 70.4185 -2.70349 -1.18301 0
M  V30 691 H 70.4995 -2.49323 0.571994 0
M  V30 692 H 70.1435 -5.00448 0.866867 0
M  V30 693 H 70.0735 -5.18786 -0.903802 0
M  V30 694 H 72.5645 -3.7709 -0.247286 0
M  V30 695 H 72.8775 -7.72707 0.119905 0
M  V30 696 H 71.2225 -6.94927 0.100885 0
M  V30 697 H 74.4135 -4.67572 -0.222187 0
M  V30 698 H 74.5865 -6.47977 -0.0549735 0
M  V30 699 N 67.9926 0.231505 -1.5589 0
M  V30 700 C 68.9556 1.27028 -1.90779 0
M  V30 701 C 69.9556 1.40308 -0.785507 0
M  V30 702 O 71.1456 1.38744 -1.05336 0
M  V30 703 C 68.2776 2.64566 -2.14983 0
M  V30 704 H 69.4706 0.973017 -2.83677 0
M  V30 705 H 67.0236 0.471486 -1.49019 0
M  V30 706 H 67.7586 2.99406 -1.24604 0
M  V30 707 H 67.5436 2.56305 -2.96732 0
M  V30 708 H 69.0336 3.39543 -2.43105 0
M  V30 709 N 69.4707 1.49531 0.497807 0
M  V30 710 C 70.4177 1.66436 1.59899 0
M  V30 711 C 71.3877 0.505793 1.58212 0
M  V30 712 O 72.5727 0.733202 1.7615 0
M  V30 713 C 69.7127 1.7399 2.98029 0
M  V30 714 C 68.8257 3.01172 3.09708 0
M  V30 715 C 67.9607 2.99686 4.38591 0
M  V30 716 C 66.9997 4.21434 4.43914 0
M  V30 717 N 66.1367 4.1784 5.64229 0
M  V30 718 H 70.9767 2.60459 1.44793 0
M  V30 719 H 68.5137 1.29137 0.704423 0
M  V30 720 H 70.4717 1.76352 3.78095 0
M  V30 721 H 69.1017 0.834301 3.11832 0
M  V30 722 H 68.1537 3.08408 2.22685 0
M  V30 723 H 69.4657 3.91165 3.09502 0
M  V30 724 H 68.6197 3.00628 5.2698 0
M  V30 725 H 67.3587 2.07477 4.41367 0
M  V30 726 H 66.3637 4.20733 3.53926 0
M  V30 727 H 67.5887 5.14839 4.42851 0
M  V30 728 H 65.5347 3.28469 5.67841 0
M  V30 729 H 65.4517 5.01571 5.65652 0
M  V30 730 H 66.7197 4.22889 6.54817 0
M  V30 731 N 70.9488 -0.749086 1.3866 0
M  V30 732 C 72.2258 -1.4992 1.25632 0
M  V30 733 C 72.6058 -2.10633 -0.140317 0
M  V30 734 O 71.9538 -1.97437 -1.15025 0
M  V30 735 C 72.1638 -2.56195 2.36992 0
M  V30 736 C 73.5118 -3.22972 2.75634 0
M  V30 737 O 74.5358 -2.66502 2.36337 0
M  V30 738 O 73.3948 -4.25122 3.43415 0
M  V30 739 H 70.4888 -0.665067 0.491544 0
M  V30 740 H 73.0348 -0.784113 1.50498 0
M  V30 741 H 71.8068 -2.09612 3.30422 0
M  V30 742 H 71.4298 -3.35279 2.13714 0
M  V30 743 N 72.4269 -1.23603 -0.977757 0
M  V30 744 C 73.3369 -1.03632 -2.1047 0
M  V30 745 C 74.3529 0.0199435 -1.73989 0
M  V30 746 O 75.5289 -0.176076 -2.00629 0
M  V30 747 C 72.5939 -0.63276 -3.40877 0
M  V30 748 C 71.6549 -1.76437 -3.91367 0
M  V30 749 C 70.8879 -1.37997 -5.15551 0
M  V30 750 O 71.1109 -0.265357 -5.69782 0
M  V30 751 O 70.0449 -2.20201 -5.60174 0
M  V30 752 H 73.8709 -1.98086 -2.30208 0
M  V30 753 H 71.4559 -1.02332 -1.08851 0
M  V30 754 H 73.3379 -0.418761 -4.19314 0
M  V30 755 H 72.0129 0.282754 -3.22463 0
M  V30 756 H 70.9199 -2.03304 -3.14036 0
M  V30 757 H 72.2529 -2.6583 -4.14241 0
M  V30 758 N 73.905 1.17692 -1.04816 0
M  V30 759 C 75.321 1.39863 -0.768794 0
M  V30 760 C 75.521 1.91118 0.638451 0
M  V30 761 O 74.577 2.10036 1.40146 0
M  V30 762 C 75.89 2.39274 -1.82122 0
M  V30 763 C 77.438 2.52987 -1.843 0
M  V30 764 C 77.913 3.55669 -2.88555 0
M  V30 765 N 79.404 3.63183 -2.87493 0
M  V30 766 C 80.139 4.42381 -3.64811 0
M  V30 767 N 79.635 5.25125 -4.51903 0
M  V30 768 N 81.428 4.37217 -3.53267 0
M  V30 769 H 73.579 0.82752 -1.95617 0
M  V30 770 H 75.842 0.426123 -0.846831 0
M  V30 771 H 75.548 2.08678 -2.83102 0
M  V30 772 H 75.422 3.38725 -1.65967 0
M  V30 773 H 77.809 2.82896 -0.839869 0
M  V30 774 H 77.89 1.53623 -2.04532 0
M  V30 775 H 77.534 3.26499 -3.89051 0
M  V30 776 H 77.464 4.54728 -2.65575 0
M  V30 777 H 79.955 3.04103 -2.24343 0
M  V30 778 H 80.268 5.82728 -5.07591 0
M  V30 779 H 78.613 5.24519 -4.55966 0
M  V30 780 H 81.804 3.71626 -2.84625 0
M  V30 781 H 81.977 4.98696 -4.13771 0
M  V30 782 N 75.3831 0.828654 1.34056 0
M  V30 783 C 76.6311 0.41863 1.97717 0
M  V30 784 C 76.9521 -1.02314 1.66002 0
M  V30 785 O 76.2221 -1.71119 0.953683 0
M  V30 786 H 74.8021 0.151809 0.731412 0
M  V30 787 H 77.4641 1.05936 1.63596 0
M  V30 788 H 76.5601 0.542318 3.07352 0
M  V30 789 N 76.8612 -1.46375 0.584142 0
M  V30 790 C 77.7912 -2.33103 -0.136037 0
M  V30 791 C 78.7722 -1.45431 -0.882255 0
M  V30 792 O 79.9572 -1.74246 -0.857434 0
M  V30 793 C 77.0872 -3.27731 -1.14933 0
M  V30 794 C 76.0412 -4.24855 -0.517862 0
M  V30 795 C 75.3672 -5.09001 -1.63773 0
M  V30 796 C 76.6672 -5.19439 0.545886 0
M  V30 797 H 78.3612 -2.93568 0.588086 0
M  V30 798 H 75.9072 -1.41166 0.284259 0
M  V30 799 H 77.8602 -3.87261 -1.66153 0
M  V30 800 H 76.5842 -2.65377 -1.90375 0
M  V30 801 H 75.2432 -3.6659 -0.0267361 0
M  V30 802 H 74.8912 -4.43031 -2.38185 0
M  V30 803 H 74.5912 -5.74777 -1.22085 0
M  V30 804 H 76.1152 -5.71396 -2.15266 0
M  V30 805 H 77.5292 -5.73177 0.118704 0
M  V30 806 H 75.9262 -5.93566 0.88317 0
M  V30 807 H 76.9962 -4.63285 1.43162 0
M  V30 808 N 78.3393 -0.321999 -1.54275 0
M  V30 809 C 79.5873 0.280489 -2.00144 0
M  V30 810 C 79.9083 1.52777 -1.21178 0
M  V30 811 O 79.1783 1.9338 -0.313187 0
M  V30 812 H 77.7583 0.106632 -0.73935 0
M  V30 813 H 80.4203 -0.438184 -1.8991 0
M  V30 814 H 79.5163 0.537972 -3.07428 0
M  V30 815 N 79.8174 1.5752 -0.0501392 0
M  V30 816 C 81.0474 1.96678 0.632573 0
M  V30 817 C 81.4554 0.926298 1.64974 0
M  V30 818 O 80.7984 -0.09802 1.83438 0
M  V30 819 C 80.8604 3.32068 1.37735 0
M  V30 820 C 80.5244 4.54076 0.516131 0
M  V30 821 C 81.5214 5.19445 -0.217357 0
M  V30 822 C 79.2064 5.00304 0.44736 0
M  V30 823 C 81.2004 6.29378 -1.00807 0
M  V30 824 C 78.8874 6.10114 -0.347038 0
M  V30 825 C 79.8854 6.74512 -1.07344 0
M  V30 826 O 79.5734 7.82211 -1.85477 0
M  V30 827 H 79.3054 0.652193 0.177821 0
M  V30 828 H 81.8594 2.05091 -0.112543 0
M  V30 829 H 80.0894 3.20206 2.16807 0
M  V30 830 H 81.7784 3.55981 1.95019 0
M  V30 831 H 82.5444 4.84689 -0.173688 0
M  V30 832 H 78.4234 4.49971 1.00235 0
M  V30 833 H 81.9674 6.79575 -1.57556 0
M  V30 834 H 77.8644 6.44307 -0.392349 0
M  V30 835 H 78.6324 7.98982 -1.77678 0
M  V30 836 N 81.2955 -0.223234 1.56011 0
M  V30 837 C 82.5435 -0.946003 1.78592 0
M  V30 838 C 82.8645 -1.84936 0.618349 0
M  V30 839 O 82.1345 -1.92473 -0.364833 0
M  V30 840 H 80.7145 -0.352298 0.658707 0
M  V30 841 H 83.3765 -0.235494 1.93472 0
M  V30 842 H 82.4725 -1.55381 2.70672 0
M  V30 843 N 82.7736 -1.49793 -0.48987 0
M  V30 844 C 84.0226 -1.59085 -1.23995 0
M  V30 845 C 84.3356 -0.287907 -1.9347 0
M  V30 846 O 85.5416 -0.259506 -2.70257 0
M  V30 847 C 83.9976 -2.80736 -2.252 0
M  V30 848 C 83.6056 -4.17833 -1.61614 0
M  V30 849 C 85.3496 -2.99364 -3.00967 0
M  V30 850 C 83.2566 -5.30693 -2.60996 0
M  V30 851 H 82.1866 -0.592372 -0.466488 0
M  V30 852 H 84.8376 -1.76197 -0.51252 0
M  V30 853 H 83.2196 -2.57142 -3.01154 0
M  V30 854 H 84.3936 -4.51608 -0.915774 0
M  V30 855 H 82.7086 -4.04656 -0.981977 0
M  V30 856 H 85.3056 -3.80851 -3.75308 0
M  V30 857 H 85.6486 -2.10356 -3.59244 0
M  V30 858 H 86.1816 -3.2305 -2.32128 0
M  V30 859 H 82.9206 -6.21796 -2.07485 0
M  V30 860 H 82.4406 -5.01359 -3.2924 0
M  V30 861 H 84.1196 -5.6049 -3.23202 0
M  V30 862 N 84.2517 0.741722 -1.39055 0
M  V30 863 C 85.4997 1.49818 -1.35643 0
M  V30 864 C 85.8207 1.94938 0.0491642 0
M  V30 865 O 85.0907 1.68505 0.999141 0
M  V30 866 H 83.6707 0.555755 -0.499144 0
M  V30 867 H 86.3327 0.880957 -1.73854 0
M  V30 868 H 85.4287 2.38348 -2.01486 0
M  V30 869 N 85.7298 1.2412 0.971189 0
M  V30 870 C 86.9598 1.10415 1.7462 0
M  V30 871 C 87.3678 -0.346462 1.86001 0
M  V30 872 O 86.7108 -1.25104 1.34517 0
M  V30 873 C 86.7728 1.66596 3.18568 0
M  V30 874 C 86.4368 3.15446 3.3067 0
M  V30 875 C 87.4338 4.12636 3.16271 0
M  V30 876 C 85.1188 3.55337 3.55022 0
M  V30 877 C 87.1128 5.47699 3.26044 0
M  V30 878 C 84.7998 4.90542 3.64434 0
M  V30 879 C 85.7978 5.86532 3.49956 0
M  V30 880 O 85.4858 7.19279 3.59017 0
M  V30 881 H 85.2178 0.386616 0.55453 0
M  V30 882 H 87.7718 1.64633 1.22821 0
M  V30 883 H 86.0018 1.06808 3.71657 0
M  V30 884 H 87.6908 1.48232 3.77865 0
M  V30 885 H 88.4568 3.8316 2.97344 0
M  V30 886 H 84.3358 2.8113 3.65359 0
M  V30 887 H 87.8798 6.22603 3.14661 0
M  V30 888 H 83.7768 5.19691 3.82873 0
M  V30 889 H 84.5448 7.27153 3.75754 0
M  V30 890 N 87.2079 -1.17134 1.05439 0
M  V30 891 C 88.1709 -2.19439 0.661764 0
M  V30 892 C 89.1709 -1.58199 -0.288042 0
M  V30 893 O 90.3609 -1.74053 -0.0715803 0
M  V30 894 C 87.4929 -3.40889 -0.0276209 0
M  V30 895 H 88.6859 -2.55688 1.56728 0
M  V30 896 H 86.2389 -1.31259 0.848567 0
M  V30 897 H 86.9739 -3.10187 -0.94629 0
M  V30 898 H 86.7589 -3.86586 0.655238 0
M  V30 899 H 88.2489 -4.16603 -0.288342 0
M  V30 900 N 88.686 -0.835752 -1.33615 0
M  V30 901 C 89.916 -0.442701 -2.01801 0
M  V30 902 C 90.324 0.959807 -1.63047 0
M  V30 903 O 89.667 1.63468 -0.838088 0
M  V30 904 C 89.729 -0.480125 -3.56279 0
M  V30 905 C 89.393 -1.8382 -4.18401 0
M  V30 906 C 90.39 -2.80097 -4.37998 0
M  V30 907 C 88.075 -2.13019 -4.54894 0
M  V30 908 C 90.069 -4.03736 -4.9323 0
M  V30 909 C 87.756 -3.36916 -5.09834 0
M  V30 910 C 88.754 -4.32091 -5.28948 0
M  V30 911 O 88.442 -5.53797 -5.82721 0
M  V30 912 H 88.174 -0.17441 -0.653114 0
M  V30 913 H 90.728 -1.129 -1.71589 0
M  V30 914 H 88.958 0.262931 -3.85805 0
M  V30 915 H 90.647 -0.105335 -4.05763 0
M  V30 916 H 91.413 -2.58838 -4.10156 0
M  V30 917 H 87.292 -1.39733 -4.39313 0
M  V30 918 H 90.836 -4.78034 -5.08064 0
M  V30 919 H 86.733 -3.58033 -5.37106 0
M  V30 920 H 87.501 -5.55494 -6.0114 0
M  V30 921 N 90.1641 1.46063 -0.591896 0
M  V30 922 C 91.1271 2.28854 0.125973 0
M  V30 923 C 92.1271 1.38903 0.810107 0
M  V30 924 O 93.3171 1.61186 0.66066 0
M  V30 925 C 90.4491 3.19526 1.1881 0
M  V30 926 H 91.6421 2.93802 -0.601717 0
M  V30 927 H 89.1951 1.52325 -0.350254 0
M  V30 928 H 89.9301 2.59345 1.94707 0
M  V30 929 H 89.7151 3.85766 0.701936 0
M  V30 930 H 91.2051 3.81817 1.69132 0
M  V30 931 N 91.6422 0.330177 1.54103 0
M  V30 932 C 93.0582 -0.0222371 1.59585 0
M  V30 933 C 93.2582 -1.49902 1.34654 0
M  V30 934 O 92.3142 -2.25592 1.13421 0
M  V30 935 C 93.6272 0.401932 2.98002 0
M  V30 936 C 95.1752 0.353145 3.11001 0
M  V30 937 C 95.6502 0.752576 4.51775 0
M  V30 938 N 97.1412 0.706239 4.57784 0
M  V30 939 C 97.8762 0.987417 5.64834 0
M  V30 940 N 97.3722 1.33607 6.79795 0
M  V30 941 N 99.1652 0.91254 5.54643 0
M  V30 942 H 91.3162 1.29228 1.68564 0
M  V30 943 H 93.5792 0.525906 0.78875 0
M  V30 944 H 93.2852 1.4311 3.21267 0
M  V30 945 H 93.1592 -0.229699 3.765 0
M  V30 946 H 95.5462 -0.666822 2.87467 0
M  V30 947 H 95.6272 1.0198 2.34593 0
M  V30 948 H 95.2712 1.77049 4.76042 0
M  V30 949 H 95.2012 0.0635409 5.26562 0
M  V30 950 H 97.6922 0.44889 3.75224 0
M  V30 951 H 98.0052 1.53582 7.57385 0
M  V30 952 H 96.3502 1.37439 6.81275 0
M  V30 953 H 99.5412 0.639601 4.6371 0
M  V30 954 H 99.7142 1.13503 6.37982 0
M  V30 955 N 93.1203 -1.57491 0.0584922 0
M  V30 956 C 94.3973 -1.84346 -0.653918 0
M  V30 957 C 94.7773 -0.948355 -1.88599 0
M  V30 958 O 94.1253 -0.0112403 -2.28497 0
M  V30 959 C 94.3353 -3.34239 -1.00425 0
M  V30 960 C 95.6833 -4.01431 -1.38342 0
M  V30 961 O 96.7073 -3.38907 -1.09637 0
M  V30 962 O 95.5663 -5.11683 -1.91943 0
M  V30 963 H 92.6603 -0.761112 -0.323478 0
M  V30 964 H 95.2063 -1.6947 0.0884125 0
M  V30 965 H 93.9783 -3.91089 -0.128625 0
M  V30 966 H 93.6013 -3.54329 -1.80378 0
M  V30 967 N 94.5984 0.214957 -1.56127 0
M  V30 968 C 95.5464 1.28601 -1.93816 0
M  V30 969 C 96.5404 1.48175 -0.821016 0
M  V30 970 O 97.7464 1.49271 -1.0059 0
M  V30 971 H 94.1214 0.431302 -0.616022 0
M  V30 972 H 96.0924 0.940991 -2.83175 0
M  V30 973 C 94.8414 2.62779 -2.27689 0
M  V30 974 H 94.1644 2.48527 -3.13168 0
M  V30 975 H 95.6044 3.36517 -2.57939 0
M  V30 976 C 94.0634 3.18285 -1.10436 0
M  V30 977 O 94.5934 4.00002 -0.368945 0
M  V30 978 N 92.7994 2.7675 -0.886433 0
M  V30 979 H 92.3464 2.10404 -1.48619 0
M  V30 980 H 92.3044 3.14229 -0.103656 0
M  V30 981 N 96.0765 1.50051 0.48192 0
M  V30 982 C 97.0395 1.67584 1.5636 0
M  V30 983 C 98.0395 0.546894 1.51214 0
M  V30 984 O 99.2295 0.813725 1.54026 0
M  V30 985 C 96.3615 1.691 2.96003 0
M  V30 986 H 97.5545 2.64078 1.42136 0
M  V30 987 H 95.1075 1.39369 0.707533 0
M  V30 988 H 95.8425 0.742589 3.15684 0
M  V30 989 H 95.6275 2.51105 3.01146 0
M  V30 990 H 97.1175 1.84656 3.74556 0
M  V30 991 N 97.5546 -0.734337 1.39446 0
M  V30 992 C 98.7946 -1.50655 1.38139 0
M  V30 993 C 99.1586 -1.91986 -0.0228701 0
M  V30 994 O 100.36 -2.68318 -0.160947 0
M  V30 995 C 98.6306 -2.71251 2.32718 0
M  V30 996 S 100.19 -3.60892 2.49605 0
M  V30 997 H 97.0076 -0.515315 0.489869 0
M  V30 998 H 99.6096 -0.860392 1.75549 0
M  V30 999 H 98.3136 -2.39027 3.33608 0
M  V30 1000 H 97.8446 -3.40795 1.96526 0
M  V30 1001 H 99.8596 -4.64899 1.73446 0
M  V30 1002 N 99.0327 -1.24633 -0.964593 0
M  V30 1003 C 99.9627 -1.06611 -2.07741 0
M  V30 1004 C 100.944 0.0218666 -1.70086 0
M  V30 1005 O 102.129 -0.145793 -1.93652 0
M  V30 1006 C 99.2587 -0.673444 -3.40708 0
M  V30 1007 C 98.2127 -1.71054 -3.92332 0
M  V30 1008 C 97.5387 -1.17285 -5.21678 0
M  V30 1009 C 98.8387 -3.10718 -4.19824 0
M  V30 1010 H 100.533 -1.99693 -2.23076 0
M  V30 1011 H 98.0787 -0.96152 -1.07195 0
M  V30 1012 H 100.032 -0.534345 -4.17998 0
M  V30 1013 H 98.7557 0.293073 -3.25282 0
M  V30 1014 H 97.4147 -1.83791 -3.17201 0
M  V30 1015 H 97.0627 -0.196847 -5.02615 0
M  V30 1016 H 96.7627 -1.86592 -5.57187 0
M  V30 1017 H 98.2867 -1.04593 -6.01575 0
M  V30 1018 H 99.7007 -3.01192 -4.87808 0
M  V30 1019 H 98.0977 -3.77406 -4.66567 0
M  V30 1020 H 99.1677 -3.58524 -3.26479 0
M  V30 1021 N 100.511 1.16574 -1.06058 0
M  V30 1022 C 101.441 2.23057 -0.690488 0
M  V30 1023 C 102.422 1.67141 0.315901 0
M  V30 1024 O 103.607 1.93253 0.191556 0
M  V30 1025 C 100.737 3.47222 -0.073625 0
M  V30 1026 C 99.6908 4.16016 -1.00573 0
M  V30 1027 C 99.0168 5.34104 -0.252289 0
M  V30 1028 C 100.317 4.67264 -2.33371 0
M  V30 1029 H 102.011 2.54271 -1.58072 0
M  V30 1030 H 99.5568 1.22218 -0.76149 0
M  V30 1031 H 101.51 4.20939 0.19714 0
M  V30 1032 H 100.234 3.15302 0.85161 0
M  V30 1033 H 98.8928 3.44223 -1.2612 0
M  V30 1034 H 98.5408 4.98437 0.675988 0
M  V30 1035 H 98.2408 5.81072 -0.873455 0
M  V30 1036 H 99.7648 6.10599 0.0109857 0
M  V30 1037 H 101.179 5.32573 -2.12223 0
M  V30 1038 H 99.5758 5.24843 -2.90963 0
M  V30 1039 H 100.646 3.83602 -2.96611 0
M  V30 1040 N 101.989 0.842826 1.3317 0
M  V30 1041 C 102.952 0.284065 2.27433 0
M  V30 1042 C 103.952 -0.54948 1.5112 0
M  V30 1043 O 105.142 -0.362699 1.70382 0
M  V30 1044 C 102.274 -0.599384 3.35589 0
M  V30 1045 H 103.467 1.11589 2.78366 0
M  V30 1046 H 101.02 0.616221 1.4364 0
M  V30 1047 H 101.755 -1.45349 2.89904 0
M  V30 1048 H 101.54 -0.00291266 3.921 0
M  V30 1049 H 103.03 -0.983488 4.05854 0
M  V30 1050 N 103.467 -1.45747 0.599634 0
M  V30 1051 C 104.377 -2.34262 -0.125888 0
M  V30 1052 C 105.393 -1.50768 -0.868625 0
M  V30 1053 O 106.569 -1.83592 -0.828003 0
M  V30 1054 C 103.634 -3.28252 -1.11587 0
M  V30 1055 C 102.695 -4.27651 -0.375956 0
M  V30 1056 C 101.928 -5.1715 -1.31877 0
M  V30 1057 O 102.151 -5.09916 -2.55621 0
M  V30 1058 O 101.085 -5.96286 -0.820157 0
M  V30 1059 H 104.911 -2.97688 0.601315 0
M  V30 1060 H 102.496 -1.44999 0.359934 0
M  V30 1061 H 104.378 -3.86191 -1.68626 0
M  V30 1062 H 103.053 -2.67401 -1.82424 0
M  V30 1063 H 101.96 -3.7335 0.236698 0
M  V30 1064 H 103.293 -4.91334 0.29177 0
M  V30 1065 N 104.945 -0.338344 -1.53925 0
M  V30 1066 C 105.855 0.529421 -2.28548 0
M  V30 1067 C 106.871 1.11645 -1.3346 0
M  V30 1068 O 108.047 1.13325 -1.66492 0
M  V30 1069 C 105.112 1.66713 -3.03987 0
M  V30 1070 C 104.173 1.11041 -4.14691 0
M  V30 1071 C 103.406 2.19389 -4.86522 0
M  V30 1072 O 103.629 3.40013 -4.57982 0
M  V30 1073 O 102.563 1.83976 -5.73094 0
M  V30 1074 H 106.389 -0.0770399 -3.03602 0
M  V30 1075 H 103.974 -0.103555 -1.49041 0
M  V30 1076 H 105.856 2.32918 -3.5118 0
M  V30 1077 H 104.531 2.25949 -2.31794 0
M  V30 1078 H 103.438 0.413024 -3.71813 0
M  V30 1079 H 104.771 0.562975 -4.8897 0
M  V30 1080 N 106.423 1.57458 -0.0668435 0
M  V30 1081 C 107.672 1.92477 0.602947 0
M  V30 1082 C 107.985 0.948419 1.71068 0
M  V30 1083 O 109.191 1.19124 2.43971 0
M  V30 1084 C 107.647 3.41903 1.12383 0
M  V30 1085 C 107.255 4.47975 0.04737 0
M  V30 1086 C 108.999 3.85931 1.76797 0
M  V30 1087 C 106.906 5.88529 0.582022 0
M  V30 1088 H 105.836 0.718387 0.22899 0
M  V30 1089 H 108.487 1.82978 -0.138276 0
M  V30 1090 H 106.869 3.46459 1.91787 0
M  V30 1091 H 108.043 4.55029 -0.726978 0
M  V30 1092 H 106.358 4.13384 -0.500243 0
M  V30 1093 H 108.955 4.88322 2.17821 0
M  V30 1094 H 109.298 3.23029 2.62599 0
M  V30 1095 H 109.831 3.83958 1.04024 0
M  V30 1096 H 106.57 6.55065 -0.238721 0
M  V30 1097 H 106.09 5.85004 1.324 0
M  V30 1098 H 107.769 6.38258 1.05999 0
M  V30 1099 N 107.901 -0.206675 1.56239 0
M  V30 1100 C 109.147 -0.930218 1.80208 0
M  V30 1101 C 109.48 -1.83387 0.638981 0
M  V30 1102 O 108.755 -1.91119 -0.361066 0
M  V30 1103 C 109.038 -1.75641 3.1436 0
M  V30 1104 C 108.891 -0.878257 4.41142 0
M  V30 1105 C 110.21 -2.73129 3.45092 0
M  V30 1106 H 107.329 -0.336742 0.655571 0
M  V30 1107 H 109.971 -0.198222 1.88963 0
M  V30 1108 H 108.121 -2.38048 3.07027 0
M  V30 1109 H 109.793 -0.269787 4.6051 0
M  V30 1110 H 108.036 -0.184385 4.33408 0
M  V30 1111 H 108.707 -1.49106 5.3148 0
M  V30 1112 H 111.183 -2.20856 3.52649 0
M  V30 1113 H 110.059 -3.28028 4.40101 0
M  V30 1114 H 110.32 -3.51606 2.68003 0
M  V30 1115 N 109.379 -1.50304 -0.473955 0
M  V30 1116 C 110.607 -1.64902 -1.24959 0
M  V30 1117 C 111.022 -0.331198 -1.85872 0
M  V30 1118 O 110.379 0.68652 -1.69095 0
M  V30 1119 C 110.43 -2.73803 -2.36038 0
M  V30 1120 O 110.151 -4.00477 -1.77624 0
M  V30 1121 C 111.652 -2.99349 -3.26964 0
M  V30 1122 H 108.872 -0.554383 -0.378022 0
M  V30 1123 H 111.416 -1.9651 -0.566054 0
M  V30 1124 H 109.571 -2.44898 -3.00173 0
M  V30 1125 H 109.985 -4.60678 -2.5075 0
M  V30 1126 H 111.459 -3.79217 -4.01121 0
M  V30 1127 H 111.936 -2.10307 -3.85574 0
M  V30 1128 H 112.542 -3.29774 -2.68569 0
M  V30 1129 N 110.857 0.726932 -1.39834 0
M  V30 1130 C 111.82 1.82269 -1.38962 0
M  V30 1131 C 112.82 1.58248 -0.285334 0
M  V30 1132 O 114.01 1.65499 -0.54366 0
M  V30 1133 C 111.142 3.20186 -1.17019 0
M  V30 1134 H 112.335 1.84443 -2.36476 0
M  V30 1135 H 109.888 0.931416 -1.25516 0
M  V30 1136 H 110.623 3.23669 -0.202204 0
M  V30 1137 H 110.408 3.3902 -1.96998 0
M  V30 1138 H 111.898 4.00235 -1.1917 0
M  V30 1139 N 112.336 1.25143 0.95797 0
M  V30 1140 C 113.752 1.01892 1.22842 0
M  V30 1141 C 113.952 -0.266311 1.99732 0
M  V30 1142 O 113.008 -0.979913 2.3271 0
M  V30 1143 C 114.321 2.24004 2.00606 0
M  V30 1144 C 115.869 2.28731 2.13662 0
M  V30 1145 C 116.344 3.5049 2.94823 0
M  V30 1146 N 117.835 3.50866 3.02403 0
M  V30 1147 C 118.57 4.4174 3.65586 0
M  V30 1148 N 118.066 5.42882 4.30408 0
M  V30 1149 N 119.859 4.29429 3.62694 0
M  V30 1150 H 112.01 2.07718 0.443493 0
M  V30 1151 H 114.273 0.912031 0.258657 0
M  V30 1152 H 113.979 3.17395 1.51503 0
M  V30 1153 H 113.853 2.26907 3.01319 0
M  V30 1154 H 116.24 1.35865 2.61963 0
M  V30 1155 H 116.321 2.29848 1.12265 0
M  V30 1156 H 115.965 4.43676 2.47213 0
M  V30 1157 H 115.895 3.46617 3.96439 0
M  V30 1158 H 118.386 2.777 2.56302 0
M  V30 1159 H 118.699 6.0844 4.76467 0
M  V30 1160 H 117.044 5.46758 4.29047 0
M  V30 1161 H 120.235 3.49643 3.11236 0
M  V30 1162 H 120.408 5.00448 4.1165 0
M  V30 1163 N 113.814 -1.1601 1.06675 0
M  V30 1164 C 115.062 -1.86264 0.784229 0
M  V30 1165 C 115.383 -1.82328 -0.691488 0
M  V30 1166 O 114.653 -1.25947 -1.50047 0
M  V30 1167 H 113.233 -0.689621 0.28711 0
M  V30 1168 H 115.895 -1.40664 1.34906 0
M  V30 1169 H 114.991 -2.91595 1.11259 0
M  V30 1170 N 115.292 -0.849877 -1.32721 0
M  V30 1171 C 116.202 -0.293791 -2.32753 0
M  V30 1172 C 117.218 0.585906 -1.63839 0
M  V30 1173 O 118.394 0.487413 -1.95413 0
M  V30 1174 C 115.459 0.512752 -3.42887 0
M  V30 1175 C 114.52 -0.39252 -4.27502 0
M  V30 1176 C 113.753 0.375625 -5.32377 0
M  V30 1177 O 113.976 1.60613 -5.4732 0
M  V30 1178 O 112.91 -0.256094 -6.01355 0
M  V30 1179 H 116.736 -1.12242 -2.82197 0
M  V30 1180 H 114.321 -0.612685 -1.36259 0
M  V30 1181 H 116.203 0.970704 -4.10067 0
M  V30 1182 H 114.878 1.31826 -2.95641 0
M  V30 1183 H 113.785 -0.898547 -3.63149 0
M  V30 1184 H 115.118 -1.16309 -4.7826 0
M  V30 1185 N 116.77 1.45427 -0.607355 0
M  V30 1186 C 118.186 1.57283 -0.270985 0
M  V30 1187 C 118.386 1.59875 1.22647 0
M  V30 1188 O 117.442 1.52893 2.00948 0
M  V30 1189 C 118.755 2.85566 -0.941952 0
M  V30 1190 C 120.303 2.9924 -0.917849 0
M  V30 1191 C 120.778 4.30293 -1.56882 0
M  V30 1192 N 122.269 4.37051 -1.5343 0
M  V30 1193 C 123.004 5.37123 -2.00715 0
M  V30 1194 N 122.5 6.43734 -2.56084 0
M  V30 1195 N 124.293 5.28479 -1.91484 0
M  V30 1196 H 116.444 1.41988 -1.57966 0
M  V30 1197 H 118.707 0.67885 -0.661715 0
M  V30 1198 H 118.413 2.8955 -1.99633 0
M  V30 1199 H 118.287 3.74322 -0.465096 0
M  V30 1200 H 120.674 2.94822 0.127984 0
M  V30 1201 H 120.755 2.11895 -1.43297 0
M  V30 1202 H 120.399 4.35469 -2.61398 0
M  V30 1203 H 120.329 5.16454 -1.02873 0
M  V30 1204 H 122.82 3.60615 -1.12982 0
M  V30 1205 H 123.133 7.16341 -2.89958 0
M  V30 1206 H 121.478 6.44485 -2.60122 0
M  V30 1207 H 124.669 4.44098 -1.47967 0
M  V30 1208 H 124.842 6.0632 -2.28648 0
M  V30 1209 N 118.248 0.346503 1.53744 0
M  V30 1210 C 119.211 -0.496439 2.23759 0
M  V30 1211 C 120.211 -1.0252 1.2388 0
M  V30 1212 O 121.401 -0.913974 1.48297 0
M  V30 1213 C 118.533 -1.69187 2.95954 0
M  V30 1214 H 119.726 0.115952 2.99676 0
M  V30 1215 H 117.279 0.0978939 1.55993 0
M  V30 1216 H 118.014 -2.34288 2.24231 0
M  V30 1217 H 117.799 -1.31989 3.69217 0
M  V30 1218 H 119.289 -2.28969 3.49232 0
M  V30 1219 N 119.726 -1.57421 0.075193 0
M  V30 1220 C 121.142 -1.57099 -0.281444 0
M  V30 1221 C 121.342 -1.08486 -1.69803 0
M  V30 1222 O 120.398 -0.752279 -2.41033 0
M  V30 1223 C 121.711 -3.00571 -0.0880041 0
M  V30 1224 C 123.259 -3.12605 -0.157281 0
M  V30 1225 C 123.734 -4.57999 0.0079207 0
M  V30 1226 N 125.225 -4.63176 -0.0475725 0
M  V30 1227 C 125.96 -5.73373 0.0557876 0
M  V30 1228 N 125.456 -6.92473 0.21286 0
M  V30 1229 N 127.249 -5.621 -0.00152098 0
M  V30 1230 H 119.4 -1.87335 1.00098 0
M  V30 1231 H 121.663 -0.86377 0.390646 0
M  V30 1232 H 121.369 -3.40262 0.889629 0
M  V30 1233 H 121.243 -3.67754 -0.838875 0
M  V30 1234 H 123.63 -2.72798 -1.1254 0
M  V30 1235 H 123.711 -2.48053 0.62475 0
M  V30 1236 H 123.355 -4.98496 0.972824 0
M  V30 1237 H 123.285 -5.20586 -0.793556 0
M  V30 1238 H 125.776 -3.7753 -0.167244 0
M  V30 1239 H 126.089 -7.72279 0.283781 0
M  V30 1240 H 124.434 -6.94556 0.248267 0
M  V30 1241 H 127.625 -4.67938 -0.122958 0
M  V30 1242 H 127.798 -6.47948 0.0824844 0
M  V30 1243 N 121.204 0.198386 -1.56346 0
M  V30 1244 C 122.434 0.934215 -1.84271 0
M  V30 1245 C 122.842 1.77496 -0.655125 0
M  V30 1246 O 122.185 1.7961 0.385488 0
M  V30 1247 C 122.247 1.88278 -3.06254 0
M  V30 1248 C 121.911 1.22431 -4.40295 0
M  V30 1249 C 122.908 0.602839 -5.16393 0
M  V30 1250 C 120.593 1.22915 -4.87029 0
M  V30 1251 C 122.587 -0.0050083 -6.374 0
M  V30 1252 C 120.274 0.617465 -6.07973 0
M  V30 1253 C 121.272 0.00146341 -6.83 0
M  V30 1254 O 120.96 -0.600642 -8.01653 0
M  V30 1255 H 120.692 0.278245 -0.616081 0
M  V30 1256 H 123.246 0.211626 -2.04307 0
M  V30 1257 H 121.476 2.64498 -2.82095 0
M  V30 1258 H 123.165 2.48612 -3.20853 0
M  V30 1259 H 123.931 0.591265 -4.81382 0
M  V30 1260 H 119.81 1.69801 -4.28589 0
M  V30 1261 H 123.354 -0.48643 -6.95902 0
M  V30 1262 H 119.251 0.62653 -6.42452 0
M  V30 1263 H 120.019 -0.497225 -8.16988 0
M  V30 1264 N 122.682 1.50554 0.465978 0
M  V30 1265 C 123.929 1.61798 1.21768 0
M  V30 1266 C 124.257 0.320696 1.91838 0
M  V30 1267 O 123.512 -0.693724 1.82992 0
M  V30 1268 C 123.811 2.75152 2.28093 0
M  V30 1269 C 123.477 4.15454 1.75239 0
M  V30 1270 C 122.139 4.53628 1.60546 0
M  V30 1271 C 124.491 5.03121 1.36083 0
M  V30 1272 C 121.819 5.77204 1.05128 0
M  V30 1273 C 124.171 6.27249 0.821056 0
M  V30 1274 C 122.835 6.64221 0.660795 0
M  V30 1275 H 122.105 0.592063 0.445582 0
M  V30 1276 H 124.752 1.84503 0.512927 0
M  V30 1277 H 123.057 2.46556 3.04496 0
M  V30 1278 H 124.754 2.81055 2.86023 0
M  V30 1279 H 121.344 3.85341 1.87644 0
M  V30 1280 H 125.528 4.74257 1.46267 0
M  V30 1281 H 120.784 6.0452 0.91462 0
M  V30 1282 H 124.958 6.94537 0.509018 0
M  V30 1283 H 122.585 7.59854 0.229226 0
M  V30 1284 N 124.16 -0.719506 1.40217 0
M  V30 1285 C 125.408 -1.47641 1.3801 0
M  V30 1286 C 125.729 -1.94992 -0.018145 0
M  V30 1287 O 124.999 -1.70073 -0.972207 0
M  V30 1288 H 123.579 -0.547744 0.507923 0
M  V30 1289 H 126.241 -0.853187 1.75233 0
M  V30 1290 H 125.337 -2.35112 2.05253 0
M  V30 1291 N 125.638 -1.25649 -0.95132 0
M  V30 1292 C 126.863 -1.13443 -1.73624 0
M  V30 1293 C 127.288 0.307565 -1.85568 0
M  V30 1294 O 126.646 1.22282 -1.33854 0
M  V30 1295 C 126.694 -1.79723 -3.12621 0
M  V30 1296 O 125.798 -1.07912 -3.98031 0
M  V30 1297 H 125.139 -0.395872 -0.533086 0
M  V30 1298 H 127.669 -1.66276 -1.1922 0
M  V30 1299 H 127.679 -1.86141 -3.63064 0
M  V30 1300 H 126.354 -2.84633 -3.03244 0
M  V30 1301 H 124.931 -1.09398 -3.56492 0
M  V30 1302 N 127.117 1.15442 -1.07289 0
M  V30 1303 C 128.027 2.23786 -0.704057 0
M  V30 1304 C 129.043 1.7166 0.284413 0
M  V30 1305 O 130.219 2.00972 0.131205 0
M  V30 1306 C 127.284 3.46535 -0.106792 0
M  V30 1307 C 126.345 4.13654 -1.14842 0
M  V30 1308 C 125.578 5.30544 -0.57956 0
M  V30 1309 O 125.801 5.67187 0.604585 0
M  V30 1310 O 124.735 5.87154 -1.32414 0
M  V30 1311 H 128.561 2.57664 -1.60757 0
M  V30 1312 H 126.146 1.23152 -0.845803 0
M  V30 1313 H 128.028 4.20804 0.224048 0
M  V30 1314 H 126.703 3.14407 0.770049 0
M  V30 1315 H 125.61 3.4131 -1.5316 0
M  V30 1316 H 126.943 4.49861 -1.99714 0
M  V30 1317 N 128.595 0.856903 1.32268 0
M  V30 1318 C 129.843 0.460474 1.96784 0
M  V30 1319 C 130.164 -0.987701 1.68135 0
M  V30 1320 O 129.434 -1.69058 0.989765 0
M  V30 1321 H 128.014 0.167289 0.728027 0
M  V30 1322 H 130.676 1.09383 1.61312 0
M  V30 1323 H 129.772 0.60739 3.06133 0
M  V30 1324 N 130.073 -1.45103 0.615059 0
M  V30 1325 C 131.02 -2.30586 -0.0993978 0
M  V30 1326 C 131.99 -1.42544 -0.852669 0
M  V30 1327 O 133.175 -1.71465 -0.836917 0
M  V30 1328 C 130.315 -3.27572 -1.08583 0
M  V30 1329 C 129.428 -4.30717 -0.332656 0
M  V30 1330 C 128.563 -5.14807 -1.30947 0
M  V30 1331 C 127.602 -6.09673 -0.544538 0
M  V30 1332 N 126.739 -6.86517 -1.47101 0
M  V30 1333 H 131.579 -2.91144 0.635542 0
M  V30 1334 H 129.116 -1.4346 0.325206 0
M  V30 1335 H 131.074 -3.82276 -1.67095 0
M  V30 1336 H 129.704 -2.68751 -1.78809 0
M  V30 1337 H 128.756 -3.78615 0.368107 0
M  V30 1338 H 130.068 -4.98102 0.263842 0
M  V30 1339 H 129.222 -5.73948 -1.96643 0
M  V30 1340 H 127.961 -4.47458 -1.9399 0
M  V30 1341 H 126.966 -5.49656 0.126003 0
M  V30 1342 H 128.191 -6.79052 0.080947 0
M  V30 1343 H 126.137 -6.21851 -2.08895 0
M  V30 1344 H 126.054 -7.50281 -0.928137 0
M  V30 1345 H 127.322 -7.50194 -2.11731 0
M  V30 1346 N 131.551 -0.354651 -1.53558 0
M  V30 1347 C 132.776 0.242153 -2.05981 0
M  V30 1348 C 133.201 1.42553 -1.2272 0
M  V30 1349 O 132.559 1.79656 -0.243604 0
M  V30 1350 C 132.607 0.624367 -3.55154 0
M  V30 1351 O 131.711 1.72301 -3.74681 0
M  V30 1352 H 131.052 0.0378432 -0.662921 0
M  V30 1353 H 133.582 -0.512087 -1.98088 0
M  V30 1354 H 133.592 0.898433 -3.97985 0
M  V30 1355 H 132.267 -0.240989 -4.15201 0
M  V30 1356 H 130.844 1.44535 -3.4375 0
M  V30 1357 N 133.029 1.57378 -0.0835403 0
M  V30 1358 C 134.254 1.98682 0.594987 0
M  V30 1359 C 134.679 0.961969 1.61641 0
M  V30 1360 O 134.037 -0.0709989 1.81161 0
M  V30 1361 C 134.085 3.38988 1.2296 0
M  V30 1362 O 133.189 3.39208 2.34546 0
M  V30 1363 H 132.53 0.646368 0.152002 0
M  V30 1364 H 135.06 2.03961 -0.161533 0
M  V30 1365 H 135.07 3.76431 1.57366 0
M  V30 1366 H 133.745 4.13107 0.481228 0
M  V30 1367 H 132.322 3.13548 2.01846 0
M  V30 1368 N 134.507 -0.190092 1.56449 0
M  V30 1369 C 135.47 -1.21925 1.9408 0
M  V30 1370 C 136.47 -1.38176 0.822431 0
M  V30 1371 O 137.66 -1.35903 1.08977 0
M  V30 1372 C 134.792 -2.58773 2.21922 0
M  V30 1373 H 135.985 -0.897464 2.86157 0
M  V30 1374 H 133.538 -0.43181 1.50217 0
M  V30 1375 H 134.273 -2.95998 1.32499 0
M  V30 1376 H 134.058 -2.48348 3.03424 0
M  V30 1377 H 135.548 -3.32978 2.52022 0
M  V30 1378 N 135.985 -1.50799 -0.457987 0
M  V30 1379 C 136.895 -1.73426 -1.57989 0
M  V30 1380 C 137.911 -0.617745 -1.62665 0
M  V30 1381 O 139.087 -0.897614 -1.80291 0
M  V30 1382 C 136.152 -1.83557 -2.94122 0
M  V30 1383 C 135.213 -3.07345 -2.99729 0
M  V30 1384 C 134.446 -3.16983 -4.29368 0
M  V30 1385 O 134.669 -2.33077 -5.20607 0
M  V30 1386 O 133.603 -4.09812 -4.40837 0
M  V30 1387 H 137.429 -2.68555 -1.41817 0
M  V30 1388 H 135.014 -1.35052 -0.638859 0
M  V30 1389 H 136.896 -1.92326 -3.74952 0
M  V30 1390 H 135.571 -0.916137 -3.10465 0
M  V30 1391 H 134.478 -3.04068 -2.1793 0
M  V30 1392 H 135.811 -3.9891 -2.88326 0
M  V30 1393 N 137.463 0.71206 -1.40597 0
M  V30 1394 C 138.393 1.83889 -1.43899 0
M  V30 1395 C 139.374 1.67442 -0.299504 0
M  V30 1396 O 140.559 1.87421 -0.508624 0
M  V30 1397 C 137.689 3.21877 -1.30431 0
M  V30 1398 C 136.643 3.53002 -2.42019 0
M  V30 1399 C 135.969 4.90172 -2.13626 0
M  V30 1400 C 137.269 3.53643 -3.84362 0
M  V30 1401 H 138.963 1.81383 -2.38203 0
M  V30 1402 H 136.509 0.871237 -1.14654 0
M  V30 1403 H 138.462 4.00404 -1.31357 0
M  V30 1404 H 137.186 3.24968 -0.326049 0
M  V30 1405 H 135.845 2.76818 -2.40349 0
M  V30 1406 H 135.493 4.89869 -1.14182 0
M  V30 1407 H 135.193 5.11962 -2.88389 0
M  V30 1408 H 136.717 5.71028 -2.1624 0
M  V30 1409 H 138.131 4.22203 -3.87837 0
M  V30 1410 H 136.528 3.86961 -4.58673 0
M  V30 1411 H 137.598 2.52954 -4.13693 0
M  V30 1412 N 138.941 1.26152 0.944643 0
M  V30 1413 C 140.218 1.02247 1.66748 0
M  V30 1414 C 140.598 -0.448202 2.06287 0
M  V30 1415 O 139.946 -1.42779 1.78399 0
M  V30 1416 C 140.156 1.96788 2.88228 0
M  V30 1417 C 141.504 2.25201 3.59958 0
M  V30 1418 O 142.528 1.94626 2.98327 0
M  V30 1419 O 141.387 2.77242 4.70956 0
M  V30 1420 H 138.481 0.388517 0.730057 0
M  V30 1421 H 141.027 1.37348 0.99668 0
M  V30 1422 H 139.799 2.96047 2.55875 0
M  V30 1423 H 139.422 1.62145 3.63035 0
M  V30 1424 N 140.419 -1.14872 1.07899 0
M  V30 1425 C 141.367 -2.21857 0.698727 0
M  V30 1426 C 142.361 -1.66845 -0.293086 0
M  V30 1427 O 143.567 -1.79321 -0.156204 0
M  V30 1428 H 139.942 -0.722691 0.207899 0
M  V30 1429 H 141.913 -2.51205 1.61054 0
M  V30 1430 C 140.662 -3.47498 0.11858 0
M  V30 1431 H 139.985 -3.90154 0.872914 0
M  V30 1432 H 141.425 -4.23858 -0.109759 0
M  V30 1433 C 139.884 -3.16947 -1.1422 0
M  V30 1434 O 140.414 -3.3426 -2.22785 0
M  V30 1435 N 138.62 -2.70946 -1.05055 0
M  V30 1436 H 138.167 -2.57058 -0.167038 0
M  V30 1437 H 138.125 -2.50879 -1.89491 0
M  V30 1438 N 141.898 -0.863906 -1.31812 0
M  V30 1439 C 142.828 -0.330843 -2.31144 0
M  V30 1440 C 143.809 0.575005 -1.60087 0
M  V30 1441 O 144.994 0.493304 -1.8783 0
M  V30 1442 C 142.124 0.47374 -3.44054 0
M  V30 1443 C 141.078 -0.338481 -4.26659 0
M  V30 1444 C 140.404 0.591412 -5.31419 0
M  V30 1445 C 141.704 -1.56926 -4.98168 0
M  V30 1446 H 143.398 -1.16086 -2.75979 0
M  V30 1447 H 140.944 -0.559657 -1.32679 0
M  V30 1448 H 142.897 0.857143 -4.12591 0
M  V30 1449 H 141.621 1.33721 -2.9797 0
M  V30 1450 H 140.28 -0.703754 -3.59782 0
M  V30 1451 H 139.928 1.45199 -4.81587 0
M  V30 1452 H 139.628 0.0519022 -5.87577 0
M  V30 1453 H 141.152 0.97179 -6.02817 0
M  V30 1454 H 142.566 -1.25764 -5.59336 0
M  V30 1455 H 140.963 -2.04739 -5.64094 0
M  V30 1456 H 142.033 -2.32544 -4.25501 0
M  V30 1457 N 143.376 1.44774 -0.622745 0
M  V30 1458 C 144.787 1.85546 -0.207226 0
M  V30 1459 C 145.138 1.52093 1.23944 0
M  V30 1460 O 144.263 0.95492 1.94191 0
M  V30 1461 C 144.858 3.36781 -0.369313 0
M  V30 1462 C 143.417 3.76399 -0.00836847 0
M  V30 1463 C 142.564 2.68664 -0.686651 0
M  V30 1464 H 145.515 1.3536 -0.828454 0
M  V30 1465 H 145.536 3.78453 0.394162 0
M  V30 1466 H 145.048 3.61098 -1.42231 0
M  V30 1467 H 143.149 3.57698 1.04322 0
M  V30 1468 H 143.262 4.7732 -0.412584 0
M  V30 1469 H 141.626 2.54404 -0.122777 0
M  V30 1470 H 142.409 2.95815 -1.74208 0
M  V30 1471 N 144.854 0.36279 1.53368 0
M  V30 1472 C 146.079 -0.231226 2.06107 0
M  V30 1473 C 146.504 -1.419 1.23474 0
M  V30 1474 O 145.862 -1.79524 0.253128 0
M  V30 1475 C 145.91 -0.605523 3.5548 0
M  V30 1476 O 145.014 -1.70312 3.7559 0
M  V30 1477 H 144.355 -0.034327 0.663112 0
M  V30 1478 H 146.885 0.522584 1.97814 0
M  V30 1479 H 146.895 -0.877314 3.98456 0
M  V30 1480 H 145.57 0.263004 4.15068 0
M  V30 1481 H 144.147 -1.4271 3.44512 0
M  V30 1482 N 146.332 -1.57332 0.0918853 0
M  V30 1483 C 147.609 -1.85691 -0.614668 0
M  V30 1484 C 147.989 -0.988146 -1.86545 0
M  V30 1485 O 147.337 -0.0597055 -2.28422 0
M  V30 1486 C 147.547 -3.36294 -0.933126 0
M  V30 1487 C 148.895 -4.04275 -1.29796 0
M  V30 1488 O 149.919 -3.41157 -1.02424 0
M  V30 1489 O 148.778 -5.1564 -1.81047 0
M  V30 1490 H 145.872 -0.767802 -0.307261 0
M  V30 1491 H 148.418 -1.69244 0.12434 0
M  V30 1492 H 147.19 -3.91273 -0.0456404 0
M  V30 1493 H 146.813 -3.58076 -1.72822 0
M  V30 1494 N 147.81 0.181792 -1.56548 0
M  V30 1495 C 149.059 0.898348 -1.8059 0
M  V30 1496 C 149.372 1.83862 -0.667379 0
M  V30 1497 O 150.578 2.59678 -0.792446 0
M  V30 1498 C 149.034 1.64791 -3.19956 0
M  V30 1499 C 148.642 0.751789 -4.41647 0
M  V30 1500 C 150.386 2.35331 -3.53298 0
M  V30 1501 C 148.293 1.50098 -5.72035 0
M  V30 1502 H 147.223 0.339194 -0.673397 0
M  V30 1503 H 149.874 0.151413 -1.82874 0
M  V30 1504 H 148.256 2.43921 -3.11959 0
M  V30 1505 H 149.43 -0.0018076 -4.608 0
M  V30 1506 H 147.745 0.156562 -4.16106 0
M  V30 1507 H 150.342 2.91958 -4.47956 0
M  V30 1508 H 150.685 3.10164 -2.77676 0
M  V30 1509 H 151.218 1.63154 -3.62803 0
M  V30 1510 H 147.957 0.795175 -6.50659 0
M  V30 1511 H 147.477 2.22817 -5.56878 0
M  V30 1512 H 149.156 2.05125 -6.13622 0
M  V30 1513 N 149.288 1.51039 0.449983 0
M  V30 1514 C 150.535 1.63081 1.20045 0
M  V30 1515 C 150.863 0.341024 1.91487 0
M  V30 1516 O 150.118 -0.674276 1.83717 0
M  V30 1517 C 150.417 2.77556 2.25161 0
M  V30 1518 C 150.083 4.17289 1.70823 0
M  V30 1519 C 148.745 4.55305 1.55725 0
M  V30 1520 C 151.097 5.04536 1.3074 0
M  V30 1521 C 148.425 5.78287 0.989999 0
M  V30 1522 C 150.777 6.28085 0.754482 0
M  V30 1523 C 149.441 6.64885 0.590308 0
M  V30 1524 H 148.711 0.596755 0.439277 0
M  V30 1525 H 151.358 1.85037 0.49333 0
M  V30 1526 H 149.663 2.49771 3.01863 0
M  V30 1527 H 151.36 2.84073 2.83026 0
M  V30 1528 H 147.95 3.8731 1.83546 0
M  V30 1529 H 152.134 4.75782 1.41229 0
M  V30 1530 H 147.39 6.05456 0.850451 0
M  V30 1531 H 151.564 6.95038 0.435324 0
M  V30 1532 H 149.191 7.60055 0.14862 0
M  V30 1533 N 150.766 -0.704594 1.40972 0
M  V30 1534 C 151.996 -1.49138 1.42974 0
M  V30 1535 C 152.404 -1.89175 0.0308406 0
M  V30 1536 O 151.747 -1.56734 -0.958138 0
M  V30 1537 C 151.809 -2.79016 2.26694 0
M  V30 1538 C 151.473 -2.61236 3.74973 0
M  V30 1539 C 152.47 -2.27773 4.67349 0
M  V30 1540 C 150.155 -2.77158 4.18914 0
M  V30 1541 C 152.149 -2.10457 6.01653 0
M  V30 1542 C 149.836 -2.59459 5.53285 0
M  V30 1543 C 150.834 -2.26158 6.4447 0
M  V30 1544 O 150.522 -2.08605 7.76363 0
M  V30 1545 H 150.254 -0.466443 0.489292 0
M  V30 1546 H 152.808 -0.8758 1.85793 0
M  V30 1547 H 151.038 -3.42947 1.78673 0
M  V30 1548 H 152.727 -3.40782 2.20504 0
M  V30 1549 H 153.493 -2.15095 4.34694 0
M  V30 1550 H 149.372 -3.02064 3.48251 0
M  V30 1551 H 152.916 -1.84387 6.72791 0
M  V30 1552 H 148.813 -2.71725 5.85522 0
M  V30 1553 H 149.581 -2.23439 7.87412 0
M  V30 1554 N 152.244 -1.26651 -0.937939 0
M  V30 1555 C 153.207 -1.08546 -2.01867 0
M  V30 1556 C 154.207 -0.0327327 -1.60767 0
M  V30 1557 O 155.397 -0.276427 -1.71993 0
M  V30 1558 C 152.529 -0.651711 -3.34613 0
M  V30 1559 H 153.722 -2.04502 -2.1936 0
M  V30 1560 H 151.275 -1.09294 -1.11734 0
M  V30 1561 H 152.01 0.309696 -3.22818 0
M  V30 1562 H 151.795 -1.41189 -3.65798 0
M  V30 1563 H 153.285 -0.546973 -4.14002 0
M  V30 1564 N 153.722 1.14298 -1.08507 0
M  V30 1565 C 154.968 1.85854 -0.826438 0
M  V30 1566 C 155.323 1.81413 0.640878 0
M  V30 1567 O 154.616 1.23463 1.46518 0
M  V30 1568 C 154.81 3.33547 -1.28379 0
M  V30 1569 C 154.639 3.52369 -2.79403 0
M  V30 1570 C 153.409 3.67159 -3.47164 0
M  V30 1571 C 155.607 3.49203 -3.77573 0
M  V30 1572 N 153.589 3.74149 -4.86709 0
M  V30 1573 C 154.96 3.6245 -5.03021 0
M  V30 1574 C 157.015 3.32547 -3.70563 0
M  V30 1575 C 155.718 3.60761 -6.2229 0
M  V30 1576 C 157.744 3.32162 -4.89308 0
M  V30 1577 C 157.106 3.45949 -6.13595 0
M  V30 1578 H 153.205 0.696705 -0.355143 0
M  V30 1579 H 155.789 1.36981 -1.38362 0
M  V30 1580 H 153.96 3.81008 -0.754166 0
M  V30 1581 H 155.692 3.92867 -0.971469 0
M  V30 1582 H 152.447 3.68433 -2.9758 0
M  V30 1583 H 152.871 3.81359 -5.5937 0
M  V30 1584 H 157.513 3.20797 -2.75407 0
M  V30 1585 H 155.231 3.71286 -7.17755 0
M  V30 1586 H 158.817 3.20485 -4.85573 0
M  V30 1587 H 157.697 3.456 -7.03939 0
M  V30 1588 N 155.201 0.870884 1.31352 0
M  V30 1589 C 156.131 0.343096 2.30966 0
M  V30 1590 C 157.112 -0.566507 1.60389 0
M  V30 1591 O 158.297 -0.483336 1.88089 0
M  V30 1592 C 155.427 -0.455487 3.443 0
M  V30 1593 C 154.381 0.361103 4.26474 0
M  V30 1594 C 153.707 -0.563221 5.31725 0
M  V30 1595 C 155.007 1.59566 4.97329 0
M  V30 1596 H 156.701 1.17548 2.75359 0
M  V30 1597 H 154.247 0.566686 1.32381 0
M  V30 1598 H 156.2 -0.83525 4.13039 0
M  V30 1599 H 154.924 -1.32139 2.98675 0
M  V30 1600 H 153.583 0.722825 3.59403 0
M  V30 1601 H 153.231 -1.42643 4.82351 0
M  V30 1602 H 152.931 -0.0207409 5.87596 0
M  V30 1603 H 154.455 -0.939808 6.03324 0
M  V30 1604 H 155.869 1.28728 5.58661 0
M  V30 1605 H 154.266 2.07728 5.63 0
M  V30 1606 H 155.336 2.34798 4.24262 0
M  V30 1607 N 156.679 -1.44442 0.630414 0
M  V30 1608 C 157.627 -2.32437 -0.0871428 0
M  V30 1609 C 158.621 -1.47304 -0.836525 0
M  V30 1610 O 159.827 -1.63653 -0.749506 0
M  V30 1611 H 156.202 -0.750533 -0.0469495 0
M  V30 1612 H 158.173 -2.90709 0.673096 0
M  V30 1613 C 156.922 -3.31288 -1.05563 0
M  V30 1614 H 156.245 -3.96805 -0.488426 0
M  V30 1615 H 157.685 -3.9554 -1.52721 0
M  V30 1616 C 156.144 -2.6016 -2.14052 0
M  V30 1617 O 156.674 -2.39997 -3.22124 0
M  V30 1618 N 154.88 -2.19911 -1.89967 0
M  V30 1619 H 154.427 -2.36509 -1.02085 0
M  V30 1620 H 154.385 -1.72646 -2.62756 0
M  V30 1621 N 158.157 -0.370918 -1.53173 0
M  V30 1622 C 159.089 0.507823 -2.23503 0
M  V30 1623 C 160.102 1.04182 -1.251 0
M  V30 1624 O 161.291 0.947286 -1.5129 0
M  V30 1625 C 158.391 1.71447 -2.92334 0
M  V30 1626 C 157.564 1.31105 -4.17289 0
M  V30 1627 C 156.623 2.38035 -4.69282 0
M  V30 1628 O 155.649 2.00204 -5.32829 0
M  V30 1629 N 156.851 3.69697 -4.47554 0
M  V30 1630 H 159.616 -0.0946382 -2.99551 0
M  V30 1631 H 157.177 -0.196358 -1.60705 0
M  V30 1632 H 159.169 2.42469 -3.24023 0
M  V30 1633 H 157.739 2.22368 -2.19707 0
M  V30 1634 H 156.959 0.430462 -3.91843 0
M  V30 1635 H 158.247 1.0179 -4.98514 0
M  V30 1636 H 157.645 4.03205 -3.9679 0
M  V30 1637 H 156.202 4.36807 -4.8378 0
M  V30 1638 N 159.635 1.57281 -0.100228 0
M  V30 1639 C 161.046 1.81725 0.428107 0
M  V30 1640 C 161.397 1.01619 1.67833 0
M  V30 1641 O 160.522 0.247098 2.14985 0
M  V30 1642 C 161.117 3.29617 0.78347 0
M  V30 1643 C 159.676 3.54808 1.25653 0
M  V30 1644 C 158.823 2.76118 0.255752 0
M  V30 1645 H 161.774 1.55324 -0.325608 0
M  V30 1646 H 161.795 3.4322 1.64256 0
M  V30 1647 H 161.307 3.87893 -0.12665 0
M  V30 1648 H 159.408 3.01868 2.18418 0
M  V30 1649 H 159.521 4.63443 1.21482 0
M  V30 1650 H 157.885 2.43745 0.738956 0
M  V30 1651 H 158.668 3.37145 -0.647136 0
M  V30 1652 N 161.113 -0.173488 1.56642 0
M  V30 1653 C 162.023 -1.23482 1.99473 0
M  V30 1654 C 163.039 -1.48567 0.905752 0
M  V30 1655 O 164.215 -1.60758 1.21321 0
M  V30 1656 C 161.28 -2.55444 2.34413 0
M  V30 1657 C 160.341 -2.38241 3.57127 0
M  V30 1658 C 159.574 -3.63909 3.90392 0
M  V30 1659 O 159.797 -4.68996 3.24653 0
M  V30 1660 O 158.731 -3.58149 4.83749 0
M  V30 1661 H 162.557 -0.901279 2.90018 0
M  V30 1662 H 160.142 -0.380185 1.44482 0
M  V30 1663 H 162.024 -3.33292 2.57865 0
M  V30 1664 H 160.699 -2.88382 1.4703 0
M  V30 1665 H 159.606 -1.58431 3.38896 0
M  V30 1666 H 160.939 -2.10228 4.45045 0
M  V30 1667 N 162.591 -1.51276 -0.441967 0
M  V30 1668 C 163.554 -1.7167 -1.51862 0
M  V30 1669 C 164.554 -0.586793 -1.49711 0
M  V30 1670 O 165.744 -0.854276 -1.51815 0
M  V30 1671 C 162.876 -1.76889 -2.91416 0
M  V30 1672 H 164.069 -2.67754 -1.35084 0
M  V30 1673 H 161.622 -1.41196 -0.670333 0
M  V30 1674 H 162.357 -0.826026 -3.13604 0
M  V30 1675 H 162.142 -2.59001 -2.94382 0
M  V30 1676 H 163.632 -1.94522 -3.69528 0
M  V30 1677 N 164.069 0.697108 -1.41344 0
M  V30 1678 C 164.999 1.82353 -1.45841 0
M  V30 1679 C 165.98 1.67115 -0.317247 0
M  V30 1680 O 167.165 1.86871 -0.528474 0
M  V30 1681 C 164.295 3.20476 -1.33838 0
M  V30 1682 C 163.249 3.50415 -2.4575 0
M  V30 1683 C 162.575 4.87878 -2.18813 0
M  V30 1684 C 163.875 3.49546 -3.88091 0
M  V30 1685 H 165.569 1.78846 -2.40113 0
M  V30 1686 H 163.115 0.859028 -1.15571 0
M  V30 1687 H 165.068 3.98988 -1.35596 0
M  V30 1688 H 163.792 3.24604 -0.360498 0
M  V30 1689 H 162.451 2.74253 -2.43271 0
M  V30 1690 H 162.099 4.8863 -1.19371 0
M  V30 1691 H 161.799 5.08875 -2.93803 0
M  V30 1692 H 163.323 5.68702 -2.22284 0
M  V30 1693 H 164.737 4.18066 -3.92293 0
M  V30 1694 H 163.134 3.82075 -4.62751 0
M  V30 1695 H 164.204 2.48552 -4.16353 0
M  V30 1696 N 165.547 1.27147 0.931209 0
M  V30 1697 C 166.479 1.05364 2.03546 0
M  V30 1698 C 167.492 0.0108438 1.62796 0
M  V30 1699 O 168.681 0.25202 1.76712 0
M  V30 1700 C 165.781 0.575566 3.33977 0
M  V30 1701 C 164.954 1.68985 4.03439 0
M  V30 1702 C 164.013 1.20813 5.12143 0
M  V30 1703 O 163.039 1.90712 5.363 0
M  V30 1704 N 164.241 0.0618851 5.80467 0
M  V30 1705 H 167.006 2.00454 2.22796 0
M  V30 1706 H 164.567 1.18666 1.10136 0
M  V30 1707 H 166.559 0.237264 4.04004 0
M  V30 1708 H 165.129 -0.282016 3.11325 0
M  V30 1709 H 164.349 2.19861 3.27192 0
M  V30 1710 H 165.637 2.4378 4.46597 0
M  V30 1711 H 165.035 -0.521621 5.6329 0
M  V30 1712 H 163.592 -0.217264 6.51438 0
M  V30 1713 N 167.025 -1.13721 1.09112 0
M  V30 1714 C 167.988 -2.17222 0.731241 0
M  V30 1715 C 168.988 -1.59035 -0.237566 0
M  V30 1716 O 170.178 -1.74192 -0.0161704 0
M  V30 1717 C 167.31 -3.40804 0.0808443 0
M  V30 1718 H 168.503 -2.50573 1.64783 0
M  V30 1719 H 166.056 -1.28493 0.889897 0
M  V30 1720 H 166.791 -3.1304 -0.847127 0
M  V30 1721 H 166.576 -3.84306 0.777896 0
M  V30 1722 H 168.066 -4.1731 -0.155657 0
M  V30 1723 N 168.503 -0.877838 -1.30888 0
M  V30 1724 C 169.75 -0.492696 -1.96415 0
M  V30 1725 C 170.078 0.956671 -1.69346 0
M  V30 1726 O 169.333 1.68993 -0.986913 0
M  V30 1727 C 169.632 -0.705748 -3.50363 0
M  V30 1728 C 169.298 -2.1291 -3.97467 0
M  V30 1729 C 167.96 -2.51834 -4.1004 0
M  V30 1730 C 170.312 -3.05702 -4.22132 0
M  V30 1731 C 167.64 -3.82775 -4.44635 0
M  V30 1732 C 169.992 -4.36166 -4.58194 0
M  V30 1733 C 168.656 -4.74993 -4.68975 0
M  V30 1734 H 167.926 -0.18029 -0.718733 0
M  V30 1735 H 170.573 -1.11233 -1.55883 0
M  V30 1736 H 168.878 -0.00303058 -3.918 0
M  V30 1737 H 170.575 -0.387456 -3.99124 0
M  V30 1738 H 167.165 -1.81694 -3.88182 0
M  V30 1739 H 171.349 -2.76853 -4.11906 0
M  V30 1740 H 166.605 -4.12609 -4.51181 0
M  V30 1741 H 170.779 -5.08111 -4.76231 0
M  V30 1742 H 168.406 -5.76495 -4.95537 0
M  V30 1743 N 169.982 1.44106 -0.638065 0
M  V30 1744 C 171.228 2.02815 -0.15409 0
M  V30 1745 C 171.583 1.49342 1.21304 0
M  V30 1746 O 170.876 0.670699 1.79478 0
M  V30 1747 C 171.07 3.5729 -0.0887327 0
M  V30 1748 C 170.899 4.2575 -1.44799 0
M  V30 1749 C 169.669 4.62443 -2.03653 0
M  V30 1750 C 171.867 4.55746 -2.38327 0
M  V30 1751 N 169.849 5.15903 -3.32741 0
M  V30 1752 C 171.22 5.10364 -3.52036 0
M  V30 1753 C 173.275 4.37703 -2.3732 0
M  V30 1754 C 171.978 5.48837 -4.64941 0
M  V30 1755 C 174.004 4.77229 -3.49294 0
M  V30 1756 C 173.366 5.31966 -4.61726 0
M  V30 1757 H 169.465 0.775519 -0.100466 0
M  V30 1758 H 172.049 1.755 -0.843071 0
M  V30 1759 H 170.22 3.84201 0.569548 0
M  V30 1760 H 171.952 4.02671 0.404711 0
M  V30 1761 H 168.707 4.46987 -1.56523 0
M  V30 1762 H 169.131 5.47102 -3.98758 0
M  V30 1763 H 173.773 3.94671 -1.51641 0
M  V30 1764 H 171.491 5.9082 -5.51323 0
M  V30 1765 H 175.077 4.64976 -3.49698 0
M  V30 1766 H 173.957 5.61986 -5.46939 0
M  V30 1767 N 171.46 0.379036 1.52974 0
M  V30 1768 C 172.392 -0.495963 2.2377 0
M  V30 1769 C 173.405 -1.03517 1.25651 0
M  V30 1770 O 174.594 -0.939249 1.51791 0
M  V30 1771 C 171.694 -1.69894 2.93239 0
M  V30 1772 C 170.867 -1.2889 4.17979 0
M  V30 1773 C 169.926 -2.35543 4.70538 0
M  V30 1774 O 168.952 -1.97375 5.33883 0
M  V30 1775 N 170.154 -3.67318 4.49508 0
M  V30 1776 H 172.919 0.110523 2.99496 0
M  V30 1777 H 170.48 0.204878 1.60598 0
M  V30 1778 H 172.472 -2.40747 3.25304 0
M  V30 1779 H 171.042 -2.212 2.20883 0
M  V30 1780 H 170.262 -0.409676 3.92065 0
M  V30 1781 H 171.55 -0.991443 4.99047 0
M  V30 1782 H 170.948 -4.01095 3.98923 0
M  V30 1783 H 169.505 -4.34235 4.8609 0
M  V30 1784 N 172.938 -1.57226 0.108567 0
M  V30 1785 C 173.901 -2.13602 -0.831082 0
M  V30 1786 C 174.901 -1.06841 -1.20173 0
M  V30 1787 O 176.091 -1.32666 -1.12895 0
M  V30 1788 C 173.223 -2.66769 -2.12243 0
M  V30 1789 H 174.416 -2.97951 -0.341317 0
M  V30 1790 H 171.969 -1.55667 -0.14057 0
M  V30 1791 H 172.704 -1.85977 -2.65675 0
M  V30 1792 H 172.489 -3.44839 -1.86625 0
M  V30 1793 H 173.979 -3.10332 -2.79435 0
M  V30 1794 N 174.416 0.165178 -1.56732 0
M  V30 1795 C 175.348 1.22911 -1.93457 0
M  V30 1796 C 176.361 1.40152 -0.828333 0
M  V30 1797 O 177.55 1.40046 -1.10677 0
M  V30 1798 C 174.65 2.59686 -2.17753 0
M  V30 1799 C 173.823 2.63663 -3.48999 0
M  V30 1800 C 172.882 3.81845 -3.62051 0
M  V30 1801 O 171.908 3.67559 -4.34613 0
M  V30 1802 N 173.11 4.98557 -2.97357 0
M  V30 1803 H 175.875 0.917118 -2.85323 0
M  V30 1804 H 173.436 0.354895 -1.57962 0
M  V30 1805 H 175.428 3.37225 -2.23743 0
M  V30 1806 H 173.998 2.83251 -1.32242 0
M  V30 1807 H 173.218 1.72173 -3.54612 0
M  V30 1808 H 174.506 2.63336 -4.35352 0
M  V30 1809 H 173.904 5.13065 -2.38287 0
M  V30 1810 H 172.461 5.73936 -3.08934 0
M  V30 1811 N 175.894 1.51508 0.433938 0
M  V30 1812 C 177.122 1.68157 1.20543 0
M  V30 1813 C 177.537 0.380362 1.84929 0
M  V30 1814 O 176.894 -0.641446 1.70856 0
M  V30 1815 C 176.945 2.79965 2.28696 0
M  V30 1816 O 176.666 4.05045 1.66943 0
M  V30 1817 C 178.167 3.07912 3.18912 0
M  V30 1818 H 175.387 0.56421 0.363191 0
M  V30 1819 H 177.931 1.97941 0.513754 0
M  V30 1820 H 176.086 2.5277 2.93574 0
M  V30 1821 H 176.5 4.67165 2.38448 0
M  V30 1822 H 177.974 3.89719 3.90926 0
M  V30 1823 H 178.451 2.20456 3.79863 0
M  V30 1824 H 179.057 3.36779 2.59731 0
M  V30 1825 N 177.372 -0.689602 1.41712 0
M  V30 1826 C 178.783 -1.26973 1.36875 0
M  V30 1827 C 179.134 -1.96124 0.054748 0
M  V30 1828 O 178.259 -1.99141 -0.84687 0
M  V30 1829 C 178.854 -2.30912 2.47922 0
M  V30 1830 C 177.413 -2.84486 2.46464 0
M  V30 1831 C 176.56 -1.58603 2.27465 0
M  V30 1832 H 179.511 -0.48396 1.51141 0
M  V30 1833 H 179.532 -3.12331 2.17323 0
M  V30 1834 H 179.044 -1.80554 3.43543 0
M  V30 1835 H 177.145 -3.39005 1.54617 0
M  V30 1836 H 177.258 -3.34511 3.42986 0
M  V30 1837 H 175.622 -1.84632 1.75451 0
M  V30 1838 H 176.405 -1.10233 3.25121 0
M  V30 1839 N 178.85 -1.27639 -0.924453 0
M  V30 1840 C 179.813 -1.10681 -2.00705 0
M  V30 1841 C 180.813 -0.0497823 -1.60723 0
M  V30 1842 O 182.003 -0.294654 -1.7169 0
M  V30 1843 C 179.135 -0.687164 -3.33902 0
M  V30 1844 H 180.328 -2.06817 -2.17179 0
M  V30 1845 H 177.881 -1.10473 -1.10569 0
M  V30 1846 H 178.616 0.275439 -3.23128 0
M  V30 1847 H 178.401 -1.45061 -3.6428 0
M  V30 1848 H 179.891 -0.590853 -4.13399 0
M  V30 1849 N 180.328 1.1314 -1.09713 0
M  V30 1850 C 181.574 1.84757 -0.836224 0
M  V30 1851 C 181.907 1.8347 0.636598 0
M  V30 1852 O 181.182 1.27491 1.46889 0
M  V30 1853 C 181.465 3.32782 -1.37578 0
M  V30 1854 C 181.318 3.42567 -2.91493 0
M  V30 1855 C 182.637 4.28307 -1.01198 0
M  V30 1856 H 179.756 0.67082 -0.305236 0
M  V30 1857 H 182.398 1.3278 -1.35903 0
M  V30 1858 H 180.548 3.77177 -0.931097 0
M  V30 1859 H 182.22 3.06862 -3.44432 0
M  V30 1860 H 180.463 2.83349 -3.28475 0
M  V30 1861 H 181.134 4.46674 -3.24324 0
M  V30 1862 H 183.61 3.91999 -1.39556 0
M  V30 1863 H 182.486 5.30307 -1.41653 0
M  V30 1864 H 182.747 4.42029 0.0794833 0
M  V30 1865 N 181.806 0.884767 1.30421 0
M  V30 1866 C 183.222 0.57874 1.48737 0
M  V30 1867 C 183.422 -0.883567 1.81095 0
M  V30 1868 O 182.478 -1.6648 1.89844 0
M  V30 1869 C 183.791 1.49171 2.61091 0
M  V30 1870 C 185.339 1.49532 2.74971 0
M  V30 1871 C 185.814 2.39421 3.90438 0
M  V30 1872 N 187.305 2.37383 3.97748 0
M  V30 1873 C 188.04 3.03647 4.86401 0
M  V30 1874 N 187.536 3.79136 5.79852 0
M  V30 1875 N 189.329 2.9288 4.79768 0
M  V30 1876 H 181.48 1.83075 1.0769 0
M  V30 1877 H 183.743 0.783637 0.533495 0
M  V30 1878 H 183.449 2.53291 2.44001 0
M  V30 1879 H 183.323 1.20113 3.57565 0
M  V30 1880 H 185.71 0.46163 2.91467 0
M  V30 1881 H 185.791 1.8262 1.79119 0
M  V30 1882 H 185.435 3.42874 3.74699 0
M  V30 1883 H 185.365 2.03649 4.85628 0
M  V30 1884 H 187.856 1.82525 3.30897 0
M  V30 1885 H 188.169 4.26789 6.4426 0
M  V30 1886 H 186.514 3.83243 5.79784 0
M  V30 1887 H 189.705 2.33433 4.05742 0
M  V30 1888 H 189.878 3.448 5.4865 0
M  V30 1889 N 183.284 -1.43765 0.645699 0
M  V30 1890 C 184.216 -2.29027 -0.0890605 0
M  V30 1891 C 185.229 -1.42093 -0.794563 0
M  V30 1892 O 186.418 -1.66104 -0.653575 0
M  V30 1893 C 183.518 -3.18831 -1.14891 0
M  V30 1894 C 182.691 -4.34261 -0.523043 0
M  V30 1895 C 181.75 -5.04994 -1.47878 0
M  V30 1896 O 180.776 -5.6052 -0.990277 0
M  V30 1897 N 181.978 -5.07795 -2.81291 0
M  V30 1898 H 184.743 -2.92727 0.64272 0
M  V30 1899 H 182.304 -1.54373 0.487924 0
M  V30 1900 H 184.296 -3.63015 -1.78892 0
M  V30 1901 H 182.866 -2.56782 -1.78275 0
M  V30 1902 H 182.086 -3.93088 0.295896 0
M  V30 1903 H 183.374 -5.08728 -0.0858147 0
M  V30 1904 H 182.772 -4.64042 -3.23546 0
M  V30 1905 H 181.329 -5.55721 -3.40614 0
M  V30 1906 N 184.763 -0.387143 -1.52771 0
M  V30 1907 C 185.693 0.440551 -2.29306 0
M  V30 1908 C 186.674 1.06535 -1.32606 0
M  V30 1909 O 187.859 1.07853 -1.61497 0
M  V30 1910 C 184.989 1.56919 -3.09829 0
M  V30 1911 C 183.943 1.07054 -4.14395 0
M  V30 1912 C 183.269 2.29109 -4.83129 0
M  V30 1913 C 184.569 0.140015 -5.22112 0
M  V30 1914 H 186.263 -0.198026 -2.98744 0
M  V30 1915 H 183.809 -0.09668 -1.43675 0
M  V30 1916 H 185.762 2.15503 -3.62128 0
M  V30 1917 H 184.486 2.23532 -2.3812 0
M  V30 1918 H 183.145 0.507247 -3.63074 0
M  V30 1919 H 182.793 2.94227 -4.0797 0
M  V30 1920 H 182.493 1.96406 -5.53804 0
M  V30 1921 H 184.017 2.88339 -5.38231 0
M  V30 1922 H 185.431 0.633978 -5.69784 0
M  V30 1923 H 183.828 -0.0971485 -6.00021 0
M  V30 1924 H 184.898 -0.811711 -4.78058 0
M  V30 1925 N 186.241 1.57166 -0.116904 0
M  V30 1926 C 187.171 2.18222 0.830759 0
M  V30 1927 C 188.152 1.12167 1.27877 0
M  V30 1928 O 189.337 1.40394 1.34176 0
M  V30 1929 C 186.467 2.77996 2.08172 0
M  V30 1930 C 185.421 3.89614 1.77157 0
M  V30 1931 C 184.747 4.36187 3.09265 0
M  V30 1932 C 186.047 5.1181 1.04151 0
M  V30 1933 H 187.741 2.97664 0.321992 0
M  V30 1934 H 185.287 1.4318 0.153434 0
M  V30 1935 H 187.24 3.19366 2.74924 0
M  V30 1936 H 185.964 1.9584 2.6137 0
M  V30 1937 H 184.623 3.48816 1.12796 0
M  V30 1938 H 184.271 3.50893 3.60393 0
M  V30 1939 H 183.971 5.11455 2.89288 0
M  V30 1940 H 185.495 4.80207 3.77139 0
M  V30 1941 H 186.909 5.50214 1.61052 0
M  V30 1942 H 185.306 5.92648 0.942762 0
M  V30 1943 H 186.376 4.84892 0.0279022 0
M  V30 1944 N 187.719 -0.156864 1.56817 0
M  V30 1945 C 188.629 -1.2136 2.00771 0
M  V30 1946 C 189.645 -1.47598 0.921459 0
M  V30 1947 O 190.821 -1.59462 1.2302 0
M  V30 1948 C 187.886 -2.52943 2.37109 0
M  V30 1949 C 186.947 -2.34439 3.59634 0
M  V30 1950 C 186.18 -3.59748 3.94229 0
M  V30 1951 O 186.403 -4.65526 3.29609 0
M  V30 1952 O 185.337 -3.52998 4.8752 0
M  V30 1953 H 189.163 -0.870468 2.90958 0
M  V30 1954 H 186.748 -0.36484 1.44877 0
M  V30 1955 H 188.63 -3.30538 2.61386 0
M  V30 1956 H 187.305 -2.86806 1.5008 0
M  V30 1957 H 186.212 -1.54828 3.40557 0
M  V30 1958 H 187.545 -2.05496 4.4725 0
M  V30 1959 N 189.197 -1.51736 -0.425897 0
M  V30 1960 C 190.445 -1.64644 -1.17204 0
M  V30 1961 C 190.766 -0.370486 -1.91448 0
M  V30 1962 O 190.036 0.614088 -1.86026 0
M  V30 1963 H 188.616 -0.606819 -0.435638 0
M  V30 1964 H 191.278 -1.88713 -0.487177 0
M  V30 1965 H 190.374 -2.47958 -1.89534 0
M  V30 1966 N 190.675 0.682077 -1.42076 0
M  V30 1967 C 191.905 1.46844 -1.45329 0
M  V30 1968 C 192.313 1.89102 -0.0609328 0
M  V30 1969 O 191.656 1.58238 0.933082 0
M  V30 1970 C 191.718 2.75375 -2.31104 0
M  V30 1971 C 191.382 2.55238 -3.79081 0
M  V30 1972 C 192.379 2.20309 -4.70914 0
M  V30 1973 C 190.064 2.70459 -4.2327 0
M  V30 1974 C 192.058 2.00859 -6.04925 0
M  V30 1975 C 189.745 2.50624 -5.57343 0
M  V30 1976 C 190.743 2.15876 -6.47986 0
M  V30 1977 O 190.431 1.96227 -7.79583 0
M  V30 1978 H 190.163 0.4586 -0.496651 0
M  V30 1979 H 192.717 0.846131 -1.87162 0
M  V30 1980 H 190.947 3.40061 -1.84107 0
M  V30 1981 H 192.636 3.37231 -2.25898 0
M  V30 1982 H 193.402 2.08153 -4.38061 0
M  V30 1983 H 189.281 2.96485 -3.53012 0
M  V30 1984 H 192.825 1.7366 -6.75639 0
M  V30 1985 H 188.722 2.62375 -5.89771 0
M  V30 1986 H 189.49 2.10883 -7.90867 0
M  V30 1987 N 192.153 1.28127 0.917671 0
M  V30 1988 C 193.116 1.11744 2.00115 0
M  V30 1989 C 194.116 0.0583052 1.60694 0
M  V30 1990 O 195.306 0.303755 1.71531 0
M  V30 1991 C 192.438 0.704862 3.33533 0
M  V30 1992 H 193.631 2.07966 2.16079 0
M  V30 1993 H 191.184 1.11058 1.09981 0
M  V30 1994 H 191.919 -0.258299 3.2327 0
M  V30 1995 H 191.704 1.4699 3.63505 0
M  V30 1996 H 193.194 0.612768 4.1308 0
M  V30 1997 N 193.631 -1.12557 1.10312 0
M  V30 1998 C 194.594 -2.16434 0.75424 0
M  V30 1999 C 195.594 -1.59278 -0.220685 0
M  V30 2000 O 196.784 -1.742 0.00230591 0
M  V30 2001 C 193.916 -3.40699 0.116987 0
M  V30 2002 H 195.109 -2.48811 1.67431 0
M  V30 2003 H 192.662 -1.27542 0.903475 0
M  V30 2004 H 193.397 -3.13921 -0.813877 0
M  V30 2005 H 193.182 -3.83459 0.818613 0
M  V30 2006 H 194.672 -4.17451 -0.111387 0
M  V30 2007 N 195.109 -0.891671 -1.2995 0
M  V30 2008 C 196.357 -0.512486 -1.95494 0
M  V30 2009 C 196.678 0.942776 -1.70695 0
M  V30 2010 O 195.948 1.66374 -1.03424 0
M  V30 2011 H 194.528 -0.186533 -0.723336 0
M  V30 2012 H 197.19 -1.13621 -1.58355 0
M  V30 2013 H 196.286 -0.688342 -3.04415 0
M  V30 2014 N 196.587 1.43421 -0.653314 0
M  V30 2015 C 197.834 2.01812 -0.166745 0
M  V30 2016 C 198.162 1.51535 1.21931 0
M  V30 2017 O 197.417 0.698975 1.82792 0
M  V30 2018 C 197.716 3.57176 -0.126623 0
M  V30 2019 C 197.382 4.26798 -1.45444 0
M  V30 2020 C 196.044 4.45534 -1.81805 0
M  V30 2021 C 198.396 4.66225 -2.32989 0
M  V30 2022 C 195.724 5.00961 -3.05377 0
M  V30 2023 C 198.076 5.23021 -3.55853 0
M  V30 2024 C 196.74 5.39973 -3.9241 0
M  V30 2025 H 196.01 0.738484 -0.0610162 0
M  V30 2026 H 198.657 1.71896 -0.84404 0
M  V30 2027 H 196.962 3.86634 0.634123 0
M  V30 2028 H 198.659 4.00112 0.266723 0
M  V30 2029 H 195.249 4.12561 -1.16153 0
M  V30 2030 H 199.433 4.51443 -2.06187 0
M  V30 2031 H 194.689 5.12271 -3.3375 0
M  V30 2032 H 198.863 5.52518 -4.23907 0
M  V30 2033 H 196.49 5.82687 -4.88242 0
M  V30 2034 N 198.065 0.39524 1.52563 0
M  V30 2035 C 199.013 -0.451859 2.28169 0
M  V30 2036 C 200.007 -1.05792 1.32304 0
M  V30 2037 O 201.213 -0.997718 1.49818 0
M  V30 2038 H 197.588 -0.164481 0.733792 0
M  V30 2039 H 199.559 0.207199 2.9768 0
M  V30 2040 C 198.308 -1.56385 3.10546 0
M  V30 2041 H 197.631 -1.10682 3.84174 0
M  V30 2042 H 199.071 -2.13067 3.66577 0
M  V30 2043 C 197.53 -2.52328 2.23231 0
M  V30 2044 O 198.06 -3.5588 1.86312 0
M  V30 2045 N 196.266 -2.22209 1.87274 0
M  V30 2046 H 195.813 -1.38033 2.17496 0
M  V30 2047 H 195.771 -2.86652 1.29143 0
M  V30 2048 N 199.544 -1.57102 0.125237 0
M  V30 2049 C 200.96 -1.57915 -0.231322 0
M  V30 2050 C 201.16 -1.13833 -1.66266 0
M  V30 2051 O 200.216 -0.828581 -2.38518 0
M  V30 2052 C 201.529 -3.00699 0.00766489 0
M  V30 2053 C 203.077 -3.12947 -0.0577483 0
M  V30 2054 C 203.552 -4.57742 0.153626 0
M  V30 2055 N 205.043 -4.63092 0.0998073 0
M  V30 2056 C 205.778 -5.72905 0.238174 0
M  V30 2057 N 205.274 -6.91445 0.433057 0
M  V30 2058 N 207.067 -5.6182 0.177308 0
M  V30 2059 H 199.218 -1.84055 1.06007 0
M  V30 2060 H 201.481 -0.850905 0.417929 0
M  V30 2061 H 201.187 -3.3726 0.997431 0
M  V30 2062 H 201.061 -3.70236 -0.721452 0
M  V30 2063 H 203.448 -2.7624 -1.03804 0
M  V30 2064 H 203.529 -2.4594 0.70335 0
M  V30 2065 H 203.173 -4.95149 1.13092 0
M  V30 2066 H 203.103 -5.22848 -0.627534 0
M  V30 2067 H 205.594 -3.77871 -0.047051 0
M  V30 2068 H 205.907 -7.70985 0.529332 0
M  V30 2069 H 204.252 -6.93415 0.469109 0
M  V30 2070 H 207.443 -4.68093 0.0259748 0
M  V30 2071 H 207.616 -6.47357 0.288582 0
M  V30 2072 N 201.022 0.148545 -1.56898 0
M  V30 2073 C 202.269 0.861418 -1.83264 0
M  V30 2074 C 202.597 1.81239 -0.705883 0
M  V30 2075 O 201.852 1.93305 0.305212 0
M  V30 2076 C 202.151 1.67064 -3.1595 0
M  V30 2077 C 201.817 0.866591 -4.42494 0
M  V30 2078 C 200.479 0.644762 -4.76861 0
M  V30 2079 C 202.831 0.30418 -5.20312 0
M  V30 2080 C 200.159 -0.15021 -5.86508 0
M  V30 2081 C 202.511 -0.477824 -6.30793 0
M  V30 2082 C 201.175 -0.710244 -6.63711 0
M  V30 2083 H 200.445 0.315215 -0.670612 0
M  V30 2084 H 203.092 0.125142 -1.91091 0
M  V30 2085 H 201.397 2.47698 -3.03567 0
M  V30 2086 H 203.094 2.22566 -3.33565 0
M  V30 2087 H 199.684 1.04955 -4.15551 0
M  V30 2088 H 203.868 0.462844 -4.94137 0
M  V30 2089 H 199.124 -0.339796 -6.10455 0
M  V30 2090 H 203.298 -0.92076 -6.90286 0
M  V30 2091 H 200.925 -1.3281 -7.48509 0
M  V30 2092 N 202.5 1.5196 0.417844 0
M  V30 2093 C 203.43 1.77634 1.51554 0
M  V30 2094 C 204.411 0.626918 1.58126 0
M  V30 2095 O 205.596 0.871632 1.7354 0
M  V30 2096 C 202.726 1.91911 2.8946 0
M  V30 2097 C 201.68 3.07463 2.97743 0
M  V30 2098 C 201.006 3.06951 4.37819 0
M  V30 2099 C 202.306 4.47082 2.70027 0
M  V30 2100 H 204 2.6955 1.3032 0
M  V30 2101 H 201.546 1.29706 0.625492 0
M  V30 2102 H 203.499 2.08455 3.6623 0
M  V30 2103 H 202.223 0.966598 3.11969 0
M  V30 2104 H 200.882 2.90656 2.23416 0
M  V30 2105 H 200.53 2.09438 4.57323 0
M  V30 2106 H 200.23 3.84556 4.44286 0
M  V30 2107 H 201.754 3.25613 5.16535 0
M  V30 2108 H 203.168 4.6414 3.36522 0
M  V30 2109 H 201.565 5.2654 2.87881 0
M  V30 2110 H 202.635 4.55777 1.65514 0
M  V30 2111 N 203.978 -0.674533 1.42435 0
M  V30 2112 C 205.394 -0.98769 1.25367 0
M  V30 2113 C 205.594 -2.00879 0.158044 0
M  V30 2114 O 204.65 -2.48075 -0.470633 0
M  V30 2115 C 205.963 -1.49224 2.6106 0
M  V30 2116 C 207.511 -1.61 2.68417 0
M  V30 2117 C 207.986 -2.14852 4.04478 0
M  V30 2118 N 209.477 -2.22185 4.06434 0
M  V30 2119 C 210.212 -2.64928 5.08528 0
M  V30 2120 N 209.708 -3.07121 6.21006 0
M  V30 2121 N 211.501 -2.64679 4.95885 0
M  V30 2122 H 203.652 0.00152503 2.124 0
M  V30 2123 H 205.915 -0.0618434 0.945981 0
M  V30 2124 H 205.621 -0.816453 3.42092 0
M  V30 2125 H 205.495 -2.47094 2.84999 0
M  V30 2126 H 207.882 -2.27686 1.87732 0
M  V30 2127 H 207.963 -0.616195 2.48267 0
M  V30 2128 H 207.607 -1.48775 4.85622 0
M  V30 2129 H 207.537 -3.15024 4.2198 0
M  V30 2130 H 210.028 -1.92435 3.25234 0
M  V30 2131 H 210.341 -3.38423 6.94759 0
M  V30 2132 H 208.686 -3.04978 6.24511 0
M  V30 2133 H 211.877 -2.31078 4.07088 0
M  V30 2134 H 212.05 -2.9767 5.75584 0
M  V30 2135 N 205.456 -1.28612 -0.910864 0
M  V30 2136 C 206.366 -1.14643 -2.0468 0
M  V30 2137 C 207.382 -0.0723121 -1.7385 0
M  V30 2138 O 208.558 -0.282178 -1.99413 0
M  V30 2139 C 205.623 -0.812561 -3.37044 0
M  V30 2140 C 204.684 -1.96935 -3.81465 0
M  V30 2141 C 203.917 -1.65131 -5.07511 0
M  V30 2142 O 204.14 -0.567013 -5.67575 0
M  V30 2143 O 203.074 -2.49585 -5.47714 0
M  V30 2144 H 206.9 -2.1001 -2.19384 0
M  V30 2145 H 204.485 -1.07958 -1.03274 0
M  V30 2146 H 206.367 -0.640441 -4.16505 0
M  V30 2147 H 205.042 0.111426 -3.23508 0
M  V30 2148 H 203.949 -2.19664 -3.02818 0
M  V30 2149 H 205.282 -2.87414 -3.99567 0
M  V30 2150 N 206.934 1.1197 -1.10907 0
M  V30 2151 C 207.897 2.16031 -0.765707 0
M  V30 2152 C 208.897 1.59393 0.212235 0
M  V30 2153 O 210.087 1.74196 -0.0115441 0
M  V30 2154 C 207.219 3.40632 -0.135053 0
M  V30 2155 H 208.412 2.47919 -1.68748 0
M  V30 2156 H 205.965 1.27061 -0.910226 0
M  V30 2157 H 206.7 3.14348 0.797218 0
M  V30 2158 H 206.485 3.8302 -0.838937 0
M  V30 2159 H 207.975 4.17505 0.0892469 0
M  V30 2160 N 208.412 0.89855 1.29475 0
M  V30 2161 C 209.689 0.443416 1.90508 0
M  V30 2162 C 210.069 -1.07685 1.81569 0
M  V30 2163 O 209.417 -1.9182 1.24166 0
M  V30 2164 C 209.627 0.956708 3.35631 0
M  V30 2165 C 210.975 0.999728 4.12663 0
M  V30 2166 O 211.999 0.904299 3.4453 0
M  V30 2167 O 210.858 1.14289 5.34416 0
M  V30 2168 H 207.952 0.138025 0.815401 0
M  V30 2169 H 210.498 0.98834 1.37949 0
M  V30 2170 H 209.27 2.00067 3.36287 0
M  V30 2171 H 208.893 0.391728 3.95666 0
M  V30 2172 N 209.89 -1.43072 0.660911 0
M  V30 2173 C 211.138 -2.01323 0.177094 0
M  V30 2174 C 211.459 -1.5245 -1.2159 0
M  V30 2175 O 210.729 -0.740322 -1.81373 0
M  V30 2176 H 209.309 -0.744382 0.0624804 0
M  V30 2177 H 211.971 -1.75179 0.854305 0
M  V30 2178 H 211.067 -3.11649 0.167641 0
M  V30 2179 N 211.368 -0.403325 -1.52352 0
M  V30 2180 C 212.315 0.425011 -2.26853 0
M  V30 2181 C 213.285 1.04598 -1.29029 0
M  V30 2182 O 214.47 1.07135 -1.57882 0
M  V30 2183 C 211.61 1.53888 -3.08889 0
M  V30 2184 C 210.723 0.939396 -4.21663 0
M  V30 2185 C 209.858 2.02547 -4.91068 0
M  V30 2186 C 208.897 1.40263 -5.95813 0
M  V30 2187 N 208.034 2.4286 -6.58759 0
M  V30 2188 H 212.874 -0.21674 -2.97211 0
M  V30 2189 H 210.411 -0.118722 -1.4662 0
M  V30 2190 H 212.369 2.19558 -3.54753 0
M  V30 2191 H 210.999 2.15074 -2.40714 0
M  V30 2192 H 210.051 0.171898 -3.80011 0
M  V30 2193 H 211.363 0.44436 -4.96817 0
M  V30 2194 H 210.517 2.75958 -5.40308 0
M  V30 2195 H 209.256 2.55415 -4.15469 0
M  V30 2196 H 208.261 0.653833 -5.45898 0
M  V30 2197 H 209.486 0.881719 -6.73352 0
M  V30 2198 H 207.432 2.94871 -5.85992 0
M  V30 2199 H 207.349 1.98152 -7.2957 0
M  V30 2200 H 208.617 3.15858 -7.12639 0
M  V30 2201 N 212.846 1.57033 -0.133567 0
M  V30 2202 C 214.074 2.00044 0.528195 0
M  V30 2203 C 214.489 1.01349 1.59291 0
M  V30 2204 O 213.846 0.00848369 1.82498 0
M  V30 2205 C 213.897 3.43018 1.1411 0
M  V30 2206 O 213.618 4.37939 0.11892 0
M  V30 2207 C 215.119 4.01237 1.88477 0
M  V30 2208 H 212.339 0.656517 0.138661 0
M  V30 2209 H 214.883 2.03267 -0.224196 0
M  V30 2210 H 213.038 3.40688 1.84418 0
M  V30 2211 H 213.452 5.21436 0.56613 0
M  V30 2212 H 214.926 5.03314 2.26669 0
M  V30 2213 H 215.403 3.41193 2.76558 0
M  V30 2214 H 216.009 4.07156 1.22898 0
M  V30 2215 N 214.325 -0.140222 1.56975 0
M  V30 2216 C 215.553 -0.866437 1.87884 0
M  V30 2217 C 215.968 -1.74428 0.722517 0
M  V30 2218 O 215.325 -1.79891 -0.30749 0
M  V30 2219 C 215.376 -1.71753 3.18093 0
M  V30 2220 O 215.097 -0.875056 4.29272 0
M  V30 2221 C 216.598 -2.55074 3.62563 0
M  V30 2222 H 213.818 -0.25019 0.622612 0
M  V30 2223 H 216.362 -0.130977 2.0408 0
M  V30 2224 H 214.517 -2.40598 3.03631 0
M  V30 2225 H 214.931 -1.46002 5.03769 0
M  V30 2226 H 216.405 -3.10356 4.5649 0
M  V30 2227 H 216.882 -3.31434 2.88181 0
M  V30 2228 H 217.488 -1.91509 3.79743 0
M  V30 2229 N 215.803 -1.52179 -0.40978 0
M  V30 2230 C 217.028 -1.70347 -1.18308 0
M  V30 2231 C 217.453 -0.411887 -1.83535 0
M  V30 2232 O 216.811 0.630587 -1.6998 0
M  V30 2233 C 216.859 -2.83977 -2.22238 0
M  V30 2234 O 215.963 -2.495 -3.28365 0
M  V30 2235 H 215.304 -0.567103 -0.345384 0
M  V30 2236 H 217.834 -1.98879 -0.480445 0
M  V30 2237 H 217.844 -3.0887 -2.66577 0
M  V30 2238 H 216.519 -3.77685 -1.74146 0
M  V30 2239 H 215.096 -2.35277 -2.89308 0
M  V30 2240 N 217.281 0.66697 -1.42791 0
M  V30 2241 C 218.521 1.43892 -1.4517 0
M  V30 2242 C 218.885 1.91877 -0.0687551 0
M  V30 2243 O 220.086 2.6878 0.0327455 0
M  V30 2244 C 218.357 2.59839 -2.45395 0
M  V30 2245 S 219.916 3.48572 -2.66539 0
M  V30 2246 H 216.734 0.491356 -0.513897 0
M  V30 2247 H 219.336 0.775656 -1.79454 0
M  V30 2248 H 218.04 2.22838 -3.44632 0
M  V30 2249 H 217.571 3.3103 -2.12562 0
M  V30 2250 H 219.586 4.56094 -1.95429 0
M  V30 2251 N 218.759 1.29093 0.90403 0
M  V30 2252 C 219.689 1.16401 2.02418 0
M  V30 2253 C 220.67 0.0593085 1.69997 0
M  V30 2254 O 221.855 0.238021 1.92736 0
M  V30 2255 C 218.985 0.835233 3.37107 0
M  V30 2256 C 217.939 1.89578 3.83724 0
M  V30 2257 C 217.265 1.42041 5.15489 0
M  V30 2258 C 218.565 3.30394 4.04521 0
M  V30 2259 H 220.259 2.10109 2.13295 0
M  V30 2260 H 217.805 1.01157 1.02486 0
M  V30 2261 H 219.758 0.733169 4.14973 0
M  V30 2262 H 218.482 -0.137543 3.2631 0
M  V30 2263 H 217.141 1.98715 3.08071 0
M  V30 2264 H 216.789 0.436426 5.01103 0
M  V30 2265 H 216.489 2.12964 5.4765 0
M  V30 2266 H 218.013 1.33176 5.959 0
M  V30 2267 H 219.427 3.24123 4.72882 0
M  V30 2268 H 217.824 3.99237 4.48029 0
M  V30 2269 H 218.894 3.73692 3.09002 0
M  V30 2270 N 220.237 -1.11381 1.11499 0
M  V30 2271 C 221.485 -1.8277 0.862524 0
M  V30 2272 C 221.806 -1.85097 -0.613534 0
M  V30 2273 O 221.076 -1.32198 -1.4457 0
M  V30 2274 H 219.656 -0.676823 0.316101 0
M  V30 2275 H 222.318 -1.34816 1.4075 0
M  V30 2276 H 221.414 -2.86614 1.23527 0
M  V30 2277 N 221.715 -0.905404 -1.28997 0
M  V30 2278 C 222.647 -0.344748 -2.26592 0
M  V30 2279 C 223.66 0.512135 -1.54535 0
M  V30 2280 O 224.849 0.328368 -1.75454 0
M  V30 2281 C 221.949 0.526587 -3.34784 0
M  V30 2282 C 221.122 -0.305871 -4.36329 0
M  V30 2283 C 220.181 0.499209 -5.23827 0
M  V30 2284 O 219.207 -0.0853004 -5.69136 0
M  V30 2285 N 220.409 1.80408 -5.51755 0
M  V30 2286 H 223.174 -1.18359 -2.75338 0
M  V30 2287 H 220.735 -0.770481 -1.42391 0
M  V30 2288 H 222.727 1.07171 -3.90252 0
M  V30 2289 H 221.297 1.26613 -2.85811 0
M  V30 2290 H 220.517 -1.0324 -3.80441 0
M  V30 2291 H 221.805 -0.875773 -5.01206 0
M  V30 2292 H 221.203 2.3016 -5.16762 0
M  V30 2293 H 219.76 2.29621 -6.10014 0
M  V30 2294 N 223.193 1.4272 -0.668489 0
M  V30 2295 C 224.604 1.84793 -0.266151 0
M  V30 2296 C 224.955 1.55959 1.19043 0
M  V30 2297 O 224.08 1.01622 1.91055 0
M  V30 2298 C 224.675 3.35436 -0.476271 0
M  V30 2299 C 223.234 3.76182 -0.128113 0
M  V30 2300 C 222.381 2.66344 -0.771777 0
M  V30 2301 H 225.332 1.32656 -0.871098 0
M  V30 2302 H 225.353 3.79515 0.273561 0
M  V30 2303 H 224.865 3.5639 -1.53647 0
M  V30 2304 H 222.966 3.60836 0.928891 0
M  V30 2305 H 223.079 4.75766 -0.564231 0
M  V30 2306 H 221.443 2.53885 -0.203652 0
M  V30 2307 H 222.226 2.90123 -1.83531 0
M  V30 2308 N 224.671 0.411399 1.52136 0
M  V30 2309 C 225.917 -0.156262 2.02799 0
M  V30 2310 C 226.272 -1.42613 1.29149 0
M  V30 2311 O 225.565 -1.87592 0.389839 0
M  V30 2312 C 225.759 -0.455872 3.54481 0
M  V30 2313 C 225.588 0.783404 4.42824 0
M  V30 2314 C 224.358 1.30928 4.88043 0
M  V30 2315 C 226.556 1.66217 4.86699 0
M  V30 2316 N 224.538 2.5038 5.6052 0
M  V30 2317 C 225.909 2.70292 5.5798 0
M  V30 2318 C 227.964 1.67966 4.68713 0
M  V30 2319 C 226.667 3.7603 6.13184 0
M  V30 2320 C 228.693 2.72624 5.24815 0
M  V30 2321 C 228.055 3.7542 5.9602 0
M  V30 2322 H 224.154 -0.0186886 0.781777 0
M  V30 2323 H 226.738 0.566255 1.86284 0
M  V30 2324 H 224.909 -1.14743 3.71064 0
M  V30 2325 H 226.641 -1.01261 3.91827 0
M  V30 2326 H 223.396 0.866977 4.65597 0
M  V30 2327 H 223.82 3.10881 6.014 0
M  V30 2328 H 228.462 0.898312 4.13147 0
M  V30 2329 H 226.18 4.55019 6.6782 0
M  V30 2330 H 229.766 2.74887 5.12765 0
M  V30 2331 H 228.646 4.55073 6.38654 0
M  V30 2332 N 226.149 -1.5696 0.141893 0
M  V30 2333 C 227.079 -2.19516 -0.795936 0
M  V30 2334 C 228.06 -1.14187 -1.26077 0
M  V30 2335 O 229.245 -1.42511 -1.31925 0
M  V30 2336 C 226.375 -2.81272 -2.03723 0
M  V30 2337 C 225.329 -3.92384 -1.70936 0
M  V30 2338 C 224.655 -4.41052 -3.02287 0
M  V30 2339 C 225.955 -5.13403 -0.959954 0
M  V30 2340 H 227.649 -2.98138 -0.274596 0
M  V30 2341 H 225.195 -1.43406 -0.130636 0
M  V30 2342 H 227.148 -3.237 -2.69808 0
M  V30 2343 H 225.872 -1.99973 -2.58221 0
M  V30 2344 H 224.531 -3.50566 -1.07232 0
M  V30 2345 H 224.179 -3.56582 -3.54765 0
M  V30 2346 H 223.879 -5.15993 -2.81114 0
M  V30 2347 H 225.403 -4.86146 -3.69451 0
M  V30 2348 H 226.817 -5.52706 -1.52279 0
M  V30 2349 H 225.214 -5.94073 -0.848357 0
M  V30 2350 H 226.284 -4.84875 0.0492434 0
M  V30 2351 N 227.627 0.131896 -1.57047 0
M  V30 2352 C 229.043 0.485031 -1.52051 0
M  V30 2353 C 229.243 1.82563 -0.85281 0
M  V30 2354 O 228.299 2.48817 -0.429694 0
M  V30 2355 C 229.612 0.481409 -2.96821 0
M  V30 2356 C 231.16 0.565868 -3.07842 0
M  V30 2357 C 231.635 0.592762 -4.54148 0
M  V30 2358 N 233.126 0.654564 -4.58552 0
M  V30 2359 C 233.861 0.696608 -5.69153 0
M  V30 2360 N 233.357 0.697078 -6.89284 0
M  V30 2361 N 235.15 0.738639 -5.57226 0
M  V30 2362 H 227.301 -0.746664 -1.98843 0
M  V30 2363 H 229.564 -0.273999 -0.90754 0
M  V30 2364 H 229.27 -0.435731 -3.4899 0
M  V30 2365 H 229.144 1.3139 -3.53577 0
M  V30 2366 H 231.531 1.47343 -2.55684 0
M  V30 2367 H 231.612 -0.29406 -2.54104 0
M  V30 2368 H 231.256 -0.310701 -5.06949 0
M  V30 2369 H 231.186 1.46939 -5.05684 0
M  V30 2370 H 233.677 0.660887 -3.72076 0
M  V30 2371 H 233.99 0.731426 -7.69331 0
M  V30 2372 H 232.335 0.66471 -6.91814 0
M  V30 2373 H 235.526 0.735545 -4.62285 0
M  V30 2374 H 235.699 0.767938 -6.43434 0
M  V30 2375 N 229.106 1.52395 0.401703 0
M  V30 2376 C 230.069 1.75636 1.47257 0
M  V30 2377 C 231.069 0.62628 1.48103 0
M  V30 2378 O 232.259 0.894227 1.49497 0
M  V30 2379 C 229.391 1.84553 2.86624 0
M  V30 2380 H 230.584 2.71241 1.27938 0
M  V30 2381 H 228.137 1.42923 0.632662 0
M  V30 2382 H 228.872 0.908882 3.11303 0
M  V30 2383 H 228.657 2.66715 2.87412 0
M  V30 2384 H 230.147 2.04251 3.64241 0
M  V30 2385 N 230.584 -0.659388 1.43143 0
M  V30 2386 C 231.833 -1.41518 1.43721 0
M  V30 2387 C 232.146 -1.95499 0.0628176 0
M  V30 2388 O 233.352 -2.71446 -0.0539683 0
M  V30 2389 C 231.808 -2.5608 2.52885 0
M  V30 2390 C 231.416 -2.08733 3.96402 0
M  V30 2391 C 233.16 -3.3349 2.62649 0
M  V30 2392 C 231.067 -3.20469 4.97045 0
M  V30 2393 H 229.997 -0.531705 0.534608 0
M  V30 2394 H 232.648 -0.712343 1.69109 0
M  V30 2395 H 231.03 -3.28805 2.20688 0
M  V30 2396 H 232.204 -1.43059 4.3803 0
M  V30 2397 H 230.519 -1.44219 3.90627 0
M  V30 2398 H 233.116 -4.16734 3.35017 0
M  V30 2399 H 233.459 -3.8111 1.67513 0
M  V30 2400 H 233.992 -2.67842 2.94118 0
M  V30 2401 H 230.731 -2.77824 5.93712 0
M  V30 2402 H 230.251 -3.84874 4.60034 0
M  V30 2403 H 231.93 -3.85698 5.19467 0
M  V30 2404 N 232.062 -1.29571 -0.897171 0
M  V30 2405 C 233.025 -1.14913 -1.98312 0
M  V30 2406 C 234.025 -0.0838629 -1.60581 0
M  V30 2407 O 235.215 -0.331006 -1.71026 0
M  V30 2408 C 232.347 -0.757835 -3.3237 0
M  V30 2409 H 233.54 -2.11377 -2.12743 0
M  V30 2410 H 231.093 -1.12793 -1.08201 0
M  V30 2411 H 231.828 0.206837 -3.2364 0
M  V30 2412 H 231.613 -1.52755 -3.61121 0
M  V30 2413 H 233.103 -0.678408 -4.12053 0
M  V30 2414 N 233.54 1.10788 -1.12088 0
M  V30 2415 C 234.768 1.86461 -0.896651 0
M  V30 2416 C 235.183 1.80492 0.553912 0
M  V30 2417 O 234.54 1.19102 1.38278 0
M  V30 2418 C 234.591 3.35006 -1.35843 0
M  V30 2419 O 234.312 3.40866 -2.75213 0
M  V30 2420 C 235.813 4.27565 -1.1706 0
M  V30 2421 H 233.033 0.589425 -0.320654 0
M  V30 2422 H 235.577 1.40076 -1.48993 0
M  V30 2423 H 233.732 3.7887 -0.808458 0
M  V30 2424 H 234.146 4.33411 -2.9539 0
M  V30 2425 H 235.62 5.30007 -1.54263 0
M  V30 2426 H 236.097 4.3906 -0.110814 0
M  V30 2427 H 236.703 3.89501 -1.70789 0
M  V30 2428 N 235.018 0.912232 1.28515 0
M  V30 2429 C 236.295 0.463597 1.90027 0
M  V30 2430 C 236.675 -1.05753 1.82701 0
M  V30 2431 O 236.023 -1.90492 1.26194 0
M  V30 2432 C 236.233 0.992253 3.34597 0
M  V30 2433 C 237.581 1.04344 4.11579 0
M  V30 2434 O 238.605 0.94079 3.43551 0
M  V30 2435 O 237.464 1.1995 5.33174 0
M  V30 2436 H 234.558 0.146666 0.813891 0
M  V30 2437 H 237.104 1.00292 1.36893 0
M  V30 2438 H 235.876 2.03623 3.34146 0
M  V30 2439 H 235.499 0.433672 3.95228 0
M  V30 2440 N 236.496 -1.42363 0.676048 0
M  V30 2441 C 237.773 -1.95183 0.127726 0
M  V30 2442 C 238.153 -1.61641 -1.35777 0
M  V30 2443 O 237.501 -0.913216 -2.09458 0
M  V30 2444 C 237.711 -3.46721 0.398199 0
M  V30 2445 C 239.059 -4.23427 0.315383 0
M  V30 2446 O 240.083 -3.54649 0.332016 0
M  V30 2447 O 238.942 -5.45888 0.25865 0
M  V30 2448 H 236.036 -0.826992 0.00359427 0
M  V30 2449 H 238.582 -1.52184 0.750864 0
M  V30 2450 H 237.354 -3.64344 1.4272 0
M  V30 2451 H 236.977 -3.96769 -0.256885 0
M  V30 2452 N 237.974 -0.419461 -1.51915 0
M  V30 2453 C 238.904 0.391813 -2.30189 0
M  V30 2454 C 239.885 1.03699 -1.34836 0
M  V30 2455 O 241.07 1.04403 -1.63748 0
M  V30 2456 C 238.2 1.50312 -3.13087 0
M  V30 2457 C 237.154 0.9824 -4.16573 0
M  V30 2458 C 236.48 2.18809 -4.8788 0
M  V30 2459 C 237.78 0.0292356 -5.22292 0
M  V30 2460 H 239.474 -0.26135 -2.98257 0
M  V30 2461 H 237.02 -0.127134 -1.43438 0
M  V30 2462 H 238.973 2.07773 -3.66617 0
M  V30 2463 H 237.697 2.18431 -2.42807 0
M  V30 2464 H 236.356 0.430119 -3.64068 0
M  V30 2465 H 236.004 2.85507 -4.14119 0
M  V30 2466 H 235.704 1.84615 -5.57845 0
M  V30 2467 H 237.228 2.76858 -5.44226 0
M  V30 2468 H 238.642 0.512976 -5.71 0
M  V30 2469 H 237.039 -0.2244 -5.9968 0
M  V30 2470 H 238.109 -0.912931 -4.76228 0
M  V30 2471 N 239.452 1.56882 -0.150215 0
M  V30 2472 C 240.382 2.19935 0.784284 0
M  V30 2473 C 241.363 1.14854 1.25469 0
M  V30 2474 O 242.548 1.43209 1.31168 0
M  V30 2475 C 239.678 2.82349 2.02229 0
M  V30 2476 C 238.632 3.93285 1.68853 0
M  V30 2477 C 237.958 4.42649 2.99944 0
M  V30 2478 C 239.258 5.13904 0.932714 0
M  V30 2479 H 240.952 2.9828 0.258781 0
M  V30 2480 H 238.498 1.43473 0.123029 0
M  V30 2481 H 240.451 3.25126 2.68088 0
M  V30 2482 H 239.175 2.0134 2.57157 0
M  V30 2483 H 237.834 3.5113 1.05371 0
M  V30 2484 H 237.482 3.58458 3.52869 0
M  V30 2485 H 237.182 5.17476 2.78374 0
M  V30 2486 H 238.706 4.88099 3.66868 0
M  V30 2487 H 240.12 5.53506 1.49345 0
M  V30 2488 H 238.517 5.94515 0.81684 0
M  V30 2489 H 239.587 4.84842 -0.0749568 0
M  V30 2490 N 240.93 -0.123565 1.57115 0
M  V30 2491 C 242.346 -0.476961 1.52306 0
M  V30 2492 C 242.546 -1.82109 0.86248 0
M  V30 2493 O 241.602 -2.48586 0.442884 0
M  V30 2494 C 242.915 -0.465661 2.97073 0
M  V30 2495 C 244.463 -0.549534 3.08138 0
M  V30 2496 C 244.938 -0.568669 4.54456 0
M  V30 2497 N 246.429 -0.630237 4.58892 0
M  V30 2498 C 247.164 -0.666415 5.69514 0
M  V30 2499 N 246.66 -0.660514 6.89644 0
M  V30 2500 N 248.453 -0.709077 5.5761 0
M  V30 2501 H 240.604 0.757198 1.98445 0
M  V30 2502 H 242.867 0.278808 0.906074 0
M  V30 2503 H 242.573 0.454232 3.48754 0
M  V30 2504 H 242.447 -1.29513 3.54269 0
M  V30 2505 H 244.834 -1.45985 2.56461 0
M  V30 2506 H 244.915 0.307532 2.53945 0
M  V30 2507 H 244.559 0.337581 5.06777 0
M  V30 2508 H 244.489 -1.44256 5.06456 0
M  V30 2509 H 246.98 -0.641146 3.72421 0
M  V30 2510 H 247.293 -0.690616 7.69708 0
M  V30 2511 H 245.638 -0.628012 6.92157 0
M  V30 2512 H 248.829 -0.711019 4.62668 0
M  V30 2513 H 249.002 -0.733804 6.43832 0
M  V30 2514 N 242.408 -1.52605 -0.393616 0
M  V30 2515 C 243.338 -1.80022 -1.48709 0
M  V30 2516 C 244.319 -0.651995 -1.57108 0
M  V30 2517 O 245.504 -0.89913 -1.72132 0
M  V30 2518 C 242.634 -1.96492 -2.86371 0
M  V30 2519 C 241.588 -3.12161 -2.92813 0
M  V30 2520 C 240.914 -3.13877 -4.3288 0
M  V30 2521 C 242.214 -4.51322 -2.6288 0
M  V30 2522 H 243.908 -2.71589 -1.26015 0
M  V30 2523 H 241.454 -1.30684 -0.604778 0
M  V30 2524 H 243.407 -2.14255 -3.62867 0
M  V30 2525 H 242.131 -1.01611 -3.10391 0
M  V30 2526 H 240.79 -2.94173 -2.18764 0
M  V30 2527 H 240.438 -2.16687 -4.53933 0
M  V30 2528 H 240.138 -3.91576 -4.38112 0
M  V30 2529 H 241.662 -3.33789 -5.1129 0
M  V30 2530 H 243.076 -4.69435 -3.29096 0
M  V30 2531 H 241.473 -5.31053 -2.79468 0
M  V30 2532 H 242.543 -4.58353 -1.58242 0
M  V30 2533 N 243.887 0.651787 -1.4349 0
M  V30 2534 C 245.115 1.43937 -1.48626 0
M  V30 2535 C 245.53 1.8851 -0.104587 0
M  V30 2536 O 244.887 1.5958 0.885464 0
M  V30 2537 C 244.938 2.6734 -2.43334 0
M  V30 2538 O 244.659 2.24631 -3.76128 0
M  V30 2539 C 246.16 3.60683 -2.57726 0
M  V30 2540 H 243.38 0.44213 -0.504739 0
M  V30 2541 H 245.924 0.798944 -1.88248 0
M  V30 2542 H 244.079 3.2752 -2.06904 0
M  V30 2543 H 244.493 3.04485 -4.2707 0
M  V30 2544 H 245.967 4.43933 -3.28067 0
M  V30 2545 H 246.444 4.08126 -1.62265 0
M  V30 2546 H 247.05 3.06384 -2.94973 0
M  V30 2547 N 245.365 1.30045 0.890287 0
M  V30 2548 C 246.781 1.08261 1.17268 0
M  V30 2549 C 246.981 -0.160063 2.00863 0
M  V30 2550 O 246.037 -0.855181 2.37577 0
M  V30 2551 C 247.35 2.34323 1.8845 0
M  V30 2552 C 248.898 2.39735 2.01237 0
M  V30 2553 C 249.373 3.65625 2.7583 0
M  V30 2554 N 250.864 3.66402 2.83379 0
M  V30 2555 C 251.599 4.60498 3.41657 0
M  V30 2556 N 251.095 5.64933 4.01026 0
M  V30 2557 N 252.888 4.48051 3.39421 0
M  V30 2558 H 245.039 2.09777 0.332762 0
M  V30 2559 H 247.302 0.92446 0.209948 0
M  V30 2560 H 247.008 3.2498 1.34465 0
M  V30 2561 H 246.882 2.4256 2.88867 0
M  V30 2562 H 249.269 1.4956 2.54393 0
M  V30 2563 H 249.35 2.35476 0.999232 0
M  V30 2564 H 248.994 4.56156 2.23347 0
M  V30 2565 H 248.924 3.67144 3.77509 0
M  V30 2566 H 251.415 2.90896 2.41222 0
M  V30 2567 H 251.728 6.32841 4.43545 0
M  V30 2568 H 250.073 5.68732 3.99461 0
M  V30 2569 H 253.264 3.65649 2.92264 0
M  V30 2570 H 253.437 5.21565 3.84544 0
M  V30 2571 N 246.843 -1.10192 1.12674 0
M  V30 2572 C 248.259 -1.34235 0.863317 0
M  V30 2573 C 248.459 -1.95062 -0.505277 0
M  V30 2574 O 247.515 -2.19192 -1.25345 0
M  V30 2575 C 248.828 -2.2616 1.98172 0
M  V30 2576 C 250.376 -2.3969 2.0129 0
M  V30 2577 C 250.851 -3.34946 3.1237 0
M  V30 2578 N 252.342 -3.42515 3.11829 0
M  V30 2579 C 253.077 -4.16199 3.94419 0
M  V30 2580 N 252.573 -4.92747 4.87004 0
M  V30 2581 N 254.366 -4.11843 3.82547 0
M  V30 2582 H 246.517 -0.690798 2.00853 0
M  V30 2583 H 248.78 -0.366774 0.874174 0
M  V30 2584 H 248.486 -1.8868 2.96804 0
M  V30 2585 H 248.36 -3.26488 1.88906 0
M  V30 2586 H 250.747 -2.76438 1.03276 0
M  V30 2587 H 250.828 -1.39169 2.14629 0
M  V30 2588 H 250.472 -2.98923 4.10619 0
M  V30 2589 H 250.402 -4.35353 2.96269 0
M  V30 2590 H 252.893 -2.87926 2.44759 0
M  V30 2591 H 253.206 -5.46376 5.46528 0
M  V30 2592 H 251.551 -4.91862 4.91016 0
M  V30 2593 H 254.742 -3.51136 3.0955 0
M  V30 2594 H 254.915 -4.69007 4.47142 0
M  V30 2595 N 248.321 -0.919034 -1.28029 0
M  V30 2596 C 249.251 -0.428581 -2.29533 0
M  V30 2597 C 250.232 0.50659 -1.62381 0
M  V30 2598 O 251.417 0.413195 -1.89753 0
M  V30 2599 C 248.547 0.327388 -3.45753 0
M  V30 2600 C 247.501 -0.519137 -4.2484 0
M  V30 2601 C 246.827 0.365486 -5.33449 0
M  V30 2602 C 248.127 -1.77914 -4.91064 0
M  V30 2603 H 249.821 -1.27687 -2.70807 0
M  V30 2604 H 247.367 -0.615428 -1.30186 0
M  V30 2605 H 249.32 0.681378 -4.15855 0
M  V30 2606 H 248.044 1.20963 -3.03374 0
M  V30 2607 H 246.703 -0.855717 -3.56473 0
M  V30 2608 H 246.351 1.24642 -4.87312 0
M  V30 2609 H 246.051 -0.197356 -5.87268 0
M  V30 2610 H 247.575 0.715241 -6.06396 0
M  V30 2611 H 248.989 -1.49374 -5.53498 0
M  V30 2612 H 247.386 -2.2848 -5.54903 0
M  V30 2613 H 248.456 -2.50382 -4.15255 0
M  V30 2614 N 249.799 1.42003 -0.683588 0
M  V30 2615 C 250.729 2.33487 -0.024866 0
M  V30 2616 C 251.71 1.51163 0.779975 0
M  V30 2617 O 252.895 1.79739 0.735362 0
M  V30 2618 C 250.025 3.3487 0.920836 0
M  V30 2619 C 248.979 4.27414 0.223958 0
M  V30 2620 C 248.305 5.19074 1.2832 0
M  V30 2621 C 249.605 5.14445 -0.90242 0
M  V30 2622 H 251.299 2.88819 -0.788921 0
M  V30 2623 H 248.845 1.38873 -0.38083 0
M  V30 2624 H 250.798 3.97787 1.39081 0
M  V30 2625 H 249.522 2.77861 1.71642 0
M  V30 2626 H 248.181 3.65904 -0.225864 0
M  V30 2627 H 247.829 4.58387 2.071 0
M  V30 2628 H 247.529 5.81822 0.821995 0
M  V30 2629 H 249.053 5.84867 1.75392 0
M  V30 2630 H 250.467 5.70998 -0.513272 0
M  V30 2631 H 248.864 5.86072 -1.28997 0
M  V30 2632 H 249.934 4.52322 -1.74737 0
M  V30 2633 N 251.277 0.427512 1.51691 0
M  V30 2634 C 252.523 -0.142439 2.02299 0
M  V30 2635 C 252.856 -1.43214 1.31162 0
M  V30 2636 O 252.131 -1.89833 0.423511 0
M  V30 2637 C 252.414 -0.371301 3.58181 0
M  V30 2638 C 252.267 0.936358 4.39946 0
M  V30 2639 C 253.586 -1.14542 4.24933 0
M  V30 2640 H 250.705 -0.0502937 0.735282 0
M  V30 2641 H 253.347 0.564584 1.81418 0
M  V30 2642 H 251.497 -0.973559 3.76104 0
M  V30 2643 H 253.169 1.57184 4.33694 0
M  V30 2644 H 251.412 1.5432 4.05423 0
M  V30 2645 H 252.083 0.730388 5.47147 0
M  V30 2646 H 254.559 -0.635362 4.11221 0
M  V30 2647 H 253.435 -1.27431 5.33903 0
M  V30 2648 H 253.696 -2.17093 3.85127 0
M  V30 2649 N 252.755 -1.56801 0.158532 0
M  V30 2650 C 253.665 -2.20916 -0.789518 0
M  V30 2651 C 254.681 -1.1969 -1.26294 0
M  V30 2652 O 255.857 -1.52308 -1.31773 0
M  V30 2653 C 252.922 -2.82727 -2.00665 0
M  V30 2654 C 251.983 -3.99114 -1.58134 0
M  V30 2655 C 251.216 -4.57968 -2.74045 0
M  V30 2656 O 251.439 -4.15704 -3.90572 0
M  V30 2657 O 250.373 -5.48047 -2.48855 0
M  V30 2658 H 254.199 -3.02464 -0.273681 0
M  V30 2659 H 251.784 -1.4924 -0.0690548 0
M  V30 2660 H 253.666 -3.21968 -2.71872 0
M  V30 2661 H 252.341 -2.04184 -2.51179 0
M  V30 2662 H 251.248 -3.64567 -0.839155 0
M  V30 2663 H 252.581 -4.79212 -1.12325 0
M  V30 2664 N 254.233 0.115231 -1.57178 0
M  V30 2665 C 255.481 0.820727 -1.84685 0
M  V30 2666 C 255.802 1.80237 -0.744279 0
M  V30 2667 O 255.072 1.94529 0.231375 0
M  V30 2668 H 253.652 0.306084 -0.681411 0
M  V30 2669 H 256.314 0.101656 -1.94635 0
M  V30 2670 H 255.41 1.36366 -2.80733 0
M  V30 2671 N 255.711 1.52812 0.385517 0
M  V30 2672 C 256.959 1.67694 1.12797 0
M  V30 2673 C 257.28 0.421115 1.90399 0
M  V30 2674 O 256.55 -0.564551 1.87589 0
M  V30 2675 H 255.13 0.618155 0.419396 0
M  V30 2676 H 257.792 1.89938 0.436972 0
M  V30 2677 H 256.888 2.52896 1.82894 0
M  V30 2678 N 257.189 -0.644168 1.43834 0
M  V30 2679 C 258.435 -1.40603 1.46146 0
M  V30 2680 C 258.768 -1.93997 0.0887717 0
M  V30 2681 O 258.043 -1.72854 -0.891724 0
M  V30 2682 C 258.326 -2.58086 2.51124 0
M  V30 2683 C 258.179 -2.10126 3.97702 0
M  V30 2684 C 259.498 -3.60291 2.52742 0
M  V30 2685 H 256.617 -0.509905 0.532134 0
M  V30 2686 H 259.259 -0.729502 1.75437 0
M  V30 2687 H 257.409 -3.15801 2.26278 0
M  V30 2688 H 259.081 -1.57342 4.33637 0
M  V30 2689 H 257.324 -1.41419 4.10101 0
M  V30 2690 H 257.995 -2.94649 4.66783 0
M  V30 2691 H 260.471 -3.12352 2.7491 0
M  V30 2692 H 259.347 -4.40032 3.28121 0
M  V30 2693 H 259.608 -4.1349 1.56455 0
M  V30 2694 N 258.668 -1.30515 -0.883378 0
M  V30 2695 C 259.916 -1.19194 -1.63209 0
M  V30 2696 C 260.237 0.253205 -1.93349 0
M  V30 2697 O 259.507 1.17025 -1.57105 0
M  V30 2698 H 258.087 -0.438148 -0.605009 0
M  V30 2699 H 260.749 -1.63663 -1.05832 0
M  V30 2700 H 259.845 -1.75396 -2.58153 0
M  V30 2701 N 260.146 1.09593 -1.13257 0
M  V30 2702 C 261.078 2.16015 -0.766167 0
M  V30 2703 C 262.091 1.61423 0.211303 0
M  V30 2704 O 263.28 1.78498 -0.00863946 0
M  V30 2705 C 260.38 3.38706 -0.114662 0
M  V30 2706 C 259.553 4.22717 -1.12379 0
M  V30 2707 C 258.612 5.23835 -0.498301 0
M  V30 2708 O 257.638 5.573 -1.15781 0
M  V30 2709 N 258.84 5.75886 0.730417 0
M  V30 2710 H 261.605 2.48055 -1.68193 0
M  V30 2711 H 259.166 1.25292 -1.02535 0
M  V30 2712 H 261.158 4.03464 0.315991 0
M  V30 2713 H 259.728 3.04569 0.704011 0
M  V30 2714 H 258.948 3.54122 -1.73179 0
M  V30 2715 H 260.236 4.75673 -1.80589 0
M  V30 2716 H 259.634 5.50911 1.28504 0
M  V30 2717 H 258.191 6.42387 1.10376 0
M  V30 2718 N 261.624 0.925811 1.2754 0
M  V30 2719 C 262.871 0.565255 1.94451 0
M  V30 2720 C 263.199 -0.89316 1.7278 0
M  V30 2721 O 262.454 -1.65213 1.04895 0
M  V30 2722 C 262.753 0.835296 3.47502 0
M  V30 2723 C 262.419 2.27515 3.89291 0
M  V30 2724 C 261.081 2.66879 4.00411 0
M  V30 2725 C 263.433 3.21158 4.10496 0
M  V30 2726 C 260.761 3.99014 4.30122 0
M  V30 2727 C 263.113 4.52871 4.4169 0
M  V30 2728 C 261.777 4.92072 4.51023 0
M  V30 2729 H 261.047 0.206841 0.711546 0
M  V30 2730 H 263.694 1.16942 1.51647 0
M  V30 2731 H 261.999 0.148442 3.91519 0
M  V30 2732 H 263.696 0.535322 3.97411 0
M  V30 2733 H 260.286 1.95976 3.81171 0
M  V30 2734 H 264.47 2.9195 4.01346 0
M  V30 2735 H 259.726 4.2907 4.35556 0
M  V30 2736 H 263.9 5.25436 4.57045 0
M  V30 2737 H 261.527 5.9449 4.738 0
M  V30 2738 N 263.102 -1.41638 0.69111 0
M  V30 2739 C 264.065 -2.29178 0.0319786 0
M  V30 2740 C 265.065 -1.44153 -0.712496 0
M  V30 2741 O 266.255 -1.65354 -0.548053 0
M  V30 2742 C 263.387 -3.26952 -0.965161 0
M  V30 2743 H 264.58 -2.88959 0.802681 0
M  V30 2744 H 262.133 -1.4955 0.454356 0
M  V30 2745 H 262.868 -2.72142 -1.76378 0
M  V30 2746 H 262.653 -3.89685 -0.434522 0
M  V30 2747 H 264.143 -3.92561 -1.42428 0
M  V30 2748 N 264.58 -0.43555 -1.51462 0
M  V30 2749 C 265.857 0.191364 -1.94662 0
M  V30 2750 C 266.237 1.60254 -1.37411 0
M  V30 2751 O 265.585 2.2152 -0.560458 0
M  V30 2752 C 265.795 0.17091 -3.48581 0
M  V30 2753 C 267.143 0.377357 -4.2292 0
M  V30 2754 O 268.167 0.249104 -3.55328 0
M  V30 2755 O 267.026 0.63247 -5.42828 0
M  V30 2756 H 264.12 0.130932 -0.816569 0
M  V30 2757 H 266.666 -0.4934 -1.62369 0
M  V30 2758 H 265.438 -0.815738 -3.82703 0
M  V30 2759 H 265.061 0.898659 -3.87311 0
M  V30 2760 N 266.058 1.56714 -0.166846 0
M  V30 2761 C 267.021 2.16539 0.751232 0
M  V30 2762 C 268.021 1.11228 1.16125 0
M  V30 2763 O 269.211 1.36765 1.07894 0
M  V30 2764 C 266.343 2.74462 2.02196 0
M  V30 2765 H 267.536 2.99013 0.230499 0
M  V30 2766 H 265.089 1.56081 0.0826982 0
M  V30 2767 H 265.824 1.95709 2.58589 0
M  V30 2768 H 265.609 3.51527 1.73698 0
M  V30 2769 H 267.099 3.20489 2.67725 0
M  V30 2770 N 267.536 -0.106894 1.57237 0
M  V30 2771 C 268.466 -1.13148 2.04254 0
M  V30 2772 C 269.447 -1.42476 0.929224 0
M  V30 2773 O 270.632 -1.52709 1.19973 0
M  V30 2774 C 267.762 -2.4545 2.45706 0
M  V30 2775 C 266.716 -2.30558 3.60592 0
M  V30 2776 C 266.042 -3.67931 3.87983 0
M  V30 2777 C 267.342 -1.75597 4.91897 0
M  V30 2778 H 269.036 -0.740374 2.90101 0
M  V30 2779 H 266.582 -0.354696 1.39563 0
M  V30 2780 H 268.535 -3.17389 2.77205 0
M  V30 2781 H 267.259 -2.86475 1.56843 0
M  V30 2782 H 265.918 -1.61067 3.29322 0
M  V30 2783 H 265.566 -4.06462 2.96306 0
M  V30 2784 H 265.266 -3.58817 4.65322 0
M  V30 2785 H 266.79 -4.41356 4.21945 0
M  V30 2786 H 268.204 -2.37364 5.21854 0
M  V30 2787 H 266.601 -1.77272 5.73319 0
M  V30 2788 H 267.671 -0.714451 4.79608 0
M  V30 2789 N 269.014 -1.53014 -0.377408 0
M  V30 2790 C 270.26 -1.68872 -1.12294 0
M  V30 2791 C 270.593 -0.433224 -1.89306 0
M  V30 2792 O 269.868 0.569258 -1.85983 0
M  V30 2793 C 270.151 -2.93115 -2.09179 0
M  V30 2794 C 270.004 -4.28794 -1.35853 0
M  V30 2795 C 271.323 -3.12928 -3.09458 0
M  V30 2796 H 268.442 -0.614518 -0.406862 0
M  V30 2797 H 271.084 -1.85633 -0.40503 0
M  V30 2798 H 269.234 -2.78956 -2.70399 0
M  V30 2799 H 270.906 -4.54742 -0.775082 0
M  V30 2800 H 269.149 -4.28744 -0.660364 0
M  V30 2801 H 269.82 -5.11837 -2.06706 0
M  V30 2802 H 272.296 -3.26194 -2.58334 0
M  V30 2803 H 271.172 -4.01316 -3.74482 0
M  V30 2804 H 271.433 -2.27669 -3.78971 0
M  V30 2805 N 270.492 0.636531 -1.44174 0
M  V30 2806 C 271.455 1.73063 -1.50273 0
M  V30 2807 C 272.455 1.56113 -0.385397 0
M  V30 2808 O 273.645 1.61707 -0.64781 0
M  V30 2809 C 270.777 3.12096 -1.37145 0
M  V30 2810 H 271.97 1.69031 -2.47727 0
M  V30 2811 H 269.523 0.849706 -1.31186 0
M  V30 2812 H 270.258 3.21728 -0.407636 0
M  V30 2813 H 270.043 3.25805 -2.18159 0
M  V30 2814 H 271.533 3.91846 -1.44382 0
M  V30 2815 N 271.97 1.30982 0.876444 0
M  V30 2816 C 272.933 1.18054 1.96459 0
M  V30 2817 C 273.933 0.109399 1.60427 0
M  V30 2818 O 275.123 0.358173 1.70478 0
M  V30 2819 C 272.255 0.810616 3.31122 0
M  V30 2820 H 273.448 2.14735 2.09354 0
M  V30 2821 H 271.001 1.145 1.06392 0
M  V30 2822 H 271.736 -0.155322 3.23928 0
M  V30 2823 H 271.521 1.58481 3.58645 0
M  V30 2824 H 273.011 0.743876 4.10921 0
M  V30 2825 N 273.449 -1.08991 1.13837 0
M  V30 2826 C 274.412 -2.13925 0.822715 0
M  V30 2827 C 275.412 -1.599 -0.1699 0
M  V30 2828 O 276.602 -1.74104 0.0577251 0
M  V30 2829 C 273.734 -3.40155 0.225318 0
M  V30 2830 H 274.927 -2.43358 1.75262 0
M  V30 2831 H 272.48 -1.24603 0.943594 0
M  V30 2832 H 273.215 -3.16352 -0.713594 0
M  V30 2833 H 273 -3.80661 0.940193 0
M  V30 2834 H 274.49 -4.17594 0.0214784 0
M  V30 2835 N 274.927 -0.932562 -1.27047 0
M  V30 2836 C 276.338 -0.619451 -1.76124 0
M  V30 2837 C 276.689 0.865397 -1.76083 0
M  V30 2838 O 275.814 1.67722 -1.36742 0
M  V30 2839 C 276.409 -1.11771 -3.19832 0
M  V30 2840 C 274.968 -0.855174 -3.66557 0
M  V30 2841 C 274.115 -1.27362 -2.46321 0
M  V30 2842 H 277.066 -1.11181 -1.13245 0
M  V30 2843 H 277.087 -0.46759 -3.77616 0
M  V30 2844 H 276.599 -2.19842 -3.1983 0
M  V30 2845 H 274.7 0.211524 -3.71999 0
M  V30 2846 H 274.813 -1.47613 -4.55793 0
M  V30 2847 H 273.177 -0.692119 -2.45116 0
M  V30 2848 H 273.96 -2.36307 -2.49025 0
M  V30 2849 N 276.405 1.4127 -0.698611 0
M  V30 2850 C 277.816 1.84187 -0.305289 0
M  V30 2851 C 278.167 1.58449 1.15708 0
M  V30 2852 O 277.292 1.05651 1.88856 0
M  V30 2853 C 277.887 3.3435 -0.547314 0
M  V30 2854 C 276.446 3.75826 -0.207878 0
M  V30 2855 C 275.593 2.64647 -0.828099 0
M  V30 2856 H 278.544 1.30778 -0.89904 0
M  V30 2857 H 278.565 3.8001 0.192998 0
M  V30 2858 H 278.077 3.53051 -1.61172 0
M  V30 2859 H 276.178 3.62725 0.852143 0
M  V30 2860 H 276.291 4.74462 -0.665021 0
M  V30 2861 H 274.655 2.53395 -0.257458 0
M  V30 2862 H 275.438 2.86165 -1.89643 0
M  V30 2863 N 277.883 0.443576 1.51229 0
M  V30 2864 C 279.131 -0.120557 2.0174 0
M  V30 2865 C 279.452 -1.42665 1.32935 0
M  V30 2866 O 278.722 -1.9028 0.465866 0
M  V30 2867 H 277.302 -0.0475426 0.745486 0
M  V30 2868 H 279.964 0.587711 1.85828 0
M  V30 2869 H 279.06 -0.291972 3.10731 0
M  V30 2870 N 279.361 -1.56624 0.175154 0
M  V30 2871 C 280.324 -2.16934 -0.739738 0
M  V30 2872 C 281.324 -1.11842 -1.15533 0
M  V30 2873 O 282.514 -1.37335 -1.07167 0
M  V30 2874 C 279.646 -2.75531 -2.00738 0
M  V30 2875 H 280.839 -2.99131 -0.214639 0
M  V30 2876 H 278.392 -1.56123 -0.0744197 0
M  V30 2877 H 279.127 -1.97078 -2.57548 0
M  V30 2878 H 278.912 -3.52444 -1.71831 0
M  V30 2879 H 280.402 -3.21904 -2.66021 0
M  V30 2880 N 280.839 0.0985539 -1.57292 0
M  V30 2881 C 281.749 1.13824 -2.05137 0
M  V30 2882 C 282.765 1.44076 -0.975604 0
M  V30 2883 O 283.941 1.54786 -1.28853 0
M  V30 2884 C 281.006 2.43969 -2.46333 0
M  V30 2885 C 280.067 2.2093 -3.68087 0
M  V30 2886 C 279.3 3.44869 -4.0731 0
M  V30 2887 O 279.523 4.52972 -3.46659 0
M  V30 2888 O 278.457 3.34661 -5.00285 0
M  V30 2889 H 282.283 0.761881 -2.93988 0
M  V30 2890 H 279.868 0.310818 -1.46131 0
M  V30 2891 H 281.75 3.20609 -2.73473 0
M  V30 2892 H 280.425 2.81038 -1.60621 0
M  V30 2893 H 279.332 1.42081 -3.46069 0
M  V30 2894 H 280.665 1.88755 -4.54568 0
M  V30 2895 N 282.317 1.53212 0.369288 0
M  V30 2896 C 283.264 1.79388 1.45219 0
M  V30 2897 C 284.234 0.638059 1.53356 0
M  V30 2898 O 285.419 0.879852 1.69302 0
M  V30 2899 C 282.559 1.98623 2.82211 0
M  V30 2900 C 281.672 3.26337 2.8307 0
M  V30 2901 C 280.807 3.35779 4.11614 0
M  V30 2902 C 279.846 4.5754 4.06601 0
M  V30 2903 N 278.983 4.64155 5.26787 0
M  V30 2904 H 283.823 2.71794 1.22198 0
M  V30 2905 H 281.36 1.34642 0.592444 0
M  V30 2906 H 283.318 2.07761 3.61789 0
M  V30 2907 H 281.948 1.09558 3.03639 0
M  V30 2908 H 281 3.26171 1.95747 0
M  V30 2909 H 282.312 4.15988 2.75237 0
M  V30 2910 H 281.466 3.44208 4.99606 0
M  V30 2911 H 280.205 2.44137 4.22195 0
M  V30 2912 H 279.21 4.49215 3.16996 0
M  V30 2913 H 280.435 5.50519 3.97625 0
M  V30 2914 H 278.381 3.75413 5.3796 0
M  V30 2915 H 278.298 5.47706 5.21109 0
M  V30 2916 H 279.566 4.76863 6.16621 0
M  V30 2917 N 283.795 -0.628877 1.44509 0
M  V30 2918 C 285.041 -1.39045 1.47629 0
M  V30 2919 C 285.374 -1.93892 0.109343 0
M  V30 2920 O 284.649 -1.7379 -0.87334 0
M  V30 2921 C 284.932 -2.55408 2.53848 0
M  V30 2922 C 284.785 -2.05896 3.99909 0
M  V30 2923 C 286.104 -3.5759 2.56549 0
M  V30 2924 H 283.223 -0.504232 0.537512 0
M  V30 2925 H 285.865 -0.710854 1.76201 0
M  V30 2926 H 284.015 -3.13384 2.29615 0
M  V30 2927 H 285.687 -1.52734 4.35282 0
M  V30 2928 H 283.93 -1.37061 4.11578 0
M  V30 2929 H 284.601 -2.89681 4.69882 0
M  V30 2930 H 287.077 -3.09419 2.78207 0
M  V30 2931 H 285.953 -4.36527 3.32769 0
M  V30 2932 H 286.214 -4.11808 1.60832 0
M  V30 2933 N 285.273 -1.31445 -0.869486 0
M  V30 2934 C 286.236 -1.19094 -1.9583 0
M  V30 2935 C 287.236 -0.117906 -1.60367 0
M  V30 2936 O 288.426 -0.367208 -1.70286 0
M  V30 2937 C 285.558 -0.828165 -3.30688 0
M  V30 2938 H 286.751 -2.15842 -2.08212 0
M  V30 2939 H 284.304 -1.15063 -1.05784 0
M  V30 2940 H 285.039 0.138142 -3.24006 0
M  V30 2941 H 284.824 -1.6038 -3.578 0
M  V30 2942 H 286.314 -0.765658 -4.10521 0
M  V30 2943 N 286.751 1.08385 -1.14413 0
M  V30 2944 C 287.681 2.17321 -0.854044 0
M  V30 2945 C 288.662 1.69024 0.191049 0
M  V30 2946 O 289.847 1.94141 0.0476779 0
M  V30 2947 C 286.977 3.45719 -0.330983 0
M  V30 2948 C 285.931 4.07409 -1.31155 0
M  V30 2949 C 285.257 5.30762 -0.64778 0
M  V30 2950 C 286.557 4.48665 -2.67388 0
M  V30 2951 H 288.251 2.41845 -1.76498 0
M  V30 2952 H 285.797 1.16233 -0.850051 0
M  V30 2953 H 287.75 4.21241 -0.115645 0
M  V30 2954 H 286.474 3.2075 0.615381 0
M  V30 2955 H 285.133 3.33919 -1.51306 0
M  V30 2956 H 284.781 5.02078 0.304398 0
M  V30 2957 H 284.481 5.72992 -1.30207 0
M  V30 2958 H 286.005 6.08998 -0.441972 0
M  V30 2959 H 287.419 5.15364 -2.51143 0
M  V30 2960 H 285.816 5.01814 -3.29093 0
M  V30 2961 H 286.886 3.60543 -3.24248 0
M  V30 2962 N 288.23 0.939286 1.26551 0
M  V30 2963 C 289.455 0.602008 1.98471 0
M  V30 2964 C 289.88 -0.815624 1.69497 0
M  V30 2965 O 289.238 -1.54912 0.941905 0
M  V30 2966 C 289.286 0.848407 3.50477 0
M  V30 2967 O 288.39 -0.0804009 4.12322 0
M  V30 2968 H 287.731 0.23049 0.622712 0
M  V30 2969 H 290.261 1.2617 1.61066 0
M  V30 2970 H 290.271 0.768553 4.00696 0
M  V30 2971 H 288.946 1.88171 3.70897 0
M  V30 2972 H 287.523 0.0503508 3.72866 0
M  V30 2973 N 289.708 -1.40897 0.706093 0
M  V30 2974 C 290.956 -2.00657 0.241054 0
M  V30 2975 C 291.277 -1.56241 -1.16678 0
M  V30 2976 O 290.547 -0.79765 -1.78926 0
M  V30 2977 H 289.127 -0.742018 0.0861308 0
M  V30 2978 H 291.789 -1.72372 0.909604 0
M  V30 2979 H 290.885 -3.10958 0.266705 0
M  V30 2980 N 291.186 -0.45159 -1.50991 0
M  V30 2981 C 292.096 0.358431 -2.31846 0
M  V30 2982 C 293.112 1.01438 -1.41373 0
M  V30 2983 O 294.288 1.00663 -1.74439 0
M  V30 2984 C 291.353 1.43704 -3.15515 0
M  V30 2985 C 290.414 0.799742 -4.21785 0
M  V30 2986 C 289.647 1.82696 -5.01456 0
M  V30 2987 O 289.87 3.05105 -4.81941 0
M  V30 2988 O 288.804 1.40958 -5.85162 0
M  V30 2989 H 292.63 -0.302032 -3.02194 0
M  V30 2990 H 290.215 -0.213825 -1.47862 0
M  V30 2991 H 292.097 2.06227 -3.67489 0
M  V30 2992 H 290.772 2.08133 -2.47916 0
M  V30 2993 H 289.679 0.136084 -3.73852 0
M  V30 2994 H 291.012 0.198718 -4.91799 0
M  V30 2995 N 292.664 1.56529 -0.183458 0
M  V30 2996 C 293.596 2.15747 0.773697 0
M  V30 2997 C 294.609 1.1162 1.1851 0
M  V30 2998 O 295.798 1.3876 1.12285 0
M  V30 2999 C 292.898 2.6952 2.05456 0
M  V30 3000 C 292.071 3.98429 1.8048 0
M  V30 3001 C 291.13 4.37145 2.92901 0
M  V30 3002 O 290.156 5.04791 2.6301 0
M  V30 3003 N 291.358 3.99695 4.2098 0
M  V30 3004 H 294.123 2.98505 0.26736 0
M  V30 3005 H 291.684 1.619 -0.0010878 0
M  V30 3006 H 293.676 2.92412 2.79781 0
M  V30 3007 H 292.246 1.91282 2.47245 0
M  V30 3008 H 291.466 3.8379 0.899947 0
M  V30 3009 H 292.754 4.82597 1.61175 0
M  V30 3010 H 292.152 3.4526 4.48121 0
M  V30 3011 H 290.709 4.27562 4.9197 0
M  V30 3012 N 294.142 -0.090211 1.57342 0
M  V30 3013 C 295.105 -1.09335 2.01441 0
M  V30 3014 C 296.105 -1.32666 0.908641 0
M  V30 3015 O 297.295 -1.28697 1.174 0
M  V30 3016 C 294.427 -2.44136 2.3793 0
M  V30 3017 H 295.62 -0.713662 2.91285 0
M  V30 3018 H 293.173 -0.335404 1.52659 0
M  V30 3019 H 293.908 -2.86972 1.51055 0
M  V30 3020 H 293.693 -2.28548 3.18603 0
M  V30 3021 H 295.183 -3.16277 2.72688 0
M  V30 3022 N 295.62 -1.53406 -0.361157 0
M  V30 3023 C 296.867 -1.69802 -1.10333 0
M  V30 3024 C 297.195 -0.452087 -1.89173 0
M  V30 3025 O 296.45 0.566017 -1.87336 0
M  V30 3026 C 296.749 -2.90211 -2.08596 0
M  V30 3027 C 296.415 -4.26539 -1.46203 0
M  V30 3028 C 295.077 -4.6361 -1.28915 0
M  V30 3029 C 297.429 -5.113 -1.01101 0
M  V30 3030 C 294.757 -5.83075 -0.651157 0
M  V30 3031 C 297.109 -6.31415 -0.387007 0
M  V30 3032 C 295.773 -6.67195 -0.201657 0
M  V30 3033 H 295.043 -0.621351 -0.403737 0
M  V30 3034 H 297.69 -1.87598 -0.384609 0
M  V30 3035 H 295.995 -2.66946 -2.86788 0
M  V30 3036 H 297.692 -3.00091 -2.65982 0
M  V30 3037 H 294.282 -3.97352 -1.60653 0
M  V30 3038 H 298.466 -4.83206 -1.13249 0
M  V30 3039 H 293.722 -6.09385 -0.496006 0
M  V30 3040 H 297.896 -6.96394 -0.0293563 0
M  V30 3041 H 295.523 -7.59628 0.294766 0
M  V30 3042 N 297.098 0.621204 -1.44841 0
M  V30 3043 C 298.03 1.74615 -1.48466 0
M  V30 3044 C 299.043 1.58377 -0.37691 0
M  V30 3045 O 300.232 1.66508 -0.643215 0
M  V30 3046 C 297.332 3.12459 -1.31236 0
M  V30 3047 C 296.505 3.55064 -2.55438 0
M  V30 3048 C 295.564 4.71821 -2.32963 0
M  V30 3049 O 294.59 4.79628 -3.06505 0
M  V30 3050 N 295.792 5.64186 -1.36654 0
M  V30 3051 H 298.557 1.71973 -2.45449 0
M  V30 3052 H 296.118 0.806077 -1.40407 0
M  V30 3053 H 298.11 3.88302 -1.14032 0
M  V30 3054 H 296.68 3.09686 -0.4258 0
M  V30 3055 H 295.9 2.69324 -2.87851 0
M  V30 3056 H 297.188 3.80284 -3.38026 0
M  V30 3057 H 296.586 5.6058 -0.759344 0
M  V30 3058 H 295.143 6.39618 -1.25425 0
M  V30 3059 N 298.576 1.31904 0.862503 0
M  V30 3060 C 299.822 1.22197 1.61851 0
M  V30 3061 C 300.155 -0.217641 1.92977 0
M  V30 3062 O 299.43 -1.15264 1.56666 0
M  V30 3063 C 299.713 2.07378 2.94391 0
M  V30 3064 C 299.566 3.59678 2.70096 0
M  V30 3065 C 300.885 1.92891 3.95577 0
M  V30 3066 H 298.004 0.445255 0.587296 0
M  V30 3067 H 300.646 1.6177 0.99651 0
M  V30 3068 H 298.796 1.73758 3.47477 0
M  V30 3069 H 300.468 4.03472 2.23625 0
M  V30 3070 H 298.711 3.82735 2.04197 0
M  V30 3071 H 299.382 4.14595 3.64438 0
M  V30 3072 H 301.858 2.22327 3.51724 0
M  V30 3073 H 300.734 2.54781 4.86187 0
M  V30 3074 H 300.995 0.894315 4.3296 0
M  V30 3075 N 300.054 -1.07777 1.14986 0
M  V30 3076 C 301.017 -2.13041 0.845358 0
M  V30 3077 C 302.017 -1.60071 -0.152931 0
M  V30 3078 O 303.207 -1.74033 0.0761879 0
M  V30 3079 C 300.339 -3.39896 0.261383 0
M  V30 3080 H 301.532 -2.41485 1.77834 0
M  V30 3081 H 299.085 -1.23595 0.956757 0
M  V30 3082 H 299.82 -3.17091 -0.68 0
M  V30 3083 H 299.605 -3.79642 0.980514 0
M  V30 3084 H 301.095 -4.17548 0.0657687 0
M  V30 3085 N 301.532 -0.945985 -1.26051 0
M  V30 3086 C 302.442 -0.465633 -2.29933 0
M  V30 3087 C 303.458 0.462761 -1.67733 0
M  V30 3088 O 304.634 0.341118 -1.9849 0
M  V30 3089 C 301.699 0.256994 -3.45746 0
M  V30 3090 C 300.76 -0.708549 -4.23412 0
M  V30 3091 C 299.993 -0.0203135 -5.33696 0
M  V30 3092 O 300.216 1.19571 -5.57726 0
M  V30 3093 O 299.15 -0.701459 -5.97799 0
M  V30 3094 H 302.976 -1.32866 -2.73094 0
M  V30 3095 H 300.561 -0.712071 -1.31339 0
M  V30 3096 H 302.443 0.663852 -4.16138 0
M  V30 3097 H 301.118 1.09533 -3.04605 0
M  V30 3098 H 300.025 -1.16545 -3.55483 0
M  V30 3099 H 301.358 -1.51465 -4.68315 0
M  V30 3100 N 303.011 1.40521 -0.713556 0
M  V30 3101 C 303.943 2.29191 -0.0203126 0
M  V30 3102 C 304.956 1.45723 0.725864 0
M  V30 3103 O 306.145 1.69033 0.573581 0
M  V30 3104 C 303.245 3.2395 0.995486 0
M  V30 3105 C 302.418 4.36262 0.315256 0
M  V30 3106 C 301.477 5.11474 1.23616 0
M  V30 3107 O 300.503 5.64606 0.721719 0
M  V30 3108 N 301.705 5.20638 2.56743 0
M  V30 3109 H 304.47 2.89327 -0.781652 0
M  V30 3110 H 302.031 1.51869 -0.561022 0
M  V30 3111 H 304.023 3.71137 1.61368 0
M  V30 3112 H 302.593 2.64995 1.6582 0
M  V30 3113 H 301.813 3.91228 -0.483106 0
M  V30 3114 H 303.101 5.08558 -0.157004 0
M  V30 3115 H 302.499 4.7895 3.01037 0
M  V30 3116 H 301.056 5.71339 3.13712 0
M  V30 3117 N 304.489 0.459591 1.5075 0
M  V30 3118 C 305.905 0.113092 1.59199 0
M  V30 3119 C 306.105 -1.37951 1.46874 0
M  V30 3120 O 305.161 -2.15168 1.32132 0
M  V30 3121 C 306.474 0.653043 2.93523 0
M  V30 3122 C 308.022 0.615449 3.0689 0
M  V30 3123 C 308.497 1.13275 4.43771 0
M  V30 3124 N 309.988 1.09167 4.50152 0
M  V30 3125 C 310.723 1.46256 5.54434 0
M  V30 3126 N 310.219 1.90739 6.66026 0
M  V30 3127 N 312.012 1.37932 5.44914 0
M  V30 3128 H 304.163 1.43049 1.57005 0
M  V30 3129 H 306.426 0.590861 0.741341 0
M  V30 3130 H 306.132 1.69822 3.07983 0
M  V30 3131 H 306.006 0.0902132 3.77092 0
M  V30 3132 H 308.393 -0.420793 2.92084 0
M  V30 3133 H 308.474 1.21495 2.25106 0
M  V30 3134 H 308.118 2.16757 4.59324 0
M  V30 3135 H 308.048 0.509576 5.24129 0
M  V30 3136 H 310.539 0.76528 3.7007 0
M  V30 3137 H 310.852 2.17218 7.41644 0
M  V30 3138 H 309.197 1.94683 6.67176 0
M  V30 3139 H 312.388 1.0303 4.56621 0
M  V30 3140 H 312.561 1.67164 6.26067 0
M  V30 3141 N 305.967 -1.56429 0.191757 0
M  V30 3142 C 307.383 -1.58754 -0.164137 0
M  V30 3143 C 307.583 -1.20782 -1.61288 0
M  V30 3144 O 306.639 -0.928999 -2.34789 0
M  V30 3145 C 307.952 -3.00396 0.135195 0
M  V30 3146 C 309.5 -3.1291 0.0750351 0
M  V30 3147 C 309.975 -4.56679 0.347632 0
M  V30 3148 N 311.466 -4.62252 0.296131 0
M  V30 3149 C 312.201 -5.71379 0.480948 0
M  V30 3150 N 311.697 -6.88986 0.725933 0
M  V30 3151 N 313.49 -5.60563 0.415435 0
M  V30 3152 H 305.641 -1.79393 1.13718 0
M  V30 3153 H 307.904 -0.832414 0.453643 0
M  V30 3154 H 307.61 -3.32726 1.13958 0
M  V30 3155 H 307.484 -3.72963 -0.563773 0
M  V30 3156 H 309.871 -2.80394 -0.919948 0
M  V30 3157 H 309.952 -2.42736 0.807029 0
M  V30 3158 H 309.596 -4.89907 1.33992 0
M  V30 3159 H 309.526 -5.25039 -0.405212 0
M  V30 3160 H 312.017 -3.7773 0.113259 0
M  V30 3161 H 312.33 -7.68046 0.855857 0
M  V30 3162 H 310.675 -6.90801 0.762788 0
M  V30 3163 H 313.866 -4.67561 0.224486 0
M  V30 3164 H 314.039 -6.45551 0.562889 0
M  V30 3165 N 307.445 0.0818655 -1.57387 0
M  V30 3166 C 308.377 1.12484 -1.997 0
M  V30 3167 C 309.39 1.35564 -0.90146 0
M  V30 3168 O 310.579 1.33982 -1.17945 0
M  V30 3169 C 307.679 2.47778 -2.31213 0
M  V30 3170 C 306.852 2.44793 -3.62485 0
M  V30 3171 C 305.911 3.62117 -3.81782 0
M  V30 3172 O 304.937 3.44005 -4.53486 0
M  V30 3173 N 306.139 4.82094 -3.23367 0
M  V30 3174 H 308.904 0.764585 -2.89783 0
M  V30 3175 H 306.465 0.270664 -1.59621 0
M  V30 3176 H 308.457 3.24891 -2.41304 0
M  V30 3177 H 307.027 2.75843 -1.4707 0
M  V30 3178 H 306.247 1.53134 -3.6324 0
M  V30 3179 H 307.535 2.39889 -4.48699 0
M  V30 3180 H 306.933 4.99713 -2.65148 0
M  V30 3181 H 305.49 5.56753 -3.38923 0
M  V30 3182 N 308.923 1.53595 0.353017 0
M  V30 3183 C 310.339 1.43648 0.695516 0
M  V30 3184 C 310.539 0.585617 1.92802 0
M  V30 3185 O 309.595 0.0729223 2.52395 0
M  V30 3186 C 310.908 2.8701 0.896991 0
M  V30 3187 C 312.456 2.96723 0.996209 0
M  V30 3188 C 312.931 4.41173 1.23007 0
M  V30 3189 N 314.422 4.44657 1.29749 0
M  V30 3190 C 315.157 5.53547 1.49577 0
M  V30 3191 N 314.653 6.72461 1.66639 0
M  V30 3192 N 316.446 5.41145 1.52048 0
M  V30 3193 H 308.597 2.07415 -0.457481 0
M  V30 3194 H 310.86 0.9372 -0.142687 0
M  V30 3195 H 310.566 3.51644 0.0629938 0
M  V30 3196 H 310.44 3.31401 1.80148 0
M  V30 3197 H 312.827 2.32235 1.82074 0
M  V30 3198 H 312.908 2.55707 0.0688331 0
M  V30 3199 H 312.552 5.06238 0.410505 0
M  V30 3200 H 312.482 4.79772 2.17086 0
M  V30 3201 H 314.973 3.58963 1.18126 0
M  V30 3202 H 315.286 7.51214 1.81378 0
M  V30 3203 H 313.631 6.75423 1.63794 0
M  V30 3204 H 316.822 4.47205 1.38294 0
M  V30 3205 H 316.995 6.26068 1.67159 0
M  V30 3206 N 310.401 -0.613514 1.45168 0
M  V30 3207 C 311.648 -1.37268 1.48875 0
M  V30 3208 C 311.976 -1.94077 0.128161 0
M  V30 3209 O 311.231 -1.75178 -0.872416 0
M  V30 3210 C 311.53 -2.54347 2.51083 0
M  V30 3211 C 311.196 -2.1572 3.95949 0
M  V30 3212 C 309.858 -2.04899 4.35396 0
M  V30 3213 C 312.21 -1.85485 4.87078 0
M  V30 3214 C 309.538 -1.62057 5.63875 0
M  V30 3215 C 311.89 -1.4413 6.15962 0
M  V30 3216 C 310.554 -1.31863 6.54346 0
M  V30 3217 H 309.824 -0.502299 0.544773 0
M  V30 3218 H 312.471 -0.694021 1.78481 0
M  V30 3219 H 310.776 -3.27524 2.15024 0
M  V30 3220 H 312.473 -3.12577 2.51191 0
M  V30 3221 H 309.063 -2.25066 3.64751 0
M  V30 3222 H 313.247 -1.92745 4.57343 0
M  V30 3223 H 308.503 -1.51177 5.92415 0
M  V30 3224 H 312.677 -1.19778 6.86022 0
M  V30 3225 H 310.304 -0.984392 7.538 0
M  V30 3226 N 311.879 -1.3236 -0.855495 0
M  V30 3227 C 313.295 -1.11332 -1.14356 0
M  V30 3228 C 313.495 0.106751 -2.01217 0
M  V30 3229 O 312.551 0.791891 -2.39761 0
M  V30 3230 C 313.864 -2.39237 -1.82171 0
M  V30 3231 C 315.412 -2.44986 -1.9481 0
M  V30 3232 C 315.887 -3.7281 -2.66039 0
M  V30 3233 N 317.378 -3.73787 -2.73565 0
M  V30 3234 C 318.113 -4.69394 -3.29327 0
M  V30 3235 N 317.609 -5.75367 -3.85907 0
M  V30 3236 N 319.402 -4.56893 -3.27423 0
M  V30 3237 H 311.553 -2.10586 -0.277027 0
M  V30 3238 H 313.816 -0.929701 -0.185364 0
M  V30 3239 H 313.522 -3.28431 -1.25802 0
M  V30 3240 H 313.396 -2.50134 -2.82335 0
M  V30 3241 H 315.783 -1.56252 -2.50338 0
M  V30 3242 H 315.864 -2.38043 -0.936448 0
M  V30 3243 H 315.508 -4.61918 -2.11174 0
M  V30 3244 H 315.438 -3.77024 -3.67642 0
M  V30 3245 H 317.929 -2.97189 -2.33424 0
M  V30 3246 H 318.242 -6.44378 -4.26611 0
M  V30 3247 H 316.587 -5.79123 -3.84242 0
M  V30 3248 H 319.778 -3.73269 -2.82467 0
M  V30 3249 H 319.951 -5.31577 -3.7058 0
M  V30 3250 N 313.357 1.07166 -1.15556 0
M  V30 3251 C 314.287 2.16403 -0.877046 0
M  V30 3252 C 315.268 1.69217 0.173111 0
M  V30 3253 O 316.453 1.94181 0.027084 0
M  V30 3254 C 313.583 3.45349 -0.367632 0
M  V30 3255 C 312.537 4.05995 -1.35468 0
M  V30 3256 C 311.863 5.30045 -0.704038 0
M  V30 3257 C 313.163 4.45804 -2.72132 0
M  V30 3258 H 314.857 2.39959 -1.79053 0
M  V30 3259 H 312.403 1.15325 -0.862331 0
M  V30 3260 H 314.356 4.21095 -0.160317 0
M  V30 3261 H 313.08 3.21385 0.581326 0
M  V30 3262 H 311.739 3.32296 -1.54839 0
M  V30 3263 H 311.387 5.02373 0.251128 0
M  V30 3264 H 311.087 5.71579 -1.36277 0
M  V30 3265 H 312.611 6.08495 -0.50654 0
M  V30 3266 H 314.025 5.12671 -2.56595 0
M  V30 3267 H 312.422 4.98296 -3.34397 0
M  V30 3268 H 313.492 3.57083 -3.28054 0
M  V30 3269 N 314.835 0.952656 1.25548 0
M  V30 3270 C 315.745 0.47782 2.29682 0
M  V30 3271 C 316.761 -0.453859 1.67977 0
M  V30 3272 O 317.937 -0.330587 1.98668 0
M  V30 3273 C 315.002 -0.238655 3.45878 0
M  V30 3274 C 314.063 0.730994 4.23031 0
M  V30 3275 C 313.296 0.0486165 5.33678 0
M  V30 3276 O 313.519 -1.16612 5.58353 0
M  V30 3277 O 312.453 0.733152 5.97418 0
M  V30 3278 H 316.279 1.34312 2.72386 0
M  V30 3279 H 313.864 0.719026 1.30959 0
M  V30 3280 H 315.746 -0.641774 4.16484 0
M  V30 3281 H 314.421 -1.07916 3.05181 0
M  V30 3282 H 313.328 1.18428 3.5486 0
M  V30 3283 H 314.661 1.53946 4.67506 0
M  V30 3284 N 316.313 -1.40141 0.720998 0
M  V30 3285 C 317.729 -1.54632 0.395113 0
M  V30 3286 C 317.929 -1.69115 -1.09555 0
M  V30 3287 O 316.985 -1.68377 -1.88163 0
M  V30 3288 C 318.298 -2.77177 1.1659 0
M  V30 3289 C 319.846 -2.91 1.15274 0
M  V30 3290 C 320.321 -4.16465 1.90579 0
M  V30 3291 N 321.812 -4.23476 1.87675 0
M  V30 3292 C 322.547 -5.19475 2.42762 0
M  V30 3293 N 322.043 -6.21348 3.06428 0
M  V30 3294 N 323.836 -5.11592 2.32874 0
M  V30 3295 H 315.987 -1.28986 1.68749 0
M  V30 3296 H 318.25 -0.62412 0.713567 0
M  V30 3297 H 317.956 -2.72771 2.22011 0
M  V30 3298 H 317.83 -3.69442 0.76108 0
M  V30 3299 H 320.217 -2.94907 0.106702 0
M  V30 3300 H 320.298 -1.99838 1.59682 0
M  V30 3301 H 319.942 -4.1332 2.95176 0
M  V30 3302 H 319.872 -5.06646 1.43587 0
M  V30 3303 H 322.363 -3.50497 1.41281 0
M  V30 3304 H 322.676 -6.91034 3.45965 0
M  V30 3305 H 321.021 -6.21777 3.10514 0
M  V30 3306 H 324.212 -4.30936 1.82789 0
M  V30 3307 H 324.385 -5.86233 2.76106 0
M  V30 3308 N 317.792 -0.46758 -1.50504 0
M  V30 3309 C 319.04 0.0884469 -2.01906 0
M  V30 3310 C 319.361 1.40532 -1.35188 0
M  V30 3311 O 318.631 1.89515 -0.496079 0
M  V30 3312 H 317.211 0.0356765 -0.746148 0
M  V30 3313 H 319.873 -0.6172 -1.84869 0
M  V30 3314 H 318.969 0.2425 -3.11156 0
M  V30 3315 N 319.27 1.56325 -0.20005 0
M  V30 3316 C 320.495 2.02548 0.44597 0
M  V30 3317 C 320.92 1.07922 1.5406 0
M  V30 3318 O 320.278 0.0635775 1.81188 0
M  V30 3319 C 320.326 3.47175 0.974761 0
M  V30 3320 O 319.43 3.55671 2.08739 0
M  V30 3321 H 318.771 0.655862 0.103638 0
M  V30 3322 H 321.301 2.02201 -0.312381 0
M  V30 3323 H 321.311 3.87067 1.2901 0
M  V30 3324 H 319.986 4.15538 0.17347 0
M  V30 3325 H 318.563 3.27657 1.78032 0
M  V30 3326 N 320.748 -0.0735177 1.57428 0
M  V30 3327 C 321.696 -1.10628 2.04607 0
M  V30 3328 C 322.69 -1.40181 0.951088 0
M  V30 3329 O 323.896 -1.39608 1.1362 0
M  V30 3330 H 320.271 -0.374088 0.652351 0
M  V30 3331 H 322.242 -0.682218 2.90497 0
M  V30 3332 C 320.991 -2.41212 2.50423 0
M  V30 3333 H 320.314 -2.19322 3.34272 0
M  V30 3334 H 321.754 -3.11927 2.87189 0
M  V30 3335 C 320.213 -3.0705 1.38644 0
M  V30 3336 O 320.743 -3.95056 0.727582 0
M  V30 3337 N 318.949 -2.67645 1.132 0
M  V30 3338 H 318.496 -1.96169 1.66959 0
M  V30 3339 H 318.454 -3.1202 0.386147 0
M  V30 3340 N 322.226 -1.5378 -0.344866 0
M  V30 3341 C 323.189 -1.80981 -1.40637 0
M  V30 3342 C 324.189 -0.680816 -1.45676 0
M  V30 3343 O 325.379 -0.949095 -1.46075 0
M  V30 3344 C 322.511 -1.95063 -2.79577 0
M  V30 3345 H 323.704 -2.75803 -1.17783 0
M  V30 3346 H 321.257 -1.45173 -0.579181 0
M  V30 3347 H 321.992 -1.02379 -3.07716 0
M  V30 3348 H 321.777 -2.77198 -2.77315 0
M  V30 3349 H 323.267 -2.17629 -3.56409 0
M  V30 3350 N 323.704 0.605807 -1.45491 0
M  V30 3351 C 324.953 1.36086 -1.48874 0
M  V30 3352 C 325.266 1.95131 -0.135333 0
M  V30 3353 O 326.472 2.7146 -0.0468144 0
M  V30 3354 C 324.928 2.46518 -2.62215 0
M  V30 3355 C 324.536 1.93877 -4.03876 0
M  V30 3356 C 326.28 3.23512 -2.74846 0
M  V30 3357 C 324.187 3.01801 -5.08596 0
M  V30 3358 H 323.117 0.511497 -0.553974 0
M  V30 3359 H 325.768 0.649089 -1.71636 0
M  V30 3360 H 324.15 3.20388 -2.32739 0
M  V30 3361 H 325.324 1.26704 -4.43038 0
M  V30 3362 H 323.639 1.29622 -3.95711 0
M  V30 3363 H 326.236 4.04013 -3.50253 0
M  V30 3364 H 326.579 3.74631 -1.81542 0
M  V30 3365 H 327.112 2.56742 -3.03856 0
M  V30 3366 H 323.851 2.55597 -6.03614 0
M  V30 3367 H 323.371 3.67535 -4.74002 0
M  V30 3368 H 325.05 3.66152 -5.33424 0
M  V30 3369 N 325.182 1.32811 0.848464 0
M  V30 3370 C 326.145 1.22194 1.9391 0
M  V30 3371 C 327.145 0.143404 1.60159 0
M  V30 3372 O 328.335 0.394253 1.6968 0
M  V30 3373 C 325.467 0.88067 3.29328 0
M  V30 3374 H 326.66 2.19127 2.04752 0
M  V30 3375 H 324.213 1.16731 1.0394 0
M  V30 3376 H 324.948 -0.0865776 3.24184 0
M  V30 3377 H 324.733 1.66052 3.55203 0
M  V30 3378 H 326.223 0.830871 4.09251 0
M  V30 3379 N 326.66 -1.06551 1.16123 0
M  V30 3380 C 327.906 -1.79567 0.94252 0
M  V30 3381 C 328.239 -1.86869 -0.528547 0
M  V30 3382 O 327.514 -1.35838 -1.39206 0
M  V30 3383 C 327.797 -3.24195 1.56747 0
M  V30 3384 C 327.65 -3.24989 3.10969 0
M  V30 3385 C 328.969 -4.21678 1.25998 0
M  V30 3386 H 326.088 -0.651883 0.343828 0
M  V30 3387 H 328.73 -1.2463 1.43413 0
M  V30 3388 H 326.88 -3.71107 1.14942 0
M  V30 3389 H 328.552 -2.86258 3.61737 0
M  V30 3390 H 326.795 -2.63716 3.44436 0
M  V30 3391 H 327.466 -4.27005 3.49815 0
M  V30 3392 H 329.942 -3.83196 1.62174 0
M  V30 3393 H 328.818 -5.21146 1.7233 0
M  V30 3394 H 329.079 -4.4174 0.178367 0
M  V30 3395 N 328.138 -0.959301 -1.25041 0
M  V30 3396 C 329.386 -0.615393 -1.92503 0
M  V30 3397 C 329.707 0.850969 -1.75452 0
M  V30 3398 O 328.977 1.60658 -1.12098 0
M  V30 3399 H 327.557 -0.224613 -0.712431 0
M  V30 3400 H 330.219 -1.21855 -1.5211 0
M  V30 3401 H 329.315 -0.848738 -3.00338 0
M  V30 3402 N 329.616 1.39756 -0.72842 0
M  V30 3403 C 330.841 2.05472 -0.282159 0
M  V30 3404 C 331.266 1.54549 1.07221 0
M  V30 3405 O 330.624 0.686372 1.67805 0
M  V30 3406 C 330.672 3.59462 -0.286264 0
M  V30 3407 O 329.776 4.05918 0.728298 0
M  V30 3408 H 329.117 0.651226 -0.129618 0
M  V30 3409 H 331.647 1.78915 -0.992499 0
M  V30 3410 H 331.657 4.07798 -0.128373 0
M  V30 3411 H 330.332 3.95889 -1.27456 0
M  V30 3412 H 328.909 3.69012 0.537081 0
M  V30 3413 N 331.094 0.475555 1.50254 0
M  V30 3414 C 332.004 -0.321501 2.32387 0
M  V30 3415 C 333.02 -0.991755 1.42969 0
M  V30 3416 O 334.196 -0.978747 1.76018 0
M  V30 3417 C 331.261 -1.38667 3.17762 0
M  V30 3418 C 330.322 -0.732538 4.23004 0
M  V30 3419 C 329.555 -1.74695 5.04299 0
M  V30 3420 O 329.778 -2.97399 4.86734 0
M  V30 3421 O 328.712 -1.31631 5.8733 0
M  V30 3422 H 332.538 0.350071 3.01676 0
M  V30 3423 H 330.123 0.237321 1.47503 0
M  V30 3424 H 332.005 -2.00354 3.70724 0
M  V30 3425 H 330.68 -2.04163 2.51196 0
M  V30 3426 H 329.587 -0.0765902 3.74022 0
M  V30 3427 H 330.92 -0.120452 4.92053 0
M  V30 3428 N 332.573 -1.56217 0.208337 0
M  V30 3429 C 333.989 -1.58919 -0.14729 0
M  V30 3430 C 334.189 -1.22486 -1.59998 0
M  V30 3431 O 333.245 -0.953849 -2.3379 0
M  V30 3432 C 334.558 -3.00236 0.167048 0
M  V30 3433 C 336.106 -3.12813 0.108219 0
M  V30 3434 C 336.581 -4.56284 0.396049 0
M  V30 3435 N 338.072 -4.61912 0.345142 0
M  V30 3436 C 338.807 -5.70837 0.541523 0
M  V30 3437 N 338.303 -6.88178 0.798968 0
M  V30 3438 N 340.096 -5.60091 0.474867 0
M  V30 3439 H 332.247 -1.78177 1.15614 0
M  V30 3440 H 334.51 -0.827555 0.462446 0
M  V30 3441 H 334.216 -3.31499 1.1748 0
M  V30 3442 H 334.09 -3.7354 -0.524184 0
M  V30 3443 H 336.477 -2.81354 -0.890157 0
M  V30 3444 H 336.558 -2.41866 0.832729 0
M  V30 3445 H 336.202 -4.88458 1.3918 0
M  V30 3446 H 336.132 -5.25439 -0.349502 0
M  V30 3447 H 338.623 -3.77589 0.153316 0
M  V30 3448 H 338.936 -7.67095 0.93727 0
M  V30 3449 H 337.281 -6.89953 0.836013 0
M  V30 3450 H 340.472 -4.67297 0.274064 0
M  V30 3451 H 340.645 -6.44917 0.631326 0
M  V30 3452 N 334.051 0.0651679 -1.57465 0
M  V30 3453 C 335.276 0.779605 -1.9219 0
M  V30 3454 C 335.701 1.69988 -0.805333 0
M  V30 3455 O 335.059 1.79685 0.241435 0
M  V30 3456 C 335.107 1.54364 -3.2589 0
M  V30 3457 O 334.211 2.65474 -3.1559 0
M  V30 3458 H 333.552 0.212249 -0.629163 0
M  V30 3459 H 336.082 0.0314294 -2.04576 0
M  V30 3460 H 336.092 1.92146 -3.59922 0
M  V30 3461 H 334.767 0.868457 -4.06732 0
M  V30 3462 H 333.344 2.30501 -2.93128 0
M  V30 3463 N 335.529 1.53961 0.336706 0
M  V30 3464 C 336.492 1.81724 1.39675 0
M  V30 3465 C 337.492 0.688532 1.45313 0
M  V30 3466 O 338.682 0.956829 1.45569 0
M  V30 3467 C 335.814 1.96543 2.78538 0
M  V30 3468 H 337.007 2.76424 1.16318 0
M  V30 3469 H 334.56 1.45478 0.571474 0
M  V30 3470 H 335.295 1.0401 3.07168 0
M  V30 3471 H 335.08 2.78665 2.75841 0
M  V30 3472 H 336.57 2.19516 3.5525 0
M  V30 3473 N 337.007 -0.598083 1.45811 0
M  V30 3474 C 338.284 -1.35777 1.40797 0
M  V30 3475 C 338.664 -2.10935 0.083462 0
M  V30 3476 O 338.012 -2.08505 -0.934763 0
M  V30 3477 C 338.222 -2.29666 2.62783 0
M  V30 3478 C 339.57 -2.91977 3.08277 0
M  V30 3479 O 340.594 -2.39984 2.63223 0
M  V30 3480 O 339.453 -3.86376 3.86491 0
M  V30 3481 H 336.547 -0.609291 0.55919 0
M  V30 3482 H 339.093 -0.620379 1.57954 0
M  V30 3483 H 337.865 -1.73454 3.50756 0
M  V30 3484 H 337.488 -3.1077 2.48008 0
M  V30 3485 N 338.485 -1.33259 -0.841409 0
M  V30 3486 C 339.733 -1.24326 -1.59334 0
M  V30 3487 C 340.054 0.191564 -1.94057 0
M  V30 3488 O 339.324 1.11967 -1.60749 0
M  V30 3489 H 337.904 -0.457174 -0.590763 0
M  V30 3490 H 340.566 -1.66947 -1.00571 0
M  V30 3491 H 339.662 -1.8352 -2.52442 0
M  V30 3492 N 339.963 1.05934 -1.16686 0
M  V30 3493 C 340.91 2.13499 -0.876748 0
M  V30 3494 C 341.88 1.65162 0.176299 0
M  V30 3495 O 343.065 1.90757 0.0407143 0
M  V30 3496 C 340.205 3.42912 -0.387967 0
M  V30 3497 C 339.318 4.04964 -1.50426 0
M  V30 3498 C 338.453 5.22266 -0.970125 0
M  V30 3499 C 337.492 5.76309 -2.06238 0
M  V30 3500 N 336.629 6.84922 -1.54356 0
M  V30 3501 H 341.469 2.37654 -1.7979 0
M  V30 3502 H 339.006 1.16598 -0.896843 0
M  V30 3503 H 340.964 4.17111 -0.086186 0
M  V30 3504 H 339.594 3.18963 0.496235 0
M  V30 3505 H 338.646 3.28277 -1.92193 0
M  V30 3506 H 339.958 4.41122 -2.32836 0
M  V30 3507 H 339.112 6.03506 -0.621743 0
M  V30 3508 H 337.851 4.87564 -0.115377 0
M  V30 3509 H 336.856 4.93704 -2.41942 0
M  V30 3510 H 338.081 6.13062 -2.92115 0
M  V30 3511 H 336.027 6.52131 -0.711406 0
M  V30 3512 H 335.944 7.20043 -2.30379 0
M  V30 3513 H 337.212 7.69832 -1.22387 0
M  V30 3514 N 341.441 0.965919 1.2453 0
M  V30 3515 C 342.689 0.625593 1.92174 0
M  V30 3516 C 343.01 -0.841652 1.75901 0
M  V30 3517 O 342.28 -1.60061 1.12948 0
M  V30 3518 H 340.86 0.228388 0.71123 0
M  V30 3519 H 343.522 1.2266 1.51461 0
M  V30 3520 H 342.618 0.864653 2.99884 0
M  V30 3521 N 342.919 -1.39368 0.735821 0
M  V30 3522 C 343.852 -2.28155 0.0451175 0
M  V30 3523 C 344.83 -1.44433 -0.746852 0
M  V30 3524 O 346.014 -1.73823 -0.729237 0
M  V30 3525 C 343.141 -3.253 -0.943266 0
M  V30 3526 C 342.187 -4.25826 -0.239685 0
M  V30 3527 S 343.02 -5.25166 1.04693 0
M  V30 3528 C 344.176 -6.2587 0.0611639 0
M  V30 3529 H 344.409 -2.86388 0.79807 0
M  V30 3530 H 341.942 -1.45104 0.527653 0
M  V30 3531 H 343.9 -3.81789 -1.50824 0
M  V30 3532 H 342.561 -2.66085 -1.66906 0
M  V30 3533 H 341.754 -4.94229 -0.987596 0
M  V30 3534 H 341.356 -3.73141 0.253274 0
M  V30 3535 H 343.648 -6.73007 -0.778941 0
M  V30 3536 H 344.591 -7.04508 0.712362 0
M  V30 3537 H 344.999 -5.63639 -0.311602 0
M  V30 3538 N 344.397 -0.483516 -1.5 0
M  V30 3539 C 345.327 0.293829 -2.31644 0
M  V30 3540 C 346.308 0.978864 -1.39112 0
M  V30 3541 O 347.493 0.973644 -1.68029 0
M  V30 3542 C 344.623 1.36897 -3.19181 0
M  V30 3543 C 343.577 0.804833 -4.20365 0
M  V30 3544 C 342.903 1.9792 -4.96721 0
M  V30 3545 C 344.203 -0.192313 -5.21946 0
M  V30 3546 H 345.897 -0.387616 -2.9688 0
M  V30 3547 H 343.443 -0.187856 -1.42769 0
M  V30 3548 H 345.396 1.92037 -3.751 0
M  V30 3549 H 344.12 2.07936 -2.51853 0
M  V30 3550 H 342.779 0.275319 -3.65565 0
M  V30 3551 H 342.427 2.67686 -4.25856 0
M  V30 3552 H 342.127 1.60789 -5.65173 0
M  V30 3553 H 343.651 2.53526 -5.55479 0
M  V30 3554 H 345.065 0.270333 -5.72662 0
M  V30 3555 H 343.462 -0.478543 -5.98189 0
M  V30 3556 H 344.532 -1.11409 -4.71928 0
M  V30 3557 N 345.875 1.56104 -0.216619 0
M  V30 3558 C 346.805 2.23063 0.690296 0
M  V30 3559 C 347.786 1.20072 1.20485 0
M  V30 3560 O 348.971 1.48643 1.24976 0
M  V30 3561 C 346.101 2.90672 1.90072 0
M  V30 3562 C 345.055 4.00092 1.5202 0
M  V30 3563 C 344.381 4.54972 2.80899 0
M  V30 3564 C 345.681 5.17398 0.71391 0
M  V30 3565 H 347.375 2.99109 0.132038 0
M  V30 3566 H 344.921 1.43866 0.0620664 0
M  V30 3567 H 346.874 3.36204 2.54057 0
M  V30 3568 H 345.598 2.12066 2.48386 0
M  V30 3569 H 344.257 3.55283 0.903839 0
M  V30 3570 H 343.905 3.73102 3.37348 0
M  V30 3571 H 343.605 5.28817 2.56176 0
M  V30 3572 H 345.129 5.0322 3.45836 0
M  V30 3573 H 346.543 5.59342 1.25735 0
M  V30 3574 H 344.94 5.97444 0.563951 0
M  V30 3575 H 346.01 4.84088 -0.280527 0
M  V30 3576 N 347.353 -0.0568162 1.57498 0
M  V30 3577 C 348.316 -1.05038 2.03715 0
M  V30 3578 C 349.316 -1.30709 0.936577 0
M  V30 3579 O 350.506 -1.26178 1.20103 0
M  V30 3580 C 347.638 -2.39034 2.43055 0
M  V30 3581 H 348.831 -0.651715 2.92733 0
M  V30 3582 H 346.384 -0.302947 1.53336 0
M  V30 3583 H 347.119 -2.83703 1.57108 0
M  V30 3584 H 346.904 -2.21739 3.2338 0
M  V30 3585 H 348.394 -3.10421 2.79336 0
M  V30 3586 N 348.832 -1.54138 -0.328536 0
M  V30 3587 C 349.78 -1.83894 -1.42428 0
M  V30 3588 C 350.774 -0.710478 -1.53781 0
M  V30 3589 O 351.98 -0.894062 -1.56226 0
M  V30 3590 H 348.355 -0.582837 -0.475189 0
M  V30 3591 H 350.326 -2.75537 -1.14552 0
M  V30 3592 C 349.075 -2.07866 -2.78724 0
M  V30 3593 H 348.398 -2.94158 -2.7076 0
M  V30 3594 H 349.838 -2.32644 -3.54476 0
M  V30 3595 C 348.297 -0.868689 -3.25508 0
M  V30 3596 O 348.827 -0.0754908 -4.01629 0
M  V30 3597 N 347.033 -0.681711 -2.82491 0
M  V30 3598 H 346.58 -1.32838 -2.20708 0
M  V30 3599 H 346.538 0.126374 -3.14146 0
M  V30 3600 N 350.31 0.590341 -1.46126 0
M  V30 3601 C 351.721 1.17243 -1.45296 0
M  V30 3602 C 352.072 1.95281 -0.189723 0
M  V30 3603 O 351.197 2.04502 0.707674 0
M  V30 3604 C 351.792 2.13284 -2.6324 0
M  V30 3605 C 350.351 2.66832 -2.65476 0
M  V30 3606 C 349.498 1.42557 -2.3785 0
M  V30 3607 H 352.449 0.378692 -1.54116 0
M  V30 3608 H 352.47 2.96619 -2.38323 0
M  V30 3609 H 351.982 1.56459 -3.55165 0
M  V30 3610 H 350.083 3.27548 -1.77603 0
M  V30 3611 H 350.196 3.10088 -3.65215 0
M  V30 3612 H 348.56 1.72107 -1.87753 0
M  V30 3613 H 349.343 0.875741 -3.31942 0
M  V30 3614 N 351.788 1.33704 0.83433 0
M  V30 3615 C 352.738 1.20899 1.93306 0
M  V30 3616 C 353.722 0.110783 1.60518 0
M  V30 3617 O 354.914 0.339331 1.73717 0
M  V30 3618 C 352.043 0.955018 3.29749 0
M  V30 3619 C 351.129 2.09587 3.68692 0
M  V30 3620 N 351.52 3.34621 3.79292 0
M  V30 3621 C 349.818 2.00358 3.98463 0
M  V30 3622 C 350.519 4.09472 4.13167 0
M  V30 3623 N 349.495 3.37954 4.25779 0
M  V30 3624 H 353.297 2.15665 1.99664 0
M  V30 3625 H 350.811 1.25777 1.02732 0
M  V30 3626 H 352.808 0.844208 4.08263 0
M  V30 3627 H 351.468 0.0159317 3.24696 0
M  V30 3628 H 352.479 3.69313 3.63082 0
M  V30 3629 H 349.156 1.14137 4.01596 0
M  V30 3630 H 350.546 5.17391 4.28668 0
M  V30 3631 N 353.266 -1.05314 1.17247 0
M  V30 3632 C 354.513 -1.78293 0.960091 0
M  V30 3633 C 354.841 -1.87658 -0.51136 0
M  V30 3634 O 354.096 -1.3718 -1.39571 0
M  V30 3635 C 354.395 -3.2229 1.54479 0
M  V30 3636 C 354.061 -3.32987 3.04024 0
M  V30 3637 C 352.723 -3.35613 3.44844 0
M  V30 3638 C 355.075 -3.34102 4.00031 0
M  V30 3639 C 352.403 -3.36982 4.8027 0
M  V30 3640 C 354.755 -3.3701 5.35357 0
M  V30 3641 C 353.419 -3.37923 5.75642 0
M  V30 3642 H 352.689 -0.652422 0.351322 0
M  V30 3643 H 355.336 -1.23782 1.46117 0
M  V30 3644 H 353.641 -3.7972 0.965391 0
M  V30 3645 H 355.338 -3.77376 1.35603 0
M  V30 3646 H 351.928 -3.31655 2.71483 0
M  V30 3647 H 356.112 -3.31276 3.69554 0
M  V30 3648 H 351.368 -3.35999 5.10798 0
M  V30 3649 H 355.542 -3.36822 6.09528 0
M  V30 3650 H 353.169 -3.38738 6.80559 0
M  V30 3651 N 354.744 -0.972509 -1.24016 0
M  V30 3652 C 356.155 -0.67517 -1.74064 0
M  V30 3653 C 356.506 0.808939 -1.78747 0
M  V30 3654 O 355.631 1.63286 -1.42009 0
M  V30 3655 C 356.226 -1.21889 -3.16115 0
M  V30 3656 C 354.785 -0.971358 -3.6365 0
M  V30 3657 C 353.932 -1.35134 -2.42145 0
M  V30 3658 H 356.883 -1.14727 -1.09651 0
M  V30 3659 H 356.904 -0.587489 -3.75937 0
M  V30 3660 H 356.416 -2.29906 -3.12674 0
M  V30 3661 H 354.517 0.0930686 -3.72484 0
M  V30 3662 H 354.63 -1.62039 -4.50866 0
M  V30 3663 H 352.994 -0.769751 -2.4279 0
M  V30 3664 H 353.777 -2.4411 -2.41381 0
M  V30 3665 N 356.222 1.38976 -0.743202 0
M  V30 3666 C 357.468 2.01114 -0.304109 0
M  V30 3667 C 357.823 1.57929 1.09892 0
M  V30 3668 O 357.116 0.801983 1.74008 0
M  V30 3669 C 357.31 3.55647 -0.353517 0
M  V30 3670 C 357.139 4.13837 -1.75981 0
M  V30 3671 C 355.909 4.46062 -2.37395 0
M  V30 3672 C 358.107 4.36812 -2.71477 0
M  V30 3673 N 356.089 4.898 -3.70093 0
M  V30 3674 C 357.46 4.82844 -3.88923 0
M  V30 3675 C 359.515 4.18893 -2.69134 0
M  V30 3676 C 358.218 5.12837 -5.04371 0
M  V30 3677 C 360.244 4.50005 -3.83731 0
M  V30 3678 C 359.606 4.96251 -4.99914 0
M  V30 3679 H 355.705 0.765931 -0.157716 0
M  V30 3680 H 358.289 1.68763 -0.970931 0
M  V30 3681 H 356.46 3.87368 0.282987 0
M  V30 3682 H 358.192 4.04564 0.104904 0
M  V30 3683 H 354.947 4.34145 -1.89248 0
M  V30 3684 H 355.371 5.16016 -4.38242 0
M  V30 3685 H 360.013 3.82335 -1.80499 0
M  V30 3686 H 357.731 5.48297 -5.9363 0
M  V30 3687 H 361.317 4.37755 -3.83225 0
M  V30 3688 H 360.197 5.19867 -5.87118 0
M  V30 3689 N 357.7 0.491464 1.49741 0
M  V30 3690 C 358.648 -0.305837 2.30581 0
M  V30 3691 C 359.642 -0.971642 1.38764 0
M  V30 3692 O 360.848 -0.90042 1.5586 0
M  V30 3693 H 357.223 -0.117482 0.742767 0
M  V30 3694 H 359.194 0.396093 2.95759 0
M  V30 3695 C 357.943 -1.36319 3.19863 0
M  V30 3696 H 357.266 -0.860258 3.90435 0
M  V30 3697 H 358.706 -1.89323 3.79385 0
M  V30 3698 C 357.165 -2.37621 2.38826 0
M  V30 3699 O 357.695 -3.43311 2.08567 0
M  V30 3700 N 355.901 -2.09849 2.01026 0
M  V30 3701 H 355.448 -1.23922 2.25834 0
M  V30 3702 H 355.406 -2.77859 1.47112 0
M  V30 3703 N 359.178 -1.55987 0.224894 0
M  V30 3704 C 360.426 -1.97998 -0.405099 0
M  V30 3705 C 360.747 -1.11387 -1.60056 0
M  V30 3706 O 360.017 -0.191645 -1.9496 0
M  V30 3707 H 358.597 -0.731235 -0.152658 0
M  V30 3708 H 361.259 -1.92279 0.318567 0
M  V30 3709 H 360.355 -3.03463 -0.729167 0
M  V30 3710 N 360.656 0.0484629 -1.57525 0
M  V30 3711 C 361.619 1.03956 -2.04269 0
M  V30 3712 C 362.619 1.30211 -0.943496 0
M  V30 3713 O 363.809 1.25539 -1.20771 0
M  V30 3714 C 360.941 2.37742 -2.44319 0
M  V30 3715 H 362.134 0.636182 -2.93075 0
M  V30 3716 H 359.687 0.294811 -1.53494 0
M  V30 3717 H 360.422 2.82866 -1.5861 0
M  V30 3718 H 360.207 2.20021 -3.24551 0
M  V30 3719 H 361.697 3.08936 -2.80978 0
M  V30 3720 N 362.134 1.5431 0.320358 0
M  V30 3721 C 363.067 1.78769 1.41834 0
M  V30 3722 C 364.045 0.63783 1.49568 0
M  V30 3723 O 365.229 0.875628 1.66928 0
M  V30 3724 C 362.356 1.90712 2.79905 0
M  V30 3725 C 361.402 3.13023 2.89687 0
M  V30 3726 S 362.235 4.71554 2.53766 0
M  V30 3727 C 363.391 4.86408 3.93902 0
M  V30 3728 H 363.624 2.71619 1.20874 0
M  V30 3729 H 361.157 1.45474 0.517377 0
M  V30 3730 H 363.115 1.98279 3.59438 0
M  V30 3731 H 361.776 0.988343 2.98145 0
M  V30 3732 H 360.969 3.18124 3.90913 0
M  V30 3733 H 360.571 3.03803 2.18128 0
M  V30 3734 H 362.863 4.69241 4.88691 0
M  V30 3735 H 363.806 5.88508 3.93782 0
M  V30 3736 H 364.214 4.14689 3.83005 0
M  V30 3737 N 363.613 -0.582584 1.46437 0
M  V30 3738 C 365.029 -0.905962 1.31394 0
M  V30 3739 C 365.229 -1.99468 0.285476 0
M  V30 3740 O 364.285 -2.50566 -0.311914 0
M  V30 3741 C 365.598 -1.3232 2.70022 0
M  V30 3742 C 367.146 -1.43604 2.78113 0
M  V30 3743 C 367.621 -1.88694 4.17323 0
M  V30 3744 N 369.112 -1.95887 4.19741 0
M  V30 3745 C 369.847 -2.32051 5.24347 0
M  V30 3746 N 369.343 -2.67006 6.39281 0
M  V30 3747 N 371.136 -2.32606 5.11713 0
M  V30 3748 H 363.287 0.1366 2.1196 0
M  V30 3749 H 365.55 -0.00155736 0.947999 0
M  V30 3750 H 365.256 -0.597242 3.46592 0
M  V30 3751 H 365.13 -2.28469 3.00136 0
M  V30 3752 H 367.517 -2.15286 2.01832 0
M  V30 3753 H 367.598 -0.457059 2.51684 0
M  V30 3754 H 367.242 -1.1759 4.941 0
M  V30 3755 H 367.172 -2.8755 4.4116 0
M  V30 3756 H 369.663 -1.71362 3.36814 0
M  V30 3757 H 369.976 -2.93554 7.14875 0
M  V30 3758 H 368.321 -2.64644 6.42642 0
M  V30 3759 H 371.512 -2.04721 4.2096 0
M  V30 3760 H 371.685 -2.60462 5.93349 0
M  V30 3761 N 365.091 -1.34144 -0.827227 0
M  V30 3762 C 366.338 -1.26258 -1.58319 0
M  V30 3763 C 366.666 0.168595 -1.93768 0
M  V30 3764 O 365.921 1.12877 -1.59866 0
M  V30 3765 C 366.22 -2.09464 -2.89585 0
M  V30 3766 C 365.886 -3.58521 -2.73448 0
M  V30 3767 C 364.548 -3.99155 -2.68754 0
M  V30 3768 C 366.9 -4.53189 -2.57428 0
M  V30 3769 C 364.228 -5.32656 -2.45957 0
M  V30 3770 C 366.58 -5.86864 -2.36163 0
M  V30 3771 C 365.244 -6.26667 -2.29879 0
M  V30 3772 H 364.514 -0.462013 -0.579332 0
M  V30 3773 H 367.161 -1.65845 -0.95748 0
M  V30 3774 H 365.466 -1.62692 -3.56425 0
M  V30 3775 H 367.163 -2.00712 -3.47154 0
M  V30 3776 H 363.753 -3.26264 -2.77939 0
M  V30 3777 H 367.937 -4.22696 -2.60081 0
M  V30 3778 H 363.193 -5.62519 -2.39546 0
M  V30 3779 H 367.367 -6.59813 -2.22754 0
M  V30 3780 H 364.994 -7.30049 -2.11975 0
M  V30 3781 N 366.569 1.04691 -1.17803 0
M  V30 3782 C 367.799 1.81183 -0.992788 0
M  V30 3783 C 368.207 1.8347 0.462098 0
M  V30 3784 O 367.55 1.2643 1.33271 0
M  V30 3785 C 367.612 3.28363 -1.46349 0
M  V30 3786 C 367.276 3.49749 -2.94151 0
M  V30 3787 C 368.273 3.41456 -3.92051 0
M  V30 3788 C 365.958 3.76548 -3.32441 0
M  V30 3789 C 367.952 3.59656 -5.26238 0
M  V30 3790 C 365.639 3.94396 -4.66792 0
M  V30 3791 C 366.637 3.8595 -5.635 0
M  V30 3792 O 366.325 4.03294 -6.9542 0
M  V30 3793 H 366.057 0.577622 -0.351182 0
M  V30 3794 H 368.611 1.32876 -1.5663 0
M  V30 3795 H 366.841 3.77609 -0.833574 0
M  V30 3796 H 368.53 3.86395 -1.24313 0
M  V30 3797 H 369.296 3.20723 -3.63815 0
M  V30 3798 H 365.175 3.82224 -2.57732 0
M  V30 3799 H 368.719 3.52979 -6.01707 0
M  V30 3800 H 364.616 4.14622 -4.94731 0
M  V30 3801 H 365.384 4.2049 -7.02232 0
M  V30 3802 N 368.047 0.979072 1.23499 0
M  V30 3803 C 368.979 0.476271 2.24197 0
M  V30 3804 C 369.992 -0.421166 1.57258 0
M  V30 3805 O 371.181 -0.225515 1.7707 0
M  V30 3806 C 368.281 -0.330503 3.37285 0
M  V30 3807 C 367.454 0.559744 4.33804 0
M  V30 3808 C 366.513 -0.192954 5.25846 0
M  V30 3809 O 365.539 0.416978 5.67671 0
M  V30 3810 N 366.741 -1.47932 5.61334 0
M  V30 3811 H 369.506 1.34211 2.67969 0
M  V30 3812 H 367.067 0.852189 1.37657 0
M  V30 3813 H 369.059 -0.842361 3.95836 0
M  V30 3814 H 367.629 -1.09734 2.92707 0
M  V30 3815 H 366.849 1.25245 3.73775 0
M  V30 3816 H 368.137 1.1665 4.95248 0
M  V30 3817 H 367.535 -1.9964 5.29302 0
M  V30 3818 H 366.092 -1.93664 6.22364 0
M  V30 3819 N 369.525 -1.3858 0.750561 0
M  V30 3820 C 370.458 -2.28095 0.0693139 0
M  V30 3821 C 371.436 -1.45217 -0.731491 0
M  V30 3822 O 372.62 -1.74587 -0.71076 0
M  V30 3823 C 369.747 -3.26282 -0.90871 0
M  V30 3824 C 368.793 -4.26056 -0.194507 0
M  V30 3825 S 369.626 -5.24026 1.10257 0
M  V30 3826 C 370.782 -6.2577 0.127542 0
M  V30 3827 H 371.015 -2.85526 0.8284 0
M  V30 3828 H 368.548 -1.44536 0.543014 0
M  V30 3829 H 370.506 -3.83367 -1.46766 0
M  V30 3830 H 369.167 -2.6784 -1.64075 0
M  V30 3831 H 368.36 -4.95249 -0.93512 0
M  V30 3832 H 367.962 -3.72852 0.292837 0
M  V30 3833 H 370.254 -6.73796 -0.707516 0
M  V30 3834 H 371.197 -7.03712 0.787044 0
M  V30 3835 H 371.605 -5.63938 -0.251803 0
M  V30 3836 N 371.003 -0.499398 -1.49478 0
M  V30 3837 C 371.953 0.299103 -2.2603 0
M  V30 3838 C 372.937 0.936934 -1.30807 0
M  V30 3839 O 374.129 0.844798 -1.55538 0
M  V30 3840 C 371.258 1.36391 -3.15044 0
M  V30 3841 C 370.344 0.732398 -4.17728 0
M  V30 3842 N 370.735 -0.164028 -5.05534 0
M  V30 3843 C 369.033 0.993162 -4.34801 0
M  V30 3844 C 369.734 -0.525345 -5.79323 0
M  V30 3845 N 368.71 0.106348 -5.43496 0
M  V30 3846 H 372.512 -0.391003 -2.91287 0
M  V30 3847 H 370.026 -0.31537 -1.59308 0
M  V30 3848 H 372.023 1.94939 -3.68516 0
M  V30 3849 H 370.683 2.05571 -2.51338 0
M  V30 3850 H 371.694 -0.534736 -5.15132 0
M  V30 3851 H 368.371 1.67783 -3.82302 0
M  V30 3852 H 369.761 -1.25862 -6.60006 0
M  V30 3853 N 372.481 1.55866 -0.233164 0
M  V30 3854 C 373.411 2.23783 0.666599 0
M  V30 3855 C 374.392 1.21343 1.19205 0
M  V30 3856 O 375.577 1.4996 1.23392 0
M  V30 3857 C 372.707 2.92671 1.86978 0
M  V30 3858 C 371.661 4.01682 1.47768 0
M  V30 3859 C 370.987 4.57926 2.76058 0
M  V30 3860 C 372.287 5.18126 0.658993 0
M  V30 3861 H 373.981 2.99232 0.100306 0
M  V30 3862 H 371.527 1.43924 0.046804 0
M  V30 3863 H 373.48 3.3888 2.50476 0
M  V30 3864 H 372.204 2.14688 2.46123 0
M  V30 3865 H 370.863 3.56222 0.866106 0
M  V30 3866 H 370.511 3.76659 3.33372 0
M  V30 3867 H 370.211 5.31505 2.50552 0
M  V30 3868 H 371.735 5.06859 3.40479 0
M  V30 3869 H 373.149 5.60644 1.19795 0
M  V30 3870 H 371.546 5.98009 0.500552 0
M  V30 3871 H 372.616 4.83763 -0.331856 0
M  V30 3872 N 373.959 -0.0401083 1.57549 0
M  V30 3873 C 375.187 -0.745196 1.93014 0
M  V30 3874 C 375.602 -1.6948 0.831984 0
M  V30 3875 O 374.959 -1.81482 -0.192463 0
M  V30 3876 C 375.01 -1.51176 3.28372 0
M  V30 3877 O 374.731 -0.600284 4.33968 0
M  V30 3878 C 376.232 -2.315 3.78051 0
M  V30 3879 H 373.452 -0.210088 0.637263 0
M  V30 3880 H 375.996 -0.000924689 2.045 0
M  V30 3881 H 374.151 -2.20801 3.18317 0
M  V30 3882 H 374.565 -1.13669 5.12035 0
M  V30 3883 H 376.039 -2.80697 4.75303 0
M  V30 3884 H 376.516 -3.12436 3.08675 0
M  V30 3885 H 377.122 -1.66971 3.91153 0
M  V30 3886 N 375.437 -1.54477 -0.31217 0
M  V30 3887 C 376.686 -1.72438 -1.04633 0
M  V30 3888 C 376.999 -0.511163 -1.88803 0
M  V30 3889 O 378.205 -0.572341 -2.65399 0
M  V30 3890 C 376.661 -3.05043 -1.9099 0
M  V30 3891 C 376.269 -4.33806 -1.11877 0
M  V30 3892 C 378.013 -3.32364 -2.64073 0
M  V30 3893 C 375.92 -5.57467 -1.97445 0
M  V30 3894 H 374.85 -0.642647 -0.394361 0
M  V30 3895 H 377.501 -1.80966 -0.303929 0
M  V30 3896 H 375.883 -2.90451 -2.69173 0
M  V30 3897 H 377.057 -4.59199 -0.383843 0
M  V30 3898 H 375.372 -4.13336 -0.504252 0
M  V30 3899 H 377.969 -4.21951 -3.28423 0
M  V30 3900 H 378.312 -2.50745 -3.32314 0
M  V30 3901 H 378.845 -3.47875 -1.92944 0
M  V30 3902 H 375.584 -6.41722 -1.33692 0
M  V30 3903 H 375.104 -5.36277 -2.6864 0
M  V30 3904 H 376.783 -5.94303 -2.5576 0
M  V30 3905 N 376.915 0.57481 -1.46744 0
M  V30 3906 C 378.326 1.15695 -1.46532 0
M  V30 3907 C 378.677 1.95068 -0.210425 0
M  V30 3908 O 377.802 2.05241 0.685944 0
M  V30 3909 C 378.397 2.1048 -2.65487 0
M  V30 3910 C 376.956 2.64002 -2.68291 0
M  V30 3911 C 376.103 1.40026 -2.39349 0
M  V30 3912 H 379.054 0.362325 -1.54509 0
M  V30 3913 H 379.075 2.94074 -2.41455 0
M  V30 3914 H 378.587 1.52683 -3.56805 0
M  V30 3915 H 376.688 3.25646 -1.81067 0
M  V30 3916 H 376.801 3.06197 -3.68483 0
M  V30 3917 H 375.165 1.70106 -1.89568 0
M  V30 3918 H 375.948 0.840485 -3.32852 0
M  V30 3919 N 378.394 1.34581 0.820102 0
M  V30 3920 C 379.642 1.26845 1.57336 0
M  V30 3921 C 379.963 -0.160667 1.94337 0
M  V30 3922 O 379.233 -1.09396 1.6251 0
M  V30 3923 H 377.813 0.466514 0.583415 0
M  V30 3924 H 380.475 1.68526 0.979027 0
M  V30 3925 H 379.571 1.87513 2.4949 0
M  V30 3926 N 379.872 -1.04064 1.18357 0
M  V30 3927 C 381.288 -1.2947 0.933258 0
M  V30 3928 C 381.488 -1.97466 -0.401169 0
M  V30 3929 O 380.544 -2.25528 -1.13549 0
M  V30 3930 C 381.857 -2.15337 2.09882 0
M  V30 3931 C 383.405 -2.28683 2.13712 0
M  V30 3932 C 383.88 -3.17917 3.29686 0
M  V30 3933 N 385.371 -3.25504 3.29547 0
M  V30 3934 C 386.106 -3.94706 4.15926 0
M  V30 3935 N 385.602 -4.66239 5.12439 0
M  V30 3936 N 387.395 -3.90986 4.0384 0
M  V30 3937 H 379.546 -0.583359 2.04232 0
M  V30 3938 H 381.809 -0.319921 0.892387 0
M  V30 3939 H 381.515 -1.72682 3.06389 0
M  V30 3940 H 381.389 -3.16015 2.05947 0
M  V30 3941 H 383.776 -2.70575 1.17784 0
M  V30 3942 H 383.857 -1.27596 2.21705 0
M  V30 3943 H 383.501 -2.76736 4.25887 0
M  V30 3944 H 383.431 -4.19036 3.1893 0
M  V30 3945 H 385.922 -2.74547 2.59677 0
M  V30 3946 H 386.235 -5.16638 5.74722 0
M  V30 3947 H 384.58 -4.65143 5.16398 0
M  V30 3948 H 387.771 -3.34234 3.27727 0
M  V30 3949 H 387.944 -4.44646 4.71375 0
M  V30 3950 N 381.35 -0.985608 -1.22978 0
M  V30 3951 C 382.28 -0.549649 -2.26939 0
M  V30 3952 C 383.261 0.419803 -1.64838 0
M  V30 3953 O 384.446 0.31203 -1.91677 0
M  V30 3954 C 381.576 0.143652 -3.47003 0
M  V30 3955 C 380.53 -0.743606 -4.21491 0
M  V30 3956 C 379.856 0.0822027 -5.34637 0
M  V30 3957 C 381.156 -2.03694 -4.80943 0
M  V30 3958 H 382.85 -1.41862 -2.63658 0
M  V30 3959 H 380.396 -0.683571 -1.26741 0
M  V30 3960 H 382.349 0.459985 -4.18882 0
M  V30 3961 H 381.073 1.04711 -3.09359 0
M  V30 3962 H 379.732 -1.04347 -3.51436 0
M  V30 3963 H 379.38 0.986359 -4.93234 0
M  V30 3964 H 379.08 -0.508377 -5.85397 0
M  V30 3965 H 380.604 0.392797 -6.09335 0
M  V30 3966 H 382.018 -1.78504 -5.44802 0
M  V30 3967 H 380.415 -2.57573 -5.42011 0
M  V30 3968 H 381.485 -2.72042 -4.01399 0
M  V30 3969 N 382.828 1.3818 -0.7579 0
M  V30 3970 C 384.105 1.94106 -0.241306 0
M  V30 3971 C 384.485 1.69282 1.26122 0
M  V30 3972 O 383.833 1.03378 2.03777 0
M  V30 3973 C 384.043 3.43809 -0.59967 0
M  V30 3974 C 385.391 4.20868 -0.561717 0
M  V30 3975 O 386.415 3.5211 -0.538222 0
M  V30 3976 O 385.274 5.43451 -0.576478 0
M  V30 3977 H 382.368 0.825376 -0.0518042 0
M  V30 3978 H 384.914 1.47548 -0.838315 0
M  V30 3979 H 383.686 3.55403 -1.6372 0
M  V30 3980 H 383.309 3.97592 0.0251197 0
M  V30 3981 N 384.306 0.507319 1.49211 0
M  V30 3982 C 385.552 -0.0350047 2.0277 0
M  V30 3983 C 385.885 -1.3606 1.38569 0
M  V30 3984 O 385.16 -1.87321 0.523542 0
M  V30 3985 C 385.443 -0.180916 3.59645 0
M  V30 3986 C 385.296 1.16825 4.34364 0
M  V30 3987 C 386.615 -0.918558 4.30407 0
M  V30 3988 H 383.734 -0.0112473 0.736914 0
M  V30 3989 H 386.376 0.659956 1.7817 0
M  V30 3990 H 384.526 -0.772826 3.80736 0
M  V30 3991 H 386.198 1.79952 4.24753 0
M  V30 3992 H 384.441 1.75594 3.96673 0
M  V30 3993 H 385.112 1.01939 5.42506 0
M  V30 3994 H 387.588 -0.41649 4.1401 0
M  V30 3995 H 386.464 -0.989505 5.39907 0
M  V30 3996 H 386.725 -1.96373 3.96093 0
M  V30 3997 N 385.784 -1.5574 0.241426 0
M  V30 3998 C 386.717 -2.17168 -0.700935 0
M  V30 3999 C 387.695 -1.12206 -1.1768 0
M  V30 4000 O 388.879 -1.40565 -1.25593 0
M  V30 4001 C 386.006 -2.76796 -1.95196 0
M  V30 4002 C 385.052 -3.94764 -1.61442 0
M  V30 4003 S 385.885 -5.30613 -0.72182 0
M  V30 4004 C 387.041 -5.93691 -1.98197 0
M  V30 4005 H 387.274 -2.96761 -0.178882 0
M  V30 4006 H 384.807 -1.54378 0.0259299 0
M  V30 4007 H 386.765 -3.11787 -2.67019 0
M  V30 4008 H 385.426 -1.9716 -2.44514 0
M  V30 4009 H 384.619 -4.35057 -2.54443 0
M  V30 4010 H 384.221 -3.61022 -0.976672 0
M  V30 4011 H 386.513 -6.10874 -2.92983 0
M  V30 4012 H 387.456 -6.89258 -1.62262 0
M  V30 4013 H 387.864 -5.22709 -2.13156 0
M  V30 4014 N 387.262 0.0317525 -1.57568 0
M  V30 4015 C 388.51 0.721676 -1.88776 0
M  V30 4016 C 388.831 1.76039 -0.838772 0
M  V30 4017 O 388.101 1.95482 0.127935 0
M  V30 4018 H 386.681 0.269534 -0.696678 0
M  V30 4019 H 389.343 -0.00165879 -1.949 0
M  V30 4020 H 388.439 1.21293 -2.87566 0
M  V30 4021 N 388.74 1.54641 0.303973 0
M  V30 4022 C 389.703 1.84646 1.35789 0
M  V30 4023 C 390.703 0.7192 1.4382 0
M  V30 4024 O 391.893 0.987491 1.43507 0
M  V30 4025 C 389.025 2.02407 2.74307 0
M  V30 4026 H 390.218 2.78829 1.10429 0
M  V30 4027 H 387.771 1.46658 0.540487 0
M  V30 4028 H 388.506 1.10502 3.04893 0
M  V30 4029 H 388.291 2.84453 2.69868 0
M  V30 4030 H 389.781 2.27002 3.50514 0
M  V30 4031 N 390.218 -0.567019 1.47046 0
M  V30 4032 C 391.443 -1.3551 1.57009 0
M  V30 4033 C 391.868 -1.86841 0.217259 0
M  V30 4034 O 391.226 -1.62435 -0.805268 0
M  V30 4035 C 391.274 -2.50777 2.5912 0
M  V30 4036 O 390.378 -3.52706 2.13711 0
M  V30 4037 H 389.719 -0.402919 0.52778 0
M  V30 4038 H 392.249 -0.686241 1.92748 0
M  V30 4039 H 392.259 -2.97481 2.79229 0
M  V30 4040 H 390.934 -2.12771 3.57353 0
M  V30 4041 H 389.511 -3.12374 2.03659 0
M  V30 4042 N 391.696 -1.35014 -0.812953 0
M  V30 4043 C 392.626 -1.30069 -1.93919 0
M  V30 4044 C 393.607 -0.176275 -1.69184 0
M  V30 4045 O 394.792 -0.370227 -1.90638 0
M  V30 4046 C 391.922 -1.06547 -3.30552 0
M  V30 4047 C 390.876 -2.15561 -3.69753 0
M  V30 4048 C 390.202 -1.77214 -5.04479 0
M  V30 4049 C 391.502 -3.57476 -3.808 0
M  V30 4050 H 393.196 -2.24303 -1.98314 0
M  V30 4051 H 390.742 -1.07977 -0.952736 0
M  V30 4052 H 392.695 -1.01729 -4.08937 0
M  V30 4053 H 391.419 -0.0875719 -3.26483 0
M  V30 4054 H 390.078 -2.19466 -2.9365 0
M  V30 4055 H 389.726 -0.780589 -4.96906 0
M  V30 4056 H 389.426 -2.50184 -5.31678 0
M  V30 4057 H 390.95 -1.7391 -5.8531 0
M  V30 4058 H 392.364 -3.55929 -4.4943 0
M  V30 4059 H 390.761 -4.29152 -4.19462 0
M  V30 4060 H 391.831 -3.94091 -2.82525 0
M  V30 4061 N 393.175 1.03435 -1.18907 0
M  V30 4062 C 394.586 1.58195 -0.991523 0
M  V30 4063 C 394.937 1.90801 0.457081 0
M  V30 4064 O 394.062 1.70272 1.33553 0
M  V30 4065 C 394.657 2.87432 -1.79355 0
M  V30 4066 C 393.216 3.38785 -1.64017 0
M  V30 4067 C 392.363 2.12292 -1.78402 0
M  V30 4068 H 395.314 0.860299 -1.33359 0
M  V30 4069 H 395.335 3.58096 -1.28638 0
M  V30 4070 H 394.847 2.63669 -2.84781 0
M  V30 4071 H 392.948 3.67547 -0.611536 0
M  V30 4072 H 393.061 4.12186 -2.44212 0
M  V30 4073 H 391.425 2.23901 -1.2141 0
M  V30 4074 H 392.208 1.90977 -2.85277 0
M  V30 4075 N 394.653 0.992116 1.22453 0
M  V30 4076 C 395.901 0.666215 1.90804 0
M  V30 4077 C 396.222 -0.804152 1.77647 0
M  V30 4078 O 395.492 -1.57629 1.16318 0
M  V30 4079 H 394.072 0.243423 0.706225 0
M  V30 4080 H 396.734 1.25845 1.48825 0
M  V30 4081 H 395.83 0.928069 2.97982 0
M  V30 4082 N 396.131 -1.37776 0.765217 0
M  V30 4083 C 397.061 -2.32945 0.160953 0
M  V30 4084 C 398.042 -1.55454 -0.690516 0
M  V30 4085 O 399.227 -1.83721 -0.629318 0
M  V30 4086 C 396.357 -3.39669 -0.724031 0
M  V30 4087 C 395.311 -4.27992 0.0256173 0
M  V30 4088 C 394.637 -5.25673 -0.978383 0
M  V30 4089 C 395.937 -5.08309 1.20082 0
M  V30 4090 H 397.631 -2.83728 0.955969 0
M  V30 4091 H 395.177 -1.36416 0.461149 0
M  V30 4092 H 397.13 -4.05219 -1.15652 0
M  V30 4093 H 395.854 -2.87396 -1.5515 0
M  V30 4094 H 394.513 -3.63964 0.438812 0
M  V30 4095 H 394.161 -4.69682 -1.80022 0
M  V30 4096 H 393.861 -5.85625 -0.481378 0
M  V30 4097 H 395.385 -5.94098 -1.40995 0
M  V30 4098 H 396.799 -5.67034 0.845307 0
M  V30 4099 H 395.196 -5.77554 1.62947 0
M  V30 4100 H 396.266 -4.41365 2.00811 0
M  V30 4101 N 397.609 -0.515225 -1.4894 0
M  V30 4102 C 399.02 -0.0710067 -1.86565 0
M  V30 4103 C 399.371 1.34733 -1.42623 0
M  V30 4104 O 398.496 2.00653 -0.810379 0
M  V30 4105 C 399.091 -0.122083 -3.3858 0
M  V30 4106 C 397.65 0.266863 -3.75453 0
M  V30 4107 C 396.797 -0.488376 -2.72966 0
M  V30 4108 H 399.748 -0.727266 -1.41055 0
M  V30 4109 H 399.769 0.669818 -3.74558 0
M  V30 4110 H 399.281 -1.15448 -3.70531 0
M  V30 4111 H 397.382 1.30196 -3.49113 0
M  V30 4112 H 397.495 -0.0624811 -4.79059 0
M  V30 4113 H 395.859 0.0635622 -2.54621 0
M  V30 4114 H 396.642 -1.52113 -3.07761 0
M  V30 4115 N 399.087 1.5561 -0.249682 0
M  V30 4116 C 400.333 1.99306 0.374841 0
M  V30 4117 C 400.666 1.13767 1.57387 0
M  V30 4118 O 399.941 0.201711 1.93451 0
M  V30 4119 C 400.224 3.51507 0.781986 0
M  V30 4120 C 400.077 4.4781 -0.422629 0
M  V30 4121 C 401.396 4.08884 1.62793 0
M  V30 4122 H 398.515 0.724572 0.134773 0
M  V30 4123 H 401.157 1.86719 -0.351549 0
M  V30 4124 H 399.307 3.62363 1.4009 0
M  V30 4125 H 400.979 4.48931 -1.06108 0
M  V30 4126 H 399.222 4.20518 -1.06524 0
M  V30 4127 H 399.893 5.51919 -0.0943766 0
M  V30 4128 H 402.369 4.01147 1.10547 0
M  V30 4129 H 401.245 5.1564 1.88166 0
M  V30 4130 H 401.506 3.57515 2.60068 0
M  V30 4131 N 400.565 -0.0233959 1.57583 0
M  V30 4132 C 401.811 -0.714119 1.89811 0
M  V30 4133 C 402.144 -1.74702 0.848113 0
M  V30 4134 O 401.419 -1.94023 -0.136135 0
M  V30 4135 C 401.702 -1.37853 3.32669 0
M  V30 4136 C 401.555 -0.358764 4.48367 0
M  V30 4137 C 402.874 -2.31101 3.7454 0
M  V30 4138 H 399.993 -0.25814 0.690314 0
M  V30 4139 H 402.635 0.0230927 1.89986 0
M  V30 4140 H 400.785 -2.00689 3.3265 0
M  V30 4141 H 402.457 0.268115 4.6052 0
M  V30 4142 H 400.7 0.321387 4.32608 0
M  V30 4143 H 401.371 -0.862242 5.45224 0
M  V30 4144 H 403.847 -1.78304 3.75961 0
M  V30 4145 H 402.723 -2.74567 4.75294 0
M  V30 4146 H 402.984 -3.18018 3.0711 0
M  V30 4147 N 402.043 -1.548 -0.295768 0
M  V30 4148 C 402.991 -1.86874 -1.38495 0
M  V30 4149 C 403.985 -0.742938 -1.52239 0
M  V30 4150 O 405.191 -0.926999 -1.54294 0
M  V30 4151 H 401.566 -0.592786 -0.462719 0
M  V30 4152 H 403.537 -2.77904 -1.08682 0
M  V30 4153 C 402.286 -2.13732 -2.74252 0
M  V30 4154 H 401.609 -2.99835 -2.64459 0
M  V30 4155 H 403.049 -2.4011 -3.49461 0
M  V30 4156 C 401.508 -0.937539 -3.23592 0
M  V30 4157 O 402.038 -0.160665 -4.01379 0
M  V30 4158 N 400.244 -0.741478 -2.80981 0
M  V30 4159 H 399.791 -1.37489 -2.1784 0
M  V30 4160 H 399.749 0.0597103 -3.14343 0
M  V30 4161 N 403.521 0.559213 -1.47345 0
M  V30 4162 C 404.77 1.31281 -1.53128 0
M  V30 4163 C 405.083 1.94602 -0.197344 0
M  V30 4164 O 406.289 2.71173 -0.133154 0
M  V30 4165 C 404.745 2.38051 -2.69925 0
M  V30 4166 C 404.353 1.8093 -4.0984 0
M  V30 4167 C 406.097 3.14604 -2.84999 0
M  V30 4168 C 404.004 2.85468 -5.1794 0
M  V30 4169 H 402.934 0.493614 -0.569966 0
M  V30 4170 H 405.585 0.594155 -1.73615 0
M  V30 4171 H 403.967 3.12822 -2.42814 0
M  V30 4172 H 405.141 1.12544 -4.46845 0
M  V30 4173 H 403.456 1.16967 -3.99634 0
M  V30 4174 H 406.053 3.92666 -3.62929 0
M  V30 4175 H 406.396 3.68665 -1.93369 0
M  V30 4176 H 406.929 2.46945 -3.1187 0
M  V30 4177 H 403.668 2.36264 -6.1144 0
M  V30 4178 H 403.188 3.52269 -4.85455 0
M  V30 4179 H 404.867 3.48996 -5.44803 0
M  V30 4180 N 404.999 1.35443 0.805782 0
M  V30 4181 C 406.247 1.28507 1.55982 0
M  V30 4182 C 406.568 -0.140046 1.94496 0
M  V30 4183 O 405.838 -1.07666 1.63661 0
M  V30 4184 H 404.418 0.472676 0.578434 0
M  V30 4185 H 407.08 1.69555 0.961098 0
M  V30 4186 H 406.176 1.90148 2.47488 0
M  V30 4187 N 406.477 -1.02803 1.19454 0
M  V30 4188 C 407.724 -1.76217 0.997693 0
M  V30 4189 C 408.052 -1.887 -0.47144 0
M  V30 4190 O 407.307 -1.4011 -1.3663 0
M  V30 4191 C 407.606 -3.18941 1.6128 0
M  V30 4192 C 407.272 -3.26463 3.11019 0
M  V30 4193 C 405.934 -3.28223 3.51885 0
M  V30 4194 C 408.286 -3.25542 4.07028 0
M  V30 4195 C 405.614 -3.26719 4.8731 0
M  V30 4196 C 407.966 -3.25579 5.42385 0
M  V30 4197 C 406.63 -3.25637 5.82681 0
M  V30 4198 H 405.9 -0.644823 0.365082 0
M  V30 4199 H 408.547 -1.20655 1.4871 0
M  V30 4200 H 406.852 -3.77587 1.04572 0
M  V30 4201 H 408.549 -3.74415 1.43577 0
M  V30 4202 H 405.139 -3.25822 2.78457 0
M  V30 4203 H 409.323 -3.23362 3.76498 0
M  V30 4204 H 404.579 -3.25089 5.1781 0
M  V30 4205 H 408.753 -3.23817 6.16535 0
M  V30 4206 H 406.38 -3.24226 6.87591 0
M  V30 4207 N 407.956 -0.998596 -1.21925 0
M  V30 4208 C 409.181 -0.696015 -1.95372 0
M  V30 4209 C 409.606 0.733826 -1.73195 0
M  V30 4210 O 408.964 1.50242 -1.01474 0
M  V30 4211 C 409.012 -1.01466 -3.4603 0
M  V30 4212 O 408.116 -0.116415 -4.12236 0
M  V30 4213 H 407.457 -0.259938 -0.611006 0
M  V30 4214 H 409.987 -1.33711 -1.54863 0
M  V30 4215 H 409.997 -0.958855 -3.96573 0
M  V30 4216 H 408.672 -2.05653 -3.61497 0
M  V30 4217 H 407.249 -0.228193 -3.72201 0
M  V30 4218 N 409.434 1.37368 -0.772513 0
M  V30 4219 C 410.85 1.53059 -0.452231 0
M  V30 4220 C 411.05 1.73065 1.03203 0
M  V30 4221 O 410.106 1.75245 1.81784 0
M  V30 4222 C 411.419 2.72659 -1.26797 0
M  V30 4223 C 412.967 2.86521 -1.25995 0
M  V30 4224 C 413.442 4.09105 -2.05905 0
M  V30 4225 N 414.933 4.16219 -2.03263 0
M  V30 4226 C 415.668 5.10107 -2.61875 0
M  V30 4227 N 415.164 6.09547 -3.29278 0
M  V30 4228 N 416.957 5.02596 -2.51701 0
M  V30 4229 H 409.108 1.22634 -1.7342 0
M  V30 4230 H 411.371 0.597206 -0.736239 0
M  V30 4231 H 411.077 2.64343 -2.31982 0
M  V30 4232 H 410.951 3.66363 -0.897672 0
M  V30 4233 H 413.338 2.94308 -0.216081 0
M  V30 4234 H 413.419 1.93774 -1.66989 0
M  V30 4235 H 413.063 4.0208 -3.10313 0
M  V30 4236 H 412.993 5.00968 -1.62292 0
M  V30 4237 H 415.484 3.45012 -1.54192 0
M  V30 4238 H 415.797 6.77718 -3.71374 0
M  V30 4239 H 414.142 6.09824 -3.33377 0
M  V30 4240 H 417.333 4.23855 -1.98657 0
M  V30 4241 H 417.506 5.75582 -2.97673 0
M  V30 4242 N 410.912 0.523116 1.48665 0
M  V30 4243 C 411.862 -0.263106 2.26477 0
M  V30 4244 C 412.846 -0.916005 1.32281 0
M  V30 4245 O 414.038 -0.819946 1.56863 0
M  V30 4246 C 411.167 -1.31361 3.17174 0
M  V30 4247 C 410.253 -0.665849 4.1884 0
M  V30 4248 N 410.644 0.244434 5.05209 0
M  V30 4249 C 408.942 -0.923863 4.36326 0
M  V30 4250 C 409.643 0.617443 5.78414 0
M  V30 4251 N 408.619 -0.0198686 5.43596 0
M  V30 4252 H 412.421 0.437295 2.90629 0
M  V30 4253 H 409.935 0.340675 1.58787 0
M  V30 4254 H 411.932 -1.89052 3.71571 0
M  V30 4255 H 410.592 -2.01546 2.54576 0
M  V30 4256 H 411.603 0.616621 5.14216 0
M  V30 4257 H 408.28 -1.6168 3.84923 0
M  V30 4258 H 409.67 1.36346 6.57921 0
M  V30 4259 N 412.39 -1.55475 0.257931 0
M  V30 4260 C 413.32 -2.24815 -0.630912 0
M  V30 4261 C 414.301 -1.23224 -1.17259 0
M  V30 4262 O 415.486 -1.51904 -1.20991 0
M  V30 4263 C 412.616 -2.95609 -1.82298 0
M  V30 4264 C 411.57 -4.03982 -1.41359 0
M  V30 4265 C 410.896 -4.6226 -2.68738 0
M  V30 4266 C 412.196 -5.19109 -0.57648 0
M  V30 4267 H 413.89 -2.99354 -0.0526878 0
M  V30 4268 H 411.436 -1.4398 -0.023901 0
M  V30 4269 H 413.389 -3.42822 -2.45054 0
M  V30 4270 H 412.113 -2.18577 -2.42676 0
M  V30 4271 H 410.772 -3.57555 -0.809324 0
M  V30 4272 H 410.42 -3.81915 -3.27338 0
M  V30 4273 H 410.12 -5.35424 -2.42065 0
M  V30 4274 H 411.644 -5.12212 -3.32372 0
M  V30 4275 H 413.058 -5.62479 -1.10861 0
M  V30 4276 H 411.455 -5.98729 -0.405351 0
M  V30 4277 H 412.525 -4.83174 0.408776 0
M  V30 4278 N 413.868 0.0150385 -1.57593 0
M  V30 4279 C 414.831 0.995996 -2.06428 0
M  V30 4280 C 415.831 1.2818 -0.970903 0
M  V30 4281 O 417.021 1.22949 -1.23406 0
M  V30 4282 C 414.153 2.32506 -2.49307 0
M  V30 4283 H 415.346 0.573873 -2.94358 0
M  V30 4284 H 412.899 0.262186 -1.54085 0
M  V30 4285 H 413.634 2.79438 -1.64575 0
M  V30 4286 H 413.419 2.13087 -3.29145 0
M  V30 4287 H 414.909 3.02906 -2.87468 0
M  V30 4288 N 415.346 1.54954 0.287554 0
M  V30 4289 C 416.592 1.76059 1.01856 0
M  V30 4290 C 416.947 0.547056 1.84459 0
M  V30 4291 O 416.24 -0.460442 1.85985 0
M  V30 4292 C 416.434 2.99833 1.94512 0
M  V30 4293 C 416.263 4.33108 1.21026 0
M  V30 4294 C 415.033 4.96632 0.931896 0
M  V30 4295 C 417.231 5.10694 0.607949 0
M  V30 4296 N 415.213 6.13668 0.168716 0
M  V30 4297 C 416.584 6.19996 -0.0217865 0
M  V30 4298 C 418.639 4.95236 0.514338 0
M  V30 4299 C 417.342 7.15524 -0.736092 0
M  V30 4300 C 419.368 5.91106 -0.186343 0
M  V30 4301 C 418.73 6.99786 -0.804875 0
M  V30 4302 H 414.829 0.696679 0.355193 0
M  V30 4303 H 417.413 1.92441 0.295741 0
M  V30 4304 H 415.584 2.84853 2.64033 0
M  V30 4305 H 417.316 3.09405 2.60865 0
M  V30 4306 H 414.071 4.57255 1.23348 0
M  V30 4307 H 414.495 6.76705 -0.199781 0
M  V30 4308 H 419.137 4.11328 0.978234 0
M  V30 4309 H 416.855 7.98964 -1.21172 0
M  V30 4310 H 420.441 5.81224 -0.258897 0
M  V30 4311 H 419.321 7.72694 -1.33843 0
M  V30 4312 N 416.824 -0.551391 1.4764 0
M  V30 4313 C 418.052 -1.33357 1.58189 0
M  V30 4314 C 418.467 -1.87342 0.234199 0
M  V30 4315 O 417.824 -1.65301 -0.77343 0
M  V30 4316 C 417.875 -2.49942 2.61173 0
M  V30 4317 O 417.596 -1.98187 3.90709 0
M  V30 4318 C 419.097 -3.42072 2.8196 0
M  V30 4319 H 416.317 -0.40631 0.533998 0
M  V30 4320 H 418.861 -0.667367 1.93304 0
M  V30 4321 H 417.016 -3.12489 2.28975 0
M  V30 4322 H 417.43 -2.74342 4.47031 0
M  V30 4323 H 418.904 -4.20278 3.57869 0
M  V30 4324 H 419.381 -3.95978 1.89995 0
M  V30 4325 H 419.987 -2.85336 3.15378 0
M  V30 4326 N 418.302 -1.35869 -0.798587 0
M  V30 4327 C 419.252 -1.25982 -1.90033 0
M  V30 4328 C 420.236 -0.153303 -1.60168 0
M  V30 4329 O 421.428 -0.38527 -1.72756 0
M  V30 4330 C 418.557 -1.04211 -3.27101 0
M  V30 4331 C 417.643 -2.19289 -3.63006 0
M  V30 4332 N 418.034 -3.44559 -3.70287 0
M  V30 4333 C 416.332 -2.10852 -3.93011 0
M  V30 4334 C 417.033 -4.20283 -4.02166 0
M  V30 4335 N 416.009 -3.49124 -4.16669 0
M  V30 4336 H 419.811 -2.20883 -1.93876 0
M  V30 4337 H 417.325 -1.28457 -0.993614 0
M  V30 4338 H 419.322 -0.952155 -4.05881 0
M  V30 4339 H 417.982 -0.102013 -3.2454 0
M  V30 4340 H 418.993 -3.7881 -3.53162 0
M  V30 4341 H 415.67 -1.24744 -3.98428 0
M  V30 4342 H 417.06 -5.28575 -4.14799 0
M  V30 4343 N 419.78 1.02168 -1.19998 0
M  V30 4344 C 421.008 1.79296 -1.03249 0
M  V30 4345 C 421.423 1.84103 0.418502 0
M  V30 4346 O 420.78 1.29031 1.29063 0
M  V30 4347 C 420.831 3.24007 -1.60319 0
M  V30 4348 O 420.552 3.19512 -2.99739 0
M  V30 4349 C 422.053 4.17704 -1.48453 0
M  V30 4350 H 419.273 0.564016 -0.363493 0
M  V30 4351 H 421.817 1.28639 -1.58973 0
M  V30 4352 H 419.972 3.7183 -1.08727 0
M  V30 4353 H 420.386 4.10306 -3.26725 0
M  V30 4354 H 421.86 5.17104 -1.93153 0
M  V30 4355 H 422.337 4.37029 -0.436193 0
M  V30 4356 H 422.943 3.7576 -1.99211 0
M  V30 4357 N 421.258 1.00505 1.21394 0
M  V30 4358 C 422.504 0.688793 1.90745 0
M  V30 4359 C 422.837 -0.778486 1.77914 0
M  V30 4360 O 422.112 -1.56433 1.15581 0
M  V30 4361 C 422.395 1.11063 3.42545 0
M  V30 4362 C 422.248 2.63737 3.64367 0
M  V30 4363 C 423.567 0.673059 4.34923 0
M  V30 4364 H 420.686 0.251702 0.692687 0
M  V30 4365 H 423.328 1.25074 1.43026 0
M  V30 4366 H 421.478 0.632508 3.83317 0
M  V30 4367 H 423.15 3.19313 3.32922 0
M  V30 4368 H 421.393 3.05248 3.08231 0
M  V30 4369 H 422.064 2.88305 4.70727 0
M  V30 4370 H 424.54 1.08392 4.01734 0
M  V30 4371 H 423.416 0.996383 5.39781 0
M  V30 4372 H 423.677 -0.425808 4.40045 0
M  V30 4373 N 422.737 -1.36956 0.779787 0
M  V30 4374 C 424.014 -1.93697 0.272156 0
M  V30 4375 C 424.394 -1.71267 -1.23413 0
M  V30 4376 O 423.742 -1.06607 -2.02107 0
M  V30 4377 C 423.952 -3.42812 0.654291 0
M  V30 4378 C 425.3 -4.19921 0.628602 0
M  V30 4379 O 426.324 -3.51209 0.594172 0
M  V30 4380 O 425.183 -5.42465 0.662864 0
M  V30 4381 H 422.277 -0.824447 0.0649286 0
M  V30 4382 H 424.823 -1.46196 0.861682 0
M  V30 4383 H 423.595 -3.52754 1.69353 0
M  V30 4384 H 423.218 -3.97582 0.0381369 0
M  V30 4385 N 424.215 -0.530993 -1.48385 0
M  V30 4386 C 425.443 -0.00134122 -2.069 0
M  V30 4387 C 425.858 1.2805 -1.3874 0
M  V30 4388 O 425.215 1.76204 -0.475244 0
M  V30 4389 C 425.266 0.225256 -3.60798 0
M  V30 4390 O 424.987 -1.0058 -4.26398 0
M  V30 4391 C 426.488 0.795172 -4.3611 0
M  V30 4392 H 423.708 -0.0339704 -0.67014 0
M  V30 4393 H 426.252 -0.736926 -1.90761 0
M  V30 4394 H 424.407 0.910891 -3.76539 0
M  V30 4395 H 424.821 -0.787165 -5.1856 0
M  V30 4396 H 426.295 0.903143 -5.44562 0
M  V30 4397 H 426.772 1.80031 -4.00606 0
M  V30 4398 H 427.378 0.146069 -4.25049 0
M  V30 4399 N 425.693 1.55336 -0.266172 0
M  V30 4400 C 426.918 2.04258 0.359661 0
M  V30 4401 C 427.343 1.14359 1.49344 0
M  V30 4402 O 426.701 0.140369 1.80756 0
M  V30 4403 C 426.749 3.50997 0.826635 0
M  V30 4404 O 425.853 3.64204 1.93466 0
M  V30 4405 H 425.194 0.659668 0.075727 0
M  V30 4406 H 427.724 2.00694 -0.39786 0
M  V30 4407 H 427.734 3.9219 1.12477 0
M  V30 4408 H 426.409 4.159 -0.00293032 0
M  V30 4409 H 424.986 3.34913 1.63974 0
M  V30 4410 N 427.171 -0.0066808 1.57599 0
M  V30 4411 C 428.396 -0.707738 1.94951 0
M  V30 4412 C 428.821 -1.66882 0.867868 0
M  V30 4413 O 428.179 -1.80457 -0.17458 0
M  V30 4414 C 428.227 -1.42162 3.31394 0
M  V30 4415 O 427.331 -2.53578 3.25226 0
M  V30 4416 H 426.672 -0.188752 0.636607 0
M  V30 4417 H 429.202 0.0445193 2.04552 0
M  V30 4418 H 429.212 -1.78655 3.66806 0
M  V30 4419 H 427.887 -0.716903 4.09675 0
M  V30 4420 H 426.464 -2.19463 3.01481 0
M  V30 4421 N 428.649 -1.55105 -0.279332 0
M  V30 4422 C 429.599 -1.83937 -1.34727 0
M  V30 4423 C 430.583 -0.69785 -1.44979 0
M  V30 4424 O 431.775 -0.95904 -1.48766 0
M  V30 4425 C 428.904 -2.1092 -2.70864 0
M  V30 4426 C 427.99 -3.31314 -2.64748 0
M  V30 4427 N 428.381 -4.51371 -2.2825 0
M  V30 4428 C 426.679 -3.33777 -2.95819 0
M  V30 4429 C 427.38 -5.33447 -2.31969 0
M  V30 4430 N 426.356 -4.71697 -2.7019 0
M  V30 4431 H 430.158 -2.74309 -1.05506 0
M  V30 4432 H 427.672 -1.54896 -0.487959 0
M  V30 4433 H 429.669 -2.2973 -3.47893 0
M  V30 4434 H 428.329 -1.21828 -3.00979 0
M  V30 4435 H 429.34 -4.77584 -2.00335 0
M  V30 4436 H 426.017 -2.54858 -3.30687 0
M  V30 4437 H 427.407 -6.39424 -2.06365 0
M  V30 4438 N 430.127 0.543554 -1.4793 0
M  V30 4439 C 431.374 1.30008 -1.55255 0
M  V30 4440 C 431.702 1.93245 -0.220612 0
M  V30 4441 O 430.957 1.79141 0.787843 0
M  V30 4442 C 431.256 2.42078 -2.62932 0
M  V30 4443 C 430.922 1.96583 -4.0579 0
M  V30 4444 C 429.584 1.83893 -4.44676 0
M  V30 4445 C 431.936 1.62034 -4.95373 0
M  V30 4446 C 429.264 1.34969 -5.70964 0
M  V30 4447 C 431.616 1.14577 -6.22137 0
M  V30 4448 C 430.28 1.00493 -6.59892 0
M  V30 4449 H 429.55 0.475735 -0.568117 0
M  V30 4450 H 432.197 0.608075 -1.81589 0
M  V30 4451 H 430.502 3.16892 -2.30406 0
M  V30 4452 H 432.199 3.00236 -2.65818 0
M  V30 4453 H 428.789 2.07407 -3.75074 0
M  V30 4454 H 432.973 1.70705 -4.66019 0
M  V30 4455 H 428.229 1.2274 -5.98953 0
M  V30 4456 H 432.403 0.869109 -6.90955 0
M  V30 4457 H 430.03 0.623624 -7.57638 0
M  V30 4458 N 431.605 1.3629 0.791371 0
M  V30 4459 C 432.833 1.33562 1.58016 0
M  V30 4460 C 433.248 -0.0835616 1.88615 0
M  V30 4461 O 432.605 -1.0399 1.49974 0
M  V30 4462 C 432.656 2.15517 2.90232 0
M  V30 4463 O 432.377 3.51902 2.60953 0
M  V30 4464 C 433.878 2.20546 3.84544 0
M  V30 4465 H 431.098 0.458226 0.490173 0
M  V30 4466 H 433.642 1.79361 0.982345 0
M  V30 4467 H 431.797 1.73278 3.46487 0
M  V30 4468 H 432.211 3.94644 3.4548 0
M  V30 4469 H 433.685 2.82252 4.74382 0
M  V30 4470 H 434.162 1.20838 4.2225 0
M  V30 4471 H 434.768 2.63013 3.34222 0
M  V30 4472 N 433.083 -1.0153 1.20538 0
M  V30 4473 C 434.013 -2.11972 0.979295 0
M  V30 4474 C 434.994 -1.6985 -0.0921787 0
M  V30 4475 O 436.179 -1.94089 0.0655932 0
M  V30 4476 C 433.309 -3.43201 0.531984 0
M  V30 4477 C 432.263 -3.9907 1.54685 0
M  V30 4478 C 431.589 -5.26082 0.956127 0
M  V30 4479 C 432.889 -4.32313 2.93092 0
M  V30 4480 H 434.583 -2.31143 1.90298 0
M  V30 4481 H 432.129 -1.11079 0.916372 0
M  V30 4482 H 434.082 -4.1985 0.361044 0
M  V30 4483 H 432.806 -3.23792 -0.427327 0
M  V30 4484 H 431.465 -3.2453 1.70517 0
M  V30 4485 H 431.113 -5.02999 -0.0111538 0
M  V30 4486 H 430.813 -5.64426 1.63393 0
M  V30 4487 H 432.337 -6.05386 0.796284 0
M  V30 4488 H 433.751 -4.99845 2.80763 0
M  V30 4489 H 432.148 -4.81774 3.57791 0
M  V30 4490 H 433.218 -3.41025 3.44717 0
M  V30 4491 N 434.561 -1.01147 -1.20859 0
M  V30 4492 C 435.791 -0.715872 -1.93801 0
M  V30 4493 C 436.199 0.726592 -1.74692 0
M  V30 4494 O 435.542 1.50397 -1.05482 0
M  V30 4495 C 435.604 -0.965269 -3.46299 0
M  V30 4496 C 435.268 -2.39584 -3.89164 0
M  V30 4497 C 436.265 -3.3764 -3.95342 0
M  V30 4498 C 433.95 -2.73522 -4.21297 0
M  V30 4499 C 435.944 -4.67698 -4.33056 0
M  V30 4500 C 433.631 -4.03794 -4.58687 0
M  V30 4501 C 434.629 -5.00693 -4.64538 0
M  V30 4502 O 434.317 -6.28635 -5.01072 0
M  V30 4503 H 434.049 -0.262524 -0.622942 0
M  V30 4504 H 436.603 -1.35413 -1.54443 0
M  V30 4505 H 434.833 -0.269847 -3.85757 0
M  V30 4506 H 436.522 -0.662051 -4.00464 0
M  V30 4507 H 437.288 -3.12757 -3.70686 0
M  V30 4508 H 433.167 -1.9879 -4.15937 0
M  V30 4509 H 436.711 -5.4333 -4.37537 0
M  V30 4510 H 432.608 -4.28459 -4.82797 0
M  V30 4511 H 433.376 -6.32847 -5.19083 0
M  V30 4512 N 436.039 1.36541 -0.78704 0
M  V30 4513 C 437.455 1.52571 -0.46844 0
M  V30 4514 C 437.655 1.7415 1.01361 0
M  V30 4515 O 436.711 1.77163 1.79915 0
M  V30 4516 C 438.024 2.71299 -1.29682 0
M  V30 4517 C 439.572 2.85169 -1.29027 0
M  V30 4518 C 440.047 4.06898 -2.10233 0
M  V30 4519 N 441.538 4.1404 -2.07666 0
M  V30 4520 C 442.273 5.07301 -2.67271 0
M  V30 4521 N 441.769 6.06021 -3.35724 0
M  V30 4522 N 443.562 4.99898 -2.57018 0
M  V30 4523 H 435.713 1.20788 -1.74711 0
M  V30 4524 H 437.976 0.589364 -0.742532 0
M  V30 4525 H 437.682 2.61868 -2.34773 0
M  V30 4526 H 437.556 3.6539 -0.936479 0
M  V30 4527 H 439.943 2.94062 -0.247284 0
M  V30 4528 H 440.024 1.91992 -1.69035 0
M  V30 4529 H 439.668 3.98766 -3.1456 0
M  V30 4530 H 439.598 4.99218 -1.67597 0
M  V30 4531 H 442.089 3.43357 -1.57843 0
M  V30 4532 H 442.402 6.73741 -3.78541 0
M  V30 4533 H 440.747 6.06253 -3.39826 0
M  V30 4534 H 443.938 4.21724 -2.03142 0
M  V30 4535 H 444.111 5.72392 -3.03761 0
M  V30 4536 N 437.518 0.538854 1.48102 0
M  V30 4537 C 438.448 -0.207654 2.32575 0
M  V30 4538 C 439.429 -0.926559 1.4265 0
M  V30 4539 O 440.614 -0.91061 1.71527 0
M  V30 4540 C 437.744 -1.24957 3.24042 0
M  V30 4541 C 436.698 -0.648263 4.23062 0
M  V30 4542 C 436.024 -1.79348 5.03725 0
M  V30 4543 C 437.324 0.385897 5.20872 0
M  V30 4544 H 439.018 0.497534 2.95237 0
M  V30 4545 H 436.564 0.240715 1.41974 0
M  V30 4546 H 438.517 -1.77983 3.81969 0
M  V30 4547 H 437.241 -1.98446 2.59397 0
M  V30 4548 H 435.9 -0.139452 3.66335 0
M  V30 4549 H 435.548 -2.51696 4.35498 0
M  V30 4550 H 435.248 -1.39702 5.70751 0
M  V30 4551 H 436.772 -2.32735 5.64506 0
M  V30 4552 H 438.186 -0.057607 5.73271 0
M  V30 4553 H 436.583 0.700227 5.96001 0
M  V30 4554 H 437.653 1.28848 4.67468 0
M  V30 4555 N 438.996 -1.55193 0.274407 0
M  V30 4556 C 439.959 -2.212 -0.600279 0
M  V30 4557 C 440.959 -1.18963 -1.08187 0
M  V30 4558 O 442.149 -1.43873 -0.982158 0
M  V30 4559 C 439.281 -2.87739 -1.82809 0
M  V30 4560 H 440.474 -2.9989 -0.0239682 0
M  V30 4561 H 438.027 -1.5628 0.0250192 0
M  V30 4562 H 438.762 -2.13058 -2.44493 0
M  V30 4563 H 438.547 -3.62658 -1.49069 0
M  V30 4564 H 440.037 -3.38171 -2.45011 0
M  V30 4565 N 440.474 -0.00167713 -1.576 0
M  V30 4566 C 441.404 0.988091 -2.11563 0
M  V30 4567 C 442.385 1.35736 -1.02517 0
M  V30 4568 O 443.57 1.44082 -1.30208 0
M  V30 4569 C 440.7 2.27941 -2.62031 0
M  V30 4570 C 439.654 2.0517 -3.75619 0
M  V30 4571 C 438.98 3.4033 -4.12407 0
M  V30 4572 C 440.28 1.41294 -5.02825 0
M  V30 4573 H 441.974 0.538771 -2.94513 0
M  V30 4574 H 439.52 0.257712 -1.41675 0
M  V30 4575 H 441.473 2.97539 -2.9841 0
M  V30 4576 H 440.197 2.74989 -1.76205 0
M  V30 4577 H 438.856 1.37998 -3.39635 0
M  V30 4578 H 438.504 3.85085 -3.23603 0
M  V30 4579 H 438.204 3.25909 -4.88935 0
M  V30 4580 H 439.728 4.1124 -4.51347 0
M  V30 4581 H 441.142 2.00851 -5.36965 0
M  V30 4582 H 439.539 1.37356 -5.84169 0
M  V30 4583 H 440.609 0.382362 -4.8339 0
M  V30 4584 N 441.952 1.55251 0.271103 0
M  V30 4585 C 443.229 1.66664 1.02384 0
M  V30 4586 C 443.609 0.534363 2.04225 0
M  V30 4587 O 442.957 -0.465337 2.23712 0
M  V30 4588 C 443.167 3.05961 1.67895 0
M  V30 4589 C 444.515 3.63772 2.18986 0
M  V30 4590 O 445.539 3.08606 1.77878 0
M  V30 4591 O 444.398 4.60429 2.94393 0
M  V30 4592 H 441.492 0.676957 0.475035 0
M  V30 4593 H 444.038 1.67589 0.26681 0
M  V30 4594 H 442.81 3.79815 0.941071 0
M  V30 4595 H 442.433 3.08943 2.5028 0
M  V30 4596 N 443.43 -0.535701 1.48216 0
M  V30 4597 C 444.841 -1.11769 1.49548 0
M  V30 4598 C 445.192 -1.94442 0.26207 0
M  V30 4599 O 444.317 -2.06987 -0.631287 0
M  V30 4600 C 444.912 -2.03367 2.70975 0
M  V30 4601 C 443.471 -2.56795 2.75196 0
M  V30 4602 C 442.618 -1.33631 2.42977 0
M  V30 4603 H 445.569 -0.321232 1.55415 0
M  V30 4604 H 445.59 -2.87569 2.49167 0
M  V30 4605 H 445.102 -1.43169 3.60727 0
M  V30 4606 H 443.203 -3.20731 1.89638 0
M  V30 4607 H 443.316 -2.9632 3.76472 0
M  V30 4608 H 441.68 -1.6502 1.94012 0
M  V30 4609 H 442.463 -0.75194 3.34964 0
M  V30 4610 N 444.908 -1.36708 -0.784132 0
M  V30 4611 C 445.855 -1.31466 -1.89698 0
M  V30 4612 C 446.825 -0.18239 -1.65096 0
M  V30 4613 O 448.01 -0.369762 -1.87183 0
M  V30 4614 C 445.15 -1.1151 -3.26588 0
M  V30 4615 C 444.263 -2.33859 -3.63227 0
M  V30 4616 C 443.398 -2.06873 -4.89262 0
M  V30 4617 C 442.437 -3.25154 -5.18595 0
M  V30 4618 N 441.574 -2.978 -6.35814 0
M  V30 4619 H 446.414 -2.26619 -1.93515 0
M  V30 4620 H 443.951 -1.12625 -0.946256 0
M  V30 4621 H 445.909 -0.979653 -4.05535 0
M  V30 4622 H 444.539 -0.200103 -3.22179 0
M  V30 4623 H 443.591 -2.58188 -2.79362 0
M  V30 4624 H 444.903 -3.22109 -3.8085 0
M  V30 4625 H 444.057 -1.90289 -5.76086 0
M  V30 4626 H 442.796 -1.15942 -4.73718 0
M  V30 4627 H 441.801 -3.42292 -4.30251 0
M  V30 4628 H 443.026 -4.1692 -5.36055 0
M  V30 4629 H 440.972 -2.09485 -6.21653 0
M  V30 4630 H 440.889 -3.7959 -6.53794 0
M  V30 4631 H 442.157 -2.84805 -7.25607 0
M  V30 4632 N 446.386 1.0089 -1.21074 0
M  V30 4633 C 447.663 1.71834 -0.934469 0
M  V30 4634 C 448.043 2.0368 0.554753 0
M  V30 4635 O 447.391 1.70742 1.51854 0
M  V30 4636 C 447.601 2.98061 -1.8155 0
M  V30 4637 C 448.949 3.7117 -2.06199 0
M  V30 4638 O 449.973 3.08034 -1.78867 0
M  V30 4639 O 448.832 4.84721 -2.52404 0
M  V30 4640 H 445.926 0.749253 -0.35007 0
M  V30 4641 H 448.472 1.06668 -1.31985 0
M  V30 4642 H 447.244 2.70908 -2.82355 0
M  V30 4643 H 446.867 3.70968 -1.43068 0
M  V30 4644 N 447.864 1.01787 1.20321 0
M  V30 4645 C 449.275 0.739307 1.71438 0
M  V30 4646 C 449.626 -0.742041 1.81627 0
M  V30 4647 O 448.751 -1.57903 1.47971 0
M  V30 4648 C 449.346 1.33538 3.11373 0
M  V30 4649 C 447.905 1.10566 3.59795 0
M  V30 4650 C 447.052 1.44028 2.36962 0
M  V30 4651 H 450.003 1.18718 1.05317 0
M  V30 4652 H 450.024 0.726611 3.73498 0
M  V30 4653 H 449.536 2.41352 3.03926 0
M  V30 4654 H 447.637 0.0452405 3.72573 0
M  V30 4655 H 447.75 1.78661 4.44542 0
M  V30 4656 H 446.114 0.85933 2.39766 0
M  V30 4657 H 446.897 2.52901 2.32155 0
M  V30 4658 N 449.342 -1.36122 0.79427 0
M  V30 4659 C 450.758 -1.5232 0.476525 0
M  V30 4660 C 450.958 -1.74685 -1.00436 0
M  V30 4661 O 450.014 -1.78115 -1.78973 0
M  V30 4662 C 451.327 -2.70607 1.31119 0
M  V30 4663 C 452.875 -2.8448 1.30537 0
M  V30 4664 C 453.35 -4.05778 2.12387 0
M  V30 4665 N 454.841 -4.12933 2.09859 0
M  V30 4666 C 455.576 -5.05876 2.69957 0
M  V30 4667 N 455.072 -6.04232 3.38934 0
M  V30 4668 N 456.865 -4.98528 2.59665 0
M  V30 4669 H 449.016 -1.1986 1.75349 0
M  V30 4670 H 451.279 -0.585418 0.745647 0
M  V30 4671 H 450.985 -2.60619 2.36158 0
M  V30 4672 H 450.859 -3.64888 0.955843 0
M  V30 4673 H 453.246 -2.93927 0.262876 0
M  V30 4674 H 453.327 -1.91093 1.70051 0
M  V30 4675 H 452.971 -3.97092 3.1667 0
M  V30 4676 H 452.901 -4.98323 1.70242 0
M  V30 4677 H 455.392 -3.42515 1.59662 0
M  V30 4678 H 455.705 -6.71724 3.82109 0
M  V30 4679 H 454.05 -6.04443 3.43036 0
M  V30 4680 H 457.241 -4.20641 2.05375 0
M  V30 4681 H 457.414 -5.70773 3.06793 0
M  V30 4682 N 450.82 -0.546701 -1.47814 0
M  V30 4683 C 452.236 -0.205717 -1.58269 0
M  V30 4684 C 452.436 1.29153 -1.54667 0
M  V30 4685 O 451.492 2.07098 -1.44453 0
M  V30 4686 C 452.805 -0.823065 -2.89216 0
M  V30 4687 C 454.353 -0.793328 -3.02779 0
M  V30 4688 C 454.828 -1.38955 -4.36412 0
M  V30 4689 N 456.319 -1.35227 -4.43021 0
M  V30 4690 C 457.054 -1.78333 -5.44963 0
M  V30 4691 N 456.55 -2.29246 -6.53772 0
M  V30 4692 N 458.343 -1.69467 -5.35945 0
M  V30 4693 H 450.494 -1.5196 -1.48398 0
M  V30 4694 H 452.757 -0.633078 -0.705632 0
M  V30 4695 H 452.463 -1.8749 -2.97558 0
M  V30 4696 H 452.337 -0.309915 -3.75925 0
M  V30 4697 H 454.724 0.249784 -2.94041 0
M  V30 4698 H 454.805 -1.34412 -2.17639 0
M  V30 4699 H 454.449 -2.43168 -4.45906 0
M  V30 4700 H 454.379 -0.814291 -5.20266 0
M  V30 4701 H 456.87 -0.979739 -3.64979 0
M  V30 4702 H 457.183 -2.60089 -7.27718 0
M  V30 4703 H 455.528 -2.3325 -6.5469 0
M  V30 4704 H 458.719 -1.29477 -4.49837 0
M  V30 4705 H 458.892 -2.03381 -6.15256 0
M  V30 4706 N 452.299 1.55045 -0.282633 0
M  V30 4707 C 453.529 2.03872 0.334635 0
M  V30 4708 C 453.937 1.16018 1.49454 0
M  V30 4709 O 453.28 0.174449 1.8287 0
M  V30 4710 C 453.342 3.48791 0.870905 0
M  V30 4711 C 453.006 4.56715 -0.161338 0
M  V30 4712 C 454.003 5.10513 -0.983466 0
M  V30 4713 C 451.688 5.01417 -0.297745 0
M  V30 4714 C 453.682 6.07538 -1.92811 0
M  V30 4715 C 451.369 5.98265 -1.24586 0
M  V30 4716 C 452.367 6.51208 -2.05954 0
M  V30 4717 O 452.055 7.46162 -2.99162 0
M  V30 4718 H 451.787 0.671324 0.0793742 0
M  V30 4719 H 454.341 2.01169 -0.41473 0
M  V30 4720 H 452.571 3.48758 1.67047 0
M  V30 4721 H 454.26 3.80916 1.40207 0
M  V30 4722 H 455.026 4.76785 -0.888856 0
M  V30 4723 H 450.905 4.59849 0.325604 0
M  V30 4724 H 454.449 6.48787 -2.56363 0
M  V30 4725 H 450.346 6.31412 -1.34126 0
M  V30 4726 H 451.114 7.63903 -2.93929 0
M  V30 4727 N 453.777 0.010035 1.57597 0
M  V30 4728 C 454.707 -0.976857 2.12084 0
M  V30 4729 C 455.688 -1.35191 1.03235 0
M  V30 4730 O 456.873 -1.43389 1.3097 0
M  V30 4731 C 454.003 -2.26548 2.63236 0
M  V30 4732 C 452.957 -2.03175 3.76701 0
M  V30 4733 C 452.283 -3.38138 4.14206 0
M  V30 4734 C 453.583 -1.38625 5.03568 0
M  V30 4735 H 455.277 -0.523145 2.94794 0
M  V30 4736 H 452.823 -0.250195 1.4181 0
M  V30 4737 H 454.776 -2.95952 2.99984 0
M  V30 4738 H 453.5 -2.74051 1.77661 0
M  V30 4739 H 452.159 -1.36195 3.40362 0
M  V30 4740 H 451.807 -3.83363 3.25641 0
M  V30 4741 H 451.507 -3.23312 4.90656 0
M  V30 4742 H 453.031 -4.08841 4.53521 0
M  V30 4743 H 454.445 -1.98 5.38023 0
M  V30 4744 H 452.842 -1.34256 5.84889 0
M  V30 4745 H 453.912 -0.356722 4.83586 0
M  V30 4746 N 455.255 -1.55392 -0.262866 0
M  V30 4747 C 456.501 -1.76737 -0.99458 0
M  V30 4748 C 456.834 -0.572453 -1.85571 0
M  V30 4749 O 456.109 0.429732 -1.89693 0
M  V30 4750 C 456.392 -3.07824 -1.8686 0
M  V30 4751 C 456.245 -4.3769 -1.03672 0
M  V30 4752 C 457.564 -3.35021 -2.85393 0
M  V30 4753 H 454.683 -0.643005 -0.360157 0
M  V30 4754 H 457.325 -1.88126 -0.266216 0
M  V30 4755 H 455.475 -2.98245 -2.48962 0
M  V30 4756 H 457.147 -4.59238 -0.43563 0
M  V30 4757 H 455.39 -4.32461 -0.340513 0
M  V30 4758 H 456.061 -5.25759 -1.6817 0
M  V30 4759 H 458.537 -3.44458 -2.33426 0
M  V30 4760 H 457.413 -4.27989 -3.43681 0
M  V30 4761 H 457.674 -2.55153 -3.61039 0
M  V30 4762 N 456.733 0.527833 -1.48498 0
M  V30 4763 C 458.01 1.28905 -1.47115 0
M  V30 4764 C 458.39 2.10297 -0.184007 0
M  V30 4765 O 457.738 2.12728 0.834218 0
M  V30 4766 C 457.948 2.16866 -2.73441 0
M  V30 4767 C 459.296 2.76936 -3.21857 0
M  V30 4768 O 460.32 2.27152 -2.74373 0
M  V30 4769 O 459.179 3.67496 -4.04486 0
M  V30 4770 H 456.273 0.581918 -0.587623 0
M  V30 4771 H 458.819 0.544311 -1.60734 0
M  V30 4772 H 457.591 1.56521 -3.58632 0
M  V30 4773 H 457.214 2.98583 -2.62553 0
M  V30 4774 N 458.211 1.37122 0.776871 0
M  V30 4775 C 459.459 1.31787 1.53221 0
M  V30 4776 C 459.78 -0.0987589 1.9475 0
M  V30 4777 O 459.05 -1.0417 1.65908 0
M  V30 4778 H 457.63 0.484839 0.568278 0
M  V30 4779 H 460.292 1.71556 0.924917 0
M  V30 4780 H 459.388 1.95355 2.43398 0
M  V30 4781 N 459.689 -1.00246 1.21608 0
M  V30 4782 C 461.105 -1.26435 0.973975 0
M  V30 4783 C 461.305 -1.98642 -0.338143 0
M  V30 4784 O 460.361 -2.29026 -1.06317 0
M  V30 4785 C 461.674 -2.08551 2.16626 0
M  V30 4786 C 463.222 -2.21769 2.20879 0
M  V30 4787 C 463.697 -3.07267 3.39633 0
M  V30 4788 N 465.188 -3.14855 3.39736 0
M  V30 4789 C 465.923 -3.81274 4.28273 0
M  V30 4790 N 465.419 -4.497 5.27012 0
M  V30 4791 N 467.212 -3.7794 4.16074 0
M  V30 4792 H 459.363 -0.518089 2.05984 0
M  V30 4793 H 461.626 -0.291368 0.902113 0
M  V30 4794 H 461.332 -1.62847 3.11727 0
M  V30 4795 H 461.206 -3.09303 2.15897 0
M  V30 4796 H 463.593 -2.66691 1.26332 0
M  V30 4797 H 463.674 -1.20478 2.25652 0
M  V30 4798 H 463.318 -2.63047 4.34475 0
M  V30 4799 H 463.248 -4.08678 3.321 0
M  V30 4800 H 465.739 -2.66147 2.6828 0
M  V30 4801 H 466.052 -4.98092 5.90867 0
M  V30 4802 H 464.397 -4.48479 5.30935 0
M  V30 4803 H 467.588 -3.23638 3.38195 0
M  V30 4804 H 467.761 -4.29424 4.85282 0
M  V30 4805 N 461.167 -1.02423 -1.1978 0
M  V30 4806 C 462.392 -0.7373 -1.93852 0
M  V30 4807 C 462.817 0.696923 -1.74713 0
M  V30 4808 O 462.175 1.48056 -1.04638 0
M  V30 4809 C 462.223 -1.08783 -3.438 0
M  V30 4810 O 461.327 -0.20383 -4.11896 0
M  V30 4811 H 460.668 -0.27284 -0.605355 0
M  V30 4812 H 463.198 -1.36966 -1.51992 0
M  V30 4813 H 463.208 -1.04276 -3.9445 0
M  V30 4814 H 461.883 -2.13274 -3.57053 0
M  V30 4815 H 460.46 -0.307091 -3.71633 0
M  V30 4816 N 462.645 1.35699 -0.801477 0
M  V30 4817 C 463.575 2.32436 -0.222658 0
M  V30 4818 C 464.556 1.5723 0.649057 0
M  V30 4819 O 465.741 1.85324 0.580387 0
M  V30 4820 C 462.871 3.41469 0.633719 0
M  V30 4821 C 461.825 4.27774 -0.139083 0
M  V30 4822 C 461.151 5.28082 0.838666 0
M  V30 4823 C 462.451 5.04946 -1.33517 0
M  V30 4824 H 464.145 2.81094 -1.03086 0
M  V30 4825 H 461.691 1.35146 -0.497155 0
M  V30 4826 H 463.644 4.08143 1.04868 0
M  V30 4827 H 462.368 2.91408 1.47475 0
M  V30 4828 H 461.027 3.62673 -0.535156 0
M  V30 4829 H 460.675 4.7429 1.67506 0
M  V30 4830 H 460.375 5.86695 0.32594 0
M  V30 4831 H 461.899 5.97628 1.25194 0
M  V30 4832 H 463.313 5.64593 -0.995349 0
M  V30 4833 H 461.71 5.7303 -1.78202 0
M  V30 4834 H 462.78 4.35886 -2.12442 0
M  V30 4835 N 464.123 0.554532 1.47522 0
M  V30 4836 C 465.534 0.120446 1.86311 0
M  V30 4837 C 465.885 -1.30904 1.46145 0
M  V30 4838 O 465.01 -1.98434 0.863294 0
M  V30 4839 C 465.605 0.211808 3.38137 0
M  V30 4840 C 464.164 -0.167224 3.76028 0
M  V30 4841 C 463.311 0.560576 2.71575 0
M  V30 4842 H 466.262 0.764408 1.39077 0
M  V30 4843 H 466.283 -0.570275 3.76202 0
M  V30 4844 H 465.795 1.25232 3.6734 0
M  V30 4845 H 463.896 -1.20894 3.52442 0
M  V30 4846 H 464.009 0.189473 4.78725 0
M  V30 4847 H 462.373 0.00396836 2.547 0
M  V30 4848 H 463.156 1.60219 3.0362 0
M  V30 4849 N 465.601 -1.54893 0.290851 0
M  V30 4850 C 466.531 -2.26103 -0.583084 0
M  V30 4851 C 467.512 -1.25684 -1.14619 0
M  V30 4852 O 468.697 -1.54436 -1.17741 0
M  V30 4853 C 465.827 -2.99409 -1.75987 0
M  V30 4854 C 464.781 -4.0689 -1.32758 0
M  V30 4855 C 464.107 -4.67856 -2.58872 0
M  V30 4856 C 465.407 -5.20215 -0.46624 0
M  V30 4857 H 467.101 -2.99398 0.0108214 0
M  V30 4858 H 464.647 -1.43998 0.00664468 0
M  V30 4859 H 466.6 -3.47943 -2.37727 0
M  V30 4860 H 465.324 -2.23675 -2.37985 0
M  V30 4861 H 463.983 -3.59191 -0.733299 0
M  V30 4862 H 463.631 -3.88772 -3.19163 0
M  V30 4863 H 463.331 -5.40438 -2.30653 0
M  V30 4864 H 464.855 -5.19147 -3.21433 0
M  V30 4865 H 466.269 -5.64704 -0.989047 0
M  V30 4866 H 464.666 -5.99455 -0.27826 0
M  V30 4867 H 465.736 -4.82198 0.511173 0
M  V30 4868 N 467.08 -0.0183926 -1.57589 0
M  V30 4869 C 467.99 0.982943 -2.13015 0
M  V30 4870 C 469.006 1.36443 -1.07979 0
M  V30 4871 O 470.182 1.44802 -1.3998 0
M  V30 4872 C 467.247 2.25024 -2.63752 0
M  V30 4873 C 466.308 1.93018 -3.83461 0
M  V30 4874 C 465.541 3.13706 -4.31769 0
M  V30 4875 O 465.764 4.2601 -3.79305 0
M  V30 4876 O 464.698 2.96629 -5.23732 0
M  V30 4877 H 468.524 0.541709 -2.9883 0
M  V30 4878 H 466.109 0.201565 -1.48034 0
M  V30 4879 H 467.991 2.99441 -2.96502 0
M  V30 4880 H 466.666 2.68349 -1.81026 0
M  V30 4881 H 465.573 1.16019 -3.55655 0
M  V30 4882 H 466.906 1.54516 -4.67317 0
M  V30 4883 N 468.558 1.5553 0.254621 0
M  V30 4884 C 469.468 1.92789 1.33677 0
M  V30 4885 C 470.484 0.827356 1.53071 0
M  V30 4886 O 471.66 1.12807 1.66843 0
M  V30 4887 C 468.725 2.20827 2.67275 0
M  V30 4888 C 467.786 3.4427 2.5647 0
M  V30 4889 C 467.019 3.70961 3.83697 0
M  V30 4890 O 467.242 2.99852 4.85227 0
M  V30 4891 O 466.176 4.64491 3.82794 0
M  V30 4892 H 470.002 2.84945 1.05071 0
M  V30 4893 H 467.587 1.42312 0.454723 0
M  V30 4894 H 469.469 2.40204 3.46237 0
M  V30 4895 H 468.144 1.31851 2.9563 0
M  V30 4896 H 467.051 3.30209 1.75821 0
M  V30 4897 H 468.384 4.33524 2.33062 0
M  V30 4898 N 470.036 -0.519951 1.48776 0
M  V30 4899 C 470.983 -1.62352 1.64044 0
M  V30 4900 C 471.953 -1.58945 0.482251 0
M  V30 4901 O 473.138 -1.77219 0.706971 0
M  V30 4902 C 470.278 -3.00579 1.69547 0
M  V30 4903 C 469.391 -3.14145 2.96541 0
M  V30 4904 C 468.526 -4.42991 2.93142 0
M  V30 4905 C 467.565 -4.50122 4.14797 0
M  V30 4906 N 466.702 -5.7037 4.09418 0
M  V30 4907 H 471.542 -1.48643 2.58281 0
M  V30 4908 H 469.079 -0.723516 1.28077 0
M  V30 4909 H 471.037 -3.80671 1.70719 0
M  V30 4910 H 469.667 -3.13036 0.787918 0
M  V30 4911 H 468.719 -2.27239 3.05068 0
M  V30 4912 H 470.031 -3.15275 3.86527 0
M  V30 4913 H 469.185 -5.31385 2.92772 0
M  V30 4914 H 467.924 -4.44398 2.00902 0
M  V30 4915 H 466.929 -3.60133 4.15433 0
M  V30 4916 H 468.154 -4.50445 5.08208 0
M  V30 4917 H 466.1 -5.72655 3.20004 0
M  V30 4918 H 466.017 -5.73036 4.93119 0
M  V30 4919 H 467.285 -6.61023 4.13121 0
M  V30 4920 N 471.514 -1.37532 -0.769588 0
M  V30 4921 C 472.739 -1.36231 -1.56384 0
M  V30 4922 C 473.164 0.0495849 -1.88035 0
M  V30 4923 O 472.522 1.02723 -1.49391 0
M  V30 4924 C 472.57 -2.20986 -2.84952 0
M  V30 4925 O 471.674 -1.61597 -3.79421 0
M  V30 4926 H 471.015 -0.465387 -0.473615 0
M  V30 4927 H 473.545 -1.81085 -0.952342 0
M  V30 4928 H 473.555 -2.34277 -3.34034 0
M  V30 4929 H 472.23 -3.23612 -2.61243 0
M  V30 4930 H 470.807 -1.57359 -3.38072 0
M  V30 4931 N 472.992 0.995999 -1.22138 0
M  V30 4932 C 474.238 1.73767 -1.04561 0
M  V30 4933 C 474.571 1.89633 0.418698 0
M  V30 4934 O 473.846 1.43723 1.3105 0
M  V30 4935 C 474.129 3.14505 -1.75382 0
M  V30 4936 C 473.982 3.06306 -3.29388 0
M  V30 4937 C 475.301 4.13615 -1.50369 0
M  V30 4938 H 472.42 0.630728 -0.38125 0
M  V30 4939 H 475.062 1.16057 -1.50435 0
M  V30 4940 H 473.212 3.63775 -1.36383 0
M  V30 4941 H 474.884 2.64681 -3.77812 0
M  V30 4942 H 473.127 2.43186 -3.59226 0
M  V30 4943 H 473.798 4.05884 -3.74116 0
M  V30 4944 H 476.274 3.73089 -1.84239 0
M  V30 4945 H 475.15 5.10212 -2.02421 0
M  V30 4946 H 475.411 4.39949 -0.435611 0
M  V30 4947 N 474.47 1.03057 1.19235 0
M  V30 4948 C 475.433 0.617418 2.20727 0
M  V30 4949 C 476.433 -0.319856 1.57587 0
M  V30 4950 O 477.623 -0.106633 1.73873 0
M  V30 4951 C 474.755 -0.096296 3.40764 0
M  V30 4952 H 475.948 1.51544 2.58794 0
M  V30 4953 H 473.501 0.821949 1.32942 0
M  V30 4954 H 474.236 -1.00859 3.08217 0
M  V30 4955 H 474.021 0.577217 3.87828 0
M  V30 4956 H 475.511 -0.372219 4.15938 0
M  V30 4957 N 475.948 -1.35272 0.808662 0
M  V30 4958 C 477.197 -1.97963 0.386483 0
M  V30 4959 C 477.51 -1.64866 -1.05255 0
M  V30 4960 O 478.716 -2.20937 -1.57794 0
M  V30 4961 C 477.172 -3.54162 0.640096 0
M  V30 4962 C 476.78 -3.96166 2.0918 0
M  V30 4963 C 478.524 -4.23553 0.283376 0
M  V30 4964 C 476.431 -5.4522 2.29106 0
M  V30 4965 H 475.361 -0.740742 0.140774 0
M  V30 4966 H 478.012 -1.5431 0.993012 0
M  V30 4967 H 476.394 -3.95983 -0.0364117 0
M  V30 4968 H 477.568 -3.65491 2.80629 0
M  V30 4969 H 475.883 -3.3967 2.40859 0
M  V30 4970 H 478.48 -5.33124 0.410273 0
M  V30 4971 H 478.823 -4.09105 -0.770659 0
M  V30 4972 H 479.356 -3.8716 0.913884 0
M  V30 4973 H 476.095 -5.64638 3.32962 0
M  V30 4974 H 475.615 -5.77457 1.62184 0
M  V30 4975 H 477.294 -6.1171 2.1076 0
M  V30 4976 N 477.426 -0.562348 -1.47226 0
M  V30 4977 C 478.336 0.185466 -2.33866 0
M  V30 4978 C 479.352 0.906713 -1.48508 0
M  V30 4979 O 480.528 0.874458 -1.81425 0
M  V30 4980 C 477.593 1.19904 -3.25306 0
M  V30 4981 C 476.654 0.484669 -4.26555 0
M  V30 4982 C 475.887 1.44996 -5.13626 0
M  V30 4983 O 476.11 2.68515 -5.03245 0
M  V30 4984 O 475.044 0.971642 -5.94006 0
M  V30 4985 H 478.87 -0.525361 -2.99121 0
M  V30 4986 H 476.455 -0.322916 -1.45868 0
M  V30 4987 H 478.337 1.78399 -3.81774 0
M  V30 4988 H 477.012 1.8917 -2.62672 0
M  V30 4989 H 475.919 -0.141605 -3.73832 0
M  V30 4990 H 477.252 -0.166634 -4.91918 0
M  V30 4991 N 478.904 1.54736 -0.299062 0
M  V30 4992 C 480.15 2.00397 0.311244 0
M  V30 4993 C 480.483 1.18716 1.53688 0
M  V30 4994 O 479.758 0.263154 1.92712 0
M  V30 4995 C 480.041 3.53817 0.669761 0
M  V30 4996 C 479.894 4.46239 -0.564882 0
M  V30 4997 C 481.213 4.13856 1.49702 0
M  V30 4998 H 478.332 0.728493 0.111653 0
M  V30 4999 H 480.974 1.85506 -0.410774 0
M  V30 5000 H 479.124 3.66637 1.28491 0
M  V30 5001 H 480.796 4.45328 -1.20337 0
M  V30 5002 H 479.039 4.16916 -1.19849 0
M  V30 5003 H 479.71 5.5134 -0.269918 0
M  V30 5004 H 482.186 4.04461 0.977284 0
M  V30 5005 H 481.062 5.21365 1.71666 0
M  V30 5006 H 481.323 3.65608 2.48563 0
M  V30 5007 N 480.382 0.0267497 1.57577 0
M  V30 5008 C 481.798 -0.32962 1.56159 0
M  V30 5009 C 481.998 -1.73059 1.03213 0
M  V30 5010 O 481.054 -2.43233 0.677804 0
M  V30 5011 C 482.367 -0.18039 3.00158 0
M  V30 5012 C 483.915 -0.253334 3.11973 0
M  V30 5013 C 484.39 -0.132921 4.57807 0
M  V30 5014 N 485.881 -0.189979 4.6281 0
M  V30 5015 C 486.616 -0.120554 5.73273 0
M  V30 5016 N 486.112 -0.000180315 6.928 0
M  V30 5017 N 487.905 -0.174369 5.61829 0
M  V30 5018 H 480.056 0.942896 1.90324 0
M  V30 5019 H 482.319 0.3639 0.875375 0
M  V30 5020 H 482.025 0.784576 3.42837 0
M  V30 5021 H 481.899 -0.951565 3.65 0
M  V30 5022 H 484.286 -1.20876 2.69208 0
M  V30 5023 H 484.367 0.548177 2.49857 0
M  V30 5024 H 484.011 0.819073 5.01252 0
M  V30 5025 H 483.941 -0.953264 5.179 0
M  V30 5026 H 486.432 -0.283257 3.76837 0
M  V30 5027 H 486.745 0.0461666 7.72786 0
M  V30 5028 H 485.09 0.034569 6.94991 0
M  V30 5029 H 488.281 -0.266794 4.67339 0
M  V30 5030 H 488.454 -0.116802 6.47895 0
M  V30 5031 N 481.861 -1.55662 -0.24637 0
M  V30 5032 C 483.109 -1.77168 -0.972411 0
M  V30 5033 C 483.43 -0.590827 -1.85834 0
M  V30 5034 O 482.7 0.393365 -1.9191 0
M  V30 5035 H 481.28 -0.653405 -0.362038 0
M  V30 5036 H 483.942 -1.93101 -0.264189 0
M  V30 5037 H 483.038 -2.68335 -1.59382 0
M  V30 5038 N 483.339 0.512053 -1.4905 0
M  V30 5039 C 484.302 1.59704 -1.64399 0
M  V30 5040 C 485.302 1.52285 -0.516317 0
M  V30 5041 O 486.492 1.55635 -0.782527 0
M  V30 5042 C 483.624 2.9935 -1.63102 0
M  V30 5043 H 484.817 1.47428 -2.61161 0
M  V30 5044 H 482.37 0.735469 -1.37915 0
M  V30 5045 H 483.105 3.17116 -0.678836 0
M  V30 5046 H 482.89 3.06144 -2.44986 0
M  V30 5047 H 484.38 3.782 -1.77072 0
M  V30 5048 N 484.817 1.37938 0.762283 0
M  V30 5049 C 486.094 1.24196 1.51112 0
M  V30 5050 C 486.474 -0.160409 2.1049 0
M  V30 5051 O 485.822 -1.16904 1.96331 0
M  V30 5052 C 486.032 2.34537 2.58445 0
M  V30 5053 C 487.38 2.7254 3.25588 0
M  V30 5054 O 488.404 2.33783 2.68745 0
M  V30 5055 O 487.263 3.39343 4.28379 0
M  V30 5056 H 484.357 0.485175 0.669727 0
M  V30 5057 H 486.903 1.49743 0.798438 0
M  V30 5058 H 485.675 3.28406 2.12756 0
M  V30 5059 H 485.298 2.10505 3.37303 0
M  V30 5060 N 486.295 -0.989507 1.22664 0
M  V30 5061 C 487.543 -1.72612 1.05117 0
M  V30 5062 C 487.864 -1.90552 -0.414131 0
M  V30 5063 O 487.134 -1.4676 -1.29762 0
M  V30 5064 H 485.714 -0.639555 0.385977 0
M  V30 5065 H 488.376 -1.19158 1.54232 0
M  V30 5066 H 487.472 -2.71926 1.53175 0
M  V30 5067 N 487.773 -1.03688 -1.18687 0
M  V30 5068 C 488.72 -0.624624 -2.22187 0
M  V30 5069 C 489.69 0.365636 -1.62026 0
M  V30 5070 O 490.875 0.260481 -1.89014 0
M  V30 5071 C 488.015 0.0101738 -3.45099 0
M  V30 5072 C 487.128 -1.02709 -4.19613 0
M  V30 5073 C 486.263 -0.361213 -5.2997 0
M  V30 5074 C 485.302 -1.38384 -5.96252 0
M  V30 5075 N 484.439 -0.743196 -6.98155 0
M  V30 5076 H 489.279 -1.51176 -2.56807 0
M  V30 5077 H 486.816 -0.75636 -1.26165 0
M  V30 5078 H 488.774 0.395528 -4.15321 0
M  V30 5079 H 487.404 0.860848 -3.1111 0
M  V30 5080 H 486.456 -1.53043 -3.48256 0
M  V30 5081 H 487.768 -1.80398 -4.65036 0
M  V30 5082 H 486.922 0.0785537 -6.06649 0
M  V30 5083 H 485.661 0.447799 -4.8564 0
M  V30 5084 H 484.666 -1.83378 -5.18317 0
M  V30 5085 H 485.891 -2.19448 -6.42666 0
M  V30 5086 H 483.837 0.0455789 -6.55984 0
M  V30 5087 H 483.754 -1.45784 -7.41811 0
M  V30 5088 H 485.022 -0.327698 -7.78811 0
M  V30 5089 N 489.251 1.34841 -0.815825 0
M  V30 5090 C 490.181 2.32187 -0.247298 0
M  V30 5091 C 491.162 1.5791 0.632344 0
M  V30 5092 O 492.347 1.8593 0.560698 0
M  V30 5093 C 489.477 3.42122 0.597466 0
M  V30 5094 C 488.431 4.27602 -0.184446 0
M  V30 5095 C 487.757 5.28942 0.782609 0
M  V30 5096 C 489.057 5.03502 -1.38865 0
M  V30 5097 H 490.751 2.79985 -1.06061 0
M  V30 5098 H 488.297 1.34611 -0.511461 0
M  V30 5099 H 490.25 4.09232 1.00533 0
M  V30 5100 H 488.974 2.92956 1.44376 0
M  V30 5101 H 487.633 3.62085 -0.573592 0
M  V30 5102 H 487.281 4.7604 1.62466 0
M  V30 5103 H 486.981 5.87008 0.263695 0
M  V30 5104 H 488.505 5.98922 1.18848 0
M  V30 5105 H 489.919 5.63506 -1.05518 0
M  V30 5106 H 488.316 5.71108 -1.8427 0
M  V30 5107 H 489.386 4.33608 -2.17054 0
M  V30 5108 N 490.729 0.570148 1.46925 0
M  V30 5109 C 491.954 0.0542592 2.07329 0
M  V30 5110 C 492.379 -1.23582 1.41806 0
M  V30 5111 O 491.737 -1.74341 0.497479 0
M  V30 5112 C 491.785 -0.111175 3.60429 0
M  V30 5113 O 490.889 -1.17071 3.95434 0
M  V30 5114 H 490.23 0.0571425 0.661537 0
M  V30 5115 H 492.76 0.789516 1.88753 0
M  V30 5116 H 492.77 -0.321315 4.06733 0
M  V30 5117 H 491.445 0.831012 4.07513 0
M  V30 5118 H 490.022 -0.940029 3.60857 0
M  V30 5119 N 492.207 -1.54576 0.307264 0
M  V30 5120 C 493.623 -1.59534 -0.0459251 0
M  V30 5121 C 493.823 -1.32414 -1.51884 0
M  V30 5122 O 492.879 -1.1006 -2.27251 0
M  V30 5123 C 494.192 -2.98566 0.357649 0
M  V30 5124 C 495.74 -3.11491 0.306937 0
M  V30 5125 C 496.215 -4.52842 0.685427 0
M  V30 5126 N 497.706 -4.58782 0.638203 0
M  V30 5127 C 498.441 -5.66238 0.903458 0
M  V30 5128 N 497.937 -6.81703 1.23501 0
M  V30 5129 N 499.73 -5.55937 0.830102 0
M  V30 5130 H 491.881 -1.70464 1.26712 0
M  V30 5131 H 494.144 -0.79647 0.514139 0
M  V30 5132 H 493.85 -3.23356 1.38325 0
M  V30 5133 H 493.724 -3.76117 -0.285565 0
M  V30 5134 H 496.111 -2.86446 -0.709424 0
M  V30 5135 H 496.192 -2.36081 0.984861 0
M  V30 5136 H 495.836 -4.78618 1.69963 0
M  V30 5137 H 495.766 -5.26598 -0.0146346 0
M  V30 5138 H 498.257 -3.75849 0.393138 0
M  V30 5139 H 498.57 -7.59582 1.42322 0
M  V30 5140 H 496.915 -6.8324 1.27311 0
M  V30 5141 H 500.106 -4.64608 0.570693 0
M  V30 5142 H 500.279 -6.39597 1.04019 0
M  V30 5143 N 493.685 -0.035106 -1.57561 0
M  V30 5144 C 494.931 0.64318 -1.92331 0
M  V30 5145 C 495.264 1.71434 -0.912368 0
M  V30 5146 O 494.539 1.94395 0.0640303 0
M  V30 5147 C 494.822 1.25411 -3.37556 0
M  V30 5148 C 494.675 0.192109 -4.4939 0
M  V30 5149 C 495.994 2.17041 -3.82859 0
M  V30 5150 H 493.113 0.232341 -0.699419 0
M  V30 5151 H 495.755 -0.0935889 -1.89769 0
M  V30 5152 H 493.905 1.88205 -3.39869 0
M  V30 5153 H 495.577 -0.438849 -4.59208 0
M  V30 5154 H 493.82 -0.481725 -4.31117 0
M  V30 5155 H 494.491 0.659292 -5.48049 0
M  V30 5156 H 496.967 1.64228 -3.8232 0
M  V30 5157 H 495.843 2.56738 -4.85157 0
M  V30 5158 H 496.104 3.06401 -3.18702 0
M  V30 5159 N 495.163 1.55791 0.238111 0
M  V30 5160 C 496.073 1.94196 1.31625 0
M  V30 5161 C 497.089 0.843545 1.52185 0
M  V30 5162 O 498.265 1.1457 1.65637 0
M  V30 5163 C 495.33 2.2365 2.64918 0
M  V30 5164 C 494.391 3.46971 2.52804 0
M  V30 5165 C 493.624 3.7501 3.79741 0
M  V30 5166 O 493.847 3.04982 4.82019 0
M  V30 5167 O 492.781 4.68525 3.77846 0
M  V30 5168 H 496.607 2.86044 1.02043 0
M  V30 5169 H 494.192 1.42786 0.439603 0
M  V30 5170 H 496.074 2.43863 3.4367 0
M  V30 5171 H 494.749 1.34979 2.94215 0
M  V30 5172 H 493.656 3.32055 1.72309 0
M  V30 5173 H 494.989 4.35971 2.28451 0
M  V30 5174 N 496.642 -0.504142 1.49319 0
M  V30 5175 C 497.592 -1.60284 1.62151 0
M  V30 5176 C 498.576 -1.53657 0.477315 0
M  V30 5177 O 499.768 -1.6124 0.730108 0
M  V30 5178 C 496.897 -2.98909 1.68844 0
M  V30 5179 C 495.983 -3.10544 2.8883 0
M  V30 5180 N 496.374 -2.92078 4.12946 0
M  V30 5181 C 494.672 -3.4164 2.86702 0
M  V30 5182 C 495.373 -3.07812 4.93585 0
M  V30 5183 N 494.349 -3.36549 4.26891 0
M  V30 5184 H 498.151 -1.44656 2.55835 0
M  V30 5185 H 495.665 -0.710198 1.46048 0
M  V30 5186 H 497.662 -3.77865 1.76134 0
M  V30 5187 H 496.322 -3.15609 0.762943 0
M  V30 5188 H 497.333 -2.68316 4.42975 0
M  V30 5189 H 494.01 -3.64537 2.03517 0
M  V30 5190 H 495.4 -2.98054 6.02174 0
M  V30 5191 N 498.12 -1.38341 -0.754957 0
M  V30 5192 C 499.067 -1.3546 -1.86867 0
M  V30 5193 C 500.037 -0.217369 -1.64672 0
M  V30 5194 O 501.222 -0.409383 -1.86356 0
M  V30 5195 C 498.362 -1.18413 -3.24149 0
M  V30 5196 C 497.475 -2.41511 -3.58185 0
M  V30 5197 C 496.61 -2.17205 -4.84763 0
M  V30 5198 C 495.649 -3.36081 -5.11582 0
M  V30 5199 N 494.786 -3.11219 -6.29354 0
M  V30 5200 H 499.626 -2.30672 -1.88664 0
M  V30 5201 H 497.163 -1.14607 -0.922154 0
M  V30 5202 H 499.121 -1.06545 -4.03366 0
M  V30 5203 H 497.751 -0.268397 -3.21682 0
M  V30 5204 H 496.803 -2.64056 -2.73822 0
M  V30 5205 H 498.115 -3.30115 -3.73932 0
M  V30 5206 H 497.269 -2.02465 -5.7192 0
M  V30 5207 H 496.008 -1.25964 -4.71152 0
M  V30 5208 H 495.013 -3.51341 -4.22894 0
M  V30 5209 H 496.238 -4.28196 -5.27091 0
M  V30 5210 H 494.184 -2.22624 -6.17069 0
M  V30 5211 H 494.101 -3.93373 -6.45596 0
M  V30 5212 H 495.369 -3.00132 -7.19403 0
M  V30 5213 N 499.598 0.982988 -1.23187 0
M  V30 5214 C 500.844 1.72648 -1.06398 0
M  V30 5215 C 501.177 1.90066 0.398561 0
M  V30 5216 O 500.452 1.45105 1.29518 0
M  V30 5217 C 500.735 3.12627 -1.78707 0
M  V30 5218 C 500.588 3.02795 -3.32618 0
M  V30 5219 C 501.907 4.11997 -1.54747 0
M  V30 5220 H 499.026 0.626649 -0.387918 0
M  V30 5221 H 501.668 1.14455 -1.51658 0
M  V30 5222 H 499.818 3.62308 -1.40234 0
M  V30 5223 H 501.49 2.60659 -3.80598 0
M  V30 5224 H 499.733 2.39362 -3.61785 0
M  V30 5225 H 500.404 4.01893 -3.78399 0
M  V30 5226 H 502.88 3.71114 -1.88186 0
M  V30 5227 H 501.756 5.08037 -2.07821 0
M  V30 5228 H 502.017 4.39462 -0.482249 0
M  V30 5229 N 501.076 1.04316 1.18135 0
M  V30 5230 C 502.306 0.767003 1.91835 0
M  V30 5231 C 502.714 -0.68002 1.76557 0
M  V30 5232 O 502.057 -1.47548 1.09432 0
M  V30 5233 C 502.119 1.05674 3.43618 0
M  V30 5234 C 501.783 2.49818 3.82675 0
M  V30 5235 C 502.78 3.48003 3.86251 0
M  V30 5236 C 500.465 2.84596 4.13897 0
M  V30 5237 C 502.459 4.79016 4.20503 0
M  V30 5238 C 500.146 4.15813 4.4782 0
M  V30 5239 C 501.144 5.12834 4.51099 0
M  V30 5240 O 500.832 6.41699 4.84229 0
M  V30 5241 H 500.564 0.278948 0.615763 0
M  V30 5242 H 503.118 1.3946 1.50798 0
M  V30 5243 H 501.348 0.372029 3.84906 0
M  V30 5244 H 503.037 0.767994 3.98568 0
M  V30 5245 H 503.803 3.22475 3.62264 0
M  V30 5246 H 499.682 2.09748 4.1052 0
M  V30 5247 H 503.226 5.54739 4.22978 0
M  V30 5248 H 499.123 4.41109 4.71268 0
M  V30 5249 H 499.891 6.46387 5.02121 0
M  V30 5250 N 502.554 -1.34406 0.822964 0
M  V30 5251 C 503.486 -2.28305 0.202375 0
M  V30 5252 C 504.499 -1.5103 -0.60777 0
M  V30 5253 O 505.688 -1.73057 -0.437444 0
M  V30 5254 C 502.788 -3.30836 -0.734911 0
M  V30 5255 C 501.961 -4.37388 0.0324177 0
M  V30 5256 C 501.02 -5.1968 -0.825803 0
M  V30 5257 O 500.046 -5.68556 -0.270771 0
M  V30 5258 N 501.248 -5.39393 -2.14558 0
M  V30 5259 H 504.013 -2.82201 1.00909 0
M  V30 5260 H 501.574 -1.4693 0.67993 0
M  V30 5261 H 503.566 -3.82786 -1.31365 0
M  V30 5262 H 502.136 -2.77334 -1.44238 0
M  V30 5263 H 501.356 -3.86152 0.792469 0
M  V30 5264 H 502.644 -5.05702 0.560633 0
M  V30 5265 H 502.042 -5.01357 -2.62025 0
M  V30 5266 H 500.599 -5.94461 -2.67318 0
M  V30 5267 N 504.032 -0.577932 -1.46621 0
M  V30 5268 C 505.257 -0.0652536 -2.07297 0
M  V30 5269 C 505.682 1.22828 -1.4246 0
M  V30 5270 O 505.04 1.74075 -0.506718 0
M  V30 5271 C 505.088 0.0920589 -3.60482 0
M  V30 5272 O 504.192 1.14972 -3.96049 0
M  V30 5273 H 503.533 -0.06065 -0.661224 0
M  V30 5274 H 506.063 -0.799515 -1.88332 0
M  V30 5275 H 506.073 0.299741 -4.06897 0
M  V30 5276 H 504.748 -0.852612 -4.07067 0
M  V30 5277 H 503.325 0.920879 -3.61351 0
M  V30 5278 N 505.51 1.54411 -0.315457 0
M  V30 5279 C 506.759 1.99599 0.290395 0
M  V30 5280 C 507.072 1.20746 1.53882 0
M  V30 5281 O 508.278 1.56272 2.22017 0
M  V30 5282 C 506.734 3.5539 0.56797 0
M  V30 5283 C 506.342 4.43068 -0.662945 0
M  V30 5284 C 508.086 4.09067 1.13422 0
M  V30 5285 C 505.993 5.90317 -0.357722 0
M  V30 5286 H 504.923 0.745592 0.112286 0
M  V30 5287 H 507.574 1.78477 -0.426418 0
M  V30 5288 H 505.956 3.72468 1.34476 0
M  V30 5289 H 507.13 4.37765 -1.43869 0
M  V30 5290 H 505.445 4.00238 -1.14884 0
M  V30 5291 H 508.042 5.16663 1.37707 0
M  V30 5292 H 508.385 3.60552 2.08106 0
M  V30 5293 H 508.918 3.95589 0.418805 0
M  V30 5294 H 505.657 6.4301 -1.27351 0
M  V30 5295 H 505.177 5.98592 0.380472 0
M  V30 5296 H 506.856 6.4699 0.0354284 0
M  V30 5297 N 506.988 0.0434614 1.5754 0
M  V30 5298 C 508.218 -0.640905 1.96408 0
M  V30 5299 C 508.626 -1.65365 0.919297 0
M  V30 5300 O 507.969 -1.83395 -0.105795 0
M  V30 5301 C 508.031 -1.39141 3.31482 0
M  V30 5302 C 507.695 -0.535375 4.53853 0
M  V30 5303 C 508.692 0.195335 5.19533 0
M  V30 5304 C 506.377 -0.468564 5.0011 0
M  V30 5305 C 508.371 0.981377 6.298 0
M  V30 5306 C 506.058 0.321171 6.10255 0
M  V30 5307 C 507.056 1.04484 6.74961 0
M  V30 5308 O 506.744 1.8216 7.8299 0
M  V30 5309 H 506.476 -0.180584 0.651433 0
M  V30 5310 H 509.03 0.103848 2.05137 0
M  V30 5311 H 507.26 -2.18162 3.19284 0
M  V30 5312 H 508.949 -1.96526 3.55151 0
M  V30 5313 H 509.715 0.15314 4.84758 0
M  V30 5314 H 505.594 -1.02142 4.49542 0
M  V30 5315 H 509.138 1.54674 6.80237 0
M  V30 5316 H 505.035 0.365032 6.44467 0
M  V30 5317 H 505.803 1.74289 7.99728 0
M  V30 5318 N 508.466 -1.55915 -0.229846 0
M  V30 5319 C 509.714 -1.7819 -0.953565 0
M  V30 5320 C 510.035 -0.610504 -1.85197 0
M  V30 5321 O 509.305 0.372988 -1.92316 0
M  V30 5322 H 507.885 -0.657208 -0.355087 0
M  V30 5323 H 510.547 -1.9337 -0.243693 0
M  V30 5324 H 509.643 -2.70011 -1.56527 0
M  V30 5325 N 509.944 0.496216 -1.49584 0
M  V30 5326 C 511.355 1.07765 -1.52459 0
M  V30 5327 C 511.706 1.93679 -0.31353 0
M  V30 5328 O 510.831 2.08588 0.576186 0
M  V30 5329 C 511.426 1.96111 -2.76271 0
M  V30 5330 C 509.985 2.49409 -2.81908 0
M  V30 5331 C 509.132 1.27142 -2.46435 0
M  V30 5332 H 512.083 0.279914 -1.56212 0
M  V30 5333 H 512.104 2.80862 -2.56704 0
M  V30 5334 H 511.616 1.33555 -3.64396 0
M  V30 5335 H 509.717 3.1559 -1.98074 0
M  V30 5336 H 509.83 2.86234 -3.84196 0
M  V30 5337 H 508.194 1.59818 -1.98319 0
M  V30 5338 H 508.977 0.662866 -3.3684 0
M  V30 5339 N 511.423 1.38739 0.74761 0
M  V30 5340 C 512.353 1.39173 1.87492 0
M  V30 5341 C 513.334 0.256794 1.6815 0
M  V30 5342 O 514.519 0.460762 1.88655 0
M  V30 5343 C 511.649 1.22197 3.25093 0
M  V30 5344 C 510.603 2.32957 3.59047 0
M  V30 5345 C 509.929 2.01082 4.95449 0
M  V30 5346 C 511.229 3.75237 3.6331 0
M  V30 5347 H 512.923 2.3351 1.87386 0
M  V30 5348 H 510.469 1.12399 0.900134 0
M  V30 5349 H 512.422 1.21124 4.03617 0
M  V30 5350 H 511.146 0.243241 3.25693 0
M  V30 5351 H 509.805 2.33226 2.82845 0
M  V30 5352 H 509.453 1.01678 4.92616 0
M  V30 5353 H 509.153 2.75267 5.19136 0
M  V30 5354 H 510.677 2.01638 5.76346 0
M  V30 5355 H 512.091 3.76966 4.31937 0
M  V30 5356 H 510.488 4.48677 3.98509 0
M  V30 5357 H 511.558 4.07122 2.634 0
M  V30 5358 N 512.901 -0.976442 1.23707 0
M  V30 5359 C 514.147 -1.72081 1.07312 0
M  V30 5360 C 514.48 -1.90275 -0.388476 0
M  V30 5361 O 513.755 -1.4579 -1.28746 0
M  V30 5362 C 514.038 -3.11675 1.80363 0
M  V30 5363 C 513.891 -3.01027 3.3422 0
M  V30 5364 C 515.21 -4.1117 1.5693 0
M  V30 5365 H 512.329 -0.624583 0.391236 0
M  V30 5366 H 514.971 -1.13649 1.52263 0
M  V30 5367 H 513.121 -3.61559 1.42153 0
M  V30 5368 H 514.793 -2.58637 3.81975 0
M  V30 5369 H 513.036 -2.3744 3.63049 0
M  V30 5370 H 513.707 -3.9988 3.80525 0
M  V30 5371 H 516.183 -3.7011 1.90151 0
M  V30 5372 H 515.059 -5.06928 2.10513 0
M  V30 5373 H 515.32 -4.392 0.505548 0
M  V30 5374 N 514.379 -1.04941 -1.1758 0
M  V30 5375 C 515.625 -0.759112 -1.88057 0
M  V30 5376 C 515.958 0.711918 -1.8068 0
M  V30 5377 O 515.233 1.52035 -1.21308 0
M  V30 5378 C 515.516 -1.237 -3.38187 0
M  V30 5379 C 515.369 -2.77078 -3.54327 0
M  V30 5380 C 516.688 -0.834014 -4.32125 0
M  V30 5381 H 513.807 -0.277237 -0.682868 0
M  V30 5382 H 516.449 -1.30296 -1.38286 0
M  V30 5383 H 514.599 -0.774337 -3.80705 0
M  V30 5384 H 516.271 -3.31449 -3.20842 0
M  V30 5385 H 514.514 -3.16477 -2.96689 0
M  V30 5386 H 515.185 -3.05577 -4.59703 0
M  V30 5387 H 517.661 -1.23228 -3.97434 0
M  V30 5388 H 516.537 -1.19603 -5.35711 0
M  V30 5389 H 516.798 0.262195 -4.41322 0
M  V30 5390 N 515.857 1.33968 -0.830081 0
M  V30 5391 C 517.103 1.98773 -0.431394 0
M  V30 5392 C 517.458 1.64598 0.99626 0
M  V30 5393 O 516.751 0.911022 1.68555 0
M  V30 5394 C 516.945 3.52679 -0.57898 0
M  V30 5395 C 516.774 4.01807 -2.01943 0
M  V30 5396 C 515.544 4.30062 -2.65282 0
M  V30 5397 C 517.742 4.18663 -2.98707 0
M  V30 5398 N 515.724 4.65272 -4.00493 0
M  V30 5399 C 517.095 4.57133 -4.18843 0
M  V30 5400 C 519.15 4.00929 -2.95229 0
M  V30 5401 C 517.853 4.79723 -5.35965 0
M  V30 5402 C 519.879 4.2469 -4.11573 0
M  V30 5403 C 519.241 4.63454 -5.30462 0
M  V30 5404 H 515.34 0.75435 -0.206107 0
M  V30 5405 H 517.924 1.62247 -1.07629 0
M  V30 5406 H 516.095 3.88383 0.0360632 0
M  V30 5407 H 517.827 4.04412 -0.152596 0
M  V30 5408 H 514.582 4.21231 -2.16475 0
M  V30 5409 H 515.006 4.87101 -4.70172 0
M  V30 5410 H 519.648 3.70082 -2.04448 0
M  V30 5411 H 517.366 5.09434 -6.27297 0
M  V30 5412 H 520.952 4.12497 -4.10289 0
M  V30 5413 H 519.832 4.81476 -6.18992 0
M  V30 5414 N 517.335 0.585699 1.46312 0
M  V30 5415 C 518.746 0.159938 1.86014 0
M  V30 5416 C 519.097 -1.27775 1.48889 0
M  V30 5417 O 518.222 -1.96559 0.90519 0
M  V30 5418 C 518.817 0.283485 3.37612 0
M  V30 5419 C 517.376 -0.0874256 3.76298 0
M  V30 5420 C 516.523 0.618055 2.70325 0
M  V30 5421 H 519.474 0.793737 1.37425 0
M  V30 5422 H 519.495 -0.490348 3.77327 0
M  V30 5423 H 519.007 1.32995 3.64601 0
M  V30 5424 H 517.108 -1.13391 3.54927 0
M  V30 5425 H 517.221 0.290975 4.78216 0
M  V30 5426 H 515.585 0.057993 2.54634 0
M  V30 5427 H 516.368 1.66623 3.00153 0
M  V30 5428 N 518.813 -1.54241 0.323641 0
M  V30 5429 C 520.061 -2.00174 -0.278359 0
M  V30 5430 C 520.382 -1.2134 -1.52648 0
M  V30 5431 O 519.652 -0.315244 -1.93347 0
M  V30 5432 H 518.232 -0.739463 -0.105845 0
M  V30 5433 H 520.894 -1.89864 0.440204 0
M  V30 5434 H 519.99 -3.07486 -0.5347 0
M  V30 5435 N 520.291 -0.0518155 -1.57515 0
M  V30 5436 C 521.238 0.922352 -2.11569 0
M  V30 5437 C 522.208 1.30842 -1.02321 0
M  V30 5438 O 523.393 1.39778 -1.29872 0
M  V30 5439 C 520.533 2.19167 -2.6657 0
M  V30 5440 C 519.646 1.86003 -3.89906 0
M  V30 5441 C 518.781 3.07398 -4.33221 0
M  V30 5442 C 517.82 2.70158 -5.49255 0
M  V30 5443 N 516.957 3.84248 -5.8762 0
M  V30 5444 H 521.797 0.454506 -2.94514 0
M  V30 5445 H 519.334 0.212718 -1.45554 0
M  V30 5446 H 521.292 2.93443 -2.96559 0
M  V30 5447 H 519.922 2.63528 -1.86421 0
M  V30 5448 H 518.974 1.01874 -3.66505 0
M  V30 5449 H 520.286 1.54592 -4.74239 0
M  V30 5450 H 519.44 3.89972 -4.64765 0
M  V30 5451 H 518.179 3.41988 -3.477 0
M  V30 5452 H 517.184 1.86001 -5.17382 0
M  V30 5453 H 518.409 2.36759 -6.36492 0
M  V30 5454 H 516.355 4.18638 -5.05053 0
M  V30 5455 H 516.272 3.56538 -6.66646 0
M  V30 5456 H 517.54 4.6746 -6.2378 0
M  V30 5457 N 521.769 1.56035 0.221574 0
M  V30 5458 C 522.699 1.95434 1.2778 0
M  V30 5459 C 523.68 0.822564 1.48889 0
M  V30 5460 O 524.865 1.08486 1.61072 0
M  V30 5461 C 521.995 2.27102 2.62759 0
M  V30 5462 C 520.949 3.4277 2.56306 0
M  V30 5463 C 520.275 3.60043 3.95314 0
M  V30 5464 C 521.575 4.77742 2.11093 0
M  V30 5465 H 523.269 2.83912 0.950504 0
M  V30 5466 H 520.815 1.36596 0.455791 0
M  V30 5467 H 522.768 2.53256 3.36807 0
M  V30 5468 H 521.492 1.35478 2.97176 0
M  V30 5469 H 520.151 3.16664 1.84715 0
M  V30 5470 H 519.799 2.65794 4.27039 0
M  V30 5471 H 519.499 4.37841 3.91879 0
M  V30 5472 H 521.023 3.88545 4.71025 0
M  V30 5473 H 522.437 5.03102 2.74885 0
M  V30 5474 H 520.834 5.58823 2.18716 0
M  V30 5475 H 521.904 4.731 1.06321 0
M  V30 5476 N 523.247 -0.488276 1.49845 0
M  V30 5477 C 524.524 -1.24959 1.50481 0
M  V30 5478 C 524.904 -2.09735 0.239698 0
M  V30 5479 O 524.252 -2.14865 -0.777524 0
M  V30 5480 C 524.462 -2.0954 2.79095 0
M  V30 5481 C 525.81 -2.68305 3.29086 0
M  V30 5482 O 526.834 -2.19797 2.80299 0
M  V30 5483 O 525.693 -3.56643 4.14087 0
M  V30 5484 H 522.787 -0.566133 0.602845 0
M  V30 5485 H 525.333 -0.501504 1.6212 0
M  V30 5486 H 524.105 -1.46958 3.62656 0
M  V30 5487 H 523.728 -2.91517 2.70377 0
M  V30 5488 N 524.725 -1.39134 -0.740242 0
M  V30 5489 C 525.971 -1.37278 -1.50088 0
M  V30 5490 C 526.326 0.0329967 -1.92372 0
M  V30 5491 O 525.619 0.998447 -1.63529 0
M  V30 5492 C 525.813 -2.27457 -2.75678 0
M  V30 5493 C 525.642 -3.76662 -2.45674 0
M  V30 5494 C 524.412 -4.45617 -2.38229 0
M  V30 5495 C 526.61 -4.6877 -2.11563 0
M  V30 5496 N 524.592 -5.80187 -2.00641 0
M  V30 5497 C 525.963 -5.91951 -1.84376 0
M  V30 5498 C 528.018 -4.56843 -1.97987 0
M  V30 5499 C 526.721 -7.04538 -1.4498 0
M  V30 5500 C 528.747 -5.69347 -1.59994 0
M  V30 5501 C 528.109 -6.91597 -1.33687 0
M  V30 5502 H 524.208 -0.557611 -0.548265 0
M  V30 5503 H 526.792 -1.74638 -0.860784 0
M  V30 5504 H 524.963 -1.92263 -3.37475 0
M  V30 5505 H 526.695 -2.16631 -3.41838 0
M  V30 5506 H 523.45 -3.98993 -2.5515 0
M  V30 5507 H 523.874 -6.51387 -1.84454 0
M  V30 5508 H 528.516 -3.62868 -2.16995 0
M  V30 5509 H 526.234 -7.98419 -1.24712 0
M  V30 5510 H 529.82 -5.62104 -1.50102 0
M  V30 5511 H 528.7 -7.77176 -1.04728 0
M  V30 5512 N 526.204 0.969867 -1.24223 0
M  V30 5513 C 527.152 2.08535 -1.03034 0
M  V30 5514 C 528.146 1.69366 0.0340379 0
M  V30 5515 O 529.352 1.79597 -0.12034 0
M  V30 5516 H 525.727 0.682313 -0.316154 0
M  V30 5517 H 527.698 2.23569 -1.97635 0
M  V30 5518 C 526.447 3.4158 -0.649509 0
M  V30 5519 H 525.77 3.72177 -1.46028 0
M  V30 5520 H 527.21 4.20536 -0.540841 0
M  V30 5521 C 525.669 3.30703 0.643194 0
M  V30 5522 O 526.199 3.64443 1.68951 0
M  V30 5523 N 524.405 2.83841 0.623095 0
M  V30 5524 H 523.952 2.56583 -0.228719 0
M  V30 5525 H 523.91 2.76946 1.48823 0
M  V30 5526 N 527.682 1.05563 1.17022 0
M  V30 5527 C 529.098 0.777684 1.39371 0
M  V30 5528 C 529.298 -0.626269 1.91521 0
M  V30 5529 O 528.354 -1.38806 2.10924 0
M  V30 5530 C 529.667 1.83642 2.3811 0
M  V30 5531 C 531.215 1.85907 2.51809 0
M  V30 5532 C 531.69 2.90813 3.53824 0
M  V30 5533 N 533.181 2.898 3.61345 0
M  V30 5534 C 533.916 3.6762 4.40049 0
M  V30 5535 N 533.412 4.55237 5.22237 0
M  V30 5536 N 535.205 3.56044 4.34959 0
M  V30 5537 H 527.356 1.9614 0.815047 0
M  V30 5538 H 529.619 0.849527 0.420722 0
M  V30 5539 H 529.325 2.84425 2.06871 0
M  V30 5540 H 529.199 1.6812 3.37662 0
M  V30 5541 H 531.586 0.857865 2.82356 0
M  V30 5542 H 531.667 2.05506 1.52318 0
M  V30 5543 H 531.311 3.91122 3.24015 0
M  V30 5544 H 531.241 2.68465 4.53028 0
M  V30 5545 H 533.732 2.26274 3.02669 0
M  V30 5546 H 534.045 5.11291 5.79484 0
M  V30 5547 H 532.39 4.59296 5.21605 0
M  V30 5548 H 535.581 2.86986 3.69806 0
M  V30 5549 H 535.754 4.16938 4.96051 0
M  V30 5550 N 529.16 -1.33526 0.837174 0
M  V30 5551 C 530.385 -2.0258 0.444545 0
M  V30 5552 C 530.81 -1.6258 -0.946006 0
M  V30 5553 O 530.168 -0.817548 -1.6182 0
M  V30 5554 C 530.216 -3.5605 0.571006 0
M  V30 5555 O 529.32 -4.10422 -0.403431 0
M  V30 5556 H 528.661 -0.638866 0.180958 0
M  V30 5557 H 531.191 -1.70462 1.13154 0
M  V30 5558 H 531.201 -4.05488 0.452024 0
M  V30 5559 H 529.876 -3.84509 1.58512 0
M  V30 5560 H 528.453 -3.72113 -0.242147 0
M  V30 5561 N 530.638 -0.59345 -1.46 0
M  V30 5562 C 531.548 0.135817 -2.34207 0
M  V30 5563 C 532.564 0.875008 -1.50398 0
M  V30 5564 O 533.74 0.835778 -1.83239 0
M  V30 5565 C 530.805 1.12977 -3.27776 0
M  V30 5566 C 529.866 0.394081 -4.27487 0
M  V30 5567 C 529.099 1.34068 -5.16586 0
M  V30 5568 O 529.322 2.5778 -5.08828 0
M  V30 5569 O 528.256 0.845426 -5.95933 0
M  V30 5570 H 532.082 -0.588691 -2.9794 0
M  V30 5571 H 529.667 -0.353784 -1.45151 0
M  V30 5572 H 531.549 1.70261 -3.85473 0
M  V30 5573 H 530.224 1.83556 -2.66625 0
M  V30 5574 H 529.131 -0.220869 -3.73447 0
M  V30 5575 H 530.464 -0.270939 -4.91454 0
M  V30 5576 N 532.116 1.54067 -0.331816 0
M  V30 5577 C 533.079 2.23275 0.517768 0
M  V30 5578 C 534.079 1.22897 1.03697 0
M  V30 5579 O 535.269 1.47419 0.928084 0
M  V30 5580 C 532.401 2.94326 1.72004 0
M  V30 5581 H 533.594 2.99773 -0.0873507 0
M  V30 5582 H 531.147 1.56079 -0.0830042 0
M  V30 5583 H 531.882 2.21986 2.36417 0
M  V30 5584 H 531.667 3.67941 1.35507 0
M  V30 5585 H 533.157 3.47031 2.32291 0
M  V30 5586 N 533.594 0.0601682 1.57485 0
M  V30 5587 C 534.824 -0.620037 1.97076 0
M  V30 5588 C 535.232 -1.64381 0.936784 0
M  V30 5589 O 534.575 -1.83497 -0.0863377 0
M  V30 5590 C 534.637 -1.35617 3.32939 0
M  V30 5591 C 534.301 -0.487208 4.54396 0
M  V30 5592 C 535.298 0.250428 5.19297 0
M  V30 5593 C 532.983 -0.415494 5.00579 0
M  V30 5594 C 534.977 1.04812 6.28723 0
M  V30 5595 C 532.664 0.385879 6.0988 0
M  V30 5596 C 533.662 1.11637 6.73815 0
M  V30 5597 O 533.35 1.90454 7.81014 0
M  V30 5598 H 533.082 -0.173664 0.653312 0
M  V30 5599 H 535.636 0.1256 2.05016 0
M  V30 5600 H 533.866 -2.14763 3.2158 0
M  V30 5601 H 535.555 -1.92749 3.57215 0
M  V30 5602 H 536.321 0.204546 4.84568 0
M  V30 5603 H 532.2 -0.973679 4.506 0
M  V30 5604 H 535.744 1.6188 6.78558 0
M  V30 5605 H 531.641 0.433366 6.44044 0
M  V30 5606 H 532.409 1.82762 7.97835 0
M  V30 5607 N 535.072 -1.5615 -0.213296 0
M  V30 5608 C 536.035 -1.92249 -1.24792 0
M  V30 5609 C 537.035 -0.801828 -1.39382 0
M  V30 5610 O 538.225 -1.06948 -1.37506 0
M  V30 5611 C 535.357 -2.18056 -2.62039 0
M  V30 5612 H 536.55 -2.84793 -0.939845 0
M  V30 5613 H 534.103 -1.49559 -0.454062 0
M  V30 5614 H 534.838 -1.2809 -2.97932 0
M  V30 5615 H 534.623 -2.99703 -2.52825 0
M  V30 5616 H 536.113 -2.47051 -3.36683 0
M  V30 5617 N 536.55 0.480323 -1.50102 0
M  V30 5618 C 537.48 1.58769 -1.71215 0
M  V30 5619 C 538.461 1.60583 -0.560997 0
M  V30 5620 O 539.646 1.76996 -0.799127 0
M  V30 5621 C 536.776 2.97148 -1.79778 0
M  V30 5622 C 535.73 3.10201 -2.94888 0
M  V30 5623 C 535.056 4.50137 -2.88584 0
M  V30 5624 C 536.356 2.88283 -4.35534 0
M  V30 5625 H 538.05 1.41354 -2.6393 0
M  V30 5626 H 535.596 0.678591 -1.27008 0
M  V30 5627 H 537.549 3.74536 -1.93133 0
M  V30 5628 H 536.273 3.15699 -0.836772 0
M  V30 5629 H 534.932 2.35244 -2.81169 0
M  V30 5630 H 534.58 4.65593 -1.90349 0
M  V30 5631 H 534.28 4.59808 -3.65856 0
M  V30 5632 H 535.804 5.29558 -3.03976 0
M  V30 5633 H 537.218 3.55427 -4.49827 0
M  V30 5634 H 535.615 3.09408 -5.14186 0
M  V30 5635 H 536.685 1.84219 -4.48544 0
M  V30 5636 N 538.028 1.39524 0.732853 0
M  V30 5637 C 539.444 1.21176 1.03868 0
M  V30 5638 C 539.644 0.0748448 2.01361 0
M  V30 5639 O 538.7 -0.57281 2.45917 0
M  V30 5640 C 540.013 2.54667 1.59892 0
M  V30 5641 C 541.561 2.6153 1.71962 0
M  V30 5642 C 542.036 3.95248 2.31394 0
M  V30 5643 N 543.527 3.96899 2.38801 0
M  V30 5644 C 544.262 4.97138 2.85729 0
M  V30 5645 N 543.758 6.07775 3.32537 0
M  V30 5646 N 545.551 4.84516 2.84957 0
M  V30 5647 H 537.702 2.12225 0.086304 0
M  V30 5648 H 539.965 0.942614 0.100907 0
M  V30 5649 H 539.671 3.38423 0.95721 0
M  V30 5650 H 539.545 2.74538 2.58668 0
M  V30 5651 H 541.932 1.78156 2.35254 0
M  V30 5652 H 542.013 2.45507 0.718327 0
M  V30 5653 H 541.657 4.79054 1.68729 0
M  V30 5654 H 541.587 4.08593 3.32204 0
M  V30 5655 H 544.078 3.16998 2.05719 0
M  V30 5656 H 544.391 6.8017 3.66862 0
M  V30 5657 H 542.736 6.11366 3.30541 0
M  V30 5658 H 545.927 3.97185 2.47713 0
M  V30 5659 H 546.1 5.62783 3.21215 0
M  V30 5660 N 539.506 -0.963266 1.24736 0
M  V30 5661 C 540.783 -1.68248 0.9976 0
M  V30 5662 C 541.163 -2.05599 -0.478776 0
M  V30 5663 O 540.511 -1.7626 -1.45412 0
M  V30 5664 C 540.721 -2.91118 1.92487 0
M  V30 5665 C 542.069 -3.63261 2.19833 0
M  V30 5666 O 543.093 -3.01184 1.90176 0
M  V30 5667 O 541.952 -4.75019 2.7022 0
M  V30 5668 H 539.046 -0.735744 0.377637 0
M  V30 5669 H 541.592 -1.01696 1.35853 0
M  V30 5670 H 540.364 -2.60242 2.92215 0
M  V30 5671 H 539.987 -3.65402 1.56738 0
M  V30 5672 N 540.985 -1.06182 -1.16461 0
M  V30 5673 C 541.948 -0.675723 -2.19013 0
M  V30 5674 C 542.948 0.277963 -1.58379 0
M  V30 5675 O 544.138 0.0604962 -1.74095 0
M  V30 5676 C 541.27 0.00591459 -3.40899 0
M  V30 5677 H 542.463 -1.58353 -2.54685 0
M  V30 5678 H 540.016 -0.856908 -1.30716 0
M  V30 5679 H 540.751 0.92652 -3.10783 0
M  V30 5680 H 540.536 -0.67984 -3.86161 0
M  V30 5681 H 542.026 0.26181 -4.16778 0
M  V30 5682 N 542.463 1.3308 -0.844243 0
M  V30 5683 C 543.411 2.31028 -0.269954 0
M  V30 5684 C 544.405 1.58381 0.600997 0
M  V30 5685 O 545.611 1.73203 0.48996 0
M  V30 5686 H 541.986 0.748866 -0.0685782 0
M  V30 5687 H 543.957 2.76967 -1.11049 0
M  V30 5688 C 542.706 3.43549 0.535676 0
M  V30 5689 H 542.029 3.99604 -0.125202 0
M  V30 5690 H 543.469 4.14267 0.903262 0
M  V30 5691 C 541.928 2.8988 1.71672 0
M  V30 5692 O 542.458 2.86511 2.81557 0
M  V30 5693 N 540.664 2.46416 1.54037 0
M  V30 5694 H 540.211 2.49356 0.64649 0
M  V30 5695 H 540.169 2.1086 2.33207 0
M  V30 5696 N 543.941 0.601185 1.45683 0
M  V30 5697 C 544.871 -0.108824 2.33246 0
M  V30 5698 C 545.852 -0.865223 1.46451 0
M  V30 5699 O 547.037 -0.83704 1.75235 0
M  V30 5700 C 544.167 -1.11101 3.2905 0
M  V30 5701 C 543.121 -0.468244 4.25431 0
M  V30 5702 C 542.447 -1.57822 5.10878 0
M  V30 5703 C 543.747 0.606469 5.18767 0
M  V30 5704 H 545.441 0.622306 2.92861 0
M  V30 5705 H 542.987 0.300714 1.40825 0
M  V30 5706 H 544.94 -1.61622 3.89174 0
M  V30 5707 H 543.664 -1.87265 2.67581 0
M  V30 5708 H 542.323 0.0160484 3.66596 0
M  V30 5709 H 541.971 -2.32998 4.45781 0
M  V30 5710 H 541.671 -1.15369 5.76163 0
M  V30 5711 H 543.195 -2.08583 5.73869 0
M  V30 5712 H 544.609 0.185589 5.73 0
M  V30 5713 H 543.006 0.952381 5.92494 0
M  V30 5714 H 544.076 1.48559 4.61582 0
M  V30 5715 N 545.419 -1.53889 0.339982 0
M  V30 5716 C 546.329 -2.28604 -0.526988 0
M  V30 5717 C 547.345 -1.33578 -1.11503 0
M  V30 5718 O 548.521 -1.66612 -1.13148 0
M  V30 5719 C 545.586 -3.04164 -1.66389 0
M  V30 5720 C 544.647 -4.14809 -1.10599 0
M  V30 5721 C 543.88 -4.86756 -2.18871 0
M  V30 5722 O 544.103 -4.58343 -3.39526 0
M  V30 5723 O 543.037 -5.73289 -1.83366 0
M  V30 5724 H 546.863 -3.03594 0.0802707 0
M  V30 5725 H 544.448 -1.4903 0.105141 0
M  V30 5726 H 546.33 -3.51427 -2.32544 0
M  V30 5727 H 545.005 -2.32035 -2.25703 0
M  V30 5728 H 543.912 -3.71857 -0.409067 0
M  V30 5729 H 545.245 -4.89029 -0.557771 0
M  V30 5730 N 546.897 -0.0685191 -1.57451 0
M  V30 5731 C 547.845 0.917577 -2.13736 0
M  V30 5732 C 548.839 1.31049 -1.07344 0
M  V30 5733 O 550.045 1.28811 -1.25728 0
M  V30 5734 H 546.42 0.313835 -0.683382 0
M  V30 5735 H 548.391 0.417903 -2.95459 0
M  V30 5736 C 547.14 2.17686 -2.71123 0
M  V30 5737 H 546.463 1.88336 -3.52661 0
M  V30 5738 H 547.903 2.84803 -3.14107 0
M  V30 5739 C 546.362 2.9332 -1.65726 0
M  V30 5740 O 546.892 3.86901 -1.08031 0
M  V30 5741 N 545.098 2.56367 -1.36837 0
M  V30 5742 H 544.645 1.80341 -1.83943 0
M  V30 5743 H 544.603 3.07276 -0.665501 0
M  V30 5744 N 548.375 1.56261 0.205012 0
M  V30 5745 C 549.603 1.84141 0.943386 0
M  V30 5746 C 550.018 0.649772 1.77266 0
M  V30 5747 O 549.375 -0.381612 1.78466 0
M  V30 5748 C 549.426 3.10719 1.84759 0
M  V30 5749 O 549.147 4.25286 1.05181 0
M  V30 5750 C 550.648 3.51706 2.69848 0
M  V30 5751 H 547.868 0.611734 0.275721 0
M  V30 5752 H 550.412 2.03364 0.215253 0
M  V30 5753 H 548.567 2.93422 2.52947 0
M  V30 5754 H 548.981 4.97301 1.66709 0
M  V30 5755 H 550.455 4.43266 3.28967 0
M  V30 5756 H 550.932 2.7423 3.43067 0
M  V30 5757 H 551.538 3.71499 2.07047 0
M  V30 5758 N 549.853 -0.472356 1.50355 0
M  V30 5759 C 551.269 -0.806001 1.37753 0
M  V30 5760 C 551.469 -1.968 0.432649 0
M  V30 5761 O 550.525 -2.52189 -0.12519 0
M  V30 5762 C 551.838 -1.11926 2.79093 0
M  V30 5763 C 553.386 -1.22579 2.87999 0
M  V30 5764 C 553.861 -1.57218 4.3017 0
M  V30 5765 N 555.352 -1.64212 4.33115 0
M  V30 5766 C 556.087 -1.92517 5.40116 0
M  V30 5767 N 555.583 -2.1885 6.57325 0
M  V30 5768 N 557.376 -1.94008 5.27558 0
M  V30 5769 H 549.527 0.293451 2.10363 0
M  V30 5770 H 551.79 0.0687672 0.945503 0
M  V30 5771 H 551.496 -0.338504 3.50067 0
M  V30 5772 H 551.37 -2.05577 3.16256 0
M  V30 5773 H 553.757 -1.99722 2.17245 0
M  V30 5774 H 553.838 -0.269107 2.54381 0
M  V30 5775 H 553.482 -0.806154 5.01461 0
M  V30 5776 H 553.412 -2.54034 4.61275 0
M  V30 5777 H 555.903 -1.45906 3.48597 0
M  V30 5778 H 556.216 -2.39718 7.3468 0
M  V30 5779 H 554.561 -2.16245 6.60502 0
M  V30 5780 H 557.752 -1.72931 4.34986 0
M  V30 5781 H 557.925 -2.15731 6.11035 0
M  V30 5782 N 551.331 -1.39911 -0.725443 0
M  V30 5783 C 552.577 -1.37858 -1.48738 0
M  V30 5784 C 552.91 0.0224187 -1.94187 0
M  V30 5785 O 552.185 0.989204 -1.67466 0
M  V30 5786 C 552.468 -2.3594 -2.72038 0
M  V30 5787 C 552.321 -3.85023 -2.32546 0
M  V30 5788 C 553.64 -2.31704 -3.74167 0
M  V30 5789 H 550.759 -0.502074 -0.539528 0
M  V30 5790 H 553.401 -1.70974 -0.828728 0
M  V30 5791 H 551.551 -2.0783 -3.28236 0
M  V30 5792 H 553.223 -4.2392 -1.81905 0
M  V30 5793 H 551.466 -4.01334 -1.64661 0
M  V30 5794 H 552.137 -4.49152 -3.20884 0
M  V30 5795 H 554.613 -2.5658 -3.27576 0
M  V30 5796 H 553.489 -3.02395 -4.58092 0
M  V30 5797 H 553.75 -1.3253 -4.21768 0
M  V30 5798 N 552.809 0.956637 -1.25245 0
M  V30 5799 C 553.739 2.07058 -1.07931 0
M  V30 5800 C 554.72 1.70096 0.0110361 0
M  V30 5801 O 555.905 1.93555 -0.158121 0
M  V30 5802 C 553.035 3.40272 -0.695124 0
M  V30 5803 C 551.989 3.91235 -1.73549 0
M  V30 5804 C 551.315 5.20921 -1.20604 0
M  V30 5805 C 552.615 4.17837 -3.13385 0
M  V30 5806 H 554.309 2.218 -2.01109 0
M  V30 5807 H 551.855 1.06581 -0.968326 0
M  V30 5808 H 553.808 4.1765 -0.560949 0
M  V30 5809 H 552.532 3.25462 0.272355 0
M  V30 5810 H 551.191 3.16025 -1.85807 0
M  V30 5811 H 550.839 5.02479 -0.228846 0
M  V30 5812 H 550.539 5.55987 -1.90136 0
M  V30 5813 H 552.063 6.00897 -1.08421 0
M  V30 5814 H 553.477 4.8588 -3.04292 0
M  V30 5815 H 551.874 4.64154 -3.80369 0
M  V30 5816 H 552.944 3.2419 -3.60595 0
M  V30 5817 N 554.287 1.06798 1.15896 0
M  V30 5818 C 555.219 0.641263 2.20046 0
M  V30 5819 C 556.232 -0.303355 1.59949 0
M  V30 5820 O 557.421 -0.0935478 1.78255 0
M  V30 5821 C 554.521 -0.0794029 3.38807 0
M  V30 5822 C 553.694 0.879986 4.28457 0
M  V30 5823 C 552.753 0.197638 5.25829 0
M  V30 5824 O 551.779 0.836913 5.63014 0
M  V30 5825 N 552.981 -1.05886 5.70761 0
M  V30 5826 H 555.746 1.53718 2.57276 0
M  V30 5827 H 553.307 0.951951 1.30956 0
M  V30 5828 H 555.299 -0.546418 4.00994 0
M  V30 5829 H 553.869 -0.877193 3.0004 0
M  V30 5830 H 553.089 1.52625 3.63454 0
M  V30 5831 H 554.377 1.53065 4.8523 0
M  V30 5832 H 553.775 -1.59828 5.42652 0
M  V30 5833 H 552.332 -1.46965 6.35015 0
M  V30 5834 N 555.766 -1.3263 0.851289 0
M  V30 5835 C 556.698 -2.27824 0.250757 0
M  V30 5836 C 557.711 -1.52285 -0.575598 0
M  V30 5837 O 558.9 -1.73946 -0.400638 0
M  V30 5838 C 556 -3.3232 -0.664571 0
M  V30 5839 C 555.173 -4.37221 0.125187 0
M  V30 5840 C 554.232 -5.21314 -0.715385 0
M  V30 5841 O 553.258 -5.69002 -0.150111 0
M  V30 5842 N 554.46 -5.43823 -2.03069 0
M  V30 5843 H 557.225 -2.79997 1.06873 0
M  V30 5844 H 554.786 -1.45455 0.710943 0
M  V30 5845 H 556.778 -3.85486 -1.23216 0
M  V30 5846 H 555.348 -2.80331 -1.38323 0
M  V30 5847 H 554.568 -3.84384 0.874199 0
M  V30 5848 H 555.856 -5.04399 0.667774 0
M  V30 5849 H 555.254 -5.06803 -2.51332 0
M  V30 5850 H 553.811 -5.99998 -2.54648 0
M  V30 5851 N 557.244 -0.608902 -1.45362 0
M  V30 5852 C 558.49 -0.113196 -2.03085 0
M  V30 5853 C 558.845 1.24288 -1.46868 0
M  V30 5854 O 558.138 1.80792 -0.634402 0
M  V30 5855 C 558.332 -0.0167296 -3.57396 0
M  V30 5856 C 558.161 -1.36191 -4.28581 0
M  V30 5857 C 556.931 -1.94295 -4.66452 0
M  V30 5858 C 559.129 -2.29097 -4.60455 0
M  V30 5859 N 557.111 -3.2228 -5.22503 0
M  V30 5860 C 558.482 -3.41681 -5.17353 0
M  V30 5861 C 560.537 -2.28453 -4.42395 0
M  V30 5862 C 559.24 -4.53789 -5.58093 0
M  V30 5863 C 561.266 -3.39608 -4.8417 0
M  V30 5864 C 560.628 -4.50915 -5.41161 0
M  V30 5865 H 556.727 -0.0848213 -0.777386 0
M  V30 5866 H 559.311 -0.807541 -1.77163 0
M  V30 5867 H 557.482 0.646839 -3.82976 0
M  V30 5868 H 559.214 0.485757 -4.01774 0
M  V30 5869 H 555.969 -1.47486 -4.5005 0
M  V30 5870 H 556.393 -3.87654 -5.55025 0
M  V30 5871 H 561.035 -1.43658 -3.97646 0
M  V30 5872 H 558.753 -5.39307 -6.01808 0
M  V30 5873 H 562.339 -3.40259 -4.71927 0
M  V30 5874 H 561.219 -5.35505 -5.72891 0
M  V30 5875 N 558.722 1.53707 -0.348139 0
M  V30 5876 C 559.952 2.05108 0.247864 0
M  V30 5877 C 560.36 1.22252 1.44399 0
M  V30 5878 O 559.703 0.251853 1.81965 0
M  V30 5879 C 559.765 3.52171 0.722187 0
M  V30 5880 C 559.429 4.5562 -0.354902 0
M  V30 5881 C 560.426 5.05883 -1.19911 0
M  V30 5882 C 558.111 4.99703 -0.510145 0
M  V30 5883 C 560.105 5.98814 -2.18406 0
M  V30 5884 C 557.792 5.92443 -1.49848 0
M  V30 5885 C 558.79 6.41887 -2.33389 0
M  V30 5886 O 558.478 7.32802 -3.3054 0
M  V30 5887 H 558.21 0.674086 0.0508296 0
M  V30 5888 H 560.764 1.99229 -0.49968 0
M  V30 5889 H 558.994 3.55529 1.52105 0
M  V30 5890 H 560.683 3.8652 1.23925 0
M  V30 5891 H 561.449 4.72586 -1.09028 0
M  V30 5892 H 557.328 4.60816 0.130274 0
M  V30 5893 H 560.872 6.3733 -2.83649 0
M  V30 5894 H 556.769 6.25155 -1.60786 0
M  V30 5895 H 557.537 7.50749 -3.26064 0
M  V30 5896 N 560.2 0.0768682 1.57412 0
M  V30 5897 C 561.425 -0.603404 1.98428 0
M  V30 5898 C 561.85 -1.62047 0.955108 0
M  V30 5899 O 561.208 -1.81129 -0.0786778 0
M  V30 5900 C 561.256 -1.24396 3.38464 0
M  V30 5901 O 560.36 -2.35982 3.3821 0
M  V30 5902 H 559.701 -0.154741 0.645718 0
M  V30 5903 H 562.231 0.152885 2.04028 0
M  V30 5904 H 562.241 -1.5896 3.7576 0
M  V30 5905 H 560.916 -0.498735 4.12899 0
M  V30 5906 H 559.493 -2.03173 3.1269 0
M  V30 5907 N 561.678 -1.56367 -0.196722 0
M  V30 5908 C 562.927 -1.79724 -0.915539 0
M  V30 5909 C 563.24 -0.649804 -1.84491 0
M  V30 5910 O 564.446 -0.767631 -2.60422 0
M  V30 5911 C 562.902 -3.18369 -1.67836 0
M  V30 5912 C 562.51 -4.4091 -0.793897 0
M  V30 5913 C 564.254 -3.51037 -2.38691 0
M  V30 5914 C 562.161 -5.70577 -1.55549 0
M  V30 5915 H 561.091 -0.67013 -0.345604 0
M  V30 5916 H 563.742 -1.82721 -0.168856 0
M  V30 5917 H 562.124 -3.09617 -2.46887 0
M  V30 5918 H 563.298 -4.60781 -0.042163 0
M  V30 5919 H 561.613 -4.15937 -0.19626 0
M  V30 5920 H 564.21 -4.4515 -2.96219 0
M  V30 5921 H 564.553 -2.74704 -3.12799 0
M  V30 5922 H 565.086 -3.61229 -1.66608 0
M  V30 5923 H 561.825 -6.49871 -0.857226 0
M  V30 5924 H 561.345 -5.54726 -2.2812 0
M  V30 5925 H 563.024 -6.11637 -2.10971 0
M  V30 5926 N 563.156 0.464375 -1.50603 0
M  V30 5927 C 564.104 1.58224 -1.70493 0
M  V30 5928 C 565.098 1.59492 -0.570836 0
M  V30 5929 O 566.304 1.63561 -0.751517 0
M  V30 5930 H 562.679 0.525161 -0.538247 0
M  V30 5931 H 564.65 1.38613 -2.64252 0
M  V30 5932 C 563.399 2.96113 -1.82243 0
M  V30 5933 H 562.722 2.95858 -2.68901 0
M  V30 5934 H 564.162 3.73769 -2.00182 0
M  V30 5935 C 562.621 3.31946 -0.575628 0
M  V30 5936 O 563.151 4.00708 0.282152 0
M  V30 5937 N 561.357 2.87436 -0.427665 0
M  V30 5938 H 560.904 2.31652 -1.12674 0
M  V30 5939 H 560.862 3.11776 0.405379 0
M  V30 5940 N 564.634 1.40294 0.718013 0
M  V30 5941 C 565.566 1.36281 1.84283 0
M  V30 5942 C 566.579 0.268621 1.60569 0
M  V30 5943 O 567.768 0.528798 1.70487 0
M  V30 5944 C 564.868 1.09741 3.2064 0
M  V30 5945 C 564.041 2.30767 3.71571 0
M  V30 5946 C 563.1 2.00424 4.86535 0
M  V30 5947 O 562.126 2.73268 4.99313 0
M  V30 5948 N 563.328 0.980724 5.72156 0
M  V30 5949 H 566.093 2.3322 1.88225 0
M  V30 5950 H 563.654 1.34616 0.899453 0
M  V30 5951 H 565.646 0.874322 3.95143 0
M  V30 5952 H 564.216 0.214771 3.11861 0
M  V30 5953 H 563.436 2.68921 2.88228 0
M  V30 5954 H 564.724 3.11455 4.02335 0
M  V30 5955 H 564.122 0.377375 5.6444 0
M  V30 5956 H 562.679 0.817538 6.46653 0
M  V30 5957 N 566.112 -0.949982 1.2575 0
M  V30 5958 C 567.075 -2.02894 1.06615 0
M  V30 5959 C 568.075 -1.60791 0.0173905 0
M  V30 5960 O 569.265 -1.72249 0.260003 0
M  V30 5961 C 566.397 -3.35219 0.619751 0
M  V30 5962 H 567.59 -2.21302 2.02399 0
M  V30 5963 H 565.143 -1.12772 1.08223 0
M  V30 5964 H 565.878 -3.22508 -0.340486 0
M  V30 5965 H 565.663 -3.67129 1.37692 0
M  V30 5966 H 567.153 -4.14505 0.507443 0
M  V30 5967 N 567.59 -1.07411 -1.15328 0
M  V30 5968 C 568.815 -0.818856 -1.90551 0
M  V30 5969 C 569.24 0.622194 -1.77512 0
M  V30 5970 O 568.598 1.43484 -1.10824 0
M  V30 5971 C 568.646 -1.23267 -3.38877 0
M  V30 5972 O 567.75 -0.378345 -4.10661 0
M  V30 5973 H 567.091 -0.29827 -0.593238 0
M  V30 5974 H 569.621 -1.43289 -1.46046 0
M  V30 5975 H 569.631 -1.20912 -3.89672 0
M  V30 5976 H 568.306 -2.28226 -3.47686 0
M  V30 5977 H 566.883 -0.464437 -3.69996 0
M  V30 5978 N 569.068 1.32177 -0.85831 0
M  V30 5979 C 570.345 1.91781 -0.384624 0
M  V30 5980 C 570.725 1.78171 1.13217 0
M  V30 5981 O 570.073 1.18209 1.95548 0
M  V30 5982 C 570.283 3.38414 -0.853047 0
M  V30 5983 C 571.631 4.15542 -0.872359 0
M  V30 5984 O 572.655 3.47148 -0.797926 0
M  V30 5985 O 571.514 5.37678 -0.978009 0
M  V30 5986 H 568.608 0.819259 -0.112886 0
M  V30 5987 H 571.154 1.40923 -0.945453 0
M  V30 5988 H 569.926 3.4228 -1.89632 0
M  V30 5989 H 569.549 3.96683 -0.269874 0
M  V30 5990 N 570.547 0.616602 1.45037 0
M  V30 5991 C 571.793 0.115501 2.02471 0
M  V30 5992 C 572.126 -1.25406 1.4828 0
M  V30 5993 O 571.401 -1.82922 0.661051 0
M  V30 5994 C 571.684 0.0863588 3.59996 0
M  V30 5995 C 571.537 1.48723 4.24501 0
M  V30 5996 C 572.856 -0.596762 4.36035 0
M  V30 5997 H 569.975 0.0434461 0.735718 0
M  V30 5998 H 572.617 0.7903 1.72784 0
M  V30 5999 H 570.767 -0.488277 3.85419 0
M  V30 6000 H 572.439 2.10964 4.10234 0
M  V30 6001 H 570.682 2.04534 3.82555 0
M  V30 6002 H 571.353 1.419 5.3345 0
M  V30 6003 H 573.829 -0.10824 4.15959 0
M  V30 6004 H 572.705 -0.586289 5.4576 0
M  V30 6005 H 572.966 -1.66451 4.09569 0
M  V30 6006 N 572.025 -1.5352 0.356285 0
M  V30 6007 C 572.988 -2.24071 -0.482182 0
M  V30 6008 C 573.988 -1.24531 -1.01729 0
M  V30 6009 O 575.178 -1.48876 -0.904513 0
M  V30 6010 C 572.31 -2.97025 -1.67299 0
M  V30 6011 H 573.503 -2.99596 0.135031 0
M  V30 6012 H 571.056 -1.55928 0.107825 0
M  V30 6013 H 571.791 -2.25719 -2.32855 0
M  V30 6014 H 571.576 -3.7005 -1.29636 0
M  V30 6015 H 573.066 -3.50683 -2.26741 0
M  V30 6016 N 573.503 -0.0852151 -1.57369 0
M  V30 6017 C 574.78 0.622534 -1.85429 0
M  V30 6018 C 575.16 1.86962 -0.980229 0
M  V30 6019 O 574.508 2.28445 -0.0500219 0
M  V30 6020 C 574.718 0.947374 -3.35896 0
M  V30 6021 C 576.066 1.31509 -4.03721 0
M  V30 6022 O 577.09 1.03869 -3.40719 0
M  V30 6023 O 575.949 1.83231 -5.14868 0
M  V30 6024 H 573.043 0.310513 -0.766492 0
M  V30 6025 H 575.589 -0.117164 -1.69295 0
M  V30 6026 H 574.361 0.0622264 -3.91251 0
M  V30 6027 H 573.984 1.74338 -3.5734 0
M  V30 6028 N 574.981 1.5647 0.188427 0
M  V30 6029 C 575.911 1.98101 1.23606 0
M  V30 6030 C 576.892 0.853961 1.47111 0
M  V30 6031 O 578.077 1.11879 1.58735 0
M  V30 6032 C 575.207 2.32624 2.57882 0
M  V30 6033 C 574.161 3.48129 2.48978 0
M  V30 6034 C 573.487 3.68347 3.87588 0
M  V30 6035 C 574.787 4.82112 2.00911 0
M  V30 6036 H 576.481 2.85864 0.890068 0
M  V30 6037 H 574.027 1.37532 0.426714 0
M  V30 6038 H 575.98 2.60343 3.3136 0
M  V30 6039 H 574.704 1.41751 2.94235 0
M  V30 6040 H 573.363 3.20511 1.77956 0
M  V30 6041 H 573.011 2.74793 4.21305 0
M  V30 6042 H 572.711 4.46055 3.82503 0
M  V30 6043 H 574.235 3.98449 4.62678 0
M  V30 6044 H 575.649 5.08819 2.64151 0
M  V30 6045 H 574.046 5.63337 2.06814 0
M  V30 6046 H 575.116 4.75249 0.96262 0
M  V30 6047 N 576.459 -0.456382 1.50847 0
M  V30 6048 C 577.875 -0.791345 1.386 0
M  V30 6049 C 578.075 -1.9633 0.453498 0
M  V30 6050 O 577.131 -2.52308 -0.0984353 0
M  V30 6051 C 578.444 -1.08959 2.80265 0
M  V30 6052 C 579.992 -1.19517 2.89283 0
M  V30 6053 C 580.467 -1.52647 4.31814 0
M  V30 6054 N 581.958 -1.59609 4.34832 0
M  V30 6055 C 582.693 -1.86777 5.42127 0
M  V30 6056 N 582.189 -2.11866 6.59609 0
M  V30 6057 N 583.982 -1.88402 5.29586 0
M  V30 6058 H 576.133 0.315746 2.1004 0
M  V30 6059 H 578.396 0.0787916 0.94472 0
M  V30 6060 H 578.102 -0.301355 3.50407 0
M  V30 6061 H 577.976 -2.02211 3.18419 0
M  V30 6062 H 580.363 -1.97406 2.19351 0
M  V30 6063 H 580.444 -0.242111 2.54652 0
M  V30 6064 H 580.088 -0.752922 5.02288 0
M  V30 6065 H 580.018 -2.49127 4.63943 0
M  V30 6066 H 582.509 -1.42201 3.50125 0
M  V30 6067 H 582.822 -2.31912 7.37182 0
M  V30 6068 H 581.167 -2.09228 6.62758 0
M  V30 6069 H 584.358 -1.68307 4.36795 0
M  V30 6070 H 584.531 -2.09238 6.13289 0
M  V30 6071 N 577.937 -1.40673 -0.710563 0
M  V30 6072 C 579.353 -1.22813 -1.01928 0
M  V30 6073 C 579.553 -0.10687 -2.01216 0
M  V30 6074 O 578.609 0.533614 -2.46797 0
M  V30 6075 C 579.922 -2.57178 -1.5582 0
M  V30 6076 C 581.47 -2.64233 -1.67779 0
M  V30 6077 C 581.945 -3.98879 -2.25076 0
M  V30 6078 N 583.436 -4.00647 -2.32456 0
M  V30 6079 C 584.171 -5.01621 -2.77784 0
M  V30 6080 N 583.667 -6.12989 -3.22826 0
M  V30 6081 N 585.46 -4.88988 -2.77213 0
M  V30 6082 H 577.611 -2.12335 -0.05253 0
M  V30 6083 H 579.874 -0.9441 -0.085898 0
M  V30 6084 H 579.58 -3.39903 -0.903249 0
M  V30 6085 H 579.454 -2.78618 -2.54267 0
M  V30 6086 H 581.841 -1.81876 -2.3239 0
M  V30 6087 H 581.922 -2.46619 -0.679178 0
M  V30 6088 H 581.566 -4.81678 -1.61086 0
M  V30 6089 H 581.496 -4.13826 -3.25661 0
M  V30 6090 H 583.987 -3.20231 -2.0065 0
M  V30 6091 H 584.3 -6.85921 -3.55995 0
M  V30 6092 H 582.645 -6.16547 -3.20773 0
M  V30 6093 H 585.836 -4.01075 -2.41363 0
M  V30 6094 H 586.009 -5.67822 -3.12221 0
M  V30 6095 N 579.415 0.9433 -1.26252 0
M  V30 6096 C 580.831 1.21644 -1.03319 0
M  V30 6097 C 581.031 2.0003 0.242983 0
M  V30 6098 O 580.087 2.33838 0.952688 0
M  V30 6099 C 581.4 1.97978 -2.2633 0
M  V30 6100 C 582.948 2.10978 -2.31209 0
M  V30 6101 C 583.423 2.90713 -3.53907 0
M  V30 6102 N 584.914 2.98287 -3.54371 0
M  V30 6103 C 585.649 3.60406 -4.45976 0
M  V30 6104 N 585.145 4.24043 -5.47868 0
M  V30 6105 N 586.938 3.57658 -4.33633 0
M  V30 6106 H 579.089 0.419221 -2.08222 0
M  V30 6107 H 581.352 0.247995 -0.914988 0
M  V30 6108 H 581.058 1.47788 -3.19142 0
M  V30 6109 H 580.932 2.9865 -2.30408 0
M  V30 6110 H 583.319 2.6036 -1.38913 0
M  V30 6111 H 583.4 1.09575 -2.31143 0
M  V30 6112 H 583.044 2.42018 -4.46531 0
M  V30 6113 H 582.974 3.92367 -3.5122 0
M  V30 6114 H 585.465 2.53044 -2.80673 0
M  V30 6115 H 585.778 4.69334 -6.13959 0
M  V30 6116 H 584.123 4.22637 -5.51728 0
M  V30 6117 H 587.314 3.07134 -3.53251 0
M  V30 6118 H 587.487 4.05782 -5.05218 0
M  V30 6119 N 580.893 1.08022 1.14757 0
M  V30 6120 C 582.139 0.808705 1.85978 0
M  V30 6121 C 582.472 -0.663764 1.82504 0
M  V30 6122 O 581.747 -1.48765 1.25296 0
M  V30 6123 C 582.03 1.32623 3.34788 0
M  V30 6124 C 581.883 2.86375 3.46856 0
M  V30 6125 C 583.202 0.948291 4.29762 0
M  V30 6126 H 580.321 0.295244 0.675278 0
M  V30 6127 H 582.963 1.33917 1.34783 0
M  V30 6128 H 581.113 0.875002 3.78518 0
M  V30 6129 H 582.785 3.39839 3.11941 0
M  V30 6130 H 581.028 3.24232 2.88194 0
M  V30 6131 H 581.699 3.17658 4.51439 0
M  V30 6132 H 584.175 1.33722 3.94028 0
M  V30 6133 H 583.051 1.33765 5.32352 0
M  V30 6134 H 583.312 -0.145094 4.41862 0
M  V30 6135 N 582.371 -1.3172 0.865308 0
M  V30 6136 C 583.281 -2.32394 0.320935 0
M  V30 6137 C 584.297 -1.64511 -0.566746 0
M  V30 6138 O 585.473 -1.95969 -0.464575 0
M  V30 6139 C 582.538 -3.43462 -0.472701 0
M  V30 6140 C 581.599 -4.27015 0.442385 0
M  V30 6141 C 580.832 -5.32779 -0.313469 0
M  V30 6142 O 581.055 -5.49158 -1.54214 0
M  V30 6143 O 579.989 -6.01015 0.326257 0
M  V30 6144 H 583.815 -2.80868 1.15528 0
M  V30 6145 H 581.4 -1.35535 0.628545 0
M  V30 6146 H 583.282 -4.11172 -0.922781 0
M  V30 6147 H 581.957 -2.97159 -1.28367 0
M  V30 6148 H 580.864 -3.62075 0.940866 0
M  V30 6149 H 582.197 -4.76871 1.21882 0
M  V30 6150 N 583.85 -0.624285 -1.44708 0
M  V30 6151 C 584.812 0.0749638 -2.29077 0
M  V30 6152 C 585.812 0.778965 -1.40673 0
M  V30 6153 O 587.003 0.624591 -1.62618 0
M  V30 6154 C 584.135 1.11663 -3.22094 0
M  V30 6155 H 585.327 -0.667013 -2.92388 0
M  V30 6156 H 582.88 -0.384098 -1.51507 0
M  V30 6157 H 583.615 1.88881 -2.63618 0
M  V30 6158 H 583.401 0.61583 -3.87234 0
M  V30 6159 H 584.891 1.60585 -3.8549 0
M  V30 6160 N 585.328 1.53329 -0.364422 0
M  V30 6161 C 586.258 2.28627 0.474543 0
M  V30 6162 C 587.239 1.31009 1.08492 0
M  V30 6163 O 588.424 1.59878 1.10239 0
M  V30 6164 C 585.554 3.07465 1.61501 0
M  V30 6165 C 584.508 4.1276 1.13194 0
M  V30 6166 C 583.834 4.79674 2.36255 0
M  V30 6167 C 585.134 5.21847 0.217507 0
M  V30 6168 H 586.828 2.99005 -0.153656 0
M  V30 6169 H 584.374 1.43803 -0.0753406 0
M  V30 6170 H 586.327 3.58889 2.20855 0
M  V30 6171 H 585.051 2.34775 2.27042 0
M  V30 6172 H 583.71 3.62281 0.56109 0
M  V30 6173 H 583.358 4.03557 3.00251 0
M  V30 6174 H 583.058 5.50827 2.04606 0
M  V30 6175 H 584.582 5.33892 2.96297 0
M  V30 6176 H 585.996 5.6878 0.718493 0
M  V30 6177 H 584.393 6.00099 -0.00806408 0
M  V30 6178 H 585.463 4.7921 -0.740653 0
M  V30 6179 N 586.806 0.0935595 1.57322 0
M  V30 6180 C 587.738 -0.895923 2.10964 0
M  V30 6181 C 588.751 -1.24705 1.04654 0
M  V30 6182 O 589.94 -1.20044 1.32105 0
M  V30 6183 C 587.04 -2.20546 2.57318 0
M  V30 6184 C 586.213 -2.0299 3.87445 0
M  V30 6185 C 585.272 -3.17443 4.19662 0
M  V30 6186 O 584.298 -2.91474 4.88909 0
M  V30 6187 N 585.5 -4.43168 3.74943 0
M  V30 6188 H 588.265 -0.437788 2.96485 0
M  V30 6189 H 585.826 -0.0915863 1.61641 0
M  V30 6190 H 587.818 -2.9606 2.75917 0
M  V30 6191 H 586.388 -2.57789 1.76816 0
M  V30 6192 H 585.608 -1.11815 3.78009 0
M  V30 6193 H 586.896 -1.88535 4.7258 0
M  V30 6194 H 586.294 -4.67149 3.19043 0
M  V30 6195 H 584.851 -5.15637 3.987 0
M  V30 6196 N 588.284 -1.56567 -0.180126 0
M  V30 6197 C 589.532 -1.81133 -0.896392 0
M  V30 6198 C 589.853 -0.669114 -1.83161 0
M  V30 6199 O 589.123 0.311616 -1.93406 0
M  V30 6200 H 587.703 -0.668172 -0.333999 0
M  V30 6201 H 590.365 -1.94048 -0.182051 0
M  V30 6202 H 589.461 -2.74854 -1.47857 0
M  V30 6203 N 589.762 0.448376 -1.51087 0
M  V30 6204 C 591.011 1.19561 -1.62444 0
M  V30 6205 C 591.324 1.92602 -0.341151 0
M  V30 6206 O 592.53 2.69439 -0.333936 0
M  V30 6207 C 590.986 2.17373 -2.8684 0
M  V30 6208 C 590.594 1.5003 -4.22131 0
M  V30 6209 C 592.338 2.92597 -3.0755 0
M  V30 6210 C 590.245 2.46262 -5.37689 0
M  V30 6211 H 589.175 0.449975 -0.605011 0
M  V30 6212 H 591.826 0.463735 -1.77544 0
M  V30 6213 H 590.208 2.93948 -2.65349 0
M  V30 6214 H 591.382 0.790886 -4.53962 0
M  V30 6215 H 589.697 0.870011 -4.0721 0
M  V30 6216 H 592.294 3.64663 -3.91056 0
M  V30 6217 H 592.637 3.53306 -2.20183 0
M  V30 6218 H 593.17 2.23131 -3.29329 0
M  V30 6219 H 589.909 1.90258 -6.27281 0
M  V30 6220 H 589.429 3.15289 -5.10248 0
M  V30 6221 H 591.108 3.07623 -5.6919 0
M  V30 6222 N 591.24 1.41047 0.703093 0
M  V30 6223 C 592.651 1.35657 1.28274 0
M  V30 6224 C 593.002 0.0360309 1.96167 0
M  V30 6225 O 592.127 -0.865833 1.98324 0
M  V30 6226 C 592.722 2.45707 2.33267 0
M  V30 6227 C 591.281 2.43738 2.86825 0
M  V30 6228 C 590.428 2.25941 1.60767 0
M  V30 6229 H 593.379 1.50672 0.49836 0
M  V30 6230 H 593.4 2.14333 3.14391 0
M  V30 6231 H 592.912 3.41805 1.83824 0
M  V30 6232 H 591.013 1.51375 3.40465 0
M  V30 6233 H 591.126 3.39779 3.37768 0
M  V30 6234 H 589.49 1.73681 1.86298 0
M  V30 6235 H 590.273 3.24054 1.1333 0
M  V30 6236 N 592.718 -0.936591 1.26751 0
M  V30 6237 C 593.964 -1.68625 1.13741 0
M  V30 6238 C 594.319 -1.898 -0.315221 0
M  V30 6239 O 593.612 -1.47088 -1.22783 0
M  V30 6240 C 593.806 -3.06099 1.84494 0
M  V30 6241 C 593.635 -2.98338 3.36488 0
M  V30 6242 C 592.405 -3.01104 4.05789 0
M  V30 6243 C 594.603 -2.78128 4.32608 0
M  V30 6244 N 592.585 -2.8369 5.4442 0
M  V30 6245 C 593.956 -2.69329 5.58446 0
M  V30 6246 C 596.011 -2.62946 4.22804 0
M  V30 6247 C 594.714 -2.46899 6.75598 0
M  V30 6248 C 596.74 -2.41892 5.39669 0
M  V30 6249 C 596.102 -2.33829 6.64457 0
M  V30 6250 H 592.201 -0.624227 0.471025 0
M  V30 6251 H 594.785 -1.10798 1.601 0
M  V30 6252 H 592.956 -3.62057 1.40604 0
M  V30 6253 H 594.688 -3.69951 1.64067 0
M  V30 6254 H 591.443 -3.10992 3.57185 0
M  V30 6255 H 591.867 -2.78138 6.17226 0
M  V30 6256 H 596.509 -2.67944 3.27056 0
M  V30 6257 H 594.227 -2.40642 7.71438 0
M  V30 6258 H 597.813 -2.31043 5.33957 0
M  V30 6259 H 596.693 -2.17754 7.53361 0
M  V30 6260 N 594.196 -1.08629 -1.14182 0
M  V30 6261 C 595.442 -0.818556 -1.85546 0
M  V30 6262 C 595.775 0.654076 -1.82854 0
M  V30 6263 O 595.05 1.48099 -1.26083 0
M  V30 6264 C 595.333 -1.34397 -3.3408 0
M  V30 6265 C 595.186 -2.8821 -3.45333 0
M  V30 6266 C 596.505 -0.971069 -4.29253 0
M  V30 6267 H 593.624 -0.298821 -0.673702 0
M  V30 6268 H 596.266 -1.34629 -1.34071 0
M  V30 6269 H 594.416 -0.895064 -3.78049 0
M  V30 6270 H 596.088 -3.41488 -3.10134 0
M  V30 6271 H 594.331 -3.25756 -2.86471 0
M  V30 6272 H 595.002 -3.20047 -4.49749 0
M  V30 6273 H 597.478 -1.35809 -3.93313 0
M  V30 6274 H 596.354 -1.36586 -5.31635 0
M  V30 6275 H 596.615 0.121659 -4.41933 0
M  V30 6276 N 595.674 1.31259 -0.872281 0
M  V30 6277 C 596.622 2.30404 -0.318897 0
M  V30 6278 C 597.616 1.5962 0.567267 0
M  V30 6279 O 598.822 1.74204 0.453111 0
M  V30 6280 H 595.197 0.747243 -0.0844474 0
M  V30 6281 H 597.168 2.74549 -1.16899 0
M  V30 6282 C 595.917 3.44608 0.462683 0
M  V30 6283 H 595.24 3.99248 -0.209936 0
M  V30 6284 H 596.68 4.1609 0.815187 0
M  V30 6285 C 595.139 2.93456 1.65485 0
M  V30 6286 O 595.669 2.92418 2.75417 0
M  V30 6287 N 593.875 2.49628 1.48776 0
M  V30 6288 H 593.422 2.50671 0.593452 0
M  V30 6289 H 593.38 2.15759 2.28682 0
M  V30 6290 N 597.152 0.631951 1.44375 0
M  V30 6291 C 598.38 0.143867 2.06399 0
M  V30 6292 C 598.795 -1.18188 1.47231 0
M  V30 6293 O 598.152 -1.72511 0.595498 0
M  V30 6294 C 598.203 0.0238253 3.61492 0
M  V30 6295 O 597.924 1.29715 4.18456 0
M  V30 6296 C 599.425 -0.492856 4.40552 0
M  V30 6297 H 596.645 0.0800542 0.666207 0
M  V30 6298 H 599.189 0.866586 1.85231 0
M  V30 6299 H 597.344 -0.649338 3.81919 0
M  V30 6300 H 597.758 1.14252 5.11905 0
M  V30 6301 H 599.232 -0.525861 5.49489 0
M  V30 6302 H 599.709 -1.52006 4.12057 0
M  V30 6303 H 600.315 0.147085 4.25046 0
M  V30 6304 N 598.631 -1.53133 0.372548 0
M  V30 6305 C 599.561 -2.28876 -0.462412 0
M  V30 6306 C 600.542 -1.31583 -1.07796 0
M  V30 6307 O 601.727 -1.60461 -1.09389 0
M  V30 6308 C 598.857 -3.08317 -1.59868 0
M  V30 6309 C 597.811 -4.13355 -1.11003 0
M  V30 6310 C 597.137 -4.8092 -2.33708 0
M  V30 6311 C 598.437 -5.21955 -0.18983 0
M  V30 6312 H 600.131 -2.9892 0.169511 0
M  V30 6313 H 597.677 -1.43761 0.0829658 0
M  V30 6314 H 599.63 -3.60055 -2.18949 0
M  V30 6315 H 598.354 -2.35976 -2.25794 0
M  V30 6316 H 597.013 -3.62573 -0.541869 0
M  V30 6317 H 596.661 -4.05144 -2.98106 0
M  V30 6318 H 596.361 -5.51904 -2.01682 0
M  V30 6319 H 597.885 -5.35455 -2.93462 0
M  V30 6320 H 599.299 -5.69153 -0.688319 0
M  V30 6321 H 597.696 -6.00087 0.0398887 0
M  V30 6322 H 598.766 -4.78811 0.766057 0
M  V30 6323 N 600.109 -0.101901 -1.5727 0
M  V30 6324 C 601.072 0.840129 -2.13247 0
M  V30 6325 C 602.072 1.20625 -1.06331 0
M  V30 6326 O 603.262 1.13456 -1.32186 0
M  V30 6327 C 600.394 2.13372 -2.65867 0
M  V30 6328 H 601.587 0.353945 -2.97804 0
M  V30 6329 H 599.14 0.147167 -1.55606 0
M  V30 6330 H 599.875 2.66461 -1.84849 0
M  V30 6331 H 599.66 1.88085 -3.44044 0
M  V30 6332 H 601.15 2.80748 -3.09145 0
M  V30 6333 N 601.587 1.56661 0.17182 0
M  V30 6334 C 602.55 1.9549 1.19651 0
M  V30 6335 C 603.55 0.838501 1.37207 0
M  V30 6336 O 604.74 1.10556 1.34622 0
M  V30 6337 C 601.872 2.24927 2.56166 0
M  V30 6338 H 603.065 2.87184 0.864007 0
M  V30 6339 H 600.618 1.50711 0.41425 0
M  V30 6340 H 601.353 1.35944 2.94431 0
M  V30 6341 H 601.138 3.06301 2.4479 0
M  V30 6342 H 602.628 2.55891 3.30014 0
M  V30 6343 N 603.065 -0.440357 1.51323 0
M  V30 6344 C 604.342 -1.20109 1.5438 0
M  V30 6345 C 604.722 -2.08866 0.306303 0
M  V30 6346 O 604.07 -2.1723 -0.708773 0
M  V30 6347 C 604.28 -2.00555 2.8562 0
M  V30 6348 C 605.628 -2.577 3.37455 0
M  V30 6349 O 606.652 -2.10769 2.8715 0
M  V30 6350 O 605.511 -3.43289 4.25224 0
M  V30 6351 H 602.605 -0.546668 0.620551 0
M  V30 6352 H 605.151 -0.449672 1.63634 0
M  V30 6353 H 603.923 -1.35346 3.67147 0
M  V30 6354 H 603.546 -2.82768 2.79514 0
M  V30 6355 N 604.543 -1.41418 -0.695603 0
M  V30 6356 C 605.453 -1.45622 -1.83933 0
M  V30 6357 C 606.469 -0.346825 -1.70508 0
M  V30 6358 O 607.645 -0.59454 -1.92424 0
M  V30 6359 C 604.71 -1.33627 -3.19914 0
M  V30 6360 C 603.771 -2.54882 -3.45447 0
M  V30 6361 C 603.004 -2.43449 -4.7494 0
M  V30 6362 O 603.227 -1.45905 -5.51424 0
M  V30 6363 O 602.161 -3.33206 -5.01256 0
M  V30 6364 H 605.987 -2.42114 -1.83342 0
M  V30 6365 H 603.572 -1.22956 -0.848658 0
M  V30 6366 H 605.454 -1.29221 -4.01098 0
M  V30 6367 H 604.129 -0.402508 -3.21188 0
M  V30 6368 H 603.036 -2.64865 -2.64192 0
M  V30 6369 H 604.369 -3.47087 -3.48987 0
M  V30 6370 N 606.021 0.929856 -1.27246 0
M  V30 6371 C 606.953 2.03434 -1.0558 0
M  V30 6372 C 607.966 1.62795 -0.0125762 0
M  V30 6373 O 609.155 1.76685 -0.2539 0
M  V30 6374 C 606.255 3.33915 -0.57912 0
M  V30 6375 C 605.428 4.03259 -1.69415 0
M  V30 6376 C 604.487 5.12014 -1.21357 0
M  V30 6377 O 603.513 5.36097 -1.91282 0
M  V30 6378 N 604.715 5.8046 -0.0680622 0
M  V30 6379 H 607.48 2.22583 -2.00691 0
M  V30 6380 H 605.041 1.1001 -1.18783 0
M  V30 6381 H 607.033 4.03978 -0.241563 0
M  V30 6382 H 605.603 3.11355 0.278703 0
M  V30 6383 H 604.823 3.26958 -2.20209 0
M  V30 6384 H 606.111 4.46337 -2.44255 0
M  V30 6385 H 605.509 5.63345 0.515626 0
M  V30 6386 H 604.066 6.51461 0.210332 0
M  V30 6387 N 607.499 1.09233 1.13605 0
M  V30 6388 C 608.747 0.825525 1.84471 0
M  V30 6389 C 609.068 -0.650702 1.83823 0
M  V30 6390 O 608.338 -1.47204 1.29259 0
M  V30 6391 H 606.918 0.3024 0.683054 0
M  V30 6392 H 609.58 1.38006 1.37624 0
M  V30 6393 H 608.676 1.17727 2.89045 0
M  V30 6394 N 608.977 -1.30795 0.87923 0
M  V30 6395 C 609.925 -2.30231 0.331112 0
M  V30 6396 C 610.919 -1.59918 -0.558794 0
M  V30 6397 O 612.125 -1.74441 -0.443866 0
M  V30 6398 H 608.5 -0.746785 0.088409 0
M  V30 6399 H 610.471 -2.73925 1.18353 0
M  V30 6400 C 609.22 -3.44848 -0.444401 0
M  V30 6401 H 608.543 -3.99131 0.231106 0
M  V30 6402 H 609.983 -4.16516 -0.793109 0
M  V30 6403 C 608.442 -2.94329 -1.63926 0
M  V30 6404 O 608.972 -2.93875 -2.73862 0
M  V30 6405 N 607.178 -2.50413 -1.4745 0
M  V30 6406 H 606.725 -2.50982 -0.58015 0
M  V30 6407 H 606.683 -2.16969 -2.27534 0
M  V30 6408 N 610.455 -0.639598 -1.44038 0
M  V30 6409 C 611.418 0.0506628 -2.29144 0
M  V30 6410 C 612.418 0.764001 -1.41491 0
M  V30 6411 O 613.608 0.607309 -1.63271 0
M  V30 6412 C 610.74 1.0824 -3.2326 0
M  V30 6413 H 611.933 -0.697987 -2.91664 0
M  V30 6414 H 609.486 -0.400146 -1.51091 0
M  V30 6415 H 610.221 1.86075 -2.65606 0
M  V30 6416 H 610.006 0.574725 -3.87865 0
M  V30 6417 H 611.496 1.56487 -3.87171 0
M  V30 6418 N 611.933 1.52934 -0.380664 0
M  V30 6419 C 612.863 2.29118 0.450268 0
M  V30 6420 C 613.844 1.32153 1.07096 0
M  V30 6421 O 615.029 1.61038 1.08537 0
M  V30 6422 C 612.159 3.09161 1.58231 0
M  V30 6423 C 611.113 4.13938 1.0881 0
M  V30 6424 C 610.439 4.82153 2.31155 0
M  V30 6425 C 611.739 5.22048 0.162146 0
M  V30 6426 H 613.433 2.98826 -0.185361 0
M  V30 6427 H 610.979 1.43715 -0.0905886 0
M  V30 6428 H 612.932 3.61211 2.17036 0
M  V30 6429 H 611.656 2.3717 2.2454 0
M  V30 6430 H 610.315 3.62855 0.522633 0
M  V30 6431 H 609.963 4.06719 2.95953 0
M  V30 6432 H 609.663 5.52966 1.98752 0
M  V30 6433 H 611.187 5.37004 2.90618 0
M  V30 6434 H 612.601 5.6951 0.658126 0
M  V30 6435 H 610.998 6.00057 -0.0717122 0
M  V30 6436 H 612.068 4.78398 -0.791438 0
M  V30 6437 N 613.412 0.11024 1.57214 0
M  V30 6438 C 614.642 -0.557025 1.98949 0
M  V30 6439 C 615.05 -1.61317 0.988606 0
M  V30 6440 O 614.393 -1.83679 -0.0279159 0
M  V30 6441 C 614.455 -1.24956 3.37085 0
M  V30 6442 C 614.119 -0.342398 4.55716 0
M  V30 6443 C 615.116 0.415511 5.18237 0
M  V30 6444 C 612.801 -0.256029 5.01647 0
M  V30 6445 C 614.795 1.24761 6.25071 0
M  V30 6446 C 612.482 0.579713 6.08344 0
M  V30 6447 C 613.48 1.33017 6.69922 0
M  V30 6448 O 613.168 2.15205 7.74559 0
M  V30 6449 H 612.9 -0.152792 0.658506 0
M  V30 6450 H 615.454 0.19076 2.04512 0
M  V30 6451 H 613.684 -2.04424 3.2825 0
M  V30 6452 H 615.373 -1.81286 3.63167 0
M  V30 6453 H 616.139 0.358605 4.83672 0
M  V30 6454 H 612.018 -0.829831 4.5347 0
M  V30 6455 H 615.562 1.83386 6.73064 0
M  V30 6456 H 611.459 0.638044 6.42339 0
M  V30 6457 H 612.227 2.08052 7.91617 0
M  V30 6458 N 614.89 -1.56749 -0.16351 0
M  V30 6459 C 615.823 -1.9213 -1.23132 0
M  V30 6460 C 616.801 -0.785047 -1.42393 0
M  V30 6461 O 617.985 -1.0391 -1.57273 0
M  V30 6462 C 615.112 -2.17901 -2.59301 0
M  V30 6463 C 614.158 -3.40576 -2.5673 0
M  V30 6464 S 614.991 -4.94689 -2.05045 0
M  V30 6465 C 616.147 -5.23564 -3.42975 0
M  V30 6466 H 616.38 -2.824 -0.929383 0
M  V30 6467 H 613.913 -1.4994 -0.368418 0
M  V30 6468 H 615.871 -2.33429 -3.3767 0
M  V30 6469 H 614.532 -1.28324 -2.86691 0
M  V30 6470 H 613.725 -3.55833 -3.5693 0
M  V30 6471 H 613.327 -3.24204 -1.86462 0
M  V30 6472 H 615.619 -5.16019 -4.3901 0
M  V30 6473 H 616.562 -6.25134 -3.32586 0
M  V30 6474 H 616.97 -4.51113 -3.39348 0
M  V30 6475 N 616.368 0.432326 -1.51554 0
M  V30 6476 C 617.316 1.54572 -1.73811 0
M  V30 6477 C 618.31 1.58246 -0.604539 0
M  V30 6478 O 619.516 1.6193 -0.786041 0
M  V30 6479 H 615.891 0.513626 -0.549265 0
M  V30 6480 H 617.862 1.32977 -2.67132 0
M  V30 6481 C 616.611 2.92181 -1.88483 0
M  V30 6482 H 615.934 2.90088 -2.75116 0
M  V30 6483 H 617.374 3.69439 -2.08065 0
M  V30 6484 C 615.833 3.3065 -0.645909 0
M  V30 6485 O 616.363 4.01216 0.197093 0
M  V30 6486 N 614.569 2.86464 -0.488538 0
M  V30 6487 H 614.116 2.29209 -1.17562 0
M  V30 6488 H 614.074 3.12565 0.339156 0
M  V30 6489 N 617.846 1.41785 0.688094 0
M  V30 6490 C 618.778 1.40159 1.81351 0
M  V30 6491 C 619.791 0.30262 1.59963 0
M  V30 6492 O 620.98 0.564841 1.69327 0
M  V30 6493 C 618.08 1.16517 3.1824 0
M  V30 6494 C 617.253 2.38597 3.66593 0
M  V30 6495 C 616.312 2.10699 4.82174 0
M  V30 6496 O 615.338 2.83798 4.93404 0
M  V30 6497 N 616.54 1.10187 5.69947 0
M  V30 6498 H 619.305 2.3716 1.83236 0
M  V30 6499 H 616.866 1.36494 0.870697 0
M  V30 6500 H 618.858 0.957941 3.93199 0
M  V30 6501 H 617.428 0.280873 3.11336 0
M  V30 6502 H 616.648 2.74974 2.82459 0
M  V30 6503 H 617.936 3.19919 3.95638 0
M  V30 6504 H 617.334 0.497016 5.63512 0
M  V30 6505 H 615.891 0.954518 6.44773 0
M  V30 6506 N 619.324 -0.923095 1.27737 0
M  V30 6507 C 620.549 -1.71054 1.17283 0
M  V30 6508 C 620.974 -1.86208 -0.266153 0
M  V30 6509 O 620.332 -1.36545 -1.1927 0
M  V30 6510 C 620.38 -3.0854 1.86642 0
M  V30 6511 O 619.484 -3.95528 1.16752 0
M  V30 6512 H 618.825 -0.524136 0.407649 0
M  V30 6513 H 621.355 -1.15487 1.6889 0
M  V30 6514 H 621.365 -3.58828 1.94182 0
M  V30 6515 H 620.04 -2.96828 2.91317 0
M  V30 6516 H 618.617 -3.53967 1.17312 0
M  V30 6517 N 620.802 -1.09834 -1.13024 0
M  V30 6518 C 622.048 -0.83819 -1.84668 0
M  V30 6519 C 622.381 0.634645 -1.83537 0
M  V30 6520 O 621.656 1.46753 -1.27647 0
M  V30 6521 C 621.939 -1.37933 -3.32636 0
M  V30 6522 C 621.792 -2.91857 -3.42257 0
M  V30 6523 C 623.111 -1.01654 -4.28199 0
M  V30 6524 H 620.23 -0.30595 -0.670495 0
M  V30 6525 H 622.872 -1.36044 -1.32635 0
M  V30 6526 H 621.022 -0.935111 -3.77078 0
M  V30 6527 H 622.694 -3.44759 -3.06495 0
M  V30 6528 H 620.937 -3.28776 -2.83 0
M  V30 6529 H 621.608 -3.24799 -4.46329 0
M  V30 6530 H 624.084 -1.39973 -3.9185 0
M  V30 6531 H 622.96 -1.42217 -5.30156 0
M  V30 6532 H 623.221 0.0747794 -4.42037 0
M  V30 6533 N 622.28 1.30327 -0.886154 0
M  V30 6534 C 623.526 1.96388 -0.505941 0
M  V30 6535 C 623.859 1.69784 0.942712 0
M  V30 6536 O 623.134 1.00322 1.6663 0
M  V30 6537 C 623.417 3.51488 -0.782826 0
M  V30 6538 C 623.27 3.87603 -2.28219 0
M  V30 6539 C 624.589 4.39331 -0.260128 0
M  V30 6540 H 621.708 0.713327 -0.185292 0
M  V30 6541 H 624.35 1.54178 -1.11036 0
M  V30 6542 H 622.5 3.87572 -0.268399 0
M  V30 6543 H 624.172 3.61537 -2.86512 0
M  V30 6544 H 622.415 3.3563 -2.74837 0
M  V30 6545 H 623.086 4.95806 -2.42653 0
M  V30 6546 H 625.562 4.10162 -0.700444 0
M  V30 6547 H 624.438 5.46769 -0.483179 0
M  V30 6548 H 624.699 4.34072 0.838674 0
M  V30 6549 N 623.758 0.647228 1.43697 0
M  V30 6550 C 625.169 0.238689 1.85168 0
M  V30 6551 C 625.52 -1.21345 1.54175 0
M  V30 6552 O 624.645 -1.92542 0.987743 0
M  V30 6553 C 625.24 0.426422 3.36106 0
M  V30 6554 C 623.799 0.0722541 3.76331 0
M  V30 6555 C 622.946 0.732153 2.6746 0
M  V30 6556 H 625.897 0.851309 1.33934 0
M  V30 6557 H 625.918 -0.32987 3.79067 0
M  V30 6558 H 625.43 1.48339 3.58632 0
M  V30 6559 H 623.531 -0.982355 3.59417 0
M  V30 6560 H 623.644 0.493541 4.76551 0
M  V30 6561 H 622.008 0.16594 2.54159 0
M  V30 6562 H 622.791 1.79204 2.92816 0
M  V30 6563 N 625.236 -1.5273 0.388769 0
M  V30 6564 C 626.466 -2.05693 -0.193397 0
M  V30 6565 C 626.874 -1.26038 -1.41107 0
M  V30 6566 O 626.217 -0.30001 -1.81234 0
M  V30 6567 C 626.279 -3.53962 -0.628561 0
M  V30 6568 C 625.943 -4.54519 0.475576 0
M  V30 6569 C 626.94 -5.02526 1.33281 0
M  V30 6570 C 624.625 -4.98174 0.642453 0
M  V30 6571 C 626.619 -5.92812 2.34205 0
M  V30 6572 C 624.306 -5.88262 1.65503 0
M  V30 6573 C 625.304 -6.35473 2.50325 0
M  V30 6574 O 624.992 -7.23781 3.49852 0
M  V30 6575 H 624.724 -0.675197 -0.0329395 0
M  V30 6576 H 627.278 -1.97835 0.552326 0
M  V30 6577 H 625.508 -3.59437 -1.42625 0
M  V30 6578 H 627.197 -3.89669 -1.13633 0
M  V30 6579 H 627.963 -4.6953 1.21519 0
M  V30 6580 H 623.842 -4.60999 -0.00805093 0
M  V30 6581 H 627.386 -6.29585 3.00447 0
M  V30 6582 H 623.283 -6.20672 1.77304 0
M  V30 6583 H 624.051 -7.4184 3.45855 0
M  V30 6584 N 626.714 -0.118576 -1.57153 0
M  V30 6585 C 627.644 0.828436 -2.1831 0
M  V30 6586 C 628.625 1.27758 -1.12303 0
M  V30 6587 O 629.81 1.34026 -1.40537 0
M  V30 6588 C 626.94 2.07876 -2.78217 0
M  V30 6589 C 625.894 1.76742 -3.89803 0
M  V30 6590 C 625.22 3.08801 -4.36516 0
M  V30 6591 C 626.52 1.03606 -5.11921 0
M  V30 6592 H 628.214 0.318824 -2.97698 0
M  V30 6593 H 625.76 0.151911 -1.43196 0
M  V30 6594 H 627.713 2.74584 -3.19659 0
M  V30 6595 H 626.437 2.61161 -1.96118 0
M  V30 6596 H 625.096 1.12424 -3.48936 0
M  V30 6597 H 624.744 3.6002 -3.51276 0
M  V30 6598 H 624.444 2.88743 -5.11763 0
M  V30 6599 H 625.968 3.76627 -4.80608 0
M  V30 6600 H 627.382 1.60467 -5.50385 0
M  V30 6601 H 625.779 0.936454 -5.92748 0
M  V30 6602 H 626.849 0.0227421 -4.84895 0
M  V30 6603 N 628.193 1.56834 0.155195 0
M  V30 6604 C 629.14 1.97646 1.19184 0
M  V30 6605 C 630.11 0.842788 1.4313 0
M  V30 6606 O 631.295 1.1042 1.55602 0
M  V30 6607 C 628.435 2.35527 2.52232 0
M  V30 6608 C 627.548 3.62147 2.35529 0
M  V30 6609 C 626.683 3.89167 3.61555 0
M  V30 6610 C 625.722 5.09084 3.39853 0
M  V30 6611 N 624.859 5.32156 4.5799 0
M  V30 6612 H 629.699 2.8601 0.836802 0
M  V30 6613 H 627.236 1.41507 0.401758 0
M  V30 6614 H 629.194 2.55516 3.29799 0
M  V30 6615 H 627.824 1.50253 2.85699 0
M  V30 6616 H 626.876 3.4998 1.49057 0
M  V30 6617 H 628.188 4.49871 2.15448 0
M  V30 6618 H 627.342 4.09611 4.47553 0
M  V30 6619 H 626.081 2.9985 3.84632 0
M  V30 6620 H 625.086 4.88522 2.52243 0
M  V30 6621 H 626.311 5.99947 3.18183 0
M  V30 6622 H 624.257 4.45791 4.81255 0
M  V30 6623 H 624.174 6.14133 4.40882 0
M  V30 6624 H 625.442 5.57091 5.45225 0
M  V30 6625 N 629.671 -0.424282 1.51781 0
M  V30 6626 C 631.082 -1.00368 1.57427 0
M  V30 6627 C 631.433 -1.91962 0.40558 0
M  V30 6628 O 630.558 -2.111 -0.47601 0
M  V30 6629 C 631.153 -1.82707 2.85313 0
M  V30 6630 C 629.712 -2.35675 2.93487 0
M  V30 6631 C 628.859 -1.1524 2.5222 0
M  V30 6632 H 631.81 -0.205064 1.5737 0
M  V30 6633 H 631.831 -2.68294 2.69812 0
M  V30 6634 H 631.343 -1.16017 3.70353 0
M  V30 6635 H 629.444 -3.05781 2.12906 0
M  V30 6636 H 629.557 -2.67578 3.97415 0
M  V30 6637 H 627.921 -1.50174 2.05718 0
M  V30 6638 H 628.704 -0.5014 3.39619 0
M  V30 6639 N 631.149 -1.42148 -0.680565 0
M  V30 6640 C 632.059 -1.47565 -1.82378 0
M  V30 6641 C 633.075 -0.36489 -1.70131 0
M  V30 6642 O 634.251 -0.614916 -1.91783 0
M  V30 6643 C 631.316 -1.37013 -3.18478 0
M  V30 6644 C 630.377 -2.58532 -3.42724 0
M  V30 6645 C 629.61 -2.48473 -4.72331 0
M  V30 6646 O 629.833 -1.51745 -5.49845 0
M  V30 6647 O 628.767 -3.38503 -4.97694 0
M  V30 6648 H 632.593 -2.44045 -1.80764 0
M  V30 6649 H 630.178 -1.23849 -0.835569 0
M  V30 6650 H 632.06 -1.33468 -3.99705 0
M  V30 6651 H 630.735 -0.436552 -3.20743 0
M  V30 6652 H 629.642 -2.67652 -2.61368 0
M  V30 6653 H 630.975 -3.50769 -3.45286 0
M  V30 6654 N 632.627 0.916307 -1.28225 0
M  V30 6655 C 633.557 2.0352 -1.14464 0
M  V30 6656 C 634.538 1.70045 -0.0430844 0
M  V30 6657 O 635.723 1.92954 -0.219619 0
M  V30 6658 C 632.853 3.37889 -0.803027 0
M  V30 6659 C 631.807 3.85516 -1.85908 0
M  V30 6660 C 631.133 5.1682 -1.37116 0
M  V30 6661 C 632.433 4.07655 -3.26519 0
M  V30 6662 H 634.127 2.1529 -2.08064 0
M  V30 6663 H 631.673 1.03446 -1.00174 0
M  V30 6664 H 633.626 4.15654 -0.693537 0
M  V30 6665 H 632.35 3.26164 0.168674 0
M  V30 6666 H 631.009 3.09953 -1.95767 0
M  V30 6667 H 630.657 5.01497 -0.38859 0
M  V30 6668 H 630.357 5.49657 -2.07728 0
M  V30 6669 H 631.881 5.97143 -1.27484 0
M  V30 6670 H 633.295 4.75953 -3.19596 0
M  V30 6671 H 631.692 4.51818 -3.94943 0
M  V30 6672 H 632.762 3.12553 -3.70727 0
M  V30 6673 N 634.105 1.10431 1.1244 0
M  V30 6674 C 635.354 0.841539 1.83306 0
M  V30 6675 C 635.667 -0.634961 1.85007 0
M  V30 6676 O 636.873 -1.01363 2.51869 0
M  V30 6677 C 635.329 1.45565 3.29149 0
M  V30 6678 C 634.937 2.96544 3.35806 0
M  V30 6679 C 636.681 1.27227 4.04986 0
M  V30 6680 C 634.588 3.5099 4.75983 0
M  V30 6681 H 633.518 0.311156 0.686803 0
M  V30 6682 H 636.169 1.32829 1.26604 0
M  V30 6683 H 634.551 0.896574 3.85717 0
M  V30 6684 H 635.725 3.58766 2.89177 0
M  V30 6685 H 634.04 3.14036 2.73442 0
M  V30 6686 H 636.637 1.65348 5.08492 0
M  V30 6687 H 636.98 0.213834 4.1575 0
M  V30 6688 H 637.513 1.79941 3.54776 0
M  V30 6689 H 634.252 4.56499 4.70413 0
M  V30 6690 H 633.772 2.93535 5.23065 0
M  V30 6691 H 635.451 3.48808 5.44924 0
M  V30 6692 N 635.583 -1.29855 0.893053 0
M  V30 6693 C 636.994 -1.77946 0.564998 0
M  V30 6694 C 637.345 -1.73339 -0.919134 0
M  V30 6695 O 636.47 -1.3152 -1.71847 0
M  V30 6696 C 637.065 -3.23118 1.01883 0
M  V30 6697 C 635.624 -3.69013 0.742051 0
M  V30 6698 C 634.771 -2.50121 1.19727 0
M  V30 6699 H 637.722 -1.16611 1.07646 0
M  V30 6700 H 637.743 -3.78875 0.351249 0
M  V30 6701 H 637.255 -3.26439 2.09903 0
M  V30 6702 H 635.356 -3.71173 -0.325816 0
M  V30 6703 H 635.469 -4.60117 1.33527 0
M  V30 6704 H 633.833 -2.47128 0.616418 0
M  V30 6705 H 634.616 -2.56174 2.28538 0
M  V30 6706 N 637.061 -0.65484 -1.43351 0
M  V30 6707 C 638.024 0.0263562 -2.29185 0
M  V30 6708 C 639.024 0.748951 -1.42293 0
M  V30 6709 O 640.214 0.589957 -1.63906 0
M  V30 6710 C 637.346 1.04806 -3.2439 0
M  V30 6711 H 638.539 -0.728883 -2.90908 0
M  V30 6712 H 636.092 -0.416149 -1.50658 0
M  V30 6713 H 636.827 1.83247 -2.67565 0
M  V30 6714 H 636.612 0.533554 -3.88453 0
M  V30 6715 H 638.102 1.52372 -3.88809 0
M  V30 6716 N 638.539 1.52521 -0.396863 0
M  V30 6717 C 639.779 2.03583 0.182578 0
M  V30 6718 C 640.143 1.2766 1.43412 0
M  V30 6719 O 641.344 1.68884 2.09121 0
M  V30 6720 C 639.615 3.54724 0.436519 0
M  V30 6721 S 641.174 4.27598 0.985163 0
M  V30 6722 H 637.992 0.709186 0.0507529 0
M  V30 6723 H 640.594 1.87693 -0.546955 0
M  V30 6724 H 639.298 4.07567 -0.481343 0
M  V30 6725 H 638.829 3.74834 1.19427 0
M  V30 6726 H 640.844 4.41393 2.26686 0
M  V30 6727 N 640.017 0.126909 1.57088 0
M  V30 6728 C 640.98 -0.806097 2.14557 0
M  V30 6729 C 641.98 -1.18918 1.08236 0
M  V30 6730 O 643.17 -1.11339 1.33975 0
M  V30 6731 C 640.302 -2.09116 2.69227 0
M  V30 6732 H 641.495 -0.306522 2.98329 0
M  V30 6733 H 639.048 -0.122393 1.5582 0
M  V30 6734 H 639.783 -2.63486 1.89065 0
M  V30 6735 H 639.568 -1.82588 3.46993 0
M  V30 6736 H 641.058 -2.75794 3.13572 0
M  V30 6737 N 641.495 -1.56914 -0.146875 0
M  V30 6738 C 642.744 -1.82546 -0.857898 0
M  V30 6739 C 643.057 -0.708169 -1.8233 0
M  V30 6740 O 644.263 -0.850093 -2.57848 0
M  V30 6741 C 642.719 -3.23548 -1.57623 0
M  V30 6742 C 642.327 -4.43212 -0.653224 0
M  V30 6743 C 644.071 -3.58453 -2.27402 0
M  V30 6744 C 641.978 -5.75237 -1.37318 0
M  V30 6745 H 640.908 -0.680786 -0.32411 0
M  V30 6746 H 643.559 -1.83166 -0.110639 0
M  V30 6747 H 641.941 -3.17315 -2.36912 0
M  V30 6748 H 643.115 -4.60682 0.104452 0
M  V30 6749 H 641.43 -4.16351 -0.0638336 0
M  V30 6750 H 644.027 -4.54349 -2.81907 0
M  V30 6751 H 644.37 -2.84516 -3.03901 0
M  V30 6752 H 644.903 -3.66347 -1.55032 0
M  V30 6753 H 641.642 -6.52269 -0.650041 0
M  V30 6754 H 641.162 -5.61703 -2.10357 0
M  V30 6755 H 642.841 -6.18039 -1.91406 0
M  V30 6756 N 642.974 0.416227 -1.52004 0
M  V30 6757 C 644.385 0.995319 -1.57957 0
M  V30 6758 C 644.736 1.91744 -0.415754 0
M  V30 6759 O 643.861 2.11349 0.464808 0
M  V30 6760 C 644.456 1.81191 -2.86278 0
M  V30 6761 C 643.015 2.34115 -2.94732 0
M  V30 6762 C 642.162 1.139 -2.52828 0
M  V30 6763 H 645.113 0.196716 -1.57476 0
M  V30 6764 H 645.134 2.66859 -2.71231 0
M  V30 6765 H 644.646 1.14051 -3.70963 0
M  V30 6766 H 642.747 3.04647 -2.14525 0
M  V30 6767 H 642.86 2.65466 -3.98829 0
M  V30 6768 H 641.224 1.49081 -2.06511 0
M  V30 6769 H 642.007 0.483383 -3.3988 0
M  V30 6770 N 644.452 1.42507 0.673017 0
M  V30 6771 C 645.384 1.42074 1.79854 0
M  V30 6772 C 646.397 0.319569 1.59633 0
M  V30 6773 O 647.586 0.582769 1.68719 0
M  V30 6774 C 644.686 1.19886 3.16987 0
M  V30 6775 C 643.859 2.42471 3.64042 0
M  V30 6776 C 642.918 2.15802 4.79913 0
M  V30 6777 O 641.944 2.89015 4.90366 0
M  V30 6778 N 643.146 1.16225 5.68746 0
M  V30 6779 H 645.911 2.3909 1.8071 0
M  V30 6780 H 643.472 1.37409 0.856171 0
M  V30 6781 H 645.464 0.999591 3.92161 0
M  V30 6782 H 644.034 0.313879 3.1102 0
M  V30 6783 H 643.254 2.77954 2.79526 0
M  V30 6784 H 644.542 3.24097 3.92223 0
M  V30 6785 H 643.94 0.556756 5.62954 0
M  V30 6786 H 642.497 1.02285 6.43724 0
M  V30 6787 N 645.93 -0.909495 1.28709 0
M  V30 6788 C 646.86 -2.0291 1.15542 0
M  V30 6789 C 647.841 -1.7002 0.0521017 0
M  V30 6790 O 649.026 -1.92835 0.229849 0
M  V30 6791 C 646.156 -3.37458 0.820935 0
M  V30 6792 C 645.11 -3.84524 1.87949 0
M  V30 6793 C 644.436 -5.16086 1.39854 0
M  V30 6794 C 645.736 -4.05918 3.28676 0
M  V30 6795 H 647.43 -2.14183 2.09203 0
M  V30 6796 H 644.976 -1.02913 1.00722 0
M  V30 6797 H 646.929 -4.1528 0.715571 0
M  V30 6798 H 645.653 -3.26249 -0.151374 0
M  V30 6799 H 644.312 -3.08911 1.97408 0
M  V30 6800 H 643.96 -5.01284 0.41518 0
M  V30 6801 H 643.66 -5.48547 2.1064 0
M  V30 6802 H 645.184 -5.96459 1.30649 0
M  V30 6803 H 646.598 -4.74252 3.22115 0
M  V30 6804 H 644.995 -4.49717 3.97334 0
M  V30 6805 H 646.065 -3.10583 3.72379 0
M  V30 6806 N 647.408 -1.11026 -1.11852 0
M  V30 6807 C 648.654 -0.857729 -1.83768 0
M  V30 6808 C 648.987 0.615143 -1.842 0
M  V30 6809 O 648.262 1.45391 -1.29196 0
M  V30 6810 C 648.545 -1.41453 -3.31154 0
M  V30 6811 C 648.398 -2.95471 -3.39142 0
M  V30 6812 C 649.717 -1.0619 -4.27097 0
M  V30 6813 H 646.836 -0.313044 -0.667212 0
M  V30 6814 H 649.478 -1.37443 -1.31185 0
M  V30 6815 H 647.628 -0.975052 -3.76065 0
M  V30 6816 H 649.3 -3.4799 -3.02821 0
M  V30 6817 H 647.543 -3.31759 -2.79497 0
M  V30 6818 H 648.214 -3.29515 -4.42859 0
M  V30 6819 H 650.69 -1.44122 -3.90344 0
M  V30 6820 H 649.566 -1.47832 -5.28618 0
M  V30 6821 H 649.827 0.0278912 -4.42091 0
M  V30 6822 N 648.886 1.2938 -0.899927 0
M  V30 6823 C 649.849 2.25983 -0.382677 0
M  V30 6824 C 650.849 1.53366 0.483259 0
M  V30 6825 O 652.039 1.71798 0.28828 0
M  V30 6826 C 649.171 3.37878 0.452915 0
M  V30 6827 H 650.364 2.73252 -1.23586 0
M  V30 6828 H 647.917 1.40825 -0.678088 0
M  V30 6829 H 648.652 2.95949 1.32608 0
M  V30 6830 H 648.437 3.91742 -0.167562 0
M  V30 6831 H 649.927 4.09746 0.806107 0
M  V30 6832 N 650.364 0.662433 1.43002 0
M  V30 6833 C 651.274 -0.0239199 2.34588 0
M  V30 6834 C 652.29 -0.802255 1.54402 0
M  V30 6835 O 653.466 -0.747401 1.87018 0
M  V30 6836 C 650.531 -0.972098 3.32793 0
M  V30 6837 C 649.592 -0.189673 4.28881 0
M  V30 6838 C 648.825 -1.09269 5.22395 0
M  V30 6839 O 649.048 -2.33209 5.20547 0
M  V30 6840 O 647.982 -0.560136 5.99288 0
M  V30 6841 H 651.808 0.730171 2.94792 0
M  V30 6842 H 649.393 0.422635 1.43297 0
M  V30 6843 H 651.275 -1.51676 3.93157 0
M  V30 6844 H 649.95 -1.70626 2.75079 0
M  V30 6845 H 648.857 0.398794 3.71968 0
M  V30 6846 H 650.19 0.50511 4.89601 0
M  V30 6847 N 651.842 -1.52309 0.404946 0
M  V30 6848 C 653.09 -2.01368 -0.17186 0
M  V30 6849 C 653.411 -1.29261 -1.46002 0
M  V30 6850 O 652.681 -0.41729 -1.91404 0
M  V30 6851 H 651.261 -0.744034 -0.0664993 0
M  V30 6852 H 653.923 -1.87263 0.540228 0
M  V30 6853 H 653.019 -3.09888 -0.370957 0
M  V30 6854 N 653.32 -0.135238 -1.57019 0
M  V30 6855 C 654.25 0.805235 -2.19176 0
M  V30 6856 C 655.231 1.2656 -1.13651 0
M  V30 6857 O 656.416 1.32528 -1.4195 0
M  V30 6858 C 653.546 2.04914 -2.80406 0
M  V30 6859 C 652.5 1.72598 -3.91655 0
M  V30 6860 C 651.826 3.04154 -4.39766 0
M  V30 6861 C 653.126 0.981709 -5.12991 0
M  V30 6862 H 654.82 0.287232 -2.98019 0
M  V30 6863 H 652.366 0.136714 -1.4335 0
M  V30 6864 H 654.319 2.71178 -3.22553 0
M  V30 6865 H 653.043 2.59067 -1.98877 0
M  V30 6866 H 651.702 1.08717 -3.50109 0
M  V30 6867 H 651.35 3.56274 -3.55075 0
M  V30 6868 H 651.05 2.83299 -5.14796 0
M  V30 6869 H 652.574 3.71509 -4.84576 0
M  V30 6870 H 653.988 1.5462 -5.52056 0
M  V30 6871 H 652.385 0.873533 -5.93708 0
M  V30 6872 H 653.455 -0.0286887 -4.84892 0
M  V30 6873 N 654.798 1.5699 0.138552 0
M  V30 6874 C 656.209 1.73171 0.697754 0
M  V30 6875 C 656.56 0.750952 1.8126 0
M  V30 6876 O 655.685 -0.080549 2.1625 0
M  V30 6877 C 656.28 3.13996 1.27248 0
M  V30 6878 C 654.839 3.3175 1.77816 0
M  V30 6879 C 653.986 2.69084 0.669991 0
M  V30 6880 H 656.937 1.5846 -0.0871979 0
M  V30 6881 H 656.958 3.14463 2.14227 0
M  V30 6882 H 656.47 3.85354 0.460855 0
M  V30 6883 H 654.571 2.65403 2.61519 0
M  V30 6884 H 654.684 4.39768 1.90107 0
M  V30 6885 H 653.048 2.29782 1.09874 0
M  V30 6886 H 653.831 3.43053 -0.130329 0
M  V30 6887 N 656.276 -0.40816 1.52223 0
M  V30 6888 C 657.239 -1.48 1.7501 0
M  V30 6889 C 658.239 -1.48367 0.619996 0
M  V30 6890 O 659.429 -1.49874 0.887881 0
M  V30 6891 C 656.561 -2.87403 1.83336 0
M  V30 6892 H 657.754 -1.29086 2.70697 0
M  V30 6893 H 655.307 -0.638715 1.42654 0
M  V30 6894 H 656.042 -3.11686 0.895677 0
M  V30 6895 H 655.827 -2.8854 2.65494 0
M  V30 6896 H 657.317 -3.65103 2.02705 0
M  V30 6897 N 657.755 -1.42862 -0.66545 0
M  V30 6898 C 658.685 -1.49867 -1.79059 0
M  V30 6899 C 659.666 -0.354394 -1.66367 0
M  V30 6900 O 660.851 -0.569969 -1.85647 0
M  V30 6901 C 657.981 -1.40943 -3.17415 0
M  V30 6902 C 656.935 -2.53495 -3.44854 0
M  V30 6903 C 656.261 -2.29626 -4.82883 0
M  V30 6904 C 657.561 -3.95781 -3.40815 0
M  V30 6905 H 659.255 -2.44037 -1.73453 0
M  V30 6906 H 656.801 -1.17456 -0.833071 0
M  V30 6907 H 658.754 -1.4445 -3.95869 0
M  V30 6908 H 657.478 -0.432716 -3.23721 0
M  V30 6909 H 656.137 -2.4932 -2.68766 0
M  V30 6910 H 655.785 -1.30226 -4.8585 0
M  V30 6911 H 655.485 -3.05065 -5.02204 0
M  V30 6912 H 657.009 -2.34897 -5.63609 0
M  V30 6913 H 658.423 -4.01508 -4.09224 0
M  V30 6914 H 656.82 -4.71148 -3.71672 0
M  V30 6915 H 657.89 -4.21786 -2.39216 0
M  V30 6916 N 659.233 0.902656 -1.29189 0
M  V30 6917 C 660.165 2.01149 -1.09872 0
M  V30 6918 C 661.178 1.62732 -0.0471046 0
M  V30 6919 O 662.367 1.76107 -0.29132 0
M  V30 6920 C 659.467 3.32612 -0.649818 0
M  V30 6921 C 658.64 3.99574 -1.7793 0
M  V30 6922 C 657.699 5.09325 -1.32191 0
M  V30 6923 O 656.725 5.31919 -2.02611 0
M  V30 6924 N 657.927 5.80185 -0.191171 0
M  V30 6925 H 660.692 2.18276 -2.05368 0
M  V30 6926 H 658.253 1.07466 -1.2109 0
M  V30 6927 H 660.245 4.03375 -0.327199 0
M  V30 6928 H 658.815 3.11876 0.212597 0
M  V30 6929 H 658.035 3.22213 -2.27095 0
M  V30 6930 H 659.323 4.41056 -2.53668 0
M  V30 6931 H 658.721 5.64312 0.396016 0
M  V30 6932 H 657.278 6.5176 0.0721001 0
M  V30 6933 N 660.711 1.11618 1.11262 0
M  V30 6934 C 661.959 0.864469 1.82678 0
M  V30 6935 C 662.28 -0.611564 1.85162 0
M  V30 6936 O 661.55 -1.44429 1.32352 0
M  V30 6937 H 660.13 0.316821 0.676486 0
M  V30 6938 H 662.792 1.40894 1.34666 0
M  V30 6939 H 661.888 1.23832 2.86482 0
M  V30 6940 N 662.189 -1.289 0.906776 0
M  V30 6941 C 663.121 -2.26556 0.347159 0
M  V30 6942 C 664.134 -1.54589 -0.51049 0
M  V30 6943 O 665.323 -1.75489 -0.326501 0
M  V30 6944 C 662.423 -3.3484 -0.523024 0
M  V30 6945 C 661.596 -4.36296 0.310515 0
M  V30 6946 C 660.655 -5.23879 -0.493634 0
M  V30 6947 O 659.681 -5.69127 0.0913569 0
M  V30 6948 N 660.883 -5.51946 -1.7982 0
M  V30 6949 H 663.648 -2.75212 1.18652 0
M  V30 6950 H 661.209 -1.42309 0.771996 0
M  V30 6951 H 663.201 -3.90366 -1.06756 0
M  V30 6952 H 661.771 -2.85946 -1.26309 0
M  V30 6953 H 660.991 -3.80331 1.03644 0
M  V30 6954 H 662.279 -5.01113 0.881106 0
M  V30 6955 H 661.677 -5.17006 -2.2961 0
M  V30 6956 H 660.234 -6.10258 -2.28971 0
M  V30 6957 N 663.667 -0.670007 -1.42649 0
M  V30 6958 C 664.944 -0.119451 -1.95235 0
M  V30 6959 C 665.324 1.36461 -1.61064 0
M  V30 6960 O 664.672 2.09843 -0.904329 0
M  V30 6961 C 664.882 -0.383498 -3.46887 0
M  V30 6962 C 666.23 -0.297431 -4.23557 0
M  V30 6963 O 667.254 -0.31698 -3.54787 0
M  V30 6964 O 666.113 -0.235507 -5.45992 0
M  V30 6965 H 663.207 -8.85474e-05 -0.827 0
M  V30 6966 H 665.753 -0.744406 -1.52501 0
M  V30 6967 H 664.525 -1.41174 -3.64946 0
M  V30 6968 H 664.148 0.273702 -3.96657 0
M  V30 6969 N 665.145 1.52092 -0.413018 0
M  V30 6970 C 666.37 2.06756 0.163338 0
M  V30 6971 C 666.795 1.28073 1.37764 0
M  V30 6972 O 666.153 0.312015 1.78595 0
M  V30 6973 C 666.201 3.57278 0.488322 0
M  V30 6974 O 665.305 3.80986 1.57871 0
M  V30 6975 H 664.646 0.663882 0.0125068 0
M  V30 6976 H 667.176 1.95988 -0.587339 0
M  V30 6977 H 667.186 4.01125 0.745836 0
M  V30 6978 H 665.861 4.13978 -0.399327 0
M  V30 6979 H 664.438 3.49017 1.31306 0
M  V30 6980 N 666.623 0.143563 1.56945 0
M  V30 6981 C 668.039 -0.212877 1.58174 0
M  V30 6982 C 668.239 -1.64926 1.15766 0
M  V30 6983 O 667.295 -2.37535 0.856361 0
M  V30 6984 C 668.608 0.0427573 3.0067 0
M  V30 6985 C 670.156 -0.0212221 3.12993 0
M  V30 6986 C 670.631 0.207036 4.57532 0
M  V30 6987 N 672.122 0.153845 4.62944 0
M  V30 6988 C 672.857 0.305018 5.72588 0
M  V30 6989 N 672.353 0.513722 6.90893 0
M  V30 6990 N 674.146 0.242862 5.61575 0
M  V30 6991 H 666.297 1.08148 1.82805 0
M  V30 6992 H 668.56 0.427831 0.84597 0
M  V30 6993 H 668.266 1.03672 3.36073 0
M  V30 6994 H 668.14 -0.678195 3.71053 0
M  V30 6995 H 670.527 -1.00574 2.77433 0
M  V30 6996 H 670.608 0.732004 2.45103 0
M  V30 6997 H 670.252 1.18863 4.93795 0
M  V30 6998 H 670.182 -0.566473 5.23544 0
M  V30 6999 H 672.673 -0.00294866 3.779 0
M  V30 7000 H 672.986 0.619273 7.70315 0
M  V30 7001 H 671.331 0.550001 6.9282 0
M  V30 7002 H 674.522 0.0806015 4.68031 0
M  V30 7003 H 674.695 0.364112 6.46976 0
M  V30 7004 N 668.101 -1.57061 -0.130224 0
M  V30 7005 C 669.341 -1.86071 -0.845993 0
M  V30 7006 C 669.705 -0.73009 -1.77577 0
M  V30 7007 O 670.906 -0.901663 -2.53226 0
M  V30 7008 C 669.177 -3.20293 -1.58579 0
M  V30 7009 S 670.736 -3.70905 -2.34467 0
M  V30 7010 H 667.554 -0.652434 -0.282579 0
M  V30 7011 H 670.156 -1.95218 -0.10498 0
M  V30 7012 H 668.86 -4.00533 -0.894509 0
M  V30 7013 H 668.391 -3.14195 -2.36739 0
M  V30 7014 H 670.406 -3.41509 -3.59981 0
M  V30 7015 N 669.579 0.400081 -1.52437 0
M  V30 7016 C 670.542 1.4707 -1.75793 0
M  V30 7017 C 671.542 1.48036 -0.627856 0
M  V30 7018 O 672.732 1.49401 -0.895817 0
M  V30 7019 C 669.864 2.86427 -1.84858 0
M  V30 7020 H 671.057 1.27649 -2.71377 0
M  V30 7021 H 668.61 0.631141 -1.42991 0
M  V30 7022 H 669.345 3.11207 -0.912194 0
M  V30 7023 H 669.13 2.87128 -2.6702 0
M  V30 7024 H 670.62 3.64023 -2.04638 0
M  V30 7025 N 671.057 1.43213 0.657864 0
M  V30 7026 C 672.303 1.45795 1.41829 0
M  V30 7027 C 672.658 0.0792176 1.92237 0
M  V30 7028 O 671.951 -0.901406 1.69072 0
M  V30 7029 C 672.145 2.43143 2.61947 0
M  V30 7030 C 671.974 3.90345 2.23295 0
M  V30 7031 C 670.744 4.58749 2.11843 0
M  V30 7032 C 672.942 4.80308 1.83873 0
M  V30 7033 N 670.924 5.90898 1.66473 0
M  V30 7034 C 672.295 6.01693 1.49549 0
M  V30 7035 C 674.35 4.67609 1.71015 0
M  V30 7036 C 673.053 7.11792 1.03657 0
M  V30 7037 C 675.079 5.77707 1.26527 0
M  V30 7038 C 674.441 6.98215 0.931379 0
M  V30 7039 H 670.54 0.588628 0.514822 0
M  V30 7040 H 673.124 1.7936 0.7575 0
M  V30 7041 H 671.295 2.11612 3.25692 0
M  V30 7042 H 673.027 2.36193 3.28626 0
M  V30 7043 H 669.782 4.1319 2.31453 0
M  V30 7044 H 670.206 6.61034 1.46163 0
M  V30 7045 H 674.848 3.74902 1.95469 0
M  V30 7046 H 672.566 8.04332 0.779502 0
M  V30 7047 H 676.152 5.69899 1.17074 0
M  V30 7048 H 675.032 7.81959 0.592379 0
M  V30 7049 N 672.536 -0.895792 1.29666 0
M  V30 7050 C 673.761 -1.68528 1.20885 0
M  V30 7051 C 674.186 -1.8673 -0.226595 0
M  V30 7052 O 673.544 -1.39044 -1.16347 0
M  V30 7053 C 673.592 -3.04512 1.93144 0
M  V30 7054 O 672.696 -3.92963 1.25115 0
M  V30 7055 H 672.037 -0.515371 0.418675 0
M  V30 7056 H 674.567 -1.11878 1.71302 0
M  V30 7057 H 674.577 -3.54628 2.0175 0
M  V30 7058 H 673.252 -2.90582 2.97548 0
M  V30 7059 H 671.829 -3.51399 1.24794 0
M  V30 7060 N 674.014 -1.12206 -1.10668 0
M  V30 7061 C 675.43 -0.857619 -1.346 0
M  V30 7062 C 675.63 0.513542 -1.94846 0
M  V30 7063 O 674.686 1.26273 -2.18658 0
M  V30 7064 C 675.999 -1.97212 -2.26998 0
M  V30 7065 C 677.547 -2.00272 -2.40542 0
M  V30 7066 C 678.022 -3.10948 -3.36267 0
M  V30 7067 N 679.513 -3.10375 -3.43834 0
M  V30 7068 C 680.248 -3.92651 -4.17867 0
M  V30 7069 N 679.744 -4.84911 -4.94807 0
M  V30 7070 N 681.537 -3.80798 -4.1346 0
M  V30 7071 H 673.688 -2.00558 -0.699306 0
M  V30 7072 H 675.951 -0.872612 -0.370477 0
M  V30 7073 H 675.657 -2.96002 -1.89936 0
M  V30 7074 H 675.531 -1.87521 -3.27286 0
M  V30 7075 H 677.918 -1.02103 -2.76874 0
M  V30 7076 H 677.999 -2.14037 -1.40077 0
M  V30 7077 H 677.643 -4.09348 -3.00661 0
M  V30 7078 H 677.573 -2.94421 -4.36605 0
M  V30 7079 H 680.064 -2.43536 -2.88961 0
M  V30 7080 H 680.377 -5.44207 -5.48688 0
M  V30 7081 H 678.722 -4.88926 -4.93939 0
M  V30 7082 H 681.913 -3.08058 -3.52445 0
M  V30 7083 H 682.086 -4.4515 -4.70898 0
M  V30 7084 N 675.492 1.28418 -0.913599 0
M  V30 7085 C 676.769 1.89977 -0.465619 0
M  V30 7086 C 677.149 1.82813 1.05559 0
M  V30 7087 O 676.497 1.26397 1.90358 0
M  V30 7088 C 676.707 3.34492 -0.995813 0
M  V30 7089 C 678.055 4.11468 -1.04782 0
M  V30 7090 O 679.079 3.43451 -0.944445 0
M  V30 7091 O 677.938 5.33046 -1.20518 0
M  V30 7092 H 675.032 0.813734 -0.147532 0
M  V30 7093 H 677.578 1.36786 -1.00437 0
M  V30 7094 H 676.35 3.33929 -2.03978 0
M  V30 7095 H 675.973 3.95181 -0.437878 0
M  V30 7096 N 676.97 0.677563 1.42291 0
M  V30 7097 C 678.381 0.277912 1.8462 0
M  V30 7098 C 678.732 -1.18048 1.56714 0
M  V30 7099 O 677.857 -1.90404 1.02836 0
M  V30 7100 C 678.452 0.497619 3.35126 0
M  V30 7101 C 677.011 0.152063 3.76093 0
M  V30 7102 C 676.158 0.78872 2.65847 0
M  V30 7103 H 679.109 0.879527 1.32098 0
M  V30 7104 H 679.13 -0.24939 3.79682 0
M  V30 7105 H 678.642 1.55913 3.55405 0
M  V30 7106 H 676.743 -0.905896 3.6142 0
M  V30 7107 H 676.856 0.594514 4.75397 0
M  V30 7108 H 675.22 0.219813 2.5375 0
M  V30 7109 H 676.003 1.85374 2.88949 0
M  V30 7110 N 678.448 -1.51871 0.421078 0
M  V30 7111 C 679.411 -2.25914 -0.386712 0
M  V30 7112 C 680.411 -1.28733 -0.963555 0
M  V30 7113 O 681.601 -1.52579 -0.840556 0
M  V30 7114 C 678.733 -3.03853 -1.54551 0
M  V30 7115 H 679.926 -2.98754 0.261978 0
M  V30 7116 H 677.479 -1.5533 0.173862 0
M  V30 7117 H 678.214 -2.35392 -2.23072 0
M  V30 7118 H 677.999 -3.75215 -1.13824 0
M  V30 7119 H 679.489 -3.59984 -2.11663 0
M  V30 7120 N 679.926 -0.151884 -1.56866 0
M  V30 7121 C 680.889 0.771861 -2.15812 0
M  V30 7122 C 681.889 1.17181 -1.10115 0
M  V30 7123 O 683.079 1.09194 -1.35729 0
M  V30 7124 C 680.211 2.04806 -2.7252 0
M  V30 7125 H 681.404 0.259021 -2.98779 0
M  V30 7126 H 678.957 0.097588 -1.55995 0
M  V30 7127 H 679.692 2.60445 -1.93233 0
M  V30 7128 H 679.477 1.77044 -3.49854 0
M  V30 7129 H 680.967 2.70771 -3.1792 0
M  V30 7130 N 681.404 1.57128 0.121893 0
M  V30 7131 C 682.367 1.99197 1.13372 0
M  V30 7132 C 683.367 0.881728 1.3447 0
M  V30 7133 O 684.557 1.14783 1.31036 0
M  V30 7134 C 681.689 2.32963 2.4888 0
M  V30 7135 H 682.882 2.89788 0.772204 0
M  V30 7136 H 680.435 1.51952 0.366093 0
M  V30 7137 H 681.17 1.45243 2.89957 0
M  V30 7138 H 680.955 3.13934 2.34921 0
M  V30 7139 H 682.445 2.66261 3.21706 0
M  V30 7140 N 682.882 -0.391992 1.52647 0
M  V30 7141 C 683.814 -1.49811 1.73463 0
M  V30 7142 C 684.827 -1.50734 0.615078 0
M  V30 7143 O 686.016 -1.5469 0.890696 0
M  V30 7144 C 683.116 -2.88667 1.77552 0
M  V30 7145 C 682.289 -3.11743 3.06815 0
M  V30 7146 C 681.348 -4.30564 3.02491 0
M  V30 7147 O 680.374 -4.27014 3.76361 0
M  V30 7148 N 681.576 -5.36593 2.21468 0
M  V30 7149 H 684.341 -1.32343 2.68897 0
M  V30 7150 H 681.902 -0.581475 1.51098 0
M  V30 7151 H 683.894 -3.66251 1.7217 0
M  V30 7152 H 682.464 -2.99508 0.895181 0
M  V30 7153 H 681.684 -2.2205 3.25711 0
M  V30 7154 H 682.972 -3.24013 3.92292 0
M  V30 7155 H 682.37 -5.42332 1.60913 0
M  V30 7156 H 680.927 -6.12855 2.21928 0
M  V30 7157 N 684.36 -1.4356 -0.65026 0
M  V30 7158 C 685.323 -1.48615 -1.74489 0
M  V30 7159 C 686.323 -0.370483 -1.56474 0
M  V30 7160 O 687.513 -0.632351 -1.62317 0
M  V30 7161 C 684.645 -1.34161 -3.13391 0
M  V30 7162 H 685.838 -2.46103 -1.71387 0
M  V30 7163 H 683.391 -1.30369 -0.862186 0
M  V30 7164 H 684.126 -0.376918 -3.22102 0
M  V30 7165 H 683.911 -2.1504 -3.27872 0
M  V30 7166 H 685.401 -1.40637 -3.93206 0
M  V30 7167 N 685.838 0.888903 -1.30139 0
M  V30 7168 C 687.086 1.63713 -1.18501 0
M  V30 7169 C 687.407 1.9324 0.261399 0
M  V30 7170 O 686.677 1.56608 1.17689 0
M  V30 7171 H 685.257 0.606861 -0.435579 0
M  V30 7172 H 687.919 1.06525 -1.63213 0
M  V30 7173 H 687.015 2.58894 -1.743 0
M  V30 7174 N 687.317 1.12792 1.10072 0
M  V30 7175 C 688.566 0.880232 1.81479 0
M  V30 7176 C 688.879 -0.595575 1.86312 0
M  V30 7177 O 690.085 -0.959979 2.53962 0
M  V30 7178 C 688.541 1.52514 3.25987 0
M  V30 7179 C 688.149 3.036 3.29441 0
M  V30 7180 C 689.893 1.35788 4.02196 0
M  V30 7181 C 687.8 3.61007 4.68431 0
M  V30 7182 H 686.73 0.325654 0.680048 0
M  V30 7183 H 689.381 1.35485 1.23758 0
M  V30 7184 H 687.763 0.978188 3.83728 0
M  V30 7185 H 688.937 3.64819 2.81502 0
M  V30 7186 H 687.252 3.19765 2.66719 0
M  V30 7187 H 689.849 1.76096 5.0487 0
M  V30 7188 H 690.192 0.301972 4.15203 0
M  V30 7189 H 690.725 1.87426 3.50879 0
M  V30 7190 H 687.464 4.66375 4.60625 0
M  V30 7191 H 686.984 3.04564 5.16721 0
M  V30 7192 H 688.663 3.60289 5.37402 0
M  V30 7193 N 688.795 -1.27931 0.920396 0
M  V30 7194 C 690.023 -1.98805 0.573087 0
M  V30 7195 C 690.438 -1.68724 -0.847201 0
M  V30 7196 O 689.795 -0.943699 -1.56207 0
M  V30 7197 C 689.846 -3.52971 0.780633 0
M  V30 7198 O 689.567 -3.81994 2.14504 0
M  V30 7199 C 691.068 -4.411 0.44105 0
M  V30 7200 H 688.288 -0.634651 0.21785 0
M  V30 7201 H 690.832 -1.62965 1.23542 0
M  V30 7202 H 688.987 -3.87048 0.165204 0
M  V30 7203 H 689.401 -4.76609 2.18962 0
M  V30 7204 H 690.875 -5.48312 0.637006 0
M  V30 7205 H 691.352 -4.34758 -0.62306 0
M  V30 7206 H 691.958 -4.12532 1.0343 0
M  V30 7207 N 690.273 -0.685099 -1.4193 0
M  V30 7208 C 691.684 -0.287699 -1.8447 0
M  V30 7209 C 692.035 1.17215 -1.57338 0
M  V30 7210 O 691.16 1.89856 -1.03845 0
M  V30 7211 C 691.755 -0.515385 -3.34857 0
M  V30 7212 C 690.314 -0.172006 -3.76007 0
M  V30 7213 C 689.461 -0.802808 -2.65425 0
M  V30 7214 H 692.412 -0.88652 -1.3163 0
M  V30 7215 H 692.433 0.229251 -3.79809 0
M  V30 7216 H 691.945 -1.57796 -3.54573 0
M  V30 7217 H 690.046 0.886716 -3.61895 0
M  V30 7218 H 690.159 -0.619717 -4.75075 0
M  V30 7219 H 688.523 -0.233267 -2.5363 0
M  V30 7220 H 689.306 -1.86904 -2.87961 0
M  V30 7221 N 691.751 1.51645 -0.429126 0
M  V30 7222 C 692.714 2.26116 0.374726 0
M  V30 7223 C 693.714 1.29242 0.956714 0
M  V30 7224 O 694.904 1.53022 0.832452 0
M  V30 7225 C 692.036 3.04669 1.52937 0
M  V30 7226 H 693.229 2.9861 -0.277818 0
M  V30 7227 H 690.782 1.55236 -0.182097 0
M  V30 7228 H 691.517 2.36571 2.21821 0
M  V30 7229 H 691.302 3.75814 1.11833 0
M  V30 7230 H 692.792 3.61102 2.09751 0
M  V30 7231 N 693.229 0.160201 1.56784 0
M  V30 7232 C 694.192 -0.760405 2.16219 0
M  V30 7233 C 695.192 -1.16595 1.10735 0
M  V30 7234 O 696.382 -1.08472 1.36306 0
M  V30 7235 C 693.514 -2.03358 2.73603 0
M  V30 7236 H 694.707 -0.243173 2.98912 0
M  V30 7237 H 692.26 -0.0893139 1.56045 0
M  V30 7238 H 692.995 -2.59416 1.94612 0
M  V30 7239 H 692.78 -1.75186 3.50788 0
M  V30 7240 H 694.27 -2.69081 3.19351 0
M  V30 7241 N 694.707 -1.5719 -0.113559 0
M  V30 7242 C 695.639 -1.97393 -1.16484 0
M  V30 7243 C 696.652 -0.873964 -1.37352 0
M  V30 7244 O 697.841 -1.15222 -1.36331 0
M  V30 7245 C 694.941 -2.26174 -2.52386 0
M  V30 7246 C 694.114 -3.57479 -2.52046 0
M  V30 7247 C 693.173 -3.74409 -3.69735 0
M  V30 7248 O 692.199 -4.46463 -3.53071 0
M  V30 7249 N 693.401 -3.13588 -4.88511 0
M  V30 7250 H 696.166 -2.88184 -0.822814 0
M  V30 7251 H 693.727 -1.59044 -0.302769 0
M  V30 7252 H 695.719 -2.3471 -3.29687 0
M  V30 7253 H 694.289 -1.41483 -2.7875 0
M  V30 7254 H 693.509 -3.60081 -1.60421 0
M  V30 7255 H 694.797 -4.43775 -2.48881 0
M  V30 7256 H 694.195 -2.55026 -5.04953 0
M  V30 7257 H 692.752 -3.27637 -5.63469 0
M  V30 7258 N 696.185 0.383891 -1.52853 0
M  V30 7259 C 697.115 1.47559 -1.80965 0
M  V30 7260 C 698.096 1.5669 -0.661986 0
M  V30 7261 O 699.281 1.71556 -0.910072 0
M  V30 7262 C 696.411 2.85114 -1.98312 0
M  V30 7263 C 695.365 2.9082 -3.14019 0
M  V30 7264 C 694.691 4.30873 -3.16627 0
M  V30 7265 C 695.991 2.60001 -4.52986 0
M  V30 7266 H 697.685 1.24283 -2.72386 0
M  V30 7267 H 695.231 0.596445 -1.31067 0
M  V30 7268 H 697.184 3.61496 -2.16561 0
M  V30 7269 H 695.908 3.09738 -1.03585 0
M  V30 7270 H 694.567 2.16886 -2.9556 0
M  V30 7271 H 694.215 4.52545 -2.19573 0
M  V30 7272 H 693.915 4.3561 -3.94357 0
M  V30 7273 H 695.439 5.09154 -3.37038 0
M  V30 7274 H 696.853 3.261 -4.71521 0
M  V30 7275 H 695.25 2.76081 -5.32822 0
M  V30 7276 H 696.32 1.5532 -4.59351 0
M  V30 7277 N 697.663 1.43903 0.642637 0
M  V30 7278 C 699.074 1.40975 1.22404 0
M  V30 7279 C 699.425 0.1192 1.95838 0
M  V30 7280 O 698.55 -0.780939 2.01818 0
M  V30 7281 C 699.145 2.5538 2.22636 0
M  V30 7282 C 697.704 2.55684 2.76229 0
M  V30 7283 C 696.851 2.32556 1.51039 0
M  V30 7284 H 699.802 1.5265 0.434006 0
M  V30 7285 H 699.823 2.27474 3.05017 0
M  V30 7286 H 699.335 3.49294 1.69161 0
M  V30 7287 H 697.436 1.65679 3.33738 0
M  V30 7288 H 697.549 3.53799 3.23053 0
M  V30 7289 H 695.913 1.81427 1.78764 0
M  V30 7290 H 696.696 3.28569 0.99484 0
M  V30 7291 N 699.141 -0.881989 1.30609 0
M  V30 7292 C 700.387 -1.63647 1.19781 0
M  V30 7293 C 700.72 -1.92632 -0.246265 0
M  V30 7294 O 699.995 -1.54938 -1.17577 0
M  V30 7295 C 700.278 -2.97437 2.02985 0
M  V30 7296 C 700.131 -2.75406 3.55628 0
M  V30 7297 C 701.45 -3.98397 1.86997 0
M  V30 7298 H 698.569 -0.593841 0.436488 0
M  V30 7299 H 701.211 -1.02041 1.60273 0
M  V30 7300 H 699.361 -3.50018 1.68581 0
M  V30 7301 H 701.033 -2.2959 4.00107 0
M  V30 7302 H 699.276 -2.09856 3.79662 0
M  V30 7303 H 699.947 -3.70552 4.09139 0
M  V30 7304 H 702.423 -3.54986 2.17081 0
M  V30 7305 H 701.299 -4.89916 2.47536 0
M  V30 7306 H 701.56 -4.3424 0.829943 0
M  V30 7307 N 700.619 -1.13374 -1.09472 0
M  V30 7308 C 701.549 -0.833268 -2.18126 0
M  V30 7309 C 702.53 0.207169 -1.68834 0
M  V30 7310 O 703.715 0.0662012 -1.94087 0
M  V30 7311 C 700.845 -0.297979 -3.46019 0
M  V30 7312 C 699.799 -1.27261 -4.08642 0
M  V30 7313 C 699.125 -0.597104 -5.31356 0
M  V30 7314 C 700.425 -2.63095 -4.51197 0
M  V30 7315 H 702.119 -1.74182 -2.43518 0
M  V30 7316 H 699.665 -0.838921 -1.17039 0
M  V30 7317 H 701.618 -0.0754444 -4.21332 0
M  V30 7318 H 700.342 0.645959 -3.20148 0
M  V30 7319 H 699.001 -1.48113 -3.35348 0
M  V30 7320 H 698.649 0.352293 -5.01765 0
M  V30 7321 H 698.349 -1.24734 -5.74208 0
M  V30 7322 H 699.873 -0.38384 -6.09392 0
M  V30 7323 H 701.287 -2.46214 -5.17737 0
M  V30 7324 H 699.684 -3.2429 -5.04932 0
M  V30 7325 H 700.754 -3.20793 -3.6362 0
M  V30 7326 N 702.098 1.27442 -0.927168 0
M  V30 7327 C 703.028 2.29256 -0.443188 0
M  V30 7328 C 704.009 1.62701 0.49624 0
M  V30 7329 O 705.194 1.90013 0.401105 0
M  V30 7330 C 702.324 3.45955 0.305366 0
M  V30 7331 C 701.278 4.24501 -0.546178 0
M  V30 7332 C 700.604 5.33671 0.331512 0
M  V30 7333 C 701.904 4.89921 -1.81037 0
M  V30 7334 H 703.598 2.69988 -1.29409 0
M  V30 7335 H 701.144 1.29792 -0.623705 0
M  V30 7336 H 703.097 4.1628 0.654885 0
M  V30 7337 H 701.821 3.04138 1.19029 0
M  V30 7338 H 700.48 3.55921 -0.878398 0
M  V30 7339 H 700.128 4.88096 1.21537 0
M  V30 7340 H 699.828 5.87131 -0.234746 0
M  V30 7341 H 701.352 6.0684 0.676614 0
M  V30 7342 H 702.766 5.52536 -1.52895 0
M  V30 7343 H 701.163 5.53436 -2.32009 0
M  V30 7344 H 702.233 4.13652 -2.53021 0
M  V30 7345 N 703.576 0.692616 1.41565 0
M  V30 7346 C 704.992 0.363878 1.55397 0
M  V30 7347 C 705.192 -1.1294 1.66874 0
M  V30 7348 O 704.248 -1.91517 1.64552 0
M  V30 7349 C 705.561 1.10982 2.7947 0
M  V30 7350 C 707.109 1.09387 2.93263 0
M  V30 7351 C 707.584 1.8215 4.20221 0
M  V30 7352 N 709.075 1.79105 4.27172 0
M  V30 7353 C 709.81 2.32247 5.2426 0
M  V30 7354 N 709.306 2.93847 6.27396 0
M  V30 7355 N 711.099 2.22519 5.1618 0
M  V30 7356 H 703.25 1.66116 1.3236 0
M  V30 7357 H 705.513 0.700848 0.63837 0
M  V30 7358 H 705.219 2.1647 2.77188 0
M  V30 7359 H 705.093 0.686492 3.709 0
M  V30 7360 H 707.48 0.0472638 2.95062 0
M  V30 7361 H 707.561 1.55623 2.03015 0
M  V30 7362 H 707.205 2.86789 4.19183 0
M  V30 7363 H 707.135 1.33351 5.09436 0
M  V30 7364 H 709.626 1.34191 3.53272 0
M  V30 7365 H 709.939 3.31972 6.97864 0
M  V30 7366 H 708.284 2.97924 6.27906 0
M  V30 7367 H 711.475 1.7407 4.34531 0
M  V30 7368 H 711.648 2.64239 5.91677 0
M  V30 7369 N 705.054 -1.51416 0.437162 0
M  V30 7370 C 706.47 -1.59349 0.0894459 0
M  V30 7371 C 706.67 -1.44809 -1.40116 0
M  V30 7372 O 705.726 -1.28924 -2.17106 0
M  V30 7373 C 707.039 -2.9446 0.609398 0
M  V30 7374 C 708.587 -3.07769 0.569824 0
M  V30 7375 C 709.062 -4.45404 1.06675 0
M  V30 7376 N 710.553 -4.51723 1.02473 0
M  V30 7377 C 711.288 -5.56544 1.3801 0
M  V30 7378 N 710.784 -6.68784 1.80831 0
M  V30 7379 N 712.577 -5.46901 1.29828 0
M  V30 7380 H 704.728 -1.59112 1.40703 0
M  V30 7381 H 706.991 -0.750031 0.579791 0
M  V30 7382 H 706.697 -3.1047 1.65231 0
M  V30 7383 H 706.571 -3.77184 0.0342236 0
M  V30 7384 H 708.958 -2.91428 -0.464107 0
M  V30 7385 H 709.039 -2.26885 1.1814 0
M  V30 7386 H 708.683 -4.62492 2.09914 0
M  V30 7387 H 708.613 -5.24827 0.431712 0
M  V30 7388 H 711.104 -3.71165 0.710258 0
M  V30 7389 H 711.417 -7.44787 2.06185 0
M  V30 7390 H 709.762 -6.69992 1.84757 0
M  V30 7391 H 712.953 -4.581 0.962397 0
M  V30 7392 H 713.126 -6.2848 1.57851 0
M  V30 7393 N 706.532 -0.168513 -1.56696 0
M  V30 7394 C 707.809 0.523367 -1.88468 0
M  V30 7395 C 708.189 1.81503 -1.07796 0
M  V30 7396 O 707.537 2.27859 -0.171045 0
M  V30 7397 C 707.747 0.767991 -3.40445 0
M  V30 7398 C 709.095 1.09924 -4.10124 0
M  V30 7399 O 710.119 0.856625 -3.45746 0
M  V30 7400 O 708.978 1.55681 -5.23856 0
M  V30 7401 H 706.072 0.269447 -0.781874 0
M  V30 7402 H 708.618 -0.206739 -1.68436 0
M  V30 7403 H 707.39 -0.145254 -3.9103 0
M  V30 7404 H 707.013 1.55151 -3.66079 0
M  V30 7405 N 708.01 1.57248 0.105221 0
M  V30 7406 C 709.257 1.8557 0.810552 0
M  V30 7407 C 709.585 0.755595 1.79223 0
M  V30 7408 O 708.84 -0.251788 1.94073 0
M  V30 7409 C 709.139 3.20437 1.58287 0
M  V30 7410 C 708.805 4.44716 0.744235 0
M  V30 7411 C 707.467 4.78458 0.513013 0
M  V30 7412 C 709.819 5.20953 0.160578 0
M  V30 7413 C 707.147 5.8587 -0.311894 0
M  V30 7414 C 709.499 6.29235 -0.651596 0
M  V30 7415 C 708.163 6.615 -0.893005 0
M  V30 7416 H 707.433 0.67905 0.296602 0
M  V30 7417 H 710.08 1.91363 0.0723968 0
M  V30 7418 H 708.385 3.10283 2.39232 0
M  V30 7419 H 710.082 3.39576 2.13282 0
M  V30 7420 H 706.672 4.18287 0.934555 0
M  V30 7421 H 710.856 4.95226 0.3264 0
M  V30 7422 H 706.112 6.09286 -0.508012 0
M  V30 7423 H 710.286 6.87484 -1.11077 0
M  V30 7424 H 707.913 7.44562 -1.53401 0
M  V30 7425 N 709.488 -0.375779 1.53054 0
M  V30 7426 C 710.734 -1.12114 1.68992 0
M  V30 7427 C 711.067 -1.8926 0.435238 0
M  V30 7428 O 710.342 -1.86044 -0.567278 0
M  V30 7429 C 710.625 -2.08867 2.93337 0
M  V30 7430 C 710.478 -1.35397 4.28938 0
M  V30 7431 C 711.797 -3.09124 3.13257 0
M  V30 7432 H 708.916 -0.406207 0.614951 0
M  V30 7433 H 711.558 -0.403054 1.85676 0
M  V30 7434 H 709.708 -2.70102 2.79244 0
M  V30 7435 H 711.38 -0.770242 4.54824 0
M  V30 7436 H 709.623 -0.655801 4.28814 0
M  V30 7437 H 710.294 -2.06161 5.12056 0
M  V30 7438 H 712.77 -2.57987 3.26469 0
M  V30 7439 H 711.646 -3.74054 4.01715 0
M  V30 7440 H 711.907 -3.78729 2.28072 0
M  V30 7441 N 710.966 -1.44241 -0.634997 0
M  V30 7442 C 711.898 -1.46793 -1.76024 0
M  V30 7443 C 712.911 -0.361781 -1.58729 0
M  V30 7444 O 714.1 -0.627297 -1.67114 0
M  V30 7445 C 711.2 -1.28248 -3.13697 0
M  V30 7446 C 710.373 -2.52038 -3.57485 0
M  V30 7447 C 709.432 -2.2845 -4.74022 0
M  V30 7448 O 708.458 -3.01915 -4.82531 0
M  V30 7449 N 709.66 -1.31264 -5.65464 0
M  V30 7450 H 712.425 -2.43797 -1.74307 0
M  V30 7451 H 709.986 -1.39631 -0.819438 0
M  V30 7452 H 711.978 -1.10321 -3.89373 0
M  V30 7453 H 710.548 -0.39623 -3.10079 0
M  V30 7454 H 709.768 -2.85268 -2.72059 0
M  V30 7455 H 711.056 -3.34382 -3.83492 0
M  V30 7456 H 710.454 -0.705817 -5.6128 0
M  V30 7457 H 709.011 -1.19316 -6.40786 0
M  V30 7458 N 712.444 0.87505 -1.31075 0
M  V30 7459 C 713.392 2.00317 -1.18219 0
M  V30 7460 C 714.386 1.69152 -0.0916872 0
M  V30 7461 O 715.592 1.7821 -0.253229 0
M  V30 7462 H 711.967 0.656981 -0.365895 0
M  V30 7463 H 713.938 2.08293 -2.13674 0
M  V30 7464 C 712.687 3.35821 -0.901095 0
M  V30 7465 H 712.01 3.6032 -1.73233 0
M  V30 7466 H 713.45 4.15366 -0.851295 0
M  V30 7467 C 711.909 3.34563 0.396114 0
M  V30 7468 O 712.439 3.75971 1.41452 0
M  V30 7469 N 710.645 2.87681 0.410832 0
M  V30 7470 H 710.192 2.54179 -0.418415 0
M  V30 7471 H 710.15 2.87223 1.27869 0
M  V30 7472 N 713.922 1.13953 1.08869 0
M  V30 7473 C 715.147 0.928559 1.85452 0
M  V30 7474 C 715.572 -0.517642 1.80837 0
M  V30 7475 O 714.93 -1.36779 1.19001 0
M  V30 7476 C 714.978 1.42814 3.31114 0
M  V30 7477 O 714.082 0.617129 4.07756 0
M  V30 7478 H 713.423 0.33235 0.574839 0
M  V30 7479 H 715.953 1.5156 1.37443 0
M  V30 7480 H 715.963 1.43425 3.8196 0
M  V30 7481 H 714.638 2.48109 3.33788 0
M  V30 7482 H 713.215 0.679365 3.66659 0
M  V30 7483 N 715.4 -1.26948 0.933913 0
M  V30 7484 C 716.348 -2.2862 0.428463 0
M  V30 7485 C 717.342 -1.62144 -0.490464 0
M  V30 7486 O 718.548 -1.76167 -0.36948 0
M  V30 7487 H 714.923 -0.742363 0.120003 0
M  V30 7488 H 716.894 -2.68659 1.29865 0
M  V30 7489 C 715.643 -3.46423 -0.29774 0
M  V30 7490 H 714.966 -3.97792 0.400183 0
M  V30 7491 H 716.406 -4.19505 -0.615736 0
M  V30 7492 C 714.865 -3.01017 -1.51295 0
M  V30 7493 O 715.395 -3.05226 -2.61151 0
M  V30 7494 N 713.601 -2.56442 -1.36696 0
M  V30 7495 H 713.148 -2.53217 -0.473178 0
M  V30 7496 H 713.106 -2.26424 -2.18127 0
M  V30 7497 N 716.879 -0.700114 -1.41195 0
M  V30 7498 C 718.156 -0.160836 -1.94938 0
M  V30 7499 C 718.536 1.33014 -1.63922 0
M  V30 7500 O 717.884 2.07878 -0.948636 0
M  V30 7501 C 718.094 -0.456991 -3.45995 0
M  V30 7502 C 719.442 -0.387207 -4.22831 0
M  V30 7503 O 720.466 -0.392164 -3.54035 0
M  V30 7504 O 719.325 -0.351267 -5.4537 0
M  V30 7505 H 716.419 -0.0176304 -0.826812 0
M  V30 7506 H 718.965 -0.776586 -1.50888 0
M  V30 7507 H 717.737 -1.48884 -3.61869 0
M  V30 7508 H 717.36 0.189503 -3.97148 0
M  V30 7509 N 718.357 1.51182 -0.445186 0
M  V30 7510 C 719.582 2.07056 0.119445 0
M  V30 7511 C 720.007 1.30966 1.35016 0
M  V30 7512 O 719.365 0.349827 1.77893 0
M  V30 7513 C 719.413 3.58234 0.412428 0
M  V30 7514 O 718.517 3.84249 1.49754 0
M  V30 7515 H 717.858 0.663998 -0.00157797 0
M  V30 7516 H 720.388 1.94699 -0.628779 0
M  V30 7517 H 720.398 4.02617 0.660583 0
M  V30 7518 H 719.073 4.13038 -0.487049 0
M  V30 7519 H 717.65 3.51724 1.23873 0
M  V30 7520 N 719.835 0.176821 1.56605 0
M  V30 7521 C 720.798 -0.737429 2.17013 0
M  V30 7522 C 721.798 -1.15414 1.11965 0
M  V30 7523 O 722.988 -1.0702 1.37449 0
M  V30 7524 C 720.12 -2.00445 2.75744 0
M  V30 7525 H 721.313 -0.211455 2.99154 0
M  V30 7526 H 718.866 -0.0727582 1.56131 0
M  V30 7527 H 719.601 -2.57338 1.97352 0
M  V30 7528 H 719.386 -1.71456 3.52626 0
M  V30 7529 H 720.876 -2.65679 3.22187 0
M  V30 7530 N 721.313 -1.57302 -0.09688 0
M  V30 7531 C 722.559 -1.87144 -0.796778 0
M  V30 7532 C 722.914 -0.767428 -1.76432 0
M  V30 7533 O 722.207 0.230728 -1.90206 0
M  V30 7534 C 722.401 -3.21272 -1.56586 0
M  V30 7535 C 722.23 -4.44616 -0.674295 0
M  V30 7536 C 721 -5.04281 -0.320705 0
M  V30 7537 C 723.198 -5.14297 0.0179445 0
M  V30 7538 N 721.18 -6.11162 0.579206 0
M  V30 7539 C 722.551 -6.15125 0.775992 0
M  V30 7540 C 724.606 -4.97815 0.0920521 0
M  V30 7541 C 723.309 -7.01251 1.60122 0
M  V30 7542 C 725.335 -5.84447 0.904175 0
M  V30 7543 C 724.697 -6.84794 1.65035 0
M  V30 7544 H 720.796 -0.734721 -0.267787 0
M  V30 7545 H 723.38 -1.94609 -0.0593955 0
M  V30 7546 H 721.551 -3.14862 -2.27413 0
M  V30 7547 H 723.283 -3.38846 -2.21281 0
M  V30 7548 H 720.038 -4.68866 -0.667961 0
M  V30 7549 H 720.462 -6.69247 1.02166 0
M  V30 7550 H 725.104 -4.20174 -0.470492 0
M  V30 7551 H 722.822 -7.78284 2.17484 0
M  V30 7552 H 726.408 -5.73755 0.964165 0
M  V30 7553 H 725.288 -7.50668 2.26864 0
M  V30 7554 N 722.791 0.367657 -1.53252 0
M  V30 7555 C 723.721 1.45632 -1.8252 0
M  V30 7556 C 724.702 1.55979 -0.678568 0
M  V30 7557 O 725.887 1.70581 -0.928217 0
M  V30 7558 C 723.017 2.82994 -2.01325 0
M  V30 7559 C 721.971 2.87473 -3.17086 0
M  V30 7560 C 721.297 4.2749 -3.21179 0
M  V30 7561 C 722.597 2.55182 -4.55719 0
M  V30 7562 H 724.291 1.21387 -2.73689 0
M  V30 7563 H 721.837 0.58251 -1.31692 0
M  V30 7564 H 723.79 3.59179 -2.20383 0
M  V30 7565 H 722.514 3.08622 -1.06864 0
M  V30 7566 H 721.173 2.13739 -2.97844 0
M  V30 7567 H 720.821 4.5019 -2.24361 0
M  V30 7568 H 720.521 4.31403 -3.98955 0
M  V30 7569 H 722.045 5.0555 -3.42419 0
M  V30 7570 H 723.459 3.21081 -4.74953 0
M  V30 7571 H 721.856 2.70414 -5.3572 0
M  V30 7572 H 722.926 1.5044 -4.60973 0
M  V30 7573 N 724.269 1.44576 0.627338 0
M  V30 7574 C 725.497 1.51048 1.41394 0
M  V30 7575 C 725.912 0.136568 1.88305 0
M  V30 7576 O 725.269 -0.858251 1.6106 0
M  V30 7577 C 725.32 2.47837 2.63172 0
M  V30 7578 O 725.041 3.79887 2.18215 0
M  V30 7579 C 726.542 2.63811 3.56257 0
M  V30 7580 H 723.762 0.512171 0.4335 0
M  V30 7581 H 726.306 1.89576 0.766878 0
M  V30 7582 H 724.461 2.12433 3.23961 0
M  V30 7583 H 724.875 4.32177 2.97192 0
M  V30 7584 H 726.349 3.35554 4.38301 0
M  V30 7585 H 726.826 1.69169 4.05313 0
M  V30 7586 H 727.432 3.0013 3.01333 0
M  V30 7587 N 725.747 -0.868086 1.31537 0
M  V30 7588 C 726.695 -1.99688 1.1928 0
M  V30 7589 C 727.689 -1.69101 0.100656 0
M  V30 7590 O 728.895 -1.78073 0.262677 0
M  V30 7591 H 725.27 -0.655032 0.369374 0
M  V30 7592 H 727.241 -2.07157 2.14776 0
M  V30 7593 C 725.99 -3.35338 0.918892 0
M  V30 7594 H 725.313 -3.59396 1.75142 0
M  V30 7595 H 726.753 -4.14909 0.873311 0
M  V30 7596 C 725.212 -3.34769 -0.378366 0
M  V30 7597 O 725.742 -3.76716 -1.39456 0
M  V30 7598 N 723.948 -2.87895 -0.39557 0
M  V30 7599 H 723.495 -2.53954 0.431889 0
M  V30 7600 H 723.453 -2.87897 -1.26344 0
M  V30 7601 N 727.225 -1.14528 -1.08264 0
M  V30 7602 C 728.636 -0.925261 -1.6216 0
M  V30 7603 C 728.987 0.535587 -1.88748 0
M  V30 7604 O 728.112 1.4048 -1.64604 0
M  V30 7605 C 728.707 -1.67316 -2.94603 0
M  V30 7606 C 727.266 -1.49868 -3.45278 0
M  V30 7607 C 726.413 -1.69471 -2.19487 0
M  V30 7608 H 729.364 -1.29687 -0.914707 0
M  V30 7609 H 729.385 -1.13721 -3.63109 0
M  V30 7610 H 728.897 -2.73635 -2.75219 0
M  V30 7611 H 726.998 -0.459032 -3.69762 0
M  V30 7612 H 727.111 -2.2696 -4.21931 0
M  V30 7613 H 725.475 -1.12048 -2.2873 0
M  V30 7614 H 726.258 -2.77136 -2.0261 0
M  V30 7615 N 728.703 1.26451 -0.940633 0
M  V30 7616 C 729.666 2.24651 -0.454378 0
M  V30 7617 C 730.666 1.54826 0.434222 0
M  V30 7618 O 731.856 1.72628 0.233477 0
M  V30 7619 C 728.988 3.39148 0.345192 0
M  V30 7620 H 730.181 2.69182 -1.32217 0
M  V30 7621 H 727.734 1.38596 -0.722547 0
M  V30 7622 H 728.469 3.00018 1.23125 0
M  V30 7623 H 728.254 3.9101 -0.292107 0
M  V30 7624 H 729.744 4.12103 0.675341 0
M  V30 7625 N 730.181 0.707592 1.40822 0
M  V30 7626 C 731.406 0.251626 2.05868 0
M  V30 7627 C 731.831 -1.09503 1.5294 0
M  V30 7628 O 731.189 -1.68806 0.661385 0
M  V30 7629 C 731.237 0.23287 3.59847 0
M  V30 7630 O 730.341 -0.788477 4.04792 0
M  V30 7631 H 729.682 0.119936 0.653078 0
M  V30 7632 H 732.212 0.96583 1.80369 0
M  V30 7633 H 732.222 0.0678204 4.07944 0
M  V30 7634 H 730.897 1.21565 3.97737 0
M  V30 7635 H 729.474 -0.591802 3.68174 0
M  V30 7636 N 731.66 -1.50943 0.453197 0
M  V30 7637 C 733.071 -1.86699 -0.00619892 0
M  V30 7638 C 733.422 -1.3693 -1.40515 0
M  V30 7639 O 732.547 -0.726715 -2.03833 0
M  V30 7640 C 733.142 -3.38795 -0.018025 0
M  V30 7641 C 731.701 -3.74028 -0.421885 0
M  V30 7642 C 730.848 -2.74752 0.375087 0
M  V30 7643 H 733.799 -1.43942 0.668317 0
M  V30 7644 H 733.82 -3.71468 -0.824125 0
M  V30 7645 H 733.332 -3.74988 1.00028 0
M  V30 7646 H 731.433 -3.43431 -1.44521 0
M  V30 7647 H 731.546 -4.78908 -0.135664 0
M  V30 7648 H 729.91 -2.5414 -0.168794 0
M  V30 7649 H 730.693 -3.13787 1.39256 0
M  V30 7650 N 733.138 -0.185124 -1.56509 0
M  V30 7651 C 734.068 0.735098 -2.21627 0
M  V30 7652 C 735.049 1.2288 -1.1762 0
M  V30 7653 O 736.234 1.27945 -1.46095 0
M  V30 7654 C 733.364 1.95889 -2.86783 0
M  V30 7655 C 732.318 1.6005 -3.96948 0
M  V30 7656 C 731.644 2.90009 -4.4922 0
M  V30 7657 C 732.944 0.818008 -5.15855 0
M  V30 7658 H 734.638 0.192274 -2.98782 0
M  V30 7659 H 732.184 0.0910393 -1.43712 0
M  V30 7660 H 734.137 2.60779 -3.31017 0
M  V30 7661 H 732.861 2.52608 -2.07018 0
M  V30 7662 H 731.52 0.975237 -3.5339 0
M  V30 7663 H 731.168 3.44797 -3.6623 0
M  V30 7664 H 730.868 2.66778 -5.23549 0
M  V30 7665 H 732.392 3.55904 -4.9615 0
M  V30 7666 H 733.806 1.36979 -5.56695 0
M  V30 7667 H 732.203 0.684207 -5.96187 0
M  V30 7668 H 733.273 -0.182939 -4.84555 0
M  V30 7669 N 734.616 1.57351 0.0885366 0
M  V30 7670 C 735.548 1.99221 1.13329 0
M  V30 7671 C 736.561 0.895705 1.35945 0
M  V30 7672 O 737.75 1.17376 1.34481 0
M  V30 7673 C 734.85 2.3016 2.48756 0
M  V30 7674 C 734.023 3.61444 2.46327 0
M  V30 7675 C 733.082 3.80244 3.63732 0
M  V30 7676 O 732.108 4.52024 3.45924 0
M  V30 7677 N 733.31 3.2132 4.8346 0
M  V30 7678 H 736.075 2.89456 0.776862 0
M  V30 7679 H 733.636 1.59505 0.277428 0
M  V30 7680 H 735.628 2.39925 3.25911 0
M  V30 7681 H 734.198 1.459 2.76464 0
M  V30 7682 H 733.418 3.62588 1.54673 0
M  V30 7683 H 734.706 4.47678 2.41789 0
M  V30 7684 H 734.104 2.63028 5.00832 0
M  V30 7685 H 732.661 3.3656 5.58185 0
M  V30 7686 N 736.094 -0.359525 1.53444 0
M  V30 7687 C 737.342 -1.09935 1.69584 0
M  V30 7688 C 737.663 -1.89656 0.453371 0
M  V30 7689 O 736.933 -1.8852 -0.53263 0
M  V30 7690 H 735.513 -0.408843 0.625185 0
M  V30 7691 H 738.175 -0.40467 1.90653 0
M  V30 7692 H 737.271 -1.78575 2.55964 0
M  V30 7693 N 737.572 -1.44907 -0.619662 0
M  V30 7694 C 738.819 -1.48292 -1.37898 0
M  V30 7695 C 739.147 -0.119933 -1.9413 0
M  V30 7696 O 738.402 0.879834 -1.74807 0
M  V30 7697 C 738.701 -2.50002 -2.55409 0
M  V30 7698 C 738.367 -3.95031 -2.17397 0
M  V30 7699 C 737.029 -4.34524 -2.06743 0
M  V30 7700 C 739.381 -4.86287 -1.87548 0
M  V30 7701 C 736.709 -5.63183 -1.64445 0
M  V30 7702 C 739.061 -6.15346 -1.4674 0
M  V30 7703 C 737.725 -6.53781 -1.34636 0
M  V30 7704 H 736.995 -0.542638 -0.504603 0
M  V30 7705 H 739.642 -1.78186 -0.701581 0
M  V30 7706 H 737.947 -2.13634 -3.28433 0
M  V30 7707 H 739.644 -2.49864 -3.13639 0
M  V30 7708 H 736.234 -3.63793 -2.26611 0
M  V30 7709 H 740.418 -4.56522 -1.94682 0
M  V30 7710 H 735.674 -5.91769 -1.53687 0
M  V30 7711 H 739.848 -6.85508 -1.22685 0
M  V30 7712 H 737.475 -7.53375 -1.01634 0
M  V30 7713 N 739.05 0.861098 -1.31996 0
M  V30 7714 C 740.275 1.65264 -1.2531 0
M  V30 7715 C 740.7 1.87265 0.177007 0
M  V30 7716 O 740.058 1.4208 1.12619 0
M  V30 7717 C 740.106 2.99284 -2.0115 0
M  V30 7718 O 739.21 3.89508 -1.3549 0
M  V30 7719 H 738.551 0.50409 -0.432192 0
M  V30 7720 H 741.081 1.07297 -1.74208 0
M  V30 7721 H 741.091 3.49154 -2.11081 0
M  V30 7722 H 739.766 2.82591 -3.05148 0
M  V30 7723 H 738.343 3.47966 -1.34066 0
M  V30 7724 N 740.528 1.15101 1.07655 0
M  V30 7725 C 741.939 0.933848 1.61667 0
M  V30 7726 C 742.29 -0.525569 1.8903 0
M  V30 7727 O 741.415 -1.39605 1.65346 0
M  V30 7728 C 742.01 1.68876 2.93711 0
M  V30 7729 C 740.569 1.51697 3.44478 0
M  V30 7730 C 739.716 1.70633 2.18586 0
M  V30 7731 H 742.667 1.30171 0.907816 0
M  V30 7732 H 742.688 1.15645 3.625 0
M  V30 7733 H 742.2 2.7509 2.73764 0
M  V30 7734 H 740.301 0.478635 3.69513 0
M  V30 7735 H 740.414 2.29194 4.20722 0
M  V30 7736 H 738.778 1.13259 2.28132 0
M  V30 7737 H 739.561 2.78206 2.01137 0
M  V30 7738 N 742.006 -1.2595 0.947325 0
M  V30 7739 C 742.936 -2.28521 0.479604 0
M  V30 7740 C 743.917 -1.63469 -0.470293 0
M  V30 7741 O 745.102 -1.90627 -0.370824 0
M  V30 7742 C 742.232 -3.46397 -0.250289 0
M  V30 7743 C 741.186 -4.23578 0.613643 0
M  V30 7744 C 740.512 -5.34131 -0.246568 0
M  V30 7745 C 741.812 -4.86979 1.88809 0
M  V30 7746 H 743.506 -2.67895 1.33688 0
M  V30 7747 H 741.052 -1.28783 0.644274 0
M  V30 7748 H 743.005 -4.17269 -0.588576 0
M  V30 7749 H 741.729 -3.05993 -1.14175 0
M  V30 7750 H 740.388 -3.54478 0.93491 0
M  V30 7751 H 740.036 -4.89968 -1.13756 0
M  V30 7752 H 739.736 -5.86683 0.328123 0
M  V30 7753 H 741.26 -6.07839 -0.579986 0
M  V30 7754 H 742.674 -5.50034 1.61666 0
M  V30 7755 H 741.071 -5.49675 2.40784 0
M  V30 7756 H 742.141 -4.09575 2.5957 0
M  V30 7757 N 743.484 -0.715051 -1.40445 0
M  V30 7758 C 744.73 -0.254705 -2.01194 0
M  V30 7759 C 745.063 1.14894 -1.56567 0
M  V30 7760 O 744.338 1.77933 -0.785491 0
M  V30 7761 C 744.621 -0.334148 -3.58546 0
M  V30 7762 C 744.474 -1.77613 -4.13248 0
M  V30 7763 C 745.793 0.294968 -4.3911 0
M  V30 7764 H 742.912 -0.094025 -0.730978 0
M  V30 7765 H 745.554 -0.907449 -1.66929 0
M  V30 7766 H 743.704 0.221609 -3.87867 0
M  V30 7767 H 745.376 -2.38723 -3.94727 0
M  V30 7768 H 743.619 -2.30402 -3.67556 0
M  V30 7769 H 744.29 -1.78311 -5.22407 0
M  V30 7770 H 746.766 -0.178563 -4.15717 0
M  V30 7771 H 745.642 0.208934 -5.48502 0
M  V30 7772 H 745.903 1.37841 -4.20062 0
M  V30 7773 N 744.962 1.50701 -0.461195 0
M  V30 7774 C 746.187 2.07171 0.0974773 0
M  V30 7775 C 746.612 1.32391 1.3362 0
M  V30 7776 O 745.97 0.368676 1.77512 0
M  V30 7777 C 746.018 3.58651 0.374409 0
M  V30 7778 O 745.122 3.85816 1.4567 0
M  V30 7779 H 744.463 0.663944 -0.00862047 0
M  V30 7780 H 746.993 1.94021 -0.649394 0
M  V30 7781 H 747.003 4.03295 0.617843 0
M  V30 7782 H 745.678 4.12498 -0.530829 0
M  V30 7783 H 744.255 3.53018 1.20136 0
M  V30 7784 N 746.441 0.193421 1.56409 0
M  V30 7785 C 747.373 -0.759944 2.16235 0
M  V30 7786 C 748.386 -1.17797 1.12373 0
M  V30 7787 O 749.575 -1.11399 1.39472 0
M  V30 7788 C 746.675 -2.03735 2.70823 0
M  V30 7789 C 745.848 -1.77939 3.9957 0
M  V30 7790 C 744.907 -2.90111 4.39001 0
M  V30 7791 O 743.933 -2.59791 5.06456 0
M  V30 7792 N 745.135 -4.18426 4.02368 0
M  V30 7793 H 747.9 -0.248348 2.98669 0
M  V30 7794 H 745.461 0.0113966 1.61896 0
M  V30 7795 H 747.453 -2.77914 2.94187 0
M  V30 7796 H 746.023 -2.46022 1.92852 0
M  V30 7797 H 745.243 -0.875491 3.84355 0
M  V30 7798 H 746.531 -1.58099 4.83614 0
M  V30 7799 H 745.929 -4.45913 3.48106 0
M  V30 7800 H 744.486 -4.89237 4.30686 0
M  V30 7801 N 747.919 -1.57396 -0.0801906 0
M  V30 7802 C 748.829 -2.06451 -1.11423 0
M  V30 7803 C 749.845 -0.992352 -1.42928 0
M  V30 7804 O 751.021 -1.30651 -1.53272 0
M  V30 7805 C 748.086 -2.49164 -2.41077 0
M  V30 7806 C 747.147 -3.70641 -2.16619 0
M  V30 7807 C 746.38 -4.11307 -3.40092 0
M  V30 7808 O 746.603 -3.51922 -4.48895 0
M  V30 7809 O 745.537 -5.04157 -3.288 0
M  V30 7810 H 749.363 -2.94857 -0.727519 0
M  V30 7811 H 746.948 -1.46484 -0.293743 0
M  V30 7812 H 748.83 -2.77196 -3.17396 0
M  V30 7813 H 747.505 -1.6389 -2.79145 0
M  V30 7814 H 746.412 -3.47703 -1.38033 0
M  V30 7815 H 747.745 -4.5674 -1.83437 0
M  V30 7816 N 749.397 0.351382 -1.53633 0
M  V30 7817 C 750.344 1.43115 -1.81071 0
M  V30 7818 C 751.314 1.52601 -0.655913 0
M  V30 7819 O 752.499 1.68264 -0.89955 0
M  V30 7820 C 749.639 2.79874 -2.01903 0
M  V30 7821 C 748.752 2.79242 -3.29618 0
M  V30 7822 C 747.887 4.07667 -3.40559 0
M  V30 7823 C 746.926 4.01233 -4.62254 0
M  V30 7824 N 746.063 5.21334 -4.70271 0
M  V30 7825 H 750.903 1.19017 -2.73201 0
M  V30 7826 H 748.44 0.576691 -1.35324 0
M  V30 7827 H 750.398 3.5934 -2.11969 0
M  V30 7828 H 749.028 3.0234 -1.13094 0
M  V30 7829 H 748.08 1.91927 -3.28433 0
M  V30 7830 H 749.392 2.70363 -4.19172 0
M  V30 7831 H 748.546 4.95555 -3.50015 0
M  V30 7832 H 747.285 4.19317 -2.49047 0
M  V30 7833 H 746.29 3.11732 -4.52884 0
M  V30 7834 H 747.515 3.91173 -5.55122 0
M  V30 7835 H 745.461 5.33543 -3.81665 0
M  V30 7836 H 745.378 5.14681 -5.5375 0
M  V30 7837 H 746.646 6.11014 -4.84027 0
M  V30 7838 N 750.875 1.45233 0.611969 0
M  V30 7839 C 752.286 1.4354 1.19387 0
M  V30 7840 C 752.637 0.160713 1.95541 0
M  V30 7841 O 751.762 -0.737954 2.03429 0
M  V30 7842 C 752.357 2.60045 2.17169 0
M  V30 7843 C 750.916 2.61486 2.70744 0
M  V30 7844 C 750.063 2.35708 1.46072 0
M  V30 7845 H 753.014 1.53536 0.401529 0
M  V30 7846 H 753.035 2.33893 3.00124 0
M  V30 7847 H 752.547 3.52803 1.61714 0
M  V30 7848 H 750.648 1.72721 3.30149 0
M  V30 7849 H 750.761 3.60572 3.15476 0
M  V30 7850 H 749.125 1.85178 1.74875 0
M  V30 7851 H 749.908 3.30606 0.924922 0
M  V30 7852 N 752.353 -0.854086 1.3245 0
M  V30 7853 C 753.602 -1.60318 1.22397 0
M  V30 7854 C 753.915 -1.9444 -0.212664 0
M  V30 7855 O 755.121 -2.67991 -0.435066 0
M  V30 7856 C 753.577 -2.8909 2.1437 0
M  V30 7857 C 753.185 -2.62391 3.63119 0
M  V30 7858 C 754.929 -3.67104 2.13155 0
M  V30 7859 C 752.836 -3.87167 4.47052 0
M  V30 7860 H 751.766 -0.601586 0.454544 0
M  V30 7861 H 754.417 -0.943023 1.57415 0
M  V30 7862 H 752.799 -3.56567 1.72268 0
M  V30 7863 H 753.973 -2.03222 4.13567 0
M  V30 7864 H 752.288 -1.97706 3.66471 0
M  V30 7865 H 754.885 -4.59696 2.731 0
M  V30 7866 H 755.228 -4.00876 1.12268 0
M  V30 7867 H 755.761 -3.06533 2.5354 0
M  V30 7868 H 752.5 -3.58536 5.48755 0
M  V30 7869 H 752.02 -4.45729 4.01355 0
M  V30 7870 H 753.699 -4.549 4.60081 0
M  V30 7871 N 753.831 -1.1567 -1.07043 0
M  V30 7872 C 755.079 -0.931673 -1.79344 0
M  V30 7873 C 755.4 0.542421 -1.87304 0
M  V30 7874 O 754.67 1.39418 -1.37621 0
M  V30 7875 H 753.25 -0.34171 -0.664262 0
M  V30 7876 H 755.912 -1.45795 -1.29344 0
M  V30 7877 H 755.008 -1.34379 -2.81689 0
M  V30 7878 N 755.309 1.25446 -0.953992 0
M  V30 7879 C 756.72 1.75047 -0.649255 0
M  V30 7880 C 757.071 1.77527 0.835385 0
M  V30 7881 O 756.196 1.39569 1.65377 0
M  V30 7882 C 756.791 3.17889 -1.17183 0
M  V30 7883 C 755.35 3.65052 -0.917267 0
M  V30 7884 C 754.497 2.44124 -1.31525 0
M  V30 7885 H 757.448 1.11342 -1.13087 0
M  V30 7886 H 757.469 3.76768 -0.531616 0
M  V30 7887 H 756.981 3.16052 -2.25239 0
M  V30 7888 H 755.082 3.72305 0.148354 0
M  V30 7889 H 755.195 4.53222 -1.55328 0
M  V30 7890 H 753.559 2.43906 -0.733624 0
M  V30 7891 H 754.342 2.44979 -2.405 0
M  V30 7892 N 756.787 0.722489 1.40064 0
M  V30 7893 C 758.203 0.396758 1.5459 0
M  V30 7894 C 758.403 -1.09375 1.69232 0
M  V30 7895 O 757.459 -1.87984 1.68578 0
M  V30 7896 C 758.772 1.16885 2.77053 0
M  V30 7897 C 760.32 1.15583 2.90877 0
M  V30 7898 C 760.795 1.91023 4.16262 0
M  V30 7899 N 762.286 1.88126 4.23276 0
M  V30 7900 C 763.021 2.43315 5.19216 0
M  V30 7901 N 762.517 3.07089 6.21022 0
M  V30 7902 N 764.31 2.33418 5.11344 0
M  V30 7903 H 756.461 1.68887 1.28806 0
M  V30 7904 H 758.724 0.714231 0.62336 0
M  V30 7905 H 758.43 2.22301 2.72534 0
M  V30 7906 H 758.304 0.765011 3.69361 0
M  V30 7907 H 760.691 0.10984 2.94896 0
M  V30 7908 H 760.772 1.59895 1.99668 0
M  V30 7909 H 760.416 2.95616 4.13006 0
M  V30 7910 H 760.346 1.44126 5.06493 0
M  V30 7911 H 762.837 1.41654 3.50346 0
M  V30 7912 H 763.15 3.467 6.90666 0
M  V30 7913 H 761.495 3.11175 6.21446 0
M  V30 7914 H 764.686 1.83248 4.30741 0
M  V30 7915 H 764.859 2.7673 5.85939 0
M  V30 7916 N 758.265 -1.50454 0.469181 0
M  V30 7917 C 759.228 -2.2703 -0.314643 0
M  V30 7918 C 760.228 -1.31734 -0.922111 0
M  V30 7919 O 761.418 -1.55176 -0.791588 0
M  V30 7920 C 758.55 -3.08616 -1.44806 0
M  V30 7921 H 759.743 -2.97769 0.356892 0
M  V30 7922 H 757.296 -1.54698 0.223191 0
M  V30 7923 H 758.031 -2.42369 -2.1547 0
M  V30 7924 H 757.816 -3.78647 -1.01829 0
M  V30 7925 H 759.306 -3.66536 -2.00103 0
M  V30 7926 N 759.743 -0.201713 -1.56304 0
M  V30 7927 C 761.159 0.154025 -1.58855 0
M  V30 7928 C 761.359 1.60516 -1.21807 0
M  V30 7929 O 760.415 2.34193 -0.94393 0
M  V30 7930 C 761.728 -0.154319 -3.00304 0
M  V30 7931 C 763.276 -0.0949578 -3.12856 0
M  V30 7932 C 763.751 -0.376703 -4.56448 0
M  V30 7933 N 765.242 -0.325558 -4.62054 0
M  V30 7934 C 765.977 -0.51732 -5.71062 0
M  V30 7935 N 765.473 -0.769789 -6.8851 0
M  V30 7936 N 767.266 -0.45112 -5.60287 0
M  V30 7937 H 759.417 -1.14858 -1.78666 0
M  V30 7938 H 761.68 -0.458934 -0.829508 0
M  V30 7939 H 761.386 -1.16074 -3.31994 0
M  V30 7940 H 761.26 0.540014 -3.73314 0
M  V30 7941 H 763.647 0.902075 -2.80974 0
M  V30 7942 H 763.728 -0.822468 -2.42217 0
M  V30 7943 H 763.372 -1.37108 -4.89044 0
M  V30 7944 H 763.302 0.371772 -5.25286 0
M  V30 7945 H 765.793 -0.137308 -3.7765 0
M  V30 7946 H 766.106 -0.904744 -7.67486 0
M  V30 7947 H 764.451 -0.806758 -6.90302 0
M  V30 7948 H 767.642 -0.254253 -4.67409 0
M  V30 7949 H 767.815 -0.603982 -6.45179 0
M  V30 7950 N 761.222 1.57436 0.0718424 0
M  V30 7951 C 762.452 1.91196 0.782795 0
M  V30 7952 C 762.86 0.795927 1.71644 0
M  V30 7953 O 762.203 -0.239604 1.82131 0
M  V30 7954 C 762.265 3.20421 1.63005 0
M  V30 7955 C 761.929 4.48724 0.865782 0
M  V30 7956 C 762.926 5.19571 0.185051 0
M  V30 7957 C 760.611 4.95345 0.832971 0
M  V30 7958 C 762.605 6.3529 -0.518264 0
M  V30 7959 C 760.292 6.1097 0.125884 0
M  V30 7960 C 761.29 6.80794 -0.548533 0
M  V30 7961 O 760.978 7.94213 -1.24423 0
M  V30 7962 H 760.71 0.636486 0.227731 0
M  V30 7963 H 763.264 2.05348 0.0464187 0
M  V30 7964 H 761.494 3.02478 2.40923 0
M  V30 7965 H 763.183 3.39831 2.21968 0
M  V30 7966 H 763.949 4.8458 0.201707 0
M  V30 7967 H 759.828 4.40871 1.34737 0
M  V30 7968 H 763.372 6.89725 -1.04523 0
M  V30 7969 H 759.269 6.45411 0.107155 0
M  V30 7970 H 760.037 8.10331 -1.1535 0
M  V30 7971 N 762.7 -0.34323 1.53817 0
M  V30 7972 C 763.663 -1.40444 1.8113 0
M  V30 7973 C 764.663 -1.45604 0.682366 0
M  V30 7974 O 765.853 -1.45974 0.950649 0
M  V30 7975 C 762.985 -2.79369 1.95361 0
M  V30 7976 H 764.178 -1.17489 2.75928 0
M  V30 7977 H 761.731 -0.577636 1.45234 0
M  V30 7978 H 762.466 -3.07607 1.02707 0
M  V30 7979 H 762.251 -2.7702 2.77493 0
M  V30 7980 H 763.741 -3.56178 2.18008 0
M  V30 7981 N 764.178 -1.45556 -0.604258 0
M  V30 7982 C 765.108 -1.57327 -1.72541 0
M  V30 7983 C 766.089 -0.424637 -1.64714 0
M  V30 7984 O 767.274 -0.648196 -1.83063 0
M  V30 7985 C 764.404 -1.54279 -3.11152 0
M  V30 7986 C 763.358 -2.67893 -3.33792 0
M  V30 7987 C 762.684 -2.499 -4.72709 0
M  V30 7988 C 763.984 -4.0988 -3.23722 0
M  V30 7989 H 765.678 -2.51175 -1.62947 0
M  V30 7990 H 763.224 -1.20884 -0.782504 0
M  V30 7991 H 765.177 -1.6111 -3.89386 0
M  V30 7992 H 763.901 -0.569627 -3.21594 0
M  V30 7993 H 762.56 -2.60495 -2.57949 0
M  V30 7994 H 762.208 -1.50715 -4.79889 0
M  V30 7995 H 761.908 -3.26091 -4.88813 0
M  V30 7996 H 763.432 -2.5859 -5.5314 0
M  V30 7997 H 764.846 -4.18503 -3.91826 0
M  V30 7998 H 763.243 -4.86487 -3.51355 0
M  V30 7999 H 764.313 -4.31553 -2.21111 0
M  V30 8000 N 765.656 0.84705 -1.32902 0
M  V30 8001 C 766.881 1.63925 -1.27056 0
M  V30 8002 C 767.306 1.87443 0.157136 0
M  V30 8003 O 766.664 1.43266 1.11106 0
M  V30 8004 C 766.712 2.97134 -2.04313 0
M  V30 8005 O 765.816 3.88049 -1.39614 0
M  V30 8006 H 765.157 0.499477 -0.437514 0
M  V30 8007 H 767.687 1.05443 -1.75336 0
M  V30 8008 H 767.697 3.46896 -2.14772 0
M  V30 8009 H 766.372 2.79339 -3.08128 0
M  V30 8010 H 764.949 3.46525 -1.3775 0
M  V30 8011 N 767.134 1.16236 1.06428 0
M  V30 8012 C 768.55 0.906983 1.31324 0
M  V30 8013 C 768.75 -0.440872 1.96618 0
M  V30 8014 O 767.806 -1.1807 2.23194 0
M  V30 8015 C 769.119 2.05501 2.19522 0
M  V30 8016 C 770.667 2.09061 2.32943 0
M  V30 8017 C 771.142 3.23214 3.24495 0
M  V30 8018 N 772.633 3.22922 3.32078 0
M  V30 8019 C 773.368 4.07889 4.03006 0
M  V30 8020 N 772.864 5.02941 4.76469 0
M  V30 8021 N 774.657 3.95881 3.99043 0
M  V30 8022 H 766.808 2.03015 0.624388 0
M  V30 8023 H 769.071 0.88576 0.337835 0
M  V30 8024 H 768.777 3.02847 1.78819 0
M  V30 8025 H 768.651 1.99538 3.201 0
M  V30 8026 H 771.038 1.12308 2.72893 0
M  V30 8027 H 771.119 2.19089 1.32037 0
M  V30 8028 H 770.763 4.20225 2.85261 0
M  V30 8029 H 770.693 3.10423 4.25377 0
M  V30 8030 H 773.184 2.54093 2.79724 0
M  V30 8031 H 773.497 5.64196 5.28112 0
M  V30 8032 H 771.842 5.06922 4.75453 0
M  V30 8033 H 775.033 3.20927 3.40769 0
M  V30 8034 H 775.206 4.62321 4.54052 0
M  V30 8035 N 768.612 -1.24939 0.960631 0
M  V30 8036 C 769.542 -2.28 0.503815 0
M  V30 8037 C 770.523 -1.63959 -0.452928 0
M  V30 8038 O 771.708 -1.91009 -0.350585 0
M  V30 8039 C 768.838 -3.46643 -0.213535 0
M  V30 8040 C 767.792 -4.22903 0.658535 0
M  V30 8041 C 767.118 -5.34363 -0.189902 0
M  V30 8042 C 768.418 -4.84949 1.93963 0
M  V30 8043 H 770.112 -2.66462 1.36521 0
M  V30 8044 H 767.658 -1.28093 0.657897 0
M  V30 8045 H 769.611 -4.1787 -0.544286 0
M  V30 8046 H 768.335 -3.07187 -1.10923 0
M  V30 8047 H 766.994 -3.53467 0.972455 0
M  V30 8048 H 766.642 -4.91147 -1.08553 0
M  V30 8049 H 766.342 -5.86302 0.390331 0
M  V30 8050 H 767.866 -6.0842 -0.515484 0
M  V30 8051 H 769.28 -5.48288 1.67491 0
M  V30 8052 H 767.677 -5.47091 2.46601 0
M  V30 8053 H 768.747 -4.06799 2.639 0
M  V30 8054 N 770.09 -0.729906 -1.39679 0
M  V30 8055 C 771.022 -0.0470588 -2.29152 0
M  V30 8056 C 772.035 0.708808 -1.4656 0
M  V30 8057 O 773.224 0.553815 -1.69691 0
M  V30 8058 C 770.324 0.957612 -3.25089 0
M  V30 8059 C 769.497 0.264321 -4.36601 0
M  V30 8060 C 768.556 1.17638 -5.12882 0
M  V30 8061 O 767.582 0.655777 -5.6541 0
M  V30 8062 N 768.784 2.50649 -5.23598 0
M  V30 8063 H 771.549 -0.815364 -2.88395 0
M  V30 8064 H 769.11 -0.578707 -1.51204 0
M  V30 8065 H 771.102 1.57026 -3.72995 0
M  V30 8066 H 769.672 1.62716 -2.66912 0
M  V30 8067 H 768.892 -0.528732 -3.90638 0
M  V30 8068 H 770.18 -0.216344 -5.0834 0
M  V30 8069 H 769.578 2.95427 -4.82431 0
M  V30 8070 H 768.135 3.07022 -5.74961 0
M  V30 8071 N 771.568 1.50203 -0.477153 0
M  V30 8072 C 772.816 2.01959 0.0755889 0
M  V30 8073 C 773.137 1.3608 1.39668 0
M  V30 8074 O 772.407 0.508136 1.89195 0
M  V30 8075 H 770.987 0.74636 0.0309248 0
M  V30 8076 H 773.649 1.84473 -0.628959 0
M  V30 8077 H 772.745 3.11305 0.222683 0
M  V30 8078 N 773.046 0.209999 1.56195 0
M  V30 8079 C 773.993 -0.704854 2.19774 0
M  V30 8080 C 774.963 -1.19886 1.14964 0
M  V30 8081 O 776.148 -1.26005 1.43274 0
M  V30 8082 C 773.288 -1.91241 2.87265 0
M  V30 8083 C 772.401 -1.45838 4.06639 0
M  V30 8084 C 771.536 -2.6226 4.61945 0
M  V30 8085 C 770.575 -2.13537 5.73645 0
M  V30 8086 N 769.712 -3.2319 6.23292 0
M  V30 8087 H 774.552 -0.155944 2.97592 0
M  V30 8088 H 772.089 -0.0652235 1.46955 0
M  V30 8089 H 774.047 -2.62123 3.24573 0
M  V30 8090 H 772.677 -2.43439 2.11985 0
M  V30 8091 H 771.729 -0.644897 3.74894 0
M  V30 8092 H 773.041 -1.06103 4.87384 0
M  V30 8093 H 772.195 -3.41243 5.01636 0
M  V30 8094 H 770.934 -3.05278 3.80338 0
M  V30 8095 H 769.939 -1.33013 5.33468 0
M  V30 8096 H 771.164 -1.71533 6.57079 0
M  V30 8097 H 769.11 -3.65711 5.44602 0
M  V30 8098 H 769.027 -2.8767 6.99129 0
M  V30 8099 H 770.295 -4.02342 6.67639 0
M  V30 8100 N 774.524 -1.57472 -0.0634922 0
M  V30 8101 C 775.456 -2.00999 -1.10145 0
M  V30 8102 C 776.469 -0.917219 -1.34503 0
M  V30 8103 O 777.658 -1.19501 -1.32596 0
M  V30 8104 C 774.758 -2.34089 -2.45063 0
M  V30 8105 C 773.931 -3.65317 -2.40546 0
M  V30 8106 C 772.99 -3.85982 -3.57637 0
M  V30 8107 O 772.016 -4.5747 -3.38689 0
M  V30 8108 N 773.218 -3.28971 -4.78287 0
M  V30 8109 H 775.983 -2.90656 -0.730714 0
M  V30 8110 H 773.544 -1.59926 -0.252017 0
M  V30 8111 H 775.536 -2.4508 -3.22053 0
M  V30 8112 H 774.106 -1.50279 -2.74107 0
M  V30 8113 H 773.326 -3.65003 -1.48885 0
M  V30 8114 H 774.614 -4.51468 -2.34636 0
M  V30 8115 H 774.012 -2.70962 -4.96584 0
M  V30 8116 H 772.569 -3.45398 -5.5276 0
M  V30 8117 N 776.003 0.335068 -1.53997 0
M  V30 8118 C 777.414 0.910191 -1.6301 0
M  V30 8119 C 777.765 1.89271 -0.516809 0
M  V30 8120 O 776.89 2.13516 0.352123 0
M  V30 8121 C 777.485 1.65761 -2.9548 0
M  V30 8122 C 776.044 2.18163 -3.06728 0
M  V30 8123 C 775.191 1.00338 -2.5851 0
M  V30 8124 H 778.142 0.112965 -1.58297 0
M  V30 8125 H 778.163 2.52107 -2.84995 0
M  V30 8126 H 777.675 0.94227 -3.76488 0
M  V30 8127 H 775.776 2.92847 -2.30372 0
M  V30 8128 H 775.889 2.43952 -4.1234 0
M  V30 8129 H 774.253 1.37925 -2.14124 0
M  V30 8130 H 775.036 0.30254 -3.41964 0
M  V30 8131 N 777.481 1.45874 0.596531 0
M  V30 8132 C 778.411 1.5824 1.71705 0
M  V30 8133 C 779.392 0.433366 1.64487 0
M  V30 8134 O 780.577 0.657895 1.82717 0
M  V30 8135 C 777.707 1.55927 3.10329 0
M  V30 8136 C 776.661 2.69659 3.32367 0
M  V30 8137 C 775.987 2.52403 4.71377 0
M  V30 8138 C 777.287 4.11591 3.21544 0
M  V30 8139 H 778.981 2.52035 1.61613 0
M  V30 8140 H 776.527 1.21297 0.776082 0
M  V30 8141 H 778.48 1.63173 3.88526 0
M  V30 8142 H 777.204 0.586674 3.21288 0
M  V30 8143 H 775.863 2.61859 2.56564 0
M  V30 8144 H 775.511 1.53258 4.79083 0
M  V30 8145 H 775.211 3.28679 4.87077 0
M  V30 8146 H 776.735 2.6152 5.5176 0
M  V30 8147 H 778.149 4.20576 3.89601 0
M  V30 8148 H 776.546 4.88344 3.4877 0
M  V30 8149 H 777.616 4.32719 2.1882 0
M  V30 8150 N 778.959 -0.83999 1.33349 0
M  V30 8151 C 779.869 -1.98182 1.25543 0
M  V30 8152 C 780.885 -1.73204 0.166208 0
M  V30 8153 O 782.061 -1.97596 0.389589 0
M  V30 8154 C 779.126 -3.32157 0.993614 0
M  V30 8155 C 778.187 -3.70258 2.17273 0
M  V30 8156 C 777.42 -4.9784 1.92331 0
M  V30 8157 O 777.643 -5.63679 0.873074 0
M  V30 8158 O 776.577 -5.33418 2.78835 0
M  V30 8159 H 780.403 -2.07708 2.21565 0
M  V30 8160 H 777.988 -0.972852 1.13384 0
M  V30 8161 H 779.87 -4.12433 0.864711 0
M  V30 8162 H 778.545 -3.23637 0.0636596 0
M  V30 8163 H 777.452 -2.90497 2.35716 0
M  V30 8164 H 778.785 -3.83442 3.08598 0
M  V30 8165 N 780.437 -1.16799 -1.0581 0
M  V30 8166 C 781.4 -0.881396 -2.11575 0
M  V30 8167 C 782.4 0.12574 -1.60308 0
M  V30 8168 O 783.59 -0.105716 -1.73879 0
M  V30 8169 C 780.722 -0.319037 -3.39404 0
M  V30 8170 H 781.915 -1.81907 -2.38432 0
M  V30 8171 H 779.468 -0.977597 -1.21954 0
M  V30 8172 H 780.203 0.626082 -3.18199 0
M  V30 8173 H 779.988 -1.04481 -3.77923 0
M  V30 8174 H 781.478 -0.13663 -4.17376 0
M  V30 8175 N 781.915 1.24427 -0.967243 0
M  V30 8176 C 782.862 2.25398 -0.496419 0
M  V30 8177 C 783.832 1.59667 0.457781 0
M  V30 8178 O 785.017 1.87213 0.368246 0
M  V30 8179 C 782.157 3.44474 0.207693 0
M  V30 8180 C 781.27 4.24804 -0.785221 0
M  V30 8181 C 780.405 5.31169 -0.0572631 0
M  V30 8182 C 779.444 6.03195 -1.04027 0
M  V30 8183 N 778.581 7.01265 -0.34235 0
M  V30 8184 H 783.421 2.65039 -1.36229 0
M  V30 8185 H 780.958 1.30288 -0.682902 0
M  V30 8186 H 782.916 4.12376 0.632612 0
M  V30 8187 H 781.546 3.05672 1.03752 0
M  V30 8188 H 780.598 3.56445 -1.32858 0
M  V30 8189 H 781.91 4.74599 -1.53483 0
M  V30 8190 H 781.064 6.05205 0.425674 0
M  V30 8191 H 779.803 4.8228 0.725047 0
M  V30 8192 H 778.808 5.27964 -1.53409 0
M  V30 8193 H 780.033 6.54173 -1.82302 0
M  V30 8194 H 777.979 6.54648 0.420993 0
M  V30 8195 H 777.896 7.48939 -1.03084 0
M  V30 8196 H 779.164 7.7941 0.118634 0
M  V30 8197 N 783.393 0.737304 1.3929 0
M  V30 8198 C 784.621 0.296573 2.04763 0
M  V30 8199 C 785.036 -1.06941 1.55592 0
M  V30 8200 O 784.393 -1.67619 0.721822 0
M  V30 8201 C 784.444 0.291906 3.6032 0
M  V30 8202 O 784.165 1.60397 4.07682 0
M  V30 8203 C 785.666 -0.164708 4.42994 0
M  V30 8204 H 782.886 0.129251 0.658434 0
M  V30 8205 H 785.43 1.0016 1.78293 0
M  V30 8206 H 783.585 -0.364251 3.85684 0
M  V30 8207 H 783.999 1.51909 5.0202 0
M  V30 8208 H 785.473 -0.116814 5.51876 0
M  V30 8209 H 785.95 -1.21022 4.22197 0
M  V30 8210 H 786.556 0.461968 4.22784 0
M  V30 8211 N 784.871 -1.49948 0.485112 0
M  V30 8212 C 785.801 -2.31675 -0.291364 0
M  V30 8213 C 786.782 -1.39216 -0.977383 0
M  V30 8214 O 787.967 -1.68133 -0.971855 0
M  V30 8215 C 785.097 -3.19326 -1.36558 0
M  V30 8216 C 784.051 -4.2045 -0.800359 0
M  V30 8217 C 783.377 -4.96931 -1.97391 0
M  V30 8218 C 784.677 -5.21925 0.197867 0
M  V30 8219 H 786.371 -2.96839 0.390775 0
M  V30 8220 H 783.917 -1.42749 0.189375 0
M  V30 8221 H 785.87 -3.75304 -1.91638 0
M  V30 8222 H 784.594 -2.52074 -2.07668 0
M  V30 8223 H 783.253 -3.65594 -0.271428 0
M  V30 8224 H 782.901 -4.26141 -2.67232 0
M  V30 8225 H 782.601 -5.65344 -1.60187 0
M  V30 8226 H 784.125 -5.55749 -2.52935 0
M  V30 8227 H 785.539 -5.72691 -0.264239 0
M  V30 8228 H 783.936 -5.98138 0.484908 0
M  V30 8229 H 785.006 -4.71809 1.11912 0
M  V30 8230 N 786.349 -0.21828 -1.56081 0
M  V30 8231 C 787.259 0.704602 -2.23769 0
M  V30 8232 C 788.275 1.21633 -1.24425 0
M  V30 8233 O 789.451 1.25862 -1.57228 0
M  V30 8234 C 786.516 1.89725 -2.90182 0
M  V30 8235 C 785.577 1.42782 -4.0486 0
M  V30 8236 C 784.81 2.56361 -4.68097 0
M  V30 8237 O 785.033 3.74417 -4.30312 0
M  V30 8238 O 783.967 2.2775 -5.57148 0
M  V30 8239 H 787.793 0.158007 -3.03289 0
M  V30 8240 H 785.378 0.0120279 -1.49395 0
M  V30 8241 H 787.26 2.59382 -3.32113 0
M  V30 8242 H 785.935 2.432 -2.13624 0
M  V30 8243 H 784.842 0.699359 -3.67505 0
M  V30 8244 H 786.175 0.939474 -4.83151 0
M  V30 8245 N 787.827 1.57504 0.0551401 0
M  V30 8246 C 788.737 2.08198 1.08124 0
M  V30 8247 C 789.753 1.01496 1.41331 0
M  V30 8248 O 790.929 1.33073 1.51174 0
M  V30 8249 C 787.994 2.52968 2.37083 0
M  V30 8250 C 787.055 3.7404 2.10696 0
M  V30 8251 C 786.288 4.16665 3.33505 0
M  V30 8252 O 786.511 3.59019 4.4324 0
M  V30 8253 O 785.445 5.09324 3.20737 0
M  V30 8254 H 789.271 2.95977 0.680518 0
M  V30 8255 H 786.856 1.46933 0.270401 0
M  V30 8256 H 788.738 2.82211 3.12946 0
M  V30 8257 H 787.413 1.6831 2.76502 0
M  V30 8258 H 786.32 3.49855 1.32484 0
M  V30 8259 H 787.653 4.59601 1.76148 0
M  V30 8260 N 789.305 -0.326896 1.54172 0
M  V30 8261 C 790.238 -1.42591 1.78166 0
M  V30 8262 C 791.216 -1.49837 0.631484 0
M  V30 8263 O 792.4 -1.67298 0.868544 0
M  V30 8264 C 789.527 -2.8071 1.89524 0
M  V30 8265 C 788.573 -2.91012 3.11792 0
M  V30 8266 S 789.406 -2.55763 4.70474 0
M  V30 8267 C 790.562 -3.9596 4.84733 0
M  V30 8268 H 790.795 -1.22024 2.71104 0
M  V30 8269 H 788.328 -0.523539 1.45253 0
M  V30 8270 H 790.286 -3.60276 1.96753 0
M  V30 8271 H 788.947 -2.98562 0.975696 0
M  V30 8272 H 788.14 -3.92258 3.16464 0
M  V30 8273 H 787.742 -2.19414 3.02876 0
M  V30 8274 H 790.034 -4.90676 4.67166 0
M  V30 8275 H 790.977 -3.96273 5.86833 0
M  V30 8276 H 791.385 -3.8476 4.13062 0
M  V30 8277 N 790.784 -1.46188 -0.588786 0
M  V30 8278 C 792.03 -1.51407 -1.34921 0
M  V30 8279 C 792.363 -0.162771 -1.93517 0
M  V30 8280 O 791.638 0.825082 -1.76132 0
M  V30 8281 C 791.921 -2.60795 -2.48311 0
M  V30 8282 C 791.774 -4.05435 -1.94789 0
M  V30 8283 C 793.093 -2.66313 -3.50379 0
M  V30 8284 H 790.212 -0.551213 -0.489217 0
M  V30 8285 H 792.854 -1.78095 -0.661993 0
M  V30 8286 H 791.004 -2.3817 -3.06932 0
M  V30 8287 H 792.676 -4.39328 -1.40672 0
M  V30 8288 H 790.919 -4.15202 -1.25659 0
M  V30 8289 H 791.59 -4.77691 -2.76613 0
M  V30 8290 H 794.066 -2.86634 -3.01629 0
M  V30 8291 H 792.942 -3.44681 -4.27184 0
M  V30 8292 H 793.203 -1.72127 -4.07216 0
M  V30 8293 N 792.262 0.832906 -1.33792 0
M  V30 8294 C 793.49 1.62048 -1.28639 0
M  V30 8295 C 793.905 1.88269 0.141522 0
M  V30 8296 O 793.262 1.46706 1.08553 0
M  V30 8297 C 793.313 2.96722 -2.0649 0
M  V30 8298 O 793.034 2.7165 -3.43712 0
M  V30 8299 C 794.535 3.91144 -2.08617 0
M  V30 8300 H 791.755 0.504032 -0.442937 0
M  V30 8301 H 794.299 1.03704 -1.76255 0
M  V30 8302 H 792.454 3.51652 -1.62541 0
M  V30 8303 H 792.868 3.57453 -3.83833 0
M  V30 8304 H 794.342 4.82837 -2.67531 0
M  V30 8305 H 794.819 4.25766 -1.07796 0
M  V30 8306 H 795.425 3.42152 -2.52611 0
M  V30 8307 N 793.74 1.17359 1.05189 0
M  V30 8308 C 794.703 0.892604 2.11105 0
M  V30 8309 C 795.703 -0.117236 1.60372 0
M  V30 8310 O 796.893 0.114936 1.7382 0
M  V30 8311 C 794.025 0.337032 3.3923 0
M  V30 8312 H 795.218 1.83169 2.37464 0
M  V30 8313 H 792.771 0.984051 1.21434 0
M  V30 8314 H 793.506 -0.609198 3.18527 0
M  V30 8315 H 793.291 1.06484 3.77364 0
M  V30 8316 H 794.781 0.158763 4.17298 0
M  V30 8317 N 795.218 -1.23913 0.973828 0
M  V30 8318 C 796.166 -2.27141 0.50098 0
M  V30 8319 C 797.16 -1.63623 -0.438631 0
M  V30 8320 O 798.366 -1.77253 -0.313247 0
M  V30 8321 H 794.741 -0.73817 0.14356 0
M  V30 8322 H 796.712 -2.64392 1.38346 0
M  V30 8323 C 795.461 -3.47195 -0.187377 0
M  V30 8324 H 794.784 -3.96318 0.526535 0
M  V30 8325 H 796.224 -4.21252 -0.481962 0
M  V30 8326 C 794.683 -3.05678 -1.41642 0
M  V30 8327 O 795.213 -3.1338 -2.51309 0
M  V30 8328 N 793.419 -2.60661 -1.28469 0
M  V30 8329 H 792.966 -2.54594 -0.39238 0
M  V30 8330 H 792.924 -2.33249 -2.10813 0
M  V30 8331 N 796.696 -0.74468 -1.38897 0
M  V30 8332 C 797.646 -0.0869375 -2.27834 0
M  V30 8333 C 798.63 0.702553 -1.44751 0
M  V30 8334 O 799.822 0.569972 -1.67572 0
M  V30 8335 C 796.951 0.812232 -3.33553 0
M  V30 8336 C 796.037 0.0163713 -4.24097 0
M  V30 8337 N 796.428 -1.01547 -4.95502 0
M  V30 8338 C 794.726 0.244554 -4.45329 0
M  V30 8339 C 795.427 -1.49622 -5.62128 0
M  V30 8340 N 794.403 -0.813097 -5.37485 0
M  V30 8341 H 798.205 -0.877345 -2.80499 0
M  V30 8342 H 795.719 -0.579898 -1.51694 0
M  V30 8343 H 797.716 1.299 -3.96146 0
M  V30 8344 H 796.376 1.60169 -2.82446 0
M  V30 8345 H 797.387 -1.39707 -4.98701 0
M  V30 8346 H 794.064 1.00806 -4.05147 0
M  V30 8347 H 795.454 -2.35523 -6.29268 0
M  V30 8348 N 798.174 1.49689 -0.493057 0
M  V30 8349 C 799.42 2.02727 0.0543518 0
M  V30 8350 C 799.753 1.37264 1.37376 0
M  V30 8351 O 799.028 0.505644 1.87812 0
M  V30 8352 C 799.311 3.59456 0.215226 0
M  V30 8353 C 799.164 4.35459 -1.12675 0
M  V30 8354 C 800.483 4.29511 0.959586 0
M  V30 8355 H 797.602 0.736773 0.0182786 0
M  V30 8356 H 800.244 1.78792 -0.642924 0
M  V30 8357 H 798.394 3.79981 0.809122 0
M  V30 8358 H 800.066 4.2645 -1.75891 0
M  V30 8359 H 798.309 3.9833 -1.71801 0
M  V30 8360 H 798.98 5.43454 -0.967578 0
M  V30 8361 H 801.456 4.13594 0.455977 0
M  V30 8362 H 800.332 5.38939 1.04098 0
M  V30 8363 H 800.593 3.94202 2.00144 0
M  V30 8364 N 799.652 0.226554 1.55963 0
M  V30 8365 C 800.899 -0.403789 1.98433 0
M  V30 8366 C 801.227 -1.59416 1.1143 0
M  V30 8367 O 800.482 -1.95042 0.160389 0
M  V30 8368 C 800.781 -0.87642 3.46488 0
M  V30 8369 C 800.447 0.203973 4.50438 0
M  V30 8370 C 799.109 0.500754 4.78587 0
M  V30 8371 C 801.461 0.934396 5.12756 0
M  V30 8372 C 798.789 1.53239 5.66334 0
M  V30 8373 C 801.141 1.9554 6.0162 0
M  V30 8374 C 799.805 2.25905 6.28111 0
M  V30 8375 H 799.075 -0.147757 0.726119 0
M  V30 8376 H 801.722 0.330121 1.88633 0
M  V30 8377 H 800.027 -1.68918 3.53517 0
M  V30 8378 H 801.724 -1.37407 3.76723 0
M  V30 8379 H 798.314 -0.0374917 4.28584 0
M  V30 8380 H 802.498 0.718355 4.91074 0
M  V30 8381 H 797.754 1.77321 5.85122 0
M  V30 8382 H 801.928 2.52642 6.48957 0
M  V30 8383 H 799.555 3.05985 6.959 0
M  V30 8384 N 801.13 -1.57531 -0.0467866 0
M  V30 8385 C 802.355 -1.93087 -0.757123 0
M  V30 8386 C 802.78 -0.825116 -1.69037 0
M  V30 8387 O 802.138 0.220449 -1.79955 0
M  V30 8388 C 802.186 -3.27669 -1.5055 0
M  V30 8389 O 801.29 -3.18667 -2.61773 0
M  V30 8390 H 800.631 -0.631597 -0.204892 0
M  V30 8391 H 803.161 -2.04599 -0.00755232 0
M  V30 8392 H 803.171 -3.6214 -1.87932 0
M  V30 8393 H 801.846 -4.07717 -0.820931 0
M  V30 8394 H 800.423 -2.95798 -2.27064 0
M  V30 8395 N 802.608 0.318715 -1.54344 0
M  V30 8396 C 803.571 1.37545 -1.83342 0
M  V30 8397 C 804.571 1.445 -0.705444 0
M  V30 8398 O 805.761 1.44443 -0.973752 0
M  V30 8399 C 802.893 2.76225 -1.99781 0
M  V30 8400 H 804.086 1.13084 -2.77762 0
M  V30 8401 H 801.639 0.554457 -1.46135 0
M  V30 8402 H 802.374 3.05934 -1.07588 0
M  V30 8403 H 802.159 2.7257 -2.81865 0
M  V30 8404 H 803.649 3.52664 -2.23647 0
M  V30 8405 N 804.086 1.46499 0.581025 0
M  V30 8406 C 805.363 1.42372 1.34125 0
M  V30 8407 C 805.743 0.108073 2.10823 0
M  V30 8408 O 805.091 -0.910366 2.09582 0
M  V30 8409 C 805.301 2.65445 2.26583 0
M  V30 8410 C 806.649 3.11664 2.88359 0
M  V30 8411 O 807.673 2.66006 2.36896 0
M  V30 8412 O 806.532 3.90974 3.81839 0
M  V30 8413 H 803.626 0.566262 0.602724 0
M  V30 8414 H 806.172 1.58667 0.601903 0
M  V30 8415 H 804.944 3.52756 1.69348 0
M  V30 8416 H 804.567 2.51618 3.07854 0
M  V30 8417 N 805.565 -0.825799 1.34232 0
M  V30 8418 C 806.497 -1.94401 1.21413 0
M  V30 8419 C 807.51 -1.6218 0.141902 0
M  V30 8420 O 808.699 -1.74109 0.3935 0
M  V30 8421 C 805.799 -3.28257 0.842635 0
M  V30 8422 C 804.972 -3.88521 2.00924 0
M  V30 8423 C 804.031 -5.00752 1.61661 0
M  V30 8424 O 803.057 -5.19201 2.33279 0
M  V30 8425 N 804.259 -5.78084 0.52911 0
M  V30 8426 H 807.024 -2.05931 2.17744 0
M  V30 8427 H 804.585 -1.00223 1.27149 0
M  V30 8428 H 806.577 -4.00781 0.561822 0
M  V30 8429 H 805.147 -3.12585 -0.0304029 0
M  V30 8430 H 804.367 -3.08425 2.45495 0
M  V30 8431 H 805.655 -4.25516 2.78951 0
M  V30 8432 H 805.053 -5.65661 -0.0663322 0
M  V30 8433 H 803.61 -6.51072 0.308017 0
M  V30 8434 N 807.043 -1.17915 -1.04565 0
M  V30 8435 C 808.289 -0.972863 -1.77942 0
M  V30 8436 C 808.622 0.496753 -1.87739 0
M  V30 8437 O 807.897 1.3688 -1.38181 0
M  V30 8438 C 808.18 -1.62227 -3.21488 0
M  V30 8439 C 808.033 -3.16441 -3.19664 0
M  V30 8440 C 809.352 -1.33137 -4.19479 0
M  V30 8441 H 806.471 -0.354843 -0.645953 0
M  V30 8442 H 809.113 -1.45508 -1.22178 0
M  V30 8443 H 807.263 -1.21224 -3.69103 0
M  V30 8444 H 808.935 -3.66544 -2.80077 0
M  V30 8445 H 807.178 -3.48863 -2.57832 0
M  V30 8446 H 807.849 -3.57012 -4.21006 0
M  V30 8447 H 810.325 -1.68654 -3.80388 0
M  V30 8448 H 809.201 -1.81151 -5.18146 0
M  V30 8449 H 809.462 -0.253319 -4.41374 0
M  V30 8450 N 808.521 1.23394 -0.980386 0
M  V30 8451 C 809.451 2.2717 -0.540024 0
M  V30 8452 C 810.432 1.64659 0.426787 0
M  V30 8453 O 811.617 1.91543 0.320153 0
M  V30 8454 C 808.747 3.46939 0.15836 0
M  V30 8455 C 807.701 4.21802 -0.725732 0
M  V30 8456 C 807.027 5.34597 0.104866 0
M  V30 8457 C 808.327 4.81802 -2.01654 0
M  V30 8458 H 810.021 2.64257 -1.40743 0
M  V30 8459 H 807.567 1.2703 -0.678193 0
M  V30 8460 H 809.52 4.18683 0.477737 0
M  V30 8461 H 808.244 3.08912 1.06022 0
M  V30 8462 H 806.903 3.51875 -1.02857 0
M  V30 8463 H 806.551 4.92812 1.00726 0
M  V30 8464 H 806.251 5.85607 -0.483557 0
M  V30 8465 H 807.775 6.09163 0.418624 0
M  V30 8466 H 809.189 5.45554 -1.76193 0
M  V30 8467 H 807.586 5.43098 -2.55273 0
M  V30 8468 H 808.656 4.02549 -2.70338 0
M  V30 8469 N 809.999 0.752036 1.385 0
M  V30 8470 C 811.41 0.375385 1.82887 0
M  V30 8471 C 811.761 -1.09575 1.62751 0
M  V30 8472 O 810.886 -1.84685 1.12785 0
M  V30 8473 C 811.481 0.674563 3.32017 0
M  V30 8474 C 810.04 0.351208 3.74758 0
M  V30 8475 C 809.187 0.928531 2.61292 0
M  V30 8476 H 812.138 0.948313 1.27251 0
M  V30 8477 H 812.159 -0.0477781 3.8047 0
M  V30 8478 H 811.671 1.74533 3.46641 0
M  V30 8479 H 809.772 -0.713042 3.65714 0
M  V30 8480 H 809.885 0.845675 4.71577 0
M  V30 8481 H 808.249 0.354012 2.52228 0
M  V30 8482 H 809.032 2.0043 2.78716 0
M  V30 8483 N 811.477 -1.49425 0.500989 0
M  V30 8484 C 812.754 -1.9531 -0.106551 0
M  V30 8485 C 813.134 -1.44248 -1.54129 0
M  V30 8486 O 812.482 -0.656237 -2.18874 0
M  V30 8487 C 812.692 -3.48995 -0.0191972 0
M  V30 8488 C 814.04 -4.24161 -0.193129 0
M  V30 8489 O 815.064 -3.56075 -0.0943843 0
M  V30 8490 O 813.923 -5.45064 -0.395869 0
M  V30 8491 H 811.017 -0.82149 -0.0953068 0
M  V30 8492 H 813.563 -1.6007 0.563526 0
M  V30 8493 H 812.335 -3.78794 0.981353 0
M  V30 8494 H 811.958 -3.90852 -0.72942 0
M  V30 8495 N 812.955 -0.234822 -1.55841 0
M  V30 8496 C 813.885 0.664217 -2.23854 0
M  V30 8497 C 814.866 1.19076 -1.2147 0
M  V30 8498 O 816.051 1.23232 -1.50091 0
M  V30 8499 C 813.181 1.86666 -2.9287 0
M  V30 8500 C 812.135 1.47341 -4.01839 0
M  V30 8501 C 811.461 2.75571 -4.58219 0
M  V30 8502 C 812.761 0.653479 -5.18196 0
M  V30 8503 H 814.455 0.0971213 -2.99242 0
M  V30 8504 H 812.001 0.0452724 -1.43929 0
M  V30 8505 H 813.954 2.50116 -3.39146 0
M  V30 8506 H 812.678 2.45894 -2.1495 0
M  V30 8507 H 811.337 0.862314 -3.56314 0
M  V30 8508 H 810.985 3.32971 -3.77014 0
M  V30 8509 H 810.685 2.49987 -5.31771 0
M  V30 8510 H 812.209 3.39939 -5.07221 0
M  V30 8511 H 813.623 1.19198 -5.60771 0
M  V30 8512 H 812.02 0.494188 -5.98062 0
M  V30 8513 H 813.09 -0.337004 -4.83728 0
M  V30 8514 N 814.433 1.57553 0.0384317 0
M  V30 8515 C 815.363 2.0898 1.04161 0
M  V30 8516 C 816.344 0.99029 1.38301 0
M  V30 8517 O 817.529 1.26499 1.47349 0
M  V30 8518 C 814.659 2.56145 2.34536 0
M  V30 8519 C 813.613 3.70275 2.14663 0
M  V30 8520 C 812.939 4.03612 3.50715 0
M  V30 8521 C 814.239 4.99067 1.54045 0
M  V30 8522 H 815.933 2.93046 0.613548 0
M  V30 8523 H 813.479 1.40973 0.293684 0
M  V30 8524 H 815.432 2.90741 3.05037 0
M  V30 8525 H 814.156 1.6915 2.79385 0
M  V30 8526 H 812.815 3.36013 1.46597 0
M  V30 8527 H 812.463 3.13698 3.93195 0
M  V30 8528 H 812.163 4.80482 3.38247 0
M  V30 8529 H 813.687 4.40735 4.22593 0
M  V30 8530 H 815.101 5.3168 2.14451 0
M  V30 8531 H 813.498 5.80484 1.52178 0
M  V30 8532 H 814.568 4.8226 0.505259 0
M  V30 8533 N 815.911 -0.310526 1.54511 0
M  V30 8534 C 817.327 -0.655637 1.45511 0
M  V30 8535 C 817.527 -1.91114 0.638564 0
M  V30 8536 O 816.583 -2.52098 0.142497 0
M  V30 8537 C 817.896 -0.817501 2.89374 0
M  V30 8538 C 819.444 -0.914003 2.99358 0
M  V30 8539 C 819.919 -1.10794 4.44397 0
M  V30 8540 N 821.41 -1.17437 4.48066 0
M  V30 8541 C 822.145 -1.34255 5.57461 0
M  V30 8542 N 821.641 -1.48032 6.768 0
M  V30 8543 N 823.434 -1.37067 5.45132 0
M  V30 8544 H 815.585 0.514506 2.06074 0
M  V30 8545 H 817.848 0.168478 0.932909 0
M  V30 8546 H 817.554 0.034003 3.51684 0
M  V30 8547 H 817.428 -1.7094 3.36243 0
M  V30 8548 H 819.815 -1.756 2.37168 0
M  V30 8549 H 819.896 0.00170958 2.558 0
M  V30 8550 H 819.54 -0.270743 5.07178 0
M  V30 8551 H 819.47 -2.03773 4.85576 0
M  V30 8552 H 821.961 -1.08181 3.62084 0
M  V30 8553 H 822.274 -1.60593 7.5593 0
M  V30 8554 H 820.619 -1.45105 6.79683 0
M  V30 8555 H 823.81 -1.25909 4.50849 0
M  V30 8556 H 823.983 -1.49831 6.3044 0
M  V30 8557 N 817.389 -1.46805 -0.573248 0
M  V30 8558 C 818.319 -1.60951 -1.69165 0
M  V30 8559 C 819.3 -0.45948 -1.63777 0
M  V30 8560 O 820.485 -0.68688 -1.81647 0
M  V30 8561 C 817.615 -1.60844 -3.07809 0
M  V30 8562 C 816.569 -2.74913 -3.28035 0
M  V30 8563 C 815.895 -2.59871 -4.67302 0
M  V30 8564 C 817.195 -4.16654 -3.14955 0
M  V30 8565 H 818.889 -2.54574 -1.57582 0
M  V30 8566 H 816.435 -1.22516 -0.756686 0
M  V30 8567 H 818.388 -1.69334 -3.85881 0
M  V30 8568 H 817.112 -0.637714 -3.20314 0
M  V30 8569 H 815.771 -2.65908 -2.52366 0
M  V30 8570 H 815.419 -1.60861 -4.76585 0
M  V30 8571 H 815.119 -3.36386 -4.81786 0
M  V30 8572 H 816.643 -2.70265 -5.4753 0
M  V30 8573 H 818.057 -4.26721 -3.82861 0
M  V30 8574 H 816.454 -4.93831 -3.40956 0
M  V30 8575 H 817.524 -4.36146 -2.11908 0
M  V30 8576 N 818.867 0.818669 -1.34668 0
M  V30 8577 C 820.107 1.58862 -1.28617 0
M  V30 8578 C 820.471 1.91483 0.140845 0
M  V30 8579 O 821.672 2.66821 0.325583 0
M  V30 8580 C 819.943 2.85044 -2.15604 0
M  V30 8581 S 821.502 3.75553 -2.26948 0
M  V30 8582 H 818.32 0.544454 -0.457265 0
M  V30 8583 H 820.922 0.966679 -1.69928 0
M  V30 8584 H 819.626 2.59083 -3.18284 0
M  V30 8585 H 819.157 3.52231 -1.75205 0
M  V30 8586 H 821.172 4.74682 -1.44539 0
M  V30 8587 N 820.346 1.18468 1.03938 0
M  V30 8588 C 821.762 0.934635 1.29371 0
M  V30 8589 C 821.962 -0.399067 1.97509 0
M  V30 8590 O 821.018 -1.13309 2.25648 0
M  V30 8591 C 822.331 2.10111 2.15114 0
M  V30 8592 C 823.879 2.13955 2.28456 0
M  V30 8593 C 824.354 3.30024 3.17566 0
M  V30 8594 N 825.845 3.29893 3.25153 0
M  V30 8595 C 826.58 4.16346 3.94263 0
M  V30 8596 N 826.076 5.12934 4.65693 0
M  V30 8597 N 827.869 4.04256 3.90556 0
M  V30 8598 H 820.02 2.04294 0.581185 0
M  V30 8599 H 822.283 0.892727 0.318971 0
M  V30 8600 H 821.989 3.06572 1.72355 0
M  V30 8601 H 821.863 2.06283 3.15796 0
M  V30 8602 H 824.25 1.18072 2.7045 0
M  V30 8603 H 824.331 2.2184 1.2736 0
M  V30 8604 H 823.975 4.26181 2.76283 0
M  V30 8605 H 823.905 3.19376 4.18697 0
M  V30 8606 H 826.396 2.59969 2.74271 0
M  V30 8607 H 826.709 5.75271 5.16026 0
M  V30 8608 H 825.054 5.16893 4.64593 0
M  V30 8609 H 828.245 3.28083 3.33885 0
M  V30 8610 H 828.418 4.71848 4.44144 0
M  V30 8611 N 821.824 -1.22873 0.986916 0
M  V30 8612 C 823.101 -1.86939 0.575589 0
M  V30 8613 C 823.481 -1.88656 -0.947205 0
M  V30 8614 O 822.829 -1.3728 -1.82665 0
M  V30 8615 C 823.039 -3.28117 1.18914 0
M  V30 8616 C 824.387 -4.04659 1.28593 0
M  V30 8617 O 825.411 -3.3736 1.14308 0
M  V30 8618 O 824.27 -5.25112 1.51391 0
M  V30 8619 H 821.364 -0.803748 0.194724 0
M  V30 8620 H 823.91 -1.30698 1.08241 0
M  V30 8621 H 822.682 -3.21468 2.231 0
M  V30 8622 H 822.305 -3.91956 0.667535 0
M  V30 8623 N 823.302 -0.75937 -1.38099 0
M  V30 8624 C 824.25 -0.124954 -2.32264 0
M  V30 8625 C 825.244 0.698863 -1.54312 0
M  V30 8626 O 826.45 0.597312 -1.698 0
M  V30 8627 H 822.825 -0.0216142 -0.751689 0
M  V30 8628 H 824.796 -0.935115 -2.83369 0
M  V30 8629 C 823.545 0.749463 -3.39527 0
M  V30 8630 H 822.868 0.124932 -3.99605 0
M  V30 8631 H 824.308 1.16055 -4.07808 0
M  V30 8632 C 822.767 1.89464 -2.78577 0
M  V30 8633 O 823.297 2.98923 -2.68343 0
M  V30 8634 N 821.503 1.69145 -2.36301 0
M  V30 8635 H 821.05 0.801157 -2.44825 0
M  V30 8636 H 821.008 2.45936 -1.95864 0
M  V30 8637 N 824.78 1.49157 -0.508906 0
M  V30 8638 C 825.712 2.272 0.302115 0
M  V30 8639 C 826.725 1.3407 0.923529 0
M  V30 8640 O 827.914 1.5929 0.805532 0
M  V30 8641 C 825.014 3.06736 1.44105 0
M  V30 8642 C 824.187 4.27497 0.925477 0
M  V30 8643 C 823.246 4.89014 1.94297 0
M  V30 8644 O 822.272 5.48851 1.50834 0
M  V30 8645 N 823.474 4.7937 3.2739 0
M  V30 8646 H 826.239 2.97443 -0.367115 0
M  V30 8647 H 823.8 1.58248 -0.341933 0
M  V30 8648 H 825.792 3.44763 2.11944 0
M  V30 8649 H 824.362 2.3905 2.0143 0
M  V30 8650 H 823.582 3.94135 0.0717301 0
M  V30 8651 H 824.87 5.05714 0.55955 0
M  V30 8652 H 824.268 4.31869 3.65384 0
M  V30 8653 H 822.825 5.21559 3.90922 0
M  V30 8654 N 826.258 0.243083 1.55714 0
M  V30 8655 C 827.506 -0.381964 1.98458 0
M  V30 8656 C 827.827 -1.58745 1.13247 0
M  V30 8657 O 827.097 -1.94723 0.214384 0
M  V30 8658 H 825.677 -0.144114 0.732967 0
M  V30 8659 H 828.339 0.340985 1.91894 0
M  V30 8660 H 827.435 -0.693702 3.04293 0
M  V30 8661 N 827.736 -1.57571 -0.0300757 0
M  V30 8662 C 828.646 -2.09892 -1.04798 0
M  V30 8663 C 829.662 -1.03732 -1.39698 0
M  V30 8664 O 830.838 -1.35461 -1.49038 0
M  V30 8665 C 827.903 -2.56707 -2.33028 0
M  V30 8666 C 826.964 -3.77345 -2.04718 0
M  V30 8667 C 826.197 -4.21918 -3.26834 0
M  V30 8668 O 826.42 -3.66025 -4.37472 0
M  V30 8669 O 825.354 -5.14362 -3.12594 0
M  V30 8670 H 829.18 -2.97023 -0.633344 0
M  V30 8671 H 826.765 -1.47344 -0.246991 0
M  V30 8672 H 828.647 -2.87154 -3.08417 0
M  V30 8673 H 827.322 -1.72688 -2.73789 0
M  V30 8674 H 826.229 -3.51919 -1.26901 0
M  V30 8675 H 827.562 -4.62345 -1.68813 0
M  V30 8676 N 829.214 0.302327 -1.54673 0
M  V30 8677 C 830.161 1.37282 -1.85532 0
M  V30 8678 C 831.131 1.50437 -0.704129 0
M  V30 8679 O 832.316 1.65317 -0.952627 0
M  V30 8680 C 829.456 2.73309 -2.10704 0
M  V30 8681 C 828.569 2.68614 -3.38335 0
M  V30 8682 C 827.704 3.96626 -3.53357 0
M  V30 8683 C 826.743 3.86324 -4.74784 0
M  V30 8684 N 825.88 5.06109 -4.86619 0
M  V30 8685 H 830.72 1.10265 -2.76849 0
M  V30 8686 H 828.257 0.533346 -1.37091 0
M  V30 8687 H 830.215 3.52414 -2.23294 0
M  V30 8688 H 828.845 2.98589 -1.22656 0
M  V30 8689 H 827.897 1.81381 -3.34373 0
M  V30 8690 H 829.209 2.56891 -4.27561 0
M  V30 8691 H 828.363 4.84168 -3.65604 0
M  V30 8692 H 827.102 4.11182 -2.62261 0
M  V30 8693 H 826.107 2.97166 -4.62572 0
M  V30 8694 H 827.332 3.73315 -5.67286 0
M  V30 8695 H 825.278 5.2113 -3.98446 0
M  V30 8696 H 825.195 4.96804 -5.69844 0
M  V30 8697 H 826.463 5.95306 -5.03221 0
M  V30 8698 N 830.692 1.47107 0.565454 0
M  V30 8699 C 831.917 1.57153 1.35343 0
M  V30 8700 C 832.342 0.219247 1.86818 0
M  V30 8701 O 831.7 -0.803539 1.62521 0
M  V30 8702 C 831.748 2.59387 2.50501 0
M  V30 8703 O 830.852 2.14086 3.52478 0
M  V30 8704 H 830.193 0.528209 0.402357 0
M  V30 8705 H 832.723 1.92821 0.684189 0
M  V30 8706 H 832.733 2.79546 2.97184 0
M  V30 8707 H 831.408 3.57579 2.12391 0
M  V30 8708 H 829.985 2.03991 3.12157 0
M  V30 8709 N 832.17 -0.811516 1.35101 0
M  V30 8710 C 833.1 -1.9378 1.30275 0
M  V30 8711 C 834.081 -1.69165 0.178075 0
M  V30 8712 O 835.266 -1.90599 0.372256 0
M  V30 8713 C 832.396 -3.30439 1.06899 0
M  V30 8714 C 831.35 -3.69523 2.15955 0
M  V30 8715 C 830.676 -5.0429 1.77751 0
M  V30 8716 C 831.976 -3.80419 3.57881 0
M  V30 8717 H 833.67 -1.98075 2.24514 0
M  V30 8718 H 831.216 -0.951586 1.08078 0
M  V30 8719 H 833.169 -4.08828 1.02164 0
M  V30 8720 H 831.893 -3.26473 0.0910462 0
M  V30 8721 H 830.552 -2.93416 2.19778 0
M  V30 8722 H 830.2 -4.96823 0.785876 0
M  V30 8723 H 829.9 -5.31411 2.5075 0
M  V30 8724 H 831.424 -5.85125 1.74533 0
M  V30 8725 H 832.838 -4.49051 3.56407 0
M  V30 8726 H 831.235 -4.19005 4.29598 0
M  V30 8727 H 832.305 -2.82105 3.94391 0
M  V30 8728 N 833.648 -1.19017 -1.03309 0
M  V30 8729 C 834.611 -0.926076 -2.09658 0
M  V30 8730 C 835.611 0.0917077 -1.60538 0
M  V30 8731 O 836.801 -0.142574 -1.73616 0
M  V30 8732 C 833.933 -0.390958 -3.38651 0
M  V30 8733 H 835.126 -1.86923 -2.3452 0
M  V30 8734 H 832.679 -1.00325 -1.19853 0
M  V30 8735 H 833.414 0.558446 -3.19456 0
M  V30 8736 H 833.199 -1.12474 -3.75622 0
M  V30 8737 H 834.689 -0.225131 -4.16993 0
M  V30 8738 N 835.127 1.22348 -0.993418 0
M  V30 8739 C 836.543 1.43222 -0.704238 0
M  V30 8740 C 836.743 1.88009 0.724909 0
M  V30 8741 O 835.799 2.03429 1.49575 0
M  V30 8742 C 837.112 2.47328 -1.71025 0
M  V30 8743 C 838.66 2.61126 -1.72576 0
M  V30 8744 C 839.135 3.68453 -2.72041 0
M  V30 8745 N 840.626 3.75911 -2.70639 0
M  V30 8746 C 841.361 4.58551 -3.44266 0
M  V30 8747 N 840.857 5.45179 -4.27495 0
M  V30 8748 N 842.65 4.52866 -3.32969 0
M  V30 8749 H 834.801 0.915832 -1.91641 0
M  V30 8750 H 837.064 0.464283 -0.826526 0
M  V30 8751 H 836.77 2.21366 -2.73295 0
M  V30 8752 H 836.644 3.45939 -1.50353 0
M  V30 8753 H 839.031 2.86431 -0.710037 0
M  V30 8754 H 839.112 1.62787 -1.97317 0
M  V30 8755 H 838.756 3.43895 -3.73763 0
M  V30 8756 H 838.686 4.66362 -2.4457 0
M  V30 8757 H 841.177 3.14014 -2.10247 0
M  V30 8758 H 841.49 6.0526 -4.80499 0
M  V30 8759 H 839.835 5.44759 -4.31582 0
M  V30 8760 H 843.026 3.84215 -2.67389 0
M  V30 8761 H 843.199 5.17039 -3.90608 0
M  V30 8762 N 836.605 0.766683 1.37694 0
M  V30 8763 C 837.568 0.155849 2.2867 0
M  V30 8764 C 838.568 -0.633509 1.47795 0
M  V30 8765 O 839.758 -0.457844 1.68076 0
M  V30 8766 C 836.89 -0.786965 3.31692 0
M  V30 8767 H 838.083 0.957748 2.84196 0
M  V30 8768 H 835.636 0.534554 1.46875 0
M  V30 8769 H 836.371 -1.61406 2.8128 0
M  V30 8770 H 836.156 -0.223182 3.91464 0
M  V30 8771 H 837.646 -1.20994 3.99688 0
M  V30 8772 N 838.083 -1.48885 0.516809 0
M  V30 8773 C 839.323 -2.0439 -0.0202232 0
M  V30 8774 C 839.687 -1.38652 -1.32814 0
M  V30 8775 O 840.888 -1.84968 -1.95039 0
M  V30 8776 C 839.159 -3.57071 -0.153257 0
M  V30 8777 S 840.718 -4.34074 -0.642256 0
M  V30 8778 H 837.536 -0.710977 0.00576322 0
M  V30 8779 H 840.138 -1.82753 0.694376 0
M  V30 8780 H 838.842 -4.02454 0.803695 0
M  V30 8781 H 838.373 -3.83139 -0.892627 0
M  V30 8782 H 840.388 -4.58011 -1.90893 0
M  V30 8783 N 839.561 -0.251338 -1.55583 0
M  V30 8784 C 840.524 0.63305 -2.20284 0
M  V30 8785 C 841.524 1.09941 -1.17344 0
M  V30 8786 O 842.714 1.00341 -1.42399 0
M  V30 8787 C 839.846 1.8706 -2.84993 0
M  V30 8788 H 841.039 0.0684846 -2.99822 0
M  V30 8789 H 838.592 -0.00181653 -1.563 0
M  V30 8790 H 839.327 2.47629 -2.09405 0
M  V30 8791 H 839.112 1.54436 -3.60405 0
M  V30 8792 H 840.602 2.50004 -3.34496 0
M  V30 8793 N 841.039 1.57585 0.0217189 0
M  V30 8794 C 842.002 2.06004 1.00474 0
M  V30 8795 C 843.002 0.965461 1.2859 0
M  V30 8796 O 844.192 1.22884 1.23471 0
M  V30 8797 C 841.324 2.48319 2.33561 0
M  V30 8798 H 842.517 2.94112 0.586346 0
M  V30 8799 H 840.07 1.53973 0.268716 0
M  V30 8800 H 840.805 1.63389 2.80133 0
M  V30 8801 H 840.59 3.28239 2.1448 0
M  V30 8802 H 842.08 2.86181 3.04122 0
M  V30 8803 N 842.517 -0.29412 1.54831 0
M  V30 8804 C 843.447 -1.36757 1.89261 0
M  V30 8805 C 844.428 -1.52564 0.752214 0
M  V30 8806 O 845.613 -1.65958 1.00855 0
M  V30 8807 C 842.743 -2.73066 2.14597 0
M  V30 8808 C 841.697 -2.72017 3.3044 0
M  V30 8809 C 841.023 -4.11679 3.4121 0
M  V30 8810 C 842.323 -2.33149 4.67375 0
M  V30 8811 H 844.017 -1.08191 2.79169 0
M  V30 8812 H 841.563 -0.519014 1.34321 0
M  V30 8813 H 843.516 -3.48255 2.37269 0
M  V30 8814 H 842.24 -3.03172 1.21467 0
M  V30 8815 H 840.899 -1.99285 3.07703 0
M  V30 8816 H 840.547 -4.38973 2.45584 0
M  V30 8817 H 840.247 -4.11877 4.19084 0
M  V30 8818 H 841.771 -4.88637 3.6615 0
M  V30 8819 H 843.185 -2.98054 4.89731 0
M  V30 8820 H 841.582 -2.44546 5.48012 0
M  V30 8821 H 842.652 -1.28275 4.67626 0
M  V30 8822 N 843.995 -1.47404 -0.557645 0
M  V30 8823 C 844.958 -1.59411 -1.64684 0
M  V30 8824 C 845.958 -0.469244 -1.53801 0
M  V30 8825 O 847.148 -0.734298 -1.57967 0
M  V30 8826 C 844.28 -1.5382 -3.04224 0
M  V30 8827 H 845.473 -2.56504 -1.55389 0
M  V30 8828 H 843.026 -1.35588 -0.777531 0
M  V30 8829 H 843.761 -0.581 -3.19053 0
M  V30 8830 H 843.546 -2.35456 -3.13533 0
M  V30 8831 H 845.036 -1.65358 -3.83466 0
M  V30 8832 N 845.473 0.80434 -1.35529 0
M  V30 8833 C 846.405 1.92445 -1.2449 0
M  V30 8834 C 847.418 1.61934 -0.167685 0
M  V30 8835 O 848.607 1.73461 -0.42115 0
M  V30 8836 C 845.707 3.26875 -0.894751 0
M  V30 8837 C 844.88 3.85275 -2.07079 0
M  V30 8838 C 843.939 4.98116 -1.69607 0
M  V30 8839 O 842.965 5.15424 -2.41509 0
M  V30 8840 N 844.167 5.77169 -0.621012 0
M  V30 8841 H 846.932 2.02441 -2.20993 0
M  V30 8842 H 844.493 0.981874 -1.28728 0
M  V30 8843 H 846.485 3.99837 -0.625511 0
M  V30 8844 H 845.055 3.12594 -0.0193306 0
M  V30 8845 H 844.275 3.0448 -2.5037 0
M  V30 8846 H 845.563 4.21024 -2.85685 0
M  V30 8847 H 844.961 5.65695 -0.0236679 0
M  V30 8848 H 843.518 6.50499 -0.411558 0
M  V30 8849 N 846.951 1.19563 1.02676 0
M  V30 8850 C 848.197 1.01108 1.7649 0
M  V30 8851 C 848.552 -0.453152 1.86987 0
M  V30 8852 O 847.845 -1.33209 1.37717 0
M  V30 8853 C 848.039 1.61619 3.18769 0
M  V30 8854 C 847.868 3.13774 3.22142 0
M  V30 8855 C 846.638 3.82687 3.29968 0
M  V30 8856 C 848.836 4.11114 3.09014 0
M  V30 8857 N 846.818 5.2222 3.22737 0
M  V30 8858 C 848.189 5.37259 3.0944 0
M  V30 8859 C 850.244 4.02447 2.93157 0
M  V30 8860 C 848.947 6.55738 2.95636 0
M  V30 8861 C 850.973 5.20538 2.80703 0
M  V30 8862 C 850.335 6.45582 2.81785 0
M  V30 8863 H 846.434 0.424123 0.656996 0
M  V30 8864 H 849.018 1.5157 1.22207 0
M  V30 8865 H 847.189 1.13756 3.71368 0
M  V30 8866 H 848.921 1.36579 3.80957 0
M  V30 8867 H 845.676 3.3349 3.36275 0
M  V30 8868 H 846.1 5.95238 3.22523 0
M  V30 8869 H 850.742 3.0659 2.9114 0
M  V30 8870 H 848.46 7.51778 2.96403 0
M  V30 8871 H 852.046 5.15635 2.69466 0
M  V30 8872 H 850.926 7.35423 2.72254 0
M  V30 8873 N 848.429 -1.21819 0.999893 0
M  V30 8874 C 849.706 -1.86318 0.595384 0
M  V30 8875 C 850.086 -1.8965 -0.927143 0
M  V30 8876 O 849.434 -1.3921 -1.81199 0
M  V30 8877 C 849.644 -3.26837 1.22387 0
M  V30 8878 C 850.992 -4.03272 1.32878 0
M  V30 8879 O 852.016 -3.36129 1.1788 0
M  V30 8880 O 850.875 -5.23477 1.56952 0
M  V30 8881 H 847.969 -0.801638 0.203238 0
M  V30 8882 H 850.515 -1.29542 1.09622 0
M  V30 8883 H 849.287 -3.19084 2.26497 0
M  V30 8884 H 848.91 -3.91226 0.709069 0
M  V30 8885 N 849.908 -0.773975 -1.37286 0
M  V30 8886 C 851.324 -0.45386 -1.53011 0
M  V30 8887 C 851.524 1.03018 -1.73175 0
M  V30 8888 O 850.58 1.81597 -1.75438 0
M  V30 8889 C 851.893 -1.27087 -2.72524 0
M  V30 8890 C 853.441 -1.26299 -2.86387 0
M  V30 8891 C 853.916 -2.0634 -4.08886 0
M  V30 8892 N 855.407 -2.03706 -4.16003 0
M  V30 8893 C 856.142 -2.62418 -5.09828 0
M  V30 8894 N 855.638 -3.29926 -6.09197 0
M  V30 8895 N 857.431 -2.52236 -5.02328 0
M  V30 8896 H 849.582 -1.73551 -1.22449 0
M  V30 8897 H 851.845 -0.736874 -0.596423 0
M  V30 8898 H 851.551 -2.32263 -2.64096 0
M  V30 8899 H 851.425 -0.90157 -3.66267 0
M  V30 8900 H 853.812 -0.219213 -2.94285 0
M  V30 8901 H 853.893 -1.67195 -1.93596 0
M  V30 8902 H 853.537 -3.10741 -4.01749 0
M  V30 8903 H 853.467 -1.62825 -5.00795 0
M  V30 8904 H 855.958 -1.54559 -3.44848 0
M  V30 8905 H 856.271 -3.72095 -6.77322 0
M  V30 8906 H 854.616 -3.34026 -6.09469 0
M  V30 8907 H 857.807 -1.99108 -4.23643 0
M  V30 8908 H 857.98 -2.98286 -5.75265 0
M  V30 8909 N 851.386 1.48609 -0.524698 0
M  V30 8910 C 852.634 2.02097 0.0112991 0
M  V30 8911 C 852.955 1.40455 1.35268 0
M  V30 8912 O 852.225 0.56807 1.87483 0
M  V30 8913 H 850.805 0.746966 0.00716426 0
M  V30 8914 H 853.467 1.82378 -0.687329 0
M  V30 8915 H 852.563 3.11855 0.123531 0
M  V30 8916 N 852.864 0.259585 1.55447 0
M  V30 8917 C 853.827 -0.621359 2.20617 0
M  V30 8918 C 854.827 -1.09317 1.17925 0
M  V30 8919 O 856.017 -0.995842 1.42929 0
M  V30 8920 C 853.149 -1.85546 2.85982 0
M  V30 8921 H 854.342 -0.0525833 2.99854 0
M  V30 8922 H 851.895 0.0101055 1.56297 0
M  V30 8923 H 852.63 -2.46515 2.10715 0
M  V30 8924 H 852.415 -1.52523 3.61219 0
M  V30 8925 H 853.905 -2.48227 3.35817 0
M  V30 8926 N 854.342 -1.57594 -0.0133615 0
M  V30 8927 C 855.29 -2.08682 -1.02736 0
M  V30 8928 C 856.284 -1.00391 -1.36448 0
M  V30 8929 O 857.49 -1.18868 -1.35168 0
M  V30 8930 H 853.865 -0.666158 -0.34891 0
M  V30 8931 H 855.836 -2.9289 -0.570815 0
M  V30 8932 C 854.585 -2.5945 -2.31476 0
M  V30 8933 H 853.908 -3.42401 -2.06401 0
M  V30 8934 H 855.348 -2.98888 -3.00735 0
M  V30 8935 C 853.807 -1.50266 -3.01533 0
M  V30 8936 O 854.337 -0.877875 -3.9199 0
M  V30 8937 N 852.543 -1.23336 -2.63129 0
M  V30 8938 H 852.09 -1.74327 -1.89652 0
M  V30 8939 H 852.048 -0.504987 -3.10318 0
M  V30 8940 N 855.82 0.285905 -1.54985 0
M  V30 8941 C 856.75 1.35752 -1.89983 0
M  V30 8942 C 857.731 1.52163 -0.760295 0
M  V30 8943 O 858.916 1.65421 -1.01733 0
M  V30 8944 C 856.046 2.71925 -2.16042 0
M  V30 8945 C 855 2.70261 -3.31878 0
M  V30 8946 C 854.326 4.09864 -3.43388 0
M  V30 8947 C 855.626 2.30667 -4.68604 0
M  V30 8948 H 857.32 1.06709 -2.79738 0
M  V30 8949 H 854.866 0.511884 -1.34595 0
M  V30 8950 H 856.819 3.46992 -2.39113 0
M  V30 8951 H 855.543 3.02523 -1.23074 0
M  V30 8952 H 854.202 1.97651 -3.08755 0
M  V30 8953 H 853.85 4.37664 -2.47909 0
M  V30 8954 H 853.55 4.09648 -4.21262 0
M  V30 8955 H 855.074 4.86689 -3.68736 0
M  V30 8956 H 856.488 2.95453 -4.91305 0
M  V30 8957 H 854.885 2.41637 -5.49301 0
M  V30 8958 H 855.955 1.25793 -4.68299 0
M  V30 8959 N 857.298 1.47698 0.54982 0
M  V30 8960 C 858.575 1.45185 1.31075 0
M  V30 8961 C 858.955 0.152768 2.10547 0
M  V30 8962 O 858.303 -0.865706 2.11466 0
M  V30 8963 C 858.513 2.70192 2.20902 0
M  V30 8964 C 859.861 3.1771 2.81683 0
M  V30 8965 O 860.885 2.70971 2.312 0
M  V30 8966 O 859.744 3.98986 3.7346 0
M  V30 8967 H 856.838 0.57892 0.590577 0
M  V30 8968 H 859.384 1.59908 0.568112 0
M  V30 8969 H 858.156 3.56269 1.61828 0
M  V30 8970 H 857.779 2.58091 3.02448 0
M  V30 8971 N 858.776 -0.797141 1.35954 0
M  V30 8972 C 860.001 -1.59097 1.33053 0
M  V30 8973 C 860.426 -1.87897 -0.0874592 0
M  V30 8974 O 859.784 -1.47291 -1.05712 0
M  V30 8975 C 859.832 -2.89346 2.152 0
M  V30 8976 O 858.936 -3.826 1.5392 0
M  V30 8977 H 858.277 -0.482895 0.45575 0
M  V30 8978 H 860.807 -0.988633 1.79129 0
M  V30 8979 H 860.817 -3.38686 2.27499 0
M  V30 8980 H 859.492 -2.6771 3.18283 0
M  V30 8981 H 858.069 -3.41174 1.50516 0
M  V30 8982 N 860.254 -1.20106 -1.0204 0
M  V30 8983 C 861.502 -1.0069 -1.75231 0
M  V30 8984 C 861.823 0.462491 -1.89436 0
M  V30 8985 O 861.093 1.33455 -1.4341 0
M  V30 8986 H 859.673 -0.369576 -0.649171 0
M  V30 8987 H 862.335 -1.51149 -1.23044 0
M  V30 8988 H 861.431 -1.46205 -2.75736 0
M  V30 8989 N 861.732 1.21287 -1.00634 0
M  V30 8990 C 862.957 1.94925 -0.708441 0
M  V30 8991 C 863.382 1.73659 0.722783 0
M  V30 8992 O 862.74 1.02429 1.49593 0
M  V30 8993 C 862.788 3.45377 -1.03667 0
M  V30 8994 O 861.892 4.12153 -0.142661 0
M  V30 8995 H 861.233 0.609338 -0.263824 0
M  V30 8996 H 863.763 1.54008 -1.34695 0
M  V30 8997 H 863.773 3.95954 -0.984086 0
M  V30 8998 H 862.448 3.6018 -2.0795 0
M  V30 8999 H 861.025 3.72048 -0.251888 0
M  V30 9000 N 863.21 0.781244 1.36873 0
M  V30 9001 C 864.458 0.349198 1.9906 0
M  V30 9002 C 864.779 -1.0806 1.62321 0
M  V30 9003 O 864.049 -1.74351 0.893229 0
M  V30 9004 H 862.629 0.126126 0.736275 0
M  V30 9005 H 865.291 1.00148 1.67202 0
M  V30 9006 H 864.387 0.434451 3.09061 0
M  V30 9007 N 864.689 -1.48329 0.532571 0
M  V30 9008 C 865.936 -2.025 -0.000582356 0
M  V30 9009 C 866.264 -1.40942 -1.34036 0
M  V30 9010 O 865.519 -0.545545 -1.87942 0
M  V30 9011 C 865.818 -3.57 -0.168943 0
M  V30 9012 C 865.484 -4.37357 1.0968 0
M  V30 9013 C 864.146 -4.59033 1.44369 0
M  V30 9014 C 866.498 -4.83882 1.93669 0
M  V30 9015 C 863.826 -5.24481 2.62939 0
M  V30 9016 C 866.178 -5.50637 3.11419 0
M  V30 9017 C 864.842 -5.70551 3.46451 0
M  V30 9018 H 864.112 -0.741 -0.000213099 0
M  V30 9019 H 866.759 -1.78282 0.699117 0
M  V30 9020 H 865.064 -3.80072 -0.951429 0
M  V30 9021 H 866.761 -3.9654 -0.596422 0
M  V30 9022 H 863.351 -4.20748 0.816655 0
M  V30 9023 H 867.535 -4.66936 1.6818 0
M  V30 9024 H 862.791 -5.38096 2.9028 0
M  V30 9025 H 866.965 -5.85655 3.76803 0
M  V30 9026 H 864.592 -6.21037 4.38425 0
M  V30 9027 N 866.167 -0.267825 -1.55308 0
M  V30 9028 C 867.413 0.351556 -1.9973 0
M  V30 9029 C 867.746 1.56049 -1.15596 0
M  V30 9030 O 867.021 1.93203 -0.224274 0
M  V30 9031 C 867.304 0.74091 -3.52395 0
M  V30 9032 C 867.157 -0.474861 -4.47286 0
M  V30 9033 C 868.476 1.5801 -4.10756 0
M  V30 9034 H 865.595 0.126308 -0.726096 0
M  V30 9035 H 868.237 -0.373316 -1.86296 0
M  V30 9036 H 866.387 1.35851 -3.63973 0
M  V30 9037 H 868.059 -1.1134 -4.47662 0
M  V30 9038 H 866.302 -1.11425 -4.19246 0
M  V30 9039 H 866.973 -0.158782 -5.51772 0
M  V30 9040 H 869.449 1.05857 -4.0241 0
M  V30 9041 H 868.325 1.82135 -5.17801 0
M  V30 9042 H 868.586 2.55878 -3.60526 0
M  V30 9043 N 867.645 1.57599 0.00500368 0
M  V30 9044 C 868.875 1.94344 0.700998 0
M  V30 9045 C 869.283 0.868011 1.68114 0
M  V30 9046 O 868.626 -0.16214 1.82983 0
M  V30 9047 C 868.688 3.27046 1.49268 0
M  V30 9048 C 868.352 4.51992 0.674684 0
M  V30 9049 C 869.349 5.19888 -0.0354833 0
M  V30 9050 C 867.034 4.98432 0.622129 0
M  V30 9051 C 869.028 6.3252 -0.787246 0
M  V30 9052 C 866.715 6.10954 -0.133362 0
M  V30 9053 C 867.713 6.77855 -0.836788 0
M  V30 9054 O 867.401 7.88221 -1.57996 0
M  V30 9055 H 867.133 0.645572 0.20053 0
M  V30 9056 H 869.687 2.0536 -0.040718 0
M  V30 9057 H 867.917 3.12424 2.27877 0
M  V30 9058 H 869.606 3.4894 2.07355 0
M  V30 9059 H 870.372 4.85 -0.00400159 0
M  V30 9060 H 866.251 4.46189 1.15917 0
M  V30 9061 H 869.795 6.84671 -1.33683 0
M  V30 9062 H 865.692 6.45285 -0.166682 0
M  V30 9063 H 866.46 8.0471 -1.49615 0
M  V30 9064 N 869.123 -0.277682 1.55134 0
M  V30 9065 C 870.37 -1.0099 1.7552 0
M  V30 9066 C 870.698 -1.86452 0.553712 0
M  V30 9067 O 869.953 -1.90122 -0.463896 0
M  V30 9068 C 870.252 -1.92599 3.01065 0
M  V30 9069 C 869.918 -1.22926 4.3382 0
M  V30 9070 C 868.58 -1.03659 4.69902 0
M  V30 9071 C 870.932 -0.733071 5.16019 0
M  V30 9072 C 868.26 -0.334933 5.85743 0
M  V30 9073 C 870.612 -0.0450319 6.32584 0
M  V30 9074 C 869.276 0.159393 6.6731 0
M  V30 9075 H 868.546 -0.36955 0.642273 0
M  V30 9076 H 871.193 -0.282611 1.89403 0
M  V30 9077 H 869.498 -2.71934 2.82062 0
M  V30 9078 H 871.195 -2.49367 3.14034 0
M  V30 9079 H 867.785 -1.38933 4.05457 0
M  V30 9080 H 871.969 -0.869565 4.88623 0
M  V30 9081 H 867.225 -0.165783 6.11175 0
M  V30 9082 H 871.399 0.34723 6.95534 0
M  V30 9083 H 869.026 0.70507 7.56923 0
M  V30 9084 N 870.601 -1.47988 -0.541979 0
M  V30 9085 C 871.533 -1.5769 -1.66332 0
M  V30 9086 C 872.546 -0.461994 -1.56107 0
M  V30 9087 O 873.735 -0.732306 -1.62787 0
M  V30 9088 C 870.835 -1.47939 -3.04905 0
M  V30 9089 C 870.008 -2.74263 -3.40733 0
M  V30 9090 C 869.067 -2.58133 -4.58534 0
M  V30 9091 O 868.093 -3.31991 -4.62354 0
M  V30 9092 N 869.295 -1.6696 -5.55972 0
M  V30 9093 H 872.06 -2.54389 -1.5845 0
M  V30 9094 H 869.621 -1.4456 -0.728979 0
M  V30 9095 H 871.613 -1.34861 -3.81569 0
M  V30 9096 H 870.183 -0.592626 -3.06931 0
M  V30 9097 H 869.403 -3.01992 -2.53366 0
M  V30 9098 H 870.691 -3.58094 -3.6145 0
M  V30 9099 H 870.089 -1.06134 -5.55655 0
M  V30 9100 H 868.646 -1.59826 -6.31901 0
M  V30 9101 N 872.079 0.78992 -1.36375 0
M  V30 9102 C 873.495 1.0879 -1.16777 0
M  V30 9103 C 873.695 2.01498 0.00848236 0
M  V30 9104 O 872.751 2.43338 0.674007 0
M  V30 9105 C 874.064 1.70285 -2.47837 0
M  V30 9106 C 875.612 1.82629 -2.54196 0
M  V30 9107 C 876.087 2.47539 -3.85342 0
M  V30 9108 N 877.578 2.55008 -3.86685 0
M  V30 9109 C 878.313 3.06041 -4.84898 0
M  V30 9110 N 877.809 3.57385 -5.93505 0
M  V30 9111 N 879.602 3.04748 -4.72319 0
M  V30 9112 H 871.753 0.173985 -2.11686 0
M  V30 9113 H 874.016 0.139798 -0.937636 0
M  V30 9114 H 873.722 1.09633 -3.34176 0
M  V30 9115 H 873.596 2.69799 -2.63607 0
M  V30 9116 H 875.983 2.42419 -1.68276 0
M  V30 9117 H 876.064 0.81923 -2.42327 0
M  V30 9118 H 875.708 1.88393 -4.71668 0
M  V30 9119 H 875.638 3.48815 -3.94507 0
M  V30 9120 H 878.129 2.18651 -3.08221 0
M  V30 9121 H 878.442 3.94674 -6.64419 0
M  V30 9122 H 876.787 3.55538 -5.97175 0
M  V30 9123 H 879.978 2.63925 -3.86602 0
M  V30 9124 H 880.151 3.44212 -5.49019 0
M  V30 9125 N 873.557 1.20646 1.01402 0
M  V30 9126 C 874.804 1.01819 1.7504 0
M  V30 9127 C 875.132 -0.449386 1.89237 0
M  V30 9128 O 874.387 -1.34985 1.41695 0
M  V30 9129 C 874.686 1.64991 3.17037 0
M  V30 9130 C 874.352 3.14808 3.22811 0
M  V30 9131 C 873.014 3.55692 3.24094 0
M  V30 9132 C 875.366 4.108 3.2077 0
M  V30 9133 C 872.694 4.9109 3.2101 0
M  V30 9134 C 875.046 5.46147 3.19227 0
M  V30 9135 C 873.71 5.86441 3.18815 0
M  V30 9136 H 872.98 0.372582 0.640518 0
M  V30 9137 H 875.627 1.50108 1.18911 0
M  V30 9138 H 873.932 1.08971 3.76341 0
M  V30 9139 H 875.629 1.47937 3.72714 0
M  V30 9140 H 872.219 2.8224 3.2255 0
M  V30 9141 H 876.403 3.80246 3.18946 0
M  V30 9142 H 871.659 5.21569 3.19023 0
M  V30 9143 H 875.833 6.20272 3.166 0
M  V30 9144 H 873.46 6.91328 3.16179 0
M  V30 9145 N 875.035 -1.20752 1.01276 0
M  V30 9146 C 875.968 -2.22091 0.524472 0
M  V30 9147 C 876.946 -1.5692 -0.426017 0
M  V30 9148 O 878.13 -1.8528 -0.346919 0
M  V30 9149 C 875.257 -3.37868 -0.237224 0
M  V30 9150 C 874.303 -4.21327 0.662236 0
M  V30 9151 S 875.136 -4.91352 2.12916 0
M  V30 9152 C 876.292 -6.10553 1.37752 0
M  V30 9153 H 876.525 -2.63166 1.38315 0
M  V30 9154 H 874.058 -1.30742 0.821332 0
M  V30 9155 H 876.016 -4.04985 -0.670599 0
M  V30 9156 H 874.677 -2.95261 -1.07143 0
M  V30 9157 H 873.87 -5.03944 0.0751085 0
M  V30 9158 H 873.472 -3.59445 1.03322 0
M  V30 9159 H 875.764 -6.74322 0.655491 0
M  V30 9160 H 876.707 -6.73717 2.17969 0
M  V30 9161 H 877.115 -5.57566 0.882088 0
M  V30 9162 N 876.513 -0.788492 -1.36457 0
M  V30 9163 C 877.445 -0.144208 -2.28746 0
M  V30 9164 C 878.458 0.646009 -1.49434 0
M  V30 9165 O 879.647 0.481344 -1.71888 0
M  V30 9166 C 876.747 0.818869 -3.28858 0
M  V30 9167 C 875.92 0.0789055 -4.37329 0
M  V30 9168 C 874.979 0.957791 -5.1741 0
M  V30 9169 O 874.005 0.415378 -5.67682 0
M  V30 9170 N 875.207 2.28216 -5.33758 0
M  V30 9171 H 877.972 -0.936949 -2.84678 0
M  V30 9172 H 875.533 -0.642317 -1.48613 0
M  V30 9173 H 877.525 1.41065 -3.79319 0
M  V30 9174 H 876.095 1.51249 -2.73573 0
M  V30 9175 H 875.315 -0.693939 -3.88044 0
M  V30 9176 H 876.603 -0.431753 -5.06965 0
M  V30 9177 H 876.001 2.747 -4.94527 0
M  V30 9178 H 874.558 2.8236 -5.87466 0
M  V30 9179 N 877.991 1.48044 -0.54043 0
M  V30 9180 C 879.407 1.58354 -0.199006 0
M  V30 9181 C 879.607 1.54118 1.29807 0
M  V30 9182 O 878.663 1.43573 2.07709 0
M  V30 9183 C 879.976 2.89563 -0.810797 0
M  V30 9184 C 881.524 3.03113 -0.780486 0
M  V30 9185 C 881.999 4.36997 -1.37104 0
M  V30 9186 N 883.49 4.43591 -1.33347 0
M  V30 9187 C 884.225 5.45714 -1.76021 0
M  V30 9188 N 883.721 6.54738 -2.26473 0
M  V30 9189 N 885.514 5.36659 -1.67194 0
M  V30 9190 H 877.665 1.49041 -1.51329 0
M  V30 9191 H 879.928 0.708309 -0.630081 0
M  V30 9192 H 879.634 2.9835 -1.86227 0
M  V30 9193 H 879.508 3.76053 -0.293977 0
M  V30 9194 H 881.895 2.93932 0.262246 0
M  V30 9195 H 881.976 2.18207 -1.33489 0
M  V30 9196 H 881.62 4.46932 -2.41276 0
M  V30 9197 H 881.55 5.20607 -0.792229 0
M  V30 9198 H 884.041 3.65391 -0.964259 0
M  V30 9199 H 884.354 7.28814 -2.57002 0
M  V30 9200 H 882.699 6.55673 -2.30473 0
M  V30 9201 H 885.89 4.50382 -1.27569 0
M  V30 9202 H 886.063 6.16113 -2.00771 0
M  V30 9203 N 879.47 0.276058 1.55163 0
M  V30 9204 C 880.717 -0.340455 1.99618 0
M  V30 9205 C 881.045 -1.5579 1.16446 0
M  V30 9206 O 880.3 -1.94433 0.222359 0
M  V30 9207 C 880.599 -0.765744 3.491 0
M  V30 9208 C 880.265 0.347174 4.49561 0
M  V30 9209 C 878.927 0.65276 4.76752 0
M  V30 9210 C 881.279 1.09705 5.09523 0
M  V30 9211 C 878.607 1.71179 5.61173 0
M  V30 9212 C 880.959 2.14581 5.95095 0
M  V30 9213 C 879.623 2.45773 6.20606 0
M  V30 9214 H 878.893 -0.124581 0.730452 0
M  V30 9215 H 881.54 0.389966 1.87487 0
M  V30 9216 H 879.845 -1.57585 3.58712 0
M  V30 9217 H 881.542 -1.25352 3.80904 0
M  V30 9218 H 878.132 0.0988779 4.28486 0
M  V30 9219 H 882.316 0.874223 4.8854 0
M  V30 9220 H 877.572 1.95846 5.79184 0
M  V30 9221 H 881.746 2.7316 6.40591 0
M  V30 9222 H 879.373 3.27969 6.85813 0
M  V30 9223 N 880.948 -1.576 0.00335426 0
M  V30 9224 C 881.911 -2.07576 -0.971838 0
M  V30 9225 C 882.911 -0.985796 -1.27038 0
M  V30 9226 O 884.101 -1.24833 -1.21501 0
M  V30 9227 C 881.233 -2.52003 -2.29581 0
M  V30 9228 H 882.426 -2.95008 -0.539481 0
M  V30 9229 H 879.979 -1.54381 -0.244186 0
M  V30 9230 H 880.714 -1.67825 -2.77498 0
M  V30 9231 H 880.499 -3.31609 -2.09231 0
M  V30 9232 H 881.989 -2.90983 -2.99531 0
M  V30 9233 N 882.426 0.269451 -1.5528 0
M  V30 9234 C 883.336 1.35511 -1.91505 0
M  V30 9235 C 884.352 1.53854 -0.812712 0
M  V30 9236 O 885.528 1.67912 -1.1121 0
M  V30 9237 C 882.593 2.6937 -2.18267 0
M  V30 9238 C 881.654 2.59743 -3.41807 0
M  V30 9239 C 880.887 3.87219 -3.67283 0
M  V30 9240 O 881.11 4.88066 -2.95208 0
M  V30 9241 O 880.044 3.87209 -4.60818 0
M  V30 9242 H 883.87 1.07785 -2.8393 0
M  V30 9243 H 881.455 0.468282 -1.41871 0
M  V30 9244 H 883.337 3.48513 -2.36889 0
M  V30 9245 H 882.012 2.96874 -1.29024 0
M  V30 9246 H 880.919 1.78964 -3.28516 0
M  V30 9247 H 882.252 2.37188 -4.3128 0
M  V30 9248 N 883.904 1.48273 0.534124 0
M  V30 9249 C 884.834 1.6538 1.64839 0
M  V30 9250 C 885.815 0.502741 1.62501 0
M  V30 9251 O 887 0.734799 1.79762 0
M  V30 9252 C 884.13 1.68949 3.03436 0
M  V30 9253 C 883.084 2.83513 3.20631 0
M  V30 9254 C 882.41 2.72169 4.60248 0
M  V30 9255 C 883.71 4.24858 3.03797 0
M  V30 9256 H 885.404 2.58663 1.50777 0
M  V30 9257 H 882.95 1.24479 0.723937 0
M  V30 9258 H 884.903 1.79505 3.81256 0
M  V30 9259 H 883.627 0.722415 3.1851 0
M  V30 9260 H 882.286 2.72505 2.45227 0
M  V30 9261 H 881.934 1.7344 4.72152 0
M  V30 9262 H 881.634 3.49042 4.72698 0
M  V30 9263 H 883.158 2.84687 5.40172 0
M  V30 9264 H 884.572 4.36721 3.71413 0
M  V30 9265 H 882.969 5.02697 3.27743 0
M  V30 9266 H 884.039 4.41611 2.0027 0
M  V30 9267 N 885.382 -0.782676 1.36792 0
M  V30 9268 C 886.659 -1.52939 1.21939 0
M  V30 9269 C 887.039 -2.10228 -0.191639 0
M  V30 9270 O 886.387 -1.94574 -1.19805 0
M  V30 9271 C 886.597 -2.61898 2.30674 0
M  V30 9272 C 887.945 -3.29598 2.67676 0
M  V30 9273 O 888.969 -2.72186 2.29768 0
M  V30 9274 O 887.828 -4.3337 3.32946 0
M  V30 9275 H 884.922 -0.676856 0.47518 0
M  V30 9276 H 887.468 -0.82058 1.48542 0
M  V30 9277 H 886.24 -2.17607 3.25212 0
M  V30 9278 H 885.863 -3.40391 2.05475 0
M  V30 9279 N 886.86 -1.21182 -1.00761 0
M  V30 9280 C 888.108 -1.02543 -1.74153 0
M  V30 9281 C 888.429 0.442372 -1.89916 0
M  V30 9282 O 887.699 1.31927 -1.44818 0
M  V30 9283 H 886.279 -0.37644 -0.645214 0
M  V30 9284 H 888.941 -1.52446 -1.21434 0
M  V30 9285 H 888.037 -1.49122 -2.7417 0
M  V30 9286 N 888.338 1.20213 -1.01915 0
M  V30 9287 C 889.301 2.21307 -0.596327 0
M  V30 9288 C 890.301 1.57274 0.334879 0
M  V30 9289 O 891.491 1.73764 0.12322 0
M  V30 9290 C 888.623 3.40657 0.128808 0
M  V30 9291 H 889.816 2.60228 -1.49068 0
M  V30 9292 H 887.369 1.33721 -0.809226 0
M  V30 9293 H 888.104 3.07241 1.03796 0
M  V30 9294 H 887.889 3.88361 -0.540183 0
M  V30 9295 H 889.379 4.15564 0.411892 0
M  V30 9296 N 889.816 0.795718 1.36037 0
M  V30 9297 C 891.062 0.380668 1.99806 0
M  V30 9298 C 891.417 -1.03783 1.62009 0
M  V30 9299 O 890.71 -1.70819 0.867831 0
M  V30 9300 C 890.904 0.489038 3.54038 0
M  V30 9301 C 890.733 1.91652 4.06817 0
M  V30 9302 C 889.503 2.54252 4.36674 0
M  V30 9303 C 891.701 2.87956 4.26129 0
M  V30 9304 N 889.683 3.88523 4.75314 0
M  V30 9305 C 891.054 4.07074 4.67644 0
M  V30 9306 C 893.109 2.8493 4.08313 0
M  V30 9307 C 891.812 5.23583 4.93208 0
M  V30 9308 C 893.838 4.00632 4.35027 0
M  V30 9309 C 893.2 5.18496 4.76804 0
M  V30 9310 H 889.299 0.186842 0.759351 0
M  V30 9311 H 891.883 1.03465 1.64933 0
M  V30 9312 H 890.054 -0.134893 3.88166 0
M  V30 9313 H 891.786 0.0496256 4.0467 0
M  V30 9314 H 888.541 2.05685 4.26604 0
M  V30 9315 H 888.965 4.57623 4.98909 0
M  V30 9316 H 893.607 1.94964 3.75165 0
M  V30 9317 H 891.325 6.14129 5.25234 0
M  V30 9318 H 894.911 3.99659 4.22805 0
M  V30 9319 H 893.791 6.06538 4.97073 0
M  V30 9320 N 891.294 -1.47756 0.548274 0
M  V30 9321 C 892.241 -2.29893 -0.204408 0
M  V30 9322 C 893.211 -1.38509 -0.916761 0
M  V30 9323 O 894.396 -1.67472 -0.91421 0
M  V30 9324 C 891.536 -3.22282 -1.23403 0
M  V30 9325 C 890.649 -4.28753 -0.528654 0
M  V30 9326 C 889.784 -5.08303 -1.54279 0
M  V30 9327 C 888.823 -6.06557 -0.821893 0
M  V30 9328 N 887.96 -6.79098 -1.78243 0
M  V30 9329 H 892.8 -2.93739 0.502163 0
M  V30 9330 H 890.337 -1.44793 0.259471 0
M  V30 9331 H 892.295 -3.74262 -1.84348 0
M  V30 9332 H 890.925 -2.6032 -1.90875 0
M  V30 9333 H 889.977 -3.79899 0.195132 0
M  V30 9334 H 891.289 -4.98787 0.0365066 0
M  V30 9335 H 890.443 -5.64388 -2.22602 0
M  V30 9336 H 889.182 -4.3815 -2.14186 0
M  V30 9337 H 888.187 -5.49659 -0.12469 0
M  V30 9338 H 889.412 -6.78715 -0.228685 0
M  V30 9339 H 887.358 -6.11682 -2.37025 0
M  V30 9340 H 887.275 -7.4527 -1.26919 0
M  V30 9341 H 888.543 -7.39762 -2.45709 0
M  V30 9342 N 892.772 -0.284283 -1.55015 0
M  V30 9343 C 893.682 0.60906 -2.26556 0
M  V30 9344 C 894.698 1.16246 -1.29472 0
M  V30 9345 O 895.874 1.1908 -1.62425 0
M  V30 9346 C 892.939 1.77246 -2.97968 0
M  V30 9347 C 892 1.25482 -4.10552 0
M  V30 9348 C 891.233 2.36277 -4.78549 0
M  V30 9349 O 891.456 3.55829 -4.45805 0
M  V30 9350 O 890.39 2.03914 -5.66306 0
M  V30 9351 H 894.216 0.0292298 -3.03686 0
M  V30 9352 H 891.801 -0.0513466 -1.49312 0
M  V30 9353 H 893.683 2.45062 -3.42815 0
M  V30 9354 H 892.358 2.33921 -2.23747 0
M  V30 9355 H 891.265 0.542859 -3.7014 0
M  V30 9356 H 892.598 0.733708 -4.86701 0
M  V30 9357 N 894.251 1.57596 -0.0117121 0
M  V30 9358 C 895.662 1.79033 0.529521 0
M  V30 9359 C 896.013 0.920299 1.73277 0
M  V30 9360 O 895.138 0.125934 2.16033 0
M  V30 9361 C 895.733 3.24695 0.967405 0
M  V30 9362 C 894.292 3.47188 1.45387 0
M  V30 9363 C 893.439 2.74245 0.410466 0
M  V30 9364 H 896.39 1.56908 -0.237836 0
M  V30 9365 H 896.411 3.33451 1.83278 0
M  V30 9366 H 895.923 3.87992 0.0914605 0
M  V30 9367 H 894.024 2.89121 2.35032 0
M  V30 9368 H 894.137 4.55886 1.47325 0
M  V30 9369 H 892.501 2.39209 0.874721 0
M  V30 9370 H 893.284 3.40248 -0.456713 0
M  V30 9371 N 895.729 -0.261212 1.5542 0
M  V30 9372 C 896.976 -0.99123 1.76581 0
M  V30 9373 C 897.304 -1.85854 0.573457 0
M  V30 9374 O 896.559 -1.90604 -0.443705 0
M  V30 9375 C 896.858 -1.89395 3.03091 0
M  V30 9376 C 896.524 -1.18318 4.351 0
M  V30 9377 C 895.186 -0.986688 4.70975 0
M  V30 9378 C 897.538 -0.678299 5.16767 0
M  V30 9379 C 894.866 -0.272788 5.86065 0
M  V30 9380 C 897.218 0.0220646 6.32596 0
M  V30 9381 C 895.882 0.230161 6.67103 0
M  V30 9382 H 895.152 -0.362717 0.646156 0
M  V30 9383 H 897.799 -0.262506 1.89692 0
M  V30 9384 H 896.104 -2.68927 2.8493 0
M  V30 9385 H 897.801 -2.46022 3.16661 0
M  V30 9386 H 894.391 -1.34625 4.06908 0
M  V30 9387 H 898.575 -0.817691 4.89518 0
M  V30 9388 H 893.831 -0.10095 6.11317 0
M  V30 9389 H 898.005 0.420981 6.95126 0
M  V30 9390 H 895.632 0.785312 7.56133 0
M  V30 9391 N 897.207 -1.48554 -0.526253 0
M  V30 9392 C 898.484 -1.47252 -1.28748 0
M  V30 9393 C 898.864 -0.186245 -2.10277 0
M  V30 9394 O 898.212 0.831954 -2.12816 0
M  V30 9395 C 898.422 -2.73672 -2.16575 0
M  V30 9396 C 899.77 -3.22151 -2.76593 0
M  V30 9397 O 900.794 -2.74614 -2.2686 0
M  V30 9398 O 899.653 -4.04877 -3.67066 0
M  V30 9399 H 896.747 -0.588242 -0.581292 0
M  V30 9400 H 899.293 -1.60792 -0.5426 0
M  V30 9401 H 898.065 -3.58798 -1.56139 0
M  V30 9402 H 897.688 -2.6287 -2.98304 0
M  V30 9403 N 898.685 0.775411 -1.37205 0
M  V30 9404 C 899.648 1.8702 -1.325 0
M  V30 9405 C 900.648 1.5915 -0.229793 0
M  V30 9406 O 901.838 1.673 -0.485423 0
M  V30 9407 C 898.97 3.24085 -1.05745 0
M  V30 9408 H 900.163 1.92604 -2.29878 0
M  V30 9409 H 897.716 0.97476 -1.22181 0
M  V30 9410 H 898.451 3.24178 -0.0888371 0
M  V30 9411 H 898.236 3.45705 -1.85016 0
M  V30 9412 H 899.726 4.0416 -1.05094 0
M  V30 9413 N 900.163 1.21714 1.00117 0
M  V30 9414 C 901.095 0.937627 2.09144 0
M  V30 9415 C 902.108 -0.0806291 1.626 0
M  V30 9416 O 903.297 0.152348 1.77849 0
M  V30 9417 C 900.397 0.387036 3.36683 0
M  V30 9418 C 899.57 1.46054 4.12295 0
M  V30 9419 C 898.629 0.918505 5.18122 0
M  V30 9420 O 897.655 1.60282 5.46167 0
M  V30 9421 N 898.857 -0.264308 5.79898 0
M  V30 9422 H 901.622 1.87622 2.33705 0
M  V30 9423 H 899.183 1.12291 1.16629 0
M  V30 9424 H 901.175 0.00992825 4.04699 0
M  V30 9425 H 899.745 -0.456467 3.09249 0
M  V30 9426 H 898.965 2.01133 3.39027 0
M  V30 9427 H 900.253 2.18306 4.59587 0
M  V30 9428 H 899.651 -0.837242 5.5947 0
M  V30 9429 H 898.208 -0.582886 6.49188 0
M  V30 9430 N 901.641 -1.19671 1.02551 0
M  V30 9431 C 903.057 -1.41305 0.741963 0
M  V30 9432 C 903.257 -1.89865 -0.674807 0
M  V30 9433 O 902.313 -2.07323 -1.44129 0
M  V30 9434 C 903.626 -2.42706 1.77522 0
M  V30 9435 C 905.174 -2.56458 1.79438 0
M  V30 9436 C 905.649 -3.61111 2.81715 0
M  V30 9437 N 907.14 -3.68603 2.8051 0
M  V30 9438 C 907.875 -4.49262 3.56302 0
M  V30 9439 N 907.371 -5.33653 4.41799 0
M  V30 9440 N 909.164 -4.43879 3.44859 0
M  V30 9441 H 901.315 -0.8647 1.94002 0
M  V30 9442 H 903.578 -0.442206 0.838545 0
M  V30 9443 H 903.284 -2.14042 2.79068 0
M  V30 9444 H 903.158 -3.41831 1.59472 0
M  V30 9445 H 905.545 -2.84447 0.78573 0
M  V30 9446 H 905.626 -1.57499 2.01563 0
M  V30 9447 H 905.27 -3.33864 3.82749 0
M  V30 9448 H 905.2 -4.59713 2.56849 0
M  V30 9449 H 907.691 -3.08329 2.18498 0
M  V30 9450 H 908.004 -5.92308 4.96378 0
M  V30 9451 H 906.349 -5.33125 4.45873 0
M  V30 9452 H 909.54 -3.7699 2.77482 0
M  V30 9453 H 909.713 -5.06501 4.04179 0
M  V30 9454 N 903.119 -0.802921 -1.35613 0
M  V30 9455 C 904.53 -0.443004 -1.81368 0
M  V30 9456 C 904.881 1.03459 -1.66706 0
M  V30 9457 O 904.006 1.80372 -1.19561 0
M  V30 9458 C 904.601 -0.797324 -3.29284 0
M  V30 9459 C 903.16 -0.490055 -3.73196 0
M  V30 9460 C 902.307 -1.02487 -2.57666 0
M  V30 9461 H 905.258 -0.994888 -1.23643 0
M  V30 9462 H 905.279 -0.0934638 -3.80385 0
M  V30 9463 H 904.791 -1.87278 -3.39924 0
M  V30 9464 H 902.892 0.576818 -3.68108 0
M  V30 9465 H 903.005 -1.02012 -4.68114 0
M  V30 9466 H 901.369 -0.44738 -2.5074 0
M  V30 9467 H 902.152 -2.10636 -2.71085 0
M  V30 9468 N 904.597 1.47463 -0.556102 0
M  V30 9469 C 905.527 2.32801 0.180497 0
M  V30 9470 C 906.508 1.43721 0.909848 0
M  V30 9471 O 907.693 1.72578 0.89053 0
M  V30 9472 C 904.823 3.25478 1.21167 0
M  V30 9473 C 903.777 4.2379 0.598846 0
M  V30 9474 C 903.103 5.05783 1.73457 0
M  V30 9475 C 904.403 5.20387 -0.446659 0
M  V30 9476 H 906.097 2.94636 -0.531956 0
M  V30 9477 H 903.643 1.41683 -0.257267 0
M  V30 9478 H 905.596 3.8402 1.73513 0
M  V30 9479 H 904.32 2.61695 1.95405 0
M  V30 9480 H 902.979 3.66472 0.0966897 0
M  V30 9481 H 902.627 4.38405 2.46596 0
M  V30 9482 H 902.327 5.72343 1.33031 0
M  V30 9483 H 903.851 5.67183 2.26131 0
M  V30 9484 H 905.265 5.73299 -0.00930019 0
M  V30 9485 H 903.662 5.95143 -0.769735 0
M  V30 9486 H 904.732 4.65932 -1.34295 0
M  V30 9487 N 906.075 0.2925 1.54862 0
M  V30 9488 C 907.352 -0.371946 1.92031 0
M  V30 9489 C 907.732 -1.72363 1.21878 0
M  V30 9490 O 907.08 -2.25779 0.351573 0
M  V30 9491 C 907.29 -0.495027 3.45471 0
M  V30 9492 C 908.638 -0.769855 4.17562 0
M  V30 9493 O 909.662 -0.579168 3.5146 0
M  V30 9494 O 908.521 -1.13561 5.34571 0
M  V30 9495 H 905.615 -0.206463 0.800813 0
M  V30 9496 H 908.161 0.339933 1.6626 0
M  V30 9497 H 906.933 0.455528 3.88639 0
M  V30 9498 H 906.556 -1.2557 3.7725 0
M  V30 9499 N 907.553 -1.57587 0.0200696 0
M  V30 9500 C 908.781 -1.95718 -0.670964 0
M  V30 9501 C 909.196 -0.896081 -1.6618 0
M  V30 9502 O 908.553 0.123037 -1.82085 0
M  V30 9503 C 908.604 -3.33904 -1.38529 0
M  V30 9504 O 908.325 -4.35943 -0.434167 0
M  V30 9505 C 909.826 -3.86614 -2.16898 0
M  V30 9506 H 907.046 -0.644819 -0.185606 0
M  V30 9507 H 909.59 -2.04354 0.0771495 0
M  V30 9508 H 907.745 -3.26515 -2.08487 0
M  V30 9509 H 908.159 -5.16001 -0.940378 0
M  V30 9510 H 909.633 -4.85673 -2.62346 0
M  V30 9511 H 910.11 -3.20379 -3.00423 0
M  V30 9512 H 910.716 -3.97243 -1.51916 0
M  V30 9513 N 909.032 0.252966 -1.55557 0
M  V30 9514 C 910.443 0.822503 -1.67606 0
M  V30 9515 C 910.794 1.86265 -0.616411 0
M  V30 9516 O 909.919 2.15082 0.238447 0
M  V30 9517 C 910.514 1.49866 -3.03852 0
M  V30 9518 C 909.073 2.01597 -3.17861 0
M  V30 9519 C 908.22 0.864943 -2.63465 0
M  V30 9520 H 911.171 0.0288958 -1.58674 0
M  V30 9521 H 911.192 2.36646 -2.97958 0
M  V30 9522 H 910.704 0.741378 -3.80953 0
M  V30 9523 H 908.805 2.80224 -2.45571 0
M  V30 9524 H 908.918 2.21752 -4.24692 0
M  V30 9525 H 907.282 1.2638 -2.21134 0
M  V30 9526 H 908.065 0.120847 -3.43087 0
M  V30 9527 N 910.51 1.48831 0.518367 0
M  V30 9528 C 911.442 1.60317 1.63802 0
M  V30 9529 C 912.455 0.486771 1.55352 0
M  V30 9530 O 913.644 0.758111 1.61601 0
M  V30 9531 C 910.744 1.52771 3.02513 0
M  V30 9532 C 909.917 2.79649 3.36326 0
M  V30 9533 C 908.976 2.65396 4.54369 0
M  V30 9534 O 908.002 3.39304 4.57013 0
M  V30 9535 N 909.204 1.75784 5.53245 0
M  V30 9536 H 911.969 2.56878 1.54383 0
M  V30 9537 H 909.53 1.45701 0.705889 0
M  V30 9538 H 911.522 1.40914 3.79375 0
M  V30 9539 H 910.092 0.641381 3.05949 0
M  V30 9540 H 909.312 3.05985 2.48529 0
M  V30 9541 H 910.6 3.63799 3.55707 0
M  V30 9542 H 909.998 1.14961 5.53896 0
M  V30 9543 H 908.555 1.69859 6.29278 0
M  V30 9544 N 911.988 -0.768124 1.37614 0
M  V30 9545 C 913.236 -1.52379 1.3276 0
M  V30 9546 C 913.557 -1.94809 -0.0863564 0
M  V30 9547 O 912.827 -1.66568 -1.03112 0
M  V30 9548 H 911.407 -0.565179 0.488448 0
M  V30 9549 H 914.069 -0.913974 1.72141 0
M  V30 9550 H 913.165 -2.4215 1.96901 0
M  V30 9551 N 913.466 -1.22244 -0.994698 0
M  V30 9552 C 914.715 -1.04005 -1.72817 0
M  V30 9553 C 915.028 0.425413 -1.90918 0
M  V30 9554 O 916.234 0.727429 -2.61574 0
M  V30 9555 C 914.69 -1.81244 -3.10932 0
M  V30 9556 C 914.298 -3.32028 -3.00768 0
M  V30 9557 C 916.042 -1.71448 -3.88337 0
M  V30 9558 C 913.949 -4.01716 -4.34026 0
M  V30 9559 H 912.879 -0.385559 -0.647966 0
M  V30 9560 H 915.53 -1.46077 -1.11058 0
M  V30 9561 H 913.912 -1.3197 -3.73363 0
M  V30 9562 H 915.086 -3.88682 -2.47513 0
M  V30 9563 H 913.401 -3.4248 -2.36846 0
M  V30 9564 H 915.998 -2.20836 -4.86965 0
M  V30 9565 H 916.341 -0.674568 -4.10798 0
M  V30 9566 H 916.874 -2.18256 -3.3258 0
M  V30 9567 H 913.613 -5.05952 -4.16765 0
M  V30 9568 H 913.133 -3.49849 -4.87202 0
M  V30 9569 H 914.812 -4.0721 -5.02782 0
M  V30 9570 N 914.944 1.19125 -1.03184 0
M  V30 9571 C 915.907 2.20662 -0.619766 0
M  V30 9572 C 916.907 1.57621 0.318179 0
M  V30 9573 O 918.097 1.73885 0.104783 0
M  V30 9574 C 915.229 3.40774 0.0926696 0
M  V30 9575 H 916.422 2.58633 -1.5182 0
M  V30 9576 H 913.975 1.32855 -0.823364 0
M  V30 9577 H 914.71 3.08324 1.00531 0
M  V30 9578 H 914.495 3.87766 -0.581344 0
M  V30 9579 H 915.985 4.15977 0.367792 0
M  V30 9580 N 916.422 0.810101 1.35185 0
M  V30 9581 C 917.352 0.237453 2.32289 0
M  V30 9582 C 918.333 -0.639032 1.5764 0
M  V30 9583 O 919.518 -0.568575 1.8569 0
M  V30 9584 C 916.648 -0.611964 3.41866 0
M  V30 9585 C 915.602 0.166318 4.27677 0
M  V30 9586 C 914.928 -0.805024 5.28605 0
M  V30 9587 C 916.228 1.36729 5.04086 0
M  V30 9588 H 917.922 1.04874 2.80432 0
M  V30 9589 H 915.468 0.505751 1.34826 0
M  V30 9590 H 917.421 -1.02267 4.08802 0
M  V30 9591 H 916.145 -1.45617 2.92341 0
M  V30 9592 H 914.804 0.558238 3.62325 0
M  V30 9593 H 914.452 -1.64483 4.75347 0
M  V30 9594 H 914.152 -0.288577 5.86891 0
M  V30 9595 H 915.676 -1.21386 5.98413 0
M  V30 9596 H 917.09 1.03128 5.63948 0
M  V30 9597 H 915.487 1.81848 5.71884 0
M  V30 9598 H 916.557 2.15214 4.34524 0
M  V30 9599 N 917.9 -1.47166 0.563914 0
M  V30 9600 C 919.177 -1.95586 -0.0236172 0
M  V30 9601 C 919.557 -1.50655 -1.47872 0
M  V30 9602 O 918.905 -0.748479 -2.15894 0
M  V30 9603 C 919.115 -3.48762 0.128841 0
M  V30 9604 C 920.463 -4.24598 -0.0130544 0
M  V30 9605 O 921.487 -3.56155 0.0567242 0
M  V30 9606 O 920.346 -5.46253 -0.164332 0
M  V30 9607 H 917.44 -0.824793 -0.0603789 0
M  V30 9608 H 919.986 -1.57536 0.63091 0
M  V30 9609 H 918.758 -3.74291 1.14113 0
M  V30 9610 H 918.381 -3.93594 -0.56299 0
M  V30 9611 N 919.378 -0.300708 -1.54705 0
M  V30 9612 C 920.794 0.0526874 -1.59513 0
M  V30 9613 C 920.994 1.52444 -1.31769 0
M  V30 9614 O 920.05 2.27716 -1.09096 0
M  V30 9615 C 921.363 -0.344989 -2.98714 0
M  V30 9616 C 922.911 -0.29373 -3.11619 0
M  V30 9617 C 923.386 -0.666225 -4.53129 0
M  V30 9618 N 924.877 -0.618749 -4.59049 0
M  V30 9619 C 925.612 -0.879447 -5.66616 0
M  V30 9620 N 925.108 -1.2061 -6.82221 0
M  V30 9621 N 926.901 -0.806528 -5.56284 0
M  V30 9622 H 919.052 -1.25988 -1.71 0
M  V30 9623 H 921.315 -0.510758 -0.798643 0
M  V30 9624 H 921.021 -1.36953 -3.2394 0
M  V30 9625 H 920.895 0.301507 -3.75993 0
M  V30 9626 H 923.282 0.72156 -2.86142 0
M  V30 9627 H 923.363 -0.974844 -2.36496 0
M  V30 9628 H 923.007 -1.67932 -4.79334 0
M  V30 9629 H 922.937 0.0369575 -5.26587 0
M  V30 9630 H 925.428 -0.377202 -3.76013 0
M  V30 9631 H 925.741 -1.391 -7.60178 0
M  V30 9632 H 924.086 -1.24413 -6.83774 0
M  V30 9633 H 927.277 -0.550993 -4.64846 0
M  V30 9634 H 927.45 -1.01307 -6.40032 0
M  V30 9635 N 920.856 1.57574 -0.0284266 0
M  V30 9636 C 922.267 1.79585 0.510502 0
M  V30 9637 C 922.618 0.938625 1.72291 0
M  V30 9638 O 921.743 0.14884 2.15888 0
M  V30 9639 C 922.338 3.25703 0.932912 0
M  V30 9640 C 920.897 3.48711 1.41696 0
M  V30 9641 C 920.044 2.74665 0.381356 0
M  V30 9642 H 922.995 1.56647 -0.254464 0
M  V30 9643 H 923.016 3.35376 1.79731 0
M  V30 9644 H 922.528 3.88067 0.0503036 0
M  V30 9645 H 920.629 2.91597 2.31952 0
M  V30 9646 H 920.742 4.57423 1.42481 0
M  V30 9647 H 919.106 2.40123 0.8493 0
M  V30 9648 H 919.889 3.39745 -0.492775 0
M  V30 9649 N 922.334 -0.244713 1.55689 0
M  V30 9650 C 923.266 -1.32595 1.86952 0
M  V30 9651 C 924.279 -1.44185 0.755948 0
M  V30 9652 O 925.468 -1.45496 1.03408 0
M  V30 9653 C 922.568 -2.70429 2.04258 0
M  V30 9654 C 921.741 -2.8108 3.35131 0
M  V30 9655 C 920.8 -3.99773 3.42152 0
M  V30 9656 O 919.826 -3.89197 4.15348 0
M  V30 9657 N 921.028 -5.13041 2.71604 0
M  V30 9658 H 923.793 -1.06111 2.80287 0
M  V30 9659 H 921.354 -0.434811 1.55952 0
M  V30 9660 H 923.346 -3.48173 2.06295 0
M  V30 9661 H 921.916 -2.89612 1.17658 0
M  V30 9662 H 921.136 -1.89994 3.45392 0
M  V30 9663 H 922.424 -2.85147 4.21389 0
M  V30 9664 H 921.822 -5.24525 2.11872 0
M  V30 9665 H 920.379 -5.88912 2.79331 0
M  V30 9666 N 923.813 -1.49104 -0.510467 0
M  V30 9667 C 925.059 -1.58346 -1.26705 0
M  V30 9668 C 925.392 -0.265121 -1.92382 0
M  V30 9669 O 924.667 0.730558 -1.80258 0
M  V30 9670 C 924.95 -2.7359 -2.34137 0
M  V30 9671 C 924.803 -4.1519 -1.73024 0
M  V30 9672 C 926.122 -2.84511 -3.3577 0
M  V30 9673 H 923.241 -0.57637 -0.459311 0
M  V30 9674 H 925.883 -1.81353 -0.566658 0
M  V30 9675 H 924.033 -2.54105 -2.93876 0
M  V30 9676 H 925.705 -4.46167 -1.17186 0
M  V30 9677 H 923.948 -4.21279 -1.03473 0
M  V30 9678 H 924.619 -4.91683 -2.50903 0
M  V30 9679 H 927.095 -3.0222 -2.86011 0
M  V30 9680 H 925.971 -3.6684 -4.08313 0
M  V30 9681 H 926.232 -1.93471 -3.97519 0
M  V30 9682 N 925.291 0.760815 -1.38019 0
M  V30 9683 C 926.254 1.85604 -1.34476 0
M  V30 9684 C 927.254 1.58897 -0.24666 0
M  V30 9685 O 928.444 1.66776 -0.50314 0
M  V30 9686 C 925.576 3.22945 -1.09176 0
M  V30 9687 H 926.769 1.90155 -2.31908 0
M  V30 9688 H 924.322 0.961746 -1.23208 0
M  V30 9689 H 925.057 3.24066 -0.123216 0
M  V30 9690 H 924.842 3.43723 -1.88672 0
M  V30 9691 H 926.332 4.03022 -1.09375 0
M  V30 9692 N 926.769 1.22769 0.988202 0
M  V30 9693 C 927.997 1.08155 1.76381 0
M  V30 9694 C 928.412 -0.367573 1.85187 0
M  V30 9695 O 927.769 -1.25455 1.32541 0
M  V30 9696 C 927.82 1.69193 3.19462 0
M  V30 9697 O 927.541 3.08437 3.11125 0
M  V30 9698 C 929.042 1.59915 4.13451 0
M  V30 9699 H 926.262 0.378908 0.553778 0
M  V30 9700 H 928.806 1.6246 1.24206 0
M  V30 9701 H 926.961 1.18939 3.6869 0
M  V30 9702 H 927.375 3.37916 4.0114 0
M  V30 9703 H 928.849 2.07339 5.1158 0
M  V30 9704 H 929.326 0.556546 4.3566 0
M  V30 9705 H 929.932 2.09497 3.70123 0
M  V30 9706 N 928.247 -1.18576 1.03814 0
M  V30 9707 C 929.179 -2.21607 0.585055 0
M  V30 9708 C 930.192 -1.59125 -0.343963 0
M  V30 9709 O 931.381 -1.77959 -0.138882 0
M  V30 9710 C 928.481 -3.38495 -0.165602 0
M  V30 9711 C 927.654 -4.30557 0.770662 0
M  V30 9712 C 926.713 -5.26161 0.0637534 0
M  V30 9713 O 925.739 -5.64961 0.693359 0
M  V30 9714 N 926.941 -5.67882 -1.20377 0
M  V30 9715 H 929.706 -2.61104 1.47121 0
M  V30 9716 H 927.267 -1.33336 0.918316 0
M  V30 9717 H 929.259 -3.99474 -0.648292 0
M  V30 9718 H 927.829 -2.97711 -0.953268 0
M  V30 9719 H 927.049 -3.67221 1.43326 0
M  V30 9720 H 928.337 -4.88969 1.40667 0
M  V30 9721 H 927.735 -5.38409 -1.73586 0
M  V30 9722 H 926.292 -6.31069 -1.63079 0
M  V30 9723 N 929.725 -0.817259 -1.34754 0
M  V30 9724 C 930.971 -0.403244 -1.98751 0
M  V30 9725 C 931.304 1.02963 -1.64658 0
M  V30 9726 O 930.579 1.71617 -0.915314 0
M  V30 9727 C 930.862 -0.599188 -3.5508 0
M  V30 9728 C 930.715 -2.07777 -3.98934 0
M  V30 9729 C 932.034 -0.0315656 -4.40089 0
M  V30 9730 H 929.153 -0.147988 -0.721989 0
M  V30 9731 H 931.795 -1.02877 -1.59738 0
M  V30 9732 H 929.945 -0.0667116 -3.88443 0
M  V30 9733 H 931.617 -2.67345 -3.75931 0
M  V30 9734 H 929.86 -2.57031 -3.49453 0
M  V30 9735 H 930.531 -2.16571 -5.07741 0
M  V30 9736 H 933.007 -0.48644 -4.13247 0
M  V30 9737 H 931.883 -0.198507 -5.48541 0
M  V30 9738 H 932.144 1.06302 -4.2913 0
M  V30 9739 N 931.203 1.46865 -0.571711 0
M  V30 9740 C 932.619 1.57897 -0.23255 0
M  V30 9741 C 932.819 1.56836 1.26509 0
M  V30 9742 O 931.875 1.47947 2.04617 0
M  V30 9743 C 933.188 2.87778 -0.872036 0
M  V30 9744 C 934.736 3.01389 -0.844605 0
M  V30 9745 C 935.211 4.33991 -1.46343 0
M  V30 9746 N 936.702 4.40662 -1.42727 0
M  V30 9747 C 937.437 5.41858 -1.87557 0
M  V30 9748 N 936.933 6.49787 -2.4031 0
M  V30 9749 N 938.726 5.32992 -1.7854 0
M  V30 9750 H 930.877 1.45798 -1.54457 0
M  V30 9751 H 933.14 0.694785 -0.644964 0
M  V30 9752 H 932.846 2.94332 -1.92513 0
M  V30 9753 H 932.72 3.75345 -0.373677 0
M  V30 9754 H 935.107 2.94423 0.19984 0
M  V30 9755 H 935.188 2.15327 -1.38087 0
M  V30 9756 H 934.832 4.41714 -2.50701 0
M  V30 9757 H 934.762 5.18809 -0.902479 0
M  V30 9758 H 937.253 3.63263 -1.04155 0
M  V30 9759 H 937.566 7.23199 -2.72403 0
M  V30 9760 H 935.911 6.50637 -2.44329 0
M  V30 9761 H 939.102 4.47575 -1.37093 0
M  V30 9762 H 939.275 6.11716 -2.13794 0
M  V30 9763 N 932.681 0.308908 1.54543 0
M  V30 9764 C 933.613 -0.597453 2.21276 0
M  V30 9765 C 934.626 -1.09137 1.20801 0
M  V30 9766 O 935.815 -1.00747 1.47351 0
M  V30 9767 C 932.915 -1.83085 2.85189 0
M  V30 9768 C 932.088 -1.4781 4.11669 0
M  V30 9769 C 931.147 -2.56748 4.59311 0
M  V30 9770 O 930.173 -2.21507 5.24331 0
M  V30 9771 N 931.375 -3.87427 4.32297 0
M  V30 9772 H 934.14 -0.0261183 2.99689 0
M  V30 9773 H 931.701 0.131456 1.61365 0
M  V30 9774 H 933.693 -2.55326 3.13992 0
M  V30 9775 H 932.263 -2.31039 2.1057 0
M  V30 9776 H 931.483 -0.587974 3.8979 0
M  V30 9777 H 932.771 -1.2179 4.94009 0
M  V30 9778 H 932.169 -4.18863 3.80224 0
M  V30 9779 H 930.726 -4.55942 4.6579 0
M  V30 9780 N 934.159 -1.57557 0.0367827 0
M  V30 9781 C 935.122 -2.09591 -0.927589 0
M  V30 9782 C 936.122 -1.01252 -1.24919 0
M  V30 9783 O 937.312 -1.27382 -1.18825 0
M  V30 9784 C 934.444 -2.56816 -2.24184 0
M  V30 9785 H 935.637 -2.96086 -0.476784 0
M  V30 9786 H 933.19 -1.54864 -0.211385 0
M  V30 9787 H 933.925 -1.73673 -2.73876 0
M  V30 9788 H 933.71 -3.35973 -2.0215 0
M  V30 9789 H 935.2 -2.97271 -2.93291 0
M  V30 9790 N 935.637 0.236453 -1.55816 0
M  V30 9791 C 936.567 1.29639 -1.94206 0
M  V30 9792 C 937.548 1.49667 -0.808319 0
M  V30 9793 O 938.733 1.621 -1.06945 0
M  V30 9794 C 935.863 2.64914 -2.24584 0
M  V30 9795 C 934.817 2.59565 -3.40308 0
M  V30 9796 C 934.143 3.98732 -3.56254 0
M  V30 9797 C 935.443 2.15642 -4.75706 0
M  V30 9798 H 937.137 0.977552 -2.82992 0
M  V30 9799 H 934.683 0.468804 -1.36155 0
M  V30 9800 H 936.636 3.39209 -2.50031 0
M  V30 9801 H 935.36 2.98455 -1.32636 0
M  V30 9802 H 934.019 1.87728 -3.14887 0
M  V30 9803 H 933.667 4.29556 -2.61707 0
M  V30 9804 H 933.367 3.96039 -4.34082 0
M  V30 9805 H 934.891 4.74711 -3.84033 0
M  V30 9806 H 936.305 2.79673 -5.00456 0
M  V30 9807 H 934.702 2.24039 -5.56711 0
M  V30 9808 H 935.772 1.10831 -4.72064 0
M  V30 9809 N 937.115 1.49373 0.502552 0
M  V30 9810 C 938.078 1.65413 1.58654 0
M  V30 9811 C 939.078 0.526003 1.51953 0
M  V30 9812 O 940.268 0.792421 1.55133 0
M  V30 9813 C 937.4 1.65005 2.98306 0
M  V30 9814 H 938.593 2.62095 1.45762 0
M  V30 9815 H 936.146 1.38381 0.726672 0
M  V30 9816 H 936.881 0.699014 3.16677 0
M  V30 9817 H 936.666 2.46931 3.04578 0
M  V30 9818 H 938.156 1.79477 3.77065 0
M  V30 9819 N 938.594 -0.753485 1.38421 0
M  V30 9820 C 939.871 -1.50318 1.25155 0
M  V30 9821 C 940.251 -2.10588 -0.147003 0
M  V30 9822 O 939.599 -1.97071 -1.15651 0
M  V30 9823 C 939.809 -2.56946 2.36177 0
M  V30 9824 C 941.157 -3.23846 2.74607 0
M  V30 9825 O 942.181 -2.67251 2.3549 0
M  V30 9826 O 941.04 -4.2621 3.42064 0
M  V30 9827 H 938.134 -0.666624 0.48943 0
M  V30 9828 H 940.68 -0.788887 1.50249 0
M  V30 9829 H 939.452 -2.1066 3.29754 0
M  V30 9830 H 939.075 -3.35956 2.12648 0
M  V30 9831 N 940.072 -1.23292 -0.981677 0
M  V30 9832 C 941.035 -1.01417 -2.05542 0
M  V30 9833 C 942.035 0.0235354 -1.60783 0
M  V30 9834 O 943.225 -0.216082 -1.72855 0
M  V30 9835 C 940.357 -0.534239 -3.36688 0
M  V30 9836 H 941.55 -1.96702 -2.26381 0
M  V30 9837 H 939.103 -1.05318 -1.1549 0
M  V30 9838 H 939.838 0.422452 -3.21537 0
M  V30 9839 H 939.623 -1.28304 -3.70514 0
M  V30 9840 H 941.113 -0.40179 -4.15663 0
M  V30 9841 N 941.55 1.18024 -1.04442 0
M  V30 9842 C 942.513 2.19992 -0.643136 0
M  V30 9843 C 943.513 1.57949 0.301444 0
M  V30 9844 O 944.703 1.73986 0.0863341 0
M  V30 9845 C 941.835 3.40853 0.0565208 0
M  V30 9846 H 943.028 2.57008 -1.54554 0
M  V30 9847 H 940.581 1.31974 -0.837408 0
M  V30 9848 H 941.316 3.09373 0.972553 0
M  V30 9849 H 941.101 3.87128 -0.622439 0
M  V30 9850 H 942.591 4.16344 0.323652 0
M  V30 9851 N 943.028 0.824394 1.34319 0
M  V30 9852 C 943.991 0.252696 2.27803 0
M  V30 9853 C 944.991 -0.570254 1.50349 0
M  V30 9854 O 946.181 -0.386145 1.69866 0
M  V30 9855 C 943.313 -0.645575 3.34731 0
M  V30 9856 H 944.506 1.07742 2.79878 0
M  V30 9857 H 942.059 0.596367 1.44475 0
M  V30 9858 H 942.794 -1.4933 2.87873 0
M  V30 9859 H 942.579 -0.0569478 3.92059 0
M  V30 9860 H 944.069 -1.03933 4.0446 0
M  V30 9861 N 944.506 -1.46559 0.579492 0
M  V30 9862 C 945.416 -2.34066 -0.15816 0
M  V30 9863 C 946.432 -1.49556 -0.88932 0
M  V30 9864 O 947.608 -1.82434 -0.853226 0
M  V30 9865 C 944.673 -3.26683 -1.161 0
M  V30 9866 C 943.734 -4.27092 -0.434855 0
M  V30 9867 C 942.967 -5.15283 -1.38992 0
M  V30 9868 O 943.19 -5.06345 -2.62623 0
M  V30 9869 O 942.124 -5.95099 -0.902253 0
M  V30 9870 H 945.95 -2.98488 0.560234 0
M  V30 9871 H 943.535 -1.45482 0.339918 0
M  V30 9872 H 945.417 -3.8383 -1.73932 0
M  V30 9873 H 944.092 -2.64862 -1.86091 0
M  V30 9874 H 942.999 -3.73641 0.185224 0
M  V30 9875 H 944.332 -4.9169 0.224031 0
M  V30 9876 N 945.984 -0.3171 -1.54377 0
M  V30 9877 C 947.23 0.287836 -2.00747 0
M  V30 9878 C 947.563 1.52292 -1.20502 0
M  V30 9879 O 946.838 1.92391 -0.285626 0
M  V30 9880 C 947.121 0.628423 -3.54574 0
M  V30 9881 C 946.974 -0.616922 -4.45549 0
M  V30 9882 C 948.293 1.44862 -4.15575 0
M  V30 9883 H 945.412 0.103144 -0.729747 0
M  V30 9884 H 948.054 -0.432396 -1.85014 0
M  V30 9885 H 946.204 1.24203 -3.68111 0
M  V30 9886 H 947.876 -1.25526 -4.43893 0
M  V30 9887 H 946.119 -1.24706 -4.15489 0
M  V30 9888 H 946.79 -0.334243 -5.50987 0
M  V30 9889 H 949.266 0.930015 -4.05574 0
M  V30 9890 H 948.142 1.6557 -5.23333 0
M  V30 9891 H 948.403 2.44279 -3.68484 0
M  V30 9892 N 947.462 1.57535 -0.0451378 0
M  V30 9893 C 948.372 2.14653 0.946646 0
M  V30 9894 C 949.388 1.10279 1.3459 0
M  V30 9895 O 950.564 1.42417 1.42405 0
M  V30 9896 C 947.629 2.67533 2.20515 0
M  V30 9897 C 946.69 3.86682 1.86481 0
M  V30 9898 C 945.923 4.37031 3.06332 0
M  V30 9899 O 946.146 3.86481 4.1951 0
M  V30 9900 O 945.08 5.28691 2.87697 0
M  V30 9901 H 948.906 2.99706 0.49091 0
M  V30 9902 H 946.491 1.48355 0.17641 0
M  V30 9903 H 948.373 3.01542 2.94365 0
M  V30 9904 H 947.048 1.85554 2.65238 0
M  V30 9905 H 945.955 3.57573 1.09966 0
M  V30 9906 H 947.288 4.69873 1.46562 0
M  V30 9907 N 948.94 -0.228186 1.55939 0
M  V30 9908 C 949.887 -1.28274 1.91871 0
M  V30 9909 C 950.857 -1.46906 0.775103 0
M  V30 9910 O 952.042 -1.60583 1.03042 0
M  V30 9911 C 949.182 -2.62945 2.23504 0
M  V30 9912 C 948.295 -2.52166 3.50766 0
M  V30 9913 C 947.43 -3.79316 3.71878 0
M  V30 9914 C 946.469 -3.63231 4.92676 0
M  V30 9915 N 945.606 -4.82315 5.10212 0
M  V30 9916 H 950.446 -0.96931 2.81795 0
M  V30 9917 H 947.983 -0.467331 1.39479 0
M  V30 9918 H 949.941 -3.41359 2.39854 0
M  V30 9919 H 948.571 -2.92397 1.36762 0
M  V30 9920 H 947.623 -1.65221 3.42646 0
M  V30 9921 H 948.935 -2.36199 4.39331 0
M  V30 9922 H 948.089 -4.66173 3.88288 0
M  V30 9923 H 946.828 -3.982 2.81581 0
M  V30 9924 H 945.833 -2.74757 4.76223 0
M  V30 9925 H 947.058 -3.45823 5.84451 0
M  V30 9926 H 945.004 -5.01526 4.22856 0
M  V30 9927 H 944.921 -4.6905 5.92898 0
M  V30 9928 H 946.189 -5.70618 5.31051 0
M  V30 9929 N 950.418 -1.49637 -0.494624 0
M  V30 9930 C 951.643 -1.63431 -1.27691 0
M  V30 9931 C 952.068 -0.30813 -1.85559 0
M  V30 9932 O 951.426 0.725083 -1.66169 0
M  V30 9933 C 951.474 -2.71043 -2.3784 0
M  V30 9934 O 950.578 -2.3066 -3.41862 0
M  V30 9935 H 949.919 -0.546804 -0.376698 0
M  V30 9936 H 952.449 -1.95866 -0.591413 0
M  V30 9937 H 952.459 -2.93406 -2.83508 0
M  V30 9938 H 951.134 -3.67306 -1.95088 0
M  V30 9939 H 949.711 -2.18652 -3.02069 0
M  V30 9940 N 951.896 0.746133 -1.38819 0
M  V30 9941 C 953.144 1.50247 -1.35167 0
M  V30 9942 C 953.465 1.94921 0.0553531 0
M  V30 9943 O 952.735 1.68187 1.00449 0
M  V30 9944 H 951.315 0.557337 -0.497377 0
M  V30 9945 H 953.977 0.886472 -1.73573 0
M  V30 9946 H 953.073 2.38986 -2.00728 0
M  V30 9947 N 953.375 1.23811 0.975125 0
M  V30 9948 C 954.624 1.06741 1.71141 0
M  V30 9949 C 954.937 -0.394986 1.9157 0
M  V30 9950 O 956.143 -0.685723 2.62698 0
M  V30 9951 C 954.599 1.86168 3.08009 0
M  V30 9952 C 954.207 3.36771 2.95448 0
M  V30 9953 C 955.951 1.77604 3.85561 0
M  V30 9954 C 953.858 4.0857 4.2758 0
M  V30 9955 H 952.788 0.395819 0.64175 0
M  V30 9956 H 955.439 1.47825 1.0872 0
M  V30 9957 H 953.821 1.37893 3.71216 0
M  V30 9958 H 954.995 3.92571 2.41298 0
M  V30 9959 H 953.31 3.46205 2.31368 0
M  V30 9960 H 955.907 2.28556 4.83391 0
M  V30 9961 H 956.25 0.739837 4.09673 0
M  V30 9962 H 956.783 2.23519 3.29065 0
M  V30 9963 H 953.522 5.12518 4.08663 0
M  V30 9964 H 953.042 3.57556 4.81574 0
M  V30 9965 H 954.721 4.15157 4.9624 0
M  V30 9966 N 954.853 -1.17469 1.05066 0
M  V30 9967 C 956.264 -1.69334 0.786304 0
M  V30 9968 C 956.615 -1.83604 -0.691671 0
M  V30 9969 O 955.74 -1.52269 -1.53763 0
M  V30 9970 C 956.335 -3.07572 1.42074 0
M  V30 9971 C 954.894 -3.56609 1.20446 0
M  V30 9972 C 954.041 -2.329 1.50508 0
M  V30 9973 H 956.992 -1.02003 1.21577 0
M  V30 9974 H 957.013 -3.71352 0.829334 0
M  V30 9975 H 956.525 -2.97154 2.49642 0
M  V30 9976 H 954.626 -3.72306 0.147968 0
M  V30 9977 H 954.739 -4.39446 1.90852 0
M  V30 9978 H 953.103 -2.37305 0.925124 0
M  V30 9979 H 953.886 -2.25093 2.59207 0
M  V30 9980 N 956.331 -0.831506 -1.3388 0
M  V30 9981 C 957.608 -0.345907 -1.92517 0
M  V30 9982 C 957.988 1.16784 -1.75854 0
M  V30 9983 O 957.336 1.97889 -1.14245 0
M  V30 9984 C 957.546 -0.784692 -3.40064 0
M  V30 9985 C 958.894 -0.78846 -4.17215 0
M  V30 9986 O 959.918 -0.727823 -3.48685 0
M  V30 9987 O 958.777 -0.869481 -5.39539 0
M  V30 9988 H 955.871 -0.0963568 -0.821367 0
M  V30 9989 H 958.417 -0.916868 -1.42799 0
M  V30 9990 H 957.189 -1.82697 -3.46031 0
M  V30 9991 H 956.812 -0.189897 -3.97146 0
M  V30 9992 N 957.809 1.4625 -0.587256 0
M  V30 9993 C 959.057 2.01963 -0.0744273 0
M  V30 9994 C 959.378 1.46065 1.29189 0
M  V30 9995 O 958.648 0.647077 1.84905 0
M  V30 9996 H 957.228 0.746597 -0.0245236 0
M  V30 9997 H 959.89 1.79299 -0.764063 0
M  V30 9998 H 958.986 3.12099 -0.00884894 0
M  V30 9999 N 959.287 0.325282 1.54207 0
M  V30 10000 C 960.25 -0.527228 2.23054 0
M  V30 10001 C 961.25 -1.04217 1.22456 0
M  V30 10002 O 962.44 -0.934325 1.47024 0
M  V30 10003 C 959.572 -1.7325 2.93594 0
M  V30 10004 H 960.765 0.0746423 2.99807 0
M  V30 10005 H 958.318 0.0763872 1.56113 0
M  V30 10006 H 959.053 -2.37356 2.20981 0
M  V30 10007 H 958.838 -1.37065 3.67363 0
M  V30 10008 H 960.328 -2.3376 3.46043 0
M  V30 10009 N 960.765 -1.57509 0.0534917 0
M  V30 10010 C 962.181 -1.56696 -0.303067 0
M  V30 10011 C 962.381 -1.06135 -1.71282 0
M  V30 10012 O 961.437 -0.71899 -2.42047 0
M  V30 10013 C 962.75 -3.00421 -0.129418 0
M  V30 10014 C 964.298 -3.12358 -0.200346 0
M  V30 10015 C 964.773 -4.57967 -0.0551971 0
M  V30 10016 N 966.264 -4.63066 -0.111398 0
M  V30 10017 C 966.999 -5.73395 -0.0232344 0
M  V30 10018 N 966.495 -6.92701 0.11741 0
M  V30 10019 N 968.288 -5.62045 -0.078984 0
M  V30 10020 H 960.439 -1.88696 0.975064 0
M  V30 10021 H 962.702 -0.869072 0.378706 0
M  V30 10022 H 962.408 -3.41456 0.842653 0
M  V30 10023 H 962.282 -3.66563 -0.889476 0
M  V30 10024 H 964.669 -2.71221 -1.16289 0
M  V30 10025 H 964.75 -2.48891 0.590506 0
M  V30 10026 H 964.394 -4.9979 0.904034 0
M  V30 10027 H 964.324 -5.19443 -0.865223 0
M  V30 10028 H 966.815 -3.77263 -0.219256 0
M  V30 10029 H 967.128 -7.72597 0.177326 0
M  V30 10030 H 965.473 -6.94833 0.152526 0
M  V30 10031 H 968.664 -4.67725 -0.187434 0
M  V30 10032 H 968.837 -6.48 -0.00681731 0
M  V30 10033 N 962.243 0.219913 -1.56058 0
M  V30 10034 C 963.489 0.941055 -1.80321 0
M  V30 10035 C 963.844 1.81906 -0.626735 0
M  V30 10036 O 963.137 1.87811 0.379147 0
M  V30 10037 C 963.331 1.81293 -3.08006 0
M  V30 10038 C 963.16 1.02082 -4.37961 0
M  V30 10039 C 961.93 0.715096 -5.00214 0
M  V30 10040 C 964.128 0.385342 -5.12854 0
M  V30 10041 N 962.11 -0.098246 -6.13821 0
M  V30 10042 C 963.481 -0.291319 -6.19315 0
M  V30 10043 C 965.536 0.29854 -4.97004 0
M  V30 10044 C 964.239 -1.04648 -7.11647 0
M  V30 10045 C 966.265 -0.443159 -5.89737 0
M  V30 10046 C 965.627 -1.10836 -6.95625 0
M  V30 10047 H 961.726 0.324568 -0.711463 0
M  V30 10048 H 964.31 0.211795 -1.93545 0
M  V30 10049 H 962.481 2.51399 -2.96063 0
M  V30 10050 H 964.213 2.47167 -3.20454 0
M  V30 10051 H 960.968 1.03352 -4.62185 0
M  V30 10052 H 961.392 -0.4938 -6.75197 0
M  V30 10053 H 966.034 0.798478 -4.15192 0
M  V30 10054 H 963.752 -1.55793 -7.9294 0
M  V30 10055 H 967.338 -0.511348 -5.79549 0
M  V30 10056 H 966.218 -1.6731 -7.66144 0
M  V30 10057 N 963.721 1.49897 0.486681 0
M  V30 10058 C 964.969 1.59789 1.23742 0
M  V30 10059 C 965.29 0.293056 1.92785 0
M  V30 10060 O 964.56 -0.688534 1.83401 0
M  V30 10061 H 963.14 0.588775 0.459731 0
M  V30 10062 H 965.802 1.86597 0.562808 0
M  V30 10063 H 964.898 2.40121 1.9937 0
M  V30 10064 N 965.199 -0.738761 1.39212 0
M  V30 10065 C 966.476 -1.48982 1.26742 0
M  V30 10066 C 966.856 -2.10732 -0.12466 0
M  V30 10067 O 966.204 -1.98287 -1.13554 0
M  V30 10068 C 966.414 -2.54427 2.38889 0
M  V30 10069 C 967.762 -3.20915 2.78027 0
M  V30 10070 O 968.786 -2.64738 2.38311 0
M  V30 10071 O 967.645 -4.22558 3.46565 0
M  V30 10072 H 964.739 -0.661395 0.496473 0
M  V30 10073 H 967.285 -0.772907 1.51077 0
M  V30 10074 H 966.057 -2.07151 3.3197 0
M  V30 10075 H 965.68 -3.33682 2.162 0
M  V30 10076 N 966.677 -1.24326 -0.968545 0
M  V30 10077 C 967.607 -1.05951 -2.08079 0
M  V30 10078 C 968.588 0.0272666 -1.70078 0
M  V30 10079 O 969.773 -0.139644 -1.93697 0
M  V30 10080 C 966.903 -0.662623 -3.4092 0
M  V30 10081 C 965.857 -1.69807 -3.92873 0
M  V30 10082 C 965.183 -1.15628 -5.22048 0
M  V30 10083 C 966.483 -3.09383 -4.20808 0
M  V30 10084 H 968.177 -1.98984 -2.23709 0
M  V30 10085 H 965.723 -0.958112 -1.075 0
M  V30 10086 H 967.676 -0.521071 -4.18166 0
M  V30 10087 H 966.4 0.303399 -3.25188 0
M  V30 10088 H 965.059 -1.82783 -3.17783 0
M  V30 10089 H 964.707 -0.180888 -5.02675 0
M  V30 10090 H 964.407 -1.84822 -5.57776 0
M  V30 10091 H 965.931 -1.02683 -6.01904 0
M  V30 10092 H 967.345 -2.99642 -4.88761 0
M  V30 10093 H 965.742 -3.75923 -4.67763 0
M  V30 10094 H 966.812 -3.57486 -3.27616 0
M  V30 10095 N 968.156 1.1691 -1.05688 0
M  V30 10096 C 969.088 2.20648 -0.620237 0
M  V30 10097 C 970.101 1.59652 0.318604 0
M  V30 10098 O 971.29 1.78157 0.110553 0
M  V30 10099 C 968.39 3.38716 0.111729 0
M  V30 10100 C 967.563 4.29277 -0.839062 0
M  V30 10101 C 966.622 5.25993 -0.147453 0
M  V30 10102 O 965.648 5.63787 -0.783151 0
M  V30 10103 N 966.85 5.69725 1.11327 0
M  V30 10104 H 969.615 2.58731 -1.51256 0
M  V30 10105 H 967.176 1.31858 -0.939412 0
M  V30 10106 H 969.168 4.00455 0.584657 0
M  V30 10107 H 967.738 2.99189 0.905784 0
M  V30 10108 H 966.958 3.64894 -1.4915 0
M  V30 10109 H 968.246 4.86669 -1.48428 0
M  V30 10110 H 967.644 5.41103 1.64999 0
M  V30 10111 H 966.201 6.33584 1.53018 0
M  V30 10112 N 969.634 0.838594 1.33437 0
M  V30 10113 C 970.88 0.434813 1.98084 0
M  V30 10114 C 971.213 -1.00331 1.66275 0
M  V30 10115 O 970.488 -1.70139 0.942501 0
M  V30 10116 C 970.771 0.655602 3.54082 0
M  V30 10117 C 970.624 2.14097 3.95578 0
M  V30 10118 C 971.943 0.101576 4.39983 0
M  V30 10119 H 969.062 0.159456 0.719544 0
M  V30 10120 H 971.704 1.05406 1.58081 0
M  V30 10121 H 969.854 0.128501 3.88287 0
M  V30 10122 H 971.526 2.73292 3.71631 0
M  V30 10123 H 969.769 2.62558 3.4532 0
M  V30 10124 H 970.44 2.24621 5.04231 0
M  V30 10125 H 972.916 0.552122 4.12421 0
M  V30 10126 H 971.792 0.28575 5.48156 0
M  V30 10127 H 972.053 -0.994616 4.30767 0
M  V30 10128 N 971.112 -1.45937 0.595003 0
M  V30 10129 C 972.337 -2.07207 0.0894416 0
M  V30 10130 C 972.762 -1.43884 -1.21157 0
M  V30 10131 O 972.12 -0.526998 -1.73472 0
M  V30 10132 C 972.168 -3.60565 -0.0499828 0
M  V30 10133 O 971.272 -3.97364 -1.10342 0
M  V30 10134 H 970.613 -0.660471 0.0683627 0
M  V30 10135 H 973.143 -1.87386 0.82144 0
M  V30 10136 H 973.153 -4.0722 -0.252234 0
M  V30 10137 H 971.828 -4.06044 0.90006 0
M  V30 10138 H 970.405 -3.62401 -0.878645 0
M  V30 10139 N 972.59 -0.333456 -1.54032 0
M  V30 10140 C 973.818 0.267813 -2.05159 0
M  V30 10141 C 974.233 1.4501 -1.20903 0
M  V30 10142 O 973.59 1.80888 -0.241994 0
M  V30 10143 C 973.641 0.69268 -3.54802 0
M  V30 10144 O 973.362 -0.442579 -4.35859 0
M  V30 10145 C 974.863 1.35572 -4.2206 0
M  V30 10146 H 972.083 0.0534924 -0.668864 0
M  V30 10147 H 974.627 -0.482515 -1.98726 0
M  V30 10148 H 972.782 1.39297 -3.6149 0
M  V30 10149 H 973.196 -0.105915 -5.24393 0
M  V30 10150 H 974.67 1.60385 -5.28186 0
M  V30 10151 H 975.147 2.30614 -3.73783 0
M  V30 10152 H 975.753 0.697748 -4.19537 0
M  V30 10153 N 974.068 1.57479 -0.061844 0
M  V30 10154 C 975.484 1.56855 0.294753 0
M  V30 10155 C 975.684 1.07042 1.70717 0
M  V30 10156 O 974.74 0.731817 2.41662 0
M  V30 10157 C 976.053 3.00486 0.113484 0
M  V30 10158 C 977.601 3.1246 0.183778 0
M  V30 10159 C 978.076 4.5799 0.0309092 0
M  V30 10160 N 979.567 4.63119 0.0868393 0
M  V30 10161 C 980.302 5.734 -0.00717446 0
M  V30 10162 N 979.798 6.92628 -0.154144 0
M  V30 10163 N 981.591 5.62078 0.0491763 0
M  V30 10164 H 973.742 1.88176 -0.985058 0
M  V30 10165 H 976.005 0.867051 -0.383309 0
M  V30 10166 H 975.711 3.41004 -0.86075 0
M  V30 10167 H 975.585 3.67029 0.870023 0
M  V30 10168 H 977.972 2.71834 1.14849 0
M  V30 10169 H 978.053 2.48574 -0.603697 0
M  V30 10170 H 977.697 4.99303 -0.930526 0
M  V30 10171 H 977.627 5.19895 0.837664 0
M  V30 10172 H 980.118 3.77374 0.199245 0
M  V30 10173 H 980.431 7.72492 -0.218296 0
M  V30 10174 H 978.776 6.94742 -0.189372 0
M  V30 10175 H 981.967 4.67817 0.162626 0
M  V30 10176 H 982.14 6.47994 -0.0275478 0
M  V30 10177 N 975.546 -0.211634 1.56173 0
M  V30 10178 C 976.794 -0.932704 1.7929 0
M  V30 10179 C 977.115 -1.84472 0.632076 0
M  V30 10180 O 976.385 -1.92739 -0.350519 0
M  V30 10181 H 974.965 -0.347393 0.661307 0
M  V30 10182 H 977.627 -0.22111 1.93642 0
M  V30 10183 H 976.723 -1.53365 2.71819 0
M  V30 10184 N 977.024 -1.50153 -0.478725 0
M  V30 10185 C 977.956 -1.64603 -1.59494 0
M  V30 10186 C 978.969 -0.527789 -1.54007 0
M  V30 10187 O 980.158 -0.80069 -1.59534 0
M  V30 10188 C 977.258 -1.60738 -2.98356 0
M  V30 10189 C 976.431 -2.88468 -3.28794 0
M  V30 10190 C 975.49 -2.77349 -4.47173 0
M  V30 10191 O 974.516 -3.51302 -4.47857 0
M  V30 10192 N 975.718 -1.9039 -5.4839 0
M  V30 10193 H 978.483 -2.6088 -1.47518 0
M  V30 10194 H 976.044 -1.47521 -0.667011 0
M  V30 10195 H 978.036 -1.50923 -3.75505 0
M  V30 10196 H 976.606 -0.722273 -3.04141 0
M  V30 10197 H 975.826 -3.12467 -2.40329 0
M  V30 10198 H 977.114 -3.73102 -3.45937 0
M  V30 10199 H 976.512 -1.29606 -5.50653 0
M  V30 10200 H 975.069 -1.86484 -6.24553 0
M  V30 10201 N 978.502 0.731368 -1.39602 0
M  V30 10202 C 979.412 1.87579 -1.40894 0
M  V30 10203 C 980.428 1.71336 -0.303319 0
M  V30 10204 O 981.604 1.93875 -0.545377 0
M  V30 10205 C 978.669 3.23211 -1.25442 0
M  V30 10206 C 977.73 3.51822 -2.46008 0
M  V30 10207 C 976.963 4.80982 -2.31284 0
M  V30 10208 O 977.186 5.54958 -1.31824 0
M  V30 10209 O 976.12 5.09574 -3.20341 0
M  V30 10210 H 979.946 1.89444 -2.3737 0
M  V30 10211 H 977.531 0.879675 -1.20756 0
M  V30 10212 H 979.413 4.04257 -1.18972 0
M  V30 10213 H 978.088 3.22108 -0.320637 0
M  V30 10214 H 976.995 2.70847 -2.58055 0
M  V30 10215 H 978.328 3.57707 -3.38093 0
M  V30 10216 N 979.98 1.24838 0.961938 0
M  V30 10217 C 981.396 1.01502 1.23165 0
M  V30 10218 C 981.596 -0.272651 1.99647 0
M  V30 10219 O 980.652 -0.987297 2.32398 0
M  V30 10220 C 981.965 2.23366 2.01316 0
M  V30 10221 C 983.513 2.28051 2.14387 0
M  V30 10222 C 983.988 3.49552 2.95935 0
M  V30 10223 N 985.479 3.49904 3.03515 0
M  V30 10224 C 986.214 4.40577 3.66987 0
M  V30 10225 N 985.71 5.41512 4.3213 0
M  V30 10226 N 987.503 4.28275 3.64056 0
M  V30 10227 H 979.654 2.07576 0.450086 0
M  V30 10228 H 981.917 0.911205 0.261551 0
M  V30 10229 H 981.623 3.16913 1.5251 0
M  V30 10230 H 981.497 2.25949 3.02038 0
M  V30 10231 H 983.884 1.35032 2.62393 0
M  V30 10232 H 983.965 2.29491 1.12994 0
M  V30 10233 H 983.609 4.42889 2.4862 0
M  V30 10234 H 983.539 3.45357 3.97538 0
M  V30 10235 H 986.03 2.76885 2.57183 0
M  V30 10236 H 986.343 6.06924 4.78396 0
M  V30 10237 H 984.688 5.45393 4.3078 0
M  V30 10238 H 987.879 3.48653 3.12344 0
M  V30 10239 H 988.052 4.99138 4.13237 0
M  V30 10240 N 981.458 -1.16348 1.06306 0
M  V30 10241 C 982.707 -1.8622 0.774909 0
M  V30 10242 C 983.02 -1.82598 -0.701245 0
M  V30 10243 O 984.226 -2.48051 -1.10377 0
M  V30 10244 C 982.682 -3.34182 1.33604 0
M  V30 10245 C 982.29 -3.46279 2.84245 0
M  V30 10246 C 984.034 -4.09309 1.12544 0
M  V30 10247 C 981.941 -4.88327 3.33602 0
M  V30 10248 H 980.871 -0.697574 0.286194 0
M  V30 10249 H 983.522 -1.31311 1.28179 0
M  V30 10250 H 981.904 -3.88698 0.756937 0
M  V30 10251 H 983.078 -3.01923 3.48108 0
M  V30 10252 H 981.393 -2.84585 3.03974 0
M  V30 10253 H 983.99 -5.14123 1.46909 0
M  V30 10254 H 984.333 -4.16251 0.0638129 0
M  V30 10255 H 984.866 -3.61032 1.67034 0
M  V30 10256 H 981.605 -4.86565 4.39244 0
M  V30 10257 H 981.125 -5.33307 2.74487 0
M  V30 10258 H 982.804 -5.57144 3.28937 0
M  V30 10259 N 982.937 -0.845659 -1.3299 0
M  V30 10260 C 983.9 -0.288905 -2.27372 0
M  V30 10261 C 984.9 0.546263 -1.51237 0
M  V30 10262 O 986.09 0.359072 -1.70459 0
M  V30 10263 C 983.222 0.59224 -3.35716 0
M  V30 10264 H 984.415 -1.12181 -2.78128 0
M  V30 10265 H 981.968 -0.619276 -1.43508 0
M  V30 10266 H 982.703 1.44732 -2.90212 0
M  V30 10267 H 982.488 -0.00543255 -3.921 0
M  V30 10268 H 983.978 0.974848 -4.06062 0
M  V30 10269 N 984.415 1.45619 -0.602734 0
M  V30 10270 C 985.664 2.01483 -0.0936395 0
M  V30 10271 C 985.977 1.47753 1.28173 0
M  V30 10272 O 987.183 1.95562 1.88329 0
M  V30 10273 C 985.639 3.59711 -0.116738 0
M  V30 10274 C 985.247 4.22437 -1.49166 0
M  V30 10275 C 986.991 4.23157 0.337368 0
M  V30 10276 C 984.898 5.72803 -1.47141 0
M  V30 10277 H 983.828 0.753353 -0.0312382 0
M  V30 10278 H 986.479 1.67142 -0.757347 0
M  V30 10279 H 984.861 3.91218 0.613529 0
M  V30 10280 H 986.035 4.02511 -2.24325 0
M  V30 10281 H 984.35 3.71166 -1.88746 0
M  V30 10282 H 986.947 5.33407 0.371628 0
M  V30 10283 H 987.29 3.93491 1.35906 0
M  V30 10284 H 987.823 3.96349 -0.339474 0
M  V30 10285 H 984.562 6.07161 -2.47055 0
M  V30 10286 H 984.082 5.94936 -0.762329 0
M  V30 10287 H 985.761 6.35907 -1.19294 0
M  V30 10288 N 985.893 0.34162 1.53853 0
M  V30 10289 C 987.304 -0.14269 1.86154 0
M  V30 10290 C 987.655 -1.50151 1.2629 0
M  V30 10291 O 986.78 -2.08601 0.575735 0
M  V30 10292 C 987.375 -0.265691 3.37757 0
M  V30 10293 C 985.934 -0.694231 3.69942 0
M  V30 10294 C 985.081 0.173195 2.76759 0
M  V30 10295 H 988.032 0.561284 1.48443 0
M  V30 10296 H 988.053 -1.09352 3.64448 0
M  V30 10297 H 987.565 0.723424 3.81298 0
M  V30 10298 H 985.666 -1.69244 3.31945 0
M  V30 10299 H 985.779 -0.485461 4.76634 0
M  V30 10300 H 984.143 -0.35416 2.52226 0
M  V30 10301 H 984.926 1.15941 3.23129 0
M  V30 10302 N 987.371 -1.57444 0.0701946 0
M  V30 10303 C 988.619 -1.93047 -0.598106 0
M  V30 10304 C 988.94 -0.950841 -1.70247 0
M  V30 10305 O 988.21 0.00127177 -1.959 0
M  V30 10306 H 986.79 -0.712648 -0.223924 0
M  V30 10307 H 989.452 -1.94481 0.127674 0
M  V30 10308 H 988.548 -2.94807 -1.02445 0
M  V30 10309 N 988.849 0.203349 -1.56283 0
M  V30 10310 C 990.097 0.923183 -1.79782 0
M  V30 10311 C 990.418 1.84134 -0.64185 0
M  V30 10312 O 989.688 1.92922 0.340292 0
M  V30 10313 H 988.268 0.343881 -0.66314 0
M  V30 10314 H 990.93 0.210837 -1.93756 0
M  V30 10315 H 990.026 1.51921 -2.72629 0
M  V30 10316 N 990.327 1.50405 0.470755 0
M  V30 10317 C 991.604 1.51929 1.23195 0
M  V30 10318 C 991.984 0.264159 2.09441 0
M  V30 10319 O 991.332 -0.752395 2.15757 0
M  V30 10320 C 991.542 2.81521 2.06269 0
M  V30 10321 C 992.89 3.32195 2.64446 0
M  V30 10322 O 993.914 2.82845 2.16511 0
M  V30 10323 O 992.773 4.18221 3.51786 0
M  V30 10324 H 989.867 0.609411 0.559059 0
M  V30 10325 H 992.413 1.62695 0.482549 0
M  V30 10326 H 991.185 3.64346 1.42715 0
M  V30 10327 H 990.808 2.7376 2.88342 0
M  V30 10328 N 991.805 -0.723954 1.39988 0
M  V30 10329 C 993.053 -1.48078 1.3754 0
M  V30 10330 C 993.374 -1.94985 -0.0243358 0
M  V30 10331 O 992.644 -1.69764 -0.977602 0
M  V30 10332 H 991.224 -0.549354 0.506181 0
M  V30 10333 H 993.886 -0.858746 1.74962 0
M  V30 10334 H 992.982 -2.35763 2.04505 0
M  V30 10335 N 993.283 -1.25346 -0.955304 0
M  V30 10336 C 994.233 -1.02358 -2.03732 0
M  V30 10337 C 995.217 0.0392941 -1.60852 0
M  V30 10338 O 996.409 -0.175959 -1.76123 0
M  V30 10339 C 993.538 -0.643552 -3.37214 0
M  V30 10340 C 992.624 -1.74315 -3.8662 0
M  V30 10341 N 993.015 -2.97816 -4.08827 0
M  V30 10342 C 991.313 -1.62351 -4.15401 0
M  V30 10343 C 992.014 -3.69185 -4.4953 0
M  V30 10344 N 990.99 -2.96803 -4.55422 0
M  V30 10345 H 994.792 -1.96119 -2.18894 0
M  V30 10346 H 992.306 -1.15655 -1.14007 0
M  V30 10347 H 994.303 -0.460053 -4.14354 0
M  V30 10348 H 992.963 0.286738 -3.23431 0
M  V30 10349 H 993.974 -3.33868 -3.95919 0
M  V30 10350 H 990.651 -0.762133 -4.10485 0
M  V30 10351 H 992.041 -4.7519 -4.7502 0
M  V30 10352 N 994.761 1.15782 -1.06922 0
M  V30 10353 C 996.008 1.86465 -0.789752 0
M  V30 10354 C 996.336 1.82075 0.684022 0
M  V30 10355 O 995.591 1.23576 1.51748 0
M  V30 10356 C 995.89 3.35284 -1.2377 0
M  V30 10357 C 995.556 3.59871 -2.71668 0
M  V30 10358 C 994.218 3.6629 -3.12066 0
M  V30 10359 C 996.57 3.69929 -3.67154 0
M  V30 10360 C 993.898 3.80275 -4.46775 0
M  V30 10361 C 996.25 3.85436 -5.01619 0
M  V30 10362 C 994.914 3.901 -5.41644 0
M  V30 10363 H 994.184 0.682324 -0.288991 0
M  V30 10364 H 996.831 1.36861 -1.33945 0
M  V30 10365 H 995.136 3.87065 -0.607309 0
M  V30 10366 H 996.833 3.88371 -0.998431 0
M  V30 10367 H 993.423 3.55512 -2.39393 0
M  V30 10368 H 997.607 3.64274 -3.37073 0
M  V30 10369 H 992.863 3.8214 -4.77262 0
M  V30 10370 H 997.037 3.92161 -5.75485 0
M  V30 10371 H 994.664 4.00688 -6.46029 0
M  V30 10372 N 996.239 0.8527 1.3254 0
M  V30 10373 C 997.487 0.454224 1.96929 0
M  V30 10374 C 997.808 -0.993034 1.67821 0
M  V30 10375 O 997.078 -1.69371 0.984393 0
M  V30 10376 H 995.658 0.164977 0.728554 0
M  V30 10377 H 998.32 1.0887 1.61658 0
M  V30 10378 H 997.416 0.597667 3.06324 0
M  V30 10379 N 997.718 -1.45297 0.610449 0
M  V30 10380 C 998.964 -2.02518 0.106917 0
M  V30 10381 C 999.297 -1.47747 -1.26034 0
M  V30 10382 O 998.572 -0.65329 -1.832 0
M  V30 10383 C 998.855 -3.6003 0.0710975 0
M  V30 10384 C 998.708 -4.25128 1.46922 0
M  V30 10385 C 1000.03 -4.35778 -0.61524 0
M  V30 10386 H 997.146 -0.735896 0.040327 0
M  V30 10387 H 999.788 -1.73117 0.782968 0
M  V30 10388 H 997.938 -3.85209 -0.504611 0
M  V30 10389 H 999.61 -4.11125 2.09223 0
M  V30 10390 H 997.853 -3.83418 2.02911 0
M  V30 10391 H 998.524 -5.34046 1.39637 0
M  V30 10392 H 1001 -4.1591 -0.125871 0
M  V30 10393 H 999.876 -5.45506 -0.609419 0
M  V30 10394 H 1000.14 -4.08859 -1.68186 0
M  V30 10395 N 999.196 -0.349774 -1.5367 0
M  V30 10396 C 1000.43 0.245682 -2.05134 0
M  V30 10397 C 1000.83 1.44269 -1.22406 0
M  V30 10398 O 1000.18 1.81938 -0.25379 0
M  V30 10399 C 1000.24 0.718439 -3.52248 0
M  V30 10400 C 999.903 -0.35975 -4.55582 0
M  V30 10401 C 1000.9 -1.20449 -5.05755 0
M  V30 10402 C 998.585 -0.515463 -4.99648 0
M  V30 10403 C 1000.58 -2.19043 -5.98581 0
M  V30 10404 C 998.266 -1.50479 -5.92283 0
M  V30 10405 C 999.264 -2.34072 -6.41638 0
M  V30 10406 O 998.952 -3.31319 -7.3245 0
M  V30 10407 H 998.684 0.0501122 -0.67414 0
M  V30 10408 H 1001.24 -0.5018 -1.99176 0
M  V30 10409 H 999.468 1.51727 -3.55691 0
M  V30 10410 H 1001.16 1.23513 -3.86651 0
M  V30 10411 H 1001.92 -1.09531 -4.7247 0
M  V30 10412 H 997.802 0.12537 -4.60829 0
M  V30 10413 H 1001.35 -2.84327 -6.37027 0
M  V30 10414 H 997.243 -1.61451 -6.24983 0
M  V30 10415 H 998.011 -3.26863 -7.50402 0
M  V30 10416 N 1000.67 1.57404 -0.0785433 0
M  V30 10417 C 1001.62 2.14316 0.903949 0
M  V30 10418 C 1002.62 1.08176 1.30362 0
M  V30 10419 O 1003.82 1.26546 1.28008 0
M  V30 10420 H 1000.2 0.685367 0.309477 0
M  V30 10421 H 1002.17 2.95719 0.399081 0
M  V30 10422 C 1000.92 2.72504 2.15956 0
M  V30 10423 H 1000.24 3.53853 1.86087 0
M  V30 10424 H 1001.68 3.15914 2.82798 0
M  V30 10425 C 1000.14 1.6759 2.92259 0
M  V30 10426 O 1000.67 1.10492 3.86205 0
M  V30 10427 N 998.875 1.38467 2.5549 0
M  V30 10428 H 998.422 1.85088 1.79166 0
M  V30 10429 H 998.38 0.685053 3.06846 0
M  V30 10430 N 1002.15 -0.195058 1.56388 0
M  V30 10431 C 1003.11 -1.2254 1.93692 0
M  V30 10432 C 1004.11 -1.38437 0.81804 0
M  V30 10433 O 1005.3 -1.36248 1.08545 0
M  V30 10434 C 1002.44 -2.59476 2.21099 0
M  V30 10435 H 1003.63 -0.906544 2.8587 0
M  V30 10436 H 1001.18 -0.436577 1.50079 0
M  V30 10437 H 1001.92 -2.96417 1.31558 0
M  V30 10438 H 1001.7 -2.4931 3.02634 0
M  V30 10439 H 1003.19 -3.33777 2.50964 0
M  V30 10440 N 1003.63 -1.50653 -0.462772 0
M  V30 10441 C 1004.88 -1.61296 -1.21105 0
M  V30 10442 C 1005.19 -0.322757 -1.92919 0
M  V30 10443 O 1006.4 -0.308211 -2.69745 0
M  V30 10444 C 1004.85 -2.84752 -2.201 0
M  V30 10445 C 1004.46 -4.20681 -1.54051 0
M  V30 10446 C 1006.21 -3.04744 -2.95518 0
M  V30 10447 C 1004.11 -5.35314 -2.51381 0
M  V30 10448 H 1003.04 -0.60069 -0.455728 0
M  V30 10449 H 1005.69 -1.77093 -0.480656 0
M  V30 10450 H 1004.08 -2.62532 -2.96467 0
M  V30 10451 H 1005.25 -4.53187 -0.834168 0
M  V30 10452 H 1003.56 -4.06361 -0.908828 0
M  V30 10453 H 1006.16 -3.87559 -3.68378 0
M  V30 10454 H 1006.5 -2.16802 -3.55391 0
M  V30 10455 H 1007.04 -3.27185 -2.26263 0
M  V30 10456 H 1003.78 -6.25437 -1.96235 0
M  V30 10457 H 1003.3 -5.07216 -3.20144 0
M  V30 10458 H 1004.98 -5.66229 -3.1304 0
M  V30 10459 N 1005.11 0.71652 -1.4037 0
M  V30 10460 C 1006.04 1.84138 -1.36477 0
M  V30 10461 C 1007.05 1.6054 -0.27033 0
M  V30 10462 O 1008.24 1.70431 -0.530612 0
M  V30 10463 C 1005.34 3.20523 -1.10082 0
M  V30 10464 C 1004.52 3.71326 -2.31162 0
M  V30 10465 C 1003.57 4.86322 -2.00942 0
M  V30 10466 O 1002.6 4.99022 -2.73799 0
M  V30 10467 N 1003.8 5.72051 -0.986812 0
M  V30 10468 H 1006.57 1.87977 -2.3342 0
M  V30 10469 H 1004.13 0.89802 -1.34712 0
M  V30 10470 H 1006.12 3.95049 -0.878526 0
M  V30 10471 H 1004.69 3.11838 -0.21809 0
M  V30 10472 H 1003.91 2.87941 -2.69227 0
M  V30 10473 H 1005.2 4.02003 -3.11883 0
M  V30 10474 H 1004.6 5.64399 -0.383381 0
M  V30 10475 H 1003.15 6.46565 -0.824419 0
M  V30 10476 N 1006.59 1.25851 0.948643 0
M  V30 10477 C 1007.81 1.13813 1.73382 0
M  V30 10478 C 1008.24 -0.303615 1.85633 0
M  V30 10479 O 1007.59 -1.21997 1.34114 0
M  V30 10480 C 1007.64 1.80388 3.12238 0
M  V30 10481 O 1006.75 1.08759 3.978 0
M  V30 10482 H 1006.09 0.397006 0.532243 0
M  V30 10483 H 1008.62 1.66529 1.18866 0
M  V30 10484 H 1008.63 1.86913 3.62667 0
M  V30 10485 H 1007.3 2.85278 3.02637 0
M  V30 10486 H 1005.88 1.10157 3.56258 0
M  V30 10487 N 1008.06 -1.15214 1.07534 0
M  V30 10488 C 1009.31 -1.86319 0.800814 0
M  V30 10489 C 1009.64 -1.82221 -0.671494 0
M  V30 10490 O 1008.92 -1.24664 -1.49295 0
M  V30 10491 C 1009.2 -3.35347 1.31203 0
M  V30 10492 C 1009.05 -3.48067 2.84902 0
M  V30 10493 C 1010.37 -4.3016 0.930064 0
M  V30 10494 H 1007.49 -0.676523 0.292379 0
M  V30 10495 H 1010.13 -1.35349 1.33344 0
M  V30 10496 H 1008.28 -3.78886 0.858949 0
M  V30 10497 H 1009.96 -3.13379 3.38514 0
M  V30 10498 H 1008.2 -2.89566 3.23008 0
M  V30 10499 H 1008.87 -4.52782 3.15741 0
M  V30 10500 H 1011.35 -3.94591 1.3205 0
M  V30 10501 H 1010.22 -5.32914 1.31507 0
M  V30 10502 H 1010.48 -4.41796 -0.163824 0
M  V30 10503 N 1009.54 -0.859717 -1.32086 0
M  V30 10504 C 1010.96 -0.55025 -1.49815 0
M  V30 10505 C 1011.16 0.917966 -1.79376 0
M  V30 10506 O 1010.21 1.70073 -1.86632 0
M  V30 10507 C 1011.53 -1.44161 -2.6389 0
M  V30 10508 C 1013.08 -1.44257 -2.77775 0
M  V30 10509 C 1013.55 -2.31926 -3.94936 0
M  V30 10510 N 1015.04 -2.2975 -4.02206 0
M  V30 10511 C 1015.78 -2.9431 -4.92107 0
M  V30 10512 N 1015.27 -3.68001 -5.86981 0
M  V30 10513 N 1017.07 -2.83671 -4.8527 0
M  V30 10514 H 1009.22 -1.80987 -1.11164 0
M  V30 10515 H 1011.48 -0.773313 -0.548353 0
M  V30 10516 H 1011.19 -2.48588 -2.4879 0
M  V30 10517 H 1011.06 -1.13268 -3.59792 0
M  V30 10518 H 1013.45 -0.405923 -2.92295 0
M  V30 10519 H 1013.53 -1.79169 -1.82571 0
M  V30 10520 H 1013.17 -3.35661 -3.81174 0
M  V30 10521 H 1013.1 -1.94344 -4.89426 0
M  V30 10522 H 1015.59 -1.76177 -3.3432 0
M  V30 10523 H 1015.91 -4.14417 -6.52287 0
M  V30 10524 H 1014.25 -3.72109 -5.86992 0
M  V30 10525 H 1017.44 -2.25647 -4.10123 0
M  V30 10526 H 1017.61 -3.34267 -5.5513 0
M  V30 10527 N 1011.02 1.44971 -0.618145 0
M  V30 10528 C 1011.97 2.30606 0.09449 0
M  V30 10529 C 1012.94 1.42725 0.849633 0
M  V30 10530 O 1014.12 1.71643 0.833266 0
M  V30 10531 C 1011.26 3.27803 1.07886 0
M  V30 10532 C 1010.38 4.30787 0.323488 0
M  V30 10533 C 1009.51 5.15085 1.29851 0
M  V30 10534 C 1008.55 6.09788 0.531561 0
M  V30 10535 N 1007.69 6.86829 1.4564 0
M  V30 10536 H 1012.53 2.91008 -0.641738 0
M  V30 10537 H 1010.06 1.43391 -0.328259 0
M  V30 10538 H 1012.02 3.82631 1.66281 0
M  V30 10539 H 1010.65 2.69131 1.78237 0
M  V30 10540 H 1009.7 3.78536 -0.376164 0
M  V30 10541 H 1011.02 4.98044 -0.274443 0
M  V30 10542 H 1010.17 5.74365 1.95421 0
M  V30 10543 H 1008.91 4.4787 1.93037 0
M  V30 10544 H 1007.91 5.49628 -0.137702 0
M  V30 10545 H 1009.14 6.79033 -0.0953993 0
M  V30 10546 H 1007.08 6.22295 2.07571 0
M  V30 10547 H 1007 7.50477 0.912167 0
M  V30 10548 H 1008.27 7.50642 2.10134 0
M  V30 10549 N 1012.5 0.357919 1.53482 0
M  V30 10550 C 1013.75 -0.2337 2.00744 0
M  V30 10551 C 1014.07 -1.49908 1.2471 0
M  V30 10552 O 1013.34 -1.92597 0.358235 0
M  V30 10553 H 1011.92 -0.0893474 0.741637 0
M  V30 10554 H 1014.58 0.482388 1.88836 0
M  V30 10555 H 1013.68 -0.466073 3.086 0
M  V30 10556 N 1013.98 -1.5736 0.0868897 0
M  V30 10557 C 1015.25 -1.85495 -0.620561 0
M  V30 10558 C 1015.63 -0.982218 -1.86857 0
M  V30 10559 O 1014.98 -0.0524529 -2.2844 0
M  V30 10560 C 1015.19 -3.35996 -0.943798 0
M  V30 10561 C 1016.54 -4.03861 -1.31079 0
M  V30 10562 O 1017.56 -3.4083 -1.03507 0
M  V30 10563 O 1016.42 -5.15062 -1.82683 0
M  V30 10564 H 1013.52 -0.766822 -0.309697 0
M  V30 10565 H 1016.06 -1.69282 0.118966 0
M  V30 10566 H 1014.83 -3.91257 -0.0580628 0
M  V30 10567 H 1014.46 -3.57525 -1.73958 0
M  V30 10568 N 1015.45 0.186762 -1.56489 0
M  V30 10569 C 1016.4 1.2357 -1.9161 0
M  V30 10570 C 1017.39 1.4058 -0.782686 0
M  V30 10571 O 1018.58 1.42811 -1.04566 0
M  V30 10572 C 1015.71 2.57865 -2.26628 0
M  V30 10573 C 1014.8 2.44613 -3.46447 0
M  V30 10574 N 1015.19 2.01052 -4.64125 0
M  V30 10575 C 1013.48 2.75483 -3.50749 0
M  V30 10576 C 1014.19 1.99891 -5.46277 0
M  V30 10577 N 1013.16 2.41711 -4.86905 0
M  V30 10578 H 1016.96 0.890359 -2.80089 0
M  V30 10579 H 1014.48 0.395144 -1.57519 0
M  V30 10580 H 1016.47 3.33642 -2.49977 0
M  V30 10581 H 1015.13 2.93215 -1.39481 0
M  V30 10582 H 1016.15 1.7163 -4.88634 0
M  V30 10583 H 1012.82 3.14974 -2.7404 0
M  V30 10584 H 1014.21 1.68042 -6.50547 0
M  V30 10585 N 1016.93 1.50896 0.454776 0
M  V30 10586 C 1017.86 1.73885 1.5584 0
M  V30 10587 C 1018.84 0.588172 1.59607 0
M  V30 10588 O 1020.03 0.829054 1.75614 0
M  V30 10589 C 1017.16 1.84796 2.94054 0
M  V30 10590 C 1016.11 3.00111 3.05152 0
M  V30 10591 C 1015.44 2.96183 4.45174 0
M  V30 10592 C 1016.74 4.40365 2.80849 0
M  V30 10593 H 1018.43 2.66292 1.36854 0
M  V30 10594 H 1015.98 1.28142 0.656936 0
M  V30 10595 H 1017.93 1.99462 3.71204 0
M  V30 10596 H 1016.66 0.890235 3.14233 0
M  V30 10597 H 1015.31 2.85121 2.30438 0
M  V30 10598 H 1014.96 1.98224 4.62295 0
M  V30 10599 H 1014.66 3.73608 4.53532 0
M  V30 10600 H 1016.19 3.1292 5.24322 0
M  V30 10601 H 1017.6 4.55795 3.47741 0
M  V30 10602 H 1016 5.19363 3.00636 0
M  V30 10603 H 1017.07 4.51606 1.76579 0
M  V30 10604 N 1018.41 -0.709066 1.40748 0
M  V30 10605 C 1019.32 -1.85314 1.43861 0
M  V30 10606 C 1020.34 -1.70832 0.330539 0
M  V30 10607 O 1021.51 -1.92983 0.576152 0
M  V30 10608 C 1018.58 -3.21174 1.30568 0
M  V30 10609 C 1017.64 -3.47863 2.51574 0
M  V30 10610 C 1016.87 -4.77241 2.38906 0
M  V30 10611 O 1017.09 -5.52791 1.40636 0
M  V30 10612 O 1016.03 -5.04413 3.28407 0
M  V30 10613 H 1019.85 -1.85644 2.40354 0
M  V30 10614 H 1017.44 -0.860352 1.2214 0
M  V30 10615 H 1019.32 -4.02313 1.25388 0
M  V30 10616 H 1018 -3.21557 0.371841 0
M  V30 10617 H 1016.9 -2.66708 2.62331 0
M  V30 10618 H 1018.24 -3.52283 3.43741 0
M  V30 10619 N 1019.89 -1.26353 -0.941956 0
M  V30 10620 C 1021.14 -1.12017 -1.69056 0
M  V30 10621 C 1021.47 0.335856 -1.91274 0
M  V30 10622 O 1020.74 1.24677 -1.49285 0
M  V30 10623 C 1021.03 -1.88889 -3.06583 0
M  V30 10624 C 1020.88 -3.42394 -2.91696 0
M  V30 10625 C 1022.2 -1.68209 -4.06686 0
M  V30 10626 H 1019.32 -0.408311 -0.613556 0
M  V30 10627 H 1021.96 -1.55339 -1.09407 0
M  V30 10628 H 1020.11 -1.5207 -3.57501 0
M  V30 10629 H 1021.78 -3.88962 -2.48005 0
M  V30 10630 H 1020.02 -3.69459 -2.27338 0
M  V30 10631 H 1020.7 -3.91408 -3.89235 0
M  V30 10632 H 1023.17 -2.00286 -3.64726 0
M  V30 10633 H 1022.05 -2.24412 -5.00929 0
M  V30 10634 H 1022.31 -0.626474 -4.37639 0
M  V30 10635 N 1021.37 1.14642 -1.08144 0
M  V30 10636 C 1022.61 1.85892 -0.810683 0
M  V30 10637 C 1022.95 1.82575 0.661821 0
M  V30 10638 O 1022.22 1.25454 1.48632 0
M  V30 10639 C 1022.5 3.34647 -1.32979 0
M  V30 10640 C 1022.36 3.46551 -2.86744 0
M  V30 10641 C 1023.68 4.29661 -0.952864 0
M  V30 10642 H 1020.8 0.674963 -0.295963 0
M  V30 10643 H 1023.44 1.3464 -1.3406 0
M  V30 10644 H 1021.59 3.78425 -0.87903 0
M  V30 10645 H 1023.26 3.11579 -3.40171 0
M  V30 10646 H 1021.5 2.87849 -3.24539 0
M  V30 10647 H 1022.17 4.51101 -3.18138 0
M  V30 10648 H 1024.65 3.93885 -1.34141 0
M  V30 10649 H 1023.53 5.32209 -1.34331 0
M  V30 10650 H 1023.79 4.41877 0.140392 0
M  V30 10651 N 1022.85 0.866709 1.31628 0
M  V30 10652 C 1024.09 0.475086 1.96437 0
M  V30 10653 C 1024.41 -0.975179 1.68865 0
M  V30 10654 O 1023.68 -1.68317 1.0023 0
M  V30 10655 H 1022.26 0.172695 0.726764 0
M  V30 10656 H 1024.93 1.10578 1.60494 0
M  V30 10657 H 1024.02 0.630123 3.05673 0
M  V30 10658 N 1024.32 -1.44642 0.625825 0
M  V30 10659 C 1025.57 -2.01695 0.127948 0
M  V30 10660 C 1025.89 -1.49439 -1.25271 0
M  V30 10661 O 1025.16 -0.695873 -1.83124 0
M  V30 10662 H 1023.74 -0.745685 0.0443096 0
M  V30 10663 H 1026.4 -1.7721 0.811332 0
M  V30 10664 H 1025.5 -3.11966 0.0915933 0
M  V30 10665 N 1025.8 -0.366053 -1.5329 0
M  V30 10666 C 1027.03 0.224236 -2.05681 0
M  V30 10667 C 1027.44 1.42412 -1.23952 0
M  V30 10668 O 1026.8 1.80334 -0.280309 0
M  V30 10669 C 1026.85 0.617266 -3.56191 0
M  V30 10670 O 1026.57 -0.534931 -4.34822 0
M  V30 10671 C 1028.07 1.26589 -4.24841 0
M  V30 10672 H 1025.29 0.0392928 -0.669849 0
M  V30 10673 H 1027.84 -0.52456 -1.97658 0
M  V30 10674 H 1025.99 1.31598 -3.64364 0
M  V30 10675 H 1026.41 -0.217123 -5.2405 0
M  V30 10676 H 1027.88 1.49146 -5.31469 0
M  V30 10677 H 1028.36 2.22633 -3.78591 0
M  V30 10678 H 1028.96 0.6086 -4.20923 0
M  V30 10679 N 1027.28 1.57312 -0.0952337 0
M  V30 10680 C 1028.5 1.99119 0.580206 0
M  V30 10681 C 1028.93 0.973955 1.60922 0
M  V30 10682 O 1028.29 -0.0575338 1.81209 0
M  V30 10683 C 1028.34 3.39893 1.20438 0
M  V30 10684 O 1027.44 3.40941 2.32019 0
M  V30 10685 H 1026.78 0.64748 0.147195 0
M  V30 10686 H 1029.31 2.03836 -0.176686 0
M  V30 10687 H 1029.32 3.7759 1.54564 0
M  V30 10688 H 1028 4.13453 0.450514 0
M  V30 10689 H 1026.57 3.1504 1.9951 0
M  V30 10690 N 1028.76 -0.17846 1.56586 0
M  V30 10691 C 1029.99 -0.910674 1.85446 0
M  V30 10692 C 1030.4 -1.76647 0.677675 0
M  V30 10693 O 1029.74 -1.80086 -0.362584 0
M  V30 10694 C 1029.8 -1.84363 3.08627 0
M  V30 10695 C 1029.46 -1.16814 4.41818 0
M  V30 10696 C 1030.46 -0.53703 5.17119 0
M  V30 10697 C 1028.15 -1.16703 4.88555 0
M  V30 10698 C 1030.14 0.0861778 6.37342 0
M  V30 10699 C 1027.83 -0.539992 6.0871 0
M  V30 10700 C 1028.83 0.0855135 6.82946 0
M  V30 10701 O 1028.51 0.70268 8.00823 0
M  V30 10702 H 1028.25 -0.270377 0.619574 0
M  V30 10703 H 1030.8 -0.185591 2.0456 0
M  V30 10704 H 1029.03 -2.60884 2.85441 0
M  V30 10705 H 1030.72 -2.44506 3.23993 0
M  V30 10706 H 1031.48 -0.529915 4.82096 0
M  V30 10707 H 1027.36 -1.64329 4.30717 0
M  V30 10708 H 1030.91 0.575011 6.95226 0
M  V30 10709 H 1026.8 -0.544666 6.43198 0
M  V30 10710 H 1027.57 0.601224 8.16289 0
M  V30 10711 N 1030.24 -1.51135 -0.446768 0
M  V30 10712 C 1031.48 -1.62571 -1.19388 0
M  V30 10713 C 1031.8 -0.3432 -1.92566 0
M  V30 10714 O 1033 -0.336804 -2.69403 0
M  V30 10715 C 1031.46 -2.87071 -2.17068 0
M  V30 10716 C 1031.07 -4.22291 -1.49581 0
M  V30 10717 C 1032.81 -3.07862 -2.9227 0
M  V30 10718 C 1030.72 -5.3795 -2.45689 0
M  V30 10719 H 1029.65 -0.60549 -0.449331 0
M  V30 10720 H 1032.3 -1.77593 -0.461846 0
M  V30 10721 H 1030.68 -2.65662 -2.93666 0
M  V30 10722 H 1031.86 -4.54046 -0.786054 0
M  V30 10723 H 1030.17 -4.07302 -0.865677 0
M  V30 10724 H 1032.77 -3.91444 -3.64246 0
M  V30 10725 H 1033.11 -2.20559 -3.53072 0
M  V30 10726 H 1033.64 -3.29566 -2.2278 0
M  V30 10727 H 1030.38 -6.27484 -1.89591 0
M  V30 10728 H 1029.9 -5.10583 -3.14746 0
M  V30 10729 H 1031.58 -5.69517 -3.07017 0
M  V30 10730 N 1031.71 0.701592 -1.41122 0
M  V30 10731 C 1032.65 1.8268 -1.38422 0
M  V30 10732 C 1033.66 1.60244 -0.287342 0
M  V30 10733 O 1034.85 1.69859 -0.548658 0
M  V30 10734 C 1031.95 3.19338 -1.13475 0
M  V30 10735 C 1031.12 3.68853 -2.35088 0
M  V30 10736 C 1030.18 4.84163 -2.06089 0
M  V30 10737 O 1029.21 4.9609 -2.79077 0
M  V30 10738 N 1030.41 5.70972 -1.04743 0
M  V30 10739 H 1033.17 1.8549 -2.35401 0
M  V30 10740 H 1030.73 0.883682 -1.35656 0
M  V30 10741 H 1032.73 3.94095 -0.920377 0
M  V30 10742 H 1031.3 3.11589 -0.251152 0
M  V30 10743 H 1030.52 2.8507 -2.72266 0
M  V30 10744 H 1031.8 3.98673 -3.16129 0
M  V30 10745 H 1031.2 5.63961 -0.443221 0
M  V30 10746 H 1029.76 6.45654 -0.892949 0
M  V30 10747 N 1033.19 1.2685 0.935242 0
M  V30 10748 C 1034.12 1.1143 2.05196 0
M  V30 10749 C 1035.1 0.0178362 1.70091 0
M  V30 10750 O 1036.29 0.190951 1.93259 0
M  V30 10751 C 1033.42 0.752779 3.39044 0
M  V30 10752 C 1032.37 1.80164 3.88233 0
M  V30 10753 C 1031.7 1.29428 5.18799 0
M  V30 10754 C 1033 3.20431 4.12457 0
M  V30 10755 H 1034.69 2.04845 2.18355 0
M  V30 10756 H 1032.24 0.986276 1.04922 0
M  V30 10757 H 1034.19 0.631757 4.16637 0
M  V30 10758 H 1032.91 -0.217075 3.25878 0
M  V30 10759 H 1031.57 1.91144 3.12825 0
M  V30 10760 H 1031.22 0.3141 5.02018 0
M  V30 10761 H 1030.92 1.99546 5.5268 0
M  V30 10762 H 1032.45 1.18605 5.9897 0
M  V30 10763 H 1033.86 3.12495 4.80645 0
M  V30 10764 H 1032.26 3.88193 4.57631 0
M  V30 10765 H 1033.33 3.66046 3.18023 0
M  V30 10766 N 1034.67 -1.14067 1.0875 0
M  V30 10767 C 1035.92 -1.85459 0.82053 0
M  V30 10768 C 1036.25 -1.82923 -0.65213 0
M  V30 10769 O 1035.52 -1.26241 -1.47965 0
M  V30 10770 C 1035.81 -3.33937 1.34752 0
M  V30 10771 C 1035.66 -3.45026 2.88578 0
M  V30 10772 C 1036.98 -4.2915 0.975636 0
M  V30 10773 H 1034.1 -0.673384 0.299538 0
M  V30 10774 H 1036.74 -1.33927 1.34772 0
M  V30 10775 H 1034.89 -3.77953 0.899086 0
M  V30 10776 H 1036.56 -3.09771 3.41818 0
M  V30 10777 H 1034.81 -2.86124 3.26061 0
M  V30 10778 H 1035.48 -4.49408 3.20526 0
M  V30 10779 H 1037.95 -3.93168 1.36228 0
M  V30 10780 H 1036.83 -5.31489 1.37152 0
M  V30 10781 H 1037.09 -4.41945 -0.116956 0
M  V30 10782 N 1036.15 -0.873678 -1.31166 0
M  V30 10783 C 1037.38 -0.501043 -2.00742 0
M  V30 10784 C 1037.79 0.907477 -1.65561 0
M  V30 10785 O 1037.15 1.59507 -0.886771 0
M  V30 10786 C 1037.2 -0.652877 -3.55556 0
M  V30 10787 O 1036.92 -2.00593 -3.89479 0
M  V30 10788 C 1038.42 -0.281742 -4.42404 0
M  V30 10789 H 1035.64 -0.194829 -0.642092 0
M  V30 10790 H 1038.19 -1.17587 -1.67313 0
M  V30 10791 H 1036.34 -0.0255627 -3.87392 0
M  V30 10792 H 1036.75 -2.01638 -4.84193 0
M  V30 10793 H 1038.23 -0.43892 -5.50252 0
M  V30 10794 H 1038.71 0.779389 -4.32229 0
M  V30 10795 H 1039.31 -0.88491 -4.15992 0
M  V30 10796 N 1037.63 1.44308 -0.633487 0
M  V30 10797 C 1038.87 2.02023 -0.138917 0
M  V30 10798 C 1039.2 1.49841 1.24008 0
M  V30 10799 O 1038.46 0.673718 1.83738 0
M  V30 10800 C 1038.76 3.57316 -0.0773886 0
M  V30 10801 C 1038.42 4.28762 -1.39548 0
M  V30 10802 C 1037.08 4.47997 -1.75648 0
M  V30 10803 C 1039.44 4.69391 -2.26542 0
M  V30 10804 C 1036.76 5.05121 -2.98445 0
M  V30 10805 C 1039.12 5.27876 -3.48612 0
M  V30 10806 C 1037.78 5.45329 -3.84932 0
M  V30 10807 H 1037.05 0.739254 -0.0508333 0
M  V30 10808 H 1039.7 1.73043 -0.820271 0
M  V30 10809 H 1038 3.85724 0.687345 0
M  V30 10810 H 1039.7 3.99706 0.321837 0
M  V30 10811 H 1036.29 4.14122 -1.10456 0
M  V30 10812 H 1040.47 4.54241 -1.99946 0
M  V30 10813 H 1035.73 5.16821 -3.26658 0
M  V30 10814 H 1039.9 5.58307 -4.16253 0
M  V30 10815 H 1037.53 5.8936 -4.80166 0
M  V30 10816 N 1039.1 0.374177 1.53094 0
M  V30 10817 C 1040.52 -0.103172 1.86415 0
M  V30 10818 C 1040.87 -1.47439 1.29446 0
M  V30 10819 O 1039.99 -2.07333 0.619853 0
M  V30 10820 C 1040.59 -0.193988 3.38244 0
M  V30 10821 C 1039.15 -0.615605 3.71332 0
M  V30 10822 C 1038.29 0.23186 2.76329 0
M  V30 10823 H 1041.24 0.592644 1.47219 0
M  V30 10824 H 1041.26 -1.01597 3.66686 0
M  V30 10825 H 1040.78 0.80414 3.79678 0
M  V30 10826 H 1038.88 -1.62165 3.3546 0
M  V30 10827 H 1038.99 -0.38425 4.77557 0
M  V30 10828 H 1037.35 -0.300579 2.5292 0
M  V30 10829 H 1038.14 1.22769 3.20597 0
M  V30 10830 N 1040.58 -1.57259 0.103575 0
M  V30 10831 C 1041.49 -2.18018 -0.866327 0
M  V30 10832 C 1042.51 -1.15198 -1.30404 0
M  V30 10833 O 1043.68 -1.47605 -1.37021 0
M  V30 10834 C 1040.75 -2.75533 -2.10434 0
M  V30 10835 C 1039.81 -3.93337 -1.72002 0
M  V30 10836 C 1039.04 -4.481 -2.89901 0
M  V30 10837 O 1039.27 -4.01784 -4.04877 0
M  V30 10838 O 1038.2 -5.39004 -2.67877 0
M  V30 10839 H 1042.03 -3.01322 -0.379338 0
M  V30 10840 H 1039.61 -1.48907 -0.121228 0
M  V30 10841 H 1041.49 -3.12259 -2.8297 0
M  V30 10842 H 1040.17 -1.9527 -2.58169 0
M  V30 10843 H 1039.08 -3.61408 -0.966193 0
M  V30 10844 H 1040.41 -4.74989 -1.29022 0
M  V30 10845 N 1042.06 0.170153 -1.56679 0
M  V30 10846 C 1042.97 1.23057 -1.99735 0
M  V30 10847 C 1043.99 1.48374 -0.908912 0
M  V30 10848 O 1045.16 1.60499 -1.21663 0
M  V30 10849 C 1042.23 2.54944 -2.34956 0
M  V30 10850 C 1041.29 2.3748 -3.57634 0
M  V30 10851 C 1040.52 3.63078 -3.91165 0
M  V30 10852 O 1040.74 4.68304 -3.2565 0
M  V30 10853 O 1039.68 3.57119 -4.8451 0
M  V30 10854 H 1043.5 0.895104 -2.9021 0
M  V30 10855 H 1041.09 0.377109 -1.44562 0
M  V30 10856 H 1042.97 3.32742 -2.58574 0
M  V30 10857 H 1041.65 2.88068 -1.47643 0
M  V30 10858 H 1040.55 1.57709 -3.39232 0
M  V30 10859 H 1041.89 2.0928 -4.45491 0
M  V30 10860 N 1043.54 1.5137 0.438746 0
M  V30 10861 C 1044.79 1.63645 1.18595 0
M  V30 10862 C 1045.11 0.354241 1.91755 0
M  V30 10863 O 1044.38 -0.629838 1.85499 0
M  V30 10864 H 1042.96 0.603103 0.440767 0
M  V30 10865 H 1045.62 1.88293 0.503159 0
M  V30 10866 H 1044.72 2.46342 1.9163 0
M  V30 10867 N 1045.02 -0.694098 1.41492 0
M  V30 10868 C 1046.43 -1.27407 1.36471 0
M  V30 10869 C 1046.78 -1.9614 0.0485209 0
M  V30 10870 O 1045.9 -1.98871 -0.853188 0
M  V30 10871 C 1046.5 -2.31698 2.47188 0
M  V30 10872 C 1045.06 -2.85268 2.45559 0
M  V30 10873 C 1044.2 -1.59325 2.2696 0
M  V30 10874 H 1047.16 -0.488756 1.50986 0
M  V30 10875 H 1047.18 -3.1302 2.1633 0
M  V30 10876 H 1046.69 -1.81644 3.42968 0
M  V30 10877 H 1044.79 -3.39494 1.5354 0
M  V30 10878 H 1044.9 -3.35598 3.41922 0
M  V30 10879 H 1043.27 -1.85188 1.74864 0
M  V30 10880 H 1044.05 -1.11265 3.24769 0
M  V30 10881 N 1046.49 -1.27344 -0.928501 0
M  V30 10882 C 1047.44 -1.10001 -2.029 0
M  V30 10883 C 1048.41 -0.00131084 -1.661 0
M  V30 10884 O 1049.6 -0.163485 -1.90098 0
M  V30 10885 C 1046.74 -0.7524 -3.36798 0
M  V30 10886 C 1045.85 -1.92865 -3.86558 0
M  V30 10887 C 1044.98 -1.52299 -5.08899 0
M  V30 10888 C 1044.02 -2.66677 -5.50953 0
M  V30 10889 N 1043.16 -2.26706 -6.64491 0
M  V30 10890 H 1048 -2.0417 -2.17068 0
M  V30 10891 H 1045.54 -1.01637 -1.0634 0
M  V30 10892 H 1047.5 -0.531687 -4.13798 0
M  V30 10893 H 1046.13 0.15234 -3.2244 0
M  V30 10894 H 1045.18 -2.26192 -3.05845 0
M  V30 10895 H 1046.49 -2.78668 -4.13698 0
M  V30 10896 H 1045.64 -1.26348 -5.93398 0
M  V30 10897 H 1044.38 -0.636042 -4.83535 0
M  V30 10898 H 1043.39 -2.93344 -4.65004 0
M  V30 10899 H 1044.61 -3.55992 -5.78313 0
M  V30 10900 H 1042.56 -1.40462 -6.40786 0
M  V30 10901 H 1042.48 -3.06049 -6.91281 0
M  V30 10902 H 1043.74 -2.04 -7.52333 0
M  V30 10903 N 1047.97 1.13488 -1.09353 0
M  V30 10904 C 1048.94 2.17066 -0.735863 0
M  V30 10905 C 1049.94 1.59086 0.234181 0
M  V30 10906 O 1051.13 1.74196 0.012463 0
M  V30 10907 C 1048.26 3.40786 -0.0880975 0
M  V30 10908 H 1049.45 2.50221 -1.65316 0
M  V30 10909 H 1047 1.28304 -0.89263 0
M  V30 10910 H 1047.74 3.1322 0.840462 0
M  V30 10911 H 1047.52 3.8414 -0.786073 0
M  V30 10912 H 1049.01 4.17342 0.146775 0
M  V30 10913 N 1049.45 0.880621 1.30701 0
M  V30 10914 C 1050.87 0.574015 1.4892 0
M  V30 10915 C 1051.07 -0.889312 1.80813 0
M  V30 10916 O 1050.12 -1.67082 1.89314 0
M  V30 10917 C 1051.44 1.48341 2.61563 0
M  V30 10918 C 1052.98 1.48658 2.75445 0
M  V30 10919 C 1053.46 2.3818 3.91196 0
M  V30 10920 N 1054.95 2.36119 3.985 0
M  V30 10921 C 1055.69 3.02101 4.87363 0
M  V30 10922 N 1055.18 3.77293 5.81052 0
M  V30 10923 N 1056.97 2.91356 4.80696 0
M  V30 10924 H 1049.13 1.82732 1.08271 0
M  V30 10925 H 1051.39 0.781939 0.535981 0
M  V30 10926 H 1051.09 2.52515 2.44804 0
M  V30 10927 H 1050.97 1.18977 3.57944 0
M  V30 10928 H 1053.36 0.452374 2.91612 0
M  V30 10929 H 1053.44 1.8205 1.79698 0
M  V30 10930 H 1053.08 3.41683 3.75786 0
M  V30 10931 H 1053.01 2.02106 4.86272 0
M  V30 10932 H 1055.5 1.81474 3.31475 0
M  V30 10933 H 1055.81 4.24742 6.45612 0
M  V30 10934 H 1054.16 3.81401 5.80998 0
M  V30 10935 H 1057.35 2.32143 4.06481 0
M  V30 10936 H 1057.52 3.43056 5.49742 0
M  V30 10937 N 1050.93 -1.4397 0.641131 0
M  V30 10938 C 1052.18 -2.01548 0.149333 0
M  V30 10939 C 1052.5 -1.50759 -1.23679 0
M  V30 10940 O 1051.77 -0.715257 -1.82376 0
M  V30 10941 H 1050.35 -0.745173 0.0522161 0
M  V30 10942 H 1053.01 -1.7634 0.830082 0
M  V30 10943 H 1052.11 -3.11851 0.124676 0
M  V30 10944 N 1052.41 -0.382291 -1.52893 0
M  V30 10945 C 1053.34 0.447829 -2.29165 0
M  V30 10946 C 1054.32 1.06956 -1.32267 0
M  V30 10947 O 1055.5 1.08365 -1.61154 0
M  V30 10948 C 1052.63 1.57902 -3.09329 0
M  V30 10949 C 1051.59 1.08369 -4.14053 0
M  V30 10950 C 1050.91 2.30641 -4.82399 0
M  V30 10951 C 1052.21 0.156591 -5.22065 0
M  V30 10952 H 1053.91 -0.188541 -2.98806 0
M  V30 10953 H 1051.45 -0.0921179 -1.43705 0
M  V30 10954 H 1053.41 2.16652 -3.61442 0
M  V30 10955 H 1052.13 2.24287 -2.37409 0
M  V30 10956 H 1050.79 0.518772 -3.62911 0
M  V30 10957 H 1050.44 2.9552 -4.07034 0
M  V30 10958 H 1050.14 1.98163 -5.53177 0
M  V30 10959 H 1051.66 2.90047 -5.37313 0
M  V30 10960 H 1053.08 0.652065 -5.6958 0
M  V30 10961 H 1051.47 -0.0780978 -6.00049 0
M  V30 10962 H 1052.54 -0.796529 -4.78313 0
M  V30 10963 N 1053.89 1.57202 -0.111913 0
M  V30 10964 C 1054.82 2.17957 0.837683 0
M  V30 10965 C 1055.8 1.1176 1.28233 0
M  V30 10966 O 1056.98 1.39967 1.34621 0
M  V30 10967 C 1054.11 2.77333 2.09054 0
M  V30 10968 C 1053.07 3.8905 1.78393 0
M  V30 10969 C 1052.39 4.35203 3.10649 0
M  V30 10970 C 1053.69 5.11477 1.05775 0
M  V30 10971 H 1055.39 2.9756 0.331441 0
M  V30 10972 H 1052.93 1.43131 0.157979 0
M  V30 10973 H 1054.88 3.18492 2.75936 0
M  V30 10974 H 1053.61 1.95009 2.6199 0
M  V30 10975 H 1052.27 3.48456 1.13903 0
M  V30 10976 H 1051.92 3.49747 3.61506 0
M  V30 10977 H 1051.62 5.10534 2.9091 0
M  V30 10978 H 1053.14 4.79007 3.78661 0
M  V30 10979 H 1054.55 5.497 1.62798 0
M  V30 10980 H 1052.95 5.92346 0.961573 0
M  V30 10981 H 1054.02 4.84881 0.043297 0
M  V30 10982 N 1055.36 -0.161842 1.56767 0
M  V30 10983 C 1056.33 -1.18404 1.96247 0
M  V30 10984 C 1057.33 -1.3667 0.84722 0
M  V30 10985 O 1058.52 -1.33915 1.11411 0
M  V30 10986 C 1055.65 -2.54728 2.26553 0
M  V30 10987 H 1056.84 -0.845703 2.87729 0
M  V30 10988 H 1054.39 -0.404645 1.50971 0
M  V30 10989 H 1055.13 -2.93559 1.37816 0
M  V30 10990 H 1054.91 -2.42834 3.07854 0
M  V30 10991 H 1056.4 -3.28378 2.57987 0
M  V30 10992 N 1056.84 -1.516 -0.430713 0
M  V30 10993 C 1058.09 -1.64596 -1.17959 0
M  V30 10994 C 1058.42 -0.365382 -1.91037 0
M  V30 10995 O 1057.67 0.650826 -1.84561 0
M  V30 10996 C 1057.97 -2.804 -2.21609 0
M  V30 10997 C 1057.64 -4.19431 -1.65495 0
M  V30 10998 C 1056.3 -4.57252 -1.49915 0
M  V30 10999 C 1058.65 -5.0616 -1.24304 0
M  V30 11000 C 1055.98 -5.79501 -0.916276 0
M  V30 11001 C 1058.33 -6.28995 -0.674437 0
M  V30 11002 C 1056.99 -6.65582 -0.505591 0
M  V30 11003 H 1056.26 -0.602301 -0.431642 0
M  V30 11004 H 1058.91 -1.8565 -0.469726 0
M  V30 11005 H 1057.22 -2.53595 -2.98658 0
M  V30 11006 H 1058.91 -2.87654 -2.79385 0
M  V30 11007 H 1055.5 -3.89615 -1.78599 0
M  V30 11008 H 1059.69 -4.77541 -1.35159 0
M  V30 11009 H 1054.94 -6.0649 -0.77328 0
M  V30 11010 H 1059.12 -6.95536 -0.346779 0
M  V30 11011 H 1056.74 -7.60182 -0.0518188 0
M  V30 11012 N 1058.32 0.686584 -1.41858 0
M  V30 11013 C 1059.54 1.4802 -1.45275 0
M  V30 11014 C 1059.97 1.87997 -0.0621297 0
M  V30 11015 O 1059.33 1.55226 0.936733 0
M  V30 11016 C 1059.38 2.7133 -2.37513 0
M  V30 11017 O 1058.48 3.69159 -1.83836 0
M  V30 11018 H 1057.82 0.445152 -0.492682 0
M  V30 11019 H 1060.35 0.843161 -1.86419 0
M  V30 11020 H 1060.36 3.19537 -2.53693 0
M  V30 11021 H 1059.04 2.41571 -3.3855 0
M  V30 11022 H 1057.61 3.28134 -1.77151 0
M  V30 11023 N 1059.8 1.27835 0.921735 0
M  V30 11024 C 1060.73 1.06874 2.02758 0
M  V30 11025 C 1061.74 0.0229418 1.62784 0
M  V30 11026 O 1062.93 0.265145 1.7652 0
M  V30 11027 C 1060.03 0.60037 3.3354 0
M  V30 11028 C 1059.2 1.71979 4.02172 0
M  V30 11029 C 1058.26 1.24615 5.11231 0
M  V30 11030 O 1057.29 1.94692 5.34868 0
M  V30 11031 N 1058.49 0.105021 5.80405 0
M  V30 11032 H 1061.26 2.02105 2.213 0
M  V30 11033 H 1058.82 1.19481 1.09251 0
M  V30 11034 H 1060.81 0.267281 4.03816 0
M  V30 11035 H 1059.38 -0.258872 3.11526 0
M  V30 11036 H 1058.6 2.22287 3.25549 0
M  V30 11037 H 1059.89 2.47092 4.44773 0
M  V30 11038 H 1059.29 -0.479745 5.63662 0
M  V30 11039 H 1057.84 -0.168846 6.51581 0
M  V30 11040 N 1061.28 -1.12907 1.09954 0
M  V30 11041 C 1062.5 -1.88679 0.861099 0
M  V30 11042 C 1062.93 -1.78853 -0.582499 0
M  V30 11043 O 1062.28 -1.13992 -1.4098 0
M  V30 11044 C 1062.33 -3.36047 1.30785 0
M  V30 11045 O 1061.44 -4.09716 0.469728 0
M  V30 11046 H 1060.78 -0.586447 0.31141 0
M  V30 11047 H 1063.31 -1.42818 1.46507 0
M  V30 11048 H 1063.32 -3.86882 1.29562 0
M  V30 11049 H 1061.99 -3.42516 2.35914 0
M  V30 11050 H 1060.57 -3.6887 0.54674 0
M  V30 11051 N 1062.75 -0.88754 -1.30232 0
M  V30 11052 C 1063.98 -0.521562 -2.00735 0
M  V30 11053 C 1064.4 0.883247 -1.66073 0
M  V30 11054 O 1063.76 1.58581 -0.878731 0
M  V30 11055 C 1063.81 -0.706521 -3.53611 0
M  V30 11056 O 1062.91 0.246447 -4.11663 0
M  V30 11057 H 1062.25 -0.205216 -0.631492 0
M  V30 11058 H 1064.78 -1.19579 -1.66018 0
M  V30 11059 H 1064.79 -0.606501 -4.03467 0
M  V30 11060 H 1063.47 -1.73076 -3.78177 0
M  V30 11061 H 1062.05 0.0999062 -3.72766 0
M  V30 11062 N 1064.23 1.43628 -0.648757 0
M  V30 11063 C 1065.51 1.95391 -0.0904551 0
M  V30 11064 C 1065.89 1.59021 1.38837 0
M  V30 11065 O 1065.24 0.873078 2.11163 0
M  V30 11066 C 1065.45 3.47418 -0.33196 0
M  V30 11067 C 1066.8 4.23952 -0.234521 0
M  V30 11068 O 1067.82 3.55218 -0.264276 0
M  V30 11069 O 1066.68 5.46282 -0.154428 0
M  V30 11070 H 1063.77 0.82691 0.0121884 0
M  V30 11071 H 1066.32 1.5359 -0.721685 0
M  V30 11072 H 1065.09 3.67001 -1.35741 0
M  V30 11073 H 1064.71 3.96207 0.332556 0
M  V30 11074 N 1065.71 0.390394 1.52688 0
M  V30 11075 C 1067.12 -0.083394 1.86514 0
M  V30 11076 C 1067.47 -1.46057 1.31003 0
M  V30 11077 O 1066.6 -2.06663 0.641809 0
M  V30 11078 C 1067.19 -0.158102 3.38431 0
M  V30 11079 C 1065.75 -0.576186 3.71964 0
M  V30 11080 C 1064.9 0.261156 2.76068 0
M  V30 11081 H 1067.85 0.608226 1.46582 0
M  V30 11082 H 1067.87 -0.977023 3.67742 0
M  V30 11083 H 1067.38 0.844365 3.78803 0
M  V30 11084 H 1065.48 -1.58598 3.37161 0
M  V30 11085 H 1065.6 -0.333577 4.77937 0
M  V30 11086 H 1063.96 -0.273737 2.53225 0
M  V30 11087 H 1064.74 1.26162 3.19277 0
M  V30 11088 N 1067.19 -1.57141 0.120249 0
M  V30 11089 C 1068.6 -1.5784 -0.236335 0
M  V30 11090 C 1068.8 -1.13304 -1.66626 0
M  V30 11091 O 1067.86 -0.821004 -2.3878 0
M  V30 11092 C 1069.17 -3.007 -0.00188211 0
M  V30 11093 C 1070.72 -3.12927 -0.0676838 0
M  V30 11094 C 1071.2 -4.57789 0.139092 0
M  V30 11095 N 1072.69 -4.63122 0.085104 0
M  V30 11096 C 1073.42 -5.72978 0.219983 0
M  V30 11097 N 1072.92 -6.91579 0.411102 0
M  V30 11098 N 1074.71 -5.61874 0.159469 0
M  V30 11099 H 1066.86 -1.84391 1.05422 0
M  V30 11100 H 1069.13 -0.852228 0.415225 0
M  V30 11101 H 1068.83 -3.37575 0.986718 0
M  V30 11102 H 1068.71 -3.70005 -0.733203 0
M  V30 11103 H 1071.09 -2.75909 -1.04681 0
M  V30 11104 H 1071.17 -2.46162 0.695538 0
M  V30 11105 H 1070.82 -4.95506 1.1152 0
M  V30 11106 H 1070.75 -5.22646 -0.644131 0
M  V30 11107 H 1073.24 -3.77854 -0.0590479 0
M  V30 11108 H 1073.55 -7.71149 0.504851 0
M  V30 11109 H 1071.9 -6.9356 0.447091 0
M  V30 11110 H 1075.09 -4.68099 0.0111131 0
M  V30 11111 H 1075.26 -6.47445 0.268028 0
M  V30 11112 N 1068.67 0.153526 -1.5685 0
M  V30 11113 C 1069.89 0.886343 -1.87507 0
M  V30 11114 C 1070.32 1.74244 -0.708565 0
M  V30 11115 O 1069.67 1.78045 0.341997 0
M  V30 11116 C 1069.72 1.72428 -3.16703 0
M  V30 11117 O 1068.83 2.82784 -3.00178 0
M  V30 11118 H 1068.17 0.247259 -0.616246 0
M  V30 11119 H 1070.7 0.146306 -2.04076 0
M  V30 11120 H 1070.71 2.12062 -3.4856 0
M  V30 11121 H 1069.38 1.09558 -4.01211 0
M  V30 11122 H 1067.96 2.46604 -2.79716 0
M  V30 11123 N 1070.14 1.51827 0.422667 0
M  V30 11124 C 1071.56 1.57533 1.00201 0
M  V30 11125 C 1071.91 0.407623 1.91919 0
M  V30 11126 O 1071.03 -0.473763 2.1115 0
M  V30 11127 C 1071.63 2.85508 1.82403 0
M  V30 11128 C 1070.19 2.93737 2.35362 0
M  V30 11129 C 1069.33 2.52343 1.14971 0
M  V30 11130 H 1072.28 1.57391 0.20339 0
M  V30 11131 H 1072.3 2.70097 2.68007 0
M  V30 11132 H 1071.82 3.70477 1.15623 0
M  V30 11133 H 1069.92 2.13231 3.05554 0
M  V30 11134 H 1070.03 3.977 2.67155 0
M  V30 11135 H 1068.39 2.05878 1.49955 0
M  V30 11136 H 1069.18 3.39672 0.497786 0
M  V30 11137 N 1071.62 -0.679052 1.4222 0
M  V30 11138 C 1072.57 -1.78522 1.41824 0
M  V30 11139 C 1073.56 -1.58262 0.290179 0
M  V30 11140 O 1074.75 -1.68813 0.532092 0
M  V30 11141 C 1071.88 -3.16952 1.31895 0
M  V30 11142 C 1070.96 -3.42849 2.4963 0
M  V30 11143 N 1071.35 -3.39354 3.75063 0
M  V30 11144 C 1069.65 -3.73468 2.43799 0
M  V30 11145 C 1070.35 -3.64617 4.53243 0
M  V30 11146 N 1069.33 -3.85174 3.83591 0
M  V30 11147 H 1073.13 -1.74206 2.36705 0
M  V30 11148 H 1070.65 -0.879719 1.36509 0
M  V30 11149 H 1072.64 -3.96214 1.29693 0
M  V30 11150 H 1071.3 -3.22467 0.380127 0
M  V30 11151 H 1072.31 -3.19354 4.07718 0
M  V30 11152 H 1068.99 -3.86254 1.58474 0
M  V30 11153 H 1070.38 -3.67912 5.62219 0
M  V30 11154 N 1073.1 -1.28322 -0.914942 0
M  V30 11155 C 1074.33 -1.18083 -1.69529 0
M  V30 11156 C 1074.74 0.263274 -1.87359 0
M  V30 11157 O 1074.08 1.18988 -1.39955 0
M  V30 11158 C 1074.14 -1.8062 -3.10832 0
M  V30 11159 C 1073.81 -3.29861 -3.16292 0
M  V30 11160 C 1074.8 -4.26313 -2.97578 0
M  V30 11161 C 1072.49 -3.70797 -3.38843 0
M  V30 11162 C 1074.48 -5.61677 -3.01326 0
M  V30 11163 C 1072.17 -5.06287 -3.42223 0
M  V30 11164 C 1073.17 -6.01537 -3.23485 0
M  V30 11165 O 1072.86 -7.34556 -3.26624 0
M  V30 11166 H 1072.59 -0.410931 -0.53676 0
M  V30 11167 H 1075.14 -1.6994 -1.15367 0
M  V30 11168 H 1073.37 -1.23255 -3.66531 0
M  V30 11169 H 1075.06 -1.64915 -3.70888 0
M  V30 11170 H 1075.83 -3.96023 -2.79984 0
M  V30 11171 H 1071.71 -2.97124 -3.52475 0
M  V30 11172 H 1075.25 -6.36 -2.86618 0
M  V30 11173 H 1071.15 -5.36228 -3.59346 0
M  V30 11174 H 1071.92 -7.43167 -3.42994 0
M  V30 11175 N 1074.58 1.12322 -1.10551 0
M  V30 11176 C 1075.99 1.35858 -0.837543 0
M  V30 11177 C 1076.19 1.94062 0.54241 0
M  V30 11178 O 1075.25 2.1676 1.29505 0
M  V30 11179 C 1076.56 2.299 -1.9382 0
M  V30 11180 C 1078.11 2.43488 -1.96679 0
M  V30 11181 C 1078.59 3.40846 -3.05922 0
M  V30 11182 N 1080.08 3.48404 -3.05236 0
M  V30 11183 C 1080.81 4.2365 -3.86405 0
M  V30 11184 N 1080.31 5.01951 -4.77512 0
M  V30 11185 N 1082.1 4.19068 -3.74618 0
M  V30 11186 H 1074.25 0.729002 -1.99498 0
M  V30 11187 H 1076.52 0.38339 -0.867016 0
M  V30 11188 H 1076.22 1.94309 -2.9315 0
M  V30 11189 H 1076.1 3.30033 -1.82641 0
M  V30 11190 H 1078.48 2.78359 -0.979813 0
M  V30 11191 H 1078.56 1.43239 -2.11934 0
M  V30 11192 H 1078.21 3.06704 -4.04839 0
M  V30 11193 H 1078.14 4.40927 -2.87907 0
M  V30 11194 H 1080.63 2.92545 -2.39219 0
M  V30 11195 H 1080.94 5.56707 -5.36002 0
M  V30 11196 H 1079.29 5.01143 -4.8154 0
M  V30 11197 H 1082.48 3.5698 -3.02792 0
M  V30 11198 H 1082.65 4.77455 -4.38111 0
M  V30 11199 N 1076.06 0.894434 1.2976 0
M  V30 11200 C 1077.33 0.437365 1.90648 0
M  V30 11201 C 1077.71 -1.08261 1.81226 0
M  V30 11202 O 1077.06 -1.92213 1.23557 0
M  V30 11203 C 1077.27 0.946047 3.35933 0
M  V30 11204 C 1078.62 0.986621 4.12978 0
M  V30 11205 O 1079.64 0.893356 3.44815 0
M  V30 11206 O 1078.5 1.12591 5.34776 0
M  V30 11207 H 1075.6 0.135436 0.815835 0
M  V30 11208 H 1078.14 0.983955 1.38262 0
M  V30 11209 H 1076.91 1.98998 3.3692 0
M  V30 11210 H 1076.54 0.379164 3.95788 0
M  V30 11211 N 1077.53 -1.43282 0.656365 0
M  V30 11212 C 1078.47 -2.29087 -0.0720378 0
M  V30 11213 C 1079.48 -1.4268 -0.783982 0
M  V30 11214 O 1080.67 -1.66585 -0.641213 0
M  V30 11215 C 1077.77 -3.19676 -1.12519 0
M  V30 11216 C 1076.94 -4.34638 -0.490756 0
M  V30 11217 C 1076 -5.06079 -1.44121 0
M  V30 11218 O 1075.03 -5.6124 -0.948595 0
M  V30 11219 N 1076.23 -5.09872 -2.77509 0
M  V30 11220 H 1078.99 -2.92241 0.664456 0
M  V30 11221 H 1076.55 -1.54006 0.499383 0
M  V30 11222 H 1078.55 -3.64334 -1.76189 0
M  V30 11223 H 1077.12 -2.581 -1.76362 0
M  V30 11224 H 1076.34 -3.92857 0.3251 0
M  V30 11225 H 1077.62 -5.08777 -0.0480061 0
M  V30 11226 H 1077.02 -4.66433 -3.20088 0
M  V30 11227 H 1075.58 -5.58237 -3.36474 0
M  V30 11228 N 1079.01 -0.398486 -1.52479 0
M  V30 11229 C 1080.24 0.180557 -2.06111 0
M  V30 11230 C 1080.66 1.39751 -1.26945 0
M  V30 11231 O 1080.01 1.79699 -0.318497 0
M  V30 11232 C 1080.06 0.541573 -3.5742 0
M  V30 11233 O 1079.79 -0.627043 -4.33589 0
M  V30 11234 C 1081.29 1.17549 -4.27431 0
M  V30 11235 H 1078.51 0.0250754 -0.670531 0
M  V30 11236 H 1081.05 -0.566368 -1.96501 0
M  V30 11237 H 1079.21 1.23839 -3.67073 0
M  V30 11238 H 1079.62 -0.328233 -5.23472 0
M  V30 11239 H 1081.09 1.37839 -5.34513 0
M  V30 11240 H 1081.57 2.14553 -3.83228 0
M  V30 11241 H 1082.18 0.51918 -4.22119 0
M  V30 11242 N 1080.49 1.57075 -0.12858 0
M  V30 11243 C 1081.4 2.19369 0.831533 0
M  V30 11244 C 1082.42 1.17258 1.28555 0
M  V30 11245 O 1083.59 1.49766 1.34656 0
M  V30 11246 C 1080.66 2.78846 2.06024 0
M  V30 11247 C 1079.72 3.96024 1.65722 0
M  V30 11248 C 1078.95 4.52655 2.82735 0
M  V30 11249 O 1079.18 4.08175 3.98434 0
M  V30 11250 O 1078.11 5.43198 2.59268 0
M  V30 11251 H 1081.94 3.01887 0.331352 0
M  V30 11252 H 1079.52 1.49081 0.0975226 0
M  V30 11253 H 1081.4 3.16721 2.77967 0
M  V30 11254 H 1080.08 1.99353 2.5503 0
M  V30 11255 H 1078.98 3.62899 0.908574 0
M  V30 11256 H 1080.32 4.76981 1.21449 0
M  V30 11257 N 1081.97 -0.145205 1.5693 0
M  V30 11258 C 1082.9 -1.18096 2.01434 0
M  V30 11259 C 1083.88 -1.447 0.894204 0
M  V30 11260 O 1085.07 -1.55589 1.16214 0
M  V30 11261 C 1082.2 -2.51369 2.39647 0
M  V30 11262 C 1081.15 -2.39283 3.54863 0
M  V30 11263 C 1080.48 -3.77283 3.78895 0
M  V30 11264 C 1081.78 -1.8754 4.87469 0
M  V30 11265 H 1083.47 -0.810897 2.8821 0
M  V30 11266 H 1081.02 -0.388624 1.38657 0
M  V30 11267 H 1082.97 -3.24054 2.69382 0
M  V30 11268 H 1081.69 -2.90214 1.49811 0
M  V30 11269 H 1080.35 -1.6905 3.25296 0
M  V30 11270 H 1080 -4.13567 2.86307 0
M  V30 11271 H 1079.7 -3.70057 4.56433 0
M  V30 11272 H 1081.22 -4.51514 4.11057 0
M  V30 11273 H 1082.64 -2.50019 5.1591 0
M  V30 11274 H 1081.03 -1.912 5.68826 0
M  V30 11275 H 1082.1 -0.831194 4.77723 0
M  V30 11276 N 1083.45 -1.52049 -0.414609 0
M  V30 11277 C 1084.69 -1.65838 -1.16206 0
M  V30 11278 C 1085.02 -0.385623 -1.90639 0
M  V30 11279 O 1084.28 0.631214 -1.85241 0
M  V30 11280 C 1084.58 -2.82735 -2.18622 0
M  V30 11281 C 1084.24 -4.21163 -1.61037 0
M  V30 11282 C 1082.9 -4.58816 -1.45056 0
M  V30 11283 C 1085.26 -5.0745 -1.18928 0
M  V30 11284 C 1082.58 -5.8044 -0.854761 0
M  V30 11285 C 1084.94 -6.29674 -0.607686 0
M  V30 11286 C 1083.6 -6.66081 -0.434968 0
M  V30 11287 H 1082.87 -0.606845 -0.425229 0
M  V30 11288 H 1085.52 -1.86137 -0.450009 0
M  V30 11289 H 1083.82 -2.56749 -2.95952 0
M  V30 11290 H 1085.52 -2.90601 -2.76319 0
M  V30 11291 H 1082.11 -3.91488 -1.74457 0
M  V30 11292 H 1086.29 -4.78948 -1.30086 0
M  V30 11293 H 1081.55 -6.07276 -0.70891 0
M  V30 11294 H 1085.72 -6.95865 -0.272988 0
M  V30 11295 H 1083.35 -7.60195 0.0288116 0
M  V30 11296 N 1084.93 0.6715 -1.42579 0
M  V30 11297 C 1086.15 1.46471 -1.46836 0
M  V30 11298 C 1086.58 1.87921 -0.0820658 0
M  V30 11299 O 1085.93 1.5621 0.920217 0
M  V30 11300 C 1085.98 2.68796 -2.40377 0
M  V30 11301 O 1085.09 3.67188 -1.87741 0
M  V30 11302 H 1084.43 0.439901 -0.497376 0
M  V30 11303 H 1086.96 0.823342 -1.87303 0
M  V30 11304 H 1086.97 3.16828 -2.57068 0
M  V30 11305 H 1085.64 2.37967 -3.41093 0
M  V30 11306 H 1084.22 3.26237 -1.80621 0
M  V30 11307 N 1086.4 1.28806 0.908124 0
M  V30 11308 C 1087.82 1.06634 1.18749 0
M  V30 11309 C 1088.02 -0.187729 2.00624 0
M  V30 11310 O 1087.08 -0.88784 2.36376 0
M  V30 11311 C 1088.39 2.31703 1.91661 0
M  V30 11312 C 1089.94 2.36939 2.04521 0
M  V30 11313 C 1090.41 3.61789 2.80843 0
M  V30 11314 N 1091.9 3.62462 2.88402 0
M  V30 11315 C 1092.64 4.55746 3.47971 0
M  V30 11316 N 1092.13 5.59353 4.08774 0
M  V30 11317 N 1093.93 4.43331 3.45564 0
M  V30 11318 H 1086.08 2.09299 0.36164 0
M  V30 11319 H 1088.34 0.921479 0.222668 0
M  V30 11320 H 1088.05 3.23096 1.38931 0
M  V30 11321 H 1087.92 2.38556 2.92183 0
M  V30 11322 H 1090.31 1.4604 2.5643 0
M  V30 11323 H 1090.39 2.34077 1.03159 0
M  V30 11324 H 1090.03 4.53035 2.29612 0
M  V30 11325 H 1089.96 3.61907 3.82532 0
M  V30 11326 H 1092.45 2.87544 2.45208 0
M  V30 11327 H 1092.77 6.26668 4.52224 0
M  V30 11328 H 1091.11 5.63173 4.07261 0
M  V30 11329 H 1094.3 3.61587 2.97276 0
M  V30 11330 H 1094.48 5.16216 3.91695 0
M  V30 11331 N 1087.88 -1.11734 1.11145 0
M  V30 11332 C 1088.81 -2.17438 0.724804 0
M  V30 11333 C 1089.83 -1.6099 -0.242069 0
M  V30 11334 O 1091.02 -1.78482 -0.0254259 0
M  V30 11335 C 1088.12 -3.38863 0.050004 0
M  V30 11336 C 1087.29 -4.24785 1.04292 0
M  V30 11337 C 1086.35 -5.24691 0.398243 0
M  V30 11338 O 1085.37 -5.59408 1.05125 0
M  V30 11339 N 1086.58 -5.74388 -0.840184 0
M  V30 11340 H 1089.34 -2.51219 1.63429 0
M  V30 11341 H 1086.9 -1.27226 1.00125 0
M  V30 11342 H 1088.89 -4.02788 -0.392929 0
M  V30 11343 H 1087.46 -3.0317 -0.762005 0
M  V30 11344 H 1086.68 -3.57363 1.6639 0
M  V30 11345 H 1087.97 -4.79033 1.71478 0
M  V30 11346 H 1087.37 -5.48359 -1.38994 0
M  V30 11347 H 1085.93 -6.40163 -1.22615 0
M  V30 11348 N 1089.36 -0.901303 -1.29284 0
M  V30 11349 C 1090.29 -0.337552 -2.26701 0
M  V30 11350 C 1091.3 0.517039 -1.54371 0
M  V30 11351 O 1092.49 0.333937 -1.75349 0
M  V30 11352 C 1089.59 0.537214 -3.34615 0
M  V30 11353 C 1088.77 -0.292017 -4.36424 0
M  V30 11354 C 1087.83 0.515837 -5.23666 0
M  V30 11355 O 1086.85 -0.0672303 -5.6916 0
M  V30 11356 N 1088.05 1.82159 -5.51179 0
M  V30 11357 H 1090.82 -1.17484 -2.75713 0
M  V30 11358 H 1088.38 -0.765957 -1.42635 0
M  V30 11359 H 1090.37 1.0841 -3.8991 0
M  V30 11360 H 1088.94 1.2752 -2.85408 0
M  V30 11361 H 1088.16 -1.02031 -3.80767 0
M  V30 11362 H 1089.45 -0.859855 -5.01482 0
M  V30 11363 H 1088.85 2.318 -5.16028 0
M  V30 11364 H 1087.4 2.31556 -6.09282 0
M  V30 11365 N 1090.84 1.42931 -0.663954 0
M  V30 11366 C 1092.08 2.02505 -0.190647 0
M  V30 11367 C 1092.44 1.51506 1.18591 0
M  V30 11368 O 1091.73 0.702962 1.78239 0
M  V30 11369 C 1091.93 3.57072 -0.153163 0
M  V30 11370 C 1091.75 4.23069 -1.52454 0
M  V30 11371 C 1090.52 4.58694 -2.11961 0
M  V30 11372 C 1092.72 4.51373 -2.46509 0
M  V30 11373 N 1090.7 5.09818 -3.41993 0
M  V30 11374 C 1092.08 5.03931 -3.61184 0
M  V30 11375 C 1094.13 4.33351 -2.45176 0
M  V30 11376 C 1092.83 5.40362 -4.74765 0
M  V30 11377 C 1094.86 4.70851 -3.57845 0
M  V30 11378 C 1094.22 5.23551 -4.71246 0
M  V30 11379 H 1090.32 0.773581 -0.114438 0
M  V30 11380 H 1092.9 1.73951 -0.874589 0
M  V30 11381 H 1091.08 3.85166 0.500156 0
M  V30 11382 H 1092.81 4.03336 0.332015 0
M  V30 11383 H 1089.56 4.44091 -1.6456 0
M  V30 11384 H 1089.99 5.39821 -4.08561 0
M  V30 11385 H 1094.63 3.91871 -1.58735 0
M  V30 11386 H 1092.35 5.8078 -5.6189 0
M  V30 11387 H 1095.93 4.58593 -3.58028 0
M  V30 11388 H 1094.81 5.52029 -5.56986 0
M  V30 11389 N 1092.32 0.406567 1.52266 0
M  V30 11390 C 1093.25 -0.45552 2.24628 0
M  V30 11391 C 1094.26 -1.01234 1.27497 0
M  V30 11392 O 1095.45 -0.911718 1.5346 0
M  V30 11393 C 1092.55 -1.64578 2.96256 0
M  V30 11394 C 1091.72 -1.2133 4.20235 0
M  V30 11395 C 1090.78 -2.27018 4.7471 0
M  V30 11396 O 1089.81 -1.87714 5.37357 0
M  V30 11397 N 1091.01 -3.5915 4.56061 0
M  V30 11398 H 1093.77 0.164525 2.99248 0
M  V30 11399 H 1091.34 0.233812 1.60203 0
M  V30 11400 H 1093.33 -2.3484 3.29594 0
M  V30 11401 H 1091.9 -2.1718 2.24837 0
M  V30 11402 H 1091.12 -0.338892 3.92741 0
M  V30 11403 H 1092.41 -0.901268 5.00754 0
M  V30 11404 H 1091.8 -3.93834 4.06092 0
M  V30 11405 H 1090.36 -4.25397 4.93843 0
M  V30 11406 N 1093.79 -1.57004 0.136909 0
M  V30 11407 C 1095.02 -2.00156 -0.523936 0
M  V30 11408 C 1095.44 -1.01688 -1.59075 0
M  V30 11409 O 1094.79 -0.0123678 -1.82496 0
M  V30 11410 C 1094.85 -3.4326 -1.13379 0
M  V30 11411 O 1094.57 -4.37963 -0.109598 0
M  V30 11412 C 1096.07 -4.01637 -1.87623 0
M  V30 11413 H 1093.29 -0.65681 -0.137263 0
M  V30 11414 H 1095.83 -2.03219 0.228522 0
M  V30 11415 H 1093.99 -3.4108 -1.83693 0
M  V30 11416 H 1094.4 -5.21555 -0.55503 0
M  V30 11417 H 1095.87 -5.03795 -2.25597 0
M  V30 11418 H 1096.35 -3.41781 -2.75831 0
M  V30 11419 H 1096.96 -4.07417 -1.22031 0
M  V30 11420 N 1095.27 0.136881 -1.57004 0
M  V30 11421 C 1096.2 1.17026 -2.02057 0
M  V30 11422 C 1097.18 1.44223 -0.901866 0
M  V30 11423 O 1098.37 1.54971 -1.17037 0
M  V30 11424 C 1095.5 2.50095 -2.40977 0
M  V30 11425 C 1094.45 2.37398 -3.56127 0
M  V30 11426 C 1093.78 3.75268 -3.80891 0
M  V30 11427 C 1095.08 1.84952 -4.88457 0
M  V30 11428 H 1096.77 0.795601 -2.88636 0
M  V30 11429 H 1094.32 0.381266 -1.38861 0
M  V30 11430 H 1096.27 3.22621 -2.71097 0
M  V30 11431 H 1095 2.89416 -1.51348 0
M  V30 11432 H 1093.65 1.67322 -3.26188 0
M  V30 11433 H 1093.3 4.12043 -2.88496 0
M  V30 11434 H 1093 3.67631 -4.5839 0
M  V30 11435 H 1094.53 4.49327 -4.13446 0
M  V30 11436 H 1095.94 2.4728 -5.17229 0
M  V30 11437 H 1094.34 1.88181 -5.69832 0
M  V30 11438 H 1095.41 0.805848 -4.78157 0
M  V30 11439 N 1096.75 1.52266 0.40654 0
M  V30 11440 C 1098.16 1.58587 0.985241 0
M  V30 11441 C 1098.51 0.427955 1.91476 0
M  V30 11442 O 1097.64 -0.451341 2.11641 0
M  V30 11443 C 1098.23 2.87426 1.79365 0
M  V30 11444 C 1096.79 2.96217 2.32233 0
M  V30 11445 C 1095.94 2.53548 1.12288 0
M  V30 11446 H 1098.89 1.57598 0.186685 0
M  V30 11447 H 1098.91 2.72925 2.65127 0
M  V30 11448 H 1098.42 3.71682 1.11687 0
M  V30 11449 H 1096.52 2.1646 3.03275 0
M  V30 11450 H 1096.64 4.00511 2.62922 0
M  V30 11451 H 1095 2.07457 1.47763 0
M  V30 11452 H 1095.78 3.40181 0.461731 0
M  V30 11453 N 1098.23 -0.663929 1.42933 0
M  V30 11454 C 1099.48 -1.42393 1.43981 0
M  V30 11455 C 1099.8 -1.94407 0.0601802 0
M  V30 11456 O 1099.06 -1.72019 -0.933172 0
M  V30 11457 C 1099.36 -2.62976 2.4203 0
M  V30 11458 C 1099.02 -2.29441 3.88159 0
M  V30 11459 C 1097.69 -2.20007 4.27961 0
M  V30 11460 C 1100.04 -2.02413 4.8029 0
M  V30 11461 C 1097.37 -1.81686 5.57859 0
M  V30 11462 C 1099.72 -1.65592 6.10542 0
M  V30 11463 C 1098.38 -1.54676 6.49332 0
M  V30 11464 H 1097.65 -0.521051 0.526865 0
M  V30 11465 H 1100.3 -0.756042 1.75944 0
M  V30 11466 H 1098.6 -3.34847 2.03433 0
M  V30 11467 H 1100.3 -3.21174 2.40101 0
M  V30 11468 H 1096.89 -2.3769 3.56653 0
M  V30 11469 H 1101.07 -2.08628 4.5032 0
M  V30 11470 H 1096.33 -1.71812 5.86763 0
M  V30 11471 H 1100.5 -1.43707 6.81411 0
M  V30 11472 H 1098.13 -1.24752 7.49894 0
M  V30 11473 N 1099.71 -1.29285 -0.901281 0
M  V30 11474 C 1100.93 -1.20169 -1.69039 0
M  V30 11475 C 1101.36 0.234509 -1.86632 0
M  V30 11476 O 1100.71 1.16935 -1.38549 0
M  V30 11477 C 1100.76 -1.91852 -3.05328 0
M  V30 11478 O 1099.87 -1.23448 -3.9349 0
M  V30 11479 H 1099.21 -0.416486 -0.517141 0
M  V30 11480 H 1101.74 -1.70826 -1.12603 0
M  V30 11481 H 1101.75 -2.00244 -3.5548 0
M  V30 11482 H 1100.42 -2.96313 -2.91841 0
M  V30 11483 H 1099 -1.23303 -3.51924 0
M  V30 11484 N 1101.18 1.11143 -1.11736 0
M  V30 11485 C 1102.46 1.79384 -0.779785 0
M  V30 11486 C 1102.84 1.98015 0.731668 0
M  V30 11487 O 1102.19 1.56731 1.66276 0
M  V30 11488 C 1102.4 3.12868 -1.54643 0
M  V30 11489 C 1103.75 3.8786 -1.7277 0
M  V30 11490 O 1104.77 3.22566 -1.51094 0
M  V30 11491 O 1103.63 5.05034 -2.08813 0
M  V30 11492 H 1100.72 0.777128 -0.282845 0
M  V30 11493 H 1103.27 1.17858 -1.22096 0
M  V30 11494 H 1102.04 2.94682 -2.57446 0
M  V30 11495 H 1101.67 3.82109 -1.09901 0
M  V30 11496 N 1102.66 0.908147 1.28804 0
M  V30 11497 C 1104.08 0.605474 1.47669 0
M  V30 11498 C 1104.28 -0.850759 1.82659 0
M  V30 11499 O 1103.33 -1.63029 1.92816 0
M  V30 11500 C 1104.65 1.53856 2.58358 0
M  V30 11501 C 1106.2 1.54467 2.7223 0
M  V30 11502 C 1106.67 2.46424 3.86056 0
M  V30 11503 N 1108.16 2.44519 3.93402 0
M  V30 11504 C 1108.9 3.12371 4.80845 0
M  V30 11505 N 1108.39 3.89533 5.72919 0
M  V30 11506 N 1110.19 3.01486 4.74407 0
M  V30 11507 H 1102.34 1.84988 1.04371 0
M  V30 11508 H 1104.6 0.793132 0.519274 0
M  V30 11509 H 1104.31 2.57651 2.39393 0
M  V30 11510 H 1104.18 1.26543 3.5534 0
M  V30 11511 H 1106.57 0.514127 2.90587 0
M  V30 11512 H 1106.65 1.85821 1.75796 0
M  V30 11513 H 1106.29 3.49577 3.68454 0
M  V30 11514 H 1106.22 2.12375 4.81876 0
M  V30 11515 H 1108.71 1.88464 3.27551 0
M  V30 11516 H 1109.03 4.3834 6.36457 0
M  V30 11517 H 1107.37 3.93639 5.72777 0
M  V30 11518 H 1110.56 2.40713 4.01466 0
M  V30 11519 H 1110.73 3.5464 5.42342 0
M  V30 11520 N 1104.14 -1.42577 0.671525 0
M  V30 11521 C 1105.07 -2.2915 -0.0477361 0
M  V30 11522 C 1106.09 -1.43503 -0.768805 0
M  V30 11523 O 1107.27 -1.67256 -0.623509 0
M  V30 11524 C 1104.37 -3.20851 -1.09122 0
M  V30 11525 C 1103.55 -4.35134 -0.44463 0
M  V30 11526 C 1102.61 -5.07579 -1.38745 0
M  V30 11527 O 1101.63 -5.62215 -0.889015 0
M  V30 11528 N 1102.83 -5.12786 -2.72086 0
M  V30 11529 H 1105.6 -2.9152 0.695415 0
M  V30 11530 H 1103.16 -1.53467 0.515689 0
M  V30 11531 H 1105.15 -3.66183 -1.72315 0
M  V30 11532 H 1103.72 -2.59956 -1.73614 0
M  V30 11533 H 1102.94 -3.9249 0.36675 0
M  V30 11534 H 1104.23 -5.088 0.00595927 0
M  V30 11535 H 1103.63 -4.69802 -3.15123 0
M  V30 11536 H 1102.19 -5.61774 -3.30535 0
M  V30 11537 N 1105.62 -0.414636 -1.52048 0
M  V30 11538 C 1106.87 0.16073 -2.01059 0
M  V30 11539 C 1107.18 1.45753 -1.30443 0
M  V30 11540 O 1108.39 2.11448 -1.703 0
M  V30 11541 C 1106.84 0.336993 -3.58319 0
M  V30 11542 C 1106.45 -0.948037 -4.37854 0
M  V30 11543 C 1108.19 0.867353 -4.15545 0
M  V30 11544 C 1106.1 -0.738662 -5.86769 0
M  V30 11545 H 1105.03 0.0638419 -0.751292 0
M  V30 11546 H 1107.68 -0.540925 -1.75346 0
M  V30 11547 H 1106.06 1.10111 -3.80383 0
M  V30 11548 H 1107.24 -1.71873 -4.27547 0
M  V30 11549 H 1105.55 -1.40522 -3.91972 0
M  V30 11550 H 1108.15 1.04012 -5.24486 0
M  V30 11551 H 1108.49 1.84358 -3.73253 0
M  V30 11552 H 1109.03 0.162148 -3.97469 0
M  V30 11553 H 1105.77 -1.6866 -6.3343 0
M  V30 11554 H 1105.29 -0.00736294 -5.998 0
M  V30 11555 H 1106.96 -0.382978 -6.45866 0
M  V30 11556 N 1107.1 1.56929 -0.145233 0
M  V30 11557 C 1108.37 1.8767 0.551288 0
M  V30 11558 C 1108.75 1.05089 1.83083 0
M  V30 11559 O 1108.1 0.137201 2.28088 0
M  V30 11560 C 1108.31 3.39268 0.818445 0
M  V30 11561 C 1109.66 4.08447 1.16 0
M  V30 11562 O 1110.68 3.44436 0.907857 0
M  V30 11563 O 1109.54 5.21488 1.63441 0
M  V30 11564 H 1106.64 0.777788 0.281024 0
M  V30 11565 H 1109.18 1.68724 -0.181712 0
M  V30 11566 H 1107.95 3.91203 -0.0871897 0
M  V30 11567 H 1107.58 3.63735 1.60569 0
M  V30 11568 N 1108.58 -0.128553 1.57075 0
M  V30 11569 C 1109.54 -1.14215 1.98715 0
M  V30 11570 C 1110.54 -1.34843 0.876019 0
M  V30 11571 O 1111.73 -1.31522 1.14227 0
M  V30 11572 C 1108.86 -2.49865 2.31905 0
M  V30 11573 H 1110.05 -0.784481 2.89458 0
M  V30 11574 H 1107.61 -0.372531 1.51796 0
M  V30 11575 H 1108.34 -2.9057 1.44012 0
M  V30 11576 H 1108.13 -2.3625 3.12935 0
M  V30 11577 H 1109.62 -3.22832 2.64895 0
M  V30 11578 N 1110.05 -1.5248 -0.398459 0
M  V30 11579 C 1111.33 -1.57634 -1.15805 0
M  V30 11580 C 1111.71 -0.363785 -2.07942 0
M  V30 11581 O 1111.06 0.648598 -2.19101 0
M  V30 11582 C 1111.27 -2.91042 -1.92602 0
M  V30 11583 C 1112.62 -3.44433 -2.48296 0
M  V30 11584 O 1113.64 -2.92853 -2.0277 0
M  V30 11585 O 1112.5 -4.34529 -3.31432 0
M  V30 11586 H 1109.59 -0.63539 -0.529347 0
M  V30 11587 H 1112.14 -1.64812 -0.404376 0
M  V30 11588 H 1110.91 -3.7074 -1.25169 0
M  V30 11589 H 1110.53 -2.87206 -2.74952 0
M  V30 11590 N 1111.53 0.65634 -1.43283 0
M  V30 11591 C 1112.94 1.23744 -1.39801 0
M  V30 11592 C 1113.29 1.95942 -0.100507 0
M  V30 11593 O 1112.42 2.01063 0.800161 0
M  V30 11594 C 1113.01 2.25062 -2.53244 0
M  V30 11595 C 1111.57 2.78657 -2.53036 0
M  V30 11596 C 1110.72 1.53251 -2.31105 0
M  V30 11597 H 1113.67 0.448553 -1.52229 0
M  V30 11598 H 1113.69 3.07174 -2.24553 0
M  V30 11599 H 1113.2 1.72487 -3.47664 0
M  V30 11600 H 1111.3 3.35304 -1.62487 0
M  V30 11601 H 1111.42 3.26414 -3.507 0
M  V30 11602 H 1109.78 1.80487 -1.79713 0
M  V30 11603 H 1110.56 1.02615 -3.27605 0
M  V30 11604 N 1113.01 1.29761 0.894412 0
M  V30 11605 C 1113.94 1.1115 2.00445 0
M  V30 11606 C 1114.95 0.0574655 1.62699 0
M  V30 11607 O 1116.14 0.302528 1.75918 0
M  V30 11608 C 1113.24 0.670984 3.32191 0
M  V30 11609 C 1112.42 1.80471 3.98433 0
M  V30 11610 C 1111.48 1.35431 5.08473 0
M  V30 11611 O 1110.5 2.05994 5.30618 0
M  V30 11612 N 1111.7 0.22811 5.80052 0
M  V30 11613 H 1114.47 2.06753 2.16964 0
M  V30 11614 H 1112.03 1.21772 1.06692 0
M  V30 11615 H 1114.02 0.352877 4.03159 0
M  V30 11616 H 1112.59 -0.192735 3.12005 0
M  V30 11617 H 1111.81 2.29142 3.20761 0
M  V30 11618 H 1113.1 2.56471 4.39431 0
M  V30 11619 H 1112.5 -0.360076 5.64553 0
M  V30 11620 H 1111.05 -0.0305985 6.51793 0
M  V30 11621 N 1114.49 -1.10549 1.12324 0
M  V30 11622 C 1115.42 -2.18911 0.812416 0
M  V30 11623 C 1116.4 -1.68628 -0.22327 0
M  V30 11624 O 1117.58 -1.94015 -0.0847184 0
M  V30 11625 C 1114.71 -3.46288 0.264947 0
M  V30 11626 C 1113.67 -4.09838 1.23356 0
M  V30 11627 C 1112.99 -5.31901 0.546374 0
M  V30 11628 C 1114.29 -4.53686 2.58778 0
M  V30 11629 H 1115.99 -2.45169 1.71851 0
M  V30 11630 H 1113.53 -1.17834 0.827715 0
M  V30 11631 H 1115.49 -4.21385 0.0352364 0
M  V30 11632 H 1114.21 -3.19517 -0.676479 0
M  V30 11633 H 1112.87 -3.36746 1.44906 0
M  V30 11634 H 1112.52 -5.01406 -0.400157 0
M  V30 11635 H 1112.22 -5.75372 1.19249 0
M  V30 11636 H 1113.74 -6.09731 0.325673 0
M  V30 11637 H 1115.16 -5.20063 2.41263 0
M  V30 11638 H 1113.55 -5.08003 3.19457 0
M  V30 11639 H 1114.62 -3.66665 3.17309 0
M  V30 11640 N 1115.97 -0.914965 -1.28321 0
M  V30 11641 C 1116.9 -0.361578 -2.2633 0
M  V30 11642 C 1117.91 0.500637 -1.54911 0
M  V30 11643 O 1119.1 0.31532 -1.75693 0
M  V30 11644 C 1116.2 0.501693 -3.35166 0
M  V30 11645 C 1115.37 -0.338289 -4.3609 0
M  V30 11646 C 1114.43 0.460267 -5.24183 0
M  V30 11647 O 1113.46 -0.127594 -5.69057 0
M  V30 11648 N 1114.66 1.76302 -5.5308 0
M  V30 11649 H 1117.42 -1.20402 -2.74451 0
M  V30 11650 H 1114.99 -0.781042 -1.41814 0
M  V30 11651 H 1116.98 1.04268 -3.91037 0
M  V30 11652 H 1115.55 1.24485 -2.86744 0
M  V30 11653 H 1114.77 -1.06064 -3.79663 0
M  V30 11654 H 1116.06 -0.912996 -5.00542 0
M  V30 11655 H 1115.45 2.26314 -5.18458 0
M  V30 11656 H 1114.01 2.25081 -6.11704 0
M  V30 11657 N 1117.44 1.42219 -0.679077 0
M  V30 11658 C 1118.86 1.55737 -0.349034 0
M  V30 11659 C 1119.06 1.65789 1.14527 0
M  V30 11660 O 1118.12 1.62717 1.93079 0
M  V30 11661 C 1119.43 2.80516 -1.0831 0
M  V30 11662 C 1120.98 2.94294 -1.06584 0
M  V30 11663 C 1121.45 4.2194 -1.78132 0
M  V30 11664 N 1122.94 4.28861 -1.75021 0
M  V30 11665 C 1123.68 5.26453 -2.27234 0
M  V30 11666 N 1123.17 6.30171 -2.87847 0
M  V30 11667 N 1124.97 5.1828 -2.17584 0
M  V30 11668 H 1117.12 1.33939 -1.64846 0
M  V30 11669 H 1119.38 0.645029 -0.694725 0
M  V30 11670 H 1119.09 2.79241 -2.13816 0
M  V30 11671 H 1118.96 3.71539 -0.651069 0
M  V30 11672 H 1121.35 2.95094 -0.0191061 0
M  V30 11673 H 1121.43 2.04491 -1.53679 0
M  V30 11674 H 1121.07 4.21901 -2.82776 0
M  V30 11675 H 1121 5.10685 -1.28483 0
M  V30 11676 H 1123.49 3.54537 -1.30814 0
M  V30 11677 H 1123.81 7.01 -3.25298 0
M  V30 11678 H 1122.15 6.30721 -2.91918 0
M  V30 11679 H 1125.34 4.36172 -1.69916 0
M  V30 11680 H 1125.52 5.94172 -2.58581 0
M  V30 11681 N 1118.92 0.422693 1.51826 0
M  V30 11682 C 1119.85 -0.386913 2.30272 0
M  V30 11683 C 1120.83 -1.03411 1.35056 0
M  V30 11684 O 1122.02 -1.04055 1.6397 0
M  V30 11685 C 1119.15 -1.49645 3.13407 0
M  V30 11686 C 1118.1 -0.973532 4.16781 0
M  V30 11687 C 1117.43 -2.1777 4.88344 0
M  V30 11688 C 1118.73 -0.0181194 5.22297 0
M  V30 11689 H 1120.42 0.267697 2.98201 0
M  V30 11690 H 1117.97 0.130186 1.4341 0
M  V30 11691 H 1119.92 -2.06993 3.67059 0
M  V30 11692 H 1118.64 -2.17914 2.43272 0
M  V30 11693 H 1117.3 -0.42237 3.64159 0
M  V30 11694 H 1116.95 -2.84625 4.14726 0
M  V30 11695 H 1116.65 -1.83427 5.58237 0
M  V30 11696 H 1118.18 -2.75699 5.44814 0
M  V30 11697 H 1119.59 -0.500822 5.71108 0
M  V30 11698 H 1117.99 0.237163 5.99631 0
M  V30 11699 H 1119.06 0.923065 4.76033 0
M  V30 11700 N 1120.4 -1.5685 0.153553 0
M  V30 11701 C 1121.62 -2.01135 -0.505904 0
M  V30 11702 C 1122.05 -1.03301 -1.57196 0
M  V30 11703 O 1121.41 -0.00976022 -1.81297 0
M  V30 11704 C 1121.46 -3.44129 -1.0774 0
M  V30 11705 O 1120.56 -3.49318 -2.19205 0
M  V30 11706 H 1119.9 -0.652496 -0.123062 0
M  V30 11707 H 1122.43 -2.03039 0.252216 0
M  V30 11708 H 1122.44 -3.83066 -1.40444 0
M  V30 11709 H 1121.12 -4.1484 -0.296754 0
M  V30 11710 H 1119.69 -3.22227 -1.8768 0
M  V30 11711 N 1121.88 0.120221 -1.57141 0
M  V30 11712 C 1123.13 0.826791 -1.83976 0
M  V30 11713 C 1123.44 1.81102 -0.739014 0
M  V30 11714 O 1124.65 2.56368 -0.893736 0
M  V30 11715 C 1123.1 1.52108 -3.26176 0
M  V30 11716 C 1122.71 0.577902 -4.44257 0
M  V30 11717 C 1124.45 2.21286 -3.62261 0
M  V30 11718 C 1122.36 1.27535 -5.77485 0
M  V30 11719 H 1121.29 0.312508 -0.686189 0
M  V30 11720 H 1123.94 0.0795343 -1.83328 0
M  V30 11721 H 1122.32 2.31492 -3.2129 0
M  V30 11722 H 1123.5 -0.182629 -4.60438 0
M  V30 11723 H 1121.81 -0.00684348 -4.16399 0
M  V30 11724 H 1124.41 2.74154 -4.59068 0
M  V30 11725 H 1124.75 2.99029 -2.89634 0
M  V30 11726 H 1125.29 1.48791 -3.68925 0
M  V30 11727 H 1122.02 0.539237 -6.53278 0
M  V30 11728 H 1121.54 2.00792 -5.65192 0
M  V30 11729 H 1123.22 1.80888 -6.21199 0
M  V30 11730 N 1123.36 1.52689 0.390367 0
M  V30 11731 C 1124.77 1.41909 0.730338 0
M  V30 11732 C 1124.97 0.538427 1.94173 0
M  V30 11733 O 1124.03 0.0113527 2.52497 0
M  V30 11734 C 1125.34 2.84737 0.966714 0
M  V30 11735 C 1126.89 2.94206 1.06827 0
M  V30 11736 C 1127.36 4.38042 1.33728 0
M  V30 11737 N 1128.86 4.4136 1.40553 0
M  V30 11738 C 1129.59 5.49735 1.63031 0
M  V30 11739 N 1129.09 6.68197 1.82988 0
M  V30 11740 N 1130.88 5.37276 1.65199 0
M  V30 11741 H 1123.03 2.08469 -0.406766 0
M  V30 11742 H 1125.29 0.940401 -0.11979 0
M  V30 11743 H 1125 3.51385 0.148725 0
M  V30 11744 H 1124.87 3.26909 1.88176 0
M  V30 11745 H 1127.26 2.27726 1.87683 0
M  V30 11746 H 1127.34 2.55463 0.131168 0
M  V30 11747 H 1126.99 5.05087 0.533832 0
M  V30 11748 H 1126.92 4.74336 2.28721 0
M  V30 11749 H 1129.41 3.55976 1.26844 0
M  V30 11750 H 1129.72 7.46567 1.99643 0
M  V30 11751 H 1128.06 6.71228 1.80215 0
M  V30 11752 H 1131.26 4.437 1.49158 0
M  V30 11753 H 1131.43 6.21806 1.82377 0
M  V30 11754 N 1124.83 -0.648732 1.43629 0
M  V30 11755 C 1125.74 -1.79046 1.51591 0
M  V30 11756 C 1126.76 -1.69276 0.402697 0
M  V30 11757 O 1127.94 -1.90366 0.657484 0
M  V30 11758 C 1125 -3.15347 1.44073 0
M  V30 11759 C 1124.06 -3.3688 2.66102 0
M  V30 11760 C 1123.3 -4.66679 2.58933 0
M  V30 11761 O 1123.52 -5.46328 1.63956 0
M  V30 11762 O 1122.45 -4.9003 3.49506 0
M  V30 11763 H 1126.28 -1.75283 2.48011 0
M  V30 11764 H 1123.86 -0.807774 1.2568 0
M  V30 11765 H 1125.75 -3.96633 1.42339 0
M  V30 11766 H 1124.42 -3.19691 0.50789 0
M  V30 11767 H 1123.33 -2.55341 2.73407 0
M  V30 11768 H 1124.66 -3.37386 3.58373 0
M  V30 11769 O 1126.35 -1.40755 -0.791854 0
M  V30 11770 H 1127.04 -1.29799 -1.43777 0
M  V30 END ATOM
M  V30 BEGIN BOND
M  V30 END BOND
M  V30 END CTAB
M  END
$$$$
