drugbank_target|P30049 ATP synthase subunit delta, mitochondrial (DB00753; DB01189)
 OpenBabel12092119323D

  0  0  0     0  0            999 V3000
M  V30 BEGIN CTAB
M  V30 COUNTS 2481 2499 0 0 0
M  V30 BEGIN ATOM
M  V30 1 H -0.908 1.98254 -0.117106 0
M  V30 2 N 0 1.576 0 0
M  V30 3 C 0.933 2.03868 1.02534 0
M  V30 4 C 1.911 0.928543 1.3348 0
M  V30 5 O 3.095 1.19667 1.45644 0
M  V30 6 C 0.222 2.43627 2.35294 0
M  V30 7 C -0.732 3.65373 2.2001 0
M  V30 8 S 0.101 5.13292 1.52614 0
M  V30 9 C 1.257 5.56322 2.86805 0
M  V30 10 H 1.49 2.90518 0.631377 0
M  V30 11 H -0.977 1.52953 0.210867 0
M  V30 12 H 0.981 2.67203 3.11629 0
M  V30 13 H -0.358 1.57376 2.7183 0
M  V30 14 H -1.165 3.90944 3.18086 0
M  V30 15 H -1.563 3.418 1.51819 0
M  V30 16 H 0.729 5.58782 3.83104 0
M  V30 17 H 1.672 6.56266 2.65933 0
M  V30 18 H 2.08 4.83886 2.90714 0
M  V30 19 N 1.4781 -0.272755 1.55222 0
M  V30 20 C 2.4081 -1.34136 1.91127 0
M  V30 21 C 3.3891 -1.51513 0.773168 0
M  V30 22 O 4.5741 -1.64552 1.03132 0
M  V30 23 C 1.7041 -2.70083 2.1834 0
M  V30 24 C 0.6581 -2.67437 3.34158 0
M  V30 25 C -0.0159 -4.06938 3.46851 0
M  V30 26 C 1.2841 -2.26686 4.70543 0
M  V30 27 H 2.9781 -1.04333 2.80633 0
M  V30 28 H 0.5241 -0.500454 1.35024 0
M  V30 29 H 2.4771 -3.44952 2.42046 0
M  V30 30 H 1.2011 -3.01469 1.25634 0
M  V30 31 H -0.1399 -1.95026 3.1042 0
M  V30 32 H -0.4919 -4.35547 2.51611 0
M  V30 33 H -0.7919 -4.06062 4.2472 0
M  V30 34 H 0.7321 -4.83545 3.72849 0
M  V30 35 H 2.1461 -2.91277 4.93792 0
M  V30 36 H 0.5431 -2.36971 5.5133 0
M  V30 37 H 1.6131 -1.21818 4.69349 0
M  V30 38 N 2.9562 -1.48159 -0.537278 0
M  V30 39 C 4.3672 -1.49429 -1.11928 0
M  V30 40 C 4.7182 -0.26 -1.9447 0
M  V30 41 O 3.8432 0.633489 -2.0692 0
M  V30 42 C 4.4382 -2.70758 -2.03656 0
M  V30 43 C 2.9972 -2.74923 -2.57088 0
M  V30 44 C 2.1442 -2.42835 -1.3389 0
M  V30 45 H 5.0952 -1.55381 -0.322886 0
M  V30 46 H 5.1162 -2.48861 -2.87834 0
M  V30 47 H 4.6282 -3.60575 -1.43553 0
M  V30 48 H 2.7292 -1.89296 -3.20933 0
M  V30 49 H 2.8422 -3.76157 -2.9672 0
M  V30 50 H 1.2062 -1.93836 -1.65226 0
M  V30 51 H 1.9892 -3.34884 -0.755504 0
M  V30 52 N 4.4343 0.785586 -1.36625 0
M  V30 53 C 5.3973 1.87999 -1.31107 0
M  V30 54 C 6.3973 1.59316 -0.217959 0
M  V30 55 O 7.5873 1.67656 -0.472977 0
M  V30 56 C 4.7193 3.24861 -1.03334 0
M  V30 57 H 5.9123 1.94307 -2.2844 0
M  V30 58 H 3.4653 0.983813 -1.21453 0
M  V30 59 H 4.2003 3.24235 -0.0647432 0
M  V30 60 H 3.9853 3.4707 -1.82441 0
M  V30 61 H 5.4753 4.04929 -1.02088 0
M  V30 62 N 5.9124 1.20967 1.01018 0
M  V30 63 C 6.8754 0.965918 2.07853 0
M  V30 64 C 7.8754 -0.0610545 1.60684 0
M  V30 65 O 9.0654 0.175681 1.73312 0
M  V30 66 C 6.1974 0.455513 3.37843 0
M  V30 67 H 7.3904 1.91365 2.3091 0
M  V30 68 H 4.9434 1.02594 1.17916 0
M  V30 69 H 5.6784 -0.497381 3.20463 0
M  V30 70 H 5.4634 1.19622 3.73407 0
M  V30 71 H 6.9534 0.304667 4.16487 0
M  V30 72 N 7.3905 -1.2043 1.01659 0
M  V30 73 C 8.3205 -2.25466 0.607226 0
M  V30 74 C 9.3015 -1.65853 -0.377716 0
M  V30 75 O 10.4865 -1.92409 -0.263149 0
M  V30 76 C 7.6165 -3.47256 -0.0552949 0
M  V30 77 C 6.5705 -4.19462 0.850632 0
M  V30 78 C 5.8965 -5.34673 0.0538859 0
M  V30 79 C 7.1965 -4.75603 2.15868 0
M  V30 80 H 8.8905 -2.59962 1.48526 0
M  V30 81 H 6.4365 -1.2496 0.715605 0
M  V30 82 H 8.3895 -4.19917 -0.353233 0
M  V30 83 H 7.1135 -3.11924 -0.968045 0
M  V30 84 H 5.7725 -3.48667 1.13257 0
M  V30 85 H 5.4205 -4.95585 -0.860514 0
M  V30 86 H 5.1205 -5.83913 0.657192 0
M  V30 87 H 6.6445 -6.10138 -0.237598 0
M  V30 88 H 8.0585 -5.40083 1.92311 0
M  V30 89 H 6.4555 -5.3528 2.71284 0
M  V30 90 H 7.5255 -3.94346 2.82169 0
M  V30 91 N 8.8686 -0.792821 -1.36206 0
M  V30 92 C 9.7986 -0.207853 -2.32573 0
M  V30 93 C 10.7796 0.659055 -1.56813 0
M  V30 94 O 11.9646 0.592176 -1.84951 0
M  V30 95 C 9.0946 0.655449 -3.41059 0
M  V30 96 C 8.0486 -0.111842 -4.27854 0
M  V30 97 C 7.3746 0.872274 -5.27537 0
M  V30 98 C 8.6746 -1.30299 -5.05786 0
M  V30 99 H 10.3686 -1.01294 -2.81744 0
M  V30 100 H 7.9146 -0.48854 -1.3546 0
M  V30 101 H 9.8676 1.07464 -4.07467 0
M  V30 102 H 8.5916 1.49328 -2.90463 0
M  V30 103 H 7.2506 -0.512053 -3.63006 0
M  V30 104 H 6.8986 1.70523 -4.73214 0
M  V30 105 H 6.5986 0.363291 -5.86476 0
M  V30 106 H 8.1226 1.28996 -5.96818 0
M  V30 107 H 9.5366 -0.959379 -5.65216 0
M  V30 108 H 7.9336 -1.7455 -5.74154 0
M  V30 109 H 9.0036 -2.09663 -4.37229 0
M  V30 110 N 10.3467 1.47872 -0.545128 0
M  V30 111 C 11.7627 1.5829 -0.204032 0
M  V30 112 C 11.9627 1.54529 1.29317 0
M  V30 113 O 11.0187 1.44232 2.07252 0
M  V30 114 C 12.3317 2.89304 -0.819987 0
M  V30 115 C 13.8797 3.02864 -0.790105 0
M  V30 116 C 14.3547 4.3656 -1.38491 0
M  V30 117 N 15.8457 4.43165 -1.34755 0
M  V30 118 C 16.5807 5.45153 -1.77753 0
M  V30 119 N 16.0767 6.54016 -2.2855 0
M  V30 120 N 17.8697 5.36125 -1.68897 0
M  V30 121 H 10.0207 1.4856 -1.51802 0
M  V30 122 H 12.2837 0.706305 -0.632327 0
M  V30 123 H 11.9897 2.97757 -1.87173 0
M  V30 124 H 11.8637 3.75957 -0.305915 0
M  V30 125 H 14.2507 2.94014 0.252913 0
M  V30 126 H 14.3317 2.17782 -1.34181 0
M  V30 127 H 13.9757 4.46164 -2.42693 0
M  V30 128 H 13.9057 5.20353 -0.808754 0
M  V30 129 H 16.3967 3.65083 -0.975855 0
M  V30 130 H 16.7097 7.27994 -2.59314 0
M  V30 131 H 15.0547 6.54938 -2.32553 0
M  V30 132 H 18.2457 4.49975 -1.28998 0
M  V30 133 H 18.4187 6.15472 -2.02726 0
M  V30 134 N 11.8248 0.280983 1.55075 0
M  V30 135 C 13.2408 -0.0729964 1.59433 0
M  V30 136 C 13.4408 -1.5411 1.29817 0
M  V30 137 O 12.4968 -2.29086 1.06187 0
M  V30 138 C 13.8098 0.306921 2.9913 0
M  V30 139 C 15.3578 0.254023 3.11968 0
M  V30 140 C 15.8328 0.608467 4.5394 0
M  V30 141 N 17.3238 0.560241 4.59799 0
M  V30 142 C 18.0588 0.80722 5.6769 0
M  V30 143 N 17.5548 1.11912 6.83701 0
M  V30 144 N 19.3478 0.735623 5.57266 0
M  V30 145 H 11.4988 1.238 1.7259 0
M  V30 146 H 13.7618 0.500547 0.805082 0
M  V30 147 H 13.4678 1.32816 3.25657 0
M  V30 148 H 13.3418 -0.349363 3.75579 0
M  V30 149 H 15.7288 -0.75794 2.852 0
M  V30 150 H 15.8098 0.944649 2.37718 0
M  V30 151 H 15.4538 1.61814 4.81434 0
M  V30 152 H 15.3838 -0.104013 5.26497 0
M  V30 153 H 17.8748 0.329288 3.76463 0
M  V30 154 H 18.1878 1.29409 7.61888 0
M  V30 155 H 16.5328 1.15695 6.85303 0
M  V30 156 H 19.7238 0.491752 4.6551 0
M  V30 157 H 19.8968 0.931482 6.4127 0
M  V30 158 N 13.3029 -1.57598 0.00835791 0
M  V30 159 C 14.7139 -1.7892 -0.53333 0
M  V30 160 C 15.0649 -0.916609 -1.73473 0
M  V30 161 O 14.1899 -0.121336 -2.1606 0
M  V30 162 C 14.7849 -3.24488 -0.974313 0
M  V30 163 C 13.3439 -3.46878 -1.46125 0
M  V30 164 C 12.4909 -2.74157 -0.416302 0
M  V30 165 H 15.4419 -1.56958 0.234495 0
M  V30 166 H 15.4629 -3.3306 -1.83988 0
M  V30 167 H 14.9749 -3.87972 -0.099718 0
M  V30 168 H 13.0759 -2.8862 -2.35646 0
M  V30 169 H 13.1889 -4.55572 -1.48295 0
M  V30 170 H 11.5529 -2.39022 -0.87981 0
M  V30 171 H 12.3359 -3.40345 0.44947 0
M  V30 172 N 14.781 0.264519 -1.55364 0
M  V30 173 C 16.029 0.993021 -1.76021 0
M  V30 174 C 16.35 1.86511 -0.569099 0
M  V30 175 O 15.62 1.91438 0.415735 0
M  V30 176 H 14.2 0.369639 -0.649135 0
M  V30 177 H 16.862 0.286707 -1.9278 0
M  V30 178 H 15.958 1.62502 -2.66457 0
M  V30 179 N 16.2591 1.48442 0.529413 0
M  V30 180 C 17.1891 1.65902 1.64313 0
M  V30 181 C 18.1701 0.507897 1.6234 0
M  V30 182 O 19.3551 0.740503 1.79528 0
M  V30 183 C 16.4851 1.69911 3.02898 0
M  V30 184 C 15.4391 2.8453 3.19729 0
M  V30 185 C 14.7651 2.73629 4.59381 0
M  V30 186 C 16.0651 4.25821 3.02447 0
M  V30 187 H 17.7591 2.5914 1.49955 0
M  V30 188 H 15.3051 1.24709 0.719982 0
M  V30 189 H 17.2581 1.80715 3.80684 0
M  V30 190 H 15.9821 0.732524 3.18279 0
M  V30 191 H 14.6411 2.73283 2.44361 0
M  V30 192 H 14.2891 1.74938 4.71599 0
M  V30 193 H 13.9891 3.50541 4.71588 0
M  V30 194 H 15.5131 2.86401 5.39265 0
M  V30 195 H 16.9271 4.37898 3.70024 0
M  V30 196 H 15.3241 5.03735 3.26146 0
M  V30 197 H 16.3941 4.42244 1.98867 0
M  V30 198 N 17.7372 -0.778329 1.37039 0
M  V30 199 C 18.9852 -1.53361 1.31623 0
M  V30 200 C 19.3062 -1.94739 -0.100831 0
M  V30 201 O 18.5762 -1.65797 -1.04347 0
M  V30 202 H 17.1562 -0.568794 0.484234 0
M  V30 203 H 19.8182 -0.926742 1.71457 0
M  V30 204 H 18.9142 -2.43606 1.95096 0
M  V30 205 N 19.2153 -1.21501 -1.00376 0
M  V30 206 C 20.6313 -0.972629 -1.26539 0
M  V30 207 C 20.8313 0.340257 -1.98606 0
M  V30 208 O 19.8873 1.06561 -2.28913 0
M  V30 209 C 21.2003 -2.16404 -2.08781 0
M  V30 210 C 22.7483 -2.20643 -2.22004 0
M  V30 211 C 23.2233 -3.39306 -3.07629 0
M  V30 212 N 24.7143 -3.39401 -3.15217 0
M  V30 213 C 25.4493 -4.27867 -3.81729 0
M  V30 214 N 24.9453 -5.26533 -4.5026 0
M  V30 215 N 26.7383 -4.15672 -3.78382 0
M  V30 216 H 18.8893 -2.05929 -0.520281 0
M  V30 217 H 21.1523 -0.901803 -0.292328 0
M  V30 218 H 20.8583 -3.11554 -1.63178 0
M  V30 219 H 20.7323 -2.15567 -3.09533 0
M  V30 220 H 23.1193 -1.26048 -2.66825 0
M  V30 221 H 23.2003 -2.25523 -1.20718 0
M  V30 222 H 22.8443 -4.34195 -2.63509 0
M  V30 223 H 22.7743 -3.31665 -4.09031 0
M  V30 224 H 25.2653 -2.67997 -2.66432 0
M  V30 225 H 25.5783 -5.90337 -4.98721 0
M  V30 226 H 23.9233 -5.30457 -4.49044 0
M  V30 227 H 27.1143 -3.3785 -3.23998 0
M  V30 228 H 27.2873 -4.84825 -4.2994 0
M  V30 229 N 20.6934 1.19889 -1.02296 0
M  V30 230 C 21.6234 2.25141 -0.619174 0
M  V30 231 C 22.6044 1.66051 0.368915 0
M  V30 232 O 23.7894 1.92546 0.252941 0
M  V30 233 C 20.9194 3.4728 0.0368783 0
M  V30 234 C 19.8734 4.19005 -0.872865 0
M  V30 235 C 19.1994 5.34637 -0.0822402 0
M  V30 236 C 20.4994 4.74452 -2.18387 0
M  V30 237 H 22.1934 2.59171 -1.49903 0
M  V30 238 H 19.7394 1.24579 -0.722222 0
M  V30 239 H 21.6924 4.20098 0.330958 0
M  V30 240 H 20.4164 3.12433 0.95149 0
M  V30 241 H 19.0754 3.48061 -1.15105 0
M  V30 242 H 18.7234 4.96034 0.83422 0
M  V30 243 H 18.4234 5.83557 -0.688149 0
M  V30 244 H 19.9474 6.10255 0.205238 0
M  V30 245 H 21.3614 5.39055 -1.95172 0
M  V30 246 H 19.7584 5.33834 -2.74119 0
M  V30 247 H 20.8284 3.92844 -2.84257 0
M  V30 248 N 22.1715 0.800033 1.35784 0
M  V30 249 C 23.4175 0.377901 1.99248 0
M  V30 250 C 23.7505 -1.05052 1.63333 0
M  V30 251 O 23.0255 -1.72768 0.893385 0
M  V30 252 C 23.3085 0.553922 3.55814 0
M  V30 253 C 23.1615 2.0268 4.01548 0
M  V30 254 C 24.4805 -0.0244802 4.40093 0
M  V30 255 H 21.5995 0.138782 0.723815 0
M  V30 256 H 24.2415 1.00835 1.61035 0
M  V30 257 H 22.3915 0.0172398 3.88496 0
M  V30 258 H 24.0635 2.62536 3.79305 0
M  V30 259 H 22.3065 2.5256 3.52698 0
M  V30 260 H 22.9775 2.10087 5.10458 0
M  V30 261 H 25.4535 0.433775 4.13833 0
M  V30 262 H 24.3295 0.128637 5.48749 0
M  V30 263 H 24.5905 -1.11758 4.27741 0
M  V30 264 N 23.6496 -1.47581 0.552962 0
M  V30 265 C 25.0656 -1.5818 0.212424 0
M  V30 266 C 25.2656 -1.55213 -1.28496 0
M  V30 267 O 24.3216 -1.45329 -2.06484 0
M  V30 268 C 25.6346 -2.88865 0.835318 0
M  V30 269 C 27.1826 -3.0244 0.806156 0
M  V30 270 C 27.6576 -4.35819 1.40804 0
M  V30 271 N 29.1486 -4.42444 1.37103 0
M  V30 272 C 29.8836 -5.44202 1.80641 0
M  V30 273 N 29.3796 -6.52795 2.32015 0
M  V30 274 N 31.1726 -5.35222 1.71738 0
M  V30 275 H 23.3236 -1.47753 1.52587 0
M  V30 276 H 25.5866 -0.702941 0.636064 0
M  V30 277 H 25.2926 -2.9676 1.88749 0
M  V30 278 H 25.1666 -3.7579 0.325848 0
M  V30 279 H 27.5536 -2.94144 -0.237317 0
M  V30 280 H 27.6346 -2.17068 1.35334 0
M  V30 281 H 27.2786 -4.44871 2.45056 0
M  V30 282 H 27.2086 -5.19916 0.836338 0
M  V30 283 H 29.6996 -3.6456 0.995202 0
M  V30 284 H 30.0126 -7.26609 2.63171 0
M  V30 285 H 28.3576 -6.53696 2.36023 0
M  V30 286 H 31.5486 -4.49284 1.31382 0
M  V30 287 H 31.7216 -6.14389 2.05987 0
M  V30 288 N 25.1277 -0.289203 -1.54924 0
M  V30 289 C 26.0777 0.606939 -2.19773 0
M  V30 290 C 27.0617 1.10783 -1.16687 0
M  V30 291 O 28.2537 1.05057 -1.4245 0
M  V30 292 C 25.3827 1.78398 -2.93307 0
M  V30 293 C 24.4687 1.29961 -4.03697 0
M  V30 294 N 24.8597 0.532377 -5.0299 0
M  V30 295 C 23.1577 1.58136 -4.17024 0
M  V30 296 C 23.8587 0.275912 -5.81045 0
M  V30 297 N 22.8347 0.852365 -5.36876 0
M  V30 298 H 26.6367 0.0130779 -2.93897 0
M  V30 299 H 24.1507 -0.09341 -1.62131 0
M  V30 300 H 26.1477 2.43741 -3.38225 0
M  V30 301 H 24.8077 2.38166 -2.20697 0
M  V30 302 H 25.8187 0.17838 -5.17593 0
M  V30 303 H 22.4957 2.18738 -3.55612 0
M  V30 304 H 23.8857 -0.339502 -6.71042 0
M  V30 305 N 26.6058 1.57591 -0.0167156 0
M  V30 306 C 27.5688 2.08393 0.954204 0
M  V30 307 C 28.5688 0.996531 1.26198 0
M  V30 308 O 29.7588 1.25858 1.20438 0
M  V30 309 C 26.8908 2.5394 2.27436 0
M  V30 310 H 28.0838 2.95455 0.514451 0
M  V30 311 H 25.6368 1.54582 0.231089 0
M  V30 312 H 26.3718 1.70171 2.76066 0
M  V30 313 H 26.1568 3.33371 2.06412 0
M  V30 314 H 27.6468 2.93512 2.97053 0
M  V30 315 N 28.0839 -0.256276 1.55502 0
M  V30 316 C 29.4999 -0.604325 1.47716 0
M  V30 317 C 29.6999 -1.88763 0.705039 0
M  V30 318 O 28.7559 -2.51445 0.230613 0
M  V30 319 C 30.0689 -0.715756 2.92057 0
M  V30 320 C 31.6169 -0.808706 3.02372 0
M  V30 321 C 32.0919 -0.951777 4.48001 0
M  V30 322 N 33.5829 -1.01688 4.519 0
M  V30 323 C 34.3179 -1.14668 5.61817 0
M  V30 324 N 33.8139 -1.24261 6.81565 0
M  V30 325 N 35.6069 -1.1791 5.49594 0
M  V30 326 H 27.7579 0.586291 2.04148 0
M  V30 327 H 30.0209 0.201015 0.926443 0
M  V30 328 H 29.7269 0.157027 3.51349 0
M  V30 329 H 29.6009 -1.59071 3.42018 0
M  V30 330 H 31.9879 -1.67195 2.43166 0
M  V30 331 H 32.0689 0.0912063 2.55637 0
M  V30 332 H 31.7129 -0.0931291 5.07815 0
M  V30 333 H 31.6429 -1.86659 4.92408 0
M  V30 334 H 34.1339 -0.954468 3.65648 0
M  V30 335 H 34.4469 -1.34046 7.61086 0
M  V30 336 H 32.7919 -1.21236 6.84344 0
M  V30 337 H 35.9829 -1.10057 4.54978 0
M  V30 338 H 36.1559 -1.27681 6.35296 0
M  V30 339 N 29.562 -1.4872 -0.521534 0
M  V30 340 C 30.525 -1.63379 -1.60748 0
M  V30 341 C 31.525 -0.50661 -1.52611 0
M  V30 342 O 32.715 -0.772601 -1.5613 0
M  V30 343 C 29.847 -1.61192 -3.00383 0
M  V30 344 H 31.04 -2.60217 -1.49087 0
M  V30 345 H 28.593 -1.37444 -0.744235 0
M  V30 346 H 29.328 -0.65863 -3.17541 0
M  V30 347 H 29.113 -2.43032 -3.07698 0
M  V30 348 H 30.603 -1.7466 -3.7932 0
M  V30 349 N 31.0401 0.771051 -1.3745 0
M  V30 350 C 32.2701 1.55789 -1.35696 0
M  V30 351 C 32.6781 1.89107 0.0594523 0
M  V30 352 O 32.0211 1.51984 1.03183 0
M  V30 353 C 32.0831 2.89515 -2.13123 0
M  V30 354 C 31.7471 2.78829 -3.62082 0
M  V30 355 C 32.7441 2.49812 -4.5595 0
M  V30 356 C 30.4291 2.9683 -4.05213 0
M  V30 357 C 32.4231 2.38923 -5.90927 0
M  V30 358 C 30.1101 2.85562 -5.40276 0
M  V30 359 C 31.1081 2.56649 -6.32946 0
M  V30 360 O 30.7961 2.45408 -7.65526 0
M  V30 361 H 30.5281 0.489257 -0.466481 0
M  V30 362 H 33.0821 0.963446 -1.81403 0
M  V30 363 H 31.3121 3.51081 -1.62107 0
M  V30 364 H 33.0011 3.50915 -2.03994 0
M  V30 365 H 33.7671 2.3559 -4.23937 0
M  V30 366 H 29.6461 3.18335 -3.33442 0
M  V30 367 H 33.1901 2.16277 -6.63227 0
M  V30 368 H 29.0871 2.99351 -5.71891 0
M  V30 369 H 29.8551 2.60753 -7.75855 0
M  V30 370 N 32.5182 1.22032 0.997298 0
M  V30 371 C 33.4812 0.987909 2.06816 0
M  V30 372 C 34.4812 -0.0440084 1.6074 0
M  V30 373 O 35.6712 0.194053 1.73116 0
M  V30 374 C 32.8032 0.49132 3.37341 0
M  V30 375 H 33.9962 1.93803 2.28868 0
M  V30 376 H 31.5492 1.03838 1.16822 0
M  V30 377 H 32.2842 -0.463364 3.20973 0
M  V30 378 H 32.0692 1.23575 3.72118 0
M  V30 379 H 33.5592 0.348824 4.16141 0
M  V30 380 N 33.9963 -1.19345 1.0293 0
M  V30 381 C 34.9063 -2.26245 0.620515 0
M  V30 382 C 35.9223 -1.70486 -0.347928 0
M  V30 383 O 37.0983 -2.00347 -0.205704 0
M  V30 384 C 34.1633 -3.46693 -0.0218957 0
M  V30 385 C 33.2243 -4.17632 0.994102 0
M  V30 386 C 32.4573 -5.32329 0.382253 0
M  V30 387 O 32.6803 -5.64552 -0.814676 0
M  V30 388 O 31.6143 -5.91664 1.10531 0
M  V30 389 H 35.4403 -2.63453 1.51083 0
M  V30 390 H 33.0253 -1.26207 0.799513 0
M  V30 391 H 34.9073 -4.19683 -0.380072 0
M  V30 392 H 33.5823 -3.11333 -0.886209 0
M  V30 393 H 32.4893 -3.4676 1.40387 0
M  V30 394 H 33.8223 -4.56964 1.8288 0
M  V30 395 N 35.4744 -0.807222 -1.35358 0
M  V30 396 C 36.4374 -0.223665 -2.28106 0
M  V30 397 C 37.4374 0.589354 -1.4961 0
M  V30 398 O 38.6274 0.407745 -1.69361 0
M  V30 399 C 35.7594 0.688149 -3.33882 0
M  V30 400 H 36.9524 -1.04169 -2.81227 0
M  V30 401 H 34.5054 -0.577921 -1.45223 0
M  V30 402 H 35.2404 1.52984 -2.85948 0
M  V30 403 H 35.0254 0.10687 -3.91954 0
M  V30 404 H 36.5154 1.09075 -4.03104 0
M  V30 405 N 36.9525 1.47285 -0.560781 0
M  V30 406 C 37.9155 2.28535 0.174488 0
M  V30 407 C 38.9155 1.37153 0.839388 0
M  V30 408 O 40.1055 1.59748 0.694702 0
M  V30 409 C 37.2375 3.16934 1.25561 0
M  V30 410 H 38.4305 2.95012 -0.539262 0
M  V30 411 H 35.9835 1.53034 -0.317865 0
M  V30 412 H 36.7185 2.55157 2.00164 0
M  V30 413 H 36.5035 3.8419 0.783604 0
M  V30 414 H 37.9935 3.78143 1.77193 0
M  V30 415 N 38.4306 0.297415 1.54768 0
M  V30 416 C 39.3936 -0.567375 2.22066 0
M  V30 417 C 40.3936 -1.06409 1.20556 0
M  V30 418 O 41.5836 -0.960691 1.45315 0
M  V30 419 C 38.7156 -1.78517 2.90421 0
M  V30 420 H 39.9086 0.0205534 2.99893 0
M  V30 421 H 37.4616 0.0482163 1.56226 0
M  V30 422 H 38.1966 -2.41303 2.16664 0
M  V30 423 H 37.9816 -1.43669 3.64831 0
M  V30 424 H 39.4716 -2.39964 3.41771 0
M  V30 425 N 39.9087 -1.5758 0.0250728 0
M  V30 426 C 40.8717 -2.08896 -0.943139 0
M  V30 427 C 41.8717 -1.00321 -1.25668 0
M  V30 428 O 43.0617 -1.26495 -1.19769 0
M  V30 429 C 40.1937 -2.55143 -2.26086 0
M  V30 430 H 41.3867 -2.95723 -0.498775 0
M  V30 431 H 38.9397 -1.54703 -0.222888 0
M  V30 432 H 39.6747 -1.71633 -2.75159 0
M  V30 433 H 39.4597 -3.34461 -2.04641 0
M  V30 434 H 40.9497 -2.95083 -2.95492 0
M  V30 435 N 41.3868 0.248026 -1.55636 0
M  V30 436 C 42.7978 0.817177 -1.67866 0
M  V30 437 C 43.1488 1.86069 -0.622322 0
M  V30 438 O 42.2738 2.15157 0.231618 0
M  V30 439 C 42.8688 1.489 -3.04326 0
M  V30 440 C 41.4278 2.00587 -3.185 0
M  V30 441 C 40.5748 0.856573 -2.63739 0
M  V30 442 H 43.5258 0.0238579 -1.58682 0
M  V30 443 H 43.5468 2.35698 -2.98708 0
M  V30 444 H 43.0588 0.729279 -3.81186 0
M  V30 445 H 41.1598 2.79443 -2.4646 0
M  V30 446 H 41.2728 2.20402 -4.25393 0
M  V30 447 H 39.6368 1.25678 -2.21534 0
M  V30 448 H 40.4198 0.109953 -3.43124 0
M  V30 449 N 42.8649 1.48995 0.513639 0
M  V30 450 C 43.8279 1.64229 1.59879 0
M  V30 451 C 44.8279 0.514696 1.5234 0
M  V30 452 O 46.0179 0.78087 1.55718 0
M  V30 453 C 43.1499 1.62783 2.99524 0
M  V30 454 H 44.3429 2.61004 1.47705 0
M  V30 455 H 41.8959 1.37837 0.736936 0
M  V30 456 H 42.6309 0.675461 3.17188 0
M  V30 457 H 42.4159 2.4466 3.06404 0
M  V30 458 H 43.9059 1.76669 3.78388 0
M  V30 459 N 44.343 -0.763751 1.37857 0
M  V30 460 C 45.306 -1.85889 1.34081 0
M  V30 461 C 46.306 -1.58949 0.243277 0
M  V30 462 O 47.496 -1.66882 0.499589 0
M  V30 463 C 44.628 -3.23176 1.08489 0
M  V30 464 H 45.821 -1.90648 2.31502 0
M  V30 465 H 43.374 -0.964367 1.23003 0
M  V30 466 H 44.109 -3.24091 0.116318 0
M  V30 467 H 43.894 -3.44124 1.8794 0
M  V30 468 H 45.384 -4.03254 1.08517 0
M  V30 469 N 45.8211 -1.22559 -0.990812 0
M  V30 470 C 46.7841 -0.998863 -2.0629 0
M  V30 471 C 47.7841 0.0354834 -1.60761 0
M  V30 472 O 48.9741 -0.203231 -1.7301 0
M  V30 473 C 46.1061 -0.509203 -3.37076 0
M  V30 474 H 47.2991 -1.95014 -2.27837 0
M  V30 475 H 44.8521 -1.04456 -1.16269 0
M  V30 476 H 45.5871 0.446335 -3.21214 0
M  V30 477 H 45.3721 -1.25547 -3.71457 0
M  V30 478 H 46.8621 -0.370888 -4.1595 0
M  V30 479 N 47.2992 1.18797 -1.03562 0
M  V30 480 C 48.5242 1.9314 -0.755764 0
M  V30 481 C 48.9492 1.7537 0.68022 0
M  V30 482 O 48.3072 1.06046 1.47051 0
M  V30 483 C 48.3552 3.42747 -1.12058 0
M  V30 484 O 47.4592 4.11683 -0.243124 0
M  V30 485 H 46.8002 0.602724 -0.278604 0
M  V30 486 H 49.3302 1.50678 -1.3841 0
M  V30 487 H 49.3402 3.93437 -1.08035 0
M  V30 488 H 48.0152 3.55002 -2.16672 0
M  V30 489 H 46.5922 3.71323 -0.342539 0
M  V30 490 N 48.7773 0.814389 1.34928 0
M  V30 491 C 50.0253 0.397636 1.9815 0
M  V30 492 C 50.3463 -1.04069 1.64908 0
M  V30 493 O 49.6163 -1.72121 0.93548 0
M  V30 494 H 48.1963 0.144043 0.732981 0
M  V30 495 H 50.8583 1.04195 1.6471 0
M  V30 496 H 49.9543 0.509688 3.0791 0
M  V30 497 N 50.2554 -1.46986 0.568584 0
M  V30 498 C 51.6664 -1.86188 0.138219 0
M  V30 499 C 52.0174 -1.47388 -1.29504 0
M  V30 500 O 51.1424 -0.88219 -1.97602 0
M  V30 501 C 51.7374 -3.3792 0.244065 0
M  V30 502 C 50.2964 -3.76171 -0.131335 0
M  V30 503 C 49.4434 -2.71027 0.586465 0
M  V30 504 H 52.3944 -1.38342 0.777645 0
M  V30 505 H 52.4154 -3.76729 -0.534351 0
M  V30 506 H 51.9274 -3.66128 1.28731 0
M  V30 507 H 50.0284 -3.5358 -1.17526 0
M  V30 508 H 50.1414 -4.78523 0.235146 0
M  V30 509 H 48.5054 -2.54684 0.0282722 0
M  V30 510 H 49.2884 -3.02077 1.63109 0
M  V30 511 N 51.7335 -0.305618 -1.54608 0
M  V30 512 C 52.6815 0.584119 -2.25146 0
M  V30 513 C 53.6755 1.13326 -1.25911 0
M  V30 514 O 54.8815 1.08337 -1.43747 0
M  V30 515 H 51.2565 0.206983 -0.722954 0
M  V30 516 H 53.2275 -0.033291 -2.98381 0
M  V30 517 C 51.9765 1.74225 -3.009 0
M  V30 518 H 51.2995 1.32892 -3.77067 0
M  V30 519 H 52.7395 2.34077 -3.53531 0
M  V30 520 C 51.1985 2.64914 -2.0814 0
M  V30 521 O 51.7285 3.66137 -1.65246 0
M  V30 522 N 49.9345 2.3275 -1.74 0
M  V30 523 H 49.4815 1.50479 -2.09078 0
M  V30 524 H 49.4395 2.93694 -1.12211 0
M  V30 525 N 53.2116 1.57565 -0.0334293 0
M  V30 526 C 54.1436 2.0739 0.975811 0
M  V30 527 C 55.1566 0.998166 1.2861 0
M  V30 528 O 56.3456 1.27426 1.25 0
M  V30 529 C 53.4456 2.4871 2.30209 0
M  V30 530 C 52.6186 3.79413 2.17634 0
M  V30 531 C 51.6776 4.07237 3.33233 0
M  V30 532 O 50.7036 4.77425 3.09927 0
M  V30 533 N 51.9056 3.5775 4.5716 0
M  V30 534 H 54.6706 2.94598 0.55066 0
M  V30 535 H 52.2316 1.61173 0.15323 0
M  V30 536 H 54.2236 2.64413 3.06378 0
M  V30 537 H 52.7936 1.66845 2.64351 0
M  V30 538 H 52.0136 3.73465 1.26165 0
M  V30 539 H 53.3016 4.65038 2.0644 0
M  V30 540 H 52.6996 3.00976 4.78989 0
M  V30 541 H 51.2566 3.78724 5.30482 0
M  V30 542 N 54.6897 -0.239769 1.55765 0
M  V30 543 C 55.6227 -1.32356 1.85895 0
M  V30 544 C 56.6007 -1.46053 0.714662 0
M  V30 545 O 57.7847 -1.62154 0.961157 0
M  V30 546 C 54.9117 -2.6962 2.04994 0
M  V30 547 C 53.9577 -2.73036 3.27648 0
M  V30 548 S 54.7907 -2.28929 4.84099 0
M  V30 549 C 55.9467 -3.68103 5.06212 0
M  V30 550 H 56.1797 -1.06601 2.77531 0
M  V30 551 H 53.7127 -0.441112 1.47965 0
M  V30 552 H 55.6707 -3.48653 2.16682 0
M  V30 553 H 54.3317 -2.92609 1.14188 0
M  V30 554 H 53.5247 -3.7386 3.38 0
M  V30 555 H 53.1267 -2.02052 3.14723 0
M  V30 556 H 55.4187 -4.63656 4.93993 0
M  V30 557 H 56.3617 -3.6268 6.08168 0
M  V30 558 H 56.7697 -3.60947 4.34025 0
M  V30 559 N 56.1678 -1.49265 -0.50573 0
M  V30 560 C 57.3928 -1.62478 -1.28902 0
M  V30 561 C 57.8178 -0.294332 -1.85783 0
M  V30 562 O 57.1758 0.737412 -1.65626 0
M  V30 563 C 57.2238 -2.69268 -2.39848 0
M  V30 564 O 56.3278 -2.28113 -3.43567 0
M  V30 565 H 55.6688 -0.54399 -0.380751 0
M  V30 566 H 58.1988 -1.95421 -0.605952 0
M  V30 567 H 58.2088 -2.91291 -2.85681 0
M  V30 568 H 56.8838 -3.65846 -1.97812 0
M  V30 569 H 55.4608 -2.16401 -3.03685 0
M  V30 570 N 57.6459 0.756429 -1.3826 0
M  V30 571 C 58.8929 1.51547 -1.34312 0
M  V30 572 C 59.2209 1.94382 0.0677144 0
M  V30 573 O 58.4759 1.65514 1.04421 0
M  V30 574 C 58.7749 2.78313 -2.24224 0
M  V30 575 C 58.4409 2.54455 -3.72241 0
M  V30 576 C 57.1029 2.47657 -4.12576 0
M  V30 577 C 59.4549 2.3354 -4.65949 0
M  V30 578 C 56.7829 2.17956 -5.44713 0
M  V30 579 C 59.1349 2.05359 -5.9834 0
M  V30 580 C 57.7989 1.97016 -6.37762 0
M  V30 581 H 57.0689 0.55455 -0.491482 0
M  V30 582 H 59.7159 0.870039 -1.70595 0
M  V30 583 H 58.0209 3.47492 -1.80987 0
M  V30 584 H 59.7179 3.36259 -2.18474 0
M  V30 585 H 56.3079 2.60616 -3.40261 0
M  V30 586 H 60.4919 2.37772 -4.35635 0
M  V30 587 H 55.7479 2.10003 -5.74203 0
M  V30 588 H 59.9219 1.88179 -6.70494 0
M  V30 589 H 57.5489 1.73766 -7.40074 0
M  V30 590 N 59.124 1.23083 0.984299 0
M  V30 591 C 60.352 1.08714 1.76037 0
M  V30 592 C 60.767 -0.361691 1.85303 0
M  V30 593 O 60.124 -1.25034 1.32939 0
M  V30 594 C 60.175 1.70206 3.18923 0
M  V30 595 O 59.896 3.09423 3.10144 0
M  V30 596 C 61.397 1.61227 4.12941 0
M  V30 597 H 58.617 0.380664 0.552572 0
M  V30 598 H 61.161 1.62853 1.23689 0
M  V30 599 H 59.316 1.20109 3.6831 0
M  V30 600 H 59.73 3.39188 4.00065 0
M  V30 601 H 61.204 2.08962 5.10919 0
M  V30 602 H 61.681 0.570375 4.35481 0
M  V30 603 H 62.287 2.10671 3.69456 0
M  V30 604 N 60.6021 -1.18246 1.0419 0
M  V30 605 C 61.8491 -1.88257 0.746017 0
M  V30 606 C 62.1771 -1.80429 -0.726331 0
M  V30 607 O 61.4321 -1.2 -1.54591 0
M  V30 608 C 61.7311 -3.38082 1.15911 0
M  V30 609 C 61.3971 -3.66114 2.63195 0
M  V30 610 C 60.0591 -3.73474 3.03432 0
M  V30 611 C 62.4111 -3.78398 3.5842 0
M  V30 612 C 59.7391 -3.90599 4.37778 0
M  V30 613 C 62.0911 -3.97039 4.92487 0
M  V30 614 C 60.7551 -4.02635 5.32392 0
M  V30 615 H 60.0251 -0.688883 0.272987 0
M  V30 616 H 62.6721 -1.3995 1.30715 0
M  V30 617 H 60.9771 -3.88377 0.516806 0
M  V30 618 H 62.6741 -3.90596 0.907516 0
M  V30 619 H 59.2641 -3.61003 2.3103 0
M  V30 620 H 63.4481 -3.72042 3.28479 0
M  V30 621 H 58.7041 -3.93175 4.68213 0
M  V30 622 H 62.8781 -4.05486 5.66175 0
M  V30 623 H 60.5051 -4.15657 6.36501 0
M  V30 624 N 62.0802 -0.821533 -1.34494 0
M  V30 625 C 63.0432 -0.247847 -2.27856 0
M  V30 626 C 64.0432 0.573453 -1.50227 0
M  V30 627 O 65.2332 0.389759 -1.69784 0
M  V30 628 C 62.3652 0.652698 -3.34593 0
M  V30 629 H 63.5582 -1.07146 -2.80107 0
M  V30 630 H 61.1112 -0.593291 -1.44602 0
M  V30 631 H 61.8462 1.49943 -2.87555 0
M  V30 632 H 61.6312 0.065292 -3.92046 0
M  V30 633 H 63.1212 1.04793 -4.04238 0
M  V30 634 N 63.5583 1.46682 -0.576371 0
M  V30 635 C 64.7833 2.07304 -0.0630475 0
M  V30 636 C 65.2083 1.42329 1.2298 0
M  V30 637 O 64.5663 0.504865 1.74129 0
M  V30 638 C 64.6143 3.60472 0.095895 0
M  V30 639 O 63.7183 3.95927 1.15394 0
M  V30 640 H 63.0593 0.661288 -0.0599463 0
M  V30 641 H 65.5893 1.88417 -0.797511 0
M  V30 642 H 65.5993 4.06865 0.304071 0
M  V30 643 H 64.2743 4.07157 -0.84828 0
M  V30 644 H 62.8513 3.61252 0.924724 0
M  V30 645 N 65.0364 0.313813 1.54444 0
M  V30 646 C 66.4474 -0.176243 1.85866 0
M  V30 647 C 66.7984 -1.52405 1.23561 0
M  V30 648 O 65.9234 -2.09605 0.538016 0
M  V30 649 C 66.5184 -0.32657 3.37222 0
M  V30 650 C 65.0774 -0.760846 3.6863 0
M  V30 651 C 64.2244 0.123247 2.77026 0
M  V30 652 H 67.1754 0.534418 1.49431 0
M  V30 653 H 67.1964 -1.15908 3.62416 0
M  V30 654 H 66.7084 0.654531 3.82541 0
M  V30 655 H 64.8094 -1.75204 3.28838 0
M  V30 656 H 64.9224 -0.571353 4.75681 0
M  V30 657 H 63.2864 -0.399597 2.51546 0
M  V30 658 H 64.0694 1.10094 3.25168 0
M  V30 659 N 66.5145 -1.57545 0.0417849 0
M  V30 660 C 67.7425 -1.96624 -0.643928 0
M  V30 661 C 68.1575 -0.918897 -1.64929 0
M  V30 662 O 67.5145 0.0979323 -1.82237 0
M  V30 663 C 67.5655 -3.35781 -1.33914 0
M  V30 664 O 67.2865 -4.365 -0.374048 0
M  V30 665 C 68.7875 -3.89566 -2.1155 0
M  V30 666 H 66.0075 -0.647316 -0.176702 0
M  V30 667 H 68.5515 -2.04229 0.105304 0
M  V30 668 H 66.7065 -3.29357 -2.03968 0
M  V30 669 H 67.1205 -5.17248 -0.869179 0
M  V30 670 H 68.5945 -4.89242 -2.55628 0
M  V30 671 H 69.0715 -3.24488 -2.9598 0
M  V30 672 H 69.6775 -3.99298 -1.46427 0
M  V30 673 N 67.9926 0.231505 -1.5589 0
M  V30 674 C 68.9246 1.31006 -1.8807 0
M  V30 675 C 69.9376 1.43539 -0.768145 0
M  V30 676 O 71.1266 1.44614 -1.04638 0
M  V30 677 C 68.2266 2.68688 -2.06543 0
M  V30 678 C 67.3996 2.78228 -3.37502 0
M  V30 679 C 66.4586 3.96857 -3.4553 0
M  V30 680 O 65.4846 3.85662 -4.18633 0
M  V30 681 N 66.6866 5.1072 -2.75944 0
M  V30 682 H 69.4516 1.03731 -2.81176 0
M  V30 683 H 67.0126 0.421573 -1.56315 0
M  V30 684 H 69.0046 3.46412 -2.09239 0
M  V30 685 H 67.5746 2.88605 -1.20109 0
M  V30 686 H 66.7946 1.87059 -3.46991 0
M  V30 687 H 68.0826 2.81564 -4.23791 0
M  V30 688 H 67.4806 5.2271 -2.16311 0
M  V30 689 H 66.0376 5.86523 -2.84314 0
M  V30 690 N 69.4707 1.49531 0.497807 0
M  V30 691 C 70.7167 1.59415 1.25358 0
M  V30 692 C 71.0497 0.281422 1.9215 0
M  V30 693 O 70.3247 -0.715249 1.80871 0
M  V30 694 C 70.6077 2.75566 2.3181 0
M  V30 695 C 70.4607 4.16642 1.69498 0
M  V30 696 C 71.7797 2.87347 3.33346 0
M  V30 697 H 68.8987 0.580244 0.454408 0
M  V30 698 H 71.5407 1.81827 0.551262 0
M  V30 699 H 69.6907 2.56587 2.91711 0
M  V30 700 H 71.3627 4.47145 1.13399 0
M  V30 701 H 69.6057 4.22141 0.998978 0
M  V30 702 H 70.2767 4.93792 2.46725 0
M  V30 703 H 72.7527 3.04634 2.83438 0
M  V30 704 H 71.6287 3.70289 4.05188 0
M  V30 705 H 71.8897 1.96834 3.95865 0
M  V30 706 N 70.9488 -0.749086 1.3866 0
M  V30 707 C 72.1958 -1.50833 1.35114 0
M  V30 708 C 72.5238 -1.94415 -0.0574049 0
M  V30 709 O 71.7788 -1.66065 -1.03541 0
M  V30 710 C 72.0778 -2.7712 2.25697 0
M  V30 711 C 71.7438 -2.52477 3.73585 0
M  V30 712 C 70.4058 -2.45466 4.13884 0
M  V30 713 C 72.7578 -2.31066 4.67181 0
M  V30 714 C 70.0858 -2.15064 5.45861 0
M  V30 715 C 72.4378 -2.02183 5.9942 0
M  V30 716 C 71.1018 -1.93631 6.38798 0
M  V30 717 H 70.3718 -0.551936 0.494416 0
M  V30 718 H 73.0188 -0.860979 1.71054 0
M  V30 719 H 71.3238 -3.46528 1.82827 0
M  V30 720 H 73.0208 -3.35096 2.20254 0
M  V30 721 H 69.6108 -2.58807 3.41638 0
M  V30 722 H 73.7948 -2.35459 4.3689 0
M  V30 723 H 69.0508 -2.06954 5.75308 0
M  V30 724 H 73.2248 -1.8462 6.71482 0
M  V30 725 H 70.8518 -1.69839 7.40985 0
M  V30 726 N 72.4269 -1.23603 -0.977757 0
M  V30 727 C 73.6739 -1.06971 -1.71941 0
M  V30 728 C 74.0019 0.393009 -1.90488 0
M  V30 729 O 73.2569 1.30719 -1.4564 0
M  V30 730 C 73.5559 -1.7433 -3.11999 0
M  V30 731 C 73.2219 -3.24252 -3.13323 0
M  V30 732 C 71.8839 -3.65156 -3.13392 0
M  V30 733 C 74.2359 -4.20141 -3.08433 0
M  V30 734 C 71.5639 -5.00403 -3.0629 0
M  V30 735 C 73.9159 -5.55384 -3.02873 0
M  V30 736 C 72.5799 -5.95647 -3.01265 0
M  V30 737 H 71.8499 -0.391433 -0.629175 0
M  V30 738 H 74.4969 -1.53572 -1.14403 0
M  V30 739 H 72.8019 -1.20096 -3.7294 0
M  V30 740 H 74.4989 -1.58936 -3.68158 0
M  V30 741 H 71.0889 -2.91692 -3.14029 0
M  V30 742 H 75.2729 -3.89547 -3.07517 0
M  V30 743 H 70.5289 -5.3081 -3.03399 0
M  V30 744 H 74.7029 -6.29398 -2.98046 0
M  V30 745 H 72.3299 -7.0041 -2.95516 0
M  V30 746 N 73.905 1.17692 -1.04816 0
M  V30 747 C 74.853 2.23632 -0.63966 0
M  V30 748 C 75.847 1.6601 0.337219 0
M  V30 749 O 77.053 1.78844 0.203693 0
M  V30 750 H 73.428 0.727949 -0.188665 0
M  V30 751 H 75.399 2.55387 -1.54337 0
M  V30 752 C 74.148 3.4769 -0.0264051 0
M  V30 753 H 73.471 3.92331 -0.769164 0
M  V30 754 H 74.911 4.23418 0.222098 0
M  V30 755 C 73.37 3.13807 1.22584 0
M  V30 756 O 73.9 3.28236 2.31569 0
M  V30 757 N 72.106 2.68065 1.12202 0
M  V30 758 H 71.653 2.56525 0.235133 0
M  V30 759 H 71.611 2.45767 1.96076 0
M  V30 760 N 75.3831 0.828654 1.34056 0
M  V30 761 C 76.6311 0.41863 1.97717 0
M  V30 762 C 76.9521 -1.02314 1.66002 0
M  V30 763 O 76.2221 -1.71119 0.953683 0
M  V30 764 H 74.8021 0.151809 0.731412 0
M  V30 765 H 77.4641 1.05936 1.63596 0
M  V30 766 H 76.5601 0.542318 3.07352 0
M  V30 767 N 76.8612 -1.46375 0.584142 0
M  V30 768 C 77.8242 -2.28784 -0.138108 0
M  V30 769 C 78.8242 -1.38471 -0.817462 0
M  V30 770 O 80.0142 -1.60833 -0.669199 0
M  V30 771 C 77.1462 -3.18892 -1.20503 0
M  V30 772 H 78.3392 -2.94117 0.586127 0
M  V30 773 H 75.8922 -1.52509 0.342171 0
M  V30 774 H 76.6272 -2.58309 -1.96079 0
M  V30 775 H 76.4122 -3.85388 -0.722384 0
M  V30 776 H 77.9022 -3.80914 -1.71155 0
M  V30 777 N 78.3393 -0.321999 -1.54275 0
M  V30 778 C 79.2873 0.560206 -2.25753 0
M  V30 779 C 80.2813 1.11984 -1.27106 0
M  V30 780 O 81.4873 1.06806 -1.44888 0
M  V30 781 H 77.8623 0.199304 -0.725108 0
M  V30 782 H 79.8333 -0.0649365 -2.98329 0
M  V30 783 C 78.5823 1.71023 -3.02731 0
M  V30 784 H 77.9053 1.28885 -3.78456 0
M  V30 785 H 79.3453 2.30314 -3.55993 0
M  V30 786 C 77.8043 2.62692 -2.10938 0
M  V30 787 O 78.3343 3.64364 -1.6912 0
M  V30 788 N 76.5403 2.30891 -1.76459 0
M  V30 789 H 76.0873 1.48253 -2.10663 0
M  V30 790 H 76.0453 2.92487 -1.1532 0
M  V30 791 N 79.8174 1.5752 -0.0501392 0
M  V30 792 C 81.0634 1.92936 0.624798 0
M  V30 793 C 81.3964 0.928685 1.70555 0
M  V30 794 O 80.6714 -0.0454779 1.94447 0
M  V30 795 C 80.9544 3.38737 1.22185 0
M  V30 796 C 80.8074 4.49552 0.149218 0
M  V30 797 C 82.1264 3.84913 2.13378 0
M  V30 798 H 79.2454 0.701604 0.225657 0
M  V30 799 H 81.8874 1.89671 -0.111693 0
M  V30 800 H 80.0374 3.4165 1.84953 0
M  V30 801 H 81.7094 4.58768 -0.482648 0
M  V30 802 H 79.9524 4.30638 -0.522841 0
M  V30 803 H 80.6234 5.48653 0.606966 0
M  V30 804 H 83.0994 3.8387 1.60572 0
M  V30 805 H 81.9754 4.87584 2.52097 0
M  V30 806 H 82.2364 3.21611 3.03346 0
M  V30 807 N 81.2955 -0.223234 1.56011 0
M  V30 808 C 82.7115 -0.572856 1.48965 0
M  V30 809 C 82.9115 -1.87225 0.74492 0
M  V30 810 O 81.9675 -2.50899 0.283896 0
M  V30 811 C 83.2805 -0.653646 2.9351 0
M  V30 812 C 84.8285 -0.744386 3.0402 0
M  V30 813 C 85.3035 -0.856535 4.49919 0
M  V30 814 N 86.7945 -0.9208 4.53955 0
M  V30 815 C 87.5295 -1.02726 5.64123 0
M  V30 816 N 87.0255 -1.09777 6.84047 0
M  V30 817 N 88.8185 -1.06226 5.51971 0
M  V30 818 H 80.9695 0.629462 2.02858 0
M  V30 819 H 83.2325 0.220621 0.921971 0
M  V30 820 H 82.9385 0.231518 3.50937 0
M  V30 821 H 82.8125 -1.51781 3.45315 0
M  V30 822 H 85.1995 -1.61999 2.46658 0
M  V30 823 H 85.2805 0.14541 2.55386 0
M  V30 824 H 84.9245 0.0146069 5.07898 0
M  V30 825 H 84.8545 -1.76172 4.96257 0
M  V30 826 H 87.3455 -0.876694 3.6759 0
M  V30 827 H 87.6585 -1.17872 7.63758 0
M  V30 828 H 86.0035 -1.06693 6.86762 0
M  V30 829 H 89.1945 -1.00382 4.5721 0
M  V30 830 H 89.3675 -1.14177 6.37862 0
M  V30 831 N 82.7736 -1.49793 -0.48987 0
M  V30 832 C 83.7056 -1.63413 -1.60713 0
M  V30 833 C 84.7186 -0.516329 -1.54395 0
M  V30 834 O 85.9076 -0.788812 -1.60125 0
M  V30 835 C 83.0076 -1.58516 -2.99543 0
M  V30 836 C 82.1806 -2.86016 -3.30928 0
M  V30 837 C 81.2396 -2.74018 -4.49222 0
M  V30 838 O 80.2656 -3.47964 -4.50455 0
M  V30 839 N 81.4676 -1.86309 -5.4979 0
M  V30 840 H 84.2326 -2.59777 -1.49452 0
M  V30 841 H 81.7936 -1.47022 -0.677955 0
M  V30 842 H 83.7856 -1.48128 -3.76617 0
M  V30 843 H 82.3556 -0.69965 -3.0467 0
M  V30 844 H 81.5756 -3.10672 -2.42645 0
M  V30 845 H 82.8636 -3.70521 -3.487 0
M  V30 846 H 82.2616 -1.2551 -5.51601 0
M  V30 847 H 80.8186 -1.81837 -6.25922 0
M  V30 848 N 84.2517 0.741722 -1.39055 0
M  V30 849 C 85.4977 1.50336 -1.36113 0
M  V30 850 C 85.8307 1.94148 0.0450796 0
M  V30 851 O 85.1057 1.66301 1.00868 0
M  V30 852 C 85.3887 2.74773 -2.32749 0
M  V30 853 C 85.2417 2.37023 -3.82283 0
M  V30 854 C 86.5607 3.76846 -2.27322 0
M  V30 855 H 83.6797 0.545351 -0.495743 0
M  V30 856 H 86.3217 0.848624 -1.69995 0
M  V30 857 H 84.4717 3.30639 -2.03986 0
M  V30 858 H 86.1437 1.8684 -4.21768 0
M  V30 859 H 84.3867 1.69334 -3.99385 0
M  V30 860 H 85.0577 3.26104 -4.45376 0
M  V30 861 H 87.5337 3.30548 -2.5274 0
M  V30 862 H 86.4097 4.6159 -2.97028 0
M  V30 863 H 86.6707 4.23286 -1.27599 0
M  V30 864 N 85.7298 1.2412 0.971189 0
M  V30 865 C 87.0068 0.986867 1.6888 0
M  V30 866 C 87.3868 -0.491857 2.0529 0
M  V30 867 O 86.7348 -1.46531 1.75331 0
M  V30 868 C 86.9448 1.9063 2.92338 0
M  V30 869 C 88.2928 2.17515 3.64654 0
M  V30 870 O 89.3168 1.88254 3.02388 0
M  V30 871 O 88.1758 2.6719 4.7673 0
M  V30 872 H 85.2698 0.372944 0.738134 0
M  V30 873 H 87.8158 1.35203 1.02559 0
M  V30 874 H 86.5878 2.90552 2.62097 0
M  V30 875 H 86.2108 1.54408 3.66393 0
M  V30 876 N 87.2079 -1.17134 1.05439 0
M  V30 877 C 88.4539 -1.87733 0.767077 0
M  V30 878 C 88.7869 -1.8098 -0.704253 0
M  V30 879 O 88.0619 -1.21951 -1.5152 0
M  V30 880 C 88.3449 -3.37659 1.25133 0
M  V30 881 C 88.1979 -3.53149 2.78578 0
M  V30 882 C 89.5169 -4.31768 0.852324 0
M  V30 883 H 86.6359 -0.681687 0.280129 0
M  V30 884 H 89.2779 -1.37732 1.30881 0
M  V30 885 H 87.4279 -3.80373 0.790469 0
M  V30 886 H 89.0999 -3.19434 3.32806 0
M  V30 887 H 87.3429 -2.95345 3.17732 0
M  V30 888 H 88.0139 -4.58403 3.07523 0
M  V30 889 H 90.4899 -3.96909 1.24911 0
M  V30 890 H 89.3659 -5.35199 1.21873 0
M  V30 891 H 89.6269 -4.41429 -0.243485 0
M  V30 892 N 88.686 -0.835752 -1.33615 0
M  V30 893 C 90.097 -0.487099 -1.80234 0
M  V30 894 C 90.448 0.993627 -1.69179 0
M  V30 895 O 89.573 1.77403 -1.23924 0
M  V30 896 C 90.168 -0.877385 -3.27242 0
M  V30 897 C 88.727 -0.580915 -3.7189 0
M  V30 898 C 87.874 -1.0874 -2.5509 0
M  V30 899 H 90.825 -1.02474 -1.2118 0
M  V30 900 H 90.846 -0.186195 -3.80044 0
M  V30 901 H 90.358 -1.95512 -3.35256 0
M  V30 902 H 88.459 0.486881 -3.69405 0
M  V30 903 H 88.572 -1.13396 -4.65487 0
M  V30 904 H 86.936 -0.508392 -2.49575 0
M  V30 905 H 87.719 -2.17184 -2.65868 0
M  V30 906 N 90.1641 1.46063 -0.591896 0
M  V30 907 C 91.3921 2.06717 -0.0868936 0
M  V30 908 C 91.8071 1.43916 1.22203 0
M  V30 909 O 91.1641 0.547698 1.74088 0
M  V30 910 C 91.2151 3.6142 0.0758725 0
M  V30 911 O 90.9361 4.21874 -1.18126 0
M  V30 912 C 92.4371 4.39025 0.61416 0
M  V30 913 H 89.6571 0.668162 -0.0616518 0
M  V30 914 H 92.2011 1.8755 -0.815175 0
M  V30 915 H 90.3561 3.79983 0.754413 0
M  V30 916 H 90.7701 5.14861 -1.00092 0
M  V30 917 H 92.2441 5.4783 0.677193 0
M  V30 918 H 92.7211 4.07708 1.63312 0
M  V30 919 H 93.3271 4.2529 -0.0298142 0
M  V30 920 N 91.6422 0.330177 1.54103 0
M  V30 921 C 92.5722 -0.525353 2.27513 0
M  V30 922 C 93.5532 -1.11383 1.2856 0
M  V30 923 O 94.7382 -1.13773 1.57383 0
M  V30 924 C 91.8682 -1.6831 3.03791 0
M  V30 925 C 90.8222 -1.2236 4.10137 0
M  V30 926 C 90.1482 -2.46882 4.74293 0
M  V30 927 C 91.4482 -0.333697 5.21233 0
M  V30 928 H 93.1422 0.087013 2.99274 0
M  V30 929 H 90.6882 0.0432893 1.43935 0
M  V30 930 H 92.6412 -2.28795 3.5388 0
M  V30 931 H 91.3652 -2.32216 2.29659 0
M  V30 932 H 90.0242 -0.64165 3.60941 0
M  V30 933 H 89.6722 -3.09165 3.96769 0
M  V30 934 H 89.3722 -2.16825 5.46133 0
M  V30 935 H 90.8962 -3.08117 5.27159 0
M  V30 936 H 92.3102 -0.845013 5.67038 0
M  V30 937 H 90.7072 -0.125612 5.99969 0
M  V30 938 H 91.7772 0.633724 4.80741 0
M  V30 939 N 93.1203 -1.57491 0.0584922 0
M  V30 940 C 94.3483 -1.97296 -0.623037 0
M  V30 941 C 94.7633 -0.936338 -1.63946 0
M  V30 942 O 94.1203 0.0785981 -1.82331 0
M  V30 943 C 94.1713 -3.37183 -1.30345 0
M  V30 944 O 93.8923 -4.36872 -0.32773 0
M  V30 945 C 95.3933 -3.91788 -2.07406 0
M  V30 946 H 92.6133 -0.649153 -0.169826 0
M  V30 947 H 95.1573 -2.04106 0.12696 0
M  V30 948 H 93.3123 -3.31502 -2.00463 0
M  V30 949 H 93.7263 -5.18141 -0.814269 0
M  V30 950 H 95.2003 -4.91926 -2.50425 0
M  V30 951 H 95.6773 -3.27609 -2.92521 0
M  V30 952 H 96.2833 -4.00829 -1.42184 0
M  V30 953 N 94.5984 0.214957 -1.56127 0
M  V30 954 C 95.8464 0.936518 -1.79091 0
M  V30 955 C 96.1674 1.84606 -0.628148 0
M  V30 956 O 95.4374 1.92664 0.35462 0
M  V30 957 H 94.0174 0.3488 -0.660566 0
M  V30 958 H 96.6794 0.22523 -1.93594 0
M  V30 959 H 95.7754 1.53943 -2.71492 0
M  V30 960 N 96.0765 1.50051 0.48192 0
M  V30 961 C 97.0395 1.67584 1.5636 0
M  V30 962 C 98.0395 0.546894 1.51214 0
M  V30 963 O 99.2295 0.813725 1.54026 0
M  V30 964 C 96.3615 1.691 2.96003 0
M  V30 965 H 97.5545 2.64078 1.42136 0
M  V30 966 H 95.1075 1.39369 0.707533 0
M  V30 967 H 95.8425 0.742589 3.15684 0
M  V30 968 H 95.6275 2.51105 3.01146 0
M  V30 969 H 97.1175 1.84656 3.74556 0
M  V30 970 N 97.5546 -0.734337 1.39446 0
M  V30 971 C 98.8016 -1.49391 1.36706 0
M  V30 972 C 99.1296 -1.94465 -0.0367813 0
M  V30 973 O 98.3846 -1.67154 -1.01774 0
M  V30 974 C 98.6836 -2.74711 2.28623 0
M  V30 975 C 98.3496 -2.48501 3.76242 0
M  V30 976 C 97.0116 -2.41062 4.16464 0
M  V30 977 C 99.3636 -2.26098 4.69606 0
M  V30 978 C 96.6916 -2.09262 5.48112 0
M  V30 979 C 99.0436 -1.95814 6.01531 0
M  V30 980 C 97.7076 -1.86845 6.40816 0
M  V30 981 H 96.9776 -0.546661 0.500243 0
M  V30 982 H 99.6246 -0.842788 1.71957 0
M  V30 983 H 97.9296 -3.44569 1.86492 0
M  V30 984 H 99.6266 -3.32741 2.23796 0
M  V30 985 H 96.2166 -2.55169 3.44364 0
M  V30 986 H 100.401 -2.30812 4.39363 0
M  V30 987 H 95.6566 -2.00841 5.77471 0
M  V30 988 H 99.8306 -1.77488 6.73403 0
M  V30 989 H 97.4576 -1.6197 7.42745 0
M  V30 990 N 99.0327 -1.24633 -0.964593 0
M  V30 991 C 100.281 -1.08573 -1.70459 0
M  V30 992 C 100.602 0.375655 -1.91347 0
M  V30 993 O 99.8717 1.26779 -1.49345 0
M  V30 994 H 98.4517 -0.398784 -0.631649 0
M  V30 995 H 101.114 -1.56601 -1.16026 0
M  V30 996 H 100.21 -1.58623 -2.68785 0
M  V30 997 N 100.511 1.16574 -1.06058 0
M  V30 998 C 101.76 1.86385 -0.770944 0
M  V30 999 C 102.073 1.82448 0.705129 0
M  V30 1000 O 103.279 2.47815 1.10905 0
M  V30 1001 C 101.735 3.34466 -1.32893 0
M  V30 1002 C 101.343 3.46883 -2.83507 0
M  V30 1003 C 103.087 4.09548 -1.11672 0
M  V30 1004 C 100.994 4.89036 -3.32562 0
M  V30 1005 H 99.9238 0.698181 -0.284709 0
M  V30 1006 H 102.575 1.31583 -1.27899 0
M  V30 1007 H 100.957 3.88859 -0.748662 0
M  V30 1008 H 102.131 3.02663 -3.47465 0
M  V30 1009 H 100.446 2.85232 -3.03368 0
M  V30 1010 H 103.043 5.14434 -1.45814 0
M  V30 1011 H 103.386 4.16264 -0.0549535 0
M  V30 1012 H 103.919 3.61387 -1.66265 0
M  V30 1013 H 100.658 4.87499 -4.38207 0
M  V30 1014 H 100.178 5.3389 -2.73351 0
M  V30 1015 H 101.857 5.57843 -3.2775 0
M  V30 1016 N 101.989 0.842826 1.3317 0
M  V30 1017 C 102.919 0.294028 2.31641 0
M  V30 1018 C 103.9 -0.600401 1.59151 0
M  V30 1019 O 105.085 -0.523124 1.87022 0
M  V30 1020 C 102.215 -0.528416 3.43257 0
M  V30 1021 C 101.169 0.27056 4.27144 0
M  V30 1022 C 100.495 -0.675881 5.30411 0
M  V30 1023 C 101.795 1.48981 5.00602 0
M  V30 1024 H 103.489 1.11681 2.77791 0
M  V30 1025 H 101.035 0.538478 1.33553 0
M  V30 1026 H 102.988 -0.922674 4.11175 0
M  V30 1027 H 101.712 -1.38445 2.95805 0
M  V30 1028 H 100.371 0.646427 3.60856 0
M  V30 1029 H 100.019 -1.52842 4.79216 0
M  V30 1030 H 99.7189 -0.145374 5.8742 0
M  V30 1031 H 101.243 -1.06757 6.01195 0
M  V30 1032 H 102.657 1.16849 5.61266 0
M  V30 1033 H 101.054 1.95739 5.6728 0
M  V30 1034 H 102.124 2.25746 4.29147 0
M  V30 1035 N 103.467 -1.45747 0.599634 0
M  V30 1036 C 104.43 -2.28917 -0.113835 0
M  V30 1037 C 105.43 -1.3933 -0.802729 0
M  V30 1038 O 106.62 -1.61534 -0.652103 0
M  V30 1039 C 103.752 -3.20152 -1.17114 0
M  V30 1040 H 104.945 -2.93478 0.617289 0
M  V30 1041 H 102.498 -1.52137 0.358327 0
M  V30 1042 H 103.233 -2.60374 -1.93329 0
M  V30 1043 H 103.018 -3.86133 -0.681468 0
M  V30 1044 H 104.508 -3.82708 -1.67105 0
M  V30 1045 N 104.945 -0.338344 -1.53925 0
M  V30 1046 C 105.908 0.508299 -2.23493 0
M  V30 1047 C 106.908 1.03175 -1.23335 0
M  V30 1048 O 108.098 0.921826 -1.47811 0
M  V30 1049 C 105.23 1.70754 -2.95052 0
M  V30 1050 H 106.423 -0.100058 -2.99733 0
M  V30 1051 H 103.976 -0.0896198 -1.56043 0
M  V30 1052 H 104.711 2.35474 -2.22986 0
M  V30 1053 H 104.496 1.33946 -3.68512 0
M  V30 1054 H 105.986 2.30818 -3.48013 0
M  V30 1055 N 106.423 1.57458 -0.0668435 0
M  V30 1056 C 107.373 2.0896 0.912119 0
M  V30 1057 C 108.357 0.998186 1.26195 0
M  V30 1058 O 109.549 1.26133 1.24175 0
M  V30 1059 C 106.678 2.6508 2.18145 0
M  V30 1060 C 105.764 3.81218 1.85832 0
M  V30 1061 N 106.155 4.90378 1.23948 0
M  V30 1062 C 104.453 3.9042 2.15612 0
M  V30 1063 C 105.154 5.71279 1.09616 0
M  V30 1064 N 104.13 5.19389 1.60423 0
M  V30 1065 H 107.932 2.90749 0.42924 0
M  V30 1066 H 105.446 1.6182 0.137184 0
M  V30 1067 H 107.443 3.0029 2.89192 0
M  V30 1068 H 106.103 1.84736 2.67025 0
M  V30 1069 H 107.114 5.09847 0.909731 0
M  V30 1070 H 103.791 3.21043 2.66903 0
M  V30 1071 H 105.181 6.69085 0.614425 0
M  V30 1072 N 107.901 -0.206675 1.56239 0
M  V30 1073 C 109.147 -0.930218 1.80208 0
M  V30 1074 C 109.48 -1.83387 0.638981 0
M  V30 1075 O 108.755 -1.91119 -0.361066 0
M  V30 1076 C 109.038 -1.75641 3.1436 0
M  V30 1077 C 108.891 -0.878257 4.41142 0
M  V30 1078 C 110.21 -2.73129 3.45092 0
M  V30 1079 H 107.329 -0.336742 0.655571 0
M  V30 1080 H 109.971 -0.198222 1.88963 0
M  V30 1081 H 108.121 -2.38048 3.07027 0
M  V30 1082 H 109.793 -0.269787 4.6051 0
M  V30 1083 H 108.036 -0.184385 4.33408 0
M  V30 1084 H 108.707 -1.49106 5.3148 0
M  V30 1085 H 111.183 -2.20856 3.52649 0
M  V30 1086 H 110.059 -3.28028 4.40101 0
M  V30 1087 H 110.32 -3.51606 2.68003 0
M  V30 1088 N 109.379 -1.50304 -0.473955 0
M  V30 1089 C 110.79 -1.54042 -1.0549 0
M  V30 1090 C 111.141 -0.342248 -1.93192 0
M  V30 1091 O 110.266 0.545157 -2.09421 0
M  V30 1092 C 110.861 -2.79152 -1.91989 0
M  V30 1093 C 109.42 -2.8558 -2.45196 0
M  V30 1094 C 108.567 -2.48295 -1.2347 0
M  V30 1095 H 111.518 -1.5661 -0.256693 0
M  V30 1096 H 111.539 -2.60845 -2.7702 0
M  V30 1097 H 111.051 -3.66339 -1.28131 0
M  V30 1098 H 109.152 -2.02738 -3.12615 0
M  V30 1099 H 109.265 -3.88403 -2.80499 0
M  V30 1100 H 107.629 -2.00669 -1.56856 0
M  V30 1101 H 108.412 -3.37787 -0.612789 0
M  V30 1102 N 110.857 0.726932 -1.39834 0
M  V30 1103 C 112.085 1.51613 -1.40787 0
M  V30 1104 C 112.5 1.88799 -0.00451505 0
M  V30 1105 O 111.857 1.54662 0.968809 0
M  V30 1106 C 111.908 2.79863 -2.28821 0
M  V30 1107 O 111.629 2.44253 -3.63692 0
M  V30 1108 C 113.13 3.73837 -2.38245 0
M  V30 1109 H 110.35 0.468264 -0.480593 0
M  V30 1110 H 112.894 0.897607 -1.83748 0
M  V30 1111 H 111.049 3.38027 -1.89252 0
M  V30 1112 H 111.463 3.26695 -4.1033 0
M  V30 1113 H 112.937 4.60699 -3.04073 0
M  V30 1114 H 113.414 4.16153 -1.40403 0
M  V30 1115 H 114.02 3.21589 -2.78317 0
M  V30 1116 N 112.336 1.25143 0.95797 0
M  V30 1117 C 113.266 1.07711 2.07173 0
M  V30 1118 C 114.247 -0.0128462 1.70095 0
M  V30 1119 O 115.432 0.156061 1.93572 0
M  V30 1120 C 112.562 0.691503 3.40346 0
M  V30 1121 C 111.516 1.73132 3.9142 0
M  V30 1122 C 110.842 1.20049 5.21049 0
M  V30 1123 C 112.142 3.1294 4.1817 0
M  V30 1124 H 113.836 2.00873 2.22014 0
M  V30 1125 H 111.382 0.967191 1.06684 0
M  V30 1126 H 113.335 0.556505 4.17709 0
M  V30 1127 H 112.059 -0.275819 3.25433 0
M  V30 1128 H 110.718 1.8547 3.16222 0
M  V30 1129 H 110.366 0.223499 5.02503 0
M  V30 1130 H 110.066 1.89545 5.56189 0
M  V30 1131 H 111.59 1.07782 6.01012 0
M  V30 1132 H 113.004 3.03775 4.86203 0
M  V30 1133 H 111.401 3.79875 4.64559 0
M  V30 1134 H 112.471 3.6025 3.24573 0
M  V30 1135 N 113.814 -1.1601 1.06675 0
M  V30 1136 C 114.746 -2.20115 0.638921 0
M  V30 1137 C 115.759 -1.59916 -0.305057 0
M  V30 1138 O 116.948 -1.78245 -0.0954446 0
M  V30 1139 C 114.048 -3.38798 -0.0830083 0
M  V30 1140 C 113.221 -4.2855 0.875426 0
M  V30 1141 C 112.28 -5.25849 0.192042 0
M  V30 1142 O 111.306 -5.63102 0.830921 0
M  V30 1143 N 112.508 -5.70648 -1.06493 0
M  V30 1144 H 115.273 -2.57439 1.53444 0
M  V30 1145 H 112.834 -1.31057 0.950557 0
M  V30 1146 H 114.826 -4.00936 -0.550685 0
M  V30 1147 H 113.396 -2.99947 -0.880386 0
M  V30 1148 H 112.616 -3.63617 1.52238 0
M  V30 1149 H 113.904 -4.85393 1.52548 0
M  V30 1150 H 113.302 -5.42482 -1.60405 0
M  V30 1151 H 111.859 -6.34859 -1.47641 0
M  V30 1152 N 115.292 -0.849877 -1.32721 0
M  V30 1153 C 116.538 -0.451591 -1.97708 0
M  V30 1154 C 116.871 0.989175 -1.6712 0
M  V30 1155 O 116.146 1.69334 -0.956891 0
M  V30 1156 C 116.429 -0.685598 -3.53513 0
M  V30 1157 C 116.282 -2.17444 -3.93749 0
M  V30 1158 C 117.601 -0.138874 -4.39881 0
M  V30 1159 H 114.72 -0.16555 -0.718166 0
M  V30 1160 H 117.362 -1.06742 -1.57182 0
M  V30 1161 H 115.512 -0.161416 -3.88165 0
M  V30 1162 H 117.184 -2.76433 -3.693 0
M  V30 1163 H 115.427 -2.65476 -3.43081 0
M  V30 1164 H 116.098 -2.28888 -5.02309 0
M  V30 1165 H 118.574 -0.587068 -4.11938 0
M  V30 1166 H 117.45 -0.332213 -5.47894 0
M  V30 1167 H 117.711 0.95806 -4.31594 0
M  V30 1168 N 116.77 1.45427 -0.607355 0
M  V30 1169 C 117.7 2.3329 0.0989352 0
M  V30 1170 C 118.681 1.46816 0.859007 0
M  V30 1171 O 119.866 1.75588 0.829604 0
M  V30 1172 C 116.996 3.29518 1.09705 0
M  V30 1173 C 115.95 4.25626 0.450206 0
M  V30 1174 C 115.276 5.11542 1.55655 0
M  V30 1175 C 116.576 5.18505 -0.628455 0
M  V30 1176 H 118.27 2.92595 -0.634716 0
M  V30 1177 H 115.816 1.40696 -0.306681 0
M  V30 1178 H 117.769 3.89855 1.59971 0
M  V30 1179 H 116.493 2.68372 1.86129 0
M  V30 1180 H 115.152 3.66586 -0.0315886 0
M  V30 1181 H 114.8 4.46765 2.31107 0
M  V30 1182 H 114.5 5.76647 1.12925 0
M  V30 1183 H 116.024 5.74748 2.06148 0
M  V30 1184 H 117.438 5.72916 -0.209877 0
M  V30 1185 H 115.835 5.92085 -0.977489 0
M  V30 1186 H 116.905 4.60948 -1.50514 0
M  V30 1187 N 118.248 0.346503 1.53744 0
M  V30 1188 C 119.664 -0.00530975 1.59599 0
M  V30 1189 C 119.864 -1.48465 1.36236 0
M  V30 1190 O 118.92 -2.24376 1.15808 0
M  V30 1191 C 120.233 0.433516 2.97559 0
M  V30 1192 C 121.781 0.386111 3.10609 0
M  V30 1193 C 122.256 0.800451 4.50951 0
M  V30 1194 N 123.747 0.754753 4.5701 0
M  V30 1195 C 124.482 1.04727 5.63755 0
M  V30 1196 N 123.978 1.4081 6.7834 0
M  V30 1197 N 125.771 0.971316 5.53644 0
M  V30 1198 H 117.922 1.31009 1.67184 0
M  V30 1199 H 120.185 0.534242 0.783128 0
M  V30 1200 H 119.891 1.46509 3.19731 0
M  V30 1201 H 119.765 -0.189753 3.76722 0
M  V30 1202 H 122.152 -0.636295 2.88158 0
M  V30 1203 H 122.233 1.04462 2.33498 0
M  V30 1204 H 121.877 1.82088 4.74137 0
M  V30 1205 H 121.807 0.119386 5.26465 0
M  V30 1206 H 124.298 0.488662 3.74727 0
M  V30 1207 H 124.611 1.61607 7.55714 0
M  V30 1208 H 122.956 1.44657 6.79779 0
M  V30 1209 H 126.147 0.688748 4.63005 0
M  V30 1210 H 126.32 1.20263 6.36742 0
M  V30 1211 N 119.726 -1.57421 0.075193 0
M  V30 1212 C 121.137 -1.81021 -0.456964 0
M  V30 1213 C 121.488 -0.98936 -1.69429 0
M  V30 1214 O 120.613 -0.212865 -2.15351 0
M  V30 1215 C 121.208 -3.28329 -0.83581 0
M  V30 1216 C 119.767 -3.52764 -1.31281 0
M  V30 1217 C 118.914 -2.75676 -0.299648 0
M  V30 1218 H 121.865 -1.55822 0.300856 0
M  V30 1219 H 121.886 -3.40564 -1.69696 0
M  V30 1220 H 121.398 -3.88046 0.0649238 0
M  V30 1221 H 119.499 -2.98355 -2.23193 0
M  V30 1222 H 119.612 -4.61451 -1.28839 0
M  V30 1223 H 117.976 -2.42538 -0.777641 0
M  V30 1224 H 118.759 -3.38132 0.593417 0
M  V30 1225 N 121.204 0.198386 -1.56346 0
M  V30 1226 C 122.452 0.91747 -1.80075 0
M  V30 1227 C 122.773 1.83929 -0.647692 0
M  V30 1228 O 122.043 1.93029 0.334166 0
M  V30 1229 H 120.623 0.341774 -0.664228 0
M  V30 1230 H 123.285 0.204684 -1.93822 0
M  V30 1231 H 122.381 1.51055 -2.7311 0
M  V30 1232 N 122.682 1.50554 0.465978 0
M  V30 1233 C 123.612 1.72722 1.57128 0
M  V30 1234 C 124.593 0.576294 1.6004 0
M  V30 1235 O 125.778 0.81598 1.76225 0
M  V30 1236 C 122.908 1.82605 2.95419 0
M  V30 1237 C 121.862 2.97835 3.07373 0
M  V30 1238 C 121.188 2.92867 4.47363 0
M  V30 1239 C 122.488 4.38265 2.84114 0
M  V30 1240 H 124.182 2.65267 1.38829 0
M  V30 1241 H 121.728 1.2765 0.666441 0
M  V30 1242 H 123.681 1.96698 3.72677 0
M  V30 1243 H 122.405 0.866858 3.14886 0
M  V30 1244 H 121.064 2.83401 2.3255 0
M  V30 1245 H 120.712 1.94783 4.63755 0
M  V30 1246 H 120.412 3.70227 4.56296 0
M  V30 1247 H 121.936 3.09015 5.26633 0
M  V30 1248 H 123.35 4.53198 3.51118 0
M  V30 1249 H 121.747 5.17115 3.04487 0
M  V30 1250 H 122.817 4.50281 1.7993 0
M  V30 1251 N 124.16 -0.719506 1.40217 0
M  V30 1252 C 125.406 -1.48152 1.38488 0
M  V30 1253 C 125.739 -1.94195 -0.0141867 0
M  V30 1254 O 125.014 -1.67884 -0.982096 0
M  V30 1255 C 125.297 -2.71035 2.37091 0
M  V30 1256 C 125.15 -2.30912 3.86005 0
M  V30 1257 C 126.469 -3.73182 2.33288 0
M  V30 1258 H 123.588 -0.537395 0.504357 0
M  V30 1259 H 126.23 -0.821472 1.71324 0
M  V30 1260 H 124.38 -3.27352 2.0922 0
M  V30 1261 H 126.052 -1.80107 4.24687 0
M  V30 1262 H 124.295 -1.62958 4.02029 0
M  V30 1263 H 124.966 -3.18978 4.50508 0
M  V30 1264 H 127.442 -3.26485 2.57966 0
M  V30 1265 H 126.318 -4.56806 3.04334 0
M  V30 1266 H 126.579 -4.21202 1.34317 0
M  V30 1267 N 125.638 -1.25649 -0.95132 0
M  V30 1268 C 126.884 -1.10757 -1.69884 0
M  V30 1269 C 127.217 0.350061 -1.91019 0
M  V30 1270 O 126.492 1.25783 -1.48354 0
M  V30 1271 C 126.775 -1.86606 -3.07978 0
M  V30 1272 C 126.628 -3.40217 -2.94232 0
M  V30 1273 C 127.947 -1.65182 -4.07925 0
M  V30 1274 H 125.066 -0.40374 -0.616574 0
M  V30 1275 H 127.708 -1.54521 -1.10558 0
M  V30 1276 H 125.858 -1.49409 -3.58621 0
M  V30 1277 H 127.53 -3.87108 -2.50889 0
M  V30 1278 H 125.773 -3.67759 -2.30078 0
M  V30 1279 H 126.444 -3.88505 -3.92133 0
M  V30 1280 H 128.92 -1.9757 -3.66204 0
M  V30 1281 H 127.796 -2.20683 -5.02583 0
M  V30 1282 H 128.057 -0.593933 -4.38092 0
M  V30 1283 N 127.117 1.15442 -1.07289 0
M  V30 1284 C 128.363 1.86489 -0.796846 0
M  V30 1285 C 128.696 1.82078 0.675371 0
M  V30 1286 O 127.971 1.24346 1.4956 0
M  V30 1287 C 128.254 3.35626 -1.30489 0
M  V30 1288 C 128.107 3.48673 -2.84161 0
M  V30 1289 C 129.426 4.30357 -0.920907 0
M  V30 1290 H 126.545 0.677144 -0.290939 0
M  V30 1291 H 129.187 1.35633 -1.33056 0
M  V30 1292 H 127.337 3.79068 -0.850883 0
M  V30 1293 H 129.009 3.14099 -3.37846 0
M  V30 1294 H 127.252 2.90253 -3.22391 0
M  V30 1295 H 127.923 4.53453 -3.14777 0
M  V30 1296 H 130.399 3.94871 -1.3121 0
M  V30 1297 H 129.275 5.33193 -1.30372 0
M  V30 1298 H 129.536 4.4176 0.173226 0
M  V30 1299 N 128.595 0.856903 1.32268 0
M  V30 1300 C 129.545 0.274899 2.26337 0
M  V30 1301 C 130.529 -0.580543 1.50062 0
M  V30 1302 O 131.721 -0.429559 1.71708 0
M  V30 1303 C 128.85 -0.533841 3.39124 0
M  V30 1304 C 127.936 0.334114 4.22782 0
M  V30 1305 N 128.327 1.42143 4.85416 0
M  V30 1306 C 126.625 0.124256 4.45827 0
M  V30 1307 C 127.326 1.95559 5.47843 0
M  V30 1308 N 126.302 1.25444 5.28928 0
M  V30 1309 H 130.104 1.10612 2.72291 0
M  V30 1310 H 127.618 0.703258 1.46383 0
M  V30 1311 H 129.615 -0.96722 4.05525 0
M  V30 1312 H 128.275 -1.36283 2.94715 0
M  V30 1313 H 129.286 1.80436 4.85451 0
M  V30 1314 H 125.963 -0.669837 4.12092 0
M  V30 1315 H 127.353 2.86714 6.07655 0
M  V30 1316 N 130.073 -1.45103 0.615059 0
M  V30 1317 C 131.036 -2.29025 -0.0895485 0
M  V30 1318 C 132.036 -1.40174 -0.787906 0
M  V30 1319 O 133.226 -1.62217 -0.634933 0
M  V30 1320 C 130.358 -3.21376 -1.13711 0
M  V30 1321 H 131.551 -2.92807 0.648382 0
M  V30 1322 H 129.104 -1.51749 0.374444 0
M  V30 1323 H 129.839 -2.6241 -1.90556 0
M  V30 1324 H 129.624 -3.86834 -0.640475 0
M  V30 1325 H 131.114 -3.84459 -1.63036 0
M  V30 1326 N 131.551 -0.354651 -1.53558 0
M  V30 1327 C 132.461 0.50515 -2.29097 0
M  V30 1328 C 133.477 1.10223 -1.34636 0
M  V30 1329 O 134.653 1.11553 -1.67684 0
M  V30 1330 C 131.718 1.63479 -3.05738 0
M  V30 1331 C 130.779 1.06636 -4.15845 0
M  V30 1332 C 130.012 2.14217 -4.88822 0
M  V30 1333 O 130.235 3.35137 -4.61562 0
M  V30 1334 O 129.169 1.77887 -5.75013 0
M  V30 1335 H 132.995 -0.109237 -3.03503 0
M  V30 1336 H 130.58 -0.119357 -1.48922 0
M  V30 1337 H 132.462 2.2918 -3.5363 0
M  V30 1338 H 131.137 2.23478 -2.34178 0
M  V30 1339 H 130.044 0.373565 -3.7223 0
M  V30 1340 H 131.377 0.511081 -4.89539 0
M  V30 1341 N 133.029 1.57378 -0.0835403 0
M  V30 1342 C 134.306 1.85363 0.624507 0
M  V30 1343 C 134.686 0.978239 1.87066 0
M  V30 1344 O 134.034 0.0475908 2.2845 0
M  V30 1345 C 134.244 3.35795 0.950947 0
M  V30 1346 C 135.592 4.03581 1.31939 0
M  V30 1347 O 136.616 3.40609 1.04232 0
M  V30 1348 O 135.475 5.14672 1.83779 0
M  V30 1349 H 132.569 0.766162 0.311329 0
M  V30 1350 H 135.115 1.69307 -0.115362 0
M  V30 1351 H 133.887 3.91244 0.0663899 0
M  V30 1352 H 133.51 3.57154 1.74719 0
M  V30 1353 N 134.507 -0.190092 1.56449 0
M  V30 1354 C 135.755 -0.907908 1.80559 0
M  V30 1355 C 136.076 -1.83583 0.657438 0
M  V30 1356 O 135.346 -1.93203 -0.323924 0
M  V30 1357 H 133.926 -0.338247 0.666032 0
M  V30 1358 H 136.588 -0.194403 1.93928 0
M  V30 1359 H 135.684 -1.49604 2.73907 0
M  V30 1360 N 135.985 -1.50799 -0.457987 0
M  V30 1361 C 137.213 -1.66218 -1.23203 0
M  V30 1362 C 137.628 -0.350894 -1.85511 0
M  V30 1363 O 136.985 0.668546 -1.69814 0
M  V30 1364 C 137.036 -2.76291 -2.33121 0
M  V30 1365 O 136.757 -4.02338 -1.73366 0
M  V30 1366 C 138.258 -3.028 -3.2377 0
M  V30 1367 H 135.478 -0.558361 -0.372121 0
M  V30 1368 H 138.022 -1.97099 -0.545179 0
M  V30 1369 H 136.177 -2.48068 -2.97558 0
M  V30 1370 H 136.591 -4.63312 -2.4585 0
M  V30 1371 H 138.065 -3.8345 -3.97077 0
M  V30 1372 H 138.542 -2.14385 -3.83322 0
M  V30 1373 H 139.148 -3.32604 -2.65056 0
M  V30 1374 N 137.463 0.71206 -1.40597 0
M  V30 1375 C 138.691 1.50111 -1.42388 0
M  V30 1376 C 139.106 1.88784 -0.0245395 0
M  V30 1377 O 138.463 1.55681 0.952351 0
M  V30 1378 C 138.514 2.7742 -2.31776 0
M  V30 1379 O 138.235 2.40382 -3.66262 0
M  V30 1380 C 139.736 3.7129 -2.42196 0
M  V30 1381 H 136.956 0.46314 -0.485533 0
M  V30 1382 H 139.5 0.878068 -1.8469 0
M  V30 1383 H 137.655 3.36001 -1.92827 0
M  V30 1384 H 138.069 3.22324 -4.13772 0
M  V30 1385 H 139.543 4.57448 -3.08943 0
M  V30 1386 H 140.02 4.14641 -1.44809 0
M  V30 1387 H 140.626 3.18619 -2.81712 0
M  V30 1388 N 138.941 1.26152 0.944643 0
M  V30 1389 C 140.166 1.14363 1.7302 0
M  V30 1390 C 140.591 -0.29772 1.85729 0
M  V30 1391 O 139.949 -1.2157 1.34501 0
M  V30 1392 C 139.997 1.81378 3.11664 0
M  V30 1393 O 139.101 1.10022 3.97453 0
M  V30 1394 H 138.442 0.398694 0.53098 0
M  V30 1395 H 140.972 1.66906 1.18337 0
M  V30 1396 H 140.982 1.88064 3.62072 0
M  V30 1397 H 139.657 2.86237 3.0173 0
M  V30 1398 H 138.234 1.11287 3.55907 0
M  V30 1399 N 140.419 -1.14872 1.07899 0
M  V30 1400 C 141.366 -2.19791 0.704319 0
M  V30 1401 C 142.336 -1.63238 -0.306987 0
M  V30 1402 O 143.521 -1.8983 -0.192171 0
M  V30 1403 C 140.661 -3.44911 0.114244 0
M  V30 1404 C 139.774 -4.15637 1.1777 0
M  V30 1405 C 138.909 -5.28324 0.552037 0
M  V30 1406 C 137.948 -5.90875 1.59789 0
M  V30 1407 N 137.085 -6.95022 0.994404 0
M  V30 1408 H 141.925 -2.5119 1.60336 0
M  V30 1409 H 139.462 -1.23356 0.801352 0
M  V30 1410 H 141.42 -4.16477 -0.245544 0
M  V30 1411 H 140.05 -3.14011 -0.74813 0
M  V30 1412 H 139.102 -3.42512 1.65499 0
M  V30 1413 H 140.414 -4.5823 1.97046 0
M  V30 1414 H 139.568 -6.06538 0.1402 0
M  V30 1415 H 138.307 -4.86939 -0.272431 0
M  V30 1416 H 137.312 -5.11369 2.01945 0
M  V30 1417 H 138.537 -6.34337 2.42474 0
M  V30 1418 H 136.483 -6.55722 0.190939 0
M  V30 1419 H 136.4 -7.36073 1.72432 0
M  V30 1420 H 137.668 -7.77123 0.608253 0
M  V30 1421 N 141.898 -0.863906 -1.31812 0
M  V30 1422 C 143.128 -0.485406 -2.00817 0
M  V30 1423 C 143.536 0.925007 -1.65046 0
M  V30 1424 O 142.879 1.61653 -0.872574 0
M  V30 1425 C 142.941 -0.555589 -3.55181 0
M  V30 1426 C 142.605 -1.92654 -4.14407 0
M  V30 1427 C 143.602 -2.89324 -4.31958 0
M  V30 1428 C 141.287 -2.2262 -4.50273 0
M  V30 1429 C 143.281 -4.14108 -4.84555 0
M  V30 1430 C 140.968 -3.47654 -5.02573 0
M  V30 1431 C 141.966 -4.43214 -5.19664 0
M  V30 1432 O 141.654 -5.66033 -5.70843 0
M  V30 1433 H 141.386 -0.188224 -0.649267 0
M  V30 1434 H 143.94 -1.16514 -1.69156 0
M  V30 1435 H 142.17 0.181037 -3.86276 0
M  V30 1436 H 143.859 -0.19138 -4.05449 0
M  V30 1437 H 144.625 -2.6748 -4.04573 0
M  V30 1438 H 140.504 -1.4902 -4.3625 0
M  V30 1439 H 144.048 -4.88703 -4.9781 0
M  V30 1440 H 139.945 -3.69345 -5.29391 0
M  V30 1441 H 140.713 -5.6812 -5.89222 0
M  V30 1442 N 143.376 1.44774 -0.622745 0
M  V30 1443 C 144.623 2.02121 -0.1239 0
M  V30 1444 C 144.951 1.48915 1.25118 0
M  V30 1445 O 144.206 0.660045 1.84233 0
M  V30 1446 C 144.505 3.57364 -0.0508323 0
M  V30 1447 C 144.171 4.29787 -1.36358 0
M  V30 1448 C 142.833 4.4929 -1.72314 0
M  V30 1449 C 145.185 4.71062 -2.23048 0
M  V30 1450 C 142.513 5.07325 -2.94682 0
M  V30 1451 C 144.865 5.30452 -3.44679 0
M  V30 1452 C 143.529 5.48175 -3.80868 0
M  V30 1453 H 142.799 0.739612 -0.0453381 0
M  V30 1454 H 145.446 1.73648 -0.807389 0
M  V30 1455 H 143.751 3.85202 0.715991 0
M  V30 1456 H 145.448 3.99456 0.351533 0
M  V30 1457 H 142.038 4.14932 -1.07375 0
M  V30 1458 H 146.222 4.55715 -1.96565 0
M  V30 1459 H 141.478 5.19235 -3.22809 0
M  V30 1460 H 145.652 5.61385 -4.12092 0
M  V30 1461 H 143.279 5.92912 -4.75773 0
M  V30 1462 N 144.854 0.36279 1.53368 0
M  V30 1463 C 146.1 -0.228113 2.01513 0
M  V30 1464 C 146.433 -1.48648 1.2497 0
M  V30 1465 O 145.708 -1.91459 0.342616 0
M  V30 1466 C 145.991 -0.522884 3.56284 0
M  V30 1467 C 145.844 0.74892 4.43521 0
M  V30 1468 C 147.163 -1.32461 4.19693 0
M  V30 1469 H 144.282 -0.0814343 0.732487 0
M  V30 1470 H 146.924 0.48713 1.83649 0
M  V30 1471 H 145.074 -1.1322 3.71636 0
M  V30 1472 H 146.746 1.38648 4.39971 0
M  V30 1473 H 144.989 1.36986 4.11603 0
M  V30 1474 H 145.66 0.497667 5.49752 0
M  V30 1475 H 148.136 -0.809203 4.08156 0
M  V30 1476 H 147.012 -1.49961 5.28018 0
M  V30 1477 H 147.273 -2.33232 3.75573 0
M  V30 1478 N 146.332 -1.57332 0.0918853 0
M  V30 1479 C 147.557 -1.98995 -0.584442 0
M  V30 1480 C 147.982 -0.970528 -1.61128 0
M  V30 1481 O 147.34 0.0613904 -1.81196 0
M  V30 1482 C 147.388 -3.39636 -1.21161 0
M  V30 1483 O 146.492 -3.40447 -2.32744 0
M  V30 1484 H 145.833 -0.647165 -0.148572 0
M  V30 1485 H 148.363 -2.03873 0.172347 0
M  V30 1486 H 148.373 -3.7726 -1.55367 0
M  V30 1487 H 147.048 -4.13356 -0.459313 0
M  V30 1488 H 145.625 -3.14614 -2.0018 0
M  V30 1489 N 147.81 0.181792 -1.56548 0
M  V30 1490 C 149.035 0.920019 -1.85877 0
M  V30 1491 C 149.46 1.75494 -0.677021 0
M  V30 1492 O 148.818 1.77399 0.374056 0
M  V30 1493 C 148.866 1.78112 -3.13542 0
M  V30 1494 O 147.97 2.88152 -2.95029 0
M  V30 1495 H 147.311 0.258334 -0.611686 0
M  V30 1496 H 149.841 0.183092 -2.03779 0
M  V30 1497 H 149.851 2.18314 -3.44678 0
M  V30 1498 H 148.526 1.16777 -3.99169 0
M  V30 1499 H 147.103 2.51609 -2.75222 0
M  V30 1500 N 149.288 1.51039 0.449983 0
M  V30 1501 C 150.536 1.62759 1.19808 0
M  V30 1502 C 150.857 0.339981 1.92013 0
M  V30 1503 O 150.127 -0.643606 1.85026 0
M  V30 1504 H 148.707 0.599811 0.445237 0
M  V30 1505 H 151.369 1.87914 0.517138 0
M  V30 1506 H 150.465 2.44911 1.93455 0
M  V30 1507 N 150.766 -0.704594 1.40972 0
M  V30 1508 C 151.991 -1.49858 1.43378 0
M  V30 1509 C 152.416 -1.88061 0.038184 0
M  V30 1510 O 151.774 -1.5402 -0.956425 0
M  V30 1511 C 151.822 -2.74333 2.34038 0
M  V30 1512 O 150.926 -3.7147 1.7912 0
M  V30 1513 H 150.267 -0.45139 0.486974 0
M  V30 1514 H 152.797 -0.866832 1.8533 0
M  V30 1515 H 152.807 -3.22741 2.49604 0
M  V30 1516 H 151.482 -2.45863 3.35446 0
M  V30 1517 H 150.059 -3.30363 1.72958 0
M  V30 1518 N 152.244 -1.26651 -0.937939 0
M  V30 1519 C 153.493 -1.11775 -1.67897 0
M  V30 1520 C 153.806 0.33794 -1.92659 0
M  V30 1521 O 155.012 0.607434 -2.64618 0
M  V30 1522 C 153.468 -1.9523 -3.02346 0
M  V30 1523 C 153.076 -3.45393 -2.8532 0
M  V30 1524 C 154.82 -1.88972 -3.80118 0
M  V30 1525 C 152.727 -4.21083 -4.15263 0
M  V30 1526 H 151.657 -0.414696 -0.629717 0
M  V30 1527 H 154.308 -1.50988 -1.04283 0
M  V30 1528 H 152.69 -1.48853 -3.66959 0
M  V30 1529 H 153.864 -3.99561 -2.29537 0
M  V30 1530 H 152.179 -3.52921 -2.20988 0
M  V30 1531 H 154.776 -2.42805 -4.76392 0
M  V30 1532 H 155.119 -0.86113 -4.07296 0
M  V30 1533 H 155.652 -2.33189 -3.22285 0
M  V30 1534 H 152.391 -5.24425 -3.93267 0
M  V30 1535 H 151.911 -3.71695 -4.70747 0
M  V30 1536 H 153.59 -4.29706 -4.83696 0
M  V30 1537 N 153.722 1.14298 -1.08507 0
M  V30 1538 C 154.685 2.17607 -0.719711 0
M  V30 1539 C 155.685 1.58907 0.245997 0
M  V30 1540 O 156.875 1.74181 0.0254081 0
M  V30 1541 C 154.007 3.40842 -0.0627695 0
M  V30 1542 H 155.2 2.51443 -1.63452 0
M  V30 1543 H 152.753 1.28963 -0.88307 0
M  V30 1544 H 153.488 3.12587 0.863716 0
M  V30 1545 H 153.273 3.84713 -0.757504 0
M  V30 1546 H 154.763 4.17221 0.177786 0
M  V30 1547 N 155.201 0.870884 1.31352 0
M  V30 1548 C 156.447 0.482987 1.96965 0
M  V30 1549 C 156.78 -0.962462 1.68672 0
M  V30 1550 O 156.055 -1.6779 0.98371 0
M  V30 1551 C 156.338 0.741752 3.52378 0
M  V30 1552 C 156.191 2.2368 3.9024 0
M  V30 1553 C 157.51 0.208838 4.39604 0
M  V30 1554 H 154.629 0.176955 0.715441 0
M  V30 1555 H 157.271 1.09229 1.55464 0
M  V30 1556 H 155.421 0.223149 3.87859 0
M  V30 1557 H 157.093 2.82273 3.64856 0
M  V30 1558 H 155.336 2.70901 3.38814 0
M  V30 1559 H 156.007 2.3685 4.98604 0
M  V30 1560 H 158.483 0.652529 4.10952 0
M  V30 1561 H 157.359 0.419336 5.47296 0
M  V30 1562 H 157.62 -0.889275 4.33064 0
M  V30 1563 N 156.679 -1.44442 0.630414 0
M  V30 1564 C 157.627 -2.32437 -0.0871428 0
M  V30 1565 C 158.621 -1.47304 -0.836525 0
M  V30 1566 O 159.827 -1.63653 -0.749506 0
M  V30 1567 H 156.202 -0.750533 -0.0469495 0
M  V30 1568 H 158.173 -2.90709 0.673096 0
M  V30 1569 C 156.922 -3.31288 -1.05563 0
M  V30 1570 H 156.245 -3.96805 -0.488426 0
M  V30 1571 H 157.685 -3.9554 -1.52721 0
M  V30 1572 C 156.144 -2.6016 -2.14052 0
M  V30 1573 O 156.674 -2.39997 -3.22124 0
M  V30 1574 N 154.88 -2.19911 -1.89967 0
M  V30 1575 H 154.427 -2.36509 -1.02085 0
M  V30 1576 H 154.385 -1.72646 -2.62756 0
M  V30 1577 N 158.157 -0.370918 -1.53173 0
M  V30 1578 C 159.12 0.460778 -2.24521 0
M  V30 1579 C 160.12 1.00536 -1.25496 0
M  V30 1580 O 161.31 0.890266 -1.49733 0
M  V30 1581 C 158.442 1.64457 -2.98608 0
M  V30 1582 H 159.635 -0.163613 -2.99453 0
M  V30 1583 H 157.188 -0.122699 -1.55818 0
M  V30 1584 H 157.923 2.30691 -2.2793 0
M  V30 1585 H 157.708 1.26099 -3.7127 0
M  V30 1586 H 159.198 2.23384 -3.5283 0
M  V30 1587 N 159.635 1.57281 -0.100228 0
M  V30 1588 C 160.912 1.86014 0.604812 0
M  V30 1589 C 161.292 0.998025 1.86018 0
M  V30 1590 O 160.64 0.0718184 2.28387 0
M  V30 1591 C 160.85 3.36784 0.915278 0
M  V30 1592 C 162.198 4.04957 1.27651 0
M  V30 1593 O 163.222 3.41695 1.00613 0
M  V30 1594 O 162.081 5.16593 1.7831 0
M  V30 1595 H 159.175 0.76942 0.303185 0
M  V30 1596 H 161.721 1.69176 -0.133313 0
M  V30 1597 H 160.493 3.91292 0.0248896 0
M  V30 1598 H 160.116 3.58987 1.70921 0
M  V30 1599 N 161.113 -0.173488 1.56642 0
M  V30 1600 C 162.338 -0.910149 1.86363 0
M  V30 1601 C 162.763 -1.75132 0.686318 0
M  V30 1602 O 162.121 -1.77595 -0.364643 0
M  V30 1603 C 162.169 -1.76447 3.14482 0
M  V30 1604 O 161.273 -2.86584 2.96553 0
M  V30 1605 H 160.614 -0.255086 0.613047 0
M  V30 1606 H 163.144 -0.172283 2.03873 0
M  V30 1607 H 163.154 -2.16483 3.45831 0
M  V30 1608 H 161.829 -1.14658 3.99783 0
M  V30 1609 H 160.406 -2.50146 2.76553 0
M  V30 1610 N 162.591 -1.51276 -0.441967 0
M  V30 1611 C 163.816 -1.67799 -1.21895 0
M  V30 1612 C 164.241 -0.372864 -1.84367 0
M  V30 1613 O 163.599 0.666501 -1.68604 0
M  V30 1614 C 163.647 -2.79199 -2.28211 0
M  V30 1615 O 162.751 -2.42479 -3.33583 0
M  V30 1616 H 162.092 -0.559649 -0.357336 0
M  V30 1617 H 164.622 -1.97815 -0.522522 0
M  V30 1618 H 164.632 -3.03146 -2.73069 0
M  V30 1619 H 163.307 -3.73906 -1.82118 0
M  V30 1620 H 161.884 -2.29087 -2.94234 0
M  V30 1621 N 164.069 0.697108 -1.41344 0
M  V30 1622 C 165.315 1.4593 -1.40827 0
M  V30 1623 C 165.648 1.94193 -0.0167098 0
M  V30 1624 O 164.923 1.69425 0.955263 0
M  V30 1625 C 165.206 2.67229 -2.41373 0
M  V30 1626 C 165.059 2.24741 -3.8963 0
M  V30 1627 C 166.378 3.69423 -2.39196 0
M  V30 1628 H 163.497 0.529303 -0.512842 0
M  V30 1629 H 166.139 0.794112 -1.72609 0
M  V30 1630 H 164.289 3.23982 -2.14401 0
M  V30 1631 H 165.961 1.73327 -4.27499 0
M  V30 1632 H 164.204 1.56542 -4.0457 0
M  V30 1633 H 164.875 3.1177 -4.55525 0
M  V30 1634 H 167.351 3.2234 -2.63128 0
M  V30 1635 H 166.227 4.51907 -3.11563 0
M  V30 1636 H 166.488 4.19012 -1.41001 0
M  V30 1637 N 165.547 1.27147 0.931209 0
M  V30 1638 C 166.479 1.05364 2.03546 0
M  V30 1639 C 167.492 0.0108438 1.62796 0
M  V30 1640 O 168.681 0.25202 1.76712 0
M  V30 1641 C 165.781 0.575566 3.33977 0
M  V30 1642 C 164.954 1.68985 4.03439 0
M  V30 1643 C 164.013 1.20813 5.12143 0
M  V30 1644 O 163.039 1.90712 5.363 0
M  V30 1645 N 164.241 0.0618851 5.80467 0
M  V30 1646 H 167.006 2.00454 2.22796 0
M  V30 1647 H 164.567 1.18666 1.10136 0
M  V30 1648 H 166.559 0.237264 4.04004 0
M  V30 1649 H 165.129 -0.282016 3.11325 0
M  V30 1650 H 164.349 2.19861 3.27192 0
M  V30 1651 H 165.637 2.4378 4.46597 0
M  V30 1652 H 165.035 -0.521621 5.6329 0
M  V30 1653 H 163.592 -0.217264 6.51438 0
M  V30 1654 N 167.025 -1.13721 1.09112 0
M  V30 1655 C 167.955 -2.21148 0.749385 0
M  V30 1656 C 168.936 -1.6792 -0.271475 0
M  V30 1657 O 170.121 -1.93693 -0.140251 0
M  V30 1658 C 167.251 -3.46905 0.165659 0
M  V30 1659 C 166.205 -4.13203 1.11567 0
M  V30 1660 C 165.531 -5.33248 0.393809 0
M  V30 1661 C 166.831 -4.60912 2.45678 0
M  V30 1662 H 168.525 -2.4999 1.64758 0
M  V30 1663 H 166.071 -1.20156 0.793626 0
M  V30 1664 H 168.024 -4.21313 -0.085466 0
M  V30 1665 H 166.748 -3.17449 -0.767714 0
M  V30 1666 H 165.407 -3.40758 1.35202 0
M  V30 1667 H 165.055 -5.00054 -0.543599 0
M  V30 1668 H 164.755 -5.78552 1.02721 0
M  V30 1669 H 166.279 -6.10413 0.150908 0
M  V30 1670 H 167.693 -5.26759 2.26269 0
M  V30 1671 H 166.09 -5.16944 3.04776 0
M  V30 1672 H 167.16 -3.75603 3.06677 0
M  V30 1673 N 168.503 -0.877838 -1.30888 0
M  V30 1674 C 169.433 -0.35534 -2.3078 0
M  V30 1675 C 170.414 0.557994 -1.60687 0
M  V30 1676 O 171.599 0.473355 -1.88343 0
M  V30 1677 C 168.729 0.437221 -3.44537 0
M  V30 1678 C 167.683 -0.383715 -4.26276 0
M  V30 1679 C 167.009 0.535014 -5.32017 0
M  V30 1680 C 168.309 -1.62201 -4.96476 0
M  V30 1681 H 170.003 -1.19007 -2.74732 0
M  V30 1682 H 167.549 -0.573698 -1.32078 0
M  V30 1683 H 169.502 0.813334 -4.13477 0
M  V30 1684 H 168.226 1.30553 -2.99372 0
M  V30 1685 H 166.885 -0.741874 -3.59015 0
M  V30 1686 H 166.533 1.40083 -4.831 0
M  V30 1687 H 166.233 -0.0104211 -5.87599 0
M  V30 1688 H 167.757 0.907799 -6.03814 0
M  V30 1689 H 169.171 -1.31689 -5.5797 0
M  V30 1690 H 167.568 -2.10711 -5.61891 0
M  V30 1691 H 168.638 -2.37044 -4.23011 0
M  V30 1692 N 169.982 1.44106 -0.638065 0
M  V30 1693 C 170.945 2.29138 0.0531013 0
M  V30 1694 C 171.945 1.41409 0.765506 0
M  V30 1695 O 173.135 1.63206 0.609046 0
M  V30 1696 C 170.267 3.23144 1.08584 0
M  V30 1697 H 171.46 2.91739 -0.694883 0
M  V30 1698 H 169.013 1.51134 -0.398538 0
M  V30 1699 H 169.748 2.65408 1.86357 0
M  V30 1700 H 169.533 3.87804 0.578852 0
M  V30 1701 H 171.023 3.87004 1.56899 0
M  V30 1702 N 171.46 0.379036 1.52974 0
M  V30 1703 C 172.37 -0.468639 2.29872 0
M  V30 1704 C 173.386 -1.08067 1.36373 0
M  V30 1705 O 174.562 -1.08871 1.69438 0
M  V30 1706 C 171.627 -1.58594 3.083 0
M  V30 1707 C 170.688 -1.00007 4.17489 0
M  V30 1708 C 169.921 -2.06413 4.92168 0
M  V30 1709 O 170.144 -3.27751 4.66835 0
M  V30 1710 O 169.078 -1.68717 5.7777 0
M  V30 1711 H 172.904 0.157508 3.03291 0
M  V30 1712 H 170.489 0.143035 1.48714 0
M  V30 1713 H 172.371 -2.23525 3.57232 0
M  V30 1714 H 171.046 -2.19724 2.37703 0
M  V30 1715 H 169.953 -0.314299 3.72777 0
M  V30 1716 H 171.286 -0.433135 4.90291 0
M  V30 1717 N 172.938 -1.57226 0.108567 0
M  V30 1718 C 173.848 -2.18292 -0.859401 0
M  V30 1719 C 174.864 -1.15612 -1.30038 0
M  V30 1720 O 176.04 -1.48039 -1.36552 0
M  V30 1721 C 173.105 -2.762 -2.09558 0
M  V30 1722 C 172.166 -3.93881 -1.70752 0
M  V30 1723 C 171.399 -4.49018 -2.88477 0
M  V30 1724 O 171.622 -4.03068 -4.036 0
M  V30 1725 O 170.556 -5.39852 -2.66164 0
M  V30 1726 H 174.382 -3.01441 -0.369769 0
M  V30 1727 H 171.967 -1.48945 -0.1165 0
M  V30 1728 H 173.849 -3.13156 -2.81978 0
M  V30 1729 H 172.524 -1.96089 -2.57548 0
M  V30 1730 H 171.431 -3.61713 -0.954714 0
M  V30 1731 H 172.764 -4.75396 -1.27513 0
M  V30 1732 N 174.416 0.165178 -1.56732 0
M  V30 1733 C 175.379 1.18822 -1.95995 0
M  V30 1734 C 176.379 1.3685 -0.84431 0
M  V30 1735 O 177.569 1.34152 -1.11126 0
M  V30 1736 C 174.701 2.5521 -2.26011 0
M  V30 1737 H 175.894 0.851825 -2.87548 0
M  V30 1738 H 173.447 0.407857 -1.50885 0
M  V30 1739 H 174.182 2.93852 -1.37191 0
M  V30 1740 H 173.967 2.43489 -3.07336 0
M  V30 1741 H 175.457 3.28927 -2.57288 0
M  V30 1742 N 175.894 1.51508 0.433938 0
M  V30 1743 C 177.14 1.64588 1.18484 0
M  V30 1744 C 177.473 0.362666 1.90784 0
M  V30 1745 O 176.748 -0.637892 1.83742 0
M  V30 1746 C 177.031 2.85149 2.19913 0
M  V30 1747 C 176.884 4.23456 1.51674 0
M  V30 1748 C 178.203 3.01227 3.20858 0
M  V30 1749 H 175.322 0.598994 0.429389 0
M  V30 1750 H 177.964 1.84002 0.473647 0
M  V30 1751 H 176.114 2.68729 2.80566 0
M  V30 1752 H 177.786 4.51552 0.943322 0
M  V30 1753 H 176.029 4.25998 0.819035 0
M  V30 1754 H 176.7 5.03812 2.2556 0
M  V30 1755 H 179.176 3.16382 2.70263 0
M  V30 1756 H 178.052 3.87141 3.89118 0
M  V30 1757 H 178.313 2.13447 3.8716 0
M  V30 1758 N 177.372 -0.689602 1.41712 0
M  V30 1759 C 178.6 -1.47827 1.44758 0
M  V30 1760 C 179.015 -1.88721 0.0545703 0
M  V30 1761 O 178.372 -1.57176 -0.927463 0
M  V30 1762 C 178.423 -2.73698 2.3616 0
M  V30 1763 O 178.144 -2.34524 3.7004 0
M  V30 1764 C 179.645 -3.67389 2.48072 0
M  V30 1765 H 176.865 -0.455357 0.49284 0
M  V30 1766 H 179.409 -0.848574 1.86063 0
M  V30 1767 H 177.564 -3.32891 1.98148 0
M  V30 1768 H 177.978 -3.15701 4.18847 0
M  V30 1769 H 179.452 -4.52475 3.16181 0
M  V30 1770 H 179.929 -4.12284 1.51388 0
M  V30 1771 H 180.535 -3.14097 2.86746 0
M  V30 1772 N 178.85 -1.27639 -0.924453 0
M  V30 1773 C 179.78 -1.13166 -2.04244 0
M  V30 1774 C 180.761 -0.032256 -1.70069 0
M  V30 1775 O 181.946 -0.207328 -1.9309 0
M  V30 1776 C 179.076 -0.781496 -3.38393 0
M  V30 1777 C 178.03 -1.83449 -3.86692 0
M  V30 1778 C 177.356 -1.33822 -5.17683 0
M  V30 1779 C 178.656 -3.23917 -4.09726 0
M  V30 1780 H 180.35 -2.06689 -2.1661 0
M  V30 1781 H 177.896 -0.995136 -1.04082 0
M  V30 1782 H 179.849 -0.667057 -4.16087 0
M  V30 1783 H 178.573 0.189439 -3.2605 0
M  V30 1784 H 177.232 -1.93789 -3.11193 0
M  V30 1785 H 176.88 -0.35665 -5.01734 0
M  V30 1786 H 176.58 -2.04224 -5.50968 0
M  V30 1787 H 178.104 -1.23679 -5.97943 0
M  V30 1788 H 179.518 -3.16559 -4.77978 0
M  V30 1789 H 177.915 -3.92059 -4.54324 0
M  V30 1790 H 178.985 -3.68729 -3.14908 0
M  V30 1791 N 180.328 1.1314 -1.09713 0
M  V30 1792 C 181.605 1.80762 -0.747302 0
M  V30 1793 C 181.985 1.96663 0.767265 0
M  V30 1794 O 181.333 1.53706 1.69076 0
M  V30 1795 C 181.543 3.15606 -1.48975 0
M  V30 1796 C 182.891 3.90914 -1.65746 0
M  V30 1797 O 183.915 3.25239 -1.45251 0
M  V30 1798 O 182.774 5.08718 -1.9967 0
M  V30 1799 H 179.868 0.782103 -0.268782 0
M  V30 1800 H 182.414 1.20041 -1.19951 0
M  V30 1801 H 181.186 2.99278 -2.52088 0
M  V30 1802 H 180.809 3.84029 -1.02991 0
M  V30 1803 N 181.806 0.884767 1.30421 0
M  V30 1804 C 182.739 0.295999 2.26272 0
M  V30 1805 C 183.717 -0.58332 1.51777 0
M  V30 1806 O 184.901 -0.53346 1.80794 0
M  V30 1807 C 182.028 -0.57944 3.33707 0
M  V30 1808 C 181.074 0.230525 4.25877 0
M  V30 1809 S 181.907 1.61867 5.1045 0
M  V30 1810 C 183.063 0.749756 6.21393 0
M  V30 1811 H 183.296 1.10848 2.75862 0
M  V30 1812 H 180.829 0.684178 1.38414 0
M  V30 1813 H 182.787 -1.07879 3.96071 0
M  V30 1814 H 181.448 -1.36601 2.82841 0
M  V30 1815 H 180.641 -0.437542 5.02097 0
M  V30 1816 H 180.243 0.662493 3.68086 0
M  V30 1817 H 182.535 -0.0333547 6.77492 0
M  V30 1818 H 183.478 1.48356 6.92384 0
M  V30 1819 H 183.886 0.310751 5.63644 0
M  V30 1820 N 183.284 -1.43765 0.645699 0
M  V30 1821 C 184.214 -2.33471 -0.0370477 0
M  V30 1822 C 185.195 -1.49042 -0.819779 0
M  V30 1823 O 186.38 -1.77726 -0.782758 0
M  V30 1824 C 183.51 -3.32311 -1.0093 0
M  V30 1825 C 182.464 -4.2667 -0.337201 0
M  V30 1826 C 181.79 -5.1549 -1.42037 0
M  V30 1827 C 183.09 -5.16657 0.765706 0
M  V30 1828 H 184.784 -2.90809 0.712069 0
M  V30 1829 H 182.33 -1.39834 0.343876 0
M  V30 1830 H 184.283 -3.9396 -1.49578 0
M  V30 1831 H 183.007 -2.73213 -1.78948 0
M  V30 1832 H 181.666 -3.66374 0.128771 0
M  V30 1833 H 181.314 -4.52735 -2.1918 0
M  V30 1834 H 181.014 -5.79438 -0.975966 0
M  V30 1835 H 182.538 -5.80012 -1.90838 0
M  V30 1836 H 183.952 -5.72158 0.361702 0
M  V30 1837 H 182.349 -5.89286 1.13413 0
M  V30 1838 H 183.419 -4.56796 1.62683 0
M  V30 1839 N 184.763 -0.387143 -1.52771 0
M  V30 1840 C 186.04 0.253197 -1.93954 0
M  V30 1841 C 186.42 1.64545 -1.32243 0
M  V30 1842 O 185.768 2.23191 -0.489699 0
M  V30 1843 C 185.978 0.281722 -3.47861 0
M  V30 1844 C 187.326 0.511715 -4.21505 0
M  V30 1845 O 188.35 0.362023 -3.54356 0
M  V30 1846 O 187.209 0.804847 -5.40541 0
M  V30 1847 H 184.303 0.156845 -0.811991 0
M  V30 1848 H 186.849 -0.441494 -1.63856 0
M  V30 1849 H 185.621 -0.693571 -3.85104 0
M  V30 1850 H 185.244 1.02142 -3.84256 0
M  V30 1851 N 186.241 1.57166 -0.116904 0
M  V30 1852 C 187.171 2.18222 0.830759 0
M  V30 1853 C 188.152 1.12167 1.27877 0
M  V30 1854 O 189.337 1.40394 1.34176 0
M  V30 1855 C 186.467 2.77996 2.08172 0
M  V30 1856 C 185.421 3.89614 1.77157 0
M  V30 1857 C 184.747 4.36187 3.09265 0
M  V30 1858 C 186.047 5.1181 1.04151 0
M  V30 1859 H 187.741 2.97664 0.321992 0
M  V30 1860 H 185.287 1.4318 0.153434 0
M  V30 1861 H 187.24 3.19366 2.74924 0
M  V30 1862 H 185.964 1.9584 2.6137 0
M  V30 1863 H 184.623 3.48816 1.12796 0
M  V30 1864 H 184.271 3.50893 3.60393 0
M  V30 1865 H 183.971 5.11455 2.89288 0
M  V30 1866 H 185.495 4.80207 3.77139 0
M  V30 1867 H 186.909 5.50214 1.61052 0
M  V30 1868 H 185.306 5.92648 0.942762 0
M  V30 1869 H 186.376 4.84892 0.0279022 0
M  V30 1870 N 187.719 -0.156864 1.56817 0
M  V30 1871 C 188.967 -0.869404 1.82444 0
M  V30 1872 C 189.288 -1.82147 0.69623 0
M  V30 1873 O 188.558 -1.93847 -0.28287 0
M  V30 1874 H 187.138 -0.324043 0.673056 0
M  V30 1875 H 189.8 -0.153224 1.94297 0
M  V30 1876 H 188.896 -1.43761 2.77019 0
M  V30 1877 N 189.197 -1.51736 -0.425897 0
M  V30 1878 C 190.16 -1.73271 -1.50032 0
M  V30 1879 C 191.16 -0.602639 -1.4908 0
M  V30 1880 O 192.35 -0.87033 -1.509 0
M  V30 1881 C 189.482 -1.79969 -2.89523 0
M  V30 1882 H 190.675 -2.69172 -1.32237 0
M  V30 1883 H 188.228 -1.41899 -0.65532 0
M  V30 1884 H 188.963 -0.859241 -3.1271 0
M  V30 1885 H 188.748 -2.62109 -2.91619 0
M  V30 1886 H 190.238 -1.9843 -3.67444 0
M  V30 1887 N 190.675 0.682077 -1.42076 0
M  V30 1888 C 191.638 1.77756 -1.44691 0
M  V30 1889 C 192.638 1.5726 -0.335535 0
M  V30 1890 O 193.828 1.63686 -0.596037 0
M  V30 1891 C 190.96 3.16301 -1.27146 0
M  V30 1892 H 192.153 1.76826 -2.42224 0
M  V30 1893 H 189.706 0.891012 -1.28416 0
M  V30 1894 H 190.441 3.22862 -0.305075 0
M  V30 1895 H 190.226 3.32581 -2.07683 0
M  V30 1896 H 191.716 3.96241 -1.31843 0
M  V30 1897 N 192.153 1.28127 0.917671 0
M  V30 1898 C 193.1 1.11717 2.0196 0
M  V30 1899 C 194.07 0.0153929 1.66093 0
M  V30 1900 O 195.255 0.179596 1.89953 0
M  V30 1901 C 192.395 0.780927 3.36148 0
M  V30 1902 C 191.508 1.96135 3.84909 0
M  V30 1903 C 190.643 1.56609 5.0759 0
M  V30 1904 C 189.682 2.71339 5.48673 0
M  V30 1905 N 188.819 2.32332 6.62545 0
M  V30 1906 H 193.659 2.06003 2.15329 0
M  V30 1907 H 191.196 1.02535 1.05475 0
M  V30 1908 H 193.154 0.56675 4.13333 0
M  V30 1909 H 191.784 -0.124998 3.22558 0
M  V30 1910 H 190.836 2.28777 3.03916 0
M  V30 1911 H 192.148 2.82165 4.1132 0
M  V30 1912 H 191.302 1.31374 5.92305 0
M  V30 1913 H 190.041 0.677014 4.82978 0
M  V30 1914 H 189.046 2.97276 4.62501 0
M  V30 1915 H 190.271 3.60882 5.75274 0
M  V30 1916 H 188.217 1.45889 6.39572 0
M  V30 1917 H 188.134 3.11899 6.88662 0
M  V30 1918 H 189.402 2.10371 7.50576 0
M  V30 1919 N 193.631 -1.12557 1.10312 0
M  V30 1920 C 194.594 -2.16434 0.75424 0
M  V30 1921 C 195.594 -1.59278 -0.220685 0
M  V30 1922 O 196.784 -1.742 0.00230591 0
M  V30 1923 C 193.916 -3.40699 0.116987 0
M  V30 1924 H 195.109 -2.48811 1.67431 0
M  V30 1925 H 192.662 -1.27542 0.903475 0
M  V30 1926 H 193.397 -3.13921 -0.813877 0
M  V30 1927 H 193.182 -3.83459 0.818613 0
M  V30 1928 H 194.672 -4.17451 -0.111387 0
M  V30 1929 N 195.109 -0.891671 -1.2995 0
M  V30 1930 C 196.057 -0.353066 -2.29905 0
M  V30 1931 C 197.051 0.543509 -1.60444 0
M  V30 1932 O 198.257 0.4272 -1.74857 0
M  V30 1933 H 194.632 -0.095531 -0.745907 0
M  V30 1934 H 196.603 -1.20961 -2.72784 0
M  V30 1935 C 195.352 0.411475 -3.45257 0
M  V30 1936 H 194.675 -0.269182 -3.98893 0
M  V30 1937 H 196.115 0.753328 -4.17254 0
M  V30 1938 C 194.574 1.6111 -2.9588 0
M  V30 1939 O 195.104 2.71045 -2.96475 0
M  V30 1940 N 193.31 1.45054 -2.51809 0
M  V30 1941 H 192.857 0.556175 -2.51524 0
M  V30 1942 H 192.815 2.25453 -2.1913 0
M  V30 1943 N 196.587 1.43421 -0.653314 0
M  V30 1944 C 197.517 2.33487 0.0246656 0
M  V30 1945 C 198.498 1.49475 0.811863 0
M  V30 1946 O 199.683 1.78139 0.773322 0
M  V30 1947 C 196.813 3.32841 0.99166 0
M  V30 1948 C 195.767 4.26842 0.314568 0
M  V30 1949 C 195.093 5.16236 1.39302 0
M  V30 1950 C 196.393 5.16243 -0.793095 0
M  V30 1951 H 198.087 2.90427 -0.727481 0
M  V30 1952 H 195.633 1.39649 -0.351287 0
M  V30 1953 H 197.586 3.94747 1.47487 0
M  V30 1954 H 196.31 2.74158 1.77497 0
M  V30 1955 H 194.969 3.663 -0.148199 0
M  V30 1956 H 194.617 4.53891 2.16776 0
M  V30 1957 H 194.317 5.79948 0.945223 0
M  V30 1958 H 195.841 5.81015 1.87759 0
M  V30 1959 H 197.255 5.71958 -0.392039 0
M  V30 1960 H 195.652 5.88676 -1.16536 0
M  V30 1961 H 196.722 4.55927 -1.65103 0
M  V30 1962 N 198.065 0.39524 1.52563 0
M  V30 1963 C 198.975 -0.444232 2.30356 0
M  V30 1964 C 199.991 -1.06615 1.37511 0
M  V30 1965 O 201.167 -1.07067 1.70583 0
M  V30 1966 C 198.232 -1.55315 3.09964 0
M  V30 1967 C 197.293 -0.955734 4.18526 0
M  V30 1968 C 196.526 -2.01181 4.9433 0
M  V30 1969 O 196.749 -3.22781 4.70285 0
M  V30 1970 O 195.683 -1.62579 5.79527 0
M  V30 1971 H 199.509 0.189667 3.03107 0
M  V30 1972 H 197.094 0.1588 1.48554 0
M  V30 1973 H 198.976 -2.19724 3.59582 0
M  V30 1974 H 197.651 -2.17191 2.4002 0
M  V30 1975 H 196.558 -0.274743 3.7309 0
M  V30 1976 H 197.891 -0.381109 4.90722 0
M  V30 1977 N 199.544 -1.57102 0.125237 0
M  V30 1978 C 200.491 -2.15641 -0.822655 0
M  V30 1979 C 201.461 -1.08313 -1.25927 0
M  V30 1980 O 202.646 -1.36251 -1.33567 0
M  V30 1981 C 199.786 -2.76504 -2.06494 0
M  V30 1982 C 198.899 -3.98158 -1.67612 0
M  V30 1983 C 198.034 -4.47088 -2.86854 0
M  V30 1984 C 197.073 -5.6126 -2.44242 0
M  V30 1985 N 196.21 -6.04905 -3.56419 0
M  V30 1986 H 201.05 -2.96313 -0.316625 0
M  V30 1987 H 198.587 -1.46388 -0.144588 0
M  V30 1988 H 200.545 -3.09925 -2.79289 0
M  V30 1989 H 199.175 -1.98512 -2.54545 0
M  V30 1990 H 198.227 -3.70858 -0.846661 0
M  V30 1991 H 199.539 -4.80934 -1.32301 0
M  V30 1992 H 198.693 -4.82451 -3.67867 0
M  V30 1993 H 197.432 -3.63275 -3.25396 0
M  V30 1994 H 196.437 -5.25495 -1.61663 0
M  V30 1995 H 197.662 -6.46843 -2.0681 0
M  V30 1996 H 195.608 -5.24032 -3.94623 0
M  V30 1997 H 195.525 -6.82552 -3.25051 0
M  V30 1998 H 196.793 -6.44907 -4.37853 0
M  V30 1999 N 201.022 0.148545 -1.56898 0
M  V30 2000 C 201.985 1.16736 -1.97244 0
M  V30 2001 C 202.985 1.35947 -0.858777 0
M  V30 2002 O 204.175 1.32966 -1.12542 0
M  V30 2003 C 201.307 2.52798 -2.28705 0
M  V30 2004 H 202.5 0.821279 -2.88435 0
M  V30 2005 H 200.053 0.391831 -1.51309 0
M  V30 2006 H 200.788 2.92381 -1.403 0
M  V30 2007 H 200.573 2.40216 -3.09901 0
M  V30 2008 H 202.063 3.26179 -2.60762 0
M  V30 2009 N 202.5 1.5196 0.417844 0
M  V30 2010 C 203.432 1.70895 1.52733 0
M  V30 2011 C 204.445 0.589405 1.51756 0
M  V30 2012 O 205.634 0.864312 1.56179 0
M  V30 2013 C 202.734 1.72627 2.91639 0
M  V30 2014 C 201.907 3.01479 3.16905 0
M  V30 2015 C 200.966 2.95139 4.35637 0
M  V30 2016 O 199.992 3.69059 4.3334 0
M  V30 2017 N 201.194 2.12328 5.40275 0
M  V30 2018 H 203.959 2.66612 1.36888 0
M  V30 2019 H 201.52 1.50089 0.607037 0
M  V30 2020 H 203.512 1.65928 3.6912 0
M  V30 2021 H 202.082 0.844216 3.00985 0
M  V30 2022 H 201.302 3.21895 2.27546 0
M  V30 2023 H 202.59 3.86736 3.30625 0
M  V30 2024 H 201.988 1.51685 5.44985 0
M  V30 2025 H 200.545 2.11494 6.16534 0
M  V30 2026 N 203.978 -0.674533 1.42435 0
M  V30 2027 C 204.941 -1.76986 1.45632 0
M  V30 2028 C 205.941 -1.5708 0.343871 0
M  V30 2029 O 207.131 -1.63367 0.604709 0
M  V30 2030 C 204.263 -3.15623 1.28822 0
M  V30 2031 H 205.456 -1.75539 2.43158 0
M  V30 2032 H 203.009 -0.884189 1.28887 0
M  V30 2033 H 203.744 -3.22696 0.322193 0
M  V30 2034 H 203.529 -3.31475 2.09444 0
M  V30 2035 H 205.019 -3.95537 1.33942 0
M  V30 2036 N 205.456 -1.28612 -0.910864 0
M  V30 2037 C 206.366 -1.14643 -2.0468 0
M  V30 2038 C 207.382 -0.0723121 -1.7385 0
M  V30 2039 O 208.558 -0.282178 -1.99413 0
M  V30 2040 C 205.623 -0.812561 -3.37044 0
M  V30 2041 C 204.684 -1.96935 -3.81465 0
M  V30 2042 C 203.917 -1.65131 -5.07511 0
M  V30 2043 O 204.14 -0.567013 -5.67575 0
M  V30 2044 O 203.074 -2.49585 -5.47714 0
M  V30 2045 H 206.9 -2.1001 -2.19384 0
M  V30 2046 H 204.485 -1.07958 -1.03274 0
M  V30 2047 H 206.367 -0.640441 -4.16505 0
M  V30 2048 H 205.042 0.111426 -3.23508 0
M  V30 2049 H 203.949 -2.19664 -3.02818 0
M  V30 2050 H 205.282 -2.87414 -3.99567 0
M  V30 2051 N 206.934 1.1197 -1.10907 0
M  V30 2052 C 207.864 2.19928 -0.784473 0
M  V30 2053 C 208.845 1.6833 0.244726 0
M  V30 2054 O 210.03 1.93892 0.109418 0
M  V30 2055 C 207.16 3.46597 -0.220827 0
M  V30 2056 C 206.114 4.11376 -1.18127 0
M  V30 2057 C 205.44 5.32554 -0.478594 0
M  V30 2058 C 206.74 4.56945 -2.52979 0
M  V30 2059 H 208.434 2.47337 -1.68715 0
M  V30 2060 H 205.98 1.18879 -0.812642 0
M  V30 2061 H 207.933 4.21396 0.0184278 0
M  V30 2062 H 206.657 3.1863 0.717113 0
M  V30 2063 H 205.316 3.38564 -1.40606 0
M  V30 2064 H 204.964 5.00856 0.463976 0
M  V30 2065 H 204.664 5.76844 -1.11912 0
M  V30 2066 H 206.188 6.10096 -0.248 0
M  V30 2067 H 207.602 5.23093 -2.3462 0
M  V30 2068 H 205.999 5.1203 -3.12962 0
M  V30 2069 H 207.069 3.70676 -3.12614 0
M  V30 2070 N 208.412 0.89855 1.29475 0
M  V30 2071 C 209.658 0.524658 1.95896 0
M  V30 2072 C 209.991 -0.926468 1.70676 0
M  V30 2073 O 209.266 -1.65665 1.01908 0
M  V30 2074 C 209.549 0.81633 3.50725 0
M  V30 2075 C 209.402 2.31907 3.85408 0
M  V30 2076 C 210.721 0.302038 4.39062 0
M  V30 2077 H 207.84 0.19209 0.711527 0
M  V30 2078 H 210.482 1.12502 1.53112 0
M  V30 2079 H 208.632 0.305369 3.87298 0
M  V30 2080 H 210.304 2.89949 3.58786 0
M  V30 2081 H 208.547 2.78027 3.32992 0
M  V30 2082 H 209.218 2.47373 4.93468 0
M  V30 2083 H 211.694 0.739551 4.09475 0
M  V30 2084 H 210.57 0.535331 5.46283 0
M  V30 2085 H 210.831 -0.797216 4.34853 0
M  V30 2086 N 209.89 -1.43072 0.660911 0
M  V30 2087 C 211.138 -2.01323 0.177094 0
M  V30 2088 C 211.459 -1.5245 -1.2159 0
M  V30 2089 O 210.729 -0.740322 -1.81373 0
M  V30 2090 H 209.309 -0.744382 0.0624804 0
M  V30 2091 H 211.971 -1.75179 0.854305 0
M  V30 2092 H 211.067 -3.11649 0.167641 0
M  V30 2093 N 211.368 -0.403325 -1.52352 0
M  V30 2094 C 212.596 0.174012 -2.06167 0
M  V30 2095 C 213.011 1.39347 -1.27388 0
M  V30 2096 O 212.368 1.79597 -0.324201 0
M  V30 2097 C 212.419 0.530223 -3.5759 0
M  V30 2098 O 212.14 -0.640806 -4.33388 0
M  V30 2099 C 213.641 1.16192 -4.27802 0
M  V30 2100 H 210.861 0.0229464 -0.670608 0
M  V30 2101 H 213.405 -0.572604 -1.9632 0
M  V30 2102 H 211.56 1.22673 -3.67464 0
M  V30 2103 H 211.974 -0.344851 -5.23365 0
M  V30 2104 H 213.448 1.36141 -5.34948 0
M  V30 2105 H 213.925 2.13335 -3.83907 0
M  V30 2106 H 214.531 0.505775 -4.22282 0
M  V30 2107 N 212.846 1.57033 -0.133567 0
M  V30 2108 C 213.809 2.14897 0.796995 0
M  V30 2109 C 214.809 1.0874 1.18458 0
M  V30 2110 O 215.999 1.34446 1.1077 0
M  V30 2111 C 213.131 2.70112 2.07973 0
M  V30 2112 H 214.324 2.98457 0.293873 0
M  V30 2113 H 211.877 1.55871 0.115787 0
M  V30 2114 H 212.612 1.9018 2.62682 0
M  V30 2115 H 212.397 3.47764 1.81115 0
M  V30 2116 H 213.887 3.14738 2.74462 0
M  V30 2117 N 214.325 -0.140222 1.56975 0
M  V30 2118 C 215.602 -0.880769 1.74648 0
M  V30 2119 C 215.982 -1.99036 0.703404 0
M  V30 2120 O 215.33 -2.26821 -0.27648 0
M  V30 2121 C 215.54 -1.417 3.18939 0
M  V30 2122 C 216.888 -1.87774 3.80823 0
M  V30 2123 O 217.912 -1.51427 3.2241 0
M  V30 2124 O 216.771 -2.54827 4.83452 0
M  V30 2125 H 213.865 -0.416713 0.714338 0
M  V30 2126 H 216.411 -0.125618 1.69234 0
M  V30 2127 H 215.183 -0.619902 3.86359 0
M  V30 2128 H 214.806 -2.23546 3.28805 0
M  V30 2129 N 215.803 -1.52179 -0.40978 0
M  V30 2130 C 216.713 -1.78364 -1.52392 0
M  V30 2131 C 217.729 -0.669183 -1.60617 0
M  V30 2132 O 218.905 -0.954518 -1.77344 0
M  V30 2133 C 215.97 -1.92822 -2.88133 0
M  V30 2134 C 215.031 -3.16725 -2.898 0
M  V30 2135 C 214.264 -3.30483 -4.19067 0
M  V30 2136 O 214.487 -2.49522 -5.12928 0
M  V30 2137 O 213.421 -4.2363 -4.27576 0
M  V30 2138 H 217.247 -2.72931 -1.33201 0
M  V30 2139 H 214.832 -1.37016 -0.59557 0
M  V30 2140 H 216.714 -2.04157 -3.68643 0
M  V30 2141 H 215.389 -1.01444 -3.07393 0
M  V30 2142 H 214.296 -3.10848 -2.08146 0
M  V30 2143 H 215.629 -4.07881 -2.75489 0
M  V30 2144 N 217.281 0.66697 -1.42791 0
M  V30 2145 C 218.244 1.76211 -1.46568 0
M  V30 2146 C 219.244 1.56896 -0.352196 0
M  V30 2147 O 220.434 1.63044 -0.613364 0
M  V30 2148 C 217.566 3.14935 -1.30494 0
M  V30 2149 H 218.759 1.74247 -2.44086 0
M  V30 2150 H 216.312 0.877342 -1.29354 0
M  V30 2151 H 217.047 3.2252 -0.339301 0
M  V30 2152 H 216.832 3.30359 -2.11199 0
M  V30 2153 H 218.322 3.94821 -1.36038 0
M  V30 2154 N 218.759 1.29093 0.90403 0
M  V30 2155 C 219.987 1.19689 1.68766 0
M  V30 2156 C 220.402 -0.243113 1.87228 0
M  V30 2157 O 219.759 -1.16326 1.40621 0
M  V30 2158 C 219.81 1.90144 3.07453 0
M  V30 2159 O 219.531 3.2852 2.89838 0
M  V30 2160 C 221.032 1.87162 4.01852 0
M  V30 2161 H 218.252 0.415035 0.527244 0
M  V30 2162 H 220.796 1.7039 1.13082 0
M  V30 2163 H 218.951 1.43289 3.59926 0
M  V30 2164 H 219.365 3.63944 3.77684 0
M  V30 2165 H 220.839 2.41032 4.96596 0
M  V30 2166 H 221.316 0.84617 4.30972 0
M  V30 2167 H 221.922 2.33741 3.5531 0
M  V30 2168 N 220.237 -1.11381 1.11499 0
M  V30 2169 C 221.653 -1.35143 0.849031 0
M  V30 2170 C 221.853 -1.94515 -0.525938 0
M  V30 2171 O 220.909 -2.1785 -1.27662 0
M  V30 2172 C 222.222 -2.28249 1.95762 0
M  V30 2173 C 223.77 -2.41812 1.98736 0
M  V30 2174 C 224.245 -3.3824 3.088 0
M  V30 2175 N 225.736 -3.45803 3.08179 0
M  V30 2176 C 226.471 -4.20358 3.89982 0
M  V30 2177 N 225.967 -4.97884 4.8175 0
M  V30 2178 N 227.76 -4.15877 3.78157 0
M  V30 2179 H 219.911 -0.712062 2.00109 0
M  V30 2180 H 222.174 -0.376025 0.870235 0
M  V30 2181 H 221.88 -1.91817 2.94787 0
M  V30 2182 H 221.754 -3.28473 1.85433 0
M  V30 2183 H 224.141 -2.77518 1.00338 0
M  V30 2184 H 224.222 -1.41437 2.13141 0
M  V30 2185 H 223.866 -3.03261 4.07425 0
M  V30 2186 H 223.796 -4.38471 2.91635 0
M  V30 2187 H 226.287 -2.90506 2.41691 0
M  V30 2188 H 226.6 -5.52142 5.40702 0
M  V30 2189 H 224.945 -4.97043 4.85771 0
M  V30 2190 H 228.136 -3.544 3.05808 0
M  V30 2191 H 228.309 -4.73723 4.42143 0
M  V30 2192 N 221.715 -0.905404 -1.28997 0
M  V30 2193 C 222.678 -0.392253 -2.25819 0
M  V30 2194 C 223.678 0.476753 -1.5357 0
M  V30 2195 O 224.868 0.280994 -1.71919 0
M  V30 2196 C 222 0.438588 -3.38067 0
M  V30 2197 H 223.193 -1.24743 -2.72725 0
M  V30 2198 H 220.746 -0.684051 -1.40536 0
M  V30 2199 H 221.481 1.31352 -2.96508 0
M  V30 2200 H 221.266 -0.184167 -3.91667 0
M  V30 2201 H 222.756 0.78873 -4.10084 0
M  V30 2202 N 223.193 1.4272 -0.668489 0
M  V30 2203 C 224.103 2.34596 0.0139753 0
M  V30 2204 C 225.119 1.5474 0.795703 0
M  V30 2205 O 226.295 1.87334 0.739466 0
M  V30 2206 C 223.36 3.33202 0.957982 0
M  V30 2207 C 222.421 4.28957 0.17149 0
M  V30 2208 C 221.654 5.22853 1.07053 0
M  V30 2209 O 221.877 5.21531 2.31001 0
M  V30 2210 O 220.811 5.9952 0.534727 0
M  V30 2211 H 224.637 2.9448 -0.742661 0
M  V30 2212 H 222.222 1.43117 -0.428705 0
M  V30 2213 H 224.104 3.93796 1.50008 0
M  V30 2214 H 222.779 2.758 1.69458 0
M  V30 2215 H 221.686 3.71796 -0.414558 0
M  V30 2216 H 223.019 4.89383 -0.52586 0
M  V30 2217 N 224.671 0.411399 1.52136 0
M  V30 2218 C 225.92 -0.165009 2.01024 0
M  V30 2219 C 226.233 -1.4603 1.30133 0
M  V30 2220 O 227.439 -2.1181 1.69849 0
M  V30 2221 C 225.895 -0.344618 3.58246 0
M  V30 2222 C 225.503 0.938716 4.38055 0
M  V30 2223 C 227.247 -0.876195 4.15359 0
M  V30 2224 C 225.154 0.726172 5.86925 0
M  V30 2225 H 224.084 -0.0654407 0.751155 0
M  V30 2226 H 226.735 0.537192 1.75461 0
M  V30 2227 H 225.117 -1.10921 3.80148 0
M  V30 2228 H 226.291 1.70963 4.27912 0
M  V30 2229 H 224.606 1.39688 3.92271 0
M  V30 2230 H 227.203 -1.05128 5.24263 0
M  V30 2231 H 227.546 -1.85152 3.7286 0
M  V30 2232 H 228.079 -0.170607 3.97434 0
M  V30 2233 H 224.818 1.67312 6.33788 0
M  V30 2234 H 224.338 -0.00540283 5.998 0
M  V30 2235 H 226.017 0.369231 6.45946 0
M  V30 2236 N 226.149 -1.5696 0.141893 0
M  V30 2237 C 227.081 -2.13619 -0.830627 0
M  V30 2238 C 228.094 -1.08439 -1.21428 0
M  V30 2239 O 229.283 -1.35734 -1.15925 0
M  V30 2240 C 226.383 -2.63978 -2.12529 0
M  V30 2241 C 225.556 -3.93504 -1.9098 0
M  V30 2242 C 224.615 -4.29225 -3.04388 0
M  V30 2243 O 223.641 -4.97641 -2.76302 0
M  V30 2244 N 224.843 -3.88393 -4.31429 0
M  V30 2245 H 227.608 -2.97691 -0.34641 0
M  V30 2246 H 225.169 -1.61846 -0.0418375 0
M  V30 2247 H 227.161 -2.84891 -2.87436 0
M  V30 2248 H 225.731 -1.84659 -2.52229 0
M  V30 2249 H 224.951 -3.81269 -1.00139 0
M  V30 2250 H 226.239 -4.78154 -1.73914 0
M  V30 2251 H 225.637 -3.33257 -4.57117 0
M  V30 2252 H 224.194 -4.14368 -5.03133 0
M  V30 2253 N 227.627 0.131896 -1.57047 0
M  V30 2254 C 228.876 0.84044 -1.83356 0
M  V30 2255 C 229.189 1.81646 -0.725535 0
M  V30 2256 O 230.395 2.57025 -0.874659 0
M  V30 2257 C 228.851 1.54528 -3.25037 0
M  V30 2258 C 228.459 0.610902 -4.43815 0
M  V30 2259 C 230.203 2.23972 -3.60606 0
M  V30 2260 C 228.11 1.31823 -5.76521 0
M  V30 2261 H 227.04 0.317599 -0.683847 0
M  V30 2262 H 229.691 0.0931561 -1.83263 0
M  V30 2263 H 228.073 2.33873 -3.19561 0
M  V30 2264 H 229.247 -0.148407 -4.60561 0
M  V30 2265 H 227.562 0.0241016 -4.16393 0
M  V30 2266 H 230.159 2.77558 -4.57018 0
M  V30 2267 H 230.502 3.01173 -2.87403 0
M  V30 2268 H 231.035 1.51529 -3.6781 0
M  V30 2269 H 227.774 0.587771 -6.52859 0
M  V30 2270 H 227.294 2.04987 -5.63685 0
M  V30 2271 H 228.973 1.855 -6.19838 0
M  V30 2272 N 229.106 1.52395 0.401703 0
M  V30 2273 C 230.522 1.41363 0.740864 0
M  V30 2274 C 230.722 0.523982 1.94568 0
M  V30 2275 O 229.778 -0.00741204 2.52499 0
M  V30 2276 C 231.091 2.84011 0.987847 0
M  V30 2277 C 232.639 2.93404 1.09011 0
M  V30 2278 C 233.114 4.37036 1.3698 0
M  V30 2279 N 234.605 4.40304 1.43829 0
M  V30 2280 C 235.34 5.48508 1.67112 0
M  V30 2281 N 234.836 6.66819 1.87949 0
M  V30 2282 N 236.629 5.36034 1.69187 0
M  V30 2283 H 228.78 2.08765 -0.391262 0
M  V30 2284 H 231.043 0.941265 -0.112798 0
M  V30 2285 H 230.749 3.51265 0.174835 0
M  V30 2286 H 230.623 3.25502 1.906 0
M  V30 2287 H 233.01 2.26325 1.8937 0
M  V30 2288 H 233.091 2.55359 0.15015 0
M  V30 2289 H 232.735 5.04676 0.571353 0
M  V30 2290 H 232.665 4.72623 2.3224 0
M  V30 2291 H 235.156 3.55024 1.29486 0
M  V30 2292 H 235.469 7.45063 2.05185 0
M  V30 2293 H 233.814 6.6987 1.85199 0
M  V30 2294 H 237.005 4.42579 1.52451 0
M  V30 2295 H 237.178 6.20434 1.86993 0
M  V30 2296 N 230.584 -0.659388 1.43143 0
M  V30 2297 C 231.833 -1.41518 1.43721 0
M  V30 2298 C 232.146 -1.95499 0.0628176 0
M  V30 2299 O 233.352 -2.71446 -0.0539683 0
M  V30 2300 C 231.808 -2.5608 2.52885 0
M  V30 2301 C 231.416 -2.08733 3.96402 0
M  V30 2302 C 233.16 -3.3349 2.62649 0
M  V30 2303 C 231.067 -3.20469 4.97045 0
M  V30 2304 H 229.997 -0.531705 0.534608 0
M  V30 2305 H 232.648 -0.712343 1.69109 0
M  V30 2306 H 231.03 -3.28805 2.20688 0
M  V30 2307 H 232.204 -1.43059 4.3803 0
M  V30 2308 H 230.519 -1.44219 3.90627 0
M  V30 2309 H 233.116 -4.16734 3.35017 0
M  V30 2310 H 233.459 -3.8111 1.67513 0
M  V30 2311 H 233.992 -2.67842 2.94118 0
M  V30 2312 H 230.731 -2.77824 5.93712 0
M  V30 2313 H 230.251 -3.84874 4.60034 0
M  V30 2314 H 231.93 -3.85698 5.19467 0
M  V30 2315 N 232.062 -1.29571 -0.897171 0
M  V30 2316 C 232.972 -1.16808 -2.03453 0
M  V30 2317 C 233.988 -0.0907471 -1.73763 0
M  V30 2318 O 235.164 -0.303312 -1.99103 0
M  V30 2319 C 232.229 -0.848264 -3.36163 0
M  V30 2320 C 231.29 -2.0097 -3.79354 0
M  V30 2321 C 230.523 -1.70505 -5.05731 0
M  V30 2322 O 230.746 -0.62718 -5.66941 0
M  V30 2323 O 229.68 -2.5538 -5.45036 0
M  V30 2324 H 233.506 -2.12325 -2.17144 0
M  V30 2325 H 231.091 -1.09047 -1.02123 0
M  V30 2326 H 232.973 -0.684581 -4.15802 0
M  V30 2327 H 231.648 0.0771071 -3.23608 0
M  V30 2328 H 230.555 -2.22863 -3.00471 0
M  V30 2329 H 231.888 -2.91636 -3.96496 0
M  V30 2330 N 233.54 1.10788 -1.12088 0
M  V30 2331 C 234.503 2.15207 -0.788577 0
M  V30 2332 C 235.503 1.59609 0.195317 0
M  V30 2333 O 236.693 1.74174 -0.0300193 0
M  V30 2334 C 233.825 3.4047 -0.171174 0
M  V30 2335 H 235.018 2.46116 -1.71368 0
M  V30 2336 H 232.571 1.26089 -0.923652 0
M  V30 2337 H 233.306 3.15176 0.763832 0
M  V30 2338 H 233.091 3.82109 -0.879514 0
M  V30 2339 H 234.581 4.17576 0.04496 0
M  V30 2340 N 235.018 0.912232 1.28515 0
M  V30 2341 C 235.966 0.389597 2.29314 0
M  V30 2342 C 236.96 -0.517915 1.61289 0
M  V30 2343 O 238.166 -0.399328 1.75515 0
M  V30 2344 H 234.541 0.107386 0.744293 0
M  V30 2345 H 236.512 1.25286 2.70825 0
M  V30 2346 C 235.261 -0.356496 3.45868 0
M  V30 2347 H 234.584 0.332608 3.98414 0
M  V30 2348 H 236.024 -0.686851 4.184 0
M  V30 2349 C 234.483 -1.56383 2.98406 0
M  V30 2350 O 235.013 -2.66294 3.00749 0
M  V30 2351 N 233.219 -1.41029 2.54085 0
M  V30 2352 H 232.766 -0.516089 2.52377 0
M  V30 2353 H 232.724 -2.21939 2.22689 0
M  V30 2354 N 236.496 -1.42363 0.676048 0
M  V30 2355 C 237.406 -2.346 -0.00153389 0
M  V30 2356 C 238.422 -1.5516 -0.787485 0
M  V30 2357 O 239.598 -1.87723 -0.729521 0
M  V30 2358 C 236.663 -3.33705 -0.940298 0
M  V30 2359 C 235.724 -4.29042 -0.148739 0
M  V30 2360 C 234.957 -5.23413 -1.04279 0
M  V30 2361 O 235.18 -5.22749 -2.28232 0
M  V30 2362 O 234.114 -5.99795 -0.502925 0
M  V30 2363 H 237.94 -2.94082 0.758268 0
M  V30 2364 H 235.525 -1.42888 0.436289 0
M  V30 2365 H 237.407 -3.94586 -1.47917 0
M  V30 2366 H 236.082 -2.76695 -1.67993 0
M  V30 2367 H 234.989 -3.71571 0.43427 0
M  V30 2368 H 236.322 -4.89097 0.551805 0
M  V30 2369 N 237.974 -0.419461 -1.51915 0
M  V30 2370 C 238.937 0.389116 -2.25873 0
M  V30 2371 C 239.937 0.964924 -1.28631 0
M  V30 2372 O 241.127 0.842179 -1.52489 0
M  V30 2373 C 238.259 1.54874 -3.03689 0
M  V30 2374 H 239.452 -0.258799 -2.98781 0
M  V30 2375 H 237.005 -0.172209 -1.55348 0
M  V30 2376 H 237.74 2.23323 -2.35154 0
M  V30 2377 H 237.525 1.14223 -3.75094 0
M  V30 2378 H 239.015 2.12046 -3.59759 0
M  V30 2379 N 239.452 1.56882 -0.150215 0
M  V30 2380 C 240.382 2.19935 0.784284 0
M  V30 2381 C 241.363 1.14854 1.25469 0
M  V30 2382 O 242.548 1.43209 1.31168 0
M  V30 2383 C 239.678 2.82349 2.02229 0
M  V30 2384 C 238.632 3.93285 1.68853 0
M  V30 2385 C 237.958 4.42649 2.99944 0
M  V30 2386 C 239.258 5.13904 0.932714 0
M  V30 2387 H 240.952 2.9828 0.258781 0
M  V30 2388 H 238.498 1.43473 0.123029 0
M  V30 2389 H 240.451 3.25126 2.68088 0
M  V30 2390 H 239.175 2.0134 2.57157 0
M  V30 2391 H 237.834 3.5113 1.05371 0
M  V30 2392 H 237.482 3.58458 3.52869 0
M  V30 2393 H 237.182 5.17476 2.78374 0
M  V30 2394 H 238.706 4.88099 3.66868 0
M  V30 2395 H 240.12 5.53506 1.49345 0
M  V30 2396 H 238.517 5.94515 0.81684 0
M  V30 2397 H 239.587 4.84842 -0.0749568 0
M  V30 2398 N 240.93 -0.123565 1.57115 0
M  V30 2399 C 242.176 -0.833386 1.84885 0
M  V30 2400 C 242.509 -1.79742 0.735292 0
M  V30 2401 O 241.784 -1.92764 -0.25925 0
M  V30 2402 C 242.067 -1.5873 3.23228 0
M  V30 2403 C 241.92 -0.643183 4.45178 0
M  V30 2404 C 243.239 -2.54453 3.59085 0
M  V30 2405 H 240.358 -0.301518 0.6725 0
M  V30 2406 H 243 -0.097778 1.89748 0
M  V30 2407 H 241.15 -2.21438 3.19214 0
M  V30 2408 H 242.822 -0.0253015 4.61293 0
M  V30 2409 H 241.065 0.0456139 4.33776 0
M  V30 2410 H 241.736 -1.20724 5.38637 0
M  V30 2411 H 244.212 -2.01853 3.63861 0
M  V30 2412 H 243.088 -3.04238 4.5687 0
M  V30 2413 H 243.349 -3.36906 2.86264 0
M  V30 2414 N 242.408 -1.52605 -0.393616 0
M  V30 2415 C 243.355 -1.77055 -1.48054 0
M  V30 2416 C 244.325 -0.61358 -1.54352 0
M  V30 2417 O 245.51 -0.852806 -1.70681 0
M  V30 2418 C 242.65 -1.94108 -2.85335 0
M  V30 2419 C 241.763 -3.21792 -2.88226 0
M  V30 2420 C 240.898 -3.29188 -4.16904 0
M  V30 2421 C 239.937 -4.51013 -4.13828 0
M  V30 2422 N 239.074 -4.55716 -5.34105 0
M  V30 2423 H 243.914 -2.69815 -1.26506 0
M  V30 2424 H 241.451 -1.33683 -0.61379 0
M  V30 2425 H 243.409 -2.01979 -3.65049 0
M  V30 2426 H 242.039 -1.04713 -3.05344 0
M  V30 2427 H 241.091 -3.23015 -2.00911 0
M  V30 2428 H 242.403 -4.11557 -2.8182 0
M  V30 2429 H 241.557 -3.36216 -5.05018 0
M  V30 2430 H 240.296 -2.37389 -4.26026 0
M  V30 2431 H 239.301 -4.44115 -3.24102 0
M  V30 2432 H 240.526 -5.44123 -4.06333 0
M  V30 2433 H 238.472 -3.66807 -5.43865 0
M  V30 2434 H 238.389 -5.39346 -5.29756 0
M  V30 2435 H 239.657 -4.66993 -6.2413 0
M  V30 2436 N 243.887 0.651787 -1.4349 0
M  V30 2437 C 244.85 1.74647 -1.48429 0
M  V30 2438 C 245.85 1.56513 -0.368817 0
M  V30 2439 O 247.04 1.62385 -0.630623 0
M  V30 2440 C 244.172 3.13533 -1.33827 0
M  V30 2441 H 245.365 1.71649 -2.4592 0
M  V30 2442 H 242.918 0.863573 -1.30277 0
M  V30 2443 H 243.653 3.22142 -0.37349 0
M  V30 2444 H 243.438 3.28101 -2.14691 0
M  V30 2445 H 244.928 3.93356 -1.40218 0
M  V30 2446 N 245.365 1.30045 0.890287 0
M  V30 2447 C 246.295 1.18541 2.01172 0
M  V30 2448 C 247.276 0.0773356 1.69924 0
M  V30 2449 O 248.461 0.25845 1.92473 0
M  V30 2450 C 245.591 0.870941 3.36202 0
M  V30 2451 C 244.545 1.93637 3.81692 0
M  V30 2452 C 243.871 1.475 5.13953 0
M  V30 2453 C 245.171 3.34666 4.00994 0
M  V30 2454 H 246.865 2.12359 2.11054 0
M  V30 2455 H 244.411 1.02238 1.01407 0
M  V30 2456 H 246.364 0.777141 4.14172 0
M  V30 2457 H 245.088 -0.102926 3.26438 0
M  V30 2458 H 243.747 2.01972 3.05946 0
M  V30 2459 H 243.395 0.489551 5.00612 0
M  V30 2460 H 243.095 2.1876 5.4536 0
M  V30 2461 H 244.619 1.39489 5.94454 0
M  V30 2462 H 246.033 3.2912 4.69417 0
M  V30 2463 H 244.43 4.03966 4.43769 0
M  V30 2464 H 245.5 3.76949 3.05021 0
M  V30 2465 N 246.843 -1.10192 1.12674 0
M  V30 2466 C 247.753 -2.20172 0.810026 0
M  V30 2467 C 248.769 -1.72821 -0.202188 0
M  V30 2468 O 249.945 -2.01369 -0.0351691 0
M  V30 2469 C 247.01 -3.45631 0.272007 0
M  V30 2470 C 246.071 -4.07704 1.34447 0
M  V30 2471 C 245.304 -5.27175 0.832029 0
M  V30 2472 O 245.527 -5.69425 -0.333284 0
M  V30 2473 O 244.461 -5.80168 1.60277 0
M  V30 2474 H 248.287 -2.49701 1.72867 0
M  V30 2475 H 245.872 -1.18977 0.903597 0
M  V30 2476 H 247.754 -4.21394 -0.0230219 0
M  V30 2477 H 246.429 -3.17723 -0.619164 0
M  V30 2478 H 245.336 -3.33614 1.6927 0
M  V30 2479 H 246.669 -4.3982 2.2095 0
M  V30 2480 O 248.36 -1.05067 -1.22651 0
M  V30 2481 H 249.051 -0.726261 -1.79569 0
M  V30 END ATOM
M  V30 BEGIN BOND
M  V30 END BOND
M  V30 END CTAB
M  END
$$$$
