drugbank_target|A0R559 2-C-methyl-D-erythritol 2,4-cyclodiphosphate synthase (DB04714)
 OpenBabel12092120473D

  0  0  0     0  0            999 V3000
M  V30 BEGIN CTAB
M  V30 COUNTS 2311 2327 0 0 0
M  V30 BEGIN ATOM
M  V30 1 H -0.908 1.98254 -0.117106 0
M  V30 2 N 0 1.576 0 0
M  V30 3 C 0.933 2.03868 1.02534 0
M  V30 4 C 1.911 0.928543 1.3348 0
M  V30 5 O 3.095 1.19667 1.45644 0
M  V30 6 C 0.222 2.43627 2.35294 0
M  V30 7 C -0.732 3.65373 2.2001 0
M  V30 8 S 0.101 5.13292 1.52614 0
M  V30 9 C 1.257 5.56322 2.86805 0
M  V30 10 H 1.49 2.90518 0.631377 0
M  V30 11 H -0.977 1.52953 0.210867 0
M  V30 12 H 0.981 2.67203 3.11629 0
M  V30 13 H -0.358 1.57376 2.7183 0
M  V30 14 H -1.165 3.90944 3.18086 0
M  V30 15 H -1.563 3.418 1.51819 0
M  V30 16 H 0.729 5.58782 3.83104 0
M  V30 17 H 1.672 6.56266 2.65933 0
M  V30 18 H 2.08 4.83886 2.90714 0
M  V30 19 N 1.4781 -0.272755 1.55222 0
M  V30 20 C 2.4111 -1.3627 1.83046 0
M  V30 21 C 3.3891 -1.47536 0.683521 0
M  V30 22 O 4.5731 -1.64157 0.926545 0
M  V30 23 C 1.7001 -2.73908 1.99229 0
M  V30 24 C 0.7461 -2.79925 3.21783 0
M  V30 25 S 1.5791 -2.39146 4.79134 0
M  V30 26 C 2.7351 -3.78758 4.9829 0
M  V30 27 H 2.9681 -1.12464 2.75207 0
M  V30 28 H 0.5011 -0.472398 1.46996 0
M  V30 29 H 2.4591 -3.53171 2.09238 0
M  V30 30 H 1.1201 -2.94965 1.07956 0
M  V30 31 H 0.3131 -3.80946 3.29994 0
M  V30 32 H -0.0849 -2.08683 3.10367 0
M  V30 33 H 2.2071 -4.7403 4.84047 0
M  V30 34 H 3.1501 -3.75499 6.00338 0
M  V30 35 H 3.5581 -3.70072 4.26271 0
M  V30 36 N 2.9562 -1.48159 -0.537278 0
M  V30 37 C 3.8862 -1.65029 -1.6519 0
M  V30 38 C 4.8672 -0.499281 -1.62607 0
M  V30 39 O 6.0522 -0.730972 -1.79918 0
M  V30 40 C 3.1822 -1.68303 -3.03795 0
M  V30 41 C 2.1362 -2.8283 -3.21234 0
M  V30 42 C 1.4622 -2.71189 -4.60826 0
M  V30 43 C 2.7622 -4.24211 -3.04701 0
M  V30 44 H 4.4562 -2.58341 -1.51328 0
M  V30 45 H 2.0022 -1.24325 -0.726585 0
M  V30 46 H 3.9552 -1.78693 -3.81637 0
M  V30 47 H 2.6792 -0.715635 -3.18663 0
M  V30 48 H 1.3382 -2.71983 -2.45807 0
M  V30 49 H 0.9862 -1.72435 -4.7252 0
M  V30 50 H 0.6862 -3.48035 -4.7344 0
M  V30 51 H 2.2102 -2.83537 -5.40777 0
M  V30 52 H 3.6242 -4.3593 -3.72341 0
M  V30 53 H 2.0212 -5.01998 -3.28813 0
M  V30 54 H 3.0912 -4.41184 -2.01209 0
M  V30 55 N 4.4343 0.785586 -1.36625 0
M  V30 56 C 5.8453 1.36101 -1.27803 0
M  V30 57 C 6.1963 1.96035 0.0804875 0
M  V30 58 O 5.3213 1.92834 0.982042 0
M  V30 59 C 5.9163 2.47442 -2.31426 0
M  V30 60 C 4.4753 3.00789 -2.26281 0
M  V30 61 C 3.6223 1.73896 -2.15999 0
M  V30 62 H 6.5733 0.586928 -1.47448 0
M  V30 63 H 6.5943 3.2656 -1.95291 0
M  V30 64 H 6.1063 2.03791 -3.30289 0
M  V30 65 H 4.2073 3.48851 -1.30896 0
M  V30 66 H 4.3203 3.57343 -3.19128 0
M  V30 67 H 2.6843 1.9628 -1.62316 0
M  V30 68 H 3.4673 1.32368 -3.16755 0
M  V30 69 N 5.9124 1.20967 1.01018 0
M  V30 70 C 7.3284 0.965905 1.27053 0
M  V30 71 C 7.5284 -0.350785 1.98423 0
M  V30 72 O 6.5844 -1.07773 2.28344 0
M  V30 73 C 7.8974 2.15294 2.09926 0
M  V30 74 C 9.4454 2.19463 2.23171 0
M  V30 75 C 9.9204 3.3767 3.09424 0
M  V30 76 N 11.4114 3.37724 3.17012 0
M  V30 77 C 12.1464 4.25837 3.83993 0
M  V30 78 N 11.6424 5.24138 4.53047 0
M  V30 79 N 13.4354 4.1366 3.80581 0
M  V30 80 H 5.5864 2.0565 0.531194 0
M  V30 81 H 7.8494 0.90024 0.297106 0
M  V30 82 H 7.5554 3.10684 1.64828 0
M  V30 83 H 7.4294 2.13923 3.10672 0
M  V30 84 H 9.8164 1.24632 2.6749 0
M  V30 85 H 9.8974 2.2488 1.21912 0
M  V30 86 H 9.5414 4.32791 2.65808 0
M  V30 87 H 9.4714 3.29491 4.10784 0
M  V30 88 H 11.9624 2.6658 2.6785 0
M  V30 89 H 12.2754 5.87684 5.01844 0
M  V30 90 H 10.6204 5.28068 4.5185 0
M  V30 91 H 13.8114 3.36127 3.25785 0
M  V30 92 H 13.9844 4.82538 4.32505 0
M  V30 93 N 7.3905 -1.2043 1.01659 0
M  V30 94 C 8.6365 -1.90079 0.706963 0
M  V30 95 C 8.9695 -1.78648 -0.761474 0
M  V30 96 O 8.2445 -1.17069 -1.55323 0
M  V30 97 C 8.5275 -3.41469 1.14327 0
M  V30 98 C 8.3805 -3.61833 2.67201 0
M  V30 99 C 9.6995 -4.34261 0.714529 0
M  V30 100 H 6.8185 -0.690254 0.2583 0
M  V30 101 H 9.4605 -1.41826 1.26433 0
M  V30 102 H 7.6105 -3.82696 0.669056 0
M  V30 103 H 9.2825 -3.2986 3.22475 0
M  V30 104 H 7.5255 -3.05304 3.08175 0
M  V30 105 H 8.1965 -4.67955 2.92783 0
M  V30 106 H 10.6725 -4.00682 1.12221 0
M  V30 107 H 9.5485 -5.38806 1.04784 0
M  V30 108 H 9.8095 -4.40431 -0.383799 0
M  V30 109 N 8.8686 -0.792821 -1.36206 0
M  V30 110 C 10.1166 -0.366062 -1.98757 0
M  V30 111 C 10.4376 1.0668 -1.63231 0
M  V30 112 O 9.7076 1.73587 -0.907978 0
M  V30 113 H 8.2876 -0.132364 -0.735179 0
M  V30 114 H 10.9496 -1.01562 -1.66347 0
M  V30 115 H 10.0456 -0.460638 -3.08682 0
M  V30 116 N 10.3467 1.47872 -0.545128 0
M  V30 117 C 11.2767 2.32661 0.197793 0
M  V30 118 C 12.2577 1.43041 0.920504 0
M  V30 119 O 13.4427 1.71912 0.90333 0
M  V30 120 C 10.5727 3.24569 1.23582 0
M  V30 121 C 9.5267 4.23333 0.630323 0
M  V30 122 C 8.8527 5.0448 1.77211 0
M  V30 123 C 10.1527 5.20704 -0.407974 0
M  V30 124 H 11.8467 2.95024 -0.510045 0
M  V30 125 H 9.3927 1.4187 -0.246731 0
M  V30 126 H 11.3457 3.8272 1.76362 0
M  V30 127 H 10.0697 2.60236 1.97344 0
M  V30 128 H 8.7287 3.6639 0.123922 0
M  V30 129 H 8.3767 4.36561 2.49847 0
M  V30 130 H 8.0767 5.71339 1.37281 0
M  V30 131 H 9.6007 5.65487 2.3034 0
M  V30 132 H 11.0147 5.7329 0.033305 0
M  V30 133 H 9.4117 5.95699 -0.725486 0
M  V30 134 H 10.4817 4.66917 -1.30828 0
M  V30 135 N 11.8248 0.280983 1.55075 0
M  V30 136 C 13.0728 -0.333455 1.9933 0
M  V30 137 C 13.3938 -1.55937 1.17085 0
M  V30 138 O 12.6638 -1.94143 0.261805 0
M  V30 139 H 11.2438 -0.126197 0.736263 0
M  V30 140 H 13.9058 0.387678 1.91005 0
M  V30 141 H 13.0018 -0.619292 3.05894 0
M  V30 142 N 13.3029 -1.57598 0.00835791 0
M  V30 143 C 14.5309 -1.95214 -0.68549 0
M  V30 144 C 14.9459 -0.883706 -1.66841 0
M  V30 145 O 14.3029 0.136565 -1.81988 0
M  V30 146 C 14.3539 -3.32865 -1.41007 0
M  V30 147 O 14.0749 -4.35609 -0.466552 0
M  V30 148 C 15.5759 -3.84991 -2.19765 0
M  V30 149 H 12.7959 -0.643422 -0.190392 0
M  V30 150 H 15.3399 -2.04406 0.0619607 0
M  V30 151 H 13.4949 -3.24956 -2.10908 0
M  V30 152 H 13.9089 -5.15288 -0.978699 0
M  V30 153 H 15.3829 -4.8371 -2.65948 0
M  V30 154 H 15.8599 -3.18137 -3.02796 0
M  V30 155 H 16.4659 -3.96103 -1.54864 0
M  V30 156 N 14.781 0.264519 -1.55364 0
M  V30 157 C 16.058 1.01677 -1.67096 0
M  V30 158 C 16.438 2.03996 -0.543015 0
M  V30 159 O 15.786 2.23907 0.45585 0
M  V30 160 C 15.996 1.66596 -3.0667 0
M  V30 161 C 17.344 2.17442 -3.64697 0
M  V30 162 O 18.368 1.76568 -3.09358 0
M  V30 163 O 17.227 2.92439 -4.61673 0
M  V30 164 H 14.321 0.472161 -0.678965 0
M  V30 165 H 16.867 0.259703 -1.67701 0
M  V30 166 H 15.639 0.924962 -3.80211 0
M  V30 167 H 15.262 2.48968 -3.10001 0
M  V30 168 N 16.2591 1.48442 0.529413 0
M  V30 169 C 17.5051 1.5672 1.28711 0
M  V30 170 C 17.8381 0.2406 1.92704 0
M  V30 171 O 17.1131 -0.753454 1.79313 0
M  V30 172 C 17.3961 2.70587 2.37603 0
M  V30 173 C 17.2491 4.12953 1.78297 0
M  V30 174 C 18.5681 2.80212 3.39366 0
M  V30 175 H 15.6871 0.570474 0.466613 0
M  V30 176 H 18.3291 1.80617 0.589706 0
M  V30 177 H 16.4791 2.50342 2.97088 0
M  V30 178 H 18.1511 4.44639 1.22858 0
M  V30 179 H 16.3941 4.19927 1.0883 0
M  V30 180 H 17.0651 4.88448 2.57144 0
M  V30 181 H 19.5411 2.98553 2.89836 0
M  V30 182 H 18.4171 3.61611 4.12951 0
M  V30 183 H 18.6781 1.88393 3.99951 0
M  V30 184 N 17.7372 -0.778329 1.37039 0
M  V30 185 C 18.6872 -1.88142 1.28789 0
M  V30 186 C 19.6712 -1.59923 0.177063 0
M  V30 187 O 20.8632 -1.72165 0.410873 0
M  V30 188 C 17.9922 -3.25518 1.09055 0
M  V30 189 C 17.0782 -3.5971 2.24654 0
M  V30 190 N 17.4692 -3.65131 3.50018 0
M  V30 191 C 15.7672 -3.89837 2.16663 0
M  V30 192 C 16.4682 -3.95882 4.26207 0
M  V30 193 N 15.4442 -4.11441 3.55271 0
M  V30 194 H 19.2462 -1.90575 2.23737 0
M  V30 195 H 16.7602 -0.974435 1.29917 0
M  V30 196 H 18.7572 -4.04423 1.0123 0
M  V30 197 H 17.4172 -3.24353 0.15018 0
M  V30 198 H 18.4282 -3.475 3.84011 0
M  V30 199 H 15.1052 -3.96533 1.30645 0
M  V30 200 H 16.4952 -4.06907 5.34674 0
M  V30 201 N 19.2153 -1.21501 -1.00376 0
M  V30 202 C 20.6263 -1.03146 -1.55621 0
M  V30 203 C 20.9773 0.408375 -1.91903 0
M  V30 204 O 20.1023 1.29177 -1.73616 0
M  V30 205 C 20.6973 -1.86612 -2.82775 0
M  V30 206 C 19.2563 -1.72586 -3.34501 0
M  V30 207 C 18.4033 -1.83747 -2.07683 0
M  V30 208 H 21.3543 -1.35505 -0.826081 0
M  V30 209 H 21.3753 -1.3771 -3.54706 0
M  V30 210 H 20.8873 -2.91399 -2.56336 0
M  V30 211 H 18.9883 -0.704877 -3.65872 0
M  V30 212 H 19.1013 -2.54623 -4.05837 0
M  V30 213 H 17.4653 -1.27069 -2.20739 0
M  V30 214 H 18.2483 -2.90044 -1.83655 0
M  V30 215 N 20.6934 1.19889 -1.02296 0
M  V30 216 C 21.9424 1.88743 -0.711257 0
M  V30 217 C 22.2554 1.80112 0.762817 0
M  V30 218 O 23.4614 2.44161 1.18733 0
M  V30 219 C 21.9174 3.38525 -1.22185 0
M  V30 220 C 21.5254 3.55727 -2.72328 0
M  V30 221 C 23.2694 4.12893 -0.985864 0
M  V30 222 C 21.1764 4.99369 -3.16835 0
M  V30 223 H 20.1064 0.706885 -0.262353 0
M  V30 224 H 22.7574 1.35586 -1.23648 0
M  V30 225 H 21.1394 3.91044 -0.624571 0
M  V30 226 H 22.3134 3.13564 -3.3766 0
M  V30 227 H 20.6284 2.94739 -2.9414 0
M  V30 228 H 23.2254 5.18813 -1.29374 0
M  V30 229 H 23.5684 4.16228 0.0775055 0
M  V30 230 H 24.1014 3.66494 -1.54684 0
M  V30 231 H 20.8404 5.01193 -4.22476 0
M  V30 232 H 20.3604 5.42317 -2.56228 0
M  V30 233 H 22.0394 5.67988 -3.09837 0
M  V30 234 N 22.1715 0.800033 1.35784 0
M  V30 235 C 23.0815 0.207204 2.33683 0
M  V30 236 C 24.0975 -0.64631 1.61551 0
M  V30 237 O 25.2735 -0.559604 1.93469 0
M  V30 238 C 22.3385 -0.639659 3.40748 0
M  V30 239 C 21.3995 0.233585 4.28664 0
M  V30 240 C 20.6325 -0.572954 5.30616 0
M  V30 241 O 20.8555 -1.80816 5.40982 0
M  V30 242 O 19.7895 0.0327285 6.01891 0
M  V30 243 H 23.6155 1.01692 2.86169 0
M  V30 244 H 21.2005 0.561691 1.38439 0
M  V30 245 H 23.0825 -1.12223 4.06182 0
M  V30 246 H 21.7575 -1.42708 2.90544 0
M  V30 247 H 20.6645 0.763147 3.66233 0
M  V30 248 H 21.9975 0.984784 4.82248 0
M  V30 249 N 23.6496 -1.47581 0.552962 0
M  V30 250 C 24.6126 -2.28439 -0.186605 0
M  V30 251 C 25.6126 -1.36706 -0.84665 0
M  V30 252 O 26.8026 -1.59378 -0.703164 0
M  V30 253 C 23.9346 -3.16264 -1.2724 0
M  V30 254 H 25.1276 -2.95294 0.523609 0
M  V30 255 H 22.6806 -1.532 0.309745 0
M  V30 256 H 23.4156 -2.54091 -2.01514 0
M  V30 257 H 23.2006 -3.83769 -0.803968 0
M  V30 258 H 24.6906 -3.77198 -1.79196 0
M  V30 259 N 25.1277 -0.289203 -1.54924 0
M  V30 260 C 26.3757 0.322879 -1.99504 0
M  V30 261 C 26.6967 1.55313 -1.1791 0
M  V30 262 O 25.9667 1.94001 -0.272097 0
M  V30 263 H 24.5467 0.122291 -0.736922 0
M  V30 264 H 27.2087 -0.397802 -1.90797 0
M  V30 265 H 26.3047 0.603061 -3.06218 0
M  V30 266 N 26.6058 1.57591 -0.0167156 0
M  V30 267 C 28.0218 1.55946 0.339557 0
M  V30 268 C 28.2218 1.02109 1.73713 0
M  V30 269 O 27.2778 0.662303 2.43659 0
M  V30 270 C 28.5908 3.00037 0.199499 0
M  V30 271 C 30.1388 3.11805 0.273193 0
M  V30 272 C 30.6138 4.57713 0.162068 0
M  V30 273 N 32.1048 4.6268 0.219444 0
M  V30 274 C 32.8398 5.73185 0.157054 0
M  V30 275 N 32.3358 6.92786 0.0442936 0
M  V30 276 N 34.1288 5.61707 0.21014 0
M  V30 277 H 26.2798 1.90921 -0.930758 0
M  V30 278 H 28.5428 0.877674 -0.358319 0
M  V30 279 H 28.2488 3.4333 -0.76273 0
M  V30 280 H 28.1228 3.64387 0.974786 0
M  V30 281 H 30.5098 2.68433 1.22587 0
M  V30 282 H 30.5908 2.50201 -0.532256 0
M  V30 283 H 30.2348 5.01763 -0.78714 0
M  V30 284 H 30.1648 5.17283 0.986222 0
M  V30 285 H 32.6558 3.76649 0.307246 0
M  V30 286 H 32.9688 7.728 0.00304069 0
M  V30 287 H 31.3138 6.94999 0.00968457 0
M  V30 288 H 34.5048 4.6716 0.296546 0
M  V30 289 H 34.6778 6.47807 0.158054 0
M  V30 290 N 28.0839 -0.256276 1.55502 0
M  V30 291 C 29.4949 -0.826068 1.67431 0
M  V30 292 C 29.8459 -1.86396 0.612446 0
M  V30 293 O 28.9709 -2.15031 -0.243025 0
M  V30 294 C 29.5659 -1.50512 3.03532 0
M  V30 295 C 28.1249 -2.02273 3.17431 0
M  V30 296 C 27.2719 -0.870548 2.63281 0
M  V30 297 H 30.2229 -0.0322728 1.58667 0
M  V30 298 H 30.2439 -2.37279 2.97454 0
M  V30 299 H 29.7559 -0.749484 3.80794 0
M  V30 300 H 27.8569 -2.80746 2.44974 0
M  V30 301 H 27.9699 -2.22655 4.24219 0
M  V30 302 H 26.3339 -1.26851 2.20864 0
M  V30 303 H 27.1169 -0.128149 3.43061 0
M  V30 304 N 29.562 -1.4872 -0.521534 0
M  V30 305 C 30.802 -1.58771 -1.28729 0
M  V30 306 C 31.166 -0.259394 -1.9024 0
M  V30 307 O 32.367 -0.234942 -2.67771 0
M  V30 308 C 30.638 -2.70039 -2.34124 0
M  V30 309 S 32.197 -2.9991 -3.20312 0
M  V30 310 H 29.015 -0.560251 -0.437767 0
M  V30 311 H 31.617 -1.86283 -0.593188 0
M  V30 312 H 30.321 -3.65101 -1.87429 0
M  V30 313 H 29.852 -2.44455 -3.08229 0
M  V30 314 H 31.867 -2.39855 -4.34378 0
M  V30 315 N 31.0401 0.771051 -1.3745 0
M  V30 316 C 32.4561 1.07171 -1.18265 0
M  V30 317 C 32.6561 2.01491 -0.019287 0
M  V30 318 O 31.7121 2.44244 0.640408 0
M  V30 319 C 33.0251 1.66854 -2.50161 0
M  V30 320 C 34.5731 1.79109 -2.56689 0
M  V30 321 C 35.0481 2.42205 -3.88717 0
M  V30 322 N 36.5391 2.49655 -3.90162 0
M  V30 323 C 37.2741 2.9933 -4.8907 0
M  V30 324 N 36.7701 3.49172 -5.98374 0
M  V30 325 N 38.5631 2.9821 -4.76474 0
M  V30 326 H 30.7141 0.144796 -2.11906 0
M  V30 327 H 32.9771 0.126863 -0.939473 0
M  V30 328 H 32.6831 1.05017 -3.35655 0
M  V30 329 H 32.5571 2.6614 -2.673 0
M  V30 330 H 34.9441 2.40077 -1.71601 0
M  V30 331 H 35.0251 0.785757 -2.43433 0
M  V30 332 H 34.6691 1.81875 -4.74219 0
M  V30 333 H 34.5991 3.43345 -3.99276 0
M  V30 334 H 37.0901 2.14383 -3.11205 0
M  V30 335 H 37.4031 3.8548 -6.69795 0
M  V30 336 H 35.7481 3.47275 -6.02018 0
M  V30 337 H 38.9391 2.58572 -3.90203 0
M  V30 338 H 39.1121 3.36613 -5.53711 0
M  V30 339 N 32.5182 1.22032 0.997298 0
M  V30 340 C 33.4482 1.01065 2.10495 0
M  V30 341 C 34.4292 -0.0669542 1.69968 0
M  V30 342 O 35.6142 0.0943987 1.9397 0
M  V30 343 C 32.7442 0.582874 3.42374 0
M  V30 344 C 31.6982 1.60592 3.96729 0
M  V30 345 C 31.0242 1.03412 5.24605 0
M  V30 346 C 32.3242 2.99478 4.27914 0
M  V30 347 H 34.0182 1.93708 2.28292 0
M  V30 348 H 31.5642 0.932761 1.09707 0
M  V30 349 H 33.5172 0.423332 4.19268 0
M  V30 350 H 32.2412 -0.379213 3.24391 0
M  V30 351 H 30.9002 1.75316 3.21963 0
M  V30 352 H 30.5482 0.063518 5.0296 0
M  V30 353 H 30.2482 1.71754 5.61938 0
M  V30 354 H 31.7722 0.886066 6.04137 0
M  V30 355 H 33.1862 2.88153 4.95622 0
M  V30 356 H 31.5832 3.64903 4.76409 0
M  V30 357 H 32.6532 3.49742 3.3587 0
M  V30 358 N 33.9963 -1.19345 1.0293 0
M  V30 359 C 34.9263 -2.2481 0.631105 0
M  V30 360 C 35.9073 -1.66245 -0.360104 0
M  V30 361 O 37.0923 -1.92677 -0.242726 0
M  V30 362 C 34.2223 -3.47295 -0.0184607 0
M  V30 363 C 33.1763 -4.18536 0.895073 0
M  V30 364 C 32.5023 -5.34586 0.110592 0
M  V30 365 C 33.8023 -4.73287 2.209 0
M  V30 366 H 35.4963 -2.58372 1.51275 0
M  V30 367 H 33.0423 -1.24194 0.728818 0
M  V30 368 H 34.9953 -4.20268 -0.308675 0
M  V30 369 H 33.7193 -3.12933 -0.934907 0
M  V30 370 H 32.3783 -3.47446 1.16949 0
M  V30 371 H 32.0263 -4.96469 -0.807902 0
M  V30 372 H 31.7263 -5.83183 0.719087 0
M  V30 373 H 33.2503 -6.10355 -0.172871 0
M  V30 374 H 34.6643 -5.38013 1.98028 0
M  V30 375 H 33.0613 -5.32373 2.76946 0
M  V30 376 H 34.1313 -3.91331 2.86336 0
M  V30 377 N 35.4744 -0.807222 -1.35358 0
M  V30 378 C 36.7144 -0.393534 -2.00576 0
M  V30 379 C 37.0784 1.0203 -1.62647 0
M  V30 380 O 38.2794 1.53603 -2.20589 0
M  V30 381 C 36.5504 -0.572017 -3.52793 0
M  V30 382 S 38.1094 -0.248845 -4.38094 0
M  V30 383 H 34.9274 -0.149425 -0.695121 0
M  V30 384 H 37.5294 -1.04961 -1.64935 0
M  V30 385 H 36.2334 -1.60097 -3.77885 0
M  V30 386 H 35.7644 0.099359 -3.93275 0
M  V30 387 H 37.7794 0.943253 -4.87152 0
M  V30 388 N 36.9525 1.47285 -0.560781 0
M  V30 389 C 37.8825 2.32857 0.173105 0
M  V30 390 C 38.8635 1.44009 0.905281 0
M  V30 391 O 40.0485 1.7286 0.885046 0
M  V30 392 C 37.1785 3.25861 1.20133 0
M  V30 393 C 36.1325 4.23978 0.585388 0
M  V30 394 C 35.4585 5.06332 1.7185 0
M  V30 395 C 36.7585 5.20242 -0.463178 0
M  V30 396 H 38.4525 2.94466 -0.541307 0
M  V30 397 H 35.9985 1.41601 -0.261764 0
M  V30 398 H 37.9515 3.84569 1.72293 0
M  V30 399 H 36.6755 2.62315 1.94573 0
M  V30 400 H 35.3345 3.66501 0.085054 0
M  V30 401 H 34.9825 4.39186 2.45203 0
M  V30 402 H 34.6825 5.72762 1.31213 0
M  V30 403 H 36.2065 5.67899 2.24329 0
M  V30 404 H 37.6205 5.73293 -0.027502 0
M  V30 405 H 36.0175 5.94896 -0.788627 0
M  V30 406 H 37.0875 4.65504 -1.35773 0
M  V30 407 N 38.4306 0.297415 1.54768 0
M  V30 408 C 39.3406 -0.58983 2.27064 0
M  V30 409 C 40.3566 -1.15144 1.30453 0
M  V30 410 O 41.5326 -1.17699 1.63428 0
M  V30 411 C 38.5976 -1.74714 2.9946 0
M  V30 412 C 37.6586 -1.21997 4.11601 0
M  V30 413 C 36.8916 -2.32212 4.80535 0
M  V30 414 O 37.1146 -3.52036 4.48806 0
M  V30 415 O 36.0486 -1.99106 5.68014 0
M  V30 416 H 39.8746 -0.00348199 3.037 0
M  V30 417 H 37.4596 0.0640035 1.49263 0
M  V30 418 H 39.3416 -2.42147 3.44881 0
M  V30 419 H 38.0166 -2.32016 2.25722 0
M  V30 420 H 36.9236 -0.511458 3.70587 0
M  V30 421 H 38.2566 -0.692419 4.87305 0
M  V30 422 N 39.9087 -1.5758 0.0250728 0
M  V30 423 C 41.1557 -1.91633 -0.654444 0
M  V30 424 C 41.4837 -0.901103 -1.72367 0
M  V30 425 O 40.7387 0.0905647 -1.9549 0
M  V30 426 C 41.0377 -3.32421 -1.31268 0
M  V30 427 C 40.7037 -4.49344 -0.374223 0
M  V30 428 C 39.3657 -4.8106 -0.115911 0
M  V30 429 C 41.7177 -5.20498 0.270432 0
M  V30 430 C 39.0457 -5.8129 0.79493 0
M  V30 431 C 41.3977 -6.21699 1.1693 0
M  V30 432 C 40.0617 -6.51859 1.43655 0
M  V30 433 H 39.3317 -0.701236 -0.239478 0
M  V30 434 H 41.9787 -1.91307 0.0859734 0
M  V30 435 H 40.2837 -3.28989 -2.12775 0
M  V30 436 H 41.9807 -3.56038 -1.84494 0
M  V30 437 H 38.5707 -4.24579 -0.58573 0
M  V30 438 H 42.7547 -4.96229 0.0839194 0
M  V30 439 H 38.0107 -6.03005 1.00973 0
M  V30 440 H 42.1847 -6.75955 1.67504 0
M  V30 441 H 39.8117 -7.2934 2.144 0
M  V30 442 N 41.3868 0.248026 -1.55636 0
M  V30 443 C 42.6638 0.998988 -1.68165 0
M  V30 444 C 43.0438 2.03409 -0.564621 0
M  V30 445 O 42.3918 2.24378 0.432076 0
M  V30 446 C 42.6018 1.63334 -3.0842 0
M  V30 447 C 43.9498 2.13562 -3.66983 0
M  V30 448 O 44.9738 1.73277 -3.11213 0
M  V30 449 O 43.8328 2.87526 -4.64749 0
M  V30 450 H 40.9268 0.464933 -0.683935 0
M  V30 451 H 43.4728 0.241902 -1.67967 0
M  V30 452 H 42.2448 0.884583 -3.8117 0
M  V30 453 H 41.8678 2.45666 -3.12624 0
M  V30 454 N 42.8649 1.48995 0.513639 0
M  V30 455 C 44.1419 1.48338 1.27495 0
M  V30 456 C 44.5219 0.204065 2.10111 0
M  V30 457 O 43.8699 -0.813881 2.13514 0
M  V30 458 C 44.0799 2.75498 2.14247 0
M  V30 459 C 45.4279 3.24484 2.73852 0
M  V30 460 O 46.4519 2.76528 2.24523 0
M  V30 461 O 45.3109 4.07974 3.6362 0
M  V30 462 H 42.4049 0.593149 0.576284 0
M  V30 463 H 44.9509 1.61246 0.528948 0
M  V30 464 H 43.7229 3.60109 1.53092 0
M  V30 465 H 43.3459 2.6539 2.96064 0
M  V30 466 N 44.343 -0.763751 1.37857 0
M  V30 467 C 45.306 -1.85889 1.34081 0
M  V30 468 C 46.306 -1.58949 0.243277 0
M  V30 469 O 47.496 -1.66882 0.499589 0
M  V30 470 C 44.628 -3.23176 1.08489 0
M  V30 471 H 45.821 -1.90648 2.31502 0
M  V30 472 H 43.374 -0.964367 1.23003 0
M  V30 473 H 44.109 -3.24091 0.116318 0
M  V30 474 H 43.894 -3.44124 1.8794 0
M  V30 475 H 45.384 -4.03254 1.08517 0
M  V30 476 N 45.8211 -1.22559 -0.990812 0
M  V30 477 C 47.0981 -0.959875 -1.70428 0
M  V30 478 C 47.4781 0.524455 -2.04481 0
M  V30 479 O 46.8261 1.49302 -1.72977 0
M  V30 480 C 47.0361 -1.85955 -2.95333 0
M  V30 481 C 48.3841 -2.11687 -3.68068 0
M  V30 482 O 49.4081 -1.8342 -3.05345 0
M  V30 483 O 48.2671 -2.59572 -4.80921 0
M  V30 484 H 45.3611 -0.361154 -0.743974 0
M  V30 485 H 47.9071 -1.33554 -1.04697 0
M  V30 486 H 46.6791 -2.86346 -2.66687 0
M  V30 487 H 46.3021 -1.4856 -3.68803 0
M  V30 488 N 47.2992 1.18797 -1.03562 0
M  V30 489 C 48.5472 1.88278 -0.734569 0
M  V30 490 C 48.8682 1.8043 0.739586 0
M  V30 491 O 48.1382 1.21925 1.53333 0
M  V30 492 H 46.7182 0.696991 -0.268725 0
M  V30 493 H 49.3802 1.44192 -1.31129 0
M  V30 494 H 48.4762 2.94443 -1.03489 0
M  V30 495 N 48.7773 0.814389 1.34928 0
M  V30 496 C 50.0173 0.404165 2.00364 0
M  V30 497 C 50.3813 -1.01166 1.63185 0
M  V30 498 O 51.5823 -1.52431 2.21401 0
M  V30 499 C 49.8533 0.590718 3.52484 0
M  V30 500 S 51.4123 0.272075 4.37956 0
M  V30 501 H 48.2303 0.15311 0.694319 0
M  V30 502 H 50.8323 1.05834 1.64376 0
M  V30 503 H 49.5363 1.62099 3.77031 0
M  V30 504 H 49.0673 -0.0785013 3.93322 0
M  V30 505 H 51.0823 -0.917405 4.87645 0
M  V30 506 N 50.2554 -1.46986 0.568584 0
M  V30 507 C 51.2184 -2.28624 -0.162366 0
M  V30 508 C 52.2184 -1.37596 -0.832103 0
M  V30 509 O 53.4084 -1.60115 -0.68622 0
M  V30 510 C 50.5404 -3.17596 -1.23878 0
M  V30 511 H 51.7334 -2.94722 0.554899 0
M  V30 512 H 49.2864 -1.52863 0.325976 0
M  V30 513 H 50.0214 -2.56214 -1.98808 0
M  V30 514 H 49.8064 -3.846 -0.763219 0
M  V30 515 H 51.2964 -3.79078 -1.75185 0
M  V30 516 N 51.7335 -0.305618 -1.54608 0
M  V30 517 C 52.9815 0.301701 -1.99835 0
M  V30 518 C 53.3025 1.54054 -1.19551 0
M  V30 519 O 52.5725 1.93702 -0.292658 0
M  V30 520 H 51.1525 0.114468 -0.738178 0
M  V30 521 H 53.8145 -0.418016 -1.90364 0
M  V30 522 H 52.9105 0.570548 -3.06841 0
M  V30 523 N 53.2116 1.57565 -0.0334293 0
M  V30 524 C 54.1616 2.06978 0.956237 0
M  V30 525 C 55.1456 0.971193 1.28283 0
M  V30 526 O 56.3376 1.23471 1.26822 0
M  V30 527 C 53.4666 2.60393 2.23719 0
M  V30 528 C 52.5526 3.7719 1.93877 0
M  V30 529 N 52.9436 4.87639 1.34321 0
M  V30 530 C 51.2416 3.85758 2.23845 0
M  V30 531 C 51.9426 5.68825 1.21709 0
M  V30 532 N 50.9186 5.1587 1.71404 0
M  V30 533 H 54.7206 2.89773 0.490815 0
M  V30 534 H 52.2346 1.61492 0.171478 0
M  V30 535 H 54.2316 2.94088 2.95496 0
M  V30 536 H 52.8916 1.79031 2.70884 0
M  V30 537 H 53.9026 5.07803 1.01767 0
M  V30 538 H 50.5796 3.1531 2.73653 0
M  V30 539 H 51.9696 6.67631 0.75621 0
M  V30 540 N 54.6897 -0.239769 1.55765 0
M  V30 541 C 55.9147 -0.988373 1.82335 0
M  V30 542 C 56.3397 -1.77886 0.611421 0
M  V30 543 O 55.6977 -1.75889 -0.439639 0
M  V30 544 C 55.7457 -1.89627 3.06715 0
M  V30 545 O 54.8497 -2.98904 2.84131 0
M  V30 546 H 54.1907 -0.280858 0.601677 0
M  V30 547 H 56.7207 -0.258597 2.02959 0
M  V30 548 H 56.7307 -2.30957 3.36338 0
M  V30 549 H 55.4057 -1.31511 3.9456 0
M  V30 550 H 53.9827 -2.61651 2.65694 0
M  V30 551 N 56.1678 -1.49265 -0.50573 0
M  V30 552 C 57.4448 -1.49012 -1.26707 0
M  V30 553 C 57.8248 -0.215205 -2.1 0
M  V30 554 O 57.1728 0.802547 -2.13943 0
M  V30 555 C 57.3828 -2.7663 -2.12783 0
M  V30 556 C 58.7308 -3.25932 -2.72127 0
M  V30 557 O 59.7548 -2.77715 -2.23054 0
M  V30 558 O 58.6138 -4.09897 -3.61451 0
M  V30 559 H 55.7078 -0.596197 -0.57313 0
M  V30 560 H 58.2538 -1.61524 -0.52039 0
M  V30 561 H 57.0258 -3.60916 -1.5118 0
M  V30 562 H 56.6488 -2.66956 -2.94653 0
M  V30 563 N 57.6459 0.756429 -1.3826 0
M  V30 564 C 58.8939 1.51248 -1.34047 0
M  V30 565 C 59.2149 1.94875 0.0698372 0
M  V30 566 O 58.4849 1.67436 1.01696 0
M  V30 567 H 57.0649 0.561018 -0.493222 0
M  V30 568 H 59.7269 0.899347 -1.7291 0
M  V30 569 H 58.8229 2.40472 -1.98947 0
M  V30 570 N 59.124 1.23083 0.984299 0
M  V30 571 C 60.401 0.9689 1.69917 0
M  V30 572 C 60.781 -0.513604 2.04757 0
M  V30 573 O 60.129 -1.48383 1.73767 0
M  V30 574 C 60.339 1.87518 2.94343 0
M  V30 575 C 61.687 2.13636 3.6694 0
M  V30 576 O 62.711 1.85036 3.04368 0
M  V30 577 O 61.57 2.62119 4.79537 0
M  V30 578 H 58.664 0.365095 0.742048 0
M  V30 579 H 61.21 1.34107 1.03987 0
M  V30 580 H 59.982 2.87756 2.65164 0
M  V30 581 H 59.605 1.50514 3.6801 0
M  V30 582 N 60.6021 -1.18246 1.0419 0
M  V30 583 C 61.8481 -1.88536 0.747122 0
M  V30 584 C 62.1811 -1.80223 -0.723409 0
M  V30 585 O 61.4561 -1.20337 -1.52804 0
M  V30 586 C 61.7391 -3.38968 1.21544 0
M  V30 587 C 61.5921 -3.56084 2.74816 0
M  V30 588 C 62.9111 -4.32648 0.806482 0
M  V30 589 H 60.0301 -0.684619 0.272883 0
M  V30 590 H 62.6721 -1.39113 1.29413 0
M  V30 591 H 60.8221 -3.8119 0.750081 0
M  V30 592 H 62.4941 -3.22946 3.29399 0
M  V30 593 H 60.7371 -2.98699 3.14582 0
M  V30 594 H 61.4081 -4.61639 3.02644 0
M  V30 595 H 63.8841 -3.98211 1.20695 0
M  V30 596 H 62.7601 -5.36462 1.1619 0
M  V30 597 H 63.0211 -4.41146 -0.29029 0
M  V30 598 N 62.0802 -0.821533 -1.34494 0
M  V30 599 C 63.0432 -0.247847 -2.27856 0
M  V30 600 C 64.0432 0.573453 -1.50227 0
M  V30 601 O 65.2332 0.389759 -1.69784 0
M  V30 602 C 62.3652 0.652698 -3.34593 0
M  V30 603 H 63.5582 -1.07146 -2.80107 0
M  V30 604 H 61.1112 -0.593291 -1.44602 0
M  V30 605 H 61.8462 1.49943 -2.87555 0
M  V30 606 H 61.6312 0.065292 -3.92046 0
M  V30 607 H 63.1212 1.04793 -4.04238 0
M  V30 608 N 63.5583 1.46682 -0.576371 0
M  V30 609 C 64.5213 2.28707 0.150239 0
M  V30 610 C 65.5213 1.38035 0.824794 0
M  V30 611 O 66.7113 1.60476 0.677719 0
M  V30 612 C 63.8433 3.18248 1.22192 0
M  V30 613 H 65.0363 2.94423 -0.570521 0
M  V30 614 H 62.5893 1.52688 -0.334078 0
M  V30 615 H 63.3243 2.57265 1.97447 0
M  V30 616 H 63.1093 3.85 0.742812 0
M  V30 617 H 64.5993 3.80001 1.73172 0
M  V30 618 N 65.0364 0.313813 1.54444 0
M  V30 619 C 65.9864 -0.571898 2.20711 0
M  V30 620 C 66.9704 -1.08913 1.18435 0
M  V30 621 O 68.1624 -1.02777 1.44104 0
M  V30 622 C 65.2914 -1.7371 2.96108 0
M  V30 623 C 64.3774 -1.23522 4.05713 0
M  V30 624 N 64.7684 -0.452288 5.03774 0
M  V30 625 C 63.0664 -1.51482 4.19487 0
M  V30 626 C 63.7674 -0.183438 5.81411 0
M  V30 627 N 62.7434 -0.766845 5.38164 0
M  V30 628 H 66.5454 0.0336802 2.93881 0
M  V30 629 H 64.0594 0.119192 1.61962 0
M  V30 630 H 66.0564 -2.38329 3.4206 0
M  V30 631 H 64.7164 -2.34625 2.24458 0
M  V30 632 H 65.7274 -0.0960131 5.17811 0
M  V30 633 H 62.4044 -2.13053 3.59047 0
M  V30 634 H 63.7944 0.446216 6.70417 0
M  V30 635 N 66.5145 -1.57545 0.0417849 0
M  V30 636 C 67.4775 -2.09885 -0.92093 0
M  V30 637 C 68.4775 -1.01648 -1.24596 0
M  V30 638 O 69.6675 -1.27759 -1.1842 0
M  V30 639 C 66.7995 -2.57527 -2.23367 0
M  V30 640 H 67.9925 -2.96236 -0.467382 0
M  V30 641 H 65.5455 -1.5493 -0.206467 0
M  V30 642 H 66.2805 -1.74542 -2.73323 0
M  V30 643 H 66.0655 -3.36613 -2.01083 0
M  V30 644 H 67.5555 -2.98201 -2.92346 0
M  V30 645 N 67.9926 0.231505 -1.5589 0
M  V30 646 C 68.9226 1.29022 -1.94617 0
M  V30 647 C 69.9036 1.4941 -0.813067 0
M  V30 648 O 71.0886 1.6176 -1.07459 0
M  V30 649 C 68.2186 2.64199 -2.25424 0
M  V30 650 C 67.1726 2.58484 -3.41131 0
M  V30 651 C 66.4986 3.97599 -3.57518 0
M  V30 652 C 67.7986 2.1413 -4.76388 0
M  V30 653 H 69.4926 0.968563 -2.83301 0
M  V30 654 H 67.0386 0.464479 -1.36303 0
M  V30 655 H 68.9916 3.38413 -2.51107 0
M  V30 656 H 67.7156 2.98032 -1.33583 0
M  V30 657 H 66.3746 1.86727 -3.15481 0
M  V30 658 H 66.0226 4.28723 -2.6307 0
M  V30 659 H 65.7226 3.94659 -4.35337 0
M  V30 660 H 67.2466 4.7349 -3.85538 0
M  V30 661 H 68.6606 2.78083 -5.01341 0
M  V30 662 H 67.0576 2.2227 -5.57419 0
M  V30 663 H 68.1276 1.09331 -4.72414 0
M  V30 664 N 69.4707 1.49531 0.497807 0
M  V30 665 C 70.7107 1.60799 1.26187 0
M  V30 666 C 71.0747 0.289627 1.89803 0
M  V30 667 O 72.2757 0.277512 2.67364 0
M  V30 668 C 70.5467 2.73729 2.29798 0
M  V30 669 S 72.1057 3.04968 3.155 0
M  V30 670 H 68.9237 0.567145 0.428798 0
M  V30 671 H 71.5257 1.87204 0.563477 0
M  V30 672 H 70.2297 3.68036 1.81597 0
M  V30 673 H 69.7607 2.49328 3.04301 0
M  V30 674 H 71.7757 2.46735 4.30507 0
M  V30 675 N 70.9488 -0.749086 1.3866 0
M  V30 676 C 72.2258 -1.4992 1.25632 0
M  V30 677 C 72.6058 -2.10633 -0.140317 0
M  V30 678 O 71.9538 -1.97437 -1.15025 0
M  V30 679 C 72.1638 -2.56195 2.36992 0
M  V30 680 C 73.5118 -3.22972 2.75634 0
M  V30 681 O 74.5358 -2.66502 2.36337 0
M  V30 682 O 73.3948 -4.25122 3.43415 0
M  V30 683 H 70.4888 -0.665067 0.491544 0
M  V30 684 H 73.0348 -0.784113 1.50498 0
M  V30 685 H 71.8068 -2.09612 3.30422 0
M  V30 686 H 71.4298 -3.35279 2.13714 0
M  V30 687 N 72.4269 -1.23603 -0.977757 0
M  V30 688 C 73.3899 -1.02069 -2.05218 0
M  V30 689 C 74.3899 0.0184305 -1.60789 0
M  V30 690 O 75.5799 -0.221569 -1.72785 0
M  V30 691 C 72.7119 -0.544926 -3.36517 0
M  V30 692 H 73.9049 -1.9742 -2.25755 0
M  V30 693 H 71.4579 -1.05684 -1.15155 0
M  V30 694 H 72.1929 0.412241 -3.21669 0
M  V30 695 H 71.9779 -1.2948 -3.70105 0
M  V30 696 H 73.4679 -0.414985 -4.15533 0
M  V30 697 N 73.905 1.17692 -1.04816 0
M  V30 698 C 74.835 2.23777 -0.666791 0
M  V30 699 C 75.816 1.66796 0.33361 0
M  V30 700 O 77.001 1.93039 0.212042 0
M  V30 701 C 74.131 3.47281 -0.0367933 0
M  V30 702 C 73.085 4.17059 -0.961546 0
M  V30 703 C 72.411 5.34342 -0.195626 0
M  V30 704 C 73.711 4.69713 -2.28402 0
M  V30 705 H 75.405 2.55933 -1.55367 0
M  V30 706 H 72.951 1.23019 -0.748484 0
M  V30 707 H 74.904 4.20706 0.241775 0
M  V30 708 H 73.628 3.14381 0.885004 0
M  V30 709 H 72.287 3.45541 -1.22462 0
M  V30 710 H 71.935 4.97692 0.728816 0
M  V30 711 H 71.635 5.81966 -0.811775 0
M  V30 712 H 73.159 6.10553 0.0757473 0
M  V30 713 H 74.573 5.34794 -2.06563 0
M  V30 714 H 72.97 5.279 -2.8538 0
M  V30 715 H 74.04 3.86726 -2.92525 0
M  V30 716 N 75.3831 0.828654 1.34056 0
M  V30 717 C 76.3131 0.269443 2.3194 0
M  V30 718 C 77.2941 -0.617247 1.58506 0
M  V30 719 O 78.4791 -0.542931 1.86456 0
M  V30 720 C 75.6091 -0.564793 3.42677 0
M  V30 721 C 74.5631 0.225241 4.27407 0
M  V30 722 C 73.8891 -0.7321 5.29664 0
M  V30 723 C 75.1891 1.43663 5.02154 0
M  V30 724 H 76.8831 1.08728 2.7896 0
M  V30 725 H 74.4291 0.524283 1.34117 0
M  V30 726 H 76.3821 -0.966233 4.10173 0
M  V30 727 H 75.1061 -1.41574 2.9432 0
M  V30 728 H 73.7651 0.608117 3.61521 0
M  V30 729 H 73.4131 -1.57916 4.77568 0
M  V30 730 H 73.1131 -0.20767 5.87233 0
M  V30 731 H 74.6371 -1.13128 6.00029 0
M  V30 732 H 76.0511 1.1089 5.62473 0
M  V30 733 H 74.4481 1.89711 5.69324 0
M  V30 734 H 75.5181 2.21181 4.31517 0
M  V30 735 N 76.8612 -1.46375 0.584142 0
M  V30 736 C 78.0862 -2.07268 0.0740405 0
M  V30 737 C 78.5112 -1.42979 -1.22223 0
M  V30 738 O 77.8692 -0.514092 -1.73859 0
M  V30 739 C 77.9172 -3.60518 -0.0767769 0
M  V30 740 O 77.0212 -3.96533 -1.13292 0
M  V30 741 H 76.3622 -0.660961 0.0634524 0
M  V30 742 H 78.8922 -1.87991 0.807492 0
M  V30 743 H 78.9022 -4.07021 -0.282489 0
M  V30 744 H 77.5772 -4.06702 0.86986 0
M  V30 745 H 76.1542 -3.61738 -0.905553 0
M  V30 746 N 78.3393 -0.321999 -1.54275 0
M  V30 747 C 79.3023 0.531975 -2.22941 0
M  V30 748 C 80.3023 1.04478 -1.22234 0
M  V30 749 O 81.4923 0.937452 -1.46825 0
M  V30 750 C 78.6243 1.73874 -2.93224 0
M  V30 751 H 79.8173 -0.0682612 -2.99822 0
M  V30 752 H 77.3703 -0.0730644 -1.56129 0
M  V30 753 H 78.1053 2.37825 -2.20476 0
M  V30 754 H 77.8903 1.37847 -3.6707 0
M  V30 755 H 79.3803 2.34496 -3.45545 0
M  V30 756 N 79.8174 1.5752 -0.0501392 0
M  V30 757 C 80.7804 2.1037 0.909786 0
M  V30 758 C 81.7804 1.02308 1.24056 0
M  V30 759 O 82.9704 1.28385 1.17741 0
M  V30 760 C 80.1024 2.58708 2.21998 0
M  V30 761 H 81.2954 2.96479 0.451665 0
M  V30 762 H 78.8484 1.55038 0.198248 0
M  V30 763 H 79.5834 1.75989 2.72394 0
M  V30 764 H 79.3684 3.37675 1.99295 0
M  V30 765 H 80.8584 2.99747 2.9076 0
M  V30 766 N 81.2955 -0.223234 1.56011 0
M  V30 767 C 82.5435 -0.946003 1.78592 0
M  V30 768 C 82.8645 -1.84936 0.618349 0
M  V30 769 O 82.1345 -1.92473 -0.364833 0
M  V30 770 H 80.7145 -0.352298 0.658707 0
M  V30 771 H 83.3765 -0.235494 1.93472 0
M  V30 772 H 82.4725 -1.55381 2.70672 0
M  V30 773 N 82.7736 -1.49793 -0.48987 0
M  V30 774 C 83.7036 -1.70201 -1.59856 0
M  V30 775 C 84.6846 -0.55076 -1.60937 0
M  V30 776 O 85.8696 -0.787841 -1.77501 0
M  V30 777 C 82.9996 -1.77882 -2.98287 0
M  V30 778 C 81.9536 -2.92907 -3.12073 0
M  V30 779 C 81.2796 -2.85712 -4.51965 0
M  V30 780 C 82.5796 -4.3369 -2.91051 0
M  V30 781 H 84.2736 -2.63025 -1.43032 0
M  V30 782 H 81.8196 -1.26574 -0.686664 0
M  V30 783 H 83.7726 -1.90744 -3.75759 0
M  V30 784 H 82.4966 -0.816653 -3.16225 0
M  V30 785 H 81.1556 -2.79665 -2.37029 0
M  V30 786 H 80.8036 -1.8738 -4.66795 0
M  V30 787 H 80.5036 -3.62921 -4.62128 0
M  V30 788 H 82.0276 -3.00598 -5.31482 0
M  V30 789 H 83.4416 -4.47555 -3.58284 0
M  V30 790 H 81.8386 -5.12205 -3.12675 0
M  V30 791 H 82.9086 -4.47362 -1.87071 0
M  V30 792 N 84.2517 0.741722 -1.39055 0
M  V30 793 C 85.4997 1.49818 -1.35643 0
M  V30 794 C 85.8207 1.94938 0.0491642 0
M  V30 795 O 85.0907 1.68505 0.999141 0
M  V30 796 H 83.6707 0.555755 -0.499144 0
M  V30 797 H 86.3327 0.880957 -1.73854 0
M  V30 798 H 85.4287 2.38348 -2.01486 0
M  V30 799 N 85.7298 1.2412 0.971189 0
M  V30 800 C 87.0068 0.986867 1.6888 0
M  V30 801 C 87.3868 -0.491857 2.0529 0
M  V30 802 O 86.7348 -1.46531 1.75331 0
M  V30 803 C 86.9448 1.9063 2.92338 0
M  V30 804 C 88.2928 2.17515 3.64654 0
M  V30 805 O 89.3168 1.88254 3.02388 0
M  V30 806 O 88.1758 2.6719 4.7673 0
M  V30 807 H 85.2698 0.372944 0.738134 0
M  V30 808 H 87.8158 1.35203 1.02559 0
M  V30 809 H 86.5878 2.90552 2.62097 0
M  V30 810 H 86.2108 1.54408 3.66393 0
M  V30 811 N 87.2079 -1.17134 1.05439 0
M  V30 812 C 88.1379 -2.2342 0.678649 0
M  V30 813 C 89.1189 -1.66971 -0.32476 0
M  V30 814 O 90.3039 -1.93149 -0.201802 0
M  V30 815 C 87.4339 -3.47256 0.0552099 0
M  V30 816 C 86.3879 -4.16543 0.98365 0
M  V30 817 C 85.7139 -5.34231 0.223961 0
M  V30 818 C 87.0139 -4.68495 2.3089 0
M  V30 819 H 88.7079 -2.55105 1.56722 0
M  V30 820 H 86.2539 -1.2262 0.754998 0
M  V30 821 H 88.2069 -4.20828 -0.21946 0
M  V30 822 H 86.9309 -3.14846 -0.868319 0
M  V30 823 H 85.5899 -3.44887 1.24293 0
M  V30 824 H 85.2379 -4.98071 -0.702412 0
M  V30 825 H 84.9379 -5.81527 0.842627 0
M  V30 826 H 86.4619 -6.10585 -0.0433671 0
M  V30 827 H 87.8759 -5.33691 2.09396 0
M  V30 828 H 86.2729 -5.26379 2.88176 0
M  V30 829 H 87.3429 -3.85169 2.94572 0
M  V30 830 N 88.686 -0.835752 -1.33615 0
M  V30 831 C 89.934 -0.429109 -1.97492 0
M  V30 832 C 90.255 1.01433 -1.66543 0
M  V30 833 O 89.525 1.70611 -0.962744 0
M  V30 834 H 88.105 -0.155686 -0.730596 0
M  V30 835 H 90.767 -1.06802 -1.63031 0
M  V30 836 H 89.863 -0.55861 -3.0706 0
M  V30 837 N 90.1641 1.46063 -0.591896 0
M  V30 838 C 91.3921 2.06717 -0.0868936 0
M  V30 839 C 91.8071 1.43916 1.22203 0
M  V30 840 O 91.1641 0.547698 1.74088 0
M  V30 841 C 91.2151 3.6142 0.0758725 0
M  V30 842 O 90.9361 4.21874 -1.18126 0
M  V30 843 C 92.4371 4.39025 0.61416 0
M  V30 844 H 89.6571 0.668162 -0.0616518 0
M  V30 845 H 92.2011 1.8755 -0.815175 0
M  V30 846 H 90.3561 3.79983 0.754413 0
M  V30 847 H 90.7701 5.14861 -1.00092 0
M  V30 848 H 92.2441 5.4783 0.677193 0
M  V30 849 H 92.7211 4.07708 1.63312 0
M  V30 850 H 93.3271 4.2529 -0.0298142 0
M  V30 851 N 91.6422 0.330177 1.54103 0
M  V30 852 C 92.8912 -0.271336 1.99867 0
M  V30 853 C 93.2042 -1.52723 1.22209 0
M  V30 854 O 94.4102 -2.20515 1.58383 0
M  V30 855 C 92.8662 -0.534032 3.55916 0
M  V30 856 C 92.4742 0.705193 4.42415 0
M  V30 857 C 94.2182 -1.09514 4.1013 0
M  V30 858 C 92.1252 0.414035 5.89949 0
M  V30 859 H 91.0552 -0.105166 0.74663 0
M  V30 860 H 93.7062 0.443429 1.78062 0
M  V30 861 H 92.0882 -1.30915 3.73734 0
M  V30 862 H 93.2622 1.4804 4.36372 0
M  V30 863 H 91.5772 1.18698 3.99124 0
M  V30 864 H 94.1742 -1.3277 5.17954 0
M  V30 865 H 94.5172 -2.04656 3.62521 0
M  V30 866 H 95.0502 -0.381038 3.95971 0
M  V30 867 H 91.7892 1.33481 6.41766 0
M  V30 868 H 91.3092 -0.323336 5.98928 0
M  V30 869 H 92.9882 0.0263105 6.46995 0
M  V30 870 N 93.1203 -1.57491 0.0584922 0
M  V30 871 C 94.3673 -1.92978 -0.613648 0
M  V30 872 C 94.6953 -0.937461 -1.70417 0
M  V30 873 O 93.9503 0.049078 -1.95638 0
M  V30 874 C 94.2493 -3.3513 -1.24188 0
M  V30 875 C 93.9153 -4.50037 -0.278826 0
M  V30 876 C 92.5773 -4.81198 -0.0138447 0
M  V30 877 C 94.9293 -5.19807 0.380777 0
M  V30 878 C 92.2573 -5.79473 0.918052 0
M  V30 879 C 94.6093 -6.19079 1.30091 0
M  V30 880 C 93.2733 -6.48665 1.57449 0
M  V30 881 H 92.5433 -0.706157 -0.22455 0
M  V30 882 H 95.1903 -1.91082 0.126533 0
M  V30 883 H 93.4953 -3.33429 -2.05749 0
M  V30 884 H 95.1923 -3.59871 -1.769 0
M  V30 885 H 91.7823 -4.25726 -0.495539 0
M  V30 886 H 95.9663 -4.95939 0.189158 0
M  V30 887 H 91.2223 -6.00727 1.1374 0
M  V30 888 H 95.3963 -6.7225 1.81804 0
M  V30 889 H 93.0233 -7.24628 2.29822 0
M  V30 890 N 94.5984 0.214957 -1.56127 0
M  V30 891 C 95.8464 0.936518 -1.79091 0
M  V30 892 C 96.1674 1.84606 -0.628148 0
M  V30 893 O 95.4374 1.92664 0.35462 0
M  V30 894 H 94.0174 0.3488 -0.660566 0
M  V30 895 H 96.6794 0.22523 -1.93594 0
M  V30 896 H 95.7754 1.53943 -2.71492 0
M  V30 897 N 96.0765 1.50051 0.48192 0
M  V30 898 C 97.3045 1.64237 1.25832 0
M  V30 899 C 97.7195 0.321336 1.86045 0
M  V30 900 O 97.0765 -0.695478 1.68729 0
M  V30 901 C 97.1275 2.72548 2.37487 0
M  V30 902 O 96.8485 3.99529 1.79745 0
M  V30 903 C 98.3495 2.9761 3.28547 0
M  V30 904 H 95.5695 0.55237 0.380957 0
M  V30 905 H 98.1135 1.96207 0.576467 0
M  V30 906 H 96.2685 2.43303 3.01467 0
M  V30 907 H 96.6825 4.59342 2.5319 0
M  V30 908 H 98.1565 3.77084 4.03127 0
M  V30 909 H 98.6335 2.0826 3.86684 0
M  V30 910 H 99.2395 3.28345 2.70314 0
M  V30 911 N 97.5546 -0.734337 1.39446 0
M  V30 912 C 98.8316 -1.48579 1.27215 0
M  V30 913 C 99.2116 -2.1077 -0.117968 0
M  V30 914 O 98.5596 -1.98646 -1.12924 0
M  V30 915 C 98.7696 -2.53667 2.39696 0
M  V30 916 C 100.118 -3.20031 2.79044 0
M  V30 917 O 101.142 -2.6398 2.39151 0
M  V30 918 O 100.001 -4.21455 3.47905 0
M  V30 919 H 97.0946 -0.659816 0.49857 0
M  V30 920 H 99.6406 -0.768106 1.51322 0
M  V30 921 H 98.4126 -2.06096 3.32626 0
M  V30 922 H 98.0356 -3.32994 2.17258 0
M  V30 923 N 99.0327 -1.24633 -0.964593 0
M  V30 924 C 100.449 -1.01239 -1.2338 0
M  V30 925 C 100.649 0.2769 -1.99588 0
M  V30 926 O 99.7047 0.992241 -2.32187 0
M  V30 927 C 101.018 -2.22937 -2.01791 0
M  V30 928 C 102.566 -2.27594 -2.14872 0
M  V30 929 C 103.041 -3.48921 -2.96678 0
M  V30 930 N 104.532 -3.49257 -3.04259 0
M  V30 931 C 105.267 -4.39795 -3.67924 0
M  V30 932 N 104.763 -5.40591 -4.33281 0
M  V30 933 N 106.556 -4.275 -3.64966 0
M  V30 934 H 98.7067 -2.0748 -0.454502 0
M  V30 935 H 100.97 -0.910647 -0.26349 0
M  V30 936 H 100.676 -3.16587 -1.53184 0
M  V30 937 H 100.55 -2.25306 -3.02518 0
M  V30 938 H 102.937 -1.34473 -2.6268 0
M  V30 939 H 103.018 -2.2925 -1.13482 0
M  V30 940 H 102.662 -4.42359 -2.49562 0
M  V30 941 H 102.592 -3.4451 -3.98272 0
M  V30 942 H 105.083 -2.76337 -2.57771 0
M  V30 943 H 105.396 -6.05904 -4.79687 0
M  V30 944 H 103.741 -5.44475 -4.3194 0
M  V30 945 H 106.932 -3.47987 -3.13086 0
M  V30 946 H 107.105 -4.98258 -4.14298 0
M  V30 947 N 100.511 1.16574 -1.06058 0
M  V30 948 C 101.922 1.68662 -0.800632 0
M  V30 949 C 102.273 1.84184 0.67608 0
M  V30 950 O 101.398 1.53568 1.52466 0
M  V30 951 C 101.993 3.06356 -1.44676 0
M  V30 952 C 100.552 3.55575 -1.23465 0
M  V30 953 C 99.6988 2.31616 -1.52477 0
M  V30 954 H 102.65 1.00969 -1.22438 0
M  V30 955 H 102.671 3.70636 -0.860788 0
M  V30 956 H 102.183 2.95027 -2.52152 0
M  V30 957 H 100.284 3.72167 -0.179527 0
M  V30 958 H 100.397 4.37812 -1.94571 0
M  V30 959 H 98.7608 2.36512 -0.945209 0
M  V30 960 H 99.5438 2.22887 -2.61106 0
M  V30 961 N 101.989 0.842826 1.3317 0
M  V30 962 C 102.921 0.236245 2.27979 0
M  V30 963 C 103.934 -0.585282 1.51915 0
M  V30 964 O 105.123 -0.411705 1.73687 0
M  V30 965 C 102.223 -0.685717 3.3189 0
M  V30 966 C 101.396 0.0973448 4.37292 0
M  V30 967 C 100.455 -0.748565 5.20848 0
M  V30 968 O 99.4809 -0.186339 5.68895 0
M  V30 969 N 100.683 -2.06527 5.42519 0
M  V30 970 H 103.448 1.05088 2.80672 0
M  V30 971 H 101.009 0.701667 1.45905 0
M  V30 972 H 103.001 -1.25669 3.84694 0
M  V30 973 H 101.571 -1.40105 2.79445 0
M  V30 974 H 100.791 0.849706 3.84933 0
M  V30 975 H 102.079 0.635643 5.04814 0
M  V30 976 H 101.477 -2.54554 5.05192 0
M  V30 977 H 100.034 -2.58464 5.98364 0
M  V30 978 N 103.467 -1.45747 0.599634 0
M  V30 979 C 104.713 -2.03153 0.100263 0
M  V30 980 C 105.068 -1.46073 -1.25221 0
M  V30 981 O 104.361 -0.622878 -1.81193 0
M  V30 982 C 104.555 -3.57399 -0.00602758 0
M  V30 983 C 104.384 -4.2944 1.3346 0
M  V30 984 C 103.154 -4.6768 1.91321 0
M  V30 985 C 105.352 -4.61905 2.2616 0
M  V30 986 N 103.334 -5.24544 3.18946 0
M  V30 987 C 104.705 -5.19518 3.3838 0
M  V30 988 C 106.76 -4.43841 2.25631 0
M  V30 989 C 105.463 -5.60972 4.50226 0
M  V30 990 C 107.489 -4.86322 3.36518 0
M  V30 991 C 106.851 -5.44021 4.4746 0
M  V30 992 H 102.95 -0.777911 0.0798696 0
M  V30 993 H 105.534 -1.77674 0.796244 0
M  V30 994 H 103.705 -3.82556 -0.671212 0
M  V30 995 H 105.437 -4.01457 -0.51133 0
M  V30 996 H 102.192 -4.5098 1.44617 0
M  V30 997 H 102.616 -5.57483 3.84112 0
M  V30 998 H 107.258 -3.98552 1.41123 0
M  V30 999 H 104.976 -6.0523 5.35464 0
M  V30 1000 H 108.562 -4.74084 3.37247 0
M  V30 1001 H 107.442 -5.76289 5.31846 0
M  V30 1002 N 104.945 -0.338344 -1.53925 0
M  V30 1003 C 106.361 0.0137736 -1.59594 0
M  V30 1004 C 106.561 1.49186 -1.35447 0
M  V30 1005 O 105.617 2.24987 -1.14616 0
M  V30 1006 C 106.93 -0.41773 -2.97784 0
M  V30 1007 C 108.478 -0.369633 -3.1081 0
M  V30 1008 C 108.953 -0.776524 -4.51369 0
M  V30 1009 N 110.444 -0.730506 -4.57403 0
M  V30 1010 C 111.179 -1.01736 -5.64303 0
M  V30 1011 N 110.675 -1.3721 -6.79077 0
M  V30 1012 N 112.468 -0.941942 -5.54151 0
M  V30 1013 H 104.619 -1.3012 -1.67876 0
M  V30 1014 H 106.882 -0.530082 -0.78595 0
M  V30 1015 H 106.588 -1.44811 -3.20504 0
M  V30 1016 H 106.462 0.209729 -3.76616 0
M  V30 1017 H 108.849 0.651568 -2.87817 0
M  V30 1018 H 108.93 -1.03223 -2.34049 0
M  V30 1019 H 108.574 -1.79571 -4.75096 0
M  V30 1020 H 108.504 -0.0914649 -5.26521 0
M  V30 1021 H 110.995 -0.468783 -3.74981 0
M  V30 1022 H 111.308 -1.57597 -7.5656 0
M  V30 1023 H 109.653 -1.4105 -6.80536 0
M  V30 1024 H 112.844 -0.664184 -4.63364 0
M  V30 1025 H 113.017 -1.16884 -6.37371 0
M  V30 1026 N 106.423 1.57458 -0.0668435 0
M  V30 1027 C 107.671 1.92919 0.602214 0
M  V30 1028 C 107.992 0.947215 1.70449 0
M  V30 1029 O 107.262 -0.00544117 1.95899 0
M  V30 1030 H 105.842 0.71217 0.22544 0
M  V30 1031 H 108.504 1.94508 -0.123535 0
M  V30 1032 H 107.6 2.94589 1.03073 0
M  V30 1033 N 107.901 -0.206675 1.56239 0
M  V30 1034 C 108.864 -1.23976 1.92776 0
M  V30 1035 C 109.864 -1.39041 0.807729 0
M  V30 1036 O 111.054 -1.37051 1.0753 0
M  V30 1037 C 108.186 -2.61112 2.19165 0
M  V30 1038 H 109.379 -0.927764 2.85189 0
M  V30 1039 H 106.932 -0.447718 1.4975 0
M  V30 1040 H 107.667 -2.97386 1.29352 0
M  V30 1041 H 107.452 -2.51552 3.00772 0
M  V30 1042 H 108.942 -3.35633 2.48476 0
M  V30 1043 N 109.379 -1.50304 -0.473955 0
M  V30 1044 C 110.604 -1.65175 -1.25427 0
M  V30 1045 C 111.029 -0.333673 -1.85117 0
M  V30 1046 O 110.387 0.702114 -1.67153 0
M  V30 1047 C 110.435 -2.74295 -2.34082 0
M  V30 1048 O 109.539 -2.35349 -3.38651 0
M  V30 1049 H 108.88 -0.551944 -0.369126 0
M  V30 1050 H 111.41 -1.96662 -0.564364 0
M  V30 1051 H 111.42 -2.97285 -2.79438 0
M  V30 1052 H 110.095 -3.69959 -1.90008 0
M  V30 1053 H 108.672 -2.22794 -2.99027 0
M  V30 1054 N 110.857 0.726932 -1.39834 0
M  V30 1055 C 112.105 1.4837 -1.37225 0
M  V30 1056 C 112.426 1.94979 0.0284857 0
M  V30 1057 O 111.696 1.69555 0.981213 0
M  V30 1058 H 110.276 0.55043 -0.505011 0
M  V30 1059 H 112.938 0.862468 -1.74778 0
M  V30 1060 H 112.034 2.36198 -2.04003 0
M  V30 1061 N 112.336 1.25143 0.95797 0
M  V30 1062 C 113.299 1.05321 2.03569 0
M  V30 1063 C 114.299 0.007152 1.60798 0
M  V30 1064 O 115.489 0.24903 1.72411 0
M  V30 1065 C 112.621 0.598394 3.35607 0
M  V30 1066 H 113.814 2.00986 2.22586 0
M  V30 1067 H 111.367 1.07502 1.13459 0
M  V30 1068 H 112.102 -0.361014 3.22284 0
M  V30 1069 H 111.887 1.35351 3.67998 0
M  V30 1070 H 113.377 0.48104 4.1482 0
M  V30 1071 N 113.814 -1.1601 1.06675 0
M  V30 1072 C 115.091 -1.82679 0.699114 0
M  V30 1073 C 115.471 -1.94559 -0.819137 0
M  V30 1074 O 114.819 -1.49169 -1.73092 0
M  V30 1075 C 115.029 -3.19445 1.40555 0
M  V30 1076 C 116.377 -3.95171 1.55323 0
M  V30 1077 O 117.401 -3.28976 1.36577 0
M  V30 1078 O 116.26 -5.13833 1.86112 0
M  V30 1079 H 113.354 -0.788954 0.247951 0
M  V30 1080 H 115.9 -1.23179 1.16726 0
M  V30 1081 H 114.672 -3.05856 2.44065 0
M  V30 1082 H 114.295 -3.86625 0.927733 0
M  V30 1083 N 115.292 -0.849877 -1.32721 0
M  V30 1084 C 116.225 -0.235903 -2.26977 0
M  V30 1085 C 117.203 0.623355 -1.50177 0
M  V30 1086 O 118.387 0.581207 -1.79316 0
M  V30 1087 C 115.514 0.667712 -3.32053 0
M  V30 1088 C 114.56 -0.11753 -4.26338 0
M  V30 1089 S 115.393 -1.48277 -5.14562 0
M  V30 1090 C 116.549 -0.584741 -6.23163 0
M  V30 1091 H 116.782 -1.03495 -2.78704 0
M  V30 1092 H 114.315 -0.64724 -1.40179 0
M  V30 1093 H 116.273 1.18343 -3.93072 0
M  V30 1094 H 114.934 1.44052 -2.7912 0
M  V30 1095 H 114.127 0.57051 -5.00761 0
M  V30 1096 H 113.729 -0.564668 -3.69713 0
M  V30 1097 H 116.021 0.212968 -6.77165 0
M  V30 1098 H 116.964 -1.29947 -6.96074 0
M  V30 1099 H 117.372 -0.161202 -5.6427 0
M  V30 1100 N 116.77 1.45427 -0.607355 0
M  V30 1101 C 118.019 2.01452 -0.100036 0
M  V30 1102 C 118.332 1.48159 1.27704 0
M  V30 1103 O 119.538 1.96159 1.87707 0
M  V30 1104 C 117.994 3.59672 -0.128158 0
M  V30 1105 C 117.602 4.21962 -1.50507 0
M  V30 1106 C 119.346 4.23262 0.323932 0
M  V30 1107 C 117.253 5.72333 -1.48959 0
M  V30 1108 H 116.183 0.75325 -0.0336299 0
M  V30 1109 H 118.834 1.66901 -0.76265 0
M  V30 1110 H 117.216 3.91411 0.601105 0
M  V30 1111 H 118.39 4.01796 -2.25602 0
M  V30 1112 H 116.705 3.70565 -1.89923 0
M  V30 1113 H 119.302 5.33522 0.354691 0
M  V30 1114 H 119.645 3.93921 1.34656 0
M  V30 1115 H 120.178 3.96239 -0.352056 0
M  V30 1116 H 116.917 6.06373 -2.48981 0
M  V30 1117 H 116.437 5.94691 -0.781214 0
M  V30 1118 H 118.116 6.35525 -1.21313 0
M  V30 1119 N 118.248 0.346503 1.53744 0
M  V30 1120 C 119.664 -0.00530975 1.59599 0
M  V30 1121 C 119.864 -1.48465 1.36236 0
M  V30 1122 O 118.92 -2.24376 1.15808 0
M  V30 1123 C 120.233 0.433516 2.97559 0
M  V30 1124 C 121.781 0.386111 3.10609 0
M  V30 1125 C 122.256 0.800451 4.50951 0
M  V30 1126 N 123.747 0.754753 4.5701 0
M  V30 1127 C 124.482 1.04727 5.63755 0
M  V30 1128 N 123.978 1.4081 6.7834 0
M  V30 1129 N 125.771 0.971316 5.53644 0
M  V30 1130 H 117.922 1.31009 1.67184 0
M  V30 1131 H 120.185 0.534242 0.783128 0
M  V30 1132 H 119.891 1.46509 3.19731 0
M  V30 1133 H 119.765 -0.189753 3.76722 0
M  V30 1134 H 122.152 -0.636295 2.88158 0
M  V30 1135 H 122.233 1.04462 2.33498 0
M  V30 1136 H 121.877 1.82088 4.74137 0
M  V30 1137 H 121.807 0.119386 5.26465 0
M  V30 1138 H 124.298 0.488662 3.74727 0
M  V30 1139 H 124.611 1.61607 7.55714 0
M  V30 1140 H 122.956 1.44657 6.79779 0
M  V30 1141 H 126.147 0.688748 4.63005 0
M  V30 1142 H 126.32 1.20263 6.36742 0
M  V30 1143 N 119.726 -1.57421 0.075193 0
M  V30 1144 C 120.676 -2.09441 -0.901025 0
M  V30 1145 C 121.66 -1.00486 -1.25663 0
M  V30 1146 O 122.852 -1.2679 -1.23504 0
M  V30 1147 C 119.981 -2.66233 -2.16737 0
M  V30 1148 C 119.067 -3.82198 -1.83808 0
M  V30 1149 N 119.458 -4.91028 -1.21345 0
M  V30 1150 C 117.756 -3.91558 -2.13538 0
M  V30 1151 C 118.457 -5.71852 -1.06585 0
M  V30 1152 N 117.433 -5.20233 -1.57667 0
M  V30 1153 H 121.235 -2.90972 -0.413815 0
M  V30 1154 H 118.749 -1.6189 -0.128601 0
M  V30 1155 H 120.746 -3.01819 -2.87595 0
M  V30 1156 H 119.406 -1.8615 -2.66042 0
M  V30 1157 H 120.417 -5.10323 -0.88268 0
M  V30 1158 H 117.094 -3.22454 -2.65197 0
M  V30 1159 H 118.484 -6.69401 -0.578933 0
M  V30 1160 N 121.204 0.198386 -1.56346 0
M  V30 1161 C 122.45 0.920648 -1.80698 0
M  V30 1162 C 122.783 1.83045 -0.648697 0
M  V30 1163 O 122.058 1.91308 0.350925 0
M  V30 1164 C 122.341 1.73971 -3.15287 0
M  V30 1165 C 122.194 0.85485 -4.41602 0
M  V30 1166 C 123.513 2.71296 -3.46535 0
M  V30 1167 H 120.632 0.333261 -0.657348 0
M  V30 1168 H 123.274 0.188198 -1.89066 0
M  V30 1169 H 121.424 2.36416 -3.08285 0
M  V30 1170 H 123.096 0.245362 -4.60647 0
M  V30 1171 H 121.339 0.161398 -4.335 0
M  V30 1172 H 122.01 1.46286 -5.32264 0
M  V30 1173 H 124.486 2.18983 -3.53816 0
M  V30 1174 H 123.362 3.2569 -4.41834 0
M  V30 1175 H 123.623 3.5018 -2.69864 0
M  V30 1176 N 122.682 1.50554 0.465978 0
M  V30 1177 C 124.098 1.38093 0.800154 0
M  V30 1178 C 124.298 0.440988 1.96615 0
M  V30 1179 O 123.354 -0.114499 2.5224 0
M  V30 1180 C 124.667 2.79565 1.10742 0
M  V30 1181 C 126.215 2.88516 1.21357 0
M  V30 1182 C 126.69 4.30833 1.55393 0
M  V30 1183 N 128.181 4.33807 1.62375 0
M  V30 1184 C 128.916 5.40927 1.90225 0
M  V30 1185 N 128.412 6.58247 2.16062 0
M  V30 1186 N 130.205 5.28376 1.9177 0
M  V30 1187 H 122.356 2.10237 -0.302366 0
M  V30 1188 H 124.619 0.945203 -0.0727746 0
M  V30 1189 H 124.325 3.50208 0.323661 0
M  V30 1190 H 124.199 3.17125 2.04234 0
M  V30 1191 H 126.586 2.1809 1.98799 0
M  V30 1192 H 126.667 2.54492 0.258321 0
M  V30 1193 H 126.311 5.01799 0.784889 0
M  V30 1194 H 126.241 4.62347 2.52076 0
M  V30 1195 H 128.732 3.49212 1.44427 0
M  V30 1196 H 129.045 7.3569 2.36601 0
M  V30 1197 H 127.39 6.61413 2.13444 0
M  V30 1198 H 130.581 4.35715 1.71085 0
M  V30 1199 H 130.754 6.11944 2.13139 0
M  V30 1200 N 124.16 -0.719506 1.40217 0
M  V30 1201 C 125.408 -1.47641 1.3801 0
M  V30 1202 C 125.729 -1.94992 -0.018145 0
M  V30 1203 O 124.999 -1.70073 -0.972207 0
M  V30 1204 H 123.579 -0.547744 0.507923 0
M  V30 1205 H 126.241 -0.853187 1.75233 0
M  V30 1206 H 125.337 -2.35112 2.05253 0
M  V30 1207 N 125.638 -1.25649 -0.95132 0
M  V30 1208 C 126.568 -1.08808 -2.06599 0
M  V30 1209 C 127.549 0.00382547 -1.701 0
M  V30 1210 O 128.734 -0.166325 -1.93486 0
M  V30 1211 C 125.864 -0.709542 -3.39975 0
M  V30 1212 C 124.818 -1.75206 -3.90496 0
M  V30 1213 C 124.144 -1.22811 -5.20405 0
M  V30 1214 C 125.444 -3.15153 -4.16504 0
M  V30 1215 H 127.138 -2.02048 -2.20946 0
M  V30 1216 H 124.684 -0.972835 -1.06169 0
M  V30 1217 H 126.637 -0.578649 -4.17408 0
M  V30 1218 H 125.361 0.258556 -3.25575 0
M  V30 1219 H 124.02 -1.87145 -3.15234 0
M  V30 1220 H 123.668 -0.250145 -5.02378 0
M  V30 1221 H 123.368 -1.92492 -5.55176 0
M  V30 1222 H 124.892 -1.10968 -6.00432 0
M  V30 1223 H 126.306 -3.06349 -4.84586 0
M  V30 1224 H 124.703 -3.82333 -4.62538 0
M  V30 1225 H 125.773 -3.61966 -3.22658 0
M  V30 1226 N 127.117 1.15442 -1.07289 0
M  V30 1227 C 128.363 1.86489 -0.796846 0
M  V30 1228 C 128.696 1.82078 0.675371 0
M  V30 1229 O 127.971 1.24346 1.4956 0
M  V30 1230 C 128.254 3.35626 -1.30489 0
M  V30 1231 C 128.107 3.48673 -2.84161 0
M  V30 1232 C 129.426 4.30357 -0.920907 0
M  V30 1233 H 126.545 0.677144 -0.290939 0
M  V30 1234 H 129.187 1.35633 -1.33056 0
M  V30 1235 H 127.337 3.79068 -0.850883 0
M  V30 1236 H 129.009 3.14099 -3.37846 0
M  V30 1237 H 127.252 2.90253 -3.22391 0
M  V30 1238 H 127.923 4.53453 -3.14777 0
M  V30 1239 H 130.399 3.94871 -1.3121 0
M  V30 1240 H 129.275 5.33193 -1.30372 0
M  V30 1241 H 129.536 4.4176 0.173226 0
M  V30 1242 N 128.595 0.856903 1.32268 0
M  V30 1243 C 129.505 0.306131 2.32594 0
M  V30 1244 C 130.521 -0.577209 1.64147 0
M  V30 1245 O 131.697 -0.477043 1.95669 0
M  V30 1246 C 128.762 -0.494561 3.43154 0
M  V30 1247 C 127.823 0.415186 4.27288 0
M  V30 1248 C 127.056 -0.347387 5.32568 0
M  V30 1249 O 127.279 -1.57708 5.48165 0
M  V30 1250 O 126.213 0.287982 6.01211 0
M  V30 1251 H 130.039 1.13737 2.81598 0
M  V30 1252 H 127.624 0.619902 1.35932 0
M  V30 1253 H 129.506 -0.948944 4.10576 0
M  V30 1254 H 128.181 -1.30257 2.96336 0
M  V30 1255 H 127.088 0.917793 3.62667 0
M  V30 1256 H 128.421 1.18844 4.77637 0
M  V30 1257 N 130.073 -1.45103 0.615059 0
M  V30 1258 C 131.021 -2.32331 -0.111791 0
M  V30 1259 C 132.015 -1.46409 -0.852102 0
M  V30 1260 O 133.221 -1.62849 -0.766821 0
M  V30 1261 H 129.596 -0.749993 -0.0549072 0
M  V30 1262 H 131.567 -2.91407 0.642225 0
M  V30 1263 C 130.316 -3.3015 -1.09071 0
M  V30 1264 H 129.639 -3.96265 -0.530485 0
M  V30 1265 H 131.079 -3.93898 -1.56908 0
M  V30 1266 C 129.538 -2.57875 -2.168 0
M  V30 1267 O 130.068 -2.36567 -3.24652 0
M  V30 1268 N 128.274 -2.17884 -1.92289 0
M  V30 1269 H 127.821 -2.35413 -1.04587 0
M  V30 1270 H 127.779 -1.6985 -2.64572 0
M  V30 1271 N 131.551 -0.354651 -1.53558 0
M  V30 1272 C 132.514 0.484566 -2.24019 0
M  V30 1273 C 133.514 1.01861 -1.24422 0
M  V30 1274 O 134.704 0.906097 -1.4878 0
M  V30 1275 C 131.836 1.67615 -2.96847 0
M  V30 1276 H 133.029 -0.131843 -2.9961 0
M  V30 1277 H 130.582 -0.106165 -1.55939 0
M  V30 1278 H 131.317 2.33095 -2.25471 0
M  V30 1279 H 131.102 1.30029 -3.69912 0
M  V30 1280 H 132.592 2.27114 -3.50441 0
M  V30 1281 N 133.029 1.57378 -0.0835403 0
M  V30 1282 C 134.277 1.93547 0.581718 0
M  V30 1283 C 134.598 0.96524 1.69435 0
M  V30 1284 O 133.868 0.0153369 1.95894 0
M  V30 1285 H 132.448 0.714521 0.217874 0
M  V30 1286 H 135.11 1.94366 -0.144158 0
M  V30 1287 H 134.206 2.95665 0.999423 0
M  V30 1288 N 134.507 -0.190092 1.56449 0
M  V30 1289 C 135.754 -0.909705 1.80916 0
M  V30 1290 C 136.082 -1.83047 0.657583 0
M  V30 1291 O 135.337 -1.92428 -0.356356 0
M  V30 1292 C 135.636 -1.75382 3.1141 0
M  V30 1293 C 135.302 -0.983606 4.40041 0
M  V30 1294 C 133.964 -0.770967 4.74984 0
M  V30 1295 C 136.316 -0.442024 5.19322 0
M  V30 1296 C 133.644 -0.0053448 5.867 0
M  V30 1297 C 135.996 0.310412 6.31838 0
M  V30 1298 C 134.66 0.534023 6.6536 0
M  V30 1299 H 133.93 -0.332885 0.662019 0
M  V30 1300 H 136.577 -0.175762 1.90692 0
M  V30 1301 H 134.882 -2.55659 2.96893 0
M  V30 1302 H 136.579 -2.31331 3.27547 0
M  V30 1303 H 133.169 -1.15936 4.12622 0
M  V30 1304 H 137.353 -0.593693 4.92736 0
M  V30 1305 H 132.609 0.177825 6.11141 0
M  V30 1306 H 136.783 0.737419 6.92485 0
M  V30 1307 H 134.41 1.12918 7.51767 0
M  V30 1308 N 135.985 -1.50799 -0.457987 0
M  V30 1309 C 137.231 -1.62683 -1.21088 0
M  V30 1310 C 137.564 -0.332268 -1.91336 0
M  V30 1311 O 136.839 0.667043 -1.82704 0
M  V30 1312 C 137.122 -2.81615 -2.24422 0
M  V30 1313 C 136.975 -4.20989 -1.58392 0
M  V30 1314 C 138.294 -2.96085 -3.2561 0
M  V30 1315 H 135.413 -0.592087 -0.438864 0
M  V30 1316 H 138.055 -1.83225 -0.50286 0
M  V30 1317 H 136.205 -2.64231 -2.84806 0
M  V30 1318 H 137.877 -4.49994 -1.01504 0
M  V30 1319 H 136.12 -4.24641 -0.886704 0
M  V30 1320 H 136.791 -5.0016 -2.33547 0
M  V30 1321 H 139.267 -3.12042 -2.75262 0
M  V30 1322 H 138.143 -3.80902 -3.95228 0
M  V30 1323 H 138.404 -2.0726 -3.90507 0
M  V30 1324 N 137.463 0.71206 -1.40597 0
M  V30 1325 C 138.712 1.46754 -1.38369 0
M  V30 1326 C 139.025 1.95598 0.0097839 0
M  V30 1327 O 140.231 2.71059 0.154677 0
M  V30 1328 C 138.687 2.65289 -2.43207 0
M  V30 1329 C 138.295 2.23301 -3.88382 0
M  V30 1330 C 140.039 3.43008 -2.50091 0
M  V30 1331 C 137.946 3.38696 -4.84808 0
M  V30 1332 H 136.876 0.55118 -0.514506 0
M  V30 1333 H 139.527 0.774616 -1.66349 0
M  V30 1334 H 137.909 3.36769 -2.08332 0
M  V30 1335 H 139.083 1.59218 -4.32419 0
M  V30 1336 H 137.398 1.58618 -3.85006 0
M  V30 1337 H 139.995 4.28881 -3.1932 0
M  V30 1338 H 140.338 3.87065 -1.53253 0
M  V30 1339 H 140.871 2.78574 -2.83974 0
M  V30 1340 H 137.61 2.99668 -5.82992 0
M  V30 1341 H 137.13 4.01683 -4.45433 0
M  V30 1342 H 138.809 4.04712 -5.04794 0
M  V30 1343 N 138.941 1.26152 0.944643 0
M  V30 1344 C 140.189 1.11271 1.6871 0
M  V30 1345 C 140.51 -0.345166 1.91921 0
M  V30 1346 O 139.78 -1.24387 1.51343 0
M  V30 1347 H 138.36 0.408783 0.625224 0
M  V30 1348 H 141.022 1.58427 1.1352 0
M  V30 1349 H 140.118 1.62879 2.66227 0
M  V30 1350 N 140.419 -1.14872 1.07899 0
M  V30 1351 C 141.367 -2.21857 0.698727 0
M  V30 1352 C 142.361 -1.66845 -0.293086 0
M  V30 1353 O 143.567 -1.79321 -0.156204 0
M  V30 1354 H 139.942 -0.722691 0.207899 0
M  V30 1355 H 141.913 -2.51205 1.61054 0
M  V30 1356 C 140.662 -3.47498 0.11858 0
M  V30 1357 H 139.985 -3.90154 0.872914 0
M  V30 1358 H 141.425 -4.23858 -0.109759 0
M  V30 1359 C 139.884 -3.16947 -1.1422 0
M  V30 1360 O 140.414 -3.3426 -2.22785 0
M  V30 1361 N 138.62 -2.70946 -1.05055 0
M  V30 1362 H 138.167 -2.57058 -0.167038 0
M  V30 1363 H 138.125 -2.50879 -1.89491 0
M  V30 1364 N 141.898 -0.863906 -1.31812 0
M  V30 1365 C 142.861 -0.320212 -2.26952 0
M  V30 1366 C 143.861 0.525369 -1.51975 0
M  V30 1367 O 145.051 0.335547 -1.70938 0
M  V30 1368 C 142.183 0.545919 -3.365 0
M  V30 1369 H 143.376 -1.16004 -2.76556 0
M  V30 1370 H 140.929 -0.638995 -1.42641 0
M  V30 1371 H 141.664 1.40718 -2.92179 0
M  V30 1372 H 141.449 -0.0594674 -3.92055 0
M  V30 1373 H 142.939 0.918796 -4.07367 0
M  V30 1374 N 143.376 1.44774 -0.622745 0
M  V30 1375 C 144.604 2.06487 -0.130722 0
M  V30 1376 C 145.019 1.46476 1.19123 0
M  V30 1377 O 144.376 0.584502 1.72887 0
M  V30 1378 C 144.427 3.615 -0.000807207 0
M  V30 1379 O 144.148 4.19274 -1.27048 0
M  V30 1380 C 145.649 4.40229 0.520898 0
M  V30 1381 H 142.869 0.666704 -0.0758106 0
M  V30 1382 H 145.413 1.85779 -0.854774 0
M  V30 1383 H 143.568 3.81498 0.673643 0
M  V30 1384 H 143.982 5.12622 -1.1099 0
M  V30 1385 H 145.456 5.49144 0.560838 0
M  V30 1386 H 145.933 4.1108 1.54627 0
M  V30 1387 H 146.539 4.25131 -0.120018 0
M  V30 1388 N 144.854 0.36279 1.53368 0
M  V30 1389 C 146.1 -0.228113 2.01513 0
M  V30 1390 C 146.433 -1.48648 1.2497 0
M  V30 1391 O 145.708 -1.91459 0.342616 0
M  V30 1392 C 145.991 -0.522884 3.56284 0
M  V30 1393 C 145.844 0.74892 4.43521 0
M  V30 1394 C 147.163 -1.32461 4.19693 0
M  V30 1395 H 144.282 -0.0814343 0.732487 0
M  V30 1396 H 146.924 0.48713 1.83649 0
M  V30 1397 H 145.074 -1.1322 3.71636 0
M  V30 1398 H 146.746 1.38648 4.39971 0
M  V30 1399 H 144.989 1.36986 4.11603 0
M  V30 1400 H 145.66 0.497667 5.49752 0
M  V30 1401 H 148.136 -0.809203 4.08156 0
M  V30 1402 H 147.012 -1.49961 5.28018 0
M  V30 1403 H 147.273 -2.33232 3.75573 0
M  V30 1404 N 146.332 -1.57332 0.0918853 0
M  V30 1405 C 147.264 -2.10869 -0.898168 0
M  V30 1406 C 148.277 -1.04521 -1.24817 0
M  V30 1407 O 149.466 -1.31977 -1.20184 0
M  V30 1408 C 146.566 -2.57083 -2.2082 0
M  V30 1409 C 145.739 -3.87229 -2.03402 0
M  V30 1410 C 144.798 -4.19324 -3.17889 0
M  V30 1411 O 143.824 -4.88598 -2.91994 0
M  V30 1412 N 145.026 -3.74471 -4.43567 0
M  V30 1413 H 147.791 -2.96439 -0.440943 0
M  V30 1414 H 145.352 -1.61631 -0.0933064 0
M  V30 1415 H 147.344 -2.75602 -2.96354 0
M  V30 1416 H 145.914 -1.76541 -2.57977 0
M  V30 1417 H 145.134 -3.7789 -1.12218 0
M  V30 1418 H 146.422 -4.72379 -1.89038 0
M  V30 1419 H 145.82 -3.18546 -4.67488 0
M  V30 1420 H 144.377 -3.98151 -5.16061 0
M  V30 1421 N 147.81 0.181792 -1.56548 0
M  V30 1422 C 149.056 0.901431 -1.81665 0
M  V30 1423 C 149.389 1.82347 -0.668075 0
M  V30 1424 O 148.664 1.91669 0.330615 0
M  V30 1425 C 148.947 1.70618 -3.17115 0
M  V30 1426 C 148.8 0.807964 -4.42484 0
M  V30 1427 C 150.119 2.67605 -3.49393 0
M  V30 1428 H 147.238 0.32627 -0.660846 0
M  V30 1429 H 149.88 0.168134 -1.89255 0
M  V30 1430 H 148.03 2.33133 -3.10775 0
M  V30 1431 H 149.702 0.19649 -4.60881 0
M  V30 1432 H 147.945 0.115411 -4.33646 0
M  V30 1433 H 148.616 1.40632 -5.33785 0
M  V30 1434 H 151.092 2.15218 -3.56118 0
M  V30 1435 H 149.968 3.20985 -4.45264 0
M  V30 1436 H 150.229 3.47298 -2.73563 0
M  V30 1437 N 149.288 1.51039 0.449983 0
M  V30 1438 C 150.537 1.62317 1.19733 0
M  V30 1439 C 150.85 0.339101 1.92638 0
M  V30 1440 O 152.056 0.331069 2.69474 0
M  V30 1441 C 150.512 2.86608 2.17678 0
M  V30 1442 C 150.12 4.21972 1.50479 0
M  V30 1443 C 151.864 3.07239 2.92924 0
M  V30 1444 C 149.771 5.37426 2.46834 0
M  V30 1445 H 148.701 0.604532 0.450619 0
M  V30 1446 H 151.352 1.77494 0.465625 0
M  V30 1447 H 149.734 2.65037 2.94231 0
M  V30 1448 H 150.908 4.53878 0.795716 0
M  V30 1449 H 149.223 4.07117 0.874344 0
M  V30 1450 H 151.82 3.90668 3.65079 0
M  V30 1451 H 152.163 2.19807 3.5354 0
M  V30 1452 H 152.696 3.29091 2.23481 0
M  V30 1453 H 149.435 6.27079 1.90926 0
M  V30 1454 H 148.955 5.09912 3.15832 0
M  V30 1455 H 150.634 5.68862 3.08228 0
M  V30 1456 N 150.766 -0.704594 1.40972 0
M  V30 1457 C 152.014 -1.46169 1.39568 0
M  V30 1458 C 152.335 -1.95 0.00253745 0
M  V30 1459 O 151.605 -1.71095 -0.954114 0
M  V30 1460 H 150.185 -0.542326 0.513704 0
M  V30 1461 H 152.847 -0.834553 1.76128 0
M  V30 1462 H 151.943 -2.32922 2.07735 0
M  V30 1463 N 152.244 -1.26651 -0.937939 0
M  V30 1464 C 153.192 -1.08308 -2.05845 0
M  V30 1465 C 154.186 -0.0090757 -1.69398 0
M  V30 1466 O 155.392 -0.166007 -1.79233 0
M  V30 1467 H 151.767 -0.333416 -0.674046 0
M  V30 1468 H 153.738 -2.03261 -2.18467 0
M  V30 1469 C 152.487 -0.736229 -3.39816 0
M  V30 1470 H 151.81 -1.55453 -3.6834 0
M  V30 1471 H 153.25 -0.64769 -4.19024 0
M  V30 1472 C 151.709 0.558824 -3.32233 0
M  V30 1473 O 152.239 1.59621 -3.68624 0
M  V30 1474 N 150.445 0.550657 -2.85335 0
M  V30 1475 H 149.992 -0.293943 -2.55917 0
M  V30 1476 H 149.95 1.41726 -2.80644 0
M  V30 1477 N 153.722 1.14298 -1.08507 0
M  V30 1478 C 155.138 1.37347 -0.812901 0
M  V30 1479 C 155.338 1.93052 0.577325 0
M  V30 1480 O 154.394 2.14389 1.33393 0
M  V30 1481 C 155.707 2.33359 -1.89642 0
M  V30 1482 C 157.255 2.46996 -1.92255 0
M  V30 1483 C 157.73 3.46309 -2.99724 0
M  V30 1484 N 159.221 3.53853 -2.98902 0
M  V30 1485 C 159.956 4.3055 -3.787 0
M  V30 1486 N 159.452 5.10482 -4.6838 0
M  V30 1487 N 161.245 4.25757 -3.66998 0
M  V30 1488 H 153.396 0.764867 -1.9815 0
M  V30 1489 H 155.659 0.398966 -0.859959 0
M  V30 1490 H 155.365 1.99565 -2.89597 0
M  V30 1491 H 155.239 3.33274 -1.76659 0
M  V30 1492 H 157.626 2.80081 -0.929445 0
M  V30 1493 H 157.707 1.47039 -2.09316 0
M  V30 1494 H 157.351 3.13957 -3.99241 0
M  V30 1495 H 157.281 4.46049 -2.79907 0
M  V30 1496 H 159.772 2.96812 -2.33904 0
M  V30 1497 H 160.085 5.66284 -5.25873 0
M  V30 1498 H 158.43 5.09747 -4.72422 0
M  V30 1499 H 161.621 3.62383 -2.96304 0
M  V30 1500 H 161.794 4.85279 -4.29427 0
M  V30 1501 N 155.201 0.870884 1.31352 0
M  V30 1502 C 156.612 0.534714 1.78879 0
M  V30 1503 C 156.963 -0.948423 1.71754 0
M  V30 1504 O 156.088 -1.74055 1.28584 0
M  V30 1505 C 156.683 0.963839 3.24801 0
M  V30 1506 C 155.242 0.679311 3.70219 0
M  V30 1507 C 154.389 1.15465 2.52117 0
M  V30 1508 H 157.34 1.05651 1.18421 0
M  V30 1509 H 157.361 0.286892 3.79417 0
M  V30 1510 H 156.873 2.04332 3.29955 0
M  V30 1511 H 154.974 -0.388769 3.70566 0
M  V30 1512 H 155.087 1.25698 4.62317 0
M  V30 1513 H 153.451 0.574383 2.48139 0
M  V30 1514 H 154.234 2.24157 2.60016 0
M  V30 1515 N 156.679 -1.44442 0.630414 0
M  V30 1516 C 157.626 -2.30678 -0.0749355 0
M  V30 1517 C 158.596 -1.4344 -0.837502 0
M  V30 1518 O 159.781 -1.72343 -0.818684 0
M  V30 1519 C 156.921 -3.28706 -1.05103 0
M  V30 1520 C 156.034 -4.31046 -0.286954 0
M  V30 1521 C 155.169 -5.16167 -1.2548 0
M  V30 1522 C 154.208 -6.10216 -0.479843 0
M  V30 1523 N 153.345 -6.88039 -1.39811 0
M  V30 1524 H 158.185 -2.90454 0.666386 0
M  V30 1525 H 155.722 -1.43107 0.340404 0
M  V30 1526 H 157.68 -3.84027 -1.63031 0
M  V30 1527 H 156.31 -2.70632 -1.75949 0
M  V30 1528 H 155.362 -3.78203 0.408243 0
M  V30 1529 H 156.674 -4.97794 0.316657 0
M  V30 1530 H 155.828 -5.76002 -1.90544 0
M  V30 1531 H 154.567 -4.49491 -1.89233 0
M  V30 1532 H 153.572 -5.49491 0.184295 0
M  V30 1533 H 154.797 -6.78928 0.152965 0
M  V30 1534 H 152.743 -6.24032 -2.02287 0
M  V30 1535 H 152.66 -7.51223 -0.848508 0
M  V30 1536 H 153.928 -7.52397 -2.03762 0
M  V30 1537 N 158.157 -0.370918 -1.53173 0
M  V30 1538 C 159.403 0.217423 -2.01631 0
M  V30 1539 C 159.736 1.47983 -1.25756 0
M  V30 1540 O 159.011 1.91274 -0.352764 0
M  V30 1541 C 159.294 0.503982 -3.56556 0
M  V30 1542 C 159.147 -0.77243 -4.43118 0
M  V30 1543 C 160.466 1.30234 -4.20389 0
M  V30 1544 H 157.585 0.0775486 -0.732909 0
M  V30 1545 H 160.227 -0.496863 -1.83388 0
M  V30 1546 H 158.377 1.11248 -3.72231 0
M  V30 1547 H 160.049 -1.4098 -4.39229 0
M  V30 1548 H 158.292 -1.39167 -4.10871 0
M  V30 1549 H 158.963 -0.526815 -5.4948 0
M  V30 1550 H 161.439 0.787546 -4.08579 0
M  V30 1551 H 160.315 1.47158 -5.28806 0
M  V30 1552 H 160.576 2.31237 -3.76805 0
M  V30 1553 N 159.635 1.57281 -0.100228 0
M  V30 1554 C 160.883 1.94153 0.561157 0
M  V30 1555 C 161.204 0.983157 1.68401 0
M  V30 1556 O 160.474 0.0361132 1.95867 0
M  V30 1557 H 159.054 0.716791 0.210283 0
M  V30 1558 H 161.716 1.94202 -0.164765 0
M  V30 1559 H 160.812 2.96709 0.968008 0
M  V30 1560 N 161.113 -0.173488 1.56642 0
M  V30 1561 C 162.524 -0.736155 1.71574 0
M  V30 1562 C 162.875 -1.82888 0.710389 0
M  V30 1563 O 162 -2.16017 -0.1287 0
M  V30 1564 C 162.595 -1.34211 3.11083 0
M  V30 1565 C 161.154 -1.85162 3.27707 0
M  V30 1566 C 160.301 -0.729765 2.67525 0
M  V30 1567 H 163.252 0.0518786 1.58615 0
M  V30 1568 H 163.273 -2.21178 3.09613 0
M  V30 1569 H 162.785 -0.546579 3.84232 0
M  V30 1570 H 160.886 -2.67366 2.59512 0
M  V30 1571 H 160.999 -1.99855 4.35425 0
M  V30 1572 H 159.363 -1.14965 2.27278 0
M  V30 1573 H 160.146 0.0538806 3.43258 0
M  V30 1574 N 162.591 -1.51276 -0.441967 0
M  V30 1575 C 164.007 -1.39349 -0.778083 0
M  V30 1576 C 164.207 -0.472212 -1.95889 0
M  V30 1577 O 163.263 0.0743551 -2.5239 0
M  V30 1578 C 164.576 -2.81292 -1.0628 0
M  V30 1579 C 166.124 -2.9041 -1.16751 0
M  V30 1580 C 166.599 -4.33251 -1.48519 0
M  V30 1581 N 168.09 -4.36336 -1.55453 0
M  V30 1582 C 168.825 -5.43885 -1.81596 0
M  V30 1583 N 168.321 -6.61601 -2.05562 0
M  V30 1584 N 170.114 -5.3136 -1.8334 0
M  V30 1585 H 162.265 -2.09729 0.335774 0
M  V30 1586 H 164.528 -0.943925 0.0878028 0
M  V30 1587 H 164.234 -3.50678 -0.267905 0
M  V30 1588 H 164.108 -3.20334 -1.99163 0
M  V30 1589 H 166.495 -2.21225 -1.95304 0
M  V30 1590 H 166.576 -2.54871 -0.217801 0
M  V30 1591 H 166.22 -5.02984 -0.704958 0
M  V30 1592 H 166.15 -4.66299 -2.44689 0
M  V30 1593 H 168.641 -3.51466 -1.38853 0
M  V30 1594 H 168.954 -7.39361 -2.24867 0
M  V30 1595 H 167.299 -6.64725 -2.02894 0
M  V30 1596 H 170.49 -4.38382 -1.64132 0
M  V30 1597 H 170.663 -6.15258 -2.03377 0
M  V30 1598 N 164.069 0.697108 -1.41344 0
M  V30 1599 C 165.485 1.00751 -1.2378 0
M  V30 1600 C 165.685 2.01105 -0.126066 0
M  V30 1601 O 164.741 2.47295 0.51004 0
M  V30 1602 C 166.054 1.53359 -2.58653 0
M  V30 1603 C 167.602 1.6525 -2.65822 0
M  V30 1604 C 168.077 2.2126 -4.01009 0
M  V30 1605 N 169.568 2.28622 -4.02847 0
M  V30 1606 C 170.303 2.72984 -5.04249 0
M  V30 1607 N 169.799 3.16962 -6.16041 0
M  V30 1608 N 171.592 2.72534 -4.91611 0
M  V30 1609 H 163.743 0.0322662 -2.12375 0
M  V30 1610 H 166.006 0.0768853 -0.944877 0
M  V30 1611 H 165.712 0.870773 -3.4075 0
M  V30 1612 H 165.586 2.51597 -2.81032 0
M  V30 1613 H 167.973 2.30644 -1.84086 0
M  V30 1614 H 168.054 0.655614 -2.47256 0
M  V30 1615 H 167.698 1.56482 -4.83193 0
M  V30 1616 H 167.628 3.21698 -4.16915 0
M  V30 1617 H 170.119 1.97585 -3.22131 0
M  V30 1618 H 170.432 3.49434 -6.89287 0
M  V30 1619 H 168.777 3.14875 -6.1958 0
M  V30 1620 H 171.968 2.37525 -4.0336 0
M  V30 1621 H 172.141 3.06789 -5.70775 0
M  V30 1622 N 165.547 1.27147 0.931209 0
M  V30 1623 C 166.457 1.11372 2.06478 0
M  V30 1624 C 167.473 0.044645 1.73943 0
M  V30 1625 O 168.649 0.250417 1.99837 0
M  V30 1626 C 165.714 0.758838 3.38294 0
M  V30 1627 C 164.775 1.90841 3.84549 0
M  V30 1628 C 164.008 1.57036 5.10074 0
M  V30 1629 O 164.231 0.476645 5.68405 0
M  V30 1630 O 163.165 2.40839 5.51616 0
M  V30 1631 H 166.991 2.06493 2.22698 0
M  V30 1632 H 164.576 1.06301 1.04978 0
M  V30 1633 H 166.458 0.574098 4.17471 0
M  V30 1634 H 165.133 -0.162879 3.2329 0
M  V30 1635 H 164.04 2.14819 3.06274 0
M  V30 1636 H 165.373 2.81021 4.04089 0
M  V30 1637 N 167.025 -1.13721 1.09112 0
M  V30 1638 C 167.935 -2.22638 0.73957 0
M  V30 1639 C 168.951 -1.72091 -0.257068 0
M  V30 1640 O 170.127 -2.01155 -0.0992154 0
M  V30 1641 C 167.192 -3.46322 0.16191 0
M  V30 1642 C 166.253 -4.11775 1.21408 0
M  V30 1643 C 165.486 -5.29555 0.663891 0
M  V30 1644 O 165.709 -5.68077 -0.514274 0
M  V30 1645 O 164.643 -5.84973 1.41738 0
M  V30 1646 H 168.469 -2.55074 1.64836 0
M  V30 1647 H 166.054 -1.21791 0.865289 0
M  V30 1648 H 167.936 -4.21107 -0.157073 0
M  V30 1649 H 166.611 -3.15593 -0.719932 0
M  V30 1650 H 165.518 -3.3883 1.58571 0
M  V30 1651 H 166.851 -4.46627 2.06845 0
M  V30 1652 N 168.503 -0.877838 -1.30888 0
M  V30 1653 C 169.466 -0.344265 -2.266 0
M  V30 1654 C 170.466 0.50922 -1.52524 0
M  V30 1655 O 171.656 0.317398 -1.71284 0
M  V30 1656 C 168.788 0.510198 -3.37061 0
M  V30 1657 H 169.981 -1.1893 -2.7531 0
M  V30 1658 H 167.534 -0.654088 -1.41956 0
M  V30 1659 H 168.269 1.37612 -2.93655 0
M  V30 1660 H 168.054 -0.101047 -3.9197 0
M  V30 1661 H 169.544 0.875537 -4.08319 0
M  V30 1662 N 169.982 1.44106 -0.638065 0
M  V30 1663 C 170.914 2.28976 0.101205 0
M  V30 1664 C 171.927 1.4167 0.802088 0
M  V30 1665 O 173.116 1.65755 0.662375 0
M  V30 1666 C 170.216 3.18217 1.16581 0
M  V30 1667 C 169.389 4.33978 0.546066 0
M  V30 1668 C 168.448 5.04202 1.50554 0
M  V30 1669 O 167.474 5.59986 1.01999 0
M  V30 1670 N 168.676 5.06296 2.8398 0
M  V30 1671 H 171.441 2.93064 -0.627186 0
M  V30 1672 H 169.002 1.54629 -0.479731 0
M  V30 1673 H 170.994 3.62061 1.80815 0
M  V30 1674 H 169.564 2.55833 1.79634 0
M  V30 1675 H 168.784 3.93239 -0.275046 0
M  V30 1676 H 170.072 5.08675 0.112793 0
M  V30 1677 H 169.47 4.62319 3.26002 0
M  V30 1678 H 168.027 5.53907 3.43556 0
M  V30 1679 N 171.46 0.379036 1.52974 0
M  V30 1680 C 172.392 -0.495963 2.2377 0
M  V30 1681 C 173.405 -1.03517 1.25651 0
M  V30 1682 O 174.594 -0.939249 1.51791 0
M  V30 1683 C 171.694 -1.69894 2.93239 0
M  V30 1684 C 170.867 -1.2889 4.17979 0
M  V30 1685 C 169.926 -2.35543 4.70538 0
M  V30 1686 O 168.952 -1.97375 5.33883 0
M  V30 1687 N 170.154 -3.67318 4.49508 0
M  V30 1688 H 172.919 0.110523 2.99496 0
M  V30 1689 H 170.48 0.204878 1.60598 0
M  V30 1690 H 172.472 -2.40747 3.25304 0
M  V30 1691 H 171.042 -2.212 2.20883 0
M  V30 1692 H 170.262 -0.409676 3.92065 0
M  V30 1693 H 171.55 -0.991443 4.99047 0
M  V30 1694 H 170.948 -4.01095 3.98923 0
M  V30 1695 H 169.505 -4.34235 4.8609 0
M  V30 1696 N 172.938 -1.57226 0.108567 0
M  V30 1697 C 174.184 -1.95121 -0.552761 0
M  V30 1698 C 174.517 -0.991345 -1.66991 0
M  V30 1699 O 173.792 -0.0267211 -1.94482 0
M  V30 1700 C 174.075 -3.43039 -1.09528 0
M  V30 1701 C 173.928 -4.49797 0.0177332 0
M  V30 1702 C 175.247 -3.92567 -1.98945 0
M  V30 1703 H 172.366 -0.709496 -0.199461 0
M  V30 1704 H 175.008 -1.89126 0.182011 0
M  V30 1705 H 173.158 -3.48279 -1.72146 0
M  V30 1706 H 174.83 -4.56661 0.652584 0
M  V30 1707 H 173.073 -4.284 0.682309 0
M  V30 1708 H 173.744 -5.50528 -0.402919 0
M  V30 1709 H 176.22 -3.89565 -1.46214 0
M  V30 1710 H 175.096 -4.96605 -2.33827 0
M  V30 1711 H 175.357 -3.32648 -2.91201 0
M  V30 1712 N 174.416 0.165178 -1.56732 0
M  V30 1713 C 175.346 1.20651 -1.99914 0
M  V30 1714 C 176.327 1.45827 -0.875705 0
M  V30 1715 O 177.512 1.57057 -1.14223 0
M  V30 1716 C 174.642 2.54401 -2.36427 0
M  V30 1717 C 173.596 2.43782 -3.51787 0
M  V30 1718 C 172.922 3.82078 -3.7406 0
M  V30 1719 C 174.222 1.93732 -4.85041 0
M  V30 1720 H 175.916 0.847534 -2.87154 0
M  V30 1721 H 173.462 0.40625 -1.38151 0
M  V30 1722 H 175.415 3.27458 -2.65234 0
M  V30 1723 H 174.139 2.92098 -1.46103 0
M  V30 1724 H 172.798 1.73178 -3.23117 0
M  V30 1725 H 172.446 4.17179 -2.81017 0
M  V30 1726 H 172.146 3.7584 -4.51684 0
M  V30 1727 H 173.67 4.56712 -4.05274 0
M  V30 1728 H 175.084 2.56569 -5.12684 0
M  V30 1729 H 173.481 1.98428 -5.66345 0
M  V30 1730 H 174.551 0.891962 -4.76626 0
M  V30 1731 N 175.894 1.51508 0.433938 0
M  V30 1732 C 177.119 1.68443 1.21003 0
M  V30 1733 C 177.544 0.382636 1.84167 0
M  V30 1734 O 176.902 -0.65755 1.68956 0
M  V30 1735 C 176.95 2.80405 2.26727 0
M  V30 1736 O 176.054 2.44245 3.32292 0
M  V30 1737 H 175.395 0.561536 0.354363 0
M  V30 1738 H 177.925 1.9809 0.512024 0
M  V30 1739 H 177.935 3.0459 2.71457 0
M  V30 1740 H 176.61 3.74867 1.80132 0
M  V30 1741 H 175.187 2.30644 2.93015 0
M  V30 1742 N 177.372 -0.689602 1.41712 0
M  V30 1743 C 178.282 -1.83314 1.46401 0
M  V30 1744 C 179.298 -1.7036 0.35405 0
M  V30 1745 O 180.474 -1.92171 0.602692 0
M  V30 1746 C 177.539 -3.19344 1.34982 0
M  V30 1747 C 176.6 -3.44363 2.56344 0
M  V30 1748 C 175.833 -4.73904 2.45461 0
M  V30 1749 O 176.056 -5.508 1.48241 0
M  V30 1750 O 174.99 -4.99839 3.35328 0
M  V30 1751 H 178.816 -1.82314 2.42889 0
M  V30 1752 H 176.401 -0.843438 1.23315 0
M  V30 1753 H 178.283 -4.00547 1.3092 0
M  V30 1754 H 176.958 -3.21014 0.41612 0
M  V30 1755 H 175.865 -2.63067 2.65982 0
M  V30 1756 H 177.198 -3.47512 3.48563 0
M  V30 1757 N 178.85 -1.27639 -0.924453 0
M  V30 1758 C 179.78 -1.13166 -2.04244 0
M  V30 1759 C 180.761 -0.032256 -1.70069 0
M  V30 1760 O 181.946 -0.207328 -1.9309 0
M  V30 1761 C 179.076 -0.781496 -3.38393 0
M  V30 1762 C 178.03 -1.83449 -3.86692 0
M  V30 1763 C 177.356 -1.33822 -5.17683 0
M  V30 1764 C 178.656 -3.23917 -4.09726 0
M  V30 1765 H 180.35 -2.06689 -2.1661 0
M  V30 1766 H 177.896 -0.995136 -1.04082 0
M  V30 1767 H 179.849 -0.667057 -4.16087 0
M  V30 1768 H 178.573 0.189439 -3.2605 0
M  V30 1769 H 177.232 -1.93789 -3.11193 0
M  V30 1770 H 176.88 -0.35665 -5.01734 0
M  V30 1771 H 176.58 -2.04224 -5.50968 0
M  V30 1772 H 178.104 -1.23679 -5.97943 0
M  V30 1773 H 179.518 -3.16559 -4.77978 0
M  V30 1774 H 177.915 -3.92059 -4.54324 0
M  V30 1775 H 178.985 -3.68729 -3.14908 0
M  V30 1776 N 180.328 1.1314 -1.09713 0
M  V30 1777 C 181.574 1.84757 -0.836224 0
M  V30 1778 C 181.907 1.8347 0.636598 0
M  V30 1779 O 181.182 1.27491 1.46889 0
M  V30 1780 C 181.465 3.32782 -1.37578 0
M  V30 1781 C 181.318 3.42567 -2.91493 0
M  V30 1782 C 182.637 4.28307 -1.01198 0
M  V30 1783 H 179.756 0.67082 -0.305236 0
M  V30 1784 H 182.398 1.3278 -1.35903 0
M  V30 1785 H 180.548 3.77177 -0.931097 0
M  V30 1786 H 182.22 3.06862 -3.44432 0
M  V30 1787 H 180.463 2.83349 -3.28475 0
M  V30 1788 H 181.134 4.46674 -3.24324 0
M  V30 1789 H 183.61 3.91999 -1.39556 0
M  V30 1790 H 182.486 5.30307 -1.41653 0
M  V30 1791 H 182.747 4.42029 0.0794833 0
M  V30 1792 N 181.806 0.884767 1.30421 0
M  V30 1793 C 183.054 0.502112 1.95763 0
M  V30 1794 C 183.375 -0.951815 1.70192 0
M  V30 1795 O 182.645 -1.6692 1.0254 0
M  V30 1796 H 181.225 0.182694 0.724315 0
M  V30 1797 H 183.887 1.1278 1.58955 0
M  V30 1798 H 182.983 0.672188 3.04775 0
M  V30 1799 N 183.284 -1.43765 0.645699 0
M  V30 1800 C 184.247 -2.29163 -0.0409488 0
M  V30 1801 C 185.247 -1.41813 -0.757996 0
M  V30 1802 O 186.437 -1.63527 -0.600382 0
M  V30 1803 C 183.569 -3.23716 -1.06869 0
M  V30 1804 H 184.762 -2.91366 0.710345 0
M  V30 1805 H 182.315 -1.5092 0.406547 0
M  V30 1806 H 183.05 -2.66393 -1.84947 0
M  V30 1807 H 182.835 -3.88105 -0.558277 0
M  V30 1808 H 184.325 -3.87831 -1.54845 0
M  V30 1809 N 184.763 -0.387143 -1.52771 0
M  V30 1810 C 186.174 0.0873634 -1.86495 0
M  V30 1811 C 186.525 1.46336 -1.30691 0
M  V30 1812 O 185.65 2.068 -0.637409 0
M  V30 1813 C 186.245 0.165305 -3.38396 0
M  V30 1814 C 184.804 0.584101 -3.7184 0
M  V30 1815 C 183.951 -0.255279 -2.76122 0
M  V30 1816 H 186.902 -0.605104 -1.46711 0
M  V30 1817 H 186.923 0.984848 -3.67534 0
M  V30 1818 H 186.435 -0.836301 -3.78982 0
M  V30 1819 H 184.536 1.59315 -3.36823 0
M  V30 1820 H 184.649 0.343749 -4.77865 0
M  V30 1821 H 183.013 0.279126 -2.53166 0
M  V30 1822 H 183.796 -1.25482 -3.19545 0
M  V30 1823 N 186.241 1.57166 -0.116904 0
M  V30 1824 C 187.487 1.95412 0.542405 0
M  V30 1825 C 187.82 1.00019 1.66463 0
M  V30 1826 O 187.095 0.0370346 1.94465 0
M  V30 1827 C 187.378 3.43615 1.07708 0
M  V30 1828 C 187.231 4.49781 -0.0415868 0
M  V30 1829 C 188.55 3.93616 1.96861 0
M  V30 1830 H 185.669 0.710543 0.195696 0
M  V30 1831 H 188.311 1.89027 -0.192038 0
M  V30 1832 H 186.461 3.49187 1.70296 0
M  V30 1833 H 188.133 4.56308 -0.676793 0
M  V30 1834 H 186.376 4.28033 -0.705019 0
M  V30 1835 H 187.047 5.50733 0.373717 0
M  V30 1836 H 189.523 3.90335 1.44146 0
M  V30 1837 H 188.399 4.97838 2.3119 0
M  V30 1838 H 188.66 3.34188 2.89432 0
M  V30 1839 N 187.719 -0.156864 1.56817 0
M  V30 1840 C 188.944 -0.890331 1.87318 0
M  V30 1841 C 189.369 -1.74394 0.704855 0
M  V30 1842 O 188.727 -1.77972 -0.345786 0
M  V30 1843 C 188.775 -1.73102 3.16336 0
M  V30 1844 O 187.879 -2.83422 2.99576 0
M  V30 1845 H 187.22 -0.24857 0.615718 0
M  V30 1846 H 189.75 -0.150649 2.04045 0
M  V30 1847 H 189.76 -2.12803 3.48107 0
M  V30 1848 H 188.435 -1.10412 4.00976 0
M  V30 1849 H 187.012 -2.47199 2.7919 0
M  V30 1850 N 189.197 -1.51736 -0.425897 0
M  V30 1851 C 190.443 -1.65214 -1.1761 0
M  V30 1852 C 190.776 -0.372778 -1.90589 0
M  V30 1853 O 190.051 0.628139 -1.84078 0
M  V30 1854 C 190.334 -2.86312 -2.18398 0
M  V30 1855 C 190.187 -4.24254 -1.49426 0
M  V30 1856 C 191.506 -3.02925 -3.19256 0
M  V30 1857 H 188.625 -0.601263 -0.426206 0
M  V30 1858 H 191.267 -1.8425 -0.463882 0
M  V30 1859 H 189.417 -2.70213 -2.79137 0
M  V30 1860 H 191.089 -4.52046 -0.919362 0
M  V30 1861 H 189.332 -4.26426 -0.796432 0
M  V30 1862 H 190.003 -5.05001 -2.22885 0
M  V30 1863 H 192.479 -3.1781 -2.68581 0
M  V30 1864 H 191.355 -3.89199 -3.8706 0
M  V30 1865 H 191.616 -2.15497 -3.86023 0
M  V30 1866 N 190.675 0.682077 -1.42076 0
M  V30 1867 C 191.9 1.47558 -1.45744 0
M  V30 1868 C 192.325 1.87977 -0.0680981 0
M  V30 1869 O 191.683 1.55522 0.9318 0
M  V30 1870 C 191.731 2.70575 -2.38373 0
M  V30 1871 O 190.835 3.68573 -1.85007 0
M  V30 1872 H 190.176 0.443585 -0.494093 0
M  V30 1873 H 192.706 0.837238 -1.86686 0
M  V30 1874 H 192.716 3.18729 -2.54707 0
M  V30 1875 H 191.391 2.40495 -3.39315 0
M  V30 1876 H 189.968 3.2757 -1.78192 0
M  V30 1877 N 192.153 1.28127 0.917671 0
M  V30 1878 C 193.116 1.11744 2.00115 0
M  V30 1879 C 194.116 0.0583052 1.60694 0
M  V30 1880 O 195.306 0.303755 1.71531 0
M  V30 1881 C 192.438 0.704862 3.33533 0
M  V30 1882 H 193.631 2.07966 2.16079 0
M  V30 1883 H 191.184 1.11058 1.09981 0
M  V30 1884 H 191.919 -0.258299 3.2327 0
M  V30 1885 H 191.704 1.4699 3.63505 0
M  V30 1886 H 193.194 0.612768 4.1308 0
M  V30 1887 N 193.631 -1.12557 1.10312 0
M  V30 1888 C 194.859 -1.87864 0.866873 0
M  V30 1889 C 195.274 -1.79588 -0.582557 0
M  V30 1890 O 194.631 -1.16887 -1.40156 0
M  V30 1891 C 194.682 -3.37125 1.30496 0
M  V30 1892 O 194.403 -3.45201 2.69755 0
M  V30 1893 C 195.904 -4.29373 1.10243 0
M  V30 1894 H 193.124 -0.594452 0.311236 0
M  V30 1895 H 195.668 -1.42429 1.46745 0
M  V30 1896 H 193.823 -3.80109 0.748081 0
M  V30 1897 H 194.237 -4.38056 2.88457 0
M  V30 1898 H 195.711 -5.32394 1.45811 0
M  V30 1899 H 196.188 -4.39181 0.0409492 0
M  V30 1900 H 196.794 -3.92169 1.64571 0
M  V30 1901 N 195.109 -0.891671 -1.2995 0
M  V30 1902 C 196.337 -0.52866 -2.00032 0
M  V30 1903 C 196.752 0.884574 -1.66795 0
M  V30 1904 O 196.109 1.5827 -0.908669 0
M  V30 1905 C 196.16 -0.701814 -3.54622 0
M  V30 1906 O 195.881 -2.05942 -3.86678 0
M  V30 1907 C 197.382 -0.342683 -4.41973 0
M  V30 1908 H 194.602 -0.203659 -0.639347 0
M  V30 1909 H 197.146 -1.19881 -1.65677 0
M  V30 1910 H 195.301 -0.0789468 -3.8732 0
M  V30 1911 H 195.715 -2.08291 -4.81368 0
M  V30 1912 H 197.189 -0.514709 -5.49595 0
M  V30 1913 H 197.666 0.71975 -4.33262 0
M  V30 1914 H 198.272 -0.942154 -4.14733 0
M  V30 1915 N 196.587 1.43421 -0.653314 0
M  V30 1916 C 197.815 2.06163 -0.174491 0
M  V30 1917 C 198.23 1.48969 1.1599 0
M  V30 1918 O 197.587 0.621042 1.71608 0
M  V30 1919 C 197.638 3.61417 -0.0774865 0
M  V30 1920 O 197.359 4.16485 -1.35912 0
M  V30 1921 C 198.86 4.41235 0.427402 0
M  V30 1922 H 196.08 0.664946 -0.0899353 0
M  V30 1923 H 198.624 1.83924 -0.893988 0
M  V30 1924 H 196.779 3.82841 0.59257 0
M  V30 1925 H 197.193 5.10153 -1.21839 0
M  V30 1926 H 198.667 5.5021 0.44423 0
M  V30 1927 H 199.144 4.14268 1.45873 0
M  V30 1928 H 199.75 4.2478 -0.210167 0
M  V30 1929 N 198.065 0.39524 1.52563 0
M  V30 1930 C 199.342 -0.242908 1.94086 0
M  V30 1931 C 199.722 -1.63841 1.33114 0
M  V30 1932 O 199.07 -2.22928 0.501529 0
M  V30 1933 C 199.28 -0.26327 3.48006 0
M  V30 1934 C 200.628 -0.489354 4.21771 0
M  V30 1935 O 201.652 -0.343226 3.54543 0
M  V30 1936 O 200.511 -0.776169 5.4096 0
M  V30 1937 H 197.605 -0.152536 0.812811 0
M  V30 1938 H 200.151 0.450178 1.6362 0
M  V30 1939 H 198.923 0.713985 3.84731 0
M  V30 1940 H 198.546 -1.00103 3.84792 0
M  V30 1941 N 199.544 -1.57102 0.125237 0
M  V30 1942 C 200.792 -1.95021 -0.530198 0
M  V30 1943 C 201.113 -1.00982 -1.66816 0
M  V30 1944 O 200.383 -0.0672693 -1.95784 0
M  V30 1945 H 198.963 -0.720046 -0.198853 0
M  V30 1946 H 201.625 -1.93916 0.19564 0
M  V30 1947 H 200.721 -2.98211 -0.920681 0
M  V30 1948 N 201.022 0.148545 -1.56898 0
M  V30 1949 C 201.952 1.18524 -2.01182 0
M  V30 1950 C 202.933 1.4489 -0.891123 0
M  V30 1951 O 204.118 1.55836 -1.15882 0
M  V30 1952 C 201.248 2.51879 -2.39112 0
M  V30 1953 C 200.202 2.40038 -3.54353 0
M  V30 1954 C 199.528 3.78089 -3.78091 0
M  V30 1955 C 200.828 1.88577 -4.87069 0
M  V30 1956 H 202.522 0.817029 -2.88036 0
M  V30 1957 H 200.068 0.391575 -1.38574 0
M  V30 1958 H 202.021 3.24627 -2.68692 0
M  V30 1959 H 200.745 2.90532 -1.49193 0
M  V30 1960 H 199.404 1.69742 -3.24936 0
M  V30 1961 H 199.052 4.14175 -2.85426 0
M  V30 1962 H 198.752 3.71028 -4.55645 0
M  V30 1963 H 200.276 4.52387 -4.10095 0
M  V30 1964 H 201.69 2.51117 -5.15377 0
M  V30 1965 H 200.087 1.9241 -5.68417 0
M  V30 1966 H 201.157 0.84136 -4.77545 0
M  V30 1967 N 202.5 1.5196 0.417844 0
M  V30 1968 C 203.748 1.65263 1.16329 0
M  V30 1969 C 204.069 0.380634 1.91249 0
M  V30 1970 O 203.339 -0.604214 1.86349 0
M  V30 1971 H 201.919 0.60912 0.432414 0
M  V30 1972 H 204.581 1.88969 0.477162 0
M  V30 1973 H 203.677 2.4896 1.88217 0
M  V30 1974 N 203.978 -0.674533 1.42435 0
M  V30 1975 C 204.908 -1.80009 1.48724 0
M  V30 1976 C 205.889 -1.6659 0.343793 0
M  V30 1977 O 207.074 -1.86007 0.558137 0
M  V30 1978 C 204.204 -3.18306 1.38919 0
M  V30 1979 C 203.158 -3.46461 2.51294 0
M  V30 1980 C 202.484 -4.84335 2.26547 0
M  V30 1981 C 203.784 -3.43328 3.93603 0
M  V30 1982 H 205.478 -1.75004 2.42928 0
M  V30 1983 H 203.024 -0.840533 1.16923 0
M  V30 1984 H 204.977 -3.9678 1.41927 0
M  V30 1985 H 203.701 -3.2399 0.412094 0
M  V30 1986 H 202.36 -2.70348 2.47604 0
M  V30 1987 H 202.008 -4.86669 1.2713 0
M  V30 1988 H 201.708 -5.04136 3.01861 0
M  V30 1989 H 203.232 -5.65094 2.31304 0
M  V30 1990 H 204.646 -4.11772 3.98894 0
M  V30 1991 H 203.043 -3.74664 4.68771 0
M  V30 1992 H 204.113 -2.41897 4.20255 0
M  V30 1993 N 205.456 -1.28612 -0.910864 0
M  V30 1994 C 206.684 -1.18792 -1.69399 0
M  V30 1995 C 207.099 0.253039 -1.87097 0
M  V30 1996 O 206.456 1.17071 -1.40003 0
M  V30 1997 C 206.507 -1.88511 -3.08457 0
M  V30 1998 O 206.228 -3.26979 -2.91576 0
M  V30 1999 C 207.729 -1.85029 -4.02839 0
M  V30 2000 H 204.949 -0.412233 -0.529438 0
M  V30 2001 H 207.493 -1.69788 -1.13984 0
M  V30 2002 H 205.648 -1.41379 -3.60681 0
M  V30 2003 H 206.062 -3.61936 -3.79608 0
M  V30 2004 H 207.536 -2.38395 -4.97867 0
M  V30 2005 H 208.013 -0.823303 -4.31414 0
M  V30 2006 H 208.619 -2.31853 -3.56545 0
M  V30 2007 N 206.934 1.1197 -1.10907 0
M  V30 2008 C 208.182 1.83225 -0.852819 0
M  V30 2009 C 208.503 1.84769 0.623341 0
M  V30 2010 O 207.773 1.3143 1.45269 0
M  V30 2011 H 206.353 0.67849 -0.312507 0
M  V30 2012 H 209.015 1.3556 -1.40033 0
M  V30 2013 H 208.111 2.87265 -1.22005 0
M  V30 2014 N 208.412 0.89855 1.29475 0
M  V30 2015 C 209.828 0.594483 1.48115 0
M  V30 2016 C 210.028 -0.86431 1.82022 0
M  V30 2017 O 209.084 -1.64457 1.91599 0
M  V30 2018 C 210.397 1.51932 2.59494 0
M  V30 2019 C 211.945 1.5244 2.7337 0
M  V30 2020 C 212.42 2.43548 3.87877 0
M  V30 2021 N 213.911 2.41589 3.95208 0
M  V30 2022 C 214.646 3.08789 4.83153 0
M  V30 2023 N 214.142 3.85265 5.75798 0
M  V30 2024 N 215.935 2.97952 4.76635 0
M  V30 2025 H 208.086 1.84207 1.05742 0
M  V30 2026 H 210.349 0.789251 0.525154 0
M  V30 2027 H 210.055 2.55865 2.41301 0
M  V30 2028 H 209.929 1.23899 3.56271 0
M  V30 2029 H 212.316 0.492518 2.90961 0
M  V30 2030 H 212.397 1.8451 1.77172 0
M  V30 2031 H 212.041 3.46829 3.71041 0
M  V30 2032 H 211.971 2.08788 4.83441 0
M  V30 2033 H 214.462 1.86025 3.28943 0
M  V30 2034 H 214.775 4.33598 6.39697 0
M  V30 2035 H 213.12 3.89371 5.75687 0
M  V30 2036 H 216.311 2.37723 4.03244 0
M  V30 2037 H 216.484 3.50599 5.44962 0
M  V30 2038 N 209.89 -1.43072 0.660911 0
M  V30 2039 C 211.138 -2.01323 0.177094 0
M  V30 2040 C 211.459 -1.5245 -1.2159 0
M  V30 2041 O 210.729 -0.740322 -1.81373 0
M  V30 2042 H 209.309 -0.744382 0.0624804 0
M  V30 2043 H 211.971 -1.75179 0.854305 0
M  V30 2044 H 211.067 -3.11649 0.167641 0
M  V30 2045 N 211.368 -0.403325 -1.52352 0
M  V30 2046 C 212.278 0.432009 -2.30588 0
M  V30 2047 C 213.294 1.05884 -1.38075 0
M  V30 2048 O 214.47 1.06161 -1.71148 0
M  V30 2049 C 211.535 1.53669 -3.10784 0
M  V30 2050 C 210.596 0.933525 -4.19027 0
M  V30 2051 C 209.829 1.98557 -4.9539 0
M  V30 2052 O 210.052 3.20283 -4.71991 0
M  V30 2053 O 208.986 1.59504 -5.80381 0
M  V30 2054 H 212.812 -0.205739 -3.03002 0
M  V30 2055 H 210.397 -0.166675 -1.48467 0
M  V30 2056 H 212.279 2.17814 -3.60742 0
M  V30 2057 H 210.954 2.15915 -2.41169 0
M  V30 2058 H 209.861 0.254954 -3.7323 0
M  V30 2059 H 211.194 0.35508 -4.90918 0
M  V30 2060 N 212.846 1.57033 -0.133567 0
M  V30 2061 C 214.094 1.953 0.519848 0
M  V30 2062 C 214.415 1.01866 1.66278 0
M  V30 2063 O 213.685 0.0776513 1.95746 0
M  V30 2064 H 212.265 0.721091 0.195032 0
M  V30 2065 H 214.927 1.93809 -0.205921 0
M  V30 2066 H 214.023 2.98695 0.904854 0
M  V30 2067 N 214.325 -0.140222 1.56975 0
M  V30 2068 C 215.255 -1.17456 2.01808 0
M  V30 2069 C 216.236 -1.44415 0.898794 0
M  V30 2070 O 217.421 -1.5522 1.16707 0
M  V30 2071 C 214.551 -2.50607 2.40444 0
M  V30 2072 C 213.505 -2.38155 3.55621 0
M  V30 2073 C 212.831 -3.76078 3.80091 0
M  V30 2074 C 214.131 -1.85991 4.88062 0
M  V30 2075 H 215.825 -0.801743 2.88466 0
M  V30 2076 H 213.371 -0.38422 1.38779 0
M  V30 2077 H 215.324 -3.23197 2.7041 0
M  V30 2078 H 214.048 -2.89737 1.50732 0
M  V30 2079 H 212.707 -1.68016 3.25832 0
M  V30 2080 H 212.355 -4.12656 2.87618 0
M  V30 2081 H 212.055 -3.68606 4.57606 0
M  V30 2082 H 213.579 -4.50206 4.12488 0
M  V30 2083 H 214.993 -2.4838 5.16701 0
M  V30 2084 H 213.39 -1.89393 5.6943 0
M  V30 2085 H 214.46 -0.816023 4.77984 0
M  V30 2086 N 215.803 -1.52179 -0.40978 0
M  V30 2087 C 216.766 -1.74853 -1.48186 0
M  V30 2088 C 217.766 -0.618417 -1.48433 0
M  V30 2089 O 218.956 -0.886286 -1.49969 0
M  V30 2090 C 216.088 -1.8303 -2.87598 0
M  V30 2091 H 217.281 -2.70559 -1.29374 0
M  V30 2092 H 214.834 -1.42586 -0.640233 0
M  V30 2093 H 215.569 -0.89236 -3.11781 0
M  V30 2094 H 215.354 -2.65187 -2.88822 0
M  V30 2095 H 216.844 -2.02316 -3.65319 0
M  V30 2096 N 217.281 0.66697 -1.42791 0
M  V30 2097 C 218.244 1.76211 -1.46568 0
M  V30 2098 C 219.244 1.56896 -0.352196 0
M  V30 2099 O 220.434 1.63044 -0.613364 0
M  V30 2100 C 217.566 3.14935 -1.30494 0
M  V30 2101 H 218.759 1.74247 -2.44086 0
M  V30 2102 H 216.312 0.877342 -1.29354 0
M  V30 2103 H 217.047 3.2252 -0.339301 0
M  V30 2104 H 216.832 3.30359 -2.11199 0
M  V30 2105 H 218.322 3.94821 -1.36038 0
M  V30 2106 N 218.759 1.29093 0.90403 0
M  V30 2107 C 220.008 1.16187 1.64874 0
M  V30 2108 C 220.321 -0.286742 1.93487 0
M  V30 2109 O 221.527 -0.537062 2.66135 0
M  V30 2110 C 219.983 2.03177 2.97064 0
M  V30 2111 C 219.591 3.52836 2.76062 0
M  V30 2112 C 221.335 1.98984 3.74974 0
M  V30 2113 C 219.242 4.31945 4.03952 0
M  V30 2114 H 218.172 0.431246 0.618501 0
M  V30 2115 H 220.823 1.53699 1.00243 0
M  V30 2116 H 219.205 1.5853 3.62883 0
M  V30 2117 H 220.379 4.05507 2.18863 0
M  V30 2118 H 218.694 3.58656 2.11553 0
M  V30 2119 H 221.291 2.55351 4.69787 0
M  V30 2120 H 221.634 0.968815 4.0487 0
M  V30 2121 H 222.167 2.41652 3.15989 0
M  V30 2122 H 218.906 5.34667 3.79225 0
M  V30 2123 H 218.426 3.84045 4.60727 0
M  V30 2124 H 220.105 4.42379 4.72133 0
M  V30 2125 N 220.237 -1.11381 1.11499 0
M  V30 2126 C 221.2 -2.15622 0.777153 0
M  V30 2127 C 222.2 -1.59504 -0.203779 0
M  V30 2128 O 223.39 -1.74188 0.020782 0
M  V30 2129 C 220.522 -3.40556 0.153116 0
M  V30 2130 H 221.715 -2.47021 1.70061 0
M  V30 2131 H 219.268 -1.26577 0.916952 0
M  V30 2132 H 220.003 -3.14767 -0.780536 0
M  V30 2133 H 219.788 -3.8257 0.859238 0
M  V30 2134 H 221.278 -4.17546 -0.0671044 0
M  V30 2135 N 221.715 -0.905404 -1.28997 0
M  V30 2136 C 222.943 -0.549846 -1.9946 0
M  V30 2137 C 223.358 0.866834 -1.67724 0
M  V30 2138 O 222.715 1.57298 -0.925404 0
M  V30 2139 C 222.766 -0.739387 -3.53858 0
M  V30 2140 O 222.487 -2.10031 -3.84472 0
M  V30 2141 C 223.988 -0.389541 -4.41585 0
M  V30 2142 H 221.208 -0.210429 -0.637151 0
M  V30 2143 H 223.752 -1.21632 -1.64396 0
M  V30 2144 H 221.907 -0.120023 -3.87214 0
M  V30 2145 H 222.321 -2.13385 -4.79132 0
M  V30 2146 H 223.795 -0.572972 -5.49018 0
M  V30 2147 H 224.272 0.673756 -4.34001 0
M  V30 2148 H 224.878 -0.986089 -4.1371 0
M  V30 2149 N 223.193 1.4272 -0.668489 0
M  V30 2150 C 224.156 2.292 0.00448567 0
M  V30 2151 C 225.156 1.43001 0.735339 0
M  V30 2152 O 226.346 1.64461 0.57429 0
M  V30 2153 C 223.478 3.25375 1.01705 0
M  V30 2154 H 224.671 2.90199 -0.756608 0
M  V30 2155 H 222.224 1.50254 -0.430506 0
M  V30 2156 H 222.959 2.69301 1.80686 0
M  V30 2157 H 222.744 3.88944 0.496463 0
M  V30 2158 H 224.234 3.90245 1.48655 0
M  V30 2159 N 224.671 0.411399 1.52136 0
M  V30 2160 C 225.601 -0.404015 2.29978 0
M  V30 2161 C 226.582 -1.04412 1.34284 0
M  V30 2162 O 227.767 -1.0527 1.63192 0
M  V30 2163 C 224.897 -1.5197 3.12286 0
M  V30 2164 C 223.851 -1.00448 4.16046 0
M  V30 2165 C 223.177 -2.21393 4.86712 0
M  V30 2166 C 224.477 -0.0569336 5.22269 0
M  V30 2167 H 226.171 0.245529 2.98392 0
M  V30 2168 H 223.717 0.119525 1.43503 0
M  V30 2169 H 225.67 -2.09715 3.6551 0
M  V30 2170 H 224.394 -2.19716 2.41646 0
M  V30 2171 H 223.053 -0.449421 3.63835 0
M  V30 2172 H 222.701 -2.87699 4.12599 0
M  V30 2173 H 222.401 -1.87571 5.56858 0
M  V30 2174 H 223.925 -2.7974 5.4275 0
M  V30 2175 H 225.339 -0.54325 5.7072 0
M  V30 2176 H 223.736 0.192594 5.99791 0
M  V30 2177 H 224.806 0.887663 4.76706 0
M  V30 2178 N 226.149 -1.5696 0.141893 0
M  V30 2179 C 227.395 -1.9625 -0.511248 0
M  V30 2180 C 227.728 -1.02654 -1.64851 0
M  V30 2181 O 227.003 -0.0679676 -1.94381 0
M  V30 2182 C 227.286 -3.45285 -1.02227 0
M  V30 2183 C 227.139 -4.49658 0.113138 0
M  V30 2184 C 228.458 -3.96698 -1.90574 0
M  V30 2185 H 225.577 -0.713567 -0.184367 0
M  V30 2186 H 228.219 -1.88698 0.222087 0
M  V30 2187 H 226.369 -3.51852 -1.64719 0
M  V30 2188 H 228.041 -4.55174 0.749302 0
M  V30 2189 H 226.284 -4.26857 0.773026 0
M  V30 2190 H 226.955 -5.51258 -0.286053 0
M  V30 2191 H 229.431 -3.92578 -1.37918 0
M  V30 2192 H 228.307 -5.01453 -2.2324 0
M  V30 2193 H 228.568 -3.3875 -2.84079 0
M  V30 2194 N 227.627 0.131896 -1.57047 0
M  V30 2195 C 228.59 1.14638 -1.98471 0
M  V30 2196 C 229.59 1.35029 -0.873148 0
M  V30 2197 O 230.78 1.31764 -1.13946 0
M  V30 2198 C 227.912 2.50358 -2.31373 0
M  V30 2199 H 229.105 0.79064 -2.8929 0
M  V30 2200 H 226.658 0.375761 -1.51716 0
M  V30 2201 H 227.393 2.90876 -1.43393 0
M  V30 2202 H 227.178 2.36915 -3.12432 0
M  V30 2203 H 228.668 3.23395 -2.64207 0
M  V30 2204 N 229.106 1.52395 0.401703 0
M  V30 2205 C 230.069 1.75636 1.47257 0
M  V30 2206 C 231.069 0.62628 1.48103 0
M  V30 2207 O 232.259 0.894227 1.49497 0
M  V30 2208 C 229.391 1.84553 2.86624 0
M  V30 2209 H 230.584 2.71241 1.27938 0
M  V30 2210 H 228.137 1.42923 0.632662 0
M  V30 2211 H 228.872 0.908882 3.11303 0
M  V30 2212 H 228.657 2.66715 2.87412 0
M  V30 2213 H 230.147 2.04251 3.64241 0
M  V30 2214 N 230.584 -0.659388 1.43143 0
M  V30 2215 C 231.494 -1.80167 1.50256 0
M  V30 2216 C 232.51 -1.69571 0.390106 0
M  V30 2217 O 233.686 -1.90849 0.643319 0
M  V30 2218 C 230.751 -3.16409 1.41725 0
M  V30 2219 C 229.812 -3.38848 2.63591 0
M  V30 2220 C 229.045 -4.68591 2.55458 0
M  V30 2221 O 229.268 -5.47532 1.59891 0
M  V30 2222 O 228.202 -4.92614 3.45854 0
M  V30 2223 H 232.028 -1.77121 2.46702 0
M  V30 2224 H 229.613 -0.817092 1.25076 0
M  V30 2225 H 231.495 -3.9768 1.39387 0
M  V30 2226 H 230.17 -3.20059 0.484118 0
M  V30 2227 H 229.077 -2.57366 2.71502 0
M  V30 2228 H 230.41 -3.4004 3.55856 0
M  V30 2229 N 232.062 -1.29571 -0.897171 0
M  V30 2230 C 233.473 -1.15964 -1.46319 0
M  V30 2231 C 233.824 0.244267 -1.94674 0
M  V30 2232 O 232.949 1.13998 -1.83939 0
M  V30 2233 C 233.544 -2.09906 -2.65942 0
M  V30 2234 C 232.103 -2.00314 -3.18671 0
M  V30 2235 C 231.25 -2.00687 -1.91363 0
M  V30 2236 H 234.201 -1.42019 -0.708268 0
M  V30 2237 H 234.222 -1.67276 -3.41759 0
M  V30 2238 H 233.734 -3.12075 -2.30718 0
M  V30 2239 H 231.835 -1.01242 -3.58582 0
M  V30 2240 H 231.948 -2.88102 -3.82798 0
M  V30 2241 H 230.312 -1.45319 -2.09175 0
M  V30 2242 H 231.095 -3.04566 -1.58413 0
M  V30 2243 N 233.54 1.10788 -1.12088 0
M  V30 2244 C 234.786 1.82942 -0.875226 0
M  V30 2245 C 235.119 1.84779 0.597538 0
M  V30 2246 O 234.394 1.30578 1.44152 0
M  V30 2247 C 234.677 3.29789 -1.44606 0
M  V30 2248 C 234.53 3.36307 -2.98693 0
M  V30 2249 C 235.849 4.26064 -1.10261 0
M  V30 2250 H 232.968 0.664195 -0.319397 0
M  V30 2251 H 235.61 1.29867 -1.38689 0
M  V30 2252 H 233.76 3.75118 -1.01089 0
M  V30 2253 H 235.432 2.99487 -3.50864 0
M  V30 2254 H 233.675 2.76318 -3.34411 0
M  V30 2255 H 234.346 4.39694 -3.33726 0
M  V30 2256 H 236.822 3.88951 -1.4784 0
M  V30 2257 H 235.698 5.27183 -1.52869 0
M  V30 2258 H 235.959 4.42098 -0.0142953 0
M  V30 2259 N 235.018 0.912232 1.28515 0
M  V30 2260 C 236.266 0.543523 1.94654 0
M  V30 2261 C 236.587 -0.9155 1.72173 0
M  V30 2262 O 235.857 -1.64708 1.06058 0
M  V30 2263 H 234.437 0.198017 0.720277 0
M  V30 2264 H 237.099 1.16126 1.56527 0
M  V30 2265 H 236.195 0.736684 3.03281 0
M  V30 2266 N 236.496 -1.42363 0.676048 0
M  V30 2267 C 237.773 -1.95183 0.127726 0
M  V30 2268 C 238.153 -1.61641 -1.35777 0
M  V30 2269 O 237.501 -0.913216 -2.09458 0
M  V30 2270 C 237.711 -3.46721 0.398199 0
M  V30 2271 C 239.059 -4.23427 0.315383 0
M  V30 2272 O 240.083 -3.54649 0.332016 0
M  V30 2273 O 238.942 -5.45888 0.25865 0
M  V30 2274 H 236.036 -0.826992 0.00359427 0
M  V30 2275 H 238.582 -1.52184 0.750864 0
M  V30 2276 H 237.354 -3.64344 1.4272 0
M  V30 2277 H 236.977 -3.96769 -0.256885 0
M  V30 2278 N 237.974 -0.419461 -1.51915 0
M  V30 2279 C 238.937 0.389116 -2.25873 0
M  V30 2280 C 239.937 0.964924 -1.28631 0
M  V30 2281 O 241.127 0.842179 -1.52489 0
M  V30 2282 C 238.259 1.54874 -3.03689 0
M  V30 2283 H 239.452 -0.258799 -2.98781 0
M  V30 2284 H 237.005 -0.172209 -1.55348 0
M  V30 2285 H 237.74 2.23323 -2.35154 0
M  V30 2286 H 237.525 1.14223 -3.75094 0
M  V30 2287 H 239.015 2.12046 -3.59759 0
M  V30 2288 N 239.452 1.56882 -0.150215 0
M  V30 2289 C 240.399 2.16922 0.788244 0
M  V30 2290 C 241.369 1.10303 1.24187 0
M  V30 2291 O 242.554 1.38359 1.31383 0
M  V30 2292 C 239.694 2.79754 2.02068 0
M  V30 2293 C 238.807 4.00775 1.61257 0
M  V30 2294 C 237.942 4.51595 2.79705 0
M  V30 2295 C 236.981 5.65074 2.35282 0
M  V30 2296 N 236.118 6.10499 3.4675 0
M  V30 2297 H 240.958 2.96779 0.269444 0
M  V30 2298 H 238.495 1.46599 0.12128 0
M  V30 2299 H 240.453 3.14329 2.74323 0
M  V30 2300 H 239.083 2.02536 2.51354 0
M  V30 2301 H 238.135 3.72158 0.787553 0
M  V30 2302 H 239.447 4.82978 1.24633 0
M  V30 2303 H 238.601 4.88242 3.60145 0
M  V30 2304 H 237.34 3.68406 3.19576 0
M  V30 2305 H 236.345 5.28 1.53283 0
M  V30 2306 H 237.57 6.50052 1.96493 0
M  V30 2307 H 235.516 5.30243 3.86236 0
M  V30 2308 H 235.433 6.87637 3.14152 0
M  V30 2309 H 236.701 6.51791 4.27537 0
M  V30 2310 O 240.969 0.011717 1.61496 0
M  V30 2311 H 241.66 -0.603327 1.84064 0
M  V30 END ATOM
M  V30 BEGIN BOND
M  V30 END BOND
M  V30 END CTAB
M  END
$$$$
