drugbank_target|P30044 Peroxiredoxin-5, mitochondrial (DB00995; DB03608)
 OpenBabel12092119433D

  0  0  0     0  0            999 V3000
M  V30 BEGIN CTAB
M  V30 COUNTS 3136 3162 0 0 0
M  V30 BEGIN ATOM
M  V30 1 H -0.908 1.98254 -0.117106 0
M  V30 2 N 0 1.576 0 0
M  V30 3 C 0.933 2.03868 1.02534 0
M  V30 4 C 1.911 0.928543 1.3348 0
M  V30 5 O 3.095 1.19667 1.45644 0
M  V30 6 C 0.222 2.43627 2.35294 0
M  V30 7 C -0.732 3.65373 2.2001 0
M  V30 8 S 0.101 5.13292 1.52614 0
M  V30 9 C 1.257 5.56322 2.86805 0
M  V30 10 H 1.49 2.90518 0.631377 0
M  V30 11 H -0.977 1.52953 0.210867 0
M  V30 12 H 0.981 2.67203 3.11629 0
M  V30 13 H -0.358 1.57376 2.7183 0
M  V30 14 H -1.165 3.90944 3.18086 0
M  V30 15 H -1.563 3.418 1.51819 0
M  V30 16 H 0.729 5.58782 3.83104 0
M  V30 17 H 1.672 6.56266 2.65933 0
M  V30 18 H 2.08 4.83886 2.90714 0
M  V30 19 N 1.4781 -0.272755 1.55222 0
M  V30 20 C 2.7261 -1.00234 1.75492 0
M  V30 21 C 3.0471 -1.8681 0.5592 0
M  V30 22 O 2.3171 -1.91215 -0.425882 0
M  V30 23 H 0.8971 -0.373076 0.647166 0
M  V30 24 H 3.5591 -0.296926 1.92625 0
M  V30 25 H 2.6551 -1.63913 2.65592 0
M  V30 26 N 2.9562 -1.48159 -0.537278 0
M  V30 27 C 3.8862 -1.65029 -1.6519 0
M  V30 28 C 4.8672 -0.499281 -1.62607 0
M  V30 29 O 6.0522 -0.730972 -1.79918 0
M  V30 30 C 3.1822 -1.68303 -3.03795 0
M  V30 31 C 2.1362 -2.8283 -3.21234 0
M  V30 32 C 1.4622 -2.71189 -4.60826 0
M  V30 33 C 2.7622 -4.24211 -3.04701 0
M  V30 34 H 4.4562 -2.58341 -1.51328 0
M  V30 35 H 2.0022 -1.24325 -0.726585 0
M  V30 36 H 3.9552 -1.78693 -3.81637 0
M  V30 37 H 2.6792 -0.715635 -3.18663 0
M  V30 38 H 1.3382 -2.71983 -2.45807 0
M  V30 39 H 0.9862 -1.72435 -4.7252 0
M  V30 40 H 0.6862 -3.48035 -4.7344 0
M  V30 41 H 2.2102 -2.83537 -5.40777 0
M  V30 42 H 3.6242 -4.3593 -3.72341 0
M  V30 43 H 2.0212 -5.01998 -3.28813 0
M  V30 44 H 3.0912 -4.41184 -2.01209 0
M  V30 45 N 4.4343 0.785586 -1.36625 0
M  V30 46 C 5.3973 1.87999 -1.31107 0
M  V30 47 C 6.3973 1.59316 -0.217959 0
M  V30 48 O 7.5873 1.67656 -0.472977 0
M  V30 49 C 4.7193 3.24861 -1.03334 0
M  V30 50 H 5.9123 1.94307 -2.2844 0
M  V30 51 H 3.4653 0.983813 -1.21453 0
M  V30 52 H 4.2003 3.24235 -0.0647432 0
M  V30 53 H 3.9853 3.4707 -1.82441 0
M  V30 54 H 5.4753 4.04929 -1.02088 0
M  V30 55 N 5.9124 1.20967 1.01018 0
M  V30 56 C 7.1604 1.02172 1.74371 0
M  V30 57 C 7.4814 -0.446414 1.89821 0
M  V30 58 O 6.7514 -1.32234 1.44537 0
M  V30 59 H 5.3314 0.375066 0.646014 0
M  V30 60 H 7.9934 1.52187 1.21758 0
M  V30 61 H 7.0894 1.48538 2.74487 0
M  V30 62 N 7.3905 -1.2043 1.01659 0
M  V30 63 C 8.6365 -1.90079 0.706963 0
M  V30 64 C 8.9695 -1.78648 -0.761474 0
M  V30 65 O 8.2445 -1.17069 -1.55323 0
M  V30 66 C 8.5275 -3.41469 1.14327 0
M  V30 67 C 8.3805 -3.61833 2.67201 0
M  V30 68 C 9.6995 -4.34261 0.714529 0
M  V30 69 H 6.8185 -0.690254 0.2583 0
M  V30 70 H 9.4605 -1.41826 1.26433 0
M  V30 71 H 7.6105 -3.82696 0.669056 0
M  V30 72 H 9.2825 -3.2986 3.22475 0
M  V30 73 H 7.5255 -3.05304 3.08175 0
M  V30 74 H 8.1965 -4.67955 2.92783 0
M  V30 75 H 10.6725 -4.00682 1.12221 0
M  V30 76 H 9.5485 -5.38806 1.04784 0
M  V30 77 H 9.8095 -4.40431 -0.383799 0
M  V30 78 N 8.8686 -0.792821 -1.36206 0
M  V30 79 C 10.1086 -0.372238 -2.00982 0
M  V30 80 C 10.4726 1.03749 -1.61555 0
M  V30 81 O 11.6736 1.55934 -2.18948 0
M  V30 82 C 9.9446 -0.534566 -3.5338 0
M  V30 83 S 11.5036 -0.202365 -4.38333 0
M  V30 84 H 8.3216 -0.142044 -0.696667 0
M  V30 85 H 10.9236 -1.03206 -1.66039 0
M  V30 86 H 9.6276 -1.5608 -3.79562 0
M  V30 87 H 9.1586 0.141065 -3.93147 0
M  V30 88 H 11.1736 0.994869 -4.86124 0
M  V30 89 N 10.3467 1.47872 -0.545128 0
M  V30 90 C 11.3097 2.28337 0.198717 0
M  V30 91 C 12.3097 1.36255 0.853888 0
M  V30 92 O 13.4997 1.59003 0.711606 0
M  V30 93 C 10.6317 3.15585 1.28915 0
M  V30 94 H 11.8247 2.95567 -0.507941 0
M  V30 95 H 9.3777 1.53362 -0.301616 0
M  V30 96 H 10.1127 2.53019 2.02859 0
M  V30 97 H 9.8977 3.83337 0.824309 0
M  V30 98 H 11.3877 3.76243 1.81194 0
M  V30 99 N 11.8248 0.280983 1.55075 0
M  V30 100 C 12.7548 -0.597469 2.25727 0
M  V30 101 C 13.7358 -1.15417 1.24952 0
M  V30 102 O 14.9208 -1.18722 1.53684 0
M  V30 103 C 12.0508 -1.7789 2.98283 0
M  V30 104 C 11.0048 -1.35347 4.06036 0
M  V30 105 C 10.3308 -2.61846 4.66198 0
M  V30 106 C 11.6308 -0.499354 5.19907 0
M  V30 107 H 13.3248 -0.00824265 2.99399 0
M  V30 108 H 10.8708 -0.0025244 1.44 0
M  V30 109 H 12.8238 -2.39937 3.46422 0
M  V30 110 H 11.5478 -2.39405 2.22155 0
M  V30 111 H 10.2068 -0.756156 3.58717 0
M  V30 112 H 9.8548 -3.21632 3.86732 0
M  V30 113 H 9.5548 -2.3409 5.38958 0
M  V30 114 H 11.0788 -3.24732 5.1709 0
M  V30 115 H 12.4928 -1.02498 5.64063 0
M  V30 116 H 10.8898 -0.316424 5.99265 0
M  V30 117 H 11.9598 0.480459 4.82514 0
M  V30 118 N 13.3029 -1.57598 0.00835791 0
M  V30 119 C 14.7189 -1.55764 -0.347822 0
M  V30 120 C 14.9189 -1.01186 -1.74252 0
M  V30 121 O 13.9749 -0.649371 -2.44007 0
M  V30 122 C 15.2879 -2.99927 -0.215407 0
M  V30 123 C 16.8359 -3.11656 -0.289725 0
M  V30 124 C 17.3109 -4.57621 -0.18634 0
M  V30 125 N 18.8019 -4.62557 -0.243978 0
M  V30 126 C 19.5369 -5.73094 -0.18745 0
M  V30 127 N 19.0329 -6.92753 -0.0810331 0
M  V30 128 N 20.8259 -5.61588 -0.239925 0
M  V30 129 H 12.9769 -1.91411 0.92062 0
M  V30 130 H 15.2399 -0.879562 0.353659 0
M  V30 131 H 14.9459 -3.43729 0.744512 0
M  V30 132 H 14.8199 -3.63865 -0.994097 0
M  V30 133 H 17.2069 -2.67779 -1.24009 0
M  V30 134 H 17.2879 -2.5048 0.51898 0
M  V30 135 H 16.9319 -5.02174 0.760519 0
M  V30 136 H 16.8619 -5.16752 -1.01364 0
M  V30 137 H 19.3529 -3.76481 -0.327217 0
M  V30 138 H 19.6659 -7.72787 -0.0440241 0
M  V30 139 H 18.0109 -6.94984 -0.0465419 0
M  V30 140 H 21.2019 -4.66996 -0.321317 0
M  V30 141 H 21.3749 -6.47714 -0.192407 0
M  V30 142 N 14.781 0.264519 -1.55364 0
M  V30 143 C 16.197 0.61215 -1.47394 0
M  V30 144 C 16.397 1.89134 -0.695018 0
M  V30 145 O 15.453 2.51563 -0.217275 0
M  V30 146 C 16.766 0.731235 -2.91674 0
M  V30 147 C 18.314 0.82473 -3.01939 0
M  V30 148 C 18.789 0.975522 -4.4749 0
M  V30 149 N 20.28 1.04083 -4.51354 0
M  V30 150 C 21.015 1.17646 -5.61201 0
M  V30 151 N 20.511 1.27874 -6.80896 0
M  V30 152 N 22.304 1.20823 -5.48961 0
M  V30 153 H 14.455 -0.575456 -2.04456 0
M  V30 154 H 16.718 -0.196099 -0.927496 0
M  V30 155 H 16.424 -0.138392 -3.51428 0
M  V30 156 H 16.298 1.60883 -3.41169 0
M  V30 157 H 18.685 1.68482 -2.42276 0
M  V30 158 H 18.766 -0.0776479 -2.55682 0
M  V30 159 H 18.41 0.120058 -5.07758 0
M  V30 160 H 18.34 1.89268 -4.91412 0
M  V30 161 H 20.831 0.973846 -3.65136 0
M  V30 162 H 21.144 1.38081 -7.60364 0
M  V30 163 H 19.489 1.24863 -6.83692 0
M  V30 164 H 22.68 1.12469 -4.54388 0
M  V30 165 H 22.853 1.31049 -6.3461 0
M  V30 166 N 16.2591 1.48442 0.529413 0
M  V30 167 C 17.4841 1.60406 1.31471 0
M  V30 168 C 17.9091 0.264738 1.86228 0
M  V30 169 O 17.2671 -0.763668 1.64432 0
M  V30 170 C 17.3151 2.65419 2.44101 0
M  V30 171 O 16.4191 2.22618 3.47153 0
M  V30 172 H 15.7601 0.537863 0.389357 0
M  V30 173 H 18.2901 1.94432 0.636965 0
M  V30 174 H 18.3001 2.86709 2.90279 0
M  V30 175 H 16.9751 3.62652 2.03608 0
M  V30 176 H 15.5521 2.11543 3.0709 0
M  V30 177 N 17.7372 -0.778329 1.37039 0
M  V30 178 C 18.7002 -1.87301 1.32102 0
M  V30 179 C 19.7002 -1.59198 0.226405 0
M  V30 180 O 20.8902 -1.67403 0.481861 0
M  V30 181 C 18.0222 -3.24309 1.05055 0
M  V30 182 H 19.2152 -1.93093 2.29467 0
M  V30 183 H 16.7682 -0.977358 1.21973 0
M  V30 184 H 17.5032 -3.24196 0.0819373 0
M  V30 185 H 17.2882 -3.46098 1.84279 0
M  V30 186 H 18.7782 -4.04382 1.04234 0
M  V30 187 N 19.2153 -1.21501 -1.00376 0
M  V30 188 C 20.4633 -1.03095 -1.73827 0
M  V30 189 C 20.7843 0.436341 -1.90055 0
M  V30 190 O 20.0543 1.31466 -1.45236 0
M  V30 191 H 18.6343 -0.378487 -0.644016 0
M  V30 192 H 21.2963 -1.52831 -1.20949 0
M  V30 193 H 20.3923 -1.49991 -2.73695 0
M  V30 194 N 20.6934 1.19889 -1.02296 0
M  V30 195 C 21.9234 1.93109 -0.734332 0
M  V30 196 C 22.3314 1.75377 0.709889 0
M  V30 197 O 21.6744 1.06912 1.49384 0
M  V30 198 C 21.7364 3.45362 -0.99827 0
M  V30 199 C 21.4004 3.8686 -2.43287 0
M  V30 200 C 22.3974 3.92102 -3.41397 0
M  V30 201 C 20.0824 4.18668 -2.77529 0
M  V30 202 C 22.0764 4.28573 -4.71809 0
M  V30 203 C 19.7634 4.54813 -4.08153 0
M  V30 204 C 20.7614 4.59739 -5.05103 0
M  V30 205 O 20.4494 4.95051 -6.33388 0
M  V30 206 H 20.1814 0.620409 -0.268456 0
M  V30 207 H 22.7354 1.53144 -1.3688 0
M  V30 208 H 20.9654 3.85482 -0.306645 0
M  V30 209 H 22.6544 3.99814 -0.700234 0
M  V30 210 H 23.4204 3.67685 -3.1628 0
M  V30 211 H 19.2994 4.14021 -2.0275 0
M  V30 212 H 22.8434 4.32333 -5.4748 0
M  V30 213 H 18.7404 4.78687 -4.33047 0
M  V30 214 H 19.5084 5.1302 -6.37772 0
M  V30 215 N 22.1715 0.800033 1.35784 0
M  V30 216 C 23.4205 0.37387 1.98205 0
M  V30 217 C 23.7335 -1.06302 1.64193 0
M  V30 218 O 24.9395 -1.59198 2.19928 0
M  V30 219 C 23.3955 0.617532 3.54562 0
M  V30 220 C 23.0035 2.06654 3.9749 0
M  V30 221 C 24.7475 0.256401 4.23725 0
M  V30 222 C 22.6545 2.2563 5.46667 0
M  V30 223 H 21.5845 0.136055 0.741623 0
M  V30 224 H 24.2355 0.983166 1.54939 0
M  V30 225 H 22.6175 -0.0616248 3.95952 0
M  V30 226 H 23.7915 2.78296 3.67271 0
M  V30 227 H 22.1065 2.38691 3.41197 0
M  V30 228 H 24.7035 0.376318 5.33374 0
M  V30 229 H 25.0465 -0.796692 4.08606 0
M  V30 230 H 25.5795 0.889214 3.87734 0
M  V30 231 H 22.3185 3.2936 5.66747 0
M  V30 232 H 21.8385 1.58504 5.78478 0
M  V30 233 H 23.5175 2.06861 6.1304 0
M  V30 234 N 23.6496 -1.47581 0.552962 0
M  V30 235 C 24.5796 -2.32762 -0.185451 0
M  V30 236 C 25.5606 -1.43527 -0.912905 0
M  V30 237 O 26.7456 -1.72388 -0.894201 0
M  V30 238 C 23.8756 -3.25219 -1.21859 0
M  V30 239 C 22.8296 -4.23661 -0.607864 0
M  V30 240 C 22.1556 -5.05413 -1.74533 0
M  V30 241 C 23.4556 -5.20481 0.435582 0
M  V30 242 H 25.1496 -2.94749 0.525684 0
M  V30 243 H 22.6956 -1.41738 0.254251 0
M  V30 244 H 24.6486 -3.8365 -1.7433 0
M  V30 245 H 23.3726 -2.61279 -1.95961 0
M  V30 246 H 22.0316 -3.66451 -0.104489 0
M  V30 247 H 21.6796 -4.3788 -2.47529 0
M  V30 248 H 21.3796 -5.72059 -1.34249 0
M  V30 249 H 22.9036 -5.66701 -2.27338 0
M  V30 250 H 24.3176 -5.733 -0.00290157 0
M  V30 251 H 22.7146 -5.95305 0.757067 0
M  V30 252 H 23.7846 -4.66217 1.33303 0
M  V30 253 N 25.1277 -0.289203 -1.54924 0
M  V30 254 C 26.3737 0.323998 -2.00195 0
M  V30 255 C 26.7067 1.54441 -1.17735 0
M  V30 256 O 25.9817 1.92875 -0.250878 0
M  V30 257 C 26.2647 0.692276 -3.53383 0
M  V30 258 C 26.1177 -0.536457 -4.46589 0
M  V30 259 C 27.4367 1.52335 -4.12895 0
M  V30 260 H 24.5557 0.116289 -0.727768 0
M  V30 261 H 27.1977 -0.398954 -1.85764 0
M  V30 262 H 25.3477 1.30822 -3.65811 0
M  V30 263 H 27.0197 -1.17499 -4.46085 0
M  V30 264 H 25.2627 -1.17192 -4.1767 0
M  V30 265 H 25.9337 -0.234806 -5.515 0
M  V30 266 H 28.4097 1.00302 -4.0383 0
M  V30 267 H 27.2857 1.74982 -5.20262 0
M  V30 268 H 27.5467 2.50886 -3.64018 0
M  V30 269 N 26.6058 1.57591 -0.0167156 0
M  V30 270 C 27.8538 1.90906 0.663285 0
M  V30 271 C 28.1748 0.892509 1.73376 0
M  V30 272 O 27.4448 -0.0677623 1.95783 0
M  V30 273 H 26.0248 0.704637 0.247983 0
M  V30 274 H 28.6868 1.94803 -0.0615909 0
M  V30 275 H 27.7828 2.9116 1.12393 0
M  V30 276 N 28.0839 -0.256276 1.55502 0
M  V30 277 C 29.3319 -0.983672 1.76545 0
M  V30 278 C 29.6529 -1.86206 0.578982 0
M  V30 279 O 28.9229 -1.91656 -0.405577 0
M  V30 280 H 27.5029 -0.366191 0.651086 0
M  V30 281 H 30.1649 -0.276479 1.92929 0
M  V30 282 H 29.2609 -1.61087 2.67315 0
M  V30 283 N 29.562 -1.4872 -0.521534 0
M  V30 284 C 30.525 -1.63379 -1.60748 0
M  V30 285 C 31.525 -0.50661 -1.52611 0
M  V30 286 O 32.715 -0.772601 -1.5613 0
M  V30 287 C 29.847 -1.61192 -3.00383 0
M  V30 288 H 31.04 -2.60217 -1.49087 0
M  V30 289 H 28.593 -1.37444 -0.744235 0
M  V30 290 H 29.328 -0.65863 -3.17541 0
M  V30 291 H 29.113 -2.43032 -3.07698 0
M  V30 292 H 30.603 -1.7466 -3.7932 0
M  V30 293 N 31.0401 0.771051 -1.3745 0
M  V30 294 C 32.2881 1.52661 -1.32435 0
M  V30 295 C 32.6091 1.9479 0.0905024 0
M  V30 296 O 31.8791 1.66348 1.03466 0
M  V30 297 H 30.4591 0.566218 -0.487244 0
M  V30 298 H 33.1211 0.917636 -1.71946 0
M  V30 299 H 32.2171 2.42568 -1.96385 0
M  V30 300 N 32.5182 1.22032 0.997298 0
M  V30 301 C 33.7662 1.04016 1.73278 0
M  V30 302 C 34.0872 -0.426255 1.90284 0
M  V30 303 O 33.3572 -1.30694 1.45931 0
M  V30 304 H 31.9372 0.381897 0.642 0
M  V30 305 H 34.5992 1.5347 1.20137 0
M  V30 306 H 33.6952 1.51441 2.72896 0
M  V30 307 N 33.9963 -1.19345 1.0293 0
M  V30 308 C 34.9283 -2.22036 0.56857 0
M  V30 309 C 35.9413 -1.58865 -0.355779 0
M  V30 310 O 37.1303 -1.77851 -0.152103 0
M  V30 311 C 34.2303 -3.38363 -0.190752 0
M  V30 312 C 33.4033 -4.31118 0.738643 0
M  V30 313 C 32.4623 -5.26194 0.0246497 0
M  V30 314 O 31.4883 -5.65461 0.651354 0
M  V30 315 N 32.6903 -5.66971 -1.24594 0
M  V30 316 H 35.4553 -2.6219 1.45177 0
M  V30 317 H 33.0163 -1.34015 0.908381 0
M  V30 318 H 35.0083 -3.98981 -0.677961 0
M  V30 319 H 33.5783 -2.96994 -0.975366 0
M  V30 320 H 32.7983 -3.68276 1.40593 0
M  V30 321 H 34.0863 -4.90001 1.37029 0
M  V30 322 H 33.4843 -5.37104 -1.77583 0
M  V30 323 H 32.0413 -6.2984 -1.67764 0
M  V30 324 N 35.4744 -0.807222 -1.35358 0
M  V30 325 C 36.6994 -0.399309 -2.0352 0
M  V30 326 C 37.1244 0.981986 -1.60433 0
M  V30 327 O 36.4824 1.63601 -0.781299 0
M  V30 328 C 36.5304 -0.491552 -3.57234 0
M  V30 329 O 35.6344 0.494754 -4.09421 0
M  V30 330 H 34.9754 -0.166682 -0.642739 0
M  V30 331 H 37.5054 -1.09328 -1.72941 0
M  V30 332 H 37.5154 -0.361588 -4.06395 0
M  V30 333 H 36.1904 -1.49907 -3.87944 0
M  V30 334 H 34.7674 0.324977 -3.71481 0
M  V30 335 N 36.9525 1.47285 -0.560781 0
M  V30 336 C 37.9155 2.28535 0.174488 0
M  V30 337 C 38.9155 1.37153 0.839388 0
M  V30 338 O 40.1055 1.59748 0.694702 0
M  V30 339 C 37.2375 3.16934 1.25561 0
M  V30 340 H 38.4305 2.95012 -0.539262 0
M  V30 341 H 35.9835 1.53034 -0.317865 0
M  V30 342 H 36.7185 2.55157 2.00164 0
M  V30 343 H 36.5035 3.8419 0.783604 0
M  V30 344 H 37.9935 3.78143 1.77193 0
M  V30 345 N 38.4306 0.297415 1.54768 0
M  V30 346 C 39.3936 -0.567375 2.22066 0
M  V30 347 C 40.3936 -1.06409 1.20556 0
M  V30 348 O 41.5836 -0.960691 1.45315 0
M  V30 349 C 38.7156 -1.78517 2.90421 0
M  V30 350 H 39.9086 0.0205534 2.99893 0
M  V30 351 H 37.4616 0.0482163 1.56226 0
M  V30 352 H 38.1966 -2.41303 2.16664 0
M  V30 353 H 37.9816 -1.43669 3.64831 0
M  V30 354 H 39.4716 -2.39964 3.41771 0
M  V30 355 N 39.9087 -1.5758 0.0250728 0
M  V30 356 C 40.8717 -2.08896 -0.943139 0
M  V30 357 C 41.8717 -1.00321 -1.25668 0
M  V30 358 O 43.0617 -1.26495 -1.19769 0
M  V30 359 C 40.1937 -2.55143 -2.26086 0
M  V30 360 H 41.3867 -2.95723 -0.498775 0
M  V30 361 H 38.9397 -1.54703 -0.222888 0
M  V30 362 H 39.6747 -1.71633 -2.75159 0
M  V30 363 H 39.4597 -3.34461 -2.04641 0
M  V30 364 H 40.9497 -2.95083 -2.95492 0
M  V30 365 N 41.3868 0.248026 -1.55636 0
M  V30 366 C 42.3498 1.29044 -1.89421 0
M  V30 367 C 43.3498 1.41134 -0.770581 0
M  V30 368 O 44.5398 1.39854 -1.03858 0
M  V30 369 C 41.6718 2.66831 -2.12165 0
M  V30 370 H 42.8648 1.00305 -2.82629 0
M  V30 371 H 40.4178 0.487265 -1.48511 0
M  V30 372 H 41.1528 3.00711 -1.21422 0
M  V30 373 H 40.9378 2.59438 -2.93997 0
M  V30 374 H 42.4278 3.42103 -2.3949 0
M  V30 375 N 42.8649 1.48995 0.513639 0
M  V30 376 C 43.8279 1.64229 1.59879 0
M  V30 377 C 44.8279 0.514696 1.5234 0
M  V30 378 O 46.0179 0.78087 1.55718 0
M  V30 379 C 43.1499 1.62783 2.99524 0
M  V30 380 H 44.3429 2.61004 1.47705 0
M  V30 381 H 41.8959 1.37837 0.736936 0
M  V30 382 H 42.6309 0.675461 3.17188 0
M  V30 383 H 42.4159 2.4466 3.06404 0
M  V30 384 H 43.9059 1.76669 3.78388 0
M  V30 385 N 44.343 -0.763751 1.37857 0
M  V30 386 C 45.759 -1.06542 1.18832 0
M  V30 387 C 45.959 -2.01478 0.0299722 0
M  V30 388 O 45.015 -2.4458 -0.627447 0
M  V30 389 C 46.328 -1.65525 2.51042 0
M  V30 390 C 47.876 -1.77745 2.57635 0
M  V30 391 C 48.351 -2.4014 3.89996 0
M  V30 392 N 49.842 -2.47582 3.91481 0
M  V30 393 C 50.577 -2.96732 4.9065 0
M  V30 394 N 50.073 -3.45993 6.00217 0
M  V30 395 N 51.866 -2.95679 4.78048 0
M  V30 396 H 44.017 -0.133556 2.1198 0
M  V30 397 H 46.28 -0.121879 0.940133 0
M  V30 398 H 45.986 -1.03236 3.36207 0
M  V30 399 H 45.86 -2.64719 2.68707 0
M  V30 400 H 48.247 -2.39164 1.72872 0
M  V30 401 H 48.328 -0.772836 2.43846 0
M  V30 402 H 47.972 -1.79358 4.75177 0
M  V30 403 H 47.902 -3.41223 4.01092 0
M  V30 404 H 50.393 -2.1273 3.12337 0
M  V30 405 H 50.706 -3.81922 6.7183 0
M  V30 406 H 49.051 -3.44077 6.03851 0
M  V30 407 H 52.242 -2.56499 3.91568 0
M  V30 408 H 52.415 -3.33672 5.55488 0
M  V30 409 N 45.8211 -1.22559 -0.990812 0
M  V30 410 C 47.2371 -0.985996 -1.255 0
M  V30 411 C 47.4371 0.319173 -1.98956 0
M  V30 412 O 46.4931 1.04127 -2.3003 0
M  V30 413 C 47.8061 -2.18607 -2.06474 0
M  V30 414 C 49.3541 -2.22985 -2.19651 0
M  V30 415 C 49.8291 -3.4255 -3.04012 0
M  V30 416 N 51.3201 -3.42725 -3.11599 0
M  V30 417 C 52.0551 -4.31892 -3.7717 0
M  V30 418 N 51.5511 -5.31279 -4.44651 0
M  V30 419 N 53.3441 -4.19662 -3.73952 0
M  V30 420 H 45.4951 -2.06469 -0.49841 0
M  V30 421 H 47.7581 -0.904853 -0.282747 0
M  V30 422 H 47.4641 -3.13267 -1.59865 0
M  V30 423 H 47.3381 -2.18838 -3.07229 0
M  V30 424 H 49.7251 -1.28871 -2.65474 0
M  V30 425 H 49.8061 -2.26791 -1.18319 0
M  V30 426 H 49.4501 -4.36965 -2.58889 0
M  V30 427 H 49.3801 -3.35984 -4.0549 0
M  V30 428 H 51.8711 -2.70807 -2.63575 0
M  V30 429 H 52.1841 -5.95593 -4.92431 0
M  V30 430 H 50.5291 -5.3519 -4.43392 0
M  V30 431 H 53.7201 -3.41268 -3.20396 0
M  V30 432 H 53.8931 -4.89358 -4.24774 0
M  V30 433 N 47.2992 1.18797 -1.03562 0
M  V30 434 C 48.5292 1.92319 -0.754773 0
M  V30 435 C 48.9372 1.7612 0.691248 0
M  V30 436 O 48.2802 1.08491 1.48241 0
M  V30 437 C 48.3422 3.44284 -1.03484 0
M  V30 438 C 48.0062 3.84258 -2.47376 0
M  V30 439 C 49.0032 3.88459 -3.45537 0
M  V30 440 C 46.6882 4.15701 -2.81954 0
M  V30 441 C 48.6822 4.23545 -4.76328 0
M  V30 442 C 46.3692 4.50458 -4.12954 0
M  V30 443 C 47.3672 4.54356 -5.09951 0
M  V30 444 O 47.0552 4.88305 -6.38603 0
M  V30 445 H 46.7872 0.617527 -0.275021 0
M  V30 446 H 49.3412 1.51683 -1.38497 0
M  V30 447 H 47.5712 3.85135 -0.347513 0
M  V30 448 H 49.2602 3.99049 -0.7426 0
M  V30 449 H 50.0262 3.6431 -3.20162 0
M  V30 450 H 45.9052 4.11847 -2.0713 0
M  V30 451 H 49.4492 4.26502 -5.52035 0
M  V30 452 H 45.3462 4.74067 -4.38099 0
M  V30 453 H 46.1142 5.06227 -6.43177 0
M  V30 454 N 48.7773 0.814389 1.34928 0
M  V30 455 C 50.0023 0.410097 2.03305 0
M  V30 456 C 50.4273 -0.973464 1.60951 0
M  V30 457 O 49.7853 -1.63185 0.789964 0
M  V30 458 C 49.8333 0.51049 3.56968 0
M  V30 459 O 48.9373 -0.473035 4.09678 0
M  V30 460 H 48.2783 0.170088 0.641846 0
M  V30 461 H 50.8083 1.10244 1.72358 0
M  V30 462 H 50.8183 0.383135 4.06197 0
M  V30 463 H 49.4933 1.51963 3.87144 0
M  V30 464 H 48.0703 -0.305272 3.71648 0
M  V30 465 N 50.2554 -1.46986 0.568584 0
M  V30 466 C 51.1654 -2.33942 -0.17555 0
M  V30 467 C 52.1814 -1.48891 -0.90041 0
M  V30 468 O 53.3574 -1.81794 -0.86676 0
M  V30 469 C 50.4224 -3.25811 -1.18524 0
M  V30 470 C 49.4834 -4.26757 -0.466582 0
M  V30 471 C 48.7164 -5.14236 -1.42817 0
M  V30 472 O 48.9394 -5.04379 -2.66379 0
M  V30 473 O 47.8734 -5.94412 -0.946453 0
M  V30 474 H 51.6994 -2.98896 0.538036 0
M  V30 475 H 49.2844 -1.4573 0.329097 0
M  V30 476 H 51.1664 -3.82527 -1.76779 0
M  V30 477 H 49.8414 -2.63471 -1.88055 0
M  V30 478 H 48.7484 -3.73769 0.157451 0
M  V30 479 H 50.0814 -4.91843 0.187485 0
M  V30 480 N 51.7335 -0.305618 -1.54608 0
M  V30 481 C 52.9815 0.301701 -1.99835 0
M  V30 482 C 53.3025 1.54054 -1.19551 0
M  V30 483 O 52.5725 1.93702 -0.292658 0
M  V30 484 H 51.1525 0.114468 -0.738178 0
M  V30 485 H 53.8145 -0.418016 -1.90364 0
M  V30 486 H 52.9105 0.570548 -3.06841 0
M  V30 487 N 53.2116 1.57565 -0.0334293 0
M  V30 488 C 54.1216 2.13943 0.962572 0
M  V30 489 C 55.1376 1.09276 1.35406 0
M  V30 490 O 56.3136 1.41355 1.4346 0
M  V30 491 C 53.3786 2.65887 2.22497 0
M  V30 492 C 52.4396 3.85286 1.8935 0
M  V30 493 C 51.6726 4.34743 3.09571 0
M  V30 494 O 51.8956 3.83352 4.22371 0
M  V30 495 O 50.8296 5.26538 2.91618 0
M  V30 496 H 54.6556 2.99333 0.513169 0
M  V30 497 H 52.2406 1.4822 0.18743 0
M  V30 498 H 54.1226 2.99346 2.96598 0
M  V30 499 H 52.7976 1.83578 2.6661 0
M  V30 500 H 51.7046 3.56746 1.1262 0
M  V30 501 H 53.0376 4.68771 1.5005 0
M  V30 502 N 54.6897 -0.239769 1.55765 0
M  V30 503 C 55.9357 -0.963942 1.79108 0
M  V30 504 C 56.2907 -1.82689 0.60352 0
M  V30 505 O 55.5837 -1.87313 -0.403033 0
M  V30 506 C 55.7777 -1.852 3.05672 0
M  V30 507 C 55.6067 -1.07651 4.36625 0
M  V30 508 C 54.3767 -0.778738 4.99263 0
M  V30 509 C 56.5747 -0.45062 5.12322 0
M  V30 510 N 54.5567 0.0200708 6.13897 0
M  V30 511 C 55.9277 0.212429 6.19636 0
M  V30 512 C 57.9827 -0.361806 4.96584 0
M  V30 513 C 56.6857 0.955772 7.12922 0
M  V30 514 C 58.7117 0.368023 5.90254 0
M  V30 515 C 58.0737 1.01968 6.96981 0
M  V30 516 H 54.1727 -0.333601 0.707272 0
M  V30 517 H 56.7567 -0.236425 1.93259 0
M  V30 518 H 54.9277 -2.55149 2.92837 0
M  V30 519 H 56.6597 -2.51228 3.1728 0
M  V30 520 H 53.4147 -1.09229 4.60832 0
M  V30 521 H 53.8387 0.407777 6.75771 0
M  V30 522 H 58.4807 -0.851286 4.14141 0
M  V30 523 H 56.1987 1.45683 7.9486 0
M  V30 524 H 59.7847 0.437504 5.80153 0
M  V30 525 H 58.6647 1.5754 7.68213 0
M  V30 526 N 56.1678 -1.49265 -0.50573 0
M  V30 527 C 57.1308 -1.65075 -1.59006 0
M  V30 528 C 58.1308 -0.522768 -1.52065 0
M  V30 529 O 59.3208 -0.789117 -1.55302 0
M  V30 530 C 56.4528 -1.64369 -2.98656 0
M  V30 531 H 57.6458 -2.61784 -1.46319 0
M  V30 532 H 55.1988 -1.38226 -0.729616 0
M  V30 533 H 55.9338 -0.692272 -3.16825 0
M  V30 534 H 55.7188 -2.46282 -3.05103 0
M  V30 535 H 57.2088 -1.78674 -3.77446 0
M  V30 536 N 57.6459 0.756429 -1.3826 0
M  V30 537 C 58.8709 1.55077 -1.37717 0
M  V30 538 C 59.2959 1.88073 0.03164 0
M  V30 539 O 58.6539 1.50364 1.01293 0
M  V30 540 C 58.7019 2.8283 -2.23695 0
M  V30 541 O 57.8059 3.77862 -1.6521 0
M  V30 542 H 57.1469 0.469152 -0.469885 0
M  V30 543 H 59.6769 0.935019 -1.81985 0
M  V30 544 H 59.6869 3.31783 -2.37453 0
M  V30 545 H 58.3619 2.58144 -3.2609 0
M  V30 546 H 56.9389 3.36555 -1.60578 0
M  V30 547 N 59.124 1.23083 0.984299 0
M  V30 548 C 60.372 1.05848 1.72165 0
M  V30 549 C 60.693 -0.406049 1.90726 0
M  V30 550 O 59.963 -1.29139 1.47309 0
M  V30 551 H 58.543 0.388685 0.637913 0
M  V30 552 H 61.205 1.54736 1.18503 0
M  V30 553 H 60.301 1.54327 2.71274 0
M  V30 554 N 60.6021 -1.18246 1.0419 0
M  V30 555 C 61.8501 -1.87886 0.744543 0
M  V30 556 C 62.1711 -1.8082 -0.730006 0
M  V30 557 O 61.4411 -1.22736 -1.52685 0
M  V30 558 H 60.0211 -0.695556 0.272417 0
M  V30 559 H 62.6831 -1.43494 1.31892 0
M  V30 560 H 61.7791 -2.9389 1.05049 0
M  V30 561 N 62.0802 -0.821533 -1.34494 0
M  V30 562 C 63.3262 -0.409552 -1.98622 0
M  V30 563 C 63.6592 1.0244 -1.64984 0
M  V30 564 O 62.9342 1.71325 -0.920758 0
M  V30 565 C 63.2172 -0.610458 -3.54888 0
M  V30 566 C 63.0702 -2.09043 -3.98273 0
M  V30 567 C 64.3892 -0.0455379 -4.40076 0
M  V30 568 H 61.5082 -0.15028 -0.721516 0
M  V30 569 H 64.1502 -1.03384 -1.59411 0
M  V30 570 H 62.3002 -0.079044 -3.8842 0
M  V30 571 H 63.9722 -2.68537 -3.75081 0
M  V30 572 H 62.2152 -2.58139 -3.48635 0
M  V30 573 H 62.8862 -2.18182 -5.07051 0
M  V30 574 H 65.3622 -0.499557 -4.1309 0
M  V30 575 H 64.2382 -0.215922 -5.48475 0
M  V30 576 H 64.4992 1.04939 -4.29465 0
M  V30 577 N 63.5583 1.46682 -0.576371 0
M  V30 578 C 64.9743 1.57822 -0.237562 0
M  V30 579 C 65.1743 1.57237 1.26011 0
M  V30 580 O 64.2303 1.48596 2.04146 0
M  V30 581 C 65.5433 2.87499 -0.881168 0
M  V30 582 C 67.0913 3.01119 -0.85417 0
M  V30 583 C 67.5663 4.33524 -1.4772 0
M  V30 584 N 69.0573 4.40207 -1.44125 0
M  V30 585 C 69.7923 5.4126 -1.89276 0
M  V30 586 N 69.2883 6.49021 -2.42371 0
M  V30 587 N 71.0813 5.32422 -1.80231 0
M  V30 588 H 63.2323 1.45306 -1.54919 0
M  V30 589 H 65.4953 0.692733 -0.647167 0
M  V30 590 H 65.2013 2.9372 -1.93447 0
M  V30 591 H 65.0753 3.75224 -0.385592 0
M  V30 592 H 67.4623 2.94485 0.190491 0
M  V30 593 H 67.5433 2.14887 -1.3877 0
M  V30 594 H 67.1873 4.40916 -2.52103 0
M  V30 595 H 67.1173 5.1852 -0.918947 0
M  V30 596 H 69.6083 3.62931 -1.05307 0
M  V30 597 H 69.9213 7.2233 -2.74698 0
M  V30 598 H 68.2663 6.49858 -2.46393 0
M  V30 599 H 71.4573 4.47137 -1.38514 0
M  V30 600 H 71.6303 6.11034 -2.15735 0
M  V30 601 N 65.0364 0.313813 1.54444 0
M  V30 602 C 66.2614 -0.296681 2.05267 0
M  V30 603 C 66.6864 -1.45757 1.18897 0
M  V30 604 O 66.0444 -1.80239 0.195886 0
M  V30 605 C 66.0924 -0.71831 3.53373 0
M  V30 606 O 65.1964 -1.82175 3.69981 0
M  V30 607 H 64.5374 -0.0554061 0.661684 0
M  V30 608 H 67.0674 0.459387 1.99376 0
M  V30 609 H 67.0774 -1.00364 3.95463 0
M  V30 610 H 65.7524 0.130821 4.15694 0
M  V30 611 H 64.3294 -1.53598 3.39797 0
M  V30 612 N 66.5145 -1.57545 0.0417849 0
M  V30 613 C 67.7615 -1.92317 -0.634082 0
M  V30 614 C 68.0895 -0.919334 -1.71402 0
M  V30 615 O 67.3445 0.0698253 -1.95575 0
M  V30 616 C 67.6435 -3.33794 -1.27735 0
M  V30 617 C 67.3095 -4.49716 -0.326543 0
M  V30 618 C 65.9715 -4.81156 -0.0648814 0
M  V30 619 C 68.3235 -5.20182 0.325623 0
M  V30 620 C 65.6515 -5.80414 0.856539 0
M  V30 621 C 68.0035 -6.20424 1.23518 0
M  V30 622 C 66.6675 -6.50298 1.5056 0
M  V30 623 H 65.9375 -0.703736 -0.232027 0
M  V30 624 H 68.5845 -1.91205 0.106259 0
M  V30 625 H 66.8895 -3.31228 -2.09274 0
M  V30 626 H 68.5865 -3.57975 -1.80707 0
M  V30 627 H 65.1765 -4.25176 -0.540665 0
M  V30 628 H 69.3605 -4.96112 0.136546 0
M  V30 629 H 64.6165 -6.019 1.07363 0
M  V30 630 H 68.7905 -6.74141 1.74664 0
M  V30 631 H 66.4175 -7.27025 2.22123 0
M  V30 632 N 67.9926 0.231505 -1.5589 0
M  V30 633 C 69.2176 0.978689 -1.82856 0
M  V30 634 C 69.6426 1.77559 -0.620846 0
M  V30 635 O 69.0006 1.76119 0.430305 0
M  V30 636 C 69.0486 1.87997 -3.07716 0
M  V30 637 O 68.1526 2.97393 -2.85712 0
M  V30 638 H 67.4936 0.277663 -0.603158 0
M  V30 639 H 70.0236 0.24783 -2.03093 0
M  V30 640 H 70.0336 2.2917 -3.37558 0
M  V30 641 H 68.7086 1.29417 -3.95252 0
M  V30 642 H 67.2856 2.60238 -2.67078 0
M  V30 643 N 69.4707 1.49531 0.497807 0
M  V30 644 C 70.8867 1.36365 0.829266 0
M  V30 645 C 71.0867 0.399184 1.97506 0
M  V30 646 O 70.1427 -0.167977 2.51941 0
M  V30 647 C 71.4557 2.77153 1.16647 0
M  V30 648 C 73.0037 2.85877 1.27449 0
M  V30 649 C 73.4787 4.2744 1.64497 0
M  V30 650 N 74.9697 4.30265 1.7154 0
M  V30 651 C 75.7047 5.3677 2.01656 0
M  V30 652 N 75.2007 6.53516 2.29976 0
M  V30 653 N 76.9937 5.24189 2.02934 0
M  V30 654 H 69.1447 2.10831 -0.257703 0
M  V30 655 H 71.4077 0.946534 -0.0527091 0
M  V30 656 H 71.1137 3.49442 0.397872 0
M  V30 657 H 70.9877 3.12722 2.10915 0
M  V30 658 H 73.3747 2.13824 2.0338 0
M  V30 659 H 73.4557 2.53887 0.312244 0
M  V30 660 H 73.0997 5.00021 0.891151 0
M  V30 661 H 73.0297 4.56896 2.61827 0
M  V30 662 H 75.5207 3.4607 1.51802 0
M  V30 663 H 75.8337 7.30506 2.52153 0
M  V30 664 H 74.1787 6.56737 2.27425 0
M  V30 665 H 77.3697 4.31988 1.80289 0
M  V30 666 H 77.5427 6.07286 2.26071 0
M  V30 667 N 70.9488 -0.749086 1.3866 0
M  V30 668 C 71.9118 -1.84457 1.36045 0
M  V30 669 C 72.9118 -1.58682 0.260122 0
M  V30 670 O 74.1018 -1.66343 0.517261 0
M  V30 671 C 71.2338 -3.22008 1.11911 0
M  V30 672 H 72.4268 -1.88182 2.33512 0
M  V30 673 H 69.9798 -0.951266 1.24019 0
M  V30 674 H 70.7148 -3.2395 0.150686 0
M  V30 675 H 70.4998 -3.42111 1.91579 0
M  V30 676 H 71.9898 -4.0208 1.12788 0
M  V30 677 N 72.4269 -1.23603 -0.977757 0
M  V30 678 C 73.3899 -1.02069 -2.05218 0
M  V30 679 C 74.3899 0.0184305 -1.60789 0
M  V30 680 O 75.5799 -0.221569 -1.72785 0
M  V30 681 C 72.7119 -0.544926 -3.36517 0
M  V30 682 H 73.9049 -1.9742 -2.25755 0
M  V30 683 H 71.4579 -1.05684 -1.15155 0
M  V30 684 H 72.1929 0.412241 -3.21669 0
M  V30 685 H 71.9779 -1.2948 -3.70105 0
M  V30 686 H 73.4679 -0.414985 -4.15533 0
M  V30 687 N 73.905 1.17692 -1.04816 0
M  V30 688 C 74.868 2.19787 -0.650117 0
M  V30 689 C 75.868 1.58044 0.296427 0
M  V30 690 O 77.058 1.74012 0.0808097 0
M  V30 691 C 74.19 3.40869 0.0456987 0
M  V30 692 H 75.383 2.56516 -1.5537 0
M  V30 693 H 72.936 1.31708 -0.841594 0
M  V30 694 H 73.671 3.09681 0.962726 0
M  V30 695 H 73.456 3.86928 -0.634727 0
M  V30 696 H 74.946 4.16445 0.310432 0
M  V30 697 N 75.3831 0.828654 1.34056 0
M  V30 698 C 76.3461 0.259927 2.27721 0
M  V30 699 C 77.3461 -0.565478 1.50529 0
M  V30 700 O 78.5361 -0.38075 1.69988 0
M  V30 701 C 75.6681 -0.634944 3.34935 0
M  V30 702 H 76.8611 1.0863 2.79534 0
M  V30 703 H 74.4141 0.600951 1.44285 0
M  V30 704 H 75.1491 -1.48416 2.88346 0
M  V30 705 H 74.9341 -0.0444999 3.92075 0
M  V30 706 H 76.4241 -1.02648 4.04788 0
M  V30 707 N 76.8612 -1.46375 0.584142 0
M  V30 708 C 77.7942 -2.27351 -0.196676 0
M  V30 709 C 78.7722 -1.35715 -0.895561 0
M  V30 710 O 79.9562 -1.65126 -0.90916 0
M  V30 711 C 77.0832 -3.13486 -1.28235 0
M  V30 712 C 76.1292 -4.20896 -0.689145 0
M  V30 713 S 76.9622 -5.33299 0.48507 0
M  V30 714 C 78.1182 -6.23 -0.601767 0
M  V30 715 H 78.3512 -2.93228 0.490395 0
M  V30 716 H 75.8842 -1.49875 0.371071 0
M  V30 717 H 77.8422 -3.63676 -1.90395 0
M  V30 718 H 76.5032 -2.4692 -1.94138 0
M  V30 719 H 75.6962 -4.80997 -1.50527 0
M  V30 720 H 75.2982 -3.73726 -0.143181 0
M  V30 721 H 77.5902 -6.60979 -1.48705 0
M  V30 722 H 78.5332 -7.0809 -0.0374799 0
M  V30 723 H 78.9412 -5.57173 -0.906557 0
M  V30 724 N 78.3393 -0.321999 -1.54275 0
M  V30 725 C 79.3023 0.531975 -2.22941 0
M  V30 726 C 80.3023 1.04478 -1.22234 0
M  V30 727 O 81.4923 0.937452 -1.46825 0
M  V30 728 C 78.6243 1.73874 -2.93224 0
M  V30 729 H 79.8173 -0.0682612 -2.99822 0
M  V30 730 H 77.3703 -0.0730644 -1.56129 0
M  V30 731 H 78.1053 2.37825 -2.20476 0
M  V30 732 H 77.8903 1.37847 -3.6707 0
M  V30 733 H 79.3803 2.34496 -3.45545 0
M  V30 734 N 79.8174 1.5752 -0.0501392 0
M  V30 735 C 81.2284 1.80271 0.485705 0
M  V30 736 C 81.5794 0.96228 1.70981 0
M  V30 737 O 80.7044 0.178578 2.15662 0
M  V30 738 C 81.2994 3.26957 0.887938 0
M  V30 739 C 79.8584 3.5063 1.36877 0
M  V30 740 C 79.0054 2.75165 0.343468 0
M  V30 741 H 81.9564 1.56281 -0.276028 0
M  V30 742 H 81.9774 3.37821 1.75093 0
M  V30 743 H 81.4894 3.881 -0.0031809 0
M  V30 744 H 79.5904 2.94766 2.27911 0
M  V30 745 H 79.7034 4.59343 1.36164 0
M  V30 746 H 78.0674 2.4127 0.816128 0
M  V30 747 H 78.8504 3.39034 -0.539548 0
M  V30 748 N 81.2955 -0.223234 1.56011 0
M  V30 749 C 82.5445 -0.945912 1.78144 0
M  V30 750 C 82.8575 -1.85567 0.618396 0
M  V30 751 O 84.0635 -2.61688 0.723318 0
M  V30 752 C 82.5195 -1.73216 3.15475 0
M  V30 753 C 82.1275 -0.868619 4.39499 0
M  V30 754 C 83.8715 -2.44615 3.46935 0
M  V30 755 C 81.7785 -1.65212 5.67855 0
M  V30 756 H 80.7085 -0.356929 0.664167 0
M  V30 757 H 83.3595 -0.199845 1.82409 0
M  V30 758 H 81.7415 -2.52107 3.05382 0
M  V30 759 H 82.9155 -0.120366 4.60643 0
M  V30 760 H 81.2305 -0.26683 4.15544 0
M  V30 761 H 83.8275 -3.03732 4.40058 0
M  V30 762 H 84.1705 -3.17417 2.69355 0
M  V30 763 H 84.7035 -1.72715 3.58349 0
M  V30 764 H 81.4425 -0.967407 6.48322 0
M  V30 765 H 80.9625 -2.37503 5.50774 0
M  V30 766 H 82.6415 -2.21322 6.07968 0
M  V30 767 N 82.7736 -1.49793 -0.48987 0
M  V30 768 C 83.7206 -1.67281 -1.59014 0
M  V30 769 C 84.6906 -0.514177 -1.57941 0
M  V30 770 O 85.8756 -0.742533 -1.75759 0
M  V30 771 C 83.0156 -1.75569 -2.97102 0
M  V30 772 C 82.1286 -3.0281 -3.08107 0
M  V30 773 C 81.2636 -3.02008 -4.36995 0
M  V30 774 C 80.3026 -4.23782 -4.41673 0
M  V30 775 N 79.4396 -4.20826 -5.62005 0
M  V30 776 H 84.2796 -2.61224 -1.43409 0
M  V30 777 H 81.8166 -1.29508 -0.697565 0
M  V30 778 H 83.7746 -1.78354 -3.77155 0
M  V30 779 H 82.4046 -0.850827 -3.11385 0
M  V30 780 H 81.4566 -3.09584 -2.21047 0
M  V30 781 H 82.7686 -3.92801 -3.07423 0
M  V30 782 H 81.9226 -3.03418 -5.25378 0
M  V30 783 H 80.6616 -2.09815 -4.4026 0
M  V30 784 H 79.6666 -4.22604 -3.5169 0
M  V30 785 H 80.8916 -5.17181 -4.40115 0
M  V30 786 H 78.8376 -3.31476 -5.66091 0
M  V30 787 H 78.7546 -5.04564 -5.62984 0
M  V30 788 H 80.0226 -4.26355 -6.52565 0
M  V30 789 N 84.2517 0.741722 -1.39055 0
M  V30 790 C 85.4977 1.50336 -1.36113 0
M  V30 791 C 85.8307 1.94148 0.0450796 0
M  V30 792 O 85.1057 1.66301 1.00868 0
M  V30 793 C 85.3887 2.74773 -2.32749 0
M  V30 794 C 85.2417 2.37023 -3.82283 0
M  V30 795 C 86.5607 3.76846 -2.27322 0
M  V30 796 H 83.6797 0.545351 -0.495743 0
M  V30 797 H 86.3217 0.848624 -1.69995 0
M  V30 798 H 84.4717 3.30639 -2.03986 0
M  V30 799 H 86.1437 1.8684 -4.21768 0
M  V30 800 H 84.3867 1.69334 -3.99385 0
M  V30 801 H 85.0577 3.26104 -4.45376 0
M  V30 802 H 87.5337 3.30548 -2.5274 0
M  V30 803 H 86.4097 4.6159 -2.97028 0
M  V30 804 H 86.6707 4.23286 -1.27599 0
M  V30 805 N 85.7298 1.2412 0.971189 0
M  V30 806 C 86.9778 1.07668 1.71032 0
M  V30 807 C 87.2988 -0.385797 1.91146 0
M  V30 808 O 86.5688 -1.27569 1.4867 0
M  V30 809 H 85.1488 0.395429 0.633755 0
M  V30 810 H 87.8108 1.55984 1.16855 0
M  V30 811 H 86.9068 1.57195 2.69622 0
M  V30 812 N 87.2079 -1.17134 1.05439 0
M  V30 813 C 88.4849 -1.83411 0.679699 0
M  V30 814 C 88.8649 -1.9368 -0.839726 0
M  V30 815 O 88.2129 -1.47325 -1.74664 0
M  V30 816 C 88.4229 -3.20918 1.37159 0
M  V30 817 C 89.7709 -3.96796 1.51123 0
M  V30 818 O 90.7949 -3.30406 1.3308 0
M  V30 819 O 89.6539 -5.15778 1.80651 0
M  V30 820 H 86.7479 -0.79154 0.239569 0
M  V30 821 H 89.2939 -1.24411 1.15413 0
M  V30 822 H 88.0659 -3.08428 2.40807 0
M  V30 823 H 87.6889 -3.87587 0.886674 0
M  V30 824 N 88.686 -0.835752 -1.33615 0
M  V30 825 C 89.649 -0.272 -2.2758 0
M  V30 826 C 90.649 0.557487 -1.50827 0
M  V30 827 O 91.839 0.37173 -1.70188 0
M  V30 828 C 88.971 0.617173 -3.35267 0
M  V30 829 H 90.164 -1.10111 -2.78954 0
M  V30 830 H 87.717 -0.608594 -1.43965 0
M  V30 831 H 88.452 1.46884 -2.89129 0
M  V30 832 H 88.237 0.0237066 -3.92093 0
M  V30 833 H 89.727 1.005 -4.05326 0
M  V30 834 N 90.1641 1.46063 -0.591896 0
M  V30 835 C 91.4131 2.01547 -0.0786637 0
M  V30 836 C 91.7261 1.46796 1.29268 0
M  V30 837 O 92.9321 1.94157 1.89777 0
M  V30 838 C 91.3881 3.59787 -0.0900024 0
M  V30 839 C 90.9961 4.23534 -1.46023 0
M  V30 840 C 92.7401 4.22895 0.368806 0
M  V30 841 C 90.6471 5.73881 -1.4288 0
M  V30 842 H 89.5771 0.753564 -0.0256388 0
M  V30 843 H 92.2281 1.677 -0.744905 0
M  V30 844 H 90.6101 3.90752 0.642586 0
M  V30 845 H 91.7841 4.04167 -2.21328 0
M  V30 846 H 90.0991 3.72558 -1.85982 0
M  V30 847 H 92.6961 5.33116 0.411258 0
M  V30 848 H 93.0391 3.9247 1.38827 0
M  V30 849 H 93.5721 3.9659 -0.31001 0
M  V30 850 H 90.3111 6.0898 -2.42536 0
M  V30 851 H 89.8311 5.95486 -0.718095 0
M  V30 852 H 91.5101 6.36776 -1.14565 0
M  V30 853 N 91.6422 0.330177 1.54103 0
M  V30 854 C 93.0532 -0.15652 1.86043 0
M  V30 855 C 93.4042 -1.51086 1.2517 0
M  V30 856 O 92.5292 -2.09023 0.560217 0
M  V30 857 C 93.1242 -0.290784 3.3755 0
M  V30 858 C 91.6832 -0.721705 3.69416 0
M  V30 859 C 90.8302 0.152622 2.7688 0
M  V30 860 H 93.7812 0.550237 1.48856 0
M  V30 861 H 93.8022 -1.12058 3.63625 0
M  V30 862 H 93.3142 0.695068 3.81825 0
M  V30 863 H 91.4152 -1.71706 3.30678 0
M  V30 864 H 91.5282 -0.520869 4.7626 0
M  V30 865 H 89.8922 -0.372894 2.51956 0
M  V30 866 H 90.6752 1.13536 3.23982 0
M  V30 867 N 93.1203 -1.57491 0.0584922 0
M  V30 868 C 94.0833 -2.1085 -0.898617 0
M  V30 869 C 95.0833 -1.02964 -1.23511 0
M  V30 870 O 96.2733 -1.29007 -1.17059 0
M  V30 871 C 93.4053 -2.59881 -2.20623 0
M  V30 872 H 94.5983 -2.96715 -0.435936 0
M  V30 873 H 92.1513 -1.55141 -0.190023 0
M  V30 874 H 92.8863 -1.77431 -2.71457 0
M  V30 875 H 92.6713 -3.38727 -1.97501 0
M  V30 876 H 94.1613 -3.01285 -2.89166 0
M  V30 877 N 94.5984 0.214957 -1.56127 0
M  V30 878 C 95.8444 0.939762 -1.79712 0
M  V30 879 C 96.1774 1.83723 -0.629247 0
M  V30 880 O 95.4524 1.90925 0.371197 0
M  V30 881 C 95.7354 1.77306 -3.13424 0
M  V30 882 C 95.5884 0.90164 -4.40671 0
M  V30 883 C 96.9074 2.74956 -3.43638 0
M  V30 884 H 94.0264 0.340214 -0.653776 0
M  V30 885 H 96.6684 0.20824 -1.88855 0
M  V30 886 H 94.8184 2.39673 -3.0576 0
M  V30 887 H 96.4904 0.294206 -4.60361 0
M  V30 888 H 94.7334 0.207368 -4.33304 0
M  V30 889 H 95.4044 1.51923 -5.30682 0
M  V30 890 H 97.8804 2.22724 -3.51473 0
M  V30 891 H 96.7564 3.30358 -4.38355 0
M  V30 892 H 97.0174 3.53023 -2.66134 0
M  V30 893 N 96.0765 1.50051 0.48192 0
M  V30 894 C 96.9865 1.7089 1.60728 0
M  V30 895 C 98.0025 0.591788 1.63627 0
M  V30 896 O 99.1785 0.868817 1.81696 0
M  V30 897 C 96.2435 1.78855 2.97005 0
M  V30 898 C 95.3045 3.02537 3.04581 0
M  V30 899 C 94.5375 3.10112 4.34357 0
M  V30 900 O 94.7605 2.24765 5.24249 0
M  V30 901 O 93.6945 4.02747 4.47301 0
M  V30 902 H 97.5205 2.66264 1.46072 0
M  V30 903 H 95.1055 1.34018 0.660264 0
M  V30 904 H 96.9875 1.86336 3.77964 0
M  V30 905 H 95.6625 0.866628 3.11883 0
M  V30 906 H 94.5695 3.00563 2.22739 0
M  V30 907 H 95.9025 3.94272 2.94636 0
M  V30 908 N 97.5546 -0.734337 1.39446 0
M  V30 909 C 98.8006 -1.49613 1.36908 0
M  V30 910 C 99.1336 -1.94169 -0.0347829 0
M  V30 911 O 98.4086 -1.66833 -0.999847 0
M  V30 912 C 98.6916 -2.73534 2.34203 0
M  V30 913 C 98.5446 -2.34993 3.83534 0
M  V30 914 C 99.8636 -3.75635 2.29317 0
M  V30 915 H 96.9826 -0.542714 0.498629 0
M  V30 916 H 99.6246 -0.839597 1.70443 0
M  V30 917 H 97.7746 -3.29553 2.05736 0
M  V30 918 H 99.4466 -1.84601 4.22753 0
M  V30 919 H 97.6896 -1.67213 4.00278 0
M  V30 920 H 98.3606 -3.23738 4.47099 0
M  V30 921 H 100.837 -3.29203 2.54489 0
M  V30 922 H 99.7126 -4.60008 2.99472 0
M  V30 923 H 99.9736 -4.22603 1.29842 0
M  V30 924 N 99.0327 -1.24633 -0.964593 0
M  V30 925 C 100.28 -1.08788 -1.70796 0
M  V30 926 C 100.608 0.372783 -1.90894 0
M  V30 927 O 99.8627 1.29167 -1.47018 0
M  V30 928 C 100.162 -1.7763 -3.10133 0
M  V30 929 C 99.8277 -3.27557 -3.09866 0
M  V30 930 C 98.4897 -3.6846 -3.09501 0
M  V30 931 C 100.842 -4.23389 -3.03959 0
M  V30 932 C 98.1697 -5.03624 -3.00965 0
M  V30 933 C 100.522 -5.58565 -2.96965 0
M  V30 934 C 99.1857 -5.98809 -2.9493 0
M  V30 935 H 98.4557 -0.398084 -0.624988 0
M  V30 936 H 101.103 -1.54777 -1.12767 0
M  V30 937 H 99.4077 -1.24044 -3.71645 0
M  V30 938 H 101.105 -1.62832 -3.66451 0
M  V30 939 H 97.6947 -2.95006 -3.10917 0
M  V30 940 H 101.879 -3.92787 -3.03368 0
M  V30 941 H 97.1347 -5.33998 -2.97752 0
M  V30 942 H 101.309 -6.32523 -2.91354 0
M  V30 943 H 98.9357 -7.03505 -2.88071 0
M  V30 944 N 100.511 1.16574 -1.06058 0
M  V30 945 C 101.421 2.2452 -0.680282 0
M  V30 946 C 102.437 1.71348 0.302604 0
M  V30 947 O 103.613 2.00822 0.152513 0
M  V30 948 C 100.678 3.46629 -0.0700315 0
M  V30 949 C 99.7388 4.14849 -1.10448 0
M  V30 950 C 98.9718 5.31129 -0.523256 0
M  V30 951 O 99.1948 5.66514 0.664709 0
M  V30 952 O 98.1288 5.88526 -1.26179 0
M  V30 953 H 101.955 2.59355 -1.58015 0
M  V30 954 H 99.5398 1.24043 -0.832694 0
M  V30 955 H 101.422 4.20543 0.268667 0
M  V30 956 H 100.097 3.13573 0.803353 0
M  V30 957 H 99.0038 3.42916 -1.49532 0
M  V30 958 H 100.337 4.51954 -1.94931 0
M  V30 959 N 101.989 0.842826 1.3317 0
M  V30 960 C 103.237 0.439577 1.97262 0
M  V30 961 C 103.558 -1.00548 1.67078 0
M  V30 962 O 102.828 -1.70098 0.971779 0
M  V30 963 H 101.408 0.159558 0.72976 0
M  V30 964 H 104.07 1.07665 1.62463 0
M  V30 965 H 103.166 0.574886 3.0676 0
M  V30 966 N 103.467 -1.45747 0.599634 0
M  V30 967 C 104.377 -2.34262 -0.125888 0
M  V30 968 C 105.393 -1.50768 -0.868625 0
M  V30 969 O 106.569 -1.83592 -0.828003 0
M  V30 970 C 103.634 -3.28252 -1.11587 0
M  V30 971 C 102.695 -4.27651 -0.375956 0
M  V30 972 C 101.928 -5.1715 -1.31877 0
M  V30 973 O 102.151 -5.09916 -2.55621 0
M  V30 974 O 101.085 -5.96286 -0.820157 0
M  V30 975 H 104.911 -2.97688 0.601315 0
M  V30 976 H 102.496 -1.44999 0.359934 0
M  V30 977 H 104.378 -3.86191 -1.68626 0
M  V30 978 H 103.053 -2.67401 -1.82424 0
M  V30 979 H 101.96 -3.7335 0.236698 0
M  V30 980 H 103.293 -4.91334 0.29177 0
M  V30 981 N 104.945 -0.338344 -1.53925 0
M  V30 982 C 106.356 0.146651 -1.86123 0
M  V30 983 C 106.707 1.5042 -1.2597 0
M  V30 984 O 105.832 2.08723 -0.571294 0
M  V30 985 C 106.427 0.272879 -3.37699 0
M  V30 986 C 104.986 0.702103 -3.69794 0
M  V30 987 C 104.133 -0.167304 -2.76795 0
M  V30 988 H 107.084 -0.558123 -1.48562 0
M  V30 989 H 107.105 1.10128 -3.64214 0
M  V30 990 H 106.617 -0.715307 -3.81451 0
M  V30 991 H 104.718 1.6995 -3.31584 0
M  V30 992 H 104.831 0.495604 -4.7653 0
M  V30 993 H 103.195 0.359527 -2.5215 0
M  V30 994 H 103.978 -1.15253 -3.23375 0
M  V30 995 N 106.423 1.57458 -0.0668435 0
M  V30 996 C 107.671 1.92919 0.602214 0
M  V30 997 C 107.992 0.947215 1.70449 0
M  V30 998 O 107.262 -0.00544117 1.95899 0
M  V30 999 H 105.842 0.71217 0.22544 0
M  V30 1000 H 108.504 1.94508 -0.123535 0
M  V30 1001 H 107.6 2.94589 1.03073 0
M  V30 1002 N 107.901 -0.206675 1.56239 0
M  V30 1003 C 108.849 -1.27571 1.94495 0
M  V30 1004 C 109.843 -1.47737 0.828862 0
M  V30 1005 O 111.049 -1.48735 1.0138 0
M  V30 1006 H 107.424 -0.428029 0.6183 0
M  V30 1007 H 109.395 -0.925961 2.8367 0
M  V30 1008 C 108.144 -2.61568 2.29079 0
M  V30 1009 H 107.467 -2.46863 3.14482 0
M  V30 1010 H 108.907 -3.35144 2.5972 0
M  V30 1011 C 107.366 -3.17695 1.12123 0
M  V30 1012 O 107.896 -3.99801 0.390153 0
M  V30 1013 N 106.102 -2.76276 0.901097 0
M  V30 1014 H 105.649 -2.09613 1.49733 0
M  V30 1015 H 105.607 -3.1417 0.120319 0
M  V30 1016 N 109.379 -1.50304 -0.473955 0
M  V30 1017 C 110.326 -1.68959 -1.57231 0
M  V30 1018 C 111.296 -0.530899 -1.57387 0
M  V30 1019 O 112.481 -0.761133 -1.74961 0
M  V30 1020 C 109.621 -1.7871 -2.95223 0
M  V30 1021 C 108.734 -3.06061 -3.04878 0
M  V30 1022 C 107.869 -3.06626 -4.33767 0
M  V30 1023 C 106.908 -4.28443 -4.37154 0
M  V30 1024 N 106.045 -4.26763 -5.5751 0
M  V30 1025 H 110.885 -2.6273 -1.40631 0
M  V30 1026 H 108.422 -1.30241 -0.683789 0
M  V30 1027 H 110.38 -1.82344 -3.75242 0
M  V30 1028 H 109.01 -0.883806 -3.10465 0
M  V30 1029 H 108.062 -3.11911 -2.17751 0
M  V30 1030 H 109.374 -3.96039 -3.0324 0
M  V30 1031 H 108.528 -3.08973 -5.22131 0
M  V30 1032 H 107.267 -2.14473 -4.3801 0
M  V30 1033 H 106.272 -4.2631 -3.47188 0
M  V30 1034 H 107.497 -5.2182 -4.34605 0
M  V30 1035 H 105.443 -3.37462 -5.62544 0
M  V30 1036 H 105.36 -5.10507 -5.57601 0
M  V30 1037 H 106.628 -4.33253 -6.48006 0
M  V30 1038 N 110.857 0.726932 -1.39834 0
M  V30 1039 C 112.103 1.48884 -1.377 0
M  V30 1040 C 112.436 1.94185 0.0244852 0
M  V30 1041 O 111.711 1.67361 0.990986 0
M  V30 1042 C 111.994 2.72288 -2.3565 0
M  V30 1043 C 111.847 2.32956 -3.84775 0
M  V30 1044 C 113.166 3.74414 -2.31306 0
M  V30 1045 H 110.285 0.540062 -0.5015 0
M  V30 1046 H 112.927 0.830547 -1.70886 0
M  V30 1047 H 111.077 3.28457 -2.07481 0
M  V30 1048 H 112.749 1.82356 -4.23726 0
M  V30 1049 H 110.992 1.65088 -4.01159 0
M  V30 1050 H 111.663 3.21362 -4.4881 0
M  V30 1051 H 114.139 3.27849 -2.56231 0
M  V30 1052 H 113.015 4.58414 -3.01907 0
M  V30 1053 H 113.276 4.21909 -1.32081 0
M  V30 1054 N 112.336 1.25143 0.95797 0
M  V30 1055 C 113.284 1.05019 2.07542 0
M  V30 1056 C 114.278 -0.0178751 1.69391 0
M  V30 1057 O 115.484 0.137472 1.79474 0
M  V30 1058 H 111.859 0.32265 0.679265 0
M  V30 1059 H 113.83 1.99759 2.21673 0
M  V30 1060 C 112.579 0.682074 3.40944 0
M  V30 1061 H 111.902 1.49573 3.70767 0
M  V30 1062 H 113.342 0.580945 4.20001 0
M  V30 1063 C 111.801 -0.611608 3.31302 0
M  V30 1064 O 112.331 -1.65465 3.66038 0
M  V30 1065 N 110.537 -0.595982 2.84423 0
M  V30 1066 H 110.084 0.253192 2.56353 0
M  V30 1067 H 110.042 -1.46173 2.78354 0
M  V30 1068 N 113.814 -1.1601 1.06675 0
M  V30 1069 C 114.744 -2.22688 0.702307 0
M  V30 1070 C 115.725 -1.67306 -0.307032 0
M  V30 1071 O 116.91 -1.93352 -0.181305 0
M  V30 1072 C 114.04 -3.47178 0.092038 0
M  V30 1073 C 112.994 -4.15477 1.02777 0
M  V30 1074 C 112.32 -5.33963 0.28061 0
M  V30 1075 C 113.62 -4.66019 2.35846 0
M  V30 1076 H 115.314 -2.53429 1.59419 0
M  V30 1077 H 112.86 -1.21813 0.767961 0
M  V30 1078 H 114.813 -4.21037 -0.174814 0
M  V30 1079 H 113.537 -3.15749 -0.834877 0
M  V30 1080 H 112.196 -3.43549 1.27944 0
M  V30 1081 H 111.844 -4.98788 -0.649545 0
M  V30 1082 H 111.544 -5.806 0.904258 0
M  V30 1083 H 113.068 -6.10596 0.021396 0
M  V30 1084 H 114.482 -5.3144 2.15045 0
M  V30 1085 H 112.879 -5.23293 2.93743 0
M  V30 1086 H 113.949 -3.82023 2.98641 0
M  V30 1087 N 115.292 -0.849877 -1.32721 0
M  V30 1088 C 116.255 -0.296122 -2.27279 0
M  V30 1089 C 117.255 0.541458 -1.5141 0
M  V30 1090 O 118.445 0.353658 -1.70572 0
M  V30 1091 C 115.577 0.581579 -3.35902 0
M  V30 1092 H 116.77 -1.13064 -2.77771 0
M  V30 1093 H 114.323 -0.62383 -1.43311 0
M  V30 1094 H 115.058 1.43809 -2.9067 0
M  V30 1095 H 114.843 -0.0178814 -3.92096 0
M  V30 1096 H 116.333 0.961951 -4.0637 0
M  V30 1097 N 116.77 1.45427 -0.607355 0
M  V30 1098 C 117.68 2.34325 0.113463 0
M  V30 1099 C 118.696 1.51226 0.860617 0
M  V30 1100 O 119.872 1.84029 0.818255 0
M  V30 1101 C 116.937 3.28839 1.09844 0
M  V30 1102 C 115.998 4.27844 0.353271 0
M  V30 1103 C 115.231 5.17842 1.29133 0
M  V30 1104 O 115.454 5.11264 2.52913 0
M  V30 1105 O 114.388 5.96713 0.788523 0
M  V30 1106 H 118.214 2.97364 -0.617094 0
M  V30 1107 H 115.799 1.44807 -0.367619 0
M  V30 1108 H 117.681 3.8708 1.66575 0
M  V30 1109 H 116.356 2.68365 1.81003 0
M  V30 1110 H 115.263 3.7322 -0.256494 0
M  V30 1111 H 116.596 4.91173 -0.317822 0
M  V30 1112 N 118.248 0.346503 1.53744 0
M  V30 1113 C 119.178 -0.501193 2.28058 0
M  V30 1114 C 120.159 -1.10014 1.29734 0
M  V30 1115 O 121.344 -1.12097 1.58581 0
M  V30 1116 C 118.474 -1.65078 3.05559 0
M  V30 1117 C 117.428 -1.18003 4.11411 0
M  V30 1118 C 116.754 -2.41837 4.76884 0
M  V30 1119 C 118.054 -0.278394 5.21558 0
M  V30 1120 H 119.748 0.11875 2.99164 0
M  V30 1121 H 117.294 0.0585531 1.43881 0
M  V30 1122 H 119.247 -2.25028 3.56287 0
M  V30 1123 H 117.971 -2.29767 2.32109 0
M  V30 1124 H 116.63 -0.603331 3.61601 0
M  V30 1125 H 116.278 -3.0494 4.00026 0
M  V30 1126 H 115.978 -2.1102 5.48402 0
M  V30 1127 H 117.502 -3.02508 5.30397 0
M  V30 1128 H 118.916 -0.784823 5.67903 0
M  V30 1129 H 117.313 -0.0619707 6.00068 0
M  V30 1130 H 118.383 0.684677 4.80042 0
M  V30 1131 N 119.726 -1.57421 0.075193 0
M  V30 1132 C 120.973 -1.93618 -0.593146 0
M  V30 1133 C 121.301 -0.955484 -1.69413 0
M  V30 1134 O 120.556 0.0283251 -1.9568 0
M  V30 1135 C 120.855 -3.36428 -1.20626 0
M  V30 1136 C 120.521 -4.50307 -0.231078 0
M  V30 1137 C 119.183 -4.81186 0.0371936 0
M  V30 1138 C 121.535 -5.19374 0.435888 0
M  V30 1139 C 118.863 -5.78466 0.979461 0
M  V30 1140 C 121.215 -6.17665 1.3665 0
M  V30 1141 C 119.879 -6.46958 1.6432 0
M  V30 1142 H 119.149 -0.708499 -0.217047 0
M  V30 1143 H 121.796 -1.90937 0.146793 0
M  V30 1144 H 120.101 -3.35592 -2.02201 0
M  V30 1145 H 121.798 -3.61727 -1.73073 0
M  V30 1146 H 118.388 -4.26227 -0.450357 0
M  V30 1147 H 122.572 -4.95711 0.241748 0
M  V30 1148 H 117.828 -5.99487 1.20106 0
M  V30 1149 H 122.002 -6.70284 1.88924 0
M  V30 1150 H 119.629 -7.2215 2.37494 0
M  V30 1151 N 121.204 0.198386 -1.56346 0
M  V30 1152 C 122.151 1.24589 -1.94284 0
M  V30 1153 C 123.121 1.454 -0.802997 0
M  V30 1154 O 124.306 1.58588 -1.06087 0
M  V30 1155 C 121.446 2.58631 -2.28482 0
M  V30 1156 C 120.559 2.45426 -3.55514 0
M  V30 1157 C 119.694 3.7215 -3.79049 0
M  V30 1158 C 118.733 3.53763 -4.99518 0
M  V30 1159 N 117.87 4.72491 -5.19323 0
M  V30 1160 H 122.71 0.915356 -2.83593 0
M  V30 1161 H 120.247 0.440629 -1.40346 0
M  V30 1162 H 122.205 3.3672 -2.46324 0
M  V30 1163 H 120.835 2.89734 -1.42317 0
M  V30 1164 H 119.887 1.58652 -3.45737 0
M  V30 1165 H 121.199 2.27772 -4.43758 0
M  V30 1166 H 120.353 4.58679 -3.97113 0
M  V30 1167 H 119.092 3.92754 -2.89129 0
M  V30 1168 H 118.097 2.65619 -4.8138 0
M  V30 1169 H 119.322 3.34607 -5.90944 0
M  V30 1170 H 117.268 4.93365 -4.3235 0
M  V30 1171 H 117.185 4.5765 -6.01741 0
M  V30 1172 H 118.453 5.6038 -5.41843 0
M  V30 1173 N 122.682 1.50554 0.465978 0
M  V30 1174 C 123.93 1.61479 1.21528 0
M  V30 1175 C 124.251 0.319596 1.92363 0
M  V30 1176 O 123.521 -0.663194 1.84333 0
M  V30 1177 H 122.101 0.595055 0.451573 0
M  V30 1178 H 124.763 1.87355 0.53704 0
M  V30 1179 H 123.859 2.42846 1.96042 0
M  V30 1180 N 124.16 -0.719506 1.40217 0
M  V30 1181 C 125.107 -1.83359 1.40172 0
M  V30 1182 C 126.077 -1.64065 0.259206 0
M  V30 1183 O 127.262 -1.85254 0.456677 0
M  V30 1184 C 124.402 -3.2103 1.26624 0
M  V30 1185 C 123.515 -3.51923 2.50548 0
M  V30 1186 C 122.65 -4.79079 2.29471 0
M  V30 1187 C 121.689 -5.02863 3.48992 0
M  V30 1188 N 120.826 -6.2123 3.27135 0
M  V30 1189 H 125.666 -1.82733 2.35399 0
M  V30 1190 H 123.203 -0.892688 1.16917 0
M  V30 1191 H 125.161 -4.00524 1.16776 0
M  V30 1192 H 123.791 -3.20895 0.350176 0
M  V30 1193 H 122.843 -2.67014 2.70939 0
M  V30 1194 H 124.155 -3.6541 3.39525 0
M  V30 1195 H 123.309 -5.66582 2.16955 0
M  V30 1196 H 122.048 -4.67794 1.37913 0
M  V30 1197 H 121.053 -4.13816 3.6199 0
M  V30 1198 H 122.278 -5.16023 4.41472 0
M  V30 1199 H 120.224 -6.11204 2.38256 0
M  V30 1200 H 120.141 -6.35375 4.09675 0
M  V30 1201 H 121.409 -7.11532 3.18344 0
M  V30 1202 N 125.638 -1.25649 -0.95132 0
M  V30 1203 C 126.585 -1.06323 -2.04851 0
M  V30 1204 C 127.555 0.0286491 -1.66075 0
M  V30 1205 O 128.74 -0.12917 -1.90362 0
M  V30 1206 C 125.88 -0.691529 -3.381 0
M  V30 1207 C 124.993 -1.85861 -3.89974 0
M  V30 1208 C 124.128 -1.43096 -5.11563 0
M  V30 1209 C 123.167 -2.56696 -5.55674 0
M  V30 1210 N 122.304 -2.14684 -6.68472 0
M  V30 1211 H 127.144 -2.00222 -2.20715 0
M  V30 1212 H 124.681 -0.997027 -1.08156 0
M  V30 1213 H 126.639 -0.456963 -4.1469 0
M  V30 1214 H 125.269 0.210474 -3.22113 0
M  V30 1215 H 124.321 -2.20639 -3.09875 0
M  V30 1216 H 125.633 -2.71161 -4.18657 0
M  V30 1217 H 124.787 -1.15624 -5.9558 0
M  V30 1218 H 123.526 -0.548722 -4.84603 0
M  V30 1219 H 122.531 -2.84909 -4.7022 0
M  V30 1220 H 123.756 -3.45503 -5.8464 0
M  V30 1221 H 121.702 -1.28881 -6.43215 0
M  V30 1222 H 121.619 -2.9353 -6.96689 0
M  V30 1223 H 122.887 -1.90397 -7.5589 0
M  V30 1224 N 127.117 1.15442 -1.07289 0
M  V30 1225 C 128.365 1.85845 -0.794096 0
M  V30 1226 C 128.686 1.82692 0.681809 0
M  V30 1227 O 127.956 1.26741 1.49377 0
M  V30 1228 H 126.536 0.688089 -0.290763 0
M  V30 1229 H 129.198 1.39947 -1.3565 0
M  V30 1230 H 128.294 2.91001 -1.12804 0
M  V30 1231 N 128.595 0.856903 1.32268 0
M  V30 1232 C 129.841 0.462069 1.97466 0
M  V30 1233 C 130.174 -0.980298 1.67642 0
M  V30 1234 O 129.449 -1.68824 0.965858 0
M  V30 1235 C 129.732 0.704336 3.53145 0
M  V30 1236 C 129.585 2.19529 3.9259 0
M  V30 1237 C 130.904 0.1622 4.39801 0
M  V30 1238 H 128.023 0.169357 0.717278 0
M  V30 1239 H 130.665 1.07574 1.56614 0
M  V30 1240 H 128.815 0.181999 3.88073 0
M  V30 1241 H 130.487 2.78387 3.67829 0
M  V30 1242 H 128.73 2.67292 3.41668 0
M  V30 1243 H 129.401 2.31549 5.01088 0
M  V30 1244 H 131.877 0.608905 4.11621 0
M  V30 1245 H 130.753 0.361265 5.4771 0
M  V30 1246 H 131.014 -0.935158 4.32096 0
M  V30 1247 N 130.073 -1.45103 0.615059 0
M  V30 1248 C 131.003 -2.33339 -0.0865619 0
M  V30 1249 C 131.984 -1.4727 -0.851209 0
M  V30 1250 O 133.169 -1.76026 -0.820281 0
M  V30 1251 C 130.299 -3.30095 -1.07956 0
M  V30 1252 C 129.253 -4.25858 -0.427628 0
M  V30 1253 C 128.579 -5.12361 -1.5294 0
M  V30 1254 C 129.879 -5.18165 0.655944 0
M  V30 1255 H 131.573 -2.92254 0.650224 0
M  V30 1256 H 129.119 -1.40532 0.314138 0
M  V30 1257 H 131.072 -3.90698 -1.57901 0
M  V30 1258 H 129.796 -2.69355 -1.84703 0
M  V30 1259 H 128.455 -3.66564 0.0510292 0
M  V30 1260 H 128.103 -4.47984 -2.28734 0
M  V30 1261 H 127.803 -5.77238 -1.09865 0
M  V30 1262 H 129.327 -5.75833 -2.03098 0
M  V30 1263 H 130.741 -5.72796 0.240257 0
M  V30 1264 H 129.138 -5.91559 1.00888 0
M  V30 1265 H 130.208 -4.60144 1.52957 0
M  V30 1266 N 131.551 -0.354651 -1.53558 0
M  V30 1267 C 132.798 0.238443 -2.01091 0
M  V30 1268 C 133.126 1.49663 -1.24222 0
M  V30 1269 O 132.381 1.93049 -0.321003 0
M  V30 1270 C 132.68 0.587121 -3.52545 0
M  V30 1271 C 132.346 -0.575472 -4.47213 0
M  V30 1272 C 131.008 -0.894497 -4.72813 0
M  V30 1273 C 133.36 -1.35489 -5.03281 0
M  V30 1274 C 130.688 -1.99511 -5.51736 0
M  V30 1275 C 133.04 -2.44583 -5.83405 0
M  V30 1276 C 131.704 -2.77033 -6.07296 0
M  V30 1277 H 130.974 0.0872526 -0.735845 0
M  V30 1278 H 133.621 -0.484859 -1.8526 0
M  V30 1279 H 131.926 1.39129 -3.66265 0
M  V30 1280 H 133.623 1.05809 -3.86789 0
M  V30 1281 H 130.213 -0.316774 -4.27428 0
M  V30 1282 H 134.397 -1.12167 -4.83459 0
M  V30 1283 H 129.653 -2.25063 -5.68469 0
M  V30 1284 H 133.827 -3.05401 -6.25862 0
M  V30 1285 H 131.454 -3.6244 -6.68237 0
M  V30 1286 N 133.029 1.57378 -0.0835403 0
M  V30 1287 C 134.277 1.93547 0.581718 0
M  V30 1288 C 134.598 0.96524 1.69435 0
M  V30 1289 O 133.868 0.0153369 1.95894 0
M  V30 1290 H 132.448 0.714521 0.217874 0
M  V30 1291 H 135.11 1.94366 -0.144158 0
M  V30 1292 H 134.206 2.95665 0.999423 0
M  V30 1293 N 134.507 -0.190092 1.56449 0
M  V30 1294 C 135.753 -0.911052 1.81184 0
M  V30 1295 C 136.086 -1.82699 0.658396 0
M  V30 1296 O 135.361 -1.91491 -0.340775 0
M  V30 1297 C 135.644 -1.72297 3.16205 0
M  V30 1298 C 135.497 -0.831419 4.42049 0
M  V30 1299 C 136.816 -2.69454 3.47969 0
M  V30 1300 H 133.935 -0.32977 0.659106 0
M  V30 1301 H 136.577 -0.178169 1.89163 0
M  V30 1302 H 134.727 -2.34778 3.09534 0
M  V30 1303 H 136.399 -0.220929 4.60771 0
M  V30 1304 H 134.642 -0.138406 4.33579 0
M  V30 1305 H 135.313 -1.43461 5.33032 0
M  V30 1306 H 137.789 -2.17104 3.54972 0
M  V30 1307 H 136.665 -3.23342 4.43555 0
M  V30 1308 H 136.926 -3.48744 2.71717 0
M  V30 1309 N 135.985 -1.50799 -0.457987 0
M  V30 1310 C 137.396 -1.55152 -1.0385 0
M  V30 1311 C 137.747 -0.362719 -1.92818 0
M  V30 1312 O 136.872 0.522915 -2.09987 0
M  V30 1313 C 137.467 -2.81173 -1.89017 0
M  V30 1314 C 136.026 -2.88164 -2.42154 0
M  V30 1315 C 135.173 -2.49591 -1.20829 0
M  V30 1316 H 138.124 -1.56874 -0.240068 0
M  V30 1317 H 138.145 -2.63769 -2.74238 0
M  V30 1318 H 137.657 -3.67677 -1.24238 0
M  V30 1319 H 135.758 -2.06042 -3.10447 0
M  V30 1320 H 135.871 -3.91356 -2.76364 0
M  V30 1321 H 134.235 -2.02322 -1.54719 0
M  V30 1322 H 135.018 -3.38418 -0.576927 0
M  V30 1323 N 137.463 0.71206 -1.40597 0
M  V30 1324 C 138.711 1.46907 -1.38791 0
M  V30 1325 C 139.032 1.94998 0.00780391 0
M  V30 1326 O 138.302 1.70587 0.963174 0
M  V30 1327 H 136.882 0.545043 -0.51082 0
M  V30 1328 H 139.544 0.843882 -1.75683 0
M  V30 1329 H 138.64 2.34021 -2.06496 0
M  V30 1330 N 138.941 1.26152 0.944643 0
M  V30 1331 C 139.904 1.07474 2.0244 0
M  V30 1332 C 140.904 0.0242064 1.60782 0
M  V30 1333 O 142.094 0.267302 1.72137 0
M  V30 1334 C 139.226 0.633956 3.34953 0
M  V30 1335 H 140.419 2.03336 2.20442 0
M  V30 1336 H 137.972 1.087 1.12312 0
M  V30 1337 H 138.707 -0.326811 3.22649 0
M  V30 1338 H 138.492 1.39247 3.66542 0
M  V30 1339 H 139.982 0.52501 4.14287 0
M  V30 1340 N 140.419 -1.14872 1.07899 0
M  V30 1341 C 141.666 -1.85789 0.805532 0
M  V30 1342 C 141.994 -1.82649 -0.668561 0
M  V30 1343 O 141.249 -1.24858 -1.50695 0
M  V30 1344 C 141.548 -3.34223 1.26609 0
M  V30 1345 C 141.214 -3.57555 2.74709 0
M  V30 1346 C 139.876 -3.63631 3.1516 0
M  V30 1347 C 142.228 -3.66803 3.70277 0
M  V30 1348 C 139.556 -3.76473 4.49983 0
M  V30 1349 C 141.908 -3.8117 5.04869 0
M  V30 1350 C 140.572 -3.85494 5.44932 0
M  V30 1351 H 139.842 -0.679849 0.294765 0
M  V30 1352 H 142.489 -1.3572 1.35101 0
M  V30 1353 H 140.794 -3.86536 0.640103 0
M  V30 1354 H 142.491 -3.87511 1.03132 0
M  V30 1355 H 139.081 -3.5347 2.42398 0
M  V30 1356 H 143.265 -3.61404 3.40149 0
M  V30 1357 H 138.521 -3.7808 4.80484 0
M  V30 1358 H 142.695 -3.87268 5.78789 0
M  V30 1359 H 140.322 -3.95197 6.49403 0
M  V30 1360 N 141.898 -0.863906 -1.31812 0
M  V30 1361 C 143.126 -0.486111 -2.01108 0
M  V30 1362 C 143.541 0.919755 -1.64882 0
M  V30 1363 O 142.898 1.60162 -0.874893 0
M  V30 1364 C 142.949 -0.626435 -3.56031 0
M  V30 1365 O 142.67 -1.97693 -3.90959 0
M  V30 1366 C 144.171 -0.248857 -4.42601 0
M  V30 1367 H 141.391 -0.190052 -0.643523 0
M  V30 1368 H 143.935 -1.1634 -1.68182 0
M  V30 1369 H 142.09 0.00322717 -3.874 0
M  V30 1370 H 142.504 -1.98034 -4.85678 0
M  V30 1371 H 143.978 -0.398016 -5.50563 0
M  V30 1372 H 144.455 0.811489 -4.31638 0
M  V30 1373 H 145.061 -0.853971 -4.16638 0
M  V30 1374 N 143.376 1.44774 -0.622745 0
M  V30 1375 C 144.787 1.85546 -0.207226 0
M  V30 1376 C 145.138 1.52093 1.23944 0
M  V30 1377 O 144.263 0.95492 1.94191 0
M  V30 1378 C 144.858 3.36781 -0.369313 0
M  V30 1379 C 143.417 3.76399 -0.00836847 0
M  V30 1380 C 142.564 2.68664 -0.686651 0
M  V30 1381 H 145.515 1.3536 -0.828454 0
M  V30 1382 H 145.536 3.78453 0.394162 0
M  V30 1383 H 145.048 3.61098 -1.42231 0
M  V30 1384 H 143.149 3.57698 1.04322 0
M  V30 1385 H 143.262 4.7732 -0.412584 0
M  V30 1386 H 141.626 2.54404 -0.122777 0
M  V30 1387 H 142.409 2.95815 -1.74208 0
M  V30 1388 N 144.854 0.36279 1.53368 0
M  V30 1389 C 146.102 -0.227326 2.00817 0
M  V30 1390 C 146.423 -1.49511 1.25186 0
M  V30 1391 O 145.693 -1.92482 0.364348 0
M  V30 1392 H 144.273 -0.0869923 0.741917 0
M  V30 1393 H 146.935 0.488381 1.88682 0
M  V30 1394 H 146.031 -0.456273 3.08747 0
M  V30 1395 N 146.332 -1.57332 0.0918853 0
M  V30 1396 C 147.572 -1.96117 -0.575988 0
M  V30 1397 C 147.936 -0.972499 -1.65549 0
M  V30 1398 O 149.137 -1.24872 -2.38034 0
M  V30 1399 C 147.408 -3.39407 -1.11973 0
M  V30 1400 S 148.967 -4.00185 -1.79992 0
M  V30 1401 H 145.785 -0.685682 -0.188045 0
M  V30 1402 H 148.387 -1.94755 0.170525 0
M  V30 1403 H 147.091 -4.09131 -0.322504 0
M  V30 1404 H 146.622 -3.44358 -1.90214 0
M  V30 1405 H 148.637 -3.88728 -3.08391 0
M  V30 1406 N 147.81 0.181792 -1.56548 0
M  V30 1407 C 149.035 0.920019 -1.85877 0
M  V30 1408 C 149.46 1.75494 -0.677021 0
M  V30 1409 O 148.818 1.77399 0.374056 0
M  V30 1410 C 148.866 1.78112 -3.13542 0
M  V30 1411 O 147.97 2.88152 -2.95029 0
M  V30 1412 H 147.311 0.258334 -0.611686 0
M  V30 1413 H 149.841 0.183092 -2.03779 0
M  V30 1414 H 149.851 2.18314 -3.44678 0
M  V30 1415 H 148.526 1.16777 -3.99169 0
M  V30 1416 H 147.103 2.51609 -2.75222 0
M  V30 1417 N 149.288 1.51039 0.449983 0
M  V30 1418 C 150.235 1.71439 1.54523 0
M  V30 1419 C 151.205 0.555871 1.56522 0
M  V30 1420 O 152.39 0.788871 1.73728 0
M  V30 1421 C 149.53 1.83384 2.92343 0
M  V30 1422 C 148.643 3.10873 2.9997 0
M  V30 1423 C 147.778 3.13488 4.28834 0
M  V30 1424 C 146.817 4.35343 4.30282 0
M  V30 1425 N 145.954 4.35579 5.5065 0
M  V30 1426 H 150.794 2.64934 1.36433 0
M  V30 1427 H 148.331 1.31312 0.662982 0
M  V30 1428 H 150.289 1.88291 3.72293 0
M  V30 1429 H 148.919 0.933086 3.0902 0
M  V30 1430 H 147.971 3.15336 2.12761 0
M  V30 1431 H 149.283 4.00814 2.96901 0
M  V30 1432 H 148.437 3.17241 5.17149 0
M  V30 1433 H 147.176 2.21414 4.34543 0
M  V30 1434 H 146.181 4.3178 3.40362 0
M  V30 1435 H 147.406 5.28668 4.26248 0
M  V30 1436 H 145.352 3.46369 5.57104 0
M  V30 1437 H 145.269 5.19313 5.49409 0
M  V30 1438 H 146.537 4.43507 6.41032 0
M  V30 1439 N 150.766 -0.704594 1.40972 0
M  V30 1440 C 151.994 -1.49354 1.43182 0
M  V30 1441 C 152.409 -1.88768 0.0345508 0
M  V30 1442 O 151.766 -1.56184 -0.944081 0
M  V30 1443 C 151.817 -2.76187 2.33244 0
M  V30 1444 O 151.538 -2.38436 3.67532 0
M  V30 1445 C 153.039 -3.7 2.44162 0
M  V30 1446 H 150.259 -0.460559 0.487982 0
M  V30 1447 H 152.803 -0.868261 1.85153 0
M  V30 1448 H 150.958 -3.34974 1.94606 0
M  V30 1449 H 151.372 -3.20126 4.15475 0
M  V30 1450 H 152.846 -4.55803 3.11364 0
M  V30 1451 H 153.323 -4.13867 1.47006 0
M  V30 1452 H 153.929 -3.17121 2.83398 0
M  V30 1453 N 152.244 -1.26651 -0.937939 0
M  V30 1454 C 153.194 -1.05156 -2.02302 0
M  V30 1455 C 154.178 0.0171233 -1.60891 0
M  V30 1456 O 155.37 -0.200213 -1.75864 0
M  V30 1457 C 152.499 -0.689962 -3.36295 0
M  V30 1458 C 151.585 -1.79626 -3.84181 0
M  V30 1459 N 151.976 -3.03422 -4.04684 0
M  V30 1460 C 150.274 -1.6806 -4.13124 0
M  V30 1461 C 150.975 -3.75345 -4.444 0
M  V30 1462 N 149.951 -3.03051 -4.51288 0
M  V30 1463 H 153.753 -1.99117 -2.1617 0
M  V30 1464 H 151.267 -1.17216 -1.12402 0
M  V30 1465 H 153.264 -0.517112 -4.13681 0
M  V30 1466 H 151.924 0.242139 -3.23796 0
M  V30 1467 H 152.935 -3.39293 -3.91281 0
M  V30 1468 H 149.612 -0.818629 -4.09396 0
M  V30 1469 H 151.002 -4.81691 -4.68427 0
M  V30 1470 N 153.722 1.14298 -1.08507 0
M  V30 1471 C 154.652 2.21542 -0.737646 0
M  V30 1472 C 155.633 1.67773 0.280377 0
M  V30 1473 O 156.818 1.93616 0.150521 0
M  V30 1474 C 153.948 3.46988 -0.147259 0
M  V30 1475 C 152.902 4.13789 -1.09374 0
M  V30 1476 C 152.228 5.33449 -0.365524 0
M  V30 1477 C 153.528 4.62208 -2.4323 0
M  V30 1478 H 155.222 2.5086 -1.6343 0
M  V30 1479 H 152.768 1.20576 -0.787243 0
M  V30 1480 H 154.721 4.21262 0.107808 0
M  V30 1481 H 153.445 3.17037 0.784538 0
M  V30 1482 H 152.104 3.4147 -1.33393 0
M  V30 1483 H 151.752 4.99759 0.57011 0
M  V30 1484 H 151.452 5.79088 -0.996512 0
M  V30 1485 H 152.976 6.10485 -0.118534 0
M  V30 1486 H 154.39 5.27952 -2.23472 0
M  V30 1487 H 152.787 5.18553 -3.02031 0
M  V30 1488 H 153.857 3.77224 -3.04681 0
M  V30 1489 N 155.201 0.870884 1.31352 0
M  V30 1490 C 156.612 0.534714 1.78879 0
M  V30 1491 C 156.963 -0.948423 1.71754 0
M  V30 1492 O 156.088 -1.74055 1.28584 0
M  V30 1493 C 156.683 0.963839 3.24801 0
M  V30 1494 C 155.242 0.679311 3.70219 0
M  V30 1495 C 154.389 1.15465 2.52117 0
M  V30 1496 H 157.34 1.05651 1.18421 0
M  V30 1497 H 157.361 0.286892 3.79417 0
M  V30 1498 H 156.873 2.04332 3.29955 0
M  V30 1499 H 154.974 -0.388769 3.70566 0
M  V30 1500 H 155.087 1.25698 4.62317 0
M  V30 1501 H 153.451 0.574383 2.48139 0
M  V30 1502 H 154.234 2.24157 2.60016 0
M  V30 1503 N 156.679 -1.44442 0.630414 0
M  V30 1504 C 157.927 -2.01653 0.134351 0
M  V30 1505 C 158.248 -1.49836 -1.24796 0
M  V30 1506 O 157.518 -0.701684 -1.82902 0
M  V30 1507 H 156.098 -0.74554 0.0466769 0
M  V30 1508 H 158.76 -1.76952 0.816955 0
M  V30 1509 H 157.856 -3.11935 0.101498 0
M  V30 1510 N 158.157 -0.370918 -1.53173 0
M  V30 1511 C 159.404 0.217102 -2.01333 0
M  V30 1512 C 159.732 1.48338 -1.25802 0
M  V30 1513 O 158.987 1.92698 -0.34146 0
M  V30 1514 C 159.286 0.549696 -3.53147 0
M  V30 1515 C 158.952 -0.622872 -4.46577 0
M  V30 1516 C 157.614 -0.944595 -4.71838 0
M  V30 1517 C 159.966 -1.40819 -5.01816 0
M  V30 1518 C 157.294 -2.05351 -5.49589 0
M  V30 1519 C 159.646 -2.50757 -5.80778 0
M  V30 1520 C 158.31 -2.83458 -6.04324 0
M  V30 1521 H 157.58 0.0794431 -0.736729 0
M  V30 1522 H 160.227 -0.504481 -1.84736 0
M  V30 1523 H 158.532 1.35237 -3.6772 0
M  V30 1524 H 160.229 1.017 -3.87889 0
M  V30 1525 H 156.819 -0.36209 -4.27068 0
M  V30 1526 H 161.003 -1.17289 -4.82242 0
M  V30 1527 H 156.259 -2.3108 -5.6605 0
M  V30 1528 H 160.433 -3.12022 -6.22588 0
M  V30 1529 H 158.06 -3.69508 -6.64355 0
M  V30 1530 N 159.635 1.57281 -0.100228 0
M  V30 1531 C 160.881 1.94826 0.563101 0
M  V30 1532 C 161.214 0.982475 1.67514 0
M  V30 1533 O 160.489 0.0164069 1.94493 0
M  V30 1534 C 160.772 3.42453 1.11346 0
M  V30 1535 C 160.625 4.498 0.00612081 0
M  V30 1536 C 161.944 3.91506 2.01024 0
M  V30 1537 H 159.063 0.708428 0.203221 0
M  V30 1538 H 161.705 1.8922 -0.171979 0
M  V30 1539 H 159.855 3.47361 1.7399 0
M  V30 1540 H 161.527 4.57 -0.628357 0
M  V30 1541 H 159.77 4.28756 -0.659581 0
M  V30 1542 H 160.441 5.50306 0.432109 0
M  V30 1543 H 162.917 3.88784 1.48278 0
M  V30 1544 H 161.793 4.95358 2.36457 0
M  V30 1545 H 162.054 3.31099 2.92961 0
M  V30 1546 N 161.113 -0.173488 1.56642 0
M  V30 1547 C 162.023 -1.23482 1.99473 0
M  V30 1548 C 163.039 -1.48567 0.905752 0
M  V30 1549 O 164.215 -1.60758 1.21321 0
M  V30 1550 C 161.28 -2.55444 2.34413 0
M  V30 1551 C 160.341 -2.38241 3.57127 0
M  V30 1552 C 159.574 -3.63909 3.90392 0
M  V30 1553 O 159.797 -4.68996 3.24653 0
M  V30 1554 O 158.731 -3.58149 4.83749 0
M  V30 1555 H 162.557 -0.901279 2.90018 0
M  V30 1556 H 160.142 -0.380185 1.44482 0
M  V30 1557 H 162.024 -3.33292 2.57865 0
M  V30 1558 H 160.699 -2.88382 1.4703 0
M  V30 1559 H 159.606 -1.58431 3.38896 0
M  V30 1560 H 160.939 -2.10228 4.45045 0
M  V30 1561 N 162.591 -1.51276 -0.441967 0
M  V30 1562 C 163.523 -1.68444 -1.55433 0
M  V30 1563 C 164.536 -0.565187 -1.52674 0
M  V30 1564 O 165.725 -0.839356 -1.57534 0
M  V30 1565 C 162.825 -1.67966 -2.94348 0
M  V30 1566 C 161.998 -2.964 -3.21661 0
M  V30 1567 C 161.057 -2.88171 -4.40277 0
M  V30 1568 O 160.083 -3.62119 -4.39157 0
M  V30 1569 N 161.285 -2.03706 -5.43584 0
M  V30 1570 H 164.05 -2.644 -1.41112 0
M  V30 1571 H 161.611 -1.49104 -0.630838 0
M  V30 1572 H 163.603 -1.60035 -3.71713 0
M  V30 1573 H 162.173 -0.796225 -3.0229 0
M  V30 1574 H 161.393 -3.18234 -2.32638 0
M  V30 1575 H 162.681 -3.81427 -3.36736 0
M  V30 1576 H 162.079 -1.42995 -5.47329 0
M  V30 1577 H 160.636 -2.01658 -6.1982 0
M  V30 1578 N 164.069 0.697108 -1.41344 0
M  V30 1579 C 165.032 1.79281 -1.42797 0
M  V30 1580 C 166.032 1.57607 -0.318837 0
M  V30 1581 O 167.222 1.64309 -0.578642 0
M  V30 1582 C 164.354 3.17632 -1.23785 0
M  V30 1583 H 165.547 1.79385 -2.40335 0
M  V30 1584 H 163.1 0.904582 -1.27464 0
M  V30 1585 H 163.835 3.23167 -0.270814 0
M  V30 1586 H 163.62 3.34765 -2.04144 0
M  V30 1587 H 165.11 3.97617 -1.27633 0
M  V30 1588 N 165.547 1.27147 0.931209 0
M  V30 1589 C 166.457 1.11372 2.06478 0
M  V30 1590 C 167.473 0.044645 1.73943 0
M  V30 1591 O 168.649 0.250417 1.99837 0
M  V30 1592 C 165.714 0.758838 3.38294 0
M  V30 1593 C 164.775 1.90841 3.84549 0
M  V30 1594 C 164.008 1.57036 5.10074 0
M  V30 1595 O 164.231 0.476645 5.68405 0
M  V30 1596 O 163.165 2.40839 5.51616 0
M  V30 1597 H 166.991 2.06493 2.22698 0
M  V30 1598 H 164.576 1.06301 1.04978 0
M  V30 1599 H 166.458 0.574098 4.17471 0
M  V30 1600 H 165.133 -0.162879 3.2329 0
M  V30 1601 H 164.04 2.14819 3.06274 0
M  V30 1602 H 165.373 2.81021 4.04089 0
M  V30 1603 N 167.025 -1.13721 1.09112 0
M  V30 1604 C 167.988 -2.17222 0.731241 0
M  V30 1605 C 168.988 -1.59035 -0.237566 0
M  V30 1606 O 170.178 -1.74192 -0.0161704 0
M  V30 1607 C 167.31 -3.40804 0.0808443 0
M  V30 1608 H 168.503 -2.50573 1.64783 0
M  V30 1609 H 166.056 -1.28493 0.889897 0
M  V30 1610 H 166.791 -3.1304 -0.847127 0
M  V30 1611 H 166.576 -3.84306 0.777896 0
M  V30 1612 H 168.066 -4.1731 -0.155657 0
M  V30 1613 N 168.503 -0.877838 -1.30888 0
M  V30 1614 C 169.433 -0.35534 -2.3078 0
M  V30 1615 C 170.414 0.557994 -1.60687 0
M  V30 1616 O 171.599 0.473355 -1.88343 0
M  V30 1617 C 168.729 0.437221 -3.44537 0
M  V30 1618 C 167.683 -0.383715 -4.26276 0
M  V30 1619 C 167.009 0.535014 -5.32017 0
M  V30 1620 C 168.309 -1.62201 -4.96476 0
M  V30 1621 H 170.003 -1.19007 -2.74732 0
M  V30 1622 H 167.549 -0.573698 -1.32078 0
M  V30 1623 H 169.502 0.813334 -4.13477 0
M  V30 1624 H 168.226 1.30553 -2.99372 0
M  V30 1625 H 166.885 -0.741874 -3.59015 0
M  V30 1626 H 166.533 1.40083 -4.831 0
M  V30 1627 H 166.233 -0.0104211 -5.87599 0
M  V30 1628 H 167.757 0.907799 -6.03814 0
M  V30 1629 H 169.171 -1.31689 -5.5797 0
M  V30 1630 H 167.568 -2.10711 -5.61891 0
M  V30 1631 H 168.638 -2.37044 -4.23011 0
M  V30 1632 N 169.982 1.44106 -0.638065 0
M  V30 1633 C 170.929 2.30715 0.062701 0
M  V30 1634 C 171.899 1.43882 0.829883 0
M  V30 1635 O 173.084 1.72775 0.809532 0
M  V30 1636 C 170.224 3.29258 1.03358 0
M  V30 1637 C 169.337 4.31192 0.26409 0
M  V30 1638 C 168.472 5.16825 1.22741 0
M  V30 1639 C 167.511 6.10462 0.447475 0
M  V30 1640 N 166.648 6.8877 1.36161 0
M  V30 1641 H 171.488 2.90096 -0.681781 0
M  V30 1642 H 169.025 1.42925 -0.347988 0
M  V30 1643 H 170.983 3.84886 1.60992 0
M  V30 1644 H 169.613 2.71562 1.74511 0
M  V30 1645 H 168.665 3.77981 -0.428295 0
M  V30 1646 H 169.977 4.97619 -0.343052 0
M  V30 1647 H 169.131 5.77004 1.87487 0
M  V30 1648 H 167.87 4.50488 1.86847 0
M  V30 1649 H 166.875 5.49386 -0.213433 0
M  V30 1650 H 168.1 6.78837 -0.188968 0
M  V30 1651 H 166.046 6.25096 1.98975 0
M  V30 1652 H 165.963 7.51663 0.808656 0
M  V30 1653 H 167.231 7.53467 1.99769 0
M  V30 1654 N 171.46 0.379036 1.52974 0
M  V30 1655 C 172.423 -0.448865 2.24762 0
M  V30 1656 C 173.423 -0.998689 1.26027 0
M  V30 1657 O 174.613 -0.882313 1.50203 0
M  V30 1658 C 171.745 -1.62872 2.99476 0
M  V30 1659 H 172.938 0.179491 2.99362 0
M  V30 1660 H 170.491 0.13096 1.5575 0
M  V30 1661 H 171.226 -2.29479 2.29151 0
M  V30 1662 H 171.011 -1.24128 3.71934 0
M  V30 1663 H 172.501 -2.2151 3.5401 0
M  V30 1664 N 172.938 -1.57226 0.108567 0
M  V30 1665 C 173.885 -2.14756 -0.845481 0
M  V30 1666 C 174.855 -1.06971 -1.27068 0
M  V30 1667 O 176.04 -1.34827 -1.35005 0
M  V30 1668 C 173.18 -2.74298 -2.09415 0
M  V30 1669 C 172.293 -3.96358 -1.71826 0
M  V30 1670 C 171.428 -4.44021 -2.9158 0
M  V30 1671 C 170.467 -5.58637 -2.50181 0
M  V30 1672 N 169.604 -6.01091 -3.62814 0
M  V30 1673 H 174.444 -2.95961 -0.348035 0
M  V30 1674 H 171.981 -1.46226 -0.160106 0
M  V30 1675 H 173.939 -3.06945 -2.82561 0
M  V30 1676 H 172.569 -1.95801 -2.56636 0
M  V30 1677 H 171.621 -3.69939 -0.885947 0
M  V30 1678 H 172.933 -4.79504 -1.37394 0
M  V30 1679 H 172.087 -4.78522 -3.72963 0
M  V30 1680 H 170.826 -3.59803 -3.29231 0
M  V30 1681 H 169.831 -5.23751 -1.67228 0
M  V30 1682 H 171.056 -6.44613 -2.13659 0
M  V30 1683 H 169.002 -5.19817 -4.00158 0
M  V30 1684 H 168.919 -6.79066 -3.32273 0
M  V30 1685 H 170.187 -6.40227 -4.44668 0
M  V30 1686 N 174.416 0.165178 -1.56732 0
M  V30 1687 C 175.664 0.879068 -1.8198 0
M  V30 1688 C 175.985 1.82514 -0.686561 0
M  V30 1689 O 175.255 1.93694 0.293146 0
M  V30 1690 H 173.835 0.327608 -0.671329 0
M  V30 1691 H 176.497 0.163526 -1.94213 0
M  V30 1692 H 175.593 1.45228 -2.76252 0
M  V30 1693 N 175.894 1.51508 0.433938 0
M  V30 1694 C 177.14 1.64588 1.18484 0
M  V30 1695 C 177.473 0.362666 1.90784 0
M  V30 1696 O 176.748 -0.637892 1.83742 0
M  V30 1697 C 177.031 2.85149 2.19913 0
M  V30 1698 C 176.884 4.23456 1.51674 0
M  V30 1699 C 178.203 3.01227 3.20858 0
M  V30 1700 H 175.322 0.598994 0.429389 0
M  V30 1701 H 177.964 1.84002 0.473647 0
M  V30 1702 H 176.114 2.68729 2.80566 0
M  V30 1703 H 177.786 4.51552 0.943322 0
M  V30 1704 H 176.029 4.25998 0.819035 0
M  V30 1705 H 176.7 5.03812 2.2556 0
M  V30 1706 H 179.176 3.16382 2.70263 0
M  V30 1707 H 178.052 3.87141 3.89118 0
M  V30 1708 H 178.313 2.13447 3.8716 0
M  V30 1709 N 177.372 -0.689602 1.41712 0
M  V30 1710 C 178.304 -1.815 1.39966 0
M  V30 1711 C 179.317 -1.59995 0.300917 0
M  V30 1712 O 180.506 -1.69387 0.563039 0
M  V30 1713 C 177.606 -3.18364 1.16179 0
M  V30 1714 C 176.779 -3.66847 2.38206 0
M  V30 1715 C 175.838 -4.82398 2.10186 0
M  V30 1716 O 174.864 -4.93706 2.83272 0
M  V30 1717 N 176.066 -5.70064 1.0958 0
M  V30 1718 H 178.831 -1.83488 2.36965 0
M  V30 1719 H 176.392 -0.872149 1.36401 0
M  V30 1720 H 178.384 -3.93301 0.953756 0
M  V30 1721 H 176.954 -3.11365 0.27756 0
M  V30 1722 H 176.174 -2.82751 2.74673 0
M  V30 1723 H 177.462 -3.95978 3.19498 0
M  V30 1724 H 176.86 -5.63565 0.491019 0
M  V30 1725 H 175.417 -6.44874 0.947656 0
M  V30 1726 N 178.85 -1.27639 -0.924453 0
M  V30 1727 C 180.096 -1.14336 -1.67497 0
M  V30 1728 C 180.429 0.309465 -1.91718 0
M  V30 1729 O 179.704 1.22608 -1.50989 0
M  V30 1730 C 179.987 -1.93096 -3.0395 0
M  V30 1731 C 179.84 -3.46381 -2.8695 0
M  V30 1732 C 181.159 -1.73798 -4.0433 0
M  V30 1733 H 178.278 -0.416728 -0.607871 0
M  V30 1734 H 180.92 -1.56832 -1.07256 0
M  V30 1735 H 179.07 -1.56982 -3.55372 0
M  V30 1736 H 180.742 -3.92343 -2.42621 0
M  V30 1737 H 178.985 -3.72557 -2.22225 0
M  V30 1738 H 179.656 -3.96735 -3.83804 0
M  V30 1739 H 182.132 -2.05293 -3.61931 0
M  V30 1740 H 181.008 -2.31294 -4.97789 0
M  V30 1741 H 181.269 -0.686725 -4.36734 0
M  V30 1742 N 180.328 1.1314 -1.09713 0
M  V30 1743 C 181.574 1.84757 -0.836224 0
M  V30 1744 C 181.907 1.8347 0.636598 0
M  V30 1745 O 181.182 1.27491 1.46889 0
M  V30 1746 C 181.465 3.32782 -1.37578 0
M  V30 1747 C 181.318 3.42567 -2.91493 0
M  V30 1748 C 182.637 4.28307 -1.01198 0
M  V30 1749 H 179.756 0.67082 -0.305236 0
M  V30 1750 H 182.398 1.3278 -1.35903 0
M  V30 1751 H 180.548 3.77177 -0.931097 0
M  V30 1752 H 182.22 3.06862 -3.44432 0
M  V30 1753 H 180.463 2.83349 -3.28475 0
M  V30 1754 H 181.134 4.46674 -3.24324 0
M  V30 1755 H 183.61 3.91999 -1.39556 0
M  V30 1756 H 182.486 5.30307 -1.41653 0
M  V30 1757 H 182.747 4.42029 0.0794833 0
M  V30 1758 N 181.806 0.884767 1.30421 0
M  V30 1759 C 182.769 0.356277 2.26414 0
M  V30 1760 C 183.769 -0.501124 1.52792 0
M  V30 1761 O 184.959 -0.30831 1.7145 0
M  V30 1762 C 182.091 -0.492316 3.37326 0
M  V30 1763 H 183.284 1.20389 2.74675 0
M  V30 1764 H 180.837 0.661607 1.41607 0
M  V30 1765 H 181.572 -1.36052 2.94381 0
M  V30 1766 H 181.357 0.121832 3.91911 0
M  V30 1767 H 182.847 -0.853871 4.08777 0
M  V30 1768 N 183.284 -1.43765 0.645699 0
M  V30 1769 C 184.524 -2.03776 0.159542 0
M  V30 1770 C 184.888 -1.49792 -1.2011 0
M  V30 1771 O 186.089 -2.01398 -1.78023 0
M  V30 1772 C 184.36 -3.57036 0.161251 0
M  V30 1773 S 185.919 -4.3804 -0.258159 0
M  V30 1774 H 182.737 -0.707717 0.0682454 0
M  V30 1775 H 185.339 -1.75941 0.852352 0
M  V30 1776 H 184.043 -3.9383 1.15439 0
M  V30 1777 H 183.574 -3.89503 -0.552339 0
M  V30 1778 H 185.589 -4.7302 -1.49889 0
M  V30 1779 N 184.763 -0.387143 -1.52771 0
M  V30 1780 C 185.693 0.440551 -2.29306 0
M  V30 1781 C 186.674 1.06535 -1.32606 0
M  V30 1782 O 187.859 1.07853 -1.61497 0
M  V30 1783 C 184.989 1.56919 -3.09829 0
M  V30 1784 C 183.943 1.07054 -4.14395 0
M  V30 1785 C 183.269 2.29109 -4.83129 0
M  V30 1786 C 184.569 0.140015 -5.22112 0
M  V30 1787 H 186.263 -0.198026 -2.98744 0
M  V30 1788 H 183.809 -0.09668 -1.43675 0
M  V30 1789 H 185.762 2.15503 -3.62128 0
M  V30 1790 H 184.486 2.23532 -2.3812 0
M  V30 1791 H 183.145 0.507247 -3.63074 0
M  V30 1792 H 182.793 2.94227 -4.0797 0
M  V30 1793 H 182.493 1.96406 -5.53804 0
M  V30 1794 H 184.017 2.88339 -5.38231 0
M  V30 1795 H 185.431 0.633978 -5.69784 0
M  V30 1796 H 183.828 -0.0971485 -6.00021 0
M  V30 1797 H 184.898 -0.811711 -4.78058 0
M  V30 1798 N 186.241 1.57166 -0.116904 0
M  V30 1799 C 187.466 1.999 0.55271 0
M  V30 1800 C 187.891 0.996039 1.59564 0
M  V30 1801 O 187.249 -0.032556 1.81271 0
M  V30 1802 C 187.297 3.4152 1.15742 0
M  V30 1803 O 186.401 3.44106 2.27299 0
M  V30 1804 H 185.742 0.649447 0.138258 0
M  V30 1805 H 188.272 2.03573 -0.204759 0
M  V30 1806 H 188.282 3.79684 1.49346 0
M  V30 1807 H 186.957 4.14034 0.393493 0
M  V30 1808 H 185.534 3.17759 1.9515 0
M  V30 1809 N 187.719 -0.156864 1.56817 0
M  V30 1810 C 188.965 -0.872416 1.83076 0
M  V30 1811 C 189.298 -1.81261 0.697001 0
M  V30 1812 O 188.573 -1.92171 -0.30008 0
M  V30 1813 C 188.856 -1.65551 3.19789 0
M  V30 1814 C 188.709 -0.737467 4.43713 0
M  V30 1815 C 190.028 -2.62012 3.53606 0
M  V30 1816 H 187.147 -0.315715 0.665953 0
M  V30 1817 H 189.789 -0.138004 1.89498 0
M  V30 1818 H 187.939 -2.28159 3.14445 0
M  V30 1819 H 189.611 -0.123143 4.61136 0
M  V30 1820 H 187.854 -0.0464067 4.33775 0
M  V30 1821 H 188.525 -1.32122 5.35955 0
M  V30 1822 H 191.001 -2.09525 3.59497 0
M  V30 1823 H 189.877 -3.13861 4.50314 0
M  V30 1824 H 190.138 -3.42902 2.79053 0
M  V30 1825 N 189.197 -1.51736 -0.425897 0
M  V30 1826 C 190.145 -1.74464 -1.53834 0
M  V30 1827 C 191.139 -0.611241 -1.57988 0
M  V30 1828 O 192.345 -0.792899 -1.61596 0
M  V30 1829 H 188.72 -0.551437 -0.511293 0
M  V30 1830 H 190.691 -2.67694 -1.31843 0
M  V30 1831 C 189.44 -1.8972 -2.91379 0
M  V30 1832 H 188.763 -2.76344 -2.88919 0
M  V30 1833 H 190.203 -2.09629 -3.68553 0
M  V30 1834 C 188.662 -0.65992 -3.30374 0
M  V30 1835 O 189.192 0.180083 -4.01296 0
M  V30 1836 N 187.398 -0.500677 -2.86254 0
M  V30 1837 H 186.945 -1.18532 -2.28709 0
M  V30 1838 H 186.903 0.325903 -3.12706 0
M  V30 1839 N 190.675 0.682077 -1.42076 0
M  V30 1840 C 191.952 1.43755 -1.32642 0
M  V30 1841 C 192.332 2.11063 0.0396611 0
M  V30 1842 O 191.68 2.02701 1.05474 0
M  V30 1843 C 191.89 2.44596 -2.48946 0
M  V30 1844 C 193.238 3.09454 -2.9073 0
M  V30 1845 O 194.262 2.54922 -2.48783 0
M  V30 1846 O 193.121 4.08253 -3.63307 0
M  V30 1847 H 190.215 0.640857 -0.522715 0
M  V30 1848 H 192.761 0.711415 -1.54068 0
M  V30 1849 H 191.533 1.93609 -3.40046 0
M  V30 1850 H 191.156 3.24701 -2.29467 0
M  V30 1851 N 192.153 1.28127 0.917671 0
M  V30 1852 C 193.116 1.11744 2.00115 0
M  V30 1853 C 194.116 0.0583052 1.60694 0
M  V30 1854 O 195.306 0.303755 1.71531 0
M  V30 1855 C 192.438 0.704862 3.33533 0
M  V30 1856 H 193.631 2.07966 2.16079 0
M  V30 1857 H 191.184 1.11058 1.09981 0
M  V30 1858 H 191.919 -0.258299 3.2327 0
M  V30 1859 H 191.704 1.4699 3.63505 0
M  V30 1860 H 193.194 0.612768 4.1308 0
M  V30 1861 N 193.631 -1.12557 1.10312 0
M  V30 1862 C 194.878 -1.84038 0.844759 0
M  V30 1863 C 195.206 -1.84026 -0.629668 0
M  V30 1864 O 194.461 -1.28026 -1.48013 0
M  V30 1865 C 194.76 -3.31462 1.33669 0
M  V30 1866 C 194.426 -3.51647 2.82232 0
M  V30 1867 C 193.088 -3.56864 3.22802 0
M  V30 1868 C 195.44 -3.58867 3.77974 0
M  V30 1869 C 192.768 -3.66844 4.57867 0
M  V30 1870 C 195.12 -3.70375 5.1284 0
M  V30 1871 C 193.784 -3.73848 5.52986 0
M  V30 1872 H 193.054 -0.673444 0.309119 0
M  V30 1873 H 195.701 -1.32824 1.37949 0
M  V30 1874 H 194.006 -3.85091 0.721949 0
M  V30 1875 H 195.703 -3.85236 1.11329 0
M  V30 1876 H 192.293 -3.48249 2.49842 0
M  V30 1877 H 196.477 -3.54107 3.47738 0
M  V30 1878 H 191.733 -3.67804 4.88396 0
M  V30 1879 H 195.907 -3.74904 5.86873 0
M  V30 1880 H 193.534 -3.81333 6.57639 0
M  V30 1881 N 195.109 -0.891671 -1.2995 0
M  V30 1882 C 196.355 -0.514261 -1.96171 0
M  V30 1883 C 196.688 0.935506 -1.70182 0
M  V30 1884 O 195.963 1.66204 -1.01028 0
M  V30 1885 C 196.246 -0.797719 -3.51153 0
M  V30 1886 C 196.099 -2.2986 -3.86632 0
M  V30 1887 C 197.418 -0.278749 -4.39216 0
M  V30 1888 H 194.537 -0.188314 -0.712535 0
M  V30 1889 H 197.179 -1.11689 -1.53706 0
M  V30 1890 H 195.329 -0.284826 -3.87455 0
M  V30 1891 H 197.001 -2.88042 -3.60319 0
M  V30 1892 H 195.244 -2.76257 -3.34462 0
M  V30 1893 H 195.915 -2.44753 -4.94773 0
M  V30 1894 H 198.391 -0.717825 -4.09862 0
M  V30 1895 H 197.267 -0.506353 -5.46559 0
M  V30 1896 H 197.528 0.820266 -4.34424 0
M  V30 1897 N 196.587 1.43421 -0.653314 0
M  V30 1898 C 197.815 2.06163 -0.174491 0
M  V30 1899 C 198.23 1.48969 1.1599 0
M  V30 1900 O 197.587 0.621042 1.71608 0
M  V30 1901 C 197.638 3.61417 -0.0774865 0
M  V30 1902 O 197.359 4.16485 -1.35912 0
M  V30 1903 C 198.86 4.41235 0.427402 0
M  V30 1904 H 196.08 0.664946 -0.0899353 0
M  V30 1905 H 198.624 1.83924 -0.893988 0
M  V30 1906 H 196.779 3.82841 0.59257 0
M  V30 1907 H 197.193 5.10153 -1.21839 0
M  V30 1908 H 198.667 5.5021 0.44423 0
M  V30 1909 H 199.144 4.14268 1.45873 0
M  V30 1910 H 199.75 4.2478 -0.210167 0
M  V30 1911 N 198.065 0.39524 1.52563 0
M  V30 1912 C 199.313 -0.184678 2.01254 0
M  V30 1913 C 199.634 -1.46822 1.28329 0
M  V30 1914 O 198.904 -1.91666 0.405094 0
M  V30 1915 H 197.484 -0.0712355 0.743596 0
M  V30 1916 H 200.146 0.528293 1.87603 0
M  V30 1917 H 199.242 -0.390681 3.09645 0
M  V30 1918 N 199.544 -1.57102 0.125237 0
M  V30 1919 C 200.454 -2.19191 -0.8362 0
M  V30 1920 C 201.47 -1.16985 -1.28805 0
M  V30 1921 O 202.646 -1.49479 -1.34974 0
M  V30 1922 C 199.711 -2.78407 -2.06617 0
M  V30 1923 C 198.772 -3.9567 -1.66565 0
M  V30 1924 C 198.005 -4.52052 -2.83698 0
M  V30 1925 O 198.228 -4.07326 -3.99302 0
M  V30 1926 O 197.162 -5.42645 -2.60423 0
M  V30 1927 H 200.988 -3.01816 -0.337776 0
M  V30 1928 H 198.573 -1.4906 -0.100695 0
M  V30 1929 H 200.455 -3.16129 -2.7864 0
M  V30 1930 H 199.13 -1.9881 -2.55453 0
M  V30 1931 H 198.037 -3.62705 -0.916296 0
M  V30 1932 H 199.37 -4.76722 -1.22464 0
M  V30 1933 N 201.022 0.148545 -1.56898 0
M  V30 1934 C 202.268 0.857877 -1.84424 0
M  V30 1935 C 202.623 1.7886 -0.709006 0
M  V30 1936 O 201.916 1.89344 0.293139 0
M  V30 1937 C 202.11 1.67064 -3.1595 0
M  V30 1938 C 201.939 0.82011 -4.42159 0
M  V30 1939 C 200.709 0.486328 -5.02954 0
M  V30 1940 C 202.907 0.151155 -5.14078 0
M  V30 1941 N 200.889 -0.377956 -6.12735 0
M  V30 1942 C 202.26 -0.573333 -6.17343 0
M  V30 1943 C 204.315 0.0716685 -4.97848 0
M  V30 1944 C 203.018 -1.3698 -7.06137 0
M  V30 1945 C 205.044 -0.711532 -5.87104 0
M  V30 1946 C 204.406 -1.42431 -6.8985 0
M  V30 1947 H 200.505 0.291798 -0.725519 0
M  V30 1948 H 203.089 0.123347 -1.94309 0
M  V30 1949 H 201.26 2.37642 -3.07215 0
M  V30 1950 H 202.992 2.32302 -3.31388 0
M  V30 1951 H 199.747 0.821753 -4.66416 0
M  V30 1952 H 200.171 -0.801077 -6.72244 0
M  V30 1953 H 204.813 0.608381 -4.184 0
M  V30 1954 H 202.531 -1.91778 -7.85014 0
M  V30 1955 H 206.117 -0.775005 -5.76615 0
M  V30 1956 H 204.997 -2.02061 -7.57721 0
M  V30 1957 N 202.5 1.5196 0.417844 0
M  V30 1958 C 203.748 1.65263 1.16329 0
M  V30 1959 C 204.069 0.380634 1.91249 0
M  V30 1960 O 203.339 -0.604214 1.86349 0
M  V30 1961 H 201.919 0.60912 0.432414 0
M  V30 1962 H 204.581 1.88969 0.477162 0
M  V30 1963 H 203.677 2.4896 1.88217 0
M  V30 1964 N 203.978 -0.674533 1.42435 0
M  V30 1965 C 205.394 -0.98769 1.25367 0
M  V30 1966 C 205.594 -2.00879 0.158044 0
M  V30 1967 O 204.65 -2.48075 -0.470633 0
M  V30 1968 C 205.963 -1.49224 2.6106 0
M  V30 1969 C 207.511 -1.61 2.68417 0
M  V30 1970 C 207.986 -2.14852 4.04478 0
M  V30 1971 N 209.477 -2.22185 4.06434 0
M  V30 1972 C 210.212 -2.64928 5.08528 0
M  V30 1973 N 209.708 -3.07121 6.21006 0
M  V30 1974 N 211.501 -2.64679 4.95885 0
M  V30 1975 H 203.652 0.00152503 2.124 0
M  V30 1976 H 205.915 -0.0618434 0.945981 0
M  V30 1977 H 205.621 -0.816453 3.42092 0
M  V30 1978 H 205.495 -2.47094 2.84999 0
M  V30 1979 H 207.882 -2.27686 1.87732 0
M  V30 1980 H 207.963 -0.616195 2.48267 0
M  V30 1981 H 207.607 -1.48775 4.85622 0
M  V30 1982 H 207.537 -3.15024 4.2198 0
M  V30 1983 H 210.028 -1.92435 3.25234 0
M  V30 1984 H 210.341 -3.38423 6.94759 0
M  V30 1985 H 208.686 -3.04978 6.24511 0
M  V30 1986 H 211.877 -2.31078 4.07088 0
M  V30 1987 H 212.05 -2.9767 5.75584 0
M  V30 1988 N 205.456 -1.28612 -0.910864 0
M  V30 1989 C 206.419 -1.12803 -1.9952 0
M  V30 1990 C 207.419 -0.0668264 -1.60661 0
M  V30 1991 O 208.609 -0.312847 -1.71368 0
M  V30 1992 C 205.741 -0.72254 -3.33155 0
M  V30 1993 H 206.934 -2.09109 -2.14973 0
M  V30 1994 H 204.487 -1.11639 -1.09391 0
M  V30 1995 H 205.222 0.241152 -3.23402 0
M  V30 1996 H 205.007 -1.48916 -3.62721 0
M  V30 1997 H 206.497 -0.634666 -4.12749 0
M  V30 1998 N 206.934 1.1197 -1.10907 0
M  V30 1999 C 207.884 2.15946 -0.731538 0
M  V30 2000 C 208.868 1.58758 0.261699 0
M  V30 2001 O 210.06 1.76863 0.0696722 0
M  V30 2002 C 207.189 3.42877 -0.170299 0
M  V30 2003 C 206.275 4.07037 -1.19087 0
M  V30 2004 N 206.666 4.46135 -2.38322 0
M  V30 2005 C 204.964 4.33884 -1.03252 0
M  V30 2006 C 205.665 4.96331 -3.03366 0
M  V30 2007 N 204.641 4.9214 -2.30865 0
M  V30 2008 H 208.443 2.43947 -1.63912 0
M  V30 2009 H 205.957 1.28927 -0.987505 0
M  V30 2010 H 207.954 4.16732 0.118271 0
M  V30 2011 H 206.614 3.16343 0.731935 0
M  V30 2012 H 207.625 4.38345 -2.75815 0
M  V30 2013 H 204.302 4.17084 -0.186256 0
M  V30 2014 H 205.692 5.36257 -4.04818 0
M  V30 2015 N 208.412 0.89855 1.29475 0
M  V30 2016 C 209.359 0.373819 2.27753 0
M  V30 2017 C 210.329 -0.543444 1.56958 0
M  V30 2018 O 211.514 -0.468934 1.84948 0
M  V30 2019 C 208.654 -0.393648 3.42848 0
M  V30 2020 C 207.767 0.554379 4.28428 0
M  V30 2021 C 206.902 -0.230026 5.30702 0
M  V30 2022 C 205.941 0.712599 6.07938 0
M  V30 2023 N 205.078 -0.0373283 7.0209 0
M  V30 2024 H 209.918 1.21699 2.72017 0
M  V30 2025 H 207.455 0.611456 1.33789 0
M  V30 2026 H 209.413 -0.85466 4.08352 0
M  V30 2027 H 208.043 -1.20128 2.99615 0
M  V30 2028 H 207.095 1.13391 3.63107 0
M  V30 2029 H 208.407 1.27597 4.82204 0
M  V30 2030 H 207.561 -0.752288 6.02018 0
M  V30 2031 H 206.3 -0.984758 4.77654 0
M  V30 2032 H 205.305 1.24637 5.35486 0
M  V30 2033 H 206.53 1.46664 6.63074 0
M  V30 2034 H 204.476 -0.774348 6.51414 0
M  V30 2035 H 204.393 0.624374 7.53417 0
M  V30 2036 H 205.661 -0.539891 7.77628 0
M  V30 2037 N 209.89 -1.43072 0.660911 0
M  V30 2038 C 210.853 -2.29194 -0.0166406 0
M  V30 2039 C 211.853 -1.42609 -0.742912 0
M  V30 2040 O 213.043 -1.64155 -0.583004 0
M  V30 2041 C 210.175 -3.24831 -1.0343 0
M  V30 2042 H 211.368 -2.90596 0.741208 0
M  V30 2043 H 208.921 -1.5048 0.422532 0
M  V30 2044 H 209.656 -2.68339 -1.82111 0
M  V30 2045 H 209.441 -3.88676 -0.517082 0
M  V30 2046 H 210.931 -3.89451 -1.50723 0
M  V30 2047 N 211.368 -0.403325 -1.52352 0
M  V30 2048 C 212.278 0.432009 -2.30588 0
M  V30 2049 C 213.294 1.05884 -1.38075 0
M  V30 2050 O 214.47 1.06161 -1.71148 0
M  V30 2051 C 211.535 1.53669 -3.10784 0
M  V30 2052 C 210.596 0.933525 -4.19027 0
M  V30 2053 C 209.829 1.98557 -4.9539 0
M  V30 2054 O 210.052 3.20283 -4.71991 0
M  V30 2055 O 208.986 1.59504 -5.80381 0
M  V30 2056 H 212.812 -0.205739 -3.03002 0
M  V30 2057 H 210.397 -0.166675 -1.48467 0
M  V30 2058 H 212.279 2.17814 -3.60742 0
M  V30 2059 H 210.954 2.15915 -2.41169 0
M  V30 2060 H 209.861 0.254954 -3.7323 0
M  V30 2061 H 211.194 0.35508 -4.90918 0
M  V30 2062 N 212.846 1.57033 -0.133567 0
M  V30 2063 C 214.094 1.953 0.519848 0
M  V30 2064 C 214.415 1.01866 1.66278 0
M  V30 2065 O 213.685 0.0776513 1.95746 0
M  V30 2066 H 212.265 0.721091 0.195032 0
M  V30 2067 H 214.927 1.93809 -0.205921 0
M  V30 2068 H 214.023 2.98695 0.904854 0
M  V30 2069 N 214.325 -0.140222 1.56975 0
M  V30 2070 C 215.272 -1.17292 1.98774 0
M  V30 2071 C 216.242 -1.4232 0.856408 0
M  V30 2072 O 217.427 -1.54541 1.119 0
M  V30 2073 C 214.567 -2.49973 2.37923 0
M  V30 2074 C 213.68 -2.32062 3.64378 0
M  V30 2075 C 212.815 -3.57825 3.926 0
M  V30 2076 C 211.854 -3.3498 5.12303 0
M  V30 2077 N 210.991 -4.52891 5.36502 0
M  V30 2078 H 215.831 -0.809472 2.86795 0
M  V30 2079 H 213.368 -0.388237 1.41884 0
M  V30 2080 H 215.326 -3.27346 2.58652 0
M  V30 2081 H 213.956 -2.84252 1.52972 0
M  V30 2082 H 213.008 -1.45711 3.51387 0
M  V30 2083 H 214.32 -2.11145 4.51906 0
M  V30 2084 H 213.474 -4.43624 4.13863 0
M  V30 2085 H 212.213 -3.81753 3.03506 0
M  V30 2086 H 211.218 -2.4757 4.90906 0
M  V30 2087 H 212.443 -3.12444 6.02956 0
M  V30 2088 H 210.389 -4.76979 4.50363 0
M  V30 2089 H 210.306 -4.35001 6.18312 0
M  V30 2090 H 211.574 -5.39884 5.62268 0
M  V30 2091 N 215.803 -1.52179 -0.40978 0
M  V30 2092 C 217.049 -1.66453 -1.15851 0
M  V30 2093 C 217.382 -0.392972 -1.90182 0
M  V30 2094 O 216.657 0.608579 -1.84734 0
M  V30 2095 C 216.94 -2.88612 -2.15349 0
M  V30 2096 C 216.793 -4.25815 -1.44918 0
M  V30 2097 C 218.112 -3.06294 -3.16026 0
M  V30 2098 H 215.231 -0.60575 -0.419805 0
M  V30 2099 H 217.873 -1.84732 -0.444314 0
M  V30 2100 H 216.023 -2.73158 -2.76255 0
M  V30 2101 H 217.695 -4.52995 -0.871365 0
M  V30 2102 H 215.938 -4.27247 -0.751159 0
M  V30 2103 H 216.609 -5.07337 -2.17516 0
M  V30 2104 H 219.085 -3.20641 -2.65195 0
M  V30 2105 H 217.961 -3.93283 -3.8291 0
M  V30 2106 H 218.222 -2.19579 -3.83715 0
M  V30 2107 N 217.281 0.66697 -1.42791 0
M  V30 2108 C 218.697 0.981027 -1.25889 0
M  V30 2109 C 218.897 2.00793 -0.168695 0
M  V30 2110 O 217.953 2.48321 0.45747 0
M  V30 2111 C 219.266 1.47838 -2.61848 0
M  V30 2112 C 220.814 1.59575 -2.69267 0
M  V30 2113 C 221.289 2.12704 -4.05612 0
M  V30 2114 N 222.78 2.20026 -4.07606 0
M  V30 2115 C 223.515 2.62227 -5.09926 0
M  V30 2116 N 223.011 3.03824 -6.22626 0
M  V30 2117 N 224.804 2.62045 -4.97281 0
M  V30 2118 H 216.955 -0.0127891 -2.12396 0
M  V30 2119 H 219.218 0.0568258 -0.946295 0
M  V30 2120 H 218.924 0.798299 -3.4252 0
M  V30 2121 H 218.798 2.45579 -2.86305 0
M  V30 2122 H 221.185 2.26687 -1.88936 0
M  V30 2123 H 221.266 0.60302 -2.48591 0
M  V30 2124 H 220.91 1.46198 -4.86404 0
M  V30 2125 H 220.84 3.12782 -4.23645 0
M  V30 2126 H 223.331 1.90708 -3.2625 0
M  V30 2127 H 223.644 3.34734 -6.96544 0
M  V30 2128 H 221.989 3.01662 -6.26119 0
M  V30 2129 H 225.18 2.28916 -4.08308 0
M  V30 2130 H 225.353 2.94613 -5.77154 0
M  V30 2131 N 218.759 1.29093 0.90403 0
M  V30 2132 C 219.689 1.16401 2.02418 0
M  V30 2133 C 220.67 0.0593085 1.69997 0
M  V30 2134 O 221.855 0.238021 1.92736 0
M  V30 2135 C 218.985 0.835233 3.37107 0
M  V30 2136 C 217.939 1.89578 3.83724 0
M  V30 2137 C 217.265 1.42041 5.15489 0
M  V30 2138 C 218.565 3.30394 4.04521 0
M  V30 2139 H 220.259 2.10109 2.13295 0
M  V30 2140 H 217.805 1.01157 1.02486 0
M  V30 2141 H 219.758 0.733169 4.14973 0
M  V30 2142 H 218.482 -0.137543 3.2631 0
M  V30 2143 H 217.141 1.98715 3.08071 0
M  V30 2144 H 216.789 0.436426 5.01103 0
M  V30 2145 H 216.489 2.12964 5.4765 0
M  V30 2146 H 218.013 1.33176 5.959 0
M  V30 2147 H 219.427 3.24123 4.72882 0
M  V30 2148 H 217.824 3.99237 4.48029 0
M  V30 2149 H 218.894 3.73692 3.09002 0
M  V30 2150 N 220.237 -1.11381 1.11499 0
M  V30 2151 C 221.167 -2.19509 0.796125 0
M  V30 2152 C 222.148 -1.68458 -0.235796 0
M  V30 2153 O 223.333 -1.93947 -0.0991344 0
M  V30 2154 C 220.463 -3.46475 0.239205 0
M  V30 2155 C 219.417 -4.10744 1.20307 0
M  V30 2156 C 218.743 -5.32293 0.50683 0
M  V30 2157 C 220.043 -4.55597 2.55399 0
M  V30 2158 H 221.737 -2.46439 1.70024 0
M  V30 2159 H 219.283 -1.18446 0.818935 0
M  V30 2160 H 221.236 -4.214 0.00392006 0
M  V30 2161 H 219.96 -3.19006 -0.700206 0
M  V30 2162 H 218.619 -3.37813 1.42399 0
M  V30 2163 H 218.267 -5.01095 -0.437408 0
M  V30 2164 H 217.967 -5.76243 1.1497 0
M  V30 2165 H 219.491 -6.09956 0.280351 0
M  V30 2166 H 220.905 -5.21841 2.37391 0
M  V30 2167 H 219.302 -5.10363 3.15673 0
M  V30 2168 H 220.372 -3.69013 3.14575 0
M  V30 2169 N 221.715 -0.905404 -1.28997 0
M  V30 2170 C 222.678 -0.392253 -2.25819 0
M  V30 2171 C 223.678 0.476753 -1.5357 0
M  V30 2172 O 224.868 0.280994 -1.71919 0
M  V30 2173 C 222 0.438588 -3.38067 0
M  V30 2174 H 223.193 -1.24743 -2.72725 0
M  V30 2175 H 220.746 -0.684051 -1.40536 0
M  V30 2176 H 221.481 1.31352 -2.96508 0
M  V30 2177 H 221.266 -0.184167 -3.91667 0
M  V30 2178 H 222.756 0.78873 -4.10084 0
M  V30 2179 N 223.193 1.4272 -0.668489 0
M  V30 2180 C 224.47 1.95248 -0.117373 0
M  V30 2181 C 224.85 1.60919 1.36632 0
M  V30 2182 O 224.198 0.902095 2.09939 0
M  V30 2183 C 224.408 3.46927 -0.379806 0
M  V30 2184 C 225.756 4.23588 -0.292923 0
M  V30 2185 O 226.78 3.5482 -0.313204 0
M  V30 2186 O 225.639 5.46017 -0.229697 0
M  V30 2187 H 222.733 0.827 0.00079152 0
M  V30 2188 H 225.279 1.52581 -0.742783 0
M  V30 2189 H 224.051 3.65096 -1.40786 0
M  V30 2190 H 223.674 3.96627 0.277923 0
M  V30 2191 N 224.671 0.411399 1.52136 0
M  V30 2192 C 226.082 -0.0576826 1.86611 0
M  V30 2193 C 226.433 -1.44238 1.33003 0
M  V30 2194 O 225.558 -2.05759 0.670228 0
M  V30 2195 C 226.153 -0.111448 3.38617 0
M  V30 2196 C 224.712 -0.52487 3.72723 0
M  V30 2197 C 223.859 0.299176 2.75681 0
M  V30 2198 H 226.81 0.628368 1.4573 0
M  V30 2199 H 226.831 -0.926252 3.69054 0
M  V30 2200 H 226.343 0.896488 3.77604 0
M  V30 2201 H 224.444 -1.53936 3.39315 0
M  V30 2202 H 224.557 -0.267681 4.78352 0
M  V30 2203 H 222.921 -0.238814 2.53578 0
M  V30 2204 H 223.704 1.3055 3.17508 0
M  V30 2205 N 226.149 -1.5696 0.141893 0
M  V30 2206 C 227.377 -2.00322 -0.517579 0
M  V30 2207 C 227.792 -1.02193 -1.58752 0
M  V30 2208 O 227.149 -0.0181619 -1.82491 0
M  V30 2209 C 227.2 -3.43618 -1.12289 0
M  V30 2210 O 226.921 -4.37995 -0.0956929 0
M  V30 2211 C 228.422 -4.02231 -1.86347 0
M  V30 2212 H 225.642 -0.657243 -0.135177 0
M  V30 2213 H 228.186 -2.03146 0.234973 0
M  V30 2214 H 226.341 -3.41662 -1.82609 0
M  V30 2215 H 226.755 -5.21729 -0.538469 0
M  V30 2216 H 228.229 -5.04509 -2.23997 0
M  V30 2217 H 228.706 -3.42655 -2.74744 0
M  V30 2218 H 229.312 -4.07802 -1.20737 0
M  V30 2219 N 227.627 0.131896 -1.57047 0
M  V30 2220 C 228.875 0.840269 -1.83804 0
M  V30 2221 C 229.196 1.81017 -0.72512 0
M  V30 2222 O 228.466 1.94272 0.251995 0
M  V30 2223 H 227.046 0.313294 -0.678127 0
M  V30 2224 H 229.708 0.122294 -1.94516 0
M  V30 2225 H 228.804 1.39335 -2.79271 0
M  V30 2226 N 229.106 1.52395 0.401703 0
M  V30 2227 C 230.069 1.75636 1.47257 0
M  V30 2228 C 231.069 0.62628 1.48103 0
M  V30 2229 O 232.259 0.894227 1.49497 0
M  V30 2230 C 229.391 1.84553 2.86624 0
M  V30 2231 H 230.584 2.71241 1.27938 0
M  V30 2232 H 228.137 1.42923 0.632662 0
M  V30 2233 H 228.872 0.908882 3.11303 0
M  V30 2234 H 228.657 2.66715 2.87412 0
M  V30 2235 H 230.147 2.04251 3.64241 0
M  V30 2236 N 230.584 -0.659388 1.43143 0
M  V30 2237 C 231.831 -1.41935 1.44433 0
M  V30 2238 C 232.159 -1.94387 0.0663522 0
M  V30 2239 O 231.414 -1.72314 -0.927706 0
M  V30 2240 C 231.713 -2.62206 2.42864 0
M  V30 2241 C 231.379 -2.28208 3.88886 0
M  V30 2242 C 230.041 -2.18647 4.28657 0
M  V30 2243 C 232.393 -2.00887 4.8093 0
M  V30 2244 C 229.721 -1.79914 5.58433 0
M  V30 2245 C 232.073 -1.63653 6.11065 0
M  V30 2246 C 230.737 -1.52614 6.49819 0
M  V30 2247 H 230.007 -0.519376 0.528517 0
M  V30 2248 H 232.654 -0.750453 1.76183 0
M  V30 2249 H 230.959 -3.34199 2.04495 0
M  V30 2250 H 232.656 -3.2041 2.41119 0
M  V30 2251 H 229.246 -2.36557 3.57406 0
M  V30 2252 H 233.43 -2.07198 4.5098 0
M  V30 2253 H 228.686 -1.69948 5.87305 0
M  V30 2254 H 232.86 -1.41543 6.81864 0
M  V30 2255 H 230.487 -1.22371 7.50286 0
M  V30 2256 N 232.062 -1.29571 -0.897171 0
M  V30 2257 C 233.31 -1.17456 -1.64464 0
M  V30 2258 C 233.631 0.273698 -1.9307 0
M  V30 2259 O 232.901 1.18684 -1.55855 0
M  V30 2260 H 231.481 -0.431706 -0.609622 0
M  V30 2261 H 234.143 -1.62531 -1.07562 0
M  V30 2262 H 233.239 -1.72648 -2.59998 0
M  V30 2263 N 233.54 1.10788 -1.12088 0
M  V30 2264 C 234.487 2.17025 -0.785407 0
M  V30 2265 C 235.457 1.64265 0.246191 0
M  V30 2266 O 236.642 1.90412 0.121584 0
M  V30 2267 C 233.782 3.44249 -0.242177 0
M  V30 2268 C 232.895 4.1098 -1.33115 0
M  V30 2269 C 232.03 5.25911 -0.747741 0
M  V30 2270 C 231.069 5.84538 -1.81609 0
M  V30 2271 N 230.206 6.90853 -1.25167 0
M  V30 2272 H 235.046 2.45066 -1.69548 0
M  V30 2273 H 232.583 1.20297 -0.846582 0
M  V30 2274 H 234.541 4.17101 0.0908026 0
M  V30 2275 H 233.171 3.16571 0.631072 0
M  V30 2276 H 232.223 3.36133 -1.78097 0
M  V30 2277 H 233.535 4.50601 -2.13917 0
M  V30 2278 H 232.689 6.056 -0.365216 0
M  V30 2279 H 231.428 4.87614 0.0915188 0
M  V30 2280 H 230.433 5.03522 -2.20785 0
M  V30 2281 H 231.658 6.249 -2.6585 0
M  V30 2282 H 229.604 6.54562 -0.434174 0
M  V30 2283 H 229.521 7.29166 -1.99633 0
M  V30 2284 H 230.789 7.7433 -0.896259 0
M  V30 2285 N 235.018 0.912232 1.28515 0
M  V30 2286 C 235.928 0.404506 2.31086 0
M  V30 2287 C 236.944 -0.50707 1.66448 0
M  V30 2288 O 238.12 -0.393624 1.97516 0
M  V30 2289 C 235.185 -0.348572 3.44943 0
M  V30 2290 C 234.246 0.59604 4.25142 0
M  V30 2291 C 233.479 -0.121194 5.33562 0
M  V30 2292 O 233.702 -1.34317 5.5436 0
M  V30 2293 O 232.636 0.542716 5.99448 0
M  V30 2294 H 236.462 1.25579 2.76521 0
M  V30 2295 H 234.047 0.676998 1.33181 0
M  V30 2296 H 235.929 -0.77395 4.14232 0
M  V30 2297 H 234.604 -1.17571 3.01594 0
M  V30 2298 H 233.511 1.07079 3.58448 0
M  V30 2299 H 234.844 1.38995 4.72167 0
M  V30 2300 N 236.496 -1.42363 0.676048 0
M  V30 2301 C 237.724 -2.05859 0.207268 0
M  V30 2302 C 238.139 -1.50796 -1.13605 0
M  V30 2303 O 237.496 -0.648265 -1.70598 0
M  V30 2304 C 237.547 -3.61248 0.134975 0
M  V30 2305 O 237.268 -4.1427 1.42521 0
M  V30 2306 C 238.769 -4.41859 -0.357151 0
M  V30 2307 H 235.989 -0.663431 0.100503 0
M  V30 2308 H 238.533 -1.82479 0.923136 0
M  V30 2309 H 236.688 -3.83735 -0.531588 0
M  V30 2310 H 237.102 -5.0815 1.29939 0
M  V30 2311 H 238.576 -5.50847 -0.356641 0
M  V30 2312 H 239.053 -4.16536 -1.39264 0
M  V30 2313 H 239.659 -4.24392 0.27772 0
M  V30 2314 N 237.974 -0.419461 -1.51915 0
M  V30 2315 C 239.251 0.211999 -1.94448 0
M  V30 2316 C 239.631 1.61703 -1.35703 0
M  V30 2317 O 238.979 2.22102 -0.536931 0
M  V30 2318 C 239.189 0.207872 -3.4838 0
M  V30 2319 C 240.537 0.422192 -4.22496 0
M  V30 2320 O 241.561 0.286778 -3.55044 0
M  V30 2321 O 240.42 0.690009 -5.42126 0
M  V30 2322 H 237.514 0.139586 -0.815135 0
M  V30 2323 H 240.06 -0.476151 -1.62883 0
M  V30 2324 H 238.832 -0.775102 -3.83546 0
M  V30 2325 H 238.455 0.939688 -3.86336 0
M  V30 2326 N 239.452 1.56882 -0.150215 0
M  V30 2327 C 240.382 2.19935 0.784284 0
M  V30 2328 C 241.363 1.14854 1.25469 0
M  V30 2329 O 242.548 1.43209 1.31168 0
M  V30 2330 C 239.678 2.82349 2.02229 0
M  V30 2331 C 238.632 3.93285 1.68853 0
M  V30 2332 C 237.958 4.42649 2.99944 0
M  V30 2333 C 239.258 5.13904 0.932714 0
M  V30 2334 H 240.952 2.9828 0.258781 0
M  V30 2335 H 238.498 1.43473 0.123029 0
M  V30 2336 H 240.451 3.25126 2.68088 0
M  V30 2337 H 239.175 2.0134 2.57157 0
M  V30 2338 H 237.834 3.5113 1.05371 0
M  V30 2339 H 237.482 3.58458 3.52869 0
M  V30 2340 H 237.182 5.17476 2.78374 0
M  V30 2341 H 238.706 4.88099 3.66868 0
M  V30 2342 H 240.12 5.53506 1.49345 0
M  V30 2343 H 238.517 5.94515 0.81684 0
M  V30 2344 H 239.587 4.84842 -0.0749568 0
M  V30 2345 N 240.93 -0.123565 1.57115 0
M  V30 2346 C 241.86 -1.15309 2.03042 0
M  V30 2347 C 242.841 -1.43454 0.914061 0
M  V30 2348 O 244.026 -1.53973 1.18347 0
M  V30 2349 C 241.156 -2.48043 2.43089 0
M  V30 2350 C 240.11 -2.3437 3.58127 0
M  V30 2351 C 239.436 -3.72026 3.84059 0
M  V30 2352 C 240.736 -1.80804 4.90007 0
M  V30 2353 H 242.43 -0.771102 2.893 0
M  V30 2354 H 239.976 -0.369479 1.39179 0
M  V30 2355 H 241.929 -3.20311 2.73823 0
M  V30 2356 H 240.653 -2.88122 1.53796 0
M  V30 2357 H 239.312 -1.64551 3.27595 0
M  V30 2358 H 238.96 -4.09582 2.91979 0
M  V30 2359 H 238.66 -3.63732 4.6149 0
M  V30 2360 H 240.184 -4.45806 4.1724 0
M  V30 2361 H 241.598 -2.42886 5.19307 0
M  V30 2362 H 239.995 -1.83343 5.71407 0
M  V30 2363 H 241.065 -0.76528 4.78823 0
M  V30 2364 N 242.408 -1.52605 -0.393616 0
M  V30 2365 C 243.338 -1.80022 -1.48709 0
M  V30 2366 C 244.319 -0.651995 -1.57108 0
M  V30 2367 O 245.504 -0.89913 -1.72132 0
M  V30 2368 C 242.634 -1.96492 -2.86371 0
M  V30 2369 C 241.588 -3.12161 -2.92813 0
M  V30 2370 C 240.914 -3.13877 -4.3288 0
M  V30 2371 C 242.214 -4.51322 -2.6288 0
M  V30 2372 H 243.908 -2.71589 -1.26015 0
M  V30 2373 H 241.454 -1.30684 -0.604778 0
M  V30 2374 H 243.407 -2.14255 -3.62867 0
M  V30 2375 H 242.131 -1.01611 -3.10391 0
M  V30 2376 H 240.79 -2.94173 -2.18764 0
M  V30 2377 H 240.438 -2.16687 -4.53933 0
M  V30 2378 H 240.138 -3.91576 -4.38112 0
M  V30 2379 H 241.662 -3.33789 -5.1129 0
M  V30 2380 H 243.076 -4.69435 -3.29096 0
M  V30 2381 H 241.473 -5.31053 -2.79468 0
M  V30 2382 H 242.543 -4.58353 -1.58242 0
M  V30 2383 N 243.887 0.651787 -1.4349 0
M  V30 2384 C 245.164 1.40909 -1.35661 0
M  V30 2385 C 245.544 2.11099 -0.00511733 0
M  V30 2386 O 244.892 2.04892 1.0115 0
M  V30 2387 C 245.102 2.3926 -2.54078 0
M  V30 2388 C 246.45 3.03217 -2.97228 0
M  V30 2389 O 247.474 2.49588 -2.54135 0
M  V30 2390 O 246.333 4.00455 -3.71885 0
M  V30 2391 H 243.427 0.629625 -0.536191 0
M  V30 2392 H 245.973 0.678575 -1.55542 0
M  V30 2393 H 244.745 1.86352 -3.44076 0
M  V30 2394 H 244.368 3.1976 -2.36303 0
M  V30 2395 N 245.365 1.30045 0.890287 0
M  V30 2396 C 246.642 1.09227 1.62262 0
M  V30 2397 C 247.022 -0.360305 2.08002 0
M  V30 2398 O 246.37 -1.35084 1.84295 0
M  V30 2399 C 246.58 2.08835 2.79623 0
M  V30 2400 C 247.928 2.40266 3.50082 0
M  V30 2401 O 248.952 2.07104 2.89804 0
M  V30 2402 O 247.811 2.96967 4.58773 0
M  V30 2403 H 244.905 0.419132 0.712922 0
M  V30 2404 H 247.451 1.41451 0.937529 0
M  V30 2405 H 246.223 3.06633 2.43089 0
M  V30 2406 H 245.846 1.77397 3.55832 0
M  V30 2407 N 246.843 -1.10192 1.12674 0
M  V30 2408 C 248.068 -1.86523 0.906853 0
M  V30 2409 C 248.493 -1.80221 -0.538711 0
M  V30 2410 O 247.851 -1.17396 -1.38158 0
M  V30 2411 C 247.899 -3.32758 1.3894 0
M  V30 2412 O 247.003 -4.08449 0.5695 0
M  V30 2413 H 246.344 -0.578678 0.325619 0
M  V30 2414 H 248.874 -1.39203 1.49946 0
M  V30 2415 H 248.884 -3.83608 1.38958 0
M  V30 2416 H 247.559 -3.36661 2.44197 0
M  V30 2417 H 246.136 -3.67427 0.636528 0
M  V30 2418 N 248.321 -0.919034 -1.28029 0
M  V30 2419 C 249.251 -0.428581 -2.29533 0
M  V30 2420 C 250.232 0.50659 -1.62381 0
M  V30 2421 O 251.417 0.413195 -1.89753 0
M  V30 2422 C 248.547 0.327388 -3.45753 0
M  V30 2423 C 247.501 -0.519137 -4.2484 0
M  V30 2424 C 246.827 0.365486 -5.33449 0
M  V30 2425 C 248.127 -1.77914 -4.91064 0
M  V30 2426 H 249.821 -1.27687 -2.70807 0
M  V30 2427 H 247.367 -0.615428 -1.30186 0
M  V30 2428 H 249.32 0.681378 -4.15855 0
M  V30 2429 H 248.044 1.20963 -3.03374 0
M  V30 2430 H 246.703 -0.855717 -3.56473 0
M  V30 2431 H 246.351 1.24642 -4.87312 0
M  V30 2432 H 246.051 -0.197356 -5.87268 0
M  V30 2433 H 247.575 0.715241 -6.06396 0
M  V30 2434 H 248.989 -1.49374 -5.53498 0
M  V30 2435 H 247.386 -2.2848 -5.54903 0
M  V30 2436 H 248.456 -2.50382 -4.15255 0
M  V30 2437 N 249.799 1.42003 -0.683588 0
M  V30 2438 C 251.045 2.01712 -0.209825 0
M  V30 2439 C 251.378 1.53968 1.18353 0
M  V30 2440 O 250.653 0.745661 1.79639 0
M  V30 2441 C 250.936 3.59202 -0.254197 0
M  V30 2442 C 250.789 4.17102 -1.68363 0
M  V30 2443 C 252.108 4.38344 0.392709 0
M  V30 2444 H 249.227 0.732891 -0.0777189 0
M  V30 2445 H 251.869 1.68909 -0.87004 0
M  V30 2446 H 250.019 3.87278 0.307954 0
M  V30 2447 H 251.691 3.99946 -2.29871 0
M  V30 2448 H 249.934 3.72597 -2.22157 0
M  V30 2449 H 250.605 5.26249 -1.6663 0
M  V30 2450 H 253.081 4.16011 -0.0859162 0
M  V30 2451 H 251.957 5.47901 0.331063 0
M  V30 2452 H 252.218 4.16887 1.47164 0
M  V30 2453 N 251.277 0.427512 1.51691 0
M  V30 2454 C 252.502 -0.143601 2.06902 0
M  V30 2455 C 252.927 -1.36536 1.29382 0
M  V30 2456 O 252.285 -1.78289 0.329043 0
M  V30 2457 C 252.333 -0.454207 3.57728 0
M  V30 2458 O 251.437 -1.54228 3.82475 0
M  V30 2459 H 250.778 -0.00617128 0.663971 0
M  V30 2460 H 253.308 0.606014 1.95419 0
M  V30 2461 H 253.318 -0.707525 4.01818 0
M  V30 2462 H 251.993 0.438812 4.13579 0
M  V30 2463 H 250.57 -1.2797 3.50254 0
M  V30 2464 N 252.755 -1.56801 0.158532 0
M  V30 2465 C 254.004 -1.95665 -0.489702 0
M  V30 2466 C 254.317 -1.04654 -1.65248 0
M  V30 2467 O 255.523 -1.33146 -2.3661 0
M  V30 2468 C 253.979 -3.47874 -0.922582 0
M  V30 2469 C 253.587 -4.47489 0.213893 0
M  V30 2470 C 255.331 -3.95583 -1.53996 0
M  V30 2471 C 253.238 -5.90921 -0.237903 0
M  V30 2472 H 252.168 -0.730516 -0.186716 0
M  V30 2473 H 254.819 -1.81861 0.244722 0
M  V30 2474 H 253.201 -3.57051 -1.71261 0
M  V30 2475 H 254.375 -4.50017 0.991036 0
M  V30 2476 H 252.69 -4.09764 0.740407 0
M  V30 2477 H 255.287 -5.0019 -1.8898 0
M  V30 2478 H 255.63 -3.37789 -2.43319 0
M  V30 2479 H 256.163 -3.8937 -0.814611 0
M  V30 2480 H 252.902 -6.52559 0.620236 0
M  V30 2481 H 252.422 -5.91729 -0.980676 0
M  V30 2482 H 254.101 -6.43352 -0.686067 0
M  V30 2483 N 254.233 0.115231 -1.57178 0
M  V30 2484 C 255.48 0.822351 -1.8505 0
M  V30 2485 C 255.808 1.79701 -0.744168 0
M  V30 2486 O 255.063 1.93909 0.26414 0
M  V30 2487 C 255.362 1.60324 -3.19423 0
M  V30 2488 C 255.028 0.772536 -4.44233 0
M  V30 2489 C 253.69 0.543468 -4.78121 0
M  V30 2490 C 256.042 0.193746 -5.2084 0
M  V30 2491 C 253.37 -0.274583 -5.86057 0
M  V30 2492 C 255.722 -0.611517 -6.29637 0
M  V30 2493 C 254.386 -0.850867 -6.62055 0
M  V30 2494 H 253.656 0.30092 -0.677147 0
M  V30 2495 H 256.303 0.0845802 -1.91313 0
M  V30 2496 H 254.608 2.41203 -3.08753 0
M  V30 2497 H 256.305 2.1544 -3.38211 0
M  V30 2498 H 252.895 0.96117 -4.17683 0
M  V30 2499 H 257.079 0.357926 -4.95008 0
M  V30 2500 H 252.335 -0.469206 -6.09597 0
M  V30 2501 H 256.509 -1.06697 -6.88178 0
M  V30 2502 H 254.136 -1.48657 -7.45523 0
M  V30 2503 N 255.711 1.52812 0.385517 0
M  V30 2504 C 256.959 1.67694 1.12797 0
M  V30 2505 C 257.28 0.421115 1.90399 0
M  V30 2506 O 256.55 -0.564551 1.87589 0
M  V30 2507 H 255.13 0.618155 0.419396 0
M  V30 2508 H 257.792 1.89938 0.436972 0
M  V30 2509 H 256.888 2.52896 1.82894 0
M  V30 2510 N 257.189 -0.644168 1.43834 0
M  V30 2511 C 258.137 -1.77793 1.49974 0
M  V30 2512 C 259.131 -1.65253 0.372536 0
M  V30 2513 O 260.337 -1.7149 0.546924 0
M  V30 2514 H 256.712 -0.58675 0.47035 0
M  V30 2515 H 258.683 -1.69736 2.45423 0
M  V30 2516 C 257.432 -3.16087 1.4486 0
M  V30 2517 H 256.755 -3.26378 2.30905 0
M  V30 2518 H 258.195 -3.95349 1.53217 0
M  V30 2519 C 256.654 -3.36484 0.167463 0
M  V30 2520 O 257.184 -3.94298 -0.767609 0
M  V30 2521 N 255.39 -2.90504 0.0747556 0
M  V30 2522 H 254.937 -2.4364 0.836507 0
M  V30 2523 H 254.895 -3.04527 -0.781714 0
M  V30 2524 N 258.668 -1.30515 -0.883378 0
M  V30 2525 C 260.084 -1.08881 -1.16692 0
M  V30 2526 C 260.284 0.149409 -2.00945 0
M  V30 2527 O 259.34 0.84257 -2.38027 0
M  V30 2528 C 260.653 -2.35319 -1.87204 0
M  V30 2529 C 262.201 -2.40799 -1.99962 0
M  V30 2530 C 262.676 -3.67083 -2.73887 0
M  V30 2531 N 264.167 -3.679 -2.81432 0
M  V30 2532 C 264.902 -4.62303 -3.3921 0
M  V30 2533 N 264.398 -5.67052 -3.98025 0
M  V30 2534 N 266.191 -4.49845 -3.3704 0
M  V30 2535 H 258.342 -2.09951 -0.321633 0
M  V30 2536 H 260.605 -0.92556 -0.205043 0
M  V30 2537 H 260.311 -3.25689 -1.3274 0
M  V30 2538 H 260.185 -2.44089 -2.87577 0
M  V30 2539 H 262.572 -1.50907 -2.53597 0
M  V30 2540 H 262.653 -2.36003 -0.98673 0
M  V30 2541 H 262.297 -4.57334 -2.20925 0
M  V30 2542 H 262.227 -3.69141 -3.75556 0
M  V30 2543 H 264.718 -2.92171 -2.39676 0
M  V30 2544 H 265.031 -6.35184 -4.40183 0
M  V30 2545 H 263.376 -5.70842 -3.96439 0
M  V30 2546 H 266.567 -3.67194 -2.90321 0
M  V30 2547 H 266.74 -5.23597 -3.81772 0
M  V30 2548 N 260.146 1.09593 -1.13257 0
M  V30 2549 C 261.562 1.33775 -0.870423 0
M  V30 2550 C 261.762 1.95327 0.494926 0
M  V30 2551 O 260.818 2.19853 1.2418 0
M  V30 2552 C 262.131 2.25106 -1.99369 0
M  V30 2553 C 263.679 2.3862 -2.02558 0
M  V30 2554 C 264.154 3.33285 -3.14142 0
M  V30 2555 N 265.645 3.40857 -3.13641 0
M  V30 2556 C 266.38 4.14101 -3.96621 0
M  V30 2557 N 265.876 4.90157 -4.8961 0
M  V30 2558 N 267.669 4.09808 -3.84726 0
M  V30 2559 H 259.82 0.680136 -2.01216 0
M  V30 2560 H 262.083 0.362133 -0.876107 0
M  V30 2561 H 261.789 1.87103 -2.97801 0
M  V30 2562 H 261.663 3.25481 -1.90635 0
M  V30 2563 H 264.05 2.75887 -1.0474 0
M  V30 2564 H 264.131 1.38028 -2.15364 0
M  V30 2565 H 263.775 2.96741 -4.12198 0
M  V30 2566 H 263.705 4.33776 -2.98574 0
M  V30 2567 H 266.196 2.86624 -2.46282 0
M  V30 2568 H 266.509 5.4347 -5.49418 0
M  V30 2569 H 264.854 4.89251 -4.93617 0
M  V30 2570 H 268.045 3.4949 -3.11408 0
M  V30 2571 H 268.218 4.66629 -4.49623 0
M  V30 2572 N 261.624 0.925811 1.2754 0
M  V30 2573 C 262.554 0.440748 2.29303 0
M  V30 2574 C 263.535 -0.497971 1.62648 0
M  V30 2575 O 264.72 -0.403126 1.8997 0
M  V30 2576 C 261.85 -0.309048 3.45922 0
M  V30 2577 C 260.804 0.54166 4.24559 0
M  V30 2578 C 260.13 -0.337191 5.33636 0
M  V30 2579 C 261.43 1.80516 4.90114 0
M  V30 2580 H 263.124 1.29121 2.70126 0
M  V30 2581 H 260.67 0.622323 1.29858 0
M  V30 2582 H 262.623 -0.659315 4.1621 0
M  V30 2583 H 261.347 -1.19352 3.04011 0
M  V30 2584 H 260.006 0.874609 3.56014 0
M  V30 2585 H 259.654 -1.22056 4.87966 0
M  V30 2586 H 259.354 0.228497 5.87156 0
M  V30 2587 H 260.878 -0.683072 6.06767 0
M  V30 2588 H 262.292 1.52307 5.52698 0
M  V30 2589 H 260.689 2.3142 5.53683 0
M  V30 2590 H 261.759 2.52581 4.13921 0
M  V30 2591 N 263.102 -1.41638 0.69111 0
M  V30 2592 C 264.049 -2.30789 0.0229705 0
M  V30 2593 C 265.019 -1.46863 -0.775911 0
M  V30 2594 O 266.204 -1.75661 -0.74485 0
M  V30 2595 C 263.344 -3.32868 -0.910666 0
M  V30 2596 C 262.457 -4.31875 -0.103874 0
M  V30 2597 C 261.592 -5.21024 -1.03475 0
M  V30 2598 C 260.631 -6.11702 -0.220598 0
M  V30 2599 N 259.768 -6.93349 -1.10504 0
M  V30 2600 H 264.608 -2.87366 0.788978 0
M  V30 2601 H 262.145 -1.41535 0.400794 0
M  V30 2602 H 264.103 -3.90596 -1.46597 0
M  V30 2603 H 262.733 -2.77851 -1.64312 0
M  V30 2604 H 261.785 -3.76131 0.568285 0
M  V30 2605 H 263.097 -4.96003 0.527504 0
M  V30 2606 H 262.251 -5.83565 -1.65943 0
M  V30 2607 H 260.99 -4.57112 -1.69999 0
M  V30 2608 H 259.995 -5.48215 0.417187 0
M  V30 2609 H 261.22 -6.77668 0.440784 0
M  V30 2610 H 259.166 -6.3205 -1.75638 0
M  V30 2611 H 259.083 -7.54146 -0.529125 0
M  V30 2612 H 260.351 -7.60362 -1.71667 0
M  V30 2613 N 264.58 -0.43555 -1.51462 0
M  V30 2614 C 265.996 -0.0877501 -1.59359 0
M  V30 2615 C 266.196 1.4027 -1.4466 0
M  V30 2616 O 265.252 2.17243 -1.28693 0
M  V30 2617 C 266.565 -0.606264 -2.94525 0
M  V30 2618 C 268.113 -0.566548 -3.0783 0
M  V30 2619 C 268.588 -1.06201 -4.45517 0
M  V30 2620 N 270.079 -1.01992 -4.51832 0
M  V30 2621 C 270.814 -1.37417 -5.5669 0
M  V30 2622 N 270.31 -1.80119 -6.68976 0
M  V30 2623 N 272.103 -1.29245 -5.47039 0
M  V30 2624 H 264.254 -1.40533 -1.59261 0
M  V30 2625 H 266.517 -0.578992 -0.750648 0
M  V30 2626 H 266.223 -1.64901 -3.10645 0
M  V30 2627 H 266.097 -0.0302097 -3.77188 0
M  V30 2628 H 268.484 0.467208 -2.91378 0
M  V30 2629 H 268.565 -1.17898 -2.2701 0
M  V30 2630 H 268.209 -2.09422 -4.62715 0
M  V30 2631 H 268.139 -0.426127 -5.24873 0
M  V30 2632 H 270.63 -0.706308 -3.71241 0
M  V30 2633 H 270.943 -2.05392 -7.45006 0
M  V30 2634 H 269.288 -1.84044 -6.70189 0
M  V30 2635 H 272.479 -0.957522 -4.58202 0
M  V30 2636 H 272.652 -1.57182 -6.28648 0
M  V30 2637 N 266.058 1.56714 -0.166846 0
M  V30 2638 C 267.305 1.96747 0.479252 0
M  V30 2639 C 267.633 1.05263 1.63554 0
M  V30 2640 O 266.888 0.0858098 1.95512 0
M  V30 2641 C 267.187 3.42889 1.00806 0
M  V30 2642 C 266.853 4.50889 -0.0318574 0
M  V30 2643 C 265.515 4.8015 -0.317675 0
M  V30 2644 C 267.867 5.15949 -0.737956 0
M  V30 2645 C 265.195 5.71772 -1.31506 0
M  V30 2646 C 267.547 6.08647 -1.72429 0
M  V30 2647 C 266.211 6.36277 -2.0176 0
M  V30 2648 H 265.481 0.719949 0.175371 0
M  V30 2649 H 268.128 1.89756 -0.257864 0
M  V30 2650 H 266.433 3.4681 1.82291 0
M  V30 2651 H 268.13 3.71203 1.51689 0
M  V30 2652 H 264.72 4.28128 0.201088 0
M  V30 2653 H 268.904 4.93458 -0.530351 0
M  V30 2654 H 264.16 5.91465 -1.54853 0
M  V30 2655 H 268.334 6.58129 -2.27682 0
M  V30 2656 H 265.961 7.07075 -2.79194 0
M  V30 2657 N 267.536 -0.106894 1.57237 0
M  V30 2658 C 268.761 -0.830287 1.90055 0
M  V30 2659 C 269.186 -1.72064 0.75998 0
M  V30 2660 O 268.544 -1.78982 -0.288991 0
M  V30 2661 C 268.592 -1.6295 3.21683 0
M  V30 2662 O 267.696 -2.73748 3.08441 0
M  V30 2663 H 267.037 -0.228855 0.623315 0
M  V30 2664 H 269.567 -0.085658 2.04421 0
M  V30 2665 H 269.577 -2.01621 3.54701 0
M  V30 2666 H 268.252 -0.975989 4.04286 0
M  V30 2667 H 266.829 -2.38192 2.86913 0
M  V30 2668 N 269.014 -1.53014 -0.377408 0
M  V30 2669 C 269.947 -1.73382 -1.48371 0
M  V30 2670 C 270.925 -0.581879 -1.51832 0
M  V30 2671 O 272.109 -0.81307 -1.70063 0
M  V30 2672 C 269.236 -1.80192 -2.8679 0
M  V30 2673 C 268.282 -3.02056 -3.01105 0
M  V30 2674 S 269.115 -4.61811 -2.71093 0
M  V30 2675 C 270.271 -4.71453 -4.11683 0
M  V30 2676 H 270.504 -2.66946 -1.30872 0
M  V30 2677 H 268.037 -1.43453 -0.571012 0
M  V30 2678 H 269.995 -1.84802 -3.6655 0
M  V30 2679 H 268.656 -0.877008 -3.01608 0
M  V30 2680 H 267.849 -3.03396 -4.02451 0
M  V30 2681 H 267.451 -2.95498 -2.29253 0
M  V30 2682 H 269.743 -4.50781 -5.0577 0
M  V30 2683 H 270.686 -5.73487 -4.15353 0
M  V30 2684 H 271.094 -4.00189 -3.98132 0
M  V30 2685 N 270.492 0.636531 -1.44174 0
M  V30 2686 C 271.738 1.39826 -1.4689 0
M  V30 2687 C 272.071 1.93947 -0.0990585 0
M  V30 2688 O 271.346 1.73325 0.882544 0
M  V30 2689 C 271.629 2.56751 -2.5249 0
M  V30 2690 C 271.482 2.08014 -3.98811 0
M  V30 2691 C 272.801 3.58946 -2.54649 0
M  V30 2692 H 269.92 0.507075 -0.53483 0
M  V30 2693 H 272.562 0.720188 -1.75822 0
M  V30 2694 H 270.712 3.14597 -2.2795 0
M  V30 2695 H 272.384 1.5504 -4.34466 0
M  V30 2696 H 270.627 1.39242 -4.10846 0
M  V30 2697 H 271.298 2.92169 -4.68339 0
M  V30 2698 H 273.774 3.1089 -2.76563 0
M  V30 2699 H 272.65 4.38286 -3.3045 0
M  V30 2700 H 272.911 4.12655 -1.58646 0
M  V30 2701 N 271.97 1.30982 0.876444 0
M  V30 2702 C 273.216 1.20474 1.63138 0
M  V30 2703 C 273.549 -0.238096 1.92735 0
M  V30 2704 O 272.824 -1.1692 1.55435 0
M  V30 2705 C 273.107 2.04244 2.96574 0
M  V30 2706 C 272.96 3.56793 2.73896 0
M  V30 2707 C 274.279 1.88684 3.97601 0
M  V30 2708 H 271.398 0.439001 0.591985 0
M  V30 2709 H 274.04 1.60704 1.01361 0
M  V30 2710 H 272.19 1.70063 3.493 0
M  V30 2711 H 273.862 4.01077 2.27892 0
M  V30 2712 H 272.105 3.80548 2.08245 0
M  V30 2713 H 272.776 4.10706 3.68815 0
M  V30 2714 H 275.252 2.18584 3.54062 0
M  V30 2715 H 274.128 2.4961 4.88862 0
M  V30 2716 H 274.389 0.848343 4.33884 0
M  V30 2717 N 273.449 -1.08991 1.13837 0
M  V30 2718 C 274.381 -2.15606 0.777612 0
M  V30 2719 C 275.394 -1.61533 -0.202739 0
M  V30 2720 O 276.583 -1.78491 0.0181055 0
M  V30 2721 C 273.683 -3.3864 0.132623 0
M  V30 2722 C 272.856 -4.22115 1.1462 0
M  V30 2723 C 271.915 -5.23564 0.526074 0
M  V30 2724 O 270.941 -5.56678 1.18735 0
M  V30 2725 N 272.143 -5.76266 -0.699866 0
M  V30 2726 H 274.908 -2.47159 1.69506 0
M  V30 2727 H 272.469 -1.24747 1.03198 0
M  V30 2728 H 274.461 -4.03626 -0.29459 0
M  V30 2729 H 273.031 -3.04938 -0.687849 0
M  V30 2730 H 272.251 -3.53199 1.75055 0
M  V30 2731 H 273.539 -4.74709 1.83109 0
M  V30 2732 H 272.937 -5.51585 -1.25581 0
M  V30 2733 H 271.494 -6.42963 -1.06968 0
M  V30 2734 N 274.927 -0.932562 -1.27047 0
M  V30 2735 C 276.204 -0.49377 -1.89265 0
M  V30 2736 C 276.584 1.02833 -1.8436 0
M  V30 2737 O 275.932 1.88461 -1.29209 0
M  V30 2738 C 276.142 -1.04536 -3.32976 0
M  V30 2739 C 277.49 -1.10879 -4.09867 0
M  V30 2740 O 278.514 -0.995327 -3.42011 0
M  V30 2741 O 277.373 -1.28417 -5.31198 0
M  V30 2742 H 274.467 -0.159596 -0.811454 0
M  V30 2743 H 277.013 -1.02457 -1.3528 0
M  V30 2744 H 275.785 -2.08913 -3.30864 0
M  V30 2745 H 275.408 -0.496494 -3.94488 0
M  V30 2746 N 276.405 1.4127 -0.698611 0
M  V30 2747 C 277.653 2.00782 -0.230409 0
M  V30 2748 C 277.974 1.5562 1.17505 0
M  V30 2749 O 277.244 0.78815 1.79346 0
M  V30 2750 H 275.824 0.742464 -0.0821944 0
M  V30 2751 H 278.486 1.72852 -0.90045 0
M  V30 2752 H 277.582 3.11095 -0.25021 0
M  V30 2753 N 277.883 0.443576 1.51229 0
M  V30 2754 C 279.132 -0.122332 2.01329 0
M  V30 2755 C 279.445 -1.43237 1.33201 0
M  V30 2756 O 280.651 -2.0816 1.74304 0
M  V30 2757 C 279.107 -0.268551 3.58897 0
M  V30 2758 C 278.715 1.03142 4.35965 0
M  V30 2759 C 280.459 -0.787894 4.17124 0
M  V30 2760 C 278.366 0.850504 5.85252 0
M  V30 2761 H 277.296 -0.0494929 0.752374 0
M  V30 2762 H 279.947 0.574289 1.74282 0
M  V30 2763 H 278.329 -1.02832 3.82415 0
M  V30 2764 H 279.503 1.80001 4.24189 0
M  V30 2765 H 277.818 1.47977 3.89219 0
M  V30 2766 H 280.415 -0.939841 5.26375 0
M  V30 2767 H 280.758 -1.77201 3.76703 0
M  V30 2768 H 281.291 -0.0862669 3.97706 0
M  V30 2769 H 278.03 1.80718 6.30096 0
M  V30 2770 H 277.55 0.121825 5.99676 0
M  V30 2771 H 279.229 0.506163 6.45017 0
M  V30 2772 N 279.361 -1.56624 0.175154 0
M  V30 2773 C 280.607 -1.9729 -0.469506 0
M  V30 2774 C 280.94 -1.06128 -1.62636 0
M  V30 2775 O 280.215 -0.109183 -1.94193 0
M  V30 2776 C 280.498 -3.47375 -0.948804 0
M  V30 2777 C 280.351 -4.49317 0.208491 0
M  V30 2778 C 281.67 -4.00652 -1.82116 0
M  V30 2779 H 278.789 -0.717317 -0.16919 0
M  V30 2780 H 281.431 -1.88184 0.262062 0
M  V30 2781 H 279.581 -3.55267 -1.57219 0
M  V30 2782 H 281.253 -4.53482 0.845682 0
M  V30 2783 H 279.496 -4.25121 0.863395 0
M  V30 2784 H 280.167 -5.51741 -0.169059 0
M  V30 2785 H 282.643 -3.95416 -1.2956 0
M  V30 2786 H 281.519 -5.06075 -2.12554 0
M  V30 2787 H 281.78 -3.44699 -2.7683 0
M  V30 2788 N 280.839 0.0985539 -1.57292 0
M  V30 2789 C 281.786 1.11981 -2.01814 0
M  V30 2790 C 282.756 1.39999 -0.89384 0
M  V30 2791 O 283.941 1.5152 -1.15958 0
M  V30 2792 C 281.081 2.43577 -2.44467 0
M  V30 2793 C 280.194 2.2232 -3.70402 0
M  V30 2794 C 279.329 3.4729 -4.01949 0
M  V30 2795 C 278.368 3.2128 -5.21005 0
M  V30 2796 N 277.505 4.38507 -5.48321 0
M  V30 2797 H 282.345 0.733149 -2.88841 0
M  V30 2798 H 279.882 0.350482 -1.42864 0
M  V30 2799 H 281.84 3.20373 -2.6724 0
M  V30 2800 H 280.47 2.80097 -1.60455 0
M  V30 2801 H 279.522 1.36343 -3.55126 0
M  V30 2802 H 280.834 1.99089 -4.57345 0
M  V30 2803 H 279.988 4.32495 -4.25479 0
M  V30 2804 H 278.727 3.73572 -3.13521 0
M  V30 2805 H 277.732 2.34468 -4.97298 0
M  V30 2806 H 278.957 2.96348 -6.11028 0
M  V30 2807 H 276.903 4.64871 -4.62851 0
M  V30 2808 H 276.82 4.18455 -6.29628 0
M  V30 2809 H 278.088 5.24787 -5.76385 0
M  V30 2810 N 282.317 1.53212 0.369288 0
M  V30 2811 C 283.28 1.7872 1.43498 0
M  V30 2812 C 284.28 0.657554 1.46741 0
M  V30 2813 O 285.47 0.925736 1.47566 0
M  V30 2814 C 282.602 1.90591 2.82645 0
M  V30 2815 H 283.795 2.73894 1.22156 0
M  V30 2816 H 281.348 1.44233 0.602203 0
M  V30 2817 H 282.083 0.974709 3.09306 0
M  V30 2818 H 281.868 2.72751 2.8169 0
M  V30 2819 H 283.358 2.11931 3.59826 0
M  V30 2820 N 283.795 -0.628877 1.44509 0
M  V30 2821 C 284.725 -1.75187 1.54376 0
M  V30 2822 C 285.706 -1.65411 0.396618 0
M  V30 2823 O 286.891 -1.84137 0.617031 0
M  V30 2824 C 284.021 -3.13725 1.48976 0
M  V30 2825 C 282.975 -3.38291 2.62189 0
M  V30 2826 C 282.301 -4.76883 2.41841 0
M  V30 2827 C 283.601 -3.30632 4.04326 0
M  V30 2828 H 285.295 -1.67187 2.48373 0
M  V30 2829 H 282.841 -0.802909 1.19538 0
M  V30 2830 H 284.794 -3.92064 1.54478 0
M  V30 2831 H 283.518 -3.22515 0.514961 0
M  V30 2832 H 282.177 -2.62334 2.56079 0
M  V30 2833 H 281.825 -4.82378 1.42548 0
M  V30 2834 H 281.525 -4.94278 3.17747 0
M  V30 2835 H 283.049 -5.57449 2.49165 0
M  V30 2836 H 284.463 -3.98873 4.11793 0
M  V30 2837 H 282.86 -3.59561 4.80454 0
M  V30 2838 H 283.93 -2.28404 4.27738 0
M  V30 2839 N 285.273 -1.31445 -0.869486 0
M  V30 2840 C 286.221 -1.19067 -1.99814 0
M  V30 2841 C 287.215 -0.0988569 -1.69111 0
M  V30 2842 O 288.421 -0.260781 -1.78101 0
M  V30 2843 H 284.796 -0.368677 -0.655425 0
M  V30 2844 H 286.767 -2.14555 -2.07385 0
M  V30 2845 C 285.516 -0.915323 -3.35436 0
M  V30 2846 H 284.839 -1.74759 -3.59582 0
M  V30 2847 H 286.279 -0.868895 -4.15001 0
M  V30 2848 C 284.738 0.381928 -3.34728 0
M  V30 2849 O 285.268 1.39857 -3.76567 0
M  V30 2850 N 283.474 0.398633 -2.87853 0
M  V30 2851 H 283.021 -0.429186 -2.54 0
M  V30 2852 H 282.979 1.26651 -2.87762 0
M  V30 2853 N 286.751 1.08385 -1.14413 0
M  V30 2854 C 287.997 1.81044 -0.913834 0
M  V30 2855 C 288.33 1.86004 0.558209 0
M  V30 2856 O 287.605 1.33606 1.4135 0
M  V30 2857 C 287.888 3.26648 -1.51569 0
M  V30 2858 C 287.741 3.29895 -3.0576 0
M  V30 2859 C 289.06 4.23629 -1.19273 0
M  V30 2860 H 286.179 0.65727 -0.333414 0
M  V30 2861 H 288.821 1.26896 -1.41412 0
M  V30 2862 H 286.971 3.72889 -1.09023 0
M  V30 2863 H 288.643 2.91977 -3.57137 0
M  V30 2864 H 286.886 2.69163 -3.40197 0
M  V30 2865 H 287.557 4.32516 -3.42977 0
M  V30 2866 H 290.033 3.85727 -1.56057 0
M  V30 2867 H 288.909 5.23822 -1.64017 0
M  V30 2868 H 289.17 4.41968 -0.108068 0
M  V30 2869 N 288.23 0.939286 1.26551 0
M  V30 2870 C 289.14 0.453432 2.30176 0
M  V30 2871 C 290.156 -0.471649 1.67486 0
M  V30 2872 O 291.332 -0.35164 1.98306 0
M  V30 2873 C 288.397 -0.275326 3.45605 0
M  V30 2874 C 287.458 0.686084 4.23782 0
M  V30 2875 C 286.691 -0.00798994 5.33699 0
M  V30 2876 O 286.914 -1.22528 5.57085 0
M  V30 2877 O 285.848 0.669746 5.98162 0
M  V30 2878 H 289.674 1.31416 2.73795 0
M  V30 2879 H 287.259 0.705095 1.31715 0
M  V30 2880 H 289.141 -0.685911 4.1578 0
M  V30 2881 H 287.816 -1.11147 3.0402 0
M  V30 2882 H 286.723 1.14658 3.56096 0
M  V30 2883 H 288.056 1.48979 4.69112 0
M  V30 2884 N 289.708 -1.40897 0.706093 0
M  V30 2885 C 291.119 -1.84023 0.315052 0
M  V30 2886 C 291.47 -1.5906 -1.14866 0
M  V30 2887 O 290.595 -1.06651 -1.88293 0
M  V30 2888 C 291.19 -3.34055 0.565038 0
M  V30 2889 C 289.749 -3.7571 0.227806 0
M  V30 2890 C 288.896 -2.64204 0.842122 0
M  V30 2891 H 291.847 -1.303 0.905963 0
M  V30 2892 H 291.868 -3.80107 -0.172843 0
M  V30 2893 H 291.38 -3.52192 1.63042 0
M  V30 2894 H 289.481 -3.63172 -0.832895 0
M  V30 2895 H 289.594 -4.74103 0.690174 0
M  V30 2896 H 287.958 -2.53255 0.270893 0
M  V30 2897 H 288.741 -2.85155 1.91158 0
M  V30 2898 N 291.186 -0.45159 -1.50991 0
M  V30 2899 C 292.463 0.170707 -1.94854 0
M  V30 2900 C 292.843 1.58788 -1.39103 0
M  V30 2901 O 292.191 2.20913 -0.583921 0
M  V30 2902 C 292.401 0.133929 -3.48743 0
M  V30 2903 C 293.749 0.33248 -4.23296 0
M  V30 2904 O 294.773 0.211403 -3.55572 0
M  V30 2905 O 293.632 0.57486 -5.43468 0
M  V30 2906 H 290.726 0.122264 -0.817912 0
M  V30 2907 H 293.272 -0.510594 -1.61836 0
M  V30 2908 H 292.044 -0.856283 -3.81816 0
M  V30 2909 H 291.667 0.857529 -3.88242 0
M  V30 2910 N 292.664 1.56529 -0.183458 0
M  V30 2911 C 293.912 1.96855 0.457452 0
M  V30 2912 C 294.233 1.07104 1.62953 0
M  V30 2913 O 293.503 0.139887 1.954 0
M  V30 2914 H 292.083 0.72693 0.171992 0
M  V30 2915 H 294.745 1.93056 -0.267476 0
M  V30 2916 H 293.841 3.01423 0.809368 0
M  V30 2917 N 294.142 -0.090211 1.57342 0
M  V30 2918 C 295.37 -0.806224 1.90546 0
M  V30 2919 C 295.785 -1.72041 0.777644 0
M  V30 2920 O 295.142 -1.80778 -0.250103 0
M  V30 2921 C 295.193 -1.61546 3.23396 0
M  V30 2922 O 294.914 -0.738043 4.31839 0
M  V30 2923 C 296.415 -2.4341 3.70495 0
M  V30 2924 H 293.635 -0.230256 0.630257 0
M  V30 2925 H 296.179 -0.0659843 2.04394 0
M  V30 2926 H 294.334 -2.30816 3.11131 0
M  V30 2927 H 294.748 -1.29901 5.08159 0
M  V30 2928 H 296.222 -2.95676 4.66133 0
M  V30 2929 H 296.699 -3.22098 2.98579 0
M  V30 2930 H 297.305 -1.79331 3.85643 0
M  V30 2931 N 295.62 -1.53406 -0.361157 0
M  V30 2932 C 296.868 -1.69467 -1.10115 0
M  V30 2933 C 297.189 -0.451352 -1.89705 0
M  V30 2934 O 296.459 0.534636 -1.88463 0
M  V30 2935 H 295.039 -0.624749 -0.409508 0
M  V30 2936 H 297.701 -1.90609 -0.406699 0
M  V30 2937 H 296.797 -2.55774 -1.78847 0
M  V30 2938 N 297.098 0.621204 -1.44841 0
M  V30 2939 C 298.028 1.74366 -1.55303 0
M  V30 2940 C 299.009 1.65199 -0.405385 0
M  V30 2941 O 300.194 1.83807 -0.626787 0
M  V30 2942 C 297.324 3.12931 -1.50637 0
M  V30 2943 C 296.278 3.36896 -2.63979 0
M  V30 2944 C 295.604 4.75594 -2.44366 0
M  V30 2945 C 296.904 3.28483 -4.06074 0
M  V30 2946 H 298.598 1.65867 -2.49256 0
M  V30 2947 H 296.144 0.796558 -1.19962 0
M  V30 2948 H 298.097 3.9124 -1.56555 0
M  V30 2949 H 296.821 3.22237 -0.532057 0
M  V30 2950 H 295.48 2.60972 -2.57467 0
M  V30 2951 H 295.128 4.81616 -1.45105 0
M  V30 2952 H 294.828 4.92586 -3.20364 0
M  V30 2953 H 296.352 5.5612 -2.52117 0
M  V30 2954 H 297.766 3.96684 -4.13902 0
M  V30 2955 H 296.163 3.57008 -4.82354 0
M  V30 2956 H 297.233 2.26133 -4.28943 0
M  V30 2957 N 298.576 1.31904 0.862503 0
M  V30 2958 C 299.804 1.24998 1.64873 0
M  V30 2959 C 300.219 -0.183425 1.87907 0
M  V30 2960 O 299.576 -1.11794 1.44251 0
M  V30 2961 C 299.627 1.99829 3.01248 0
M  V30 2962 O 299.348 3.37575 2.79239 0
M  V30 2963 C 300.849 1.99852 3.95694 0
M  V30 2964 H 298.069 0.431599 0.513773 0
M  V30 2965 H 300.613 1.73901 1.07604 0
M  V30 2966 H 298.768 1.54668 3.55185 0
M  V30 2967 H 299.182 3.75776 3.65914 0
M  V30 2968 H 300.656 2.56709 4.88676 0
M  V30 2969 H 301.133 0.982852 4.28062 0
M  V30 2970 H 301.739 2.44926 3.47694 0
M  V30 2971 N 300.054 -1.07777 1.14986 0
M  V30 2972 C 301.294 -1.81888 0.932527 0
M  V30 2973 C 301.658 -1.84509 -0.531064 0
M  V30 2974 O 302.859 -2.54448 -0.866577 0
M  V30 2975 C 301.13 -3.23244 1.52473 0
M  V30 2976 S 302.689 -4.14154 1.44989 0
M  V30 2977 H 299.507 -0.626752 0.335712 0
M  V30 2978 H 302.109 -1.29503 1.46455 0
M  V30 2979 H 300.813 -3.18922 2.58296 0
M  V30 2980 H 300.344 -3.80704 0.991381 0
M  V30 2981 H 302.359 -4.94247 0.439799 0
M  V30 2982 N 301.532 -0.945985 -1.26051 0
M  V30 2983 C 302.757 -0.612525 -1.98149 0
M  V30 2984 C 303.182 0.806623 -1.69927 0
M  V30 2985 O 302.54 1.54411 -0.950108 0
M  V30 2986 C 302.588 -0.866981 -3.50023 0
M  V30 2987 O 301.692 0.0585333 -4.12358 0
M  V30 2988 H 301.033 -0.23379 -0.621481 0
M  V30 2989 H 303.563 -1.27023 -1.60395 0
M  V30 2990 H 303.573 -0.789792 -4.00283 0
M  V30 2991 H 302.248 -1.90135 -3.69894 0
M  V30 2992 H 300.825 -0.0701241 -3.72834 0
M  V30 2993 N 303.011 1.40521 -0.713556 0
M  V30 2994 C 303.941 2.33381 -0.0743864 0
M  V30 2995 C 304.922 1.52784 0.747735 0
M  V30 2996 O 306.107 1.81258 0.697071 0
M  V30 2997 C 303.237 3.36748 0.849598 0
M  V30 2998 C 302.191 4.27793 0.133247 0
M  V30 2999 C 301.517 5.21679 1.17281 0
M  V30 3000 C 302.817 5.12415 -1.01134 0
M  V30 3001 H 304.511 2.87081 -0.850007 0
M  V30 3002 H 302.057 1.38034 -0.410201 0
M  V30 3003 H 304.01 4.00648 1.30612 0
M  V30 3004 H 302.734 2.81439 1.65709 0
M  V30 3005 H 301.393 3.65342 -0.303426 0
M  V30 3006 H 301.041 4.62677 1.9733 0
M  V30 3007 H 300.741 5.83435 0.698397 0
M  V30 3008 H 302.265 5.88456 1.62947 0
M  V30 3009 H 303.679 5.69781 -0.634274 0
M  V30 3010 H 302.076 5.83203 -1.41399 0
M  V30 3011 H 303.146 4.48514 -1.84292 0
M  V30 3012 N 304.489 0.459591 1.5075 0
M  V30 3013 C 305.452 -0.329093 2.26825 0
M  V30 3014 C 306.452 -0.930481 1.31144 0
M  V30 3015 O 307.642 -0.801453 1.54669 0
M  V30 3016 C 304.774 -1.46768 3.07688 0
M  V30 3017 H 305.967 0.337924 2.9799 0
M  V30 3018 H 303.52 0.213336 1.54837 0
M  V30 3019 H 304.255 -2.17009 2.40993 0
M  V30 3020 H 304.04 -1.04238 3.77991 0
M  V30 3021 H 305.53 -2.02433 3.65254 0
M  V30 3022 N 305.967 -1.56429 0.191757 0
M  V30 3023 C 307.378 -1.83912 -0.321428 0
M  V30 3024 C 307.729 -1.11231 -1.61623 0
M  V30 3025 O 306.854 -0.37202 -2.13178 0
M  V30 3026 C 307.449 -3.33624 -0.589961 0
M  V30 3027 C 306.008 -3.6153 -1.04753 0
M  V30 3028 C 305.155 -2.7714 -0.0943327 0
M  V30 3029 H 308.106 -1.53161 0.415612 0
M  V30 3030 H 308.127 -3.52213 -1.43966 0
M  V30 3031 H 307.639 -3.86495 0.352588 0
M  V30 3032 H 305.74 -3.14089 -2.00447 0
M  V30 3033 H 305.853 -4.69737 -0.942549 0
M  V30 3034 H 304.217 -2.47638 -0.595589 0
M  V30 3035 H 305 -3.32799 0.842601 0
M  V30 3036 N 307.445 0.0818655 -1.57387 0
M  V30 3037 C 308.393 1.11712 -2.04018 0
M  V30 3038 C 309.387 1.40683 -0.94364 0
M  V30 3039 O 310.593 1.40209 -1.12878 0
M  V30 3040 H 306.968 0.377542 -0.650358 0
M  V30 3041 H 308.939 0.697614 -2.90131 0
M  V30 3042 C 307.688 2.42537 -2.49141 0
M  V30 3043 H 307.011 2.21092 -3.33104 0
M  V30 3044 H 308.451 3.13446 -2.85531 0
M  V30 3045 C 306.91 3.0778 -1.37014 0
M  V30 3046 O 307.44 3.95436 -0.706621 0
M  V30 3047 N 305.646 2.68242 -1.11779 0
M  V30 3048 H 305.193 1.97052 -1.65917 0
M  V30 3049 H 305.151 3.1222 -0.369594 0
M  V30 3050 N 308.923 1.53595 0.353017 0
M  V30 3051 C 310.172 1.69603 1.09168 0
M  V30 3052 C 310.485 0.460925 1.90092 0
M  V30 3053 O 311.691 0.501774 2.66823 0
M  V30 3054 C 310.147 2.99872 1.9901 0
M  V30 3055 C 309.755 4.30687 1.23339 0
M  V30 3056 C 311.499 3.25246 2.72792 0
M  V30 3057 C 309.406 5.52036 2.12156 0
M  V30 3058 H 308.336 0.631966 0.411261 0
M  V30 3059 H 310.987 1.80096 0.351802 0
M  V30 3060 H 309.369 2.83212 2.7678 0
M  V30 3061 H 310.543 4.58019 0.505456 0
M  V30 3062 H 308.858 4.11853 0.613663 0
M  V30 3063 H 311.455 4.13095 3.39495 0
M  V30 3064 H 311.798 2.41846 3.38846 0
M  V30 3065 H 312.331 3.42638 2.021 0
M  V30 3066 H 309.07 6.37951 1.50659 0
M  V30 3067 H 308.59 5.28966 2.82764 0
M  V30 3068 H 310.269 5.87313 2.71427 0
M  V30 3069 N 310.401 -0.613514 1.45168 0
M  V30 3070 C 311.65 -1.36874 1.4815 0
M  V30 3071 C 311.963 -1.952 0.124982 0
M  V30 3072 O 313.169 -2.71481 0.0324176 0
M  V30 3073 C 311.625 -2.47905 2.60904 0
M  V30 3074 C 311.233 -1.96016 4.02842 0
M  V30 3075 C 312.977 -3.24965 2.73126 0
M  V30 3076 C 310.884 -3.04494 5.06988 0
M  V30 3077 H 309.814 -0.514428 0.551253 0
M  V30 3078 H 312.465 -0.658182 1.7129 0
M  V30 3079 H 310.847 -3.21618 2.31037 0
M  V30 3080 H 312.021 -1.29051 4.4236 0
M  V30 3081 H 310.336 -1.31719 3.95018 0
M  V30 3082 H 312.933 -4.05865 3.48106 0
M  V30 3083 H 313.276 -3.75588 1.79553 0
M  V30 3084 H 313.809 -2.5835 3.0249 0
M  V30 3085 H 310.548 -2.58795 6.0225 0
M  V30 3086 H 310.068 -3.70044 4.72046 0
M  V30 3087 H 311.747 -3.68976 5.31475 0
M  V30 3088 N 311.879 -1.3236 -0.855495 0
M  V30 3089 C 313.104 -1.2601 -1.64731 0
M  V30 3090 C 313.529 0.169068 -1.87339 0
M  V30 3091 O 312.887 1.12016 -1.42556 0
M  V30 3092 C 312.935 -2.02417 -2.98429 0
M  V30 3093 O 312.039 -1.3714 -3.8893 0
M  V30 3094 H 311.38 -0.434325 -0.502253 0
M  V30 3095 H 313.91 -1.74661 -1.06558 0
M  V30 3096 H 313.92 -2.12559 -3.48257 0
M  V30 3097 H 312.595 -3.06343 -2.81295 0
M  V30 3098 H 311.172 -1.3554 -3.47395 0
M  V30 3099 N 313.357 1.07166 -1.15556 0
M  V30 3100 C 314.289 2.14341 -0.811815 0
M  V30 3101 C 315.302 1.61835 0.177015 0
M  V30 3102 O 316.491 1.78439 -0.0464996 0
M  V30 3103 C 313.591 3.38387 -0.186481 0
M  V30 3104 C 312.764 4.20238 -1.21321 0
M  V30 3105 C 311.823 5.2266 -0.609302 0
M  V30 3106 O 310.849 5.54719 -1.27576 0
M  V30 3107 N 312.051 5.77306 0.608099 0
M  V30 3108 H 314.816 2.44431 -1.73417 0
M  V30 3109 H 312.377 1.23089 -1.0517 0
M  V30 3110 H 314.369 4.04044 0.230339 0
M  V30 3111 H 312.939 3.05994 0.639249 0
M  V30 3112 H 312.159 3.50369 -1.80652 0
M  V30 3113 H 313.447 4.71736 -1.90638 0
M  V30 3114 H 312.845 5.53513 1.1679 0
M  V30 3115 H 311.402 6.44583 0.96725 0
M  V30 3116 N 314.835 0.952656 1.25548 0
M  V30 3117 C 315.765 0.489287 2.28316 0
M  V30 3118 C 316.746 -0.463359 1.63667 0
M  V30 3119 O 317.931 -0.36274 1.90782 0
M  V30 3120 C 315.061 -0.235603 3.465 0
M  V30 3121 C 314.015 0.631593 4.23314 0
M  V30 3122 C 313.341 -0.223923 5.34231 0
M  V30 3123 C 314.641 1.90871 4.86174 0
M  V30 3124 H 316.335 1.34822 2.67326 0
M  V30 3125 H 313.881 0.649728 1.28509 0
M  V30 3126 H 315.834 -0.570882 4.17515 0
M  V30 3127 H 314.558 -1.12877 3.06474 0
M  V30 3128 H 313.217 0.949929 3.54079 0
M  V30 3129 H 312.865 -1.11678 4.90446 0
M  V30 3130 H 312.565 0.35299 5.86539 0
M  V30 3131 H 314.089 -0.554214 6.0808 0
M  V30 3132 H 315.503 1.63997 5.49343 0
M  V30 3133 H 313.9 2.43112 5.4865 0
M  V30 3134 H 314.97 2.61304 4.08471 0
M  V30 3135 O 316.352 -1.36754 0.859105 0
M  V30 3136 H 317.043 -1.8829 0.454606 0
M  V30 END ATOM
M  V30 BEGIN BOND
M  V30 END BOND
M  V30 END CTAB
M  END
$$$$
