drugbank_target|P15917 Lethal factor (DB01883; DB02255; DB04452; DB07290; DB08177)
 OpenBabel12092119533D

  0  0  0     0  0            999 V3000
M  V30 BEGIN CTAB
M  V30 COUNTS 13244 13359 0 0 0
M  V30 BEGIN ATOM
M  V30 1 H -0.908 1.98254 -0.117106 0
M  V30 2 N 0 1.576 0 0
M  V30 3 C 0.933 2.03868 1.02534 0
M  V30 4 C 1.911 0.928543 1.3348 0
M  V30 5 O 3.095 1.19667 1.45644 0
M  V30 6 C 0.222 2.43627 2.35294 0
M  V30 7 C -0.732 3.65373 2.2001 0
M  V30 8 S 0.101 5.13292 1.52614 0
M  V30 9 C 1.257 5.56322 2.86805 0
M  V30 10 H 1.49 2.90518 0.631377 0
M  V30 11 H -0.977 1.52953 0.210867 0
M  V30 12 H 0.981 2.67203 3.11629 0
M  V30 13 H -0.358 1.57376 2.7183 0
M  V30 14 H -1.165 3.90944 3.18086 0
M  V30 15 H -1.563 3.418 1.51819 0
M  V30 16 H 0.729 5.58782 3.83104 0
M  V30 17 H 1.672 6.56266 2.65933 0
M  V30 18 H 2.08 4.83886 2.90714 0
M  V30 19 N 1.4781 -0.272755 1.55222 0
M  V30 20 C 2.4261 -1.35705 1.88909 0
M  V30 21 C 3.4201 -1.5112 0.765456 0
M  V30 22 O 4.6261 -1.52901 0.949802 0
M  V30 23 H 1.0011 -0.453868 0.59959 0
M  V30 24 H 2.9721 -1.04544 2.79487 0
M  V30 25 C 1.7211 -2.71049 2.17779 0
M  V30 26 H 1.0441 -2.59979 3.03728 0
M  V30 27 H 2.4841 -3.45858 2.45272 0
M  V30 28 C 0.9431 -3.22165 0.985473 0
M  V30 29 O 1.4731 -4.01096 0.220233 0
M  V30 30 N -0.3209 -2.7985 0.783108 0
M  V30 31 H -0.7739 -2.15775 1.40708 0
M  V30 32 H -0.8159 -3.14397 -0.0130392 0
M  V30 33 N 2.9562 -1.48159 -0.537278 0
M  V30 34 C 4.2052 -1.5506 -1.28993 0
M  V30 35 C 4.5182 -0.226211 -1.94288 0
M  V30 36 O 5.7242 -0.173395 -2.70946 0
M  V30 37 C 4.1802 -2.73429 -2.34018 0
M  V30 38 C 3.7882 -4.1248 -1.74825 0
M  V30 39 C 5.5322 -2.89638 -3.10339 0
M  V30 40 C 3.4392 -5.22121 -2.77747 0
M  V30 41 H 2.3692 -0.577231 -0.485098 0
M  V30 42 H 5.0202 -1.74478 -0.568317 0
M  V30 43 H 3.4022 -2.47431 -3.09182 0
M  V30 44 H 4.5762 -4.48466 -1.05899 0
M  V30 45 H 2.8912 -4.01327 -1.11022 0
M  V30 46 H 5.4882 -3.68718 -3.87235 0
M  V30 47 H 5.8312 -1.9882 -3.65754 0
M  V30 48 H 6.3642 -3.15502 -2.42288 0
M  V30 49 H 3.1032 -6.1488 -2.27161 0
M  V30 50 H 2.6232 -4.90631 -3.45024 0
M  V30 51 H 4.3022 -5.49924 -3.4087 0
M  V30 52 N 4.4343 0.785586 -1.36625 0
M  V30 53 C 5.3813 1.89838 -1.31264 0
M  V30 54 C 6.3513 1.65115 -0.180633 0
M  V30 55 O 7.5363 1.87222 -0.36777 0
M  V30 56 C 4.6763 3.26706 -1.11163 0
M  V30 57 C 3.7893 3.63476 -2.33472 0
M  V30 58 C 2.9243 4.89481 -2.06353 0
M  V30 59 C 1.9633 5.18941 -3.24602 0
M  V30 60 N 1.1003 6.36131 -2.97123 0
M  V30 61 H 5.9403 1.93756 -2.26413 0
M  V30 62 H 3.4773 0.947454 -1.12524 0
M  V30 63 H 5.4353 4.05639 -0.975337 0
M  V30 64 H 4.0653 3.222 -0.196674 0
M  V30 65 H 3.1173 2.79636 -2.57891 0
M  V30 66 H 4.4293 3.81193 -3.21704 0
M  V30 67 H 3.5833 5.76288 -1.89675 0
M  V30 68 H 2.3223 4.73841 -1.15437 0
M  V30 69 H 1.3273 4.30615 -3.41834 0
M  V30 70 H 2.5523 5.36498 -4.16349 0
M  V30 71 H 0.4983 6.21875 -2.08823 0
M  V30 72 H 0.4153 6.54198 -3.78894 0
M  V30 73 H 1.6833 7.2591 -2.84033 0
M  V30 74 N 5.9124 1.20967 1.01018 0
M  V30 75 C 6.8594 0.964281 2.09691 0
M  V30 76 C 7.8294 -0.107853 1.65749 0
M  V30 77 O 9.0144 0.0381987 1.90762 0
M  V30 78 C 6.1544 0.52943 3.41015 0
M  V30 79 C 5.2674 1.67043 3.98398 0
M  V30 80 C 4.4024 1.18525 5.17808 0
M  V30 81 C 3.4414 2.29892 5.67288 0
M  V30 82 N 2.5784 1.82546 6.77954 0
M  V30 83 H 7.4184 1.89463 2.30017 0
M  V30 84 H 4.9554 0.944289 1.1279 0
M  V30 85 H 6.9134 0.258588 4.16398 0
M  V30 86 H 5.5434 -0.363919 3.20742 0
M  V30 87 H 4.5954 2.05603 3.20049 0
M  V30 88 H 5.9074 2.50877 4.31117 0
M  V30 89 H 5.0614 0.870762 6.00419 0
M  V30 90 H 3.8004 0.316887 4.86669 0
M  V30 91 H 2.8054 2.6215 4.83278 0
M  V30 92 H 4.0304 3.17216 6.00459 0
M  V30 93 H 1.9764 0.980454 6.48632 0
M  V30 94 H 1.8934 2.59956 7.09901 0
M  V30 95 H 3.1614 1.54115 7.64113 0
M  V30 96 N 7.3905 -1.2043 1.01659 0
M  V30 97 C 8.3005 -2.2689 0.596484 0
M  V30 98 C 9.3165 -1.70107 -0.36599 0
M  V30 99 O 10.4925 -2.00117 -0.226942 0
M  V30 100 C 7.5575 -3.4665 -0.0586659 0
M  V30 101 C 6.6185 -4.18662 0.949751 0
M  V30 102 C 5.8515 -5.32705 0.32577 0
M  V30 103 O 6.0745 -5.63656 -0.874509 0
M  V30 104 O 5.0085 -5.92803 1.04249 0
M  V30 105 H 8.8345 -2.65041 1.4828 0
M  V30 106 H 6.4195 -1.27048 0.786082 0
M  V30 107 H 8.3015 -4.19256 -0.424564 0
M  V30 108 H 6.9765 -3.10375 -0.91918 0
M  V30 109 H 5.8835 -3.48229 1.36702 0
M  V30 110 H 7.2165 -4.58878 1.78023 0
M  V30 111 N 8.8686 -0.792821 -1.36206 0
M  V30 112 C 10.1156 -0.366786 -1.99151 0
M  V30 113 C 10.4436 1.06243 -1.62919 0
M  V30 114 O 9.6986 1.74927 -0.877442 0
M  V30 115 C 9.9976 -0.481501 -3.54142 0
M  V30 116 C 9.6636 -1.87202 -4.10203 0
M  V30 117 C 8.3256 -2.25248 -4.25226 0
M  V30 118 C 10.6776 -2.78237 -4.40719 0
M  V30 119 C 8.0056 -3.53723 -4.68078 0
M  V30 120 C 10.3576 -4.06144 -4.85005 0
M  V30 121 C 9.0216 -4.44207 -4.98234 0
M  V30 122 H 8.2916 -0.134217 -0.728743 0
M  V30 123 H 10.9386 -1.01094 -1.62641 0
M  V30 124 H 9.2436 0.246146 -3.91026 0
M  V30 125 H 10.9406 -0.132844 -4.0078 0
M  V30 126 H 7.5306 -1.56639 -3.98951 0
M  V30 127 H 11.7146 -2.50097 -4.28679 0
M  V30 128 H 6.9706 -3.8308 -4.76508 0
M  V30 129 H 11.1446 -4.76796 -5.07581 0
M  V30 130 H 8.7716 -5.43814 -5.31197 0
M  V30 131 N 10.3467 1.47872 -0.545128 0
M  V30 132 C 11.5957 2.01695 -0.0145033 0
M  V30 133 C 11.9087 1.42609 1.33873 0
M  V30 134 O 13.1147 1.88021 1.95858 0
M  V30 135 C 11.5707 3.59892 0.0245068 0
M  V30 136 C 11.1787 4.27966 -1.32475 0
M  V30 137 C 12.9227 4.21507 0.50316 0
M  V30 138 C 10.8297 5.78136 -1.2455 0
M  V30 139 H 9.7597 0.753998 -0.00165172 0
M  V30 140 H 12.4107 1.69985 -0.691175 0
M  V30 141 H 10.7927 3.88509 0.766575 0
M  V30 142 H 11.9667 4.11003 -2.08357 0
M  V30 143 H 10.2817 3.78286 -1.74036 0
M  V30 144 H 12.8787 5.31538 0.580656 0
M  V30 145 H 13.2217 3.87855 1.51243 0
M  V30 146 H 13.7547 3.97376 -0.183681 0
M  V30 147 H 10.4937 6.16388 -2.23039 0
M  V30 148 H 10.0137 5.97469 -0.528282 0
M  V30 149 H 11.6927 6.40099 -0.942488 0
M  V30 150 N 11.8248 0.280983 1.55075 0
M  V30 151 C 12.7718 -0.603937 2.22758 0
M  V30 152 C 13.7418 -1.1452 1.20309 0
M  V30 153 O 14.9268 -1.19343 1.48869 0
M  V30 154 C 12.0668 -1.77947 2.95684 0
M  V30 155 C 11.1798 -1.2715 4.12864 0
M  V30 156 C 10.3148 -2.4093 4.7342 0
M  V30 157 C 9.3538 -1.87165 5.82783 0
M  V30 158 N 8.4908 -2.94441 6.37377 0
M  V30 159 H 13.3308 -0.020124 2.97993 0
M  V30 160 H 10.8678 0.00183425 1.471 0
M  V30 161 H 12.8258 -2.47055 3.36184 0
M  V30 162 H 11.4558 -2.33522 2.22861 0
M  V30 163 H 10.5078 -0.473331 3.77444 0
M  V30 164 H 11.8198 -0.837751 4.91715 0
M  V30 165 H 10.9738 -3.18021 5.1667 0
M  V30 166 H 9.7128 -2.87623 3.93859 0
M  V30 167 H 8.7178 -1.08556 5.38976 0
M  V30 168 H 9.9428 -1.41401 6.64216 0
M  V30 169 H 7.8888 -3.40505 5.60707 0
M  V30 170 H 7.8058 -2.55501 7.11516 0
M  V30 171 H 9.0738 -3.71489 6.85285 0
M  V30 172 N 13.3029 -1.57598 0.00835791 0
M  V30 173 C 14.5489 -1.91211 -0.675732 0
M  V30 174 C 14.8819 -0.883139 -1.72958 0
M  V30 175 O 14.1569 0.097016 -1.94258 0
M  V30 176 C 14.4399 -3.35379 -1.31123 0
M  V30 177 C 14.2929 -4.48999 -0.268356 0
M  V30 178 C 15.6119 -3.7912 -2.23508 0
M  V30 179 H 12.7309 -0.695374 -0.244179 0
M  V30 180 H 15.3729 -1.89901 0.0613655 0
M  V30 181 H 13.5229 -3.36626 -1.93946 0
M  V30 182 H 15.1949 -4.59887 0.360844 0
M  V30 183 H 13.4379 -4.31873 0.408482 0
M  V30 184 H 14.1089 -5.46851 -0.752218 0
M  V30 185 H 16.5849 -3.79477 -1.70693 0
M  V30 186 H 15.4609 -4.80729 -2.64936 0
M  V30 187 H 15.7219 -3.13455 -3.11766 0
M  V30 188 N 14.781 0.264519 -1.55364 0
M  V30 189 C 16.03 0.992812 -1.75574 0
M  V30 190 C 16.343 1.87142 -0.568979 0
M  V30 191 O 17.549 2.63513 -0.653682 0
M  V30 192 C 16.005 1.81519 -3.10771 0
M  V30 193 C 15.613 0.984839 -4.37041 0
M  V30 194 C 17.357 2.53727 -3.40327 0
M  V30 195 C 15.264 1.80209 -5.63275 0
M  V30 196 H 14.194 0.374412 -0.65447 0
M  V30 197 H 16.845 0.248138 -1.81815 0
M  V30 198 H 15.227 2.60115 -2.98591 0
M  V30 199 H 16.401 0.242455 -4.60162 0
M  V30 200 H 14.716 0.37691 -4.14691 0
M  V30 201 H 17.313 3.15292 -4.3185 0
M  V30 202 H 17.656 3.24447 -2.60845 0
M  V30 203 H 18.189 1.82156 -3.53644 0
M  V30 204 H 14.928 1.13896 -6.45529 0
M  V30 205 H 14.448 2.52022 -5.44284 0
M  V30 206 H 16.127 2.37364 -6.01887 0
M  V30 207 N 16.2591 1.48442 0.529413 0
M  V30 208 C 17.4841 1.60406 1.31471 0
M  V30 209 C 17.9091 0.264738 1.86228 0
M  V30 210 O 17.2671 -0.763668 1.64432 0
M  V30 211 C 17.3151 2.65419 2.44101 0
M  V30 212 O 16.4191 2.22618 3.47153 0
M  V30 213 H 15.7601 0.537863 0.389357 0
M  V30 214 H 18.2901 1.94432 0.636965 0
M  V30 215 H 18.3001 2.86709 2.90279 0
M  V30 216 H 16.9751 3.62652 2.03608 0
M  V30 217 H 15.5521 2.11543 3.0709 0
M  V30 218 N 17.7372 -0.778329 1.37039 0
M  V30 219 C 18.6702 -1.8984 1.26633 0
M  V30 220 C 19.6482 -1.61923 0.148197 0
M  V30 221 O 20.8322 -1.85742 0.321265 0
M  V30 222 C 17.9592 -3.24916 0.956403 0
M  V30 223 C 17.0052 -3.71752 2.09051 0
M  V30 224 S 17.8382 -3.86201 3.70957 0
M  V30 225 C 18.9942 -5.24135 3.42101 0
M  V30 226 H 19.2272 -1.98377 2.21436 0
M  V30 227 H 16.7602 -0.938738 1.22585 0
M  V30 228 H 18.7182 -4.02936 0.784409 0
M  V30 229 H 17.3792 -3.14089 0.0259713 0
M  V30 230 H 16.5722 -4.69661 1.8285 0
M  V30 231 H 16.1742 -3.00815 2.2223 0
M  V30 232 H 18.4662 -6.09086 2.96682 0
M  V30 233 H 19.4092 -5.55346 4.39314 0
M  V30 234 H 19.8172 -4.91761 2.77185 0
M  V30 235 N 19.2153 -1.21501 -1.00376 0
M  V30 236 C 20.4403 -1.05977 -1.78279 0
M  V30 237 C 20.8653 0.385994 -1.84097 0
M  V30 238 O 20.2233 1.27849 -1.28547 0
M  V30 239 C 20.2713 -1.66302 -3.19963 0
M  V30 240 O 19.3753 -0.909333 -4.0225 0
M  V30 241 H 18.7163 -0.372906 -0.549397 0
M  V30 242 H 21.2463 -1.6107 -1.26165 0
M  V30 243 H 21.2563 -1.70574 -3.70632 0
M  V30 244 H 19.9313 -2.71515 -3.15043 0
M  V30 245 H 18.5083 -0.941795 -3.60811 0
M  V30 246 N 20.6934 1.19889 -1.02296 0
M  V30 247 C 21.9334 1.91125 -0.724602 0
M  V30 248 C 22.2974 1.77464 0.732835 0
M  V30 249 O 23.4984 2.43241 1.144 0
M  V30 250 C 21.7694 3.38187 -1.15604 0
M  V30 251 S 23.3284 4.27702 -0.980621 0
M  V30 252 H 20.1464 0.66018 -0.263976 0
M  V30 253 H 22.7484 1.44978 -1.31155 0
M  V30 254 H 21.4524 3.45653 -2.21251 0
M  V30 255 H 20.9834 3.89363 -0.562131 0
M  V30 256 H 22.9984 4.96073 0.112225 0
M  V30 257 N 22.1715 0.800033 1.35784 0
M  V30 258 C 23.1015 0.220184 2.3246 0
M  V30 259 C 24.0825 -0.65073 1.57161 0
M  V30 260 O 25.2675 -0.582359 1.85263 0
M  V30 261 C 22.3975 -0.637353 3.41402 0
M  V30 262 C 21.3515 0.134531 4.27789 0
M  V30 263 C 20.6775 -0.844285 5.27992 0
M  V30 264 C 21.9775 1.32979 5.05088 0
M  V30 265 H 23.6715 1.02787 2.81203 0
M  V30 266 H 21.2175 0.495717 1.35199 0
M  V30 267 H 23.1705 -1.05302 4.08031 0
M  V30 268 H 21.8945 -1.47785 2.91251 0
M  V30 269 H 20.5535 0.531296 3.6273 0
M  V30 270 H 20.2015 -1.68011 4.74111 0
M  V30 271 H 19.9015 -0.332184 5.8666 0
M  V30 272 H 21.4255 -1.2583 5.97494 0
M  V30 273 H 22.8395 0.98934 5.64699 0
M  V30 274 H 21.2365 1.77593 5.7322 0
M  V30 275 H 22.3065 2.11978 4.36111 0
M  V30 276 N 23.6496 -1.47581 0.552962 0
M  V30 277 C 24.8956 -2.02782 0.0273648 0
M  V30 278 C 25.2286 -1.42687 -1.31734 0
M  V30 279 O 24.5036 -0.580897 -1.85623 0
M  V30 280 C 24.7866 -3.60031 -0.0702371 0
M  V30 281 C 24.6396 -4.30566 1.30126 0
M  V30 282 C 25.9586 -4.33028 -0.785771 0
M  V30 283 H 23.0776 -0.736912 0.0114185 0
M  V30 284 H 25.7196 -1.76056 0.714432 0
M  V30 285 H 23.8696 -3.82932 -0.655382 0
M  V30 286 H 25.5416 -4.19018 1.92929 0
M  V30 287 H 23.7846 -3.91086 1.87709 0
M  V30 288 H 24.4556 -5.39114 1.18573 0
M  V30 289 H 26.9316 -4.15095 -0.288982 0
M  V30 290 H 25.8076 -5.42695 -0.823013 0
M  V30 291 H 26.0686 -4.01945 -1.841 0
M  V30 292 N 25.1277 -0.289203 -1.54924 0
M  V30 293 C 26.3557 0.326463 -2.04308 0
M  V30 294 C 26.7707 1.48413 -1.16701 0
M  V30 295 O 26.1277 1.81507 -0.190087 0
M  V30 296 C 26.1787 0.794014 -3.52672 0
M  V30 297 O 25.8997 -0.317564 -4.36948 0
M  V30 298 C 27.4007 1.47605 -4.18004 0
M  V30 299 H 24.6207 0.0726272 -0.667058 0
M  V30 300 H 27.1647 -0.425401 -2.00026 0
M  V30 301 H 25.3197 1.49593 -3.57352 0
M  V30 302 H 25.7337 0.0443186 -5.24481 0
M  V30 303 H 27.2077 1.75447 -5.23376 0
M  V30 304 H 27.6847 2.41224 -3.67025 0
M  V30 305 H 28.2907 0.81762 -4.17367 0
M  V30 306 N 26.6058 1.57591 -0.0167156 0
M  V30 307 C 27.5688 2.08393 0.954204 0
M  V30 308 C 28.5688 0.996531 1.26198 0
M  V30 309 O 29.7588 1.25858 1.20438 0
M  V30 310 C 26.8908 2.5394 2.27436 0
M  V30 311 H 28.0838 2.95455 0.514451 0
M  V30 312 H 25.6368 1.54582 0.231089 0
M  V30 313 H 26.3718 1.70171 2.76066 0
M  V30 314 H 26.1568 3.33371 2.06412 0
M  V30 315 H 27.6468 2.93512 2.97053 0
M  V30 316 N 28.0839 -0.256276 1.55502 0
M  V30 317 C 29.3329 -0.983486 1.76098 0
M  V30 318 C 29.6459 -1.86837 0.578896 0
M  V30 319 O 30.8519 -2.63163 0.667648 0
M  V30 320 C 29.3079 -1.79868 3.1173 0
M  V30 321 C 28.9159 -0.961648 4.37557 0
M  V30 322 C 30.6599 -2.51919 3.41668 0
M  V30 323 C 28.5669 -1.77219 5.64223 0
M  V30 324 H 27.4969 -0.370936 0.656447 0
M  V30 325 H 30.1479 -0.238492 1.81944 0
M  V30 326 H 28.5299 -2.58527 2.99966 0
M  V30 327 H 29.7039 -0.218048 4.60284 0
M  V30 328 H 28.0189 -0.354913 4.14885 0
M  V30 329 H 30.6159 -3.12998 4.33516 0
M  V30 330 H 30.9589 -3.23059 2.62562 0
M  V30 331 H 31.4919 -1.80278 3.54605 0
M  V30 332 H 28.2309 -1.10471 6.46124 0
M  V30 333 H 27.7509 -2.49132 5.45613 0
M  V30 334 H 29.4299 -2.34169 6.03137 0
M  V30 335 N 29.562 -1.4872 -0.521534 0
M  V30 336 C 30.79 -1.60843 -1.30142 0
M  V30 337 C 31.205 -0.271897 -1.86832 0
M  V30 338 O 30.562 0.739969 -1.66825 0
M  V30 339 C 30.613 -2.66155 -2.4463 0
M  V30 340 O 30.334 -3.94623 -1.90275 0
M  V30 341 C 31.835 -2.88795 -3.36322 0
M  V30 342 H 29.055 -0.542075 -0.395468 0
M  V30 343 H 31.599 -1.94609 -0.628285 0
M  V30 344 H 29.754 -2.35224 -3.07812 0
M  V30 345 H 30.168 -4.52468 -2.65279 0
M  V30 346 H 31.642 -3.66264 -4.12983 0
M  V30 347 H 32.119 -1.97934 -3.9207 0
M  V30 348 H 32.725 -3.21063 -2.78924 0
M  V30 349 N 31.0401 0.771051 -1.3745 0
M  V30 350 C 31.9701 1.89827 -1.3597 0
M  V30 351 C 32.9511 1.68562 -0.228216 0
M  V30 352 O 34.1361 1.8941 -0.428675 0
M  V30 353 C 31.2661 3.2712 -1.16662 0
M  V30 354 C 30.2201 3.6295 -2.2683 0
M  V30 355 C 29.5461 4.98791 -1.92644 0
M  V30 356 C 30.8461 3.69627 -3.69017 0
M  V30 357 H 32.5401 1.91323 -2.30295 0
M  V30 358 H 30.0861 0.919082 -1.10855 0
M  V30 359 H 32.0391 4.05615 -1.14256 0
M  V30 360 H 30.7631 3.26059 -0.187926 0
M  V30 361 H 29.4221 2.86763 -2.28392 0
M  V30 362 H 29.0701 4.94271 -0.933021 0
M  V30 363 H 28.7701 5.23733 -2.66416 0
M  V30 364 H 30.2941 5.79685 -1.91826 0
M  V30 365 H 31.7081 4.38273 -3.69581 0
M  V30 366 H 30.1051 4.06067 -4.41848 0
M  V30 367 H 31.1751 2.70273 -4.02592 0
M  V30 368 N 32.5182 1.22032 0.997298 0
M  V30 369 C 33.7432 1.06921 1.77715 0
M  V30 370 C 34.1682 -0.376226 1.84299 0
M  V30 371 O 33.5262 -1.27165 1.29223 0
M  V30 372 C 33.5742 1.67996 3.19076 0
M  V30 373 O 32.6782 0.930653 4.01762 0
M  V30 374 H 32.0192 0.375814 0.547412 0
M  V30 375 H 34.5492 1.61737 1.25309 0
M  V30 376 H 34.5592 1.72538 3.69723 0
M  V30 377 H 33.2342 2.73182 3.13599 0
M  V30 378 H 31.8112 0.960917 3.60307 0
M  V30 379 N 33.9963 -1.19345 1.0293 0
M  V30 380 C 35.2443 -1.88665 0.724574 0
M  V30 381 C 35.5653 -1.80036 -0.749144 0
M  V30 382 O 34.8353 -1.2111 -1.53978 0
M  V30 383 H 33.4153 -0.698406 0.265025 0
M  V30 384 H 36.0773 -1.44885 1.30362 0
M  V30 385 H 35.1733 -2.94987 1.01926 0
M  V30 386 N 35.4744 -0.807222 -1.35358 0
M  V30 387 C 36.8854 -0.44876 -1.81226 0
M  V30 388 C 37.2364 1.02929 -1.67033 0
M  V30 389 O 36.3614 1.79991 -1.20133 0
M  V30 390 C 36.9564 -0.807774 -3.2903 0
M  V30 391 C 35.5154 -0.501901 -3.73039 0
M  V30 392 C 34.6624 -1.03304 -2.57339 0
M  V30 393 H 37.6134 -0.998808 -1.23327 0
M  V30 394 H 37.6344 -0.10554 -3.80354 0
M  V30 395 H 37.1464 -1.88357 -3.39328 0
M  V30 396 H 35.2474 0.565128 -3.68289 0
M  V30 397 H 35.3604 -1.03497 -4.67787 0
M  V30 398 H 33.7244 -0.455339 -2.50597 0
M  V30 399 H 34.5074 -2.11496 -2.70415 0
M  V30 400 N 36.9525 1.47285 -0.560781 0
M  V30 401 C 38.1985 2.02764 -0.0381184 0
M  V30 402 C 38.5315 1.43384 1.30976 0
M  V30 403 O 37.8065 0.590733 1.85312 0
M  V30 404 C 38.0895 3.60064 0.0511427 0
M  V30 405 C 37.9425 4.2987 -1.32408 0
M  V30 406 C 39.2615 4.33439 0.762795 0
M  V30 407 H 36.3805 0.736841 -0.0153264 0
M  V30 408 H 39.0225 1.75675 -0.723759 0
M  V30 409 H 37.1725 3.83274 0.635065 0
M  V30 410 H 38.8445 4.17989 -1.95148 0
M  V30 411 H 37.0875 3.90085 -1.8978 0
M  V30 412 H 37.7585 5.38478 -1.21431 0
M  V30 413 H 40.2345 4.15243 0.266965 0
M  V30 414 H 39.1105 5.43124 0.794221 0
M  V30 415 H 39.3715 4.02915 1.81966 0
M  V30 416 N 38.4306 0.297415 1.54768 0
M  V30 417 C 39.6776 -0.312913 2.00068 0
M  V30 418 C 40.0056 -1.54171 1.18582 0
M  V30 419 O 39.2606 -1.94108 0.249133 0
M  V30 420 C 39.5596 -0.717561 3.50123 0
M  V30 421 C 39.2256 0.409095 4.4904 0
M  V30 422 C 37.8876 0.718399 4.75807 0
M  V30 423 C 40.2396 1.16717 5.07963 0
M  V30 424 C 37.5676 1.78896 5.5876 0
M  V30 425 C 39.9196 2.22762 5.92081 0
M  V30 426 C 38.5836 2.54303 6.1716 0
M  V30 427 H 37.8536 -0.114503 0.7321 0
M  V30 428 H 40.5006 0.415767 1.86932 0
M  V30 429 H 38.8056 -1.52627 3.60849 0
M  V30 430 H 40.5026 -1.20091 3.82595 0
M  V30 431 H 37.0926 0.157918 4.28309 0
M  V30 432 H 41.2766 0.941466 4.87289 0
M  V30 433 H 36.5326 2.0381 5.7643 0
M  V30 434 H 40.7066 2.81962 6.36765 0
M  V30 435 H 38.3336 3.3739 6.81229 0
M  V30 436 N 39.9087 -1.5758 0.0250728 0
M  V30 437 C 41.1577 -1.90811 -0.653767 0
M  V30 438 C 41.4707 -0.90273 -1.73523 0
M  V30 439 O 42.6767 -1.12614 -2.47043 0
M  V30 440 C 41.1327 -3.38804 -1.21409 0
M  V30 441 C 40.7407 -4.47692 -0.166126 0
M  V30 442 C 42.4847 -3.81108 -1.86967 0
M  V30 443 C 40.3917 -5.86779 -0.737856 0
M  V30 444 H 39.3217 -0.712063 -0.247956 0
M  V30 445 H 41.9727 -1.83281 0.0897137 0
M  V30 446 H 40.3547 -3.41252 -2.00905 0
M  V30 447 H 41.5287 -4.56797 0.606079 0
M  V30 448 H 39.8437 -4.14565 0.390466 0
M  V30 449 H 42.4407 -4.82375 -2.30692 0
M  V30 450 H 42.7837 -3.15953 -2.71071 0
M  V30 451 H 43.3167 -3.81065 -1.14167 0
M  V30 452 H 40.0557 -6.55468 0.0649577 0
M  V30 453 H 39.5757 -5.81288 -1.47864 0
M  V30 454 H 41.2547 -6.35223 -1.22884 0
M  V30 455 N 41.3868 0.248026 -1.55636 0
M  V30 456 C 42.7978 0.817177 -1.67866 0
M  V30 457 C 43.1488 1.86069 -0.622322 0
M  V30 458 O 42.2738 2.15157 0.231618 0
M  V30 459 C 42.8688 1.489 -3.04326 0
M  V30 460 C 41.4278 2.00587 -3.185 0
M  V30 461 C 40.5748 0.856573 -2.63739 0
M  V30 462 H 43.5258 0.0238579 -1.58682 0
M  V30 463 H 43.5468 2.35698 -2.98708 0
M  V30 464 H 43.0588 0.729279 -3.81186 0
M  V30 465 H 41.1598 2.79443 -2.4646 0
M  V30 466 H 41.2728 2.20402 -4.25393 0
M  V30 467 H 39.6368 1.25678 -2.21534 0
M  V30 468 H 40.4198 0.109953 -3.43124 0
M  V30 469 N 42.8649 1.48995 0.513639 0
M  V30 470 C 43.7949 1.67636 1.62544 0
M  V30 471 C 44.7759 0.525087 1.61793 0
M  V30 472 O 45.9609 0.759502 1.78732 0
M  V30 473 C 43.0909 1.73114 3.01079 0
M  V30 474 C 42.0449 2.87905 3.16693 0
M  V30 475 C 41.3709 2.78486 4.56453 0
M  V30 476 C 42.6709 4.29005 2.97913 0
M  V30 477 H 44.3649 2.60716 1.47198 0
M  V30 478 H 41.9109 1.25465 0.706714 0
M  V30 479 H 43.8639 1.84742 3.78746 0
M  V30 480 H 42.5879 0.766241 3.17484 0
M  V30 481 H 41.2469 2.75859 2.41448 0
M  V30 482 H 40.8949 1.7993 4.69717 0
M  V30 483 H 40.5949 3.55523 4.67843 0
M  V30 484 H 42.1189 2.92104 5.36197 0
M  V30 485 H 43.5329 4.41798 3.65359 0
M  V30 486 H 41.9299 5.07166 3.20785 0
M  V30 487 H 42.9999 4.44329 1.94165 0
M  V30 488 N 44.343 -0.763751 1.37857 0
M  V30 489 C 45.589 -1.52483 1.33704 0
M  V30 490 C 45.922 -1.94051 -0.0759612 0
M  V30 491 O 45.197 -1.64675 -1.03501 0
M  V30 492 C 45.48 -2.78441 2.28348 0
M  V30 493 C 45.333 -2.43075 3.78463 0
M  V30 494 C 46.652 -3.80415 2.21298 0
M  V30 495 H 43.771 -0.553169 0.487005 0
M  V30 496 H 46.413 -0.875562 1.68624 0
M  V30 497 H 44.563 -3.33842 1.987 0
M  V30 498 H 46.235 -1.93527 4.18742 0
M  V30 499 H 44.478 -1.75666 3.96641 0
M  V30 500 H 45.149 -3.33149 4.40132 0
M  V30 501 H 47.625 -3.34527 2.47449 0
M  V30 502 H 46.501 -4.66257 2.89647 0
M  V30 503 H 46.762 -4.25262 1.20849 0
M  V30 504 N 45.8211 -1.22559 -0.990812 0
M  V30 505 C 46.7531 -0.955325 -2.08342 0
M  V30 506 C 47.7661 0.0668408 -1.62663 0
M  V30 507 O 48.9551 -0.167421 -1.77713 0
M  V30 508 C 46.0551 -0.415566 -3.36342 0
M  V30 509 C 45.2281 -1.49544 -4.11042 0
M  V30 510 C 44.2871 -0.962399 -5.17324 0
M  V30 511 O 43.3131 -1.64907 -5.44788 0
M  V30 512 N 44.5151 0.215134 -5.80101 0
M  V30 513 H 47.2801 -1.89596 -2.32106 0
M  V30 514 H 44.8411 -1.13276 -1.15673 0
M  V30 515 H 46.8331 -0.0442386 -4.04676 0
M  V30 516 H 45.4031 0.430232 -3.09625 0
M  V30 517 H 44.6231 -2.04 -3.37309 0
M  V30 518 H 45.9111 -2.22195 -4.57719 0
M  V30 519 H 45.3091 0.789779 -5.6016 0
M  V30 520 H 43.8661 0.527826 -6.49659 0
M  V30 521 N 47.2992 1.18797 -1.03562 0
M  V30 522 C 48.5472 1.88278 -0.734569 0
M  V30 523 C 48.8682 1.8043 0.739586 0
M  V30 524 O 48.1382 1.21925 1.53333 0
M  V30 525 H 46.7182 0.696991 -0.268725 0
M  V30 526 H 49.3802 1.44192 -1.31129 0
M  V30 527 H 48.4762 2.94443 -1.03489 0
M  V30 528 N 48.7773 0.814389 1.34928 0
M  V30 529 C 49.7403 0.235759 2.27984 0
M  V30 530 C 50.7403 -0.581412 1.49921 0
M  V30 531 O 51.9303 -0.398758 1.69575 0
M  V30 532 C 49.0623 -0.670433 3.34242 0
M  V30 533 H 50.2553 1.05659 2.80671 0
M  V30 534 H 47.8083 0.585614 1.44915 0
M  V30 535 H 48.5433 -1.51466 2.86755 0
M  V30 536 H 48.3283 -0.0860822 3.92005 0
M  V30 537 H 49.8183 -1.06935 4.03676 0
M  V30 538 N 50.2554 -1.46986 0.568584 0
M  V30 539 C 51.5034 -2.02041 0.0487022 0
M  V30 540 C 51.8244 -1.44408 -1.31039 0
M  V30 541 O 51.0944 -0.623477 -1.85714 0
M  V30 542 H 49.6744 -0.746849 0.015014 0
M  V30 543 H 52.3364 -1.80257 0.741168 0
M  V30 544 H 51.4324 -3.12085 -0.0308961 0
M  V30 545 N 51.7335 -0.305618 -1.54608 0
M  V30 546 C 52.9815 0.301701 -1.99835 0
M  V30 547 C 53.3025 1.54054 -1.19551 0
M  V30 548 O 52.5725 1.93702 -0.292658 0
M  V30 549 H 51.1525 0.114468 -0.738178 0
M  V30 550 H 53.8145 -0.418016 -1.90364 0
M  V30 551 H 52.9105 0.570548 -3.06841 0
M  V30 552 N 53.2116 1.57565 -0.0334293 0
M  V30 553 C 54.1616 2.06978 0.956237 0
M  V30 554 C 55.1456 0.971193 1.28283 0
M  V30 555 O 56.3376 1.23471 1.26822 0
M  V30 556 C 53.4666 2.60393 2.23719 0
M  V30 557 C 52.5526 3.7719 1.93877 0
M  V30 558 N 52.9436 4.87639 1.34321 0
M  V30 559 C 51.2416 3.85758 2.23845 0
M  V30 560 C 51.9426 5.68825 1.21709 0
M  V30 561 N 50.9186 5.1587 1.71404 0
M  V30 562 H 54.7206 2.89773 0.490815 0
M  V30 563 H 52.2346 1.61492 0.171478 0
M  V30 564 H 54.2316 2.94088 2.95496 0
M  V30 565 H 52.8916 1.79031 2.70884 0
M  V30 566 H 53.9026 5.07803 1.01767 0
M  V30 567 H 50.5796 3.1531 2.73653 0
M  V30 568 H 51.9696 6.67631 0.75621 0
M  V30 569 N 54.6897 -0.239769 1.55765 0
M  V30 570 C 55.9377 -0.964892 1.77579 0
M  V30 571 C 56.2587 -1.85582 0.598699 0
M  V30 572 O 55.5287 -1.92075 -0.385226 0
M  V30 573 H 54.1087 -0.359265 0.654933 0
M  V30 574 H 56.7707 -0.256001 1.93211 0
M  V30 575 H 55.8667 -1.58243 2.69009 0
M  V30 576 N 56.1678 -1.49265 -0.50573 0
M  V30 577 C 57.4448 -1.49012 -1.26707 0
M  V30 578 C 57.8248 -0.215205 -2.1 0
M  V30 579 O 57.1728 0.802547 -2.13943 0
M  V30 580 C 57.3828 -2.7663 -2.12783 0
M  V30 581 C 58.7308 -3.25932 -2.72127 0
M  V30 582 O 59.7548 -2.77715 -2.23054 0
M  V30 583 O 58.6138 -4.09897 -3.61451 0
M  V30 584 H 55.7078 -0.596197 -0.57313 0
M  V30 585 H 58.2538 -1.61524 -0.52039 0
M  V30 586 H 57.0258 -3.60916 -1.5118 0
M  V30 587 H 56.6488 -2.66956 -2.94653 0
M  V30 588 N 57.6459 0.756429 -1.3826 0
M  V30 589 C 58.8919 1.51772 -1.34511 0
M  V30 590 C 59.2249 1.94089 0.0656691 0
M  V30 591 O 58.4999 1.65221 1.02626 0
M  V30 592 C 58.7829 2.77226 -2.29821 0
M  V30 593 C 58.6359 2.41065 -3.79747 0
M  V30 594 C 59.9549 3.79236 -2.23312 0
M  V30 595 H 57.0739 0.550578 -0.489931 0
M  V30 596 H 59.7159 0.866607 -1.69086 0
M  V30 597 H 57.8659 3.32784 -2.00467 0
M  V30 598 H 59.5379 1.91303 -4.19763 0
M  V30 599 H 57.7809 1.7356 -3.97567 0
M  V30 600 H 58.4519 3.3081 -4.41892 0
M  V30 601 H 60.9279 3.3321 -2.49219 0
M  V30 602 H 59.8039 4.64714 -2.92116 0
M  V30 603 H 60.0649 4.24615 -1.23102 0
M  V30 604 N 59.124 1.23083 0.984299 0
M  V30 605 C 60.372 1.05848 1.72165 0
M  V30 606 C 60.693 -0.406049 1.90726 0
M  V30 607 O 59.963 -1.29139 1.47309 0
M  V30 608 H 58.543 0.388685 0.637913 0
M  V30 609 H 61.205 1.54736 1.18503 0
M  V30 610 H 60.301 1.54327 2.71274 0
M  V30 611 N 60.6021 -1.18246 1.0419 0
M  V30 612 C 61.5351 -2.20746 0.578474 0
M  V30 613 C 62.5131 -1.57912 -0.387624 0
M  V30 614 O 63.6971 -1.86071 -0.301634 0
M  V30 615 C 60.8241 -3.38346 -0.154762 0
M  V30 616 C 59.8701 -4.19587 0.764782 0
M  V30 617 S 60.7031 -4.86014 2.24835 0
M  V30 618 C 61.8591 -6.07012 1.526 0
M  V30 619 H 62.0921 -2.59715 1.44691 0
M  V30 620 H 59.6251 -1.287 0.85297 0
M  V30 621 H 61.5831 -4.065 -0.571641 0
M  V30 622 H 60.2441 -2.97786 -0.999105 0
M  V30 623 H 59.4371 -5.03611 0.197976 0
M  V30 624 H 59.0391 -3.56818 1.12057 0
M  V30 625 H 61.3311 -6.72523 0.819733 0
M  V30 626 H 62.2741 -6.68202 2.34333 0
M  V30 627 H 62.6821 -5.55249 1.01779 0
M  V30 628 N 62.0802 -0.821533 -1.34494 0
M  V30 629 C 63.0302 -0.214793 -2.26986 0
M  V30 630 C 64.0142 0.620125 -1.4847 0
M  V30 631 O 65.2062 0.474933 -1.70509 0
M  V30 632 C 62.3352 0.623566 -3.37589 0
M  V30 633 C 61.4212 -0.221904 -4.23519 0
M  V30 634 N 61.8122 -1.29223 -4.89014 0
M  V30 635 C 60.1102 -0.00600922 -4.46 0
M  V30 636 C 60.8112 -1.80965 -5.52835 0
M  V30 637 N 59.7872 -1.11376 -5.32068 0
M  V30 638 H 63.5892 -1.03354 -2.75128 0
M  V30 639 H 61.1032 -0.6642 -1.48196 0
M  V30 640 H 63.1002 1.0744 -4.02818 0
M  V30 641 H 61.7602 1.44049 -2.90998 0
M  V30 642 H 62.7712 -1.67502 -4.90065 0
M  V30 643 H 59.4482 0.77886 -4.10171 0
M  V30 644 H 60.8382 -2.70502 -6.15043 0
M  V30 645 N 63.5583 1.46682 -0.576371 0
M  V30 646 C 64.8043 2.02712 -0.0596221 0
M  V30 647 C 65.1373 1.44765 1.29448 0
M  V30 648 O 64.4123 0.610355 1.84675 0
M  V30 649 C 64.6953 3.60098 0.0129503 0
M  V30 650 C 64.5483 4.28441 -1.3696 0
M  V30 651 C 65.8673 4.34224 0.71678 0
M  V30 652 H 62.9863 0.736637 -0.0231407 0
M  V30 653 H 65.6283 1.74898 -0.742351 0
M  V30 654 H 63.7783 3.83926 0.594378 0
M  V30 655 H 65.4503 4.15896 -1.9957 0
M  V30 656 H 63.6933 3.8805 -1.93907 0
M  V30 657 H 64.3643 5.3716 -1.27135 0
M  V30 658 H 66.8403 4.15503 0.222908 0
M  V30 659 H 65.7163 5.43936 0.73657 0
M  V30 660 H 65.9773 4.04823 1.77682 0
M  V30 661 N 65.0364 0.313813 1.54444 0
M  V30 662 C 65.9834 -0.55655 2.23989 0
M  V30 663 C 66.9534 -1.11943 1.22711 0
M  V30 664 O 68.1384 -1.16158 1.51367 0
M  V30 665 C 65.2784 -1.71635 2.99392 0
M  V30 666 C 64.3914 -1.18364 4.15468 0
M  V30 667 C 63.5264 -2.30834 4.78424 0
M  V30 668 C 62.5654 -1.74762 5.86622 0
M  V30 669 N 61.7024 -2.80855 6.43479 0
M  V30 670 H 66.5424 0.0430893 2.97969 0
M  V30 671 H 64.0794 0.0330359 1.47063 0
M  V30 672 H 66.0374 -2.39868 3.41349 0
M  V30 673 H 64.6674 -2.28742 2.27765 0
M  V30 674 H 63.7194 -0.393163 3.78363 0
M  V30 675 H 65.0314 -0.733262 4.93381 0
M  V30 676 H 64.1854 -3.0699 5.23299 0
M  V30 677 H 62.9244 -2.79204 3.99871 0
M  V30 678 H 61.9294 -0.970995 5.41158 0
M  V30 679 H 63.1544 -1.2728 6.67066 0
M  V30 680 H 61.1004 -3.28535 5.67804 0
M  V30 681 H 61.0174 -2.40351 7.16776 0
M  V30 682 H 62.2854 -3.5687 6.93011 0
M  V30 683 N 66.5145 -1.57545 0.0417849 0
M  V30 684 C 67.4245 -2.14451 -0.951213 0
M  V30 685 C 68.4405 -1.09992 -1.34825 0
M  V30 686 O 69.6165 -1.42114 -1.42708 0
M  V30 687 C 66.6815 -2.67063 -2.21084 0
M  V30 688 C 65.7425 -3.86284 -1.87304 0
M  V30 689 C 64.9755 -4.36378 -3.07261 0
M  V30 690 O 65.1985 -3.85587 -4.20332 0
M  V30 691 O 64.1325 -5.28077 -2.88822 0
M  V30 692 H 67.9585 -2.99601 -0.497287 0
M  V30 693 H 65.5435 -1.48317 -0.179567 0
M  V30 694 H 67.4255 -3.00914 -2.95006 0
M  V30 695 H 66.1005 -1.84989 -2.65633 0
M  V30 696 H 65.0075 -3.57338 -1.10727 0
M  V30 697 H 66.3405 -4.6956 -1.47562 0
M  V30 698 N 67.9926 0.231505 -1.5589 0
M  V30 699 C 68.9396 1.28682 -1.91598 0
M  V30 700 C 69.9096 1.47071 -0.771974 0
M  V30 701 O 71.0946 1.60802 -1.027 0
M  V30 702 C 68.2346 2.6342 -2.22944 0
M  V30 703 C 67.3476 2.52912 -3.50228 0
M  V30 704 C 66.4826 3.80106 -3.7107 0
M  V30 705 C 65.5216 3.64279 -4.91902 0
M  V30 706 N 64.6586 4.834 -5.09184 0
M  V30 707 H 69.4986 0.975305 -2.81588 0
M  V30 708 H 67.0356 0.470299 -1.39379 0
M  V30 709 H 68.9936 3.41869 -2.39126 0
M  V30 710 H 67.6236 2.92687 -1.36139 0
M  V30 711 H 66.6756 1.6595 -3.42294 0
M  V30 712 H 67.9876 2.37133 -4.38827 0
M  V30 713 H 67.1416 4.66999 -3.87295 0
M  V30 714 H 65.8806 3.98799 -2.80733 0
M  V30 715 H 64.8856 2.7577 -4.75637 0
M  V30 716 H 66.1106 3.47067 -5.83714 0
M  V30 717 H 64.0566 5.02425 -4.21788 0
M  V30 718 H 63.9736 4.70311 -5.91898 0
M  V30 719 H 65.2416 5.71747 -5.29835 0
M  V30 720 N 69.4707 1.49531 0.497807 0
M  V30 721 C 70.3807 1.69176 1.62532 0
M  V30 722 C 71.3967 0.5744 1.64246 0
M  V30 723 O 72.5727 0.849497 1.82608 0
M  V30 724 C 69.6377 1.75695 2.98885 0
M  V30 725 C 68.6987 2.9929 3.07773 0
M  V30 726 C 67.9317 3.05488 4.37622 0
M  V30 727 O 68.1547 2.19192 5.26603 0
M  V30 728 O 67.0887 3.9798 4.51548 0
M  V30 729 H 70.9147 2.647 1.48887 0
M  V30 730 H 68.4997 1.3331 0.674441 0
M  V30 731 H 70.3817 1.82317 3.79919 0
M  V30 732 H 69.0567 0.8335 3.12785 0
M  V30 733 H 67.9637 2.98183 2.25915 0
M  V30 734 H 69.2967 3.91125 2.98801 0
M  V30 735 N 70.9488 -0.749086 1.3866 0
M  V30 736 C 71.8958 -1.86291 1.36251 0
M  V30 737 C 72.8658 -1.64578 0.224347 0
M  V30 738 O 74.0508 -1.86181 0.417279 0
M  V30 739 C 71.1908 -3.23644 1.19786 0
M  V30 740 C 70.3038 -3.57158 2.43027 0
M  V30 741 C 69.4388 -4.83838 2.19258 0
M  V30 742 C 68.4778 -5.10152 3.38247 0
M  V30 743 N 67.6148 -6.28029 3.13884 0
M  V30 744 H 72.4548 -1.87685 2.3147 0
M  V30 745 H 69.9918 -0.917287 1.14997 0
M  V30 746 H 71.9498 -4.0291 1.08254 0
M  V30 747 H 70.5798 -3.21566 0.282031 0
M  V30 748 H 69.6318 -2.72701 2.65214 0
M  V30 749 H 70.9438 -3.7253 3.31697 0
M  V30 750 H 70.0978 -5.71057 2.04888 0
M  V30 751 H 68.8368 -4.70614 1.2796 0
M  V30 752 H 67.8418 -4.21401 3.53131 0
M  V30 753 H 69.0668 -5.25271 4.30427 0
M  V30 754 H 67.0128 -6.1612 2.25238 0
M  V30 755 H 66.9298 -6.43922 3.96106 0
M  V30 756 H 68.1978 -7.18124 3.03179 0
M  V30 757 N 72.4269 -1.23603 -0.977757 0
M  V30 758 C 73.3749 -1.01704 -2.09187 0
M  V30 759 C 74.3689 0.0448214 -1.69341 0
M  V30 760 O 75.5749 -0.108902 -1.7967 0
M  V30 761 H 71.9499 -0.311803 -0.684312 0
M  V30 762 H 73.9209 -1.96207 -2.24823 0
M  V30 763 C 72.6699 -0.627746 -3.41986 0
M  V30 764 H 71.9929 -1.43656 -3.73099 0
M  V30 765 H 73.4329 -0.514053 -4.20872 0
M  V30 766 C 71.8919 0.664238 -3.30287 0
M  V30 767 O 72.4219 1.71268 -3.6336 0
M  V30 768 N 70.6279 0.641156 -2.83439 0
M  V30 769 H 70.1749 -0.212376 -2.56723 0
M  V30 770 H 70.1329 1.50583 -2.75993 0
M  V30 771 N 73.905 1.17692 -1.04816 0
M  V30 772 C 74.852 2.21581 -0.645797 0
M  V30 773 C 75.822 1.62367 0.350159 0
M  V30 774 O 77.007 1.89254 0.242433 0
M  V30 775 C 74.147 3.45092 -0.0227568 0
M  V30 776 C 73.26 4.18613 -1.06709 0
M  V30 777 C 72.395 5.29602 -0.411767 0
M  V30 778 C 71.434 5.94904 -1.44067 0
M  V30 779 N 70.571 6.97414 -0.809781 0
M  V30 780 H 75.411 2.55353 -1.5362 0
M  V30 781 H 72.948 1.25438 -0.768364 0
M  V30 782 H 74.906 4.15679 0.35588 0
M  V30 783 H 73.536 3.11917 0.831122 0
M  V30 784 H 72.588 3.46779 -1.5636 0
M  V30 785 H 73.9 4.63293 -1.84827 0
M  V30 786 H 73.054 6.06696 0.0206623 0
M  V30 787 H 71.793 4.86045 0.401438 0
M  V30 788 H 70.798 5.16544 -1.88316 0
M  V30 789 H 72.023 6.40542 -2.25571 0
M  V30 790 H 69.969 6.55998 -0.0170186 0
M  V30 791 H 69.886 7.40386 -1.52856 0
M  V30 792 H 71.154 7.78463 -0.401999 0
M  V30 793 N 75.3831 0.828654 1.34056 0
M  V30 794 C 76.6601 0.341809 1.9259 0
M  V30 795 C 77.0401 -1.17158 1.75605 0
M  V30 796 O 76.3881 -1.98132 1.13824 0
M  V30 797 C 76.5981 0.777453 3.4023 0
M  V30 798 C 77.9461 0.779579 4.17382 0
M  V30 799 O 78.9701 0.7204 3.48839 0
M  V30 800 O 77.8291 0.857996 5.39723 0
M  V30 801 H 74.9231 0.0946085 0.821571 0
M  V30 802 H 77.4691 0.913827 1.42994 0
M  V30 803 H 76.2411 1.8196 3.46419 0
M  V30 804 H 75.8641 0.181444 3.97186 0
M  V30 805 N 76.8612 -1.46375 0.584142 0
M  V30 806 C 77.7712 -2.34115 -0.150728 0
M  V30 807 C 78.7872 -1.49838 -0.884567 0
M  V30 808 O 79.9632 -1.82704 -0.847429 0
M  V30 809 C 77.0282 -3.2705 -1.15062 0
M  V30 810 C 76.0892 -4.27228 -0.421293 0
M  V30 811 C 75.3222 -5.15722 -1.37355 0
M  V30 812 O 75.5452 -5.07176 -2.61014 0
M  V30 813 O 74.4792 -5.95383 -0.883355 0
M  V30 814 H 78.3052 -2.98309 0.569708 0
M  V30 815 H 75.8902 -1.45373 0.344535 0
M  V30 816 H 77.7722 -3.84381 -1.72712 0
M  V30 817 H 76.4472 -2.65451 -1.8525 0
M  V30 818 H 75.3542 -3.7358 0.197085 0
M  V30 819 H 76.6872 -4.91616 0.239641 0
M  V30 820 N 78.3393 -0.321999 -1.54275 0
M  V30 821 C 79.2873 0.560206 -2.25753 0
M  V30 822 C 80.2813 1.11984 -1.27106 0
M  V30 823 O 81.4873 1.06806 -1.44888 0
M  V30 824 H 77.8623 0.199304 -0.725108 0
M  V30 825 H 79.8333 -0.0649365 -2.98329 0
M  V30 826 C 78.5823 1.71023 -3.02731 0
M  V30 827 H 77.9053 1.28885 -3.78456 0
M  V30 828 H 79.3453 2.30314 -3.55993 0
M  V30 829 C 77.8043 2.62692 -2.10938 0
M  V30 830 O 78.3343 3.64364 -1.6912 0
M  V30 831 N 76.5403 2.30891 -1.76459 0
M  V30 832 H 76.0873 1.48253 -2.10663 0
M  V30 833 H 76.0453 2.92487 -1.1532 0
M  V30 834 N 79.8174 1.5752 -0.0501392 0
M  V30 835 C 80.7644 2.1147 0.924603 0
M  V30 836 C 81.7344 1.02182 1.30951 0
M  V30 837 O 82.9194 1.29723 1.39916 0
M  V30 838 C 80.0594 2.66337 2.19451 0
M  V30 839 C 79.1724 3.89708 1.86418 0
M  V30 840 C 78.3074 4.32893 3.07859 0
M  V30 841 C 77.3464 5.48967 2.70742 0
M  V30 842 N 76.4834 5.87211 3.84874 0
M  V30 843 H 81.3234 2.94465 0.457639 0
M  V30 844 H 78.8604 1.45531 0.214266 0
M  V30 845 H 80.8184 2.96247 2.93758 0
M  V30 846 H 79.4484 1.86141 2.63726 0
M  V30 847 H 78.5004 3.66396 1.02264 0
M  V30 848 H 79.8124 4.74074 1.55096 0
M  V30 849 H 78.9664 4.6435 3.90466 0
M  V30 850 H 77.7054 3.47336 3.42358 0
M  V30 851 H 76.7104 5.17183 1.86551 0
M  V30 852 H 77.9354 6.3624 2.37436 0
M  V30 853 H 75.8814 5.04607 4.19175 0
M  V30 854 H 75.7984 6.66266 3.57247 0
M  V30 855 H 77.0664 6.23282 4.68123 0
M  V30 856 N 81.2955 -0.223234 1.56011 0
M  V30 857 C 82.7115 -0.572856 1.48965 0
M  V30 858 C 82.9115 -1.87225 0.74492 0
M  V30 859 O 81.9675 -2.50899 0.283896 0
M  V30 860 C 83.2805 -0.653646 2.9351 0
M  V30 861 C 84.8285 -0.744386 3.0402 0
M  V30 862 C 85.3035 -0.856535 4.49919 0
M  V30 863 N 86.7945 -0.9208 4.53955 0
M  V30 864 C 87.5295 -1.02726 5.64123 0
M  V30 865 N 87.0255 -1.09777 6.84047 0
M  V30 866 N 88.8185 -1.06226 5.51971 0
M  V30 867 H 80.9695 0.629462 2.02858 0
M  V30 868 H 83.2325 0.220621 0.921971 0
M  V30 869 H 82.9385 0.231518 3.50937 0
M  V30 870 H 82.8125 -1.51781 3.45315 0
M  V30 871 H 85.1995 -1.61999 2.46658 0
M  V30 872 H 85.2805 0.14541 2.55386 0
M  V30 873 H 84.9245 0.0146069 5.07898 0
M  V30 874 H 84.8545 -1.76172 4.96257 0
M  V30 875 H 87.3455 -0.876694 3.6759 0
M  V30 876 H 87.6585 -1.17872 7.63758 0
M  V30 877 H 86.0035 -1.06693 6.86762 0
M  V30 878 H 89.1945 -1.00382 4.5721 0
M  V30 879 H 89.3675 -1.14177 6.37862 0
M  V30 880 N 82.7736 -1.49793 -0.48987 0
M  V30 881 C 83.7206 -1.67281 -1.59014 0
M  V30 882 C 84.6906 -0.514177 -1.57941 0
M  V30 883 O 85.8756 -0.742533 -1.75759 0
M  V30 884 C 83.0156 -1.75569 -2.97102 0
M  V30 885 C 82.1286 -3.0281 -3.08107 0
M  V30 886 C 81.2636 -3.02008 -4.36995 0
M  V30 887 C 80.3026 -4.23782 -4.41673 0
M  V30 888 N 79.4396 -4.20826 -5.62005 0
M  V30 889 H 84.2796 -2.61224 -1.43409 0
M  V30 890 H 81.8166 -1.29508 -0.697565 0
M  V30 891 H 83.7746 -1.78354 -3.77155 0
M  V30 892 H 82.4046 -0.850827 -3.11385 0
M  V30 893 H 81.4566 -3.09584 -2.21047 0
M  V30 894 H 82.7686 -3.92801 -3.07423 0
M  V30 895 H 81.9226 -3.03418 -5.25378 0
M  V30 896 H 80.6616 -2.09815 -4.4026 0
M  V30 897 H 79.6666 -4.22604 -3.5169 0
M  V30 898 H 80.8916 -5.17181 -4.40115 0
M  V30 899 H 78.8376 -3.31476 -5.66091 0
M  V30 900 H 78.7546 -5.04564 -5.62984 0
M  V30 901 H 80.0226 -4.26355 -6.52565 0
M  V30 902 N 84.2517 0.741722 -1.39055 0
M  V30 903 C 85.5287 1.49252 -1.26425 0
M  V30 904 C 85.9087 2.10705 0.129144 0
M  V30 905 O 85.2567 1.98045 1.13976 0
M  V30 906 C 85.4667 2.54934 -2.38347 0
M  V30 907 C 86.8147 3.21506 -2.77343 0
M  V30 908 O 87.8387 2.65245 -2.37747 0
M  V30 909 O 86.6977 4.23294 -3.45665 0
M  V30 910 H 83.7917 0.662451 -0.495064 0
M  V30 911 H 86.3377 0.776121 -1.50912 0
M  V30 912 H 85.1097 2.07857 -3.31529 0
M  V30 913 H 84.7327 3.34141 -2.15489 0
M  V30 914 N 85.7298 1.2412 0.971189 0
M  V30 915 C 86.6398 1.04747 2.09917 0
M  V30 916 C 87.6558 -0.0107162 1.73997 0
M  V30 917 O 88.8318 0.186714 2.00533 0
M  V30 918 C 85.8968 0.650828 3.40537 0
M  V30 919 C 84.9578 1.7851 3.90426 0
M  V30 920 C 84.1908 1.40729 5.14812 0
M  V30 921 O 84.4138 0.29557 5.69634 0
M  V30 922 O 83.3478 2.23168 5.58999 0
M  V30 923 H 87.1738 1.99304 2.29154 0
M  V30 924 H 84.7588 1.02908 1.08307 0
M  V30 925 H 86.6408 0.440992 4.19086 0
M  V30 926 H 85.3158 -0.265649 3.22608 0
M  V30 927 H 84.2228 2.04966 3.12953 0
M  V30 928 H 85.5558 2.68023 4.12825 0
M  V30 929 N 87.2079 -1.17134 1.05439 0
M  V30 930 C 88.1179 -2.24878 0.668365 0
M  V30 931 C 89.1339 -1.71186 -0.311687 0
M  V30 932 O 90.3099 -2.00738 -0.163161 0
M  V30 933 C 87.3749 -3.46662 0.051648 0
M  V30 934 C 86.4359 -4.15429 1.08246 0
M  V30 935 C 85.6689 -5.31399 0.495082 0
M  V30 936 O 85.8919 -5.66153 -0.694743 0
M  V30 937 O 84.8259 -5.89187 1.23056 0
M  V30 938 H 88.6519 -2.60189 1.56637 0
M  V30 939 H 86.2369 -1.24482 0.826104 0
M  V30 940 H 88.1189 -4.20394 -0.290966 0
M  V30 941 H 86.7939 -3.13142 -0.819971 0
M  V30 942 H 85.7009 -3.43704 1.47711 0
M  V30 943 H 87.0339 -4.52982 1.92532 0
M  V30 944 N 88.686 -0.835752 -1.33615 0
M  V30 945 C 90.102 -0.523139 -1.50783 0
M  V30 946 C 90.302 0.950171 -1.77691 0
M  V30 947 O 89.358 1.73411 -1.83534 0
M  V30 948 C 90.671 -1.39378 -2.66448 0
M  V30 949 C 92.219 -1.39223 -2.80332 0
M  V30 950 C 92.694 -2.24765 -3.99055 0
M  V30 951 N 94.185 -2.22458 -4.06284 0
M  V30 952 C 94.92 -2.85386 -4.97336 0
M  V30 953 N 94.416 -3.57354 -5.93523 0
M  V30 954 N 96.209 -2.74872 -4.90308 0
M  V30 955 H 88.36 -1.78952 -1.14411 0
M  V30 956 H 90.623 -0.763297 -0.562212 0
M  V30 957 H 90.329 -2.44061 -2.53234 0
M  V30 958 H 90.203 -1.0676 -3.61776 0
M  V30 959 H 92.59 -0.353136 -2.92979 0
M  V30 960 H 92.671 -1.75846 -1.85773 0
M  V30 961 H 92.315 -3.28732 -3.87167 0
M  V30 962 H 92.245 -1.85485 -4.92852 0
M  V30 963 H 94.736 -1.70119 -3.37443 0
M  V30 964 H 95.049 -4.02584 -6.59656 0
M  V30 965 H 93.394 -3.61461 -5.93608 0
M  V30 966 H 96.585 -2.18213 -4.14126 0
M  V30 967 H 96.758 -3.24199 -5.61069 0
M  V30 968 N 90.1641 1.46063 -0.591896 0
M  V30 969 C 91.1121 2.32124 0.148739 0
M  V30 970 C 92.1061 1.45035 0.875286 0
M  V30 971 O 93.3121 1.61609 0.792632 0
M  V30 972 H 89.6871 0.749024 0.066832 0
M  V30 973 H 91.6581 2.92392 -0.595783 0
M  V30 974 C 90.4071 3.28373 1.1431 0
M  V30 975 H 89.7301 3.95371 0.59346 0
M  V30 976 H 91.1701 3.91352 1.63155 0
M  V30 977 C 89.6291 2.54393 2.20875 0
M  V30 978 O 90.1591 2.31373 3.28374 0
M  V30 979 N 88.3651 2.14797 1.95731 0
M  V30 980 H 87.9121 2.33719 1.08319 0
M  V30 981 H 87.8701 1.65619 2.67241 0
M  V30 982 N 91.6422 0.330177 1.54103 0
M  V30 983 C 92.5892 -0.532762 2.24567 0
M  V30 984 C 93.5592 -1.10635 1.23892 0
M  V30 985 O 94.7442 -1.14546 1.5259 0
M  V30 986 C 91.8842 -1.6845 3.01195 0
M  V30 987 C 90.9972 -1.13951 4.167 0
M  V30 988 C 90.1322 -2.25746 4.80845 0
M  V30 989 C 89.1712 -1.6853 5.88442 0
M  V30 990 N 88.3082 -2.74014 6.46421 0
M  V30 991 H 93.1482 0.0746905 2.97906 0
M  V30 992 H 90.6852 0.048632 1.4702 0
M  V30 993 H 92.6432 -2.36234 3.43874 0
M  V30 994 H 91.2732 -2.26314 2.30178 0
M  V30 995 H 90.3252 -0.35301 3.78758 0
M  V30 996 H 91.6372 -0.680892 4.94131 0
M  V30 997 H 90.7912 -3.01422 5.26526 0
M  V30 998 H 89.5302 -2.74947 4.0281 0
M  V30 999 H 88.5352 -0.913543 5.42157 0
M  V30 1000 H 89.7602 -1.20198 6.68378 0
M  V30 1001 H 87.7062 -3.22494 5.71256 0
M  V30 1002 H 87.6232 -2.32735 7.19285 0
M  V30 1003 H 88.8912 -3.49499 6.96757 0
M  V30 1004 N 93.1203 -1.57491 0.0584922 0
M  V30 1005 C 94.3483 -1.97296 -0.623037 0
M  V30 1006 C 94.7633 -0.936338 -1.63946 0
M  V30 1007 O 94.1203 0.0785981 -1.82331 0
M  V30 1008 C 94.1713 -3.37183 -1.30345 0
M  V30 1009 O 93.8923 -4.36872 -0.32773 0
M  V30 1010 C 95.3933 -3.91788 -2.07406 0
M  V30 1011 H 92.6133 -0.649153 -0.169826 0
M  V30 1012 H 95.1573 -2.04106 0.12696 0
M  V30 1013 H 93.3123 -3.31502 -2.00463 0
M  V30 1014 H 93.7263 -5.18141 -0.814269 0
M  V30 1015 H 95.2003 -4.91926 -2.50425 0
M  V30 1016 H 95.6773 -3.27609 -2.92521 0
M  V30 1017 H 96.2833 -4.00829 -1.42184 0
M  V30 1018 N 94.5984 0.214957 -1.56127 0
M  V30 1019 C 95.5304 1.29004 -1.89448 0
M  V30 1020 C 96.5434 1.42716 -0.783326 0
M  V30 1021 O 97.7324 1.43496 -1.06166 0
M  V30 1022 C 94.8324 2.66482 -2.09381 0
M  V30 1023 C 94.0054 2.74633 -3.40434 0
M  V30 1024 C 93.0644 3.9317 -3.49719 0
M  V30 1025 O 92.0904 3.812 -4.227 0
M  V30 1026 N 93.2924 5.07765 -2.81346 0
M  V30 1027 H 96.0574 1.00743 -2.82261 0
M  V30 1028 H 93.6184 0.40497 -1.56753 0
M  V30 1029 H 95.6104 3.44173 -2.12901 0
M  V30 1030 H 94.1804 2.87314 -1.23163 0
M  V30 1031 H 93.4004 1.83368 -3.48955 0
M  V30 1032 H 94.6884 2.77054 -4.26754 0
M  V30 1033 H 94.0864 5.20386 -2.21843 0
M  V30 1034 H 92.6434 5.83474 -2.90519 0
M  V30 1035 N 96.0765 1.50051 0.48192 0
M  V30 1036 C 96.9865 1.7089 1.60728 0
M  V30 1037 C 98.0025 0.591788 1.63627 0
M  V30 1038 O 99.1785 0.868817 1.81696 0
M  V30 1039 C 96.2435 1.78855 2.97005 0
M  V30 1040 C 95.3045 3.02537 3.04581 0
M  V30 1041 C 94.5375 3.10112 4.34357 0
M  V30 1042 O 94.7605 2.24765 5.24249 0
M  V30 1043 O 93.6945 4.02747 4.47301 0
M  V30 1044 H 97.5205 2.66264 1.46072 0
M  V30 1045 H 95.1055 1.34018 0.660264 0
M  V30 1046 H 96.9875 1.86336 3.77964 0
M  V30 1047 H 95.6625 0.866628 3.11883 0
M  V30 1048 H 94.5695 3.00563 2.22739 0
M  V30 1049 H 95.9025 3.94272 2.94636 0
M  V30 1050 N 97.5546 -0.734337 1.39446 0
M  V30 1051 C 98.4646 -1.87879 1.40495 0
M  V30 1052 C 99.4806 -1.714 0.299672 0
M  V30 1053 O 100.657 -1.93991 0.541249 0
M  V30 1054 C 97.7216 -3.23477 1.24754 0
M  V30 1055 C 96.7826 -3.52344 2.45259 0
M  V30 1056 C 96.0156 -4.81473 2.30259 0
M  V30 1057 O 96.2386 -5.55237 1.30643 0
M  V30 1058 O 95.1726 -5.10254 3.19256 0
M  V30 1059 H 98.9986 -1.89949 2.36966 0
M  V30 1060 H 96.5836 -0.882243 1.20569 0
M  V30 1061 H 98.4656 -4.04509 1.18111 0
M  V30 1062 H 97.1406 -3.22176 0.313781 0
M  V30 1063 H 96.0476 -2.71396 2.57478 0
M  V30 1064 H 97.3806 -3.58426 3.37331 0
M  V30 1065 N 99.0327 -1.24633 -0.964593 0
M  V30 1066 C 99.9827 -1.00841 -2.04487 0
M  V30 1067 C 100.967 0.0512468 -1.60818 0
M  V30 1068 O 102.159 -0.162865 -1.76249 0
M  V30 1069 C 99.2877 -0.618474 -3.37683 0
M  V30 1070 C 98.3737 -1.71437 -3.87905 0
M  V30 1071 N 98.7647 -2.9477 -4.11029 0
M  V30 1072 C 97.0627 -1.5926 -4.16596 0
M  V30 1073 C 97.7637 -3.65834 -4.52261 0
M  V30 1074 N 96.7397 -2.9341 -4.57615 0
M  V30 1075 H 100.542 -1.94487 -2.20345 0
M  V30 1076 H 98.0557 -1.14805 -1.14863 0
M  V30 1077 H 100.053 -0.429247 -4.14684 0
M  V30 1078 H 98.7127 0.310766 -3.23209 0
M  V30 1079 H 99.7237 -3.30917 -3.9839 0
M  V30 1080 H 96.4007 -0.731606 -4.1104 0
M  V30 1081 H 97.7907 -4.71646 -4.78539 0
M  V30 1082 N 100.511 1.16574 -1.06058 0
M  V30 1083 C 101.441 2.23057 -0.690488 0
M  V30 1084 C 102.422 1.67141 0.315901 0
M  V30 1085 O 103.607 1.93253 0.191556 0
M  V30 1086 C 100.737 3.47222 -0.073625 0
M  V30 1087 C 99.6908 4.16016 -1.00573 0
M  V30 1088 C 99.0168 5.34104 -0.252289 0
M  V30 1089 C 100.317 4.67264 -2.33371 0
M  V30 1090 H 102.011 2.54271 -1.58072 0
M  V30 1091 H 99.5568 1.22218 -0.76149 0
M  V30 1092 H 101.51 4.20939 0.19714 0
M  V30 1093 H 100.234 3.15302 0.85161 0
M  V30 1094 H 98.8928 3.44223 -1.2612 0
M  V30 1095 H 98.5408 4.98437 0.675988 0
M  V30 1096 H 98.2408 5.81072 -0.873455 0
M  V30 1097 H 99.7648 6.10599 0.0109857 0
M  V30 1098 H 101.179 5.32573 -2.12223 0
M  V30 1099 H 99.5758 5.24843 -2.90963 0
M  V30 1100 H 100.646 3.83602 -2.96611 0
M  V30 1101 N 101.989 0.842826 1.3317 0
M  V30 1102 C 102.936 0.276885 2.29133 0
M  V30 1103 C 103.906 -0.609527 1.54512 0
M  V30 1104 O 105.091 -0.546955 1.82792 0
M  V30 1105 C 102.231 -0.538707 3.40869 0
M  V30 1106 C 101.344 0.372169 4.30394 0
M  V30 1107 C 100.479 -0.454908 5.29249 0
M  V30 1108 C 99.5179 0.45411 6.10413 0
M  V30 1109 N 98.6549 -0.335075 7.013 0
M  V30 1110 H 103.495 1.10052 2.76934 0
M  V30 1111 H 101.032 0.554161 1.36262 0
M  V30 1112 H 102.99 -1.02709 4.0436 0
M  V30 1113 H 101.62 -1.32727 2.9425 0
M  V30 1114 H 100.672 0.97888 3.6759 0
M  V30 1115 H 101.984 1.0703 4.87182 0
M  V30 1116 H 101.138 -1.00695 5.98285 0
M  V30 1117 H 99.8769 -1.18646 4.73048 0
M  V30 1118 H 98.8819 1.01813 5.40291 0
M  V30 1119 H 100.107 1.18409 6.68697 0
M  V30 1120 H 98.0529 -1.04994 6.47543 0
M  V30 1121 H 97.9699 0.304262 7.55387 0
M  V30 1122 H 99.2379 -0.869224 7.74638 0
M  V30 1123 N 103.467 -1.45747 0.599634 0
M  V30 1124 C 104.377 -2.34262 -0.125888 0
M  V30 1125 C 105.393 -1.50768 -0.868625 0
M  V30 1126 O 106.569 -1.83592 -0.828003 0
M  V30 1127 C 103.634 -3.28252 -1.11587 0
M  V30 1128 C 102.695 -4.27651 -0.375956 0
M  V30 1129 C 101.928 -5.1715 -1.31877 0
M  V30 1130 O 102.151 -5.09916 -2.55621 0
M  V30 1131 O 101.085 -5.96286 -0.820157 0
M  V30 1132 H 104.911 -2.97688 0.601315 0
M  V30 1133 H 102.496 -1.44999 0.359934 0
M  V30 1134 H 104.378 -3.86191 -1.68626 0
M  V30 1135 H 103.053 -2.67401 -1.82424 0
M  V30 1136 H 101.96 -3.7335 0.236698 0
M  V30 1137 H 103.293 -4.91334 0.29177 0
M  V30 1138 N 104.945 -0.338344 -1.53925 0
M  V30 1139 C 106.194 0.260732 -2.00008 0
M  V30 1140 C 106.507 1.52073 -1.23017 0
M  V30 1141 O 107.713 2.19672 -1.5955 0
M  V30 1142 C 106.169 0.51515 -3.56194 0
M  V30 1143 C 105.777 -0.728645 -4.42035 0
M  V30 1144 C 107.521 1.07337 -4.10706 0
M  V30 1145 C 105.428 -0.445315 -5.89721 0
M  V30 1146 H 104.358 0.101205 -0.747177 0
M  V30 1147 H 107.009 -0.452866 -1.77824 0
M  V30 1148 H 105.391 1.28932 -3.74423 0
M  V30 1149 H 106.565 -1.50352 -4.35581 0
M  V30 1150 H 104.88 -1.20813 -3.98489 0
M  V30 1151 H 107.477 1.30022 -5.18651 0
M  V30 1152 H 107.82 2.0273 -3.63602 0
M  V30 1153 H 108.353 0.360034 -3.96167 0
M  V30 1154 H 105.092 -1.36883 -6.41049 0
M  V30 1155 H 104.612 0.291569 -5.99091 0
M  V30 1156 H 106.291 -0.0606218 -6.46972 0
M  V30 1157 N 106.423 1.57458 -0.0668435 0
M  V30 1158 C 107.356 2.08033 0.93795 0
M  V30 1159 C 108.334 0.984321 1.29421 0
M  V30 1160 O 109.518 1.25736 1.40437 0
M  V30 1161 C 106.645 2.53388 2.24749 0
M  V30 1162 C 105.691 3.74376 2.04315 0
M  V30 1163 S 106.524 5.19303 1.30706 0
M  V30 1164 C 107.68 5.67986 2.62951 0
M  V30 1165 H 107.913 2.92935 0.50759 0
M  V30 1166 H 105.446 1.5371 0.145804 0
M  V30 1167 H 107.404 2.8018 3.00016 0
M  V30 1168 H 106.065 1.68763 2.64911 0
M  V30 1169 H 105.258 4.04083 3.01218 0
M  V30 1170 H 104.86 3.47931 1.37186 0
M  V30 1171 H 107.152 5.74528 3.5906 0
M  V30 1172 H 108.095 6.66955 2.3786 0
M  V30 1173 H 108.503 4.95781 2.69929 0
M  V30 1174 N 107.901 -0.206675 1.56239 0
M  V30 1175 C 108.848 -1.25617 1.93621 0
M  V30 1176 C 109.818 -1.45824 0.795274 0
M  V30 1177 O 111.003 -1.59148 1.05245 0
M  V30 1178 C 108.143 -2.59839 2.27107 0
M  V30 1179 C 107.256 -2.47308 3.54207 0
M  V30 1180 C 106.391 -3.74155 3.7707 0
M  V30 1181 C 105.43 -3.56407 4.97635 0
M  V30 1182 N 104.567 -4.75238 5.1681 0
M  V30 1183 H 109.407 -0.930383 2.83104 0
M  V30 1184 H 106.944 -0.448065 1.4011 0
M  V30 1185 H 108.902 -3.38021 2.44535 0
M  V30 1186 H 107.532 -2.90485 1.40778 0
M  V30 1187 H 106.584 -1.60483 3.4489 0
M  V30 1188 H 107.896 -2.30122 4.42544 0
M  V30 1189 H 107.05 -4.60778 3.94675 0
M  V30 1190 H 105.789 -3.94282 2.87042 0
M  V30 1191 H 104.794 -2.68168 4.79964 0
M  V30 1192 H 106.019 -3.37736 5.89161 0
M  V30 1193 H 103.965 -4.95651 4.29728 0
M  V30 1194 H 103.882 -4.60835 5.99306 0
M  V30 1195 H 105.15 -5.63246 5.38864 0
M  V30 1196 N 109.379 -1.50304 -0.473955 0
M  V30 1197 C 110.329 -1.65347 -1.56985 0
M  V30 1198 C 111.313 -0.508176 -1.52664 0
M  V30 1199 O 112.505 -0.762446 -1.59737 0
M  V30 1200 C 109.634 -1.74832 -2.95447 0
M  V30 1201 C 108.72 -2.95028 -3.04662 0
M  V30 1202 N 109.111 -4.18747 -2.83698 0
M  V30 1203 C 107.409 -2.93527 -3.35795 0
M  V30 1204 C 108.11 -4.99687 -2.97805 0
M  V30 1205 N 107.086 -4.33585 -3.2788 0
M  V30 1206 H 110.888 -2.58698 -1.39472 0
M  V30 1207 H 108.402 -1.47449 -0.680629 0
M  V30 1208 H 110.399 -1.83712 -3.7424 0
M  V30 1209 H 109.059 -0.826376 -3.14008 0
M  V30 1210 H 110.07 -4.48291 -2.59337 0
M  V30 1211 H 106.747 -2.10821 -3.60362 0
M  V30 1212 H 108.137 -6.08057 -2.85861 0
M  V30 1213 N 110.857 0.726932 -1.39834 0
M  V30 1214 C 112.106 1.48214 -1.36805 0
M  V30 1215 C 112.419 1.95576 0.0305291 0
M  V30 1216 O 113.625 2.7088 0.183417 0
M  V30 1217 C 112.081 2.67854 -2.40379 0
M  V30 1218 C 111.689 2.27408 -3.85992 0
M  V30 1219 C 113.433 3.45641 -2.46439 0
M  V30 1220 C 111.34 3.43819 -4.81189 0
M  V30 1221 H 110.27 0.556606 -0.508631 0
M  V30 1222 H 112.921 0.792216 -1.65518 0
M  V30 1223 H 111.303 3.3896 -2.04749 0
M  V30 1224 H 112.477 1.63795 -4.30706 0
M  V30 1225 H 110.792 1.62692 -3.83302 0
M  V30 1226 H 113.389 4.32244 -3.14753 0
M  V30 1227 H 113.732 3.88669 -1.49139 0
M  V30 1228 H 114.265 2.8157 -2.81004 0
M  V30 1229 H 111.004 3.05834 -5.79781 0
M  V30 1230 H 110.524 4.06385 -4.41148 0
M  V30 1231 H 112.203 4.10043 -5.00474 0
M  V30 1232 N 112.336 1.25143 0.95797 0
M  V30 1233 C 113.582 1.09855 1.70469 0
M  V30 1234 C 113.915 -0.360187 1.90831 0
M  V30 1235 O 113.19 -1.26568 1.47685 0
M  V30 1236 C 113.473 1.8497 3.08963 0
M  V30 1237 C 113.326 3.38652 2.96032 0
M  V30 1238 C 114.645 1.63016 4.08795 0
M  V30 1239 H 111.764 0.400465 0.618706 0
M  V30 1240 H 114.406 1.53933 1.11376 0
M  V30 1241 H 112.556 1.47505 3.59409 0
M  V30 1242 H 114.228 3.85772 2.52938 0
M  V30 1243 H 112.471 3.66534 2.32025 0
M  V30 1244 H 113.142 3.8642 3.94187 0
M  V30 1245 H 115.618 1.95625 3.67247 0
M  V30 1246 H 114.494 2.18015 5.03747 0
M  V30 1247 H 114.755 0.570692 4.38401 0
M  V30 1248 N 113.814 -1.1601 1.06675 0
M  V30 1249 C 114.761 -2.20525 0.680967 0
M  V30 1250 C 115.731 -1.62904 -0.324283 0
M  V30 1251 O 116.916 -1.89615 -0.212294 0
M  V30 1252 C 114.056 -3.45013 0.0776551 0
M  V30 1253 C 113.169 -4.16863 1.13355 0
M  V30 1254 C 112.304 -5.2888 0.49597 0
M  V30 1255 C 111.343 -5.92537 1.53513 0
M  V30 1256 N 110.48 -6.96038 0.920631 0
M  V30 1257 H 115.32 -2.52876 1.57663 0
M  V30 1258 H 112.857 -1.24199 0.788223 0
M  V30 1259 H 114.815 -4.16193 -0.289704 0
M  V30 1260 H 113.445 -3.132 -0.781393 0
M  V30 1261 H 112.497 -3.44248 1.61857 0
M  V30 1262 H 113.809 -4.60294 1.92174 0
M  V30 1263 H 112.963 -6.06653 0.0758604 0
M  V30 1264 H 111.702 -4.86622 -0.324062 0
M  V30 1265 H 110.707 -5.13482 1.9651 0
M  V30 1266 H 111.932 -6.36873 2.35733 0
M  V30 1267 H 109.878 -6.55888 0.12138 0
M  V30 1268 H 109.795 -7.3786 1.64616 0
M  V30 1269 H 111.063 -7.77725 0.525795 0
M  V30 1270 N 115.292 -0.849877 -1.32721 0
M  V30 1271 C 116.541 -0.447175 -1.96681 0
M  V30 1272 C 116.854 1.00135 -1.68025 0
M  V30 1273 O 118.06 1.50926 -2.25685 0
M  V30 1274 C 116.516 -0.7487 -3.52026 0
M  V30 1275 C 116.124 -2.21264 -3.89546 0
M  V30 1276 C 117.868 -0.413487 -4.22481 0
M  V30 1277 C 115.775 -2.45763 -5.37917 0
M  V30 1278 H 114.705 -0.163486 -0.736063 0
M  V30 1279 H 117.356 -1.03999 -1.51183 0
M  V30 1280 H 115.738 -0.0853727 -3.95908 0
M  V30 1281 H 116.912 -2.91736 -3.56689 0
M  V30 1282 H 115.227 -2.5119 -3.32103 0
M  V30 1283 H 117.824 -0.574017 -5.3161 0
M  V30 1284 H 118.167 0.644492 -4.11281 0
M  V30 1285 H 118.7 -1.03251 -3.84167 0
M  V30 1286 H 115.439 -3.50168 -5.54132 0
M  V30 1287 H 114.959 -1.79864 -5.72197 0
M  V30 1288 H 116.638 -2.29471 -6.0494 0
M  V30 1289 N 116.77 1.45427 -0.607355 0
M  V30 1290 C 117.68 2.34325 0.113463 0
M  V30 1291 C 118.696 1.51226 0.860617 0
M  V30 1292 O 119.872 1.84029 0.818255 0
M  V30 1293 C 116.937 3.28839 1.09844 0
M  V30 1294 C 115.998 4.27844 0.353271 0
M  V30 1295 C 115.231 5.17842 1.29133 0
M  V30 1296 O 115.454 5.11264 2.52913 0
M  V30 1297 O 114.388 5.96713 0.788523 0
M  V30 1298 H 118.214 2.97364 -0.617094 0
M  V30 1299 H 115.799 1.44807 -0.367619 0
M  V30 1300 H 117.681 3.8708 1.66575 0
M  V30 1301 H 116.356 2.68365 1.81003 0
M  V30 1302 H 115.263 3.7322 -0.256494 0
M  V30 1303 H 116.596 4.91173 -0.317822 0
M  V30 1304 N 118.248 0.346503 1.53744 0
M  V30 1305 C 119.494 -0.249473 2.0126 0
M  V30 1306 C 119.827 -1.49965 1.23386 0
M  V30 1307 O 119.102 -1.91811 0.32229 0
M  V30 1308 C 119.385 -0.560643 3.55709 0
M  V30 1309 C 119.238 0.701836 4.44291 0
M  V30 1310 C 120.557 -1.36905 4.18264 0
M  V30 1311 H 117.676 -0.0891987 0.731582 0
M  V30 1312 H 120.318 0.467624 1.84156 0
M  V30 1313 H 118.468 -1.17156 3.70414 0
M  V30 1314 H 120.14 1.33974 4.41417 0
M  V30 1315 H 118.383 1.32612 4.13033 0
M  V30 1316 H 119.054 0.43933 5.50249 0
M  V30 1317 H 121.53 -0.852448 4.07275 0
M  V30 1318 H 120.406 -1.55553 5.26398 0
M  V30 1319 H 120.667 -2.37203 3.73078 0
M  V30 1320 N 119.726 -1.57421 0.075193 0
M  V30 1321 C 120.673 -2.12915 -0.890843 0
M  V30 1322 C 121.643 -1.04252 -1.29309 0
M  V30 1323 O 122.828 -1.31933 -1.37834 0
M  V30 1324 C 119.968 -2.69795 -2.15186 0
M  V30 1325 C 119.081 -3.92624 -1.80194 0
M  V30 1326 C 118.216 -4.37736 -3.00933 0
M  V30 1327 C 117.255 -5.53205 -2.61974 0
M  V30 1328 N 116.392 -5.9326 -3.75483 0
M  V30 1329 H 121.232 -2.95156 -0.410735 0
M  V30 1330 H 118.769 -1.45854 -0.191086 0
M  V30 1331 H 120.727 -3.00883 -2.89008 0
M  V30 1332 H 119.357 -1.90313 -2.60731 0
M  V30 1333 H 118.409 -3.67977 -0.964218 0
M  V30 1334 H 119.721 -4.76482 -1.47534 0
M  V30 1335 H 118.875 -4.70503 -3.8303 0
M  V30 1336 H 117.614 -3.52739 -3.36789 0
M  V30 1337 H 116.619 -5.20086 -1.783 0
M  V30 1338 H 117.844 -6.39936 -2.27284 0
M  V30 1339 H 115.79 -5.11212 -4.11094 0
M  V30 1340 H 115.707 -6.71865 -3.46602 0
M  V30 1341 H 116.975 -6.30651 -4.58148 0
M  V30 1342 N 121.204 0.198386 -1.56346 0
M  V30 1343 C 122.452 0.91747 -1.80075 0
M  V30 1344 C 122.773 1.83929 -0.647692 0
M  V30 1345 O 122.043 1.93029 0.334166 0
M  V30 1346 H 120.623 0.341774 -0.664228 0
M  V30 1347 H 123.285 0.204684 -1.93822 0
M  V30 1348 H 122.381 1.51055 -2.7311 0
M  V30 1349 N 122.682 1.50554 0.465978 0
M  V30 1350 C 123.592 1.72585 1.58907 0
M  V30 1351 C 124.608 0.60911 1.6299 0
M  V30 1352 O 125.784 0.88804 1.80765 0
M  V30 1353 C 122.849 1.81995 2.95091 0
M  V30 1354 C 121.91 3.05751 3.01355 0
M  V30 1355 C 121.143 3.14702 4.31043 0
M  V30 1356 O 121.366 2.30313 5.21835 0
M  V30 1357 O 120.3 4.07468 4.43005 0
M  V30 1358 H 124.126 2.67799 1.43239 0
M  V30 1359 H 121.711 1.34711 0.646013 0
M  V30 1360 H 123.593 1.90335 3.75966 0
M  V30 1361 H 122.268 0.899659 3.10947 0
M  V30 1362 H 121.175 3.02908 2.19539 0
M  V30 1363 H 122.508 3.97375 2.90437 0
M  V30 1364 N 124.16 -0.719506 1.40217 0
M  V30 1365 C 125.07 -1.86378 1.42479 0
M  V30 1366 C 126.086 -1.71073 0.317834 0
M  V30 1367 O 127.262 -1.93406 0.561794 0
M  V30 1368 C 124.327 -3.22136 1.28178 0
M  V30 1369 C 123.388 -3.49723 2.48982 0
M  V30 1370 C 122.621 -4.79004 2.35353 0
M  V30 1371 O 122.844 -5.53821 1.36524 0
M  V30 1372 O 121.778 -5.06839 3.2465 0
M  V30 1373 H 125.604 -1.87425 2.38968 0
M  V30 1374 H 123.189 -0.869405 1.21498 0
M  V30 1375 H 125.071 -4.03234 1.22395 0
M  V30 1376 H 123.746 -3.21825 0.347934 0
M  V30 1377 H 122.653 -2.6865 2.60342 0
M  V30 1378 H 123.986 -3.54828 3.41113 0
M  V30 1379 N 125.638 -1.25649 -0.95132 0
M  V30 1380 C 126.601 -1.06399 -2.03007 0
M  V30 1381 C 127.601 -0.0156794 -1.60792 0
M  V30 1382 O 128.791 -0.25817 -1.72276 0
M  V30 1383 C 125.923 -0.616184 -3.35285 0
M  V30 1384 H 127.116 -2.02164 -2.21517 0
M  V30 1385 H 124.669 -1.08103 -1.12887 0
M  V30 1386 H 125.404 0.343917 -3.22471 0
M  V30 1387 H 125.189 -1.37301 -3.67275 0
M  V30 1388 H 126.679 -0.503032 -4.14559 0
M  V30 1389 N 127.117 1.15442 -1.07289 0
M  V30 1390 C 128.363 1.86489 -0.796846 0
M  V30 1391 C 128.696 1.82078 0.675371 0
M  V30 1392 O 127.971 1.24346 1.4956 0
M  V30 1393 C 128.254 3.35626 -1.30489 0
M  V30 1394 C 128.107 3.48673 -2.84161 0
M  V30 1395 C 129.426 4.30357 -0.920907 0
M  V30 1396 H 126.545 0.677144 -0.290939 0
M  V30 1397 H 129.187 1.35633 -1.33056 0
M  V30 1398 H 127.337 3.79068 -0.850883 0
M  V30 1399 H 129.009 3.14099 -3.37846 0
M  V30 1400 H 127.252 2.90253 -3.22391 0
M  V30 1401 H 127.923 4.53453 -3.14777 0
M  V30 1402 H 130.399 3.94871 -1.3121 0
M  V30 1403 H 129.275 5.33193 -1.30372 0
M  V30 1404 H 129.536 4.4176 0.173226 0
M  V30 1405 N 128.595 0.856903 1.32268 0
M  V30 1406 C 129.542 0.301172 2.28827 0
M  V30 1407 C 130.512 -0.593104 1.5515 0
M  V30 1408 O 131.697 -0.527537 1.83362 0
M  V30 1409 C 128.837 -0.502523 3.41422 0
M  V30 1410 C 127.95 0.417797 4.29975 0
M  V30 1411 C 127.085 -0.398749 5.29701 0
M  V30 1412 C 126.124 0.518827 6.09897 0
M  V30 1413 N 125.261 -0.260674 7.01616 0
M  V30 1414 H 130.101 1.12983 2.75751 0
M  V30 1415 H 127.638 0.568582 1.35667 0
M  V30 1416 H 129.596 -0.984141 4.05426 0
M  V30 1417 H 128.226 -1.29599 2.95642 0
M  V30 1418 H 127.278 1.01781 3.66531 0
M  V30 1419 H 128.59 1.12191 4.86019 0
M  V30 1420 H 127.744 -0.943435 5.9932 0
M  V30 1421 H 126.483 -1.13622 4.7428 0
M  V30 1422 H 125.488 1.07538 5.39181 0
M  V30 1423 H 126.713 1.25495 6.67404 0
M  V30 1424 H 124.659 -0.981198 6.4862 0
M  V30 1425 H 124.576 0.384364 7.55022 0
M  V30 1426 H 125.844 -0.787014 7.75517 0
M  V30 1427 N 130.073 -1.45103 0.615059 0
M  V30 1428 C 131.02 -2.30586 -0.0993978 0
M  V30 1429 C 131.99 -1.42544 -0.852669 0
M  V30 1430 O 133.175 -1.71465 -0.836917 0
M  V30 1431 C 130.315 -3.27572 -1.08583 0
M  V30 1432 C 129.428 -4.30717 -0.332656 0
M  V30 1433 C 128.563 -5.14807 -1.30947 0
M  V30 1434 C 127.602 -6.09673 -0.544538 0
M  V30 1435 N 126.739 -6.86517 -1.47101 0
M  V30 1436 H 131.579 -2.91144 0.635542 0
M  V30 1437 H 129.116 -1.4346 0.325206 0
M  V30 1438 H 131.074 -3.82276 -1.67095 0
M  V30 1439 H 129.704 -2.68751 -1.78809 0
M  V30 1440 H 128.756 -3.78615 0.368107 0
M  V30 1441 H 130.068 -4.98102 0.263842 0
M  V30 1442 H 129.222 -5.73948 -1.96643 0
M  V30 1443 H 127.961 -4.47458 -1.9399 0
M  V30 1444 H 126.966 -5.49656 0.126003 0
M  V30 1445 H 128.191 -6.79052 0.080947 0
M  V30 1446 H 126.137 -6.21851 -2.08895 0
M  V30 1447 H 126.054 -7.50281 -0.928137 0
M  V30 1448 H 127.322 -7.50194 -2.11731 0
M  V30 1449 N 131.551 -0.354651 -1.53558 0
M  V30 1450 C 132.461 0.50515 -2.29097 0
M  V30 1451 C 133.477 1.10223 -1.34636 0
M  V30 1452 O 134.653 1.11553 -1.67684 0
M  V30 1453 C 131.718 1.63479 -3.05738 0
M  V30 1454 C 130.779 1.06636 -4.15845 0
M  V30 1455 C 130.012 2.14217 -4.88822 0
M  V30 1456 O 130.235 3.35137 -4.61562 0
M  V30 1457 O 129.169 1.77887 -5.75013 0
M  V30 1458 H 132.995 -0.109237 -3.03503 0
M  V30 1459 H 130.58 -0.119357 -1.48922 0
M  V30 1460 H 132.462 2.2918 -3.5363 0
M  V30 1461 H 131.137 2.23478 -2.34178 0
M  V30 1462 H 130.044 0.373565 -3.7223 0
M  V30 1463 H 131.377 0.511081 -4.89539 0
M  V30 1464 N 133.029 1.57378 -0.0835403 0
M  V30 1465 C 133.992 2.12252 0.864959 0
M  V30 1466 C 134.992 1.04916 1.21858 0
M  V30 1467 O 136.182 1.30853 1.14991 0
M  V30 1468 C 133.314 2.63358 2.16461 0
M  V30 1469 H 134.507 2.97371 0.388676 0
M  V30 1470 H 132.06 1.55423 0.165317 0
M  V30 1471 H 132.795 1.81727 2.686 0
M  V30 1472 H 132.58 3.41826 1.92087 0
M  V30 1473 H 134.07 3.05847 2.84337 0
M  V30 1474 N 134.507 -0.190092 1.56449 0
M  V30 1475 C 135.47 -1.21925 1.9408 0
M  V30 1476 C 136.47 -1.38176 0.822431 0
M  V30 1477 O 137.66 -1.35903 1.08977 0
M  V30 1478 C 134.792 -2.58773 2.21922 0
M  V30 1479 H 135.985 -0.897464 2.86157 0
M  V30 1480 H 133.538 -0.43181 1.50217 0
M  V30 1481 H 134.273 -2.95998 1.32499 0
M  V30 1482 H 134.058 -2.48348 3.03424 0
M  V30 1483 H 135.548 -3.32978 2.52022 0
M  V30 1484 N 135.985 -1.50799 -0.457987 0
M  V30 1485 C 136.895 -1.73426 -1.57989 0
M  V30 1486 C 137.911 -0.617745 -1.62665 0
M  V30 1487 O 139.087 -0.897614 -1.80291 0
M  V30 1488 C 136.152 -1.83557 -2.94122 0
M  V30 1489 C 135.213 -3.07345 -2.99729 0
M  V30 1490 C 134.446 -3.16983 -4.29368 0
M  V30 1491 O 134.669 -2.33077 -5.20607 0
M  V30 1492 O 133.603 -4.09812 -4.40837 0
M  V30 1493 H 137.429 -2.68555 -1.41817 0
M  V30 1494 H 135.014 -1.35052 -0.638859 0
M  V30 1495 H 136.896 -1.92326 -3.74952 0
M  V30 1496 H 135.571 -0.916137 -3.10465 0
M  V30 1497 H 134.478 -3.04068 -2.1793 0
M  V30 1498 H 135.811 -3.9891 -2.88326 0
M  V30 1499 N 137.463 0.71206 -1.40597 0
M  V30 1500 C 138.41 1.82613 -1.41142 0
M  V30 1501 C 139.38 1.63925 -0.267903 0
M  V30 1502 O 140.565 1.85009 -0.466495 0
M  V30 1503 C 137.705 3.20354 -1.28324 0
M  V30 1504 C 136.818 3.50589 -2.52411 0
M  V30 1505 C 135.953 4.77855 -2.32009 0
M  V30 1506 C 134.992 5.01005 -3.51654 0
M  V30 1507 N 134.129 6.19487 -3.30425 0
M  V30 1508 H 138.969 1.81482 -2.36365 0
M  V30 1509 H 136.506 0.886475 -1.17388 0
M  V30 1510 H 138.464 3.99899 -1.18899 0
M  V30 1511 H 137.094 3.20705 -0.367189 0
M  V30 1512 H 136.146 2.65573 -2.72351 0
M  V30 1513 H 137.458 3.63604 -3.41458 0
M  V30 1514 H 136.612 5.65424 -2.19956 0
M  V30 1515 H 135.351 4.67056 -1.40392 0
M  V30 1516 H 134.356 4.1189 -3.64179 0
M  V30 1517 H 135.581 5.13674 -4.44202 0
M  V30 1518 H 133.527 6.09932 -2.41494 0
M  V30 1519 H 133.444 6.33194 -4.13039 0
M  V30 1520 H 134.712 7.09834 -3.22113 0
M  V30 1521 N 138.941 1.26152 0.944643 0
M  V30 1522 C 139.871 1.09902 2.06019 0
M  V30 1523 C 140.852 0.00519538 1.70099 0
M  V30 1524 O 142.037 0.176583 1.93396 0
M  V30 1525 C 139.167 0.727562 3.39594 0
M  V30 1526 C 138.121 1.77274 3.89561 0
M  V30 1527 C 137.447 1.25569 5.19747 0
M  V30 1528 C 138.747 3.17357 4.14827 0
M  V30 1529 H 140.441 2.03217 2.19871 0
M  V30 1530 H 137.987 0.978452 1.05652 0
M  V30 1531 H 139.94 0.600777 4.17095 0
M  V30 1532 H 138.664 -0.241287 3.25707 0
M  V30 1533 H 137.323 1.88814 3.14237 0
M  V30 1534 H 136.971 0.276783 5.02238 0
M  V30 1535 H 136.671 1.95433 5.54148 0
M  V30 1536 H 138.195 1.1415 5.99835 0
M  V30 1537 H 139.609 3.08914 4.82954 0
M  V30 1538 H 138.006 3.84781 4.60504 0
M  V30 1539 H 139.076 3.63673 3.20734 0
M  V30 1540 N 140.419 -1.14872 1.07899 0
M  V30 1541 C 141.349 -2.2193 0.725887 0
M  V30 1542 C 142.33 -1.67622 -0.28927 0
M  V30 1543 O 143.515 -1.93533 -0.160787 0
M  V30 1544 C 140.645 -3.47061 0.128856 0
M  V30 1545 C 139.599 -4.14363 1.07178 0
M  V30 1546 C 138.925 -5.33636 0.337229 0
M  V30 1547 C 140.225 -4.63492 2.40775 0
M  V30 1548 H 141.919 -2.51724 1.62097 0
M  V30 1549 H 139.465 -1.20991 0.780838 0
M  V30 1550 H 141.418 -4.21199 -0.130147 0
M  V30 1551 H 140.142 -3.16617 -0.80134 0
M  V30 1552 H 138.801 -3.42173 1.3158 0
M  V30 1553 H 138.449 -4.99449 -0.596606 0
M  V30 1554 H 138.149 -5.79609 0.965788 0
M  V30 1555 H 139.673 -6.10539 0.0861567 0
M  V30 1556 H 141.087 -5.2913 2.20669 0
M  V30 1557 H 139.484 -5.20148 2.99276 0
M  V30 1558 H 140.554 -3.78834 3.02676 0
M  V30 1559 N 141.898 -0.863906 -1.31812 0
M  V30 1560 C 142.808 -0.318461 -2.32428 0
M  V30 1561 C 143.824 0.568496 -1.64451 0
M  V30 1562 O 145 0.46666 -1.95919 0
M  V30 1563 C 142.065 0.476355 -3.43412 0
M  V30 1564 C 141.126 -0.43784 -4.27061 0
M  V30 1565 C 140.359 0.319138 -5.32745 0
M  V30 1566 O 140.582 1.54799 -5.48993 0
M  V30 1567 O 139.516 -0.319861 -6.01049 0
M  V30 1568 H 143.342 -1.15229 -2.80991 0
M  V30 1569 H 140.927 -0.627103 -1.35602 0
M  V30 1570 H 142.809 0.927156 -4.11074 0
M  V30 1571 H 141.484 1.28683 -2.97022 0
M  V30 1572 H 140.391 -0.937013 -3.62175 0
M  V30 1573 H 141.724 -1.21375 -4.77 0
M  V30 1574 N 143.376 1.44774 -0.622745 0
M  V30 1575 C 144.323 2.30635 0.0871679 0
M  V30 1576 C 145.293 1.42994 0.845097 0
M  V30 1577 O 146.478 1.71907 0.827812 0
M  V30 1578 C 143.618 3.28144 1.06844 0
M  V30 1579 C 142.731 4.30888 0.309809 0
M  V30 1580 C 141.866 5.15494 1.28215 0
M  V30 1581 C 140.905 6.09953 0.512198 0
M  V30 1582 N 140.042 6.87287 1.43458 0
M  V30 1583 H 144.882 2.90803 -0.650974 0
M  V30 1584 H 142.419 1.43286 -0.33281 0
M  V30 1585 H 144.377 3.83157 1.65066 0
M  V30 1586 H 143.007 2.69695 1.77382 0
M  V30 1587 H 142.059 3.78414 -0.388181 0
M  V30 1588 H 143.371 4.97955 -0.290254 0
M  V30 1589 H 142.525 5.74983 1.93596 0
M  V30 1590 H 141.264 4.48481 1.91614 0
M  V30 1591 H 140.269 5.49581 -0.155151 0
M  V30 1592 H 141.494 6.78999 -0.116958 0
M  V30 1593 H 139.44 6.2295 2.05594 0
M  V30 1594 H 139.357 7.50763 0.888335 0
M  V30 1595 H 140.625 7.51306 2.07749 0
M  V30 1596 N 144.854 0.36279 1.53368 0
M  V30 1597 C 146.1 -0.228113 2.01513 0
M  V30 1598 C 146.433 -1.48648 1.2497 0
M  V30 1599 O 145.708 -1.91459 0.342616 0
M  V30 1600 C 145.991 -0.522884 3.56284 0
M  V30 1601 C 145.844 0.74892 4.43521 0
M  V30 1602 C 147.163 -1.32461 4.19693 0
M  V30 1603 H 144.282 -0.0814343 0.732487 0
M  V30 1604 H 146.924 0.48713 1.83649 0
M  V30 1605 H 145.074 -1.1322 3.71636 0
M  V30 1606 H 146.746 1.38648 4.39971 0
M  V30 1607 H 144.989 1.36986 4.11603 0
M  V30 1608 H 145.66 0.497667 5.49752 0
M  V30 1609 H 148.136 -0.809203 4.08156 0
M  V30 1610 H 147.012 -1.49961 5.28018 0
M  V30 1611 H 147.273 -2.33232 3.75573 0
M  V30 1612 N 146.332 -1.57332 0.0918853 0
M  V30 1613 C 147.743 -1.81496 -0.437739 0
M  V30 1614 C 148.094 -1.00727 -1.6837 0
M  V30 1615 O 147.219 -0.235694 -2.15113 0
M  V30 1616 C 147.814 -3.29197 -0.800939 0
M  V30 1617 C 146.373 -3.54136 -1.27532 0
M  V30 1618 C 145.52 -2.75979 -0.270392 0
M  V30 1619 H 148.471 -1.55494 0.317366 0
M  V30 1620 H 148.492 -3.42344 -1.66074 0
M  V30 1621 H 148.004 -3.87955 0.106078 0
M  V30 1622 H 146.105 -3.00705 -2.20016 0
M  V30 1623 H 146.218 -4.62792 -1.23938 0
M  V30 1624 H 144.582 -2.43349 -0.751872 0
M  V30 1625 H 145.365 -3.37484 0.629248 0
M  V30 1626 N 147.81 0.181792 -1.56548 0
M  V30 1627 C 149.035 0.920019 -1.85877 0
M  V30 1628 C 149.46 1.75494 -0.677021 0
M  V30 1629 O 148.818 1.77399 0.374056 0
M  V30 1630 C 148.866 1.78112 -3.13542 0
M  V30 1631 O 147.97 2.88152 -2.95029 0
M  V30 1632 H 147.311 0.258334 -0.611686 0
M  V30 1633 H 149.841 0.183092 -2.03779 0
M  V30 1634 H 149.851 2.18314 -3.44678 0
M  V30 1635 H 148.526 1.16777 -3.99169 0
M  V30 1636 H 147.103 2.51609 -2.75222 0
M  V30 1637 N 149.288 1.51039 0.449983 0
M  V30 1638 C 150.565 1.53612 1.21089 0
M  V30 1639 C 150.945 0.292997 2.09057 0
M  V30 1640 O 150.293 -0.72259 2.16774 0
M  V30 1641 C 150.503 2.84337 2.0237 0
M  V30 1642 C 151.851 3.35807 2.59843 0
M  V30 1643 O 152.875 2.85802 2.12593 0
M  V30 1644 O 151.734 4.23029 3.45989 0
M  V30 1645 H 148.828 0.617057 0.550608 0
M  V30 1646 H 151.374 1.63344 0.460082 0
M  V30 1647 H 150.146 3.66278 1.37681 0
M  V30 1648 H 149.769 2.77708 2.84542 0
M  V30 1649 N 150.766 -0.704594 1.40972 0
M  V30 1650 C 152.012 -1.46675 1.40051 0
M  V30 1651 C 152.345 -1.94199 0.00641102 0
M  V30 1652 O 151.62 -1.68916 -0.964235 0
M  V30 1653 C 151.903 -2.68505 2.39952 0
M  V30 1654 C 151.756 -2.26805 3.88432 0
M  V30 1655 C 153.075 -3.70686 2.37233 0
M  V30 1656 H 150.194 -0.532015 0.510028 0
M  V30 1657 H 152.836 -0.803255 1.72185 0
M  V30 1658 H 150.986 -3.25114 2.1268 0
M  V30 1659 H 152.658 -1.75592 4.26574 0
M  V30 1660 H 150.901 -1.58685 4.03734 0
M  V30 1661 H 151.572 -3.14181 4.53866 0
M  V30 1662 H 154.048 -3.23731 2.61415 0
M  V30 1663 H 152.924 -4.53553 3.09162 0
M  V30 1664 H 153.185 -4.19754 1.38777 0
M  V30 1665 N 152.244 -1.26651 -0.937939 0
M  V30 1666 C 153.174 -1.10993 -2.05433 0
M  V30 1667 C 154.155 -0.0142161 -1.70094 0
M  V30 1668 O 155.34 -0.186837 -1.93299 0
M  V30 1669 C 152.47 -0.745561 -3.39203 0
M  V30 1670 C 151.424 -1.79337 -3.88616 0
M  V30 1671 C 150.75 -1.28324 -5.19073 0
M  V30 1672 C 152.05 -3.19553 -4.13138 0
M  V30 1673 H 153.744 -2.0438 -2.1879 0
M  V30 1674 H 151.29 -0.984041 -1.05131 0
M  V30 1675 H 153.243 -0.622888 -4.16771 0
M  V30 1676 H 151.967 0.22401 -3.25831 0
M  V30 1677 H 150.626 -1.90477 -3.13231 0
M  V30 1678 H 150.274 -0.303414 -5.02084 0
M  V30 1679 H 149.974 -1.98369 -5.53103 0
M  V30 1680 H 151.498 -1.1733 -5.99221 0
M  V30 1681 H 152.912 -3.11471 -4.81309 0
M  V30 1682 H 151.309 -3.87218 -4.58457 0
M  V30 1683 H 152.379 -3.65368 -3.18801 0
M  V30 1684 N 153.722 1.14298 -1.08507 0
M  V30 1685 C 154.632 2.23027 -0.727753 0
M  V30 1686 C 155.648 1.71952 0.26619 0
M  V30 1687 O 156.824 2.011 0.109882 0
M  V30 1688 C 153.889 3.46403 -0.143541 0
M  V30 1689 C 152.95 4.12413 -1.19223 0
M  V30 1690 C 152.183 5.29899 -0.635798 0
M  V30 1691 O 152.406 5.67796 0.544393 0
M  V30 1692 O 151.34 5.85717 -1.38634 0
M  V30 1693 H 155.166 2.55945 -1.63481 0
M  V30 1694 H 152.751 1.22248 -0.858817 0
M  V30 1695 H 154.633 4.21018 0.179404 0
M  V30 1696 H 153.308 3.15206 0.736659 0
M  V30 1697 H 152.215 3.39667 -1.56772 0
M  V30 1698 H 153.548 4.47718 -2.04474 0
M  V30 1699 N 155.201 0.870884 1.31352 0
M  V30 1700 C 156.134 0.271983 2.26573 0
M  V30 1701 C 157.112 -0.599385 1.51149 0
M  V30 1702 O 158.296 -0.552605 1.80218 0
M  V30 1703 C 155.423 -0.614801 3.33073 0
M  V30 1704 C 154.469 0.185342 4.26097 0
M  V30 1705 S 155.302 1.56444 5.12138 0
M  V30 1706 C 156.458 0.683807 6.22153 0
M  V30 1707 H 156.691 1.07916 2.77023 0
M  V30 1708 H 154.224 0.669459 1.39132 0
M  V30 1709 H 156.182 -1.12074 3.94905 0
M  V30 1710 H 154.843 -1.39593 2.81376 0
M  V30 1711 H 154.036 -0.490771 5.01605 0
M  V30 1712 H 153.638 0.623415 3.68768 0
M  V30 1713 H 155.93 -0.10521 6.77418 0
M  V30 1714 H 156.873 1.41004 6.93919 0
M  V30 1715 H 157.281 0.250952 5.63942 0
M  V30 1716 N 156.679 -1.44442 0.630414 0
M  V30 1717 C 157.909 -2.06115 0.141465 0
M  V30 1718 C 158.317 -1.47179 -1.1889 0
M  V30 1719 O 157.66 -0.588873 -1.74006 0
M  V30 1720 C 157.722 -3.59467 -0.0484355 0
M  V30 1721 C 157.386 -4.40864 1.20366 0
M  V30 1722 C 158.383 -4.74391 2.12719 0
M  V30 1723 C 156.068 -4.8125 1.43887 0
M  V30 1724 C 158.062 -5.47186 3.26904 0
M  V30 1725 C 155.749 -5.53795 2.5837 0
M  V30 1726 C 156.747 -5.86682 3.49705 0
M  V30 1727 O 156.435 -6.57749 4.62191 0
M  V30 1728 H 156.167 -0.671648 0.0765792 0
M  V30 1729 H 158.721 -1.86312 0.864695 0
M  V30 1730 H 156.951 -3.77758 -0.826803 0
M  V30 1731 H 158.64 -4.02909 -0.491849 0
M  V30 1732 H 159.406 -4.43728 1.95781 0
M  V30 1733 H 155.285 -4.55073 0.736853 0
M  V30 1734 H 158.829 -5.72773 3.98217 0
M  V30 1735 H 154.726 -5.83872 2.75251 0
M  V30 1736 H 155.494 -6.76217 4.61164 0
M  V30 1737 N 158.157 -0.370918 -1.53173 0
M  V30 1738 C 159.104 0.473035 -2.259 0
M  V30 1739 C 160.074 1.07311 -1.26781 0
M  V30 1740 O 161.259 1.1046 -1.55574 0
M  V30 1741 C 158.399 1.60405 -3.05556 0
M  V30 1742 C 157.512 1.02863 -4.19575 0
M  V30 1743 C 156.647 2.12918 -4.86661 0
M  V30 1744 C 155.686 1.52869 -5.92704 0
M  V30 1745 N 154.823 2.56779 -6.53459 0
M  V30 1746 H 159.663 -0.153649 -2.97604 0
M  V30 1747 H 157.2 -0.0875946 -1.46839 0
M  V30 1748 H 159.158 2.27034 -3.50016 0
M  V30 1749 H 157.788 2.20131 -2.36097 0
M  V30 1750 H 156.84 0.252465 -3.79561 0
M  V30 1751 H 158.152 0.549642 -4.95762 0
M  V30 1752 H 157.306 2.87356 -5.34333 0
M  V30 1753 H 156.045 2.6417 -4.09958 0
M  V30 1754 H 155.05 0.769479 -5.44389 0
M  V30 1755 H 156.275 1.02435 -6.7133 0
M  V30 1756 H 154.221 3.07235 -5.79606 0
M  V30 1757 H 154.138 2.13583 -7.25202 0
M  V30 1758 H 155.406 3.30903 -7.05779 0
M  V30 1759 N 159.635 1.57281 -0.100228 0
M  V30 1760 C 160.598 2.13158 0.842398 0
M  V30 1761 C 161.598 1.06202 1.20738 0
M  V30 1762 O 162.788 1.32066 1.13597 0
M  V30 1763 C 159.92 2.65639 2.13655 0
M  V30 1764 H 161.113 2.97766 0.357114 0
M  V30 1765 H 158.666 1.5559 0.148823 0
M  V30 1766 H 159.401 1.84566 2.66657 0
M  V30 1767 H 159.186 3.43844 1.88451 0
M  V30 1768 H 160.676 3.08846 2.81077 0
M  V30 1769 N 161.113 -0.173488 1.56642 0
M  V30 1770 C 162.362 -0.888758 1.81063 0
M  V30 1771 C 162.675 -1.83506 0.67712 0
M  V30 1772 O 163.881 -2.59254 0.806206 0
M  V30 1773 C 162.337 -1.63091 3.20826 0
M  V30 1774 C 161.945 -0.728357 4.4204 0
M  V30 1775 C 163.689 -2.33454 3.54541 0
M  V30 1776 C 161.596 -1.47062 5.72823 0
M  V30 1777 H 160.526 -0.335618 0.675186 0
M  V30 1778 H 163.177 -0.141712 1.82952 0
M  V30 1779 H 161.559 -2.42263 3.13248 0
M  V30 1780 H 162.733 0.0262449 4.60793 0
M  V30 1781 H 161.048 -0.134492 4.16183 0
M  V30 1782 H 163.645 -2.89578 4.49498 0
M  V30 1783 H 163.988 -3.08687 2.79317 0
M  V30 1784 H 164.521 -1.61227 3.63663 0
M  V30 1785 H 161.26 -0.760658 6.51072 0
M  V30 1786 H 160.78 -2.1986 5.58052 0
M  V30 1787 H 162.459 -2.01868 6.14702 0
M  V30 1788 N 162.591 -1.51276 -0.441967 0
M  V30 1789 C 163.839 -1.63392 -1.18943 0
M  V30 1790 C 164.16 -0.350159 -1.9183 0
M  V30 1791 O 163.43 0.633784 -1.85364 0
M  V30 1792 H 162.01 -0.602164 -0.442049 0
M  V30 1793 H 164.672 -1.88186 -0.507165 0
M  V30 1794 H 163.768 -2.45934 -1.92154 0
M  V30 1795 N 164.069 0.697108 -1.41344 0
M  V30 1796 C 165.317 1.45426 -1.40341 0
M  V30 1797 C 165.638 1.94996 -0.0128787 0
M  V30 1798 O 164.908 1.71599 0.945027 0
M  V30 1799 H 163.488 0.539594 -0.516573 0
M  V30 1800 H 166.15 0.825201 -1.76569 0
M  V30 1801 H 165.246 2.31817 -2.08967 0
M  V30 1802 N 165.547 1.27147 0.931209 0
M  V30 1803 C 166.494 1.09568 2.03134 0
M  V30 1804 C 167.464 -0.00222433 1.661 0
M  V30 1805 O 168.649 0.159439 1.90133 0
M  V30 1806 C 165.789 0.745231 3.36957 0
M  V30 1807 C 164.902 1.92041 3.86968 0
M  V30 1808 C 164.037 1.51216 5.09222 0
M  V30 1809 C 163.076 2.65504 5.5152 0
M  V30 1810 N 162.213 2.25291 6.64972 0
M  V30 1811 H 167.053 2.03708 2.17502 0
M  V30 1812 H 164.59 1.01411 1.06556 0
M  V30 1813 H 166.548 0.522878 4.1391 0
M  V30 1814 H 165.178 -0.159202 3.22407 0
M  V30 1815 H 164.23 2.25541 3.06326 0
M  V30 1816 H 165.542 2.77787 4.1429 0
M  V30 1817 H 164.696 1.25084 5.93666 0
M  V30 1818 H 163.435 0.625749 4.83669 0
M  V30 1819 H 162.44 2.92354 4.65628 0
M  V30 1820 H 163.665 3.54761 5.7907 0
M  V30 1821 H 161.611 1.39098 6.41083 0
M  V30 1822 H 161.528 3.04577 6.91931 0
M  V30 1823 H 162.796 2.02398 7.52765 0
M  V30 1824 N 167.025 -1.13721 1.09112 0
M  V30 1825 C 168.274 -1.84275 0.82009 0
M  V30 1826 C 168.587 -1.84253 -0.656509 0
M  V30 1827 O 169.793 -2.50668 -1.04296 0
M  V30 1828 C 168.249 -3.30825 1.41714 0
M  V30 1829 C 167.857 -3.39244 2.92605 0
M  V30 1830 C 169.601 -4.06443 1.22492 0
M  V30 1831 C 167.508 -4.80047 3.45411 0
M  V30 1832 H 166.438 -0.690387 0.30312 0
M  V30 1833 H 169.089 -1.28146 1.31343 0
M  V30 1834 H 167.471 -3.86737 0.851498 0
M  V30 1835 H 168.645 -2.93344 3.55367 0
M  V30 1836 H 166.96 -2.77088 3.10823 0
M  V30 1837 H 169.557 -5.10387 1.59402 0
M  V30 1838 H 169.9 -4.15972 0.165299 0
M  V30 1839 H 170.433 -3.56852 1.75788 0
M  V30 1840 H 167.172 -4.75709 4.50978 0
M  V30 1841 H 166.692 -5.26455 2.87411 0
M  V30 1842 H 168.371 -5.48957 3.42425 0
M  V30 1843 N 168.503 -0.877838 -1.30888 0
M  V30 1844 C 169.733 -0.506678 -2.00291 0
M  V30 1845 C 170.141 0.907449 -1.66018 0
M  V30 1846 O 169.484 1.60719 -0.88967 0
M  V30 1847 C 169.546 -0.59323 -3.54572 0
M  V30 1848 C 169.21 -1.97038 -4.12341 0
M  V30 1849 C 170.207 -2.93889 -4.28865 0
M  V30 1850 C 167.892 -2.27383 -4.47886 0
M  V30 1851 C 169.886 -4.19224 -4.80136 0
M  V30 1852 C 167.573 -3.52965 -4.98857 0
M  V30 1853 C 168.571 -4.48701 -5.14934 0
M  V30 1854 O 168.259 -5.72056 -5.64808 0
M  V30 1855 H 167.991 -0.1951 -0.647234 0
M  V30 1856 H 170.545 -1.18301 -1.6791 0
M  V30 1857 H 168.775 0.140057 -3.86446 0
M  V30 1858 H 170.464 -0.234372 -4.05223 0
M  V30 1859 H 171.23 -2.71756 -4.01714 0
M  V30 1860 H 167.109 -1.53639 -4.34645 0
M  V30 1861 H 170.653 -4.93956 -4.92599 0
M  V30 1862 H 166.55 -3.74939 -5.25443 0
M  V30 1863 H 167.318 -5.74337 -5.83163 0
M  V30 1864 N 169.982 1.44106 -0.638065 0
M  V30 1865 C 171.231 2.01194 -0.142744 0
M  V30 1866 C 171.544 1.50835 1.24532 0
M  V30 1867 O 172.75 2.00096 1.83504 0
M  V30 1868 C 171.206 3.59319 -0.20442 0
M  V30 1869 C 170.814 4.18674 -1.59423 0
M  V30 1870 C 172.558 4.23854 0.234079 0
M  V30 1871 C 170.465 5.69045 -1.61065 0
M  V30 1872 H 169.395 0.752367 -0.0495998 0
M  V30 1873 H 172.046 1.65246 -0.797881 0
M  V30 1874 H 170.428 3.92598 0.517946 0
M  V30 1875 H 171.602 3.96921 -2.34074 0
M  V30 1876 H 169.917 3.66453 -1.97741 0
M  V30 1877 H 172.514 5.34155 0.241443 0
M  V30 1878 H 172.857 3.96688 1.2627 0
M  V30 1879 H 173.39 3.95403 -0.436025 0
M  V30 1880 H 170.129 6.00956 -2.61787 0
M  V30 1881 H 169.649 5.929 -0.90718 0
M  V30 1882 H 171.328 6.32809 -1.34766 0
M  V30 1883 N 171.46 0.379036 1.52974 0
M  V30 1884 C 172.706 -0.206727 2.01744 0
M  V30 1885 C 173.039 -1.47314 1.26539 0
M  V30 1886 O 172.314 -1.91084 0.362903 0
M  V30 1887 C 172.597 -0.485066 3.56818 0
M  V30 1888 C 172.45 0.795919 4.42702 0
M  V30 1889 C 173.769 -1.28003 4.21074 0
M  V30 1890 H 170.888 -0.0736607 0.73331 0
M  V30 1891 H 173.53 0.506581 1.83122 0
M  V30 1892 H 171.68 -1.09272 3.72816 0
M  V30 1893 H 173.352 1.43307 4.38476 0
M  V30 1894 H 171.595 1.41344 4.10127 0
M  V30 1895 H 172.266 0.555947 5.49193 0
M  V30 1896 H 174.742 -0.765867 4.08991 0
M  V30 1897 H 173.618 -1.44352 5.29579 0
M  V30 1898 H 173.879 -2.29236 3.78026 0
M  V30 1899 N 172.938 -1.57226 0.108567 0
M  V30 1900 C 174.215 -1.86333 -0.594939 0
M  V30 1901 C 174.595 -1.00788 -1.85486 0
M  V30 1902 O 173.943 -0.0839293 -2.28346 0
M  V30 1903 C 174.153 -3.37265 -0.897405 0
M  V30 1904 C 175.501 -4.05629 -1.25501 0
M  V30 1905 O 176.525 -3.42224 -0.987998 0
M  V30 1906 O 175.384 -5.17531 -1.75567 0
M  V30 1907 H 172.478 -0.771018 -0.2991 0
M  V30 1908 H 175.024 -1.69102 0.142283 0
M  V30 1909 H 173.796 -3.913 -0.00413806 0
M  V30 1910 H 173.419 -3.59889 -1.69014 0
M  V30 1911 N 174.416 0.165178 -1.56732 0
M  V30 1912 C 175.664 0.879068 -1.8198 0
M  V30 1913 C 175.985 1.82514 -0.686561 0
M  V30 1914 O 175.255 1.93694 0.293146 0
M  V30 1915 H 173.835 0.327608 -0.671329 0
M  V30 1916 H 176.497 0.163526 -1.94213 0
M  V30 1917 H 175.593 1.45228 -2.76252 0
M  V30 1918 N 175.894 1.51508 0.433938 0
M  V30 1919 C 177.171 1.54888 1.19453 0
M  V30 1920 C 177.551 0.315154 2.08734 0
M  V30 1921 O 176.899 -0.699558 2.17528 0
M  V30 1922 C 177.109 2.86467 1.99342 0
M  V30 1923 C 178.457 3.38545 2.56267 0
M  V30 1924 O 179.481 2.88041 2.0955 0
M  V30 1925 O 178.34 4.26675 3.41483 0
M  V30 1926 H 175.434 0.622863 0.544032 0
M  V30 1927 H 177.98 1.63823 0.442732 0
M  V30 1928 H 176.752 3.67718 1.33788 0
M  V30 1929 H 176.375 2.8071 2.8158 0
M  V30 1930 N 177.372 -0.689602 1.41712 0
M  V30 1931 C 178.621 -1.44534 1.40686 0
M  V30 1932 C 178.934 -1.95588 0.0213352 0
M  V30 1933 O 180.14 -2.71271 -0.111534 0
M  V30 1934 C 178.596 -2.61387 2.47396 0
M  V30 1935 C 178.204 -2.17094 3.91885 0
M  V30 1936 C 179.948 -3.38986 2.55517 0
M  V30 1937 C 177.855 -3.3094 4.90135 0
M  V30 1938 H 176.785 -0.542925 0.52321 0
M  V30 1939 H 179.436 -0.748054 1.6756 0
M  V30 1940 H 177.818 -3.33412 2.13664 0
M  V30 1941 H 178.992 -1.52318 4.34897 0
M  V30 1942 H 177.307 -1.52473 3.8748 0
M  V30 1943 H 179.904 -4.23747 3.26102 0
M  V30 1944 H 180.247 -3.84578 1.59391 0
M  V30 1945 H 180.78 -2.74021 2.8837 0
M  V30 1946 H 177.519 -2.90355 5.87685 0
M  V30 1947 H 177.039 -3.94546 4.51767 0
M  V30 1948 H 178.718 -3.9663 5.11169 0
M  V30 1949 N 178.85 -1.27639 -0.924453 0
M  V30 1950 C 180.078 -1.16989 -1.70649 0
M  V30 1951 C 180.493 0.272869 -1.86818 0
M  V30 1952 O 179.85 1.18549 -1.38753 0
M  V30 1953 C 179.901 -1.85229 -3.10439 0
M  V30 1954 O 179.622 -3.23868 -2.95028 0
M  V30 1955 C 181.123 -1.80746 -4.04779 0
M  V30 1956 H 178.343 -0.406595 -0.53378 0
M  V30 1957 H 180.887 -1.68569 -1.15778 0
M  V30 1958 H 179.042 -1.37545 -3.6216 0
M  V30 1959 H 179.456 -3.57889 -3.83426 0
M  V30 1960 H 180.93 -2.33101 -5.00368 0
M  V30 1961 H 181.407 -0.777499 -4.32263 0
M  V30 1962 H 182.013 -2.28059 -3.58984 0
M  V30 1963 N 180.328 1.1314 -1.09713 0
M  V30 1964 C 181.275 2.18642 -0.739196 0
M  V30 1965 C 182.245 1.63706 0.280978 0
M  V30 1966 O 183.43 1.90111 0.161946 0
M  V30 1967 C 180.57 3.44685 -0.169102 0
M  V30 1968 C 179.683 4.13711 -1.24367 0
M  V30 1969 C 178.818 5.27379 -0.636019 0
M  V30 1970 C 177.857 5.88259 -1.69169 0
M  V30 1971 N 176.994 6.93352 -1.10485 0
M  V30 1972 H 181.834 2.48607 -1.64312 0
M  V30 1973 H 179.371 1.22066 -0.820875 0
M  V30 1974 H 181.329 4.16815 0.179256 0
M  V30 1975 H 179.959 3.15161 0.698079 0
M  V30 1976 H 179.011 3.39835 -1.70927 0
M  V30 1977 H 180.323 4.55037 -2.04311 0
M  V30 1978 H 179.477 6.06238 -0.236677 0
M  V30 1979 H 178.216 4.8731 0.194928 0
M  V30 1980 H 177.221 5.08092 -2.10055 0
M  V30 1981 H 178.446 6.30399 -2.52536 0
M  V30 1982 H 176.392 6.55335 -0.295234 0
M  V30 1983 H 176.309 7.33236 -1.84121 0
M  V30 1984 H 177.577 7.76057 -0.73181 0
M  V30 1985 N 181.806 0.884767 1.30421 0
M  V30 1986 C 182.756 0.322846 2.25703 0
M  V30 1987 C 183.74 -0.548582 1.51259 0
M  V30 1988 O 184.932 -0.39304 1.72581 0
M  V30 1989 C 182.061 -0.461787 3.4018 0
M  V30 1990 C 181.147 0.423717 4.21978 0
M  V30 1991 N 181.538 1.52408 4.82292 0
M  V30 1992 C 179.836 0.218795 4.45463 0
M  V30 1993 C 180.537 2.07136 5.43571 0
M  V30 1994 N 179.513 1.36635 5.26148 0
M  V30 1995 H 183.315 1.16363 2.69883 0
M  V30 1996 H 180.829 0.73415 1.44859 0
M  V30 1997 H 182.826 -0.880985 4.07485 0
M  V30 1998 H 181.486 -1.30001 2.9754 0
M  V30 1999 H 182.497 1.90693 4.81515 0
M  V30 2000 H 179.174 -0.582275 4.1342 0
M  V30 2001 H 180.564 2.99538 6.01437 0
M  V30 2002 N 183.284 -1.43765 0.645699 0
M  V30 2003 C 184.533 -2.01116 0.153412 0
M  V30 2004 C 184.846 -1.51493 -1.23731 0
M  V30 2005 O 186.052 -2.01067 -1.8244 0
M  V30 2006 C 184.508 -3.59206 0.223473 0
M  V30 2007 C 184.116 -4.17823 1.61642 0
M  V30 2008 C 185.86 -4.23972 -0.211597 0
M  V30 2009 C 183.767 -5.68183 1.64081 0
M  V30 2010 H 182.697 -0.752093 0.0535891 0
M  V30 2011 H 185.348 -1.6482 0.806633 0
M  V30 2012 H 183.73 -3.92867 -0.497118 0
M  V30 2013 H 184.904 -3.95674 2.36176 0
M  V30 2014 H 183.219 -3.65399 1.99681 0
M  V30 2015 H 185.816 -5.34275 -0.213112 0
M  V30 2016 H 186.159 -3.97352 -1.24165 0
M  V30 2017 H 186.692 -3.95166 0.456988 0
M  V30 2018 H 183.431 -5.99559 2.64971 0
M  V30 2019 H 182.951 -5.9241 0.938611 0
M  V30 2020 H 184.63 -6.32085 1.3812 0
M  V30 2021 N 184.763 -0.387143 -1.52771 0
M  V30 2022 C 185.988 0.198407 -2.06449 0
M  V30 2023 C 186.413 1.39918 -1.25716 0
M  V30 2024 O 185.771 1.79099 -0.281657 0
M  V30 2025 C 185.819 0.548893 -3.56398 0
M  V30 2026 O 184.923 1.64315 -3.78252 0
M  V30 2027 H 184.264 0.0237731 -0.663574 0
M  V30 2028 H 186.794 -0.553989 -1.96957 0
M  V30 2029 H 186.804 0.813812 -3.99801 0
M  V30 2030 H 185.479 -0.329005 -4.14597 0
M  V30 2031 H 184.056 1.37211 -3.46738 0
M  V30 2032 N 186.241 1.57166 -0.116904 0
M  V30 2033 C 187.171 2.18222 0.830759 0
M  V30 2034 C 188.152 1.12167 1.27877 0
M  V30 2035 O 189.337 1.40394 1.34176 0
M  V30 2036 C 186.467 2.77996 2.08172 0
M  V30 2037 C 185.421 3.89614 1.77157 0
M  V30 2038 C 184.747 4.36187 3.09265 0
M  V30 2039 C 186.047 5.1181 1.04151 0
M  V30 2040 H 187.741 2.97664 0.321992 0
M  V30 2041 H 185.287 1.4318 0.153434 0
M  V30 2042 H 187.24 3.19366 2.74924 0
M  V30 2043 H 185.964 1.9584 2.6137 0
M  V30 2044 H 184.623 3.48816 1.12796 0
M  V30 2045 H 184.271 3.50893 3.60393 0
M  V30 2046 H 183.971 5.11455 2.89288 0
M  V30 2047 H 185.495 4.80207 3.77139 0
M  V30 2048 H 186.909 5.50214 1.61052 0
M  V30 2049 H 185.306 5.92648 0.942762 0
M  V30 2050 H 186.376 4.84892 0.0279022 0
M  V30 2051 N 187.719 -0.156864 1.56817 0
M  V30 2052 C 188.629 -1.2136 2.00771 0
M  V30 2053 C 189.645 -1.47598 0.921459 0
M  V30 2054 O 190.821 -1.59462 1.2302 0
M  V30 2055 C 187.886 -2.52943 2.37109 0
M  V30 2056 C 186.947 -2.34439 3.59634 0
M  V30 2057 C 186.18 -3.59748 3.94229 0
M  V30 2058 O 186.403 -4.65526 3.29609 0
M  V30 2059 O 185.337 -3.52998 4.8752 0
M  V30 2060 H 189.163 -0.870468 2.90958 0
M  V30 2061 H 186.748 -0.36484 1.44877 0
M  V30 2062 H 188.63 -3.30538 2.61386 0
M  V30 2063 H 187.305 -2.86806 1.5008 0
M  V30 2064 H 186.212 -1.54828 3.40557 0
M  V30 2065 H 187.545 -2.05496 4.4725 0
M  V30 2066 N 189.197 -1.51736 -0.425897 0
M  V30 2067 C 190.16 -1.73271 -1.50032 0
M  V30 2068 C 191.16 -0.602639 -1.4908 0
M  V30 2069 O 192.35 -0.87033 -1.509 0
M  V30 2070 C 189.482 -1.79969 -2.89523 0
M  V30 2071 H 190.675 -2.69172 -1.32237 0
M  V30 2072 H 188.228 -1.41899 -0.65532 0
M  V30 2073 H 188.963 -0.859241 -3.1271 0
M  V30 2074 H 188.748 -2.62109 -2.91619 0
M  V30 2075 H 190.238 -1.9843 -3.67444 0
M  V30 2076 N 190.675 0.682077 -1.42076 0
M  V30 2077 C 191.605 1.80796 -1.47767 0
M  V30 2078 C 192.586 1.6677 -0.334954 0
M  V30 2079 O 193.771 1.863 -0.548264 0
M  V30 2080 C 190.901 3.19038 -1.37229 0
M  V30 2081 C 189.855 3.47789 -2.49453 0
M  V30 2082 C 189.181 4.8553 -2.23975 0
M  V30 2083 C 190.481 3.45411 -3.91776 0
M  V30 2084 H 192.175 1.7629 -2.41997 0
M  V30 2085 H 189.721 0.846721 -1.16476 0
M  V30 2086 H 191.674 3.97528 -1.39821 0
M  V30 2087 H 190.398 3.24204 -0.394907 0
M  V30 2088 H 189.057 2.71657 -2.46166 0
M  V30 2089 H 188.705 4.87337 -1.24547 0
M  V30 2090 H 188.405 5.0573 -2.99184 0
M  V30 2091 H 189.929 5.66312 -2.28304 0
M  V30 2092 H 191.343 4.13882 -3.96705 0
M  V30 2093 H 189.74 3.77145 -4.66778 0
M  V30 2094 H 190.81 2.44122 -4.18966 0
M  V30 2095 N 192.153 1.28127 0.917671 0
M  V30 2096 C 193.378 1.18007 1.70555 0
M  V30 2097 C 193.803 -0.258257 1.86319 0
M  V30 2098 O 193.161 -1.1869 1.37049 0
M  V30 2099 C 193.209 1.87948 3.07746 0
M  V30 2100 O 192.313 1.18427 3.9503 0
M  V30 2101 H 191.654 0.409867 0.522403 0
M  V30 2102 H 194.184 1.69379 1.1477 0
M  V30 2103 H 194.194 1.95701 3.58001 0
M  V30 2104 H 192.869 2.92573 2.95591 0
M  V30 2105 H 191.446 1.18811 3.53466 0
M  V30 2106 N 193.631 -1.12557 1.10312 0
M  V30 2107 C 194.541 -2.21841 0.763142 0
M  V30 2108 C 195.557 -1.72354 -0.238801 0
M  V30 2109 O 196.733 -2.01249 -0.0778746 0
M  V30 2110 C 193.798 -3.46131 0.198632 0
M  V30 2111 C 192.859 -4.10464 1.25769 0
M  V30 2112 C 192.092 -5.28821 0.72002 0
M  V30 2113 O 192.315 -5.6859 -0.453993 0
M  V30 2114 O 191.249 -5.83437 1.47935 0
M  V30 2115 H 195.075 -2.53312 1.67532 0
M  V30 2116 H 192.66 -1.20867 0.878157 0
M  V30 2117 H 194.542 -4.2125 -0.112401 0
M  V30 2118 H 193.217 -3.16338 -0.686419 0
M  V30 2119 H 192.124 -3.3713 1.62156 0
M  V30 2120 H 193.457 -4.44408 2.11571 0
M  V30 2121 N 195.109 -0.891671 -1.2995 0
M  V30 2122 C 196.386 -0.433307 -1.9074 0
M  V30 2123 C 196.766 1.08646 -1.80995 0
M  V30 2124 O 196.114 1.92476 -1.23147 0
M  V30 2125 C 196.324 -0.938895 -3.36134 0
M  V30 2126 C 197.672 -0.977829 -4.13187 0
M  V30 2127 O 198.696 -0.886015 -3.45005 0
M  V30 2128 O 197.555 -1.11453 -5.35015 0
M  V30 2129 H 194.649 -0.133699 -0.816121 0
M  V30 2130 H 197.195 -0.981011 -1.38471 0
M  V30 2131 H 195.967 -1.98281 -3.37343 0
M  V30 2132 H 195.59 -0.37074 -3.95868 0
M  V30 2133 N 196.587 1.43421 -0.653314 0
M  V30 2134 C 197.534 2.30768 0.0382271 0
M  V30 2135 C 198.504 1.44755 0.814576 0
M  V30 2136 O 199.689 1.73624 0.791162 0
M  V30 2137 C 196.829 3.30336 0.998599 0
M  V30 2138 C 195.942 4.31448 0.218342 0
M  V30 2139 C 195.077 5.18098 1.17252 0
M  V30 2140 C 194.116 6.10902 0.382702 0
M  V30 2141 N 193.253 6.90176 1.28848 0
M  V30 2142 H 198.093 2.89357 -0.712511 0
M  V30 2143 H 195.63 1.42548 -0.363128 0
M  V30 2144 H 197.588 3.86572 1.56901 0
M  V30 2145 H 196.218 2.73397 1.71621 0
M  V30 2146 H 195.27 3.77506 -0.46836 0
M  V30 2147 H 196.582 4.97227 -0.395812 0
M  V30 2148 H 195.736 5.7896 1.81356 0
M  V30 2149 H 194.475 4.52444 1.82058 0
M  V30 2150 H 193.48 5.49128 -0.27169 0
M  V30 2151 H 194.705 6.78598 -0.260957 0
M  V30 2152 H 192.651 6.27171 1.92334 0
M  V30 2153 H 192.568 7.52478 0.728887 0
M  V30 2154 H 193.836 7.55543 1.91766 0
M  V30 2155 N 198.065 0.39524 1.52563 0
M  V30 2156 C 199.012 -0.437036 2.26624 0
M  V30 2157 C 199.982 -1.05281 1.28472 0
M  V30 2158 O 201.167 -1.07971 1.57311 0
M  V30 2159 C 198.307 -1.55524 3.08069 0
M  V30 2160 C 197.42 -0.961745 4.21158 0
M  V30 2161 C 196.555 -2.05149 4.89987 0
M  V30 2162 C 195.594 -1.4342 5.95061 0
M  V30 2163 N 194.731 -2.46351 6.57462 0
M  V30 2164 H 199.571 0.200976 2.97322 0
M  V30 2165 H 197.108 0.110944 1.46681 0
M  V30 2166 H 199.066 -2.21437 3.53584 0
M  V30 2167 H 197.696 -2.16348 2.3957 0
M  V30 2168 H 196.748 -0.192048 3.79915 0
M  V30 2169 H 198.06 -0.470701 4.96574 0
M  V30 2170 H 197.214 -2.78819 5.38837 0
M  V30 2171 H 195.953 -2.57615 4.14109 0
M  V30 2172 H 194.958 -0.682774 5.45544 0
M  V30 2173 H 196.183 -0.917416 6.72875 0
M  V30 2174 H 194.129 -2.97975 5.8442 0
M  V30 2175 H 194.046 -2.02019 7.28508 0
M  V30 2176 H 195.314 -3.19633 7.10954 0
M  V30 2177 N 199.544 -1.57102 0.125237 0
M  V30 2178 C 200.491 -2.15641 -0.822655 0
M  V30 2179 C 201.461 -1.08313 -1.25927 0
M  V30 2180 O 202.646 -1.36251 -1.33567 0
M  V30 2181 C 199.786 -2.76504 -2.06494 0
M  V30 2182 C 198.899 -3.98158 -1.67612 0
M  V30 2183 C 198.034 -4.47088 -2.86854 0
M  V30 2184 C 197.073 -5.6126 -2.44242 0
M  V30 2185 N 196.21 -6.04905 -3.56419 0
M  V30 2186 H 201.05 -2.96313 -0.316625 0
M  V30 2187 H 198.587 -1.46388 -0.144588 0
M  V30 2188 H 200.545 -3.09925 -2.79289 0
M  V30 2189 H 199.175 -1.98512 -2.54545 0
M  V30 2190 H 198.227 -3.70858 -0.846661 0
M  V30 2191 H 199.539 -4.80934 -1.32301 0
M  V30 2192 H 198.693 -4.82451 -3.67867 0
M  V30 2193 H 197.432 -3.63275 -3.25396 0
M  V30 2194 H 196.437 -5.25495 -1.61663 0
M  V30 2195 H 197.662 -6.46843 -2.0681 0
M  V30 2196 H 195.608 -5.24032 -3.94623 0
M  V30 2197 H 195.525 -6.82552 -3.25051 0
M  V30 2198 H 196.793 -6.44907 -4.37853 0
M  V30 2199 N 201.022 0.148545 -1.56898 0
M  V30 2200 C 202.271 0.85984 -1.82454 0
M  V30 2201 C 202.584 1.82406 -0.706229 0
M  V30 2202 O 203.79 2.57938 -0.847349 0
M  V30 2203 C 202.246 1.57967 -3.2338 0
M  V30 2204 C 201.854 0.65794 -4.43142 0
M  V30 2205 C 203.598 2.27784 -3.58211 0
M  V30 2206 C 201.505 1.3793 -5.75091 0
M  V30 2207 H 200.435 0.324834 -0.68044 0
M  V30 2208 H 203.086 0.112588 -1.83154 0
M  V30 2209 H 201.468 2.37249 -3.17063 0
M  V30 2210 H 202.642 -0.0995497 -4.60692 0
M  V30 2211 H 200.957 0.0682643 -4.16344 0
M  V30 2212 H 203.554 2.8239 -4.54048 0
M  V30 2213 H 203.897 3.04204 -2.84193 0
M  V30 2214 H 204.43 1.55421 -3.66182 0
M  V30 2215 H 201.169 0.656982 -6.52199 0
M  V30 2216 H 200.689 2.10954 -5.61479 0
M  V30 2217 H 202.368 1.92063 -6.17835 0
M  V30 2218 N 202.5 1.5196 0.417844 0
M  V30 2219 C 203.447 1.74678 1.50852 0
M  V30 2220 C 204.417 0.588947 1.55308 0
M  V30 2221 O 205.602 0.825544 1.72016 0
M  V30 2222 C 202.742 1.89544 2.88387 0
M  V30 2223 C 201.855 3.17166 2.93309 0
M  V30 2224 C 200.99 3.22513 4.22088 0
M  V30 2225 C 200.029 4.44372 4.20951 0
M  V30 2226 N 199.166 4.47161 5.41287 0
M  V30 2227 H 204.006 2.67768 1.30783 0
M  V30 2228 H 201.543 1.32689 0.63498 0
M  V30 2229 H 203.501 1.96146 3.68216 0
M  V30 2230 H 202.131 0.998424 3.06971 0
M  V30 2231 H 201.183 3.19778 2.06024 0
M  V30 2232 H 202.495 4.07021 2.88332 0
M  V30 2233 H 201.649 3.28139 5.10303 0
M  V30 2234 H 200.388 2.30581 4.29748 0
M  V30 2235 H 199.393 4.38902 3.31127 0
M  V30 2236 H 200.618 5.3759 4.14938 0
M  V30 2237 H 198.564 3.58108 5.49632 0
M  V30 2238 H 198.481 5.3085 5.3827 0
M  V30 2239 H 199.749 4.57005 6.3148 0
M  V30 2240 N 203.978 -0.674533 1.42435 0
M  V30 2241 C 205.255 -1.4305 1.33402 0
M  V30 2242 C 205.635 -2.11081 -0.0284674 0
M  V30 2243 O 204.983 -2.03257 -1.04397 0
M  V30 2244 C 205.193 -2.43272 2.50239 0
M  V30 2245 C 206.541 -3.07907 2.92367 0
M  V30 2246 O 207.565 -2.53599 2.50132 0
M  V30 2247 O 206.424 -4.0632 3.65467 0
M  V30 2248 H 203.518 -0.638076 0.526106 0
M  V30 2249 H 206.064 -0.703235 1.54443 0
M  V30 2250 H 204.836 -1.91803 3.41068 0
M  V30 2251 H 204.459 -3.23479 2.31186 0
M  V30 2252 N 205.456 -1.28612 -0.910864 0
M  V30 2253 C 206.705 -1.15311 -1.65488 0
M  V30 2254 C 207.018 0.296999 -1.93332 0
M  V30 2255 O 208.224 0.551168 -2.65847 0
M  V30 2256 C 206.68 -2.01599 -2.98137 0
M  V30 2257 C 206.288 -3.51367 -2.7793 0
M  V30 2258 C 208.032 -1.96993 -3.76024 0
M  V30 2259 C 205.939 -4.29797 -4.06237 0
M  V30 2260 H 204.869 -0.42796 -0.620779 0
M  V30 2261 H 207.52 -1.53166 -1.01057 0
M  V30 2262 H 205.902 -1.56603 -3.63719 0
M  V30 2263 H 207.076 -4.0434 -2.21011 0
M  V30 2264 H 205.391 -3.57529 -2.13452 0
M  V30 2265 H 207.988 -2.52856 -4.71135 0
M  V30 2266 H 208.331 -0.94733 -4.05378 0
M  V30 2267 H 208.864 -2.39973 -3.17266 0
M  V30 2268 H 205.603 -5.32648 -3.82055 0
M  V30 2269 H 205.123 -3.81596 -4.62757 0
M  V30 2270 H 206.802 -4.39869 -4.74473 0
M  V30 2271 N 206.934 1.1197 -1.10907 0
M  V30 2272 C 208.164 1.8713 -0.875553 0
M  V30 2273 C 208.572 1.8016 0.577843 0
M  V30 2274 O 207.915 1.17699 1.41042 0
M  V30 2275 C 207.977 3.37005 -1.2517 0
M  V30 2276 C 207.641 3.67748 -2.71313 0
M  V30 2277 C 208.638 3.65698 -3.69542 0
M  V30 2278 C 206.323 3.96928 -3.07821 0
M  V30 2279 C 208.317 3.92395 -5.023 0
M  V30 2280 C 206.004 4.23284 -4.40765 0
M  V30 2281 C 207.002 4.21005 -5.37814 0
M  V30 2282 O 206.69 4.46704 -6.68364 0
M  V30 2283 H 206.422 0.598786 -0.313737 0
M  V30 2284 H 208.976 1.42568 -1.47863 0
M  V30 2285 H 207.206 3.82146 -0.591741 0
M  V30 2286 H 208.895 3.93519 -0.994877 0
M  V30 2287 H 209.661 3.43211 -3.42682 0
M  V30 2288 H 205.54 3.97841 -2.32902 0
M  V30 2289 H 209.084 3.90531 -5.78041 0
M  V30 2290 H 204.981 4.45246 -4.67361 0
M  V30 2291 H 205.749 4.64299 -6.74069 0
M  V30 2292 N 208.412 0.89855 1.29475 0
M  V30 2293 C 209.66 0.522847 1.9522 0
M  V30 2294 C 209.981 -0.93371 1.71192 0
M  V30 2295 O 209.251 -1.65823 1.04305 0
M  V30 2296 H 207.831 0.190366 0.722336 0
M  V30 2297 H 210.493 1.14459 1.5775 0
M  V30 2298 H 209.589 0.704476 3.04045 0
M  V30 2299 N 209.89 -1.43072 0.660911 0
M  V30 2300 C 210.837 -2.30785 -0.0259884 0
M  V30 2301 C 211.807 -1.45184 -0.806888 0
M  V30 2302 O 212.992 -1.74041 -0.781943 0
M  V30 2303 C 210.132 -3.30861 -0.981067 0
M  V30 2304 C 209.245 -4.31558 -0.195458 0
M  V30 2305 C 208.38 -5.18712 -1.14503 0
M  V30 2306 C 207.419 -6.11097 -0.350299 0
M  V30 2307 N 206.556 -6.90849 -1.25186 0
M  V30 2308 H 211.396 -2.88975 0.727846 0
M  V30 2309 H 208.933 -1.42353 0.370682 0
M  V30 2310 H 210.891 -3.87399 -1.54849 0
M  V30 2311 H 209.521 -2.74304 -1.70169 0
M  V30 2312 H 208.573 -3.77252 0.488374 0
M  V30 2313 H 209.885 -4.9701 0.422176 0
M  V30 2314 H 209.039 -5.79914 -1.78284 0
M  V30 2315 H 207.778 -4.53404 -1.79656 0
M  V30 2316 H 206.783 -5.48976 0.300808 0
M  V30 2317 H 208.008 -6.7845 0.296941 0
M  V30 2318 H 205.954 -6.28182 -1.89005 0
M  V30 2319 H 205.871 -7.52854 -0.688971 0
M  V30 2320 H 207.139 -7.5655 -1.87757 0
M  V30 2321 N 211.368 -0.403325 -1.52352 0
M  V30 2322 C 212.645 0.232611 -1.94212 0
M  V30 2323 C 213.025 1.63133 -1.33981 0
M  V30 2324 O 212.373 2.22659 -0.513344 0
M  V30 2325 C 212.583 0.244811 -3.4814 0
M  V30 2326 C 213.931 0.46698 -4.22024 0
M  V30 2327 O 214.955 0.324419 -3.5472 0
M  V30 2328 O 213.814 0.74747 -5.41364 0
M  V30 2329 H 210.908 0.148223 -0.813609 0
M  V30 2330 H 213.454 -0.458848 -1.63379 0
M  V30 2331 H 212.226 -0.734378 -3.84347 0
M  V30 2332 H 211.849 0.980611 -3.85318 0
M  V30 2333 N 212.846 1.57033 -0.133567 0
M  V30 2334 C 213.809 2.14897 0.796995 0
M  V30 2335 C 214.809 1.0874 1.18458 0
M  V30 2336 O 215.999 1.34446 1.1077 0
M  V30 2337 C 213.131 2.70112 2.07973 0
M  V30 2338 H 214.324 2.98457 0.293873 0
M  V30 2339 H 211.877 1.55871 0.115787 0
M  V30 2340 H 212.612 1.9018 2.62682 0
M  V30 2341 H 212.397 3.47764 1.81115 0
M  V30 2342 H 213.887 3.14738 2.74462 0
M  V30 2343 N 214.325 -0.140222 1.56975 0
M  V30 2344 C 215.255 -1.17456 2.01808 0
M  V30 2345 C 216.236 -1.44415 0.898794 0
M  V30 2346 O 217.421 -1.5522 1.16707 0
M  V30 2347 C 214.551 -2.50607 2.40444 0
M  V30 2348 C 213.505 -2.38155 3.55621 0
M  V30 2349 C 212.831 -3.76078 3.80091 0
M  V30 2350 C 214.131 -1.85991 4.88062 0
M  V30 2351 H 215.825 -0.801743 2.88466 0
M  V30 2352 H 213.371 -0.38422 1.38779 0
M  V30 2353 H 215.324 -3.23197 2.7041 0
M  V30 2354 H 214.048 -2.89737 1.50732 0
M  V30 2355 H 212.707 -1.68016 3.25832 0
M  V30 2356 H 212.355 -4.12656 2.87618 0
M  V30 2357 H 212.055 -3.68606 4.57606 0
M  V30 2358 H 213.579 -4.50206 4.12488 0
M  V30 2359 H 214.993 -2.4838 5.16701 0
M  V30 2360 H 213.39 -1.89393 5.6943 0
M  V30 2361 H 214.46 -0.816023 4.77984 0
M  V30 2362 N 215.803 -1.52179 -0.40978 0
M  V30 2363 C 216.733 -1.78435 -1.5061 0
M  V30 2364 C 217.714 -0.635295 -1.57791 0
M  V30 2365 O 218.899 -0.880823 -1.73076 0
M  V30 2366 C 216.029 -1.93444 -2.88439 0
M  V30 2367 C 214.983 -3.09038 -2.96108 0
M  V30 2368 C 214.309 -3.09268 -4.36185 0
M  V30 2369 C 215.609 -4.48508 -2.67652 0
M  V30 2370 H 217.303 -2.70237 -1.28889 0
M  V30 2371 H 214.849 -1.30036 -0.618605 0
M  V30 2372 H 216.802 -2.10394 -3.65119 0
M  V30 2373 H 215.526 -0.983129 -3.11452 0
M  V30 2374 H 214.185 -2.91837 -2.21872 0
M  V30 2375 H 213.833 -2.11861 -4.56206 0
M  V30 2376 H 213.533 -3.86907 -4.42241 0
M  V30 2377 H 215.057 -3.28348 -5.14801 0
M  V30 2378 H 216.471 -4.65918 -3.34056 0
M  V30 2379 H 214.868 -5.28059 -2.85085 0
M  V30 2380 H 215.938 -4.56649 -1.63095 0
M  V30 2381 N 217.281 0.66697 -1.42791 0
M  V30 2382 C 218.231 1.77313 -1.43332 0
M  V30 2383 C 219.215 1.5801 -0.303586 0
M  V30 2384 O 220.407 1.68356 -0.546385 0
M  V30 2385 C 217.536 3.15822 -1.34578 0
M  V30 2386 C 216.622 3.40721 -2.52528 0
M  V30 2387 N 217.013 3.36162 -3.77927 0
M  V30 2388 C 215.311 3.71387 -2.46956 0
M  V30 2389 C 216.012 3.60762 -4.56318 0
M  V30 2390 N 214.988 3.81908 -3.86843 0
M  V30 2391 H 218.79 1.72193 -2.38174 0
M  V30 2392 H 216.304 0.868114 -1.3725 0
M  V30 2393 H 218.301 3.951 -1.33048 0
M  V30 2394 H 216.961 3.22133 -0.407453 0
M  V30 2395 H 217.972 3.15885 -4.10411 0
M  V30 2396 H 214.649 3.84897 -1.61743 0
M  V30 2397 H 216.039 3.63132 -5.65318 0
M  V30 2398 N 218.759 1.29093 0.90403 0
M  V30 2399 C 219.669 1.15727 2.0407 0
M  V30 2400 C 220.685 0.0815308 1.73809 0
M  V30 2401 O 221.861 0.292749 1.99261 0
M  V30 2402 C 218.926 0.830424 3.36608 0
M  V30 2403 C 217.987 1.98955 3.80415 0
M  V30 2404 C 217.22 1.6782 5.06628 0
M  V30 2405 O 217.443 0.597105 5.67266 0
M  V30 2406 O 216.377 2.52486 5.46383 0
M  V30 2407 H 220.203 2.11171 2.18267 0
M  V30 2408 H 217.788 1.08504 1.027 0
M  V30 2409 H 219.67 0.662521 4.16159 0
M  V30 2410 H 218.345 -0.0942678 3.23563 0
M  V30 2411 H 217.252 2.21267 3.01648 0
M  V30 2412 H 218.585 2.89529 3.98037 0
M  V30 2413 N 220.237 -1.11381 1.11499 0
M  V30 2414 C 221.187 -2.15555 0.74298 0
M  V30 2415 C 222.171 -1.58894 -0.253276 0
M  V30 2416 O 223.363 -1.76897 -0.0602918 0
M  V30 2417 C 220.492 -3.42782 0.188481 0
M  V30 2418 C 219.578 -4.064 1.21244 0
M  V30 2419 N 219.969 -4.44864 2.40685 0
M  V30 2420 C 218.267 -4.3333 1.05552 0
M  V30 2421 C 218.968 -4.94715 3.05994 0
M  V30 2422 N 217.944 -4.90909 2.33472 0
M  V30 2423 H 221.746 -2.43074 1.65203 0
M  V30 2424 H 219.26 -1.28401 0.994329 0
M  V30 2425 H 221.257 -4.16789 -0.0961693 0
M  V30 2426 H 219.917 -3.16727 -0.715149 0
M  V30 2427 H 220.928 -4.36876 2.78136 0
M  V30 2428 H 217.605 -4.1698 0.208372 0
M  V30 2429 H 218.995 -5.34103 4.07656 0
M  V30 2430 N 221.715 -0.905404 -1.28997 0
M  V30 2431 C 222.945 -0.549049 -1.99171 0
M  V30 2432 C 223.353 0.87203 -1.67906 0
M  V30 2433 O 222.696 1.58796 -0.923561 0
M  V30 2434 C 222.758 -0.668306 -3.53234 0
M  V30 2435 C 222.422 -2.0574 -4.08069 0
M  V30 2436 C 223.419 -3.0292 -4.22534 0
M  V30 2437 C 221.104 -2.36833 -4.42962 0
M  V30 2438 C 223.098 -4.29314 -4.71135 0
M  V30 2439 C 220.785 -3.63467 -4.91258 0
M  V30 2440 C 221.783 -4.59522 -5.053 0
M  V30 2441 O 221.471 -5.83907 -5.52546 0
M  V30 2442 H 221.203 -0.208784 -0.64295 0
M  V30 2443 H 223.757 -1.21836 -1.65363 0
M  V30 2444 H 221.987 0.0580547 -3.86656 0
M  V30 2445 H 223.676 -0.320273 -4.04634 0
M  V30 2446 H 224.442 -2.80216 -3.95859 0
M  V30 2447 H 220.321 -1.62824 -4.31288 0
M  V30 2448 H 223.865 -5.04293 -4.8201 0
M  V30 2449 H 219.762 -3.86 -5.17372 0
M  V30 2450 H 220.53 -5.86578 -5.70849 0
M  V30 2451 N 223.193 1.4272 -0.668489 0
M  V30 2452 C 224.439 2.01923 -0.188419 0
M  V30 2453 C 224.772 1.52704 1.19979 0
M  V30 2454 O 224.047 0.726566 1.8042 0
M  V30 2455 C 224.33 3.59451 -0.216085 0
M  V30 2456 C 224.183 4.18864 -1.6393 0
M  V30 2457 C 225.502 4.37903 0.439179 0
M  V30 2458 H 222.621 0.733674 -0.0699412 0
M  V30 2459 H 225.263 1.69822 -0.852076 0
M  V30 2460 H 223.413 3.86929 0.349012 0
M  V30 2461 H 225.085 4.02362 -2.25616 0
M  V30 2462 H 223.328 3.74933 -2.18193 0
M  V30 2463 H 223.999 5.27987 -1.61039 0
M  V30 2464 H 226.475 4.16079 -0.0417878 0
M  V30 2465 H 225.351 5.47519 0.389157 0
M  V30 2466 H 225.612 4.15303 1.51577 0
M  V30 2467 N 224.671 0.411399 1.52136 0
M  V30 2468 C 225.901 -0.16284 2.05957 0
M  V30 2469 C 226.309 -1.3922 1.28119 0
M  V30 2470 O 225.652 -1.80768 0.326881 0
M  V30 2471 C 225.714 -0.575946 3.54856 0
M  V30 2472 C 225.378 0.542998 4.53763 0
M  V30 2473 C 226.375 1.40726 5.00492 0
M  V30 2474 C 224.06 0.716337 4.97166 0
M  V30 2475 C 226.054 2.4298 5.8927 0
M  V30 2476 C 223.741 1.74218 5.8574 0
M  V30 2477 C 224.739 2.59731 6.31687 0
M  V30 2478 O 224.427 3.60558 7.18507 0
M  V30 2479 H 224.159 -0.0229125 0.675612 0
M  V30 2480 H 226.713 0.581634 1.96993 0
M  V30 2481 H 224.943 -1.37274 3.61515 0
M  V30 2482 H 226.632 -1.07836 3.91313 0
M  V30 2483 H 227.398 1.28476 4.67674 0
M  V30 2484 H 223.277 0.0603857 4.6096 0
M  V30 2485 H 226.821 3.0976 6.25055 0
M  V30 2486 H 222.718 1.86498 6.17971 0
M  V30 2487 H 223.486 3.56829 7.36624 0
M  V30 2488 N 226.149 -1.5696 0.141893 0
M  V30 2489 C 227.112 -2.15316 -0.785587 0
M  V30 2490 C 228.112 -1.09366 -1.1788 0
M  V30 2491 O 229.302 -1.35031 -1.10056 0
M  V30 2492 C 226.434 -2.71211 -2.06537 0
M  V30 2493 H 227.627 -2.98608 -0.278041 0
M  V30 2494 H 225.18 -1.5593 -0.107519 0
M  V30 2495 H 225.915 -1.91571 -2.6167 0
M  V30 2496 H 225.7 -3.4872 -1.79268 0
M  V30 2497 H 227.19 -3.16189 -2.72789 0
M  V30 2498 N 227.627 0.131896 -1.57047 0
M  V30 2499 C 228.574 1.16236 -1.99393 0
M  V30 2500 C 229.544 1.41863 -0.863943 0
M  V30 2501 O 230.729 1.53946 -1.12718 0
M  V30 2502 C 227.869 2.48708 -2.39245 0
M  V30 2503 C 226.982 2.30127 -3.65603 0
M  V30 2504 C 226.117 3.55738 -3.94492 0
M  V30 2505 C 225.156 3.32259 -5.14073 0
M  V30 2506 N 224.293 4.50039 -5.38896 0
M  V30 2507 H 229.133 0.794251 -2.87221 0
M  V30 2508 H 226.67 0.380707 -1.42088 0
M  V30 2509 H 228.628 3.25969 -2.60384 0
M  V30 2510 H 227.258 2.83437 -1.54478 0
M  V30 2511 H 226.31 1.43845 -3.52154 0
M  V30 2512 H 227.622 2.08746 -4.5302 0
M  V30 2513 H 226.776 4.41423 -4.1621 0
M  V30 2514 H 225.515 3.80138 -3.05526 0
M  V30 2515 H 224.52 2.44963 -4.92212 0
M  V30 2516 H 225.745 3.09242 -6.04604 0
M  V30 2517 H 223.691 4.74584 -4.52886 0
M  V30 2518 H 223.608 4.31716 -6.2061 0
M  V30 2519 H 224.876 5.36895 -5.65123 0
M  V30 2520 N 229.106 1.52395 0.401703 0
M  V30 2521 C 230.016 1.7917 1.51444 0
M  V30 2522 C 231.032 0.677691 1.6026 0
M  V30 2523 O 232.208 0.963909 1.76835 0
M  V30 2524 C 229.273 1.94347 2.87107 0
M  V30 2525 C 228.334 3.18257 2.88116 0
M  V30 2526 C 227.567 3.32701 4.17308 0
M  V30 2527 O 227.79 2.52238 5.11598 0
M  V30 2528 O 226.724 4.25891 4.25324 0
M  V30 2529 H 230.55 2.73633 1.31752 0
M  V30 2530 H 228.135 1.3733 0.588296 0
M  V30 2531 H 230.017 2.06109 3.67555 0
M  V30 2532 H 228.692 1.03073 3.06851 0
M  V30 2533 H 227.599 3.11947 2.06494 0
M  V30 2534 H 228.932 4.09336 2.73322 0
M  V30 2535 N 230.584 -0.659388 1.43143 0
M  V30 2536 C 231.832 -1.41654 1.44147 0
M  V30 2537 C 232.153 -1.94893 0.0645739 0
M  V30 2538 O 231.423 -1.74044 -0.899198 0
M  V30 2539 H 230.003 -0.525708 0.530697 0
M  V30 2540 H 232.665 -0.778097 1.78694 0
M  V30 2541 H 231.761 -2.26195 2.1504 0
M  V30 2542 N 232.062 -1.29571 -0.897171 0
M  V30 2543 C 233.292 -1.20408 -1.67886 0
M  V30 2544 C 233.7 0.237429 -1.87704 0
M  V30 2545 O 233.043 1.17048 -1.41582 0
M  V30 2546 C 233.105 -1.84887 -3.08314 0
M  V30 2547 C 232.769 -3.34189 -3.11716 0
M  V30 2548 C 233.766 -4.30374 -2.91675 0
M  V30 2549 C 231.451 -3.75431 -3.33701 0
M  V30 2550 C 233.445 -5.65776 -2.93557 0
M  V30 2551 C 231.132 -5.10955 -3.35214 0
M  V30 2552 C 232.13 -6.05938 -3.15164 0
M  V30 2553 O 231.818 -7.38987 -3.1647 0
M  V30 2554 H 231.55 -0.418289 -0.531046 0
M  V30 2555 H 234.104 -1.71514 -1.13014 0
M  V30 2556 H 232.334 -1.28295 -3.64798 0
M  V30 2557 H 234.023 -1.70011 -3.6858 0
M  V30 2558 H 234.789 -3.99844 -2.74499 0
M  V30 2559 H 230.668 -3.01953 -3.48347 0
M  V30 2560 H 234.212 -6.39889 -2.77826 0
M  V30 2561 H 230.109 -5.4113 -3.51922 0
M  V30 2562 H 230.877 -7.47823 -3.3272 0
M  V30 2563 N 233.54 1.10788 -1.12088 0
M  V30 2564 C 234.45 2.20599 -0.798338 0
M  V30 2565 C 235.466 1.72712 0.21135 0
M  V30 2566 O 236.642 2.01348 0.0458477 0
M  V30 2567 C 233.707 3.45771 -0.253674 0
M  V30 2568 C 232.768 4.08411 -1.32283 0
M  V30 2569 C 232.001 5.27608 -0.80406 0
M  V30 2570 O 232.224 5.69241 0.363478 0
M  V30 2571 O 231.158 5.8101 -1.57198 0
M  V30 2572 H 234.984 2.50614 -1.7154 0
M  V30 2573 H 232.569 1.19454 -0.897275 0
M  V30 2574 H 234.451 4.21376 0.0453691 0
M  V30 2575 H 233.126 3.1739 0.636005 0
M  V30 2576 H 232.033 3.34507 -1.67499 0
M  V30 2577 H 233.366 4.40986 -2.18614 0
M  V30 2578 N 235.018 0.912232 1.28515 0
M  V30 2579 C 236.429 0.591352 1.77087 0
M  V30 2580 C 236.78 -0.8933 1.74684 0
M  V30 2581 O 235.905 -1.69876 1.34056 0
M  V30 2582 C 236.5 1.06668 3.2157 0
M  V30 2583 C 235.059 0.79675 3.67871 0
M  V30 2584 C 234.206 1.23427 2.48316 0
M  V30 2585 H 237.157 1.09365 1.15 0
M  V30 2586 H 237.178 0.407455 3.78312 0
M  V30 2587 H 236.69 2.14726 3.23287 0
M  V30 2588 H 234.791 -0.270679 3.71616 0
M  V30 2589 H 234.904 1.40343 4.58084 0
M  V30 2590 H 233.268 0.653036 2.46186 0
M  V30 2591 H 234.051 2.32316 2.52753 0
M  V30 2592 N 236.496 -1.42363 0.676048 0
M  V30 2593 C 237.742 -2.0182 0.199125 0
M  V30 2594 C 238.075 -1.53339 -1.19168 0
M  V30 2595 O 237.35 -0.736124 -1.80032 0
M  V30 2596 C 237.633 -3.59331 0.235144 0
M  V30 2597 C 237.486 -4.17989 1.66149 0
M  V30 2598 C 238.805 -4.3813 -0.41595 0
M  V30 2599 H 235.924 -0.733293 0.0738311 0
M  V30 2600 H 238.566 -1.69368 0.86107 0
M  V30 2601 H 236.716 -3.87109 -0.328487 0
M  V30 2602 H 238.388 -4.0116 2.27747 0
M  V30 2603 H 236.631 -3.7377 2.20178 0
M  V30 2604 H 237.302 -5.27126 1.63837 0
M  V30 2605 H 239.778 -4.16051 0.0638529 0
M  V30 2606 H 238.654 -5.47717 -0.360115 0
M  V30 2607 H 238.915 -4.16101 -1.49373 0
M  V30 2608 N 237.974 -0.419461 -1.51915 0
M  V30 2609 C 238.904 0.391813 -2.30189 0
M  V30 2610 C 239.885 1.03699 -1.34836 0
M  V30 2611 O 241.07 1.04403 -1.63748 0
M  V30 2612 C 238.2 1.50312 -3.13087 0
M  V30 2613 C 237.154 0.9824 -4.16573 0
M  V30 2614 C 236.48 2.18809 -4.8788 0
M  V30 2615 C 237.78 0.0292356 -5.22292 0
M  V30 2616 H 239.474 -0.26135 -2.98257 0
M  V30 2617 H 237.02 -0.127134 -1.43438 0
M  V30 2618 H 238.973 2.07773 -3.66617 0
M  V30 2619 H 237.697 2.18431 -2.42807 0
M  V30 2620 H 236.356 0.430119 -3.64068 0
M  V30 2621 H 236.004 2.85507 -4.14119 0
M  V30 2622 H 235.704 1.84615 -5.57845 0
M  V30 2623 H 237.228 2.76858 -5.44226 0
M  V30 2624 H 238.642 0.512976 -5.71 0
M  V30 2625 H 237.039 -0.2244 -5.9968 0
M  V30 2626 H 238.109 -0.912931 -4.76228 0
M  V30 2627 N 239.452 1.56882 -0.150215 0
M  V30 2628 C 240.698 1.96518 0.500834 0
M  V30 2629 C 241.031 1.03527 1.64304 0
M  V30 2630 O 240.306 0.0782751 1.94342 0
M  V30 2631 C 240.589 3.45822 1.00395 0
M  V30 2632 C 240.442 4.49591 -0.136983 0
M  V30 2633 C 241.761 3.97704 1.88467 0
M  V30 2634 H 238.88 0.714535 0.18058 0
M  V30 2635 H 241.522 1.88577 -0.232091 0
M  V30 2636 H 239.672 3.5272 1.62851 0
M  V30 2637 H 241.344 4.5477 -0.77343 0
M  V30 2638 H 239.587 4.26441 -0.795652 0
M  V30 2639 H 240.258 5.51402 0.256815 0
M  V30 2640 H 242.734 3.93304 1.35834 0
M  V30 2641 H 241.61 5.0263 2.20578 0
M  V30 2642 H 241.871 3.40252 2.82279 0
M  V30 2643 N 240.93 -0.123565 1.57115 0
M  V30 2644 C 242.179 -0.830704 1.83799 0
M  V30 2645 C 242.492 -1.81259 0.735158 0
M  V30 2646 O 243.698 -2.56558 0.888278 0
M  V30 2647 C 242.154 -1.52802 3.25852 0
M  V30 2648 C 241.762 -0.587356 4.44133 0
M  V30 2649 C 243.506 -2.22056 3.61789 0
M  V30 2650 C 241.413 -1.28764 5.77212 0
M  V30 2651 H 240.343 -0.313967 0.685522 0
M  V30 2652 H 242.994 -0.0834359 1.8331 0
M  V30 2653 H 241.376 -2.32175 3.20797 0
M  V30 2654 H 242.55 0.172829 4.60476 0
M  V30 2655 H 240.865 -0.00201892 4.164 0
M  V30 2656 H 243.462 -2.75131 4.58483 0
M  V30 2657 H 243.805 -2.99644 2.88997 0
M  V30 2658 H 244.338 -1.49576 3.68608 0
M  V30 2659 H 241.077 -0.55314 6.53162 0
M  V30 2660 H 240.597 -2.01995 5.64764 0
M  V30 2661 H 242.276 -1.8221 6.20813 0
M  V30 2662 N 242.408 -1.52605 -0.393616 0
M  V30 2663 C 243.34 -1.73303 -1.49995 0
M  V30 2664 C 244.353 -0.613473 -1.50799 0
M  V30 2665 O 245.542 -0.889049 -1.54784 0
M  V30 2666 C 242.642 -1.77245 -2.88855 0
M  V30 2667 C 241.815 -3.06483 -3.12069 0
M  V30 2668 C 240.874 -3.02033 -4.30886 0
M  V30 2669 O 239.9 -3.75907 -4.27414 0
M  V30 2670 N 241.102 -2.20897 -5.36828 0
M  V30 2671 H 243.867 -2.68756 -1.32629 0
M  V30 2672 H 241.428 -1.51036 -0.583083 0
M  V30 2673 H 243.42 -1.7178 -3.66434 0
M  V30 2674 H 241.99 -0.891993 -2.99603 0
M  V30 2675 H 241.21 -3.25474 -2.22396 0
M  V30 2676 H 242.498 -3.91947 -3.2443 0
M  V30 2677 H 241.896 -1.60336 -5.42502 0
M  V30 2678 H 240.453 -2.21275 -6.13091 0
M  V30 2679 N 243.887 0.651787 -1.4349 0
M  V30 2680 C 245.112 1.44434 -1.48841 0
M  V30 2681 C 245.537 1.8779 -0.107955 0
M  V30 2682 O 244.895 1.57464 0.898602 0
M  V30 2683 C 244.943 2.65458 -2.44059 0
M  V30 2684 O 244.047 3.64566 -1.92784 0
M  V30 2685 H 243.388 0.433005 -0.503391 0
M  V30 2686 H 245.918 0.797451 -1.88419 0
M  V30 2687 H 245.928 3.13255 -2.6141 0
M  V30 2688 H 244.603 2.33244 -3.4434 0
M  V30 2689 H 243.18 3.23716 -1.851 0
M  V30 2690 N 245.365 1.30045 0.890287 0
M  V30 2691 C 246.59 1.21598 1.68014 0
M  V30 2692 C 247.015 -0.218678 1.86825 0
M  V30 2693 O 246.373 -1.15756 1.39536 0
M  V30 2694 C 246.421 1.94434 3.03691 0
M  V30 2695 O 245.525 1.2678 3.92429 0
M  V30 2696 H 244.866 0.420856 0.513592 0
M  V30 2697 H 247.396 1.71775 1.11151 0
M  V30 2698 H 247.406 2.03251 3.5377 0
M  V30 2699 H 246.081 2.98777 2.89318 0
M  V30 2700 H 244.658 1.26282 3.50866 0
M  V30 2701 N 246.843 -1.10192 1.12674 0
M  V30 2702 C 247.753 -2.20172 0.810026 0
M  V30 2703 C 248.769 -1.72821 -0.202188 0
M  V30 2704 O 249.945 -2.01369 -0.0351691 0
M  V30 2705 C 247.01 -3.45631 0.272007 0
M  V30 2706 C 246.071 -4.07704 1.34447 0
M  V30 2707 C 245.304 -5.27175 0.832029 0
M  V30 2708 O 245.527 -5.69425 -0.333284 0
M  V30 2709 O 244.461 -5.80168 1.60277 0
M  V30 2710 H 248.287 -2.49701 1.72867 0
M  V30 2711 H 245.872 -1.18977 0.903597 0
M  V30 2712 H 247.754 -4.21394 -0.0230219 0
M  V30 2713 H 246.429 -3.17723 -0.619164 0
M  V30 2714 H 245.336 -3.33614 1.6927 0
M  V30 2715 H 246.669 -4.3982 2.2095 0
M  V30 2716 N 248.321 -0.919034 -1.28029 0
M  V30 2717 C 249.598 -0.473668 -1.89778 0
M  V30 2718 C 249.978 1.04783 -1.83259 0
M  V30 2719 O 249.326 1.8982 -1.27202 0
M  V30 2720 C 249.536 -1.00998 -3.34066 0
M  V30 2721 C 250.884 -1.06525 -4.1102 0
M  V30 2722 O 251.908 -0.958996 -3.43048 0
M  V30 2723 O 250.767 -1.22776 -5.3253 0
M  V30 2724 H 247.861 -0.15098 -0.813101 0
M  V30 2725 H 250.407 -1.01016 -1.36359 0
M  V30 2726 H 249.179 -2.05392 -3.33061 0
M  V30 2727 H 248.802 -0.454626 -3.94992 0
M  V30 2728 N 249.799 1.42003 -0.683588 0
M  V30 2729 C 251.029 2.05448 -0.217866 0
M  V30 2730 C 251.437 1.51491 1.13346 0
M  V30 2731 O 250.78 0.653048 1.717 0
M  V30 2732 C 250.842 3.59399 -0.0850118 0
M  V30 2733 C 250.506 4.36093 -1.36645 0
M  V30 2734 C 251.503 4.66169 -2.30179 0
M  V30 2735 C 249.188 4.75578 -1.61649 0
M  V30 2736 C 251.182 5.34676 -3.46988 0
M  V30 2737 C 248.869 5.43824 -2.78745 0
M  V30 2738 C 249.867 5.73299 -3.71238 0
M  V30 2739 O 249.555 6.40142 -4.86285 0
M  V30 2740 H 249.287 0.668344 -0.101454 0
M  V30 2741 H 251.841 1.82974 -0.933248 0
M  V30 2742 H 250.071 3.80566 0.686031 0
M  V30 2743 H 251.76 4.04457 0.341973 0
M  V30 2744 H 252.526 4.36156 -2.12115 0
M  V30 2745 H 248.405 4.52025 -0.905243 0
M  V30 2746 H 251.949 5.57599 -4.19201 0
M  V30 2747 H 247.846 5.73254 -2.96732 0
M  V30 2748 H 248.614 6.58636 -4.85944 0
M  V30 2749 N 251.277 0.427512 1.51691 0
M  V30 2750 C 252.523 -0.142439 2.02299 0
M  V30 2751 C 252.856 -1.43214 1.31162 0
M  V30 2752 O 252.131 -1.89833 0.423511 0
M  V30 2753 C 252.414 -0.371301 3.58181 0
M  V30 2754 C 252.267 0.936358 4.39946 0
M  V30 2755 C 253.586 -1.14542 4.24933 0
M  V30 2756 H 250.705 -0.0502937 0.735282 0
M  V30 2757 H 253.347 0.564584 1.81418 0
M  V30 2758 H 251.497 -0.973559 3.76104 0
M  V30 2759 H 253.169 1.57184 4.33694 0
M  V30 2760 H 251.412 1.5432 4.05423 0
M  V30 2761 H 252.083 0.730388 5.47147 0
M  V30 2762 H 254.559 -0.635362 4.11221 0
M  V30 2763 H 253.435 -1.27431 5.33903 0
M  V30 2764 H 253.696 -2.17093 3.85127 0
M  V30 2765 N 252.755 -1.56801 0.158532 0
M  V30 2766 C 253.665 -2.20916 -0.789518 0
M  V30 2767 C 254.681 -1.1969 -1.26294 0
M  V30 2768 O 255.857 -1.52308 -1.31773 0
M  V30 2769 C 252.922 -2.82727 -2.00665 0
M  V30 2770 C 251.983 -3.99114 -1.58134 0
M  V30 2771 C 251.216 -4.57968 -2.74045 0
M  V30 2772 O 251.439 -4.15704 -3.90572 0
M  V30 2773 O 250.373 -5.48047 -2.48855 0
M  V30 2774 H 254.199 -3.02464 -0.273681 0
M  V30 2775 H 251.784 -1.4924 -0.0690548 0
M  V30 2776 H 253.666 -3.21968 -2.71872 0
M  V30 2777 H 252.341 -2.04184 -2.51179 0
M  V30 2778 H 251.248 -3.64567 -0.839155 0
M  V30 2779 H 252.581 -4.79212 -1.12325 0
M  V30 2780 N 254.233 0.115231 -1.57178 0
M  V30 2781 C 255.181 1.16014 -2.01602 0
M  V30 2782 C 256.175 1.42653 -0.913587 0
M  V30 2783 O 257.381 1.42571 -1.09879 0
M  V30 2784 H 253.756 0.391252 -0.642204 0
M  V30 2785 H 255.727 0.758998 -2.88586 0
M  V30 2786 C 254.476 2.47767 -2.4394 0
M  V30 2787 H 253.799 2.28108 -3.28339 0
M  V30 2788 H 255.239 3.19432 -2.78818 0
M  V30 2789 C 253.698 3.10617 -1.30455 0
M  V30 2790 O 254.228 3.96846 -0.622585 0
M  V30 2791 N 252.434 2.70553 -1.06064 0
M  V30 2792 H 251.981 2.00527 -1.61699 0
M  V30 2793 H 251.939 3.12934 -0.303284 0
M  V30 2794 N 255.711 1.52812 0.385517 0
M  V30 2795 C 256.939 1.71907 1.15133 0
M  V30 2796 C 257.354 0.439004 1.83625 0
M  V30 2797 O 256.711 -0.586765 1.7281 0
M  V30 2798 C 256.762 2.87099 2.19673 0
M  V30 2799 O 256.483 4.10151 1.53973 0
M  V30 2800 C 257.984 3.17902 3.08955 0
M  V30 2801 H 255.204 0.575479 0.345057 0
M  V30 2802 H 257.748 1.99476 0.45052 0
M  V30 2803 H 255.903 2.61982 2.85384 0
M  V30 2804 H 256.317 4.74514 2.23465 0
M  V30 2805 H 257.791 4.01959 3.7833 0
M  V30 2806 H 258.268 2.3243 3.72657 0
M  V30 2807 H 258.874 3.44871 2.48885 0
M  V30 2808 N 257.189 -0.644168 1.43834 0
M  V30 2809 C 258.099 -1.78563 1.52159 0
M  V30 2810 C 259.115 -1.69147 0.408069 0
M  V30 2811 O 260.291 -1.90156 0.663524 0
M  V30 2812 C 257.356 -3.14888 1.45073 0
M  V30 2813 C 256.417 -3.36034 2.6717 0
M  V30 2814 C 255.65 -4.65855 2.60413 0
M  V30 2815 O 255.873 -5.45805 1.65689 0
M  V30 2816 O 254.807 -4.88918 3.5106 0
M  V30 2817 H 258.633 -1.74494 2.48567 0
M  V30 2818 H 256.218 -0.80378 1.25935 0
M  V30 2819 H 258.1 -3.96179 1.43597 0
M  V30 2820 H 256.775 -3.19528 0.518037 0
M  V30 2821 H 255.682 -2.54472 2.74217 0
M  V30 2822 H 257.015 -3.36247 3.59442 0
M  V30 2823 N 258.668 -1.30515 -0.883378 0
M  V30 2824 C 259.615 -1.17032 -1.98927 0
M  V30 2825 C 260.585 -0.0594241 -1.65994 0
M  V30 2826 O 261.77 -0.229895 -1.8941 0
M  V30 2827 C 258.91 -0.869777 -3.33959 0
M  V30 2828 C 258.023 -2.06271 -3.79574 0
M  V30 2829 C 257.158 -1.70011 -5.03259 0
M  V30 2830 C 256.197 -2.8579 -5.41286 0
M  V30 2831 N 255.334 -2.49816 -6.56153 0
M  V30 2832 H 260.174 -2.1164 -2.09792 0
M  V30 2833 H 257.711 -1.05296 -1.02719 0
M  V30 2834 H 259.669 -0.676138 -4.11685 0
M  V30 2835 H 258.299 0.0394332 -3.22776 0
M  V30 2836 H 257.351 -2.36755 -2.97744 0
M  V30 2837 H 258.663 -2.92971 -4.03694 0
M  V30 2838 H 257.817 -1.47032 -5.88614 0
M  V30 2839 H 256.556 -0.804829 -4.81013 0
M  V30 2840 H 255.561 -3.09434 -4.54456 0
M  V30 2841 H 256.786 -3.76008 -5.65504 0
M  V30 2842 H 254.732 -1.62795 -6.35479 0
M  V30 2843 H 254.649 -3.30048 -6.8015 0
M  V30 2844 H 255.917 -2.30197 -7.44735 0
M  V30 2845 N 260.146 1.09593 -1.13257 0
M  V30 2846 C 261.109 2.14359 -0.811358 0
M  V30 2847 C 262.109 1.59808 0.178377 0
M  V30 2848 O 263.299 1.74132 -0.0484911 0
M  V30 2849 C 260.431 3.40269 -0.207276 0
M  V30 2850 H 261.624 2.44284 -1.73969 0
M  V30 2851 H 259.177 1.25102 -0.936973 0
M  V30 2852 H 259.912 3.15969 0.73036 0
M  V30 2853 H 259.697 3.81154 -0.919992 0
M  V30 2854 H 261.187 4.176 0.000667944 0
M  V30 2855 N 261.624 0.925811 1.2754 0
M  V30 2856 C 262.554 0.440748 2.29303 0
M  V30 2857 C 263.535 -0.497971 1.62648 0
M  V30 2858 O 264.72 -0.403126 1.8997 0
M  V30 2859 C 261.85 -0.309048 3.45922 0
M  V30 2860 C 260.804 0.54166 4.24559 0
M  V30 2861 C 260.13 -0.337191 5.33636 0
M  V30 2862 C 261.43 1.80516 4.90114 0
M  V30 2863 H 263.124 1.29121 2.70126 0
M  V30 2864 H 260.67 0.622323 1.29858 0
M  V30 2865 H 262.623 -0.659315 4.1621 0
M  V30 2866 H 261.347 -1.19352 3.04011 0
M  V30 2867 H 260.006 0.874609 3.56014 0
M  V30 2868 H 259.654 -1.22056 4.87966 0
M  V30 2869 H 259.354 0.228497 5.87156 0
M  V30 2870 H 260.878 -0.683072 6.06767 0
M  V30 2871 H 262.292 1.52307 5.52698 0
M  V30 2872 H 260.689 2.3142 5.53683 0
M  V30 2873 H 261.759 2.52581 4.13921 0
M  V30 2874 N 263.102 -1.41638 0.69111 0
M  V30 2875 C 264.05 -2.32597 0.0115199 0
M  V30 2876 C 265.044 -1.5072 -0.773296 0
M  V30 2877 O 266.25 -1.66685 -0.67942 0
M  V30 2878 H 262.625 -0.751849 -0.0150746 0
M  V30 2879 H 264.596 -2.87593 0.795791 0
M  V30 2880 C 263.345 -3.35467 -0.914172 0
M  V30 2881 H 262.668 -3.9852 -0.319687 0
M  V30 2882 H 264.108 -4.01662 -1.35808 0
M  V30 2883 C 262.567 -2.69004 -2.02826 0
M  V30 2884 O 263.097 -2.53444 -3.11655 0
M  V30 2885 N 261.303 -2.2777 -1.80469 0
M  V30 2886 H 260.85 -2.40626 -0.919615 0
M  V30 2887 H 260.808 -1.83635 -2.55197 0
M  V30 2888 N 264.58 -0.43555 -1.51462 0
M  V30 2889 C 265.826 0.131709 -2.02372 0
M  V30 2890 C 266.159 1.42516 -1.3192 0
M  V30 2891 O 265.434 1.89606 -0.433573 0
M  V30 2892 C 265.717 0.352301 -3.58373 0
M  V30 2893 C 265.57 -0.959676 -4.39443 0
M  V30 2894 C 266.889 1.12286 -4.25535 0
M  V30 2895 H 264.008 0.0463936 -0.735538 0
M  V30 2896 H 266.65 -0.574197 -1.81116 0
M  V30 2897 H 264.8 0.9536 -3.76615 0
M  V30 2898 H 266.472 -1.59482 -4.32855 0
M  V30 2899 H 264.715 -1.56468 -4.04599 0
M  V30 2900 H 265.386 -0.759394 -5.46752 0
M  V30 2901 H 267.862 0.613545 -4.11552 0
M  V30 2902 H 266.738 1.24598 -5.34571 0
M  V30 2903 H 266.999 2.15048 -3.86273 0
M  V30 2904 N 266.058 1.56714 -0.166846 0
M  V30 2905 C 267.288 2.00828 0.48494 0
M  V30 2906 C 267.696 1.04612 1.57648 0
M  V30 2907 O 267.039 0.0383201 1.8366 0
M  V30 2908 C 267.101 3.4137 1.12723 0
M  V30 2909 C 266.765 4.56654 0.177886 0
M  V30 2910 C 267.762 5.16402 -0.60207 0
M  V30 2911 C 265.447 5.02244 0.0750139 0
M  V30 2912 C 267.441 6.20167 -1.47215 0
M  V30 2913 C 265.128 6.05859 -0.798649 0
M  V30 2914 C 266.126 6.64691 -1.57082 0
M  V30 2915 O 265.814 7.66297 -2.42989 0
M  V30 2916 H 265.546 0.663587 0.128953 0
M  V30 2917 H 268.1 2.03692 -0.264365 0
M  V30 2918 H 266.33 3.35406 1.92457 0
M  V30 2919 H 268.019 3.69466 1.68076 0
M  V30 2920 H 268.785 4.82065 -0.53274 0
M  V30 2921 H 264.664 4.56167 0.665812 0
M  V30 2922 H 268.208 6.66016 -2.07531 0
M  V30 2923 H 264.105 6.39621 -0.869199 0
M  V30 2924 H 264.873 7.83601 -2.36455 0
M  V30 2925 N 267.536 -0.106894 1.57237 0
M  V30 2926 C 268.766 -0.825191 1.89405 0
M  V30 2927 C 269.174 -1.73374 0.757496 0
M  V30 2928 O 268.517 -1.81552 -0.280115 0
M  V30 2929 C 268.579 -1.70102 3.1671 0
M  V30 2930 C 268.243 -0.965523 4.46684 0
M  V30 2931 C 269.24 -0.300741 5.19029 0
M  V30 2932 C 266.925 -0.943105 4.93367 0
M  V30 2933 C 268.919 0.376622 6.36286 0
M  V30 2934 C 266.606 -0.261949 6.10538 0
M  V30 2935 C 267.604 0.396748 6.81847 0
M  V30 2936 O 267.292 1.06701 7.96787 0
M  V30 2937 H 267.024 -0.241852 0.631255 0
M  V30 2938 H 269.578 -0.0921491 2.05193 0
M  V30 2939 H 267.808 -2.47601 2.97036 0
M  V30 2940 H 269.497 -2.29483 3.34802 0
M  V30 2941 H 270.263 -0.309599 4.84011 0
M  V30 2942 H 266.142 -1.44524 4.3776 0
M  V30 2943 H 269.686 0.891334 6.91882 0
M  V30 2944 H 265.583 -0.250896 6.45012 0
M  V30 2945 H 266.351 0.972707 8.127 0
M  V30 2946 N 269.014 -1.53014 -0.377408 0
M  V30 2947 C 269.924 -1.81557 -1.48574 0
M  V30 2948 C 270.94 -0.703102 -1.59162 0
M  V30 2949 O 272.116 -0.99192 -1.75279 0
M  V30 2950 C 269.181 -1.9889 -2.83978 0
M  V30 2951 C 268.242 -3.22801 -2.83016 0
M  V30 2952 C 267.475 -3.39298 -4.11962 0
M  V30 2953 O 267.698 -2.60345 -5.0752 0
M  V30 2954 O 266.632 -4.32604 -4.18494 0
M  V30 2955 H 270.458 -2.75695 -1.27382 0
M  V30 2956 H 268.043 -1.38248 -0.566373 0
M  V30 2957 H 269.925 -2.11931 -3.6423 0
M  V30 2958 H 268.6 -1.07942 -3.05172 0
M  V30 2959 H 267.507 -3.15193 -2.01505 0
M  V30 2960 H 268.84 -4.13632 -2.66775 0
M  V30 2961 N 270.492 0.636531 -1.44174 0
M  V30 2962 C 271.741 1.39213 -1.45954 0
M  V30 2963 C 272.054 1.95374 -0.0939119 0
M  V30 2964 O 273.26 2.71498 0.0107767 0
M  V30 2965 C 271.716 2.52025 -2.56927 0
M  V30 2966 C 271.324 2.024 -3.99673 0
M  V30 2967 C 273.068 3.29269 -2.67922 0
M  V30 2968 C 270.975 3.12521 -5.0208 0
M  V30 2969 H 269.905 0.523132 -0.542999 0
M  V30 2970 H 272.556 0.685349 -1.70221 0
M  V30 2971 H 270.938 3.25253 -2.25891 0
M  V30 2972 H 272.112 1.36073 -4.40251 0
M  V30 2973 H 270.427 1.37987 -3.92872 0
M  V30 2974 H 273.024 4.11352 -3.41605 0
M  V30 2975 H 273.367 3.78397 -1.73555 0
M  V30 2976 H 273.9 2.63129 -2.98342 0
M  V30 2977 H 270.639 2.68343 -5.98057 0
M  V30 2978 H 270.159 3.77507 -4.66099 0
M  V30 2979 H 271.838 3.77385 -5.25538 0
M  V30 2980 N 271.97 1.30982 0.876444 0
M  V30 2981 C 273.218 1.20058 1.62575 0
M  V30 2982 C 273.539 -0.242947 1.93481 0
M  V30 2983 O 272.809 -1.1619 1.57724 0
M  V30 2984 H 271.389 0.44135 0.602677 0
M  V30 2985 H 274.051 1.64222 1.04962 0
M  V30 2986 H 273.147 1.76762 2.57219 0
M  V30 2987 N 273.449 -1.08991 1.13837 0
M  V30 2988 C 274.396 -2.15748 0.819835 0
M  V30 2989 C 275.366 -1.64636 -0.220026 0
M  V30 2990 O 276.551 -1.90582 -0.0912757 0
M  V30 2991 C 273.691 -3.4382 0.296913 0
M  V30 2992 C 272.804 -4.0881 1.39636 0
M  V30 2993 C 271.939 -5.24655 0.831314 0
M  V30 2994 C 270.978 -5.81575 1.90886 0
M  V30 2995 N 270.115 -6.88774 1.36142 0
M  V30 2996 H 274.955 -2.42338 1.73426 0
M  V30 2997 H 272.492 -1.18935 0.865613 0
M  V30 2998 H 274.45 -4.17193 -0.0244339 0
M  V30 2999 H 273.08 -3.17535 -0.580628 0
M  V30 3000 H 272.132 -3.33258 1.83422 0
M  V30 3001 H 273.444 -4.47141 2.21058 0
M  V30 3002 H 272.598 -6.04942 0.461515 0
M  V30 3003 H 271.337 -4.87698 -0.013932 0
M  V30 3004 H 270.342 -4.99946 2.28767 0
M  V30 3005 H 271.567 -6.20592 2.75758 0
M  V30 3006 H 269.513 -6.53788 0.538254 0
M  V30 3007 H 269.43 -7.25898 2.11208 0
M  V30 3008 H 270.698 -7.72806 1.01933 0
M  V30 3009 N 274.927 -0.932562 -1.27047 0
M  V30 3010 C 276.176 -0.571351 -1.93439 0
M  V30 3011 C 276.489 0.892467 -1.74053 0
M  V30 3012 O 277.695 1.36267 -2.34826 0
M  V30 3013 C 276.151 -0.97106 -3.46552 0
M  V30 3014 C 275.759 -2.4559 -3.74686 0
M  V30 3015 C 277.503 -0.681333 -4.18997 0
M  V30 3016 C 275.41 -2.79475 -5.21198 0
M  V30 3017 H 274.34 -0.209966 -0.724176 0
M  V30 3018 H 276.991 -1.13403 -1.44263 0
M  V30 3019 H 275.373 -0.336983 -3.94564 0
M  V30 3020 H 276.547 -3.13829 -3.37414 0
M  V30 3021 H 274.862 -2.71802 -3.15456 0
M  V30 3022 H 277.459 -0.910939 -5.26883 0
M  V30 3023 H 277.802 0.381628 -4.14547 0
M  V30 3024 H 278.335 -1.27473 -3.76823 0
M  V30 3025 H 275.074 -3.847 -5.30741 0
M  V30 3026 H 274.594 -2.1589 -5.596 0
M  V30 3027 H 276.273 -2.67478 -5.89122 0
M  V30 3028 N 276.405 1.4127 -0.698611 0
M  V30 3029 C 277.335 2.33447 -0.049629 0
M  V30 3030 C 278.316 1.51982 0.763898 0
M  V30 3031 O 279.501 1.80509 0.716257 0
M  V30 3032 C 276.631 3.35828 0.885267 0
M  V30 3033 C 275.585 4.27627 0.178613 0
M  V30 3034 C 274.911 5.20406 1.22807 0
M  V30 3035 C 276.211 5.13459 -0.956933 0
M  V30 3036 H 277.905 2.87966 -0.81951 0
M  V30 3037 H 275.451 1.38461 -0.395538 0
M  V30 3038 H 277.404 3.9924 1.34854 0
M  V30 3039 H 276.128 2.79666 1.68685 0
M  V30 3040 H 274.787 3.65643 -0.26466 0
M  V30 3041 H 274.435 4.60558 2.02226 0
M  V30 3042 H 274.135 5.82661 0.760239 0
M  V30 3043 H 275.659 5.86695 1.69179 0
M  V30 3044 H 277.073 5.70421 -0.573805 0
M  V30 3045 H 275.47 5.8467 -1.35205 0
M  V30 3046 H 276.54 4.50443 -1.79524 0
M  V30 3047 N 277.883 0.443576 1.51229 0
M  V30 3048 C 279.108 -0.121648 2.07043 0
M  V30 3049 C 279.533 -1.35156 1.30823 0
M  V30 3050 O 278.891 -1.7793 0.347934 0
M  V30 3051 C 278.939 -0.41624 3.5819 0
M  V30 3052 O 278.043 -1.50163 3.8409 0
M  V30 3053 H 277.384 0.000871367 0.663999 0
M  V30 3054 H 279.914 0.626706 1.94765 0
M  V30 3055 H 279.924 -0.664867 4.02546 0
M  V30 3056 H 278.599 0.482653 4.1309 0
M  V30 3057 H 277.176 -1.24248 3.51592 0
M  V30 3058 N 279.361 -1.56624 0.175154 0
M  V30 3059 C 280.777 -1.58571 -0.180966 0
M  V30 3060 C 280.977 -1.19065 -1.6256 0
M  V30 3061 O 280.033 -0.904044 -2.35761 0
M  V30 3062 C 281.346 -3.00522 0.103326 0
M  V30 3063 C 282.894 -3.12972 0.0418426 0
M  V30 3064 C 283.369 -4.57022 0.299175 0
M  V30 3065 N 284.86 -4.62541 0.247086 0
M  V30 3066 C 285.595 -5.71857 0.420318 0
M  V30 3067 N 285.091 -6.89717 0.652816 0
M  V30 3068 N 286.884 -5.60972 0.355957 0
M  V30 3069 H 279.035 -1.80589 1.11809 0
M  V30 3070 H 281.298 -0.837178 0.444788 0
M  V30 3071 H 281.004 -3.33916 1.10422 0
M  V30 3072 H 280.878 -3.72344 -0.603299 0
M  V30 3073 H 283.265 -2.79403 -0.949636 0
M  V30 3074 H 283.346 -2.43578 0.781238 0
M  V30 3075 H 282.99 -4.913 1.28788 0
M  V30 3076 H 282.92 -5.24579 -0.460876 0
M  V30 3077 H 285.411 -3.77829 0.0731895 0
M  V30 3078 H 285.724 -7.68911 0.774347 0
M  V30 3079 H 284.069 -6.91572 0.689476 0
M  V30 3080 H 287.26 -4.67773 0.174882 0
M  V30 3081 H 287.433 -6.46111 0.494388 0
M  V30 3082 N 280.839 0.0985539 -1.57292 0
M  V30 3083 C 282.116 0.834155 -1.76921 0
M  V30 3084 C 282.496 1.97101 -0.755928 0
M  V30 3085 O 281.844 2.27474 0.216245 0
M  V30 3086 C 282.054 1.33194 -3.22584 0
M  V30 3087 C 283.402 1.77611 -3.85668 0
M  V30 3088 O 284.426 1.42825 -3.26312 0
M  V30 3089 O 283.285 2.4192 -4.90038 0
M  V30 3090 H 280.379 0.397628 -0.725135 0
M  V30 3091 H 282.925 0.0807044 -1.69508 0
M  V30 3092 H 281.697 0.517248 -3.87866 0
M  V30 3093 H 281.32 2.1475 -3.34616 0
M  V30 3094 N 282.317 1.53212 0.369288 0
M  V30 3095 C 283.566 1.68436 1.10961 0
M  V30 3096 C 283.879 0.440738 1.9057 0
M  V30 3097 O 285.085 0.473446 2.6734 0
M  V30 3098 C 283.541 2.97744 2.0218 0
M  V30 3099 C 283.149 4.29355 1.279 0
M  V30 3100 C 284.893 3.22334 2.76226 0
M  V30 3101 C 282.8 5.49755 2.17999 0
M  V30 3102 H 281.73 0.627568 0.41794 0
M  V30 3103 H 284.381 1.79713 0.370884 0
M  V30 3104 H 282.763 2.8026 2.79768 0
M  V30 3105 H 283.937 4.57458 0.554007 0
M  V30 3106 H 282.252 4.11179 0.657311 0
M  V30 3107 H 284.849 4.09471 3.43857 0
M  V30 3108 H 285.192 2.38238 3.41392 0
M  V30 3109 H 285.725 3.40475 2.05723 0
M  V30 3110 H 282.464 6.36318 1.57417 0
M  V30 3111 H 281.984 5.25937 2.88359 0
M  V30 3112 H 283.663 5.84401 2.77641 0
M  V30 3113 N 283.795 -0.628877 1.44509 0
M  V30 3114 C 284.725 -1.75187 1.54376 0
M  V30 3115 C 285.706 -1.65411 0.396618 0
M  V30 3116 O 286.891 -1.84137 0.617031 0
M  V30 3117 C 284.021 -3.13725 1.48976 0
M  V30 3118 C 282.975 -3.38291 2.62189 0
M  V30 3119 C 282.301 -4.76883 2.41841 0
M  V30 3120 C 283.601 -3.30632 4.04326 0
M  V30 3121 H 285.295 -1.67187 2.48373 0
M  V30 3122 H 282.841 -0.802909 1.19538 0
M  V30 3123 H 284.794 -3.92064 1.54478 0
M  V30 3124 H 283.518 -3.22515 0.514961 0
M  V30 3125 H 282.177 -2.62334 2.56079 0
M  V30 3126 H 281.825 -4.82378 1.42548 0
M  V30 3127 H 281.525 -4.94278 3.17747 0
M  V30 3128 H 283.049 -5.57449 2.49165 0
M  V30 3129 H 284.463 -3.98873 4.11793 0
M  V30 3130 H 282.86 -3.59561 4.80454 0
M  V30 3131 H 283.93 -2.28404 4.27738 0
M  V30 3132 N 285.273 -1.31445 -0.869486 0
M  V30 3133 C 286.498 -1.24256 -1.66058 0
M  V30 3134 C 286.923 0.188928 -1.87149 0
M  V30 3135 O 286.281 1.13522 -1.4136 0
M  V30 3136 C 286.329 -1.9924 -3.00559 0
M  V30 3137 O 285.433 -1.33007 -3.90362 0
M  V30 3138 H 284.774 -0.428973 -0.506831 0
M  V30 3139 H 287.304 -1.73521 -1.08404 0
M  V30 3140 H 287.314 -2.08854 -3.50491 0
M  V30 3141 H 285.989 -3.03342 -2.84528 0
M  V30 3142 H 284.566 -1.31848 -3.48813 0
M  V30 3143 N 286.751 1.08385 -1.14413 0
M  V30 3144 C 287.698 2.15311 -0.831265 0
M  V30 3145 C 288.668 1.64751 0.211292 0
M  V30 3146 O 289.853 1.90627 0.0811674 0
M  V30 3147 C 286.993 3.43658 -0.315143 0
M  V30 3148 C 286.106 4.08064 -1.41802 0
M  V30 3149 C 285.241 5.24207 -0.859126 0
M  V30 3150 C 284.28 5.80554 -1.93967 0
M  V30 3151 N 283.417 6.88042 -1.39793 0
M  V30 3152 H 288.257 2.41415 -1.74708 0
M  V30 3153 H 285.794 1.18474 -0.871909 0
M  V30 3154 H 287.752 4.172 0.00230884 0
M  V30 3155 H 286.382 3.17839 0.56378 0
M  V30 3156 H 285.434 3.3228 -1.85187 0
M  V30 3157 H 286.746 4.45962 -2.23427 0
M  V30 3158 H 285.9 6.04689 -0.49359 0
M  V30 3159 H 284.639 4.87699 -0.011932 0
M  V30 3160 H 283.644 4.98725 -2.31415 0
M  V30 3161 H 284.869 6.19121 -2.79046 0
M  V30 3162 H 282.815 6.53493 -0.572919 0
M  V30 3163 H 282.732 7.24767 -2.15054 0
M  V30 3164 H 284 7.72255 -1.0603 0
M  V30 3165 N 288.23 0.939286 1.26551 0
M  V30 3166 C 289.479 0.581601 1.93133 0
M  V30 3167 C 289.792 -0.883224 1.74524 0
M  V30 3168 O 290.998 -1.3502 2.35546 0
M  V30 3169 C 289.454 0.989425 3.46032 0
M  V30 3170 C 289.062 2.47573 3.73379 0
M  V30 3171 C 290.806 0.703544 4.18629 0
M  V30 3172 C 288.713 2.82235 5.19709 0
M  V30 3173 H 287.643 0.213803 0.723052 0
M  V30 3174 H 290.294 1.14167 1.4366 0
M  V30 3175 H 288.676 0.357902 3.94379 0
M  V30 3176 H 289.85 3.15614 3.35744 0
M  V30 3177 H 288.165 2.73471 3.1401 0
M  V30 3178 H 290.762 0.938869 5.26393 0
M  V30 3179 H 291.105 -0.359639 4.14744 0
M  V30 3180 H 291.638 1.2947 3.76141 0
M  V30 3181 H 288.377 3.87509 5.28694 0
M  V30 3182 H 287.897 2.18854 5.58447 0
M  V30 3183 H 289.576 2.70599 5.87695 0
M  V30 3184 N 289.708 -1.40897 0.706093 0
M  V30 3185 C 290.656 -2.32572 0.0361893 0
M  V30 3186 C 291.65 -1.51532 -0.757266 0
M  V30 3187 O 292.856 -1.67396 -0.661703 0
M  V30 3188 H 289.231 -0.751966 -0.00709935 0
M  V30 3189 H 291.202 -2.86733 0.826249 0
M  V30 3190 C 289.951 -3.36418 -0.87854 0
M  V30 3191 H 289.274 -3.98836 -0.277401 0
M  V30 3192 H 290.714 -4.0308 -1.3154 0
M  V30 3193 C 289.173 -2.71141 -1.99961 0
M  V30 3194 O 289.703 -2.56735 -3.0895 0
M  V30 3195 N 287.909 -2.29671 -1.78043 0
M  V30 3196 H 287.456 -2.41588 -0.894042 0
M  V30 3197 H 287.414 -1.86332 -2.53235 0
M  V30 3198 N 291.186 -0.45159 -1.50991 0
M  V30 3199 C 292.118 0.388634 -2.25881 0
M  V30 3200 C 293.131 0.974041 -1.30446 0
M  V30 3201 O 294.32 0.865758 -1.56099 0
M  V30 3202 C 291.42 1.5571 -3.01011 0
M  V30 3203 C 290.593 1.08801 -4.23652 0
M  V30 3204 C 289.652 2.12825 -4.8124 0
M  V30 3205 O 288.678 1.71678 -5.42693 0
M  V30 3206 N 289.88 3.45453 -4.66522 0
M  V30 3207 H 292.645 -0.25329 -2.98628 0
M  V30 3208 H 290.206 -0.281268 -1.59438 0
M  V30 3209 H 292.198 2.24952 -3.3642 0
M  V30 3210 H 290.768 2.10409 -2.31186 0
M  V30 3211 H 289.988 0.22215 -3.93574 0
M  V30 3212 H 291.276 0.752213 -5.03209 0
M  V30 3213 H 290.674 3.81605 -4.17605 0
M  V30 3214 H 289.231 4.10549 -5.06254 0
M  V30 3215 N 292.664 1.56529 -0.183458 0
M  V30 3216 C 294.075 1.83739 0.331177 0
M  V30 3217 C 294.426 1.10373 1.62211 0
M  V30 3218 O 293.551 0.36071 2.13373 0
M  V30 3219 C 294.146 3.33306 0.607646 0
M  V30 3220 C 292.705 3.60969 1.06668 0
M  V30 3221 C 291.852 2.77086 0.109029 0
M  V30 3222 H 294.803 1.53379 -0.407484 0
M  V30 3223 H 294.824 3.51444 1.45832 0
M  V30 3224 H 294.336 3.86677 -0.332086 0
M  V30 3225 H 292.437 3.13021 2.0211 0
M  V30 3226 H 292.55 4.69231 0.967447 0
M  V30 3227 H 290.914 2.47319 0.608714 0
M  V30 3228 H 291.697 3.33241 -0.82494 0
M  V30 3229 N 294.142 -0.090211 1.57342 0
M  V30 3230 C 295.372 -0.805055 1.90269 0
M  V30 3231 C 295.78 -1.72561 0.775842 0
M  V30 3232 O 295.123 -1.81839 -0.260843 0
M  V30 3233 C 295.185 -1.66734 3.18497 0
M  V30 3234 C 294.849 -0.918092 4.47683 0
M  V30 3235 C 295.846 -0.245674 5.19319 0
M  V30 3236 C 293.531 -0.890724 4.94339 0
M  V30 3237 C 295.525 0.444088 6.35851 0
M  V30 3238 C 293.212 -0.197179 6.10782 0
M  V30 3239 C 294.21 0.469044 6.81388 0
M  V30 3240 O 293.898 1.15146 7.95611 0
M  V30 3241 H 293.63 -0.235143 0.633785 0
M  V30 3242 H 296.184 -0.0703805 2.05279 0
M  V30 3243 H 294.414 -2.44437 2.99646 0
M  V30 3244 H 296.103 -2.25919 3.37217 0
M  V30 3245 H 296.869 -0.258246 4.84312 0
M  V30 3246 H 292.748 -1.39873 4.39268 0
M  V30 3247 H 296.292 0.964667 6.90898 0
M  V30 3248 H 292.189 -0.18247 6.45242 0
M  V30 3249 H 292.957 1.05885 8.11622 0
M  V30 3250 N 295.62 -1.53406 -0.361157 0
M  V30 3251 C 296.552 -1.76446 -1.46286 0
M  V30 3252 C 297.565 -0.645322 -1.49464 0
M  V30 3253 O 298.754 -0.921681 -1.52864 0
M  V30 3254 C 295.854 -1.83332 -2.85031 0
M  V30 3255 C 295.027 -3.13033 -3.05498 0
M  V30 3256 C 294.086 -3.11104 -4.24383 0
M  V30 3257 O 293.112 -3.84888 -4.19344 0
M  V30 3258 N 294.314 -2.32234 -5.32022 0
M  V30 3259 H 297.079 -2.71508 -1.26899 0
M  V30 3260 H 294.64 -1.52238 -0.550915 0
M  V30 3261 H 296.632 -1.79514 -3.62708 0
M  V30 3262 H 295.202 -0.955342 -2.97644 0
M  V30 3263 H 294.422 -3.30119 -2.15442 0
M  V30 3264 H 295.71 -3.9874 -3.16044 0
M  V30 3265 H 295.108 -1.71807 -5.38979 0
M  V30 3266 H 293.665 -2.3423 -6.08259 0
M  V30 3267 N 297.098 0.621204 -1.44841 0
M  V30 3268 C 298.045 1.73267 -1.5247 0
M  V30 3269 C 299.015 1.6189 -0.371611 0
M  V30 3270 O 300.2 1.81668 -0.58321 0
M  V30 3271 C 297.34 3.11545 -1.48438 0
M  V30 3272 C 296.453 3.33827 -2.74196 0
M  V30 3273 C 295.588 4.62133 -2.61929 0
M  V30 3274 C 294.627 4.77627 -3.82804 0
M  V30 3275 N 293.764 5.97219 -3.69153 0
M  V30 3276 H 298.604 1.66082 -2.47428 0
M  V30 3277 H 296.141 0.810026 -1.22788 0
M  V30 3278 H 298.099 3.91528 -1.4409 0
M  V30 3279 H 296.729 3.1772 -0.570402 0
M  V30 3280 H 295.781 2.47715 -2.88689 0
M  V30 3281 H 297.093 3.41153 -3.6389 0
M  V30 3282 H 296.247 5.50291 -2.5547 0
M  V30 3283 H 294.986 4.57182 -1.69811 0
M  V30 3284 H 293.991 3.87896 -3.89637 0
M  V30 3285 H 295.216 4.84385 -4.75971 0
M  V30 3286 H 293.162 5.93339 -2.79794 0
M  V30 3287 H 293.079 6.05644 -4.52472 0
M  V30 3288 H 294.347 6.87912 -3.66603 0
M  V30 3289 N 298.576 1.31904 0.862503 0
M  V30 3290 C 299.823 1.22017 1.61611 0
M  V30 3291 C 300.151 -0.21991 1.93253 0
M  V30 3292 O 299.406 -1.17076 1.56817 0
M  V30 3293 C 299.705 2.01713 2.95037 0
M  V30 3294 C 299.371 3.51145 2.82857 0
M  V30 3295 C 298.033 3.91889 2.79243 0
M  V30 3296 C 300.385 4.46204 2.69353 0
M  V30 3297 C 297.713 5.25947 2.59993 0
M  V30 3298 C 300.065 5.80397 2.5164 0
M  V30 3299 C 298.729 6.20352 2.46413 0
M  V30 3300 H 297.999 0.44649 0.591378 0
M  V30 3301 H 300.646 1.63248 1.00111 0
M  V30 3302 H 298.951 1.53185 3.60613 0
M  V30 3303 H 300.648 1.91437 3.52353 0
M  V30 3304 H 297.238 3.1878 2.86491 0
M  V30 3305 H 301.422 4.15652 2.71196 0
M  V30 3306 H 296.678 5.5597 2.54376 0
M  V30 3307 H 300.852 6.53676 2.40169 0
M  V30 3308 H 298.479 7.24172 2.31256 0
M  V30 3309 N 300.054 -1.07777 1.14986 0
M  V30 3310 C 300.984 -2.16865 0.865557 0
M  V30 3311 C 301.965 -1.69123 -0.182083 0
M  V30 3312 O 303.15 -1.94164 -0.0373815 0
M  V30 3313 C 300.28 -3.45539 0.349313 0
M  V30 3314 C 299.234 -4.06708 1.33313 0
M  V30 3315 C 298.56 -5.30411 0.675918 0
M  V30 3316 C 299.86 -4.47241 2.69764 0
M  V30 3317 H 301.554 -2.40905 1.77778 0
M  V30 3318 H 299.1 -1.15781 0.856203 0
M  V30 3319 H 301.053 -4.21174 0.137983 0
M  V30 3320 H 299.777 -3.21072 -0.598362 0
M  V30 3321 H 298.436 -3.33112 1.53075 0
M  V30 3322 H 298.084 -5.02232 -0.277767 0
M  V30 3323 H 297.784 -5.72293 1.33244 0
M  V30 3324 H 299.308 -6.08755 0.474262 0
M  V30 3325 H 300.722 -5.14025 2.53873 0
M  V30 3326 H 299.119 -5.00062 3.3175 0
M  V30 3327 H 300.189 -3.58818 3.26156 0
M  V30 3328 N 301.532 -0.945985 -1.26051 0
M  V30 3329 C 302.809 -0.513816 -1.88731 0
M  V30 3330 C 303.189 1.00872 -1.8544 0
M  V30 3331 O 302.537 1.8708 -1.312 0
M  V30 3332 C 302.747 -1.08062 -3.31849 0
M  V30 3333 C 304.095 -1.1522 -4.08668 0
M  V30 3334 O 305.119 -1.03155 -3.40936 0
M  V30 3335 O 303.978 -1.34044 -5.29806 0
M  V30 3336 H 301.072 -0.168193 -0.809716 0
M  V30 3337 H 303.618 -1.03886 -1.34186 0
M  V30 3338 H 302.39 -2.1241 -3.2863 0
M  V30 3339 H 302.013 -0.538307 -3.93939 0
M  V30 3340 N 303.011 1.40521 -0.713556 0
M  V30 3341 C 304.257 2.01221 -0.252564 0
M  V30 3342 C 304.59 1.56444 1.1506 0
M  V30 3343 O 303.865 0.783597 1.78017 0
M  V30 3344 C 304.148 3.58582 -0.330332 0
M  V30 3345 C 304.001 4.13437 -1.77173 0
M  V30 3346 C 305.32 4.39079 0.299641 0
M  V30 3347 H 302.439 0.731077 -0.0932471 0
M  V30 3348 H 305.081 1.67026 -0.905673 0
M  V30 3349 H 303.231 3.87844 0.225737 0
M  V30 3350 H 304.903 3.9498 -2.38303 0
M  V30 3351 H 303.146 3.67801 -2.3001 0
M  V30 3352 H 303.817 5.22597 -1.77755 0
M  V30 3353 H 306.293 4.15735 -0.174139 0
M  V30 3354 H 305.169 5.4848 0.214771 0
M  V30 3355 H 305.43 4.19915 1.38288 0
M  V30 3356 N 304.489 0.459591 1.5075 0
M  V30 3357 C 305.419 -0.330644 2.31147 0
M  V30 3358 C 306.4 -1.00087 1.37538 0
M  V30 3359 O 307.585 -1.00025 1.66459 0
M  V30 3360 C 304.715 -1.41958 3.16962 0
M  V30 3361 C 303.669 -0.871608 4.19031 0
M  V30 3362 C 302.995 -2.05797 4.9351 0
M  V30 3363 C 304.295 0.109251 5.22186 0
M  V30 3364 H 305.989 0.340336 2.97459 0
M  V30 3365 H 303.535 0.165119 1.4305 0
M  V30 3366 H 305.488 -1.9798 3.71997 0
M  V30 3367 H 304.212 -2.11917 2.48513 0
M  V30 3368 H 302.871 -0.333442 3.6508 0
M  V30 3369 H 302.519 -2.74427 4.21544 0
M  V30 3370 H 302.219 -1.6976 5.62544 0
M  V30 3371 H 303.743 -2.62331 5.51375 0
M  V30 3372 H 305.157 -0.361405 5.7216 0
M  V30 3373 H 303.554 0.383316 5.98875 0
M  V30 3374 H 304.624 1.03887 4.73641 0
M  V30 3375 N 305.967 -1.56429 0.191757 0
M  V30 3376 C 306.915 -2.20273 -0.747174 0
M  V30 3377 C 307.909 -1.17288 -1.22229 0
M  V30 3378 O 309.115 -1.35441 -1.18557 0
M  V30 3379 H 305.49 -0.705885 -0.259289 0
M  V30 3380 H 307.461 -2.97826 -0.184963 0
M  V30 3381 C 306.21 -2.87356 -1.95759 0
M  V30 3382 H 305.533 -3.66341 -1.60106 0
M  V30 3383 H 306.973 -3.3547 -2.59299 0
M  V30 3384 C 305.432 -1.88213 -2.79423 0
M  V30 3385 O 305.962 -1.38033 -3.7724 0
M  V30 3386 N 304.168 -1.56516 -2.44849 0
M  V30 3387 H 303.715 -1.97516 -1.65364 0
M  V30 3388 H 303.673 -0.904369 -3.01112 0
M  V30 3389 N 307.445 0.0818655 -1.57387 0
M  V30 3390 C 308.673 0.796108 -1.9097 0
M  V30 3391 C 309.088 1.71626 -0.786757 0
M  V30 3392 O 308.445 1.80908 0.240513 0
M  V30 3393 C 308.496 1.59829 -3.24248 0
M  V30 3394 O 308.217 0.715131 -4.32224 0
M  V30 3395 C 309.718 2.41442 -3.7178 0
M  V30 3396 H 306.938 0.22691 -0.631469 0
M  V30 3397 H 309.482 0.0551439 -2.04426 0
M  V30 3398 H 307.637 2.29163 -3.12351 0
M  V30 3399 H 308.051 1.27205 -5.08841 0
M  V30 3400 H 309.525 2.932 -4.67694 0
M  V30 3401 H 310.002 3.2051 -3.00283 0
M  V30 3402 H 310.608 1.77283 -3.86589 0
M  V30 3403 N 308.923 1.53595 0.353017 0
M  V30 3404 C 310.172 1.69603 1.09168 0
M  V30 3405 C 310.485 0.460925 1.90092 0
M  V30 3406 O 311.691 0.501774 2.66823 0
M  V30 3407 C 310.147 2.99872 1.9901 0
M  V30 3408 C 309.755 4.30687 1.23339 0
M  V30 3409 C 311.499 3.25246 2.72792 0
M  V30 3410 C 309.406 5.52036 2.12156 0
M  V30 3411 H 308.336 0.631966 0.411261 0
M  V30 3412 H 310.987 1.80096 0.351802 0
M  V30 3413 H 309.369 2.83212 2.7678 0
M  V30 3414 H 310.543 4.58019 0.505456 0
M  V30 3415 H 308.858 4.11853 0.613663 0
M  V30 3416 H 311.455 4.13095 3.39495 0
M  V30 3417 H 311.798 2.41846 3.38846 0
M  V30 3418 H 312.331 3.42638 2.021 0
M  V30 3419 H 309.07 6.37951 1.50659 0
M  V30 3420 H 308.59 5.28966 2.82764 0
M  V30 3421 H 310.269 5.87313 2.71427 0
M  V30 3422 N 310.401 -0.613514 1.45168 0
M  V30 3423 C 311.348 -1.72456 1.53387 0
M  V30 3424 C 312.318 -1.6169 0.380191 0
M  V30 3425 O 313.503 -1.81356 0.592836 0
M  V30 3426 C 310.643 -3.10753 1.50088 0
M  V30 3427 C 309.756 -3.32368 2.75963 0
M  V30 3428 C 308.891 -4.60737 2.64376 0
M  V30 3429 C 307.93 -4.7559 3.85332 0
M  V30 3430 N 307.067 -5.95253 3.72315 0
M  V30 3431 H 311.907 -1.64768 2.48305 0
M  V30 3432 H 309.444 -0.803503 1.23216 0
M  V30 3433 H 311.402 -3.90758 1.46164 0
M  V30 3434 H 310.032 -3.17413 0.587243 0
M  V30 3435 H 309.084 -2.4618 2.89999 0
M  V30 3436 H 310.396 -3.39218 3.65695 0
M  V30 3437 H 309.55 -5.48928 2.58385 0
M  V30 3438 H 308.289 -4.56275 1.72233 0
M  V30 3439 H 307.294 -3.85824 3.91688 0
M  V30 3440 H 308.519 -4.81854 4.78533 0
M  V30 3441 H 306.465 -5.91847 2.82937 0
M  V30 3442 H 306.382 -6.03236 4.55677 0
M  V30 3443 H 307.65 -6.85958 3.70246 0
M  V30 3444 N 311.879 -1.3236 -0.855495 0
M  V30 3445 C 312.827 -1.2118 -1.9854 0
M  V30 3446 C 313.821 -0.116788 -1.68997 0
M  V30 3447 O 315.027 -0.279657 -1.77814 0
M  V30 3448 H 311.402 -0.375608 -0.651477 0
M  V30 3449 H 313.373 -2.16743 -2.05098 0
M  V30 3450 C 312.122 -0.950849 -3.34446 0
M  V30 3451 H 311.445 -1.78563 -3.57708 0
M  V30 3452 H 312.885 -0.912863 -4.14057 0
M  V30 3453 C 311.344 0.346404 -3.35114 0
M  V30 3454 O 311.874 1.35855 -3.7803 0
M  V30 3455 N 310.08 0.36808 -2.88259 0
M  V30 3456 H 309.627 -0.456102 -2.5353 0
M  V30 3457 H 309.585 1.23591 -2.89089 0
M  V30 3458 N 313.357 1.07166 -1.15556 0
M  V30 3459 C 314.32 2.12589 -0.856644 0
M  V30 3460 C 315.32 1.6015 0.14444 0
M  V30 3461 O 316.51 1.7399 -0.0854163 0
M  V30 3462 C 313.642 3.39753 -0.279405 0
M  V30 3463 H 314.835 2.40539 -1.79112 0
M  V30 3464 H 312.388 1.23086 -0.963298 0
M  V30 3465 H 313.123 3.17447 0.663174 0
M  V30 3466 H 312.908 3.79117 -1.00063 0
M  V30 3467 H 314.398 4.17507 -0.0879113 0
M  V30 3468 N 314.835 0.952656 1.25548 0
M  V30 3469 C 316.06 0.623025 1.97821 0
M  V30 3470 C 316.485 -0.7976 1.70352 0
M  V30 3471 O 315.843 -1.53905 0.958283 0
M  V30 3472 C 315.891 0.885532 3.49558 0
M  V30 3473 O 314.995 -0.0366641 4.12384 0
M  V30 3474 H 314.336 0.237082 0.620232 0
M  V30 3475 H 316.866 1.27871 1.59719 0
M  V30 3476 H 316.876 0.811009 3.99858 0
M  V30 3477 H 315.551 1.92094 3.6888 0
M  V30 3478 H 314.128 0.0898954 3.72792 0
M  V30 3479 N 316.313 -1.40141 0.720998 0
M  V30 3480 C 317.59 -1.94677 0.189757 0
M  V30 3481 C 317.97 -1.65879 -1.30566 0
M  V30 3482 O 317.318 -0.979391 -2.06447 0
M  V30 3483 C 317.528 -3.45279 0.508304 0
M  V30 3484 C 318.876 -4.22209 0.449934 0
M  V30 3485 O 319.9 -3.53413 0.444677 0
M  V30 3486 O 318.759 -5.44788 0.432189 0
M  V30 3487 H 315.853 -0.826459 0.0299026 0
M  V30 3488 H 318.399 -1.49719 0.7989 0
M  V30 3489 H 317.171 -3.59619 1.54239 0
M  V30 3490 H 316.794 -3.97386 -0.130525 0
M  V30 3491 N 317.792 -0.46758 -1.50504 0
M  V30 3492 C 319.017 0.0886943 -2.0721 0
M  V30 3493 C 319.442 1.33057 -1.32956 0
M  V30 3494 O 318.8 1.77354 -0.376197 0
M  V30 3495 C 318.848 0.359202 -3.58806 0
M  V30 3496 O 317.952 1.44034 -3.8643 0
M  V30 3497 H 317.293 -0.0114349 -0.663902 0
M  V30 3498 H 319.823 -0.657613 -1.93744 0
M  V30 3499 H 319.833 0.600742 -4.03553 0
M  V30 3500 H 318.508 -0.548311 -4.1227 0
M  V30 3501 H 317.085 1.18638 -3.53524 0
M  V30 3502 N 319.27 1.56325 -0.20005 0
M  V30 3503 C 320.547 1.89484 0.48529 0
M  V30 3504 C 320.927 1.1143 1.79294 0
M  V30 3505 O 320.275 0.216919 2.27468 0
M  V30 3506 C 320.485 3.41923 0.699243 0
M  V30 3507 C 321.833 4.12256 1.01638 0
M  V30 3508 O 322.857 3.47402 0.786792 0
M  V30 3509 O 321.716 5.26887 1.45095 0
M  V30 3510 H 318.81 0.787144 0.253639 0
M  V30 3511 H 321.356 1.67985 -0.240633 0
M  V30 3512 H 320.128 3.90658 -0.224008 0
M  V30 3513 H 319.751 3.69131 1.47744 0
M  V30 3514 N 320.748 -0.0735177 1.57428 0
M  V30 3515 C 321.996 -0.771472 1.86796 0
M  V30 3516 C 322.317 -1.78201 0.791804 0
M  V30 3517 O 321.587 -1.95074 -0.179718 0
M  V30 3518 H 320.167 -0.28791 0.689287 0
M  V30 3519 H 322.829 -0.0500161 1.94836 0
M  V30 3520 H 321.925 -1.28874 2.8425 0
M  V30 3521 N 322.226 -1.5378 -0.344866 0
M  V30 3522 C 323.158 -1.77988 -1.44406 0
M  V30 3523 C 324.171 -0.661138 -1.48771 0
M  V30 3524 O 325.36 -0.937842 -1.51877 0
M  V30 3525 C 322.46 -1.86345 -2.8307 0
M  V30 3526 C 321.633 -3.16256 -3.0216 0
M  V30 3527 C 320.692 -3.15588 -4.21059 0
M  V30 3528 O 319.718 -3.89314 -4.15239 0
M  V30 3529 N 320.92 -2.37864 -5.29529 0
M  V30 3530 H 323.685 -2.72839 -1.24012 0
M  V30 3531 H 321.246 -1.52814 -0.534737 0
M  V30 3532 H 323.238 -1.83351 -3.60783 0
M  V30 3533 H 321.808 -0.986858 -2.96614 0
M  V30 3534 H 321.028 -3.32385 -2.11929 0
M  V30 3535 H 322.316 -4.0207 -3.11797 0
M  V30 3536 H 321.714 -1.77514 -5.37127 0
M  V30 3537 H 320.271 -2.40668 -6.05741 0
M  V30 3538 N 323.704 0.605807 -1.45491 0
M  V30 3539 C 324.981 1.36522 -1.40075 0
M  V30 3540 C 325.361 2.10976 -0.0722744 0
M  V30 3541 O 324.709 2.08007 0.945808 0
M  V30 3542 C 324.919 2.31056 -2.61561 0
M  V30 3543 C 326.267 2.93608 -3.06724 0
M  V30 3544 O 327.291 2.41376 -2.61946 0
M  V30 3545 O 326.15 3.88421 -3.84437 0
M  V30 3546 H 323.244 0.612248 -0.555951 0
M  V30 3547 H 325.79 0.628747 -1.57623 0
M  V30 3548 H 324.562 1.75311 -3.49831 0
M  V30 3549 H 324.185 3.12081 -2.46356 0
M  V30 3550 N 325.182 1.32811 0.848464 0
M  V30 3551 C 326.112 1.24882 1.97299 0
M  V30 3552 C 327.093 0.131357 1.69592 0
M  V30 3553 O 328.278 0.319553 1.91553 0
M  V30 3554 C 325.408 0.97746 3.33261 0
M  V30 3555 C 324.362 2.05682 3.75338 0
M  V30 3556 C 323.688 1.63777 5.09 0
M  V30 3557 C 324.988 3.47254 3.90144 0
M  V30 3558 H 326.682 2.18966 2.04191 0
M  V30 3559 H 324.228 1.05413 0.981029 0
M  V30 3560 H 326.181 0.908513 4.1149 0
M  V30 3561 H 324.905 0.000980011 3.266 0
M  V30 3562 H 323.564 2.11603 2.99366 0
M  V30 3563 H 323.212 0.648569 4.98801 0
M  V30 3564 H 322.912 2.36 5.38124 0
M  V30 3565 H 324.436 1.5833 5.89715 0
M  V30 3566 H 325.85 3.43888 4.58709 0
M  V30 3567 H 324.247 4.1788 4.30693 0
M  V30 3568 H 325.317 3.86462 2.92874 0
M  V30 3569 N 326.66 -1.06551 1.16123 0
M  V30 3570 C 327.59 -2.15935 0.88851 0
M  V30 3571 C 328.571 -1.69306 -0.164135 0
M  V30 3572 O 329.756 -1.94193 -0.0167857 0
M  V30 3573 C 326.886 -3.45149 0.385942 0
M  V30 3574 C 325.84 -4.05271 1.3762 0
M  V30 3575 C 325.166 -5.29664 0.732137 0
M  V30 3576 C 326.466 -4.44355 2.74493 0
M  V30 3577 H 328.16 -2.39006 1.80323 0
M  V30 3578 H 325.706 -1.14866 0.868435 0
M  V30 3579 H 327.659 -4.21004 0.182647 0
M  V30 3580 H 326.383 -3.21689 -0.564274 0
M  V30 3581 H 325.042 -3.3147 1.56599 0
M  V30 3582 H 324.69 -5.02499 -0.224483 0
M  V30 3583 H 324.39 -5.70848 1.39307 0
M  V30 3584 H 325.914 -6.08218 0.538802 0
M  V30 3585 H 327.328 -5.11303 2.59311 0
M  V30 3586 H 325.725 -4.96515 3.37035 0
M  V30 3587 H 326.795 -3.55339 3.29943 0
M  V30 3588 N 328.138 -0.959301 -1.25041 0
M  V30 3589 C 329.385 -0.616611 -1.92884 0
M  V30 3590 C 329.713 0.847036 -1.75087 0
M  V30 3591 O 328.968 1.62374 -1.09239 0
M  V30 3592 C 329.267 -0.927136 -3.45165 0
M  V30 3593 C 328.933 -2.37757 -3.83122 0
M  V30 3594 C 327.595 -2.77402 -3.93194 0
M  V30 3595 C 329.947 -3.31929 -4.01836 0
M  V30 3596 C 327.275 -4.10277 -4.19392 0
M  V30 3597 C 329.627 -4.64423 -4.29528 0
M  V30 3598 C 328.291 -5.03857 -4.37818 0
M  V30 3599 H 327.561 -0.225634 -0.705812 0
M  V30 3600 H 330.208 -1.20921 -1.48493 0
M  V30 3601 H 328.513 -0.252195 -3.90987 0
M  V30 3602 H 330.21 -0.6405 -3.95852 0
M  V30 3603 H 326.8 -2.06013 -3.75841 0
M  V30 3604 H 330.984 -3.02488 -3.93465 0
M  V30 3605 H 326.24 -4.40467 -4.24027 0
M  V30 3606 H 330.414 -5.37369 -4.42953 0
M  V30 3607 H 328.041 -6.06843 -4.57871 0
M  V30 3608 N 329.616 1.39756 -0.72842 0
M  V30 3609 C 330.844 2.04948 -0.283528 0
M  V30 3610 C 331.259 1.54908 1.0793 0
M  V30 3611 O 330.616 0.711135 1.68075 0
M  V30 3612 C 330.667 3.60498 -0.268957 0
M  V30 3613 O 330.388 4.08695 -1.57798 0
M  V30 3614 C 331.889 4.4288 0.192912 0
M  V30 3615 H 329.109 0.659243 -0.125056 0
M  V30 3616 H 331.653 1.78927 -0.990226 0
M  V30 3617 H 329.808 3.85444 0.388801 0
M  V30 3618 H 330.222 5.02977 -1.48709 0
M  V30 3619 H 331.696 5.51791 0.151952 0
M  V30 3620 H 332.173 4.21418 1.23708 0
M  V30 3621 H 332.779 4.23069 -0.435039 0
M  V30 3622 N 331.094 0.475555 1.50254 0
M  V30 3623 C 332.042 -0.330276 2.30243 0
M  V30 3624 C 333.036 -0.986306 1.37726 0
M  V30 3625 O 334.242 -0.9169 1.54897 0
M  V30 3626 H 330.617 -0.125353 0.741479 0
M  V30 3627 H 332.588 0.364702 2.96163 0
M  V30 3628 C 331.337 -1.39704 3.18399 0
M  V30 3629 H 330.66 -0.901621 3.89501 0
M  V30 3630 H 332.1 -1.93336 3.77355 0
M  V30 3631 C 330.559 -2.4014 2.36293 0
M  V30 3632 O 331.089 -3.45504 2.04914 0
M  V30 3633 N 329.295 -2.1197 1.98789 0
M  V30 3634 H 328.842 -1.2631 2.24507 0
M  V30 3635 H 328.8 -2.79403 1.44157 0
M  V30 3636 N 332.573 -1.56217 0.208337 0
M  V30 3637 C 333.505 -2.1695 -0.739276 0
M  V30 3638 C 334.518 -1.13492 -1.1672 0
M  V30 3639 O 335.707 -1.40529 -1.10063 0
M  V30 3640 C 332.807 -2.72755 -2.01142 0
M  V30 3641 C 331.98 -4.0125 -1.74118 0
M  V30 3642 C 331.039 -4.41749 -2.85909 0
M  V30 3643 O 330.065 -5.08912 -2.54946 0
M  V30 3644 N 331.267 -4.06342 -4.14568 0
M  V30 3645 H 334.032 -2.98893 -0.219837 0
M  V30 3646 H 331.593 -1.61878 0.0268445 0
M  V30 3647 H 333.585 -2.96826 -2.75094 0
M  V30 3648 H 332.155 -1.95191 -2.4417 0
M  V30 3649 H 331.375 -3.85173 -0.838775 0
M  V30 3650 H 332.663 -4.851 -1.53477 0
M  V30 3651 H 332.061 -3.52345 -4.42571 0
M  V30 3652 H 330.618 -4.35335 -4.85105 0
M  V30 3653 N 334.051 0.0651679 -1.57465 0
M  V30 3654 C 334.981 1.07693 -2.07182 0
M  V30 3655 C 335.962 1.39962 -0.966673 0
M  V30 3656 O 337.147 1.49475 -1.2398 0
M  V30 3657 C 334.277 2.3885 -2.52127 0
M  V30 3658 C 333.231 2.20917 -3.66579 0
M  V30 3659 C 332.557 3.57515 -3.97601 0
M  V30 3660 C 333.857 1.62493 -4.9638 0
M  V30 3661 H 335.551 0.663199 -2.91962 0
M  V30 3662 H 333.097 0.317569 -1.40455 0
M  V30 3663 H 335.05 3.09928 -2.85522 0
M  V30 3664 H 333.774 2.82215 -1.64384 0
M  V30 3665 H 332.433 1.52279 -3.33477 0
M  V30 3666 H 332.081 3.98463 -3.06979 0
M  V30 3667 H 331.781 3.46353 -4.74672 0
M  V30 3668 H 333.305 4.30013 -4.33499 0
M  V30 3669 H 334.719 2.23445 -5.27963 0
M  V30 3670 H 333.116 1.62009 -5.77818 0
M  V30 3671 H 334.186 0.587041 -4.81333 0
M  V30 3672 N 335.529 1.53961 0.336706 0
M  V30 3673 C 336.476 1.82428 1.41381 0
M  V30 3674 C 337.446 0.670444 1.51968 0
M  V30 3675 O 338.631 0.915565 1.67398 0
M  V30 3676 C 335.771 2.04564 2.77934 0
M  V30 3677 C 334.884 3.32267 2.76084 0
M  V30 3678 C 334.019 3.44434 4.04399 0
M  V30 3679 C 333.058 4.66061 3.96804 0
M  V30 3680 N 332.195 4.75224 5.16823 0
M  V30 3681 H 337.035 2.74324 1.16405 0
M  V30 3682 H 334.572 1.35869 0.563752 0
M  V30 3683 H 336.53 2.15388 3.57301 0
M  V30 3684 H 335.16 1.15974 3.01247 0
M  V30 3685 H 334.212 3.3025 1.88784 0
M  V30 3686 H 335.524 4.21733 2.66351 0
M  V30 3687 H 334.678 3.54728 4.92192 0
M  V30 3688 H 333.417 2.53037 4.16921 0
M  V30 3689 H 332.422 4.55838 3.07396 0
M  V30 3690 H 333.647 5.58829 3.85858 0
M  V30 3691 H 331.593 3.86739 5.29876 0
M  V30 3692 H 331.51 5.58636 5.09374 0
M  V30 3693 H 332.778 4.89835 6.06367 0
M  V30 3694 N 337.007 -0.598083 1.45811 0
M  V30 3695 C 337.917 -1.73632 1.57763 0
M  V30 3696 C 338.933 -1.67763 0.461676 0
M  V30 3697 O 340.109 -1.87949 0.723685 0
M  V30 3698 C 337.174 -3.10114 1.55018 0
M  V30 3699 C 336.235 -3.27364 2.77726 0
M  V30 3700 C 335.468 -4.57334 2.75102 0
M  V30 3701 O 335.691 -5.40258 1.8297 0
M  V30 3702 O 334.625 -4.77502 3.66437 0
M  V30 3703 H 338.451 -1.66498 2.53992 0
M  V30 3704 H 336.036 -0.763308 1.28429 0
M  V30 3705 H 337.918 -3.9141 1.56129 0
M  V30 3706 H 336.593 -3.17718 0.619431 0
M  V30 3707 H 335.5 -2.45619 2.82174 0
M  V30 3708 H 336.833 -3.24641 3.69958 0
M  V30 3709 N 338.485 -1.33259 -0.841409 0
M  V30 3710 C 339.435 -1.19872 -1.93945 0
M  V30 3711 C 340.419 -0.102269 -1.60575 0
M  V30 3712 O 341.611 -0.330114 -1.73894 0
M  V30 3713 C 338.74 -0.937517 -3.30251 0
M  V30 3714 C 337.826 -2.07629 -3.69799 0
M  V30 3715 N 338.217 -3.32604 -3.81062 0
M  V30 3716 C 336.515 -1.98242 -3.9952 0
M  V30 3717 C 337.216 -4.07275 -4.15333 0
M  V30 3718 N 336.192 -3.35691 -4.27566 0
M  V30 3719 H 339.994 -2.14604 -2.00805 0
M  V30 3720 H 337.508 -1.2523 -1.03398 0
M  V30 3721 H 339.505 -0.822545 -4.08705 0
M  V30 3722 H 338.165 0.00128798 -3.247 0
M  V30 3723 H 339.176 -3.67382 -3.65035 0
M  V30 3724 H 335.853 -1.12005 -4.02195 0
M  V30 3725 H 337.243 -5.1511 -4.31406 0
M  V30 3726 N 339.963 1.05934 -1.16686 0
M  V30 3727 C 341.374 1.60263 -0.957745 0
M  V30 3728 C 341.725 1.89789 0.49745 0
M  V30 3729 O 340.85 1.67401 1.37135 0
M  V30 3730 C 341.445 2.91172 -1.73218 0
M  V30 3731 C 340.004 3.42188 -1.56794 0
M  V30 3732 C 339.151 2.16028 -1.73859 0
M  V30 3733 H 342.102 0.888392 -1.31504 0
M  V30 3734 H 342.123 3.60744 -1.21014 0
M  V30 3735 H 341.635 2.6965 -2.79124 0
M  V30 3736 H 339.736 3.68762 -0.533437 0
M  V30 3737 H 339.849 4.17273 -2.35414 0
M  V30 3738 H 338.213 2.26426 -1.16633 0
M  V30 3739 H 338.996 1.96985 -2.81161 0
M  V30 3740 N 341.441 0.965919 1.2453 0
M  V30 3741 C 342.669 0.644385 1.96609 0
M  V30 3742 C 343.084 -0.785823 1.71669 0
M  V30 3743 O 342.441 -1.52703 0.999399 0
M  V30 3744 C 342.492 0.907375 3.49927 0
M  V30 3745 O 342.213 2.28136 3.74013 0
M  V30 3746 C 343.714 0.599784 4.39224 0
M  V30 3747 H 340.934 0.240588 0.626385 0
M  V30 3748 H 343.478 1.29337 1.58405 0
M  V30 3749 H 341.633 0.304631 3.862 0
M  V30 3750 H 342.047 2.36002 4.68405 0
M  V30 3751 H 343.521 0.834263 5.45659 0
M  V30 3752 H 343.998 -0.465921 4.36722 0
M  V30 3753 H 344.604 1.18235 4.08535 0
M  V30 3754 N 342.919 -1.39368 0.735821 0
M  V30 3755 C 344.196 -1.94465 0.210395 0
M  V30 3756 C 344.576 -1.67254 -1.28799 0
M  V30 3757 O 343.924 -1.00123 -2.05396 0
M  V30 3758 C 344.134 -3.4472 0.544897 0
M  V30 3759 C 345.482 -4.21708 0.494689 0
M  V30 3760 O 346.506 -3.52922 0.482136 0
M  V30 3761 O 345.365 -5.44299 0.489947 0
M  V30 3762 H 342.459 -0.826096 0.0386666 0
M  V30 3763 H 345.005 -1.48863 0.814735 0
M  V30 3764 H 343.777 -3.57963 1.58045 0
M  V30 3765 H 343.4 -3.97502 -0.08837 0
M  V30 3766 N 344.397 -0.483516 -1.5 0
M  V30 3767 C 345.644 0.0671597 -2.02389 0
M  V30 3768 C 345.972 1.38597 -1.36459 0
M  V30 3769 O 345.227 1.89634 -0.483458 0
M  V30 3770 C 345.526 0.286226 -3.56252 0
M  V30 3771 C 345.192 -0.952416 -4.40726 0
M  V30 3772 C 343.854 -1.29199 -4.63531 0
M  V30 3773 C 346.206 -1.77655 -4.89988 0
M  V30 3774 C 343.534 -2.45553 -5.32842 0
M  V30 3775 C 345.886 -2.93147 -5.60578 0
M  V30 3776 C 344.55 -3.27505 -5.81633 0
M  V30 3777 H 343.82 0.0245755 -0.740592 0
M  V30 3778 H 346.467 -0.640124 -1.80485 0
M  V30 3779 H 344.772 1.07587 -3.76739 0
M  V30 3780 H 346.469 0.726473 -3.94365 0
M  V30 3781 H 343.059 -0.677881 -4.23205 0
M  V30 3782 H 347.243 -1.52737 -4.72213 0
M  V30 3783 H 342.499 -2.72431 -5.47349 0
M  V30 3784 H 346.673 -3.57344 -5.97727 0
M  V30 3785 H 344.3 -4.1777 -6.35116 0
M  V30 3786 N 345.875 1.56104 -0.216619 0
M  V30 3787 C 347.1 2.0301 0.424462 0
M  V30 3788 C 347.525 1.0955 1.52907 0
M  V30 3789 O 346.883 0.0827914 1.81111 0
M  V30 3790 C 346.931 3.4819 0.937883 0
M  V30 3791 O 346.035 3.57865 2.04955 0
M  V30 3792 H 345.376 0.656925 0.0966755 0
M  V30 3793 H 347.906 2.01859 -0.33381 0
M  V30 3794 H 347.916 3.88413 1.24897 0
M  V30 3795 H 346.591 4.15699 0.129387 0
M  V30 3796 H 345.168 3.29527 1.74546 0
M  V30 3797 N 347.353 -0.0568162 1.57498 0
M  V30 3798 C 348.599 -0.75422 1.88253 0
M  V30 3799 C 348.932 -1.76461 0.810865 0
M  V30 3800 O 348.207 -1.93691 -0.177259 0
M  V30 3801 C 348.49 -1.44878 3.2967 0
M  V30 3802 C 348.343 -0.453789 4.47505 0
M  V30 3803 C 349.662 -2.38994 3.69554 0
M  V30 3804 H 346.781 -0.272724 0.684683 0
M  V30 3805 H 349.423 -0.0172113 1.89992 0
M  V30 3806 H 347.573 -2.077 3.28318 0
M  V30 3807 H 349.245 0.170371 4.60985 0
M  V30 3808 H 347.488 0.229552 4.33192 0
M  V30 3809 H 348.159 -0.977699 5.43273 0
M  V30 3810 H 350.635 -1.86239 3.72095 0
M  V30 3811 H 349.511 -2.84587 4.69363 0
M  V30 3812 H 349.772 -3.24461 3.00296 0
M  V30 3813 N 348.832 -1.54138 -0.328536 0
M  V30 3814 C 349.742 -1.86192 -1.42723 0
M  V30 3815 C 350.758 -0.753382 -1.56844 0
M  V30 3816 O 351.934 -1.04718 -1.72035 0
M  V30 3817 C 348.999 -2.07824 -2.77507 0
M  V30 3818 C 348.06 -3.31641 -2.72603 0
M  V30 3819 C 347.293 -3.52232 -4.00959 0
M  V30 3820 O 347.516 -2.7636 -4.9898 0
M  V30 3821 O 346.45 -4.45699 -4.0452 0
M  V30 3822 H 350.276 -2.79608 -1.18547 0
M  V30 3823 H 347.861 -1.3998 -0.522104 0
M  V30 3824 H 349.743 -2.23411 -3.57303 0
M  V30 3825 H 348.418 -1.17596 -3.01584 0
M  V30 3826 H 347.325 -3.21444 -1.91376 0
M  V30 3827 H 348.658 -4.2191 -2.53481 0
M  V30 3828 N 350.31 0.590341 -1.46126 0
M  V30 3829 C 351.557 1.34882 -1.5104 0
M  V30 3830 C 351.885 1.93849 -0.159021 0
M  V30 3831 O 351.14 1.76544 0.844436 0
M  V30 3832 C 351.439 2.5032 -2.55097 0
M  V30 3833 C 351.105 2.09394 -3.99331 0
M  V30 3834 C 349.767 1.97947 -4.38601 0
M  V30 3835 C 352.119 1.77712 -4.89967 0
M  V30 3836 C 349.447 1.53065 -5.66381 0
M  V30 3837 C 351.799 1.34312 -6.18177 0
M  V30 3838 C 350.463 1.21436 -6.56361 0
M  V30 3839 H 349.733 0.493568 -0.552695 0
M  V30 3840 H 352.38 0.665539 -1.79563 0
M  V30 3841 H 350.685 3.24062 -2.20207 0
M  V30 3842 H 352.382 3.08541 -2.56132 0
M  V30 3843 H 348.972 2.19235 -3.68285 0
M  V30 3844 H 353.156 1.85445 -4.60352 0
M  V30 3845 H 348.412 1.41733 -5.94745 0
M  V30 3846 H 352.586 1.08849 -6.87841 0
M  V30 3847 H 350.213 0.864345 -7.5527 0
M  V30 3848 N 351.788 1.33704 0.83433 0
M  V30 3849 C 352.718 1.26967 1.95963 0
M  V30 3850 C 353.699 0.149337 1.69443 0
M  V30 3851 O 354.884 0.339852 1.91203 0
M  V30 3852 C 352.014 1.01275 3.32206 0
M  V30 3853 C 350.968 2.09652 3.73136 0
M  V30 3854 C 350.294 1.69166 5.07235 0
M  V30 3855 C 351.594 3.51372 3.86439 0
M  V30 3856 H 353.288 2.2112 2.01857 0
M  V30 3857 H 350.834 1.06447 0.969793 0
M  V30 3858 H 352.787 0.952106 4.10503 0
M  V30 3859 H 351.511 0.0356203 3.26581 0
M  V30 3860 H 350.17 2.14766 2.97104 0
M  V30 3861 H 349.818 0.701437 4.98085 0
M  V30 3862 H 349.518 2.41694 5.35591 0
M  V30 3863 H 351.042 1.64576 5.88003 0
M  V30 3864 H 352.456 3.48734 4.55036 0
M  V30 3865 H 350.853 4.22425 4.26236 0
M  V30 3866 H 351.923 3.89546 2.88759 0
M  V30 3867 N 353.266 -1.05314 1.17247 0
M  V30 3868 C 354.176 -2.16538 0.90268 0
M  V30 3869 C 355.192 -1.73523 -0.128707 0
M  V30 3870 O 356.368 -2.01337 0.0502701 0
M  V30 3871 C 353.433 -3.44167 0.418356 0
M  V30 3872 C 352.494 -4.01635 1.51618 0
M  V30 3873 C 351.727 -5.23171 1.05487 0
M  V30 3874 O 351.95 -5.70327 -0.0914715 0
M  V30 3875 O 350.884 -5.72848 1.8474 0
M  V30 3876 H 354.71 -2.42145 1.83302 0
M  V30 3877 H 352.295 -1.15037 0.953246 0
M  V30 3878 H 354.177 -4.21112 0.155726 0
M  V30 3879 H 352.852 -3.20063 -0.48385 0
M  V30 3880 H 351.759 -3.26135 1.83268 0
M  V30 3881 H 353.092 -4.30053 2.39405 0
M  V30 3882 N 354.744 -0.972509 -1.24016 0
M  V30 3883 C 355.676 -0.464375 -2.24446 0
M  V30 3884 C 356.689 0.4295 -1.57032 0
M  V30 3885 O 357.878 0.234902 -1.76948 0
M  V30 3886 C 354.978 0.348385 -3.37105 0
M  V30 3887 C 354.151 -0.53673 -4.34094 0
M  V30 3888 C 353.21 0.220838 -5.25736 0
M  V30 3889 O 352.236 -0.386867 -5.67884 0
M  V30 3890 N 353.438 1.50907 -5.60542 0
M  V30 3891 H 356.203 -1.32788 -2.68677 0
M  V30 3892 H 353.764 -0.844877 -1.38107 0
M  V30 3893 H 355.756 0.863341 -3.95384 0
M  V30 3894 H 354.326 1.11285 -2.92121 0
M  V30 3895 H 353.546 -1.23261 -3.74433 0
M  V30 3896 H 354.834 -1.14022 -4.95859 0
M  V30 3897 H 354.232 2.02444 -5.28236 0
M  V30 3898 H 352.789 1.96962 -6.21329 0
M  V30 3899 N 356.222 1.38976 -0.743202 0
M  V30 3900 C 357.17 2.32394 -0.0978389 0
M  V30 3901 C 358.164 1.53486 0.716824 0
M  V30 3902 O 359.37 1.69092 0.617088 0
M  V30 3903 H 355.745 0.75189 -0.0128402 0
M  V30 3904 H 357.716 2.84441 -0.901981 0
M  V30 3905 C 356.465 3.38629 0.789036 0
M  V30 3906 H 355.788 3.99432 0.171559 0
M  V30 3907 H 357.228 4.06426 1.20807 0
M  V30 3908 C 355.687 2.76347 1.92702 0
M  V30 3909 O 356.217 2.64836 3.02034 0
M  V30 3910 N 354.423 2.34311 1.71891 0
M  V30 3911 H 353.97 2.43873 0.829675 0
M  V30 3912 H 353.928 1.9298 2.48205 0
M  V30 3913 N 357.7 0.491464 1.49741 0
M  V30 3914 C 358.925 -0.0557177 2.07325 0
M  V30 3915 C 359.35 -1.30925 1.35056 0
M  V30 3916 O 358.708 -1.76733 0.404365 0
M  V30 3917 C 358.756 -0.302074 3.59333 0
M  V30 3918 O 357.86 -1.37868 3.88672 0
M  V30 3919 H 357.201 0.0219956 0.663636 0
M  V30 3920 H 359.731 0.688352 1.92673 0
M  V30 3921 H 359.741 -0.536464 4.04458 0
M  V30 3922 H 358.416 0.61383 4.11345 0
M  V30 3923 H 356.993 -1.12999 3.55367 0
M  V30 3924 N 359.178 -1.55987 0.224894 0
M  V30 3925 C 360.126 -2.21808 -0.700283 0
M  V30 3926 C 361.12 -1.19854 -1.19714 0
M  V30 3927 O 362.326 -1.37925 -1.15658 0
M  V30 3928 H 358.701 -0.711226 -0.244258 0
M  V30 3929 H 360.672 -2.98152 -0.121749 0
M  V30 3930 C 359.421 -2.91444 -1.8962 0
M  V30 3931 H 358.744 -3.69655 -1.52299 0
M  V30 3932 H 360.184 -3.40894 -2.52125 0
M  V30 3933 C 358.643 -1.94098 -2.75368 0
M  V30 3934 O 359.173 -1.46004 -3.74227 0
M  V30 3935 N 357.379 -1.61675 -2.41474 0
M  V30 3936 H 356.926 -2.00979 -1.61137 0
M  V30 3937 H 356.884 -0.968036 -2.99126 0
M  V30 3938 N 360.656 0.0484629 -1.57525 0
M  V30 3939 C 361.566 1.07241 -2.08654 0
M  V30 3940 C 362.582 1.409 -1.02095 0
M  V30 3941 O 363.758 1.50609 -1.33712 0
M  V30 3942 C 360.823 2.36008 -2.5397 0
M  V30 3943 C 359.884 2.09108 -3.7493 0
M  V30 3944 C 359.117 3.31736 -4.18075 0
M  V30 3945 O 359.34 4.41714 -3.60895 0
M  V30 3946 O 358.274 3.18576 -5.10679 0
M  V30 3947 H 362.1 0.667965 -2.96263 0
M  V30 3948 H 359.685 0.26417 -1.47046 0
M  V30 3949 H 361.567 3.11747 -2.83535 0
M  V30 3950 H 360.242 2.75786 -1.69481 0
M  V30 3951 H 359.149 1.31 -3.50414 0
M  V30 3952 H 360.482 1.74198 -4.60343 0
M  V30 3953 N 362.134 1.5431 0.320358 0
M  V30 3954 C 363.38 1.72924 1.05949 0
M  V30 3955 C 363.713 0.503185 1.87568 0
M  V30 3956 O 362.988 -0.499839 1.87968 0
M  V30 3957 C 363.271 3.00676 1.98156 0
M  V30 3958 C 363.124 4.3354 1.19845 0
M  V30 3959 C 364.443 3.24198 2.9763 0
M  V30 3960 H 361.562 0.629195 0.383774 0
M  V30 3961 H 364.204 1.87008 0.335854 0
M  V30 3962 H 362.354 2.888 2.59859 0
M  V30 3963 H 364.026 4.57305 0.605773 0
M  V30 3964 H 362.269 4.309 0.500784 0
M  V30 3965 H 362.94 5.19156 1.87567 0
M  V30 3966 H 365.416 3.35557 2.4605 0
M  V30 3967 H 364.292 4.14938 3.59329 0
M  V30 3968 H 364.553 2.41577 3.7026 0
M  V30 3969 N 363.613 -0.582584 1.46437 0
M  V30 3970 C 364.545 -1.70618 1.53043 0
M  V30 3971 C 365.558 -1.57322 0.418769 0
M  V30 3972 O 366.747 -1.64744 0.687136 0
M  V30 3973 C 363.847 -3.08869 1.39474 0
M  V30 3974 C 363.02 -3.48166 2.64762 0
M  V30 3975 C 362.079 -4.65478 2.4539 0
M  V30 3976 O 361.105 -4.71333 3.19114 0
M  V30 3977 N 362.307 -5.60365 1.51564 0
M  V30 3978 H 365.072 -1.65405 2.49923 0
M  V30 3979 H 362.633 -0.768567 1.42494 0
M  V30 3980 H 364.625 -3.85143 1.24287 0
M  V30 3981 H 363.195 -3.08449 0.507758 0
M  V30 3982 H 362.415 -2.61598 2.9489 0
M  V30 3983 H 363.703 -3.71188 3.4799 0
M  V30 3984 H 363.101 -5.5837 0.907705 0
M  V30 3985 H 361.658 -6.36068 1.4234 0
M  V30 3986 N 365.091 -1.34144 -0.827227 0
M  V30 3987 C 366.001 -1.27428 -1.96975 0
M  V30 3988 C 367.017 -0.182728 -1.73038 0
M  V30 3989 O 368.193 -0.408426 -1.97215 0
M  V30 3990 C 365.258 -1.02526 -3.31194 0
M  V30 3991 C 364.319 -2.20796 -3.68168 0
M  V30 3992 C 363.552 -1.97073 -4.95982 0
M  V30 3993 O 363.775 -0.926822 -5.6282 0
M  V30 3994 O 362.709 -2.83912 -5.30733 0
M  V30 3995 H 366.535 -2.23537 -2.05584 0
M  V30 3996 H 364.12 -1.14307 -0.961989 0
M  V30 3997 H 366.002 -0.904026 -4.11589 0
M  V30 3998 H 364.677 -0.0945389 -3.23562 0
M  V30 3999 H 363.584 -2.38477 -2.88235 0
M  V30 4000 H 364.917 -3.12243 -3.8048 0
M  V30 4001 N 366.569 1.04691 -1.17803 0
M  V30 4002 C 367.815 1.78045 -0.970969 0
M  V30 4003 C 368.148 1.87686 0.498751 0
M  V30 4004 O 367.423 1.38035 1.37027 0
M  V30 4005 C 367.706 3.2166 -1.61884 0
M  V30 4006 C 367.559 3.20001 -3.161 0
M  V30 4007 C 368.878 4.1962 -1.3269 0
M  V30 4008 H 365.997 0.64633 -0.354155 0
M  V30 4009 H 368.639 1.22333 -1.45378 0
M  V30 4010 H 366.789 3.69232 -1.20831 0
M  V30 4011 H 368.461 2.80467 -3.66246 0
M  V30 4012 H 366.704 2.58203 -3.48588 0
M  V30 4013 H 367.375 4.21386 -3.56564 0
M  V30 4014 H 369.851 3.80567 -1.68249 0
M  V30 4015 H 368.727 5.18339 -1.80599 0
M  V30 4016 H 368.988 4.414 -0.248622 0
M  V30 4017 N 368.047 0.979072 1.23499 0
M  V30 4018 C 369.294 0.647219 1.91878 0
M  V30 4019 C 369.622 -0.819074 1.76413 0
M  V30 4020 O 368.877 -1.60616 1.11808 0
M  V30 4021 C 369.176 0.981932 3.43646 0
M  V30 4022 C 368.842 2.43822 3.79291 0
M  V30 4023 C 367.504 2.83622 3.88731 0
M  V30 4024 C 369.856 3.3828 3.96505 0
M  V30 4025 C 367.184 4.16897 4.12812 0
M  V30 4026 C 369.536 4.71197 4.22085 0
M  V30 4027 C 368.2 5.10758 4.29747 0
M  V30 4028 H 367.47 0.236834 0.702133 0
M  V30 4029 H 370.117 1.23268 1.46551 0
M  V30 4030 H 368.422 0.314365 3.90537 0
M  V30 4031 H 370.119 0.703395 3.94783 0
M  V30 4032 H 366.709 2.11966 3.72516 0
M  V30 4033 H 370.893 3.0871 3.88603 0
M  V30 4034 H 366.149 4.47157 4.16966 0
M  V30 4035 H 370.323 5.44348 4.34348 0
M  V30 4036 H 367.95 6.1405 4.48159 0
M  V30 4037 N 369.525 -1.3858 0.750561 0
M  V30 4038 C 370.488 -2.28836 0.129152 0
M  V30 4039 C 371.488 -1.47045 -0.650714 0
M  V30 4040 O 372.678 -1.6753 -0.477428 0
M  V30 4041 C 369.81 -3.30751 -0.825622 0
M  V30 4042 H 371.003 -2.85294 0.924516 0
M  V30 4043 H 368.556 -1.47489 0.517376 0
M  V30 4044 H 369.291 -2.79378 -1.64677 0
M  V30 4045 H 369.076 -3.91177 -0.268852 0
M  V30 4046 H 370.566 -3.98249 -1.2565 0
M  V30 4047 N 371.003 -0.499398 -1.49478 0
M  V30 4048 C 371.95 0.279881 -2.29097 0
M  V30 4049 C 372.92 0.961805 -1.3542 0
M  V30 4050 O 374.105 0.968777 -1.64376 0
M  V30 4051 C 371.245 1.33932 -3.18051 0
M  V30 4052 C 370.358 0.669333 -4.26783 0
M  V30 4053 C 369.493 1.70907 -5.02955 0
M  V30 4054 C 368.532 1.02087 -6.03527 0
M  V30 4055 N 367.669 2.00474 -6.7287 0
M  V30 4056 H 372.509 -0.405317 -2.95231 0
M  V30 4057 H 370.046 -0.211726 -1.45568 0
M  V30 4058 H 372.004 1.96553 -3.67998 0
M  V30 4059 H 370.634 1.9933 -2.53904 0
M  V30 4060 H 369.686 -0.0701234 -3.80335 0
M  V30 4061 H 370.998 0.127503 -4.98637 0
M  V30 4062 H 370.152 2.41037 -5.56764 0
M  V30 4063 H 368.891 2.28476 -4.30871 0
M  V30 4064 H 367.896 0.305338 -5.48951 0
M  V30 4065 H 369.121 0.451708 -6.77596 0
M  V30 4066 H 367.067 2.57007 -6.03559 0
M  V30 4067 H 366.984 1.51353 -7.40694 0
M  V30 4068 H 368.252 2.69897 -7.31284 0
M  V30 4069 N 372.481 1.55866 -0.233164 0
M  V30 4070 C 373.444 2.1953 0.658715 0
M  V30 4071 C 374.444 1.16053 1.11303 0
M  V30 4072 O 375.634 1.41218 1.01996 0
M  V30 4073 C 372.766 2.82791 1.90373 0
M  V30 4074 H 373.959 2.99721 0.10347 0
M  V30 4075 H 371.512 1.56291 0.0164245 0
M  V30 4076 H 372.247 2.06501 2.50056 0
M  V30 4077 H 372.032 3.58578 1.58632 0
M  V30 4078 H 373.522 3.31556 2.53891 0
M  V30 4079 N 373.959 -0.0401083 1.57549 0
M  V30 4080 C 375.206 -0.733125 1.88763 0
M  V30 4081 C 375.534 -1.75946 0.829058 0
M  V30 4082 O 374.789 -1.94949 -0.171323 0
M  V30 4083 C 375.088 -1.44902 3.26708 0
M  V30 4084 C 374.754 -0.559707 4.47413 0
M  V30 4085 C 373.416 -0.314731 4.8017 0
M  V30 4086 C 375.768 0.0549743 5.21171 0
M  V30 4087 C 373.096 0.553886 5.8408 0
M  V30 4088 C 375.448 0.911229 6.26003 0
M  V30 4089 C 374.112 1.16577 6.57241 0
M  V30 4090 H 373.382 -0.268269 0.690733 0
M  V30 4091 H 376.029 0.00679408 1.91499 0
M  V30 4092 H 374.334 -2.26197 3.1991 0
M  V30 4093 H 376.031 -1.99058 3.48105 0
M  V30 4094 H 372.621 -0.760793 4.21794 0
M  V30 4095 H 376.805 -0.121344 4.96152 0
M  V30 4096 H 372.061 0.759518 6.06664 0
M  V30 4097 H 376.235 1.3941 6.82303 0
M  V30 4098 H 373.862 1.84058 7.37582 0
M  V30 4099 N 375.437 -1.54477 -0.31217 0
M  V30 4100 C 376.4 -1.83923 -1.36766 0
M  V30 4101 C 377.4 -0.711563 -1.44199 0
M  V30 4102 O 378.59 -0.979866 -1.44029 0
M  V30 4103 C 375.722 -2.0095 -2.75376 0
M  V30 4104 H 376.915 -2.78239 -1.11906 0
M  V30 4105 H 374.468 -1.46369 -0.548257 0
M  V30 4106 H 375.203 -1.08883 -3.05475 0
M  V30 4107 H 374.988 -2.83018 -2.71373 0
M  V30 4108 H 376.478 -2.2514 -3.51713 0
M  V30 4109 N 376.915 0.57481 -1.46744 0
M  V30 4110 C 378.145 1.35659 -1.55821 0
M  V30 4111 C 378.553 1.88129 -0.201036 0
M  V30 4112 O 377.896 1.64723 0.813134 0
M  V30 4113 C 377.958 2.57473 -2.50894 0
M  V30 4114 C 377.622 2.26415 -3.9697 0
M  V30 4115 C 378.619 1.84771 -4.85958 0
M  V30 4116 C 376.304 2.38316 -4.42166 0
M  V30 4117 C 378.298 1.55434 -6.18158 0
M  V30 4118 C 375.985 2.08591 -5.74398 0
M  V30 4119 C 376.983 1.67216 -6.62214 0
M  V30 4120 O 376.671 1.37859 -7.91991 0
M  V30 4121 H 376.403 0.420496 -0.529301 0
M  V30 4122 H 378.957 0.704967 -1.92923 0
M  V30 4123 H 377.187 3.25468 -2.08824 0
M  V30 4124 H 378.876 3.19546 -2.50291 0
M  V30 4125 H 379.642 1.75085 -4.52295 0
M  V30 4126 H 375.521 2.69483 -3.74032 0
M  V30 4127 H 379.065 1.23065 -6.86659 0
M  V30 4128 H 374.962 2.17905 -6.07608 0
M  V30 4129 H 375.73 1.51638 -8.04331 0
M  V30 4130 N 378.394 1.34581 0.820102 0
M  V30 4131 C 379.624 1.29991 1.6058 0
M  V30 4132 C 380.032 -0.127588 1.88769 0
M  V30 4133 O 379.375 -1.08595 1.48165 0
M  V30 4134 C 379.437 2.02548 2.9701 0
M  V30 4135 C 379.101 3.51794 2.91701 0
M  V30 4136 C 380.098 4.46647 2.66087 0
M  V30 4137 C 377.783 3.94249 3.11245 0
M  V30 4138 C 379.777 5.81929 2.60071 0
M  V30 4139 C 377.464 5.2963 3.04853 0
M  V30 4140 C 378.462 6.23282 2.793 0
M  V30 4141 O 378.15 7.56181 2.72847 0
M  V30 4142 H 377.882 0.448539 0.505756 0
M  V30 4143 H 380.436 1.77811 1.02822 0
M  V30 4144 H 378.666 1.49345 3.56697 0
M  V30 4145 H 380.355 1.91211 3.58041 0
M  V30 4146 H 381.121 4.15168 2.5072 0
M  V30 4147 H 377 3.21749 3.30149 0
M  V30 4148 H 380.544 6.54999 2.40046 0
M  V30 4149 H 376.441 5.60727 3.19774 0
M  V30 4150 H 377.209 7.6595 2.88553 0
M  V30 4151 N 379.872 -1.04064 1.18357 0
M  V30 4152 C 381.121 -1.76662 0.973313 0
M  V30 4153 C 381.434 -1.89154 -0.497991 0
M  V30 4154 O 382.64 -2.58606 -0.826762 0
M  V30 4155 C 381.096 -3.17624 1.69242 0
M  V30 4156 C 380.704 -3.13225 3.20303 0
M  V30 4157 C 382.448 -3.946 1.56497 0
M  V30 4158 C 380.355 -4.49046 3.84853 0
M  V30 4159 H 379.285 -0.662214 0.36054 0
M  V30 4160 H 381.936 -1.16553 1.41731 0
M  V30 4161 H 380.318 -3.78129 1.1762 0
M  V30 4162 H 381.492 -2.62172 3.78949 0
M  V30 4163 H 379.807 -2.49749 3.33189 0
M  V30 4164 H 382.404 -4.95042 2.02084 0
M  V30 4165 H 382.747 -4.13074 0.517243 0
M  V30 4166 H 383.28 -3.4067 2.05399 0
M  V30 4167 H 380.019 -4.35777 4.89672 0
M  V30 4168 H 379.539 -5.00203 3.30994 0
M  V30 4169 H 381.218 -5.17961 3.87718 0
M  V30 4170 N 381.35 -0.985608 -1.22978 0
M  V30 4171 C 382.26 -0.538548 -2.28335 0
M  V30 4172 C 383.276 0.409163 -1.69121 0
M  V30 4173 O 384.452 0.277797 -1.99475 0
M  V30 4174 C 381.517 0.146867 -3.46389 0
M  V30 4175 C 380.578 -0.842896 -4.20944 0
M  V30 4176 C 379.811 -0.190095 -5.33361 0
M  V30 4177 O 380.034 1.01767 -5.61248 0
M  V30 4178 O 378.968 -0.891289 -5.95264 0
M  V30 4179 H 382.794 -1.41487 -2.68729 0
M  V30 4180 H 380.379 -0.753495 -1.29007 0
M  V30 4181 H 382.261 0.531125 -4.1804 0
M  V30 4182 H 380.936 0.997871 -3.07935 0
M  V30 4183 H 379.843 -1.27795 -3.51595 0
M  V30 4184 H 381.176 -1.66287 -4.6326 0
M  V30 4185 N 382.828 1.3818 -0.7579 0
M  V30 4186 C 384.239 1.82726 -0.383134 0
M  V30 4187 C 384.59 1.63214 1.08884 0
M  V30 4188 O 383.715 1.13566 1.84205 0
M  V30 4189 C 384.31 3.31728 -0.688631 0
M  V30 4190 C 382.869 3.74606 -0.367091 0
M  V30 4191 C 382.016 2.60896 -0.939599 0
M  V30 4192 H 384.967 1.26847 -0.953699 0
M  V30 4193 H 384.988 3.80487 0.0316492 0
M  V30 4194 H 384.5 3.45898 -1.76001 0
M  V30 4195 H 382.601 3.66013 0.697532 0
M  V30 4196 H 382.714 4.71215 -0.865658 0
M  V30 4197 H 381.078 2.52075 -0.3647 0
M  V30 4198 H 381.861 2.77864 -2.0161 0
M  V30 4199 N 384.306 0.507319 1.49211 0
M  V30 4200 C 385.238 -0.304532 2.27168 0
M  V30 4201 C 386.251 -0.924956 1.33972 0
M  V30 4202 O 387.44 -0.807227 1.59205 0
M  V30 4203 C 384.54 -1.44431 3.06583 0
M  V30 4204 C 383.713 -0.930026 4.27398 0
M  V30 4205 C 382.772 -1.94817 4.88807 0
M  V30 4206 O 381.798 -1.51418 5.4869 0
M  V30 4207 N 383 -3.279 4.79022 0
M  V30 4208 H 385.765 0.36395 2.97482 0
M  V30 4209 H 383.326 0.340249 1.58284 0
M  V30 4210 H 385.318 -2.12311 3.44537 0
M  V30 4211 H 383.888 -2.01684 2.38835 0
M  V30 4212 H 383.108 -0.0759244 3.94127 0
M  V30 4213 H 384.396 -0.564932 5.05654 0
M  V30 4214 H 383.794 -3.65843 4.3148 0
M  V30 4215 H 382.351 -3.91476 5.21142 0
M  V30 4216 N 385.784 -1.5574 0.241426 0
M  V30 4217 C 386.734 -2.17803 -0.674233 0
M  V30 4218 C 387.718 -1.13225 -1.14319 0
M  V30 4219 O 388.91 -1.39153 -1.09387 0
M  V30 4220 C 386.039 -2.87682 -1.87333 0
M  V30 4221 C 385.125 -3.99509 -1.42313 0
M  V30 4222 N 385.516 -5.01115 -0.686798 0
M  V30 4223 C 383.814 -4.11964 -1.70885 0
M  V30 4224 C 384.515 -5.79922 -0.454456 0
M  V30 4225 N 383.491 -5.34001 -1.01705 0
M  V30 4226 H 387.293 -2.93718 -0.103447 0
M  V30 4227 H 384.807 -1.62342 0.0435095 0
M  V30 4228 H 386.804 -3.3057 -2.54026 0
M  V30 4229 H 385.464 -2.13269 -2.4484 0
M  V30 4230 H 386.475 -5.16799 -0.337459 0
M  V30 4231 H 383.152 -3.48718 -2.2957 0
M  V30 4232 H 384.542 -6.71768 0.132992 0
M  V30 4233 N 387.262 0.0317525 -1.57568 0
M  V30 4234 C 388.678 0.38735 -1.54828 0
M  V30 4235 C 388.878 1.7677 -0.967187 0
M  V30 4236 O 387.934 2.45581 -0.587063 0
M  V30 4237 C 389.247 0.291667 -2.99282 0
M  V30 4238 C 390.795 0.368946 -3.10818 0
M  V30 4239 C 391.27 0.302741 -4.56998 0
M  V30 4240 N 392.761 0.361617 -4.61786 0
M  V30 4241 C 393.496 0.333238 -5.72431 0
M  V30 4242 N 392.992 0.257308 -6.92322 0
M  V30 4243 N 394.785 0.382769 -5.60795 0
M  V30 4244 H 386.936 -0.871609 -1.93692 0
M  V30 4245 H 389.199 -0.331161 -0.888277 0
M  V30 4246 H 388.905 -0.656794 -3.45513 0
M  V30 4247 H 388.779 1.08638 -3.61217 0
M  V30 4248 H 391.166 1.30784 -2.64536 0
M  V30 4249 H 391.247 -0.455066 -2.5172 0
M  V30 4250 H 390.891 -0.632473 -5.03947 0
M  V30 4251 H 390.821 1.14482 -5.14005 0
M  V30 4252 H 393.312 0.422923 -3.75526 0
M  V30 4253 H 393.625 0.24068 -7.72425 0
M  V30 4254 H 391.97 0.223396 -6.94641 0
M  V30 4255 H 395.161 0.44006 -4.66027 0
M  V30 4256 H 395.334 0.357184 -6.47015 0
M  V30 4257 N 388.74 1.54641 0.303973 0
M  V30 4258 C 390.017 1.64455 1.05896 0
M  V30 4259 C 390.397 0.490923 2.05312 0
M  V30 4260 O 389.745 -0.512685 2.22674 0
M  V30 4261 C 389.955 3.02331 1.74347 0
M  V30 4262 C 391.303 3.59045 2.26653 0
M  V30 4263 O 392.327 3.04764 1.84384 0
M  V30 4264 O 391.186 4.54081 3.04093 0
M  V30 4265 H 388.28 0.666729 0.489287 0
M  V30 4266 H 390.826 1.66986 0.302298 0
M  V30 4267 H 389.598 3.77734 1.02142 0
M  V30 4268 H 389.221 3.03565 2.56777 0
M  V30 4269 N 390.218 -0.567019 1.47046 0
M  V30 4270 C 391.464 -1.32658 1.53394 0
M  V30 4271 C 391.797 -1.93254 0.19148 0
M  V30 4272 O 391.072 -1.77338 -0.798844 0
M  V30 4273 C 391.355 -2.44412 2.64452 0
M  V30 4274 C 391.208 -1.88749 4.08282 0
M  V30 4275 C 392.527 -3.46387 2.71485 0
M  V30 4276 H 389.646 -0.48098 0.558415 0
M  V30 4277 H 392.288 -0.635481 1.79058 0
M  V30 4278 H 390.438 -3.03363 2.427 0
M  V30 4279 H 392.11 -1.34134 4.41368 0
M  V30 4280 H 390.353 -1.19481 4.17021 0
M  V30 4281 H 391.024 -2.69491 4.81745 0
M  V30 4282 H 393.5 -2.9734 2.91081 0
M  V30 4283 H 392.376 -4.2202 3.50985 0
M  V30 4284 H 392.637 -4.04616 1.78153 0
M  V30 4285 N 391.696 -1.35014 -0.812953 0
M  V30 4286 C 392.626 -1.30069 -1.93919 0
M  V30 4287 C 393.607 -0.176275 -1.69184 0
M  V30 4288 O 394.792 -0.370227 -1.90638 0
M  V30 4289 C 391.922 -1.06547 -3.30552 0
M  V30 4290 C 390.876 -2.15561 -3.69753 0
M  V30 4291 C 390.202 -1.77214 -5.04479 0
M  V30 4292 C 391.502 -3.57476 -3.808 0
M  V30 4293 H 393.196 -2.24303 -1.98314 0
M  V30 4294 H 390.742 -1.07977 -0.952736 0
M  V30 4295 H 392.695 -1.01729 -4.08937 0
M  V30 4296 H 391.419 -0.0875719 -3.26483 0
M  V30 4297 H 390.078 -2.19466 -2.9365 0
M  V30 4298 H 389.726 -0.780589 -4.96906 0
M  V30 4299 H 389.426 -2.50184 -5.31678 0
M  V30 4300 H 390.95 -1.7391 -5.8531 0
M  V30 4301 H 392.364 -3.55929 -4.4943 0
M  V30 4302 H 390.761 -4.29152 -4.19462 0
M  V30 4303 H 391.831 -3.94091 -2.82525 0
M  V30 4304 N 393.175 1.03435 -1.18907 0
M  V30 4305 C 394.107 2.1165 -0.879595 0
M  V30 4306 C 395.12 1.62316 0.125439 0
M  V30 4307 O 396.309 1.78201 -0.103245 0
M  V30 4308 C 393.409 3.37622 -0.294042 0
M  V30 4309 C 392.582 4.16166 -1.34629 0
M  V30 4310 C 391.641 5.20457 -0.775274 0
M  V30 4311 O 390.667 5.50379 -1.4516 0
M  V30 4312 N 391.869 5.78949 0.424126 0
M  V30 4313 H 394.634 2.38791 -1.81105 0
M  V30 4314 H 392.195 1.19681 -1.09032 0
M  V30 4315 H 394.187 4.04572 0.101679 0
M  V30 4316 H 392.757 3.07873 0.541575 0
M  V30 4317 H 391.977 3.44444 -1.91707 0
M  V30 4318 H 393.265 4.65432 -2.05549 0
M  V30 4319 H 392.663 5.56948 0.991209 0
M  V30 4320 H 391.22 6.47334 0.761691 0
M  V30 4321 N 394.653 0.992116 1.22453 0
M  V30 4322 C 395.583 0.561677 2.26644 0
M  V30 4323 C 396.564 -0.411055 1.65059 0
M  V30 4324 O 397.749 -0.301861 1.9184 0
M  V30 4325 C 394.879 -0.125247 3.47074 0
M  V30 4326 C 393.833 0.765948 4.21091 0
M  V30 4327 C 393.159 -0.0538484 5.34673 0
M  V30 4328 C 394.459 2.06242 4.79856 0
M  V30 4329 H 396.153 1.43259 2.62902 0
M  V30 4330 H 393.699 0.690283 1.26377 0
M  V30 4331 H 395.652 -0.437764 4.1912 0
M  V30 4332 H 394.376 -1.03069 3.0991 0
M  V30 4333 H 393.035 1.0621 3.50878 0
M  V30 4334 H 392.683 -0.960188 4.9375 0
M  V30 4335 H 392.383 0.539415 5.85119 0
M  V30 4336 H 393.907 -0.360477 6.09535 0
M  V30 4337 H 395.321 1.8139 5.43848 0
M  V30 4338 H 393.718 2.60444 5.40638 0
M  V30 4339 H 394.788 2.74167 3.99951 0
M  V30 4340 N 396.131 -1.37776 0.765217 0
M  V30 4341 C 397.361 -2.03828 0.337277 0
M  V30 4342 C 397.769 -1.57841 -1.04321 0
M  V30 4343 O 397.112 -0.752043 -1.67601 0
M  V30 4344 C 397.174 -3.58292 0.294407 0
M  V30 4345 C 396.838 -4.27384 1.61838 0
M  V30 4346 C 397.835 -4.51956 2.56967 0
M  V30 4347 C 395.52 -4.65345 1.89102 0
M  V30 4348 C 397.514 -5.13536 3.77571 0
M  V30 4349 C 395.201 -5.26647 3.09978 0
M  V30 4350 C 396.199 -5.50679 4.04032 0
M  V30 4351 O 395.887 -6.10702 5.2278 0
M  V30 4352 H 395.619 -0.661292 0.140248 0
M  V30 4353 H 398.173 -1.77222 1.03834 0
M  V30 4354 H 396.403 -3.83918 -0.462983 0
M  V30 4355 H 398.092 -4.05763 -0.105581 0
M  V30 4356 H 398.858 -4.23048 2.37183 0
M  V30 4357 H 394.737 -4.45978 1.16725 0
M  V30 4358 H 398.281 -5.3221 4.50997 0
M  V30 4359 H 394.178 -5.54979 3.29649 0
M  V30 4360 H 394.946 -6.29183 5.23517 0
M  V30 4361 N 397.609 -0.515225 -1.4894 0
M  V30 4362 C 398.572 0.244681 -2.2789 0
M  V30 4363 C 399.572 0.881166 -1.34507 0
M  V30 4364 O 400.762 0.743497 -1.57537 0
M  V30 4365 C 397.894 1.35247 -3.12923 0
M  V30 4366 H 399.087 -0.448289 -2.96531 0
M  V30 4367 H 396.64 -0.270656 -1.53939 0
M  V30 4368 H 397.375 2.07916 -2.48881 0
M  V30 4369 H 397.16 0.901374 -3.81599 0
M  V30 4370 H 398.65 1.88737 -3.72516 0
M  V30 4371 N 399.087 1.5561 -0.249682 0
M  V30 4372 C 400.498 1.84979 0.252949 0
M  V30 4373 C 400.849 1.17153 1.57384 0
M  V30 4374 O 399.974 0.450884 2.11651 0
M  V30 4375 C 400.569 3.35584 0.465732 0
M  V30 4376 C 399.128 3.65169 0.912624 0
M  V30 4377 C 398.275 2.77299 -0.00859085 0
M  V30 4378 H 401.226 1.51513 -0.47217 0
M  V30 4379 H 401.247 3.57313 1.30795 0
M  V30 4380 H 400.759 3.8492 -0.49579 0
M  V30 4381 H 398.86 3.21312 1.88652 0
M  V30 4382 H 398.973 4.72912 0.767559 0
M  V30 4383 H 397.337 2.49678 0.50327 0
M  V30 4384 H 398.12 3.29442 -0.965537 0
M  V30 4385 N 400.565 -0.0233959 1.57583 0
M  V30 4386 C 401.475 -1.03907 2.10334 0
M  V30 4387 C 402.491 -1.39257 1.04323 0
M  V30 4388 O 403.667 -1.48462 1.36091 0
M  V30 4389 C 400.732 -2.31938 2.57693 0
M  V30 4390 C 399.793 -2.03117 3.78209 0
M  V30 4391 C 399.026 -3.25043 4.233 0
M  V30 4392 O 399.249 -4.35916 3.67876 0
M  V30 4393 O 398.183 -3.10411 5.15683 0
M  V30 4394 H 402.009 -0.620748 2.97288 0
M  V30 4395 H 399.594 -0.240743 1.47448 0
M  V30 4396 H 401.476 -3.07196 2.88458 0
M  V30 4397 H 400.151 -2.73055 1.73847 0
M  V30 4398 H 399.058 -1.25408 3.52454 0
M  V30 4399 H 400.391 -1.66852 4.63056 0
M  V30 4400 N 402.043 -1.548 -0.295768 0
M  V30 4401 C 403.006 -1.85363 -1.34808 0
M  V30 4402 C 404.006 -0.726817 -1.43436 0
M  V30 4403 O 405.196 -0.995088 -1.42981 0
M  V30 4404 C 402.328 -2.03859 -2.73229 0
M  V30 4405 H 403.521 -2.7941 -1.08949 0
M  V30 4406 H 401.074 -1.46942 -0.532702 0
M  V30 4407 H 401.809 -1.12117 -3.04303 0
M  V30 4408 H 401.594 -2.8588 -2.68356 0
M  V30 4409 H 403.084 -2.28857 -3.49305 0
M  V30 4410 N 403.521 0.559213 -1.47345 0
M  V30 4411 C 404.768 1.31648 -1.53867 0
M  V30 4412 C 405.096 1.93468 -0.200104 0
M  V30 4413 O 404.351 1.78295 0.806799 0
M  V30 4414 C 404.65 2.44853 -2.6035 0
M  V30 4415 C 404.316 2.00876 -4.03683 0
M  V30 4416 C 402.978 1.88599 -4.42701 0
M  V30 4417 C 405.33 1.67279 -4.93626 0
M  V30 4418 C 402.658 1.41017 -5.69501 0
M  V30 4419 C 405.01 1.21169 -6.20887 0
M  V30 4420 C 403.674 1.07487 -6.58789 0
M  V30 4421 H 402.944 0.481734 -0.56304 0
M  V30 4422 H 405.591 0.627301 -1.80934 0
M  V30 4423 H 403.896 3.19318 -2.27032 0
M  V30 4424 H 405.593 3.03039 -2.62619 0
M  V30 4425 H 402.183 2.11374 -3.72853 0
M  V30 4426 H 406.367 1.75638 -4.64182 0
M  V30 4427 H 401.623 1.29086 -5.97618 0
M  V30 4428 H 405.797 0.942345 -6.89995 0
M  V30 4429 H 403.424 0.703946 -7.56934 0
M  V30 4430 N 404.999 1.35443 0.805782 0
M  V30 4431 C 405.947 1.28465 1.93906 0
M  V30 4432 C 406.941 0.17943 1.68447 0
M  V30 4433 O 408.147 0.345459 1.76654 0
M  V30 4434 H 404.522 0.399528 0.637088 0
M  V30 4435 H 406.493 2.24206 1.96912 0
M  V30 4436 C 405.242 1.07432 3.30687 0
M  V30 4437 H 404.565 1.91716 3.50835 0
M  V30 4438 H 406.005 1.06591 4.10383 0
M  V30 4439 C 404.464 -0.22179 3.36169 0
M  V30 4440 O 404.994 -1.21731 3.82811 0
M  V30 4441 N 403.2 -0.260841 2.89427 0
M  V30 4442 H 402.747 0.549884 2.51663 0
M  V30 4443 H 402.705 -1.12777 2.93477 0
M  V30 4444 N 406.477 -1.02803 1.19454 0
M  V30 4445 C 407.707 -1.79581 1.02149 0
M  V30 4446 C 408.115 -1.84182 -0.432851 0
M  V30 4447 O 407.458 -1.28534 -1.31243 0
M  V30 4448 C 407.52 -3.25993 1.51554 0
M  V30 4449 C 407.184 -3.45025 2.99678 0
M  V30 4450 C 408.181 -3.35175 3.97434 0
M  V30 4451 C 405.866 -3.71212 3.38389 0
M  V30 4452 C 407.86 -3.51238 5.31893 0
M  V30 4453 C 405.547 -3.8692 4.73008 0
M  V30 4454 C 406.545 -3.76936 5.69569 0
M  V30 4455 O 406.233 -3.92179 7.01748 0
M  V30 4456 H 405.965 -0.571962 0.360327 0
M  V30 4457 H 408.519 -1.30367 1.58725 0
M  V30 4458 H 406.749 -3.76235 0.893543 0
M  V30 4459 H 408.438 -3.84368 1.30444 0
M  V30 4460 H 409.204 -3.14895 3.68872 0
M  V30 4461 H 405.083 -3.78075 2.6378 0
M  V30 4462 H 408.627 -3.43362 6.07247 0
M  V30 4463 H 404.524 -4.06699 5.01265 0
M  V30 4464 H 405.292 -4.09265 7.08833 0
M  V30 4465 N 407.956 -0.998596 -1.21925 0
M  V30 4466 C 408.889 -0.498517 -2.22688 0
M  V30 4467 C 409.867 0.444301 -1.56412 0
M  V30 4468 O 411.051 0.368518 -1.84863 0
M  V30 4469 C 408.178 0.276639 -3.37568 0
M  V30 4470 C 407.224 -0.61302 -4.22071 0
M  V30 4471 S 408.057 -2.07168 -4.93803 0
M  V30 4472 C 409.213 -1.30617 -6.12119 0
M  V30 4473 H 409.446 -1.35234 -2.64762 0
M  V30 4474 H 406.979 -0.806018 -1.31692 0
M  V30 4475 H 408.937 0.717817 -4.04175 0
M  V30 4476 H 407.598 1.10581 -2.93991 0
M  V30 4477 H 406.791 -0.0162909 -5.03997 0
M  V30 4478 H 406.393 -0.991202 -3.60626 0
M  V30 4479 H 408.685 -0.57675 -6.75041 0
M  V30 4480 H 409.628 -2.10091 -6.76215 0
M  V30 4481 H 410.036 -0.816957 -5.58557 0
M  V30 4482 N 409.434 1.37368 -0.772513 0
M  V30 4483 C 410.711 1.93839 -0.26188 0
M  V30 4484 C 411.091 1.7061 1.24319 0
M  V30 4485 O 410.439 1.05534 2.02669 0
M  V30 4486 C 410.649 3.43154 -0.636102 0
M  V30 4487 C 411.997 4.20249 -0.606324 0
M  V30 4488 O 413.021 3.5152 -0.575538 0
M  V30 4489 O 411.88 5.42809 -0.634086 0
M  V30 4490 H 408.974 0.82478 -0.0605555 0
M  V30 4491 H 411.52 1.4665 -0.853917 0
M  V30 4492 H 410.292 3.53647 -1.6748 0
M  V30 4493 H 409.915 3.97596 -0.0170516 0
M  V30 4494 N 410.912 0.523116 1.48665 0
M  V30 4495 C 411.859 -0.243398 2.29513 0
M  V30 4496 C 412.829 -0.940139 1.36933 0
M  V30 4497 O 414.014 -0.942503 1.65896 0
M  V30 4498 C 411.154 -1.28855 3.20141 0
M  V30 4499 C 410.267 -0.60135 4.27794 0
M  V30 4500 C 409.402 -1.62884 5.05611 0
M  V30 4501 C 408.441 -0.924726 6.05075 0
M  V30 4502 N 407.578 -1.89744 6.75975 0
M  V30 4503 H 412.418 0.452234 2.94549 0
M  V30 4504 H 409.955 0.234858 1.45213 0
M  V30 4505 H 411.913 -1.90674 3.71079 0
M  V30 4506 H 410.543 -1.95266 2.57043 0
M  V30 4507 H 409.595 0.130623 3.80176 0
M  V30 4508 H 410.907 -0.0481585 4.98777 0
M  V30 4509 H 410.061 -2.32149 5.60528 0
M  V30 4510 H 408.8 -2.21592 4.34452 0
M  V30 4511 H 407.805 -0.217966 5.49368 0
M  V30 4512 H 409.03 -0.343851 6.78229 0
M  V30 4513 H 406.976 -2.47373 6.07571 0
M  V30 4514 H 406.893 -1.3955 7.43009 0
M  V30 4515 H 408.161 -2.58229 7.35485 0
M  V30 4516 N 412.39 -1.55475 0.257931 0
M  V30 4517 C 413.637 -1.99207 -0.363728 0
M  V30 4518 C 413.965 -1.1462 -1.57139 0
M  V30 4519 O 413.22 -0.199653 -1.94679 0
M  V30 4520 C 413.519 -3.48183 -0.806433 0
M  V30 4521 C 413.185 -4.49936 0.294684 0
M  V30 4522 C 411.847 -4.77481 0.597076 0
M  V30 4523 C 414.199 -5.10769 1.03751 0
M  V30 4524 C 411.527 -5.63132 1.64618 0
M  V30 4525 C 413.879 -5.97558 2.07622 0
M  V30 4526 C 412.543 -6.23432 2.38514 0
M  V30 4527 H 411.813 -0.728949 -0.133097 0
M  V30 4528 H 414.46 -1.8793 0.368059 0
M  V30 4529 H 412.765 -3.56848 -1.61761 0
M  V30 4530 H 414.462 -3.79415 -1.29789 0
M  V30 4531 H 411.052 -4.28572 0.0488649 0
M  V30 4532 H 415.236 -4.89527 0.817149 0
M  V30 4533 H 410.492 -5.8143 1.89074 0
M  V30 4534 H 414.666 -6.43735 2.65666 0
M  V30 4535 H 412.293 -6.89594 3.19943 0
M  V30 4536 N 413.868 0.0150385 -1.57593 0
M  V30 4537 C 414.816 1.02958 -2.08572 0
M  V30 4538 C 415.81 1.36554 -1.00246 0
M  V30 4539 O 417.016 1.35295 -1.18724 0
M  V30 4540 H 413.391 0.349619 -0.665786 0
M  V30 4541 H 415.362 0.573932 -2.92829 0
M  V30 4542 C 414.111 2.31752 -2.59203 0
M  V30 4543 H 413.434 2.06765 -3.42182 0
M  V30 4544 H 414.874 3.01053 -2.98568 0
M  V30 4545 C 413.333 3.01692 -1.49945 0
M  V30 4546 O 413.863 3.92083 -0.873704 0
M  V30 4547 N 412.069 2.6326 -1.23056 0
M  V30 4548 H 411.616 1.89838 -1.74125 0
M  V30 4549 H 411.574 3.10372 -0.501685 0
M  V30 4550 N 415.346 1.54954 0.287554 0
M  V30 4551 C 416.256 1.8991 1.37736 0
M  V30 4552 C 417.272 0.794701 1.54792 0
M  V30 4553 O 418.448 1.09243 1.69198 0
M  V30 4554 C 415.513 2.15108 2.71899 0
M  V30 4555 C 414.574 3.38752 2.63715 0
M  V30 4556 C 413.807 3.62739 3.91479 0
M  V30 4557 O 414.03 2.89492 4.91478 0
M  V30 4558 O 412.964 4.56267 3.92561 0
M  V30 4559 H 416.79 2.82652 1.11092 0
M  V30 4560 H 414.375 1.41315 0.484807 0
M  V30 4561 H 416.257 2.32806 3.51254 0
M  V30 4562 H 414.932 1.25551 2.9836 0
M  V30 4563 H 413.839 3.26405 1.82786 0
M  V30 4564 H 415.172 4.28483 2.42205 0
M  V30 4565 N 416.824 -0.551391 1.4764 0
M  V30 4566 C 417.756 -1.67333 1.56628 0
M  V30 4567 C 418.769 -1.56398 0.452045 0
M  V30 4568 O 419.958 -1.6325 0.721926 0
M  V30 4569 C 417.058 -3.05841 1.45994 0
M  V30 4570 C 416.231 -3.42472 2.72088 0
M  V30 4571 C 415.29 -4.60168 2.55209 0
M  V30 4572 O 414.316 -4.64458 3.2904 0
M  V30 4573 N 415.518 -5.57024 1.63416 0
M  V30 4574 H 418.283 -1.60066 2.53375 0
M  V30 4575 H 415.844 -0.738169 1.44093 0
M  V30 4576 H 417.836 -3.8242 1.32428 0
M  V30 4577 H 416.406 -3.07302 0.573071 0
M  V30 4578 H 415.626 -2.55284 3.00373 0
M  V30 4579 H 416.914 -3.63723 3.55785 0
M  V30 4580 H 416.312 -5.56319 1.02594 0
M  V30 4581 H 414.869 -6.32906 1.558 0
M  V30 4582 N 418.302 -1.35869 -0.798587 0
M  V30 4583 C 419.212 -1.31578 -1.94228 0
M  V30 4584 C 420.228 -0.21939 -1.72611 0
M  V30 4585 O 421.404 -0.450167 -1.96305 0
M  V30 4586 C 418.469 -1.09528 -3.28944 0
M  V30 4587 C 417.53 -2.28556 -3.63402 0
M  V30 4588 C 416.763 -2.07549 -4.9169 0
M  V30 4589 O 416.986 -1.046 -5.60727 0
M  V30 4590 O 415.92 -2.95106 -5.24591 0
M  V30 4591 H 419.746 -2.27847 -2.00796 0
M  V30 4592 H 417.331 -1.16322 -0.937526 0
M  V30 4593 H 419.213 -0.991127 -4.09579 0
M  V30 4594 H 417.888 -0.16315 -3.23289 0
M  V30 4595 H 416.795 -2.44538 -2.83112 0
M  V30 4596 H 418.128 -3.20244 -3.73771 0
M  V30 4597 N 419.78 1.02168 -1.19998 0
M  V30 4598 C 421.029 1.75091 -1.0013 0
M  V30 4599 C 421.342 1.89923 0.467835 0
M  V30 4600 O 422.548 2.59888 0.785515 0
M  V30 4601 C 421.004 3.14892 -1.74273 0
M  V30 4602 C 420.612 3.0809 -3.25245 0
M  V30 4603 C 422.356 3.9206 -1.62755 0
M  V30 4604 C 420.263 4.42867 -3.91948 0
M  V30 4605 H 419.193 0.656394 -0.37103 0
M  V30 4606 H 421.844 1.14284 -1.43567 0
M  V30 4607 H 420.226 3.7621 -1.2362 0
M  V30 4608 H 421.4 2.5611 -3.83072 0
M  V30 4609 H 419.715 2.44416 -3.3712 0
M  V30 4610 H 422.312 4.91764 -2.09934 0
M  V30 4611 H 422.655 4.12199 -0.582894 0
M  V30 4612 H 423.188 3.37359 -2.10793 0
M  V30 4613 H 419.927 4.27931 -4.96543 0
M  V30 4614 H 419.447 4.94874 -3.3891 0
M  V30 4615 H 421.126 5.11728 -3.95909 0
M  V30 4616 N 421.258 1.00505 1.21394 0
M  V30 4617 C 422.206 0.558623 2.25792 0
M  V30 4618 C 423.2 -0.396848 1.64686 0
M  V30 4619 O 424.406 -0.268035 1.77993 0
M  V30 4620 H 420.781 0.1623 0.734277 0
M  V30 4621 H 422.752 1.4503 2.60785 0
M  V30 4622 C 421.501 -0.0989574 3.47559 0
M  V30 4623 H 420.824 0.627225 3.94849 0
M  V30 4624 H 422.264 -0.3746 4.22342 0
M  V30 4625 C 420.723 -1.33817 3.09184 0
M  V30 4626 O 421.253 -2.43252 3.19674 0
M  V30 4627 N 419.459 -1.21793 2.63846 0
M  V30 4628 H 419.006 -0.32746 2.5551 0
M  V30 4629 H 418.964 -2.04809 2.38539 0
M  V30 4630 N 422.737 -1.36956 0.779787 0
M  V30 4631 C 423.667 -2.32761 0.185651 0
M  V30 4632 C 424.648 -1.56177 -0.673989 0
M  V30 4633 O 425.833 -1.84378 -0.609797 0
M  V30 4634 C 422.963 -3.40418 -0.687964 0
M  V30 4635 C 421.917 -4.27941 0.0710102 0
M  V30 4636 C 421.243 -5.26681 -0.922573 0
M  V30 4637 C 422.543 -5.07006 1.25467 0
M  V30 4638 H 424.237 -2.82698 0.986008 0
M  V30 4639 H 421.783 -1.3592 0.475592 0
M  V30 4640 H 423.736 -4.06423 -1.11348 0
M  V30 4641 H 422.46 -2.89025 -1.52093 0
M  V30 4642 H 421.119 -3.63478 0.47739 0
M  V30 4643 H 420.767 -4.71565 -1.7503 0
M  V30 4644 H 420.467 -5.86103 -0.419237 0
M  V30 4645 H 421.991 -5.9556 -1.34686 0
M  V30 4646 H 423.405 -5.66105 0.905401 0
M  V30 4647 H 421.802 -5.75793 1.69063 0
M  V30 4648 H 422.872 -4.3921 2.05481 0
M  V30 4649 N 424.215 -0.530993 -1.48385 0
M  V30 4650 C 425.44 0.000729535 -2.074 0
M  V30 4651 C 425.865 1.27298 -1.3848 0
M  V30 4652 O 425.223 1.75599 -0.451081 0
M  V30 4653 C 425.271 0.206697 -3.60007 0
M  V30 4654 O 424.375 1.27514 -3.92191 0
M  V30 4655 H 423.716 -0.039583 -0.662819 0
M  V30 4656 H 426.246 -0.739194 -1.9078 0
M  V30 4657 H 426.256 0.42904 -4.05738 0
M  V30 4658 H 424.931 -0.722675 -4.09573 0
M  V30 4659 H 423.508 1.03537 -3.58238 0
M  V30 4660 N 425.693 1.55336 -0.266172 0
M  V30 4661 C 426.623 2.25146 0.618981 0
M  V30 4662 C 427.604 1.23845 1.16604 0
M  V30 4663 O 428.789 1.52544 1.20183 0
M  V30 4664 C 425.919 2.96572 1.80728 0
M  V30 4665 C 424.873 4.04726 1.39215 0
M  V30 4666 C 424.199 4.63678 2.66283 0
M  V30 4667 C 425.499 5.19407 0.548942 0
M  V30 4668 H 427.193 2.99377 0.0368116 0
M  V30 4669 H 424.739 1.43991 0.0162651 0
M  V30 4670 H 426.692 3.44116 2.43232 0
M  V30 4671 H 425.416 2.19861 2.41514 0
M  V30 4672 H 424.075 3.57979 0.790351 0
M  V30 4673 H 423.723 3.83646 3.25308 0
M  V30 4674 H 423.423 5.367 2.39222 0
M  V30 4675 H 424.947 5.13967 3.29651 0
M  V30 4676 H 426.361 5.63059 1.07876 0
M  V30 4677 H 424.758 5.98936 0.373593 0
M  V30 4678 H 425.828 4.8295 -0.434394 0
M  V30 4679 N 427.171 -0.0066808 1.57599 0
M  V30 4680 C 428.081 -1.01671 2.11424 0
M  V30 4681 C 429.097 -1.38143 1.05795 0
M  V30 4682 O 430.273 -1.47011 1.37658 0
M  V30 4683 C 427.338 -2.29192 2.60139 0
M  V30 4684 C 426.399 -1.99094 3.80342 0
M  V30 4685 C 425.632 -3.20535 4.26724 0
M  V30 4686 O 425.855 -4.3199 3.72479 0
M  V30 4687 O 424.789 -3.04924 5.18946 0
M  V30 4688 H 428.615 -0.589181 2.9793 0
M  V30 4689 H 426.2 -0.225091 1.47695 0
M  V30 4690 H 428.082 -3.0412 2.917 0
M  V30 4691 H 426.757 -2.71195 1.76733 0
M  V30 4692 H 425.664 -1.21663 3.53764 0
M  V30 4693 H 426.997 -1.61931 4.648 0
M  V30 4694 N 428.649 -1.55105 -0.279332 0
M  V30 4695 C 429.559 -1.90638 -1.36727 0
M  V30 4696 C 430.575 -0.802899 -1.54368 0
M  V30 4697 O 431.751 -1.10138 -1.68616 0
M  V30 4698 C 428.816 -2.16547 -2.70755 0
M  V30 4699 C 427.877 -3.40146 -2.61915 0
M  V30 4700 C 427.11 -3.6481 -3.8955 0
M  V30 4701 O 427.333 -2.92095 -4.89935 0
M  V30 4702 O 426.267 -4.58343 -3.90135 0
M  V30 4703 H 430.093 -2.83237 -1.09591 0
M  V30 4704 H 427.678 -1.4157 -0.477306 0
M  V30 4705 H 429.56 -2.34665 -3.50014 0
M  V30 4706 H 428.235 -1.27131 -2.9769 0
M  V30 4707 H 427.142 -3.2737 -1.81052 0
M  V30 4708 H 428.475 -4.29761 -2.3993 0
M  V30 4709 N 430.127 0.543554 -1.4793 0
M  V30 4710 C 431.057 1.65888 -1.64327 0
M  V30 4711 C 432.038 1.62818 -0.492383 0
M  V30 4712 O 433.223 1.80226 -0.723338 0
M  V30 4713 C 430.353 3.04506 -1.67013 0
M  V30 4714 C 429.307 3.2243 -2.81466 0
M  V30 4715 C 428.633 4.61972 -2.69233 0
M  V30 4716 C 429.933 3.06496 -4.22915 0
M  V30 4717 H 431.627 1.52421 -2.57698 0
M  V30 4718 H 429.173 0.731849 -1.24016 0
M  V30 4719 H 431.126 3.82391 -1.77074 0
M  V30 4720 H 429.85 3.18964 -0.70212 0
M  V30 4721 H 428.509 2.46957 -2.70938 0
M  V30 4722 H 428.157 4.73247 -1.7043 0
M  V30 4723 H 427.857 4.74911 -3.46025 0
M  V30 4724 H 429.381 5.41974 -2.81242 0
M  V30 4725 H 430.795 3.74186 -4.34348 0
M  V30 4726 H 429.192 3.30938 -5.006 0
M  V30 4727 H 430.262 2.03077 -4.40327 0
M  V30 4728 N 431.605 1.3629 0.791371 0
M  V30 4729 C 432.552 1.30458 1.90393 0
M  V30 4730 C 433.522 0.173632 1.6519 0
M  V30 4731 O 434.707 0.35983 1.87376 0
M  V30 4732 C 431.847 1.09777 3.27174 0
M  V30 4733 C 430.96 2.31929 3.64462 0
M  V30 4734 C 430.095 2.04276 4.90352 0
M  V30 4735 C 429.134 3.224 5.20312 0
M  V30 4736 N 428.271 2.94424 6.37385 0
M  V30 4737 H 433.111 2.25589 1.94714 0
M  V30 4738 H 430.648 1.12122 0.952216 0
M  V30 4739 H 432.606 0.958133 4.06049 0
M  V30 4740 H 431.236 0.183014 3.22281 0
M  V30 4741 H 430.288 2.56703 2.80727 0
M  V30 4742 H 431.6 3.20085 3.82553 0
M  V30 4743 H 430.754 1.87231 5.77087 0
M  V30 4744 H 429.493 1.13428 4.74326 0
M  V30 4745 H 428.498 3.40005 4.32061 0
M  V30 4746 H 429.723 4.14071 5.38258 0
M  V30 4747 H 427.669 2.06185 6.22755 0
M  V30 4748 H 427.586 3.76118 6.55798 0
M  V30 4749 H 428.854 2.80953 7.27108 0
M  V30 4750 N 433.083 -1.0153 1.20538 0
M  V30 4751 C 434.36 -1.72327 0.925343 0
M  V30 4752 C 434.74 -2.03383 -0.565547 0
M  V30 4753 O 434.088 -1.69934 -1.52757 0
M  V30 4754 C 434.298 -2.9902 1.79967 0
M  V30 4755 C 435.646 -3.72258 2.04228 0
M  V30 4756 O 436.67 -3.08979 1.77231 0
M  V30 4757 O 435.529 -4.86053 2.4983 0
M  V30 4758 H 432.623 -0.751099 0.346092 0
M  V30 4759 H 435.169 -1.07366 1.31417 0
M  V30 4760 H 433.941 -2.72402 2.80915 0
M  V30 4761 H 433.564 -3.71721 1.41099 0
M  V30 4762 N 434.561 -1.01147 -1.20859 0
M  V30 4763 C 435.493 -0.535546 -2.22855 0
M  V30 4764 C 436.506 0.379323 -1.58319 0
M  V30 4765 O 437.695 0.178489 -1.77605 0
M  V30 4766 C 434.795 0.240962 -3.38042 0
M  V30 4767 C 433.968 -0.674562 -4.32167 0
M  V30 4768 C 433.027 0.053467 -5.26173 0
M  V30 4769 O 432.053 -0.567339 -5.66366 0
M  V30 4770 N 433.255 1.32997 -5.65059 0
M  V30 4771 H 436.02 -1.41268 -2.64317 0
M  V30 4772 H 433.581 -0.888386 -1.35349 0
M  V30 4773 H 435.573 0.737115 -3.97931 0
M  V30 4774 H 434.143 1.01935 -2.95513 0
M  V30 4775 H 433.363 -1.35111 -3.70322 0
M  V30 4776 H 434.651 -1.2974 -4.91981 0
M  V30 4777 H 434.049 1.85536 -5.34409 0
M  V30 4778 H 432.606 1.77095 -6.2728 0
M  V30 4779 N 436.039 1.36541 -0.78704 0
M  V30 4780 C 437.455 1.52571 -0.46844 0
M  V30 4781 C 437.655 1.7415 1.01361 0
M  V30 4782 O 436.711 1.77163 1.79915 0
M  V30 4783 C 438.024 2.71299 -1.29682 0
M  V30 4784 C 439.572 2.85169 -1.29027 0
M  V30 4785 C 440.047 4.06898 -2.10233 0
M  V30 4786 N 441.538 4.1404 -2.07666 0
M  V30 4787 C 442.273 5.07301 -2.67271 0
M  V30 4788 N 441.769 6.06021 -3.35724 0
M  V30 4789 N 443.562 4.99898 -2.57018 0
M  V30 4790 H 435.713 1.20788 -1.74711 0
M  V30 4791 H 437.976 0.589364 -0.742532 0
M  V30 4792 H 437.682 2.61868 -2.34773 0
M  V30 4793 H 437.556 3.6539 -0.936479 0
M  V30 4794 H 439.943 2.94062 -0.247284 0
M  V30 4795 H 440.024 1.91992 -1.69035 0
M  V30 4796 H 439.668 3.98766 -3.1456 0
M  V30 4797 H 439.598 4.99218 -1.67597 0
M  V30 4798 H 442.089 3.43357 -1.57843 0
M  V30 4799 H 442.402 6.73741 -3.78541 0
M  V30 4800 H 440.747 6.06253 -3.39826 0
M  V30 4801 H 443.938 4.21724 -2.03142 0
M  V30 4802 H 444.111 5.72392 -3.03761 0
M  V30 4803 N 437.518 0.538854 1.48102 0
M  V30 4804 C 438.451 -0.266495 2.26639 0
M  V30 4805 C 439.429 -0.93687 1.32897 0
M  V30 4806 O 440.613 -0.959507 1.62252 0
M  V30 4807 C 437.74 -1.37814 3.09394 0
M  V30 4808 C 436.786 -0.818247 4.18577 0
M  V30 4809 S 437.619 0.320848 5.34538 0
M  V30 4810 C 438.775 -0.793059 6.20855 0
M  V30 4811 H 439.008 0.399994 2.94597 0
M  V30 4812 H 436.541 0.324808 1.50945 0
M  V30 4813 H 438.499 -2.01488 3.57649 0
M  V30 4814 H 437.16 -2.01639 2.40833 0
M  V30 4815 H 436.353 -1.65247 4.7614 0
M  V30 4816 H 435.955 -0.258036 3.73109 0
M  V30 4817 H 438.247 -1.68961 6.56093 0
M  V30 4818 H 439.19 -0.255204 7.0764 0
M  V30 4819 H 439.598 -1.07746 5.54122 0
M  V30 4820 N 438.996 -1.55193 0.274407 0
M  V30 4821 C 439.926 -2.25471 -0.607032 0
M  V30 4822 C 440.907 -1.24461 -1.15946 0
M  V30 4823 O 442.092 -1.53179 -1.19373 0
M  V30 4824 C 439.222 -2.97526 -1.79153 0
M  V30 4825 C 438.176 -4.05459 -1.37067 0
M  V30 4826 C 437.502 -4.65084 -2.6382 0
M  V30 4827 C 438.802 -5.19691 -0.521389 0
M  V30 4828 H 440.496 -2.99393 -0.0209343 0
M  V30 4829 H 438.042 -1.43997 -0.00862866 0
M  V30 4830 H 439.995 -3.45402 -2.41404 0
M  V30 4831 H 438.719 -2.21138 -2.40344 0
M  V30 4832 H 437.378 -3.58393 -0.771355 0
M  V30 4833 H 437.026 -3.85365 -3.23268 0
M  V30 4834 H 436.726 -5.37961 -2.36372 0
M  V30 4835 H 438.25 -5.15708 -3.26921 0
M  V30 4836 H 439.664 -5.63623 -1.04889 0
M  V30 4837 H 438.061 -5.99126 -0.341825 0
M  V30 4838 H 439.131 -4.82713 0.46 0
M  V30 4839 N 440.474 -0.00167713 -1.576 0
M  V30 4840 C 441.437 0.974046 -2.07473 0
M  V30 4841 C 442.437 1.27143 -0.984444 0
M  V30 4842 O 443.627 1.21633 -1.24703 0
M  V30 4843 C 440.759 2.29849 -2.51759 0
M  V30 4844 H 441.952 0.54262 -2.9495 0
M  V30 4845 H 439.505 0.245829 -1.54355 0
M  V30 4846 H 440.24 2.77677 -1.67529 0
M  V30 4847 H 440.025 2.09584 -3.31386 0
M  V30 4848 H 441.515 2.9984 -2.90664 0
M  V30 4849 N 441.952 1.55251 0.271103 0
M  V30 4850 C 443.368 1.47133 0.618393 0
M  V30 4851 C 443.568 0.686994 1.89427 0
M  V30 4852 O 442.624 0.206609 2.51653 0
M  V30 4853 C 443.937 2.91361 0.743593 0
M  V30 4854 C 445.485 3.01587 0.837522 0
M  V30 4855 C 445.96 4.47073 0.994483 0
M  V30 4856 N 447.451 4.50909 1.05996 0
M  V30 4857 C 448.186 5.60698 1.20024 0
M  V30 4858 N 447.682 6.80348 1.30759 0
M  V30 4859 N 449.475 5.48444 1.23149 0
M  V30 4860 H 441.626 2.04698 -0.566784 0
M  V30 4861 H 443.889 0.928319 -0.192165 0
M  V30 4862 H 443.595 3.51483 -0.123493 0
M  V30 4863 H 443.469 3.40484 1.62328 0
M  V30 4864 H 445.856 2.4156 1.69507 0
M  V30 4865 H 445.937 2.55713 -0.0668086 0
M  V30 4866 H 445.581 5.07703 0.141582 0
M  V30 4867 H 445.511 4.90605 1.91349 0
M  V30 4868 H 448.002 3.6472 0.989316 0
M  V30 4869 H 448.315 7.59772 1.41303 0
M  V30 4870 H 446.66 6.83156 1.27761 0
M  V30 4871 H 449.851 4.53907 1.14394 0
M  V30 4872 H 450.024 6.34049 1.33738 0
M  V30 4873 N 443.43 -0.535701 1.48216 0
M  V30 4874 C 444.66 -1.3148 1.59363 0
M  V30 4875 C 445.068 -1.8753 0.250844 0
M  V30 4876 O 444.411 -1.66821 -0.769174 0
M  V30 4877 C 444.473 -2.50731 2.57632 0
M  V30 4878 C 444.137 -2.15811 4.02833 0
M  V30 4879 C 445.134 -1.71822 4.90686 0
M  V30 4880 C 442.819 -2.26509 4.48329 0
M  V30 4881 C 444.813 -1.3899 6.22062 0
M  V30 4882 C 442.5 -1.93289 5.79726 0
M  V30 4883 C 443.498 -1.49599 6.66415 0
M  V30 4884 O 443.186 -1.16812 7.95368 0
M  V30 4885 H 442.918 -0.406315 0.540263 0
M  V30 4886 H 445.472 -0.653569 1.94725 0
M  V30 4887 H 443.702 -3.19817 2.1738 0
M  V30 4888 H 445.391 -3.12797 2.58675 0
M  V30 4889 H 446.157 -1.63031 4.56778 0
M  V30 4890 H 442.036 -2.59471 3.81045 0
M  V30 4891 H 445.58 -1.04816 6.89681 0
M  V30 4892 H 441.477 -2.01718 6.13172 0
M  V30 4893 H 442.245 -1.30259 8.08069 0
M  V30 4894 N 444.908 -1.36708 -0.784132 0
M  V30 4895 C 445.818 -1.3363 -1.92822 0
M  V30 4896 C 446.834 -0.237686 -1.72369 0
M  V30 4897 O 448.01 -0.470962 -1.95816 0
M  V30 4898 C 445.075 -1.13011 -3.27764 0
M  V30 4899 C 444.136 -2.32397 -3.60957 0
M  V30 4900 C 443.369 -2.12752 -4.89461 0
M  V30 4901 O 443.592 -1.10541 -5.59586 0
M  V30 4902 O 442.526 -3.00653 -5.21432 0
M  V30 4903 H 446.352 -2.29964 -1.98369 0
M  V30 4904 H 443.937 -1.1731 -0.925136 0
M  V30 4905 H 445.819 -1.03451 -4.08504 0
M  V30 4906 H 444.494 -0.19743 -3.23097 0
M  V30 4907 H 443.401 -2.47527 -2.80502 0
M  V30 4908 H 444.734 -3.2419 -3.70354 0
M  V30 4909 N 446.386 1.0089 -1.21074 0
M  V30 4910 C 447.333 2.09588 -0.966512 0
M  V30 4911 C 448.303 1.65761 0.106089 0
M  V30 4912 O 449.488 1.90758 -0.0402287 0
M  V30 4913 C 446.628 3.40958 -0.533058 0
M  V30 4914 C 445.741 3.9822 -1.67467 0
M  V30 4915 C 444.876 5.17682 -1.19076 0
M  V30 4916 C 443.915 5.67043 -2.30496 0
M  V30 4917 N 443.052 6.77759 -1.83267 0
M  V30 4918 H 447.892 2.29815 -1.89708 0
M  V30 4919 H 445.429 1.12689 -0.945489 0
M  V30 4920 H 447.387 4.1637 -0.263019 0
M  V30 4921 H 446.017 3.20781 0.360505 0
M  V30 4922 H 445.069 3.1983 -2.05944 0
M  V30 4923 H 446.381 4.3085 -2.51336 0
M  V30 4924 H 445.535 6.00326 -0.877151 0
M  V30 4925 H 444.274 4.86635 -0.322066 0
M  V30 4926 H 443.279 4.82999 -2.62664 0
M  V30 4927 H 444.504 6.00121 -3.17855 0
M  V30 4928 H 442.45 6.48527 -0.987356 0
M  V30 4929 H 442.367 7.09624 -2.60711 0
M  V30 4930 H 443.635 7.63949 -1.54928 0
M  V30 4931 N 447.864 1.01787 1.20321 0
M  V30 4932 C 449.11 0.718699 1.90279 0
M  V30 4933 C 449.465 -0.743669 1.77447 0
M  V30 4934 O 448.758 -1.53345 1.14874 0
M  V30 4935 C 448.952 1.09076 3.40349 0
M  V30 4936 C 448.781 2.58775 3.67784 0
M  V30 4937 C 447.551 3.25578 3.86428 0
M  V30 4938 C 449.749 3.56966 3.70243 0
M  V30 4939 N 447.731 4.64495 4.01395 0
M  V30 4940 C 449.102 4.8145 3.90649 0
M  V30 4941 C 451.157 3.5092 3.53213 0
M  V30 4942 C 449.86 6.00619 3.95789 0
M  V30 4943 C 451.886 4.69493 3.59625 0
M  V30 4944 C 451.248 5.92786 3.80505 0
M  V30 4945 H 447.347 0.31468 0.715891 0
M  V30 4946 H 449.931 1.30295 1.44677 0
M  V30 4947 H 448.102 0.534839 3.847 0
M  V30 4948 H 449.834 0.744997 3.97784 0
M  V30 4949 H 446.589 2.76003 3.84862 0
M  V30 4950 H 447.013 5.36624 4.12752 0
M  V30 4951 H 451.655 2.56593 3.36035 0
M  V30 4952 H 449.373 6.95326 4.11762 0
M  V30 4953 H 452.959 4.66432 3.47754 0
M  V30 4954 H 451.839 6.83003 3.85327 0
M  V30 4955 N 449.342 -1.36122 0.79427 0
M  V30 4956 C 450.252 -2.33769 0.197296 0
M  V30 4957 C 451.268 -1.61276 -0.653153 0
M  V30 4958 O 452.444 -1.9323 -0.5678 0
M  V30 4959 C 449.509 -3.40474 -0.654098 0
M  V30 4960 C 448.57 -4.28759 0.215411 0
M  V30 4961 C 447.803 -5.30368 -0.595443 0
M  V30 4962 O 448.026 -5.40211 -1.83107 0
M  V30 4963 O 446.96 -6.019 0.00721351 0
M  V30 4964 H 450.786 -2.86597 1.00478 0
M  V30 4965 H 448.371 -1.38676 0.555818 0
M  V30 4966 H 450.253 -4.05703 -1.13944 0
M  V30 4967 H 448.928 -2.89937 -1.43938 0
M  V30 4968 H 447.835 -3.66554 0.747615 0
M  V30 4969 H 449.168 -4.82661 0.964332 0
M  V30 4970 N 450.82 -0.546701 -1.47814 0
M  V30 4971 C 451.767 0.206854 -2.29871 0
M  V30 4972 C 452.737 0.918235 -1.38411 0
M  V30 4973 O 453.922 0.915991 -1.67375 0
M  V30 4974 C 451.062 1.23746 -3.22151 0
M  V30 4975 C 450.175 0.533216 -4.28697 0
M  V30 4976 C 449.31 1.5482 -5.08138 0
M  V30 4977 C 448.349 0.828347 -6.06469 0
M  V30 4978 N 447.486 1.78966 -6.78908 0
M  V30 4979 H 452.326 -0.499037 -2.93792 0
M  V30 4980 H 449.863 -0.25793 -1.44821 0
M  V30 4981 H 451.821 1.84746 -3.74065 0
M  V30 4982 H 450.451 1.91151 -2.60117 0
M  V30 4983 H 449.503 -0.191089 -3.7992 0
M  V30 4984 H 450.815 -0.0311987 -4.9879 0
M  V30 4985 H 449.969 2.23202 -5.6415 0
M  V30 4986 H 448.708 2.14652 -4.37922 0
M  V30 4987 H 447.713 0.130539 -5.49645 0
M  V30 4988 H 448.938 0.235907 -6.7869 0
M  V30 4989 H 446.884 2.37675 -6.1143 0
M  V30 4990 H 446.801 1.27712 -7.45135 0
M  V30 4991 H 448.069 2.46496 -7.395 0
M  V30 4992 N 452.299 1.55045 -0.282633 0
M  V30 4993 C 453.548 1.98938 0.332667 0
M  V30 4994 C 453.861 1.17455 1.56409 0
M  V30 4995 O 455.067 1.51527 2.25282 0
M  V30 4996 C 453.523 3.54105 0.643226 0
M  V30 4997 C 453.131 4.44374 -0.568814 0
M  V30 4998 C 454.875 4.06569 1.22074 0
M  V30 4999 C 452.782 5.90943 -0.232426 0
M  V30 5000 H 451.712 0.743043 0.128075 0
M  V30 5001 H 454.363 1.79341 -0.388464 0
M  V30 5002 H 452.745 3.69532 1.42346 0
M  V30 5003 H 453.919 4.40718 -1.34551 0
M  V30 5004 H 452.234 4.02585 -1.06369 0
M  V30 5005 H 454.831 5.13626 1.48635 0
M  V30 5006 H 455.174 3.56057 2.15707 0
M  V30 5007 H 455.707 3.94612 0.502621 0
M  V30 5008 H 452.446 6.45567 -1.13683 0
M  V30 5009 H 451.966 5.9765 0.507357 0
M  V30 5010 H 453.645 6.4677 0.172657 0
M  V30 5011 N 453.777 0.010035 1.57597 0
M  V30 5012 C 454.724 -0.978122 2.09049 0
M  V30 5013 C 455.694 -1.33509 0.988159 0
M  V30 5014 O 456.879 -1.43172 1.26121 0
M  V30 5015 C 454.019 -2.26158 2.60666 0
M  V30 5016 C 453.132 -1.96275 3.84838 0
M  V30 5017 C 452.267 -3.18776 4.24918 0
M  V30 5018 C 451.306 -2.84625 5.41899 0
M  V30 5019 N 450.443 -3.99693 5.77226 0
M  V30 5020 H 455.283 -0.532431 2.93205 0
M  V30 5021 H 452.82 -0.251234 1.44939 0
M  V30 5022 H 454.778 -3.01202 2.88675 0
M  V30 5023 H 453.408 -2.68378 1.79369 0
M  V30 5024 H 452.46 -1.11555 3.63675 0
M  V30 5025 H 453.772 -1.67111 4.69974 0
M  V30 5026 H 452.926 -4.02157 4.54262 0
M  V30 5027 H 451.665 -3.51087 3.38511 0
M  V30 5028 H 450.67 -1.99653 5.12268 0
M  V30 5029 H 451.895 -2.53551 6.29991 0
M  V30 5030 H 449.841 -4.31882 4.93776 0
M  V30 5031 H 449.758 -3.74087 6.56959 0
M  V30 5032 H 451.026 -4.83834 6.11167 0
M  V30 5033 N 455.255 -1.55392 -0.262866 0
M  V30 5034 C 456.187 -1.85392 -1.34768 0
M  V30 5035 C 457.2 -0.739069 -1.45057 0
M  V30 5036 O 458.389 -1.01703 -1.46693 0
M  V30 5037 C 455.489 -2.01088 -2.72795 0
M  V30 5038 C 454.662 -3.31828 -2.84972 0
M  V30 5039 C 453.721 -3.37464 -4.03738 0
M  V30 5040 O 452.747 -4.10778 -3.94018 0
M  V30 5041 N 453.949 -2.65599 -5.16176 0
M  V30 5042 H 456.714 -2.79029 -1.09375 0
M  V30 5043 H 454.275 -1.55434 -0.452981 0
M  V30 5044 H 456.267 -2.02217 -3.50557 0
M  V30 5045 H 454.837 -1.1427 -2.90966 0
M  V30 5046 H 454.057 -3.43152 -1.94012 0
M  V30 5047 H 455.345 -4.18032 -2.90045 0
M  V30 5048 H 454.743 -2.05736 -5.26962 0
M  V30 5049 H 453.3 -2.72439 -5.92132 0
M  V30 5050 N 456.733 0.527833 -1.48498 0
M  V30 5051 C 457.683 1.62844 -1.5958 0
M  V30 5052 C 458.667 1.54397 -0.452809 0
M  V30 5053 O 459.859 1.62381 -0.704364 0
M  V30 5054 C 456.988 3.01557 -1.64067 0
M  V30 5055 C 456.074 3.151 -2.83853 0
M  V30 5056 N 456.465 2.9861 -4.08247 0
M  V30 5057 C 454.763 3.46158 -2.8123 0
M  V30 5058 C 455.464 3.15626 -4.88626 0
M  V30 5059 N 454.44 3.43298 -4.21483 0
M  V30 5060 H 458.242 1.48708 -2.53502 0
M  V30 5061 H 455.756 0.733343 -1.44899 0
M  V30 5062 H 457.753 3.8062 -1.70101 0
M  V30 5063 H 456.413 3.16783 -0.712636 0
M  V30 5064 H 457.424 2.75329 -4.3865 0
M  V30 5065 H 454.101 3.67728 -1.97692 0
M  V30 5066 H 455.491 3.07596 -5.97356 0
M  V30 5067 N 458.211 1.37122 0.776871 0
M  V30 5068 C 459.441 1.35034 1.56363 0
M  V30 5069 C 459.849 -0.0674681 1.8908 0
M  V30 5070 O 459.192 -1.03826 1.51545 0
M  V30 5071 C 459.254 2.11894 2.90415 0
M  V30 5072 C 458.918 3.60897 2.80362 0
M  V30 5073 C 459.915 4.54887 2.51742 0
M  V30 5074 C 457.6 4.03951 2.98545 0
M  V30 5075 C 459.594 5.89909 2.41426 0
M  V30 5076 C 457.281 5.3906 2.87849 0
M  V30 5077 C 458.279 6.31852 2.5933 0
M  V30 5078 O 457.967 7.64479 2.48651 0
M  V30 5079 H 457.699 0.464402 0.49123 0
M  V30 5080 H 460.253 1.80992 0.971127 0
M  V30 5081 H 458.483 1.60618 3.51765 0
M  V30 5082 H 460.172 2.02505 3.51776 0
M  V30 5083 H 460.938 4.22934 2.37385 0
M  V30 5084 H 456.817 3.3209 3.19746 0
M  V30 5085 H 460.361 6.62304 2.19086 0
M  V30 5086 H 456.258 5.70617 3.01773 0
M  V30 5087 H 457.026 7.74742 2.64039 0
M  V30 5088 N 459.689 -1.00246 1.21608 0
M  V30 5089 C 460.621 -2.09244 0.935401 0
M  V30 5090 C 461.634 -1.62592 -0.0823594 0
M  V30 5091 O 462.823 -1.77865 0.150456 0
M  V30 5092 C 459.923 -3.36724 0.383453 0
M  V30 5093 C 459.096 -4.1245 1.45615 0
M  V30 5094 C 458.155 -5.18219 0.912991 0
M  V30 5095 O 457.181 -5.46337 1.59701 0
M  V30 5096 N 458.383 -5.7987 -0.270478 0
M  V30 5097 H 461.148 -2.33905 1.87373 0
M  V30 5098 H 458.709 -1.16748 1.12167 0
M  V30 5099 H 460.701 -4.047 0.00562157 0
M  V30 5100 H 459.271 -3.09201 -0.459758 0
M  V30 5101 H 458.491 -3.39241 2.00772 0
M  V30 5102 H 459.779 -4.59819 2.17817 0
M  V30 5103 H 459.177 -5.59381 -0.843195 0
M  V30 5104 H 457.734 -6.49126 -0.589794 0
M  V30 5105 N 461.167 -1.02423 -1.1978 0
M  V30 5106 C 462.117 -0.571689 -2.20716 0
M  V30 5107 C 463.101 0.377077 -1.56419 0
M  V30 5108 O 464.293 0.198801 -1.7588 0
M  V30 5109 C 461.422 0.0808555 -3.43205 0
M  V30 5110 C 460.508 -0.890073 -4.14655 0
M  V30 5111 N 460.899 -2.05065 -4.62366 0
M  V30 5112 C 459.197 -0.71252 -4.40272 0
M  V30 5113 C 459.898 -2.66264 -5.17183 0
M  V30 5114 N 458.874 -1.94264 -5.07703 0
M  V30 5115 H 462.676 -1.45636 -2.55279 0
M  V30 5116 H 460.19 -0.890596 -1.35802 0
M  V30 5117 H 462.187 0.422654 -4.14752 0
M  V30 5118 H 460.847 0.961274 -3.10144 0
M  V30 5119 H 461.858 -2.43026 -4.57339 0
M  V30 5120 H 458.535 0.119199 -4.1733 0
M  V30 5121 H 459.925 -3.64526 -5.64421 0
M  V30 5122 N 462.645 1.35699 -0.801477 0
M  V30 5123 C 463.891 1.99643 -0.389135 0
M  V30 5124 C 464.246 1.62447 1.03095 0
M  V30 5125 O 463.539 0.875064 1.7045 0
M  V30 5126 C 463.733 3.53828 -0.504041 0
M  V30 5127 C 463.562 4.06 -1.93375 0
M  V30 5128 C 462.332 4.35592 -2.561 0
M  V30 5129 C 464.53 4.24905 -2.89759 0
M  V30 5130 N 462.512 4.73663 -3.90534 0
M  V30 5131 C 463.883 4.65914 -4.09052 0
M  V30 5132 C 465.938 4.07101 -2.86658 0
M  V30 5133 C 464.641 4.90984 -5.25669 0
M  V30 5134 C 466.667 4.33324 -4.02472 0
M  V30 5135 C 466.029 4.74601 -5.20512 0
M  V30 5136 H 462.128 0.758552 -0.19006 0
M  V30 5137 H 464.712 1.64493 -1.04164 0
M  V30 5138 H 462.883 3.88219 0.118437 0
M  V30 5139 H 464.615 4.04645 -0.0667794 0
M  V30 5140 H 461.37 4.25728 -2.07492 0
M  V30 5141 H 461.794 4.96965 -4.59734 0
M  V30 5142 H 466.436 3.74335 -1.96552 0
M  V30 5143 H 464.154 5.22626 -6.1635 0
M  V30 5144 H 467.74 4.21107 -4.01447 0
M  V30 5145 H 466.62 4.94497 -6.08639 0
M  V30 5146 N 464.123 0.554532 1.47522 0
M  V30 5147 C 465.348 0.0322661 2.07375 0
M  V30 5148 C 465.773 -1.25079 1.40488 0
M  V30 5149 O 465.131 -1.74859 0.47896 0
M  V30 5150 C 465.179 -0.149397 3.6029 0
M  V30 5151 O 464.283 -1.21259 3.9417 0
M  V30 5152 H 463.624 0.0501228 0.662106 0
M  V30 5153 H 466.154 0.769452 1.8958 0
M  V30 5154 H 466.164 -0.364437 4.06369 0
M  V30 5155 H 464.839 0.787743 4.08372 0
M  V30 5156 H 463.416 -0.97825 3.5984 0
M  V30 5157 N 465.601 -1.54893 0.290851 0
M  V30 5158 C 466.878 -1.91991 -0.373989 0
M  V30 5159 C 467.258 -1.21694 -1.72493 0
M  V30 5160 O 466.606 -0.34917 -2.25816 0
M  V30 5161 C 466.816 -3.45419 -0.498703 0
M  V30 5162 C 468.164 -4.1748 -0.774298 0
M  V30 5163 O 469.188 -3.51398 -0.582908 0
M  V30 5164 O 468.047 -5.3445 -1.14129 0
M  V30 5165 H 465.141 -0.800593 -0.207315 0
M  V30 5166 H 467.687 -1.66297 0.338164 0
M  V30 5167 H 466.459 -3.88688 0.451392 0
M  V30 5168 H 466.082 -3.77117 -1.25972 0
M  V30 5169 N 467.08 -0.0183926 -1.57589 0
M  V30 5170 C 468.305 0.676634 -1.96052 0
M  V30 5171 C 468.73 1.6548 -0.894307 0
M  V30 5172 O 468.088 1.80712 0.145849 0
M  V30 5173 C 468.136 1.36872 -3.33614 0
M  V30 5174 O 467.24 2.48372 -3.29219 0
M  V30 5175 H 466.581 0.1786 -0.63953 0
M  V30 5176 H 469.111 -0.077056 -2.04455 0
M  V30 5177 H 469.121 1.72797 -3.69601 0
M  V30 5178 H 467.796 0.651636 -4.10763 0
M  V30 5179 H 466.373 2.14639 -3.04934 0
M  V30 5180 N 468.558 1.5553 0.254621 0
M  V30 5181 C 469.488 1.9268 1.31897 0
M  V30 5182 C 470.469 0.790797 1.506 0
M  V30 5183 O 471.654 1.05045 1.63337 0
M  V30 5184 C 468.784 2.21477 2.67517 0
M  V30 5185 C 467.738 3.37256 2.63519 0
M  V30 5186 C 467.064 3.51576 4.02862 0
M  V30 5187 C 468.364 4.73157 2.21179 0
M  V30 5188 H 470.058 2.81832 1.01051 0
M  V30 5189 H 467.604 1.35599 0.484662 0
M  V30 5190 H 469.557 2.46055 3.42104 0
M  V30 5191 H 468.281 1.29144 2.99982 0
M  V30 5192 H 466.94 3.12675 1.9139 0
M  V30 5193 H 466.588 2.56676 4.32581 0
M  V30 5194 H 466.288 4.2943 4.01078 0
M  V30 5195 H 467.812 3.78467 4.79161 0
M  V30 5196 H 469.226 4.97158 2.85494 0
M  V30 5197 H 467.623 5.54058 2.30521 0
M  V30 5198 H 468.693 4.70739 1.16332 0
M  V30 5199 N 470.036 -0.519951 1.48776 0
M  V30 5200 C 471.261 -1.30447 1.6124 0
M  V30 5201 C 471.686 -1.86055 0.276591 0
M  V30 5202 O 471.044 -1.64915 -0.753183 0
M  V30 5203 C 471.092 -2.42406 2.66967 0
M  V30 5204 O 470.196 -3.45728 2.24824 0
M  V30 5205 H 469.537 -0.385924 0.540332 0
M  V30 5206 H 472.067 -0.624572 1.94834 0
M  V30 5207 H 472.077 -2.88447 2.88552 0
M  V30 5208 H 470.752 -2.01294 3.63941 0
M  V30 5209 H 469.329 -3.05737 2.13494 0
M  V30 5210 N 471.514 -1.37532 -0.769588 0
M  V30 5211 C 472.424 -1.35668 -1.91393 0
M  V30 5212 C 473.44 -0.255954 -1.72107 0
M  V30 5213 O 474.616 -0.491704 -1.95305 0
M  V30 5214 C 471.681 -1.16481 -3.26547 0
M  V30 5215 C 470.742 -2.36212 -3.58472 0
M  V30 5216 C 469.975 -2.17932 -4.87177 0
M  V30 5217 O 470.198 -1.1647 -5.58382 0
M  V30 5218 O 469.132 -3.06167 -5.18214 0
M  V30 5219 H 472.958 -2.32055 -1.95918 0
M  V30 5220 H 470.543 -1.18284 -0.912641 0
M  V30 5221 H 472.425 -1.07778 -4.07384 0
M  V30 5222 H 471.1 -0.231687 -3.2287 0
M  V30 5223 H 470.007 -2.50488 -2.77861 0
M  V30 5224 H 471.34 -3.281 -3.66894 0
M  V30 5225 N 472.992 0.995999 -1.22138 0
M  V30 5226 C 473.902 2.11985 -1.00496 0
M  V30 5227 C 474.918 1.7394 0.0457701 0
M  V30 5228 O 476.094 2.00868 -0.146273 0
M  V30 5229 C 473.159 3.41779 -0.582086 0
M  V30 5230 C 472.22 3.93943 -1.70608 0
M  V30 5231 C 471.453 5.17542 -1.30328 0
M  V30 5232 O 471.676 5.70114 -0.180743 0
M  V30 5233 O 470.61 5.63382 -2.11861 0
M  V30 5234 H 474.436 2.33123 -1.94647 0
M  V30 5235 H 472.021 1.10358 -1.00705 0
M  V30 5236 H 473.903 4.1989 -0.356467 0
M  V30 5237 H 472.578 3.22007 0.330592 0
M  V30 5238 H 471.485 3.17019 -1.98619 0
M  V30 5239 H 472.818 4.18141 -2.59651 0
M  V30 5240 N 474.47 1.03057 1.19235 0
M  V30 5241 C 475.718 0.726581 1.88587 0
M  V30 5242 C 476.039 -0.747227 1.80115 0
M  V30 5243 O 475.309 -1.53849 1.21274 0
M  V30 5244 H 473.889 0.265768 0.698124 0
M  V30 5245 H 476.551 1.30516 1.44746 0
M  V30 5246 H 475.647 1.0224 2.94879 0
M  V30 5247 N 475.948 -1.35272 0.808662 0
M  V30 5248 C 477.364 -1.51806 0.492653 0
M  V30 5249 C 477.564 -1.7574 -0.985778 0
M  V30 5250 O 476.62 -1.80003 -1.77074 0
M  V30 5251 C 477.933 -2.69202 1.33981 0
M  V30 5252 C 479.481 -2.8308 1.33547 0
M  V30 5253 C 479.956 -4.03502 2.16679 0
M  V30 5254 N 481.447 -4.10684 2.14227 0
M  V30 5255 C 482.182 -5.02984 2.75308 0
M  V30 5256 N 481.678 -6.00603 3.45323 0
M  V30 5257 N 483.471 -4.95746 2.64938 0
M  V30 5258 H 475.622 -1.17993 1.76611 0
M  V30 5259 H 477.885 -0.577476 0.751814 0
M  V30 5260 H 477.591 -2.581 2.38909 0
M  V30 5261 H 477.465 -3.63854 0.994491 0
M  V30 5262 H 479.852 -2.93631 0.294036 0
M  V30 5263 H 479.933 -1.89278 1.72068 0
M  V30 5264 H 479.577 -3.93711 3.20864 0
M  V30 5265 H 479.507 -4.96489 1.75517 0
M  V30 5266 H 481.998 -3.40802 1.63285 0
M  V30 5267 H 482.311 -6.67633 3.89212 0
M  V30 5268 H 480.656 -6.0077 3.49428 0
M  V30 5269 H 483.847 -4.18439 2.09825 0
M  V30 5270 H 484.02 -5.67487 3.12829 0
M  V30 5271 N 477.426 -0.562348 -1.47226 0
M  V30 5272 C 478.674 -0.0401371 -2.0206 0
M  V30 5273 C 478.995 1.3165 -1.43852 0
M  V30 5274 O 478.265 1.85976 -0.615599 0
M  V30 5275 H 476.845 -0.0118479 -0.746906 0
M  V30 5276 H 479.507 -0.73352 -1.8057 0
M  V30 5277 H 478.603 0.0441254 -3.12069 0
M  V30 5278 N 478.904 1.54736 -0.299062 0
M  V30 5279 C 479.834 2.26409 0.571085 0
M  V30 5280 C 480.815 1.2629 1.13951 0
M  V30 5281 O 482 1.55059 1.16921 0
M  V30 5282 C 479.13 3.00338 1.74396 0
M  V30 5283 C 478.084 4.07588 1.30599 0
M  V30 5284 C 477.41 4.69222 2.56387 0
M  V30 5285 C 478.71 5.20455 0.438645 0
M  V30 5286 H 480.404 2.99388 -0.0266991 0
M  V30 5287 H 477.95 1.43993 -0.0142812 0
M  V30 5288 H 479.903 3.49198 2.35878 0
M  V30 5289 H 478.627 2.24934 2.36796 0
M  V30 5290 H 477.286 3.59575 0.71424 0
M  V30 5291 H 476.934 3.9046 3.17097 0
M  V30 5292 H 476.634 5.41653 2.27784 0
M  V30 5293 H 478.158 5.20844 3.18675 0
M  V30 5294 H 479.572 5.65221 0.959085 0
M  V30 5295 H 477.969 5.99594 0.246466 0
M  V30 5296 H 479.039 4.8192 -0.536738 0
M  V30 5297 N 480.382 0.0267497 1.57577 0
M  V30 5298 C 481.312 -0.954308 2.13108 0
M  V30 5299 C 482.293 -1.34088 1.04663 0
M  V30 5300 O 483.478 -1.41992 1.32484 0
M  V30 5301 C 480.608 -2.23744 2.65624 0
M  V30 5302 C 479.562 -1.99168 3.78835 0
M  V30 5303 C 478.888 -3.33726 4.17769 0
M  V30 5304 C 480.188 -1.33277 5.0501 0
M  V30 5305 H 481.882 -0.491848 2.95332 0
M  V30 5306 H 479.428 -0.23514 1.42067 0
M  V30 5307 H 481.381 -2.92754 3.03106 0
M  V30 5308 H 480.105 -2.72151 1.80558 0
M  V30 5309 H 478.764 -1.32577 3.41788 0
M  V30 5310 H 478.412 -3.79888 3.29688 0
M  V30 5311 H 478.112 -3.18089 4.94058 0
M  V30 5312 H 479.636 -4.04008 4.57832 0
M  V30 5313 H 481.05 -1.92283 5.40093 0
M  V30 5314 H 479.447 -1.28045 5.8628 0
M  V30 5315 H 480.517 -0.305411 4.83937 0
M  V30 5316 N 481.861 -1.55662 -0.24637 0
M  V30 5317 C 482.808 -1.90361 -1.30504 0
M  V30 5318 C 483.778 -0.757905 -1.47801 0
M  V30 5319 O 484.963 -1.01161 -1.61775 0
M  V30 5320 C 482.103 -2.2042 -2.65535 0
M  V30 5321 C 481.216 -3.47799 -2.56242 0
M  V30 5322 C 480.351 -3.67426 -3.8363 0
M  V30 5323 C 479.39 -4.88403 -3.68956 0
M  V30 5324 N 478.527 -5.04548 -4.88237 0
M  V30 5325 H 483.367 -2.80645 -1.00213 0
M  V30 5326 H 480.904 -1.38924 -0.483577 0
M  V30 5327 H 482.862 -2.35853 -3.44135 0
M  V30 5328 H 481.492 -1.3334 -2.93973 0
M  V30 5329 H 480.544 -3.40694 -1.69208 0
M  V30 5330 H 481.856 -4.36544 -2.4131 0
M  V30 5331 H 481.01 -3.82821 -4.70673 0
M  V30 5332 H 479.749 -2.76914 -4.01459 0
M  V30 5333 H 478.754 -4.72984 -2.80296 0
M  V30 5334 H 479.979 -5.80375 -3.52621 0
M  V30 5335 H 477.925 -4.16974 -5.06427 0
M  V30 5336 H 477.842 -5.87384 -4.75937 0
M  V30 5337 H 479.11 -5.24355 -5.76777 0
M  V30 5338 N 483.339 0.512053 -1.4905 0
M  V30 5339 C 484.286 1.6148 -1.64902 0
M  V30 5340 C 485.256 1.58687 -0.490673 0
M  V30 5341 O 486.441 1.76842 -0.71636 0
M  V30 5342 C 483.581 2.99676 -1.71139 0
M  V30 5343 C 482.694 3.12568 -2.98203 0
M  V30 5344 C 481.829 4.4143 -2.95487 0
M  V30 5345 C 480.868 4.47916 -4.17179 0
M  V30 5346 N 480.005 5.68191 -4.12437 0
M  V30 5347 H 484.845 1.47271 -2.59066 0
M  V30 5348 H 482.382 0.716713 -1.28459 0
M  V30 5349 H 484.34 3.79761 -1.72736 0
M  V30 5350 H 482.97 3.12614 -0.804508 0
M  V30 5351 H 482.022 2.25618 -3.06269 0
M  V30 5352 H 483.334 3.1322 -3.88194 0
M  V30 5353 H 482.488 5.29825 -2.95585 0
M  V30 5354 H 481.227 4.43326 -2.03256 0
M  V30 5355 H 480.232 3.57925 -4.17337 0
M  V30 5356 H 481.457 4.47744 -5.1059 0
M  V30 5357 H 479.403 5.7095 -3.23036 0
M  V30 5358 H 479.32 5.70413 -4.96151 0
M  V30 5359 H 480.588 6.58823 -4.16621 0
M  V30 5360 N 484.817 1.37938 0.762283 0
M  V30 5361 C 485.747 1.37176 1.88958 0
M  V30 5362 C 486.728 0.238945 1.68413 0
M  V30 5363 O 487.913 0.440726 1.89133 0
M  V30 5364 C 485.043 1.18742 3.2637 0
M  V30 5365 C 483.997 2.29136 3.61498 0
M  V30 5366 C 483.323 1.95816 4.97554 0
M  V30 5367 C 484.623 3.71363 3.6727 0
M  V30 5368 H 486.317 2.31509 1.89853 0
M  V30 5369 H 483.863 1.11438 0.912005 0
M  V30 5370 H 485.816 1.16837 4.04879 0
M  V30 5371 H 484.54 0.208683 3.25933 0
M  V30 5372 H 483.199 2.30213 2.85303 0
M  V30 5373 H 482.847 0.964475 4.93667 0
M  V30 5374 H 482.547 2.69745 5.22026 0
M  V30 5375 H 484.071 1.95513 5.78452 0
M  V30 5376 H 485.485 3.72364 4.35911 0
M  V30 5377 H 483.882 4.44425 4.03245 0
M  V30 5378 H 484.952 4.04305 2.67704 0
M  V30 5379 N 486.295 -0.989507 1.22664 0
M  V30 5380 C 487.227 -2.0824 0.957542 0
M  V30 5381 C 488.24 -1.6267 -0.0651098 0
M  V30 5382 O 489.429 -1.77695 0.169312 0
M  V30 5383 C 486.529 -3.36298 0.419145 0
M  V30 5384 C 485.702 -4.10882 1.49982 0
M  V30 5385 C 484.761 -5.17221 0.967904 0
M  V30 5386 O 483.787 -5.44613 1.65487 0
M  V30 5387 N 484.989 -5.80124 -0.20896 0
M  V30 5388 H 487.754 -2.31904 1.89843 0
M  V30 5389 H 485.315 -1.15552 1.13399 0
M  V30 5390 H 487.307 -4.04671 0.0485451 0
M  V30 5391 H 485.877 -3.09671 -0.426937 0
M  V30 5392 H 485.097 -3.37092 2.04359 0
M  V30 5393 H 486.385 -4.57482 2.22682 0
M  V30 5394 H 485.783 -5.60244 -0.783818 0
M  V30 5395 H 484.34 -6.49715 -0.520913 0
M  V30 5396 N 487.773 -1.03688 -1.18687 0
M  V30 5397 C 489.022 -0.733235 -1.879 0
M  V30 5398 C 489.335 0.741745 -1.8099 0
M  V30 5399 O 490.541 1.15875 -2.4553 0
M  V30 5400 C 488.997 -1.26127 -3.37076 0
M  V30 5401 C 488.605 -2.76461 -3.52524 0
M  V30 5402 C 490.349 -1.03398 -4.11715 0
M  V30 5403 C 488.256 -3.22642 -4.95637 0
M  V30 5404 H 487.186 -0.270584 -0.703776 0
M  V30 5405 H 489.837 -1.25222 -1.34133 0
M  V30 5406 H 488.219 -0.670165 -3.90288 0
M  V30 5407 H 489.393 -3.41296 -3.09602 0
M  V30 5408 H 487.708 -2.97559 -2.91286 0
M  V30 5409 H 490.305 -1.3542 -5.17267 0
M  V30 5410 H 490.648 0.0289246 -4.1629 0
M  V30 5411 H 491.181 -1.5895 -3.64664 0
M  V30 5412 H 487.92 -4.28296 -4.96228 0
M  V30 5413 H 487.44 -2.62539 -5.39289 0
M  V30 5414 H 489.119 -3.16444 -5.64333 0
M  V30 5415 N 489.251 1.34841 -0.815825 0
M  V30 5416 C 490.662 1.80937 -0.46029 0
M  V30 5417 C 491.013 1.67685 1.01863 0
M  V30 5418 O 490.138 1.21277 1.79223 0
M  V30 5419 C 490.733 3.28509 -0.828708 0
M  V30 5420 C 489.292 3.72712 -0.525644 0
M  V30 5421 C 488.439 2.56676 -1.04941 0
M  V30 5422 H 491.39 1.22688 -1.00664 0
M  V30 5423 H 491.411 3.80279 -0.129757 0
M  V30 5424 H 490.923 3.38122 -1.90513 0
M  V30 5425 H 489.024 3.68642 0.541666 0
M  V30 5426 H 489.137 4.67119 -1.06474 0
M  V30 5427 H 487.501 2.50302 -0.471286 0
M  V30 5428 H 488.284 2.69063 -2.13214 0
M  V30 5429 N 490.729 0.570148 1.46925 0
M  V30 5430 C 491.978 0.0487352 2.01641 0
M  V30 5431 C 492.291 -1.31433 1.44861 0
M  V30 5432 O 493.497 -1.92638 1.91318 0
M  V30 5433 C 491.953 0.0365817 3.59881 0
M  V30 5434 C 491.561 1.39719 4.25655 0
M  V30 5435 C 493.305 -0.431545 4.22301 0
M  V30 5436 C 491.212 1.34345 5.75939 0
M  V30 5437 H 490.142 0.0144492 0.753862 0
M  V30 5438 H 492.793 0.719928 1.68788 0
M  V30 5439 H 491.175 -0.700522 3.89755 0
M  V30 5440 H 492.349 2.15303 4.07408 0
M  V30 5441 H 490.664 1.80431 3.75278 0
M  V30 5442 H 493.261 -0.490354 5.32447 0
M  V30 5443 H 493.604 -1.44638 3.90366 0
M  V30 5444 H 494.137 0.251102 3.97007 0
M  V30 5445 H 490.876 2.33469 6.12513 0
M  V30 5446 H 490.396 0.629615 5.96486 0
M  V30 5447 H 492.075 1.051 6.38407 0
M  V30 5448 N 492.207 -1.54576 0.307264 0
M  V30 5449 C 493.117 -2.27435 -0.57536 0
M  V30 5450 C 494.133 -1.31183 -1.14311 0
M  V30 5451 O 495.309 -1.64175 -1.16656 0
M  V30 5452 C 492.374 -3.00566 -1.72803 0
M  V30 5453 C 491.435 -4.12369 -1.19373 0
M  V30 5454 C 490.668 -4.82003 -2.29147 0
M  V30 5455 O 490.891 -4.51038 -3.49171 0
M  V30 5456 O 489.825 -5.69271 -1.95485 0
M  V30 5457 H 493.651 -3.03696 0.0158558 0
M  V30 5458 H 491.236 -1.49219 0.0735064 0
M  V30 5459 H 493.118 -3.46416 -2.39946 0
M  V30 5460 H 491.793 -2.27195 -2.30574 0
M  V30 5461 H 490.7 -3.70905 -0.487851 0
M  V30 5462 H 492.033 -4.87736 -0.661376 0
M  V30 5463 N 493.685 -0.035106 -1.57561 0
M  V30 5464 C 495.096 0.502885 -1.798 0
M  V30 5465 C 495.447 1.71892 -0.945921 0
M  V30 5466 O 494.572 2.15822 -0.157991 0
M  V30 5467 C 495.167 0.919097 -3.26095 0
M  V30 5468 C 493.726 1.40216 -3.49308 0
M  V30 5469 C 492.873 0.369709 -2.74824 0
M  V30 5470 H 495.824 -0.261102 -1.56537 0
M  V30 5471 H 495.845 1.78308 -3.36135 0
M  V30 5472 H 495.357 0.0338526 -3.88085 0
M  V30 5473 H 493.458 2.30714 -2.92578 0
M  V30 5474 H 493.571 1.40541 -4.58023 0
M  V30 5475 H 491.935 0.839113 -2.40481 0
M  V30 5476 H 492.718 -0.507173 -3.39533 0
M  V30 5477 N 495.163 1.55791 0.238111 0
M  V30 5478 C 496.11 1.9105 1.29493 0
M  V30 5479 C 497.08 0.765733 1.47397 0
M  V30 5480 O 498.265 1.02017 1.61236 0
M  V30 5481 C 495.405 2.21826 2.64362 0
M  V30 5482 C 494.518 3.49153 2.54394 0
M  V30 5483 C 493.653 3.69455 3.81676 0
M  V30 5484 C 492.692 4.90353 3.66361 0
M  V30 5485 N 491.829 5.07131 4.85554 0
M  V30 5486 H 496.669 2.81172 0.987233 0
M  V30 5487 H 494.206 1.39179 0.476203 0
M  V30 5488 H 496.164 2.37675 3.4288 0
M  V30 5489 H 494.794 1.34897 2.93262 0
M  V30 5490 H 493.846 3.41587 1.67399 0
M  V30 5491 H 495.158 4.37818 2.38991 0
M  V30 5492 H 494.312 3.85311 4.68636 0
M  V30 5493 H 493.051 2.7904 3.99985 0
M  V30 5494 H 492.056 4.74464 2.77784 0
M  V30 5495 H 493.281 5.82237 3.49538 0
M  V30 5496 H 491.227 4.19654 5.04209 0
M  V30 5497 H 491.144 5.89899 4.72816 0
M  V30 5498 H 492.412 5.27407 5.73988 0
M  V30 5499 N 496.642 -0.504142 1.49319 0
M  V30 5500 C 497.589 -1.60603 1.65756 0
M  V30 5501 C 498.559 -1.58425 0.499082 0
M  V30 5502 O 499.744 -1.76459 0.725728 0
M  V30 5503 C 496.884 -2.98764 1.72726 0
M  V30 5504 C 495.997 -3.10982 2.99857 0
M  V30 5505 C 495.132 -4.39857 2.97824 0
M  V30 5506 C 494.171 -4.45697 4.19548 0
M  V30 5507 N 493.308 -5.65995 4.15444 0
M  V30 5508 H 498.148 -1.45895 2.59843 0
M  V30 5509 H 495.685 -0.709891 1.28837 0
M  V30 5510 H 497.643 -3.78839 1.74747 0
M  V30 5511 H 496.273 -3.12183 0.821075 0
M  V30 5512 H 495.325 -2.23991 3.07461 0
M  V30 5513 H 496.637 -3.11157 3.89849 0
M  V30 5514 H 495.791 -5.2825 2.98391 0
M  V30 5515 H 494.53 -4.42242 2.05604 0
M  V30 5516 H 493.535 -3.55707 4.19229 0
M  V30 5517 H 494.76 -4.4503 5.12957 0
M  V30 5518 H 492.706 -5.69229 3.26059 0
M  V30 5519 H 492.623 -5.67773 4.99169 0
M  V30 5520 H 493.891 -6.56604 4.20109 0
M  V30 5521 N 498.12 -1.38341 -0.754957 0
M  V30 5522 C 499.397 -1.24995 -1.50451 0
M  V30 5523 C 499.777 0.149244 -2.10572 0
M  V30 5524 O 499.125 1.15861 -1.96948 0
M  V30 5525 C 499.335 -2.35904 -2.57197 0
M  V30 5526 C 500.683 -2.74262 -3.24138 0
M  V30 5527 O 501.707 -2.35205 -2.67501 0
M  V30 5528 O 500.566 -3.4161 -4.26574 0
M  V30 5529 H 497.66 -0.48872 -0.667144 0
M  V30 5530 H 500.206 -1.50165 -0.790486 0
M  V30 5531 H 498.978 -3.2953 -2.11011 0
M  V30 5532 H 498.601 -2.12291 -3.36182 0
M  V30 5533 N 499.598 0.982988 -1.23187 0
M  V30 5534 C 500.875 1.69814 -0.970707 0
M  V30 5535 C 501.255 2.04811 0.511424 0
M  V30 5536 O 500.603 1.73924 1.48198 0
M  V30 5537 C 500.813 2.94143 -1.87831 0
M  V30 5538 C 502.161 3.66712 -2.14026 0
M  V30 5539 O 503.185 3.04171 -1.8536 0
M  V30 5540 O 502.044 4.79258 -2.62629 0
M  V30 5541 H 499.138 0.741659 -0.365884 0
M  V30 5542 H 501.684 1.03844 -1.34218 0
M  V30 5543 H 500.456 2.64858 -2.88038 0
M  V30 5544 H 500.079 3.6785 -1.50905 0
M  V30 5545 N 501.076 1.04316 1.18135 0
M  V30 5546 C 502.325 0.74319 1.87509 0
M  V30 5547 C 502.638 -0.732136 1.81381 0
M  V30 5548 O 503.844 -1.14572 2.46141 0
M  V30 5549 C 502.3 1.27913 3.36402 0
M  V30 5550 C 501.908 2.78326 3.51053 0
M  V30 5551 C 503.652 1.0558 4.11161 0
M  V30 5552 C 501.559 3.25266 4.93919 0
M  V30 5553 H 500.489 0.274313 0.702331 0
M  V30 5554 H 503.14 1.25931 1.33467 0
M  V30 5555 H 501.522 0.690853 3.89927 0
M  V30 5556 H 502.696 3.42933 3.07788 0
M  V30 5557 H 501.011 2.991 2.89704 0
M  V30 5558 H 503.608 1.38161 5.16542 0
M  V30 5559 H 503.951 -0.00684729 4.16299 0
M  V30 5560 H 504.484 1.60882 3.63816 0
M  V30 5561 H 501.223 4.30922 4.9395 0
M  V30 5562 H 500.743 2.65396 5.3789 0
M  V30 5563 H 502.422 3.19433 5.62647 0
M  V30 5564 N 502.554 -1.34406 0.822964 0
M  V30 5565 C 503.803 -1.97542 0.407458 0
M  V30 5566 C 504.116 -1.65973 -1.035 0
M  V30 5567 O 505.322 -2.22598 -1.55442 0
M  V30 5568 C 503.778 -3.53463 0.677623 0
M  V30 5569 C 503.386 -3.93925 2.1337 0
M  V30 5570 C 505.13 -4.23229 0.328284 0
M  V30 5571 C 503.037 -5.42759 2.34876 0
M  V30 5572 H 501.967 -0.739207 0.148623 0
M  V30 5573 H 504.618 -1.53248 1.00932 0
M  V30 5574 H 503 -3.96 0.00558965 0
M  V30 5575 H 504.174 -3.62494 2.8449 0
M  V30 5576 H 502.489 -3.37097 2.44448 0
M  V30 5577 H 505.086 -5.32659 0.466794 0
M  V30 5578 H 505.429 -4.09899 -0.727224 0
M  V30 5579 H 505.962 -3.86169 0.954896 0
M  V30 5580 H 502.701 -5.61075 3.38932 0
M  V30 5581 H 502.221 -5.75704 1.68299 0
M  V30 5582 H 503.9 -6.0944 2.17236 0
M  V30 5583 N 504.032 -0.577932 -1.46621 0
M  V30 5584 C 504.982 0.178869 -2.27297 0
M  V30 5585 C 505.966 0.866279 -1.35589 0
M  V30 5586 O 507.158 0.761163 -1.59798 0
M  V30 5587 C 504.287 1.19499 -3.2183 0
M  V30 5588 C 503.373 0.50994 -4.21023 0
M  V30 5589 N 503.764 -0.43177 -5.03954 0
M  V30 5590 C 502.062 0.761287 -4.39455 0
M  V30 5591 C 502.763 -0.831693 -5.75724 0
M  V30 5592 N 501.739 -0.181897 -5.43296 0
M  V30 5593 H 505.541 -0.544859 -2.88805 0
M  V30 5594 H 503.055 -0.399373 -1.57413 0
M  V30 5595 H 505.052 1.75131 -3.78332 0
M  V30 5596 H 503.712 1.91959 -2.61881 0
M  V30 5597 H 504.723 -0.807045 -5.11573 0
M  V30 5598 H 501.4 1.47282 -3.90659 0
M  V30 5599 H 502.79 -1.6067 -6.52407 0
M  V30 5600 N 505.51 1.54411 -0.315457 0
M  V30 5601 C 506.735 2.05299 0.294496 0
M  V30 5602 C 507.16 1.19052 1.4563 0
M  V30 5603 O 506.518 0.197804 1.80218 0
M  V30 5604 C 506.566 3.5345 0.714549 0
M  V30 5605 O 505.67 3.70175 1.81781 0
M  V30 5606 H 505.011 0.661743 0.0547019 0
M  V30 5607 H 507.541 1.99327 -0.461508 0
M  V30 5608 H 507.551 3.9557 0.999426 0
M  V30 5609 H 506.226 4.1568 -0.135244 0
M  V30 5610 H 504.803 3.3996 1.53236 0
M  V30 5611 N 506.988 0.0434614 1.5754 0
M  V30 5612 C 507.918 -0.931651 2.14109 0
M  V30 5613 C 508.899 -1.32971 1.06079 0
M  V30 5614 O 510.084 -1.40579 1.33982 0
M  V30 5615 C 507.214 -2.20914 2.67982 0
M  V30 5616 C 506.168 -1.95139 3.80926 0
M  V30 5617 C 505.494 -3.29276 4.21285 0
M  V30 5618 C 506.794 -1.27913 5.06395 0
M  V30 5619 H 508.488 -0.460497 2.95837 0
M  V30 5620 H 506.034 -0.220058 1.42309 0
M  V30 5621 H 507.987 -2.89522 3.06194 0
M  V30 5622 H 506.711 -2.70221 1.83434 0
M  V30 5623 H 505.37 -1.28945 3.43175 0
M  V30 5624 H 505.018 -3.76369 3.33699 0
M  V30 5625 H 504.718 -3.12831 4.97404 0
M  V30 5626 H 506.242 -3.99129 4.62091 0
M  V30 5627 H 507.656 -1.86544 5.42102 0
M  V30 5628 H 506.053 -1.2182 5.87605 0
M  V30 5629 H 507.123 -0.254066 4.84234 0
M  V30 5630 N 508.466 -1.55915 -0.229846 0
M  V30 5631 C 509.691 -1.8296 -0.976743 0
M  V30 5632 C 510.116 -0.622735 -1.77493 0
M  V30 5633 O 509.474 0.428431 -1.76165 0
M  V30 5634 C 509.522 -3.07916 -1.8767 0
M  V30 5635 O 508.626 -2.86028 -2.97088 0
M  V30 5636 H 507.967 -0.603453 -0.277021 0
M  V30 5637 H 510.497 -2.0312 -0.245669 0
M  V30 5638 H 510.507 -3.37802 -2.2881 0
M  V30 5639 H 509.182 -3.95389 -1.28996 0
M  V30 5640 H 507.759 -2.67355 -2.59954 0
M  V30 5641 N 509.944 0.496216 -1.49584 0
M  V30 5642 C 510.876 1.61404 -1.62731 0
M  V30 5643 C 511.889 1.54613 -0.50978 0
M  V30 5644 O 513.078 1.60458 -0.782017 0
M  V30 5645 C 510.178 3.00212 -1.57245 0
M  V30 5646 C 509.351 3.32138 -2.84611 0
M  V30 5647 C 508.41 4.5038 -2.72112 0
M  V30 5648 O 507.436 4.51926 -3.46051 0
M  V30 5649 N 508.638 5.50575 -1.83977 0
M  V30 5650 H 511.403 1.50552 -2.59141 0
M  V30 5651 H 508.964 0.684182 -1.46733 0
M  V30 5652 H 510.956 3.77241 -1.4653 0
M  V30 5653 H 509.526 3.04964 -0.686729 0
M  V30 5654 H 508.746 2.4396 -3.09641 0
M  V30 5655 H 510.034 3.50268 -3.69039 0
M  V30 5656 H 509.432 5.52128 -1.23171 0
M  V30 5657 H 507.989 6.26687 -1.79182 0
M  V30 5658 N 511.423 1.38739 0.74761 0
M  V30 5659 C 512.333 1.38696 1.89211 0
M  V30 5660 C 513.349 0.283303 1.71678 0
M  V30 5661 O 514.525 0.522713 1.94498 0
M  V30 5662 C 511.59 1.21662 3.24653 0
M  V30 5663 C 510.651 2.41886 3.54669 0
M  V30 5664 C 509.884 2.25655 4.83648 0
M  V30 5665 O 510.107 1.25339 5.56459 0
M  V30 5666 O 509.041 3.14372 5.13277 0
M  V30 5667 H 512.867 2.35143 1.92202 0
M  V30 5668 H 510.452 1.19721 0.893708 0
M  V30 5669 H 512.334 1.14246 4.05618 0
M  V30 5670 H 511.009 0.283024 3.2246 0
M  V30 5671 H 509.916 2.54877 2.73841 0
M  V30 5672 H 511.249 3.33895 3.61628 0
M  V30 5673 N 512.901 -0.976442 1.23707 0
M  V30 5674 C 513.811 -2.10359 1.03856 0
M  V30 5675 C 514.827 -1.73991 -0.0180919 0
M  V30 5676 O 516.003 -2.0061 0.178211 0
M  V30 5677 C 513.068 -3.40809 0.636387 0
M  V30 5678 C 512.129 -3.91179 1.76854 0
M  V30 5679 C 511.362 -5.15404 1.38546 0
M  V30 5680 O 511.585 -5.69754 0.27142 0
M  V30 5681 O 510.519 -5.5994 2.20797 0
M  V30 5682 H 514.345 -2.29997 1.98331 0
M  V30 5683 H 511.93 -1.08742 1.02448 0
M  V30 5684 H 513.812 -4.19269 0.423223 0
M  V30 5685 H 512.487 -3.22493 -0.279322 0
M  V30 5686 H 511.394 -3.13819 2.03638 0
M  V30 5687 H 512.727 -4.13958 2.6627 0
M  V30 5688 N 514.379 -1.04941 -1.1758 0
M  V30 5689 C 515.326 -0.648155 -2.21512 0
M  V30 5690 C 516.296 0.348431 -1.62404 0
M  V30 5691 O 517.481 0.240419 -1.89279 0
M  V30 5692 C 514.621 -0.0264291 -3.4509 0
M  V30 5693 C 513.734 -1.07154 -4.185 0
M  V30 5694 C 512.869 -0.417403 -5.29558 0
M  V30 5695 C 511.908 -1.447 -5.94751 0
M  V30 5696 N 511.045 -0.817203 -6.97328 0
M  V30 5697 H 515.885 -1.53891 -2.55189 0
M  V30 5698 H 513.422 -0.769699 -1.25356 0
M  V30 5699 H 515.38 0.351456 -4.15717 0
M  V30 5700 H 514.01 0.827802 -3.12005 0
M  V30 5701 H 513.062 -1.56728 -3.46613 0
M  V30 5702 H 514.374 -1.8532 -4.63096 0
M  V30 5703 H 513.528 0.0142061 -6.06698 0
M  V30 5704 H 512.267 0.396265 -4.86087 0
M  V30 5705 H 511.272 -1.88865 -5.16343 0
M  V30 5706 H 512.497 -2.26252 -6.40302 0
M  V30 5707 H 510.443 -0.0239995 -6.55996 0
M  V30 5708 H 510.36 -1.53644 -7.40223 0
M  V30 5709 H 511.628 -0.410283 -7.7842 0
M  V30 5710 N 515.857 1.33968 -0.830081 0
M  V30 5711 C 516.767 2.33164 -0.259207 0
M  V30 5712 C 517.783 1.62951 0.610164 0
M  V30 5713 O 518.959 1.94668 0.516369 0
M  V30 5714 C 516.024 3.42088 0.563598 0
M  V30 5715 C 515.085 4.28037 -0.329014 0
M  V30 5716 C 514.318 5.3176 0.454616 0
M  V30 5717 O 514.541 5.44876 1.6872 0
M  V30 5718 O 513.475 6.01669 -0.166794 0
M  V30 5719 H 517.301 2.83832 -1.08041 0
M  V30 5720 H 514.886 1.37154 -0.59239 0
M  V30 5721 H 516.768 4.08581 1.03147 0
M  V30 5722 H 515.443 2.93651 1.36201 0
M  V30 5723 H 514.35 3.64443 -0.844538 0
M  V30 5724 H 515.683 4.79934 -1.09196 0
M  V30 5725 N 517.335 0.585699 1.46312 0
M  V30 5726 C 518.265 -0.133556 2.33118 0
M  V30 5727 C 519.246 -0.880707 1.45525 0
M  V30 5728 O 520.431 -0.855579 1.74337 0
M  V30 5729 C 517.561 -1.14585 3.27853 0
M  V30 5730 C 516.515 -0.513341 4.2491 0
M  V30 5731 C 515.841 -1.63231 5.09175 0
M  V30 5732 C 517.141 0.551413 5.19381 0
M  V30 5733 H 518.835 0.59121 2.93505 0
M  V30 5734 H 516.381 0.285761 1.41136 0
M  V30 5735 H 518.334 -1.65741 3.87438 0
M  V30 5736 H 517.058 -1.90093 2.65579 0
M  V30 5737 H 515.717 -0.0228349 3.66593 0
M  V30 5738 H 515.365 -2.37713 4.43285 0
M  V30 5739 H 515.065 -1.21473 5.74907 0
M  V30 5740 H 516.589 -2.14658 5.71624 0
M  V30 5741 H 518.003 0.124804 5.73164 0
M  V30 5742 H 516.4 0.889486 5.93471 0
M  V30 5743 H 517.47 1.43655 4.63132 0
M  V30 5744 N 518.813 -1.54241 0.323641 0
M  V30 5745 C 519.743 -2.27289 -0.534993 0
M  V30 5746 C 520.724 -1.28087 -1.11927 0
M  V30 5747 O 521.909 -1.56899 -1.14439 0
M  V30 5748 C 519.039 -3.03075 -1.69596 0
M  V30 5749 C 517.993 -4.09614 -1.24098 0
M  V30 5750 C 517.319 -4.73242 -2.4889 0
M  V30 5751 C 518.619 -5.21087 -0.355789 0
M  V30 5752 H 520.313 -2.99308 0.0743257 0
M  V30 5753 H 517.859 -1.43952 0.0371874 0
M  V30 5754 H 519.812 -3.52907 -2.30293 0
M  V30 5755 H 518.536 -2.28673 -2.33187 0
M  V30 5756 H 517.195 -3.60666 -0.656945 0
M  V30 5757 H 516.843 -3.95455 -3.10845 0
M  V30 5758 H 516.543 -5.45209 -2.19138 0
M  V30 5759 H 518.067 -5.25848 -3.10348 0
M  V30 5760 H 519.481 -5.66675 -0.869042 0
M  V30 5761 H 517.878 -5.9991 -0.151045 0
M  V30 5762 H 518.948 -4.81005 0.613339 0
M  V30 5763 N 520.291 -0.0518155 -1.57515 0
M  V30 5764 C 521.238 0.922352 -2.11569 0
M  V30 5765 C 522.208 1.30842 -1.02321 0
M  V30 5766 O 523.393 1.39778 -1.29872 0
M  V30 5767 C 520.533 2.19167 -2.6657 0
M  V30 5768 C 519.646 1.86003 -3.89906 0
M  V30 5769 C 518.781 3.07398 -4.33221 0
M  V30 5770 C 517.82 2.70158 -5.49255 0
M  V30 5771 N 516.957 3.84248 -5.8762 0
M  V30 5772 H 521.797 0.454506 -2.94514 0
M  V30 5773 H 519.334 0.212718 -1.45554 0
M  V30 5774 H 521.292 2.93443 -2.96559 0
M  V30 5775 H 519.922 2.63528 -1.86421 0
M  V30 5776 H 518.974 1.01874 -3.66505 0
M  V30 5777 H 520.286 1.54592 -4.74239 0
M  V30 5778 H 519.44 3.89972 -4.64765 0
M  V30 5779 H 518.179 3.41988 -3.477 0
M  V30 5780 H 517.184 1.86001 -5.17382 0
M  V30 5781 H 518.409 2.36759 -6.36492 0
M  V30 5782 H 516.355 4.18638 -5.05053 0
M  V30 5783 H 516.272 3.56538 -6.66646 0
M  V30 5784 H 517.54 4.6746 -6.2378 0
M  V30 5785 N 521.769 1.56035 0.221574 0
M  V30 5786 C 523.185 1.49026 0.571271 0
M  V30 5787 C 523.385 0.746912 1.87146 0
M  V30 5788 O 522.441 0.286566 2.50869 0
M  V30 5789 C 523.754 2.93579 0.650522 0
M  V30 5790 C 525.302 3.04099 0.741151 0
M  V30 5791 C 525.777 4.5001 0.851747 0
M  V30 5792 N 527.268 4.54053 0.915968 0
M  V30 5793 C 528.003 5.64232 1.02125 0
M  V30 5794 N 527.499 6.84164 1.09049 0
M  V30 5795 N 529.292 5.52084 1.05639 0
M  V30 5796 H 521.443 2.02791 -0.63162 0
M  V30 5797 H 523.706 0.921736 -0.221602 0
M  V30 5798 H 523.412 3.50912 -0.235253 0
M  V30 5799 H 523.286 3.45476 1.51413 0
M  V30 5800 H 525.673 2.4683 1.61737 0
M  V30 5801 H 525.754 2.55371 -0.148128 0
M  V30 5802 H 525.398 5.07896 -0.0200117 0
M  V30 5803 H 525.328 4.96444 1.75644 0
M  V30 5804 H 527.819 3.67683 0.872782 0
M  V30 5805 H 528.132 7.63883 1.1706 0
M  V30 5806 H 526.477 6.86875 1.05962 0
M  V30 5807 H 529.668 4.57317 0.998953 0
M  V30 5808 H 529.841 6.37983 1.13498 0
M  V30 5809 N 523.247 -0.488276 1.49845 0
M  V30 5810 C 524.496 -1.23826 1.59217 0
M  V30 5811 C 524.809 -1.93439 0.289966 0
M  V30 5812 O 526.015 -2.70229 0.262382 0
M  V30 5813 C 524.471 -2.24902 2.80976 0
M  V30 5814 C 524.079 -1.6117 4.18005 0
M  V30 5815 C 525.823 -3.00648 2.99685 0
M  V30 5816 C 523.73 -2.60431 5.3097 0
M  V30 5817 H 522.66 -0.465858 0.592868 0
M  V30 5818 H 525.311 -0.510645 1.76252 0
M  V30 5819 H 523.693 -3.0088 2.57463 0
M  V30 5820 H 524.867 -0.910968 4.51706 0
M  V30 5821 H 523.182 -0.97767 4.0476 0
M  V30 5822 H 525.779 -3.74903 3.81251 0
M  V30 5823 H 526.122 -3.5902 2.10738 0
M  V30 5824 H 526.655 -2.31784 3.23297 0
M  V30 5825 H 523.394 -2.06823 6.22017 0
M  V30 5826 H 522.914 -3.28707 5.01709 0
M  V30 5827 H 524.593 -3.22606 5.60834 0
M  V30 5828 N 524.725 -1.39134 -0.740242 0
M  V30 5829 C 525.657 -1.33332 -1.86428 0
M  V30 5830 C 526.67 -0.243042 -1.60976 0
M  V30 5831 O 527.859 -0.501608 -1.71307 0
M  V30 5832 C 524.959 -1.04626 -3.22346 0
M  V30 5833 C 524.132 -2.24826 -3.75196 0
M  V30 5834 C 523.191 -1.92659 -4.89662 0
M  V30 5835 O 522.217 -2.6529 -5.03597 0
M  V30 5836 N 523.419 -0.889575 -5.73643 0
M  V30 5837 H 526.184 -2.30196 -1.91911 0
M  V30 5838 H 523.745 -1.33168 -0.920756 0
M  V30 5839 H 525.737 -0.811347 -3.96484 0
M  V30 5840 H 524.307 -0.165129 -3.12164 0
M  V30 5841 H 523.527 -2.64301 -2.9247 0
M  V30 5842 H 524.815 -3.05015 -4.07239 0
M  V30 5843 H 524.213 -0.287529 -5.64969 0
M  V30 5844 H 522.77 -0.714557 -6.47871 0
M  V30 5845 N 526.204 0.969867 -1.24223 0
M  V30 5846 C 527.453 1.70687 -1.07466 0
M  V30 5847 C 527.766 1.91736 0.386861 0
M  V30 5848 O 528.972 2.62986 0.674581 0
M  V30 5849 C 527.428 3.07217 -1.87472 0
M  V30 5850 C 527.036 2.94018 -3.3802 0
M  V30 5851 C 528.78 3.84804 -1.79237 0
M  V30 5852 C 526.687 4.25844 -4.10379 0
M  V30 5853 H 525.617 0.640067 -0.398536 0
M  V30 5854 H 528.268 1.08092 -1.48285 0
M  V30 5855 H 526.65 3.70628 -1.39466 0
M  V30 5856 H 527.824 2.39632 -3.9359 0
M  V30 5857 H 526.139 2.29898 -3.47183 0
M  V30 5858 H 528.736 4.82417 -2.30603 0
M  V30 5859 H 529.079 4.09356 -0.757197 0
M  V30 5860 H 529.612 3.28115 -2.24912 0
M  V30 5861 H 526.351 4.06486 -5.14246 0
M  V30 5862 H 525.871 4.80054 -3.59594 0
M  V30 5863 H 527.55 4.94475 -4.17257 0
M  V30 5864 N 527.682 1.05563 1.17022 0
M  V30 5865 C 528.959 0.68165 1.83338 0
M  V30 5866 C 529.339 -0.837665 1.93769 0
M  V30 5867 O 528.687 -1.74507 1.47511 0
M  V30 5868 C 528.897 1.375 3.20772 0
M  V30 5869 C 530.245 1.51545 3.96635 0
M  V30 5870 O 531.269 1.33431 3.30264 0
M  V30 5871 O 530.128 1.812 5.15586 0
M  V30 5872 H 527.222 0.240412 0.791285 0
M  V30 5873 H 529.768 1.15545 1.24288 0
M  V30 5874 H 528.54 2.41135 3.08171 0
M  V30 5875 H 528.163 0.890798 3.87493 0
M  V30 5876 N 529.16 -1.33526 0.837174 0
M  V30 5877 C 530.385 -2.0258 0.444545 0
M  V30 5878 C 530.81 -1.6258 -0.946006 0
M  V30 5879 O 530.168 -0.817548 -1.6182 0
M  V30 5880 C 530.216 -3.5605 0.571006 0
M  V30 5881 O 529.32 -4.10422 -0.403431 0
M  V30 5882 H 528.661 -0.638866 0.180958 0
M  V30 5883 H 531.191 -1.70462 1.13154 0
M  V30 5884 H 531.201 -4.05488 0.452024 0
M  V30 5885 H 529.876 -3.84509 1.58512 0
M  V30 5886 H 528.453 -3.72113 -0.242147 0
M  V30 5887 N 530.638 -0.59345 -1.46 0
M  V30 5888 C 531.863 -0.0872365 -2.07216 0
M  V30 5889 C 532.288 1.2131 -1.43755 0
M  V30 5890 O 531.646 1.73528 -0.525152 0
M  V30 5891 C 531.694 0.0538197 -3.6056 0
M  V30 5892 O 530.798 1.10765 -3.97247 0
M  V30 5893 H 530.139 -0.0676598 -0.660544 0
M  V30 5894 H 532.669 -0.819445 -1.87473 0
M  V30 5895 H 532.679 0.256567 -4.07193 0
M  V30 5896 H 531.354 -0.895739 -4.0614 0
M  V30 5897 H 529.931 0.882501 -3.62307 0
M  V30 5898 N 532.116 1.54067 -0.331816 0
M  V30 5899 C 533.393 1.92915 0.322955 0
M  V30 5900 C 533.773 1.26225 1.69205 0
M  V30 5901 O 533.121 0.408919 2.24811 0
M  V30 5902 C 533.331 3.46619 0.406946 0
M  V30 5903 C 534.679 4.19386 0.663339 0
M  V30 5904 O 535.703 3.5282 0.489536 0
M  V30 5905 O 534.562 5.37288 0.999193 0
M  V30 5906 H 531.656 0.805808 0.186016 0
M  V30 5907 H 534.202 1.65342 -0.382135 0
M  V30 5908 H 532.974 3.87354 -0.554287 0
M  V30 5909 H 532.597 3.80324 1.15929 0
M  V30 5910 N 533.594 0.0601682 1.57485 0
M  V30 5911 C 534.841 -0.611594 1.93043 0
M  V30 5912 C 535.169 -1.70317 0.939274 0
M  V30 5913 O 534.424 -1.95644 -0.046996 0
M  V30 5914 C 534.723 -1.23831 3.35262 0
M  V30 5915 C 534.389 -0.274037 4.50066 0
M  V30 5916 C 533.051 -0.00872394 4.81199 0
M  V30 5917 C 535.403 0.386308 5.19766 0
M  V30 5918 C 532.731 0.924218 5.79375 0
M  V30 5919 C 535.083 1.3075 6.1894 0
M  V30 5920 C 533.747 1.58139 6.48497 0
M  V30 5921 H 533.017 -0.223798 0.706396 0
M  V30 5922 H 535.664 0.128566 1.91068 0
M  V30 5923 H 533.969 -2.05394 3.33647 0
M  V30 5924 H 535.666 -1.76517 3.60059 0
M  V30 5925 H 532.256 -0.491008 4.25778 0
M  V30 5926 H 536.44 0.194436 4.95919 0
M  V30 5927 H 531.696 1.1438 6.00606 0
M  V30 5928 H 535.87 1.82519 6.72056 0
M  V30 5929 H 533.497 2.30593 7.24383 0
M  V30 5930 N 535.072 -1.5615 -0.213296 0
M  V30 5931 C 536.002 -1.96109 -1.26742 0
M  V30 5932 C 536.983 -0.830448 -1.48451 0
M  V30 5933 O 538.168 -1.09339 -1.60495 0
M  V30 5934 C 535.298 -2.28492 -2.61551 0
M  V30 5935 C 534.252 -3.44124 -2.54485 0
M  V30 5936 C 533.578 -3.62134 -3.93399 0
M  V30 5937 C 534.878 -4.78855 -2.08556 0
M  V30 5938 H 536.572 -2.84412 -0.935434 0
M  V30 5939 H 534.118 -1.36836 -0.44854 0
M  V30 5940 H 536.071 -2.55039 -3.3546 0
M  V30 5941 H 534.795 -1.37052 -2.96453 0
M  V30 5942 H 533.454 -3.17639 -1.83033 0
M  V30 5943 H 533.102 -2.68055 -4.25623 0
M  V30 5944 H 532.802 -4.39913 -3.89551 0
M  V30 5945 H 534.326 -3.91038 -4.68958 0
M  V30 5946 H 535.74 -5.04552 -2.72213 0
M  V30 5947 H 534.137 -5.59975 -2.1575 0
M  V30 5948 H 535.207 -4.73657 -1.03811 0
M  V30 5949 N 536.55 0.480323 -1.50102 0
M  V30 5950 C 537.775 1.26126 -1.64642 0
M  V30 5951 C 538.2 1.85257 -0.325823 0
M  V30 5952 O 537.558 1.66854 0.709194 0
M  V30 5953 C 537.606 2.35243 -2.73301 0
M  V30 5954 O 536.71 3.39646 -2.33911 0
M  V30 5955 H 536.051 0.371463 -0.550374 0
M  V30 5956 H 538.581 0.572696 -1.96421 0
M  V30 5957 H 538.591 2.80695 -2.96098 0
M  V30 5958 H 537.266 1.91574 -3.6915 0
M  V30 5959 H 535.843 2.99969 -2.21525 0
M  V30 5960 N 538.028 1.39524 0.732853 0
M  V30 5961 C 539.256 1.40143 1.52209 0
M  V30 5962 C 539.671 -0.00348836 1.888 0
M  V30 5963 O 539.028 -0.975357 1.5425 0
M  V30 5964 C 539.079 2.27632 2.8083 0
M  V30 5965 O 538.8 3.62654 2.45792 0
M  V30 5966 C 540.301 2.36658 3.74844 0
M  V30 5967 H 537.521 0.478604 0.470297 0
M  V30 5968 H 540.065 1.83366 0.905388 0
M  V30 5969 H 538.22 1.87818 3.38826 0
M  V30 5970 H 538.634 4.08941 3.28431 0
M  V30 5971 H 540.108 3.02118 4.61984 0
M  V30 5972 H 540.585 1.38638 4.16745 0
M  V30 5973 H 541.191 2.76951 3.22766 0
M  V30 5974 N 539.506 -0.963266 1.24736 0
M  V30 5975 C 540.416 -2.09246 1.06082 0
M  V30 5976 C 541.432 -1.74 0.000363101 0
M  V30 5977 O 542.608 -2.0041 0.199479 0
M  V30 5978 C 539.673 -3.40115 0.672498 0
M  V30 5979 C 538.734 -3.89282 1.80993 0
M  V30 5980 C 537.967 -5.13905 1.44004 0
M  V30 5981 O 538.19 -5.69434 0.331835 0
M  V30 5982 O 537.124 -5.57566 2.26723 0
M  V30 5983 H 540.95 -2.27881 2.00759 0
M  V30 5984 H 538.535 -1.07649 1.03595 0
M  V30 5985 H 540.417 -4.18797 0.467668 0
M  V30 5986 H 539.092 -3.22771 -0.245102 0
M  V30 5987 H 537.999 -3.11642 2.06955 0
M  V30 5988 H 539.332 -4.1111 2.70646 0
M  V30 5989 N 540.985 -1.06182 -1.16461 0
M  V30 5990 C 541.895 -0.682671 -2.24448 0
M  V30 5991 C 542.911 0.30078 -1.71381 0
M  V30 5992 O 544.087 0.150376 -2.00838 0
M  V30 5993 C 541.152 -0.0737202 -3.46622 0
M  V30 5994 C 540.213 -1.10889 -4.14731 0
M  V30 5995 C 539.446 -0.528908 -5.31073 0
M  V30 5996 O 539.669 0.65868 -5.66584 0
M  V30 5997 O 538.603 -1.26805 -5.88391 0
M  V30 5998 H 542.429 -1.58291 -2.59187 0
M  V30 5999 H 540.014 -0.834013 -1.23954 0
M  V30 6000 H 541.896 0.264192 -4.20571 0
M  V30 6001 H 540.571 0.800015 -3.13658 0
M  V30 6002 H 539.478 -1.49896 -3.42756 0
M  V30 6003 H 540.811 -1.95412 -4.51747 0
M  V30 6004 N 542.463 1.3308 -0.844243 0
M  V30 6005 C 543.41 2.29104 -0.279323 0
M  V30 6006 C 544.38 1.54577 0.607882 0
M  V30 6007 O 545.565 1.8285 0.545009 0
M  V30 6008 C 542.705 3.40927 0.53508 0
M  V30 6009 C 541.818 4.30354 -0.376749 0
M  V30 6010 C 540.953 5.29297 0.449276 0
M  V30 6011 C 539.992 6.10365 -0.460606 0
M  V30 6012 N 539.129 7.01335 0.327612 0
M  V30 6013 H 543.969 2.76817 -1.10346 0
M  V30 6014 H 541.506 1.36203 -0.555611 0
M  V30 6015 H 543.464 4.04469 1.02278 0
M  V30 6016 H 542.094 2.94391 1.32414 0
M  V30 6017 H 541.146 3.67485 -0.982791 0
M  V30 6018 H 542.458 4.87067 -1.07549 0
M  V30 6019 H 541.612 5.98392 1.00058 0
M  V30 6020 H 540.351 4.73174 1.18143 0
M  V30 6021 H 539.356 5.40182 -1.02388 0
M  V30 6022 H 540.581 6.68571 -1.1912 0
M  V30 6023 H 538.527 6.47655 1.04305 0
M  V30 6024 H 538.444 7.55355 -0.3123 0
M  V30 6025 H 539.712 7.74731 0.86098 0
M  V30 6026 N 543.941 0.601185 1.45683 0
M  V30 6027 C 544.851 -0.123395 2.34275 0
M  V30 6028 C 545.867 -0.86702 1.5086 0
M  V30 6029 O 547.043 -0.826049 1.8368 0
M  V30 6030 C 544.108 -1.11237 3.2837 0
M  V30 6031 C 543.169 -0.371405 4.2769 0
M  V30 6032 C 542.402 -1.31327 5.1729 0
M  V30 6033 O 542.625 -2.55078 5.10188 0
M  V30 6034 O 541.559 -0.813811 5.96373 0
M  V30 6035 H 545.385 0.604483 2.97623 0
M  V30 6036 H 542.97 0.361477 1.44961 0
M  V30 6037 H 544.852 -1.68214 3.8637 0
M  V30 6038 H 543.527 -1.82139 2.67595 0
M  V30 6039 H 542.434 0.24067 3.73325 0
M  V30 6040 H 543.767 0.296998 4.91303 0
M  V30 6041 N 545.419 -1.53889 0.339982 0
M  V30 6042 C 546.666 -2.00855 -0.257621 0
M  V30 6043 C 546.994 -1.22788 -1.50842 0
M  V30 6044 O 546.249 -0.302567 -1.93347 0
M  V30 6045 C 546.548 -3.51968 -0.620735 0
M  V30 6046 C 546.214 -4.47741 0.532771 0
M  V30 6047 C 544.876 -4.73645 0.849339 0
M  V30 6048 C 547.228 -5.04551 1.3068 0
M  V30 6049 C 544.556 -5.53614 1.94237 0
M  V30 6050 C 546.908 -5.85713 2.39005 0
M  V30 6051 C 545.572 -6.09912 2.71225 0
M  V30 6052 H 544.842 -0.734979 -0.0942703 0
M  V30 6053 H 547.489 -1.85714 0.467159 0
M  V30 6054 H 545.794 -3.64921 -1.42618 0
M  V30 6055 H 547.491 -3.85762 -1.09495 0
M  V30 6056 H 544.081 -4.27711 0.275973 0
M  V30 6057 H 548.265 -4.84507 1.07549 0
M  V30 6058 H 543.521 -5.7059 2.19628 0
M  V30 6059 H 547.695 -6.28748 2.99415 0
M  V30 6060 H 545.322 -6.71665 3.56047 0
M  V30 6061 N 546.897 -0.0685191 -1.57451 0
M  V30 6062 C 547.827 0.89747 -2.15564 0
M  V30 6063 C 548.808 1.31266 -1.08181 0
M  V30 6064 O 549.993 1.38429 -1.36202 0
M  V30 6065 C 547.123 2.16623 -2.71463 0
M  V30 6066 C 546.077 1.89054 -3.83982 0
M  V30 6067 C 545.403 3.22532 -4.26471 0
M  V30 6068 C 546.703 1.1984 -5.08366 0
M  V30 6069 H 548.397 0.413373 -2.96533 0
M  V30 6070 H 545.943 0.197391 -1.42641 0
M  V30 6071 H 547.896 2.84614 -3.10761 0
M  V30 6072 H 546.62 2.67269 -1.8771 0
M  V30 6073 H 545.279 1.23469 -3.45183 0
M  V30 6074 H 544.927 3.71013 -3.39644 0
M  V30 6075 H 544.627 3.04879 -5.02317 0
M  V30 6076 H 546.151 3.91727 -4.68383 0
M  V30 6077 H 547.565 1.77896 -5.45001 0
M  V30 6078 H 545.962 1.12456 -5.89469 0
M  V30 6079 H 547.032 0.176996 -4.84577 0
M  V30 6080 N 548.375 1.56261 0.205012 0
M  V30 6081 C 549.322 1.93754 1.25411 0
M  V30 6082 C 550.292 0.796826 1.45739 0
M  V30 6083 O 551.477 1.05414 1.59036 0
M  V30 6084 C 548.617 2.27383 2.59598 0
M  V30 6085 C 547.73 3.5447 2.46931 0
M  V30 6086 C 546.865 3.77468 3.73753 0
M  V30 6087 C 545.904 4.98014 3.55877 0
M  V30 6088 N 545.041 5.17316 4.74688 0
M  V30 6089 H 549.881 2.83203 0.92737 0
M  V30 6090 H 547.418 1.40158 0.446574 0
M  V30 6091 H 549.376 2.44895 3.37761 0
M  V30 6092 H 548.006 1.41088 2.90335 0
M  V30 6093 H 547.058 3.45061 1.60116 0
M  V30 6094 H 548.37 4.42789 2.29651 0
M  V30 6095 H 547.524 3.95165 4.60358 0
M  V30 6096 H 546.263 2.87461 3.93976 0
M  V30 6097 H 545.268 4.80249 2.67657 0
M  V30 6098 H 546.493 5.8952 3.37109 0
M  V30 6099 H 544.439 4.30255 4.95194 0
M  V30 6100 H 544.356 5.99796 4.60197 0
M  V30 6101 H 545.624 5.39463 5.62672 0
M  V30 6102 N 549.853 -0.472356 1.50355 0
M  V30 6103 C 550.8 -1.57051 1.69126 0
M  V30 6104 C 551.77 -1.5733 0.532574 0
M  V30 6105 O 552.955 -1.7488 0.762994 0
M  V30 6106 C 550.095 -2.95033 1.79024 0
M  V30 6107 C 549.208 -3.04552 3.06386 0
M  V30 6108 C 548.343 -4.33441 3.07087 0
M  V30 6109 C 547.382 -4.36697 4.28908 0
M  V30 6110 N 546.519 -5.57056 4.27356 0
M  V30 6111 H 551.359 -1.40351 2.62879 0
M  V30 6112 H 548.896 -0.682403 1.30314 0
M  V30 6113 H 550.854 -3.75048 1.82744 0
M  V30 6114 H 549.484 -3.10371 0.887109 0
M  V30 6115 H 548.536 -2.17419 3.12143 0
M  V30 6116 H 549.848 -3.02818 3.96362 0
M  V30 6117 H 549.002 -5.21801 3.09529 0
M  V30 6118 H 547.741 -4.37782 2.14939 0
M  V30 6119 H 546.746 -3.46734 4.2668 0
M  V30 6120 H 547.971 -4.34049 5.22282 0
M  V30 6121 H 545.917 -5.62184 3.3806 0
M  V30 6122 H 545.834 -5.57058 5.111 0
M  V30 6123 H 547.102 -6.47545 4.33942 0
M  V30 6124 N 551.331 -1.39911 -0.725443 0
M  V30 6125 C 552.261 -1.42138 -1.85254 0
M  V30 6126 C 553.242 -0.283513 -1.67721 0
M  V30 6127 O 554.427 -0.490717 -1.87898 0
M  V30 6128 C 551.557 -1.27354 -3.23107 0
M  V30 6129 C 550.511 -2.3864 -3.55296 0
M  V30 6130 C 549.837 -2.08939 -4.92188 0
M  V30 6131 C 551.137 -3.8097 -3.57295 0
M  V30 6132 H 552.831 -2.36461 -1.83648 0
M  V30 6133 H 550.377 -1.13817 -0.882138 0
M  V30 6134 H 552.33 -1.2753 -4.01639 0
M  V30 6135 H 551.054 -0.295025 -3.25265 0
M  V30 6136 H 549.713 -2.37696 -2.79099 0
M  V30 6137 H 549.361 -1.09502 -4.90936 0
M  V30 6138 H 549.061 -2.83491 -5.14691 0
M  V30 6139 H 550.585 -2.10781 -5.73065 0
M  V30 6140 H 551.999 -3.8379 -4.25885 0
M  V30 6141 H 550.396 -4.5496 -3.9132 0
M  V30 6142 H 551.466 -4.11261 -2.5689 0
M  V30 6143 N 552.809 0.956637 -1.25245 0
M  V30 6144 C 553.741 2.05628 -1.01242 0
M  V30 6145 C 554.754 1.62785 0.0219579 0
M  V30 6146 O 555.943 1.77184 -0.216365 0
M  V30 6147 C 553.043 3.35069 -0.508161 0
M  V30 6148 C 552.216 4.06761 -1.60823 0
M  V30 6149 C 551.275 5.14473 -1.1047 0
M  V30 6150 O 550.301 5.40033 -1.79868 0
M  V30 6151 N 551.503 5.80474 0.0550773 0
M  V30 6152 H 554.268 2.2679 -1.95925 0
M  V30 6153 H 551.829 1.12505 -1.16423 0
M  V30 6154 H 553.821 4.044 -0.155819 0
M  V30 6155 H 552.391 3.10694 0.344683 0
M  V30 6156 H 551.611 3.31555 -2.13224 0
M  V30 6157 H 552.899 4.51418 -2.34733 0
M  V30 6158 H 552.297 5.62125 0.635004 0
M  V30 6159 H 550.854 6.50868 0.348469 0
M  V30 6160 N 554.287 1.06798 1.15896 0
M  V30 6161 C 555.536 0.782796 1.8589 0
M  V30 6162 C 555.849 -0.693498 1.82893 0
M  V30 6163 O 557.055 -1.09325 2.48516 0
M  V30 6164 C 555.511 1.3502 3.33613 0
M  V30 6165 C 555.119 2.8571 3.45071 0
M  V30 6166 C 556.863 1.14278 4.08829 0
M  V30 6167 C 554.77 3.35669 4.86909 0
M  V30 6168 H 553.7 0.289149 0.696354 0
M  V30 6169 H 556.351 1.28734 1.30766 0
M  V30 6170 H 554.733 0.773407 3.88374 0
M  V30 6171 H 555.907 3.49385 3.00445 0
M  V30 6172 H 554.222 3.05178 2.83294 0
M  V30 6173 H 556.819 1.49087 5.13495 0
M  V30 6174 H 557.162 0.0814575 4.1622 0
M  V30 6175 H 557.695 1.68563 3.60321 0
M  V30 6176 H 554.434 4.41302 4.84698 0
M  V30 6177 H 553.954 2.76745 5.32139 0
M  V30 6178 H 555.633 3.31296 5.55745 0
M  V30 6179 N 555.766 -1.3263 0.851289 0
M  V30 6180 C 557.043 -1.91982 0.374448 0
M  V30 6181 C 557.423 -1.77568 -1.14161 0
M  V30 6182 O 556.771 -1.1717 -1.96172 0
M  V30 6183 C 556.981 -3.38862 0.835088 0
M  V30 6184 C 558.329 -4.15999 0.850309 0
M  V30 6185 O 559.353 -3.47566 0.779505 0
M  V30 6186 O 558.212 -5.38189 0.949481 0
M  V30 6187 H 555.306 -0.819846 0.10854 0
M  V30 6188 H 557.852 -1.41422 0.937966 0
M  V30 6189 H 556.624 -3.43281 1.87814 0
M  V30 6190 H 556.247 -3.96821 0.248833 0
M  V30 6191 N 557.244 -0.608902 -1.45362 0
M  V30 6192 C 558.493 -0.10218 -2.01441 0
M  V30 6193 C 558.806 1.27546 -1.48295 0
M  V30 6194 O 560.012 1.87498 -1.96359 0
M  V30 6195 C 558.468 -0.131985 -3.59658 0
M  V30 6196 C 558.076 -1.50956 -4.21801 0
M  V30 6197 C 559.82 0.319427 -4.23296 0
M  V30 6198 C 557.727 -1.49568 -5.72174 0
M  V30 6199 H 556.657 -0.0344314 -0.753213 0
M  V30 6200 H 559.308 -0.764426 -1.6682 0
M  V30 6201 H 557.69 0.596939 -3.91475 0
M  V30 6202 H 558.864 -2.26029 -4.01556 0
M  V30 6203 H 557.179 -1.90318 -3.70362 0
M  V30 6204 H 559.776 0.349013 -5.3356 0
M  V30 6205 H 560.119 1.34237 -3.94064 0
M  V30 6206 H 560.652 -0.356273 -3.96201 0
M  V30 6207 H 557.391 -2.49626 -6.06108 0
M  V30 6208 H 556.911 -0.787542 -5.94607 0
M  V30 6209 H 558.59 -1.21989 -6.35396 0
M  V30 6210 N 558.722 1.53707 -0.348139 0
M  V30 6211 C 560.138 1.596 0.00361134 0
M  V30 6212 C 560.338 1.36394 1.4832 0
M  V30 6213 O 559.394 1.16046 2.24253 0
M  V30 6214 C 560.707 2.97512 -0.436682 0
M  V30 6215 C 562.255 3.10568 -0.389416 0
M  V30 6216 C 562.73 4.50866 -0.805249 0
M  V30 6217 N 564.221 4.56929 -0.759616 0
M  V30 6218 C 564.956 5.63643 -1.05327 0
M  V30 6219 N 564.452 6.78189 -1.41531 0
M  V30 6220 N 566.245 5.5354 -0.977207 0
M  V30 6221 H 558.396 1.67044 -1.31187 0
M  V30 6222 H 560.659 0.782559 -0.535075 0
M  V30 6223 H 560.365 3.19575 -1.46849 0
M  V30 6224 H 560.239 3.76742 0.185744 0
M  V30 6225 H 562.626 2.88226 0.633228 0
M  V30 6226 H 562.707 2.33387 -1.04711 0
M  V30 6227 H 562.351 4.73943 -1.82593 0
M  V30 6228 H 562.281 5.26452 -0.124989 0
M  V30 6229 H 564.772 3.74675 -0.49265 0
M  V30 6230 H 565.085 7.55541 -1.62411 0
M  V30 6231 H 563.43 6.79624 -1.45381 0
M  V30 6232 H 566.621 4.62932 -0.693675 0
M  V30 6233 H 566.794 6.36614 -1.2094 0
M  V30 6234 N 560.2 0.0768682 1.57412 0
M  V30 6235 C 561.477 -0.632359 1.85096 0
M  V30 6236 C 561.857 -1.87479 0.9703 0
M  V30 6237 O 561.205 -2.28469 0.0379062 0
M  V30 6238 C 561.415 -0.965174 3.35388 0
M  V30 6239 C 562.763 -1.33648 4.03018 0
M  V30 6240 O 563.787 -1.05675 3.40164 0
M  V30 6241 O 562.646 -1.85959 5.13889 0
M  V30 6242 H 559.74 -0.314574 0.764835 0
M  V30 6243 H 562.286 0.108184 1.69355 0
M  V30 6244 H 561.058 -0.0829745 3.91212 0
M  V30 6245 H 560.681 -1.76231 3.5641 0
M  V30 6246 N 561.678 -1.56367 -0.196722 0
M  V30 6247 C 562.903 -1.84991 -0.937714 0
M  V30 6248 C 563.328 -0.660244 -1.76132 0
M  V30 6249 O 562.686 0.390967 -1.77034 0
M  V30 6250 C 562.734 -3.11828 -1.81096 0
M  V30 6251 O 561.838 -2.92266 -2.90955 0
M  V30 6252 H 561.179 -0.609193 -0.264159 0
M  V30 6253 H 563.709 -2.03595 -0.202529 0
M  V30 6254 H 563.719 -3.42579 -2.21594 0
M  V30 6255 H 562.394 -3.98037 -1.2058 0
M  V30 6256 H 560.971 -2.72809 -2.54224 0
M  V30 6257 N 563.156 0.464375 -1.50603 0
M  V30 6258 C 564.086 1.56944 -1.72889 0
M  V30 6259 C 565.067 1.59979 -0.577997 0
M  V30 6260 O 566.252 1.76138 -0.817855 0
M  V30 6261 C 563.382 2.95225 -1.8292 0
M  V30 6262 C 562.336 3.07056 -2.98162 0
M  V30 6263 C 561.662 4.47051 -2.93343 0
M  V30 6264 C 562.962 2.83648 -4.38567 0
M  V30 6265 H 564.656 1.38547 -2.65415 0
M  V30 6266 H 562.202 0.665082 -1.27721 0
M  V30 6267 H 564.155 3.72467 -1.97095 0
M  V30 6268 H 562.879 3.14793 -0.870209 0
M  V30 6269 H 561.538 2.32248 -2.83648 0
M  V30 6270 H 561.186 4.63547 -1.95276 0
M  V30 6271 H 560.886 4.55902 -3.70712 0
M  V30 6272 H 562.41 5.26304 -3.09575 0
M  V30 6273 H 563.824 3.50636 -4.53572 0
M  V30 6274 H 562.221 3.03937 -5.17438 0
M  V30 6275 H 563.291 1.79451 -4.50472 0
M  V30 6276 N 564.634 1.40294 0.718013 0
M  V30 6277 C 565.859 1.41941 1.5122 0
M  V30 6278 C 566.284 0.0202371 1.88089 0
M  V30 6279 O 565.642 -0.971078 1.53101 0
M  V30 6280 C 565.69 2.3141 2.76554 0
M  V30 6281 O 564.794 1.75567 3.73162 0
M  V30 6282 H 564.135 0.482644 0.456016 0
M  V30 6283 H 566.665 1.84494 0.884478 0
M  V30 6284 H 566.675 2.46513 3.25108 0
M  V30 6285 H 565.35 3.33085 2.49053 0
M  V30 6286 H 563.927 1.69798 3.31999 0
M  V30 6287 N 566.112 -0.949982 1.2575 0
M  V30 6288 C 567.022 -2.08109 1.08295 0
M  V30 6289 C 568.038 -1.7399 0.0188181 0
M  V30 6290 O 569.214 -2.00187 0.220724 0
M  V30 6291 C 566.279 -3.39383 0.708534 0
M  V30 6292 C 565.34 -3.8734 1.85111 0
M  V30 6293 C 564.573 -5.12349 1.49447 0
M  V30 6294 O 564.796 -5.6905 0.392212 0
M  V30 6295 O 563.73 -5.5513 2.32624 0
M  V30 6296 H 567.556 -2.25738 2.03165 0
M  V30 6297 H 565.141 -1.06545 1.04731 0
M  V30 6298 H 567.023 -4.18277 0.512061 0
M  V30 6299 H 565.698 -3.23013 -0.210854 0
M  V30 6300 H 564.605 -3.09429 2.10248 0
M  V30 6301 H 565.938 -4.08216 2.74991 0
M  V30 6302 N 567.59 -1.07411 -1.15328 0
M  V30 6303 C 568.5 -0.706438 -2.23711 0
M  V30 6304 C 569.516 0.282586 -1.7169 0
M  V30 6305 O 570.692 0.129066 -2.00986 0
M  V30 6306 C 567.757 -0.11048 -3.46524 0
M  V30 6307 C 566.818 -1.15282 -4.13532 0
M  V30 6308 C 566.051 -0.585205 -5.30482 0
M  V30 6309 O 566.274 0.598549 -5.67251 0
M  V30 6310 O 565.208 -1.33039 -5.87013 0
M  V30 6311 H 569.034 -1.61031 -2.57493 0
M  V30 6312 H 566.619 -0.847113 -1.23062 0
M  V30 6313 H 568.501 0.21957 -4.20828 0
M  V30 6314 H 567.176 0.766703 -3.14489 0
M  V30 6315 H 566.083 -1.53523 -3.41147 0
M  V30 6316 H 567.416 -2.00192 -4.49649 0
M  V30 6317 N 569.068 1.32177 -0.85831 0
M  V30 6318 C 569.978 2.32561 -0.308606 0
M  V30 6319 C 570.994 1.64209 0.575462 0
M  V30 6320 O 572.17 1.95719 0.474961 0
M  V30 6321 C 569.235 3.43207 0.490909 0
M  V30 6322 C 568.296 4.27243 -0.419733 0
M  V30 6323 C 567.529 5.32605 0.341719 0
M  V30 6324 O 567.752 5.48332 1.57125 0
M  V30 6325 O 566.686 6.0118 -0.294379 0
M  V30 6326 H 570.512 2.81477 -1.14037 0
M  V30 6327 H 568.097 1.35866 -0.621349 0
M  V30 6328 H 569.979 4.10677 0.944574 0
M  V30 6329 H 568.654 2.96474 1.29941 0
M  V30 6330 H 567.561 3.62569 -0.921652 0
M  V30 6331 H 568.894 4.7751 -1.19352 0
M  V30 6332 N 570.547 0.616602 1.45037 0
M  V30 6333 C 571.494 -0.0969439 2.30596 0
M  V30 6334 C 572.464 -0.851151 1.42635 0
M  V30 6335 O 573.649 -0.835092 1.71554 0
M  V30 6336 C 570.789 -1.08234 3.27688 0
M  V30 6337 C 569.902 -0.328072 4.30752 0
M  V30 6338 C 569.037 -1.30399 5.14946 0
M  V30 6339 C 568.076 -0.538049 6.09731 0
M  V30 6340 N 567.213 -1.46371 6.86673 0
M  V30 6341 H 572.053 0.63864 2.91076 0
M  V30 6342 H 569.59 0.326733 1.43425 0
M  V30 6343 H 571.548 -1.66688 3.82454 0
M  V30 6344 H 570.178 -1.78523 2.68941 0
M  V30 6345 H 569.23 0.372136 3.78575 0
M  V30 6346 H 570.542 0.269142 4.98073 0
M  V30 6347 H 569.696 -1.96032 5.74157 0
M  V30 6348 H 568.435 -1.93514 4.47665 0
M  V30 6349 H 567.44 0.131852 5.49642 0
M  V30 6350 H 568.665 0.0881732 6.79043 0
M  V30 6351 H 566.611 -2.08233 6.22073 0
M  V30 6352 H 566.528 -0.920152 7.50379 0
M  V30 6353 H 567.796 -2.10932 7.50418 0
M  V30 6354 N 572.025 -1.5352 0.356285 0
M  V30 6355 C 572.935 -2.29151 -0.502712 0
M  V30 6356 C 573.951 -1.34753 -1.1008 0
M  V30 6357 O 575.127 -1.67803 -1.11374 0
M  V30 6358 C 572.192 -3.05911 -1.63154 0
M  V30 6359 C 571.253 -4.15958 -1.06194 0
M  V30 6360 C 570.486 -4.8905 -2.13696 0
M  V30 6361 O 570.709 -4.61919 -3.34645 0
M  V30 6362 O 569.643 -5.75202 -1.77275 0
M  V30 6363 H 573.469 -3.03492 0.112466 0
M  V30 6364 H 571.054 -1.4891 0.120942 0
M  V30 6365 H 572.936 -3.53874 -2.28804 0
M  V30 6366 H 571.611 -2.34415 -2.23229 0
M  V30 6367 H 570.518 -3.7227 -0.369603 0
M  V30 6368 H 571.851 -4.89593 -0.505872 0
M  V30 6369 N 573.503 -0.0852151 -1.57369 0
M  V30 6370 C 574.433 0.874556 -2.16503 0
M  V30 6371 C 575.414 1.30111 -1.09568 0
M  V30 6372 O 576.599 1.36977 -1.37662 0
M  V30 6373 C 573.729 2.13731 -2.73745 0
M  V30 6374 C 572.683 1.84971 -3.85966 0
M  V30 6375 C 572.009 3.17991 -4.29867 0
M  V30 6376 C 573.309 1.14442 -5.09608 0
M  V30 6377 H 575.003 0.381899 -2.96954 0
M  V30 6378 H 572.549 0.18225 -1.42842 0
M  V30 6379 H 574.502 2.81302 -3.13763 0
M  V30 6380 H 573.226 2.65263 -1.90534 0
M  V30 6381 H 571.885 1.19801 -3.46473 0
M  V30 6382 H 571.533 3.6739 -3.4356 0
M  V30 6383 H 571.233 2.99534 -5.05523 0
M  V30 6384 H 572.757 3.86737 -4.72511 0
M  V30 6385 H 574.171 1.72105 -5.46857 0
M  V30 6386 H 572.568 1.06197 -5.90629 0
M  V30 6387 H 573.638 0.12559 -4.84737 0
M  V30 6388 N 574.981 1.5647 0.188427 0
M  V30 6389 C 575.911 1.98101 1.23606 0
M  V30 6390 C 576.892 0.853961 1.47111 0
M  V30 6391 O 578.077 1.11879 1.58735 0
M  V30 6392 C 575.207 2.32624 2.57882 0
M  V30 6393 C 574.161 3.48129 2.48978 0
M  V30 6394 C 573.487 3.68347 3.87588 0
M  V30 6395 C 574.787 4.82112 2.00911 0
M  V30 6396 H 576.481 2.85864 0.890068 0
M  V30 6397 H 574.027 1.37532 0.426714 0
M  V30 6398 H 575.98 2.60343 3.3136 0
M  V30 6399 H 574.704 1.41751 2.94235 0
M  V30 6400 H 573.363 3.20511 1.77956 0
M  V30 6401 H 573.011 2.74793 4.21305 0
M  V30 6402 H 572.711 4.46055 3.82503 0
M  V30 6403 H 574.235 3.98449 4.62678 0
M  V30 6404 H 575.649 5.08819 2.64151 0
M  V30 6405 H 574.046 5.63337 2.06814 0
M  V30 6406 H 575.116 4.75249 0.96262 0
M  V30 6407 N 576.459 -0.456382 1.50847 0
M  V30 6408 C 577.407 -1.57318 1.71329 0
M  V30 6409 C 578.401 -1.59187 0.579287 0
M  V30 6410 O 579.607 -1.6316 0.76018 0
M  V30 6411 H 575.982 -0.5223 0.541024 0
M  V30 6412 H 577.953 -1.3721 2.64983 0
M  V30 6413 C 576.702 -2.95142 1.83811 0
M  V30 6414 H 576.025 -2.94428 2.70467 0
M  V30 6415 H 577.465 -3.72702 2.02161 0
M  V30 6416 C 575.924 -3.31636 0.593224 0
M  V30 6417 O 576.454 -4.00852 -0.260898 0
M  V30 6418 N 574.66 -2.87205 0.442902 0
M  V30 6419 H 574.207 -2.31051 1.13901 0
M  V30 6420 H 574.165 -3.11986 -0.38884 0
M  V30 6421 N 577.937 -1.40673 -0.710563 0
M  V30 6422 C 579.353 -1.22813 -1.01928 0
M  V30 6423 C 579.553 -0.10687 -2.01216 0
M  V30 6424 O 578.609 0.533614 -2.46797 0
M  V30 6425 C 579.922 -2.57178 -1.5582 0
M  V30 6426 C 581.47 -2.64233 -1.67779 0
M  V30 6427 C 581.945 -3.98879 -2.25076 0
M  V30 6428 N 583.436 -4.00647 -2.32456 0
M  V30 6429 C 584.171 -5.01621 -2.77784 0
M  V30 6430 N 583.667 -6.12989 -3.22826 0
M  V30 6431 N 585.46 -4.88988 -2.77213 0
M  V30 6432 H 577.611 -2.12335 -0.05253 0
M  V30 6433 H 579.874 -0.9441 -0.085898 0
M  V30 6434 H 579.58 -3.39903 -0.903249 0
M  V30 6435 H 579.454 -2.78618 -2.54267 0
M  V30 6436 H 581.841 -1.81876 -2.3239 0
M  V30 6437 H 581.922 -2.46619 -0.679178 0
M  V30 6438 H 581.566 -4.81678 -1.61086 0
M  V30 6439 H 581.496 -4.13826 -3.25661 0
M  V30 6440 H 583.987 -3.20231 -2.0065 0
M  V30 6441 H 584.3 -6.85921 -3.55995 0
M  V30 6442 H 582.645 -6.16547 -3.20773 0
M  V30 6443 H 585.836 -4.01075 -2.41363 0
M  V30 6444 H 586.009 -5.67822 -3.12221 0
M  V30 6445 N 579.415 0.9433 -1.26252 0
M  V30 6446 C 580.664 1.68369 -1.11062 0
M  V30 6447 C 580.977 1.92514 0.346104 0
M  V30 6448 O 582.183 2.64358 0.618646 0
M  V30 6449 C 580.639 3.03171 -1.93946 0
M  V30 6450 C 580.247 2.86782 -3.4418 0
M  V30 6451 C 581.991 3.80916 -1.87359 0
M  V30 6452 C 579.898 4.17044 -4.19319 0
M  V30 6453 H 578.828 0.631469 -0.412023 0
M  V30 6454 H 581.479 1.04922 -1.50544 0
M  V30 6455 H 579.861 3.67587 -1.47296 0
M  V30 6456 H 581.035 2.31229 -3.98585 0
M  V30 6457 H 579.35 2.22482 -3.51981 0
M  V30 6458 H 581.947 4.77417 -2.40784 0
M  V30 6459 H 582.29 4.07658 -0.843857 0
M  V30 6460 H 582.823 3.2327 -2.31821 0
M  V30 6461 H 579.562 3.95487 -5.22753 0
M  V30 6462 H 579.082 4.72319 -3.69696 0
M  V30 6463 H 580.761 4.85513 -4.27651 0
M  V30 6464 N 580.893 1.08022 1.14757 0
M  V30 6465 C 581.825 0.664566 2.19354 0
M  V30 6466 C 582.838 -0.286374 1.60261 0
M  V30 6467 O 584.027 -0.0746362 1.78344 0
M  V30 6468 C 581.127 -0.0434634 3.38872 0
M  V30 6469 C 580.3 0.925381 4.27499 0
M  V30 6470 C 579.359 0.253398 5.2559 0
M  V30 6471 O 578.385 0.896581 5.62094 0
M  V30 6472 N 579.587 -0.998263 5.71852 0
M  V30 6473 H 582.352 1.56438 2.55631 0
M  V30 6474 H 579.913 0.965788 1.29939 0
M  V30 6475 H 581.905 -0.503857 4.01551 0
M  V30 6476 H 580.475 -0.845321 3.00954 0
M  V30 6477 H 579.695 1.56472 3.61815 0
M  V30 6478 H 580.983 1.58203 4.8358 0
M  V30 6479 H 580.381 -1.54063 5.44317 0
M  V30 6480 H 578.938 -1.40222 6.36538 0
M  V30 6481 N 582.371 -1.3172 0.865308 0
M  V30 6482 C 583.617 -1.97168 0.474633 0
M  V30 6483 C 583.95 -1.68263 -0.969604 0
M  V30 6484 O 583.225 -0.976588 -1.68205 0
M  V30 6485 C 583.508 -3.52689 0.726808 0
M  V30 6486 C 583.361 -3.91185 2.22024 0
M  V30 6487 C 584.68 -4.39689 0.190201 0
M  V30 6488 H 581.799 -0.716185 0.17392 0
M  V30 6489 H 584.441 -1.55925 1.08569 0
M  V30 6490 H 582.591 -3.8795 0.206705 0
M  V30 6491 H 584.263 -3.66049 2.80724 0
M  V30 6492 H 582.506 -3.3996 2.69462 0
M  V30 6493 H 583.177 -4.99604 2.34735 0
M  V30 6494 H 585.653 -4.11225 0.635103 0
M  V30 6495 H 584.529 -5.47469 0.396132 0
M  V30 6496 H 584.79 -4.32683 -0.907625 0
M  V30 6497 N 583.85 -0.624285 -1.44708 0
M  V30 6498 C 585.127 -0.0572781 -1.95516 0
M  V30 6499 C 585.507 1.41516 -1.56641 0
M  V30 6500 O 584.855 2.12614 -0.837111 0
M  V30 6501 C 585.065 -0.272944 -3.47931 0
M  V30 6502 C 586.413 -0.162529 -4.24289 0
M  V30 6503 O 587.437 -0.203946 -3.55616 0
M  V30 6504 O 586.296 -0.0616847 -5.46465 0
M  V30 6505 H 583.389 0.0262219 -0.826584 0
M  V30 6506 H 585.936 -0.695512 -1.54793 0
M  V30 6507 H 584.707 -1.29492 -3.69253 0
M  V30 6508 H 584.331 0.399756 -3.95585 0
M  V30 6509 N 585.328 1.53329 -0.364422 0
M  V30 6510 C 586.553 2.06132 0.229033 0
M  V30 6511 C 586.978 1.23625 1.41769 0
M  V30 6512 O 586.336 0.255038 1.79497 0
M  V30 6513 C 586.384 3.55544 0.60174 0
M  V30 6514 O 585.488 3.75771 1.69912 0
M  V30 6515 H 584.829 0.663148 0.0336213 0
M  V30 6516 H 587.359 1.97758 -0.524689 0
M  V30 6517 H 587.369 3.98549 0.873073 0
M  V30 6518 H 586.044 4.15039 -0.267421 0
M  V30 6519 H 584.621 3.44663 1.42343 0
M  V30 6520 N 586.806 0.0935595 1.57322 0
M  V30 6521 C 588.031 -0.582324 1.99057 0
M  V30 6522 C 588.456 -1.61025 0.972242 0
M  V30 6523 O 587.814 -1.81202 -0.0594622 0
M  V30 6524 C 587.862 -1.20799 3.39765 0
M  V30 6525 O 586.966 -2.32382 3.40694 0
M  V30 6526 H 586.307 -0.147884 0.647323 0
M  V30 6527 H 588.837 0.174516 2.03854 0
M  V30 6528 H 588.847 -1.54966 3.77425 0
M  V30 6529 H 587.522 -0.454914 4.13405 0
M  V30 6530 H 586.099 -1.99845 3.14827 0
M  V30 6531 N 588.284 -1.56567 -0.180126 0
M  V30 6532 C 589.232 -1.96632 -1.24251 0
M  V30 6533 C 590.226 -0.853818 -1.46309 0
M  V30 6534 O 591.432 -1.0389 -1.46993 0
M  V30 6535 H 587.807 -0.625476 -0.417473 0
M  V30 6536 H 589.778 -2.85201 -0.877679 0
M  V30 6537 C 588.527 -2.33486 -2.57642 0
M  V30 6538 H 587.85 -3.18626 -2.4149 0
M  V30 6539 H 589.29 -2.65371 -3.30688 0
M  V30 6540 C 587.749 -1.17499 -3.15746 0
M  V30 6541 O 588.279 -0.457956 -3.99081 0
M  V30 6542 N 586.485 -0.94786 -2.74707 0
M  V30 6543 H 586.032 -1.53269 -2.07042 0
M  V30 6544 H 585.99 -0.173626 -3.1392 0
M  V30 6545 N 589.762 0.448376 -1.51087 0
M  V30 6546 C 591.173 1.0286 -1.5581 0
M  V30 6547 C 591.524 1.92583 -0.374989 0
M  V30 6548 O 590.649 2.10316 0.509533 0
M  V30 6549 C 591.244 1.87223 -2.8237 0
M  V30 6550 C 589.803 2.40314 -2.897 0
M  V30 6551 C 588.95 1.19238 -2.50355 0
M  V30 6552 H 591.901 0.230075 -1.57023 0
M  V30 6553 H 591.922 2.72553 -2.6551 0
M  V30 6554 H 591.434 1.21894 -3.68461 0
M  V30 6555 H 589.535 3.09129 -2.08014 0
M  V30 6556 H 589.648 2.73866 -3.93108 0
M  V30 6557 H 588.012 1.53428 -2.03303 0
M  V30 6558 H 588.795 0.555367 -3.38778 0
M  V30 6559 N 591.24 1.41047 0.703093 0
M  V30 6560 C 592.17 1.45067 1.82969 0
M  V30 6561 C 593.151 0.31016 1.67248 0
M  V30 6562 O 594.336 0.520548 1.87093 0
M  V30 6563 C 591.466 1.32478 3.2104 0
M  V30 6564 C 590.42 2.44262 3.51454 0
M  V30 6565 C 589.746 2.16742 4.88801 0
M  V30 6566 C 591.046 3.86606 3.51189 0
M  V30 6567 H 592.74 2.39353 1.79863 0
M  V30 6568 H 590.286 1.15206 0.863919 0
M  V30 6569 H 592.239 1.33904 3.99559 0
M  V30 6570 H 590.963 0.346735 3.24754 0
M  V30 6571 H 589.622 2.42107 2.75282 0
M  V30 6572 H 589.27 1.17299 4.89132 0
M  V30 6573 H 588.97 2.91643 5.10116 0
M  V30 6574 H 590.494 2.19872 5.69639 0
M  V30 6575 H 591.908 3.90517 4.19725 0
M  V30 6576 H 590.305 4.61128 3.84033 0
M  V30 6577 H 591.375 4.15296 2.50315 0
M  V30 6578 N 592.718 -0.936591 1.26751 0
M  V30 6579 C 593.943 -1.72288 1.15462 0
M  V30 6580 C 594.368 -1.85915 -0.285887 0
M  V30 6581 O 593.726 -1.35272 -1.20711 0
M  V30 6582 C 593.774 -3.10503 1.83359 0
M  V30 6583 O 592.878 -3.96745 1.1255 0
M  V30 6584 H 592.219 -0.52843 0.402067 0
M  V30 6585 H 594.749 -1.17271 1.67656 0
M  V30 6586 H 594.759 -3.60867 1.90365 0
M  V30 6587 H 593.434 -2.99901 2.88153 0
M  V30 6588 H 592.011 -3.55191 1.13551 0
M  V30 6589 N 594.196 -1.08629 -1.14182 0
M  V30 6590 C 595.106 -0.730126 -2.22949 0
M  V30 6591 C 596.122 0.26436 -1.7198 0
M  V30 6592 O 597.298 0.107742 -2.01112 0
M  V30 6593 C 594.363 -0.147227 -3.46387 0
M  V30 6594 C 593.424 -1.19662 -4.12286 0
M  V30 6595 C 592.657 -0.641437 -5.29831 0
M  V30 6596 O 592.88 0.538351 -5.67854 0
M  V30 6597 O 591.814 -1.39257 -5.85569 0
M  V30 6598 H 595.64 -1.63753 -2.55771 0
M  V30 6599 H 593.225 -0.860118 -1.22157 0
M  V30 6600 H 595.107 0.174923 -4.21037 0
M  V30 6601 H 593.782 0.733304 -3.15285 0
M  V30 6602 H 592.689 -1.57133 -3.395 0
M  V30 6603 H 594.022 -2.0495 -4.475 0
M  V30 6604 N 595.674 1.31259 -0.872281 0
M  V30 6605 C 596.621 2.28459 -0.327857 0
M  V30 6606 C 597.591 1.55831 0.574957 0
M  V30 6607 O 598.776 1.83965 0.506101 0
M  V30 6608 C 595.916 3.41985 0.462644 0
M  V30 6609 C 595.029 4.29458 -0.467949 0
M  V30 6610 C 594.164 5.30131 0.336903 0
M  V30 6611 C 593.203 6.0925 -0.58997 0
M  V30 6612 N 592.34 7.01872 0.178775 0
M  V30 6613 H 597.18 2.74414 -1.16193 0
M  V30 6614 H 594.717 1.34994 -0.584376 0
M  V30 6615 H 596.675 4.06547 0.936759 0
M  V30 6616 H 595.305 2.97134 1.2614 0
M  V30 6617 H 594.357 3.65318 -1.06052 0
M  V30 6618 H 595.669 4.84677 -1.17856 0
M  V30 6619 H 594.823 6.0038 0.873427 0
M  V30 6620 H 593.562 4.75573 1.08079 0
M  V30 6621 H 592.567 5.37889 -1.13823 0
M  V30 6622 H 593.792 6.65894 -1.33275 0
M  V30 6623 H 591.738 6.49721 0.905435 0
M  V30 6624 H 591.655 7.54522 -0.472452 0
M  V30 6625 H 592.923 7.76382 0.696454 0
M  V30 6626 N 597.152 0.631951 1.44375 0
M  V30 6627 C 598.062 -0.073674 2.34484 0
M  V30 6628 C 599.078 -0.834825 1.52665 0
M  V30 6629 O 600.254 -0.786902 1.85391 0
M  V30 6630 C 597.319 -1.04247 3.30656 0
M  V30 6631 C 596.38 -0.280602 4.28382 0
M  V30 6632 C 595.613 -1.20325 5.19959 0
M  V30 6633 O 595.836 -2.44199 5.15484 0
M  V30 6634 O 594.77 -0.687128 5.97965 0
M  V30 6635 H 598.596 0.667477 2.96274 0
M  V30 6636 H 596.181 0.392144 1.44162 0
M  V30 6637 H 598.063 -1.59981 3.89851 0
M  V30 6638 H 596.738 -1.76422 2.71398 0
M  V30 6639 H 595.645 0.319804 3.72731 0
M  V30 6640 H 596.978 0.401144 4.90563 0
M  V30 6641 N 598.631 -1.53133 0.372548 0
M  V30 6642 C 599.578 -2.25951 -0.470631 0
M  V30 6643 C 600.548 -1.26895 -1.07176 0
M  V30 6644 O 601.733 -1.55691 -1.10294 0
M  V30 6645 C 598.873 -3.05726 -1.6008 0
M  V30 6646 C 597.986 -4.19684 -1.02416 0
M  V30 6647 C 597.121 -4.86888 -2.124 0
M  V30 6648 C 596.16 -5.92866 -1.52238 0
M  V30 6649 N 595.297 -6.53732 -2.56084 0
M  V30 6650 H 600.137 -2.97587 0.156816 0
M  V30 6651 H 597.674 -1.4683 0.0891571 0
M  V30 6652 H 599.632 -3.50258 -2.26661 0
M  V30 6653 H 598.262 -2.36331 -2.1988 0
M  V30 6654 H 597.314 -3.79588 -0.248426 0
M  V30 6655 H 598.626 -4.95821 -0.544366 0
M  V30 6656 H 597.78 -5.34638 -2.86787 0
M  V30 6657 H 596.519 -4.10239 -2.63734 0
M  V30 6658 H 595.524 -5.4447 -0.763685 0
M  V30 6659 H 596.749 -6.71439 -1.0172 0
M  V30 6660 H 594.695 -5.79932 -3.06618 0
M  V30 6661 H 594.612 -7.25429 -2.12811 0
M  V30 6662 H 595.88 -7.0613 -3.30152 0
M  V30 6663 N 600.109 -0.101901 -1.5727 0
M  V30 6664 C 601.019 0.868647 -2.17926 0
M  V30 6665 C 602.035 1.30527 -1.1506 0
M  V30 6666 O 603.211 1.37178 -1.47459 0
M  V30 6667 C 600.276 2.10727 -2.75309 0
M  V30 6668 C 599.337 1.7242 -3.93154 0
M  V30 6669 C 598.57 2.90377 -4.47791 0
M  V30 6670 O 598.793 4.05305 -4.01353 0
M  V30 6671 O 597.727 2.6845 -5.38719 0
M  V30 6672 H 601.553 0.382544 -3.01281 0
M  V30 6673 H 599.138 0.122812 -1.48894 0
M  V30 6674 H 601.02 2.83303 -3.11958 0
M  V30 6675 H 599.695 2.58376 -1.94996 0
M  V30 6676 H 598.602 0.970039 -3.61305 0
M  V30 6677 H 599.935 1.29528 -4.74851 0
M  V30 6678 N 601.587 1.56661 0.17182 0
M  V30 6679 C 602.834 1.81965 0.888529 0
M  V30 6680 C 603.162 0.6789 1.82267 0
M  V30 6681 O 602.417 -0.333875 1.92831 0
M  V30 6682 C 602.716 3.13435 1.71736 0
M  V30 6683 C 602.382 4.41159 0.932184 0
M  V30 6684 C 601.044 4.75851 0.715481 0
M  V30 6685 C 603.396 5.19803 0.381387 0
M  V30 6686 C 600.724 5.86666 -0.063126 0
M  V30 6687 C 603.076 6.31433 -0.384129 0
M  V30 6688 C 601.74 6.64692 -0.611637 0
M  V30 6689 H 601.01 0.665859 0.325136 0
M  V30 6690 H 603.657 1.90884 0.153495 0
M  V30 6691 H 601.962 2.99857 2.52177 0
M  V30 6692 H 603.659 3.30224 2.27493 0
M  V30 6693 H 600.249 4.13947 1.11112 0
M  V30 6694 H 604.433 4.93396 0.536148 0
M  V30 6695 H 599.689 6.10892 -0.249136 0
M  V30 6696 H 603.863 6.91577 -0.818185 0
M  V30 6697 H 601.49 7.50398 -1.21684 0
M  V30 6698 N 603.065 -0.440357 1.51323 0
M  V30 6699 C 603.995 -1.54174 1.75364 0
M  V30 6700 C 604.976 -1.59039 0.603375 0
M  V30 6701 O 606.161 -1.74815 0.845774 0
M  V30 6702 C 603.291 -2.92277 1.87593 0
M  V30 6703 C 602.245 -3.02274 3.03009 0
M  V30 6704 C 601.571 -4.42327 3.00418 0
M  V30 6705 C 602.871 -2.76634 4.43024 0
M  V30 6706 H 604.565 -1.34307 2.67585 0
M  V30 6707 H 602.111 -0.644678 1.28763 0
M  V30 6708 H 604.064 -3.69284 2.02995 0
M  V30 6709 H 602.788 -3.13369 0.920179 0
M  V30 6710 H 601.447 -2.27706 2.87307 0
M  V30 6711 H 601.095 -4.60382 2.02626 0
M  V30 6712 H 600.795 -4.49946 3.77918 0
M  V30 6713 H 602.319 -5.21312 3.17909 0
M  V30 6714 H 603.733 -3.43376 4.59093 0
M  V30 6715 H 602.13 -2.95666 5.22208 0
M  V30 6716 H 603.2 -1.72262 4.5327 0
M  V30 6717 N 604.543 -1.41418 -0.695603 0
M  V30 6718 C 605.49 -1.43264 -1.80954 0
M  V30 6719 C 606.46 -0.287016 -1.63601 0
M  V30 6720 O 607.645 -0.488054 -1.84452 0
M  V30 6721 C 604.785 -1.32054 -3.18835 0
M  V30 6722 C 603.898 -2.56485 -3.4762 0
M  V30 6723 C 603.033 -2.3757 -4.75115 0
M  V30 6724 C 602.072 -3.57477 -4.96867 0
M  V30 6725 N 601.209 -3.37632 -6.15588 0
M  V30 6726 H 606.049 -2.38467 -1.78711 0
M  V30 6727 H 603.586 -1.18415 -0.872715 0
M  V30 6728 H 605.544 -1.23558 -3.98484 0
M  V30 6729 H 604.174 -0.404592 -3.20254 0
M  V30 6730 H 603.226 -2.75432 -2.62376 0
M  V30 6731 H 604.538 -3.45678 -3.59594 0
M  V30 6732 H 603.692 -2.2654 -5.62818 0
M  V30 6733 H 602.431 -1.45834 -4.65386 0
M  V30 6734 H 601.436 -3.68961 -4.07612 0
M  V30 6735 H 602.661 -4.50167 -5.08455 0
M  V30 6736 H 600.607 -2.48596 -6.07072 0
M  V30 6737 H 600.524 -4.20401 -6.2833 0
M  V30 6738 H 601.792 -3.30375 -7.06026 0
M  V30 6739 N 606.021 0.929856 -1.27246 0
M  V30 6740 C 606.968 2.03017 -1.09785 0
M  V30 6741 C 607.938 1.661 0.000456744 0
M  V30 6742 O 609.123 1.90116 -0.161462 0
M  V30 6743 C 606.263 3.36878 -0.748816 0
M  V30 6744 C 605.376 3.86763 -1.92453 0
M  V30 6745 C 604.511 5.09061 -1.51758 0
M  V30 6746 C 603.55 5.51237 -2.66091 0
M  V30 6747 N 602.687 6.64732 -2.25999 0
M  V30 6748 H 607.527 2.17285 -2.03939 0
M  V30 6749 H 605.064 1.06448 -1.01524 0
M  V30 6750 H 607.022 4.13855 -0.527283 0
M  V30 6751 H 605.652 3.22424 0.155771 0
M  V30 6752 H 604.704 3.06086 -2.25867 0
M  V30 6753 H 606.016 4.13994 -2.78227 0
M  V30 6754 H 605.17 5.93532 -1.25716 0
M  V30 6755 H 603.909 4.83602 -0.630896 0
M  V30 6756 H 602.914 4.65316 -2.92849 0
M  V30 6757 H 604.139 5.78692 -3.55377 0
M  V30 6758 H 602.085 6.40935 -1.3978 0
M  V30 6759 H 602.002 6.91607 -3.05313 0
M  V30 6760 H 603.27 7.52549 -2.03199 0
M  V30 6761 N 607.499 1.09233 1.13605 0
M  V30 6762 C 608.429 0.751738 2.21068 0
M  V30 6763 C 609.41 -0.269688 1.67948 0
M  V30 6764 O 610.595 -0.13819 1.93708 0
M  V30 6765 C 607.725 0.16935 3.46887 0
M  V30 6766 C 606.679 1.12007 4.13084 0
M  V30 6767 C 606.005 0.399483 5.33206 0
M  V30 6768 C 607.305 2.46168 4.6065 0
M  V30 6769 H 608.999 1.65024 2.49815 0
M  V30 6770 H 606.545 0.794905 1.20072 0
M  V30 6771 H 608.498 -0.0809824 4.21322 0
M  V30 6772 H 607.222 -0.764335 3.1753 0
M  V30 6773 H 605.881 1.35564 3.40614 0
M  V30 6774 H 605.529 -0.538277 5.00112 0
M  V30 6775 H 605.229 1.03337 5.78442 0
M  V30 6776 H 606.753 0.157403 6.10397 0
M  V30 6777 H 608.167 2.26829 5.26518 0
M  V30 6778 H 606.564 3.05326 5.1662 0
M  V30 6779 H 607.634 3.07076 3.75276 0
M  V30 6780 N 608.977 -1.30795 0.87923 0
M  V30 6781 C 609.924 -2.28282 0.339968 0
M  V30 6782 C 610.894 -1.56134 -0.566685 0
M  V30 6783 O 612.079 -1.84231 -0.496338 0
M  V30 6784 C 609.219 -3.42225 -0.444501 0
M  V30 6785 C 608.332 -4.29204 0.490717 0
M  V30 6786 C 607.467 -5.30302 -0.308784 0
M  V30 6787 C 606.506 -6.08929 0.622272 0
M  V30 6788 N 605.643 -7.01957 -0.14155 0
M  V30 6789 H 610.483 -2.73794 1.17647 0
M  V30 6790 H 608.02 -1.34682 0.591527 0
M  V30 6791 H 609.978 -4.07038 -0.915186 0
M  V30 6792 H 608.608 -2.97799 -1.24562 0
M  V30 6793 H 607.66 -3.6475 1.07988 0
M  V30 6794 H 608.972 -4.84045 1.20425 0
M  V30 6795 H 608.126 -6.00835 -0.841575 0
M  V30 6796 H 606.865 -4.7614 -1.05556 0
M  V30 6797 H 605.87 -5.37278 1.16674 0
M  V30 6798 H 607.095 -6.65178 1.36804 0
M  V30 6799 H 605.041 -6.50192 -0.870966 0
M  V30 6800 H 604.958 -7.54261 0.51246 0
M  V30 6801 H 606.226 -7.76741 -0.655271 0
M  V30 6802 N 610.455 -0.639598 -1.44038 0
M  V30 6803 C 611.385 0.0469443 -2.33453 0
M  V30 6804 C 612.366 0.82609 -1.48694 0
M  V30 6805 O 613.551 0.790285 -1.77393 0
M  V30 6806 C 610.681 1.02338 -3.3188 0
M  V30 6807 C 609.635 0.355284 -4.26523 0
M  V30 6808 C 608.961 1.44221 -5.14883 0
M  V30 6809 C 610.261 -0.743798 -5.16977 0
M  V30 6810 H 611.955 -0.699735 -2.91108 0
M  V30 6811 H 609.501 -0.337946 -1.39978 0
M  V30 6812 H 611.454 1.51247 -3.93322 0
M  V30 6813 H 610.178 1.80105 -2.72451 0
M  V30 6814 H 608.837 -0.113239 -3.66425 0
M  V30 6815 H 608.485 2.21097 -4.51802 0
M  V30 6816 H 608.185 1.00052 -5.79019 0
M  V30 6817 H 609.709 1.93295 -5.79197 0
M  V30 6818 H 611.123 -0.337444 -5.72306 0
M  V30 6819 H 609.52 -1.10914 -5.89761 0
M  V30 6820 H 610.59 -1.60745 -4.57481 0
M  V30 6821 N 611.933 1.52934 -0.380664 0
M  V30 6822 C 613.21 1.93845 0.261417 0
M  V30 6823 C 613.59 1.31544 1.65104 0
M  V30 6824 O 612.938 0.480234 2.23397 0
M  V30 6825 C 613.148 3.47739 0.296466 0
M  V30 6826 C 614.496 4.21284 0.529578 0
M  V30 6827 O 615.52 3.54199 0.377041 0
M  V30 6828 O 614.379 5.40195 0.827753 0
M  V30 6829 H 611.473 0.811318 0.160285 0
M  V30 6830 H 614.019 1.64042 -0.434544 0
M  V30 6831 H 612.791 3.85395 -0.67724 0
M  V30 6832 H 612.414 3.8382 1.0377 0
M  V30 6833 N 613.412 0.11024 1.57214 0
M  V30 6834 C 614.661 -0.549638 1.94067 0
M  V30 6835 C 614.974 -1.68388 0.995234 0
M  V30 6836 O 616.18 -2.40593 1.25807 0
M  V30 6837 C 614.636 -1.02912 3.44873 0
M  V30 6838 C 614.244 0.0761861 4.47935 0
M  V30 6839 C 615.988 -1.66087 3.9066 0
M  V30 6840 C 613.895 -0.419502 5.8991 0
M  V30 6841 H 612.825 -0.209092 0.724428 0
M  V30 6842 H 615.476 0.188683 1.82527 0
M  V30 6843 H 613.858 -1.82159 3.51616 0
M  V30 6844 H 615.032 0.852185 4.52851 0
M  V30 6845 H 613.347 0.614052 4.11847 0
M  V30 6846 H 615.944 -2.04272 4.94143 0
M  V30 6847 H 616.287 -2.53591 3.30148 0
M  V30 6848 H 616.82 -0.933959 3.86681 0
M  V30 6849 H 613.559 0.419277 6.54158 0
M  V30 6850 H 613.079 -1.16217 5.88433 0
M  V30 6851 H 614.758 -0.883577 6.40938 0
M  V30 6852 N 614.89 -1.56749 -0.16351 0
M  V30 6853 C 615.822 -1.93587 -1.22705 0
M  V30 6854 C 616.835 -0.829824 -1.40063 0
M  V30 6855 O 618.024 -1.10826 -1.39928 0
M  V30 6856 C 615.124 -2.1803 -2.59454 0
M  V30 6857 C 614.297 -3.4928 -2.63292 0
M  V30 6858 C 613.356 -3.62457 -3.8146 0
M  V30 6859 O 612.382 -4.35004 -3.67096 0
M  V30 6860 N 613.584 -2.97888 -4.9824 0
M  V30 6861 H 616.349 -2.8542 -0.914081 0
M  V30 6862 H 613.91 -1.58 -0.353214 0
M  V30 6863 H 615.902 -2.24102 -3.36987 0
M  V30 6864 H 614.472 -1.32543 -2.8311 0
M  V30 6865 H 613.692 -3.54795 -1.71796 0
M  V30 6866 H 614.98 -4.35632 -2.62873 0
M  V30 6867 H 614.378 -2.38833 -5.12811 0
M  V30 6868 H 612.935 -3.09545 -5.73607 0
M  V30 6869 N 616.368 0.432326 -1.51554 0
M  V30 6870 C 617.779 1.01202 -1.56892 0
M  V30 6871 C 618.13 1.92175 -0.395394 0
M  V30 6872 O 617.255 2.10844 0.487198 0
M  V30 6873 C 617.85 1.84217 -2.8434 0
M  V30 6874 C 616.409 2.37228 -2.92233 0
M  V30 6875 C 615.556 1.16576 -2.51606 0
M  V30 6876 H 618.507 0.213407 -1.57259 0
M  V30 6877 H 618.528 2.69721 -2.68385 0
M  V30 6878 H 618.04 1.17979 -3.69733 0
M  V30 6879 H 616.141 3.06905 -2.11282 0
M  V30 6880 H 616.254 2.69682 -3.95991 0
M  V30 6881 H 614.618 1.51263 -2.04919 0
M  V30 6882 H 615.401 0.519404 -3.39348 0
M  V30 6883 N 617.846 1.41785 0.688094 0
M  V30 6884 C 619.076 1.44705 1.47459 0
M  V30 6885 C 619.484 0.052916 1.89126 0
M  V30 6886 O 618.827 -0.939781 1.57841 0
M  V30 6887 C 618.889 2.29935 2.76352 0
M  V30 6888 C 618.553 3.77996 2.56843 0
M  V30 6889 C 619.55 4.69976 2.22304 0
M  V30 6890 C 617.235 4.2212 2.7225 0
M  V30 6891 C 619.229 6.04068 2.03421 0
M  V30 6892 C 616.916 5.56275 2.52985 0
M  V30 6893 C 617.914 6.47065 2.18621 0
M  V30 6894 O 617.602 7.78744 1.9953 0
M  V30 6895 H 617.334 0.494703 0.460701 0
M  V30 6896 H 619.888 1.86802 0.854057 0
M  V30 6897 H 618.118 1.82664 3.40839 0
M  V30 6898 H 619.807 2.24467 3.38186 0
M  V30 6899 H 620.573 4.37175 2.10008 0
M  V30 6900 H 616.452 3.51752 2.97979 0
M  V30 6901 H 619.996 6.74897 1.76523 0
M  V30 6902 H 615.893 5.88653 2.64873 0
M  V30 6903 H 616.661 7.89966 2.14234 0
M  V30 6904 N 619.324 -0.923095 1.27737 0
M  V30 6905 C 620.601 -1.64989 1.05062 0
M  V30 6906 C 620.981 -2.07018 -0.413124 0
M  V30 6907 O 620.329 -1.80797 -1.39731 0
M  V30 6908 C 620.539 -2.84847 2.01652 0
M  V30 6909 C 621.887 -3.56083 2.31279 0
M  V30 6910 O 622.911 -2.94981 1.99662 0
M  V30 6911 O 621.77 -4.66182 2.85196 0
M  V30 6912 H 618.864 -0.723357 0.400853 0
M  V30 6913 H 621.41 -0.973224 1.3902 0
M  V30 6914 H 620.182 -2.50814 3.00347 0
M  V30 6915 H 619.805 -3.60231 1.68284 0
M  V30 6916 N 620.802 -1.09834 -1.13024 0
M  V30 6917 C 622.051 -0.831806 -1.83749 0
M  V30 6918 C 622.364 0.644763 -1.84668 0
M  V30 6919 O 623.57 1.02697 -2.51327 0
M  V30 6920 C 622.026 -1.43817 -3.29916 0
M  V30 6921 C 621.634 -2.94759 -3.37374 0
M  V30 6922 C 623.378 -1.25077 -4.05655 0
M  V30 6923 C 621.285 -3.48461 -4.77838 0
M  V30 6924 H 620.215 -0.30751 -0.688443 0
M  V30 6925 H 622.866 -1.32156 -1.27307 0
M  V30 6926 H 621.248 -0.876106 -3.86187 0
M  V30 6927 H 622.422 -3.57228 -2.91076 0
M  V30 6928 H 620.737 -3.12581 -2.75103 0
M  V30 6929 H 623.334 -1.62649 -5.09362 0
M  V30 6930 H 623.677 -0.191782 -4.15858 0
M  V30 6931 H 624.21 -1.78057 -3.55725 0
M  V30 6932 H 620.949 -4.53998 -4.72828 0
M  V30 6933 H 620.469 -2.90757 -5.24615 0
M  V30 6934 H 622.148 -3.45914 -5.46766 0
M  V30 6935 N 622.28 1.30327 -0.886154 0
M  V30 6936 C 623.228 2.30052 -0.343317 0
M  V30 6937 C 624.222 1.60212 0.550305 0
M  V30 6938 O 625.428 1.74674 0.434609 0
M  V30 6939 H 621.803 0.746306 -0.0923681 0
M  V30 6940 H 623.774 2.73294 -1.19804 0
M  V30 6941 C 622.523 3.45079 0.426107 0
M  V30 6942 H 621.846 3.99003 -0.25227 0
M  V30 6943 H 623.286 4.16931 0.771009 0
M  V30 6944 C 621.745 2.95195 1.62363 0
M  V30 6945 O 622.275 2.95323 2.723 0
M  V30 6946 N 620.481 2.51192 1.4612 0
M  V30 6947 H 620.028 2.51286 0.566832 0
M  V30 6948 H 619.986 2.18173 2.2638 0
M  V30 6949 N 623.758 0.647228 1.43697 0
M  V30 6950 C 624.69 -0.0866232 2.29036 0
M  V30 6951 C 625.703 -0.793051 1.42178 0
M  V30 6952 O 626.892 -0.651807 1.66174 0
M  V30 6953 C 623.992 -1.14552 3.18953 0
M  V30 6954 C 623.165 -0.518422 4.34317 0
M  V30 6955 C 622.224 -1.4734 5.05151 0
M  V30 6956 O 621.25 -0.984312 5.60625 0
M  V30 6957 N 622.452 -2.8075 5.08094 0
M  V30 6958 H 625.217 0.645834 2.92659 0
M  V30 6959 H 622.778 0.489567 1.54321 0
M  V30 6960 H 624.77 -1.78505 3.63205 0
M  V30 6961 H 623.34 -1.78001 2.56971 0
M  V30 6962 H 622.56 0.300079 3.93056 0
M  V30 6963 H 623.848 -0.080401 5.08736 0
M  V30 6964 H 623.246 -3.23052 4.64386 0
M  V30 6965 H 621.803 -3.40022 5.56083 0
M  V30 6966 N 625.236 -1.5273 0.388769 0
M  V30 6967 C 626.652 -1.59553 0.0387049 0
M  V30 6968 C 626.852 -1.40278 -1.44652 0
M  V30 6969 O 625.908 -1.21951 -2.21098 0
M  V30 6970 C 627.221 -2.9625 0.515409 0
M  V30 6971 C 628.769 -3.09426 0.471621 0
M  V30 6972 C 629.244 -4.48572 0.924505 0
M  V30 6973 N 630.735 -4.54754 0.880496 0
M  V30 6974 C 631.47 -5.60653 1.20234 0
M  V30 6975 N 630.966 -6.74198 1.59463 0
M  V30 6976 N 632.759 -5.50755 1.12363 0
M  V30 6977 H 624.91 -1.63508 1.35569 0
M  V30 6978 H 627.173 -0.768097 0.555636 0
M  V30 6979 H 626.879 -3.15569 1.5527 0
M  V30 6980 H 626.753 -3.77102 -0.085792 0
M  V30 6981 H 629.14 -2.89804 -0.556588 0
M  V30 6982 H 629.221 -2.30528 1.10862 0
M  V30 6983 H 628.865 -4.68936 1.95094 0
M  V30 6984 H 628.795 -5.25935 0.264524 0
M  V30 6985 H 631.286 -3.73237 0.591815 0
M  V30 6986 H 631.599 -7.5097 1.82385 0
M  V30 6987 H 629.944 -6.75531 1.63349 0
M  V30 6988 H 633.135 -4.6093 0.816169 0
M  V30 6989 H 633.308 -6.33184 1.37777 0
M  V30 6990 N 626.714 -0.118576 -1.57153 0
M  V30 6991 C 627.644 0.828436 -2.1831 0
M  V30 6992 C 628.625 1.27758 -1.12303 0
M  V30 6993 O 629.81 1.34026 -1.40537 0
M  V30 6994 C 626.94 2.07876 -2.78217 0
M  V30 6995 C 625.894 1.76742 -3.89803 0
M  V30 6996 C 625.22 3.08801 -4.36516 0
M  V30 6997 C 626.52 1.03606 -5.11921 0
M  V30 6998 H 628.214 0.318824 -2.97698 0
M  V30 6999 H 625.76 0.151911 -1.43196 0
M  V30 7000 H 627.713 2.74584 -3.19659 0
M  V30 7001 H 626.437 2.61161 -1.96118 0
M  V30 7002 H 625.096 1.12424 -3.48936 0
M  V30 7003 H 624.744 3.6002 -3.51276 0
M  V30 7004 H 624.444 2.88743 -5.11763 0
M  V30 7005 H 625.968 3.76627 -4.80608 0
M  V30 7006 H 627.382 1.60467 -5.50385 0
M  V30 7007 H 625.779 0.936454 -5.92748 0
M  V30 7008 H 626.849 0.0227421 -4.84895 0
M  V30 7009 N 628.193 1.56834 0.155195 0
M  V30 7010 C 629.125 1.94235 1.21677 0
M  V30 7011 C 630.138 0.83724 1.39621 0
M  V30 7012 O 631.327 1.11567 1.39338 0
M  V30 7013 C 628.427 2.19402 2.58294 0
M  V30 7014 C 627.6 3.50671 2.61436 0
M  V30 7015 C 626.659 3.64475 3.79532 0
M  V30 7016 O 625.685 4.36945 3.64784 0
M  V30 7017 N 626.887 3.00526 4.96653 0
M  V30 7018 H 629.652 2.85901 0.898932 0
M  V30 7019 H 627.213 1.58185 0.34483 0
M  V30 7020 H 629.205 2.25886 3.35794 0
M  V30 7021 H 627.775 1.34042 2.82403 0
M  V30 7022 H 626.995 3.55702 1.69912 0
M  V30 7023 H 628.283 4.3702 2.60559 0
M  V30 7024 H 627.681 2.41549 5.11538 0
M  V30 7025 H 626.238 3.12583 5.71958 0
M  V30 7026 N 629.671 -0.424282 1.51781 0
M  V30 7027 C 630.948 -1.18464 1.55646 0
M  V30 7028 C 631.328 -2.08529 0.328438 0
M  V30 7029 O 630.676 -2.17969 -0.685693 0
M  V30 7030 C 630.886 -1.97514 2.87731 0
M  V30 7031 C 632.234 -2.54106 3.40169 0
M  V30 7032 O 633.258 -2.07711 2.89369 0
M  V30 7033 O 632.117 -3.38759 4.28841 0
M  V30 7034 H 629.211 -0.540055 0.626314 0
M  V30 7035 H 631.757 -0.432291 1.64102 0
M  V30 7036 H 630.529 -1.31444 3.68562 0
M  V30 7037 H 630.152 -2.79787 2.82498 0
M  V30 7038 N 631.149 -1.42148 -0.680565 0
M  V30 7039 C 632.377 -1.45696 -1.46902 0
M  V30 7040 C 632.792 -0.0665858 -1.88683 0
M  V30 7041 O 632.149 0.917436 -1.57764 0
M  V30 7042 C 632.2 -2.37898 -2.72188 0
M  V30 7043 O 631.921 -3.71526 -2.32163 0
M  V30 7044 C 633.422 -2.50407 -3.65802 0
M  V30 7045 H 630.642 -0.495729 -0.45221 0
M  V30 7046 H 633.186 -1.866 -0.836709 0
M  V30 7047 H 631.341 -2.00263 -3.31622 0
M  V30 7048 H 631.755 -4.20849 -3.13027 0
M  V30 7049 H 633.229 -3.19056 -4.50452 0
M  V30 7050 H 633.706 -1.5401 -4.11312 0
M  V30 7051 H 634.312 -2.8874 -3.12265 0
M  V30 7052 N 632.627 0.916307 -1.28225 0
M  V30 7053 C 633.875 1.6619 -1.15002 0
M  V30 7054 C 634.196 1.92642 0.302329 0
M  V30 7055 O 633.466 1.54076 1.20985 0
M  V30 7056 H 632.046 0.615964 -0.422608 0
M  V30 7057 H 634.708 1.09963 -1.60917 0
M  V30 7058 H 633.804 2.62533 -1.68769 0
M  V30 7059 N 634.105 1.10431 1.1244 0
M  V30 7060 C 635.353 0.845045 1.83585 0
M  V30 7061 C 635.674 -0.631168 1.84503 0
M  V30 7062 O 634.944 -1.45825 1.30813 0
M  V30 7063 H 633.524 0.309628 0.679809 0
M  V30 7064 H 636.186 1.39458 1.36153 0
M  V30 7065 H 635.282 1.20786 2.8778 0
M  V30 7066 N 635.583 -1.29855 0.893053 0
M  V30 7067 C 636.513 -2.3035 0.382249 0
M  V30 7068 C 637.494 -1.61328 -0.539203 0
M  V30 7069 O 638.679 -1.88882 -0.451342 0
M  V30 7070 C 635.809 -3.45024 -0.396983 0
M  V30 7071 C 634.763 -4.258 0.433437 0
M  V30 7072 C 634.089 -5.32605 -0.472889 0
M  V30 7073 C 635.389 -4.94549 1.67984 0
M  V30 7074 H 637.083 -2.73325 1.22205 0
M  V30 7075 H 634.629 -1.314 0.589073 0
M  V30 7076 H 636.582 -4.14398 -0.765024 0
M  V30 7077 H 635.306 -3.00875 -1.2705 0
M  V30 7078 H 633.965 -3.58125 0.783723 0
M  V30 7079 H 633.613 -4.84702 -1.34435 0
M  V30 7080 H 633.313 -5.87547 0.0789958 0
M  V30 7081 H 634.837 -6.04832 -0.837269 0
M  V30 7082 H 636.251 -5.56395 1.38192 0
M  V30 7083 H 634.648 -5.59393 2.17254 0
M  V30 7084 H 635.718 -4.20215 2.41965 0
M  V30 7085 N 637.061 -0.65484 -1.43351 0
M  V30 7086 C 638.31 -0.166215 -2.01014 0
M  V30 7087 C 638.623 1.22764 -1.52278 0
M  V30 7088 O 639.829 1.81156 -2.02224 0
M  V30 7089 C 638.285 -0.246341 -3.59056 0
M  V30 7090 C 637.893 -1.64299 -4.16785 0
M  V30 7091 C 639.637 0.184597 -4.24098 0
M  V30 7092 C 637.544 -1.67695 -5.67126 0
M  V30 7093 H 636.474 -0.0583769 -0.751737 0
M  V30 7094 H 639.125 -0.817111 -1.64303 0
M  V30 7095 H 637.507 0.472092 -3.93176 0
M  V30 7096 H 638.681 -2.3869 -3.94162 0
M  V30 7097 H 636.996 -2.02004 -3.6412 0
M  V30 7098 H 639.593 0.179088 -5.344 0
M  V30 7099 H 639.936 1.21632 -3.98135 0
M  V30 7100 H 640.469 -0.482141 -3.94867 0
M  V30 7101 H 637.208 -2.68783 -5.9786 0
M  V30 7102 H 636.728 -0.976313 -5.91801 0
M  V30 7103 H 638.407 -1.42142 -6.31193 0
M  V30 7104 N 638.539 1.52521 -0.396863 0
M  V30 7105 C 639.816 1.94112 0.240842 0
M  V30 7106 C 640.196 1.33288 1.637 0
M  V30 7107 O 639.544 0.503901 2.22875 0
M  V30 7108 C 639.754 3.48033 0.259567 0
M  V30 7109 C 641.102 4.21822 0.484866 0
M  V30 7110 O 642.126 3.54579 0.339453 0
M  V30 7111 O 640.985 5.41042 0.770412 0
M  V30 7112 H 638.079 0.812973 0.151671 0
M  V30 7113 H 640.625 1.63572 -0.451918 0
M  V30 7114 H 639.397 3.84655 -0.718078 0
M  V30 7115 H 639.02 3.84899 0.996937 0
M  V30 7116 N 640.017 0.126909 1.57088 0
M  V30 7117 C 641.242 -0.53997 2.00248 0
M  V30 7118 C 641.667 -1.58927 1.00618 0
M  V30 7119 O 641.025 -1.81288 -0.0210131 0
M  V30 7120 C 641.073 -1.13565 3.4225 0
M  V30 7121 O 640.177 -2.25103 3.45547 0
M  V30 7122 H 639.518 -0.13412 0.650314 0
M  V30 7123 H 642.048 0.217718 2.03438 0
M  V30 7124 H 642.058 -1.46925 3.80627 0
M  V30 7125 H 640.733 -0.367122 4.14277 0
M  V30 7126 H 639.31 -1.93123 3.18995 0
M  V30 7127 N 641.495 -1.56914 -0.146875 0
M  V30 7128 C 642.906 -1.72799 -0.706928 0
M  V30 7129 C 643.257 -0.741329 -1.81656 0
M  V30 7130 O 642.382 0.0920162 -2.16204 0
M  V30 7131 C 642.977 -3.13317 -1.28911 0
M  V30 7132 C 641.536 -3.30803 -1.79573 0
M  V30 7133 C 640.683 -2.68725 -0.684252 0
M  V30 7134 H 643.634 -1.58504 0.0787931 0
M  V30 7135 H 643.655 -3.13323 -2.15891 0
M  V30 7136 H 643.167 -3.85104 -0.481284 0
M  V30 7137 H 641.268 -2.64012 -2.62923 0
M  V30 7138 H 641.381 -4.38754 -1.92436 0
M  V30 7139 H 639.745 -2.29196 -1.11091 0
M  V30 7140 H 640.528 -3.43117 0.112134 0
M  V30 7141 N 642.974 0.416227 -1.52004 0
M  V30 7142 C 644.199 1.19029 -1.69843 0
M  V30 7143 C 644.624 1.83708 -0.404103 0
M  V30 7144 O 643.982 1.69711 0.637787 0
M  V30 7145 C 644.03 2.23439 -2.83032 0
M  V30 7146 O 643.134 3.29419 -2.48106 0
M  V30 7147 H 642.475 0.347785 -0.565634 0
M  V30 7148 H 645.005 0.488871 -1.98674 0
M  V30 7149 H 645.015 2.67884 -3.07737 0
M  V30 7150 H 643.69 1.75745 -3.76944 0
M  V30 7151 H 642.267 2.90303 -2.34048 0
M  V30 7152 N 644.452 1.42507 0.673017 0
M  V30 7153 C 645.701 1.42364 1.42883 0
M  V30 7154 C 646.014 0.0441598 1.9555 0
M  V30 7155 O 647.22 -0.0798679 2.71382 0
M  V30 7156 C 645.676 2.5043 2.58482 0
M  V30 7157 C 645.284 3.94392 2.12506 0
M  V30 7158 C 647.028 2.59455 3.35981 0
M  V30 7159 C 644.935 4.93964 3.25198 0
M  V30 7160 H 643.865 0.52951 0.536782 0
M  V30 7161 H 646.516 1.68422 0.728448 0
M  V30 7162 H 644.898 2.1754 3.30896 0
M  V30 7163 H 646.072 4.36645 1.47233 0
M  V30 7164 H 644.387 3.89233 1.4794 0
M  V30 7165 H 646.984 3.31025 4.19912 0
M  V30 7166 H 647.327 1.63869 3.82691 0
M  V30 7167 H 647.86 2.91549 2.70637 0
M  V30 7168 H 644.599 5.91034 2.83477 0
M  V30 7169 H 644.119 4.56341 3.89247 0
M  V30 7170 H 645.798 5.15763 3.90637 0
M  V30 7171 N 645.93 -0.909495 1.28709 0
M  V30 7172 C 646.878 -2.03381 1.12866 0
M  V30 7173 C 647.872 -1.69335 0.0468074 0
M  V30 7174 O 649.078 -1.78819 0.205891 0
M  V30 7175 H 645.453 -0.666452 0.348348 0
M  V30 7176 H 647.424 -2.13885 2.08077 0
M  V30 7177 C 646.173 -3.38092 0.811742 0
M  V30 7178 H 645.496 -3.64786 1.63619 0
M  V30 7179 H 646.936 -4.17477 0.740869 0
M  V30 7180 C 645.395 -3.33395 -0.484679 0
M  V30 7181 O 645.925 -3.72089 -1.5137 0
M  V30 7182 N 644.131 -2.86491 -0.486961 0
M  V30 7183 H 643.678 -2.55199 0.350877 0
M  V30 7184 H 643.636 -2.83731 -1.3544 0
M  V30 7185 N 647.408 -1.11026 -1.11852 0
M  V30 7186 C 648.338 -0.786812 -2.19844 0
M  V30 7187 C 649.319 0.242935 -1.68356 0
M  V30 7188 O 650.504 0.107355 -1.93903 0
M  V30 7189 C 647.634 -0.224516 -3.46574 0
M  V30 7190 C 646.588 -1.18564 -4.1125 0
M  V30 7191 C 645.914 -0.484261 -5.32503 0
M  V30 7192 C 647.214 -2.53465 -4.56676 0
M  V30 7193 H 648.908 -1.68978 -2.47158 0
M  V30 7194 H 646.454 -0.813906 -1.18792 0
M  V30 7195 H 648.407 0.0139435 -4.21398 0
M  V30 7196 H 647.131 0.713722 -3.18706 0
M  V30 7197 H 645.79 -1.40966 -3.38414 0
M  V30 7198 H 645.438 0.458646 -5.00905 0
M  V30 7199 H 645.138 -1.12526 -5.76725 0
M  V30 7200 H 646.662 -0.254492 -6.10069 0
M  V30 7201 H 648.076 -2.35177 -5.22843 0
M  V30 7202 H 646.473 -3.13507 -5.11697 0
M  V30 7203 H 647.543 -3.13008 -3.70343 0
M  V30 7204 N 648.886 1.2938 -0.899927 0
M  V30 7205 C 650.163 1.9046 -0.445443 0
M  V30 7206 C 650.543 1.81683 1.07492 0
M  V30 7207 O 649.891 1.24371 1.91688 0
M  V30 7208 C 650.101 3.35529 -0.960279 0
M  V30 7209 C 651.449 4.12556 -1.00412 0
M  V30 7210 O 652.473 3.44434 -0.907965 0
M  V30 7211 O 651.332 5.34294 -1.14857 0
M  V30 7212 H 648.426 0.815253 -0.138893 0
M  V30 7213 H 650.972 1.37844 -0.989808 0
M  V30 7214 H 649.744 3.36074 -2.00425 0
M  V30 7215 H 649.367 3.95624 -0.395939 0
M  V30 7216 N 650.364 0.662433 1.43002 0
M  V30 7217 C 651.61 0.179857 2.02001 0
M  V30 7218 C 651.943 -1.20625 1.52195 0
M  V30 7219 O 651.218 -1.80726 0.718911 0
M  V30 7220 C 651.501 0.200845 3.59539 0
M  V30 7221 C 651.354 1.62153 4.19555 0
M  V30 7222 C 652.673 -0.457738 4.37713 0
M  V30 7223 H 649.792 0.0668305 0.733964 0
M  V30 7224 H 652.434 0.84487 1.70182 0
M  V30 7225 H 650.584 -0.365411 3.86778 0
M  V30 7226 H 652.256 2.23908 4.03315 0
M  V30 7227 H 650.499 2.16601 3.75854 0
M  V30 7228 H 651.17 1.58799 5.28665 0
M  V30 7229 H 653.646 0.0241495 4.16093 0
M  V30 7230 H 652.522 -0.412363 5.47349 0
M  V30 7231 H 652.783 -1.53336 4.14657 0
M  V30 7232 N 651.842 -1.52309 0.404946 0
M  V30 7233 C 653.258 -1.59503 0.0556255 0
M  V30 7234 C 653.458 -1.41805 -1.43156 0
M  V30 7235 O 652.514 -1.2429 -2.19792 0
M  V30 7236 C 653.827 -2.95687 0.546801 0
M  V30 7237 C 655.375 -3.08909 0.504413 0
M  V30 7238 C 655.85 -4.47566 0.97203 0
M  V30 7239 N 657.341 -4.53795 0.928679 0
M  V30 7240 C 658.076 -5.59346 1.26174 0
M  V30 7241 N 657.572 -6.72469 1.66604 0
M  V30 7242 N 659.365 -5.49532 1.18198 0
M  V30 7243 H 651.516 -1.6206 1.37296 0
M  V30 7244 H 653.779 -0.762161 0.563751 0
M  V30 7245 H 653.485 -3.13905 1.58609 0
M  V30 7246 H 653.359 -3.77172 -0.0457905 0
M  V30 7247 H 655.746 -2.90378 -0.525819 0
M  V30 7248 H 655.827 -2.2934 1.13301 0
M  V30 7249 H 655.471 -4.6684 2.00057 0
M  V30 7250 H 655.401 -5.25625 0.320292 0
M  V30 7251 H 657.892 -3.72588 0.631369 0
M  V30 7252 H 658.205 -7.48993 1.9034 0
M  V30 7253 H 656.55 -6.73761 1.70504 0
M  V30 7254 H 659.741 -4.60038 0.865011 0
M  V30 7255 H 659.914 -6.31687 1.44485 0
M  V30 7256 N 653.32 -0.135238 -1.57019 0
M  V30 7257 C 654.267 0.808908 -2.1616 0
M  V30 7258 C 655.237 1.25234 -1.09113 0
M  V30 7259 O 656.422 1.32697 -1.37099 0
M  V30 7260 C 653.562 2.04729 -2.77813 0
M  V30 7261 C 652.675 1.65074 -3.99218 0
M  V30 7262 C 651.81 2.84002 -4.48906 0
M  V30 7263 C 650.849 2.40663 -5.62803 0
M  V30 7264 N 649.986 3.5256 -6.07162 0
M  V30 7265 H 654.826 0.297751 -2.96509 0
M  V30 7266 H 652.363 0.135264 -1.46477 0
M  V30 7267 H 654.321 2.7731 -3.11697 0
M  V30 7268 H 652.951 2.53275 -2.00128 0
M  V30 7269 H 652.003 0.823029 -3.7139 0
M  V30 7270 H 653.315 1.29236 -4.81767 0
M  V30 7271 H 652.469 3.64788 -4.84783 0
M  V30 7272 H 651.208 3.23076 -3.65339 0
M  V30 7273 H 650.213 1.58314 -5.26514 0
M  V30 7274 H 651.438 2.02687 -6.48147 0
M  V30 7275 H 649.384 3.91278 -5.26534 0
M  V30 7276 H 649.301 3.20699 -6.84608 0
M  V30 7277 H 650.569 4.33738 -6.47682 0
M  V30 7278 N 654.798 1.5699 0.138552 0
M  V30 7279 C 655.73 1.95515 1.1961 0
M  V30 7280 C 656.743 0.852002 1.38726 0
M  V30 7281 O 657.932 1.13038 1.38147 0
M  V30 7282 C 655.032 2.2213 2.55952 0
M  V30 7283 C 654.205 3.53424 2.57702 0
M  V30 7284 C 653.264 3.6848 3.75645 0
M  V30 7285 O 652.29 4.4079 3.60129 0
M  V30 7286 N 653.492 3.05777 4.93438 0
M  V30 7287 H 656.257 2.86838 0.868557 0
M  V30 7288 H 653.818 1.58542 0.328033 0
M  V30 7289 H 655.81 2.29435 3.33379 0
M  V30 7290 H 654.38 1.3703 2.80965 0
M  V30 7291 H 653.6 3.57484 1.6613 0
M  V30 7292 H 654.888 4.39759 2.55909 0
M  V30 7293 H 654.286 2.46961 5.08947 0
M  V30 7294 H 652.843 3.18631 5.6861 0
M  V30 7295 N 656.276 -0.40816 1.52223 0
M  V30 7296 C 657.506 -1.17501 1.69932 0
M  V30 7297 C 657.914 -1.84729 0.408874 0
M  V30 7298 O 657.257 -1.7274 -0.625025 0
M  V30 7299 C 657.319 -2.27994 2.77955 0
M  V30 7300 C 656.983 -1.80894 4.19674 0
M  V30 7301 C 657.98 -1.29618 5.03483 0
M  V30 7302 C 655.665 -1.87698 4.65913 0
M  V30 7303 C 657.659 -0.857695 6.31603 0
M  V30 7304 C 655.346 -1.43461 5.94022 0
M  V30 7305 C 656.344 -0.925822 6.76696 0
M  V30 7306 O 656.032 -0.489841 8.02406 0
M  V30 7307 H 655.764 -0.359065 0.572755 0
M  V30 7308 H 658.318 -0.486188 1.99563 0
M  V30 7309 H 656.548 -3.00243 2.43703 0
M  V30 7310 H 658.237 -2.89749 2.84254 0
M  V30 7311 H 659.003 -1.23733 4.68951 0
M  V30 7312 H 654.882 -2.26244 4.01665 0
M  V30 7313 H 658.426 -0.459879 6.96083 0
M  V30 7314 H 654.323 -1.49026 6.28062 0
M  V30 7315 H 655.091 -0.613062 8.16201 0
M  V30 7316 N 657.755 -1.42862 -0.66545 0
M  V30 7317 C 658.702 -1.4707 -1.77874 0
M  V30 7318 C 659.672 -0.321654 -1.62956 0
M  V30 7319 O 660.857 -0.52707 -1.83376 0
M  V30 7320 C 657.997 -1.38788 -3.15962 0
M  V30 7321 C 657.11 -2.63801 -3.42101 0
M  V30 7322 C 656.245 -2.47594 -4.69969 0
M  V30 7323 C 655.284 -3.67936 -4.89172 0
M  V30 7324 N 654.421 -3.50614 -6.08288 0
M  V30 7325 H 659.261 -2.42204 -1.73613 0
M  V30 7326 H 656.798 -1.20239 -0.847401 0
M  V30 7327 H 658.756 -1.31982 -3.95773 0
M  V30 7328 H 657.386 -0.472431 -3.19324 0
M  V30 7329 H 656.438 -2.80935 -2.56475 0
M  V30 7330 H 657.75 -3.53228 -3.52181 0
M  V30 7331 H 656.904 -2.38427 -5.57886 0
M  V30 7332 H 655.643 -1.55672 -4.62188 0
M  V30 7333 H 654.648 -3.77525 -3.99694 0
M  V30 7334 H 655.873 -4.60851 -4.98792 0
M  V30 7335 H 653.819 -2.61417 -6.01662 0
M  V30 7336 H 653.736 -4.33634 -6.19272 0
M  V30 7337 H 655.004 -3.45276 -6.98859 0
M  V30 7338 N 659.233 0.902656 -1.29189 0
M  V30 7339 C 660.649 1.18296 -1.07137 0
M  V30 7340 C 660.849 2.00701 0.179223 0
M  V30 7341 O 659.905 2.3675 0.877812 0
M  V30 7342 C 661.218 1.90677 -2.32514 0
M  V30 7343 C 662.766 2.03515 -2.37804 0
M  V30 7344 C 663.241 2.79307 -3.62976 0
M  V30 7345 N 664.732 2.86862 -3.63681 0
M  V30 7346 C 665.467 3.46035 -4.57217 0
M  V30 7347 N 664.963 4.06399 -5.61081 0
M  V30 7348 N 666.756 3.43681 -4.44792 0
M  V30 7349 H 658.907 0.352765 -2.0945 0
M  V30 7350 H 661.17 0.21876 -0.922414 0
M  V30 7351 H 660.876 1.3756 -3.23682 0
M  V30 7352 H 660.75 2.91169 -2.39793 0
M  V30 7353 H 663.137 2.55809 -1.47125 0
M  V30 7354 H 663.218 1.02166 -2.34512 0
M  V30 7355 H 662.862 2.2769 -4.54004 0
M  V30 7356 H 662.792 3.80995 -3.63525 0
M  V30 7357 H 665.283 2.43987 -2.88581 0
M  V30 7358 H 665.596 4.49564 -6.2858 0
M  V30 7359 H 663.941 4.0487 -5.64894 0
M  V30 7360 H 667.132 2.9574 -3.62843 0
M  V30 7361 H 667.305 3.89503 -5.17872 0
M  V30 7362 N 660.711 1.11618 1.11262 0
M  V30 7363 C 661.988 0.777876 1.79467 0
M  V30 7364 C 662.368 -0.733774 1.97937 0
M  V30 7365 O 661.716 -1.66443 1.56554 0
M  V30 7366 C 661.926 1.5431 3.13032 0
M  V30 7367 C 663.274 1.72357 3.88044 0
M  V30 7368 O 664.298 1.5075 3.22727 0
M  V30 7369 O 663.157 2.08276 5.05256 0
M  V30 7370 H 660.251 0.282018 0.777428 0
M  V30 7371 H 662.797 1.21971 1.17988 0
M  V30 7372 H 661.569 2.57132 2.94956 0
M  V30 7373 H 661.192 1.09495 3.82226 0
M  V30 7374 N 662.189 -1.289 0.906776 0
M  V30 7375 C 663.438 -1.9455 0.532262 0
M  V30 7376 C 663.751 -1.72219 -0.927353 0
M  V30 7377 O 664.957 -2.32033 -1.40971 0
M  V30 7378 C 663.413 -3.48438 0.901041 0
M  V30 7379 C 663.021 -3.79558 2.37991 0
M  V30 7380 C 664.765 -4.20284 0.596777 0
M  V30 7381 C 662.672 -5.26723 2.68918 0
M  V30 7382 H 661.602 -0.728259 0.195333 0
M  V30 7383 H 664.253 -1.46519 1.10474 0
M  V30 7384 H 662.635 -3.95162 0.257419 0
M  V30 7385 H 663.809 -3.43668 3.06967 0
M  V30 7386 H 662.124 -3.20868 2.65391 0
M  V30 7387 H 664.721 -5.28612 0.8046 0
M  V30 7388 H 665.064 -4.13694 -0.465072 0
M  V30 7389 H 665.597 -3.79315 1.19855 0
M  V30 7390 H 662.336 -5.38384 3.73928 0
M  V30 7391 H 661.856 -5.63836 2.04571 0
M  V30 7392 H 663.535 -5.94391 2.55555 0
M  V30 7393 N 663.667 -0.670007 -1.42649 0
M  V30 7394 C 664.599 0.0501746 -2.29145 0
M  V30 7395 C 665.612 0.770331 -1.43422 0
M  V30 7396 O 666.801 0.625288 -1.6719 0
M  V30 7397 C 663.901 1.09463 -3.20735 0
M  V30 7398 C 663.074 0.44926 -4.35087 0
M  V30 7399 C 662.133 1.39285 -5.07431 0
M  V30 7400 O 661.159 0.894997 -5.6212 0
M  V30 7401 N 662.361 2.72631 -5.12496 0
M  V30 7402 H 665.126 -0.692312 -2.91594 0
M  V30 7403 H 662.687 -0.514056 -1.53522 0
M  V30 7404 H 664.679 1.72705 -3.65999 0
M  V30 7405 H 663.249 1.73891 -2.59771 0
M  V30 7406 H 662.469 -0.362573 -3.92529 0
M  V30 7407 H 663.757 -0.000544776 -5.088 0
M  V30 7408 H 663.155 3.15623 -4.69467 0
M  V30 7409 H 661.712 3.31132 -5.61422 0
M  V30 7410 N 665.145 1.52092 -0.413018 0
M  V30 7411 C 666.093 2.28681 0.425199 0
M  V30 7412 C 667.087 1.3353 1.04241 0
M  V30 7413 O 668.293 1.50973 0.980166 0
M  V30 7414 H 664.668 0.735661 0.155906 0
M  V30 7415 H 666.639 2.97418 -0.241926 0
M  V30 7416 C 665.388 3.1235 1.5275 0
M  V30 7417 H 664.711 3.85439 1.06191 0
M  V30 7418 H 666.151 3.69038 2.08774 0
M  V30 7419 C 664.61 2.26161 2.49706 0
M  V30 7420 O 665.14 1.90452 3.53682 0
M  V30 7421 N 663.346 1.89854 2.20008 0
M  V30 7422 H 662.893 2.19092 1.35486 0
M  V30 7423 H 662.851 1.3248 2.85125 0
M  V30 7424 N 666.623 0.143563 1.56945 0
M  V30 7425 C 667.872 -0.50835 1.95189 0
M  V30 7426 C 668.185 -1.66239 1.03073 0
M  V30 7427 O 669.391 -2.3787 1.30882 0
M  V30 7428 C 667.847 -0.955735 3.46978 0
M  V30 7429 C 667.455 0.171183 4.47673 0
M  V30 7430 C 669.199 -1.57763 3.94095 0
M  V30 7431 C 667.106 -0.294279 5.90667 0
M  V30 7432 H 666.036 -0.193679 0.728701 0
M  V30 7433 H 668.687 0.227357 1.82086 0
M  V30 7434 H 667.069 -1.7466 3.55401 0
M  V30 7435 H 668.243 0.948049 4.50942 0
M  V30 7436 H 666.558 0.701273 4.10452 0
M  V30 7437 H 669.155 -1.93745 4.98364 0
M  V30 7438 H 669.498 -2.46531 3.35452 0
M  V30 7439 H 670.031 -0.851728 3.88575 0
M  V30 7440 H 666.77 0.557939 6.53121 0
M  V30 7441 H 666.29 -1.0371 5.90766 0
M  V30 7442 H 667.969 -0.747426 6.42668 0
M  V30 7443 N 668.101 -1.57061 -0.130224 0
M  V30 7444 C 669.378 -1.75205 -0.869631 0
M  V30 7445 C 669.758 -0.716063 -1.98584 0
M  V30 7446 O 669.106 0.262032 -2.26993 0
M  V30 7447 C 669.316 -3.19835 -1.39666 0
M  V30 7448 C 670.664 -3.82011 -1.85345 0
M  V30 7449 O 671.688 -3.23368 -1.49371 0
M  V30 7450 O 670.547 -4.85064 -2.51744 0
M  V30 7451 H 667.641 -0.716977 -0.412157 0
M  V30 7452 H 670.187 -1.69311 -0.11484 0
M  V30 7453 H 668.959 -3.86745 -0.595288 0
M  V30 7454 H 668.582 -3.30222 -2.21448 0
M  V30 7455 N 669.579 0.400081 -1.52437 0
M  V30 7456 C 670.542 1.4707 -1.75793 0
M  V30 7457 C 671.542 1.48036 -0.627856 0
M  V30 7458 O 672.732 1.49401 -0.895817 0
M  V30 7459 C 669.864 2.86427 -1.84858 0
M  V30 7460 H 671.057 1.27649 -2.71377 0
M  V30 7461 H 668.61 0.631141 -1.42991 0
M  V30 7462 H 669.345 3.11207 -0.912194 0
M  V30 7463 H 669.13 2.87128 -2.6702 0
M  V30 7464 H 670.62 3.64023 -2.04638 0
M  V30 7465 N 671.057 1.43213 0.657864 0
M  V30 7466 C 671.987 1.50815 1.78262 0
M  V30 7467 C 672.968 0.363211 1.66177 0
M  V30 7468 O 674.153 0.579806 1.85343 0
M  V30 7469 C 671.283 1.42625 3.16663 0
M  V30 7470 C 670.237 2.5532 3.43505 0
M  V30 7471 C 669.563 2.32184 4.81658 0
M  V30 7472 C 670.863 3.97583 3.38711 0
M  V30 7473 H 672.557 2.44954 1.72157 0
M  V30 7474 H 670.103 1.17896 0.82683 0
M  V30 7475 H 672.056 1.46548 3.95097 0
M  V30 7476 H 670.78 0.449877 3.23487 0
M  V30 7477 H 669.439 2.50742 2.6744 0
M  V30 7478 H 669.087 1.32801 4.85153 0
M  V30 7479 H 668.787 3.07724 5.00579 0
M  V30 7480 H 670.311 2.37883 5.62356 0
M  V30 7481 H 671.725 4.03673 4.07089 0
M  V30 7482 H 670.122 4.73112 3.69168 0
M  V30 7483 H 671.192 4.23049 2.36976 0
M  V30 7484 N 672.536 -0.895792 1.29666 0
M  V30 7485 C 673.466 -2.01673 1.17688 0
M  V30 7486 C 674.447 -1.69955 0.0701317 0
M  V30 7487 O 675.632 -1.9258 0.250289 0
M  V30 7488 C 672.762 -3.36568 0.856681 0
M  V30 7489 C 671.716 -3.82509 1.92017 0
M  V30 7490 C 671.042 -5.14574 1.4532 0
M  V30 7491 C 672.342 -4.02409 3.32963 0
M  V30 7492 H 674.036 -2.11953 2.11463 0
M  V30 7493 H 671.582 -1.01839 1.01807 0
M  V30 7494 H 673.535 -4.14498 0.759577 0
M  V30 7495 H 672.259 -3.26391 -0.116763 0
M  V30 7496 H 670.918 -3.068 2.00673 0
M  V30 7497 H 670.566 -5.00815 0.468325 0
M  V30 7498 H 670.266 -5.46283 2.16447 0
M  V30 7499 H 671.79 -5.9504 1.36968 0
M  V30 7500 H 673.204 -4.70808 3.27127 0
M  V30 7501 H 671.601 -4.45478 4.02082 0
M  V30 7502 H 672.671 -3.06616 3.75652 0
M  V30 7503 N 674.014 -1.12206 -1.10668 0
M  V30 7504 C 674.964 -0.75669 -2.15077 0
M  V30 7505 C 675.948 0.243154 -1.59052 0
M  V30 7506 O 677.14 0.0490268 -1.76932 0
M  V30 7507 C 674.269 -0.210303 -3.42655 0
M  V30 7508 C 673.355 -1.23829 -4.05619 0
M  V30 7509 N 673.746 -2.43513 -4.43323 0
M  V30 7510 C 672.044 -1.08309 -4.32649 0
M  V30 7511 C 672.745 -3.09138 -4.92756 0
M  V30 7512 N 671.721 -2.36593 -4.89413 0
M  V30 7513 H 675.523 -1.66747 -2.42018 0
M  V30 7514 H 673.037 -1.00248 -1.27765 0
M  V30 7515 H 675.034 0.0696287 -4.16842 0
M  V30 7516 H 673.694 0.694967 -3.17176 0
M  V30 7517 H 674.705 -2.80912 -4.35097 0
M  V30 7518 H 671.382 -0.234919 -4.16839 0
M  V30 7519 H 672.772 -4.11049 -5.31496 0
M  V30 7520 N 675.492 1.28418 -0.913599 0
M  V30 7521 C 676.424 2.26368 -0.359169 0
M  V30 7522 C 677.437 1.54858 0.502285 0
M  V30 7523 O 678.626 1.75659 0.31719 0
M  V30 7524 C 675.726 3.35112 0.50526 0
M  V30 7525 C 674.899 4.36126 -0.333648 0
M  V30 7526 C 673.958 5.24134 0.465845 0
M  V30 7527 O 672.984 5.6907 -0.121538 0
M  V30 7528 N 674.186 5.52892 1.76891 0
M  V30 7529 H 676.951 2.74579 -1.2011 0
M  V30 7530 H 674.512 1.41898 -0.779532 0
M  V30 7531 H 676.504 3.90926 1.04684 0
M  V30 7532 H 675.074 2.86611 1.2479 0
M  V30 7533 H 674.294 3.79776 -1.0566 0
M  V30 7534 H 675.582 5.00638 -0.907669 0
M  V30 7535 H 674.98 5.18217 2.26865 0
M  V30 7536 H 673.537 6.11464 2.25732 0
M  V30 7537 N 676.97 0.677563 1.42291 0
M  V30 7538 C 678.195 0.207901 2.06355 0
M  V30 7539 C 678.62 -1.12723 1.50583 0
M  V30 7540 O 677.978 -1.70171 0.62543 0
M  V30 7541 C 678.026 0.156489 3.6026 0
M  V30 7542 O 677.13 -0.874162 4.03029 0
M  V30 7543 H 676.471 0.106056 0.655475 0
M  V30 7544 H 679.001 0.927354 1.82377 0
M  V30 7545 H 679.011 -0.0187258 4.07996 0
M  V30 7546 H 677.686 1.13101 4.00226 0
M  V30 7547 H 676.263 -0.669764 3.66836 0
M  V30 7548 N 678.448 -1.51871 0.421078 0
M  V30 7549 C 679.697 -2.01125 -0.152206 0
M  V30 7550 C 680.01 -1.3106 -1.45199 0
M  V30 7551 O 681.216 -1.71195 -2.10724 0
M  V30 7552 C 679.672 -3.58458 -0.3218 0
M  V30 7553 C 679.28 -4.37448 0.96659 0
M  V30 7554 C 681.024 -4.15908 -0.84973 0
M  V30 7555 C 678.931 -5.86451 0.763529 0
M  V30 7556 H 677.861 -0.751556 -0.0606565 0
M  V30 7557 H 680.512 -1.75115 0.548354 0
M  V30 7558 H 678.894 -3.80847 -1.08498 0
M  V30 7559 H 680.068 -4.26814 1.73684 0
M  V30 7560 H 678.383 -3.91373 1.42183 0
M  V30 7561 H 680.98 -5.24922 -1.01788 0
M  V30 7562 H 681.323 -3.74031 -1.82774 0
M  V30 7563 H 681.856 -3.97535 -0.145297 0
M  V30 7564 H 678.595 -6.3271 1.71344 0
M  V30 7565 H 678.115 -5.99791 0.0327889 0
M  V30 7566 H 679.794 -6.45697 0.410354 0
M  V30 7567 N 679.926 -0.151884 -1.56866 0
M  V30 7568 C 681.174 0.497021 -1.95893 0
M  V30 7569 C 681.495 1.65078 -1.03799 0
M  V30 7570 O 680.765 1.95642 -0.10049 0
M  V30 7571 H 679.345 0.186603 -0.723318 0
M  V30 7572 H 682.007 -0.228525 -1.93556 0
M  V30 7573 H 681.103 0.869933 -2.99731 0
M  V30 7574 N 681.404 1.57128 0.121893 0
M  V30 7575 C 682.629 1.89254 0.848385 0
M  V30 7576 C 683.054 0.743527 1.72781 0
M  V30 7577 O 682.412 -0.306056 1.78698 0
M  V30 7578 C 682.46 3.20113 1.66012 0
M  V30 7579 O 681.564 3.05815 2.76679 0
M  V30 7580 H 680.905 0.621103 0.234793 0
M  V30 7581 H 683.435 2.0433 0.10516 0
M  V30 7582 H 683.445 3.52761 2.04996 0
M  V30 7583 H 682.12 4.03336 1.01452 0
M  V30 7584 H 680.697 2.84627 2.40918 0
M  V30 7585 N 682.882 -0.391992 1.52647 0
M  V30 7586 C 684.11 -1.1586 1.71418 0
M  V30 7587 C 684.525 -1.8381 0.431216 0
M  V30 7588 O 683.882 -1.7256 -0.594085 0
M  V30 7589 C 683.933 -2.20888 2.86165 0
M  V30 7590 O 683.654 -1.5571 4.09495 0
M  V30 7591 C 685.155 -3.103 3.1659 0
M  V30 7592 H 682.375 -0.347494 0.574011 0
M  V30 7593 H 684.919 -0.458972 1.99283 0
M  V30 7594 H 683.074 -2.86492 2.6077 0
M  V30 7595 H 683.488 -2.25474 4.73563 0
M  V30 7596 H 684.962 -3.8003 4.00351 0
M  V30 7597 H 685.439 -3.73639 2.30848 0
M  V30 7598 H 686.045 -2.50345 3.43813 0
M  V30 7599 N 684.36 -1.4356 -0.65026 0
M  V30 7600 C 685.29 -1.51758 -1.77459 0
M  V30 7601 C 686.271 -0.372019 -1.65982 0
M  V30 7602 O 687.456 -0.589627 -1.85033 0
M  V30 7603 C 684.586 -1.44302 -3.15902 0
M  V30 7604 C 683.54 -2.57138 -3.42146 0
M  V30 7605 C 682.866 -2.34735 -4.8042 0
M  V30 7606 C 684.166 -3.99373 -3.36598 0
M  V30 7607 H 685.86 -2.45863 -1.70855 0
M  V30 7608 H 683.406 -1.18333 -0.820566 0
M  V30 7609 H 685.359 -1.48641 -3.94314 0
M  V30 7610 H 684.083 -0.467026 -3.23244 0
M  V30 7611 H 682.742 -2.52157 -2.66106 0
M  V30 7612 H 682.39 -1.35372 -4.84441 0
M  V30 7613 H 682.09 -3.10375 -4.9894 0
M  V30 7614 H 683.614 -2.40862 -5.61086 0
M  V30 7615 H 685.028 -4.05826 -4.04942 0
M  V30 7616 H 683.425 -4.75063 -3.66654 0
M  V30 7617 H 684.495 -4.243 -2.34729 0
M  V30 7618 N 685.838 0.888903 -1.30139 0
M  V30 7619 C 687.068 1.67115 -1.21474 0
M  V30 7620 C 687.476 1.87852 0.225472 0
M  V30 7621 O 686.819 1.42324 1.16145 0
M  V30 7622 C 686.881 3.0713 -1.86846 0
M  V30 7623 C 686.545 3.09582 -3.36167 0
M  V30 7624 C 687.542 2.88929 -4.32222 0
M  V30 7625 C 685.227 3.31304 -3.77549 0
M  V30 7626 C 687.221 2.89949 -5.67634 0
M  V30 7627 C 684.908 3.31954 -5.13079 0
M  V30 7628 C 685.906 3.113 -6.07932 0
M  V30 7629 O 685.594 3.11758 -7.40987 0
M  V30 7630 H 685.326 0.528372 -0.421662 0
M  V30 7631 H 687.88 1.11919 -1.7223 0
M  V30 7632 H 686.11 3.63973 -1.30615 0
M  V30 7633 H 687.799 3.6749 -1.72354 0
M  V30 7634 H 688.565 2.71948 -4.01584 0
M  V30 7635 H 684.444 3.46417 -3.04165 0
M  V30 7636 H 687.988 2.73746 -6.41645 0
M  V30 7637 H 683.885 3.48469 -5.43359 0
M  V30 7638 H 684.653 3.27951 -7.49927 0
M  V30 7639 N 687.317 1.12792 1.10072 0
M  V30 7640 C 688.265 0.794523 2.18609 0
M  V30 7641 C 689.259 -0.220271 1.67962 0
M  V30 7642 O 690.465 -0.0780938 1.79831 0
M  V30 7643 H 686.84 0.239123 0.712969 0
M  V30 7644 H 688.811 1.71823 2.43966 0
M  V30 7645 C 687.56 0.269548 3.46654 0
M  V30 7646 H 686.883 1.04171 3.8599 0
M  V30 7647 H 688.323 0.0746242 4.23934 0
M  V30 7648 C 686.782 -1.00333 3.21613 0
M  V30 7649 O 687.312 -2.08042 3.4363 0
M  V30 7650 N 685.518 -0.931763 2.75257 0
M  V30 7651 H 685.065 -0.0551197 2.57541 0
M  V30 7652 H 685.023 -1.78405 2.58881 0
M  V30 7653 N 688.795 -1.27931 0.920396 0
M  V30 7654 C 689.742 -2.27085 0.412422 0
M  V30 7655 C 690.712 -1.57858 -0.516725 0
M  V30 7656 O 691.897 -1.85717 -0.437475 0
M  V30 7657 C 689.037 -3.43466 -0.335399 0
M  V30 7658 C 688.15 -4.27425 0.627017 0
M  V30 7659 C 687.285 -5.31016 -0.139916 0
M  V30 7660 C 686.324 -6.06641 0.815683 0
M  V30 7661 N 685.461 -7.02052 0.0818439 0
M  V30 7662 H 690.301 -2.69913 1.26298 0
M  V30 7663 H 687.838 -1.32732 0.634076 0
M  V30 7664 H 689.796 -4.09744 -0.785226 0
M  V30 7665 H 688.426 -3.01611 -1.15025 0
M  V30 7666 H 687.478 -3.6113 1.19537 0
M  V30 7667 H 688.79 -4.79969 1.35763 0
M  V30 7668 H 687.944 -6.03208 -0.649998 0
M  V30 7669 H 686.683 -4.79257 -0.903543 0
M  V30 7670 H 685.688 -5.33294 1.33708 0
M  V30 7671 H 686.913 -6.60489 1.57897 0
M  V30 7672 H 684.859 -6.52634 -0.663671 0
M  V30 7673 H 684.776 -7.52249 0.752163 0
M  V30 7674 H 686.044 -7.78432 -0.407825 0
M  V30 7675 N 690.273 -0.685099 -1.4193 0
M  V30 7676 C 691.522 -0.208816 -2.00616 0
M  V30 7677 C 691.835 1.19506 -1.54847 0
M  V30 7678 O 693.041 1.76826 -2.06021 0
M  V30 7679 C 691.497 -0.322446 -3.58453 0
M  V30 7680 C 691.105 -1.73102 -4.13206 0
M  V30 7681 C 692.849 0.0945979 -4.24395 0
M  V30 7682 C 690.756 -1.79687 -5.63442 0
M  V30 7683 H 689.686 -0.0743092 -0.750329 0
M  V30 7684 H 692.337 -0.851778 -1.62533 0
M  V30 7685 H 690.719 0.388588 -3.94089 0
M  V30 7686 H 691.893 -2.46997 -3.8901 0
M  V30 7687 H 690.208 -2.09682 -3.59753 0
M  V30 7688 H 692.805 0.0656937 -5.3466 0
M  V30 7689 H 693.148 1.1316 -4.00625 0
M  V30 7690 H 693.681 -0.56579 -3.93756 0
M  V30 7691 H 690.42 -2.81404 -5.92024 0
M  V30 7692 H 689.94 -1.10162 -5.89597 0
M  V30 7693 H 691.619 -1.55498 -6.28036 0
M  V30 7694 N 691.751 1.51645 -0.429126 0
M  V30 7695 C 692.981 2.06133 0.138793 0
M  V30 7696 C 693.389 1.29735 1.37716 0
M  V30 7697 O 692.732 0.347955 1.80375 0
M  V30 7698 C 692.794 3.55504 0.534493 0
M  V30 7699 C 692.458 4.53098 -0.595917 0
M  V30 7700 C 693.455 4.98815 -1.46558 0
M  V30 7701 C 691.14 4.96296 -0.774309 0
M  V30 7702 C 693.134 5.86394 -2.4984 0
M  V30 7703 C 690.821 5.83667 -1.81042 0
M  V30 7704 C 691.819 6.28613 -2.67086 0
M  V30 7705 O 691.507 7.14251 -3.68919 0
M  V30 7706 H 691.239 0.675833 0.0150263 0
M  V30 7707 H 693.793 1.96301 -0.604584 0
M  V30 7708 H 692.023 3.63092 1.33045 0
M  V30 7709 H 693.712 3.92545 1.03262 0
M  V30 7710 H 694.478 4.66143 -1.33925 0
M  V30 7711 H 690.357 4.60859 -0.114178 0
M  V30 7712 H 693.901 6.21398 -3.17034 0
M  V30 7713 H 689.798 6.15753 -1.93698 0
M  V30 7714 H 690.566 7.3241 -3.65402 0
M  V30 7715 N 693.229 0.160201 1.56784 0
M  V30 7716 C 694.159 -0.770264 2.2043 0
M  V30 7717 C 695.14 -1.24736 1.15651 0
M  V30 7718 O 696.325 -1.30253 1.44041 0
M  V30 7719 C 693.455 -2.00427 2.83631 0
M  V30 7720 C 692.409 -1.66345 3.94352 0
M  V30 7721 C 691.735 -2.97119 4.4455 0
M  V30 7722 C 693.035 -0.899972 5.14488 0
M  V30 7723 H 694.729 -0.239783 2.98438 0
M  V30 7724 H 692.275 -0.113891 1.43549 0
M  V30 7725 H 694.228 -2.66012 3.26827 0
M  V30 7726 H 692.952 -2.5587 2.02973 0
M  V30 7727 H 691.611 -1.03133 3.51794 0
M  V30 7728 H 691.259 -3.5058 3.60698 0
M  V30 7729 H 690.959 -2.75073 5.19238 0
M  V30 7730 H 692.483 -3.63753 4.90425 0
M  V30 7731 H 693.897 -1.45818 5.54446 0
M  V30 7732 H 692.294 -0.778968 5.95023 0
M  V30 7733 H 693.364 0.105827 4.84785 0
M  V30 7734 N 694.707 -1.5719 -0.113559 0
M  V30 7735 C 695.937 -1.89053 -0.833212 0
M  V30 7736 C 696.345 -0.750139 -1.73694 0
M  V30 7737 O 695.688 0.287808 -1.81431 0
M  V30 7738 C 695.75 -3.15986 -1.71443 0
M  V30 7739 C 695.414 -4.46271 -0.984449 0
M  V30 7740 C 696.411 -5.18897 -0.322741 0
M  V30 7741 C 694.096 -4.92963 -0.964011 0
M  V30 7742 C 696.09 -6.3644 0.349646 0
M  V30 7743 C 693.777 -6.10422 -0.287828 0
M  V30 7744 C 694.775 -6.82009 0.36784 0
M  V30 7745 O 694.463 -7.97233 1.03322 0
M  V30 7746 H 694.195 -0.630225 -0.244526 0
M  V30 7747 H 696.749 -2.05152 -0.100847 0
M  V30 7748 H 694.979 -2.95984 -2.48858 0
M  V30 7749 H 696.668 -3.33826 -2.309 0
M  V30 7750 H 697.434 -4.83875 -0.330114 0
M  V30 7751 H 693.313 -4.37143 -1.46379 0
M  V30 7752 H 696.857 -6.92254 0.861996 0
M  V30 7753 H 692.754 -6.449 -0.278237 0
M  V30 7754 H 693.522 -8.13105 0.938247 0
M  V30 7755 N 696.185 0.383891 -1.52853 0
M  V30 7756 C 697.095 1.49343 -1.80925 0
M  V30 7757 C 698.111 1.59458 -0.696348 0
M  V30 7758 O 699.287 1.75698 -0.984481 0
M  V30 7759 C 696.352 2.84819 -1.97684 0
M  V30 7760 C 695.413 2.84382 -3.21598 0
M  V30 7761 C 694.646 4.13397 -3.37548 0
M  V30 7762 O 694.869 5.08619 -2.58192 0
M  V30 7763 O 693.803 4.20325 -4.30826 0
M  V30 7764 H 697.629 1.2855 -2.75152 0
M  V30 7765 H 695.214 0.572229 -1.38007 0
M  V30 7766 H 697.096 3.65125 -2.10385 0
M  V30 7767 H 695.771 3.05627 -1.06647 0
M  V30 7768 H 694.678 2.0284 -3.14336 0
M  V30 7769 H 696.011 2.68526 -4.12498 0
M  V30 7770 N 697.663 1.43903 0.642637 0
M  V30 7771 C 698.611 1.50164 1.77634 0
M  V30 7772 C 699.605 0.374294 1.65213 0
M  V30 7773 O 700.811 0.548748 1.71431 0
M  V30 7774 H 697.186 0.470974 0.586249 0
M  V30 7775 H 699.157 2.45603 1.69474 0
M  V30 7776 C 697.906 1.45196 3.15933 0
M  V30 7777 H 697.229 2.31253 3.26132 0
M  V30 7778 H 698.669 1.53638 3.95185 0
M  V30 7779 C 697.128 0.171043 3.36466 0
M  V30 7780 O 697.658 -0.763413 3.94379 0
M  V30 7781 N 695.864 0.077847 2.90496 0
M  V30 7782 H 695.411 0.8391 2.43551 0
M  V30 7783 H 695.369 -0.778473 3.0461 0
M  V30 7784 N 699.141 -0.881989 1.30609 0
M  V30 7785 C 700.074 -1.99066 1.11571 0
M  V30 7786 C 701.052 -1.62584 0.022516 0
M  V30 7787 O 702.236 -1.87671 0.176644 0
M  V30 7788 C 699.363 -3.3134 0.702237 0
M  V30 7789 C 698.409 -3.86807 1.79673 0
M  V30 7790 S 699.242 -4.13735 3.39976 0
M  V30 7791 C 700.398 -5.49024 3.00538 0
M  V30 7792 H 700.631 -2.1491 2.05429 0
M  V30 7793 H 698.164 -1.03074 1.14957 0
M  V30 7794 H 700.122 -4.07796 0.470415 0
M  V30 7795 H 698.783 -3.13349 -0.217034 0
M  V30 7796 H 697.976 -4.82397 1.45977 0
M  V30 7797 H 697.578 -3.17102 1.98298 0
M  V30 7798 H 699.87 -6.30208 2.48684 0
M  V30 7799 H 700.813 -5.8766 3.95046 0
M  V30 7800 H 701.221 -5.11726 2.3832 0
M  V30 7801 N 700.619 -1.13374 -1.09472 0
M  V30 7802 C 701.567 -0.806105 -2.18185 0
M  V30 7803 C 702.561 0.21136 -1.68076 0
M  V30 7804 O 703.767 0.0685558 -1.79869 0
M  V30 7805 H 700.142 -0.242901 -0.71169 0
M  V30 7806 H 702.113 -1.73115 -2.43051 0
M  V30 7807 C 700.862 -0.287928 -3.46506 0
M  V30 7808 H 700.185 -1.06217 -3.85432 0
M  V30 7809 H 701.625 -0.0971054 -4.23889 0
M  V30 7810 C 700.084 0.986256 -3.22141 0
M  V30 7811 O 700.614 2.06217 -3.44728 0
M  V30 7812 N 698.82 0.917153 -2.75747 0
M  V30 7813 H 698.367 0.0414609 -2.57567 0
M  V30 7814 H 698.325 1.77029 -2.59823 0
M  V30 7815 N 702.098 1.27442 -0.927168 0
M  V30 7816 C 703.347 1.93679 -0.563146 0
M  V30 7817 C 703.66 1.73673 0.899837 0
M  V30 7818 O 704.866 2.34247 1.37262 0
M  V30 7819 C 703.322 3.46961 -0.95636 0
M  V30 7820 C 702.93 3.75724 -2.43999 0
M  V30 7821 C 704.674 4.19282 -0.663565 0
M  V30 7822 C 702.581 5.22378 -2.77263 0
M  V30 7823 H 701.511 0.725059 -0.206894 0
M  V30 7824 H 704.162 1.44743 -1.12791 0
M  V30 7825 H 702.544 3.94703 -0.320254 0
M  V30 7826 H 703.718 3.38741 -3.12396 0
M  V30 7827 H 702.033 3.16605 -2.70463 0
M  V30 7828 H 704.63 5.27265 -0.888596 0
M  V30 7829 H 704.973 4.14382 0.399198 0
M  V30 7830 H 705.506 3.7736 -1.25875 0
M  V30 7831 H 702.245 5.32367 -3.82446 0
M  V30 7832 H 701.765 5.6051 -2.13516 0
M  V30 7833 H 703.444 5.9025 -2.64979 0
M  V30 7834 N 703.576 0.692616 1.41565 0
M  V30 7835 C 704.524 0.0139952 2.32596 0
M  V30 7836 C 705.518 -0.771691 1.50802 0
M  V30 7837 O 706.724 -0.677646 1.66757 0
M  V30 7838 H 703.099 -0.0142745 0.751865 0
M  V30 7839 H 705.07 0.798851 2.87508 0
M  V30 7840 C 703.819 -0.910602 3.35564 0
M  V30 7841 H 703.142 -0.315446 3.98554 0
M  V30 7842 H 704.582 -1.3538 4.01806 0
M  V30 7843 C 703.041 -2.02539 2.6922 0
M  V30 7844 O 703.571 -3.11386 2.53775 0
M  V30 7845 N 701.777 -1.80227 2.27962 0
M  V30 7846 H 701.324 -0.917054 2.40724 0
M  V30 7847 H 701.282 -2.55001 1.83907 0
M  V30 7848 N 705.054 -1.51416 0.437162 0
M  V30 7849 C 706.002 -2.29328 -0.388765 0
M  V30 7850 C 706.996 -1.35171 -1.02104 0
M  V30 7851 O 708.202 -1.52513 -0.956024 0
M  V30 7852 H 704.577 -0.738048 -0.144183 0
M  V30 7853 H 706.548 -2.96995 0.289212 0
M  V30 7854 C 705.297 -3.14741 -1.47761 0
M  V30 7855 H 704.62 -3.8708 -1.00045 0
M  V30 7856 H 706.06 -3.72313 -2.02877 0
M  V30 7857 C 704.519 -2.30105 -2.46076 0
M  V30 7858 O 705.049 -1.96055 -3.50607 0
M  V30 7859 N 703.255 -1.93331 -2.1696 0
M  V30 7860 H 702.802 -2.2122 -1.31983 0
M  V30 7861 H 702.76 -1.36999 -2.82982 0
M  V30 7862 N 706.532 -0.168513 -1.56696 0
M  V30 7863 C 707.462 0.758563 -2.20835 0
M  V30 7864 C 708.443 1.24121 -1.1631 0
M  V30 7865 O 709.628 1.29487 -1.4473 0
M  V30 7866 C 706.758 1.9892 -2.8469 0
M  V30 7867 C 705.712 1.64252 -3.95228 0
M  V30 7868 C 705.038 2.94757 -4.46119 0
M  V30 7869 C 706.338 0.872675 -5.14958 0
M  V30 7870 H 708.032 0.223953 -2.98561 0
M  V30 7871 H 705.578 0.106277 -1.43607 0
M  V30 7872 H 707.531 2.64275 -3.28233 0
M  V30 7873 H 706.255 2.5479 -2.04327 0
M  V30 7874 H 704.914 1.01266 -3.52336 0
M  V30 7875 H 704.562 3.48662 -3.62552 0
M  V30 7876 H 704.262 2.72316 -5.2069 0
M  V30 7877 H 705.786 3.61147 -4.92347 0
M  V30 7878 H 707.2 1.42875 -5.55211 0
M  V30 7879 H 705.597 0.747402 -5.95428 0
M  V30 7880 H 706.667 -0.131535 -4.84722 0
M  V30 7881 N 708.01 1.57248 0.105221 0
M  V30 7882 C 709.238 1.89768 0.82437 0
M  V30 7883 C 709.653 0.761192 1.72775 0
M  V30 7884 O 709.01 -0.267342 1.80531 0
M  V30 7885 C 709.061 3.2184 1.64625 0
M  V30 7886 O 708.782 4.31115 0.779217 0
M  V30 7887 C 710.283 3.68155 2.46935 0
M  V30 7888 H 707.503 0.628031 0.236259 0
M  V30 7889 H 710.047 2.04321 0.085485 0
M  V30 7890 H 708.202 3.08915 2.33775 0
M  V30 7891 H 708.616 5.06897 1.34745 0
M  V30 7892 H 710.09 4.6329 3.00111 0
M  V30 7893 H 710.567 2.95492 3.24932 0
M  V30 7894 H 711.173 3.83914 1.83002 0
M  V30 7895 N 709.488 -0.375779 1.53054 0
M  V30 7896 C 710.451 -1.44254 1.7811 0
M  V30 7897 C 711.451 -1.47018 0.651328 0
M  V30 7898 O 712.641 -1.47957 0.919472 0
M  V30 7899 C 709.773 -2.8345 1.89391 0
M  V30 7900 H 710.966 -1.23316 2.73374 0
M  V30 7901 H 708.519 -0.608312 1.43977 0
M  V30 7902 H 709.254 -3.09716 0.961589 0
M  V30 7903 H 709.039 -2.82844 2.71555 0
M  V30 7904 H 710.529 -3.60722 2.10404 0
M  V30 7905 N 710.966 -1.44241 -0.634997 0
M  V30 7906 C 712.194 -1.50296 -1.42193 0
M  V30 7907 C 712.609 -0.12658 -1.88375 0
M  V30 7908 O 711.966 0.86678 -1.60603 0
M  V30 7909 C 712.017 -2.46437 -2.64482 0
M  V30 7910 O 711.738 -3.78724 -2.20226 0
M  V30 7911 C 713.239 -2.61918 -3.57651 0
M  V30 7912 H 710.459 -0.509865 -0.43621 0
M  V30 7913 H 713.003 -1.89167 -0.776921 0
M  V30 7914 H 711.158 -2.10712 -3.25083 0
M  V30 7915 H 711.572 -4.30595 -2.9948 0
M  V30 7916 H 713.046 -3.33225 -4.40074 0
M  V30 7917 H 713.523 -1.67017 -4.06204 0
M  V30 7918 H 714.129 -2.98528 -3.02921 0
M  V30 7919 N 712.444 0.87505 -1.31075 0
M  V30 7920 C 713.374 1.99775 -1.20881 0
M  V30 7921 C 714.355 1.69822 -0.0971612 0
M  V30 7922 O 715.54 1.92158 -0.280895 0
M  V30 7923 C 712.67 3.35163 -0.910118 0
M  V30 7924 C 711.624 3.79406 -1.98078 0
M  V30 7925 C 710.95 5.12197 -1.53488 0
M  V30 7926 C 712.25 3.97061 -3.39323 0
M  V30 7927 H 713.944 2.08562 -2.14808 0
M  V30 7928 H 711.49 1.00207 -1.03415 0
M  V30 7929 H 713.443 4.13237 -0.825423 0
M  V30 7930 H 712.167 3.26536 0.064822 0
M  V30 7931 H 710.826 3.03568 -2.05528 0
M  V30 7932 H 710.474 5.00007 -0.547941 0
M  V30 7933 H 710.174 5.4277 -2.2511 0
M  V30 7934 H 711.698 5.92785 -1.46417 0
M  V30 7935 H 713.112 4.65545 -3.34576 0
M  V30 7936 H 711.509 4.39025 -4.09118 0
M  V30 7937 H 712.579 3.00601 -3.80483 0
M  V30 7938 N 713.922 1.13953 1.08869 0
M  V30 7939 C 715.17 0.903023 1.80803 0
M  V30 7940 C 715.491 -0.572151 1.86417 0
M  V30 7941 O 714.761 -1.41589 1.35386 0
M  V30 7942 H 713.341 0.331099 0.669614 0
M  V30 7943 H 716.003 1.43719 1.31647 0
M  V30 7944 H 715.099 1.29881 2.83791 0
M  V30 7945 N 715.4 -1.26948 0.933913 0
M  V30 7946 C 716.363 -2.24889 0.442457 0
M  V30 7947 C 717.363 -1.54594 -0.442426 0
M  V30 7948 O 718.553 -1.72502 -0.242629 0
M  V30 7949 C 715.685 -3.3896 -0.363173 0
M  V30 7950 H 716.878 -2.69879 1.30787 0
M  V30 7951 H 714.431 -1.38978 0.715187 0
M  V30 7952 H 715.166 -2.99361 -1.24714 0
M  V30 7953 H 714.951 -3.9116 0.271366 0
M  V30 7954 H 716.441 -4.11739 -0.697186 0
M  V30 7955 N 716.879 -0.700114 -1.41195 0
M  V30 7956 C 718.156 -0.160836 -1.94938 0
M  V30 7957 C 718.536 1.33014 -1.63922 0
M  V30 7958 O 717.884 2.07878 -0.948636 0
M  V30 7959 C 718.094 -0.456991 -3.45995 0
M  V30 7960 C 719.442 -0.387207 -4.22831 0
M  V30 7961 O 720.466 -0.392164 -3.54035 0
M  V30 7962 O 719.325 -0.351267 -5.4537 0
M  V30 7963 H 716.419 -0.0176304 -0.826812 0
M  V30 7964 H 718.965 -0.776586 -1.50888 0
M  V30 7965 H 717.737 -1.48884 -3.61869 0
M  V30 7966 H 717.36 0.189503 -3.97148 0
M  V30 7967 N 718.357 1.51182 -0.445186 0
M  V30 7968 C 719.287 2.30821 0.352686 0
M  V30 7969 C 720.268 1.36576 1.01395 0
M  V30 7970 O 721.453 1.65497 1.01609 0
M  V30 7971 C 718.583 3.15593 1.44976 0
M  V30 7972 C 717.537 4.1818 0.911553 0
M  V30 7973 C 716.863 4.91523 2.10497 0
M  V30 7974 C 718.163 5.22266 -0.059418 0
M  V30 7975 H 719.857 2.97771 -0.311936 0
M  V30 7976 H 717.403 1.43201 -0.151461 0
M  V30 7977 H 719.356 3.70091 2.01521 0
M  V30 7978 H 718.08 2.4648 2.14278 0
M  V30 7979 H 716.739 3.64746 0.368264 0
M  V30 7980 H 716.387 4.18906 2.78437 0
M  V30 7981 H 716.087 5.60898 1.7512 0
M  V30 7982 H 717.611 5.48847 2.6758 0
M  V30 7983 H 719.025 5.71789 0.415985 0
M  V30 7984 H 717.422 5.99213 -0.326152 0
M  V30 7985 H 718.492 4.7461 -0.993631 0
M  V30 7986 N 719.835 0.176821 1.56605 0
M  V30 7987 C 721.081 -0.467406 1.9734 0
M  V30 7988 C 721.414 -1.62523 1.06301 0
M  V30 7989 O 720.689 -1.94182 0.11125 0
M  V30 7990 C 720.972 -0.945106 3.47476 0
M  V30 7991 C 720.825 0.213273 4.49294 0
M  V30 7992 C 722.144 -1.8169 4.00845 0
M  V30 7993 H 719.263 -0.168426 0.717497 0
M  V30 7994 H 721.905 0.264065 1.88156 0
M  V30 7995 H 720.055 -1.56841 3.55434 0
M  V30 7996 H 721.727 0.850508 4.53392 0
M  V30 7997 H 719.97 0.867918 4.25029 0
M  V30 7998 H 720.641 -0.163187 5.51759 0
M  V30 7999 H 723.117 -1.29139 3.95553 0
M  V30 8000 H 721.993 -2.12015 5.06301 0
M  V30 8001 H 722.254 -2.76463 3.44994 0
M  V30 8002 N 721.313 -1.57302 -0.09688 0
M  V30 8003 C 722.59 -1.7701 -0.832272 0
M  V30 8004 C 722.97 -0.758025 -1.97021 0
M  V30 8005 O 722.318 0.213824 -2.27497 0
M  V30 8006 C 722.528 -3.22725 -1.32851 0
M  V30 8007 C 723.876 -3.85856 -1.772 0
M  V30 8008 O 724.9 -3.26464 -1.42478 0
M  V30 8009 O 723.759 -4.90295 -2.41398 0
M  V30 8010 H 720.853 -0.725558 -0.396856 0
M  V30 8011 H 723.399 -1.69516 -0.0789005 0
M  V30 8012 H 722.171 -3.87921 -0.51312 0
M  V30 8013 H 721.794 -3.34845 -2.14394 0
M  V30 8014 N 722.791 0.367657 -1.53252 0
M  V30 8015 C 724.016 1.13566 -1.73544 0
M  V30 8016 C 724.441 1.82329 -0.462344 0
M  V30 8017 O 723.799 1.71655 0.583472 0
M  V30 8018 C 723.847 2.14322 -2.89997 0
M  V30 8019 O 722.951 3.21359 -2.58461 0
M  V30 8020 H 722.292 0.329614 -0.576412 0
M  V30 8021 H 724.822 0.425417 -2.00128 0
M  V30 8022 H 724.832 2.57958 -3.16104 0
M  V30 8023 H 723.507 1.63664 -3.82344 0
M  V30 8024 H 722.084 2.8271 -2.43165 0
M  V30 8025 N 724.269 1.44576 0.627338 0
M  V30 8026 C 725.497 1.51048 1.41394 0
M  V30 8027 C 725.912 0.136568 1.88305 0
M  V30 8028 O 725.269 -0.858251 1.6106 0
M  V30 8029 C 725.32 2.47837 2.63172 0
M  V30 8030 O 725.041 3.79887 2.18215 0
M  V30 8031 C 726.542 2.63811 3.56257 0
M  V30 8032 H 723.762 0.512171 0.4335 0
M  V30 8033 H 726.306 1.89576 0.766878 0
M  V30 8034 H 724.461 2.12433 3.23961 0
M  V30 8035 H 724.875 4.32177 2.97192 0
M  V30 8036 H 726.349 3.35554 4.38301 0
M  V30 8037 H 726.826 1.69169 4.05313 0
M  V30 8038 H 727.432 3.0013 3.01333 0
M  V30 8039 N 725.747 -0.868086 1.31537 0
M  V30 8040 C 727.024 -1.60384 1.11965 0
M  V30 8041 C 727.404 -2.08584 -0.324949 0
M  V30 8042 O 726.752 -1.86561 -1.31937 0
M  V30 8043 C 726.962 -2.76038 2.13551 0
M  V30 8044 C 728.31 -3.45954 2.46173 0
M  V30 8045 O 729.334 -2.86247 2.11993 0
M  V30 8046 O 728.193 -4.53666 3.04711 0
M  V30 8047 H 725.287 -0.705705 0.431172 0
M  V30 8048 H 727.833 -0.913385 1.43022 0
M  V30 8049 H 726.605 -2.37849 3.10714 0
M  V30 8050 H 726.228 -3.52769 1.83411 0
M  V30 8051 N 727.225 -1.14528 -1.08264 0
M  V30 8052 C 728.173 -0.829201 -2.17318 0
M  V30 8053 C 729.167 0.193521 -1.68291 0
M  V30 8054 O 730.373 0.0494744 -1.79932 0
M  V30 8055 H 726.748 -0.250435 -0.709074 0
M  V30 8056 H 728.719 -1.75683 -2.41201 0
M  V30 8057 C 727.468 -0.324663 -3.46181 0
M  V30 8058 H 726.791 -1.10299 -3.84284 0
M  V30 8059 H 728.231 -0.142059 -4.23762 0
M  V30 8060 C 726.69 0.952033 -3.23169 0
M  V30 8061 O 727.22 2.02549 -3.46896 0
M  V30 8062 N 725.426 0.887854 -2.76705 0
M  V30 8063 H 724.973 0.0141402 -2.57596 0
M  V30 8064 H 724.931 1.74263 -2.61686 0
M  V30 8065 N 728.703 1.26451 -0.940633 0
M  V30 8066 C 729.931 1.97868 -0.604642 0
M  V30 8067 C 730.346 1.70051 0.820251 0
M  V30 8068 O 729.703 0.96843 1.54686 0
M  V30 8069 C 729.754 3.51684 -0.836689 0
M  V30 8070 O 729.475 3.78533 -2.20554 0
M  V30 8071 C 730.976 4.40343 -0.511169 0
M  V30 8072 H 728.196 0.631105 -0.227919 0
M  V30 8073 H 730.74 1.60979 -1.26119 0
M  V30 8074 H 728.895 3.86736 -0.226759 0
M  V30 8075 H 729.309 4.73065 -2.26517 0
M  V30 8076 H 730.783 5.47229 -0.724157 0
M  V30 8077 H 731.26 4.35694 0.553815 0
M  V30 8078 H 731.866 4.10834 -1.0998 0
M  V30 8079 N 730.181 0.707592 1.40822 0
M  V30 8080 C 731.128 0.0499029 2.30746 0
M  V30 8081 C 732.098 -0.758718 1.47759 0
M  V30 8082 O 733.283 -0.724299 1.76518 0
M  V30 8083 C 730.423 -0.871756 3.33908 0
M  V30 8084 C 729.536 -0.0534655 4.31967 0
M  V30 8085 C 728.671 -0.973869 5.22197 0
M  V30 8086 C 727.71 -0.149194 6.11918 0
M  V30 8087 N 726.847 -1.02404 6.94592 0
M  V30 8088 H 731.687 0.822461 2.86426 0
M  V30 8089 H 729.224 0.417285 1.41057 0
M  V30 8090 H 731.182 -1.42028 3.9228 0
M  V30 8091 H 729.812 -1.61058 2.7975 0
M  V30 8092 H 728.864 0.612142 3.75442 0
M  V30 8093 H 730.176 0.585354 4.95353 0
M  V30 8094 H 729.33 -1.59121 5.85462 0
M  V30 8095 H 728.069 -1.64652 4.59065 0
M  V30 8096 H 727.074 0.481137 5.47691 0
M  V30 8097 H 728.299 0.519841 6.77107 0
M  V30 8098 H 726.245 -1.6825 6.34057 0
M  V30 8099 H 726.162 -0.441076 7.54712 0
M  V30 8100 H 727.43 -1.62782 7.62314 0
M  V30 8101 N 731.66 -1.50943 0.453197 0
M  V30 8102 C 732.909 -2.01402 -0.10951 0
M  V30 8103 C 733.222 -1.3411 -1.42386 0
M  V30 8104 O 734.428 -1.75626 -2.07045 0
M  V30 8105 C 732.884 -3.5906 -0.245693 0
M  V30 8106 C 732.492 -4.353 1.05916 0
M  V30 8107 C 734.236 -4.17617 -0.761318 0
M  V30 8108 C 732.143 -5.84699 0.887752 0
M  V30 8109 H 731.073 -0.752674 -0.0447013 0
M  V30 8110 H 733.724 -1.73913 0.585375 0
M  V30 8111 H 732.106 -3.83062 -1.00395 0
M  V30 8112 H 733.28 -4.23034 1.82698 0
M  V30 8113 H 731.595 -3.88269 1.50452 0
M  V30 8114 H 734.192 -5.26963 -0.906306 0
M  V30 8115 H 734.535 -3.77824 -1.74799 0
M  V30 8116 H 735.068 -3.97753 -0.0609416 0
M  V30 8117 H 731.807 -6.28933 1.84726 0
M  V30 8118 H 731.327 -5.99587 0.160006 0
M  V30 8119 H 733.006 -6.44682 0.547223 0
M  V30 8120 N 733.138 -0.185124 -1.56509 0
M  V30 8121 C 734.086 0.756505 -2.19954 0
M  V30 8122 C 735.08 1.22725 -1.16769 0
M  V30 8123 O 736.286 1.1913 -1.34937 0
M  V30 8124 H 732.661 0.262279 -0.704779 0
M  V30 8125 H 734.632 0.197587 -2.97745 0
M  V30 8126 C 733.381 1.96975 -2.86524 0
M  V30 8127 H 732.704 1.61658 -3.65659 0
M  V30 8128 H 734.144 2.60719 -3.34367 0
M  V30 8129 C 732.603 2.80219 -1.87027 0
M  V30 8130 O 733.133 3.77821 -1.36433 0
M  V30 8131 N 731.339 2.4551 -1.55477 0
M  V30 8132 H 730.886 1.66199 -1.96813 0
M  V30 8133 H 730.844 3.01493 -0.891597 0
M  V30 8134 N 734.616 1.57351 0.0885366 0
M  V30 8135 C 736.032 1.53331 0.442916 0
M  V30 8136 C 736.232 0.902831 1.80142 0
M  V30 8137 O 735.288 0.498147 2.47537 0
M  V30 8138 C 736.601 2.98036 0.399372 0
M  V30 8139 C 738.149 3.09286 0.480759 0
M  V30 8140 C 738.624 4.5561 0.467296 0
M  V30 8141 N 740.115 4.60182 0.52786 0
M  V30 8142 C 740.85 5.70857 0.539388 0
M  V30 8143 N 740.346 6.90944 0.506729 0
M  V30 8144 N 742.139 5.59051 0.584691 0
M  V30 8145 H 734.29 1.96709 -0.801215 0
M  V30 8146 H 736.553 0.899639 -0.298922 0
M  V30 8147 H 736.259 3.47656 -0.531806 0
M  V30 8148 H 736.133 3.57066 1.21589 0
M  V30 8149 H 738.52 2.5965 1.40236 0
M  V30 8150 H 738.601 2.53197 -0.364023 0
M  V30 8151 H 738.245 5.05899 -0.450384 0
M  V30 8152 H 738.175 5.09544 1.32938 0
M  V30 8153 H 740.666 3.73757 0.558028 0
M  V30 8154 H 740.979 7.71055 0.518989 0
M  V30 8155 H 739.324 6.93384 0.473675 0
M  V30 8156 H 742.515 4.64138 0.607781 0
M  V30 8157 H 742.688 6.45307 0.590206 0
M  V30 8158 N 736.094 -0.359525 1.53444 0
M  V30 8159 C 737.342 -1.09935 1.69584 0
M  V30 8160 C 737.663 -1.89656 0.453371 0
M  V30 8161 O 736.933 -1.8852 -0.53263 0
M  V30 8162 H 735.513 -0.408843 0.625185 0
M  V30 8163 H 738.175 -0.40467 1.90653 0
M  V30 8164 H 737.271 -1.78575 2.55964 0
M  V30 8165 N 737.572 -1.44907 -0.619662 0
M  V30 8166 C 738.821 -1.47569 -1.37501 0
M  V30 8167 C 739.134 -0.116707 -1.95252 0
M  V30 8168 O 740.34 -0.020909 -2.71492 0
M  V30 8169 C 738.796 -2.59851 -2.49009 0
M  V30 8170 C 738.404 -4.02008 -1.97722 0
M  V30 8171 C 740.148 -2.71746 -3.2612 0
M  V30 8172 C 738.055 -5.05693 -3.0664 0
M  V30 8173 H 736.985 -0.549068 -0.51676 0
M  V30 8174 H 739.636 -1.71009 -0.665437 0
M  V30 8175 H 738.018 -2.29671 -3.22594 0
M  V30 8176 H 739.192 -4.41809 -1.30925 0
M  V30 8177 H 737.507 -3.94456 -1.33392 0
M  V30 8178 H 740.104 -3.46382 -4.07337 0
M  V30 8179 H 740.447 -1.77959 -3.76346 0
M  V30 8180 H 740.98 -3.01392 -2.5963 0
M  V30 8181 H 737.719 -6.01148 -2.61345 0
M  V30 8182 H 737.239 -4.70473 -3.72042 0
M  V30 8183 H 738.918 -5.29906 -3.71226 0
M  V30 8184 N 739.05 0.861098 -1.31996 0
M  V30 8185 C 740.297 1.61481 -1.22188 0
M  V30 8186 C 740.625 1.93276 0.217853 0
M  V30 8187 O 739.88 1.56942 1.16909 0
M  V30 8188 C 740.179 2.94822 -2.02027 0
M  V30 8189 C 739.845 2.82483 -3.51446 0
M  V30 8190 C 738.507 2.78825 -3.92186 0
M  V30 8191 C 740.859 2.68878 -4.46491 0
M  V30 8192 C 738.187 2.59433 -5.26224 0
M  V30 8193 C 740.539 2.51022 -5.80664 0
M  V30 8194 C 739.203 2.45753 -6.20614 0
M  V30 8195 H 738.473 0.590902 -0.447119 0
M  V30 8196 H 741.12 0.999376 -1.63355 0
M  V30 8197 H 739.425 3.6045 -1.53569 0
M  V30 8198 H 741.122 3.52149 -1.91812 0
M  V30 8199 H 737.712 2.86152 -3.19085 0
M  V30 8200 H 741.896 2.70754 -4.1594 0
M  V30 8201 H 737.152 2.53784 -5.5624 0
M  V30 8202 H 741.326 2.39473 -6.53931 0
M  V30 8203 H 738.953 2.30485 -7.24417 0
M  V30 8204 N 740.528 1.15101 1.07655 0
M  V30 8205 C 741.476 0.840714 2.16875 0
M  V30 8206 C 742.47 -0.184594 1.68391 0
M  V30 8207 O 743.676 -0.0399315 1.79956 0
M  V30 8208 H 740.051 0.254192 0.707736 0
M  V30 8209 H 742.022 1.76959 2.40266 0
M  V30 8210 C 740.771 0.343018 3.46004 0
M  V30 8211 H 740.094 1.12335 3.83694 0
M  V30 8212 H 741.534 0.16453 4.23681 0
M  V30 8213 C 739.993 -0.934881 3.23669 0
M  V30 8214 O 740.523 -2.00706 3.47965 0
M  V30 8215 N 738.729 -0.873167 2.77172 0
M  V30 8216 H 738.276 -0.000479072 2.576 0
M  V30 8217 H 738.234 -1.72873 2.62607 0
M  V30 8218 N 742.006 -1.2595 0.947325 0
M  V30 8219 C 742.916 -2.29883 0.468079 0
M  V30 8220 C 743.932 -1.67783 -0.460975 0
M  V30 8221 O 745.108 -1.98526 -0.339006 0
M  V30 8222 C 742.173 -3.45773 -0.253315 0
M  V30 8223 C 741.234 -4.23337 0.713054 0
M  V30 8224 C 740.467 -5.33694 0.025993 0
M  V30 8225 O 740.69 -5.57853 -1.18978 0
M  V30 8226 O 739.624 -5.97724 0.70782 0
M  V30 8227 H 743.45 -2.72952 1.33156 0
M  V30 8228 H 741.035 -1.31263 0.713468 0
M  V30 8229 H 742.917 -4.16209 -0.659423 0
M  V30 8230 H 741.592 -3.04721 -1.09209 0
M  V30 8231 H 740.499 -3.55359 1.16923 0
M  V30 8232 H 741.832 -4.68154 1.51963 0
M  V30 8233 N 743.484 -0.715051 -1.40445 0
M  V30 8234 C 744.731 -0.254328 -2.00897 0
M  V30 8235 C 745.059 1.15228 -1.56693 0
M  V30 8236 O 744.314 1.7958 -0.777786 0
M  V30 8237 C 744.613 -0.281791 -3.56287 0
M  V30 8238 C 744.279 -1.63862 -4.20071 0
M  V30 8239 C 742.941 -2.01003 -4.37208 0
M  V30 8240 C 745.293 -2.53039 -4.55654 0
M  V30 8241 C 742.621 -3.26869 -4.8721 0
M  V30 8242 C 744.973 -3.78256 -5.07055 0
M  V30 8243 C 743.637 -4.15515 -5.22401 0
M  V30 8244 H 742.907 -0.0930652 -0.735133 0
M  V30 8245 H 745.554 -0.917977 -1.68064 0
M  V30 8246 H 743.859 0.465428 -3.89026 0
M  V30 8247 H 745.556 0.0925158 -4.00893 0
M  V30 8248 H 742.146 -1.33979 -4.07121 0
M  V30 8249 H 746.33 -2.2562 -4.42051 0
M  V30 8250 H 741.586 -3.55706 -4.97276 0
M  V30 8251 H 745.76 -4.47528 -5.33565 0
M  V30 8252 H 743.387 -5.13114 -5.60909 0
M  V30 8253 N 744.962 1.50701 -0.461195 0
M  V30 8254 C 745.909 2.2831 0.338094 0
M  V30 8255 C 746.879 1.32928 0.995957 0
M  V30 8256 O 748.064 1.61857 1.0103 0
M  V30 8257 C 745.204 3.14539 1.41983 0
M  V30 8258 C 744.317 4.24942 0.77773 0
M  V30 8259 C 743.452 4.98443 1.83652 0
M  V30 8260 C 742.491 6.00733 1.17413 0
M  V30 8261 N 741.628 6.6755 2.17533 0
M  V30 8262 H 746.468 2.96167 -0.330051 0
M  V30 8263 H 744.005 1.4606 -0.174611 0
M  V30 8264 H 745.963 3.62877 2.05855 0
M  V30 8265 H 744.593 2.48749 2.05727 0
M  V30 8266 H 743.645 3.80391 0.0266924 0
M  V30 8267 H 744.957 4.98151 0.254362 0
M  V30 8268 H 744.111 5.50449 2.55129 0
M  V30 8269 H 742.85 4.24917 2.39367 0
M  V30 8270 H 741.855 5.47997 0.444944 0
M  V30 8271 H 743.08 6.76227 0.624006 0
M  V30 8272 H 741.026 5.96823 2.72284 0
M  V30 8273 H 740.943 7.36603 1.70154 0
M  V30 8274 H 742.211 7.24178 2.88421 0
M  V30 8275 N 746.441 0.193421 1.56409 0
M  V30 8276 C 747.388 -0.728124 2.19014 0
M  V30 8277 C 748.358 -1.21098 1.13686 0
M  V30 8278 O 749.543 -1.27517 1.4193 0
M  V30 8279 C 746.683 -1.94277 2.8522 0
M  V30 8280 C 745.796 -1.50143 4.05069 0
M  V30 8281 C 744.931 -2.67145 4.59137 0
M  V30 8282 C 743.97 -2.19609 5.71348 0
M  V30 8283 N 743.107 -3.29782 6.19829 0
M  V30 8284 H 747.947 -0.187499 2.9741 0
M  V30 8285 H 745.484 -0.0808064 1.46878 0
M  V30 8286 H 747.442 -2.65551 3.21774 0
M  V30 8287 H 746.072 -2.45673 2.09391 0
M  V30 8288 H 745.124 -0.684624 3.74189 0
M  V30 8289 H 746.436 -1.11266 4.86232 0
M  V30 8290 H 745.59 -3.46544 4.97988 0
M  V30 8291 H 744.329 -3.09295 3.77078 0
M  V30 8292 H 743.334 -1.38664 5.32027 0
M  V30 8293 H 744.559 -1.78492 6.55223 0
M  V30 8294 H 742.505 -3.71466 5.40693 0
M  V30 8295 H 742.422 -2.95069 6.96039 0
M  V30 8296 H 743.69 -4.094 6.63334 0
M  V30 8297 N 747.919 -1.57396 -0.0801906 0
M  V30 8298 C 748.867 -2.04136 -1.11495 0
M  V30 8299 C 749.861 -0.945137 -1.40583 0
M  V30 8300 O 751.067 -1.13028 -1.40088 0
M  V30 8301 H 747.442 -0.65076 -0.37685 0
M  V30 8302 H 749.413 -2.90205 -0.694526 0
M  V30 8303 C 748.162 -2.49399 -2.42272 0
M  V30 8304 H 747.485 -3.33339 -2.20737 0
M  V30 8305 H 748.925 -2.85864 -3.13142 0
M  V30 8306 C 747.384 -1.37341 -3.07635 0
M  V30 8307 O 747.914 -0.710829 -3.95361 0
M  V30 8308 N 746.12 -1.12064 -2.68123 0
M  V30 8309 H 745.667 -1.66126 -1.96875 0
M  V30 8310 H 745.625 -0.372916 -3.12181 0
M  V30 8311 N 749.397 0.351382 -1.53633 0
M  V30 8312 C 750.644 1.0925 -1.70502 0
M  V30 8313 C 750.972 1.88881 -0.464123 0
M  V30 8314 O 750.227 1.87693 0.554077 0
M  V30 8315 C 750.526 2.06744 -2.91533 0
M  V30 8316 C 750.192 1.43484 -4.27461 0
M  V30 8317 C 748.854 1.2596 -4.64422 0
M  V30 8318 C 751.206 0.978436 -5.11934 0
M  V30 8319 C 748.534 0.614017 -5.83478 0
M  V30 8320 C 750.886 0.346795 -6.31649 0
M  V30 8321 C 749.55 0.15917 -6.6731 0
M  V30 8322 H 748.82 0.399773 -0.623909 0
M  V30 8323 H 751.467 0.372656 -1.87839 0
M  V30 8324 H 749.772 2.85082 -2.68767 0
M  V30 8325 H 751.469 2.64066 -3.01778 0
M  V30 8326 H 748.059 1.5812 -3.98367 0
M  V30 8327 H 752.243 1.1017 -4.83918 0
M  V30 8328 H 747.499 0.457194 -6.09688 0
M  V30 8329 H 751.673 -0.0149864 -6.96398 0
M  V30 8330 H 749.3 -0.343129 -7.59425 0
M  V30 8331 N 750.875 1.45233 0.611969 0
M  V30 8332 C 751.822 1.5357 1.72293 0
M  V30 8333 C 752.792 0.381912 1.6165 0
M  V30 8334 O 753.977 0.594765 1.81293 0
M  V30 8335 C 751.117 1.50419 3.10593 0
M  V30 8336 C 750.23 2.76316 3.32074 0
M  V30 8337 C 749.365 2.64866 4.60456 0
M  V30 8338 C 748.404 3.85838 4.7518 0
M  V30 8339 N 747.541 3.72949 5.94856 0
M  V30 8340 H 752.381 2.4848 1.64504 0
M  V30 8341 H 749.918 1.23302 0.802191 0
M  V30 8342 H 751.876 1.4658 3.90602 0
M  V30 8343 H 750.506 0.590621 3.17351 0
M  V30 8344 H 749.558 2.90261 2.45872 0
M  V30 8345 H 750.87 3.66055 3.38829 0
M  V30 8346 H 750.024 2.58969 5.48653 0
M  V30 8347 H 748.763 1.72719 4.56092 0
M  V30 8348 H 747.768 3.92099 3.85407 0
M  V30 8349 H 748.993 4.79045 4.81344 0
M  V30 8350 H 746.939 2.83567 5.91545 0
M  V30 8351 H 746.856 4.56319 6.02751 0
M  V30 8352 H 748.124 3.70976 6.85563 0
M  V30 8353 N 752.353 -0.854086 1.3245 0
M  V30 8354 C 753.583 -1.63836 1.25862 0
M  V30 8355 C 753.991 -1.88383 -0.175588 0
M  V30 8356 O 753.334 -1.45353 -1.1233 0
M  V30 8357 C 753.396 -3.02068 1.94923 0
M  V30 8358 C 753.06 -3.0056 3.44257 0
M  V30 8359 C 754.057 -2.77368 4.39731 0
M  V30 8360 C 751.742 -3.21177 3.862 0
M  V30 8361 C 753.736 -2.74797 5.75122 0
M  V30 8362 C 751.423 -3.18234 5.217 0
M  V30 8363 C 752.421 -2.95072 6.15972 0
M  V30 8364 O 752.109 -2.92003 7.48992 0
M  V30 8365 H 751.841 -0.517007 0.435523 0
M  V30 8366 H 754.395 -1.07314 1.75137 0
M  V30 8367 H 752.625 -3.60382 1.40219 0
M  V30 8368 H 754.314 -3.62791 1.82037 0
M  V30 8369 H 755.08 -2.61205 4.08653 0
M  V30 8370 H 750.959 -3.38231 3.13243 0
M  V30 8371 H 754.503 -2.56638 6.48678 0
M  V30 8372 H 750.4 -3.33941 5.52407 0
M  V30 8373 H 751.168 -3.07953 7.58358 0
M  V30 8374 N 753.831 -1.1567 -1.07043 0
M  V30 8375 C 755.056 -0.957946 -1.83952 0
M  V30 8376 C 755.481 0.488807 -1.81638 0
M  V30 8377 O 754.839 1.34869 -1.21162 0
M  V30 8378 C 754.887 -1.48064 -3.288 0
M  V30 8379 O 753.991 -0.681921 -4.06723 0
M  V30 8380 H 753.332 -0.341453 -0.569479 0
M  V30 8381 H 755.862 -1.53728 -1.35015 0
M  V30 8382 H 755.872 -1.49484 -3.7963 0
M  V30 8383 H 754.547 -2.53388 -3.29799 0
M  V30 8384 H 753.124 -0.737612 -3.65532 0
M  V30 8385 N 755.309 1.25446 -0.953992 0
M  V30 8386 C 756.558 1.92441 -0.604101 0
M  V30 8387 C 756.871 1.75543 0.862796 0
M  V30 8388 O 758.077 2.37106 1.32262 0
M  V30 8389 C 756.533 3.44854 -1.02974 0
M  V30 8390 C 756.141 3.70464 -2.51914 0
M  V30 8391 C 757.885 4.1778 -0.752352 0
M  V30 8392 C 755.792 5.1638 -2.88281 0
M  V30 8393 H 754.722 0.720508 -0.222227 0
M  V30 8394 H 757.373 1.42318 -1.15836 0
M  V30 8395 H 755.755 3.93935 -0.403904 0
M  V30 8396 H 756.929 3.32038 -3.19511 0
M  V30 8397 H 755.244 3.10797 -2.77117 0
M  V30 8398 H 757.841 5.25261 -1.00024 0
M  V30 8399 H 758.184 4.15135 0.311212 0
M  V30 8400 H 758.717 3.74605 -1.33851 0
M  V30 8401 H 755.456 5.24135 -3.93653 0
M  V30 8402 H 754.976 5.55855 -2.25357 0
M  V30 8403 H 756.655 5.84497 -2.77439 0
M  V30 8404 N 756.787 0.722489 1.40064 0
M  V30 8405 C 758.012 0.273446 2.05589 0
M  V30 8406 C 758.437 -1.07875 1.54093 0
M  V30 8407 O 757.795 -1.68095 0.679252 0
M  V30 8408 C 757.843 0.271023 3.5958 0
M  V30 8409 O 756.947 -0.745499 4.05606 0
M  V30 8410 H 756.288 0.126856 0.65177 0
M  V30 8411 H 758.818 0.984906 1.79334 0
M  V30 8412 H 758.828 0.111084 4.07849 0
M  V30 8413 H 757.503 1.25776 3.96425 0
M  V30 8414 H 756.08 -0.552719 3.68781 0
M  V30 8415 N 758.265 -1.50454 0.469181 0
M  V30 8416 C 759.49 -2.0722 -0.0864892 0
M  V30 8417 C 759.915 -1.33098 -1.32916 0
M  V30 8418 O 759.273 -0.378084 -1.77314 0
M  V30 8419 C 759.321 -3.58845 -0.355384 0
M  V30 8420 O 758.425 -3.86583 -1.43622 0
M  V30 8421 H 757.766 -0.663889 0.0121414 0
M  V30 8422 H 760.296 -1.93674 0.659674 0
M  V30 8423 H 760.306 -4.03617 -0.596447 0
M  V30 8424 H 758.981 -4.12211 0.552698 0
M  V30 8425 H 757.558 -3.5365 -1.18262 0
M  V30 8426 N 759.743 -0.201713 -1.56304 0
M  V30 8427 C 760.691 0.733133 -2.20744 0
M  V30 8428 C 761.685 1.2148 -1.18064 0
M  V30 8429 O 762.891 1.17692 -1.36193 0
M  V30 8430 H 759.266 0.254789 -0.707521 0
M  V30 8431 H 761.237 0.165996 -2.97938 0
M  V30 8432 C 759.986 1.93925 -2.88597 0
M  V30 8433 H 759.309 1.5777 -3.67353 0
M  V30 8434 H 760.749 2.57158 -3.37114 0
M  V30 8435 C 759.208 2.78219 -1.89989 0
M  V30 8436 O 759.738 3.76353 -1.40432 0
M  V30 8437 N 757.944 2.43847 -1.58072 0
M  V30 8438 H 757.491 1.64103 -1.98565 0
M  V30 8439 H 757.449 3.0053 -0.923524 0
M  V30 8440 N 761.222 1.57436 0.0718424 0
M  V30 8441 C 762.452 1.91196 0.782795 0
M  V30 8442 C 762.86 0.795927 1.71644 0
M  V30 8443 O 762.203 -0.239604 1.82131 0
M  V30 8444 C 762.265 3.20421 1.63005 0
M  V30 8445 C 761.929 4.48724 0.865782 0
M  V30 8446 C 762.926 5.19571 0.185051 0
M  V30 8447 C 760.611 4.95345 0.832971 0
M  V30 8448 C 762.605 6.3529 -0.518264 0
M  V30 8449 C 760.292 6.1097 0.125884 0
M  V30 8450 C 761.29 6.80794 -0.548533 0
M  V30 8451 O 760.978 7.94213 -1.24423 0
M  V30 8452 H 760.71 0.636486 0.227731 0
M  V30 8453 H 763.264 2.05348 0.0464187 0
M  V30 8454 H 761.494 3.02478 2.40923 0
M  V30 8455 H 763.183 3.39831 2.21968 0
M  V30 8456 H 763.949 4.8458 0.201707 0
M  V30 8457 H 759.828 4.40871 1.34737 0
M  V30 8458 H 763.372 6.89725 -1.04523 0
M  V30 8459 H 759.269 6.45411 0.107155 0
M  V30 8460 H 760.037 8.10331 -1.1535 0
M  V30 8461 N 762.7 -0.34323 1.53817 0
M  V30 8462 C 763.633 -1.44472 1.76644 0
M  V30 8463 C 764.611 -1.50498 0.615556 0
M  V30 8464 O 765.795 -1.6821 0.850751 0
M  V30 8465 C 762.922 -2.82705 1.86536 0
M  V30 8466 C 761.968 -2.94302 3.08688 0
M  V30 8467 S 762.801 -2.60739 4.67735 0
M  V30 8468 C 763.957 -4.01079 4.80506 0
M  V30 8469 H 764.19 -1.24893 2.69794 0
M  V30 8470 H 761.723 -0.538915 1.4469 0
M  V30 8471 H 763.681 -3.62342 1.92921 0
M  V30 8472 H 762.342 -2.9958 0.943975 0
M  V30 8473 H 761.535 -3.95593 3.12286 0
M  V30 8474 H 761.137 -2.22614 3.00531 0
M  V30 8475 H 763.429 -4.95603 4.61935 0
M  V30 8476 H 764.372 -4.02475 5.82597 0
M  V30 8477 H 764.78 -3.89119 4.08958 0
M  V30 8478 N 764.178 -1.45556 -0.604258 0
M  V30 8479 C 765.427 -1.49019 -1.35928 0
M  V30 8480 C 765.74 -0.137409 -1.95117 0
M  V30 8481 O 766.946 -0.0497032 -2.71455 0
M  V30 8482 C 765.402 -2.62477 -2.46239 0
M  V30 8483 C 765.01 -4.04082 -1.93447 0
M  V30 8484 C 766.754 -2.7519 -3.23219 0
M  V30 8485 C 764.661 -5.08917 -3.0126 0
M  V30 8486 H 763.591 -0.554518 -0.510907 0
M  V30 8487 H 766.242 -1.71705 -0.647262 0
M  V30 8488 H 764.624 -2.3308 -3.2014 0
M  V30 8489 H 765.798 -4.43173 -1.26232 0
M  V30 8490 H 764.113 -3.95849 -1.29201 0
M  V30 8491 H 766.71 -3.50683 -4.0364 0
M  V30 8492 H 767.053 -1.81941 -3.74437 0
M  V30 8493 H 767.586 -3.04129 -2.56418 0
M  V30 8494 H 764.325 -6.03886 -2.54955 0
M  V30 8495 H 763.845 -4.74393 -3.67031 0
M  V30 8496 H 765.524 -5.33814 -3.65584 0
M  V30 8497 N 765.656 0.84705 -1.32902 0
M  V30 8498 C 766.902 1.60414 -1.24078 0
M  V30 8499 C 767.235 1.93217 0.195105 0
M  V30 8500 O 766.51 1.58001 1.13428 0
M  V30 8501 C 766.793 2.91951 -2.108 0
M  V30 8502 C 766.646 2.6588 -3.62805 0
M  V30 8503 C 767.965 3.93299 -1.97494 0
M  V30 8504 H 765.084 0.58206 -0.452079 0
M  V30 8505 H 767.726 0.977562 -1.62922 0
M  V30 8506 H 765.876 3.45425 -1.77802 0
M  V30 8507 H 767.548 2.18902 -4.06054 0
M  V30 8508 H 765.791 1.99716 -3.85092 0
M  V30 8509 H 766.462 3.59574 -4.1882 0
M  V30 8510 H 768.938 3.49105 -2.26417 0
M  V30 8511 H 767.814 4.8318 -2.60438 0
M  V30 8512 H 768.075 4.31887 -0.944782 0
M  V30 8513 N 767.134 1.16236 1.06428 0
M  V30 8514 C 768.411 0.853294 1.76006 0
M  V30 8515 C 768.791 -0.649162 2.00871 0
M  V30 8516 O 768.139 -1.59653 1.63472 0
M  V30 8517 C 768.349 1.67448 3.06206 0
M  V30 8518 C 769.697 1.8866 3.80385 0
M  V30 8519 O 770.721 1.64303 3.16043 0
M  V30 8520 O 769.58 2.29518 4.95968 0
M  V30 8521 H 766.674 0.314737 0.764767 0
M  V30 8522 H 769.22 1.26865 1.12709 0
M  V30 8523 H 767.992 2.69411 2.83784 0
M  V30 8524 H 767.615 1.25608 3.77238 0
M  V30 8525 N 768.612 -1.24939 0.960631 0
M  V30 8526 C 769.861 -1.92118 0.614298 0
M  V30 8527 C 770.174 -1.75998 -0.853474 0
M  V30 8528 O 771.38 -2.37804 -1.31003 0
M  V30 8529 C 769.836 -3.44303 1.04801 0
M  V30 8530 C 769.444 -3.69123 2.53875 0
M  V30 8531 C 771.188 -4.17375 0.774497 0
M  V30 8532 C 769.095 -5.14843 2.91016 0
M  V30 8533 H 768.025 -0.719319 0.226045 0
M  V30 8534 H 770.676 -1.41701 1.16589 0
M  V30 8535 H 769.058 -3.93715 0.42479 0
M  V30 8536 H 770.232 -3.30339 3.21267 0
M  V30 8537 H 768.547 -3.09323 2.78762 0
M  V30 8538 H 771.144 -5.24723 1.02808 0
M  V30 8539 H 771.487 -4.15294 -0.289192 0
M  V30 8540 H 772.02 -3.7389 1.35835 0
M  V30 8541 H 768.759 -5.2204 3.96427 0
M  V30 8542 H 768.279 -5.54652 2.28302 0
M  V30 8543 H 769.958 -5.83017 2.80535 0
M  V30 8544 N 770.09 -0.729906 -1.39679 0
M  V30 8545 C 771.038 -0.0756589 -2.32477 0
M  V30 8546 C 772.032 0.731438 -1.52795 0
M  V30 8547 O 773.238 0.633195 -1.68495 0
M  V30 8548 H 769.613 -0.00566492 -0.751979 0
M  V30 8549 H 771.584 -0.874797 -2.85289 0
M  V30 8550 C 770.333 0.821313 -3.37861 0
M  V30 8551 H 769.656 0.209666 -3.9925 0
M  V30 8552 H 771.096 1.24679 -4.05254 0
M  V30 8553 C 769.555 1.9533 -2.74495 0
M  V30 8554 O 770.085 3.04548 -2.61942 0
M  V30 8555 N 768.291 1.74119 -2.3266 0
M  V30 8556 H 767.838 0.852908 -2.4307 0
M  V30 8557 H 767.796 2.50036 -1.90603 0
M  V30 8558 N 771.568 1.50203 -0.477153 0
M  V30 8559 C 772.478 2.32421 0.319027 0
M  V30 8560 C 773.494 1.43075 0.990233 0
M  V30 8561 O 774.67 1.76123 0.976873 0
M  V30 8562 C 771.735 3.17909 1.38328 0
M  V30 8563 C 770.796 4.23082 0.728036 0
M  V30 8564 C 770.029 5.04484 1.74158 0
M  V30 8565 O 770.252 4.8705 2.96881 0
M  V30 8566 O 769.186 5.8747 1.31006 0
M  V30 8567 H 773.012 3.01638 -0.353281 0
M  V30 8568 H 770.597 1.47478 -0.238891 0
M  V30 8569 H 772.479 3.70937 1.9996 0
M  V30 8570 H 771.154 2.51413 2.03895 0
M  V30 8571 H 770.061 3.7403 0.07261 0
M  V30 8572 H 771.394 4.92065 0.115216 0
M  V30 8573 N 773.046 0.209999 1.56195 0
M  V30 8574 C 774.462 -0.145598 1.58934 0
M  V30 8575 C 774.662 -1.59868 1.22656 0
M  V30 8576 O 773.718 -2.33689 0.956336 0
M  V30 8577 C 775.031 0.170243 3.00218 0
M  V30 8578 C 776.579 0.111548 3.12801 0
M  V30 8579 C 777.054 0.400904 4.56242 0
M  V30 8580 N 778.545 0.350058 4.61875 0
M  V30 8581 C 779.28 0.547598 5.70779 0
M  V30 8582 N 778.776 0.806291 6.88092 0
M  V30 8583 N 780.569 0.480827 5.6004 0
M  V30 8584 H 772.72 1.15804 1.78054 0
M  V30 8585 H 774.983 0.463326 0.827063 0
M  V30 8586 H 774.689 1.17833 3.31373 0
M  V30 8587 H 774.563 -0.520208 3.73596 0
M  V30 8588 H 776.95 -0.887162 2.81449 0
M  V30 8589 H 777.031 0.835302 2.41777 0
M  V30 8590 H 776.675 1.397 4.8831 0
M  V30 8591 H 776.605 -0.34391 5.25476 0
M  V30 8592 H 779.096 0.157334 3.77572 0
M  V30 8593 H 779.409 0.945433 7.66995 0
M  V30 8594 H 777.754 0.843355 6.89864 0
M  V30 8595 H 780.945 0.279037 4.67268 0
M  V30 8596 H 781.118 0.638189 6.4485 0
M  V30 8597 N 774.524 -1.57472 -0.0634922 0
M  V30 8598 C 775.935 -1.76303 -0.614337 0
M  V30 8599 C 776.286 -0.836578 -1.77471 0
M  V30 8600 O 775.411 -0.0227184 -2.16388 0
M  V30 8601 C 776.006 -3.19709 -1.12122 0
M  V30 8602 C 774.565 -3.39856 -1.61786 0
M  V30 8603 C 773.712 -2.71975 -0.540845 0
M  V30 8604 H 776.663 -1.57864 0.162702 0
M  V30 8605 H 776.684 -3.24326 -1.98979 0
M  V30 8606 H 776.196 -3.87114 -0.276472 0
M  V30 8607 H 774.297 -2.77578 -2.48558 0
M  V30 8608 H 774.41 -4.48338 -1.68908 0
M  V30 8609 H 772.774 -2.34763 -0.987854 0
M  V30 8610 H 773.557 -3.4204 0.293856 0
M  V30 8611 N 776.003 0.335068 -1.53997 0
M  V30 8612 C 776.966 1.39481 -1.81872 0
M  V30 8613 C 777.966 1.4524 -0.690078 0
M  V30 8614 O 779.156 1.45467 -0.958377 0
M  V30 8615 C 776.288 2.78329 -1.9684 0
M  V30 8616 H 777.481 1.16024 -2.76547 0
M  V30 8617 H 775.034 0.569926 -1.45539 0
M  V30 8618 H 775.769 3.07058 -1.04337 0
M  V30 8619 H 775.554 2.75544 -2.78958 0
M  V30 8620 H 777.044 3.55016 -2.19894 0
M  V30 8621 N 777.481 1.45874 0.596531 0
M  V30 8622 C 778.411 1.5824 1.71705 0
M  V30 8623 C 779.392 0.433366 1.64487 0
M  V30 8624 O 780.577 0.657895 1.82717 0
M  V30 8625 C 777.707 1.55927 3.10329 0
M  V30 8626 C 776.661 2.69659 3.32367 0
M  V30 8627 C 775.987 2.52403 4.71377 0
M  V30 8628 C 777.287 4.11591 3.21544 0
M  V30 8629 H 778.981 2.52035 1.61613 0
M  V30 8630 H 776.527 1.21297 0.776082 0
M  V30 8631 H 778.48 1.63173 3.88526 0
M  V30 8632 H 777.204 0.586674 3.21288 0
M  V30 8633 H 775.863 2.61859 2.56564 0
M  V30 8634 H 775.511 1.53258 4.79083 0
M  V30 8635 H 775.211 3.28679 4.87077 0
M  V30 8636 H 776.735 2.6152 5.5176 0
M  V30 8637 H 778.149 4.20576 3.89601 0
M  V30 8638 H 776.546 4.88344 3.4877 0
M  V30 8639 H 777.616 4.32719 2.1882 0
M  V30 8640 N 778.959 -0.83999 1.33349 0
M  V30 8641 C 780.236 -1.57973 1.15342 0
M  V30 8642 C 780.616 -2.09226 -0.280632 0
M  V30 8643 O 779.964 -1.89317 -1.2795 0
M  V30 8644 C 780.174 -2.71446 2.19359 0
M  V30 8645 C 781.522 -3.40654 2.53456 0
M  V30 8646 O 782.546 -2.81686 2.18017 0
M  V30 8647 O 781.405 -4.47101 3.14266 0
M  V30 8648 H 778.499 -0.6964 0.446044 0
M  V30 8649 H 781.045 -0.882843 1.44927 0
M  V30 8650 H 779.817 -2.31205 3.1569 0
M  V30 8651 H 779.44 -3.488 1.90852 0
M  V30 8652 N 780.437 -1.16799 -1.0581 0
M  V30 8653 C 781.385 -0.875111 -2.1551 0
M  V30 8654 C 782.379 0.157781 -1.68664 0
M  V30 8655 O 783.585 0.011297 -1.79996 0
M  V30 8656 H 779.96 -0.26542 -0.703602 0
M  V30 8657 H 781.931 -1.8076 -2.37421 0
M  V30 8658 C 780.68 -0.39802 -3.45414 0
M  V30 8659 H 780.003 -1.18425 -3.81858 0
M  V30 8660 H 781.443 -0.231913 -4.23365 0
M  V30 8661 C 779.902 0.88327 -3.25115 0
M  V30 8662 O 780.432 1.95145 -3.51114 0
M  V30 8663 N 778.638 0.828961 -2.78526 0
M  V30 8664 H 778.185 -0.0405029 -2.57568 0
M  V30 8665 H 778.143 1.68673 -2.65324 0
M  V30 8666 N 781.915 1.24427 -0.967243 0
M  V30 8667 C 782.825 2.29109 -0.504592 0
M  V30 8668 C 783.841 1.68495 0.434224 0
M  V30 8669 O 785.017 1.99041 0.307379 0
M  V30 8670 C 782.082 3.46133 0.198273 0
M  V30 8671 C 781.143 4.22149 -0.780313 0
M  V30 8672 C 780.376 5.33585 -0.110896 0
M  V30 8673 O 780.599 5.59676 1.10088 0
M  V30 8674 O 779.533 5.96522 -0.802823 0
M  V30 8675 H 783.359 2.708 -1.37482 0
M  V30 8676 H 780.944 1.30111 -0.73426 0
M  V30 8677 H 782.826 4.17205 0.593124 0
M  V30 8678 H 781.501 3.0642 1.04347 0
M  V30 8679 H 780.408 3.53454 -1.22561 0
M  V30 8680 H 781.741 4.65677 -1.59392 0
M  V30 8681 N 783.393 0.737304 1.3929 0
M  V30 8682 C 784.809 0.413132 1.5416 0
M  V30 8683 C 785.009 -1.07574 1.70382 0
M  V30 8684 O 784.065 -1.86185 1.70562 0
M  V30 8685 C 785.378 1.19817 2.75798 0
M  V30 8686 C 786.926 1.18662 2.89635 0
M  V30 8687 C 787.401 1.95427 4.14213 0
M  V30 8688 N 788.892 1.92605 4.21257 0
M  V30 8689 C 789.627 2.48808 5.16606 0
M  V30 8690 N 789.123 3.13659 6.1773 0
M  V30 8691 N 790.916 2.38829 5.08839 0
M  V30 8692 H 783.067 1.70243 1.27008 0
M  V30 8693 H 785.33 0.720802 0.61575 0
M  V30 8694 H 785.036 2.25179 2.70161 0
M  V30 8695 H 784.91 0.804144 3.68529 0
M  V30 8696 H 787.297 0.141112 2.94762 0
M  V30 8697 H 787.378 1.62003 1.97961 0
M  V30 8698 H 787.022 2.9998 4.09847 0
M  V30 8699 H 786.952 1.4949 5.04936 0
M  V30 8700 H 789.443 1.45362 3.48824 0
M  V30 8701 H 789.756 3.54006 6.8695 0
M  V30 8702 H 788.101 3.17749 6.1811 0
M  V30 8703 H 791.292 1.87806 4.28773 0
M  V30 8704 H 791.465 2.82929 5.82971 0
M  V30 8705 N 784.871 -1.49948 0.485112 0
M  V30 8706 C 785.801 -2.31675 -0.291364 0
M  V30 8707 C 786.782 -1.39216 -0.977383 0
M  V30 8708 O 787.967 -1.68133 -0.971855 0
M  V30 8709 C 785.097 -3.19326 -1.36558 0
M  V30 8710 C 784.051 -4.2045 -0.800359 0
M  V30 8711 C 783.377 -4.96931 -1.97391 0
M  V30 8712 C 784.677 -5.21925 0.197867 0
M  V30 8713 H 786.371 -2.96839 0.390775 0
M  V30 8714 H 783.917 -1.42749 0.189375 0
M  V30 8715 H 785.87 -3.75304 -1.91638 0
M  V30 8716 H 784.594 -2.52074 -2.07668 0
M  V30 8717 H 783.253 -3.65594 -0.271428 0
M  V30 8718 H 782.901 -4.26141 -2.67232 0
M  V30 8719 H 782.601 -5.65344 -1.60187 0
M  V30 8720 H 784.125 -5.55749 -2.52935 0
M  V30 8721 H 785.539 -5.72691 -0.264239 0
M  V30 8722 H 783.936 -5.98138 0.484908 0
M  V30 8723 H 785.006 -4.71809 1.11912 0
M  V30 8724 N 786.349 -0.21828 -1.56081 0
M  V30 8725 C 787.296 0.693189 -2.20144 0
M  V30 8726 C 788.266 1.19274 -1.15598 0
M  V30 8727 O 789.451 1.25243 -1.4394 0
M  V30 8728 C 786.591 1.89715 -2.88275 0
M  V30 8729 C 785.704 1.4368 -4.07407 0
M  V30 8730 C 784.839 2.59807 -4.63329 0
M  V30 8731 C 783.878 2.10492 -5.74769 0
M  V30 8732 N 783.015 3.1988 -6.24997 0
M  V30 8733 H 787.855 0.14016 -2.9767 0
M  V30 8734 H 785.392 0.0574292 -1.46988 0
M  V30 8735 H 787.35 2.60398 -3.25958 0
M  V30 8736 H 785.98 2.42311 -2.13273 0
M  V30 8737 H 785.032 0.625007 -3.7523 0
M  V30 8738 H 786.344 1.03517 -4.8794 0
M  V30 8739 H 785.498 3.38577 -5.03438 0
M  V30 8740 H 784.237 3.03256 -3.81951 0
M  V30 8741 H 783.242 1.30182 -5.34165 0
M  V30 8742 H 784.467 1.68045 -6.5798 0
M  V30 8743 H 782.413 3.62817 -5.46534 0
M  V30 8744 H 782.33 2.83958 -7.00645 0
M  V30 8745 H 783.598 3.98796 -6.69763 0
M  V30 8746 N 787.827 1.57504 0.0551401 0
M  V30 8747 C 789.073 1.89191 0.74688 0
M  V30 8748 C 789.428 0.813936 1.74335 0
M  V30 8749 O 788.721 -0.180217 1.90751 0
M  V30 8750 C 788.915 3.25311 1.48013 0
M  V30 8751 C 788.744 4.46247 0.556176 0
M  V30 8752 C 787.514 5.04954 0.186891 0
M  V30 8753 C 789.712 5.14068 -0.154295 0
M  V30 8754 N 787.694 6.09411 -0.741041 0
M  V30 8755 C 789.065 6.12851 -0.938809 0
M  V30 8756 C 791.12 4.97396 -0.224007 0
M  V30 8757 C 789.823 6.96759 -1.78658 0
M  V30 8758 C 791.849 5.81845 -1.05881 0
M  V30 8759 C 791.211 6.80178 -1.83133 0
M  V30 8760 H 787.31 0.741562 0.248213 0
M  V30 8761 H 789.894 1.94698 0.00777734 0
M  V30 8762 H 788.065 3.20781 2.18985 0
M  V30 8763 H 789.797 3.44594 2.12219 0
M  V30 8764 H 786.552 4.70472 0.543415 0
M  V30 8765 H 786.976 6.66303 -1.19874 0
M  V30 8766 H 791.618 4.21274 0.358924 0
M  V30 8767 H 789.336 7.72245 -2.38042 0
M  V30 8768 H 792.922 5.70997 -1.11595 0
M  V30 8769 H 791.802 7.44389 -2.46687 0
M  V30 8770 N 789.305 -0.326896 1.54172 0
M  V30 8771 C 790.721 -0.671034 1.44808 0
M  V30 8772 C 790.921 -1.91781 0.618258 0
M  V30 8773 O 789.977 -2.52235 0.115751 0
M  V30 8774 C 791.29 -0.848147 2.88491 0
M  V30 8775 C 792.838 -0.945702 2.98371 0
M  V30 8776 C 793.313 -1.15501 4.43197 0
M  V30 8777 N 794.804 -1.22183 4.46795 0
M  V30 8778 C 795.539 -1.4016 5.56006 0
M  V30 8779 N 795.035 -1.55202 6.75192 0
M  V30 8780 N 796.828 -1.42841 5.43648 0
M  V30 8781 H 788.979 0.49262 2.06608 0
M  V30 8782 H 791.242 0.158574 0.934643 0
M  V30 8783 H 790.948 -0.00329969 3.517 0
M  V30 8784 H 790.822 -1.74497 3.34411 0
M  V30 8785 H 793.209 -1.78106 2.35292 0
M  V30 8786 H 793.29 -0.0254215 2.55787 0
M  V30 8787 H 792.934 -0.324521 5.06862 0
M  V30 8788 H 792.864 -2.08911 4.83388 0
M  V30 8789 H 795.355 -1.12016 3.60917 0
M  V30 8790 H 795.668 -1.68601 7.54184 0
M  V30 8791 H 794.013 -1.52306 6.78106 0
M  V30 8792 H 797.204 -1.30683 4.49488 0
M  V30 8793 H 797.377 -1.56509 6.28816 0
M  V30 8794 N 790.784 -1.46188 -0.588786 0
M  V30 8795 C 792.033 -1.50452 -1.34339 0
M  V30 8796 C 792.346 -0.158096 -1.9496 0
M  V30 8797 O 793.552 -0.0784918 -2.71387 0
M  V30 8798 C 792.008 -2.65074 -2.43441 0
M  V30 8799 C 791.616 -4.06111 -1.8915 0
M  V30 8800 C 793.36 -2.78603 -3.20282 0
M  V30 8801 C 791.267 -5.12084 -2.95845 0
M  V30 8802 H 790.197 -0.559905 -0.504997 0
M  V30 8803 H 792.848 -1.72382 -0.629014 0
M  V30 8804 H 791.23 -2.36462 -3.1765 0
M  V30 8805 H 792.404 -4.44487 -1.21524 0
M  V30 8806 H 790.719 -3.97197 -1.24995 0
M  V30 8807 H 793.316 -3.54944 -3.99898 0
M  V30 8808 H 793.659 -1.85902 -3.72486 0
M  V30 8809 H 794.192 -3.06832 -2.53178 0
M  V30 8810 H 790.931 -6.06556 -2.48535 0
M  V30 8811 H 790.451 -4.78259 -3.61979 0
M  V30 8812 H 792.13 -5.37661 -3.59902 0
M  V30 8813 N 792.262 0.832906 -1.33792 0
M  V30 8814 C 793.194 1.95042 -1.2038 0
M  V30 8815 C 794.207 1.62253 -0.133299 0
M  V30 8816 O 795.396 1.74315 -0.384261 0
M  V30 8817 C 792.496 3.287 -0.825215 0
M  V30 8818 C 791.669 3.89581 -1.98861 0
M  V30 8819 C 790.728 5.01602 -1.59003 0
M  V30 8820 O 789.754 5.20431 -2.30522 0
M  V30 8821 N 790.956 5.78356 -0.498446 0
M  V30 8822 H 793.721 2.07083 -2.16649 0
M  V30 8823 H 791.282 1.00896 -1.26616 0
M  V30 8824 H 793.274 4.01074 -0.540559 0
M  V30 8825 H 791.844 3.12565 0.0469796 0
M  V30 8826 H 791.064 3.09723 -2.43856 0
M  V30 8827 H 792.352 4.26989 -2.76691 0
M  V30 8828 H 791.75 5.65618 0.0963297 0
M  V30 8829 H 790.307 6.51226 -0.273485 0
M  V30 8830 N 793.74 1.17359 1.05189 0
M  V30 8831 C 794.67 0.91365 2.14883 0
M  V30 8832 C 795.651 -0.144365 1.69486 0
M  V30 8833 O 796.836 0.00587861 1.94199 0
M  V30 8834 C 793.966 0.426196 3.44675 0
M  V30 8835 C 792.92 1.4234 4.03638 0
M  V30 8836 C 792.246 0.793902 5.28773 0
M  V30 8837 C 793.546 2.7966 4.41121 0
M  V30 8838 H 795.24 1.831 2.36885 0
M  V30 8839 H 792.786 0.881781 1.13845 0
M  V30 8840 H 794.739 0.231767 4.20762 0
M  V30 8841 H 793.463 -0.526693 3.22325 0
M  V30 8842 H 792.122 1.60457 3.2962 0
M  V30 8843 H 791.77 -0.165824 5.02727 0
M  V30 8844 H 791.47 1.45959 5.69183 0
M  V30 8845 H 792.994 0.609747 6.07548 0
M  V30 8846 H 794.408 2.6526 5.08242 0
M  V30 8847 H 792.805 3.42807 4.92548 0
M  V30 8848 H 793.875 3.34068 3.51464 0
M  V30 8849 N 795.218 -1.23913 0.973828 0
M  V30 8850 C 796.443 -1.96735 0.656511 0
M  V30 8851 C 796.868 -1.71682 -0.768571 0
M  V30 8852 O 796.226 -0.984267 -1.52256 0
M  V30 8853 C 796.274 -3.48004 0.944735 0
M  V30 8854 O 795.378 -4.12387 0.0333357 0
M  V30 8855 H 794.719 -0.616119 0.247575 0
M  V30 8856 H 797.249 -1.57525 1.30564 0
M  V30 8857 H 797.259 -3.98424 0.87876 0
M  V30 8858 H 795.934 -3.65567 1.98328 0
M  V30 8859 H 794.511 -3.72585 0.153157 0
M  V30 8860 N 796.696 -0.74468 -1.38897 0
M  V30 8861 C 798.107 -0.36568 -1.83084 0
M  V30 8862 C 798.458 1.10436 -1.62168 0
M  V30 8863 O 797.583 1.85281 -1.11804 0
M  V30 8864 C 798.178 -0.656946 -3.3237 0
M  V30 8865 C 796.737 -0.331329 -3.74939 0
M  V30 8866 C 795.884 -0.914661 -2.61781 0
M  V30 8867 H 798.835 -0.941551 -1.27752 0
M  V30 8868 H 798.856 0.0679546 -3.80439 0
M  V30 8869 H 798.368 -1.72693 -3.47561 0
M  V30 8870 H 796.469 0.732426 -3.6533 0
M  V30 8871 H 796.582 -0.820655 -4.72019 0
M  V30 8872 H 794.946 -0.34063 -2.52412 0
M  V30 8873 H 795.729 -1.98949 -2.79775 0
M  V30 8874 N 798.174 1.49689 -0.493057 0
M  V30 8875 C 799.451 1.9525 0.116907 0
M  V30 8876 C 799.831 1.43429 1.54892 0
M  V30 8877 O 799.179 0.644621 2.19219 0
M  V30 8878 C 799.389 3.4898 0.037705 0
M  V30 8879 C 800.737 4.24052 0.215621 0
M  V30 8880 O 801.761 3.5602 0.113266 0
M  V30 8881 O 800.62 5.44847 0.42477 0
M  V30 8882 H 797.714 0.820973 0.099662 0
M  V30 8883 H 800.26 1.60367 -0.555029 0
M  V30 8884 H 799.032 3.79309 -0.961251 0
M  V30 8885 H 798.655 3.9046 0.750137 0
M  V30 8886 N 799.652 0.226554 1.55963 0
M  V30 8887 C 800.88 -0.408507 2.02827 0
M  V30 8888 C 801.295 -1.52994 1.10627 0
M  V30 8889 O 800.652 -1.82126 0.116809 0
M  V30 8890 C 800.703 -0.93545 3.49187 0
M  V30 8891 O 800.424 0.141273 4.37872 0
M  V30 8892 C 801.925 -1.64325 4.11719 0
M  V30 8893 H 799.145 -0.099442 0.66359 0
M  V30 8894 H 801.689 0.344471 2.01578 0
M  V30 8895 H 799.844 -1.63868 3.51036 0
M  V30 8896 H 800.258 -0.25558 5.23877 0
M  V30 8897 H 801.732 -1.9639 5.15883 0
M  V30 8898 H 802.209 -2.55815 3.57009 0
M  V30 8899 H 802.815 -0.9851 4.13734 0
M  V30 8900 N 801.13 -1.57531 -0.0467866 0
M  V30 8901 C 802.546 -1.54451 -0.402107 0
M  V30 8902 C 802.746 -0.950275 -1.77685 0
M  V30 8903 O 801.802 -0.563602 -2.4613 0
M  V30 8904 C 803.115 -2.9899 -0.320212 0
M  V30 8905 C 804.663 -3.10452 -0.398588 0
M  V30 8906 C 805.138 -4.56689 -0.346335 0
M  V30 8907 N 806.629 -4.6142 -0.405666 0
M  V30 8908 C 807.364 -5.72087 -0.387845 0
M  V30 8909 N 806.86 -6.92045 -0.32336 0
M  V30 8910 N 808.653 -5.60404 -0.436263 0
M  V30 8911 H 800.804 -1.94515 0.853087 0
M  V30 8912 H 803.067 -0.891397 0.322669 0
M  V30 8913 H 802.773 -3.46124 0.623794 0
M  V30 8914 H 802.647 -3.60164 -1.1208 0
M  V30 8915 H 805.034 -2.63276 -1.33302 0
M  V30 8916 H 805.115 -2.52142 0.431026 0
M  V30 8917 H 804.759 -5.04527 0.584356 0
M  V30 8918 H 804.689 -5.12889 -1.19382 0
M  V30 8919 H 807.18 -3.75105 -0.458737 0
M  V30 8920 H 807.493 -7.7216 -0.314375 0
M  V30 8921 H 805.838 -6.94396 -0.28967 0
M  V30 8922 H 809.029 -4.65586 -0.48451 0
M  V30 8923 H 809.202 -6.46645 -0.418907 0
M  V30 8924 N 802.608 0.318715 -1.54344 0
M  V30 8925 C 803.571 1.37545 -1.83342 0
M  V30 8926 C 804.571 1.445 -0.705444 0
M  V30 8927 O 805.761 1.44443 -0.973752 0
M  V30 8928 C 802.893 2.76225 -1.99781 0
M  V30 8929 H 804.086 1.13084 -2.77762 0
M  V30 8930 H 801.639 0.554457 -1.46135 0
M  V30 8931 H 802.374 3.05934 -1.07588 0
M  V30 8932 H 802.159 2.7257 -2.81865 0
M  V30 8933 H 803.649 3.52664 -2.23647 0
M  V30 8934 N 804.086 1.46499 0.581025 0
M  V30 8935 C 805.334 1.51596 1.33653 0
M  V30 8936 C 805.655 0.169859 1.94259 0
M  V30 8937 O 804.925 -0.803776 1.78651 0
M  V30 8938 H 803.505 0.558346 0.496244 0
M  V30 8939 H 806.167 1.8264 0.680338 0
M  V30 8940 H 805.263 2.26956 2.14237 0
M  V30 8941 N 805.565 -0.825799 1.34232 0
M  V30 8942 C 806.795 -1.61129 1.29309 0
M  V30 8943 C 807.203 -1.88714 -0.135589 0
M  V30 8944 O 806.546 -1.47703 -1.09222 0
M  V30 8945 C 806.608 -2.97866 2.01287 0
M  V30 8946 C 806.272 -2.9319 3.50555 0
M  V30 8947 C 807.269 -2.67978 4.45515 0
M  V30 8948 C 804.954 -3.12913 3.92926 0
M  V30 8949 C 806.948 -2.62536 5.80822 0
M  V30 8950 C 804.635 -3.07096 5.28333 0
M  V30 8951 C 805.633 -2.8194 6.22092 0
M  V30 8952 O 805.321 -2.7605 7.55018 0
M  V30 8953 H 805.053 -0.507652 0.446391 0
M  V30 8954 H 807.607 -1.03575 1.77374 0
M  V30 8955 H 805.837 -3.57327 1.47832 0
M  V30 8956 H 807.526 -3.58848 1.89691 0
M  V30 8957 H 808.292 -2.52478 4.14101 0
M  V30 8958 H 804.171 -3.3151 3.20347 0
M  V30 8959 H 807.715 -2.42821 6.53975 0
M  V30 8960 H 803.612 -3.22148 5.59367 0
M  V30 8961 H 804.38 -2.91798 7.6472 0
M  V30 8962 N 807.043 -1.17915 -1.04565 0
M  V30 8963 C 807.973 -0.925033 -2.14395 0
M  V30 8964 C 808.954 0.135375 -1.6956 0
M  V30 8965 O 810.139 -0.0161774 -1.94193 0
M  V30 8966 C 807.269 -0.444469 -3.44444 0
M  V30 8967 C 806.223 -1.44478 -4.02877 0
M  V30 8968 C 805.549 -0.821933 -5.28345 0
M  V30 8969 C 806.849 -2.81995 -4.39632 0
M  V30 8970 H 808.543 -1.84354 -2.35911 0
M  V30 8971 H 806.089 -0.887806 -1.13375 0
M  V30 8972 H 808.042 -0.254078 -4.20633 0
M  V30 8973 H 806.766 0.509592 -3.226 0
M  V30 8974 H 805.425 -1.62203 -3.28764 0
M  V30 8975 H 805.073 0.139161 -5.02807 0
M  V30 8976 H 804.773 -1.48976 -5.68401 0
M  V30 8977 H 806.297 -0.641959 -6.07216 0
M  V30 8978 H 807.711 -2.67952 -5.06828 0
M  V30 8979 H 806.108 -3.45414 -4.90723 0
M  V30 8980 H 807.178 -3.35927 -3.49687 0
M  V30 8981 N 808.521 1.23394 -0.980386 0
M  V30 8982 C 809.431 2.28561 -0.528864 0
M  V30 8983 C 810.447 1.68946 0.416329 0
M  V30 8984 O 811.623 1.99355 0.286251 0
M  V30 8985 C 808.688 3.46323 0.16155 0
M  V30 8986 C 807.749 4.21297 -0.825044 0
M  V30 8987 C 806.982 5.33437 -0.167483 0
M  V30 8988 O 807.205 5.60812 1.04146 0
M  V30 8989 O 806.139 5.95637 -0.866047 0
M  V30 8990 H 809.965 2.69326 -1.40346 0
M  V30 8991 H 807.55 1.29325 -0.748019 0
M  V30 8992 H 809.432 4.17811 0.548841 0
M  V30 8993 H 808.107 3.0751 1.01092 0
M  V30 8994 H 807.014 3.52134 -1.26303 0
M  V30 8995 H 808.347 4.6396 -1.64322 0
M  V30 8996 N 809.999 0.752036 1.385 0
M  V30 8997 C 810.947 0.112634 2.32327 0
M  V30 8998 C 811.941 -0.707037 1.53939 0
M  V30 8999 O 813.147 -0.606309 1.69481 0
M  V30 9000 H 809.522 0.0176275 0.751793 0
M  V30 9001 H 811.493 0.920074 2.83861 0
M  V30 9002 C 810.242 -0.767458 3.39124 0
M  V30 9003 H 809.565 -0.146122 3.99533 0
M  V30 9004 H 811.005 -1.18216 4.07187 0
M  V30 9005 C 809.464 -1.90938 2.77568 0
M  V30 9006 O 809.994 -3.00342 2.66754 0
M  V30 9007 N 808.2 -1.70396 2.35401 0
M  V30 9008 H 807.747 -0.81413 2.44397 0
M  V30 9009 H 807.705 -2.46972 1.94557 0
M  V30 9010 N 811.477 -1.49425 0.500989 0
M  V30 9011 C 812.725 -2.02053 -0.0434495 0
M  V30 9012 C 813.046 -1.38285 -1.37486 0
M  V30 9013 O 812.316 -0.538171 -1.88363 0
M  V30 9014 H 810.896 -0.746757 -0.0190469 0
M  V30 9015 H 813.558 -1.83449 0.658227 0
M  V30 9016 H 812.654 -3.11619 -0.173129 0
M  V30 9017 N 812.955 -0.234822 -1.55841 0
M  V30 9018 C 813.902 0.6698 -2.20867 0
M  V30 9019 C 814.872 1.18042 -1.16856 0
M  V30 9020 O 816.057 1.23709 -1.45261 0
M  V30 9021 C 813.197 1.86646 -2.90271 0
M  V30 9022 C 812.31 1.39351 -4.08908 0
M  V30 9023 C 811.445 2.54878 -4.66059 0
M  V30 9024 C 810.484 2.04384 -5.76969 0
M  V30 9025 N 809.621 3.13233 -6.28355 0
M  V30 9026 H 814.461 0.10858 -2.97802 0
M  V30 9027 H 811.998 0.041836 -1.4704 0
M  V30 9028 H 813.956 2.56926 -3.28702 0
M  V30 9029 H 812.586 2.40035 -2.15831 0
M  V30 9030 H 811.638 0.585173 -3.75872 0
M  V30 9031 H 812.95 0.983356 -4.89011 0
M  V30 9032 H 812.104 3.33219 -5.07001 0
M  V30 9033 H 810.843 2.99188 -3.85146 0
M  V30 9034 H 809.848 1.24509 -5.35516 0
M  V30 9035 H 811.073 1.61057 -6.59725 0
M  V30 9036 H 809.019 3.57 -5.50352 0
M  V30 9037 H 808.936 2.76511 -7.03618 0
M  V30 9038 H 810.204 3.91669 -6.73955 0
M  V30 9039 N 814.433 1.57553 0.0384317 0
M  V30 9040 C 815.363 2.0898 1.04161 0
M  V30 9041 C 816.344 0.99029 1.38301 0
M  V30 9042 O 817.529 1.26499 1.47349 0
M  V30 9043 C 814.659 2.56145 2.34536 0
M  V30 9044 C 813.613 3.70275 2.14663 0
M  V30 9045 C 812.939 4.03612 3.50715 0
M  V30 9046 C 814.239 4.99067 1.54045 0
M  V30 9047 H 815.933 2.93046 0.613548 0
M  V30 9048 H 813.479 1.40973 0.293684 0
M  V30 9049 H 815.432 2.90741 3.05037 0
M  V30 9050 H 814.156 1.6915 2.79385 0
M  V30 9051 H 812.815 3.36013 1.46597 0
M  V30 9052 H 812.463 3.13698 3.93195 0
M  V30 9053 H 812.163 4.80482 3.38247 0
M  V30 9054 H 813.687 4.40735 4.22593 0
M  V30 9055 H 815.101 5.3168 2.14451 0
M  V30 9056 H 813.498 5.80484 1.52178 0
M  V30 9057 H 814.568 4.8226 0.505259 0
M  V30 9058 N 815.911 -0.310526 1.54511 0
M  V30 9059 C 817.16 -1.0445 1.72549 0
M  V30 9060 C 817.473 -1.88748 0.513172 0
M  V30 9061 O 818.679 -2.65338 0.575165 0
M  V30 9062 C 817.135 -1.90665 3.05246 0
M  V30 9063 C 816.743 -1.11415 4.33925 0
M  V30 9064 C 818.487 -2.63719 3.32645 0
M  V30 9065 C 816.394 -1.96852 5.57677 0
M  V30 9066 H 815.324 -0.393676 0.643067 0
M  V30 9067 H 817.975 -0.302003 1.80998 0
M  V30 9068 H 816.357 -2.68864 2.90737 0
M  V30 9069 H 817.531 -0.378956 4.59239 0
M  V30 9070 H 815.846 -0.499853 4.13389 0
M  V30 9071 H 818.443 -3.27974 4.223 0
M  V30 9072 H 818.786 -3.32047 2.51098 0
M  V30 9073 H 819.319 -1.92574 3.48081 0
M  V30 9074 H 816.058 -1.33009 6.41864 0
M  V30 9075 H 815.578 -2.68069 5.36562 0
M  V30 9076 H 817.257 -2.55127 5.94575 0
M  V30 9077 N 817.389 -1.46805 -0.573248 0
M  V30 9078 C 818.319 -1.60951 -1.69165 0
M  V30 9079 C 819.3 -0.45948 -1.63777 0
M  V30 9080 O 820.485 -0.68688 -1.81647 0
M  V30 9081 C 817.615 -1.60844 -3.07809 0
M  V30 9082 C 816.569 -2.74913 -3.28035 0
M  V30 9083 C 815.895 -2.59871 -4.67302 0
M  V30 9084 C 817.195 -4.16654 -3.14955 0
M  V30 9085 H 818.889 -2.54574 -1.57582 0
M  V30 9086 H 816.435 -1.22516 -0.756686 0
M  V30 9087 H 818.388 -1.69334 -3.85881 0
M  V30 9088 H 817.112 -0.637714 -3.20314 0
M  V30 9089 H 815.771 -2.65908 -2.52366 0
M  V30 9090 H 815.419 -1.60861 -4.76585 0
M  V30 9091 H 815.119 -3.36386 -4.81786 0
M  V30 9092 H 816.643 -2.70265 -5.4753 0
M  V30 9093 H 818.057 -4.26721 -3.82861 0
M  V30 9094 H 816.454 -4.93831 -3.40956 0
M  V30 9095 H 817.524 -4.36146 -2.11908 0
M  V30 9096 N 818.867 0.818669 -1.34668 0
M  V30 9097 C 819.799 1.93754 -1.22442 0
M  V30 9098 C 820.812 1.62103 -0.150501 0
M  V30 9099 O 822.001 1.73898 -0.402728 0
M  V30 9100 C 819.101 3.27806 -0.860031 0
M  V30 9101 C 818.274 3.8745 -2.02981 0
M  V30 9102 C 817.333 4.99887 -1.64314 0
M  V30 9103 O 816.359 5.17957 -2.36029 0
M  V30 9104 N 817.561 5.77795 -0.55976 0
M  V30 9105 H 820.326 2.04773 -2.18833 0
M  V30 9106 H 817.887 0.995472 -1.27679 0
M  V30 9107 H 819.879 4.00478 -0.583068 0
M  V30 9108 H 818.449 3.12597 0.0138253 0
M  V30 9109 H 817.669 3.07119 -2.47127 0
M  V30 9110 H 818.957 4.2403 -2.81204 0
M  V30 9111 H 818.355 5.65688 0.0363329 0
M  V30 9112 H 816.912 6.50899 -0.342541 0
M  V30 9113 N 820.346 1.18468 1.03938 0
M  V30 9114 C 821.762 0.934635 1.29371 0
M  V30 9115 C 821.962 -0.399067 1.97509 0
M  V30 9116 O 821.018 -1.13309 2.25648 0
M  V30 9117 C 822.331 2.10111 2.15114 0
M  V30 9118 C 823.879 2.13955 2.28456 0
M  V30 9119 C 824.354 3.30024 3.17566 0
M  V30 9120 N 825.845 3.29893 3.25153 0
M  V30 9121 C 826.58 4.16346 3.94263 0
M  V30 9122 N 826.076 5.12934 4.65693 0
M  V30 9123 N 827.869 4.04256 3.90556 0
M  V30 9124 H 820.02 2.04294 0.581185 0
M  V30 9125 H 822.283 0.892727 0.318971 0
M  V30 9126 H 821.989 3.06572 1.72355 0
M  V30 9127 H 821.863 2.06283 3.15796 0
M  V30 9128 H 824.25 1.18072 2.7045 0
M  V30 9129 H 824.331 2.2184 1.2736 0
M  V30 9130 H 823.975 4.26181 2.76283 0
M  V30 9131 H 823.905 3.19376 4.18697 0
M  V30 9132 H 826.396 2.59969 2.74271 0
M  V30 9133 H 826.709 5.75271 5.16026 0
M  V30 9134 H 825.054 5.16893 4.64593 0
M  V30 9135 H 828.245 3.28083 3.33885 0
M  V30 9136 H 828.418 4.71848 4.44144 0
M  V30 9137 N 821.824 -1.22873 0.986916 0
M  V30 9138 C 822.772 -2.26597 0.525043 0
M  V30 9139 C 823.766 -1.64079 -0.421252 0
M  V30 9140 O 824.972 -1.77576 -0.294429 0
M  V30 9141 H 821.347 -0.736606 0.151381 0
M  V30 9142 H 823.318 -2.62909 1.41142 0
M  V30 9143 C 822.067 -3.47374 -0.150542 0
M  V30 9144 H 821.39 -3.95737 0.568541 0
M  V30 9145 H 822.83 -4.21739 -0.437256 0
M  V30 9146 C 821.289 -3.07163 -1.38392 0
M  V30 9147 O 821.819 -3.16028 -2.47971 0
M  V30 9148 N 820.025 -2.62009 -1.25697 0
M  V30 9149 H 819.572 -2.54996 -0.365355 0
M  V30 9150 H 819.53 -2.35472 -2.08327 0
M  V30 9151 N 823.302 -0.75937 -1.38099 0
M  V30 9152 C 824.551 -0.314864 -1.99227 0
M  V30 9153 C 824.864 1.1113 -1.60964 0
M  V30 9154 O 826.07 1.65657 -2.15105 0
M  V30 9155 C 824.526 -0.512001 -3.56239 0
M  V30 9156 C 824.134 -1.94762 -4.0345 0
M  V30 9157 C 825.878 -0.130497 -4.24299 0
M  V30 9158 C 823.785 -2.09301 -5.53125 0
M  V30 9159 H 822.715 -0.113978 -0.745335 0
M  V30 9160 H 825.366 -0.936736 -1.57789 0
M  V30 9161 H 823.748 0.179144 -3.95595 0
M  V30 9162 H 824.922 -2.67271 -3.75371 0
M  V30 9163 H 823.237 -2.28457 -3.48133 0
M  V30 9164 H 825.834 -0.21781 -5.34256 0
M  V30 9165 H 826.177 0.917644 -4.0606 0
M  V30 9166 H 826.71 -0.773716 -3.90203 0
M  V30 9167 H 823.449 -3.1239 -5.76275 0
M  V30 9168 H 822.969 -1.41261 -5.82928 0
M  V30 9169 H 824.648 -1.88571 -6.1891 0
M  V30 9170 N 824.78 1.49157 -0.508906 0
M  V30 9171 C 826.028 2.02073 0.0327335 0
M  V30 9172 C 826.349 1.39012 1.3675 0
M  V30 9173 O 825.619 0.548153 1.88075 0
M  V30 9174 H 824.199 0.746848 0.0150864 0
M  V30 9175 H 826.861 1.83097 -0.667946 0
M  V30 9176 H 825.957 3.11707 0.1566 0
M  V30 9177 N 826.258 0.243083 1.55714 0
M  V30 9178 C 827.188 -0.652336 2.24203 0
M  V30 9179 C 828.169 -1.1843 1.221 0
M  V30 9180 O 829.354 -1.22435 1.50743 0
M  V30 9181 C 826.484 -1.85111 2.93856 0
M  V30 9182 C 825.438 -1.45208 4.02615 0
M  V30 9183 C 824.764 -2.73137 4.59674 0
M  V30 9184 C 826.064 -0.625988 5.18535 0
M  V30 9185 H 827.758 -0.0812504 2.9929 0
M  V30 9186 H 825.304 -0.0376388 1.43951 0
M  V30 9187 H 827.257 -2.48314 3.40468 0
M  V30 9188 H 825.981 -2.44751 2.16251 0
M  V30 9189 H 824.64 -0.843406 3.56766 0
M  V30 9190 H 824.288 -3.30967 3.78774 0
M  V30 9191 H 823.988 -2.47163 5.33089 0
M  V30 9192 H 825.512 -3.37245 5.09017 0
M  V30 9193 H 826.926 -1.16223 5.61396 0
M  V30 9194 H 825.323 -0.462465 5.98315 0
M  V30 9195 H 826.393 0.362652 4.83542 0
M  V30 9196 N 827.736 -1.57571 -0.0300757 0
M  V30 9197 C 828.646 -2.09892 -1.04798 0
M  V30 9198 C 829.662 -1.03732 -1.39698 0
M  V30 9199 O 830.838 -1.35461 -1.49038 0
M  V30 9200 C 827.903 -2.56707 -2.33028 0
M  V30 9201 C 826.964 -3.77345 -2.04718 0
M  V30 9202 C 826.197 -4.21918 -3.26834 0
M  V30 9203 O 826.42 -3.66025 -4.37472 0
M  V30 9204 O 825.354 -5.14362 -3.12594 0
M  V30 9205 H 829.18 -2.97023 -0.633344 0
M  V30 9206 H 826.765 -1.47344 -0.246991 0
M  V30 9207 H 828.647 -2.87154 -3.08417 0
M  V30 9208 H 827.322 -1.72688 -2.73789 0
M  V30 9209 H 826.229 -3.51919 -1.26901 0
M  V30 9210 H 827.562 -4.62345 -1.68813 0
M  V30 9211 N 829.214 0.302327 -1.54673 0
M  V30 9212 C 830.463 1.03533 -1.73101 0
M  V30 9213 C 830.776 1.88473 -0.523174 0
M  V30 9214 O 831.982 2.65029 -0.589229 0
M  V30 9215 C 830.438 1.89043 -3.06252 0
M  V30 9216 C 830.046 1.09112 -4.3451 0
M  V30 9217 C 831.79 2.61951 -3.34039 0
M  V30 9218 C 829.697 1.93891 -5.58713 0
M  V30 9219 H 828.627 0.390261 -0.645145 0
M  V30 9220 H 831.278 0.2924 -1.81155 0
M  V30 9221 H 829.66 2.67319 -2.92159 0
M  V30 9222 H 830.834 0.354596 -4.59434 0
M  V30 9223 H 829.149 0.477923 -4.13648 0
M  V30 9224 H 831.746 3.25729 -4.24033 0
M  V30 9225 H 832.089 3.30711 -2.52855 0
M  V30 9226 H 832.622 1.90725 -3.49097 0
M  V30 9227 H 829.361 1.29604 -6.4256 0
M  V30 9228 H 828.881 2.6522 -5.37976 0
M  V30 9229 H 830.56 2.51971 -5.95919 0
M  V30 9230 N 830.692 1.47107 0.565454 0
M  V30 9231 C 831.639 1.58974 1.6732 0
M  V30 9232 C 832.609 0.433146 1.60353 0
M  V30 9233 O 833.794 0.652141 1.79309 0
M  V30 9234 C 830.934 1.60224 3.05651 0
M  V30 9235 C 830.047 2.86741 3.23116 0
M  V30 9236 C 829.182 2.79381 4.51796 0
M  V30 9237 C 828.221 4.0076 4.62664 0
M  V30 9238 N 827.358 3.91685 5.8269 0
M  V30 9239 H 832.198 2.53588 1.56515 0
M  V30 9240 H 829.735 1.25791 0.762558 0
M  V30 9241 H 831.693 1.58933 3.85741 0
M  V30 9242 H 830.323 0.691285 3.15311 0
M  V30 9243 H 829.375 2.97936 2.36513 0
M  V30 9244 H 830.687 3.7665 3.27011 0
M  V30 9245 H 829.841 2.76293 5.40136 0
M  V30 9246 H 828.58 1.87142 4.50366 0
M  V30 9247 H 827.585 4.04162 3.72738 0
M  V30 9248 H 828.81 4.94117 4.6586 0
M  V30 9249 H 826.756 3.02243 5.82224 0
M  V30 9250 H 826.673 4.75264 5.87929 0
M  V30 9251 H 827.941 3.92599 6.73414 0
M  V30 9252 N 832.17 -0.811516 1.35101 0
M  V30 9253 C 833.447 -1.55491 1.18667 0
M  V30 9254 C 833.827 -2.09775 -0.236189 0
M  V30 9255 O 833.175 -1.91989 -1.23905 0
M  V30 9256 C 833.385 -2.66732 2.25067 0
M  V30 9257 C 834.733 -3.35201 2.60625 0
M  V30 9258 O 835.757 -2.76998 2.23943 0
M  V30 9259 O 834.616 -4.40334 3.23679 0
M  V30 9260 H 831.71 -0.686783 0.460716 0
M  V30 9261 H 834.256 -0.851903 1.46768 0
M  V30 9262 H 833.028 -2.24457 3.20523 0
M  V30 9263 H 832.651 -3.44673 1.98208 0
M  V30 9264 N 833.648 -1.19017 -1.03309 0
M  V30 9265 C 834.894 -0.991681 -1.769 0
M  V30 9266 C 835.227 0.476813 -1.88255 0
M  V30 9267 O 834.502 1.35407 -1.39625 0
M  V30 9268 C 834.785 -1.65627 -3.19749 0
M  V30 9269 C 834.638 -3.19813 -3.1629 0
M  V30 9270 C 835.957 -1.37579 -4.18043 0
M  V30 9271 H 833.076 -0.361674 -0.642153 0
M  V30 9272 H 835.718 -1.46795 -1.20628 0
M  V30 9273 H 833.868 -1.25132 -3.67796 0
M  V30 9274 H 835.54 -3.69494 -2.76174 0
M  V30 9275 H 833.783 -3.51578 -2.54117 0
M  V30 9276 H 834.454 -3.61457 -4.17196 0
M  V30 9277 H 836.93 -1.72679 -3.78578 0
M  V30 9278 H 835.806 -1.86636 -5.16196 0
M  V30 9279 H 836.067 -0.300118 -4.4108 0
M  V30 9280 N 835.127 1.22348 -0.993418 0
M  V30 9281 C 836.059 2.23626 -0.502404 0
M  V30 9282 C 837.072 1.57739 0.402784 0
M  V30 9283 O 838.261 1.77321 0.204835 0
M  V30 9284 C 835.361 3.37647 0.291118 0
M  V30 9285 C 834.534 4.33121 -0.610332 0
M  V30 9286 C 833.593 5.26035 0.131572 0
M  V30 9287 O 832.619 5.67145 -0.483199 0
M  V30 9288 N 833.821 5.63023 1.41371 0
M  V30 9289 H 836.586 2.66385 -1.37329 0
M  V30 9290 H 834.147 1.36653 -0.868196 0
M  V30 9291 H 836.139 3.96792 0.796107 0
M  V30 9292 H 834.709 2.93967 1.0631 0
M  V30 9293 H 833.929 3.72287 -1.29598 0
M  V30 9294 H 835.217 4.93853 -1.22422 0
M  V30 9295 H 834.615 5.31596 1.93449 0
M  V30 9296 H 833.172 6.24582 1.86388 0
M  V30 9297 N 836.605 0.766683 1.37694 0
M  V30 9298 C 837.854 0.325425 1.99057 0
M  V30 9299 C 838.167 -1.10275 1.61551 0
M  V30 9300 O 839.373 -1.64513 2.1598 0
M  V30 9301 C 837.829 0.530886 3.55963 0
M  V30 9302 C 837.437 1.96899 4.02411 0
M  V30 9303 C 839.181 0.152997 4.24224 0
M  V30 9304 C 837.088 2.12232 5.52007 0
M  V30 9305 H 836.018 0.117929 0.744721 0
M  V30 9306 H 838.669 0.945091 1.5729 0
M  V30 9307 H 837.051 -0.158162 3.95684 0
M  V30 9308 H 838.225 2.69258 3.73948 0
M  V30 9309 H 836.54 2.303 3.46916 0
M  V30 9310 H 839.137 0.24614 5.34133 0
M  V30 9311 H 839.48 -0.896096 4.06541 0
M  V30 9312 H 840.013 0.794398 3.89787 0
M  V30 9313 H 836.752 3.15442 5.7461 0
M  V30 9314 H 836.272 1.4435 5.82171 0
M  V30 9315 H 837.951 1.9185 6.17902 0
M  V30 9316 N 838.083 -1.48885 0.516809 0
M  V30 9317 C 839.332 -2.01686 -0.0239899 0
M  V30 9318 C 839.645 -1.40029 -1.3657 0
M  V30 9319 O 840.851 -1.84249 -1.9941 0
M  V30 9320 C 839.307 -3.59779 -0.0931825 0
M  V30 9321 C 838.915 -4.30416 1.24283 0
M  V30 9322 C 840.659 -4.20471 -0.583507 0
M  V30 9323 C 838.566 -5.80408 1.13494 0
M  V30 9324 H 837.496 -0.753892 -0.0127376 0
M  V30 9325 H 840.147 -1.71273 0.65861 0
M  V30 9326 H 838.529 -3.86976 -0.840577 0
M  V30 9327 H 839.703 -4.14905 2.00476 0
M  V30 9328 H 838.018 -3.81539 1.66785 0
M  V30 9329 H 840.615 -5.30333 -0.681987 0
M  V30 9330 H 840.958 -3.84898 -1.58617 0
M  V30 9331 H 841.491 -3.97654 0.107814 0
M  V30 9332 H 838.23 -6.20532 2.11235 0
M  V30 9333 H 837.75 -5.98368 0.414167 0
M  V30 9334 H 839.429 -6.41781 0.820162 0
M  V30 9335 N 839.561 -0.251338 -1.55583 0
M  V30 9336 C 840.508 0.646337 -2.21565 0
M  V30 9337 C 841.478 1.16796 -1.18102 0
M  V30 9338 O 842.663 1.22162 -1.46564 0
M  V30 9339 C 839.803 1.83557 -2.92234 0
M  V30 9340 C 838.916 1.35006 -4.10363 0
M  V30 9341 C 838.051 2.4992 -4.68736 0
M  V30 9342 C 837.09 1.98253 -5.79105 0
M  V30 9343 N 836.227 3.06551 -6.31642 0
M  V30 9344 H 841.067 0.0769881 -2.97901 0
M  V30 9345 H 838.604 0.026238 -1.47077 0
M  V30 9346 H 840.562 2.53425 -3.31408 0
M  V30 9347 H 839.192 2.37733 -2.18364 0
M  V30 9348 H 838.244 0.545274 -3.76472 0
M  V30 9349 H 839.556 0.931435 -4.90026 0
M  V30 9350 H 838.71 3.27823 -5.10507 0
M  V30 9351 H 837.449 2.95086 -3.88298 0
M  V30 9352 H 836.454 1.18822 -5.36807 0
M  V30 9353 H 837.679 1.54051 -6.61396 0
M  V30 9354 H 835.625 3.51143 -5.54107 0
M  V30 9355 H 835.542 2.69033 -7.06511 0
M  V30 9356 H 836.81 3.84499 -6.78071 0
M  V30 9357 N 841.039 1.57585 0.0217189 0
M  V30 9358 C 841.971 2.03849 1.04777 0
M  V30 9359 C 842.984 0.952558 1.32023 0
M  V30 9360 O 844.173 1.22974 1.29381 0
M  V30 9361 C 841.273 2.40504 2.3877 0
M  V30 9362 C 840.446 3.71566 2.30775 0
M  V30 9363 C 839.505 3.95329 3.47277 0
M  V30 9364 O 838.531 4.66289 3.26441 0
M  V30 9365 N 839.733 3.41536 4.69397 0
M  V30 9366 H 842.498 2.92491 0.653395 0
M  V30 9367 H 840.059 1.60538 0.209527 0
M  V30 9368 H 842.051 2.53532 3.15442 0
M  V30 9369 H 840.621 1.57494 2.70027 0
M  V30 9370 H 839.841 3.68822 1.39155 0
M  V30 9371 H 841.129 4.5753 2.22584 0
M  V30 9372 H 840.527 2.84033 4.89226 0
M  V30 9373 H 839.084 3.59932 5.43408 0
M  V30 9374 N 842.517 -0.29412 1.54831 0
M  V30 9375 C 843.742 -1.05156 1.78765 0
M  V30 9376 C 844.167 -1.79916 0.548809 0
M  V30 9377 O 843.525 -1.74243 -0.500909 0
M  V30 9378 C 843.573 -2.00242 2.99893 0
M  V30 9379 O 842.677 -3.08662 2.73499 0
M  V30 9380 H 842.018 -0.301737 0.591482 0
M  V30 9381 H 844.548 -0.329449 2.0193 0
M  V30 9382 H 844.558 -2.42583 3.28051 0
M  V30 9383 H 843.233 -1.45235 3.89717 0
M  V30 9384 H 841.81 -2.70786 2.56377 0
M  V30 9385 N 843.995 -1.47404 -0.557645 0
M  V30 9386 C 844.905 -1.62491 -1.69216 0
M  V30 9387 C 845.921 -0.507764 -1.66426 0
M  V30 9388 O 847.097 -0.775241 -1.85882 0
M  V30 9389 C 844.162 -1.63511 -3.05721 0
M  V30 9390 C 843.223 -2.86648 -3.1958 0
M  V30 9391 C 842.456 -2.87609 -4.49574 0
M  V30 9392 O 842.679 -1.97799 -5.35006 0
M  V30 9393 O 841.613 -3.79465 -4.67215 0
M  V30 9394 H 845.439 -2.58487 -1.59431 0
M  V30 9395 H 843.024 -1.30485 -0.7276 0
M  V30 9396 H 844.906 -1.66863 -3.86956 0
M  V30 9397 H 843.581 -0.706812 -3.15889 0
M  V30 9398 H 842.488 -2.8884 -2.37744 0
M  V30 9399 H 843.821 -3.7877 -3.14316 0
M  V30 9400 N 845.473 0.80434 -1.35529 0
M  V30 9401 C 846.42 1.91629 -1.28635 0
M  V30 9402 C 847.39 1.65348 -0.157862 0
M  V30 9403 O 848.575 1.87711 -0.341934 0
M  V30 9404 C 845.715 3.28207 -1.0665 0
M  V30 9405 C 844.828 3.66659 -2.28441 0
M  V30 9406 C 843.963 4.92279 -1.99588 0
M  V30 9407 C 843.002 5.23365 -3.1742 0
M  V30 9408 N 842.139 6.40165 -2.88328 0
M  V30 9409 H 846.979 1.96858 -2.23721 0
M  V30 9410 H 844.516 0.962871 -1.11208 0
M  V30 9411 H 846.474 4.06945 -0.919343 0
M  V30 9412 H 845.104 3.22441 -0.152253 0
M  V30 9413 H 844.156 2.83164 -2.54013 0
M  V30 9414 H 845.468 3.8559 -3.1642 0
M  V30 9415 H 844.622 5.78847 -1.81715 0
M  V30 9416 H 843.361 4.75387 -1.08896 0
M  V30 9417 H 842.366 4.35285 -3.35867 0
M  V30 9418 H 843.591 5.42185 -4.08916 0
M  V30 9419 H 841.537 6.24694 -2.00233 0
M  V30 9420 H 841.454 6.59357 -3.69843 0
M  V30 9421 H 842.722 7.29755 -2.74002 0
M  V30 9422 N 846.951 1.19563 1.02676 0
M  V30 9423 C 847.861 0.950691 2.14474 0
M  V30 9424 C 848.877 -0.0900219 1.73767 0
M  V30 9425 O 850.053 0.0951063 2.01175 0
M  V30 9426 C 847.118 0.494917 3.43149 0
M  V30 9427 C 846.179 1.60527 3.98158 0
M  V30 9428 C 845.412 1.17115 5.20692 0
M  V30 9429 O 845.635 0.0355937 5.70389 0
M  V30 9430 O 844.569 1.97454 5.68591 0
M  V30 9431 H 848.395 1.88651 2.38001 0
M  V30 9432 H 845.98 0.978635 1.12885 0
M  V30 9433 H 847.862 0.249492 4.20661 0
M  V30 9434 H 846.537 -0.412434 3.21062 0
M  V30 9435 H 845.444 1.90487 3.21971 0
M  V30 9436 H 846.777 2.48925 4.24614 0
M  V30 9437 N 848.429 -1.21819 0.999893 0
M  V30 9438 C 849.659 -1.94475 0.697346 0
M  V30 9439 C 850.067 -1.73991 -0.743228 0
M  V30 9440 O 849.41 -1.04042 -1.51397 0
M  V30 9441 C 849.472 -3.47204 0.932181 0
M  V30 9442 C 849.136 -3.91432 2.3586 0
M  V30 9443 C 850.133 -3.98545 3.33853 0
M  V30 9444 C 847.818 -4.23888 2.69489 0
M  V30 9445 C 849.812 -4.37499 4.63545 0
M  V30 9446 C 847.499 -4.62519 3.99399 0
M  V30 9447 C 848.497 -4.69294 4.96238 0
M  V30 9448 O 848.185 -5.07048 6.23825 0
M  V30 9449 H 847.917 -0.625419 0.256567 0
M  V30 9450 H 850.471 -1.55728 1.33933 0
M  V30 9451 H 848.701 -3.85997 0.233025 0
M  V30 9452 H 850.39 -4.01078 0.623807 0
M  V30 9453 H 851.156 -3.73654 3.09205 0
M  V30 9454 H 847.035 -4.17815 1.94812 0
M  V30 9455 H 850.579 -4.42702 5.3913 0
M  V30 9456 H 846.476 -4.86864 4.23833 0
M  V30 9457 H 847.244 -5.25098 6.27865 0
M  V30 9458 N 849.908 -0.773975 -1.37286 0
M  V30 9459 C 851.157 -0.335977 -1.98882 0
M  V30 9460 C 851.47 1.09416 -1.62134 0
M  V30 9461 O 852.676 1.63366 -2.1685 0
M  V30 9462 C 851.132 -0.549756 -3.55676 0
M  V30 9463 C 850.74 -1.9903 -4.01361 0
M  V30 9464 C 852.484 -0.175493 -4.24137 0
M  V30 9465 C 850.391 -2.15156 -5.50874 0
M  V30 9466 H 849.321 -0.121877 -0.744085 0
M  V30 9467 H 851.972 -0.953419 -1.56787 0
M  V30 9468 H 850.354 0.137175 -3.95762 0
M  V30 9469 H 851.528 -2.71237 -3.72515 0
M  V30 9470 H 849.843 -2.32137 -3.4569 0
M  V30 9471 H 852.44 -0.274463 -5.33995 0
M  V30 9472 H 852.783 0.874524 -4.07011 0
M  V30 9473 H 853.316 -0.815058 -3.89361 0
M  V30 9474 H 850.055 -3.18485 -5.72929 0
M  V30 9475 H 849.575 -1.47435 -5.81397 0
M  V30 9476 H 851.254 -1.95124 -6.16876 0
M  V30 9477 N 851.386 1.48609 -0.524698 0
M  V30 9478 C 852.802 1.58557 -0.182199 0
M  V30 9479 C 853.002 1.52732 1.31435 0
M  V30 9480 O 852.058 1.41362 2.0922 0
M  V30 9481 C 853.371 2.90406 -0.78004 0
M  V30 9482 C 854.919 3.03924 -0.748293 0
M  V30 9483 C 855.394 4.38427 -1.32462 0
M  V30 9484 N 856.885 4.4498 -1.28635 0
M  V30 9485 C 857.62 5.47551 -1.70223 0
M  V30 9486 N 857.116 6.57103 -2.19515 0
M  V30 9487 N 858.909 5.38402 -1.61493 0
M  V30 9488 H 851.06 1.50638 -1.4974 0
M  V30 9489 H 853.323 0.714952 -0.622533 0
M  V30 9490 H 853.029 3.00308 -1.83052 0
M  V30 9491 H 852.903 3.76343 -0.254075 0
M  V30 9492 H 855.29 2.93638 0.293407 0
M  V30 9493 H 855.371 2.19611 -1.31167 0
M  V30 9494 H 855.015 4.49466 -2.36522 0
M  V30 9495 H 854.945 5.21418 -0.736967 0
M  V30 9496 H 857.436 3.66393 -0.92545 0
M  V30 9497 H 857.749 7.31499 -2.49257 0
M  V30 9498 H 856.094 6.58081 -2.23506 0
M  V30 9499 H 859.285 4.5171 -1.22785 0
M  V30 9500 H 859.458 6.18208 -1.94225 0
M  V30 9501 N 852.864 0.259585 1.55447 0
M  V30 9502 C 854.113 -0.362163 1.98422 0
M  V30 9503 C 854.426 -1.58135 1.1512 0
M  V30 9504 O 855.632 -2.27506 1.48166 0
M  V30 9505 C 854.088 -0.695722 3.53111 0
M  V30 9506 C 853.696 0.502784 4.4517 0
M  V30 9507 C 855.44 -1.28096 4.04712 0
M  V30 9508 C 853.347 0.144674 5.91223 0
M  V30 9509 H 852.277 -0.139092 0.74106 0
M  V30 9510 H 854.928 0.361798 1.79898 0
M  V30 9511 H 853.31 -1.47816 3.67378 0
M  V30 9512 H 854.484 1.27994 4.42667 0
M  V30 9513 H 852.799 1.0038 4.0412 0
M  V30 9514 H 855.396 -1.56243 5.11363 0
M  V30 9515 H 855.739 -2.20969 3.52815 0
M  V30 9516 H 856.272 -0.561146 3.93822 0
M  V30 9517 H 853.011 1.04087 6.47183 0
M  V30 9518 H 852.531 -0.596023 5.96831 0
M  V30 9519 H 854.21 -0.268651 6.46442 0
M  V30 9520 N 854.342 -1.57594 -0.0133615 0
M  V30 9521 C 855.619 -1.81173 -0.737273 0
M  V30 9522 C 855.999 -0.861395 -1.92726 0
M  V30 9523 O 855.347 0.0929324 -2.28311 0
M  V30 9524 C 855.557 -3.29314 -1.15557 0
M  V30 9525 C 856.905 -3.94707 -1.56498 0
M  V30 9526 O 857.929 -3.33557 -1.24973 0
M  V30 9527 O 856.788 -5.02402 -2.15069 0
M  V30 9528 H 853.882 -0.745575 -0.357837 0
M  V30 9529 H 856.428 -1.69696 0.0110674 0
M  V30 9530 H 855.2 -3.90096 -0.30677 0
M  V30 9531 H 854.823 -3.45739 -1.96343 0
M  V30 9532 N 855.82 0.285905 -1.54985 0
M  V30 9533 C 856.783 1.33625 -1.86218 0
M  V30 9534 C 857.783 1.42971 -0.735936 0
M  V30 9535 O 858.973 1.42345 -1.00417 0
M  V30 9536 C 856.105 2.71926 -2.05595 0
M  V30 9537 H 857.298 1.07167 -2.80099 0
M  V30 9538 H 854.851 0.523335 -1.47278 0
M  V30 9539 H 855.586 3.03583 -1.14053 0
M  V30 9540 H 855.371 2.6653 -2.87583 0
M  V30 9541 H 856.861 3.47841 -2.31077 0
M  V30 9542 N 857.298 1.47698 0.54982 0
M  V30 9543 C 858.245 1.60739 1.65625 0
M  V30 9544 C 859.215 0.450129 1.59884 0
M  V30 9545 O 860.4 0.671123 1.78607 0
M  V30 9546 C 857.54 1.63457 3.03934 0
M  V30 9547 C 856.653 2.90152 3.20056 0
M  V30 9548 C 855.788 2.84157 4.48807 0
M  V30 9549 C 854.827 4.05644 4.58387 0
M  V30 9550 N 853.964 3.97843 5.78503 0
M  V30 9551 H 858.804 2.55234 1.53817 0
M  V30 9552 H 856.341 1.26593 0.749173 0
M  V30 9553 H 858.299 1.63015 3.84034 0
M  V30 9554 H 856.929 0.724689 3.1456 0
M  V30 9555 H 855.981 3.00428 2.33339 0
M  V30 9556 H 857.293 3.80097 3.22998 0
M  V30 9557 H 856.447 2.82006 5.37175 0
M  V30 9558 H 855.186 1.91908 4.48356 0
M  V30 9559 H 854.191 4.08092 3.6843 0
M  V30 9560 H 855.416 4.9903 4.60593 0
M  V30 9561 H 853.362 3.08401 5.78986 0
M  V30 9562 H 853.279 4.81473 5.82855 0
M  V30 9563 H 854.547 3.99719 6.69212 0
M  V30 9564 N 858.776 -0.797141 1.35954 0
M  V30 9565 C 860.022 -1.55698 1.29946 0
M  V30 9566 C 860.355 -1.93808 -0.123259 0
M  V30 9567 O 859.63 -1.62102 -1.07486 0
M  V30 9568 C 859.913 -2.83926 2.2149 0
M  V30 9569 C 859.766 -2.52232 3.72423 0
M  V30 9570 C 861.085 -3.85698 2.11955 0
M  V30 9571 H 858.204 -0.56488 0.47337 0
M  V30 9572 H 860.846 -0.916421 1.66438 0
M  V30 9573 H 858.996 -3.38588 1.905 0
M  V30 9574 H 860.668 -2.0368 4.13899 0
M  V30 9575 H 858.911 -1.85286 3.92239 0
M  V30 9576 H 859.582 -3.43782 4.31877 0
M  V30 9577 H 862.058 -3.40462 2.39218 0
M  V30 9578 H 860.934 -4.73182 2.78191 0
M  V30 9579 H 861.195 -4.28083 1.10442 0
M  V30 9580 N 860.254 -1.20106 -1.0204 0
M  V30 9581 C 861.5 -1.01039 -1.75838 0
M  V30 9582 C 861.833 0.456819 -1.88751 0
M  V30 9583 O 861.108 1.33919 -1.41053 0
M  V30 9584 C 861.391 -1.69009 -3.17975 0
M  V30 9585 C 861.244 -3.2315 -3.1288 0
M  V30 9586 C 862.563 -1.42005 -4.16561 0
M  V30 9587 H 859.682 -0.368465 -0.638281 0
M  V30 9588 H 862.324 -1.48066 -1.19064 0
M  V30 9589 H 860.474 -1.29026 -3.66449 0
M  V30 9590 H 862.146 -3.72402 -2.72239 0
M  V30 9591 H 860.389 -3.54253 -2.50374 0
M  V30 9592 H 861.06 -3.65862 -4.13339 0
M  V30 9593 H 863.536 -1.76685 -3.76725 0
M  V30 9594 H 862.412 -1.92101 -5.14187 0
M  V30 9595 H 862.673 -0.346884 -4.40737 0
M  V30 9596 N 861.732 1.21287 -1.00634 0
M  V30 9597 C 863.143 1.72136 -0.722914 0
M  V30 9598 C 863.494 1.8091 0.759338 0
M  V30 9599 O 862.619 1.46458 1.59308 0
M  V30 9600 C 863.214 3.12633 -1.30561 0
M  V30 9601 C 861.773 3.60833 -1.07127 0
M  V30 9602 C 860.92 2.38326 -1.4176 0
M  V30 9603 H 863.871 1.06445 -1.17708 0
M  V30 9604 H 863.892 3.74174 -0.690937 0
M  V30 9605 H 863.404 3.06215 -2.38441 0
M  V30 9606 H 861.505 3.72599 -0.00968671 0
M  V30 9607 H 861.618 4.46226 -1.74411 0
M  V30 9608 H 859.982 2.40575 -0.836412 0
M  V30 9609 H 860.765 2.34558 -2.50674 0
M  V30 9610 N 863.21 0.781244 1.36873 0
M  V30 9611 C 864.157 0.172146 2.30157 0
M  V30 9612 C 865.127 -0.679328 1.51573 0
M  V30 9613 O 866.312 -0.629713 1.80109 0
M  V30 9614 C 863.452 -0.693534 3.38059 0
M  V30 9615 C 862.565 0.175586 4.31643 0
M  V30 9616 C 861.7 -0.695695 5.26625 0
M  V30 9617 C 860.739 0.17538 6.11849 0
M  V30 9618 N 859.876 -0.654416 6.99043 0
M  V30 9619 H 864.716 0.973133 2.81663 0
M  V30 9620 H 862.253 0.491469 1.38647 0
M  V30 9621 H 864.211 -1.21035 3.99257 0
M  V30 9622 H 862.841 -1.46003 2.87894 0
M  V30 9623 H 861.893 0.810295 3.7167 0
M  V30 9624 H 863.205 0.847107 4.91554 0
M  V30 9625 H 862.359 -1.27863 5.93073 0
M  V30 9626 H 861.098 -1.40087 4.67148 0
M  V30 9627 H 860.103 0.77078 5.4437 0
M  V30 9628 H 861.328 0.87803 6.734 0
M  V30 9629 H 859.274 -1.34403 6.42084 0
M  V30 9630 H 859.191 -0.0403998 7.55989 0
M  V30 9631 H 860.459 -1.22144 7.69871 0
M  V30 9632 N 864.689 -1.48329 0.532571 0
M  V30 9633 C 865.914 -2.074 0.00147755 0
M  V30 9634 C 866.339 -1.38615 -1.27151 0
M  V30 9635 O 865.697 -0.452949 -1.75551 0
M  V30 9636 C 865.745 -3.60029 -0.202866 0
M  V30 9637 O 864.849 -3.92327 -1.27097 0
M  V30 9638 H 864.19 -0.662777 0.0402883 0
M  V30 9639 H 866.72 -1.90701 0.741224 0
M  V30 9640 H 866.73 -4.05783 -0.424722 0
M  V30 9641 H 865.405 -4.09496 0.727033 0
M  V30 9642 H 863.982 -3.58348 -1.03156 0
M  V30 9643 N 866.167 -0.267825 -1.55308 0
M  V30 9644 C 867.114 0.6228 -2.22238 0
M  V30 9645 C 868.084 1.15536 -1.19334 0
M  V30 9646 O 869.269 1.206 -1.47852 0
M  V30 9647 C 866.409 1.80447 -2.94164 0
M  V30 9648 C 865.522 1.30646 -4.11771 0
M  V30 9649 C 864.657 2.44935 -4.7136 0
M  V30 9650 C 863.696 1.92099 -5.81175 0
M  V30 9651 N 862.833 2.99834 -6.34857 0
M  V30 9652 H 867.673 0.0453874 -2.97965 0
M  V30 9653 H 865.21 0.0106371 -1.47096 0
M  V30 9654 H 867.168 2.49896 -3.34078 0
M  V30 9655 H 865.798 2.35403 -2.20874 0
M  V30 9656 H 864.85 0.505314 -3.77029 0
M  V30 9657 H 866.162 0.879409 -4.90987 0
M  V30 9658 H 865.316 3.2239 -5.13955 0
M  V30 9659 H 864.055 2.90951 -3.91406 0
M  V30 9660 H 863.06 1.13122 -5.38037 0
M  V30 9661 H 864.285 1.47027 -6.62993 0
M  V30 9662 H 862.231 3.45246 -5.578 0
M  V30 9663 H 862.148 2.61524 -7.09324 0
M  V30 9664 H 863.416 3.77286 -6.82111 0
M  V30 9665 N 867.645 1.57599 0.00500368 0
M  V30 9666 C 868.894 1.89528 0.690061 0
M  V30 9667 C 869.207 0.869451 1.75214 0
M  V30 9668 O 870.413 1.07879 2.49147 0
M  V30 9669 C 868.869 3.36425 1.27852 0
M  V30 9670 C 868.477 4.47293 0.251531 0
M  V30 9671 C 870.221 3.77471 1.94206 0
M  V30 9672 C 868.128 5.85264 0.8497 0
M  V30 9673 H 867.058 0.707201 0.2615 0
M  V30 9674 H 869.709 1.83418 -0.0547209 0
M  V30 9675 H 868.091 3.37356 2.07381 0
M  V30 9676 H 869.265 4.5787 -0.518796 0
M  V30 9677 H 867.58 4.15235 -0.311281 0
M  V30 9678 H 870.177 4.77884 2.39855 0
M  V30 9679 H 870.52 3.10722 2.77051 0
M  V30 9680 H 871.053 3.78817 1.21419 0
M  V30 9681 H 867.792 6.55472 0.0601408 0
M  V30 9682 H 867.312 5.78361 1.5893 0
M  V30 9683 H 868.991 6.32762 1.34984 0
M  V30 9684 N 869.123 -0.277682 1.55134 0
M  V30 9685 C 870.4 -1.0309 1.66228 0
M  V30 9686 C 870.78 -2.0445 0.525701 0
M  V30 9687 O 870.128 -2.23512 -0.474816 0
M  V30 9688 C 870.338 -1.6919 3.05247 0
M  V30 9689 C 871.686 -2.20526 3.62841 0
M  V30 9690 O 872.71 -1.79185 3.07849 0
M  V30 9691 O 871.569 -2.96342 4.59177 0
M  V30 9692 H 868.663 -0.4779 0.674937 0
M  V30 9693 H 871.209 -0.273912 1.67475 0
M  V30 9694 H 869.981 -0.957163 3.79413 0
M  V30 9695 H 869.604 -2.51587 3.07879 0
M  V30 9696 N 870.601 -1.47988 -0.541979 0
M  V30 9697 C 871.829 -1.59034 -1.32347 0
M  V30 9698 C 872.244 -0.246123 -1.87189 0
M  V30 9699 O 871.601 0.762889 -1.6579 0
M  V30 9700 C 871.652 -2.62759 -2.48274 0
M  V30 9701 O 871.373 -3.91963 -1.95695 0
M  V30 9702 C 872.874 -2.84133 -3.4027 0
M  V30 9703 H 870.094 -0.536574 -0.402901 0
M  V30 9704 H 872.638 -1.93725 -0.655045 0
M  V30 9705 H 870.793 -2.3096 -3.11025 0
M  V30 9706 H 871.207 -4.48769 -2.7149 0
M  V30 9707 H 872.681 -3.60538 -4.17991 0
M  V30 9708 H 873.158 -1.92512 -3.9476 0
M  V30 9709 H 873.764 -3.17188 -2.83322 0
M  V30 9710 N 872.079 0.78992 -1.36375 0
M  V30 9711 C 873.026 1.90254 -1.3066 0
M  V30 9712 C 873.996 1.65171 -0.17539 0
M  V30 9713 O 875.181 1.87338 -0.361824 0
M  V30 9714 C 872.321 3.27057 -1.10125 0
M  V30 9715 C 871.434 3.64215 -2.32317 0
M  V30 9716 C 870.569 4.90134 -2.04798 0
M  V30 9717 C 869.608 5.19969 -3.22953 0
M  V30 9718 N 868.745 6.37071 -2.95102 0
M  V30 9719 H 873.585 1.94474 -2.25796 0
M  V30 9720 H 871.122 0.951022 -1.12223 0
M  V30 9721 H 873.08 4.05947 -0.962453 0
M  V30 9722 H 871.71 3.22261 -0.186444 0
M  V30 9723 H 870.762 2.80454 -2.57002 0
M  V30 9724 H 872.074 3.82212 -3.20492 0
M  V30 9725 H 871.228 5.76888 -1.87845 0
M  V30 9726 H 869.967 4.74205 -1.13932 0
M  V30 9727 H 868.972 4.31699 -3.40465 0
M  V30 9728 H 870.197 5.37817 -4.14644 0
M  V30 9729 H 868.143 6.22535 -2.06848 0
M  V30 9730 H 868.06 6.55398 -3.76815 0
M  V30 9731 H 869.328 7.26808 -2.81727 0
M  V30 9732 N 873.557 1.20646 1.01402 0
M  V30 9733 C 874.806 1.01242 1.7445 0
M  V30 9734 C 875.119 -0.455732 1.90217 0
M  V30 9735 O 876.325 -0.768951 2.60383 0
M  V30 9736 C 874.781 1.76275 3.13776 0
M  V30 9737 C 874.389 3.27201 3.06013 0
M  V30 9738 C 876.133 1.65248 3.91016 0
M  V30 9739 C 874.04 3.9476 4.40362 0
M  V30 9740 H 872.97 0.375202 0.654018 0
M  V30 9741 H 875.621 1.44292 1.13367 0
M  V30 9742 H 874.003 1.26013 3.75415 0
M  V30 9743 H 875.177 3.84695 2.53665 0
M  V30 9744 H 873.492 3.38669 2.42265 0
M  V30 9745 H 876.089 2.13061 4.90417 0
M  V30 9746 H 876.432 0.609128 4.1182 0
M  V30 9747 H 876.965 2.12937 3.3601 0
M  V30 9748 H 873.704 4.99258 4.24761 0
M  V30 9749 H 873.224 3.42054 4.92706 0
M  V30 9750 H 874.903 3.99159 5.09196 0
M  V30 9751 N 875.035 -1.20752 1.01276 0
M  V30 9752 C 875.967 -2.22798 0.537917 0
M  V30 9753 C 876.98 -1.5836 -0.377638 0
M  V30 9754 O 878.169 -1.77624 -0.176599 0
M  V30 9755 C 875.269 -3.38068 -0.237364 0
M  V30 9756 C 874.442 -4.32095 0.679161 0
M  V30 9757 C 873.501 -5.26178 -0.0478676 0
M  V30 9758 O 872.527 -5.66305 0.573366 0
M  V30 9759 N 873.729 -5.65201 -1.32396 0
M  V30 9760 H 876.494 -2.64166 1.4155 0
M  V30 9761 H 874.055 -1.35254 0.889826 0
M  V30 9762 H 876.047 -3.98009 -0.73288 0
M  V30 9763 H 874.617 -2.95622 -1.0162 0
M  V30 9764 H 873.837 -3.70179 1.35505 0
M  V30 9765 H 875.125 -4.91842 1.30263 0
M  V30 9766 H 874.523 -5.34606 -1.84968 0
M  V30 9767 H 873.08 -6.27468 -1.76428 0
M  V30 9768 N 876.513 -0.788492 -1.36457 0
M  V30 9769 C 877.423 -0.187385 -2.3385 0
M  V30 9770 C 878.439 0.659984 -1.60998 0
M  V30 9771 O 879.615 0.575986 -1.92988 0
M  V30 9772 C 876.68 0.668525 -3.40194 0
M  V30 9773 C 875.741 -0.197234 -4.28847 0
M  V30 9774 C 874.974 0.61792 -5.30111 0
M  V30 9775 O 875.197 1.85396 -5.3943 0
M  V30 9776 O 874.131 0.0183016 -6.01897 0
M  V30 9777 H 877.957 -0.992617 -2.87021 0
M  V30 9778 H 875.542 -0.549934 -1.3891 0
M  V30 9779 H 877.424 1.15663 -4.05216 0
M  V30 9780 H 876.099 1.45166 -2.89324 0
M  V30 9781 H 875.006 -0.73207 -3.66867 0
M  V30 9782 H 876.339 -0.943863 -4.83065 0
M  V30 9783 N 877.991 1.48044 -0.54043 0
M  V30 9784 C 878.954 2.28273 0.205966 0
M  V30 9785 C 879.954 1.35983 0.858209 0
M  V30 9786 O 881.144 1.58776 0.716651 0
M  V30 9787 C 878.276 3.15174 1.29917 0
M  V30 9788 H 879.469 2.95727 -0.498555 0
M  V30 9789 H 877.022 1.53457 -0.296745 0
M  V30 9790 H 877.757 2.52374 2.03661 0
M  V30 9791 H 877.542 3.83074 0.836475 0
M  V30 9792 H 879.032 3.75666 1.82387 0
M  V30 9793 N 879.47 0.276058 1.55163 0
M  V30 9794 C 880.402 -0.644254 2.19959 0
M  V30 9795 C 881.415 -1.11675 1.18459 0
M  V30 9796 O 882.604 -1.0385 1.45181 0
M  V30 9797 C 879.704 -1.89093 2.81242 0
M  V30 9798 C 878.877 -1.56509 4.08441 0
M  V30 9799 C 877.936 -2.66433 4.53762 0
M  V30 9800 O 876.962 -2.32579 5.19515 0
M  V30 9801 N 878.164 -3.96509 4.23982 0
M  V30 9802 H 880.929 -0.0896808 2.99566 0
M  V30 9803 H 878.49 0.0971981 1.61608 0
M  V30 9804 H 880.482 -2.61929 3.08505 0
M  V30 9805 H 879.052 -2.35453 2.05622 0
M  V30 9806 H 878.272 -0.670522 3.88455 0
M  V30 9807 H 879.56 -1.32242 4.91314 0
M  V30 9808 H 878.958 -4.26834 3.71254 0
M  V30 9809 H 877.515 -4.6572 4.56014 0
M  V30 9810 N 880.948 -1.576 0.00335426 0
M  V30 9811 C 881.878 -2.11668 -0.985839 0
M  V30 9812 C 882.859 -1.02661 -1.35627 0
M  V30 9813 O 884.044 -1.30361 -1.43943 0
M  V30 9814 C 881.174 -2.62273 -2.27662 0
M  V30 9815 C 880.128 -3.75837 -2.0477 0
M  V30 9816 C 879.454 -4.12769 -3.39891 0
M  V30 9817 C 880.754 -5.02975 -1.40759 0
M  V30 9818 H 882.448 -2.9457 -0.535637 0
M  V30 9819 H 879.994 -1.41702 -0.256204 0
M  V30 9820 H 881.947 -2.98727 -2.97221 0
M  V30 9821 H 880.671 -1.76498 -2.74802 0
M  V30 9822 H 879.33 -3.39782 -1.37636 0
M  V30 9823 H 878.978 -3.24013 -3.8474 0
M  V30 9824 H 878.678 -4.89281 -3.25389 0
M  V30 9825 H 880.202 -4.51784 -4.1076 0
M  V30 9826 H 881.616 -5.37179 -2.00279 0
M  V30 9827 H 880.013 -5.84315 -1.36734 0
M  V30 9828 H 881.083 -4.83431 -0.377218 0
M  V30 9829 N 882.426 0.269451 -1.5528 0
M  V30 9830 C 883.374 1.35303 -1.89198 0
M  V30 9831 C 884.368 1.50956 -0.768671 0
M  V30 9832 O 885.574 1.52699 -0.953054 0
M  V30 9833 H 881.949 0.452591 -0.600554 0
M  V30 9834 H 883.92 1.03949 -2.79709 0
M  V30 9835 C 882.669 2.70585 -2.18356 0
M  V30 9836 H 881.992 2.59332 -3.04281 0
M  V30 9837 H 883.432 3.45335 -2.46007 0
M  V30 9838 C 881.891 3.21954 -0.992327 0
M  V30 9839 O 882.421 4.01048 -0.228769 0
M  V30 9840 N 880.627 2.79682 -0.789062 0
M  V30 9841 H 880.174 2.15475 -1.41167 0
M  V30 9842 H 880.132 3.14399 0.00634776 0
M  V30 9843 N 883.904 1.48273 0.534124 0
M  V30 9844 C 885.153 1.55334 1.28663 0
M  V30 9845 C 885.466 0.230345 1.94239 0
M  V30 9846 O 886.672 0.179161 2.70908 0
M  V30 9847 C 885.128 2.73927 2.33435 0
M  V30 9848 C 884.736 4.12852 1.73947 0
M  V30 9849 C 886.48 2.90298 3.09722 0
M  V30 9850 C 884.387 5.22711 2.76636 0
M  V30 9851 H 883.317 0.578262 0.483869 0
M  V30 9852 H 885.968 1.74598 0.564602 0
M  V30 9853 H 884.35 2.48089 3.08655 0
M  V30 9854 H 885.524 4.48691 1.04944 0
M  V30 9855 H 883.839 4.01562 1.10167 0
M  V30 9856 H 886.436 3.69542 3.86449 0
M  V30 9857 H 886.779 1.99598 3.6533 0
M  V30 9858 H 887.312 3.16017 2.41616 0
M  V30 9859 H 884.051 6.15362 2.25852 0
M  V30 9860 H 883.571 4.91364 3.43979 0
M  V30 9861 H 885.25 5.50648 3.39699 0
M  V30 9862 N 885.382 -0.782676 1.36792 0
M  V30 9863 C 886.33 -1.91698 1.31737 0
M  V30 9864 C 887.324 -1.68118 0.207994 0
M  V30 9865 O 888.53 -1.76042 0.375393 0
M  V30 9866 H 884.905 -0.630215 0.410284 0
M  V30 9867 H 886.876 -1.93078 2.27516 0
M  V30 9868 C 885.625 -3.28816 1.13029 0
M  V30 9869 H 884.948 -3.4753 1.97643 0
M  V30 9870 H 886.388 -4.08515 1.13541 0
M  V30 9871 C 884.847 -3.36497 -0.1647 0
M  V30 9872 O 885.377 -3.84822 -1.15216 0
M  V30 9873 N 883.583 -2.89828 -0.211678 0
M  V30 9874 H 883.13 -2.50693 0.59252 0
M  V30 9875 H 883.088 -2.95349 -1.07779 0
M  V30 9876 N 886.86 -1.21182 -1.00761 0
M  V30 9877 C 887.792 -0.926523 -2.09638 0
M  V30 9878 C 888.805 0.0892511 -1.62555 0
M  V30 9879 O 889.994 -0.142915 -1.77927 0
M  V30 9880 C 887.094 -0.369175 -3.36883 0
M  V30 9881 C 886.267 -1.43866 -4.13063 0
M  V30 9882 C 885.326 -0.891015 -5.18601 0
M  V30 9883 O 884.352 -1.57384 -5.47009 0
M  V30 9884 N 885.554 0.295057 -5.7975 0
M  V30 9885 H 888.319 -1.8638 -2.34697 0
M  V30 9886 H 885.88 -1.11671 -1.17223 0
M  V30 9887 H 887.872 0.011534 -4.04698 0
M  V30 9888 H 886.442 0.472861 -3.09003 0
M  V30 9889 H 885.662 -1.99332 -3.40089 0
M  V30 9890 H 886.95 -2.15866 -4.60738 0
M  V30 9891 H 886.348 0.8669 -5.59018 0
M  V30 9892 H 884.905 0.617306 -6.4887 0
M  V30 9893 N 888.338 1.20213 -1.01915 0
M  V30 9894 C 889.248 2.26763 -0.601311 0
M  V30 9895 C 890.264 1.70185 0.362369 0
M  V30 9896 O 891.44 2.00165 0.222682 0
M  V30 9897 C 888.505 3.46662 0.0512879 0
M  V30 9898 C 887.566 4.18459 -0.958659 0
M  V30 9899 C 886.799 5.32634 -0.337107 0
M  V30 9900 O 887.022 5.63841 0.86251 0
M  V30 9901 O 885.956 5.9258 -1.05511 0
M  V30 9902 H 889.782 2.64725 -1.48844 0
M  V30 9903 H 887.367 1.2688 -0.788784 0
M  V30 9904 H 889.249 4.19345 0.41564 0
M  V30 9905 H 887.924 3.1057 0.912572 0
M  V30 9906 H 886.831 3.47937 -1.37442 0
M  V30 9907 H 888.164 4.58498 -1.78999 0
M  V30 9908 N 889.816 0.795718 1.36037 0
M  V30 9909 C 891.062 0.380668 1.99806 0
M  V30 9910 C 891.417 -1.03783 1.62009 0
M  V30 9911 O 890.71 -1.70819 0.867831 0
M  V30 9912 C 890.904 0.489038 3.54038 0
M  V30 9913 C 890.733 1.91652 4.06817 0
M  V30 9914 C 889.503 2.54252 4.36674 0
M  V30 9915 C 891.701 2.87956 4.26129 0
M  V30 9916 N 889.683 3.88523 4.75314 0
M  V30 9917 C 891.054 4.07074 4.67644 0
M  V30 9918 C 893.109 2.8493 4.08313 0
M  V30 9919 C 891.812 5.23583 4.93208 0
M  V30 9920 C 893.838 4.00632 4.35027 0
M  V30 9921 C 893.2 5.18496 4.76804 0
M  V30 9922 H 889.299 0.186842 0.759351 0
M  V30 9923 H 891.883 1.03465 1.64933 0
M  V30 9924 H 890.054 -0.134893 3.88166 0
M  V30 9925 H 891.786 0.0496256 4.0467 0
M  V30 9926 H 888.541 2.05685 4.26604 0
M  V30 9927 H 888.965 4.57623 4.98909 0
M  V30 9928 H 893.607 1.94964 3.75165 0
M  V30 9929 H 891.325 6.14129 5.25234 0
M  V30 9930 H 894.911 3.99659 4.22805 0
M  V30 9931 H 893.791 6.06538 4.97073 0
M  V30 9932 N 891.294 -1.47756 0.548274 0
M  V30 9933 C 892.242 -2.3158 -0.217584 0
M  V30 9934 C 893.236 -1.42372 -0.917957 0
M  V30 9935 O 894.442 -1.59184 -0.840259 0
M  V30 9936 H 890.817 -0.74671 -0.0890388 0
M  V30 9937 H 892.788 -2.94032 0.508719 0
M  V30 9938 C 891.537 -3.24834 -1.24008 0
M  V30 9939 H 890.86 -3.93435 -0.710572 0
M  V30 9940 H 892.3 -3.86336 -1.74701 0
M  V30 9941 C 890.759 -2.47724 -2.2833 0
M  V30 9942 O 891.289 -2.21522 -3.35098 0
M  V30 9943 N 889.495 -2.08891 -2.02022 0
M  V30 9944 H 889.042 -2.30401 -1.1521 0
M  V30 9945 H 889 -1.57613 -2.7204 0
M  V30 9946 N 892.772 -0.284283 -1.55015 0
M  V30 9947 C 893.719 0.599194 -2.22886 0
M  V30 9948 C 894.689 1.14264 -1.20553 0
M  V30 9949 O 895.874 1.19025 -1.49123 0
M  V30 9950 C 893.014 1.77317 -2.96062 0
M  V30 9951 C 892.127 1.26271 -4.13134 0
M  V30 9952 C 891.262 2.39922 -4.73931 0
M  V30 9953 C 890.301 1.85925 -5.8318 0
M  V30 9954 N 889.438 2.93084 -6.38002 0
M  V30 9955 H 894.278 0.0137816 -2.97997 0
M  V30 9956 H 891.815 -0.00496503 -1.47099 0
M  V30 9957 H 893.773 2.46339 -3.36709 0
M  V30 9958 H 892.403 2.33047 -2.23358 0
M  V30 9959 H 891.455 0.465296 -3.77544 0
M  V30 9960 H 892.767 0.827284 -4.91892 0
M  V30 9961 H 891.921 3.1692 -5.17346 0
M  V30 9962 H 890.66 2.86784 -3.9447 0
M  V30 9963 H 889.665 1.07409 -5.39206 0
M  V30 9964 H 890.89 1.39987 -6.64515 0
M  V30 9965 H 888.836 3.3931 -5.61431 0
M  V30 9966 H 888.753 2.53986 -7.12058 0
M  V30 9967 H 890.021 3.7003 -6.86075 0
M  V30 9968 N 894.251 1.57596 -0.0117121 0
M  V30 9969 C 895.214 2.08089 0.960816 0
M  V30 9970 C 896.214 0.992519 1.26514 0
M  V30 9971 O 897.404 1.25475 1.20837 0
M  V30 9972 C 894.536 2.53217 2.28241 0
M  V30 9973 H 895.729 2.9529 0.523829 0
M  V30 9974 H 893.282 1.54508 0.235995 0
M  V30 9975 H 894.017 1.69294 2.76604 0
M  V30 9976 H 893.802 3.32714 2.0747 0
M  V30 9977 H 895.292 2.92568 2.97983 0
M  V30 9978 N 895.729 -0.261212 1.5542 0
M  V30 9979 C 896.659 -1.32712 1.92119 0
M  V30 9980 C 897.64 -1.50934 0.784406 0
M  V30 9981 O 898.825 -1.63781 1.04352 0
M  V30 9982 C 895.955 -2.68453 2.20341 0
M  V30 9983 C 894.909 -2.64947 3.36136 0
M  V30 9984 C 894.235 -4.04349 3.49865 0
M  V30 9985 C 895.535 -2.23182 4.72215 0
M  V30 9986 H 897.229 -1.02245 2.81401 0
M  V30 9987 H 894.775 -0.490406 1.35392 0
M  V30 9988 H 896.728 -3.43144 2.44603 0
M  V30 9989 H 895.452 -3.00527 1.27871 0
M  V30 9990 H 894.111 -1.92714 3.11861 0
M  V30 9991 H 893.759 -4.33665 2.5484 0
M  V30 9992 H 893.459 -4.02895 4.27726 0
M  V30 9993 H 894.983 -4.80761 3.76432 0
M  V30 9994 H 896.397 -2.87599 4.95943 0
M  V30 9995 H 894.794 -2.32867 5.53076 0
M  V30 9996 H 895.864 -1.18327 4.70241 0
M  V30 9997 N 897.207 -1.48554 -0.526253 0
M  V30 9998 C 898.455 -1.56452 -1.27935 0
M  V30 9999 C 898.776 -0.24184 -1.93495 0
M  V30 10000 O 898.046 0.736917 -1.81511 0
M  V30 10001 H 896.626 -0.576379 -0.47518 0
M  V30 10002 H 899.288 -1.85039 -0.612083 0
M  V30 10003 H 898.384 -2.34751 -2.05666 0
M  V30 10004 N 898.685 0.775411 -1.37205 0
M  V30 10005 C 899.615 1.90258 -1.35367 0
M  V30 10006 C 900.596 1.68634 -0.222864 0
M  V30 10007 O 901.781 1.89545 -0.422659 0
M  V30 10008 C 898.911 3.27488 -1.15623 0
M  V30 10009 C 897.865 3.63668 -2.25676 0
M  V30 10010 C 897.191 4.994 -1.91059 0
M  V30 10011 C 898.491 3.70797 -3.67841 0
M  V30 10012 H 900.185 1.92053 -2.29687 0
M  V30 10013 H 897.731 0.922597 -1.10563 0
M  V30 10014 H 899.684 4.05976 -1.12968 0
M  V30 10015 H 898.408 3.26117 -0.177573 0
M  V30 10016 H 897.067 2.87486 -2.2748 0
M  V30 10017 H 896.715 4.94565 -0.917324 0
M  V30 10018 H 896.415 5.24576 -2.64751 0
M  V30 10019 H 897.939 5.80291 -1.89985 0
M  V30 10020 H 899.353 4.39444 -3.68187 0
M  V30 10021 H 897.75 4.07468 -4.40556 0
M  V30 10022 H 898.82 2.71549 -4.01732 0
M  V30 10023 N 900.163 1.21714 1.00117 0
M  V30 10024 C 901.574 1.03477 1.55401 0
M  V30 10025 C 901.925 -0.40429 1.91989 0
M  V30 10026 O 901.05 -1.28807 1.7389 0
M  V30 10027 C 901.645 1.87213 2.82377 0
M  V30 10028 C 900.204 1.73297 3.34133 0
M  V30 10029 C 899.351 1.84189 2.07291 0
M  V30 10030 H 902.302 1.3568 0.823195 0
M  V30 10031 H 902.323 1.38465 3.54412 0
M  V30 10032 H 901.835 2.91944 2.55715 0
M  V30 10033 H 899.936 0.712662 3.65721 0
M  V30 10034 H 900.049 2.55486 4.05294 0
M  V30 10035 H 898.413 1.27538 2.20468 0
M  V30 10036 H 899.196 2.90435 1.83037 0
M  V30 10037 N 901.641 -1.19671 1.02551 0
M  V30 10038 C 902.588 -2.22773 0.603394 0
M  V30 10039 C 903.558 -1.61669 -0.381081 0
M  V30 10040 O 904.743 -1.88756 -0.278505 0
M  V30 10041 C 901.883 -3.45073 -0.0431034 0
M  V30 10042 C 900.996 -4.20574 0.987006 0
M  V30 10043 C 900.131 -5.30291 0.310626 0
M  V30 10044 C 899.17 -5.97545 1.32688 0
M  V30 10045 N 898.307 -6.98833 0.676542 0
M  V30 10046 H 903.147 -2.58238 1.48719 0
M  V30 10047 H 900.684 -1.26881 0.744286 0
M  V30 10048 H 902.642 -4.14925 -0.435141 0
M  V30 10049 H 901.272 -3.10274 -0.890495 0
M  V30 10050 H 900.324 -3.497 1.49713 0
M  V30 10051 H 901.636 -4.66736 1.75952 0
M  V30 10052 H 900.79 -6.06547 -0.136438 0
M  V30 10053 H 899.529 -4.8519 -0.49412 0
M  V30 10054 H 898.534 -5.20043 1.78424 0
M  V30 10055 H 899.759 -6.4473 2.13306 0
M  V30 10056 H 897.705 -6.55911 -0.108172 0
M  V30 10057 H 897.622 -7.43168 1.38699 0
M  V30 10058 H 898.89 -7.79088 0.253367 0
M  V30 10059 N 903.119 -0.802921 -1.35613 0
M  V30 10060 C 904.349 -0.393359 -2.02821 0
M  V30 10061 C 904.757 0.999282 -1.60658 0
M  V30 10062 O 904.1 1.65463 -0.797977 0
M  V30 10063 C 904.162 -0.393102 -3.57344 0
M  V30 10064 C 903.826 -1.73563 -4.22759 0
M  V30 10065 C 904.823 -2.69333 -4.44698 0
M  V30 10066 C 902.508 -2.01863 -4.59953 0
M  V30 10067 C 904.502 -3.91589 -5.02928 0
M  V30 10068 C 902.189 -3.24383 -5.17898 0
M  V30 10069 C 903.187 -4.19064 -5.39328 0
M  V30 10070 O 902.875 -5.39422 -5.96053 0
M  V30 10071 H 902.607 -0.158431 -0.657172 0
M  V30 10072 H 905.161 -1.08682 -1.74291 0
M  V30 10073 H 903.391 0.356934 -3.85049 0
M  V30 10074 H 905.08 -0.00635596 -4.059 0
M  V30 10075 H 905.846 -2.48759 -4.16346 0
M  V30 10076 H 901.725 -1.28979 -4.42589 0
M  V30 10077 H 905.269 -4.65502 -5.1957 0
M  V30 10078 H 901.166 -3.44829 -5.45677 0
M  V30 10079 H 901.934 -5.40669 -6.14507 0
M  V30 10080 N 904.597 1.47463 -0.556102 0
M  V30 10081 C 905.825 2.06868 -0.0364585 0
M  V30 10082 C 906.24 1.40893 1.25677 0
M  V30 10083 O 905.597 0.505083 1.75371 0
M  V30 10084 C 905.648 3.61128 0.163984 0
M  V30 10085 O 905.369 4.24629 -1.07803 0
M  V30 10086 C 906.87 4.37397 0.721036 0
M  V30 10087 H 904.09 0.669466 -0.0453399 0
M  V30 10088 H 906.634 1.89482 -0.769198 0
M  V30 10089 H 904.789 3.78031 0.84685 0
M  V30 10090 H 905.203 5.17149 -0.875067 0
M  V30 10091 H 906.677 5.46016 0.810584 0
M  V30 10092 H 907.154 4.03604 1.73206 0
M  V30 10093 H 907.76 4.25236 0.073904 0
M  V30 10094 N 906.075 0.2925 1.54862 0
M  V30 10095 C 907.022 -0.587365 2.23201 0
M  V30 10096 C 907.992 -1.13623 1.21157 0
M  V30 10097 O 909.177 -1.18233 1.49752 0
M  V30 10098 C 906.317 -1.75745 2.96998 0
M  V30 10099 C 905.43 -1.24078 4.13798 0
M  V30 10100 C 904.565 -2.37405 4.75197 0
M  V30 10101 C 903.604 -1.82829 5.84157 0
M  V30 10102 N 902.741 -2.89696 6.39547 0
M  V30 10103 H 907.581 0.00202207 2.98 0
M  V30 10104 H 905.118 0.012766 1.47094 0
M  V30 10105 H 907.076 -2.44549 3.38011 0
M  V30 10106 H 905.706 -2.3186 2.24591 0
M  V30 10107 H 904.758 -0.445268 3.77785 0
M  V30 10108 H 906.07 -0.801186 4.92324 0
M  V30 10109 H 905.224 -3.14172 5.19019 0
M  V30 10110 H 903.963 -2.84688 3.95985 0
M  V30 10111 H 902.968 -1.04548 5.39768 0
M  V30 10112 H 904.193 -1.36461 6.65248 0
M  V30 10113 H 902.139 -3.36328 5.63222 0
M  V30 10114 H 902.056 -2.50206 7.13395 0
M  V30 10115 H 903.324 -3.66386 6.88027 0
M  V30 10116 N 907.553 -1.57587 0.0200696 0
M  V30 10117 C 908.483 -2.12702 -0.963333 0
M  V30 10118 C 909.464 -1.04094 -1.34531 0
M  V30 10119 O 910.649 -1.31881 -1.42552 0
M  V30 10120 C 907.779 -2.64673 -2.24868 0
M  V30 10121 C 906.733 -3.77987 -2.00772 0
M  V30 10122 C 906.059 -4.16351 -3.35494 0
M  V30 10123 C 907.359 -5.0444 -1.35416 0
M  V30 10124 H 909.053 -2.95121 -0.504363 0
M  V30 10125 H 906.599 -1.41966 -0.24116 0
M  V30 10126 H 908.552 -3.01862 -2.94036 0
M  V30 10127 H 907.276 -1.79403 -2.72914 0
M  V30 10128 H 905.935 -3.41223 -1.34025 0
M  V30 10129 H 905.583 -3.28075 -3.81282 0
M  V30 10130 H 905.283 -4.92705 -3.20181 0
M  V30 10131 H 906.807 -4.56115 -4.05945 0
M  V30 10132 H 908.221 -5.39273 -1.94571 0
M  V30 10133 H 906.618 -5.85732 -1.30529 0
M  V30 10134 H 907.688 -4.83803 -0.325923 0
M  V30 10135 N 909.032 0.252966 -1.55557 0
M  V30 10136 C 910.281 0.979736 -1.76307 0
M  V30 10137 C 910.594 1.86714 -0.582871 0
M  V30 10138 O 911.8 2.6302 -0.673247 0
M  V30 10139 C 910.256 1.79205 -3.12112 0
M  V30 10140 C 909.864 0.952333 -4.37761 0
M  V30 10141 C 911.608 2.51191 -3.42203 0
M  V30 10142 C 909.515 1.76018 -5.64599 0
M  V30 10143 H 908.445 0.369538 -0.657235 0
M  V30 10144 H 911.096 0.234619 -1.81994 0
M  V30 10145 H 909.478 2.57888 -3.00515 0
M  V30 10146 H 910.652 0.208251 -4.60329 0
M  V30 10147 H 908.967 0.346082 -4.14959 0
M  V30 10148 H 911.564 3.12074 -4.34182 0
M  V30 10149 H 911.907 3.22499 -2.63249 0
M  V30 10150 H 912.44 1.79523 -3.54988 0
M  V30 10151 H 909.179 1.09095 -6.46358 0
M  V30 10152 H 908.699 2.4797 -5.46142 0
M  V30 10153 H 910.378 2.32884 -6.03634 0
M  V30 10154 N 910.51 1.48831 0.518367 0
M  V30 10155 C 911.738 1.6112 1.298 0
M  V30 10156 C 912.153 0.275872 1.86774 0
M  V30 10157 O 911.51 -0.736416 1.66983 0
M  V30 10158 C 911.561 2.66675 2.44063 0
M  V30 10159 O 911.282 3.95027 1.89434 0
M  V30 10160 C 912.783 2.8951 3.35706 0
M  V30 10161 H 910.003 0.542916 0.394314 0
M  V30 10162 H 912.547 1.94743 0.624142 0
M  V30 10163 H 910.702 2.35879 3.07311 0
M  V30 10164 H 911.116 4.53031 2.64316 0
M  V30 10165 H 912.59 3.67142 4.12202 0
M  V30 10166 H 913.067 1.98768 3.91648 0
M  V30 10167 H 913.673 3.21656 2.7824 0
M  V30 10168 N 911.988 -0.768124 1.37614 0
M  V30 10169 C 913.235 -1.5268 1.33022 0
M  V30 10170 C 913.563 -1.94318 -0.0841918 0
M  V30 10171 O 912.818 -1.64623 -1.0582 0
M  V30 10172 C 913.117 -2.80204 2.21856 0
M  V30 10173 C 912.783 -2.57602 3.7007 0
M  V30 10174 C 911.445 -2.51146 4.10462 0
M  V30 10175 C 913.797 -2.37482 4.63952 0
M  V30 10176 C 911.125 -2.22566 5.42846 0
M  V30 10177 C 913.477 -2.10425 5.96577 0
M  V30 10178 C 912.141 -2.02416 6.36069 0
M  V30 10179 H 911.411 -0.558697 0.486763 0
M  V30 10180 H 914.058 -0.88447 1.69851 0
M  V30 10181 H 912.363 -3.49014 1.78034 0
M  V30 10182 H 914.06 -3.38099 2.15615 0
M  V30 10183 H 910.65 -2.63491 3.38039 0
M  V30 10184 H 914.834 -2.41457 4.33604 0
M  V30 10185 H 910.09 -2.14863 5.72402 0
M  V30 10186 H 914.264 -1.93857 6.68874 0
M  V30 10187 H 911.891 -1.80034 7.38574 0
M  V30 10188 N 913.466 -1.22244 -0.994698 0
M  V30 10189 C 914.414 -0.988118 -2.10568 0
M  V30 10190 C 915.408 0.0681541 -1.69263 0
M  V30 10191 O 916.614 -0.0841311 -1.79803 0
M  V30 10192 H 912.989 -0.302343 -0.688544 0
M  V30 10193 H 914.96 -1.93091 -2.27505 0
M  V30 10194 C 913.709 -0.580557 -3.42819 0
M  V30 10195 H 913.032 -1.385 -3.75044 0
M  V30 10196 H 914.472 -0.456004 -4.21541 0
M  V30 10197 C 912.931 0.709692 -3.2934 0
M  V30 10198 O 913.461 1.76259 -3.60965 0
M  V30 10199 N 911.667 0.680155 -2.82528 0
M  V30 10200 H 911.214 -0.176977 -2.56991 0
M  V30 10201 H 911.172 1.54372 -2.73892 0
M  V30 10202 N 914.944 1.19125 -1.03184 0
M  V30 10203 C 916.19 1.89163 -0.731111 0
M  V30 10204 C 916.523 1.79604 0.738662 0
M  V30 10205 O 915.798 1.19037 1.53819 0
M  V30 10206 C 916.081 3.39986 -1.18666 0
M  V30 10207 C 915.934 3.58401 -2.71788 0
M  V30 10208 C 917.253 4.33316 -0.769772 0
M  V30 10209 H 914.372 0.686908 -0.267069 0
M  V30 10210 H 917.014 1.40205 -1.28229 0
M  V30 10211 H 915.164 3.81813 -0.717736 0
M  V30 10212 H 916.836 3.25727 -3.26649 0
M  V30 10213 H 915.079 3.01355 -3.12038 0
M  V30 10214 H 915.75 4.64189 -2.98719 0
M  V30 10215 H 918.226 3.9922 -1.17314 0
M  V30 10216 H 917.102 5.37427 -1.11637 0
M  V30 10217 H 917.363 4.40884 0.327681 0
M  V30 10218 N 916.422 0.810101 1.35185 0
M  V30 10219 C 917.372 0.195541 2.2716 0
M  V30 10220 C 918.356 -0.632691 1.47939 0
M  V30 10221 O 919.548 -0.489372 1.701 0
M  V30 10222 C 916.677 -0.652164 3.37049 0
M  V30 10223 C 915.763 0.185989 4.23692 0
M  V30 10224 N 916.154 1.25073 4.90092 0
M  V30 10225 C 914.452 -0.0318033 4.45989 0
M  V30 10226 C 915.153 1.76272 5.54349 0
M  V30 10227 N 914.129 1.06861 5.32993 0
M  V30 10228 H 917.931 1.01018 2.75994 0
M  V30 10229 H 915.445 0.651612 1.48754 0
M  V30 10230 H 917.442 -1.10851 4.01893 0
M  V30 10231 H 916.102 -1.46511 2.89767 0
M  V30 10232 H 917.113 1.63341 4.91467 0
M  V30 10233 H 913.79 -0.813607 4.09496 0
M  V30 10234 H 915.18 2.65278 6.17315 0
M  V30 10235 N 917.9 -1.47166 0.563914 0
M  V30 10236 C 918.848 -2.31798 -0.193009 0
M  V30 10237 C 919.842 -1.43338 -0.902805 0
M  V30 10238 O 921.048 -1.60067 -0.823328 0
M  V30 10239 H 917.423 -0.747613 -0.0811139 0
M  V30 10240 H 919.394 -2.93476 0.539876 0
M  V30 10241 C 918.143 -3.26131 -1.20555 0
M  V30 10242 H 917.466 -3.94166 -0.668803 0
M  V30 10243 H 918.906 -3.88167 -1.70593 0
M  V30 10244 C 917.365 -2.50132 -2.25689 0
M  V30 10245 O 917.895 -2.25064 -3.3273 0
M  V30 10246 N 916.101 -2.11022 -1.99795 0
M  V30 10247 H 915.648 -2.3161 -1.1276 0
M  V30 10248 H 915.606 -1.60489 -2.70353 0
M  V30 10249 N 919.378 -0.300708 -1.54705 0
M  V30 10250 C 920.794 0.0526874 -1.59513 0
M  V30 10251 C 920.994 1.52444 -1.31769 0
M  V30 10252 O 920.05 2.27716 -1.09096 0
M  V30 10253 C 921.363 -0.344989 -2.98714 0
M  V30 10254 C 922.911 -0.29373 -3.11619 0
M  V30 10255 C 923.386 -0.666225 -4.53129 0
M  V30 10256 N 924.877 -0.618749 -4.59049 0
M  V30 10257 C 925.612 -0.879447 -5.66616 0
M  V30 10258 N 925.108 -1.2061 -6.82221 0
M  V30 10259 N 926.901 -0.806528 -5.56284 0
M  V30 10260 H 919.052 -1.25988 -1.71 0
M  V30 10261 H 921.315 -0.510758 -0.798643 0
M  V30 10262 H 921.021 -1.36953 -3.2394 0
M  V30 10263 H 920.895 0.301507 -3.75993 0
M  V30 10264 H 923.282 0.72156 -2.86142 0
M  V30 10265 H 923.363 -0.974844 -2.36496 0
M  V30 10266 H 923.007 -1.67932 -4.79334 0
M  V30 10267 H 922.937 0.0369575 -5.26587 0
M  V30 10268 H 925.428 -0.377202 -3.76013 0
M  V30 10269 H 925.741 -1.391 -7.60178 0
M  V30 10270 H 924.086 -1.24413 -6.83774 0
M  V30 10271 H 927.277 -0.550993 -4.64846 0
M  V30 10272 H 927.45 -1.01307 -6.40032 0
M  V30 10273 N 920.856 1.57574 -0.0284266 0
M  V30 10274 C 922.086 1.95787 0.659617 0
M  V30 10275 C 922.494 0.903475 1.66235 0
M  V30 10276 O 921.837 -0.12329 1.83286 0
M  V30 10277 C 921.899 3.30139 1.42298 0
M  V30 10278 C 921.563 4.53322 0.578658 0
M  V30 10279 C 922.56 5.19696 -0.145751 0
M  V30 10280 C 920.245 4.9964 0.516264 0
M  V30 10281 C 922.239 6.30708 -0.921235 0
M  V30 10282 C 919.926 6.10534 -0.262925 0
M  V30 10283 C 920.924 6.75927 -0.980382 0
M  V30 10284 O 920.612 7.84692 -1.7468 0
M  V30 10285 H 920.344 0.649681 0.186792 0
M  V30 10286 H 922.898 2.05227 -0.0842687 0
M  V30 10287 H 921.128 3.17188 2.21199 0
M  V30 10288 H 922.817 3.53259 1.99906 0
M  V30 10289 H 923.583 4.84882 -0.106876 0
M  V30 10290 H 919.462 4.48547 1.06427 0
M  V30 10291 H 923.006 6.81682 -1.48176 0
M  V30 10292 H 918.903 6.44786 -0.303519 0
M  V30 10293 H 919.671 8.01355 -1.6665 0
M  V30 10294 N 922.334 -0.244713 1.55689 0
M  V30 10295 C 923.297 -1.2864 1.89695 0
M  V30 10296 C 924.297 -1.40969 0.773583 0
M  V30 10297 O 925.487 -1.39632 1.04156 0
M  V30 10298 C 922.619 -2.66379 2.12732 0
M  V30 10299 H 923.812 -0.997033 2.82841 0
M  V30 10300 H 921.365 -0.484103 1.48614 0
M  V30 10301 H 922.1 -3.00452 1.22062 0
M  V30 10302 H 921.885 -2.58812 2.94549 0
M  V30 10303 H 923.375 -3.41592 2.40218 0
M  V30 10304 N 923.813 -1.49104 -0.510467 0
M  V30 10305 C 925.038 -1.62068 -1.29417 0
M  V30 10306 C 925.463 -0.288432 -1.85875 0
M  V30 10307 O 924.821 0.742667 -1.65391 0
M  V30 10308 C 924.869 -2.68506 -2.40701 0
M  V30 10309 O 923.973 -2.27021 -3.4429 0
M  V30 10310 H 923.314 -0.542778 -0.382476 0
M  V30 10311 H 925.844 -1.95228 -0.612154 0
M  V30 10312 H 925.854 -2.90383 -2.86604 0
M  V30 10313 H 924.529 -3.65216 -1.98973 0
M  V30 10314 H 923.106 -2.15436 -3.04371 0
M  V30 10315 N 925.291 0.760815 -1.38019 0
M  V30 10316 C 926.239 1.89578 -1.34771 0
M  V30 10317 C 927.233 1.67766 -0.234714 0
M  V30 10318 O 928.439 1.75423 -0.403352 0
M  V30 10319 H 924.814 0.623608 -0.420258 0
M  V30 10320 H 926.785 1.89434 -2.30558 0
M  V30 10321 C 925.534 3.26976 -1.18246 0
M  V30 10322 H 924.857 3.44342 -2.03147 0
M  V30 10323 H 926.297 4.06657 -1.20026 0
M  V30 10324 C 924.756 3.36717 0.111145 0
M  V30 10325 O 925.286 3.86607 1.09079 0
M  V30 10326 N 923.492 2.90128 0.165542 0
M  V30 10327 H 923.039 2.49719 -0.632328 0
M  V30 10328 H 922.997 2.97026 1.03067 0
M  V30 10329 N 926.769 1.22769 0.988202 0
M  V30 10330 C 928.018 1.0492 1.72263 0
M  V30 10331 C 928.331 -0.415282 1.91141 0
M  V30 10332 O 929.537 -0.713547 2.61956 0
M  V30 10333 C 927.993 1.82891 3.09966 0
M  V30 10334 C 927.601 3.33618 2.99003 0
M  V30 10335 C 929.345 1.73505 3.87423 0
M  V30 10336 C 927.252 4.04012 4.3189 0
M  V30 10337 H 926.182 0.38899 0.645912 0
M  V30 10338 H 928.833 1.46664 1.10281 0
M  V30 10339 H 927.215 1.33948 3.72658 0
M  V30 10340 H 928.389 3.8999 2.45448 0
M  V30 10341 H 926.704 3.43732 2.35027 0
M  V30 10342 H 929.301 2.23416 4.85787 0
M  V30 10343 H 929.644 0.696344 4.10435 0
M  V30 10344 H 930.177 2.20016 3.31418 0
M  V30 10345 H 926.916 5.08155 4.14075 0
M  V30 10346 H 926.436 3.52428 4.8534 0
M  V30 10347 H 928.115 4.0987 5.00615 0
M  V30 10348 N 928.247 -1.18576 1.03814 0
M  V30 10349 C 929.493 -1.88773 0.741132 0
M  V30 10350 C 929.826 -1.79993 -0.729127 0
M  V30 10351 O 929.101 -1.19851 -1.53186 0
M  V30 10352 C 929.384 -3.39352 1.20468 0
M  V30 10353 C 929.237 -3.56955 2.73684 0
M  V30 10354 C 930.556 -4.32901 0.792741 0
M  V30 10355 H 927.675 -0.685482 0.270708 0
M  V30 10356 H 930.317 -1.39523 1.2897 0
M  V30 10357 H 928.467 -3.81427 0.737974 0
M  V30 10358 H 930.139 -3.2399 3.28372 0
M  V30 10359 H 928.382 -2.99696 3.13632 0
M  V30 10360 H 929.053 -4.62598 3.01176 0
M  V30 10361 H 931.529 -3.98592 1.1943 0
M  V30 10362 H 930.405 -5.36828 1.14486 0
M  V30 10363 H 930.666 -4.41052 -0.304295 0
M  V30 10364 N 929.725 -0.817259 -1.34754 0
M  V30 10365 C 930.635 -0.236946 -2.334 0
M  V30 10366 C 931.651 0.625685 -1.62361 0
M  V30 10367 O 932.827 0.534921 -1.94166 0
M  V30 10368 C 929.892 0.596215 -3.41535 0
M  V30 10369 C 928.953 -0.288154 -4.28332 0
M  V30 10370 C 928.186 0.505337 -5.31302 0
M  V30 10371 O 928.409 1.73912 -5.43241 0
M  V30 10372 O 927.343 -0.109374 -6.01801 0
M  V30 10373 H 931.169 -1.05327 -2.84851 0
M  V30 10374 H 928.754 -0.579275 -1.37713 0
M  V30 10375 H 930.636 1.07041 -4.07578 0
M  V30 10376 H 929.311 1.38997 -2.92338 0
M  V30 10377 H 928.218 -0.809724 -3.65232 0
M  V30 10378 H 929.551 -1.04612 -4.80955 0
M  V30 10379 N 931.203 1.46865 -0.571711 0
M  V30 10380 C 932.428 2.07323 -0.0564655 0
M  V30 10381 C 932.853 1.41938 1.23431 0
M  V30 10382 O 932.211 0.499334 1.74288 0
M  V30 10383 C 932.259 3.6044 0.107339 0
M  V30 10384 O 931.363 3.95558 1.1665 0
M  V30 10385 H 930.704 0.661475 -0.0578465 0
M  V30 10386 H 933.234 1.88669 -0.791524 0
M  V30 10387 H 933.244 4.06767 0.316987 0
M  V30 10388 H 931.919 4.07425 -0.835348 0
M  V30 10389 H 930.496 3.60957 0.936189 0
M  V30 10390 N 932.681 0.308908 1.54543 0
M  V30 10391 C 933.644 -0.550857 2.22482 0
M  V30 10392 C 934.644 -1.0551 1.21344 0
M  V30 10393 O 935.834 -0.949866 1.46025 0
M  V30 10394 C 932.966 -1.76354 2.9174 0
M  V30 10395 H 934.159 0.0428395 2.99869 0
M  V30 10396 H 931.712 0.059825 1.56185 0
M  V30 10397 H 932.447 -2.39686 2.18451 0
M  V30 10398 H 932.232 -1.40954 3.65889 0
M  V30 10399 H 933.722 -2.37417 3.43545 0
M  V30 10400 N 934.159 -1.57557 0.0367827 0
M  V30 10401 C 935.389 -1.96134 -0.649225 0
M  V30 10402 C 935.797 -0.912279 -1.65753 0
M  V30 10403 O 935.14 0.113569 -1.83349 0
M  V30 10404 C 935.202 -3.30889 -1.40545 0
M  V30 10405 C 934.866 -4.53622 -0.554609 0
M  V30 10406 C 935.863 -5.19611 0.17331 0
M  V30 10407 C 933.548 -4.99907 -0.48976 0
M  V30 10408 C 935.542 -6.3021 0.95467 0
M  V30 10409 C 933.229 -6.10386 0.295299 0
M  V30 10410 C 934.227 -6.75398 1.01621 0
M  V30 10411 O 933.915 -7.83755 1.78839 0
M  V30 10412 H 933.647 -0.650662 -0.183344 0
M  V30 10413 H 936.201 -2.05179 0.0951512 0
M  V30 10414 H 934.431 -3.18356 -2.19513 0
M  V30 10415 H 936.12 -3.54315 -1.9803 0
M  V30 10416 H 936.886 -4.84819 0.132589 0
M  V30 10417 H 932.765 -4.49105 -1.04046 0
M  V30 10418 H 936.309 -6.80886 1.51789 0
M  V30 10419 H 932.206 -6.44616 0.33771 0
M  V30 10420 H 932.974 -8.0046 1.70898 0
M  V30 10421 N 935.637 0.236453 -1.55816 0
M  V30 10422 C 936.567 1.29639 -1.94206 0
M  V30 10423 C 937.548 1.49667 -0.808319 0
M  V30 10424 O 938.733 1.621 -1.06945 0
M  V30 10425 C 935.863 2.64914 -2.24584 0
M  V30 10426 C 934.817 2.59565 -3.40308 0
M  V30 10427 C 934.143 3.98732 -3.56254 0
M  V30 10428 C 935.443 2.15642 -4.75706 0
M  V30 10429 H 937.137 0.977552 -2.82992 0
M  V30 10430 H 934.683 0.468804 -1.36155 0
M  V30 10431 H 936.636 3.39209 -2.50031 0
M  V30 10432 H 935.36 2.98455 -1.32636 0
M  V30 10433 H 934.019 1.87728 -3.14887 0
M  V30 10434 H 933.667 4.29556 -2.61707 0
M  V30 10435 H 933.367 3.96039 -4.34082 0
M  V30 10436 H 934.891 4.74711 -3.84033 0
M  V30 10437 H 936.305 2.79673 -5.00456 0
M  V30 10438 H 934.702 2.24039 -5.56711 0
M  V30 10439 H 935.772 1.10831 -4.72064 0
M  V30 10440 N 937.115 1.49373 0.502552 0
M  V30 10441 C 938.364 1.58028 1.25339 0
M  V30 10442 C 938.677 0.271494 1.93707 0
M  V30 10443 O 939.883 0.236584 2.70467 0
M  V30 10444 C 938.339 2.78817 2.27572 0
M  V30 10445 C 937.947 4.16448 1.65151 0
M  V30 10446 C 939.691 2.96802 3.03494 0
M  V30 10447 C 937.598 5.28461 2.65486 0
M  V30 10448 H 936.528 0.588396 0.471494 0
M  V30 10449 H 939.179 1.75756 0.52744 0
M  V30 10450 H 937.561 2.5458 3.03323 0
M  V30 10451 H 938.735 4.50816 0.954029 0
M  V30 10452 H 937.05 4.03809 1.01625 0
M  V30 10453 H 939.647 3.77656 3.78524 0
M  V30 10454 H 939.99 2.07303 3.61014 0
M  V30 10455 H 940.523 3.21071 2.34858 0
M  V30 10456 H 937.262 6.20015 2.12749 0
M  V30 10457 H 936.782 4.9855 3.33479 0
M  V30 10458 H 938.461 5.5773 3.27943 0
M  V30 10459 N 938.594 -0.753485 1.38421 0
M  V30 10460 C 939.524 -1.8808 1.38377 0
M  V30 10461 C 940.505 -1.68258 0.249664 0
M  V30 10462 O 941.69 -1.88848 0.45276 0
M  V30 10463 C 938.82 -3.25608 1.20818 0
M  V30 10464 C 937.774 -3.60032 2.31433 0
M  V30 10465 C 937.1 -4.96297 1.9898 0
M  V30 10466 C 938.4 -3.64898 3.73694 0
M  V30 10467 H 940.094 -1.88375 2.32713 0
M  V30 10468 H 937.64 -0.90489 1.12017 0
M  V30 10469 H 939.593 -4.04127 1.19412 0
M  V30 10470 H 938.317 -3.25793 0.229433 0
M  V30 10471 H 936.976 -2.83831 2.32025 0
M  V30 10472 H 936.624 -4.93043 0.995889 0
M  V30 10473 H 936.324 -5.20298 2.73063 0
M  V30 10474 H 937.848 -5.77196 1.99193 0
M  V30 10475 H 939.262 -4.33531 3.75132 0
M  V30 10476 H 937.659 -4.00407 4.46983 0
M  V30 10477 H 938.729 -2.65124 4.06002 0
M  V30 10478 N 940.072 -1.23292 -0.981677 0
M  V30 10479 C 941.02 -1.0104 -2.09508 0
M  V30 10480 C 942.014 0.0501977 -1.69326 0
M  V30 10481 O 943.22 -0.103197 -1.79704 0
M  V30 10482 H 939.595 -0.309629 -0.685298 0
M  V30 10483 H 941.566 -1.95493 -2.25444 0
M  V30 10484 C 940.315 -0.616885 -3.42184 0
M  V30 10485 H 939.638 -1.4247 -3.73554 0
M  V30 10486 H 941.078 -0.500688 -4.21033 0
M  V30 10487 C 939.537 0.674721 -3.30074 0
M  V30 10488 O 940.067 1.72421 -3.62814 0
M  V30 10489 N 938.273 0.650151 -2.83234 0
M  V30 10490 H 937.82 -0.204225 -2.56789 0
M  V30 10491 H 937.778 1.51458 -2.75514 0
M  V30 10492 N 941.55 1.18024 -1.04442 0
M  V30 10493 C 942.46 2.25436 -0.649276 0
M  V30 10494 C 943.476 1.70915 0.326189 0
M  V30 10495 O 944.652 2.00592 0.180174 0
M  V30 10496 C 941.717 3.46693 -0.0222558 0
M  V30 10497 C 940.778 4.16332 -1.0472 0
M  V30 10498 C 940.011 5.31799 -0.450011 0
M  V30 10499 O 940.234 5.65544 0.742717 0
M  V30 10500 O 939.168 5.90209 -1.18056 0
M  V30 10501 H 942.994 2.61508 -1.54426 0
M  V30 10502 H 940.579 1.25178 -0.81552 0
M  V30 10503 H 942.461 4.20132 0.326597 0
M  V30 10504 H 941.136 3.12436 0.84649 0
M  V30 10505 H 940.043 3.44944 -1.44792 0
M  V30 10506 H 941.376 4.54598 -1.88684 0
M  V30 10507 N 943.028 0.824394 1.34319 0
M  V30 10508 C 944.274 0.422964 1.98954 0
M  V30 10509 C 944.629 -1.00323 1.64174 0
M  V30 10510 O 943.922 -1.6894 0.903869 0
M  V30 10511 C 944.116 0.564024 3.52921 0
M  V30 10512 C 943.945 2.00238 4.0266 0
M  V30 10513 C 942.715 2.63457 4.31183 0
M  V30 10514 C 944.913 2.9693 4.19925 0
M  V30 10515 N 942.895 3.98518 4.66966 0
M  V30 10516 C 944.266 4.16901 4.58904 0
M  V30 10517 C 946.321 2.93527 4.02177 0
M  V30 10518 C 945.024 5.33926 4.81991 0
M  V30 10519 C 947.05 4.09769 4.26431 0
M  V30 10520 C 946.412 5.28493 4.65698 0
M  V30 10521 H 942.511 0.202907 0.755217 0
M  V30 10522 H 945.095 1.0694 1.62702 0
M  V30 10523 H 943.266 -0.0525268 3.88364 0
M  V30 10524 H 944.998 0.135451 4.04473 0
M  V30 10525 H 941.753 2.14688 4.22145 0
M  V30 10526 H 942.177 4.68103 4.8909 0
M  V30 10527 H 946.819 2.02878 3.70945 0
M  V30 10528 H 944.537 6.25132 5.12089 0
M  V30 10529 H 948.123 4.08537 4.14233 0
M  V30 10530 H 947.003 6.16945 4.84096 0
M  V30 10531 N 944.506 -1.46559 0.579492 0
M  V30 10532 C 945.453 -2.30275 -0.155598 0
M  V30 10533 C 946.423 -1.40422 -0.887175 0
M  V30 10534 O 947.608 -1.69373 -0.878481 0
M  V30 10535 C 944.748 -3.24827 -1.16539 0
M  V30 10536 C 943.861 -4.29778 -0.43759 0
M  V30 10537 C 942.996 -5.11461 -1.43462 0
M  V30 10538 C 942.035 -6.08164 -0.693048 0
M  V30 10539 N 941.172 -6.82726 -1.63799 0
M  V30 10540 H 946.012 -2.92607 0.564356 0
M  V30 10541 H 943.549 -1.44211 0.290126 0
M  V30 10542 H 945.507 -3.78088 -1.76368 0
M  V30 10543 H 944.137 -2.64311 -1.8531 0
M  V30 10544 H 943.189 -3.794 0.27567 0
M  V30 10545 H 944.501 -4.98597 0.142298 0
M  V30 10546 H 943.655 -5.68982 -2.1058 0
M  V30 10547 H 942.394 -4.42595 -2.04844 0
M  V30 10548 H 941.399 -5.49799 -0.00807093 0
M  V30 10549 H 942.624 -6.79047 -0.0846678 0
M  V30 10550 H 940.57 -6.16572 -2.23997 0
M  V30 10551 H 940.487 -7.47795 -1.11082 0
M  V30 10552 H 941.755 -7.44807 -2.29962 0
M  V30 10553 N 945.984 -0.3171 -1.54377 0
M  V30 10554 C 946.932 0.567371 -2.25574 0
M  V30 10555 C 947.926 1.12387 -1.2675 0
M  V30 10556 O 949.132 1.07266 -1.44548 0
M  V30 10557 H 945.507 0.201605 -0.724472 0
M  V30 10558 H 947.478 -0.0554644 -2.98348 0
M  V30 10559 C 946.227 1.71984 -3.02187 0
M  V30 10560 H 945.55 1.30086 -3.78044 0
M  V30 10561 H 946.99 2.31443 -3.5526 0
M  V30 10562 C 945.449 2.6336 -2.10103 0
M  V30 10563 O 945.979 3.64899 -1.67962 0
M  V30 10564 N 944.185 2.3145 -1.75725 0
M  V30 10565 H 943.732 1.48921 -2.10191 0
M  V30 10566 H 943.69 2.92852 -1.14391 0
M  V30 10567 N 947.462 1.57535 -0.0451378 0
M  V30 10568 C 948.41 2.12351 0.949205 0
M  V30 10569 C 949.404 1.05386 1.32628 0
M  V30 10570 O 950.61 1.23802 1.30664 0
M  V30 10571 H 946.985 0.678648 0.323945 0
M  V30 10572 H 948.956 2.94806 0.461718 0
M  V30 10573 C 947.705 2.67862 2.21687 0
M  V30 10574 H 947.028 3.49826 1.93551 0
M  V30 10575 H 948.468 3.09844 2.89435 0
M  V30 10576 C 946.927 1.61353 2.95748 0
M  V30 10577 O 947.457 1.02276 3.88462 0
M  V30 10578 N 945.663 1.33017 2.5837 0
M  V30 10579 H 945.21 1.81246 1.83051 0
M  V30 10580 H 945.168 0.619812 3.0823 0
M  V30 10581 N 948.94 -0.228186 1.55939 0
M  V30 10582 C 950.189 -0.951563 1.77843 0
M  V30 10583 C 950.502 -1.85763 0.612501 0
M  V30 10584 O 951.708 -2.61916 0.715006 0
M  V30 10585 C 950.164 -1.74216 3.14923 0
M  V30 10586 C 949.772 -0.882569 4.39221 0
M  V30 10587 C 951.516 -2.45715 3.46156 0
M  V30 10588 C 949.423 -1.67014 5.67327 0
M  V30 10589 H 948.353 -0.359035 0.663031 0
M  V30 10590 H 951.004 -0.205636 1.82344 0
M  V30 10591 H 949.386 -2.53075 3.0458 0
M  V30 10592 H 950.56 -0.13499 4.60602 0
M  V30 10593 H 948.875 -0.280022 4.15457 0
M  V30 10594 H 951.472 -3.05127 4.39092 0
M  V30 10595 H 951.815 -3.1827 2.68346 0
M  V30 10596 H 952.348 -1.73852 3.57799 0
M  V30 10597 H 949.087 -0.987985 6.48012 0
M  V30 10598 H 948.607 -2.3925 5.50018 0
M  V30 10599 H 950.286 -2.23252 6.07262 0
M  V30 10600 N 950.418 -1.49637 -0.494624 0
M  V30 10601 C 951.35 -1.62902 -1.61231 0
M  V30 10602 C 952.363 -0.511425 -1.54558 0
M  V30 10603 O 953.552 -0.783724 -1.60375 0
M  V30 10604 C 950.652 -1.57564 -3.00045 0
M  V30 10605 C 949.825 -2.84964 -3.31835 0
M  V30 10606 C 948.884 -2.72591 -4.5009 0
M  V30 10607 O 947.91 -3.46532 -4.51558 0
M  V30 10608 N 949.112 -1.84563 -5.50379 0
M  V30 10609 H 951.877 -2.59301 -1.50276 0
M  V30 10610 H 949.438 -1.46806 -0.68262 0
M  V30 10611 H 951.43 -1.46932 -3.77085 0
M  V30 10612 H 950 -0.689974 -3.0489 0
M  V30 10613 H 949.22 -3.099 -2.4363 0
M  V30 10614 H 950.508 -3.69412 -3.49875 0
M  V30 10615 H 949.906 -1.23758 -5.51997 0
M  V30 10616 H 948.463 -1.79849 -6.26496 0
M  V30 10617 N 951.896 0.746133 -1.38819 0
M  V30 10618 C 953.121 1.54049 -1.38866 0
M  V30 10619 C 953.546 1.88092 0.0176624 0
M  V30 10620 O 952.904 1.51113 1.00173 0
M  V30 10621 C 952.952 2.8116 -2.25791 0
M  V30 10622 O 952.056 3.76623 -1.68014 0
M  V30 10623 H 951.397 0.465648 -0.473359 0
M  V30 10624 H 953.927 0.921469 -1.82675 0
M  V30 10625 H 953.937 3.30009 -2.39913 0
M  V30 10626 H 952.612 2.55713 -3.27999 0
M  V30 10627 H 951.189 3.35352 -1.63074 0
M  V30 10628 N 953.375 1.23811 0.975125 0
M  V30 10629 C 954.652 0.9815 1.69192 0
M  V30 10630 C 955.032 -0.498373 2.05133 0
M  V30 10631 O 954.38 -1.47087 1.74864 0
M  V30 10632 C 954.59 1.89701 2.92941 0
M  V30 10633 C 955.938 2.16357 3.65342 0
M  V30 10634 O 956.962 1.87293 3.02985 0
M  V30 10635 O 955.821 2.65675 4.77576 0
M  V30 10636 H 952.915 0.370599 0.739314 0
M  V30 10637 H 955.461 1.34876 1.02988 0
M  V30 10638 H 954.233 2.89719 2.63018 0
M  V30 10639 H 953.856 1.53244 3.66881 0
M  V30 10640 N 954.853 -1.17469 1.05066 0
M  V30 10641 C 955.783 -2.23635 0.671552 0
M  V30 10642 C 956.764 -1.66867 -0.33006 0
M  V30 10643 O 957.949 -1.93084 -0.207933 0
M  V30 10644 C 955.079 -3.47272 0.0441845 0
M  V30 10645 C 954.033 -4.16854 0.97042 0
M  V30 10646 C 953.359 -5.34299 0.206998 0
M  V30 10647 C 954.659 -4.69225 2.29401 0
M  V30 10648 H 956.353 -2.55602 1.55911 0
M  V30 10649 H 953.899 -1.2286 0.751101 0
M  V30 10650 H 955.852 -4.20756 -0.23282 0
M  V30 10651 H 954.576 -3.14568 -0.878311 0
M  V30 10652 H 953.235 -3.4528 1.23197 0
M  V30 10653 H 952.883 -4.97846 -0.718222 0
M  V30 10654 H 952.583 -5.81792 0.82416 0
M  V30 10655 H 954.107 -6.10568 -0.0627525 0
M  V30 10656 H 955.521 -5.34353 2.077 0
M  V30 10657 H 953.918 -5.27291 2.86503 0
M  V30 10658 H 954.988 -3.86102 2.93348 0
M  V30 10659 N 956.331 -0.831506 -1.3388 0
M  V30 10660 C 957.58 -0.420028 -1.97278 0
M  V30 10661 C 957.893 1.02441 -1.66629 0
M  V30 10662 O 959.099 1.54021 -2.23584 0
M  V30 10663 C 957.555 -0.700116 -3.53025 0
M  V30 10664 C 957.163 -2.15874 -3.92559 0
M  V30 10665 C 958.907 -0.355226 -4.23011 0
M  V30 10666 C 956.814 -2.38327 -5.41252 0
M  V30 10667 H 955.744 -0.153326 -0.738246 0
M  V30 10668 H 958.395 -1.01906 -1.52602 0
M  V30 10669 H 956.777 -0.0308044 -3.95988 0
M  V30 10670 H 957.951 -2.86792 -3.60675 0
M  V30 10671 H 956.266 -2.4659 -3.35533 0
M  V30 10672 H 958.863 -0.500701 -5.32351 0
M  V30 10673 H 959.206 0.70111 -4.10354 0
M  V30 10674 H 959.739 -0.979466 -3.85553 0
M  V30 10675 H 956.478 -3.42498 -5.58906 0
M  V30 10676 H 955.998 -1.71962 -5.74621 0
M  V30 10677 H 957.677 -2.21113 -6.08045 0
M  V30 10678 N 957.809 1.4625 -0.587256 0
M  V30 10679 C 958.756 2.30354 0.143384 0
M  V30 10680 C 959.726 1.40891 0.879716 0
M  V30 10681 O 960.911 1.69837 0.869486 0
M  V30 10682 C 958.051 3.25441 1.14815 0
M  V30 10683 C 957.164 4.30004 0.414792 0
M  V30 10684 C 956.299 5.12214 1.40748 0
M  V30 10685 C 955.338 6.08523 0.660786 0
M  V30 10686 N 954.475 6.83585 1.60176 0
M  V30 10687 H 959.315 2.92304 -0.579866 0
M  V30 10688 H 956.852 1.44055 -0.29777 0
M  V30 10689 H 958.81 3.79018 1.7436 0
M  V30 10690 H 957.44 2.6529 1.83906 0
M  V30 10691 H 956.492 3.79248 -0.295787 0
M  V30 10692 H 957.804 4.98515 -0.168738 0
M  V30 10693 H 956.958 5.70091 2.0756 0
M  V30 10694 H 955.697 4.43675 2.02494 0
M  V30 10695 H 954.702 5.49796 -0.0210864 0
M  V30 10696 H 955.927 6.79083 0.0486551 0
M  V30 10697 H 953.873 6.17752 2.20724 0
M  V30 10698 H 953.79 7.48373 1.07115 0
M  V30 10699 H 955.058 7.46016 2.26009 0
M  V30 10700 N 959.287 0.325282 1.54207 0
M  V30 10701 C 960.234 -0.539889 2.24397 0
M  V30 10702 C 961.204 -1.11028 1.2354 0
M  V30 10703 O 962.389 -1.1503 1.52226 0
M  V30 10704 C 959.529 -1.69405 3.00659 0
M  V30 10705 C 958.642 -1.15273 4.16337 0
M  V30 10706 C 957.777 -2.27272 4.80126 0
M  V30 10707 C 956.816 -1.70397 5.87904 0
M  V30 10708 N 955.953 -2.76065 6.45548 0
M  V30 10709 H 960.793 0.0652318 2.97929 0
M  V30 10710 H 958.33 0.043964 1.47034 0
M  V30 10711 H 960.288 -2.37325 3.43122 0
M  V30 10712 H 958.918 -2.27043 2.29458 0
M  V30 10713 H 957.97 -0.365034 3.78645 0
M  V30 10714 H 959.282 -0.696576 4.93912 0
M  V30 10715 H 958.436 -3.03092 5.25566 0
M  V30 10716 H 957.175 -2.76224 4.01935 0
M  V30 10717 H 956.18 -0.930752 5.41864 0
M  V30 10718 H 957.405 -1.22319 6.67993 0
M  V30 10719 H 955.351 -3.24306 5.7023 0
M  V30 10720 H 955.268 -2.35018 7.18542 0
M  V30 10721 H 956.536 -3.5171 6.95644 0
M  V30 10722 N 960.765 -1.57509 0.0534917 0
M  V30 10723 C 962.011 -1.93068 -0.62069 0
M  V30 10724 C 962.344 -0.932313 -1.70357 0
M  V30 10725 O 961.619 0.0413393 -1.94456 0
M  V30 10726 C 961.902 -3.38997 -1.21463 0
M  V30 10727 C 961.755 -4.49583 -0.13965 0
M  V30 10728 C 963.074 -3.85366 -2.12558 0
M  V30 10729 H 960.193 -0.702083 -0.224163 0
M  V30 10730 H 962.835 -1.89647 0.115729 0
M  V30 10731 H 960.985 -3.42043 -1.84226 0
M  V30 10732 H 962.657 -4.58664 0.492411 0
M  V30 10733 H 960.9 -4.30525 0.532006 0
M  V30 10734 H 961.571 -5.48781 -0.595287 0
M  V30 10735 H 964.047 -3.8421 -1.59755 0
M  V30 10736 H 962.923 -4.8812 -2.51058 0
M  V30 10737 H 963.184 -3.22256 -3.02661 0
M  V30 10738 N 962.243 0.219913 -1.56058 0
M  V30 10739 C 963.471 0.960915 -1.83232 0
M  V30 10740 C 963.886 1.77878 -0.632828 0
M  V30 10741 O 963.243 1.78093 0.398624 0
M  V30 10742 C 963.294 1.87716 -3.08942 0
M  V30 10743 O 963.015 1.09235 -4.24263 0
M  V30 10744 C 964.516 2.73192 -3.49115 0
M  V30 10745 H 961.736 0.281546 -0.609075 0
M  V30 10746 H 964.28 0.234648 -2.03149 0
M  V30 10747 H 962.435 2.55736 -2.90995 0
M  V30 10748 H 962.849 1.71446 -4.95688 0
M  V30 10749 H 964.323 3.33181 -4.40107 0
M  V30 10750 H 964.8 3.45668 -2.70943 0
M  V30 10751 H 965.406 2.10583 -3.69506 0
M  V30 10752 N 963.721 1.49897 0.486681 0
M  V30 10753 C 964.669 1.68125 1.60738 0
M  V30 10754 C 965.663 0.547097 1.60322 0
M  V30 10755 O 966.869 0.727153 1.64659 0
M  V30 10756 H 963.244 0.530391 0.533094 0
M  V30 10757 H 965.215 2.62165 1.42521 0
M  V30 10758 C 963.964 1.77827 2.98786 0
M  V30 10759 H 963.287 2.6448 2.99818 0
M  V30 10760 H 964.727 1.94611 3.76699 0
M  V30 10761 C 963.186 0.526287 3.32764 0
M  V30 10762 O 963.716 -0.341607 4.00245 0
M  V30 10763 N 961.922 0.384947 2.88039 0
M  V30 10764 H 961.469 1.09222 2.33299 0
M  V30 10765 H 961.427 -0.451618 3.11139 0
M  V30 10766 N 965.199 -0.738761 1.39212 0
M  V30 10767 C 966.429 -1.5258 1.39295 0
M  V30 10768 C 966.837 -1.89194 -0.0153 0
M  V30 10769 O 966.18 -1.5435 -0.996073 0
M  V30 10770 C 966.242 -2.84462 2.19822 0
M  V30 10771 C 965.906 -2.70303 3.68491 0
M  V30 10772 C 966.903 -2.39102 4.61656 0
M  V30 10773 C 964.588 -2.87291 4.1203 0
M  V30 10774 C 966.582 -2.25066 5.96342 0
M  V30 10775 C 964.269 -2.72874 5.46793 0
M  V30 10776 C 965.267 -2.41807 6.38763 0
M  V30 10777 O 964.955 -2.27475 7.71045 0
M  V30 10778 H 964.687 -0.478236 0.477772 0
M  V30 10779 H 967.241 -0.920846 1.83602 0
M  V30 10780 H 965.471 -3.47202 1.70257 0
M  V30 10781 H 967.16 -3.46058 2.12129 0
M  V30 10782 H 967.926 -2.25632 4.2932 0
M  V30 10783 H 963.805 -3.10466 3.40781 0
M  V30 10784 H 967.349 -2.00739 6.68094 0
M  V30 10785 H 963.246 -2.85922 5.78722 0
M  V30 10786 H 964.014 -2.42574 7.81729 0
M  V30 10787 N 966.677 -1.24326 -0.968545 0
M  V30 10788 C 967.607 -1.05951 -2.08079 0
M  V30 10789 C 968.588 0.0272666 -1.70078 0
M  V30 10790 O 969.773 -0.139644 -1.93697 0
M  V30 10791 C 966.903 -0.662623 -3.4092 0
M  V30 10792 C 965.857 -1.69807 -3.92873 0
M  V30 10793 C 965.183 -1.15628 -5.22048 0
M  V30 10794 C 966.483 -3.09383 -4.20808 0
M  V30 10795 H 968.177 -1.98984 -2.23709 0
M  V30 10796 H 965.723 -0.958112 -1.075 0
M  V30 10797 H 967.676 -0.521071 -4.18166 0
M  V30 10798 H 966.4 0.303399 -3.25188 0
M  V30 10799 H 965.059 -1.82783 -3.17783 0
M  V30 10800 H 964.707 -0.180888 -5.02675 0
M  V30 10801 H 964.407 -1.84822 -5.57776 0
M  V30 10802 H 965.931 -1.02683 -6.01904 0
M  V30 10803 H 967.345 -2.99642 -4.88761 0
M  V30 10804 H 965.742 -3.75923 -4.67763 0
M  V30 10805 H 966.812 -3.57486 -3.27616 0
M  V30 10806 N 968.156 1.1691 -1.05688 0
M  V30 10807 C 969.402 1.8757 -0.771071 0
M  V30 10808 C 969.735 1.8113 0.700399 0
M  V30 10809 O 969.01 1.22273 1.5126 0
M  V30 10810 C 969.293 3.37392 -1.25851 0
M  V30 10811 C 969.146 3.52556 -2.79329 0
M  V30 10812 C 970.465 4.31585 -0.861512 0
M  V30 10813 H 967.584 0.681089 -0.281579 0
M  V30 10814 H 970.226 1.37453 -1.31174 0
M  V30 10815 H 968.376 3.80204 -0.798563 0
M  V30 10816 H 970.048 3.18725 -3.33485 0
M  V30 10817 H 968.291 2.94668 -3.1836 0
M  V30 10818 H 968.962 4.57748 -3.08498 0
M  V30 10819 H 971.438 3.96642 -1.25756 0
M  V30 10820 H 970.314 5.34939 -1.23012 0
M  V30 10821 H 970.575 4.4148 0.234089 0
M  V30 10822 N 969.634 0.838594 1.33437 0
M  V30 10823 C 970.911 0.356112 1.92331 0
M  V30 10824 C 971.291 -1.1585 1.76471 0
M  V30 10825 O 970.639 -1.97281 1.15293 0
M  V30 10826 C 970.849 0.802715 3.39643 0
M  V30 10827 C 972.197 0.810575 4.16791 0
M  V30 10828 O 973.221 0.746304 3.48294 0
M  V30 10829 O 972.08 0.898082 5.3907 0
M  V30 10830 H 969.174 0.100711 0.820845 0
M  V30 10831 H 971.72 0.924428 1.42311 0
M  V30 10832 H 970.492 1.84529 3.45057 0
M  V30 10833 H 970.115 0.210956 3.9704 0
M  V30 10834 N 971.112 -1.45937 0.595003 0
M  V30 10835 C 972.36 -2.01921 0.0851368 0
M  V30 10836 C 972.681 -1.46748 -1.28413 0
M  V30 10837 O 971.951 -0.656873 -1.84559 0
M  V30 10838 H 970.531 -0.746457 0.0284826 0
M  V30 10839 H 973.193 -1.78891 0.773561 0
M  V30 10840 H 972.289 -3.1209 0.0254002 0
M  V30 10841 N 972.59 -0.333456 -1.54032 0
M  V30 10842 C 973.538 0.543414 -2.26163 0
M  V30 10843 C 974.532 1.11037 -1.27934 0
M  V30 10844 O 975.738 1.05727 -1.45677 0
M  V30 10845 H 972.113 0.19391 -0.726569 0
M  V30 10846 H 974.084 -0.0871052 -2.98273 0
M  V30 10847 C 972.833 1.68769 -3.03994 0
M  V30 10848 H 972.156 1.26069 -3.79403 0
M  V30 10849 H 973.596 2.27662 -3.57695 0
M  V30 10850 C 972.055 2.61117 -2.12884 0
M  V30 10851 O 972.585 3.63097 -1.71823 0
M  V30 10852 N 970.791 2.29573 -1.7817 0
M  V30 10853 H 970.338 1.46684 -2.11759 0
M  V30 10854 H 970.296 2.91622 -1.1749 0
M  V30 10855 N 974.068 1.57479 -0.061844 0
M  V30 10856 C 975.316 1.92727 0.608336 0
M  V30 10857 C 975.637 0.941799 1.70749 0
M  V30 10858 O 974.907 -0.0116608 1.95897 0
M  V30 10859 H 973.487 0.71145 0.2277 0
M  V30 10860 H 976.149 1.94546 -0.117359 0
M  V30 10861 H 975.245 2.9426 1.04007 0
M  V30 10862 N 975.546 -0.211634 1.56173 0
M  V30 10863 C 976.962 -0.56177 1.49386 0
M  V30 10864 C 977.162 -1.86666 0.758813 0
M  V30 10865 O 976.218 -2.50681 0.302534 0
M  V30 10866 C 977.531 -0.631815 2.93987 0
M  V30 10867 C 979.079 -0.721773 3.04564 0
M  V30 10868 C 979.554 -0.823075 4.50544 0
M  V30 10869 N 981.045 -0.887038 4.54627 0
M  V30 10870 C 981.78 -0.985304 5.64871 0
M  V30 10871 N 981.276 -1.0469 6.84844 0
M  V30 10872 N 983.069 -1.02121 5.52746 0
M  V30 10873 H 975.22 0.64452 2.02385 0
M  V30 10874 H 977.483 0.227466 0.920306 0
M  V30 10875 H 977.189 0.257592 3.50755 0
M  V30 10876 H 977.063 -1.4921 3.46433 0
M  V30 10877 H 979.45 -1.60162 2.47855 0
M  V30 10878 H 979.531 0.164385 2.55271 0
M  V30 10879 H 979.175 0.0523511 5.07873 0
M  V30 10880 H 979.105 -1.72479 4.97552 0
M  V30 10881 H 981.596 -0.849352 3.68231 0
M  V30 10882 H 981.909 -1.12193 7.64613 0
M  V30 10883 H 980.254 -1.01586 6.87536 0
M  V30 10884 H 983.445 -0.969814 4.57943 0
M  V30 10885 H 983.618 -1.09434 6.38693 0
M  V30 10886 N 977.024 -1.50153 -0.478725 0
M  V30 10887 C 978.271 -1.6076 -1.23136 0
M  V30 10888 C 978.599 -0.30442 -1.92103 0
M  V30 10889 O 977.854 0.709213 -1.82397 0
M  V30 10890 C 978.153 -2.73208 -2.30417 0
M  V30 10891 C 977.819 -4.13953 -1.78755 0
M  V30 10892 C 976.481 -4.52251 -1.64386 0
M  V30 10893 C 978.833 -5.01949 -1.40344 0
M  V30 10894 C 976.161 -5.76292 -1.10018 0
M  V30 10895 C 978.513 -6.2653 -0.874206 0
M  V30 10896 C 977.177 -6.63637 -0.717085 0
M  V30 10897 H 976.447 -0.588264 -0.450585 0
M  V30 10898 H 979.094 -1.84061 -0.528551 0
M  V30 10899 H 977.399 -2.43965 -3.06575 0
M  V30 10900 H 979.096 -2.7862 -2.88395 0
M  V30 10901 H 975.686 -3.83736 -1.90904 0
M  V30 10902 H 979.87 -4.73 -1.50283 0
M  V30 10903 H 975.126 -6.03723 -0.965838 0
M  V30 10904 H 979.3 -6.94081 -0.567883 0
M  V30 10905 H 976.927 -7.59633 -0.293639 0
M  V30 10906 N 978.502 0.731368 -1.39602 0
M  V30 10907 C 979.748 1.49321 -1.37227 0
M  V30 10908 C 980.081 1.94176 0.0306502 0
M  V30 10909 O 979.356 1.67046 0.996294 0
M  V30 10910 C 979.639 2.73035 -2.34784 0
M  V30 10911 C 979.492 2.34176 -3.84033 0
M  V30 10912 C 980.811 3.75146 -2.30116 0
M  V30 10913 H 977.93 0.541652 -0.499783 0
M  V30 10914 H 980.572 0.835968 -1.70621 0
M  V30 10915 H 978.722 3.29114 -2.06437 0
M  V30 10916 H 980.394 1.83701 -4.23145 0
M  V30 10917 H 978.637 1.66361 -4.00633 0
M  V30 10918 H 979.308 3.22786 -4.47787 0
M  V30 10919 H 981.784 3.28661 -2.55189 0
M  V30 10920 H 980.66 4.5937 -3.00451 0
M  V30 10921 H 980.921 4.22326 -1.30741 0
M  V30 10922 N 979.98 1.24838 0.961938 0
M  V30 10923 C 981.227 1.09151 1.70564 0
M  V30 10924 C 981.555 -0.368719 1.90973 0
M  V30 10925 O 980.81 -1.28854 1.47293 0
M  V30 10926 C 981.109 1.78289 3.09754 0
M  V30 10927 C 980.775 3.28216 3.09169 0
M  V30 10928 C 979.437 3.69118 3.08716 0
M  V30 10929 C 981.789 4.24035 3.03058 0
M  V30 10930 C 979.117 5.04263 2.99892 0
M  V30 10931 C 981.469 5.59195 2.95776 0
M  V30 10932 C 980.133 5.99436 2.93655 0
M  V30 10933 H 979.403 0.399414 0.624139 0
M  V30 10934 H 982.05 1.55016 1.12438 0
M  V30 10935 H 980.355 1.24835 3.7138 0
M  V30 10936 H 982.052 1.63612 3.66104 0
M  V30 10937 H 978.642 2.95667 3.10289 0
M  V30 10938 H 982.826 3.93431 3.02532 0
M  V30 10939 H 978.082 5.3463 2.96615 0
M  V30 10940 H 982.256 6.33142 2.90007 0
M  V30 10941 H 979.883 7.04116 2.86573 0
M  V30 10942 N 981.458 -1.16348 1.06306 0
M  V30 10943 C 982.686 -1.90782 0.800614 0
M  V30 10944 C 983.101 -1.77439 -0.645033 0
M  V30 10945 O 982.458 -1.11912 -1.4416 0
M  V30 10946 C 982.509 -3.41484 1.18621 0
M  V30 10947 O 982.23 -3.54428 2.57512 0
M  V30 10948 C 983.731 -4.32968 0.951525 0
M  V30 10949 H 980.951 -0.604977 0.290247 0
M  V30 10950 H 983.495 -1.47476 1.41672 0
M  V30 10951 H 981.65 -3.82493 0.614633 0
M  V30 10952 H 982.064 -4.4788 2.72954 0
M  V30 10953 H 983.538 -5.37169 1.27095 0
M  V30 10954 H 984.015 -4.39055 -0.112734 0
M  V30 10955 H 984.621 -3.97687 1.50749 0
M  V30 10956 N 982.937 -0.845659 -1.3299 0
M  V30 10957 C 984.214 -0.366306 -1.92139 0
M  V30 10958 C 984.594 1.14912 -1.77083 0
M  V30 10959 O 983.942 1.96667 -1.16338 0
M  V30 10960 C 984.152 -0.820716 -3.39213 0
M  V30 10961 C 985.5 -0.832667 -4.16355 0
M  V30 10962 O 986.524 -0.764764 -3.47893 0
M  V30 10963 O 985.383 -0.926658 -5.38586 0
M  V30 10964 H 982.477 -0.105063 -0.820299 0
M  V30 10965 H 985.023 -0.931962 -1.41819 0
M  V30 10966 H 983.795 -1.86357 -3.44074 0
M  V30 10967 H 983.418 -0.232009 -3.96923 0
M  V30 10968 N 984.415 1.45619 -0.602734 0
M  V30 10969 C 985.664 2.01483 -0.0936395 0
M  V30 10970 C 985.977 1.47753 1.28173 0
M  V30 10971 O 987.183 1.95562 1.88329 0
M  V30 10972 C 985.639 3.59711 -0.116738 0
M  V30 10973 C 985.247 4.22437 -1.49166 0
M  V30 10974 C 986.991 4.23157 0.337368 0
M  V30 10975 C 984.898 5.72803 -1.47141 0
M  V30 10976 H 983.828 0.753353 -0.0312382 0
M  V30 10977 H 986.479 1.67142 -0.757347 0
M  V30 10978 H 984.861 3.91218 0.613529 0
M  V30 10979 H 986.035 4.02511 -2.24325 0
M  V30 10980 H 984.35 3.71166 -1.88746 0
M  V30 10981 H 986.947 5.33407 0.371628 0
M  V30 10982 H 987.29 3.93491 1.35906 0
M  V30 10983 H 987.823 3.96349 -0.339474 0
M  V30 10984 H 984.562 6.07161 -2.47055 0
M  V30 10985 H 984.082 5.94936 -0.762329 0
M  V30 10986 H 985.761 6.35907 -1.19294 0
M  V30 10987 N 985.893 0.34162 1.53853 0
M  V30 10988 C 987.121 -0.256929 2.05299 0
M  V30 10989 C 987.536 -1.44366 1.21671 0
M  V30 10990 O 986.893 -1.80758 0.251584 0
M  V30 10991 C 986.944 -0.673854 3.55164 0
M  V30 10992 O 986.665 0.465687 4.35618 0
M  V30 10993 C 988.166 -1.33332 4.22773 0
M  V30 10994 H 985.386 -0.0499445 0.669139 0
M  V30 10995 H 987.93 0.493048 1.98467 0
M  V30 10996 H 986.085 -1.37378 3.62224 0
M  V30 10997 H 986.499 0.133723 5.2433 0
M  V30 10998 H 987.973 -1.57582 5.29029 0
M  V30 10999 H 988.45 -2.28628 3.75001 0
M  V30 11000 H 989.056 -0.675489 4.19901 0
M  V30 11001 N 987.371 -1.57444 0.0701946 0
M  V30 11002 C 988.301 -2.15659 -0.895176 0
M  V30 11003 C 989.282 -1.08321 -1.31151 0
M  V30 11004 O 990.467 -1.36349 -1.38284 0
M  V30 11005 C 987.597 -2.71693 -2.16334 0
M  V30 11006 C 986.551 -3.84183 -1.88645 0
M  V30 11007 C 985.877 -4.26814 -3.22078 0
M  V30 11008 C 987.177 -5.08493 -1.19299 0
M  V30 11009 H 988.871 -2.96576 -0.410217 0
M  V30 11010 H 986.417 -1.42662 -0.195872 0
M  V30 11011 H 988.37 -3.11064 -2.84284 0
M  V30 11012 H 987.094 -1.87994 -2.67069 0
M  V30 11013 H 985.753 -3.45314 -1.23101 0
M  V30 11014 H 985.401 -3.40039 -3.70651 0
M  V30 11015 H 985.101 -5.02642 -3.04344 0
M  V30 11016 H 986.625 -4.68799 -3.91228 0
M  V30 11017 H 988.039 -5.4519 -1.77316 0
M  V30 11018 H 986.436 -5.89588 -1.11828 0
M  V30 11019 H 987.506 -4.84595 -0.171839 0
M  V30 11020 N 988.849 0.203349 -1.56283 0
M  V30 11021 C 990.26 0.768764 -1.70138 0
M  V30 11022 C 990.611 1.8421 -0.675358 0
M  V30 11023 O 989.736 2.15732 0.1699 0
M  V30 11024 C 990.331 1.40123 -3.08466 0
M  V30 11025 C 988.89 1.91382 -3.24114 0
M  V30 11026 C 988.037 0.780685 -2.66084 0
M  V30 11027 H 990.988 -0.0215997 -1.58685 0
M  V30 11028 H 991.009 2.27046 -3.05336 0
M  V30 11029 H 990.521 0.619805 -3.83119 0
M  V30 11030 H 988.622 2.7227 -2.54362 0
M  V30 11031 H 988.735 2.08128 -4.31531 0
M  V30 11032 H 987.099 1.19281 -2.25042 0
M  V30 11033 H 987.882 0.0116351 -3.43298 0
M  V30 11034 N 990.327 1.50405 0.470755 0
M  V30 11035 C 991.275 1.6982 1.58946 0
M  V30 11036 C 992.269 0.56407 1.59733 0
M  V30 11037 O 993.475 0.744576 1.63878 0
M  V30 11038 H 989.85 0.536016 0.527438 0
M  V30 11039 H 991.821 2.63662 1.39732 0
M  V30 11040 C 990.57 1.80986 2.96883 0
M  V30 11041 H 989.893 2.67645 2.96996 0
M  V30 11042 H 991.333 1.98596 3.74614 0
M  V30 11043 C 989.792 0.561551 3.32187 0
M  V30 11044 O 990.322 -0.299136 4.00585 0
M  V30 11045 N 988.528 0.415476 2.87615 0
M  V30 11046 H 988.075 1.11691 2.32127 0
M  V30 11047 H 988.033 -0.418592 3.11601 0
M  V30 11048 N 991.805 -0.723954 1.39988 0
M  V30 11049 C 993.054 -1.47922 1.3712 0
M  V30 11050 C 993.367 -1.95582 -0.0263665 0
M  V30 11051 O 994.573 -2.70918 -0.177652 0
M  V30 11052 C 993.029 -2.67342 2.40949 0
M  V30 11053 C 992.637 -2.26586 3.86475 0
M  V30 11054 C 994.381 -3.45116 2.47174 0
M  V30 11055 C 992.288 -3.42794 4.81919 0
M  V30 11056 H 991.218 -0.555522 0.509815 0
M  V30 11057 H 993.869 -0.788692 1.65686 0
M  V30 11058 H 992.251 -3.38524 2.0547 0
M  V30 11059 H 993.425 -1.62878 4.31054 0
M  V30 11060 H 991.74 -1.61876 3.83647 0
M  V30 11061 H 994.337 -4.31573 3.15672 0
M  V30 11062 H 994.68 -3.8835 1.49966 0
M  V30 11063 H 995.213 -2.80971 2.81602 0
M  V30 11064 H 991.952 -3.046 5.8043 0
M  V30 11065 H 991.472 -4.05445 4.42012 0
M  V30 11066 H 993.151 -4.08977 5.01345 0
M  V30 11067 N 993.283 -1.25346 -0.955304 0
M  V30 11068 C 994.246 -1.05754 -2.03344 0
M  V30 11069 C 995.246 -0.0105743 -1.60797 0
M  V30 11070 O 996.436 -0.252699 -1.72357 0
M  V30 11071 C 993.568 -0.605536 -3.35479 0
M  V30 11072 H 994.761 -2.01459 -2.22158 0
M  V30 11073 H 992.314 -1.07744 -1.1323 0
M  V30 11074 H 993.049 0.354154 -3.2236 0
M  V30 11075 H 992.834 -1.36134 -3.67709 0
M  V30 11076 H 994.324 -0.489867 -4.14717 0
M  V30 11077 N 994.761 1.15782 -1.06922 0
M  V30 11078 C 995.671 2.24008 -0.696948 0
M  V30 11079 C 996.687 1.71569 0.289862 0
M  V30 11080 O 997.863 2.00929 0.137585 0
M  V30 11081 C 994.928 3.46568 -0.0957895 0
M  V30 11082 C 993.989 4.14017 -1.13528 0
M  V30 11083 C 993.222 5.30725 -0.562713 0
M  V30 11084 O 993.445 5.66992 0.62259 0
M  V30 11085 O 992.379 5.87572 -1.30549 0
M  V30 11086 H 996.205 2.58174 -1.59938 0
M  V30 11087 H 993.79 1.2342 -0.841889 0
M  V30 11088 H 995.672 4.20731 0.237407 0
M  V30 11089 H 994.347 3.14161 0.780027 0
M  V30 11090 H 993.254 3.41795 -1.52076 0
M  V30 11091 H 994.587 4.50493 -1.98285 0
M  V30 11092 N 996.239 0.8527 1.3254 0
M  V30 11093 C 997.171 0.253181 2.27797 0
M  V30 11094 C 998.184 -0.573977 1.52346 0
M  V30 11095 O 999.373 -0.398786 1.73988 0
M  V30 11096 C 996.473 -0.661034 3.32391 0
M  V30 11097 C 995.646 0.12984 4.37207 0
M  V30 11098 C 994.705 -0.709837 5.2139 0
M  V30 11099 O 993.731 -0.144056 5.69018 0
M  V30 11100 N 994.933 -2.0249 5.44039 0
M  V30 11101 H 997.698 1.07171 2.79883 0
M  V30 11102 H 995.259 0.712491 1.45379 0
M  V30 11103 H 997.251 -1.22806 3.85617 0
M  V30 11104 H 995.821 -1.38025 2.80478 0
M  V30 11105 H 995.041 0.878289 3.84291 0
M  V30 11106 H 996.329 0.673141 5.04328 0
M  V30 11107 H 995.727 -2.50792 5.0707 0
M  V30 11108 H 994.284 -2.5401 6.00269 0
M  V30 11109 N 997.718 -1.45297 0.610449 0
M  V30 11110 C 998.948 -2.0629 0.113047 0
M  V30 11111 C 999.356 -1.45527 -1.20907 0
M  V30 11112 O 998.699 -0.564837 -1.74801 0
M  V30 11113 C 998.761 -3.59366 -0.0979692 0
M  V30 11114 C 998.425 -4.42481 1.14279 0
M  V30 11115 C 999.422 -4.77277 2.06161 0
M  V30 11116 C 997.107 -4.83187 1.37241 0
M  V30 11117 C 999.101 -5.51639 3.19333 0
M  V30 11118 C 996.788 -5.57303 2.50713 0
M  V30 11119 C 997.786 -5.91445 3.41587 0
M  V30 11120 O 997.474 -6.64056 4.53083 0
M  V30 11121 H 997.206 -0.67264 0.0673159 0
M  V30 11122 H 999.76 -1.87486 0.838937 0
M  V30 11123 H 997.99 -3.76582 -0.878783 0
M  V30 11124 H 999.679 -4.02193 -0.547327 0
M  V30 11125 H 1000.44 -4.46384 1.89647 0
M  V30 11126 H 996.324 -4.56045 0.67407 0
M  V30 11127 H 999.868 -5.78207 3.90286 0
M  V30 11128 H 995.765 -5.8761 2.67179 0
M  V30 11129 H 996.533 -6.82509 4.51801 0
M  V30 11130 N 999.196 -0.349774 -1.5367 0
M  V30 11131 C 1000.42 0.246038 -2.05432 0
M  V30 11132 C 1000.84 1.43719 -1.22435 0
M  V30 11133 O 1000.2 1.80622 -0.261166 0
M  V30 11134 C 1000.25 0.65501 -3.55516 0
M  V30 11135 O 999.968 -0.488782 -4.35365 0
M  V30 11136 C 1001.47 1.31088 -4.23475 0
M  V30 11137 H 998.689 0.0463952 -0.669394 0
M  V30 11138 H 1001.23 -0.503566 -1.98203 0
M  V30 11139 H 999.388 1.35455 -3.62947 0
M  V30 11140 H 999.802 -0.161528 -5.24251 0
M  V30 11141 H 1001.28 1.54774 -5.29857 0
M  V30 11142 H 1001.75 2.26636 -3.76208 0
M  V30 11143 H 1002.36 0.653211 -4.20254 0
M  V30 11144 N 1000.67 1.57404 -0.0785433 0
M  V30 11145 C 1001.62 2.09632 0.896565 0
M  V30 11146 C 1002.61 1.00754 1.25449 0
M  V30 11147 O 1003.8 1.27053 1.23234 0
M  V30 11148 C 1000.93 2.66694 2.16169 0
M  V30 11149 C 1000.01 3.82588 1.82994 0
M  V30 11150 N 1000.41 4.91286 1.203 0
M  V30 11151 C 998.704 3.92011 2.12704 0
M  V30 11152 C 999.405 5.72077 1.05367 0
M  V30 11153 N 998.381 5.20567 1.56559 0
M  V30 11154 H 1002.18 2.9106 0.407621 0
M  V30 11155 H 999.697 1.61917 0.125155 0
M  V30 11156 H 1001.69 3.0243 2.86952 0
M  V30 11157 H 1000.35 1.86716 2.65645 0
M  V30 11158 H 1001.36 5.10509 0.871817 0
M  V30 11159 H 998.042 3.23018 2.6451 0
M  V30 11160 H 999.432 6.69523 0.564685 0
M  V30 11161 N 1002.15 -0.195058 1.56388 0
M  V30 11162 C 1003.08 -1.26581 1.91076 0
M  V30 11163 C 1004.1 -1.41707 0.801436 0
M  V30 11164 O 1005.29 -1.42132 1.07985 0
M  V30 11165 C 1002.39 -2.63794 2.12758 0
M  V30 11166 C 1001.56 -2.70275 3.43904 0
M  V30 11167 C 1000.62 -3.88685 3.54698 0
M  V30 11168 O 999.644 -3.75786 4.2752 0
M  V30 11169 N 1000.85 -5.04141 2.87789 0
M  V30 11170 H 1003.61 -0.971401 2.83521 0
M  V30 11171 H 1001.17 -0.384976 1.57256 0
M  V30 11172 H 1003.16 -3.41434 2.17267 0
M  V30 11173 H 1001.73 -2.85723 1.26812 0
M  V30 11174 H 1000.95 -1.78909 3.51262 0
M  V30 11175 H 1002.24 -2.71597 4.30247 0
M  V30 11176 H 1001.64 -5.17519 2.28452 0
M  V30 11177 H 1000.2 -5.79727 2.97925 0
M  V30 11178 N 1003.63 -1.50653 -0.462772 0
M  V30 11179 C 1004.91 -1.5258 -1.22387 0
M  V30 11180 C 1005.29 -0.275263 -2.09298 0
M  V30 11181 O 1004.63 0.740943 -2.16153 0
M  V30 11182 C 1004.84 -2.82611 -2.04773 0
M  V30 11183 C 1006.19 -3.33592 -2.62681 0
M  V30 11184 O 1007.22 -2.83989 -2.15008 0
M  V30 11185 O 1006.08 -4.20081 -3.49563 0
M  V30 11186 H 1003.17 -0.612367 -0.55582 0
M  V30 11187 H 1005.72 -1.62948 -0.473914 0
M  V30 11188 H 1004.49 -3.65098 -1.40781 0
M  V30 11189 H 1004.11 -2.75286 -2.86886 0
M  V30 11190 N 1005.11 0.71652 -1.4037 0
M  V30 11191 C 1006.02 1.86074 -1.42876 0
M  V30 11192 C 1007.03 1.71005 -0.321475 0
M  V30 11193 O 1008.21 1.93286 -0.565909 0
M  V30 11194 C 1005.28 3.21862 -1.28863 0
M  V30 11195 C 1004.34 3.49193 -2.49726 0
M  V30 11196 C 1003.57 4.78502 -2.36372 0
M  V30 11197 O 1003.79 5.53529 -1.37703 0
M  V30 11198 O 1002.73 5.06147 -3.25728 0
M  V30 11199 H 1006.55 1.86916 -2.39366 0
M  V30 11200 H 1004.14 0.866818 -1.21683 0
M  V30 11201 H 1006.02 4.02972 -1.23253 0
M  V30 11202 H 1004.69 3.2175 -0.354783 0
M  V30 11203 H 1003.6 2.68095 -2.60913 0
M  V30 11204 H 1004.93 3.54101 -3.41868 0
M  V30 11205 N 1006.59 1.25851 0.948643 0
M  V30 11206 C 1007.84 1.10347 1.68838 0
M  V30 11207 C 1008.15 -0.354262 1.92365 0
M  V30 11208 O 1009.35 -0.629847 2.64093 0
M  V30 11209 C 1007.81 1.92659 3.03991 0
M  V30 11210 C 1007.42 3.42962 2.88238 0
M  V30 11211 C 1009.16 1.85743 3.81707 0
M  V30 11212 C 1007.07 4.17547 4.18818 0
M  V30 11213 H 1006 0.409342 0.63321 0
M  V30 11214 H 1008.65 1.50098 1.05559 0
M  V30 11215 H 1007.03 1.45736 3.68208 0
M  V30 11216 H 1008.21 3.97601 2.32917 0
M  V30 11217 H 1006.52 3.51035 2.23972 0
M  V30 11218 H 1009.12 2.38758 4.78434 0
M  V30 11219 H 1009.46 0.826568 4.08012 0
M  V30 11220 H 1009.99 2.30449 3.2425 0
M  V30 11221 H 1006.73 5.21072 3.97699 0
M  V30 11222 H 1006.25 3.6769 4.73882 0
M  V30 11223 H 1007.93 4.25589 4.87322 0
M  V30 11224 N 1008.06 -1.15214 1.07534 0
M  V30 11225 C 1009.29 -1.89647 0.819614 0
M  V30 11226 C 1009.7 -1.78365 -0.631072 0
M  V30 11227 O 1009.05 -1.1346 -1.44474 0
M  V30 11228 C 1009.11 -3.40573 1.1511 0
M  V30 11229 C 1008.77 -3.7564 2.60276 0
M  V30 11230 C 1009.77 -3.76507 3.58523 0
M  V30 11231 C 1007.45 -4.05891 2.95901 0
M  V30 11232 C 1009.45 -4.07133 4.9043 0
M  V30 11233 C 1007.13 -4.36182 4.28005 0
M  V30 11234 C 1008.13 -4.36785 5.25079 0
M  V30 11235 O 1007.82 -4.66348 6.54809 0
M  V30 11236 H 1007.55 -0.607836 0.295822 0
M  V30 11237 H 1010.11 -1.46895 1.43565 0
M  V30 11238 H 1008.34 -3.83734 0.478033 0
M  V30 11239 H 1010.03 -3.96299 0.877615 0
M  V30 11240 H 1010.79 -3.53233 3.32342 0
M  V30 11241 H 1006.67 -4.0458 2.20989 0
M  V30 11242 H 1010.21 -4.07519 5.66193 0
M  V30 11243 H 1006.11 -4.58924 4.53937 0
M  V30 11244 H 1006.88 -4.84105 6.59988 0
M  V30 11245 N 1009.54 -0.859717 -1.32086 0
M  V30 11246 C 1010.45 -0.31108 -2.32528 0
M  V30 11247 C 1011.47 0.573714 -1.6427 0
M  V30 11248 O 1012.64 0.472878 -1.9577 0
M  V30 11249 C 1009.71 0.487256 -3.43259 0
M  V30 11250 C 1008.77 -0.424279 -4.27198 0
M  V30 11251 C 1008 0.336051 -5.32641 0
M  V30 11252 O 1008.23 1.56541 -5.48499 0
M  V30 11253 O 1007.16 -0.300777 -6.01148 0
M  V30 11254 H 1010.99 -1.14336 -2.81355 0
M  V30 11255 H 1008.57 -0.622794 -1.358 0
M  V30 11256 H 1010.45 0.940203 -4.10777 0
M  V30 11257 H 1009.13 1.29626 -2.96612 0
M  V30 11258 H 1008.04 -0.925509 -3.62471 0
M  V30 11259 H 1009.37 -1.1986 -4.77383 0
M  V30 11260 N 1011.02 1.44971 -0.618145 0
M  V30 11261 C 1011.95 2.28815 0.132751 0
M  V30 11262 C 1012.97 1.40551 0.821535 0
M  V30 11263 O 1014.15 1.64827 0.685155 0
M  V30 11264 C 1011.25 3.1658 1.20955 0
M  V30 11265 C 1010.43 4.33184 0.605821 0
M  V30 11266 C 1009.49 5.0208 1.57488 0
M  V30 11267 O 1008.51 5.58528 1.09706 0
M  V30 11268 N 1009.71 5.02335 2.9093 0
M  V30 11269 H 1012.48 2.939 -0.58674 0
M  V30 11270 H 1010.04 1.55276 -0.458375 0
M  V30 11271 H 1012.03 3.59535 1.85787 0
M  V30 11272 H 1010.6 2.53333 1.83143 0
M  V30 11273 H 1009.82 3.93581 -0.220827 0
M  V30 11274 H 1011.11 5.08471 0.182883 0
M  V30 11275 H 1010.51 4.57783 3.32342 0
M  V30 11276 H 1009.07 5.49119 3.51157 0
M  V30 11277 N 1012.5 0.357919 1.53482 0
M  V30 11278 C 1013.74 -0.23451 2.0144 0
M  V30 11279 C 1014.08 -1.49044 1.24497 0
M  V30 11280 O 1013.35 -1.91566 0.336535 0
M  V30 11281 C 1013.64 -0.534193 3.56116 0
M  V30 11282 C 1013.49 0.734834 4.43757 0
M  V30 11283 C 1014.81 -1.33793 4.1927 0
M  V30 11284 H 1011.93 -0.0837595 0.732225 0
M  V30 11285 H 1014.57 0.481297 1.83803 0
M  V30 11286 H 1012.72 -1.144 3.71275 0
M  V30 11287 H 1014.39 1.37251 4.40409 0
M  V30 11288 H 1012.63 1.35678 4.12036 0
M  V30 11289 H 1013.3 0.48021 5.49907 0
M  V30 11290 H 1015.78 -0.822158 4.07897 0
M  V30 11291 H 1014.66 -1.51636 5.27539 0
M  V30 11292 H 1014.92 -2.34423 3.74831 0
M  V30 11293 N 1013.98 -1.5736 0.0868897 0
M  V30 11294 C 1014.93 -2.10105 -0.885435 0
M  V30 11295 C 1015.91 -1.01417 -1.24913 0
M  V30 11296 O 1017.1 -1.27704 -1.22558 0
M  V30 11297 C 1014.23 -2.67837 -2.14752 0
M  V30 11298 C 1013.32 -3.83553 -1.80963 0
M  V30 11299 N 1013.71 -4.91917 -1.17693 0
M  V30 11300 C 1012.01 -3.93134 -2.10622 0
M  V30 11301 C 1012.71 -5.72628 -1.02332 0
M  V30 11302 N 1011.68 -5.2139 -1.53796 0
M  V30 11303 H 1015.49 -2.91272 -0.392179 0
M  V30 11304 H 1013 -1.61981 -0.116566 0
M  V30 11305 H 1015 -3.03948 -2.85344 0
M  V30 11306 H 1013.66 -1.88122 -2.64651 0
M  V30 11307 H 1014.67 -5.10964 -0.844731 0
M  V30 11308 H 1011.34 -3.24416 -2.62793 0
M  V30 11309 H 1012.73 -6.69813 -0.529171 0
M  V30 11310 N 1015.45 0.186762 -1.56489 0
M  V30 11311 C 1016.68 0.925916 -1.85584 0
M  V30 11312 C 1017.1 1.75708 -0.671446 0
M  V30 11313 O 1016.46 1.7728 0.379687 0
M  V30 11314 C 1016.51 1.79107 -3.12975 0
M  V30 11315 O 1015.61 2.89088 -2.94112 0
M  V30 11316 H 1014.96 0.260275 -0.610863 0
M  V30 11317 H 1017.49 0.189561 -2.0372 0
M  V30 11318 H 1017.5 2.19408 -3.43983 0
M  V30 11319 H 1016.17 1.18044 -3.98796 0
M  V30 11320 H 1014.75 2.52482 -2.74422 0
M  V30 11321 N 1016.93 1.50896 0.454776 0
M  V30 11322 C 1017.88 1.70947 1.55067 0
M  V30 11323 C 1018.85 0.550899 1.56698 0
M  V30 11324 O 1020.03 0.783352 1.73978 0
M  V30 11325 C 1017.17 1.82455 2.92924 0
M  V30 11326 C 1016.29 3.09919 3.00956 0
M  V30 11327 C 1015.42 3.12125 4.29827 0
M  V30 11328 C 1014.46 4.33975 4.31662 0
M  V30 11329 N 1013.6 4.33828 5.5203 0
M  V30 11330 H 1018.44 2.645 1.37273 0
M  V30 11331 H 1015.98 1.31101 0.667148 0
M  V30 11332 H 1017.93 1.87108 3.72889 0
M  V30 11333 H 1016.56 0.92327 3.09315 0
M  V30 11334 H 1015.62 3.14659 2.13761 0
M  V30 11335 H 1016.93 3.99869 2.98172 0
M  V30 11336 H 1016.08 3.15598 5.18154 0
M  V30 11337 H 1014.82 2.20033 4.35243 0
M  V30 11338 H 1013.83 4.30697 3.41731 0
M  V30 11339 H 1015.05 5.27312 4.27924 0
M  V30 11340 H 1013 3.44598 5.58201 0
M  V30 11341 H 1012.91 5.17566 5.51055 0
M  V30 11342 H 1014.18 4.4147 6.42437 0
M  V30 11343 N 1018.41 -0.709066 1.40748 0
M  V30 11344 C 1019.66 -1.46611 1.39103 0
M  V30 11345 C 1019.98 -1.95 -0.00365366 0
M  V30 11346 O 1019.25 -1.70791 -0.959541 0
M  V30 11347 H 1017.83 -0.543954 0.511979 0
M  V30 11348 H 1020.49 -0.840141 1.75863 0
M  V30 11349 H 1019.59 -2.33581 2.06994 0
M  V30 11350 N 1019.89 -1.26353 -0.941956 0
M  V30 11351 C 1020.82 -1.10341 -2.05784 0
M  V30 11352 C 1021.8 -0.00881565 -1.70098 0
M  V30 11353 O 1022.99 -0.180699 -1.93357 0
M  V30 11354 C 1020.12 -0.734788 -3.39438 0
M  V30 11355 C 1019.07 -1.78103 -3.89183 0
M  V30 11356 C 1018.4 -1.26675 -5.19478 0
M  V30 11357 C 1019.7 -3.1824 -4.14151 0
M  V30 11358 H 1021.39 -2.03684 -2.19438 0
M  V30 11359 H 1018.94 -0.980698 -1.05443 0
M  V30 11360 H 1020.89 -0.609653 -4.16967 0
M  V30 11361 H 1019.61 0.234354 -3.25758 0
M  V30 11362 H 1018.27 -1.89482 -3.13835 0
M  V30 11363 H 1017.92 -0.287472 -5.02178 0
M  V30 11364 H 1017.62 -1.96612 -5.53731 0
M  V30 11365 H 1019.14 -1.15427 -5.99591 0
M  V30 11366 H 1020.56 -3.09942 -4.82296 0
M  V30 11367 H 1018.95 -3.8576 -4.59684 0
M  V30 11368 H 1020.02 -3.64354 -3.19959 0
M  V30 11369 N 1021.37 1.14642 -1.08144 0
M  V30 11370 C 1022.6 1.89209 -0.82966 0
M  V30 11371 C 1023.01 1.78697 0.621604 0
M  V30 11372 O 1022.35 1.14224 1.4387 0
M  V30 11373 C 1022.41 3.39958 -1.16915 0
M  V30 11374 C 1022.07 3.74254 -2.62264 0
M  V30 11375 C 1023.07 3.746 -3.60514 0
M  V30 11376 C 1020.76 4.04316 -2.9805 0
M  V30 11377 C 1022.75 4.04527 -4.92582 0
M  V30 11378 C 1020.44 4.33906 -4.30312 0
M  V30 11379 C 1021.44 4.33995 -5.27388 0
M  V30 11380 O 1021.12 4.62869 -6.57273 0
M  V30 11381 H 1020.86 0.606259 -0.299042 0
M  V30 11382 H 1023.41 1.46132 -1.44342 0
M  V30 11383 H 1021.64 3.83475 -0.498377 0
M  V30 11384 H 1023.33 3.95828 -0.89862 0
M  V30 11385 H 1024.09 3.51466 -3.34211 0
M  V30 11386 H 1019.97 4.03402 -2.23132 0
M  V30 11387 H 1023.52 4.04511 -5.68346 0
M  V30 11388 H 1019.41 4.5651 -4.56365 0
M  V30 11389 H 1020.18 4.80598 -6.62546 0
M  V30 11390 N 1022.85 0.866709 1.31628 0
M  V30 11391 C 1024.09 0.476731 1.97117 0
M  V30 11392 C 1024.42 -0.967813 1.68366 0
M  V30 11393 O 1023.7 -1.68101 0.978377 0
M  V30 11394 C 1023.98 0.730561 3.52611 0
M  V30 11395 C 1023.84 2.2244 3.90948 0
M  V30 11396 C 1025.15 0.19488 4.39668 0
M  V30 11397 H 1022.27 0.174682 0.715999 0
M  V30 11398 H 1024.92 1.08735 1.5581 0
M  V30 11399 H 1023.07 0.210834 3.87927 0
M  V30 11400 H 1024.74 2.81113 3.6575 0
M  V30 11401 H 1022.98 2.69824 3.39673 0
M  V30 11402 H 1023.65 2.35266 4.99353 0
M  V30 11403 H 1026.13 0.639478 4.11157 0
M  V30 11404 H 1025 0.401958 5.47426 0
M  V30 11405 H 1025.26 -0.90302 4.32779 0
M  V30 11406 N 1024.32 -1.44642 0.625825 0
M  V30 11407 C 1025.73 -1.85502 0.211175 0
M  V30 11408 C 1026.09 -1.52356 -1.2362 0
M  V30 11409 O 1025.21 -0.959051 -1.93988 0
M  V30 11410 C 1025.81 -3.36702 0.37648 0
M  V30 11411 C 1024.36 -3.76396 0.0163795 0
M  V30 11412 C 1023.51 -2.68517 0.692368 0
M  V30 11413 H 1026.46 -1.35183 0.831333 0
M  V30 11414 H 1026.48 -3.78536 -0.386106 0
M  V30 11415 H 1026 -3.60795 1.42999 0
M  V30 11416 H 1024.1 -3.57919 -1.0356 0
M  V30 11417 H 1024.21 -4.77231 0.422742 0
M  V30 11418 H 1022.57 -2.54377 0.128191 0
M  V30 11419 H 1023.36 -2.95444 1.74837 0
M  V30 11420 N 1025.8 -0.366053 -1.5329 0
M  V30 11421 C 1026.71 0.488111 -2.29466 0
M  V30 11422 C 1027.73 1.09219 -1.35452 0
M  V30 11423 O 1028.9 1.10303 -1.68509 0
M  V30 11424 C 1025.97 1.61202 -3.06944 0
M  V30 11425 C 1025.03 1.03543 -4.16626 0
M  V30 11426 C 1024.26 2.10578 -4.904 0
M  V30 11427 O 1024.49 3.31697 -4.6404 0
M  V30 11428 O 1023.42 1.73609 -5.76319 0
M  V30 11429 H 1027.25 -0.131789 -3.03414 0
M  V30 11430 H 1024.83 -0.130421 -1.4883 0
M  V30 11431 H 1026.71 2.26546 -3.55324 0
M  V30 11432 H 1025.39 2.21732 -2.35832 0
M  V30 11433 H 1024.29 0.345892 -3.72498 0
M  V30 11434 H 1025.63 0.474687 -4.89906 0
M  V30 11435 N 1027.28 1.57312 -0.0952337 0
M  V30 11436 C 1028.5 1.99119 0.580206 0
M  V30 11437 C 1028.93 0.973955 1.60922 0
M  V30 11438 O 1028.29 -0.0575338 1.81209 0
M  V30 11439 C 1028.34 3.39893 1.20438 0
M  V30 11440 O 1027.44 3.40941 2.32019 0
M  V30 11441 H 1026.78 0.64748 0.147195 0
M  V30 11442 H 1029.31 2.03836 -0.176686 0
M  V30 11443 H 1029.32 3.7759 1.54564 0
M  V30 11444 H 1028 4.13453 0.450514 0
M  V30 11445 H 1026.57 3.1504 1.9951 0
M  V30 11446 N 1028.76 -0.17846 1.56586 0
M  V30 11447 C 1030.17 -0.529957 1.50544 0
M  V30 11448 C 1030.37 -1.85015 0.798237 0
M  V30 11449 O 1029.43 -2.49983 0.355639 0
M  V30 11450 C 1030.74 -0.569314 2.95261 0
M  V30 11451 C 1032.29 -0.657008 3.06027 0
M  V30 11452 C 1032.77 -0.727323 4.52188 0
M  V30 11453 N 1034.26 -0.790406 4.56406 0
M  V30 11454 C 1034.99 -0.865265 5.66834 0
M  V30 11455 N 1034.49 -0.901398 6.86911 0
M  V30 11456 N 1036.28 -0.903736 5.54787 0
M  V30 11457 H 1028.43 0.687304 2.00972 0
M  V30 11458 H 1030.69 0.246936 0.915274 0
M  V30 11459 H 1030.4 0.331934 3.5013 0
M  V30 11460 H 1030.27 -1.41828 3.4952 0
M  V30 11461 H 1032.66 -1.54868 2.51197 0
M  V30 11462 H 1032.74 0.218495 2.54865 0
M  V30 11463 H 1032.39 0.160067 5.07648 0
M  V30 11464 H 1032.32 -1.61887 5.01099 0
M  V30 11465 H 1034.81 -0.771054 3.6995 0
M  V30 11466 H 1035.12 -0.959494 7.6682 0
M  V30 11467 H 1033.47 -0.869795 6.89536 0
M  V30 11468 H 1036.66 -0.872459 4.59898 0
M  V30 11469 H 1036.83 -0.958615 6.4087 0
M  V30 11470 N 1030.24 -1.51135 -0.446768 0
M  V30 11471 C 1031.46 -1.67411 -1.22427 0
M  V30 11472 C 1031.89 -0.367009 -1.84485 0
M  V30 11473 O 1031.24 0.67185 -1.68392 0
M  V30 11474 C 1031.29 -2.78473 -2.29096 0
M  V30 11475 O 1030.4 -2.41419 -3.34351 0
M  V30 11476 H 1029.74 -0.558512 -0.359111 0
M  V30 11477 H 1032.27 -1.97648 -0.5288 0
M  V30 11478 H 1032.28 -3.02277 -2.7403 0
M  V30 11479 H 1030.95 -3.73326 -1.83304 0
M  V30 11480 H 1029.53 -2.28152 -2.9496 0
M  V30 11481 N 1031.71 0.701592 -1.41122 0
M  V30 11482 C 1032.96 1.45722 -1.39456 0
M  V30 11483 C 1033.28 1.95599 -0.00475228 0
M  V30 11484 O 1034.48 2.71166 0.134529 0
M  V30 11485 C 1032.94 2.63475 -2.45172 0
M  V30 11486 C 1032.55 2.20409 -3.90031 0
M  V30 11487 C 1034.29 3.4114 -2.52633 0
M  V30 11488 C 1032.2 3.35084 -4.87312 0
M  V30 11489 H 1031.13 0.547341 -0.518588 0
M  V30 11490 H 1033.78 0.762233 -1.6692 0
M  V30 11491 H 1032.16 3.35212 -2.10829 0
M  V30 11492 H 1033.33 1.56 -4.3359 0
M  V30 11493 H 1031.65 1.55752 -3.86174 0
M  V30 11494 H 1034.25 4.26496 -3.22498 0
M  V30 11495 H 1034.59 3.85915 -1.56125 0
M  V30 11496 H 1035.12 2.76456 -2.86037 0
M  V30 11497 H 1031.86 2.95327 -5.85203 0
M  V30 11498 H 1031.38 3.98362 -4.48406 0
M  V30 11499 H 1033.06 4.00949 -5.07788 0
M  V30 11500 N 1033.19 1.2685 0.935242 0
M  V30 11501 C 1034.12 1.1143 2.05196 0
M  V30 11502 C 1035.1 0.0178362 1.70091 0
M  V30 11503 O 1036.29 0.190951 1.93259 0
M  V30 11504 C 1033.42 0.752779 3.39044 0
M  V30 11505 C 1032.37 1.80164 3.88233 0
M  V30 11506 C 1031.7 1.29428 5.18799 0
M  V30 11507 C 1033 3.20431 4.12457 0
M  V30 11508 H 1034.69 2.04845 2.18355 0
M  V30 11509 H 1032.24 0.986276 1.04922 0
M  V30 11510 H 1034.19 0.631757 4.16637 0
M  V30 11511 H 1032.91 -0.217075 3.25878 0
M  V30 11512 H 1031.57 1.91144 3.12825 0
M  V30 11513 H 1031.22 0.3141 5.02018 0
M  V30 11514 H 1030.92 1.99546 5.5268 0
M  V30 11515 H 1032.45 1.18605 5.9897 0
M  V30 11516 H 1033.86 3.12495 4.80645 0
M  V30 11517 H 1032.26 3.88193 4.57631 0
M  V30 11518 H 1033.33 3.66046 3.18023 0
M  V30 11519 N 1034.67 -1.14067 1.0875 0
M  V30 11520 C 1035.6 -2.21385 0.74236 0
M  V30 11521 C 1036.58 -1.67833 -0.276805 0
M  V30 11522 O 1037.77 -1.93647 -0.1464 0
M  V30 11523 C 1034.9 -3.46956 0.154644 0
M  V30 11524 C 1033.85 -4.13555 1.10255 0
M  V30 11525 C 1033.18 -5.3337 0.376877 0
M  V30 11526 C 1034.48 -4.6169 2.44213 0
M  V30 11527 H 1036.17 -2.50512 1.63964 0
M  V30 11528 H 1033.72 -1.20408 0.789807 0
M  V30 11529 H 1035.67 -4.21284 -0.0988419 0
M  V30 11530 H 1034.39 -3.17203 -0.777789 0
M  V30 11531 H 1033.05 -3.41186 1.34119 0
M  V30 11532 H 1032.7 -4.99879 -0.559472 0
M  V30 11533 H 1032.4 -5.78875 1.00884 0
M  V30 11534 H 1033.92 -6.10458 0.131527 0
M  V30 11535 H 1035.34 -5.27475 2.24595 0
M  V30 11536 H 1033.74 -5.17909 3.03134 0
M  V30 11537 H 1034.81 -3.76574 3.05483 0
M  V30 11538 N 1036.15 -0.873678 -1.31166 0
M  V30 11539 C 1037.1 -0.303699 -2.25968 0
M  V30 11540 C 1038.08 0.561387 -1.50789 0
M  V30 11541 O 1039.27 0.407658 -1.72242 0
M  V30 11542 C 1036.4 0.490612 -3.39776 0
M  V30 11543 C 1035.49 -0.387927 -4.22322 0
M  V30 11544 N 1035.88 -1.48313 -4.83567 0
M  V30 11545 C 1034.18 -0.18102 -4.45632 0
M  V30 11546 C 1034.88 -2.0252 -5.45308 0
M  V30 11547 N 1033.86 -1.32169 -5.27288 0
M  V30 11548 H 1037.66 -1.14071 -2.7086 0
M  V30 11549 H 1035.17 -0.721843 -1.45476 0
M  V30 11550 H 1037.17 0.9155 -4.06724 0
M  V30 11551 H 1035.83 1.32519 -2.96427 0
M  V30 11552 H 1036.84 -1.86604 -4.83114 0
M  V30 11553 H 1033.52 0.617304 -4.12911 0
M  V30 11554 H 1034.91 -2.94429 -6.03955 0
M  V30 11555 N 1037.63 1.44308 -0.633487 0
M  V30 11556 C 1038.87 2.01624 -0.138643 0
M  V30 11557 C 1039.2 1.50101 1.24477 0
M  V30 11558 O 1038.47 0.705575 1.82752 0
M  V30 11559 H 1037.05 0.745439 -0.0482636 0
M  V30 11560 H 1039.71 1.76777 -0.820719 0
M  V30 11561 H 1038.8 3.11913 -0.108136 0
M  V30 11562 N 1039.1 0.374177 1.53094 0
M  V30 11563 C 1040.52 -0.103172 1.86415 0
M  V30 11564 C 1040.87 -1.47439 1.29446 0
M  V30 11565 O 1039.99 -2.07333 0.619853 0
M  V30 11566 C 1040.59 -0.193988 3.38244 0
M  V30 11567 C 1039.15 -0.615605 3.71332 0
M  V30 11568 C 1038.29 0.23186 2.76329 0
M  V30 11569 H 1041.24 0.592644 1.47219 0
M  V30 11570 H 1041.26 -1.01597 3.66686 0
M  V30 11571 H 1040.78 0.80414 3.79678 0
M  V30 11572 H 1038.88 -1.62165 3.3546 0
M  V30 11573 H 1038.99 -0.38425 4.77557 0
M  V30 11574 H 1037.35 -0.300579 2.5292 0
M  V30 11575 H 1038.14 1.22769 3.20597 0
M  V30 11576 N 1040.58 -1.57259 0.103575 0
M  V30 11577 C 1041.81 -1.99424 -0.569638 0
M  V30 11578 C 1042.23 -0.982475 -1.60403 0
M  V30 11579 O 1041.59 0.0479231 -1.81237 0
M  V30 11580 C 1041.64 -3.40527 -1.18633 0
M  V30 11581 O 1040.74 -3.42167 -2.30208 0
M  V30 11582 H 1040.08 -0.648251 -0.143759 0
M  V30 11583 H 1042.61 -2.03739 0.187493 0
M  V30 11584 H 1042.62 -3.78404 -1.5256 0
M  V30 11585 H 1041.3 -4.13686 -0.428582 0
M  V30 11586 H 1039.88 -3.16093 -1.97837 0
M  V30 11587 N 1042.06 0.170153 -1.56679 0
M  V30 11588 C 1043.01 1.21064 -1.965 0
M  V30 11589 C 1043.98 1.43928 -0.829092 0
M  V30 11590 O 1045.16 1.56649 -1.08931 0
M  V30 11591 C 1042.3 2.54468 -2.33109 0
M  V30 11592 C 1041.42 2.38974 -3.59883 0
M  V30 11593 C 1040.55 3.65252 -3.857 0
M  V30 11594 C 1039.59 3.44696 -5.05817 0
M  V30 11595 N 1038.73 4.63047 -5.27761 0
M  V30 11596 H 1043.57 0.864055 -2.85198 0
M  V30 11597 H 1041.1 0.415243 -1.41117 0
M  V30 11598 H 1043.06 3.32222 -2.52358 0
M  V30 11599 H 1041.69 2.8712 -1.4752 0
M  V30 11600 H 1040.74 1.5239 -3.48542 0
M  V30 11601 H 1042.06 2.19731 -4.47794 0
M  V30 11602 H 1041.21 4.51441 -4.05322 0
M  V30 11603 H 1039.95 3.87475 -2.96166 0
M  V30 11604 H 1038.95 2.56893 -4.86092 0
M  V30 11605 H 1040.18 3.23894 -5.96883 0
M  V30 11606 H 1038.12 4.85487 -4.41179 0
M  V30 11607 H 1038.04 4.46722 -6.09898 0
M  V30 11608 H 1039.31 5.50516 -5.51863 0
M  V30 11609 N 1043.54 1.5137 0.438746 0
M  V30 11610 C 1044.79 1.63645 1.18595 0
M  V30 11611 C 1045.11 0.354241 1.91755 0
M  V30 11612 O 1044.38 -0.629838 1.85499 0
M  V30 11613 H 1042.96 0.603103 0.440767 0
M  V30 11614 H 1045.62 1.88293 0.503159 0
M  V30 11615 H 1044.72 2.46342 1.9163 0
M  V30 11616 N 1045.02 -0.694098 1.41492 0
M  V30 11617 C 1046.26 -1.4563 1.41137 0
M  V30 11618 C 1046.6 -1.94189 0.0208428 0
M  V30 11619 O 1045.87 -1.69628 -0.951655 0
M  V30 11620 C 1046.15 -2.66714 2.41941 0
M  V30 11621 C 1046.01 -2.23912 3.90107 0
M  V30 11622 C 1047.33 -3.68913 2.39981 0
M  V30 11623 H 1044.44 -0.52821 0.513968 0
M  V30 11624 H 1047.09 -0.790437 1.72778 0
M  V30 11625 H 1045.24 -3.23525 2.1509 0
M  V30 11626 H 1046.91 -1.72417 4.27867 0
M  V30 11627 H 1045.15 -1.5568 4.04903 0
M  V30 11628 H 1045.82 -3.108 4.56188 0
M  V30 11629 H 1048.3 -3.21779 2.63813 0
M  V30 11630 H 1047.17 -4.51242 3.12524 0
M  V30 11631 H 1047.44 -4.18711 1.41892 0
M  V30 11632 N 1046.49 -1.27344 -0.928501 0
M  V30 11633 C 1047.4 -1.11812 -2.06241 0
M  V30 11634 C 1048.42 -0.048347 -1.73933 0
M  V30 11635 O 1049.6 -0.25467 -1.99783 0
M  V30 11636 C 1046.66 -0.766036 -3.38131 0
M  V30 11637 C 1045.72 -1.91659 -3.84142 0
M  V30 11638 C 1044.96 -1.58121 -5.09738 0
M  V30 11639 O 1045.18 -0.488742 -5.68302 0
M  V30 11640 O 1044.11 -2.42013 -5.51102 0
M  V30 11641 H 1047.94 -2.06967 -2.22258 0
M  V30 11642 H 1045.52 -1.06524 -1.04752 0
M  V30 11643 H 1047.41 -0.582982 -4.17348 0
M  V30 11644 H 1046.08 0.155998 -3.23324 0
M  V30 11645 H 1044.99 -2.1547 -3.05816 0
M  V30 11646 H 1046.32 -2.8188 -4.0349 0
M  V30 11647 N 1047.97 1.13488 -1.09353 0
M  V30 11648 C 1048.9 2.20988 -0.75409 0
M  V30 11649 C 1049.88 1.67977 0.267901 0
M  V30 11650 O 1051.07 1.93722 0.136128 0
M  V30 11651 C 1048.2 3.46869 -0.173042 0
M  V30 11652 C 1047.15 4.12965 -1.12446 0
M  V30 11653 C 1046.48 5.33163 -0.405157 0
M  V30 11654 C 1047.78 4.60388 -2.46658 0
M  V30 11655 H 1049.47 2.49639 -1.6529 0
M  V30 11656 H 1047.02 1.19987 -0.796182 0
M  V30 11657 H 1048.97 4.21331 0.0764988 0
M  V30 11658 H 1047.7 3.17611 0.760956 0
M  V30 11659 H 1046.35 3.40469 -1.35927 0
M  V30 11660 H 1046 5.00169 0.532955 0
M  V30 11661 H 1045.7 5.78332 -1.03952 0
M  V30 11662 H 1047.23 6.1038 -0.163899 0
M  V30 11663 H 1048.64 5.26276 -2.27389 0
M  V30 11664 H 1047.04 5.16294 -3.05876 0
M  V30 11665 H 1048.11 3.74949 -3.07476 0
M  V30 11666 N 1049.45 0.880621 1.30701 0
M  V30 11667 C 1050.87 0.574015 1.4892 0
M  V30 11668 C 1051.07 -0.889312 1.80813 0
M  V30 11669 O 1050.12 -1.67082 1.89314 0
M  V30 11670 C 1051.44 1.48341 2.61563 0
M  V30 11671 C 1052.98 1.48658 2.75445 0
M  V30 11672 C 1053.46 2.3818 3.91196 0
M  V30 11673 N 1054.95 2.36119 3.985 0
M  V30 11674 C 1055.69 3.02101 4.87363 0
M  V30 11675 N 1055.18 3.77293 5.81052 0
M  V30 11676 N 1056.97 2.91356 4.80696 0
M  V30 11677 H 1049.13 1.82732 1.08271 0
M  V30 11678 H 1051.39 0.781939 0.535981 0
M  V30 11679 H 1051.09 2.52515 2.44804 0
M  V30 11680 H 1050.97 1.18977 3.57944 0
M  V30 11681 H 1053.36 0.452374 2.91612 0
M  V30 11682 H 1053.44 1.8205 1.79698 0
M  V30 11683 H 1053.08 3.41683 3.75786 0
M  V30 11684 H 1053.01 2.02106 4.86272 0
M  V30 11685 H 1055.5 1.81474 3.31475 0
M  V30 11686 H 1055.81 4.24742 6.45612 0
M  V30 11687 H 1054.16 3.81401 5.80998 0
M  V30 11688 H 1057.35 2.32143 4.06481 0
M  V30 11689 H 1057.52 3.43056 5.49742 0
M  V30 11690 N 1050.93 -1.4397 0.641131 0
M  V30 11691 C 1051.88 -2.32495 -0.0698668 0
M  V30 11692 C 1052.87 -1.47922 -0.825555 0
M  V30 11693 O 1054.08 -1.64206 -0.737323 0
M  V30 11694 H 1050.45 -0.750861 -0.0413706 0
M  V30 11695 H 1052.42 -2.90201 0.694682 0
M  V30 11696 C 1051.17 -3.32063 -1.03098 0
M  V30 11697 H 1050.5 -3.97157 -0.458923 0
M  V30 11698 H 1051.94 -3.96664 -1.49778 0
M  V30 11699 C 1050.39 -2.61743 -2.12113 0
M  V30 11700 O 1050.92 -2.42385 -3.20332 0
M  V30 11701 N 1049.13 -2.21316 -1.88328 0
M  V30 11702 H 1048.68 -2.37261 -1.00324 0
M  V30 11703 H 1048.64 -1.74594 -2.61465 0
M  V30 11704 N 1052.41 -0.382291 -1.52893 0
M  V30 11705 C 1053.68 0.259354 -1.93873 0
M  V30 11706 C 1054.06 1.64964 -1.3172 0
M  V30 11707 O 1053.41 2.23345 -0.482611 0
M  V30 11708 C 1053.62 0.292765 -3.4777 0
M  V30 11709 C 1054.97 0.525095 -4.21341 0
M  V30 11710 O 1055.99 0.373272 -3.54239 0
M  V30 11711 O 1054.85 0.822004 -5.40283 0
M  V30 11712 H 1051.95 0.159422 -0.811489 0
M  V30 11713 H 1054.49 -0.436289 -1.63996 0
M  V30 11714 H 1053.27 -0.681341 -3.85323 0
M  V30 11715 H 1052.89 1.03362 -3.8393 0
M  V30 11716 N 1053.89 1.57202 -0.111913 0
M  V30 11717 C 1055.11 1.99723 0.559054 0
M  V30 11718 C 1055.54 0.990968 1.59879 0
M  V30 11719 O 1054.89 -0.038311 1.8126 0
M  V30 11720 C 1054.94 3.41151 1.16826 0
M  V30 11721 O 1054.05 3.43383 2.2839 0
M  V30 11722 H 1053.39 0.649004 0.140319 0
M  V30 11723 H 1055.92 2.03637 -0.198295 0
M  V30 11724 H 1055.93 3.79208 1.50551 0
M  V30 11725 H 1054.6 4.13907 0.406637 0
M  V30 11726 H 1053.18 3.17138 1.96158 0
M  V30 11727 N 1055.36 -0.161842 1.56767 0
M  V30 11728 C 1056.27 -1.21996 2.00385 0
M  V30 11729 C 1057.29 -1.4789 0.916768 0
M  V30 11730 O 1058.47 -1.59852 1.22513 0
M  V30 11731 C 1055.53 -2.53695 2.36305 0
M  V30 11732 C 1054.59 -2.3558 3.58888 0
M  V30 11733 C 1053.82 -3.60998 3.93085 0
M  V30 11734 O 1054.05 -4.6657 3.28129 0
M  V30 11735 O 1052.98 -3.54544 4.86397 0
M  V30 11736 H 1056.81 -0.879701 2.9068 0
M  V30 11737 H 1054.39 -0.369437 1.4476 0
M  V30 11738 H 1056.27 -3.31366 2.60335 0
M  V30 11739 H 1054.95 -2.87281 1.49169 0
M  V30 11740 H 1053.86 -1.55908 3.40064 0
M  V30 11741 H 1055.19 -2.06915 4.46595 0
M  V30 11742 N 1056.84 -1.516 -0.430713 0
M  V30 11743 C 1058.09 -1.64271 -1.17726 0
M  V30 11744 C 1058.41 -0.364406 -1.91565 0
M  V30 11745 O 1057.68 0.619991 -1.8583 0
M  V30 11746 H 1056.26 -0.605432 -0.437562 0
M  V30 11747 H 1058.92 -1.88557 -0.493166 0
M  V30 11748 H 1058.02 -2.47355 -1.90321 0
M  V30 11749 N 1058.32 0.686584 -1.41858 0
M  V30 11750 C 1059.57 1.44665 -1.41698 0
M  V30 11751 C 1059.89 1.94478 -0.0292442 0
M  V30 11752 O 1059.15 1.70512 0.960421 0
M  V30 11753 C 1059.45 2.66793 -2.37816 0
M  V30 11754 C 1059.11 2.35587 -3.8446 0
M  V30 11755 C 1057.78 2.26788 -4.24406 0
M  V30 11756 C 1060.13 2.10028 -4.77009 0
M  V30 11757 C 1057.46 1.90538 -5.54898 0
M  V30 11758 C 1059.81 1.75285 -6.07831 0
M  V30 11759 C 1058.47 1.64987 -6.46789 0
M  V30 11760 H 1057.74 0.529367 -0.518509 0
M  V30 11761 H 1060.39 0.783938 -1.74719 0
M  V30 11762 H 1058.69 3.38041 -1.9808 0
M  V30 11763 H 1060.39 3.24953 -2.34961 0
M  V30 11764 H 1056.98 2.43334 -3.52826 0
M  V30 11765 H 1061.17 2.15766 -4.46944 0
M  V30 11766 H 1056.42 1.81125 -5.83955 0
M  V30 11767 H 1060.6 1.5453 -6.79039 0
M  V30 11768 H 1058.22 1.36667 -7.47814 0
M  V30 11769 N 1059.8 1.27835 0.921735 0
M  V30 11770 C 1061.05 1.13904 1.6646 0
M  V30 11771 C 1061.36 -0.313379 1.93073 0
M  V30 11772 O 1062.57 -0.573687 2.6537 0
M  V30 11773 C 1061.02 1.99064 2.99836 0
M  V30 11774 C 1060.63 3.48998 2.80899 0
M  V30 11775 C 1062.37 1.93797 3.77681 0
M  V30 11776 C 1060.28 4.26337 4.09867 0
M  V30 11777 H 1059.21 0.422681 0.624385 0
M  V30 11778 H 1061.86 1.52303 1.02352 0
M  V30 11779 H 1060.24 1.53514 3.65034 0
M  V30 11780 H 1061.42 4.02452 2.24431 0
M  V30 11781 H 1059.73 3.55707 2.16476 0
M  V30 11782 H 1062.33 2.48852 4.73262 0
M  V30 11783 H 1062.67 0.912928 4.06167 0
M  V30 11784 H 1063.21 2.37275 3.19289 0
M  V30 11785 H 1059.94 5.2939 3.86557 0
M  V30 11786 H 1059.46 3.77659 4.65976 0
M  V30 11787 H 1061.14 4.3583 4.78185 0
M  V30 11788 N 1061.28 -1.12907 1.09954 0
M  V30 11789 C 1062.23 -2.16558 0.713204 0
M  V30 11790 C 1063.21 -1.5853 -0.27515 0
M  V30 11791 O 1064.4 -1.76797 -0.0846643 0
M  V30 11792 C 1061.53 -3.43009 0.141224 0
M  V30 11793 C 1060.62 -4.08032 1.15632 0
M  V30 11794 N 1061.01 -4.48139 2.34531 0
M  V30 11795 C 1059.31 -4.34743 0.995701 0
M  V30 11796 C 1060.01 -4.98885 2.99147 0
M  V30 11797 N 1058.98 -4.9408 2.26684 0
M  V30 11798 H 1062.78 -2.45328 1.61838 0
M  V30 11799 H 1060.3 -1.29759 0.976539 0
M  V30 11800 H 1062.3 -4.16617 -0.153598 0
M  V30 11801 H 1060.96 -3.15711 -0.758729 0
M  V30 11802 H 1061.97 -4.40668 2.72089 0
M  V30 11803 H 1058.64 -4.17227 0.150888 0
M  V30 11804 H 1060.03 -5.3967 4.00257 0
M  V30 11805 N 1062.75 -0.88754 -1.30232 0
M  V30 11806 C 1063.66 -0.360333 -2.31816 0
M  V30 11807 C 1064.68 0.538741 -1.6545 0
M  V30 11808 O 1065.86 0.431246 -1.96729 0
M  V30 11809 C 1062.92 0.414336 -3.44215 0
M  V30 11810 C 1061.98 -0.514799 -4.26202 0
M  V30 11811 C 1061.21 0.222994 -5.33234 0
M  V30 11812 O 1061.44 1.44871 -5.51696 0
M  V30 11813 O 1060.37 -0.428221 -6.00375 0
M  V30 11814 H 1064.2 -1.20279 -2.78867 0
M  V30 11815 H 1061.78 -0.651459 -1.34448 0
M  V30 11816 H 1063.66 0.852859 -4.12679 0
M  V30 11817 H 1062.34 1.23305 -2.99295 0
M  V30 11818 H 1061.25 -1.00219 -3.60426 0
M  V30 11819 H 1062.58 -1.29959 -4.74733 0
M  V30 11820 N 1064.23 1.43628 -0.648757 0
M  V30 11821 C 1065.48 2.01864 -0.160336 0
M  V30 11822 C 1065.81 1.51148 1.22412 0
M  V30 11823 O 1065.06 0.693168 1.83013 0
M  V30 11824 C 1065.36 3.57214 -0.115282 0
M  V30 11825 C 1065.03 4.27258 -1.44088 0
M  V30 11826 C 1063.69 4.46109 -1.8039 0
M  V30 11827 C 1066.04 4.66962 -2.31508 0
M  V30 11828 C 1063.37 5.01928 -3.03785 0
M  V30 11829 C 1065.72 5.24148 -3.54191 0
M  V30 11830 C 1064.39 5.41216 -3.90694 0
M  V30 11831 H 1063.66 0.738674 -0.0586712 0
M  V30 11832 H 1066.3 1.72163 -0.838578 0
M  V30 11833 H 1064.61 3.86431 0.646395 0
M  V30 11834 H 1066.3 4.00025 0.279425 0
M  V30 11835 H 1062.89 4.12928 -1.14842 0
M  V30 11836 H 1067.08 4.52095 -2.04753 0
M  V30 11837 H 1062.33 5.13328 -3.32122 0
M  V30 11838 H 1066.51 5.53861 -4.22151 0
M  V30 11839 H 1064.14 5.84234 -4.8639 0
M  V30 11840 N 1065.71 0.390394 1.52688 0
M  V30 11841 C 1066.96 -0.191067 2.01195 0
M  V30 11842 C 1067.28 -1.47229 1.27862 0
M  V30 11843 O 1066.55 -1.91793 0.399007 0
M  V30 11844 H 1065.13 -0.073596 0.743366 0
M  V30 11845 H 1067.79 0.522334 1.8777 0
M  V30 11846 H 1066.89 -0.40051 3.0952 0
M  V30 11847 N 1067.19 -1.57141 0.120249 0
M  V30 11848 C 1068.14 -2.11936 -0.84067 0
M  V30 11849 C 1069.12 -1.04044 -1.22734 0
M  V30 11850 O 1070.31 -1.30275 -1.19822 0
M  V30 11851 C 1067.44 -2.72332 -2.09023 0
M  V30 11852 C 1066.53 -3.87306 -1.72786 0
M  V30 11853 N 1066.92 -4.94302 -1.07232 0
M  V30 11854 C 1065.22 -3.97513 -2.02236 0
M  V30 11855 C 1065.92 -5.7467 -0.901626 0
M  V30 11856 N 1064.9 -5.24535 -1.42702 0
M  V30 11857 H 1068.7 -2.92038 -0.330308 0
M  V30 11858 H 1066.21 -1.62192 -0.0821814 0
M  V30 11859 H 1068.21 -3.09932 -2.78833 0
M  V30 11860 H 1066.87 -1.93693 -2.60601 0
M  V30 11861 H 1067.88 -5.12641 -0.736158 0
M  V30 11862 H 1064.56 -3.29917 -2.55853 0
M  V30 11863 H 1065.95 -6.70785 -0.386974 0
M  V30 11864 N 1068.67 0.153526 -1.5685 0
M  V30 11865 C 1069.63 1.17362 -1.96873 0
M  V30 11866 C 1070.63 1.36219 -0.854456 0
M  V30 11867 O 1071.82 1.33322 -1.1212 0
M  V30 11868 C 1068.95 2.53523 -2.27901 0
M  V30 11869 H 1070.14 0.830432 -2.88173 0
M  V30 11870 H 1067.7 0.396633 -1.51184 0
M  V30 11871 H 1068.43 2.92824 -1.39371 0
M  V30 11872 H 1068.22 2.41198 -3.09137 0
M  V30 11873 H 1069.71 3.27006 -2.59725 0
M  V30 11874 N 1070.14 1.51827 0.422667 0
M  V30 11875 C 1071.39 1.65464 1.17258 0
M  V30 11876 C 1071.72 0.376834 1.90509 0
M  V30 11877 O 1071 -0.624219 1.84211 0
M  V30 11878 C 1071.28 2.86776 2.17788 0
M  V30 11879 C 1071.13 4.24571 1.48523 0
M  V30 11880 C 1072.45 3.03603 3.18611 0
M  V30 11881 H 1069.57 0.602169 0.424925 0
M  V30 11882 H 1072.21 1.84349 0.45996 0
M  V30 11883 H 1070.36 2.70806 2.78561 0
M  V30 11884 H 1072.04 4.5224 0.909739 0
M  V30 11885 H 1070.28 4.26595 0.787354 0
M  V30 11886 H 1070.95 5.05475 2.2181 0
M  V30 11887 H 1073.43 3.18381 2.67904 0
M  V30 11888 H 1072.3 3.90022 3.8623 0
M  V30 11889 H 1072.56 2.16318 3.85563 0
M  V30 11890 N 1071.62 -0.679052 1.4222 0
M  V30 11891 C 1072.9 -1.43473 1.32947 0
M  V30 11892 C 1073.28 -2.11071 -0.0351689 0
M  V30 11893 O 1072.63 -2.02925 -1.05042 0
M  V30 11894 C 1072.84 -2.44065 2.49466 0
M  V30 11895 C 1074.19 -3.08834 2.91387 0
M  V30 11896 O 1075.21 -2.54392 2.49325 0
M  V30 11897 O 1074.07 -4.07478 3.64175 0
M  V30 11898 H 1071.16 -0.639743 0.524078 0
M  V30 11899 H 1073.71 -0.708134 1.54219 0
M  V30 11900 H 1072.48 -1.92884 3.40457 0
M  V30 11901 H 1072.1 -3.24212 2.30158 0
M  V30 11902 N 1073.1 -1.28322 -0.914942 0
M  V30 11903 C 1074.38 -1.06111 -1.64316 0
M  V30 11904 C 1074.76 0.399934 -2.07277 0
M  V30 11905 O 1074.11 1.38577 -1.81683 0
M  V30 11906 C 1074.32 -2.03461 -2.83557 0
M  V30 11907 C 1075.66 -2.33541 -3.54604 0
M  V30 11908 O 1076.69 -2.01536 -2.93704 0
M  V30 11909 O 1075.55 -2.88158 -4.64357 0
M  V30 11910 H 1072.64 -0.405451 -0.72079 0
M  V30 11911 H 1075.19 -1.39636 -0.964352 0
M  V30 11912 H 1073.96 -3.01938 -2.48896 0
M  V30 11913 H 1073.58 -1.70574 -3.59152 0
M  V30 11914 N 1074.58 1.12322 -1.10551 0
M  V30 11915 C 1075.81 1.87407 -0.869607 0
M  V30 11916 C 1076.22 1.79976 0.58356 0
M  V30 11917 O 1075.56 1.1725 1.41415 0
M  V30 11918 C 1075.62 3.37401 -1.24099 0
M  V30 11919 C 1075.29 3.68607 -2.70144 0
M  V30 11920 C 1076.28 3.66869 -3.68379 0
M  V30 11921 C 1073.97 3.97903 -3.06559 0
M  V30 11922 C 1075.96 3.93987 -5.01052 0
M  V30 11923 C 1073.65 4.24681 -4.39419 0
M  V30 11924 C 1074.65 4.2271 -5.36475 0
M  V30 11925 O 1074.33 4.48823 -6.66943 0
M  V30 11926 H 1074.07 0.59978 -0.311834 0
M  V30 11927 H 1076.62 1.43037 -1.4741 0
M  V30 11928 H 1074.85 3.82332 -0.579606 0
M  V30 11929 H 1076.54 3.93833 -0.982378 0
M  V30 11930 H 1077.31 3.44297 -3.41591 0
M  V30 11931 H 1073.18 3.98578 -2.31638 0
M  V30 11932 H 1076.73 3.92364 -5.76798 0
M  V30 11933 H 1072.63 4.46727 -4.65945 0
M  V30 11934 H 1073.39 4.66436 -6.72592 0
M  V30 11935 N 1076.06 0.894434 1.2976 0
M  V30 11936 C 1077.02 0.373094 2.26143 0
M  V30 11937 C 1078.02 -0.489756 1.5316 0
M  V30 11938 O 1079.21 -0.29556 1.71674 0
M  V30 11939 C 1076.34 -0.467234 3.37683 0
M  V30 11940 H 1077.53 1.22427 2.73773 0
M  V30 11941 H 1075.09 0.672112 1.41111 0
M  V30 11942 H 1075.82 -1.33861 2.95384 0
M  V30 11943 H 1075.61 0.150954 3.91809 0
M  V30 11944 H 1077.1 -0.823469 4.094 0
M  V30 11945 N 1077.53 -1.43282 0.656365 0
M  V30 11946 C 1078.78 -2.01378 0.170702 0
M  V30 11947 C 1079.1 -1.52063 -1.22073 0
M  V30 11948 O 1078.37 -0.73456 -1.81607 0
M  V30 11949 H 1076.95 -0.744577 0.0601168 0
M  V30 11950 H 1079.62 -1.75449 0.848739 0
M  V30 11951 H 1078.71 -3.11701 0.157745 0
M  V30 11952 N 1079.01 -0.398486 -1.52479 0
M  V30 11953 C 1080.24 0.180295 -2.05812 0
M  V30 11954 C 1080.65 1.40301 -1.26934 0
M  V30 11955 O 1079.99 1.81039 -0.311544 0
M  V30 11956 C 1080.06 0.60601 -3.54355 0
M  V30 11957 C 1079.72 -0.504508 -4.54207 0
M  V30 11958 C 1080.72 -1.36478 -5.01667 0
M  V30 11959 C 1078.4 -0.674161 -4.97755 0
M  V30 11960 C 1080.4 -2.37975 -5.91309 0
M  V30 11961 C 1078.08 -1.69246 -5.87196 0
M  V30 11962 C 1079.08 -2.54367 -6.33866 0
M  V30 11963 O 1078.77 -3.54454 -7.21538 0
M  V30 11964 H 1078.5 0.0286396 -0.675393 0
M  V30 11965 H 1081.06 -0.564912 -1.97479 0
M  V30 11966 H 1079.29 1.40334 -3.60338 0
M  V30 11967 H 1080.97 1.1115 -3.90385 0
M  V30 11968 H 1081.74 -1.24506 -4.68746 0
M  V30 11969 H 1077.62 -0.0213029 -4.60995 0
M  V30 11970 H 1081.16 -3.0445 -6.27659 0
M  V30 11971 H 1077.06 -1.81252 -6.1953 0
M  V30 11972 H 1077.83 -3.50571 -7.39623 0
M  V30 11973 N 1080.49 1.57075 -0.12858 0
M  V30 11974 C 1081.42 2.18833 0.814519 0
M  V30 11975 C 1082.4 1.13114 1.2704 0
M  V30 11976 O 1083.59 1.41387 1.33129 0
M  V30 11977 C 1080.72 2.79535 2.06101 0
M  V30 11978 C 1079.67 3.9092 1.74257 0
M  V30 11979 C 1079 4.38473 3.06015 0
M  V30 11980 C 1080.3 5.1257 1.00345 0
M  V30 11981 H 1081.99 2.97895 0.299862 0
M  V30 11982 H 1079.54 1.4329 0.14279 0
M  V30 11983 H 1081.49 3.21401 2.72543 0
M  V30 11984 H 1080.21 1.97777 2.59907 0
M  V30 11985 H 1078.87 3.49645 1.102 0
M  V30 11986 H 1078.52 3.53561 3.57776 0
M  V30 11987 H 1078.22 5.13591 2.85479 0
M  V30 11988 H 1079.75 4.82997 3.7356 0
M  V30 11989 H 1081.16 5.51395 1.56959 0
M  V30 11990 H 1079.56 5.93333 0.898693 0
M  V30 11991 H 1080.63 4.84899 -0.0081335 0
M  V30 11992 N 1081.97 -0.145205 1.5693 0
M  V30 11993 C 1082.9 -1.18096 2.01434 0
M  V30 11994 C 1083.88 -1.447 0.894204 0
M  V30 11995 O 1085.07 -1.55589 1.16214 0
M  V30 11996 C 1082.2 -2.51369 2.39647 0
M  V30 11997 C 1081.15 -2.39283 3.54863 0
M  V30 11998 C 1080.48 -3.77283 3.78895 0
M  V30 11999 C 1081.78 -1.8754 4.87469 0
M  V30 12000 H 1083.47 -0.810897 2.8821 0
M  V30 12001 H 1081.02 -0.388624 1.38657 0
M  V30 12002 H 1082.97 -3.24054 2.69382 0
M  V30 12003 H 1081.69 -2.90214 1.49811 0
M  V30 12004 H 1080.35 -1.6905 3.25296 0
M  V30 12005 H 1080 -4.13567 2.86307 0
M  V30 12006 H 1079.7 -3.70057 4.56433 0
M  V30 12007 H 1081.22 -4.51514 4.11057 0
M  V30 12008 H 1082.64 -2.50019 5.1591 0
M  V30 12009 H 1081.03 -1.912 5.68826 0
M  V30 12010 H 1082.1 -0.831194 4.77723 0
M  V30 12011 N 1083.45 -1.52049 -0.414609 0
M  V30 12012 C 1084.72 -1.56397 -1.17471 0
M  V30 12013 C 1085.1 -0.34171 -2.08316 0
M  V30 12014 O 1084.45 0.6718 -2.18401 0
M  V30 12015 C 1084.66 -2.88983 -1.95678 0
M  V30 12016 C 1086.01 -3.41781 -2.51935 0
M  V30 12017 O 1087.03 -2.90686 -2.05865 0
M  V30 12018 O 1085.89 -4.30989 -3.36022 0
M  V30 12019 H 1082.99 -0.62974 -0.536056 0
M  V30 12020 H 1085.53 -1.64374 -0.421834 0
M  V30 12021 H 1084.31 -3.69392 -1.29094 0
M  V30 12022 H 1083.93 -2.84274 -2.77983 0
M  V30 12023 N 1084.93 0.6715 -1.42579 0
M  V30 12024 C 1085.87 1.78496 -1.46314 0
M  V30 12025 C 1086.84 1.63091 -0.314743 0
M  V30 12026 O 1088.03 1.83597 -0.519292 0
M  V30 12027 C 1085.17 3.16548 -1.37447 0
M  V30 12028 C 1084.28 3.43216 -2.62348 0
M  V30 12029 C 1083.42 4.71014 -2.456 0
M  V30 12030 C 1082.45 4.90728 -3.65859 0
M  V30 12031 N 1081.59 6.09769 -3.48032 0
M  V30 12032 H 1086.43 1.74638 -2.41466 0
M  V30 12033 H 1083.97 0.852491 -1.19879 0
M  V30 12034 H 1085.93 3.96329 -1.30303 0
M  V30 12035 H 1084.56 3.19522 -0.458891 0
M  V30 12036 H 1083.61 2.57664 -2.79846 0
M  V30 12037 H 1084.92 3.53675 -3.51732 0
M  V30 12038 H 1084.07 5.58892 -2.3606 0
M  V30 12039 H 1082.81 4.62843 -1.53712 0
M  V30 12040 H 1081.82 4.01291 -3.75827 0
M  V30 12041 H 1083.04 5.00741 -4.58732 0
M  V30 12042 H 1080.99 6.02765 -2.58864 0
M  V30 12043 H 1080.91 6.21104 -4.31005 0
M  V30 12044 H 1082.17 7.00317 -3.42311 0
M  V30 12045 N 1086.4 1.28806 0.908124 0
M  V30 12046 C 1087.35 1.13083 2.03261 0
M  V30 12047 C 1088.35 0.0486094 1.6933 0
M  V30 12048 O 1089.55 0.207794 1.78797 0
M  V30 12049 H 1085.93 0.349057 0.666081 0
M  V30 12050 H 1087.9 2.08304 2.13663 0
M  V30 12051 C 1086.65 0.815339 3.38005 0
M  V30 12052 H 1085.97 1.64007 3.64612 0
M  V30 12053 H 1087.41 0.745311 4.17398 0
M  V30 12054 C 1085.87 -0.48113 3.33447 0
M  V30 12055 O 1086.4 -1.50974 3.7225 0
M  V30 12056 N 1084.6 -0.483912 2.86543 0
M  V30 12057 H 1084.15 0.353593 2.55162 0
M  V30 12058 H 1084.11 -1.35138 2.83875 0
M  V30 12059 N 1087.88 -1.11734 1.11145 0
M  V30 12060 C 1088.81 -2.17438 0.724804 0
M  V30 12061 C 1089.83 -1.6099 -0.242069 0
M  V30 12062 O 1091.02 -1.78482 -0.0254259 0
M  V30 12063 C 1088.12 -3.38863 0.050004 0
M  V30 12064 C 1087.29 -4.24785 1.04292 0
M  V30 12065 C 1086.35 -5.24691 0.398243 0
M  V30 12066 O 1085.37 -5.59408 1.05125 0
M  V30 12067 N 1086.58 -5.74388 -0.840184 0
M  V30 12068 H 1089.34 -2.51219 1.63429 0
M  V30 12069 H 1086.9 -1.27226 1.00125 0
M  V30 12070 H 1088.89 -4.02788 -0.392929 0
M  V30 12071 H 1087.46 -3.0317 -0.762005 0
M  V30 12072 H 1086.68 -3.57363 1.6639 0
M  V30 12073 H 1087.97 -4.79033 1.71478 0
M  V30 12074 H 1087.37 -5.48359 -1.38994 0
M  V30 12075 H 1085.93 -6.40163 -1.22615 0
M  V30 12076 N 1089.36 -0.901303 -1.29284 0
M  V30 12077 C 1090.58 -0.542823 -2.0017 0
M  V30 12078 C 1091.01 0.865583 -1.67001 0
M  V30 12079 O 1090.37 1.5764 -0.895502 0
M  V30 12080 C 1090.42 -0.743987 -3.52842 0
M  V30 12081 O 1089.52 0.202771 -4.11901 0
M  V30 12082 H 1088.86 -0.211903 -0.62928 0
M  V30 12083 H 1091.39 -1.21333 -1.64741 0
M  V30 12084 H 1091.4 -0.64926 -4.02801 0
M  V30 12085 H 1090.08 -1.77077 -3.7632 0
M  V30 12086 H 1088.65 0.0603637 -3.72851 0
M  V30 12087 N 1090.84 1.42931 -0.663954 0
M  V30 12088 C 1092.11 1.95284 -0.111174 0
M  V30 12089 C 1092.49 1.60484 1.37142 0
M  V30 12090 O 1091.84 0.895425 2.10225 0
M  V30 12091 C 1092.05 3.47046 -0.368789 0
M  V30 12092 C 1093.4 4.23679 -0.279473 0
M  V30 12093 O 1094.42 3.54918 -0.301937 0
M  V30 12094 O 1093.28 5.46087 -0.21236 0
M  V30 12095 H 1090.38 0.826993 0.00341718 0
M  V30 12096 H 1092.92 1.52816 -0.737935 0
M  V30 12097 H 1091.7 3.65541 -1.39626 0
M  V30 12098 H 1091.32 3.96537 0.290514 0
M  V30 12099 N 1092.32 0.406567 1.52266 0
M  V30 12100 C 1093.25 -0.411314 2.29849 0
M  V30 12101 C 1094.23 -1.04838 1.33952 0
M  V30 12102 O 1095.41 -1.05788 1.62857 0
M  V30 12103 C 1092.54 -1.52961 3.11802 0
M  V30 12104 C 1091.5 -1.01768 4.15725 0
M  V30 12105 C 1090.82 -2.22938 4.86007 0
M  V30 12106 C 1092.12 -0.073515 5.22248 0
M  V30 12107 H 1093.82 0.236054 2.98468 0
M  V30 12108 H 1091.36 0.114968 1.4354 0
M  V30 12109 H 1093.31 -2.10874 3.64843 0
M  V30 12110 H 1092.04 -2.20482 2.40947 0
M  V30 12111 H 1090.7 -0.46097 3.6369 0
M  V30 12112 H 1090.35 -2.89007 4.11684 0
M  V30 12113 H 1090.05 -1.89338 5.5626 0
M  V30 12114 H 1091.57 -2.81462 5.41859 0
M  V30 12115 H 1092.98 -0.561367 5.70545 0
M  V30 12116 H 1091.38 0.173551 5.99849 0
M  V30 12117 H 1092.45 0.872524 4.76985 0
M  V30 12118 N 1093.79 -1.57004 0.136909 0
M  V30 12119 C 1095.04 -1.96087 -0.517477 0
M  V30 12120 C 1095.37 -1.0213 -1.65176 0
M  V30 12121 O 1094.65 -0.0617958 -1.94402 0
M  V30 12122 C 1094.93 -3.44958 -1.03323 0
M  V30 12123 C 1094.78 -4.49691 0.0988609 0
M  V30 12124 C 1096.1 -3.96091 -1.91832 0
M  V30 12125 H 1093.22 -0.712978 -0.186632 0
M  V30 12126 H 1095.86 -1.88767 0.216095 0
M  V30 12127 H 1094.01 -3.51327 -1.65836 0
M  V30 12128 H 1095.69 -4.55409 0.734847 0
M  V30 12129 H 1093.93 -4.271 0.75947 0
M  V30 12130 H 1094.6 -5.51165 -0.303554 0
M  V30 12131 H 1097.08 -3.92139 -1.39164 0
M  V30 12132 H 1095.95 -5.00742 -2.24831 0
M  V30 12133 H 1096.21 -3.37846 -2.85153 0
M  V30 12134 N 1095.27 0.136881 -1.57004 0
M  V30 12135 C 1096.5 0.862436 -1.88068 0
M  V30 12136 C 1096.92 1.74274 -0.726227 0
M  V30 12137 O 1096.27 1.79956 0.30366 0
M  V30 12138 C 1096.32 1.71076 -3.18458 0
M  V30 12139 O 1096.04 0.865918 -4.29457 0
M  V30 12140 C 1097.55 2.54302 -3.63105 0
M  V30 12141 H 1094.77 0.248865 -0.623143 0
M  V30 12142 H 1097.31 0.126633 -2.04108 0
M  V30 12143 H 1095.46 2.39951 -3.04142 0
M  V30 12144 H 1095.88 1.4493 -5.04079 0
M  V30 12145 H 1097.35 3.09384 -4.57149 0
M  V30 12146 H 1097.83 3.3082 -2.88886 0
M  V30 12147 H 1098.44 1.907 -3.80149 0
M  V30 12148 N 1096.75 1.52266 0.40654 0
M  V30 12149 C 1097.7 1.76409 1.516 0
M  V30 12150 C 1098.69 0.631311 1.57197 0
M  V30 12151 O 1099.9 0.813413 1.60573 0
M  V30 12152 H 1096.27 0.557904 0.50423 0
M  V30 12153 H 1098.24 2.69351 1.28424 0
M  V30 12154 C 1096.99 1.93415 2.88939 0
M  V30 12155 H 1096.32 2.8 2.85377 0
M  V30 12156 H 1097.76 2.14306 3.65854 0
M  V30 12157 C 1096.22 0.701938 3.29506 0
M  V30 12158 O 1096.75 -0.128965 4.01493 0
M  V30 12159 N 1094.95 0.537089 2.85594 0
M  V30 12160 H 1094.5 1.21435 2.27181 0
M  V30 12161 H 1094.46 -0.286055 3.13096 0
M  V30 12162 N 1098.23 -0.663929 1.42933 0
M  V30 12163 C 1099.45 -1.45691 1.47611 0
M  V30 12164 C 1099.88 -1.87875 0.0920305 0
M  V30 12165 O 1099.24 -1.56696 -0.91192 0
M  V30 12166 C 1099.28 -2.67517 2.41799 0
M  V30 12167 O 1098.39 -3.66187 1.89686 0
M  V30 12168 H 1097.73 -0.437257 0.499702 0
M  V30 12169 H 1100.26 -0.813397 1.87737 0
M  V30 12170 H 1100.27 -3.1546 2.58745 0
M  V30 12171 H 1098.94 -2.36155 3.4235 0
M  V30 12172 H 1097.52 -3.25274 1.82349 0
M  V30 12173 N 1099.71 -1.29285 -0.901281 0
M  V30 12174 C 1100.65 -1.1428 -2.00521 0
M  V30 12175 C 1101.62 -0.0365428 -1.6606 0
M  V30 12176 O 1102.81 -0.203771 -1.89709 0
M  V30 12177 C 1099.95 -0.823671 -3.35126 0
M  V30 12178 C 1099.06 -2.01021 -3.8238 0
M  V30 12179 C 1098.2 -1.6306 -5.05554 0
M  V30 12180 C 1097.24 -2.78304 -5.45173 0
M  V30 12181 N 1096.37 -2.4075 -6.59533 0
M  V30 12182 H 1101.21 -2.08729 -2.12688 0
M  V30 12183 H 1098.75 -1.0387 -1.04161 0
M  V30 12184 H 1100.71 -0.61934 -4.12577 0
M  V30 12185 H 1099.34 0.0839113 -3.22691 0
M  V30 12186 H 1098.39 -2.32629 -3.00978 0
M  V30 12187 H 1099.7 -2.8738 -4.07694 0
M  V30 12188 H 1098.86 -1.38906 -5.90584 0
M  V30 12189 H 1097.59 -0.738464 -4.82077 0
M  V30 12190 H 1096.6 -3.03142 -4.58678 0
M  V30 12191 H 1097.82 -3.68179 -5.70632 0
M  V30 12192 H 1095.77 -1.54022 -6.37662 0
M  V30 12193 H 1095.69 -3.20643 -6.84634 0
M  V30 12194 H 1096.96 -2.19912 -7.47836 0
M  V30 12195 N 1101.18 1.11143 -1.11736 0
M  V30 12196 C 1102.13 2.17274 -0.778513 0
M  V30 12197 C 1103.1 1.64186 0.251405 0
M  V30 12198 O 1104.29 1.90373 0.127629 0
M  V30 12199 C 1101.43 3.44324 -0.231246 0
M  V30 12200 C 1100.54 4.114 -1.31809 0
M  V30 12201 C 1099.67 5.26146 -0.73104 0
M  V30 12202 C 1098.71 5.85112 -1.79752 0
M  V30 12203 N 1097.85 6.91247 -1.22973 0
M  V30 12204 H 1102.69 2.45603 -1.68769 0
M  V30 12205 H 1100.23 1.20565 -0.842759 0
M  V30 12206 H 1102.19 4.1707 0.104045 0
M  V30 12207 H 1100.82 3.16369 0.641119 0
M  V30 12208 H 1099.87 3.36697 -1.77029 0
M  V30 12209 H 1101.18 4.51278 -2.12485 0
M  V30 12210 H 1100.33 6.05713 -0.345987 0
M  V30 12211 H 1099.07 4.87583 0.107 0
M  V30 12212 H 1098.08 5.0422 -2.19185 0
M  V30 12213 H 1099.3 6.25741 -2.63865 0
M  V30 12214 H 1097.25 6.54696 -0.41339 0
M  V30 12215 H 1097.17 7.29796 -1.97316 0
M  V30 12216 H 1098.43 7.74611 -0.87167 0
M  V30 12217 N 1102.66 0.908147 1.28804 0
M  V30 12218 C 1103.91 0.538404 1.95211 0
M  V30 12219 C 1104.24 -0.916886 1.71533 0
M  V30 12220 O 1103.49 -1.66643 1.02609 0
M  V30 12221 C 1103.79 0.787327 3.4862 0
M  V30 12222 C 1103.46 2.22129 3.92389 0
M  V30 12223 C 1102.12 2.61336 4.04051 0
M  V30 12224 C 1104.47 3.15471 4.14883 0
M  V30 12225 C 1101.8 3.93048 4.3558 0
M  V30 12226 C 1104.15 4.46741 4.47889 0
M  V30 12227 C 1102.82 4.85809 4.57761 0
M  V30 12228 H 1102.09 0.197016 0.714329 0
M  V30 12229 H 1104.73 1.14841 1.53244 0
M  V30 12230 H 1103.04 0.0944731 3.91686 0
M  V30 12231 H 1104.73 0.480503 3.98111 0
M  V30 12232 H 1101.32 1.90704 3.83836 0
M  V30 12233 H 1105.51 2.86391 4.05332 0
M  V30 12234 H 1100.76 4.23027 4.41428 0
M  V30 12235 H 1104.94 5.19087 4.64243 0
M  V30 12236 H 1102.57 5.87904 4.81947 0
M  V30 12237 N 1104.14 -1.42577 0.671525 0
M  V30 12238 C 1105.39 -2.00806 0.189663 0
M  V30 12239 C 1105.7 -1.537 -1.20978 0
M  V30 12240 O 1106.91 -2.04325 -1.78784 0
M  V30 12241 C 1105.36 -3.58744 0.288227 0
M  V30 12242 C 1104.97 -4.14839 1.69152 0
M  V30 12243 C 1106.72 -4.24285 -0.13509 0
M  V30 12244 C 1104.62 -5.65131 1.74302 0
M  V30 12245 H 1103.55 -0.751004 0.067146 0
M  V30 12246 H 1106.2 -1.63338 0.83623 0
M  V30 12247 H 1104.59 -3.937 -0.426175 0
M  V30 12248 H 1105.76 -3.91349 2.43274 0
M  V30 12249 H 1104.08 -3.61738 2.0624 0
M  V30 12250 H 1106.67 -5.34573 -0.116709 0
M  V30 12251 H 1107.02 -3.99527 -1.16977 0
M  V30 12252 H 1107.55 -3.94278 0.528191 0
M  V30 12253 H 1104.29 -5.94682 2.75742 0
M  V30 12254 H 1103.81 -5.90621 1.04531 0
M  V30 12255 H 1105.49 -6.29491 1.49498 0
M  V30 12256 N 1105.62 -0.414636 -1.52048 0
M  V30 12257 C 1106.9 0.218172 -1.94379 0
M  V30 12258 C 1107.28 1.62133 -1.35189 0
M  V30 12259 O 1106.62 2.22271 -0.529877 0
M  V30 12260 C 1106.83 0.218932 -3.48313 0
M  V30 12261 C 1108.18 0.435604 -4.2236 0
M  V30 12262 O 1109.21 0.298049 -3.54951 0
M  V30 12263 O 1108.06 0.707217 -5.41905 0
M  V30 12264 H 1105.16 0.142173 -0.814688 0
M  V30 12265 H 1107.7 -0.470977 -1.63033 0
M  V30 12266 H 1106.48 -0.76292 -3.83791 0
M  V30 12267 H 1106.1 0.951949 -3.86036 0
M  V30 12268 N 1107.1 1.56929 -0.145233 0
M  V30 12269 C 1108.35 1.95243 0.506273 0
M  V30 12270 C 1108.66 1.0325 1.66129 0
M  V30 12271 O 1109.86 1.31135 2.37731 0
M  V30 12272 C 1108.32 3.47079 0.952042 0
M  V30 12273 C 1107.93 4.47654 -0.175947 0
M  V30 12274 C 1109.67 3.94263 1.57344 0
M  V30 12275 C 1107.58 5.90698 0.287993 0
M  V30 12276 H 1106.51 0.728906 0.192903 0
M  V30 12277 H 1109.16 1.82062 -0.229295 0
M  V30 12278 H 1107.54 3.55587 1.74282 0
M  V30 12279 H 1108.72 4.50841 -0.952848 0
M  V30 12280 H 1107.03 4.10377 -0.70564 0
M  V30 12281 H 1109.63 4.9857 1.93214 0
M  V30 12282 H 1109.97 3.35714 2.46174 0
M  V30 12283 H 1110.5 3.88665 0.847593 0
M  V30 12284 H 1107.24 6.53061 -0.564889 0
M  V30 12285 H 1106.76 5.90876 1.03081 0
M  V30 12286 H 1108.44 6.42747 0.740586 0
M  V30 12287 N 1108.58 -0.128553 1.57075 0
M  V30 12288 C 1109.82 -0.83801 1.84347 0
M  V30 12289 C 1110.15 -1.80325 0.728906 0
M  V30 12290 O 1109.41 -1.93678 -0.280571 0
M  V30 12291 C 1109.7 -1.63027 3.18052 0
M  V30 12292 C 1109.37 -0.810171 4.43562 0
M  V30 12293 C 1108.03 -0.583984 4.77643 0
M  V30 12294 C 1110.38 -0.237896 5.20657 0
M  V30 12295 C 1107.71 0.224887 5.86269 0
M  V30 12296 C 1110.06 0.558114 6.30133 0
M  V30 12297 C 1108.73 0.794706 6.62752 0
M  V30 12298 H 1108 -0.30665 0.674572 0
M  V30 12299 H 1110.65 -0.100797 1.91235 0
M  V30 12300 H 1108.95 -2.43812 3.06697 0
M  V30 12301 H 1110.65 -2.183 3.36372 0
M  V30 12302 H 1107.24 -0.996547 4.16854 0
M  V30 12303 H 1111.42 -0.399881 4.94686 0
M  V30 12304 H 1106.68 0.417507 6.09973 0
M  V30 12305 H 1110.85 1.00859 6.89058 0
M  V30 12306 H 1108.48 1.42331 7.46757 0
M  V30 12307 N 1110.05 -1.5248 -0.398459 0
M  V30 12308 C 1111 -1.76585 -1.48615 0
M  V30 12309 C 1111.97 -0.608677 -1.54546 0
M  V30 12310 O 1113.16 -0.847383 -1.7095 0
M  V30 12311 C 1110.3 -1.93201 -2.8595 0
M  V30 12312 C 1109.41 -3.20875 -2.89246 0
M  V30 12313 C 1108.54 -3.27862 -4.17947 0
M  V30 12314 C 1107.58 -4.49697 -4.15258 0
M  V30 12315 N 1106.72 -4.54017 -5.35549 0
M  V30 12316 H 1111.56 -2.69412 -1.27362 0
M  V30 12317 H 1109.1 -1.33487 -0.618031 0
M  V30 12318 H 1111.05 -2.00819 -3.65688 0
M  V30 12319 H 1109.68 -1.03743 -3.05675 0
M  V30 12320 H 1108.74 -3.22376 -2.01935 0
M  V30 12321 H 1110.05 -4.1066 -2.83125 0
M  V30 12322 H 1109.2 -3.34611 -5.06083 0
M  V30 12323 H 1107.94 -2.36035 -4.26777 0
M  V30 12324 H 1106.95 -4.43083 -3.25511 0
M  V30 12325 H 1108.17 -5.42831 -4.08059 0
M  V30 12326 H 1106.12 -3.65078 -5.45027 0
M  V30 12327 H 1106.03 -5.37661 -5.31466 0
M  V30 12328 H 1107.3 -4.65009 -6.25609 0
M  V30 12329 N 1111.53 0.65634 -1.43283 0
M  V30 12330 C 1112.44 1.79847 -1.50639 0
M  V30 12331 C 1113.46 1.69487 -0.393714 0
M  V30 12332 O 1114.63 1.90712 -0.647379 0
M  V30 12333 C 1111.7 3.16107 -1.42398 0
M  V30 12334 C 1110.76 3.38287 -2.64312 0
M  V30 12335 C 1109.99 4.68046 -2.56454 0
M  V30 12336 O 1110.22 5.4719 -1.61056 0
M  V30 12337 O 1109.15 4.91877 -3.46902 0
M  V30 12338 H 1112.98 1.76596 -2.47078 0
M  V30 12339 H 1110.56 0.814428 -1.25249 0
M  V30 12340 H 1112.44 3.97382 -1.40233 0
M  V30 12341 H 1111.12 3.19956 -0.490929 0
M  V30 12342 H 1110.02 2.56788 -2.72049 0
M  V30 12343 H 1111.36 3.39282 -3.56579 0
M  V30 12344 N 1113.01 1.29761 0.894412 0
M  V30 12345 C 1113.92 1.1724 2.03204 0
M  V30 12346 C 1114.94 0.0944452 1.73743 0
M  V30 12347 O 1116.11 0.307549 1.99038 0
M  V30 12348 C 1113.18 0.855416 3.35981 0
M  V30 12349 C 1112.24 2.01777 3.78926 0
M  V30 12350 C 1111.47 1.71581 5.05367 0
M  V30 12351 O 1111.69 0.639245 5.66807 0
M  V30 12352 O 1110.63 2.56539 5.44492 0
M  V30 12353 H 1114.45 2.12787 2.16692 0
M  V30 12354 H 1112.04 1.09264 1.0189 0
M  V30 12355 H 1113.92 0.693429 4.15656 0
M  V30 12356 H 1112.6 -0.0702195 3.23624 0
M  V30 12357 H 1111.5 2.23502 2.99996 0
M  V30 12358 H 1112.84 2.92479 3.95875 0
M  V30 12359 N 1114.49 -1.10549 1.12324 0
M  V30 12360 C 1115.74 -1.82124 0.876083 0
M  V30 12361 C 1116.06 -1.85547 -0.599761 0
M  V30 12362 O 1115.33 -1.33269 -1.43584 0
M  V30 12363 H 1113.91 -0.674455 0.321122 0
M  V30 12364 H 1116.57 -1.33766 1.41748 0
M  V30 12365 H 1115.66 -2.85688 1.25653 0
M  V30 12366 N 1115.97 -0.914965 -1.28321 0
M  V30 12367 C 1117.19 -0.564023 -1.99583 0
M  V30 12368 C 1117.62 0.847821 -1.6791 0
M  V30 12369 O 1116.97 1.56682 -0.912171 0
M  V30 12370 C 1117.02 -0.781368 -3.52033 0
M  V30 12371 O 1116.13 0.159072 -4.12093 0
M  V30 12372 H 1115.47 -0.218565 -0.626997 0
M  V30 12373 H 1118 -1.23074 -1.63444 0
M  V30 12374 H 1118.01 -0.691946 -4.0209 0
M  V30 12375 H 1116.68 -1.81059 -3.7442 0
M  V30 12376 H 1115.26 0.0208145 -3.72894 0
M  V30 12377 N 1117.44 1.42219 -0.679077 0
M  V30 12378 C 1118.39 2.32599 0.00820028 0
M  V30 12379 C 1119.39 1.50059 0.786046 0
M  V30 12380 O 1120.59 1.66103 0.693528 0
M  V30 12381 H 1116.97 0.751694 0.0214483 0
M  V30 12382 H 1118.94 2.88257 -0.77138 0
M  V30 12383 C 1117.69 3.3468 0.942581 0
M  V30 12384 H 1117.01 3.98234 0.353463 0
M  V30 12385 H 1118.45 4.00496 1.39208 0
M  V30 12386 C 1116.91 2.67275 2.05099 0
M  V30 12387 O 1117.44 2.50793 3.13793 0
M  V30 12388 N 1115.64 2.26232 1.82394 0
M  V30 12389 H 1115.19 2.39838 0.939983 0
M  V30 12390 H 1115.15 1.81465 2.56744 0
M  V30 12391 N 1118.92 0.422693 1.51826 0
M  V30 12392 C 1119.85 -0.386913 2.30272 0
M  V30 12393 C 1120.83 -1.03411 1.35056 0
M  V30 12394 O 1122.02 -1.04055 1.6397 0
M  V30 12395 C 1119.15 -1.49645 3.13407 0
M  V30 12396 C 1118.1 -0.973532 4.16781 0
M  V30 12397 C 1117.43 -2.1777 4.88344 0
M  V30 12398 C 1118.73 -0.0181194 5.22297 0
M  V30 12399 H 1120.42 0.267697 2.98201 0
M  V30 12400 H 1117.97 0.130186 1.4341 0
M  V30 12401 H 1119.92 -2.06993 3.67059 0
M  V30 12402 H 1118.64 -2.17914 2.43272 0
M  V30 12403 H 1117.3 -0.42237 3.64159 0
M  V30 12404 H 1116.95 -2.84625 4.14726 0
M  V30 12405 H 1116.65 -1.83427 5.58237 0
M  V30 12406 H 1118.18 -2.75699 5.44814 0
M  V30 12407 H 1119.59 -0.500822 5.71108 0
M  V30 12408 H 1117.99 0.237163 5.99631 0
M  V30 12409 H 1119.06 0.923065 4.76033 0
M  V30 12410 N 1120.4 -1.5685 0.153553 0
M  V30 12411 C 1121.63 -2.00701 -0.502678 0
M  V30 12412 C 1122.04 -1.0337 -1.57988 0
M  V30 12413 O 1121.4 -0.0317233 -1.82472 0
M  V30 12414 C 1121.45 -3.44443 -1.09732 0
M  V30 12415 O 1121.17 -4.38054 -0.0631405 0
M  V30 12416 C 1122.67 -4.03605 -1.83352 0
M  V30 12417 H 1119.89 -0.658229 -0.130289 0
M  V30 12418 H 1122.44 -2.02965 0.250063 0
M  V30 12419 H 1120.59 -3.43009 -1.80065 0
M  V30 12420 H 1121.01 -5.22114 -0.499681 0
M  V30 12421 H 1122.48 -5.0616 -2.20241 0
M  V30 12422 H 1122.96 -3.44687 -2.7219 0
M  V30 12423 H 1123.56 -4.08688 -1.17703 0
M  V30 12424 N 1121.88 0.120221 -1.57141 0
M  V30 12425 C 1123.1 0.84637 -1.89344 0
M  V30 12426 C 1123.53 1.72702 -0.745365 0
M  V30 12427 O 1122.89 1.7873 0.304155 0
M  V30 12428 C 1122.93 1.65671 -3.20289 0
M  V30 12429 O 1122.04 2.76353 -3.06109 0
M  V30 12430 H 1121.38 0.234132 -0.621352 0
M  V30 12431 H 1123.91 0.102986 -2.04341 0
M  V30 12432 H 1123.92 2.04621 -3.52979 0
M  V30 12433 H 1122.59 1.01023 -4.03444 0
M  V30 12434 H 1121.17 2.40615 -2.84884 0
M  V30 12435 N 1123.36 1.52689 0.390367 0
M  V30 12436 C 1124.59 1.71292 1.1551 0
M  V30 12437 C 1124.99 0.430405 1.84239 0
M  V30 12438 O 1124.34 -0.604823 1.73458 0
M  V30 12439 C 1124.4 2.80597 2.24735 0
M  V30 12440 C 1124.06 4.21757 1.75984 0
M  V30 12441 C 1125.06 5.04961 1.23733 0
M  V30 12442 C 1122.75 4.68071 1.82248 0
M  V30 12443 C 1124.74 6.32561 0.783926 0
M  V30 12444 C 1122.43 5.95656 1.36519 0
M  V30 12445 C 1123.42 6.7773 0.846786 0
M  V30 12446 O 1123.11 8.02923 0.396164 0
M  V30 12447 H 1122.84 0.576906 0.352356 0
M  V30 12448 H 1125.4 2.00117 0.462865 0
M  V30 12449 H 1123.63 2.4719 2.97378 0
M  V30 12450 H 1125.32 2.87616 2.86412 0
M  V30 12451 H 1126.08 4.70363 1.18251 0
M  V30 12452 H 1121.96 4.04278 2.21541 0
M  V30 12453 H 1125.51 6.96572 0.378612 0
M  V30 12454 H 1121.4 6.29758 1.41686 0
M  V30 12455 H 1122.17 8.16861 0.517766 0
M  V30 12456 N 1124.83 -0.648732 1.43629 0
M  V30 12457 C 1126.08 -1.40579 1.45196 0
M  V30 12458 C 1126.4 -1.9484 0.0790556 0
M  V30 12459 O 1125.67 -1.74707 -0.886239 0
M  V30 12460 H 1124.25 -0.52175 0.53459 0
M  V30 12461 H 1126.92 -0.764796 1.79268 0
M  V30 12462 H 1126.01 -2.24591 2.16715 0
M  V30 12463 N 1126.31 -1.30234 -0.887518 0
M  V30 12464 C 1127.73 -1.0851 -1.17037 0
M  V30 12465 C 1127.93 0.155788 -2.00897 0
M  V30 12466 O 1126.98 0.850123 -2.37759 0
M  V30 12467 C 1128.3 -2.34723 -1.87951 0
M  V30 12468 C 1129.85 -2.40163 -2.00726 0
M  V30 12469 C 1130.32 -3.66211 -2.75051 0
M  V30 12470 N 1131.81 -3.67004 -2.82599 0
M  V30 12471 C 1132.55 -4.61224 -3.40676 0
M  V30 12472 N 1132.04 -5.65786 -3.99823 0
M  V30 12473 N 1133.84 -4.48772 -3.38467 0
M  V30 12474 H 1125.99 -2.09847 -0.328297 0
M  V30 12475 H 1128.25 -0.924904 -0.20798 0
M  V30 12476 H 1127.96 -3.25265 -1.33773 0
M  V30 12477 H 1127.83 -2.43175 -2.8835 0
M  V30 12478 H 1130.22 -1.50101 -2.54074 0
M  V30 12479 H 1130.3 -2.35688 -0.994218 0
M  V30 12480 H 1129.94 -4.56631 -2.22376 0
M  V30 12481 H 1129.87 -3.67947 -3.76726 0
M  V30 12482 H 1132.36 -2.91409 -2.40602 0
M  V30 12483 H 1132.68 -6.33783 -4.42197 0
M  V30 12484 H 1131.02 -5.69581 -3.9825 0
M  V30 12485 H 1134.21 -3.6627 -2.91485 0
M  V30 12486 H 1134.38 -5.22382 -3.83433 0
M  V30 12487 N 1127.79 1.09952 -1.12909 0
M  V30 12488 C 1129.02 1.8579 -0.910483 0
M  V30 12489 C 1129.43 1.80898 0.540484 0
M  V30 12490 O 1128.79 1.20126 1.3739 0
M  V30 12491 C 1128.84 3.33987 -1.38329 0
M  V30 12492 O 1128.56 3.38811 -2.77739 0
M  V30 12493 C 1130.06 4.26683 -1.20234 0
M  V30 12494 H 1127.28 0.587026 -0.325025 0
M  V30 12495 H 1129.83 1.38965 -1.5003 0
M  V30 12496 H 1127.98 3.78259 -0.836592 0
M  V30 12497 H 1128.4 4.31204 -2.98603 0
M  V30 12498 H 1129.87 5.28846 -1.58197 0
M  V30 12499 H 1130.35 4.38966 -0.14344 0
M  V30 12500 H 1130.95 3.88221 -1.73679 0
M  V30 12501 N 1129.27 0.921757 1.27833 0
M  V30 12502 C 1130.22 0.406628 2.29018 0
M  V30 12503 C 1131.21 -0.505914 1.61669 0
M  V30 12504 O 1132.42 -0.386273 1.75807 0
M  V30 12505 H 1128.79 0.112914 0.743475 0
M  V30 12506 H 1130.76 1.27295 2.69886 0
M  V30 12507 C 1129.51 -0.330783 3.46123 0
M  V30 12508 H 1128.83 0.362207 3.98156 0
M  V30 12509 H 1130.27 -0.655738 4.18899 0
M  V30 12510 C 1128.73 -1.54161 2.9956 0
M  V30 12511 O 1129.26 -2.64052 3.0272 0
M  V30 12512 N 1127.47 -1.39137 2.55126 0
M  V30 12513 H 1127.02 -0.497319 2.52754 0
M  V30 12514 H 1126.97 -2.20278 2.24333 0
M  V30 12515 N 1130.75 -1.41857 0.686609 0
M  V30 12516 C 1131.66 -2.34595 0.0159005 0
M  V30 12517 C 1132.67 -1.55741 -0.775933 0
M  V30 12518 O 1133.85 -1.8826 -0.71555 0
M  V30 12519 C 1130.91 -3.34395 -0.915473 0
M  V30 12520 C 1129.97 -4.29141 -0.116851 0
M  V30 12521 C 1129.21 -5.24174 -1.00386 0
M  V30 12522 O 1129.43 -5.24431 -2.2434 0
M  V30 12523 O 1128.36 -6.00152 -0.458337 0
M  V30 12524 H 1132.19 -2.9351 0.780101 0
M  V30 12525 H 1129.78 -1.42559 0.446896 0
M  V30 12526 H 1131.66 -3.95675 -1.44981 0
M  V30 12527 H 1130.33 -2.77936 -1.65932 0
M  V30 12528 H 1129.24 -3.71238 0.461871 0
M  V30 12529 H 1130.57 -4.88673 0.588138 0
M  V30 12530 N 1132.22 -0.430739 -1.51599 0
M  V30 12531 C 1133.19 0.372319 -2.26156 0
M  V30 12532 C 1134.19 0.955338 -1.29344 0
M  V30 12533 O 1135.38 0.830823 -1.53111 0
M  V30 12534 C 1132.51 1.52613 -3.04831 0
M  V30 12535 H 1133.7 -0.280996 -2.98581 0
M  V30 12536 H 1131.26 -0.183749 -1.55216 0
M  V30 12537 H 1131.99 2.21569 -2.36807 0
M  V30 12538 H 1131.78 1.11433 -3.75932 0
M  V30 12539 H 1133.27 2.09366 -3.61325 0
M  V30 12540 N 1133.7 1.56767 -0.161869 0
M  V30 12541 C 1134.61 2.21083 0.784814 0
M  V30 12542 C 1135.63 1.19959 1.26039 0
M  V30 12543 O 1136.8 1.52588 1.31449 0
M  V30 12544 C 1133.87 2.83153 2.00063 0
M  V30 12545 C 1132.93 3.9945 1.57285 0
M  V30 12546 C 1132.16 4.5855 2.7307 0
M  V30 12547 O 1132.39 4.16534 3.89686 0
M  V30 12548 O 1131.32 5.48575 2.47688 0
M  V30 12549 H 1135.15 3.02522 0.267243 0
M  V30 12550 H 1132.73 1.49255 0.0658783 0
M  V30 12551 H 1134.61 3.22546 2.71186 0
M  V30 12552 H 1133.29 2.04718 2.50744 0
M  V30 12553 H 1132.2 3.64745 0.831393 0
M  V30 12554 H 1133.53 4.7945 1.11304 0
M  V30 12555 N 1135.18 -0.111886 1.57202 0
M  V30 12556 C 1136.43 -0.818411 1.85225 0
M  V30 12557 C 1136.76 -1.79542 0.747991 0
M  V30 12558 O 1136.01 -1.93965 -0.260013 0
M  V30 12559 C 1136.31 -1.59644 3.19763 0
M  V30 12560 C 1135.98 -0.76308 4.44396 0
M  V30 12561 C 1134.64 -0.53329 4.78236 0
M  V30 12562 C 1136.99 -0.18266 5.2088 0
M  V30 12563 C 1134.32 0.287056 5.85997 0
M  V30 12564 C 1136.67 0.624916 6.29506 0
M  V30 12565 C 1135.33 0.864955 6.61872 0
M  V30 12566 H 1134.6 -0.299478 0.677786 0
M  V30 12567 H 1137.25 -0.0805082 1.91331 0
M  V30 12568 H 1135.56 -2.40545 3.09266 0
M  V30 12569 H 1137.25 -2.1472 3.38669 0
M  V30 12570 H 1133.84 -0.952278 4.17887 0
M  V30 12571 H 1138.03 -0.34739 4.95083 0
M  V30 12572 H 1133.28 0.482179 6.09496 0
M  V30 12573 H 1137.46 1.08162 6.87949 0
M  V30 12574 H 1135.08 1.50244 7.45205 0
M  V30 12575 N 1136.66 -1.52894 -0.382264 0
M  V30 12576 C 1137.91 -1.68266 -1.12663 0
M  V30 12577 C 1138.23 -0.425974 -1.89778 0
M  V30 12578 O 1137.49 0.59178 -1.86538 0
M  V30 12579 C 1137.79 -2.87309 -2.12576 0
M  V30 12580 C 1137.45 -4.24484 -1.52067 0
M  V30 12581 C 1136.12 -4.6179 -1.35292 0
M  V30 12582 C 1138.47 -5.09858 -1.08138 0
M  V30 12583 C 1135.8 -5.82123 -0.731449 0
M  V30 12584 C 1138.15 -6.30822 -0.473986 0
M  V30 12585 C 1136.81 -6.66854 -0.293585 0
M  V30 12586 H 1136.08 -0.615728 -0.412262 0
M  V30 12587 H 1138.73 -1.8705 -0.410425 0
M  V30 12588 H 1137.03 -2.62968 -2.90439 0
M  V30 12589 H 1138.73 -2.96397 -2.70092 0
M  V30 12590 H 1135.32 -3.951 -1.66114 0
M  V30 12591 H 1139.5 -4.816 -1.19898 0
M  V30 12592 H 1134.76 -6.08643 -0.579938 0
M  V30 12593 H 1138.93 -6.96287 -0.125324 0
M  V30 12594 H 1136.56 -7.59962 0.190054 0
M  V30 12595 N 1138.14 0.641106 -1.43971 0
M  V30 12596 C 1139.1 1.73539 -1.49723 0
M  V30 12597 C 1140.1 1.56235 -0.380438 0
M  V30 12598 O 1141.29 1.61912 -0.642673 0
M  V30 12599 C 1138.42 3.1253 -1.36153 0
M  V30 12600 H 1139.62 1.69816 -2.47189 0
M  V30 12601 H 1137.17 0.853867 -1.30915 0
M  V30 12602 H 1137.9 3.21856 -0.39742 0
M  V30 12603 H 1137.69 3.26496 -2.17124 0
M  V30 12604 H 1139.18 3.92303 -1.43138 0
M  V30 12605 N 1139.62 1.30703 0.880598 0
M  V30 12606 C 1140.53 1.19389 2.01949 0
M  V30 12607 C 1141.54 0.112868 1.73634 0
M  V30 12608 O 1142.72 0.328643 1.98701 0
M  V30 12609 C 1139.78 0.891004 3.35055 0
M  V30 12610 C 1138.84 2.05784 3.76764 0
M  V30 12611 C 1138.08 1.76931 5.03519 0
M  V30 12612 O 1138.3 0.699326 5.66097 0
M  V30 12613 O 1137.23 2.623 5.4174 0
M  V30 12614 H 1141.06 2.15073 2.14423 0
M  V30 12615 H 1138.64 1.10339 1.00726 0
M  V30 12616 H 1140.53 0.737476 4.14897 0
M  V30 12617 H 1139.2 -0.0358909 3.2368 0
M  V30 12618 H 1138.11 2.26672 2.97608 0
M  V30 12619 H 1139.44 2.96661 3.9275 0
M  V30 12620 N 1141.09 -1.09351 1.1349 0
M  V30 12621 C 1142.06 -2.14185 0.815919 0
M  V30 12622 C 1143.06 -1.59845 -0.174976 0
M  V30 12623 O 1144.25 -1.74122 0.0521971 0
M  V30 12624 C 1141.38 -3.40224 0.214517 0
M  V30 12625 H 1142.57 -2.43913 1.74489 0
M  V30 12626 H 1140.12 -1.24902 0.939634 0
M  V30 12627 H 1140.86 -3.16123 -0.723634 0
M  V30 12628 H 1140.64 -3.80958 0.928102 0
M  V30 12629 H 1142.13 -4.17599 0.00821999 0
M  V30 12630 N 1142.57 -0.928524 -1.27343 0
M  V30 12631 C 1143.82 -0.569392 -1.9433 0
M  V30 12632 C 1144.15 0.889481 -1.7297 0
M  V30 12633 O 1143.4 1.6499 -1.05247 0
M  V30 12634 C 1143.7 -0.84269 -3.47323 0
M  V30 12635 C 1143.37 -2.28344 -3.88806 0
M  V30 12636 C 1142.03 -2.67731 -3.99842 0
M  V30 12637 C 1144.38 -3.22031 -4.09811 0
M  V30 12638 C 1141.71 -3.99928 -4.29272 0
M  V30 12639 C 1144.06 -4.5381 -4.40725 0
M  V30 12640 C 1142.72 -4.93031 -4.49975 0
M  V30 12641 H 1141.99 -0.208355 -0.711104 0
M  V30 12642 H 1144.64 -1.17264 -1.51398 0
M  V30 12643 H 1142.95 -0.156775 -3.91486 0
M  V30 12644 H 1144.64 -0.543779 -3.97296 0
M  V30 12645 H 1141.23 -1.96787 -3.80753 0
M  V30 12646 H 1145.42 -2.92803 -4.00724 0
M  V30 12647 H 1140.67 -4.29996 -4.34642 0
M  V30 12648 H 1144.85 -5.26407 -4.55926 0
M  V30 12649 H 1142.47 -5.95497 -4.72533 0
M  V30 12650 N 1144.05 1.41491 -0.694123 0
M  V30 12651 C 1145.47 1.55358 -0.365532 0
M  V30 12652 C 1145.67 1.66994 1.12762 0
M  V30 12653 O 1144.72 1.64756 1.91342 0
M  V30 12654 C 1146.03 2.79352 -1.11279 0
M  V30 12655 C 1147.58 2.93147 -1.097 0
M  V30 12656 C 1148.06 4.20027 -1.82597 0
M  V30 12657 N 1149.55 4.26981 -1.7956 0
M  V30 12658 C 1150.28 5.24013 -2.32805 0
M  V30 12659 N 1149.78 6.27083 -2.94515 0
M  V30 12660 N 1151.57 5.15943 -2.23069 0
M  V30 12661 H 1143.72 1.32183 -1.66257 0
M  V30 12662 H 1145.99 0.637624 -0.701527 0
M  V30 12663 H 1145.69 2.76958 -2.16765 0
M  V30 12664 H 1145.57 3.70827 -0.690439 0
M  V30 12665 H 1147.95 2.95057 -0.0504037 0
M  V30 12666 H 1148.03 2.02849 -1.55839 0
M  V30 12667 H 1147.68 4.18878 -2.87235 0
M  V30 12668 H 1147.61 5.09294 -1.33893 0
M  V30 12669 H 1150.1 3.53129 -1.34567 0
M  V30 12670 H 1150.41 6.97511 -3.32714 0
M  V30 12671 H 1148.76 6.27589 -2.98592 0
M  V30 12672 H 1151.95 4.34346 -1.74532 0
M  V30 12673 H 1152.12 5.91396 -2.64868 0
M  V30 12674 N 1145.53 0.438773 1.51369 0
M  V30 12675 C 1146.46 -0.362467 2.3067 0
M  V30 12676 C 1147.44 -1.01973 1.36145 0
M  V30 12677 O 1148.62 -1.0231 1.65065 0
M  V30 12678 C 1145.75 -1.46313 3.14976 0
M  V30 12679 C 1144.71 -0.929272 4.1779 0
M  V30 12680 C 1144.03 -2.12579 4.90627 0
M  V30 12681 C 1145.33 0.0372782 5.22287 0
M  V30 12682 H 1147.03 0.29931 2.979 0
M  V30 12683 H 1144.57 0.14539 1.43264 0
M  V30 12684 H 1146.53 -2.03088 3.69233 0
M  V30 12685 H 1145.25 -2.15321 2.45569 0
M  V30 12686 H 1143.91 -0.383722 3.64586 0
M  V30 12687 H 1143.56 -2.8021 4.17722 0
M  V30 12688 H 1143.26 -1.77496 5.60151 0
M  V30 12689 H 1144.78 -2.69905 5.47708 0
M  V30 12690 H 1146.2 -0.44022 5.71607 0
M  V30 12691 H 1144.59 0.300748 5.99346 0
M  V30 12692 H 1145.66 0.973503 4.75027 0
M  V30 12693 N 1147.01 -1.56678 0.170181 0
M  V30 12694 C 1147.94 -2.13747 -0.799203 0
M  V30 12695 C 1148.92 -1.06725 -1.22673 0
M  V30 12696 O 1150.1 -1.34694 -1.3187 0
M  V30 12697 C 1147.23 -2.67611 -2.07611 0
M  V30 12698 C 1146.27 -3.86994 -1.7927 0
M  V30 12699 S 1147.11 -5.26771 -0.962951 0
M  V30 12700 C 1148.26 -5.84039 -2.25054 0
M  V30 12701 H 1148.5 -2.95637 -0.313976 0
M  V30 12702 H 1146.03 -1.54336 -0.0444708 0
M  V30 12703 H 1147.99 -2.99291 -2.80954 0
M  V30 12704 H 1146.65 -1.85808 -2.53247 0
M  V30 12705 H 1145.84 -4.23006 -2.74011 0
M  V30 12706 H 1145.44 -3.56195 -1.14023 0
M  V30 12707 H 1147.73 -5.96883 -3.20525 0
M  V30 12708 H 1148.68 -6.81145 -1.93513 0
M  V30 12709 H 1149.09 -5.12449 -2.36763 0
M  V30 12710 N 1148.48 0.103547 -1.57259 0
M  V30 12711 C 1149.43 1.13239 -1.97891 0
M  V30 12712 C 1150.42 1.36234 -0.856105 0
M  V30 12713 O 1151.61 1.37067 -1.11989 0
M  V30 12714 C 1148.74 2.4549 -2.39979 0
M  V30 12715 C 1147.82 2.25905 -3.58926 0
M  V30 12716 N 1148.22 1.76167 -4.7413 0
M  V30 12717 C 1146.51 2.56503 -3.64859 0
M  V30 12718 C 1147.21 1.70653 -5.56105 0
M  V30 12719 N 1146.19 2.15562 -4.99033 0
M  V30 12720 H 1149.99 0.740638 -2.84415 0
M  V30 12721 H 1147.51 0.311091 -1.59393 0
M  V30 12722 H 1149.5 3.19922 -2.67312 0
M  V30 12723 H 1148.16 2.8541 -1.54827 0
M  V30 12724 H 1149.17 1.45487 -4.97045 0
M  V30 12725 H 1145.85 3.00005 -2.9035 0
M  V30 12726 H 1147.24 1.33321 -6.5854 0
M  V30 12727 N 1149.96 1.53094 0.37415 0
M  V30 12728 C 1151.19 1.73061 1.143 0
M  V30 12729 C 1151.61 0.454611 1.82524 0
M  V30 12730 O 1150.97 -0.590743 1.71406 0
M  V30 12731 C 1151.02 2.89086 2.15549 0
M  V30 12732 O 1150.12 2.57096 3.22452 0
M  V30 12733 H 1149.46 0.575009 0.332055 0
M  V30 12734 H 1151.99 1.99946 0.433897 0
M  V30 12735 H 1152 3.15007 2.59296 0
M  V30 12736 H 1150.68 3.81647 1.65283 0
M  V30 12737 H 1149.25 2.41965 2.83738 0
M  V30 12738 N 1151.44 -0.633461 1.44309 0
M  V30 12739 C 1152.67 -1.42033 1.50447 0
M  V30 12740 C 1153.08 -1.88362 0.128585 0
M  V30 12741 O 1152.44 -1.60695 -0.865071 0
M  V30 12742 C 1152.49 -2.6422 2.46719 0
M  V30 12743 O 1152.21 -2.19823 3.78958 0
M  V30 12744 C 1153.71 -3.57372 2.62298 0
M  V30 12745 H 1150.93 -0.435667 0.510329 0
M  V30 12746 H 1153.48 -0.774907 1.8925 0
M  V30 12747 H 1151.63 -3.24859 2.11058 0
M  V30 12748 H 1152.05 -2.99022 4.30913 0
M  V30 12749 H 1153.52 -4.39719 3.33693 0
M  V30 12750 H 1154 -4.06026 1.67449 0
M  V30 12751 H 1154.6 -3.02603 2.9885 0
M  V30 12752 N 1152.92 -1.31168 -0.873655 0
M  V30 12753 C 1154.2 -1.11285 -1.60857 0
M  V30 12754 C 1154.58 0.333788 -2.08444 0
M  V30 12755 O 1153.92 1.32726 -1.86 0
M  V30 12756 C 1154.13 -2.12379 -2.7694 0
M  V30 12757 C 1155.48 -2.44704 -3.46994 0
M  V30 12758 O 1156.51 -2.10778 -2.87143 0
M  V30 12759 O 1155.36 -3.02786 -4.54954 0
M  V30 12760 H 1152.46 -0.428177 -0.707526 0
M  V30 12761 H 1155 -1.42634 -0.91944 0
M  V30 12762 H 1153.78 -3.09703 -2.39164 0
M  V30 12763 H 1153.4 -1.81914 -3.53544 0
M  V30 12764 N 1154.4 1.08748 -1.14068 0
M  V30 12765 C 1155.35 2.13762 -0.793087 0
M  V30 12766 C 1156.33 1.59442 0.216123 0
M  V30 12767 O 1157.52 1.7699 0.0189888 0
M  V30 12768 C 1154.65 3.42249 -0.268432 0
M  V30 12769 C 1153.74 4.03459 -1.30696 0
M  V30 12770 N 1154.13 4.39126 -2.51002 0
M  V30 12771 C 1152.43 4.30748 -1.15637 0
M  V30 12772 C 1153.13 4.87438 -3.17457 0
M  V30 12773 N 1152.1 4.85326 -2.44866 0
M  V30 12774 H 1155.91 2.39152 -1.70831 0
M  V30 12775 H 1153.42 1.26046 -1.02403 0
M  V30 12776 H 1155.42 4.169 -0.00113254 0
M  V30 12777 H 1154.08 3.18309 0.641032 0
M  V30 12778 H 1155.09 4.30266 -2.88256 0
M  V30 12779 H 1151.76 4.1638 -0.305636 0
M  V30 12780 H 1153.15 5.24443 -4.20011 0
M  V30 12781 N 1155.87 0.935264 1.26849 0
M  V30 12782 C 1156.84 0.44485 2.24842 0
M  V30 12783 C 1157.84 -0.440781 1.54641 0
M  V30 12784 O 1159.03 -0.240793 1.72528 0
M  V30 12785 C 1156.16 -0.359566 3.38998 0
M  V30 12786 H 1157.35 1.31074 2.6974 0
M  V30 12787 H 1154.91 0.716665 1.38901 0
M  V30 12788 H 1155.64 -1.24396 2.99493 0
M  V30 12789 H 1155.43 0.275529 3.91131 0
M  V30 12790 H 1156.92 -0.692804 4.11813 0
M  V30 12791 N 1157.35 -1.41121 0.701616 0
M  V30 12792 C 1158.26 -2.34565 0.0407815 0
M  V30 12793 C 1159.28 -1.56555 -0.75937 0
M  V30 12794 O 1160.45 -1.89008 -0.695542 0
M  V30 12795 C 1157.52 -3.35347 -0.879954 0
M  V30 12796 C 1156.58 -4.29241 -0.0713279 0
M  V30 12797 C 1155.81 -5.25209 -0.948211 0
M  V30 12798 O 1156.04 -5.26781 -2.18766 0
M  V30 12799 O 1154.97 -6.00605 -0.394657 0
M  V30 12800 H 1158.8 -2.92666 0.811188 0
M  V30 12801 H 1156.38 -1.42077 0.461991 0
M  V30 12802 H 1158.26 -3.9719 -1.40776 0
M  V30 12803 H 1156.94 -2.7968 -1.62975 0
M  V30 12804 H 1155.85 -3.70727 0.50122 0
M  V30 12805 H 1157.18 -4.88022 0.639935 0
M  V30 12806 N 1158.83 -0.446794 -1.51134 0
M  V30 12807 C 1160.25 -0.0995905 -1.59289 0
M  V30 12808 C 1160.45 1.39191 -1.45699 0
M  V30 12809 O 1159.5 2.1628 -1.30303 0
M  V30 12810 C 1160.82 -0.628135 -2.94066 0
M  V30 12811 C 1162.36 -0.589409 -3.074 0
M  V30 12812 C 1162.84 -1.09509 -4.44715 0
M  V30 12813 N 1164.33 -1.05347 -4.51061 0
M  V30 12814 C 1165.06 -1.41551 -5.55654 0
M  V30 12815 N 1164.56 -1.85086 -6.67619 0
M  V30 12816 N 1166.35 -1.33307 -5.46064 0
M  V30 12817 H 1158.5 -1.41713 -1.58213 0
M  V30 12818 H 1160.77 -0.584555 -0.746324 0
M  V30 12819 H 1160.47 -1.67205 -3.09411 0
M  V30 12820 H 1160.35 -0.0582398 -3.77155 0
M  V30 12821 H 1162.73 0.445541 -2.91717 0
M  V30 12822 H 1162.82 -1.19582 -2.26128 0
M  V30 12823 H 1162.46 -2.12855 -4.61146 0
M  V30 12824 H 1162.39 -0.465122 -5.24542 0
M  V30 12825 H 1164.88 -0.733877 -3.70706 0
M  V30 12826 H 1165.19 -2.10923 -7.43459 0
M  V30 12827 H 1163.54 -1.8902 -6.68802 0
M  V30 12828 H 1166.73 -0.991547 -4.57478 0
M  V30 12829 H 1166.9 -1.6185 -6.27462 0
M  V30 12830 N 1160.31 1.56586 -0.178487 0
M  V30 12831 C 1161.24 2.21313 0.744486 0
M  V30 12832 C 1162.22 1.17098 1.23377 0
M  V30 12833 O 1163.4 1.45551 1.28563 0
M  V30 12834 C 1160.53 2.8595 1.97103 0
M  V30 12835 C 1159.49 3.96266 1.61732 0
M  V30 12836 C 1158.81 4.47987 2.91911 0
M  V30 12837 C 1160.11 5.15503 0.839868 0
M  V30 12838 H 1161.81 2.98698 0.204938 0
M  V30 12839 H 1159.35 1.43672 0.0971306 0
M  V30 12840 H 1161.31 3.29909 2.6218 0
M  V30 12841 H 1160.03 2.05946 2.53484 0
M  V30 12842 H 1158.69 3.52974 0.990208 0
M  V30 12843 H 1158.34 3.64765 3.46346 0
M  V30 12844 H 1158.04 5.22413 2.68995 0
M  V30 12845 H 1159.56 4.94637 3.58004 0
M  V30 12846 H 1160.98 5.5611 1.39337 0
M  V30 12847 H 1159.37 5.95891 0.709473 0
M  V30 12848 H 1160.44 4.84628 -0.162396 0
M  V30 12849 N 1161.79 -0.095206 1.57312 0
M  V30 12850 C 1162.73 -1.11551 2.02052 0
M  V30 12851 C 1163.7 -1.39808 0.896818 0
M  V30 12852 O 1164.89 -1.51273 1.1628 0
M  V30 12853 C 1162.03 -2.43056 2.44985 0
M  V30 12854 C 1161.14 -2.21531 3.70875 0
M  V30 12855 C 1160.28 -3.46434 4.02687 0
M  V30 12856 C 1159.32 -3.2017 5.21687 0
M  V30 12857 N 1158.45 -4.37339 5.49253 0
M  V30 12858 H 1163.29 -0.727 2.88996 0
M  V30 12859 H 1160.83 -0.347441 1.42938 0
M  V30 12860 H 1162.79 -3.19803 2.67921 0
M  V30 12861 H 1161.42 -2.79754 1.61051 0
M  V30 12862 H 1160.47 -1.35587 3.55416 0
M  V30 12863 H 1161.78 -1.98116 4.57768 0
M  V30 12864 H 1160.94 -4.31589 4.26399 0
M  V30 12865 H 1159.67 -3.72904 3.14315 0
M  V30 12866 H 1158.68 -2.33409 4.97796 0
M  V30 12867 H 1159.9 -2.95047 6.11657 0
M  V30 12868 H 1157.85 -4.63885 4.6384 0
M  V30 12869 H 1157.77 -4.17114 6.30517 0
M  V30 12870 H 1159.04 -5.23559 5.775 0
M  V30 12871 N 1163.26 -1.53291 -0.366026 0
M  V30 12872 C 1164.51 -1.69702 -1.11036 0
M  V30 12873 C 1164.84 -0.44728 -1.88979 0
M  V30 12874 O 1164.12 0.55542 -1.86401 0
M  V30 12875 C 1164.4 -2.94661 -2.06995 0
M  V30 12876 C 1164.25 -4.29791 -1.32663 0
M  V30 12877 C 1165.57 -3.15219 -3.07123 0
M  V30 12878 H 1162.69 -0.617525 -0.402284 0
M  V30 12879 H 1165.33 -1.85929 -0.391223 0
M  V30 12880 H 1163.48 -2.80958 -2.68318 0
M  V30 12881 H 1165.16 -4.55305 -0.741266 0
M  V30 12882 H 1163.4 -4.29223 -0.628484 0
M  V30 12883 H 1164.07 -5.13359 -2.02896 0
M  V30 12884 H 1166.55 -3.28105 -2.55903 0
M  V30 12885 H 1165.42 -4.04088 -3.71489 0
M  V30 12886 H 1165.68 -2.30479 -3.77269 0
M  V30 12887 N 1164.74 0.6258 -1.44643 0
M  V30 12888 C 1165.67 1.75086 -1.47911 0
M  V30 12889 C 1166.69 1.58496 -0.37188 0
M  V30 12890 O 1167.88 1.66712 -0.637925 0
M  V30 12891 C 1164.98 3.12874 -1.30243 0
M  V30 12892 C 1164.15 3.55873 -2.54309 0
M  V30 12893 C 1163.21 4.72558 -2.31464 0
M  V30 12894 O 1162.23 4.80599 -3.04981 0
M  V30 12895 N 1163.44 5.64617 -1.34862 0
M  V30 12896 H 1166.2 1.72751 -2.44902 0
M  V30 12897 H 1163.76 0.810531 -1.4015 0
M  V30 12898 H 1165.75 3.88663 -1.12798 0
M  V30 12899 H 1164.32 3.0982 -0.415966 0
M  V30 12900 H 1163.54 2.70237 -2.86994 0
M  V30 12901 H 1164.83 3.81355 -3.36817 0
M  V30 12902 H 1164.23 5.60819 -0.741542 0
M  V30 12903 H 1162.79 6.40013 -1.23394 0
M  V30 12904 N 1166.22 1.31629 0.866686 0
M  V30 12905 C 1167.17 1.19556 1.97421 0
M  V30 12906 C 1168.14 0.0805578 1.65905 0
M  V30 12907 O 1169.32 0.253997 1.89102 0
M  V30 12908 C 1166.46 0.912234 3.32825 0
M  V30 12909 C 1165.58 2.11088 3.76916 0
M  V30 12910 C 1164.71 1.76406 5.01053 0
M  V30 12911 C 1163.75 2.9266 5.37602 0
M  V30 12912 N 1162.89 2.58152 6.52918 0
M  V30 12913 H 1167.73 2.14294 2.0708 0
M  V30 12914 H 1165.26 1.06595 1.0137 0
M  V30 12915 H 1167.22 0.72851 4.1079 0
M  V30 12916 H 1165.85 0.00167404 3.228 0
M  V30 12917 H 1164.9 2.40527 2.94705 0
M  V30 12918 H 1166.22 2.98089 3.99931 0
M  V30 12919 H 1165.37 1.54515 5.86694 0
M  V30 12920 H 1164.11 0.866018 4.79949 0
M  V30 12921 H 1163.11 3.15196 4.50479 0
M  V30 12922 H 1164.34 3.83179 5.6067 0
M  V30 12923 H 1162.28 1.70874 6.33355 0
M  V30 12924 H 1162.2 3.38682 6.75892 0
M  V30 12925 H 1163.47 2.39662 7.41743 0
M  V30 12926 N 1167.7 -1.08142 1.14644 0
M  V30 12927 C 1168.65 -2.17229 0.831513 0
M  V30 12928 C 1169.64 -1.68311 -0.19173 0
M  V30 12929 O 1170.85 -1.79937 -0.0475596 0
M  V30 12930 H 1167.22 -0.708807 0.25119 0
M  V30 12931 H 1169.19 -2.41014 1.75939 0
M  V30 12932 C 1167.94 -3.46146 0.328347 0
M  V30 12933 H 1167.27 -3.84166 1.10708 0
M  V30 12934 H 1168.71 -4.23747 0.146568 0
M  V30 12935 C 1167.16 -3.2327 -0.948594 0
M  V30 12936 O 1167.69 -3.47111 -2.0218 0
M  V30 12937 N 1165.9 -2.76799 -0.884909 0
M  V30 12938 H 1165.45 -2.57597 -0.011399 0
M  V30 12939 H 1165.41 -2.61871 -1.73985 0
M  V30 12940 N 1169.18 -0.941978 -1.26351 0
M  V30 12941 C 1170.14 -0.456768 -2.24602 0
M  V30 12942 C 1171.14 0.432574 -1.54872 0
M  V30 12943 O 1172.33 0.23164 -1.72653 0
M  V30 12944 C 1169.46 0.341583 -3.39184 0
M  V30 12945 H 1170.66 -1.32503 -2.69041 0
M  V30 12946 H 1168.21 -0.724021 -1.38519 0
M  V30 12947 H 1168.94 1.22806 -3.00149 0
M  V30 12948 H 1168.73 -0.296268 -3.90979 0
M  V30 12949 H 1170.22 0.670955 -4.12175 0
M  V30 12950 N 1170.66 1.40747 -0.709091 0
M  V30 12951 C 1172.07 1.83955 -0.318968 0
M  V30 12952 C 1172.42 1.59304 1.14527 0
M  V30 12953 O 1171.54 1.07052 1.88066 0
M  V30 12954 C 1172.14 3.33934 -0.572147 0
M  V30 12955 C 1170.7 3.75661 -0.235802 0
M  V30 12956 C 1169.84 2.64024 -0.847743 0
M  V30 12957 H 1172.79 1.30107 -0.908734 0
M  V30 12958 H 1172.82 3.80143 0.164752 0
M  V30 12959 H 1172.33 3.51844 -1.63791 0
M  V30 12960 H 1170.43 3.63348 0.825164 0
M  V30 12961 H 1170.54 4.73955 -0.700263 0
M  V30 12962 H 1168.91 2.53197 -0.276283 0
M  V30 12963 H 1169.69 2.84748 -1.91765 0
M  V30 12964 N 1172.13 0.454803 1.50895 0
M  V30 12965 C 1173.08 -0.347769 2.28165 0
M  V30 12966 C 1174.05 -1.00158 1.32505 0
M  V30 12967 O 1175.24 -1.01715 1.61427 0
M  V30 12968 C 1172.38 -1.43315 3.13934 0
M  V30 12969 C 1171.49 -0.795736 4.24608 0
M  V30 12970 C 1170.62 -1.85763 4.9766 0
M  V30 12971 C 1169.66 -1.19959 6.0023 0
M  V30 12972 N 1168.8 -2.20361 6.66622 0
M  V30 12973 H 1173.64 0.317493 2.96304 0
M  V30 12974 H 1171.18 0.168418 1.46133 0
M  V30 12975 H 1173.13 -2.07391 3.62001 0
M  V30 12976 H 1171.76 -2.0678 2.47875 0
M  V30 12977 H 1170.82 -0.0428173 3.80376 0
M  V30 12978 H 1172.13 -0.275477 4.98039 0
M  V30 12979 H 1171.28 -2.5746 5.49363 0
M  V30 12980 H 1170.02 -2.41166 4.23899 0
M  V30 12981 H 1169.03 -0.46817 5.47803 0
M  V30 12982 H 1170.25 -0.652666 6.75956 0
M  V30 12983 H 1168.2 -2.74812 5.95663 0
M  V30 12984 H 1168.11 -1.73275 7.35875 0
M  V30 12985 H 1169.38 -2.91488 7.22949 0
M  V30 12986 N 1173.61 -1.56489 0.186789 0
M  V30 12987 C 1174.84 -2.01722 -0.459993 0
M  V30 12988 C 1175.25 -1.06697 -1.5576 0
M  V30 12989 O 1174.61 -0.0704212 -1.82364 0
M  V30 12990 C 1174.66 -3.46693 -1.02401 0
M  V30 12991 O 1174.38 -4.3809 0.0297916 0
M  V30 12992 C 1175.88 -4.07403 -1.7475 0
M  V30 12993 H 1173.1 -0.660845 -0.116298 0
M  V30 12994 H 1175.65 -2.02389 0.293059 0
M  V30 12995 H 1173.8 -3.46752 -1.72749 0
M  V30 12996 H 1174.22 -5.23057 -0.388821 0
M  V30 12997 H 1175.69 -5.10718 -2.09455 0
M  V30 12998 H 1176.17 -3.50383 -2.64818 0
M  V30 12999 H 1176.77 -4.11093 -1.09007 0
M  V30 13000 N 1175.09 0.086862 -1.5736 0
M  V30 13001 C 1176.34 0.78884 -1.86504 0
M  V30 13002 C 1176.66 1.78329 -0.77646 0
M  V30 13003 O 1175.92 1.94354 0.229122 0
M  V30 13004 C 1176.22 1.54537 -3.22263 0
M  V30 13005 C 1175.88 0.692284 -4.45554 0
M  V30 13006 C 1174.55 0.45714 -4.79024 0
M  V30 13007 C 1176.9 0.0997695 -5.21105 0
M  V30 13008 C 1174.23 -0.380247 -5.85466 0
M  V30 13009 C 1176.58 -0.724986 -6.28432 0
M  V30 13010 C 1175.24 -0.970144 -6.60412 0
M  V30 13011 H 1174.51 0.288657 -0.682465 0
M  V30 13012 H 1177.16 0.050059 -1.91435 0
M  V30 13013 H 1175.46 2.35594 -3.13053 0
M  V30 13014 H 1177.16 2.09305 -3.42042 0
M  V30 13015 H 1173.75 0.885675 -4.19349 0
M  V30 13016 H 1177.94 0.268583 -4.95573 0
M  V30 13017 H 1173.19 -0.579084 -6.08651 0
M  V30 13018 H 1177.37 -1.19093 -6.86141 0
M  V30 13019 H 1174.99 -1.6208 -7.42721 0
M  V30 13020 N 1176.57 1.53483 0.357892 0
M  V30 13021 C 1177.5 1.76757 1.4591 0
M  V30 13022 C 1178.51 0.648502 1.49326 0
M  V30 13023 O 1179.7 0.924932 1.52667 0
M  V30 13024 C 1176.8 1.83938 2.8464 0
M  V30 13025 C 1175.97 3.13683 3.04831 0
M  V30 13026 C 1175.03 3.12007 4.23719 0
M  V30 13027 O 1174.06 3.8578 4.18524 0
M  V30 13028 N 1175.26 2.33366 5.31527 0
M  V30 13029 H 1178.03 2.71778 1.2632 0
M  V30 13030 H 1175.59 1.52355 0.547673 0
M  V30 13031 H 1177.58 1.80285 3.62325 0
M  V30 13032 H 1176.15 0.961675 2.9744 0
M  V30 13033 H 1175.37 3.30576 2.14739 0
M  V30 13034 H 1176.66 3.99412 3.15194 0
M  V30 13035 H 1176.06 1.72954 5.38613 0
M  V30 13036 H 1174.61 2.35524 6.07759 0
M  V30 13037 N 1178.05 -0.61812 1.44973 0
M  V30 13038 C 1179.29 -1.3774 1.48439 0
M  V30 13039 C 1179.62 -1.94117 0.121999 0
M  V30 13040 O 1178.88 -1.749 -0.877974 0
M  V30 13041 C 1179.17 -2.55143 2.50274 0
M  V30 13042 C 1178.84 -2.16976 3.95262 0
M  V30 13043 C 1177.5 -2.06281 4.34743 0
M  V30 13044 C 1179.85 -1.8703 4.86486 0
M  V30 13045 C 1177.18 -1.63846 5.63357 0
M  V30 13046 C 1179.53 -1.46085 6.15501 0
M  V30 13047 C 1178.2 -1.3394 6.53924 0
M  V30 13048 H 1177.47 -0.504026 0.543175 0
M  V30 13049 H 1180.12 -0.699685 1.7826 0
M  V30 13050 H 1178.42 -3.28205 2.13983 0
M  V30 13051 H 1180.12 -3.13373 2.50197 0
M  V30 13052 H 1176.71 -2.26223 3.64034 0
M  V30 13053 H 1180.89 -1.94196 4.56729 0
M  V30 13054 H 1176.15 -1.53058 5.91932 0
M  V30 13055 H 1180.32 -1.21956 6.85638 0
M  V30 13056 H 1177.95 -1.00832 7.53483 0
M  V30 13057 N 1179.52 -1.32087 -0.859693 0
M  V30 13058 C 1180.77 -1.21716 -1.60836 0
M  V30 13059 C 1181.09 0.220904 -1.94349 0
M  V30 13060 O 1182.29 0.446422 -2.67805 0
M  V30 13061 C 1180.75 -2.13143 -2.89997 0
M  V30 13062 C 1180.36 -3.62003 -2.63928 0
M  V30 13063 C 1182.1 -2.11596 -3.68004 0
M  V30 13064 C 1180.01 -4.45407 -3.89059 0
M  V30 13065 H 1178.94 -0.45199 -0.603507 0
M  V30 13066 H 1181.59 -1.57013 -0.949687 0
M  V30 13067 H 1179.97 -1.70755 -3.57294 0
M  V30 13068 H 1181.14 -4.12701 -2.04974 0
M  V30 13069 H 1179.46 -3.6563 -1.99258 0
M  V30 13070 H 1182.06 -2.71149 -4.6085 0
M  V30 13071 H 1182.4 -1.10568 -4.01348 0
M  V30 13072 H 1182.93 -2.52238 -3.07605 0
M  V30 13073 H 1179.67 -5.4723 -3.60859 0
M  V30 13074 H 1179.19 -3.99462 -4.47427 0
M  V30 13075 H 1180.87 -4.58149 -4.56846 0
M  V30 13076 N 1181 1.07532 -1.15215 0
M  V30 13077 C 1181.95 2.16785 -0.843022 0
M  V30 13078 C 1182.94 1.68411 0.182802 0
M  V30 13079 O 1184.15 1.7996 0.0380164 0
M  V30 13080 H 1180.52 0.707465 -0.254945 0
M  V30 13081 H 1182.5 2.40078 -1.77215 0
M  V30 13082 C 1181.24 3.45967 -0.346699 0
M  V30 13083 H 1180.57 3.83574 -1.12744 0
M  V30 13084 H 1182.01 4.23663 -0.169039 0
M  V30 13085 C 1180.47 3.23768 0.931437 0
M  V30 13086 O 1181 3.48179 2.00336 0
M  V30 13087 N 1179.2 2.77264 0.870217 0
M  V30 13088 H 1178.75 2.576 -0.00226223 0
M  V30 13089 H 1178.71 2.6279 1.72594 0
M  V30 13090 N 1182.48 0.948665 1.2585 0
M  V30 13091 C 1183.76 0.517832 1.88621 0
M  V30 13092 C 1184.14 -1.00477 1.85654 0
M  V30 13093 O 1183.49 -1.868 1.31598 0
M  V30 13094 C 1183.7 1.08768 3.31618 0
M  V30 13095 C 1185.04 1.16089 4.08422 0
M  V30 13096 O 1186.07 1.0388 3.40716 0
M  V30 13097 O 1184.93 1.35172 5.29519 0
M  V30 13098 H 1182.02 0.169916 0.809356 0
M  V30 13099 H 1184.57 1.04171 1.33964 0
M  V30 13100 H 1183.34 2.13109 3.28177 0
M  V30 13101 H 1182.96 0.54669 3.93824 0
M  V30 13102 N 1183.96 -1.40369 0.716545 0
M  V30 13103 C 1184.89 -2.29186 0.0251905 0
M  V30 13104 C 1185.9 -1.45877 -0.722761 0
M  V30 13105 O 1187.09 -1.69155 -0.569982 0
M  V30 13106 C 1184.19 -3.24161 -0.988589 0
M  V30 13107 C 1183.37 -4.36329 -0.30597 0
M  V30 13108 C 1182.42 -5.11736 -1.22527 0
M  V30 13109 O 1181.45 -5.64758 -0.7097 0
M  V30 13110 N 1182.65 -5.21183 -2.55634 0
M  V30 13111 H 1185.42 -2.8916 0.787808 0
M  V30 13112 H 1182.98 -1.51749 0.564253 0
M  V30 13113 H 1184.97 -3.71479 -1.60578 0
M  V30 13114 H 1183.54 -2.65347 -1.65256 0
M  V30 13115 H 1182.76 -3.91125 0.491432 0
M  V30 13116 H 1184.05 -5.08523 0.167827 0
M  V30 13117 H 1183.45 -4.7959 -3.00017 0
M  V30 13118 H 1182 -5.72005 -3.12495 0
M  V30 13119 N 1185.44 -0.462799 -1.50652 0
M  V30 13120 C 1186.69 0.0966838 -2.01468 0
M  V30 13121 C 1187 1.41529 -1.35014 0
M  V30 13122 O 1188.2 2.05923 -1.76941 0
M  V30 13123 C 1186.66 0.222826 -3.5921 0
M  V30 13124 C 1186.27 -1.08686 -4.34616 0
M  V30 13125 C 1188.01 0.734711 -4.18094 0
M  V30 13126 C 1185.92 -0.924964 -5.84122 0
M  V30 13127 H 1184.85 0.0399078 -0.752943 0
M  V30 13128 H 1187.5 -0.596437 -1.73536 0
M  V30 13129 H 1185.88 0.979539 -3.83694 0
M  V30 13130 H 1187.06 -1.85388 -4.21862 0
M  V30 13131 H 1185.37 -1.52922 -3.87303 0
M  V30 13132 H 1187.97 0.872734 -5.2753 0
M  V30 13133 H 1188.31 1.72389 -3.7893 0
M  V30 13134 H 1188.84 0.0356139 -3.97784 0
M  V30 13135 H 1185.58 -1.88727 -6.27744 0
M  V30 13136 H 1185.1 -0.198181 -5.99473 0
M  V30 13137 H 1186.78 -0.588262 -6.4432 0
M  V30 13138 N 1186.91 1.56388 -0.195085 0
M  V30 13139 C 1187.86 2.19091 0.725793 0
M  V30 13140 C 1188.83 1.13814 1.20977 0
M  V30 13141 O 1190.02 1.42065 1.27366 0
M  V30 13142 C 1187.16 2.85427 1.93973 0
M  V30 13143 C 1186.27 4.05229 1.49712 0
M  V30 13144 C 1185.4 4.59421 2.66656 0
M  V30 13145 C 1184.44 5.71581 2.19001 0
M  V30 13146 N 1183.58 6.2018 3.29123 0
M  V30 13147 H 1188.42 2.97429 0.184334 0
M  V30 13148 H 1185.96 1.46886 0.0792434 0
M  V30 13149 H 1187.92 3.22057 2.65208 0
M  V30 13150 H 1186.55 2.09652 2.4545 0
M  V30 13151 H 1185.6 3.74261 0.680641 0
M  V30 13152 H 1186.91 4.8635 1.10749 0
M  V30 13153 H 1186.06 4.98357 3.46014 0
M  V30 13154 H 1184.8 3.77407 3.08893 0
M  V30 13155 H 1183.81 5.32174 1.38097 0
M  V30 13156 H 1185.03 6.55413 1.77795 0
M  V30 13157 H 1182.98 5.41088 3.70891 0
M  V30 13158 H 1182.9 6.96353 2.94328 0
M  V30 13159 H 1184.16 6.63769 4.08694 0
M  V30 13160 N 1188.39 -0.0785156 1.57404 0
M  V30 13161 C 1189.64 -0.778938 1.86919 0
M  V30 13162 C 1189.97 -1.77915 0.785906 0
M  V30 13163 O 1189.22 -1.94473 -0.218811 0
M  V30 13164 C 1189.52 -1.52826 3.23078 0
M  V30 13165 C 1189.19 -0.668645 4.45915 0
M  V30 13166 C 1187.85 -0.43173 4.79259 0
M  V30 13167 C 1190.2 -0.0721327 5.2115 0
M  V30 13168 C 1187.53 0.41129 5.85257 0
M  V30 13169 C 1189.88 0.758303 6.28039 0
M  V30 13170 C 1188.55 1.00515 6.59889 0
M  V30 13171 H 1187.82 -0.285034 0.683986 0
M  V30 13172 H 1190.46 -0.039906 1.91458 0
M  V30 13173 H 1188.77 -2.33931 3.14299 0
M  V30 13174 H 1190.46 -2.07488 3.43147 0
M  V30 13175 H 1187.05 -0.863424 4.19813 0
M  V30 13176 H 1191.24 -0.242297 4.95708 0
M  V30 13177 H 1186.49 0.611354 6.08336 0
M  V30 13178 H 1190.67 1.2273 6.855 0
M  V30 13179 H 1188.3 1.66017 7.41851 0
M  V30 13180 N 1189.87 -1.5367 -0.349747 0
M  V30 13181 C 1191.12 -1.69835 -1.08807 0
M  V30 13182 C 1191.43 -0.46497 -1.89993 0
M  V30 13183 O 1192.64 -0.507452 -2.66716 0
M  V30 13184 C 1191.09 -3.00294 -1.98372 0
M  V30 13185 C 1190.7 -4.30949 -1.22422 0
M  V30 13186 C 1192.45 -3.25826 -2.72099 0
M  V30 13187 C 1190.35 -5.52486 -2.1098 0
M  V30 13188 H 1189.28 -0.63284 -0.409915 0
M  V30 13189 H 1191.93 -1.80171 -0.347968 0
M  V30 13190 H 1190.32 -2.838 -2.76176 0
M  V30 13191 H 1191.49 -4.58126 -0.495707 0
M  V30 13192 H 1189.81 -4.11983 -0.604896 0
M  V30 13193 H 1192.4 -4.13817 -3.38615 0
M  V30 13194 H 1192.75 -2.42566 -3.3833 0
M  V30 13195 H 1193.28 -3.43067 -2.0137 0
M  V30 13196 H 1190.02 -6.38271 -1.49301 0
M  V30 13197 H 1189.54 -5.29566 -2.81638 0
M  V30 13198 H 1191.22 -5.87889 -2.70176 0
M  V30 13199 N 1191.35 0.610423 -1.45298 0
M  V30 13200 C 1192.6 1.36558 -1.48441 0
M  V30 13201 C 1192.91 1.95173 -0.129137 0
M  V30 13202 O 1194.12 2.71473 -0.0381956 0
M  V30 13203 C 1192.57 2.47349 -2.61431 0
M  V30 13204 C 1192.18 1.95158 -4.03258 0
M  V30 13205 C 1193.92 3.24383 -2.73817 0
M  V30 13206 C 1191.83 3.03414 -5.07635 0
M  V30 13207 H 1190.76 0.513253 -0.552347 0
M  V30 13208 H 1193.41 0.654535 -1.7143 0
M  V30 13209 H 1191.79 3.21125 -2.31721 0
M  V30 13210 H 1192.97 1.2811 -4.42634 0
M  V30 13211 H 1191.28 1.30878 -3.95297 0
M  V30 13212 H 1193.88 4.05123 -3.48969 0
M  V30 13213 H 1194.22 3.75205 -1.80352 0
M  V30 13214 H 1194.76 2.57705 -3.03039 0
M  V30 13215 H 1191.5 2.57512 -6.028 0
M  V30 13216 H 1191.02 3.69039 -4.72833 0
M  V30 13217 H 1192.69 3.67844 -5.32259 0
M  V30 13218 N 1192.83 1.32541 0.852676 0
M  V30 13219 C 1193.77 1.21602 1.98282 0
M  V30 13220 C 1194.77 0.120384 1.68972 0
M  V30 13221 O 1195.97 0.283441 1.77754 0
M  V30 13222 H 1192.35 0.376994 0.650676 0
M  V30 13223 H 1194.32 2.17179 2.04636 0
M  V30 13224 C 1193.07 0.957965 3.34243 0
M  V30 13225 H 1192.39 1.79324 3.57327 0
M  V30 13226 H 1193.83 0.921673 4.13861 0
M  V30 13227 C 1192.29 -0.339271 3.35187 0
M  V30 13228 O 1192.82 -1.3505 3.78318 0
M  V30 13229 N 1191.03 -0.361944 2.88337 0
M  V30 13230 H 1190.57 0.461497 2.53432 0
M  V30 13231 H 1190.53 -1.22976 2.89352 0
M  V30 13232 N 1194.3 -1.0692 1.15784 0
M  V30 13233 C 1195.53 -1.83849 0.959903 0
M  V30 13234 C 1195.95 -1.8169 -0.486873 0
M  V30 13235 O 1195.31 -1.21305 -1.34739 0
M  V30 13236 C 1195.36 -3.28642 1.48414 0
M  V30 13237 O 1194.46 -4.0665 0.686249 0
M  V30 13238 H 1193.81 -0.569115 0.342059 0
M  V30 13239 H 1196.34 -1.34851 1.53871 0
M  V30 13240 H 1196.35 -3.7947 1.49888 0
M  V30 13241 H 1195.02 -3.29529 2.53739 0
M  V30 13242 H 1193.6 -3.65453 0.741501 0
M  V30 13243 O 1195.82 -1.08537 -1.19591 0
M  V30 13244 H 1196.51 -0.777393 -1.77416 0
M  V30 END ATOM
M  V30 BEGIN BOND
M  V30 END BOND
M  V30 END CTAB
M  END
$$$$
