drugbank_target|P44783 Rhomboid protease GlpG (DB08367)
 OpenBabel12092120503D

  0  0  0     0  0            999 V3000
M  V30 BEGIN CTAB
M  V30 COUNTS 3077 3119 0 0 0
M  V30 BEGIN ATOM
M  V30 1 H -0.908 1.98254 -0.117106 0
M  V30 2 N 0 1.576 0 0
M  V30 3 C 0.933 2.03868 1.02534 0
M  V30 4 C 1.911 0.928543 1.3348 0
M  V30 5 O 3.095 1.19667 1.45644 0
M  V30 6 C 0.222 2.43627 2.35294 0
M  V30 7 C -0.732 3.65373 2.2001 0
M  V30 8 S 0.101 5.13292 1.52614 0
M  V30 9 C 1.257 5.56322 2.86805 0
M  V30 10 H 1.49 2.90518 0.631377 0
M  V30 11 H -0.977 1.52953 0.210867 0
M  V30 12 H 0.981 2.67203 3.11629 0
M  V30 13 H -0.358 1.57376 2.7183 0
M  V30 14 H -1.165 3.90944 3.18086 0
M  V30 15 H -1.563 3.418 1.51819 0
M  V30 16 H 0.729 5.58782 3.83104 0
M  V30 17 H 1.672 6.56266 2.65933 0
M  V30 18 H 2.08 4.83886 2.90714 0
M  V30 19 N 1.4781 -0.272755 1.55222 0
M  V30 20 C 2.4251 -1.33716 1.88119 0
M  V30 21 C 3.3951 -1.49066 0.73271 0
M  V30 22 O 4.5801 -1.63469 0.984002 0
M  V30 23 C 1.7201 -2.69238 2.15882 0
M  V30 24 C 0.8331 -2.62108 3.43399 0
M  V30 25 C -0.0319 -3.89811 3.60861 0
M  V30 26 C -0.9929 -3.77193 4.8207 0
M  V30 27 N -1.8559 -4.9673 4.96189 0
M  V30 28 H 2.9841 -1.04962 2.78903 0
M  V30 29 H 0.5211 -0.507088 1.38083 0
M  V30 30 H 2.4791 -3.48089 2.29978 0
M  V30 31 H 1.1091 -2.96194 1.28331 0
M  V30 32 H 0.1611 -1.74967 3.37773 0
M  V30 33 H 1.4731 -2.48685 4.32386 0
M  V30 34 H 0.6271 -4.77103 3.74777 0
M  V30 35 H -0.6339 -4.06102 2.7006 0
M  V30 36 H -1.6289 -2.88284 4.68159 0
M  V30 37 H -0.4039 -3.62421 5.74307 0
M  V30 38 H -2.4579 -5.13431 4.08319 0
M  V30 39 H -2.5409 -4.85839 5.79221 0
M  V30 40 H -1.2729 -5.85594 5.1449 0
M  V30 41 N 2.9562 -1.48159 -0.537278 0
M  V30 42 C 3.9042 -1.62573 -1.66352 0
M  V30 43 C 4.8982 -0.492366 -1.62087 0
M  V30 44 O 6.1042 -0.670847 -1.67032 0
M  V30 45 H 2.4792 -0.511992 -0.550789 0
M  V30 46 H 4.4502 -2.57176 -1.51337 0
M  V30 47 C 3.1992 -1.67583 -3.04649 0
M  V30 48 H 2.5222 -2.54151 -3.08622 0
M  V30 49 H 3.9622 -1.81713 -3.83088 0
M  V30 50 C 2.4212 -0.413039 -3.34358 0
M  V30 51 O 2.9512 0.477259 -3.98855 0
M  V30 52 N 1.1572 -0.286961 -2.8918 0
M  V30 53 H 0.7042 -1.01241 -2.36871 0
M  V30 54 H 0.6622 0.556963 -3.09427 0
M  V30 55 N 4.4343 0.785586 -1.36625 0
M  V30 56 C 5.6813 1.54362 -1.31067 0
M  V30 57 C 6.0093 1.94195 0.10893 0
M  V30 58 O 5.2643 1.63262 1.07908 0
M  V30 59 C 5.5633 2.83007 -2.1827 0
M  V30 60 C 5.2293 2.62294 -3.6676 0
M  V30 61 C 3.8913 2.56353 -4.0723 0
M  V30 62 C 6.2433 2.43371 -4.6089 0
M  V30 63 C 3.5713 2.29461 -5.39967 0
M  V30 64 C 5.9233 2.18005 -5.93849 0
M  V30 65 C 4.5873 2.105 -6.3344 0
M  V30 66 H 3.8573 0.564851 -0.479609 0
M  V30 67 H 6.5043 0.906028 -1.68711 0
M  V30 68 H 4.8093 3.51253 -1.73576 0
M  V30 69 H 6.5063 3.40817 -2.11292 0
M  V30 70 H 3.0963 2.67774 -3.34656 0
M  V30 71 H 7.2803 2.46959 -4.30494 0
M  V30 72 H 2.5363 2.22135 -5.69619 0
M  V30 73 H 6.7103 2.02359 -6.66351 0
M  V30 74 H 4.3373 1.89425 -7.36222 0
M  V30 75 N 5.9124 1.20967 1.01018 0
M  V30 76 C 6.8424 0.988272 2.11555 0
M  V30 77 C 7.8234 -0.0849778 1.69888 0
M  V30 78 O 9.0084 0.0738202 1.9406 0
M  V30 79 C 6.1384 0.546528 3.42973 0
M  V30 80 C 5.0924 1.56375 3.9841 0
M  V30 81 C 4.4184 0.97842 5.25672 0
M  V30 82 C 5.7184 2.94922 4.31066 0
M  V30 83 H 7.4124 1.91276 2.30334 0
M  V30 84 H 4.9584 0.921073 1.1069 0
M  V30 85 H 6.9114 0.378839 4.19694 0
M  V30 86 H 5.6354 -0.413598 3.23971 0
M  V30 87 H 4.2944 1.71891 3.23804 0
M  V30 88 H 3.9424 0.0101688 5.02999 0
M  V30 89 H 3.6424 1.65784 5.63728 0
M  V30 90 H 5.1664 0.821939 6.05043 0
M  V30 91 H 6.5804 2.8288 4.9865 0
M  V30 92 H 4.9774 3.5983 4.80253 0
M  V30 93 H 6.0474 3.4616 3.39561 0
M  V30 94 N 7.3905 -1.2043 1.01659 0
M  V30 95 C 8.3535 -2.21433 0.591616 0
M  V30 96 C 9.3535 -1.57203 -0.338226 0
M  V30 97 O 10.5435 -1.73737 -0.126918 0
M  V30 98 C 7.6755 -3.40628 -0.136058 0
M  V30 99 H 8.8685 -2.60545 1.48514 0
M  V30 100 H 6.4215 -1.33893 0.806379 0
M  V30 101 H 7.1565 -3.07019 -1.04449 0
M  V30 102 H 6.9415 -3.88475 0.531917 0
M  V30 103 H 8.4315 -4.15475 -0.420735 0
M  V30 104 N 8.8686 -0.792821 -1.36206 0
M  V30 105 C 9.8006 -0.151469 -2.28699 0
M  V30 106 C 10.8136 0.641262 -1.49638 0
M  V30 107 O 12.0026 0.475885 -1.72039 0
M  V30 108 C 9.1026 0.808424 -3.29117 0
M  V30 109 C 8.2756 0.0650202 -4.37352 0
M  V30 110 C 7.3346 0.941358 -5.17711 0
M  V30 111 O 6.3606 0.397352 -5.67811 0
M  V30 112 N 7.5626 2.2652 -5.3448 0
M  V30 113 H 10.3276 -0.945982 -2.84379 0
M  V30 114 H 7.8886 -0.647032 -1.48409 0
M  V30 115 H 9.8806 1.3986 -3.79765 0
M  V30 116 H 8.4506 1.5038 -2.74052 0
M  V30 117 H 7.6706 -0.706255 -3.87822 0
M  V30 118 H 8.9586 -0.447847 -5.06825 0
M  V30 119 H 8.3566 2.73128 -4.95396 0
M  V30 120 H 6.9136 2.80493 -5.88359 0
M  V30 121 N 10.3467 1.47872 -0.545128 0
M  V30 122 C 11.2787 2.27869 0.246621 0
M  V30 123 C 12.2917 1.36282 0.890561 0
M  V30 124 O 13.4807 1.61207 0.766449 0
M  V30 125 C 10.5807 3.10159 1.36582 0
M  V30 126 C 9.7537 4.29627 0.820954 0
M  V30 127 C 8.8127 4.93607 1.82314 0
M  V30 128 O 7.8387 5.52366 1.37406 0
M  V30 129 N 9.0407 4.87211 3.15603 0
M  V30 130 H 11.8057 2.96459 -0.439539 0
M  V30 131 H 9.3667 1.57367 -0.380421 0
M  V30 132 H 11.3587 3.49829 2.03474 0
M  V30 133 H 9.9287 2.43891 1.9554 0
M  V30 134 H 9.1487 3.94192 -0.0244032 0
M  V30 135 H 10.4367 5.06928 0.436063 0
M  V30 136 H 9.8347 4.40651 3.54744 0
M  V30 137 H 8.3917 5.30937 3.78087 0
M  V30 138 N 11.8248 0.280983 1.55075 0
M  V30 139 C 13.0728 -0.333455 1.9933 0
M  V30 140 C 13.3938 -1.55937 1.17085 0
M  V30 141 O 12.6638 -1.94143 0.261805 0
M  V30 142 H 11.2438 -0.126197 0.736263 0
M  V30 143 H 13.9058 0.387678 1.91005 0
M  V30 144 H 13.0018 -0.619292 3.05894 0
M  V30 145 N 13.3029 -1.57598 0.00835791 0
M  V30 146 C 14.2499 -2.08945 -0.980346 0
M  V30 147 C 15.2199 -0.986738 -1.33614 0
M  V30 148 O 16.4049 -1.25968 -1.43306 0
M  V30 149 C 13.5449 -2.60425 -2.26435 0
M  V30 150 C 12.6579 -3.84628 -1.96685 0
M  V30 151 C 11.7929 -4.24579 -3.19228 0
M  V30 152 C 10.8319 -5.41596 -2.85202 0
M  V30 153 N 9.9689 -5.768 -4.00307 0
M  V30 154 H 14.8089 -2.93148 -0.535551 0
M  V30 155 H 12.3459 -1.44912 -0.252776 0
M  V30 156 H 14.3039 -2.88354 -3.01509 0
M  V30 157 H 12.9339 -1.79083 -2.68568 0
M  V30 158 H 11.9859 -3.63556 -1.11942 0
M  V30 159 H 13.2979 -4.69796 -1.67611 0
M  V30 160 H 12.4519 -4.53834 -4.02641 0
M  V30 161 H 11.1909 -3.38137 -3.51447 0
M  V30 162 H 10.1959 -5.12056 -2.00198 0
M  V30 163 H 11.4209 -6.29721 -2.54222 0
M  V30 164 H 9.3669 -4.93316 -4.32407 0
M  V30 165 H 9.2839 -6.5656 -3.74786 0
M  V30 166 H 10.5519 -6.10652 -4.84484 0
M  V30 167 N 14.781 0.264519 -1.55364 0
M  V30 168 C 16.03 0.992812 -1.75574 0
M  V30 169 C 16.343 1.87142 -0.568979 0
M  V30 170 O 17.549 2.63513 -0.653682 0
M  V30 171 C 16.005 1.81519 -3.10771 0
M  V30 172 C 15.613 0.984839 -4.37041 0
M  V30 173 C 17.357 2.53727 -3.40327 0
M  V30 174 C 15.264 1.80209 -5.63275 0
M  V30 175 H 14.194 0.374412 -0.65447 0
M  V30 176 H 16.845 0.248138 -1.81815 0
M  V30 177 H 15.227 2.60115 -2.98591 0
M  V30 178 H 16.401 0.242455 -4.60162 0
M  V30 179 H 14.716 0.37691 -4.14691 0
M  V30 180 H 17.313 3.15292 -4.3185 0
M  V30 181 H 17.656 3.24447 -2.60845 0
M  V30 182 H 18.189 1.82156 -3.53644 0
M  V30 183 H 14.928 1.13896 -6.45529 0
M  V30 184 H 14.448 2.52022 -5.44284 0
M  V30 185 H 16.127 2.37364 -6.01887 0
M  V30 186 N 16.2591 1.48442 0.529413 0
M  V30 187 C 17.4871 1.60151 1.30994 0
M  V30 188 C 17.9021 0.261985 1.86973 0
M  V30 189 O 17.2591 -0.748805 1.66431 0
M  V30 190 C 17.3101 2.64854 2.46038 0
M  V30 191 O 17.0311 3.93608 1.92365 0
M  V30 192 C 18.5321 2.87007 3.37849 0
M  V30 193 H 15.7521 0.539971 0.398338 0
M  V30 194 H 18.2961 1.94273 0.638597 0
M  V30 195 H 16.4511 2.33589 3.09055 0
M  V30 196 H 16.8651 4.51055 2.67675 0
M  V30 197 H 18.3391 3.64068 4.14919 0
M  V30 198 H 18.8161 1.95852 3.93114 0
M  V30 199 H 19.4221 3.19579 2.80623 0
M  V30 200 N 17.7372 -0.778329 1.37039 0
M  V30 201 C 18.6672 -1.90546 1.34962 0
M  V30 202 C 19.6482 -1.68681 0.219274 0
M  V30 203 O 20.8332 -1.89634 0.418624 0
M  V30 204 C 17.9632 -3.27734 1.14925 0
M  V30 205 C 16.9172 -3.64147 2.24902 0
M  V30 206 C 16.2432 -4.99806 1.89996 0
M  V30 207 C 17.5432 -3.71579 3.67051 0
M  V30 208 H 19.2372 -1.92541 2.29277 0
M  V30 209 H 16.7832 -0.924948 1.10366 0
M  V30 210 H 18.7362 -4.06215 1.12104 0
M  V30 211 H 17.4602 -3.26154 0.170631 0
M  V30 212 H 16.1192 -2.8797 2.26868 0
M  V30 213 H 15.7672 -4.94759 0.906796 0
M  V30 214 H 15.4672 -5.25139 2.63634 0
M  V30 215 H 16.9912 -5.80694 1.88749 0
M  V30 216 H 18.4052 -4.40227 3.67251 0
M  V30 217 H 16.8022 -4.08405 4.39688 0
M  V30 218 H 17.8722 -2.72404 4.01154 0
M  V30 219 N 19.2153 -1.21501 -1.00376 0
M  V30 220 C 20.4643 -1.02718 -1.73586 0
M  V30 221 C 20.7773 0.439589 -1.90596 0
M  V30 222 O 21.9833 0.746848 -2.61026 0
M  V30 223 C 20.4393 -1.78929 -3.1227 0
M  V30 224 C 20.0473 -3.29783 -3.03228 0
M  V30 225 C 21.7913 -1.68557 -3.89601 0
M  V30 226 C 19.6983 -3.98479 -4.36999 0
M  V30 227 H 18.6283 -0.380733 -0.650814 0
M  V30 228 H 21.2793 -1.45248 -1.1214 0
M  V30 229 H 19.6613 -1.29192 -3.74333 0
M  V30 230 H 20.8353 -3.86832 -2.50395 0
M  V30 231 H 19.1503 -3.40711 -2.39385 0
M  V30 232 H 21.7473 -2.17211 -4.88593 0
M  V30 233 H 22.0903 -0.644021 -4.11288 0
M  V30 234 H 22.6233 -2.15778 -3.34193 0
M  V30 235 H 19.3623 -5.02841 -4.20513 0
M  V30 236 H 18.8823 -3.46219 -4.89788 0
M  V30 237 H 20.5613 -4.03462 -5.05794 0
M  V30 238 N 20.6934 1.19889 -1.02296 0
M  V30 239 C 21.6234 2.25141 -0.619174 0
M  V30 240 C 22.6044 1.66051 0.368915 0
M  V30 241 O 23.7894 1.92546 0.252941 0
M  V30 242 C 20.9194 3.4728 0.0368783 0
M  V30 243 C 19.8734 4.19005 -0.872865 0
M  V30 244 C 19.1994 5.34637 -0.0822402 0
M  V30 245 C 20.4994 4.74452 -2.18387 0
M  V30 246 H 22.1934 2.59171 -1.49903 0
M  V30 247 H 19.7394 1.24579 -0.722222 0
M  V30 248 H 21.6924 4.20098 0.330958 0
M  V30 249 H 20.4164 3.12433 0.95149 0
M  V30 250 H 19.0754 3.48061 -1.15105 0
M  V30 251 H 18.7234 4.96034 0.83422 0
M  V30 252 H 18.4234 5.83557 -0.688149 0
M  V30 253 H 19.9474 6.10255 0.205238 0
M  V30 254 H 21.3614 5.39055 -1.95172 0
M  V30 255 H 19.7584 5.33834 -2.74119 0
M  V30 256 H 20.8284 3.92844 -2.84257 0
M  V30 257 N 22.1715 0.800033 1.35784 0
M  V30 258 C 23.3995 0.389606 2.03199 0
M  V30 259 C 23.8145 -0.997375 1.60306 0
M  V30 260 O 23.1715 -1.64154 0.797481 0
M  V30 261 C 23.2225 0.455855 3.58614 0
M  V30 262 O 22.9435 1.78815 3.99946 0
M  V30 263 C 24.4445 0.0374032 4.43284 0
M  V30 264 H 21.6645 0.159132 0.651857 0
M  V30 265 H 24.2085 1.08183 1.73541 0
M  V30 266 H 22.3635 -0.188057 3.86943 0
M  V30 267 H 22.7775 1.74636 4.94573 0
M  V30 268 H 24.2515 0.134882 5.51835 0
M  V30 269 H 24.7285 -1.01651 4.27275 0
M  V30 270 H 25.3345 0.654215 4.20238 0
M  V30 271 N 23.6496 -1.47581 0.552962 0
M  V30 272 C 24.6126 -2.28439 -0.186605 0
M  V30 273 C 25.6126 -1.36706 -0.84665 0
M  V30 274 O 26.8026 -1.59378 -0.703164 0
M  V30 275 C 23.9346 -3.16264 -1.2724 0
M  V30 276 H 25.1276 -2.95294 0.523609 0
M  V30 277 H 22.6806 -1.532 0.309745 0
M  V30 278 H 23.4156 -2.54091 -2.01514 0
M  V30 279 H 23.2006 -3.83769 -0.803968 0
M  V30 280 H 24.6906 -3.77198 -1.79196 0
M  V30 281 N 25.1277 -0.289203 -1.54924 0
M  V30 282 C 26.0577 0.58549 -2.2604 0
M  V30 283 C 27.0387 1.14753 -1.25562 0
M  V30 284 O 28.2237 1.17906 -1.54311 0
M  V30 285 C 25.3537 1.76305 -2.99222 0
M  V30 286 C 24.3077 1.33191 -4.06748 0
M  V30 287 C 23.6337 2.5937 -4.6758 0
M  V30 288 C 24.9337 0.471775 -5.20165 0
M  V30 289 H 26.6277 -0.00763532 -2.99399 0
M  V30 290 H 24.1737 -0.00511229 -1.43999 0
M  V30 291 H 26.1267 2.38097 -3.47689 0
M  V30 292 H 24.8507 2.38223 -2.23422 0
M  V30 293 H 23.5097 0.737121 -3.59113 0
M  V30 294 H 23.1577 3.19576 -3.88433 0
M  V30 295 H 22.8577 2.31228 -5.40192 0
M  V30 296 H 24.3817 3.21985 -5.18804 0
M  V30 297 H 25.7957 0.995056 -5.64599 0
M  V30 298 H 24.1927 0.284639 -5.99425 0
M  V30 299 H 25.2627 -0.506041 -4.82252 0
M  V30 300 N 26.6058 1.57591 -0.0167156 0
M  V30 301 C 27.8458 1.93145 0.668902 0
M  V30 302 C 28.2098 0.892406 1.7 0
M  V30 303 O 29.4108 1.13373 2.43721 0
M  V30 304 C 27.6818 3.33678 1.28039 0
M  V30 305 S 29.2408 3.91142 1.9888 0
M  V30 306 H 26.0588 0.67593 0.220545 0
M  V30 307 H 28.6608 1.95347 -0.0774105 0
M  V30 308 H 27.3648 4.07126 0.517339 0
M  V30 309 H 26.8958 3.3489 2.06427 0
M  V30 310 H 28.9108 3.73571 3.26587 0
M  V30 311 N 28.0839 -0.256276 1.55502 0
M  V30 312 C 29.3299 -0.987079 1.77157 0
M  V30 313 C 29.6629 -1.85327 0.580315 0
M  V30 314 O 28.9379 -1.89874 -0.421686 0
M  V30 315 C 29.2209 -1.85553 3.08613 0
M  V30 316 C 29.0739 -1.01816 4.38125 0
M  V30 317 C 30.3929 -2.8397 3.36228 0
M  V30 318 H 27.5119 -0.357428 0.644526 0
M  V30 319 H 30.1539 -0.258239 1.88237 0
M  V30 320 H 28.3039 -2.47695 2.99298 0
M  V30 321 H 29.9759 -0.416159 4.59419 0
M  V30 322 H 28.2189 -0.322178 4.32602 0
M  V30 323 H 28.8899 -1.65939 5.26468 0
M  V30 324 H 31.3659 -2.31964 3.45445 0
M  V30 325 H 30.2419 -3.41864 4.29442 0
M  V30 326 H 30.5029 -3.59955 2.56681 0
M  V30 327 N 29.562 -1.4872 -0.521534 0
M  V30 328 C 30.492 -1.66771 -1.63431 0
M  V30 329 C 31.473 -0.516499 -1.62069 0
M  V30 330 O 32.658 -0.750013 -1.79132 0
M  V30 331 C 29.788 -1.71515 -3.01993 0
M  V30 332 C 28.742 -2.86222 -3.18216 0
M  V30 333 C 28.068 -2.76061 -4.57924 0
M  V30 334 C 29.368 -4.27419 -3.00184 0
M  V30 335 H 31.062 -2.59932 -1.48579 0
M  V30 336 H 28.608 -1.25089 -0.713358 0
M  V30 337 H 30.561 -1.82731 -3.7972 0
M  V30 338 H 29.285 -0.749393 -3.17886 0
M  V30 339 H 27.944 -2.74575 -2.42908 0
M  V30 340 H 27.592 -1.77437 -4.70665 0
M  V30 341 H 27.292 -3.53037 -4.69722 0
M  V30 342 H 28.816 -2.89256 -5.37739 0
M  V30 343 H 30.23 -4.39855 -3.67697 0
M  V30 344 H 28.627 -5.05458 -3.2347 0
M  V30 345 H 29.697 -4.43293 -1.96518 0
M  V30 346 N 31.0401 0.771051 -1.3745 0
M  V30 347 C 32.2891 1.52491 -1.3202 0
M  V30 348 C 32.6021 1.9538 0.0927347 0
M  V30 349 O 33.8081 2.70159 0.269503 0
M  V30 350 C 32.2641 2.75366 -2.31736 0
M  V30 351 C 31.8721 2.39573 -3.78562 0
M  V30 352 C 33.6161 3.53307 -2.35318 0
M  V30 353 C 31.5231 3.58954 -4.70007 0
M  V30 354 H 30.4531 0.572506 -0.490666 0
M  V30 355 H 33.1041 0.844474 -1.62914 0
M  V30 356 H 31.4861 3.45303 -1.93861 0
M  V30 357 H 32.6601 1.77415 -4.25277 0
M  V30 358 H 30.9751 1.74805 -3.77932 0
M  V30 359 H 33.5721 4.42039 -3.00842 0
M  V30 360 H 33.9151 3.93217 -1.36698 0
M  V30 361 H 34.4481 2.90367 -2.71904 0
M  V30 362 H 31.1871 3.24125 -5.69757 0
M  V30 363 H 30.7071 4.20214 -4.27996 0
M  V30 364 H 32.3861 4.25758 -4.87175 0
M  V30 365 N 32.5182 1.22032 0.997298 0
M  V30 366 C 33.7482 1.06686 1.76923 0
M  V30 367 C 34.1562 -0.385838 1.85224 0
M  V30 368 O 33.4992 -1.27929 1.31833 0
M  V30 369 C 33.5612 1.59802 3.22031 0
M  V30 370 C 33.2252 3.08362 3.37286 0
M  V30 371 C 34.2222 4.05835 3.24952 0
M  V30 372 C 31.9072 3.47727 3.6248 0
M  V30 373 C 33.9012 5.4066 3.37588 0
M  V30 374 C 31.5882 4.82701 3.74757 0
M  V30 375 C 32.5862 5.78977 3.62319 0
M  V30 376 O 32.2742 7.11502 3.74193 0
M  V30 377 H 32.0062 0.374767 0.562606 0
M  V30 378 H 34.5602 1.61991 1.26286 0
M  V30 379 H 32.7902 0.989003 3.73839 0
M  V30 380 H 34.4792 1.40184 3.80924 0
M  V30 381 H 35.2452 3.76766 3.05405 0
M  V30 382 H 31.1242 2.73317 3.7124 0
M  V30 383 H 34.6682 6.15788 3.27796 0
M  V30 384 H 30.5652 5.11453 3.9381 0
M  V30 385 H 31.3332 7.19019 3.91093 0
M  V30 386 N 33.9963 -1.19345 1.0293 0
M  V30 387 C 34.9263 -2.2481 0.631105 0
M  V30 388 C 35.9073 -1.66245 -0.360104 0
M  V30 389 O 37.0923 -1.92677 -0.242726 0
M  V30 390 C 34.2223 -3.47295 -0.0184607 0
M  V30 391 C 33.1763 -4.18536 0.895073 0
M  V30 392 C 32.5023 -5.34586 0.110592 0
M  V30 393 C 33.8023 -4.73287 2.209 0
M  V30 394 H 35.4963 -2.58372 1.51275 0
M  V30 395 H 33.0423 -1.24194 0.728818 0
M  V30 396 H 34.9953 -4.20268 -0.308675 0
M  V30 397 H 33.7193 -3.12933 -0.934907 0
M  V30 398 H 32.3783 -3.47446 1.16949 0
M  V30 399 H 32.0263 -4.96469 -0.807902 0
M  V30 400 H 31.7263 -5.83183 0.719087 0
M  V30 401 H 33.2503 -6.10355 -0.172871 0
M  V30 402 H 34.6643 -5.38013 1.98028 0
M  V30 403 H 33.0613 -5.32373 2.76946 0
M  V30 404 H 34.1313 -3.91331 2.86336 0
M  V30 405 N 35.4744 -0.807222 -1.35358 0
M  V30 406 C 36.4374 -0.223665 -2.28106 0
M  V30 407 C 37.4374 0.589354 -1.4961 0
M  V30 408 O 38.6274 0.407745 -1.69361 0
M  V30 409 C 35.7594 0.688149 -3.33882 0
M  V30 410 H 36.9524 -1.04169 -2.81227 0
M  V30 411 H 34.5054 -0.577921 -1.45223 0
M  V30 412 H 35.2404 1.52984 -2.85948 0
M  V30 413 H 35.0254 0.10687 -3.91954 0
M  V30 414 H 36.5154 1.09075 -4.03104 0
M  V30 415 N 36.9525 1.47285 -0.560781 0
M  V30 416 C 37.8845 2.28118 0.222438 0
M  V30 417 C 38.8975 1.37219 0.876056 0
M  V30 418 O 40.0865 1.62011 0.749307 0
M  V30 419 C 37.1865 3.1159 1.33285 0
M  V30 420 C 36.3595 4.30473 0.77534 0
M  V30 421 C 35.4185 4.95513 1.77069 0
M  V30 422 O 34.4445 5.53792 1.31539 0
M  V30 423 N 35.6465 4.90531 3.10418 0
M  V30 424 H 38.4115 2.95976 -0.470958 0
M  V30 425 H 35.9725 1.56955 -0.39709 0
M  V30 426 H 37.9645 3.51967 1.99752 0
M  V30 427 H 36.5345 2.45951 1.92943 0
M  V30 428 H 35.7545 3.94144 -0.0662113 0
M  V30 429 H 37.0425 5.07362 0.382272 0
M  V30 430 H 36.4405 4.44389 3.5005 0
M  V30 431 H 34.9975 5.34917 3.72434 0
M  V30 432 N 38.4306 0.297415 1.54768 0
M  V30 433 C 39.3626 -0.613881 2.20826 0
M  V30 434 C 40.3756 -1.10032 1.19987 0
M  V30 435 O 41.5646 -1.01839 1.46598 0
M  V30 436 C 38.6646 -1.852 2.83821 0
M  V30 437 C 37.8376 -1.50865 4.10559 0
M  V30 438 C 36.8966 -2.60154 4.57391 0
M  V30 439 O 35.9226 -2.25398 5.2267 0
M  V30 440 N 37.1246 -3.90629 4.29406 0
M  V30 441 H 39.8896 -0.048389 2.99661 0
M  V30 442 H 37.4506 0.11946 1.61459 0
M  V30 443 H 39.4426 -2.57652 3.12086 0
M  V30 444 H 38.0126 -2.32597 2.08847 0
M  V30 445 H 37.2326 -0.616925 3.89343 0
M  V30 446 H 38.5206 -1.25458 4.9309 0
M  V30 447 H 37.9186 -4.21677 3.77101 0
M  V30 448 H 36.4756 -4.59391 4.62388 0
M  V30 449 N 39.9087 -1.5758 0.0250728 0
M  V30 450 C 40.8387 -2.13007 -0.956575 0
M  V30 451 C 41.8197 -1.0452 -1.342 0
M  V30 452 O 43.0047 -1.32332 -1.42133 0
M  V30 453 C 40.1347 -2.65386 -2.24026 0
M  V30 454 C 39.0887 -3.78623 -1.99571 0
M  V30 455 C 38.4147 -4.17414 -3.3417 0
M  V30 456 C 39.7147 -5.04867 -1.33814 0
M  V30 457 H 41.4087 -2.9528 -0.494991 0
M  V30 458 H 38.9547 -1.42042 -0.236651 0
M  V30 459 H 40.9077 -3.02794 -2.93076 0
M  V30 460 H 39.6317 -1.80268 -2.72343 0
M  V30 461 H 38.2907 -3.41646 -1.32941 0
M  V30 462 H 37.9387 -3.29284 -3.80238 0
M  V30 463 H 37.6387 -4.93719 -3.18615 0
M  V30 464 H 39.1627 -4.57402 -4.04495 0
M  V30 465 H 40.5767 -5.39888 -1.92857 0
M  V30 466 H 38.9737 -5.86144 -1.28669 0
M  V30 467 H 40.0437 -4.83904 -0.310561 0
M  V30 468 N 41.3868 0.248026 -1.55636 0
M  V30 469 C 42.6348 0.974295 -1.77065 0
M  V30 470 C 42.9558 1.85897 -0.588849 0
M  V30 471 O 42.2258 1.91868 0.395407 0
M  V30 472 H 40.8058 0.362733 -0.653019 0
M  V30 473 H 43.4678 0.266244 -1.93073 0
M  V30 474 H 42.5638 1.59667 -2.68166 0
M  V30 475 N 42.8649 1.48995 0.513639 0
M  V30 476 C 44.1119 1.57843 1.26854 0
M  V30 477 C 44.4399 0.259501 1.92761 0
M  V30 478 O 43.6949 -0.75159 1.80692 0
M  V30 479 C 43.9939 2.67756 2.36731 0
M  V30 480 C 43.6599 4.09669 1.88368 0
M  V30 481 C 42.3219 4.48291 1.74896 0
M  V30 482 C 44.6739 4.98537 1.52021 0
M  V30 483 C 42.0019 5.73568 1.23438 0
M  V30 484 C 44.3539 6.24319 1.0202 0
M  V30 485 C 43.0179 6.61783 0.871778 0
M  V30 486 H 42.2879 0.577587 0.464192 0
M  V30 487 H 44.9349 1.82778 0.571366 0
M  V30 488 H 43.2399 2.36743 3.12185 0
M  V30 489 H 44.9369 2.71813 2.9482 0
M  V30 490 H 41.5269 3.79176 1.99808 0
M  V30 491 H 45.7109 4.69363 1.61281 0
M  V30 492 H 40.9669 6.01304 1.10648 0
M  V30 493 H 45.1409 6.92566 0.729722 0
M  V30 494 H 42.7679 7.5874 0.470852 0
M  V30 495 N 44.343 -0.763751 1.37857 0
M  V30 496 C 45.253 -1.90817 1.36478 0
M  V30 497 C 46.269 -1.71997 0.263248 0
M  V30 498 O 47.445 -1.95095 0.499979 0
M  V30 499 C 44.51 -3.2605 1.17864 0
M  V30 500 C 43.571 -3.57467 2.3773 0
M  V30 501 C 42.804 -4.86249 2.19995 0
M  V30 502 O 43.027 -5.57884 1.18836 0
M  V30 503 O 41.961 -5.16911 3.08361 0
M  V30 504 H 45.787 -1.94933 2.32884 0
M  V30 505 H 43.372 -0.907619 1.1867 0
M  V30 506 H 45.254 -4.06924 1.09504 0
M  V30 507 H 43.929 -3.22769 0.245372 0
M  V30 508 H 42.836 -2.76796 2.51664 0
M  V30 509 H 44.169 -3.655 3.29652 0
M  V30 510 N 45.8211 -1.22559 -0.990812 0
M  V30 511 C 47.0981 -0.959875 -1.70428 0
M  V30 512 C 47.4781 0.524455 -2.04481 0
M  V30 513 O 46.8261 1.49302 -1.72977 0
M  V30 514 C 47.0361 -1.85955 -2.95333 0
M  V30 515 C 48.3841 -2.11687 -3.68068 0
M  V30 516 O 49.4081 -1.8342 -3.05345 0
M  V30 517 O 48.2671 -2.59572 -4.80921 0
M  V30 518 H 45.3611 -0.361154 -0.743974 0
M  V30 519 H 47.9071 -1.33554 -1.04697 0
M  V30 520 H 46.6791 -2.86346 -2.66687 0
M  V30 521 H 46.3021 -1.4856 -3.68803 0
M  V30 522 N 47.2992 1.18797 -1.03562 0
M  V30 523 C 48.5762 1.84469 -0.650434 0
M  V30 524 C 48.9562 1.92319 0.870433 0
M  V30 525 O 48.3042 1.44528 1.76986 0
M  V30 526 C 48.5142 3.2306 -1.32036 0
M  V30 527 C 49.8622 3.9915 -1.44792 0
M  V30 528 O 50.8862 3.32481 -1.27806 0
M  V30 529 O 49.7452 5.18587 -1.72423 0
M  V30 530 H 46.8392 0.795251 -0.226946 0
M  V30 531 H 49.3852 1.26231 -1.13419 0
M  V30 532 H 48.1572 3.1222 -2.3587 0
M  V30 533 H 47.7802 3.88949 -0.8249 0
M  V30 534 N 48.7773 0.814389 1.34928 0
M  V30 535 C 50.0263 0.394871 1.97797 0
M  V30 536 C 50.3393 -1.04555 1.65311 0
M  V30 537 O 51.5453 -1.56856 2.21604 0
M  V30 538 C 50.0013 0.655103 3.53888 0
M  V30 539 C 49.6093 2.10858 3.95276 0
M  V30 540 C 51.3533 0.301329 4.23429 0
M  V30 541 C 49.2603 2.31415 5.44244 0
M  V30 542 H 48.1903 0.143913 0.740139 0
M  V30 543 H 50.8413 0.999544 1.53888 0
M  V30 544 H 49.2233 -0.0196253 3.95995 0
M  V30 545 H 50.3973 2.82176 3.64298 0
M  V30 546 H 48.7123 2.42297 3.38646 0
M  V30 547 H 51.3093 0.432869 5.32945 0
M  V30 548 H 51.6523 -0.75331 4.09428 0
M  V30 549 H 52.1853 0.930288 3.86769 0
M  V30 550 H 48.9243 3.35353 5.63222 0
M  V30 551 H 48.4443 1.6463 5.76764 0
M  V30 552 H 50.1233 2.13352 6.10811 0
M  V30 553 N 50.2554 -1.46986 0.568584 0
M  V30 554 C 51.1884 -2.27129 -0.220779 0
M  V30 555 C 52.1664 -1.34757 -0.909905 0
M  V30 556 O 53.3504 -1.64152 -0.926622 0
M  V30 557 C 50.4774 -3.12108 -1.31553 0
M  V30 558 C 49.5234 -4.20141 -0.733748 0
M  V30 559 S 50.3564 -5.33783 0.428479 0
M  V30 560 C 51.5124 -6.22327 -0.667811 0
M  V30 561 H 51.7454 -2.93731 0.459267 0
M  V30 562 H 49.2784 -1.5026 0.355154 0
M  V30 563 H 51.2364 -3.61636 -1.94241 0
M  V30 564 H 49.8974 -2.44847 -1.96746 0
M  V30 565 H 49.0904 -4.79373 -1.5562 0
M  V30 566 H 48.6924 -3.73553 -0.182812 0
M  V30 567 H 50.9844 -6.59364 -1.55708 0
M  V30 568 H 51.9274 -7.0801 -0.11258 0
M  V30 569 H 52.3354 -5.5618 -0.965601 0
M  V30 570 N 51.7335 -0.305618 -1.54608 0
M  V30 571 C 52.9635 0.304333 -2.04346 0
M  V30 572 C 53.3715 1.47715 -1.18224 0
M  V30 573 O 52.7145 1.82591 -0.201577 0
M  V30 574 C 52.7765 0.819031 -3.50046 0
M  V30 575 C 52.4405 -0.22912 -4.56425 0
M  V30 576 C 53.4375 -1.05914 -5.08997 0
M  V30 577 C 51.1225 -0.372148 -5.0092 0
M  V30 578 C 53.1165 -2.01809 -6.04609 0
M  V30 579 C 50.8035 -1.33454 -5.9635 0
M  V30 580 C 51.8015 -2.15599 -6.48079 0
M  V30 581 O 51.4895 -3.10205 -7.41639 0
M  V30 582 H 51.2215 0.0693996 -0.672428 0
M  V30 583 H 53.7755 -0.444548 -2.00532 0
M  V30 584 H 52.0055 1.61852 -3.51199 0
M  V30 585 H 53.6945 1.34537 -3.82955 0
M  V30 586 H 54.4605 -0.959538 -4.75413 0
M  V30 587 H 50.3395 0.257304 -4.60281 0
M  V30 588 H 53.8835 -2.65966 -6.44909 0
M  V30 589 H 49.7805 -1.43485 -6.29351 0
M  V30 590 H 50.5485 -3.05237 -7.59455 0
M  V30 591 N 53.2116 1.57565 -0.0334293 0
M  V30 592 C 54.1416 2.13511 0.945265 0
M  V30 593 C 55.1226 1.05231 1.33643 0
M  V30 594 O 56.3076 1.33084 1.41429 0
M  V30 595 C 53.4376 2.6657 2.22616 0
M  V30 596 C 52.3916 3.79676 1.97561 0
M  V30 597 C 51.7176 4.1918 3.31952 0
M  V30 598 C 53.0176 5.0557 1.31135 0
M  V30 599 H 54.7116 2.95538 0.479325 0
M  V30 600 H 52.2576 1.42166 0.229115 0
M  V30 601 H 54.2106 3.04344 2.91466 0
M  V30 602 H 52.9346 1.8171 2.71384 0
M  V30 603 H 51.5936 3.42347 1.31127 0
M  V30 604 H 51.2416 3.31296 3.78487 0
M  V30 605 H 50.9416 4.95402 3.15992 0
M  V30 606 H 52.4656 4.59541 4.02063 0
M  V30 607 H 53.8796 5.40903 1.89992 0
M  V30 608 H 52.2766 5.86818 1.25559 0
M  V30 609 H 53.3466 4.84062 0.284894 0
M  V30 610 N 54.6897 -0.239769 1.55765 0
M  V30 611 C 55.6227 -1.32356 1.85895 0
M  V30 612 C 56.6007 -1.46053 0.714662 0
M  V30 613 O 57.7847 -1.62154 0.961157 0
M  V30 614 C 54.9117 -2.6962 2.04994 0
M  V30 615 C 53.9577 -2.73036 3.27648 0
M  V30 616 S 54.7907 -2.28929 4.84099 0
M  V30 617 C 55.9467 -3.68103 5.06212 0
M  V30 618 H 56.1797 -1.06601 2.77531 0
M  V30 619 H 53.7127 -0.441112 1.47965 0
M  V30 620 H 55.6707 -3.48653 2.16682 0
M  V30 621 H 54.3317 -2.92609 1.14188 0
M  V30 622 H 53.5247 -3.7386 3.38 0
M  V30 623 H 53.1267 -2.02052 3.14723 0
M  V30 624 H 55.4187 -4.63656 4.93993 0
M  V30 625 H 56.3617 -3.6268 6.08168 0
M  V30 626 H 56.7697 -3.60947 4.34025 0
M  V30 627 N 56.1678 -1.49265 -0.50573 0
M  V30 628 C 57.1178 -1.6198 -1.60457 0
M  V30 629 C 58.1018 -0.47568 -1.53708 0
M  V30 630 O 59.2938 -0.728392 -1.61318 0
M  V30 631 C 56.4228 -1.68526 -2.99089 0
M  V30 632 C 55.5088 -2.885 -3.10852 0
M  V30 633 N 55.8998 -4.12635 -2.92517 0
M  V30 634 C 54.1978 -2.86338 -3.41945 0
M  V30 635 C 54.8988 -4.93258 -3.08337 0
M  V30 636 N 53.8748 -4.26533 -3.37003 0
M  V30 637 H 57.6768 -2.55681 -1.44928 0
M  V30 638 H 55.1908 -1.45972 -0.711752 0
M  V30 639 H 57.1878 -1.75732 -3.78053 0
M  V30 640 H 55.8478 -0.759584 -3.1569 0
M  V30 641 H 56.8588 -4.42689 -2.68787 0
M  V30 642 H 53.5358 -2.03129 -3.64753 0
M  V30 643 H 54.9258 -6.01856 -2.98695 0
M  V30 644 N 57.6459 0.756429 -1.3826 0
M  V30 645 C 58.8759 1.54341 -1.3734 0
M  V30 646 C 59.2839 1.89159 0.0393917 0
M  V30 647 O 58.6269 1.5307 1.01565 0
M  V30 648 C 58.6889 2.87238 -2.16182 0
M  V30 649 C 58.3529 2.74973 -3.65019 0
M  V30 650 C 59.3499 2.44962 -4.58574 0
M  V30 651 C 57.0349 2.92515 -4.08338 0
M  V30 652 C 59.0289 2.32642 -5.93428 0
M  V30 653 C 56.7159 2.79815 -5.43274 0
M  V30 654 C 57.7139 2.49921 -6.35632 0
M  V30 655 O 57.4019 2.37275 -7.68086 0
M  V30 656 H 57.1339 0.484281 -0.471643 0
M  V30 657 H 59.6879 0.944152 -1.82414 0
M  V30 658 H 57.9179 3.49342 -1.65822 0
M  V30 659 H 59.6069 3.48731 -2.07705 0
M  V30 660 H 60.3729 2.31081 -4.26412 0
M  V30 661 H 56.2519 3.14781 -3.368 0
M  V30 662 H 59.7959 2.0923 -6.65484 0
M  V30 663 H 55.6929 2.93269 -5.75034 0
M  V30 664 H 56.4609 2.52509 -7.78577 0
M  V30 665 N 59.124 1.23083 0.984299 0
M  V30 666 C 60.535 1.05609 1.5396 0
M  V30 667 C 60.886 -0.377793 1.92528 0
M  V30 668 O 60.011 -1.26398 1.75649 0
M  V30 669 C 60.606 1.91087 2.7977 0
M  V30 670 C 59.165 1.77885 3.31713 0
M  V30 671 C 58.312 1.87028 2.04733 0
M  V30 672 H 61.263 1.36802 0.804419 0
M  V30 673 H 61.284 1.43336 3.5247 0
M  V30 674 H 60.796 2.9544 2.51668 0
M  V30 675 H 58.897 0.762995 3.64704 0
M  V30 676 H 59.01 2.61047 4.01735 0
M  V30 677 H 57.374 1.30565 2.18689 0
M  V30 678 H 58.157 2.92929 1.79017 0
M  V30 679 N 60.6021 -1.18246 1.0419 0
M  V30 680 C 61.5651 -2.20128 0.638452 0
M  V30 681 C 62.5651 -1.57885 -0.304805 0
M  V30 682 O 63.7551 -1.73967 -0.0900369 0
M  V30 683 C 60.8871 -3.4084 -0.0637751 0
M  V30 684 H 62.0801 -2.57336 1.54007 0
M  V30 685 H 59.6331 -1.32152 0.834598 0
M  V30 686 H 60.3681 -3.09166 -0.979136 0
M  V30 687 H 60.1531 -3.8726 0.614198 0
M  V30 688 H 61.6431 -4.16274 -0.332512 0
M  V30 689 N 62.0802 -0.821533 -1.34494 0
M  V30 690 C 63.3102 -0.421272 -2.02259 0
M  V30 691 C 63.7182 0.977047 -1.6202 0
M  V30 692 O 63.0612 1.64348 -0.820703 0
M  V30 693 C 63.1232 -0.44231 -3.56769 0
M  V30 694 C 62.7872 -1.79372 -4.20327 0
M  V30 695 C 63.7842 -2.75435 -4.40944 0
M  V30 696 C 61.4692 -2.08182 -4.57127 0
M  V30 697 C 63.4632 -3.98482 -4.97484 0
M  V30 698 C 61.1502 -3.31489 -5.13379 0
M  V30 699 C 62.1482 -4.26457 -5.33501 0
M  V30 700 O 61.8362 -5.47585 -5.88562 0
M  V30 701 H 61.5682 -0.167473 -0.654927 0
M  V30 702 H 64.1222 -1.11073 -1.72777 0
M  V30 703 H 62.3522 0.303836 -3.85505 0
M  V30 704 H 64.0412 -0.0622925 -4.05852 0
M  V30 705 H 64.8072 -2.54473 -4.12878 0
M  V30 706 H 60.6862 -1.35066 -4.4077 0
M  V30 707 H 64.2302 -4.72618 -5.13106 0
M  V30 708 H 60.1272 -3.52316 -5.40873 0
M  V30 709 H 60.8952 -5.49086 -6.06998 0
M  V30 710 N 63.5583 1.46682 -0.576371 0
M  V30 711 C 64.4683 2.34032 0.163141 0
M  V30 712 C 65.4843 1.49367 0.892501 0
M  V30 713 O 66.6603 1.82252 0.857106 0
M  V30 714 C 63.7253 3.26435 1.16795 0
M  V30 715 C 62.7863 4.26998 0.443944 0
M  V30 716 C 62.0193 5.14986 1.40088 0
M  V30 717 O 62.2423 5.05785 2.637 0
M  V30 718 O 61.1763 5.94906 0.914917 0
M  V30 719 H 65.0023 2.98607 -0.55388 0
M  V30 720 H 62.5873 1.45554 -0.336821 0
M  V30 721 H 64.4693 3.83459 1.74748 0
M  V30 722 H 63.1443 2.64465 1.86655 0
M  V30 723 H 62.0513 3.7368 -0.177271 0
M  V30 724 H 63.3843 4.91736 -0.213566 0
M  V30 725 N 65.0364 0.313813 1.54444 0
M  V30 726 C 65.9464 -0.565714 2.27677 0
M  V30 727 C 66.9624 -1.13754 1.31666 0
M  V30 728 O 68.1384 -1.15959 1.64668 0
M  V30 729 C 65.2034 -1.71528 3.01296 0
M  V30 730 C 64.2644 -1.17624 4.12872 0
M  V30 731 C 63.4974 -2.27102 4.8297 0
M  V30 732 O 63.7204 -3.47256 4.52514 0
M  V30 733 O 62.6544 -1.9307 5.70094 0
M  V30 734 H 66.4804 0.0287296 3.03686 0
M  V30 735 H 64.0654 0.0798312 1.49187 0
M  V30 736 H 65.9474 -2.38476 3.4743 0
M  V30 737 H 64.6224 -2.29608 2.2817 0
M  V30 738 H 63.5294 -0.472124 3.71109 0
M  V30 739 H 64.8624 -0.640695 4.88012 0
M  V30 740 N 66.5145 -1.57545 0.0417849 0
M  V30 741 C 67.4465 -2.07904 -0.964799 0
M  V30 742 C 68.4595 -1.00497 -1.28079 0
M  V30 743 O 69.6485 -1.28087 -1.24322 0
M  V30 744 C 66.7485 -2.49928 -2.28887 0
M  V30 745 C 65.9215 -3.80562 -2.15619 0
M  V30 746 C 64.9805 -4.08999 -3.31069 0
M  V30 747 O 64.0065 -4.79061 -3.0739 0
M  V30 748 N 65.2085 -3.6017 -4.55256 0
M  V30 749 H 67.9735 -2.94886 -0.535029 0
M  V30 750 H 65.5345 -1.61252 -0.144681 0
M  V30 751 H 67.5265 -2.66034 -3.04972 0
M  V30 752 H 66.0965 -1.68245 -2.63463 0
M  V30 753 H 65.3165 -3.74129 -1.24183 0
M  V30 754 H 66.6045 -4.66126 -2.03971 0
M  V30 755 H 66.0025 -3.03512 -4.77386 0
M  V30 756 H 64.5595 -3.81532 -5.28466 0
M  V30 757 N 67.9926 0.231505 -1.5589 0
M  V30 758 C 69.2696 0.981096 -1.69215 0
M  V30 759 C 69.6496 2.02799 -0.586164 0
M  V30 760 O 68.9976 2.24823 0.408253 0
M  V30 761 C 69.2076 1.60054 -3.10135 0
M  V30 762 C 70.5556 2.09658 -3.69227 0
M  V30 763 O 71.5796 1.69967 -3.13033 0
M  V30 764 O 70.4386 2.8258 -4.67772 0
M  V30 765 H 67.5326 0.457653 -0.688827 0
M  V30 766 H 70.0786 0.224073 -1.68214 0
M  V30 767 H 68.8506 0.844105 -3.82087 0
M  V30 768 H 68.4736 2.42336 -3.15212 0
M  V30 769 N 69.4707 1.49531 0.497807 0
M  V30 770 C 70.6957 1.63159 1.28039 0
M  V30 771 C 71.1207 0.30418 1.85624 0
M  V30 772 O 70.4787 -0.728618 1.66015 0
M  V30 773 C 70.5267 2.70537 2.38416 0
M  V30 774 O 69.6307 2.29931 3.42353 0
M  V30 775 H 68.9717 0.546001 0.377861 0
M  V30 776 H 71.5017 1.9574 0.59558 0
M  V30 777 H 71.5117 2.92802 2.84132 0
M  V30 778 H 70.1867 3.6689 1.95869 0
M  V30 779 H 68.7637 2.18009 3.02533 0
M  V30 780 N 70.9488 -0.749086 1.3866 0
M  V30 781 C 71.8588 -1.89358 1.38494 0
M  V30 782 C 72.8748 -1.71708 0.281476 0
M  V30 783 O 74.0508 -1.94554 0.520643 0
M  V30 784 C 71.1158 -3.24782 1.21316 0
M  V30 785 C 70.1768 -3.54926 2.41508 0
M  V30 786 C 69.4098 -4.83888 2.2514 0
M  V30 787 O 69.6328 -5.56592 1.24746 0
M  V30 788 O 68.5668 -5.13612 3.13826 0
M  V30 789 H 72.3928 -1.92452 2.34938 0
M  V30 790 H 69.9778 -0.894981 1.19626 0
M  V30 791 H 71.8598 -4.05739 1.13814 0
M  V30 792 H 70.5348 -3.2249 0.279592 0
M  V30 793 H 69.4418 -2.74112 2.54585 0
M  V30 794 H 70.7748 -3.61983 3.3351 0
M  V30 795 N 72.4269 -1.23603 -0.977757 0
M  V30 796 C 73.6729 -1.07129 -1.72195 0
M  V30 797 C 74.0059 0.390501 -1.90233 0
M  V30 798 O 73.2809 1.28902 -1.45653 0
M  V30 799 C 73.5639 -1.80031 -3.11867 0
M  V30 800 C 73.4169 -3.33899 -3.01383 0
M  V30 801 C 74.7359 -1.56492 -4.11337 0
M  V30 802 H 71.8549 -0.390571 -0.624999 0
M  V30 803 H 74.4969 -1.52142 -1.13811 0
M  V30 804 H 72.6469 -1.41768 -3.6171 0
M  V30 805 H 74.3189 -3.81699 -2.59043 0
M  V30 806 H 72.5619 -3.62796 -2.37827 0
M  V30 807 H 73.2329 -3.801 -4.00285 0
M  V30 808 H 75.7089 -1.89757 -3.70313 0
M  V30 809 H 74.5849 -2.09973 -5.07151 0
M  V30 810 H 74.8459 -0.500874 -4.39254 0
M  V30 811 N 73.905 1.17692 -1.04816 0
M  V30 812 C 75.151 1.88389 -0.766892 0
M  V30 813 C 75.506 1.79282 0.698269 0
M  V30 814 O 74.799 1.18739 1.50372 0
M  V30 815 C 74.993 3.37462 -1.17703 0
M  V30 816 C 74.822 3.6108 -2.68051 0
M  V30 817 C 73.592 3.78018 -3.35307 0
M  V30 818 C 75.79 3.61039 -3.66273 0
M  V30 819 N 73.772 3.89444 -4.74559 0
M  V30 820 C 75.143 3.78269 -4.91235 0
M  V30 821 C 77.198 3.44168 -3.59796 0
M  V30 822 C 75.901 3.80376 -6.10497 0
M  V30 823 C 77.927 3.4756 -4.78493 0
M  V30 824 C 77.289 3.65295 -6.02278 0
M  V30 825 H 73.388 0.707651 -0.332798 0
M  V30 826 H 75.972 1.41314 -1.33934 0
M  V30 827 H 74.143 3.83214 -0.63257 0
M  V30 828 H 75.875 3.95759 -0.845989 0
M  V30 829 H 72.63 3.77714 -2.85708 0
M  V30 830 H 73.054 3.98962 -5.46954 0
M  V30 831 H 77.696 3.29396 -2.65062 0
M  V30 832 H 75.414 3.93933 -7.05579 0
M  V30 833 H 79 3.3577 -4.75131 0
M  V30 834 H 77.88 3.6782 -6.92588 0
M  V30 835 N 75.3831 0.828654 1.34056 0
M  V30 836 C 76.7991 0.515135 1.51058 0
M  V30 837 C 76.9991 -0.959581 1.77184 0
M  V30 838 O 76.0551 -1.74382 1.82612 0
M  V30 839 C 77.3681 1.37963 2.67183 0
M  V30 840 C 78.9161 1.37735 2.81066 0
M  V30 841 C 79.3911 2.22645 4.00241 0
M  V30 842 N 80.8821 2.203 4.07458 0
M  V30 843 C 81.6171 2.82744 4.98842 0
M  V30 844 N 81.1131 3.54201 5.9541 0
M  V30 845 N 82.9061 2.72268 4.91759 0
M  V30 846 H 75.0571 1.78343 1.15358 0
M  V30 847 H 77.3201 0.760304 0.566252 0
M  V30 848 H 77.0261 2.42714 2.54525 0
M  V30 849 H 76.9001 1.0484 3.62338 0
M  V30 850 H 79.2871 0.337593 2.93163 0
M  V30 851 H 79.3681 1.74859 1.86703 0
M  V30 852 H 79.0121 3.26674 3.88905 0
M  V30 853 H 78.9421 1.82869 4.93829 0
M  V30 854 H 81.4331 1.68327 3.38341 0
M  V30 855 H 81.7461 3.9908 6.61782 0
M  V30 856 H 80.0911 3.58308 5.95517 0
M  V30 857 H 83.2821 2.16014 4.15278 0
M  V30 858 H 83.4551 3.21219 5.62781 0
M  V30 859 N 76.8612 -1.46375 0.584142 0
M  V30 860 C 78.0912 -2.06461 0.0758195 0
M  V30 861 C 78.4992 -1.43322 -1.23512 0
M  V30 862 O 77.8422 -0.533216 -1.75791 0
M  V30 863 C 77.9042 -3.59131 -0.162773 0
M  V30 864 C 77.5682 -4.4447 1.06279 0
M  V30 865 C 78.5652 -4.80918 1.97519 0
M  V30 866 C 76.2502 -4.85584 1.28504 0
M  V30 867 C 78.2442 -5.57309 3.09331 0
M  V30 868 C 75.9312 -5.61734 2.4062 0
M  V30 869 C 76.9292 -5.9751 3.30863 0
M  V30 870 O 76.6172 -6.72121 4.41032 0
M  V30 871 H 76.3492 -0.673745 0.0551725 0
M  V30 872 H 78.9032 -1.88969 0.804984 0
M  V30 873 H 77.1332 -3.74936 -0.946565 0
M  V30 874 H 78.8222 -4.0114 -0.619782 0
M  V30 875 H 79.5882 -4.49732 1.81565 0
M  V30 876 H 75.4672 -4.57187 0.591702 0
M  V30 877 H 79.0112 -5.85152 3.79793 0
M  V30 878 H 74.9082 -5.92334 2.56537 0
M  V30 879 H 75.6762 -6.90547 4.39417 0
M  V30 880 N 78.3393 -0.321999 -1.54275 0
M  V30 881 C 79.5883 0.281931 -1.9972 0
M  V30 882 C 79.9013 1.53369 -1.21397 0
M  V30 883 O 81.1073 2.21352 -1.57211 0
M  V30 884 C 79.5633 0.5529 -3.55628 0
M  V30 885 C 79.1713 -0.681721 -4.42783 0
M  V30 886 C 80.9153 1.11687 -4.09544 0
M  V30 887 C 78.8223 -0.382742 -5.9016 0
M  V30 888 H 77.7523 0.109124 -0.746062 0
M  V30 889 H 80.4033 -0.43398 -1.78294 0
M  V30 890 H 78.7853 1.32896 -3.73035 0
M  V30 891 H 79.9593 -1.45723 -4.37151 0
M  V30 892 H 78.2743 -1.1658 -3.99748 0
M  V30 893 H 80.8713 1.35515 -5.17242 0
M  V30 894 H 81.2143 2.06575 -3.61431 0
M  V30 895 H 81.7473 0.402032 -3.95763 0
M  V30 896 H 78.4863 -1.30076 -6.42464 0
M  V30 897 H 78.0063 0.355094 -5.98748 0
M  V30 898 H 79.6853 0.00800157 -6.47 0
M  V30 899 N 79.8174 1.5752 -0.0501392 0
M  V30 900 C 81.0424 1.97376 0.636997 0
M  V30 901 C 81.4674 0.927466 1.63645 0
M  V30 902 O 80.8254 -0.10941 1.8097 0
M  V30 903 C 80.8734 3.36304 1.30123 0
M  V30 904 O 79.9774 3.34156 2.41689 0
M  V30 905 H 79.3184 0.642998 0.165679 0
M  V30 906 H 81.8484 2.04258 -0.118233 0
M  V30 907 H 81.8584 3.73008 1.65315 0
M  V30 908 H 80.5334 4.11993 0.568746 0
M  V30 909 H 79.1104 3.09196 2.08451 0
M  V30 910 N 81.2955 -0.223234 1.56011 0
M  V30 911 C 82.2455 -1.28008 1.88674 0
M  V30 912 C 83.2295 -1.42369 0.749663 0
M  V30 913 O 84.4215 -1.45212 1.01205 0
M  V30 914 C 81.5505 -2.63084 2.20548 0
M  V30 915 C 80.6365 -2.52632 3.40643 0
M  V30 916 N 81.0275 -2.11829 4.59306 0
M  V30 917 C 79.3255 -2.83594 3.44224 0
M  V30 918 C 80.0265 -2.12587 5.41463 0
M  V30 919 N 79.0025 -2.5301 4.81131 0
M  V30 920 H 82.8045 -0.955487 2.77935 0
M  V30 921 H 80.3185 -0.431801 1.56554 0
M  V30 922 H 82.3155 -3.39385 2.42122 0
M  V30 923 H 80.9755 -2.96391 1.32599 0
M  V30 924 H 81.9865 -1.82988 4.84496 0
M  V30 925 H 78.6635 -3.21284 2.66614 0
M  V30 926 H 80.0535 -1.83179 6.46448 0
M  V30 927 N 82.7736 -1.49793 -0.48987 0
M  V30 928 C 84.0016 -1.63568 -1.26701 0
M  V30 929 C 84.4166 -0.311465 -1.86213 0
M  V30 930 O 83.7736 0.704416 -1.68357 0
M  V30 931 C 83.8246 -2.71284 -2.38929 0
M  V30 932 O 83.5456 -3.9857 -1.81861 0
M  V30 933 C 85.0466 -2.95864 -3.3012 0
M  V30 934 H 82.2666 -0.550342 -0.383881 0
M  V30 935 H 84.8106 -1.95898 -0.586864 0
M  V30 936 H 82.9656 -2.417 -3.02753 0
M  V30 937 H 83.3796 -4.57993 -2.55622 0
M  V30 938 H 84.8536 -3.74941 -4.05121 0
M  V30 939 H 85.3306 -2.06206 -3.87783 0
M  V30 940 H 85.9366 -3.26907 -2.72051 0
M  V30 941 N 84.2517 0.741722 -1.39055 0
M  V30 942 C 85.1817 1.869 -1.39966 0
M  V30 943 C 86.1627 1.6804 -0.26392 0
M  V30 944 O 87.3477 1.88458 -0.468755 0
M  V30 945 C 84.4777 3.24572 -1.23574 0
M  V30 946 C 83.4317 3.58056 -2.34477 0
M  V30 947 C 82.7577 4.94593 -2.0318 0
M  V30 948 C 84.0577 3.61716 -3.76774 0
M  V30 949 H 85.7517 1.86395 -2.34302 0
M  V30 950 H 83.2977 0.895361 -1.1278 0
M  V30 951 H 85.2507 4.031 -1.22834 0
M  V30 952 H 83.9747 3.25587 -0.257045 0
M  V30 953 H 82.6337 2.81854 -2.34423 0
M  V30 954 H 82.2817 4.92181 -1.03765 0
M  V30 955 H 81.9817 5.17964 -2.77465 0
M  V30 956 H 83.5057 5.75486 -2.04079 0
M  V30 957 H 84.9197 4.30335 -3.78794 0
M  V30 958 H 83.3167 3.96603 -4.50362 0
M  V30 959 H 84.3867 2.61672 -4.08235 0
M  V30 960 N 85.7298 1.2412 0.971189 0
M  V30 961 C 86.9758 1.08041 1.71625 0
M  V30 962 C 87.3088 -0.380407 1.90438 0
M  V30 963 O 86.5838 -1.28127 1.46334 0
M  V30 964 C 86.8668 1.81682 3.10908 0
M  V30 965 C 86.7198 3.35493 2.99608 0
M  V30 966 C 88.0388 1.58671 4.10501 0
M  V30 967 H 85.1578 0.39388 0.622919 0
M  V30 968 H 87.7998 1.52743 1.13003 0
M  V30 969 H 85.9498 1.43684 3.60953 0
M  V30 970 H 87.6218 3.83068 2.57015 0
M  V30 971 H 85.8648 3.64052 2.35899 0
M  V30 972 H 86.5358 3.82217 3.98264 0
M  V30 973 H 89.0118 1.91719 3.69301 0
M  V30 974 H 87.8878 2.1266 5.06031 0
M  V30 975 H 88.1488 0.524161 4.38982 0
M  V30 976 N 87.2079 -1.17134 1.05439 0
M  V30 977 C 88.1579 -2.1919 0.627675 0
M  V30 978 C 89.1419 -1.57328 -0.337147 0
M  V30 979 O 90.3339 -1.76329 -0.153976 0
M  V30 980 C 87.4629 -3.43299 0.00651435 0
M  V30 981 C 86.5489 -4.12255 0.995312 0
M  V30 982 N 86.9399 -4.56997 2.16765 0
M  V30 983 C 85.2379 -4.38316 0.824336 0
M  V30 984 C 85.9389 -5.10239 2.7934 0
M  V30 985 N 84.9149 -5.02595 2.07122 0
M  V30 986 H 88.7169 -2.5149 1.52086 0
M  V30 987 H 86.2309 -1.33491 0.924868 0
M  V30 988 H 88.2279 -4.15693 -0.316965 0
M  V30 989 H 86.8879 -3.1249 -0.882033 0
M  V30 990 H 87.8989 -4.51006 2.54587 0
M  V30 991 H 84.5759 -4.17498 -0.0129526 0
M  V30 992 H 85.9659 -5.54961 3.78772 0
M  V30 993 N 88.686 -0.835752 -1.33615 0
M  V30 994 C 89.616 -0.281739 -2.31794 0
M  V30 995 C 90.597 0.608833 -1.58831 0
M  V30 996 O 91.782 0.533035 -1.86741 0
M  V30 997 C 88.912 0.546612 -3.42971 0
M  V30 998 C 87.866 -0.247904 -4.27281 0
M  V30 999 C 87.192 0.704001 -5.30045 0
M  V30 1000 C 88.492 -1.46324 -5.01385 0
M  V30 1001 H 90.186 -1.10206 -2.78379 0
M  V30 1002 H 87.732 -0.531388 -1.33837 0
M  V30 1003 H 89.685 0.944467 -4.1068 0
M  V30 1004 H 88.409 1.40011 -2.95067 0
M  V30 1005 H 87.068 -0.627281 -3.61194 0
M  V30 1006 H 86.716 1.55381 -4.78399 0
M  V30 1007 H 86.416 0.176524 -5.87335 0
M  V30 1008 H 87.94 1.09944 -6.0062 0
M  V30 1009 H 89.354 -1.13871 -5.61877 0
M  V30 1010 H 87.751 -1.92728 -5.6831 0
M  V30 1011 H 88.821 -2.23467 -4.30338 0
M  V30 1012 N 90.1641 1.46063 -0.591896 0
M  V30 1013 C 91.3891 2.07226 -0.0850314 0
M  V30 1014 C 91.8141 1.43625 1.21463 0
M  V30 1015 O 91.1721 0.523305 1.73583 0
M  V30 1016 C 91.2201 3.60554 0.0576567 0
M  V30 1017 O 90.3241 3.97128 1.11188 0
M  V30 1018 H 89.6651 0.660615 -0.0669568 0
M  V30 1019 H 92.1951 1.8756 -0.81745 0
M  V30 1020 H 92.2051 4.07165 0.2609 0
M  V30 1021 H 90.8801 4.06235 -0.891416 0
M  V30 1022 H 89.4571 3.62213 0.886356 0
M  V30 1023 N 91.6422 0.330177 1.54103 0
M  V30 1024 C 92.5902 -0.548226 2.26047 0
M  V30 1025 C 93.5842 -1.11309 1.27698 0
M  V30 1026 O 94.7902 -1.06036 1.45452 0
M  V30 1027 H 91.1652 -0.195456 0.726155 0
M  V30 1028 H 93.1362 0.0807567 2.98291 0
M  V30 1029 C 91.8852 -1.69415 3.03634 0
M  V30 1030 H 91.2082 -1.26876 3.79134 0
M  V30 1031 H 92.6482 -2.28423 3.5721 0
M  V30 1032 C 91.1072 -2.61569 2.12328 0
M  V30 1033 O 91.6372 -3.63462 1.7105 0
M  V30 1034 N 89.8432 -2.29952 1.77681 0
M  V30 1035 H 89.3902 -1.47134 2.11446 0
M  V30 1036 H 89.3482 -2.91871 1.16869 0
M  V30 1037 N 93.1203 -1.57491 0.0584922 0
M  V30 1038 C 94.0503 -2.14988 -0.911178 0
M  V30 1039 C 95.0313 -1.07343 -1.31952 0
M  V30 1040 O 96.2163 -1.35318 -1.39294 0
M  V30 1041 C 93.3463 -2.70078 -2.18347 0
M  V30 1042 C 92.3003 -3.82771 -1.91495 0
M  V30 1043 C 91.6263 -4.24408 -3.25241 0
M  V30 1044 C 92.9263 -5.07592 -1.23075 0
M  V30 1045 H 94.6203 -2.96263 -0.432246 0
M  V30 1046 H 92.1663 -1.42512 -0.206469 0
M  V30 1047 H 94.1193 -3.08943 -2.86587 0
M  V30 1048 H 92.8433 -1.86005 -2.68458 0
M  V30 1049 H 91.5023 -3.44389 -1.25664 0
M  V30 1050 H 91.1503 -3.37275 -3.73168 0
M  V30 1051 H 90.8503 -5.00366 -3.08071 0
M  V30 1052 H 92.3743 -4.65879 -3.94701 0
M  V30 1053 H 93.7883 -5.43857 -1.81362 0
M  V30 1054 H 92.1853 -5.88741 -1.16207 0
M  V30 1055 H 93.2553 -4.84454 -0.207847 0
M  V30 1056 N 94.5984 0.214957 -1.56127 0
M  V30 1057 C 95.5484 1.27006 -1.8935 0
M  V30 1058 C 96.5324 1.41969 -0.757202 0
M  V30 1059 O 97.7244 1.44673 -1.01973 0
M  V30 1060 C 94.8534 2.61911 -2.2194 0
M  V30 1061 C 93.9394 2.50822 -3.41978 0
M  V30 1062 N 94.3304 2.09391 -4.60423 0
M  V30 1063 C 92.6284 2.81765 -3.45723 0
M  V30 1064 C 93.3294 2.09712 -5.42582 0
M  V30 1065 N 92.3054 2.50454 -4.82466 0
M  V30 1066 H 96.1074 0.940734 -2.78437 0
M  V30 1067 H 93.6214 0.423492 -1.56781 0
M  V30 1068 H 95.6184 3.38096 -2.43919 0
M  V30 1069 H 94.2784 2.95684 -1.34169 0
M  V30 1070 H 95.2894 1.80416 -4.85459 0
M  V30 1071 H 91.9664 3.19865 -2.68314 0
M  V30 1072 H 93.3564 1.79748 -6.4741 0
M  V30 1073 N 96.0765 1.50051 0.48192 0
M  V30 1074 C 97.3255 1.59741 1.23149 0
M  V30 1075 C 97.6385 0.298163 1.93314 0
M  V30 1076 O 98.8445 0.273835 2.70116 0
M  V30 1077 C 97.3005 2.81926 2.23708 0
M  V30 1078 C 96.9085 4.18685 1.59396 0
M  V30 1079 C 98.6525 3.00956 2.99375 0
M  V30 1080 C 96.5595 5.3207 2.58178 0
M  V30 1081 H 95.4895 0.594838 0.46334 0
M  V30 1082 H 98.1405 1.76467 0.503169 0
M  V30 1083 H 96.5225 2.58736 2.99786 0
M  V30 1084 H 97.6965 4.52088 0.891811 0
M  V30 1085 H 96.0115 4.05171 0.960503 0
M  V30 1086 H 98.6085 3.82836 3.73283 0
M  V30 1087 H 98.9515 2.12258 3.58123 0
M  V30 1088 H 99.4845 3.24277 2.30411 0
M  V30 1089 H 96.2235 6.22888 2.04184 0
M  V30 1090 H 95.7435 5.03098 3.26577 0
M  V30 1091 H 97.4225 5.62196 3.20225 0
M  V30 1092 N 97.5546 -0.734337 1.39446 0
M  V30 1093 C 98.4846 -1.86155 1.40955 0
M  V30 1094 C 99.4656 -1.67898 0.272827 0
M  V30 1095 O 100.651 -1.88207 0.478743 0
M  V30 1096 C 97.7806 -3.23912 1.25294 0
M  V30 1097 C 96.7346 -3.56808 2.36373 0
M  V30 1098 C 96.0606 -4.93508 2.058 0
M  V30 1099 C 97.3606 -3.59713 3.78687 0
M  V30 1100 H 99.0546 -1.8515 2.35287 0
M  V30 1101 H 96.6006 -0.889367 1.13253 0
M  V30 1102 H 98.5536 -4.02443 1.2497 0
M  V30 1103 H 97.2776 -3.25446 0.274308 0
M  V30 1104 H 95.9366 -2.80606 2.35914 0
M  V30 1105 H 95.5846 -4.91623 1.06374 0
M  V30 1106 H 95.2846 -5.16486 2.80208 0
M  V30 1107 H 96.8086 -5.74396 2.07128 0
M  V30 1108 H 98.2226 -4.2832 3.81071 0
M  V30 1109 H 96.6196 -3.94209 4.52459 0
M  V30 1110 H 97.6896 -2.59504 4.09617 0
M  V30 1111 N 99.0327 -1.24633 -0.964593 0
M  V30 1112 C 100.28 -1.08788 -1.70796 0
M  V30 1113 C 100.608 0.372783 -1.90894 0
M  V30 1114 O 99.8627 1.29167 -1.47018 0
M  V30 1115 C 100.162 -1.7763 -3.10133 0
M  V30 1116 C 99.8277 -3.27557 -3.09866 0
M  V30 1117 C 98.4897 -3.6846 -3.09501 0
M  V30 1118 C 100.842 -4.23389 -3.03959 0
M  V30 1119 C 98.1697 -5.03624 -3.00965 0
M  V30 1120 C 100.522 -5.58565 -2.96965 0
M  V30 1121 C 99.1857 -5.98809 -2.9493 0
M  V30 1122 H 98.4557 -0.398084 -0.624988 0
M  V30 1123 H 101.103 -1.54777 -1.12767 0
M  V30 1124 H 99.4077 -1.24044 -3.71645 0
M  V30 1125 H 101.105 -1.62832 -3.66451 0
M  V30 1126 H 97.6947 -2.95006 -3.10917 0
M  V30 1127 H 101.879 -3.92787 -3.03368 0
M  V30 1128 H 97.1347 -5.33998 -2.97752 0
M  V30 1129 H 101.309 -6.32523 -2.91354 0
M  V30 1130 H 98.9357 -7.03505 -2.88071 0
M  V30 1131 N 100.511 1.16574 -1.06058 0
M  V30 1132 C 101.459 2.22941 -0.663343 0
M  V30 1133 C 102.453 1.66358 0.319593 0
M  V30 1134 O 103.659 1.7905 0.184713 0
M  V30 1135 H 100.034 0.725907 -0.196376 0
M  V30 1136 H 102.005 2.53736 -1.57037 0
M  V30 1137 C 100.754 3.47642 -0.0632808 0
M  V30 1138 H 100.077 3.91493 -0.810733 0
M  V30 1139 H 101.517 4.2363 0.177177 0
M  V30 1140 C 99.9758 3.1509 1.19248 0
M  V30 1141 O 100.506 3.30673 2.28075 0
M  V30 1142 N 98.7118 2.6924 1.09353 0
M  V30 1143 H 98.2588 2.5676 0.207912 0
M  V30 1144 H 98.2168 2.47833 1.93458 0
M  V30 1145 N 101.989 0.842826 1.3317 0
M  V30 1146 C 102.919 0.294028 2.31641 0
M  V30 1147 C 103.9 -0.600401 1.59151 0
M  V30 1148 O 105.085 -0.523124 1.87022 0
M  V30 1149 C 102.215 -0.528416 3.43257 0
M  V30 1150 C 101.169 0.27056 4.27144 0
M  V30 1151 C 100.495 -0.675881 5.30411 0
M  V30 1152 C 101.795 1.48981 5.00602 0
M  V30 1153 H 103.489 1.11681 2.77791 0
M  V30 1154 H 101.035 0.538478 1.33553 0
M  V30 1155 H 102.988 -0.922674 4.11175 0
M  V30 1156 H 101.712 -1.38445 2.95805 0
M  V30 1157 H 100.371 0.646427 3.60856 0
M  V30 1158 H 100.019 -1.52842 4.79216 0
M  V30 1159 H 99.7189 -0.145374 5.8742 0
M  V30 1160 H 101.243 -1.06757 6.01195 0
M  V30 1161 H 102.657 1.16849 5.61266 0
M  V30 1162 H 101.054 1.95739 5.6728 0
M  V30 1163 H 102.124 2.25746 4.29147 0
M  V30 1164 N 103.467 -1.45747 0.599634 0
M  V30 1165 C 104.692 -2.07178 0.0960198 0
M  V30 1166 C 105.117 -1.44268 -1.207 0
M  V30 1167 O 104.475 -0.532503 -1.73303 0
M  V30 1168 C 104.523 -3.60579 -0.0385348 0
M  V30 1169 O 103.627 -3.97713 -1.0908 0
M  V30 1170 H 102.968 -0.660251 0.0704593 0
M  V30 1171 H 105.498 -1.87124 0.827385 0
M  V30 1172 H 105.508 -4.07298 -0.239304 0
M  V30 1173 H 104.183 -4.05756 0.912947 0
M  V30 1174 H 102.76 -3.62678 -0.867135 0
M  V30 1175 N 104.945 -0.338344 -1.53925 0
M  V30 1176 C 106.191 0.252842 -2.01822 0
M  V30 1177 C 106.546 1.48612 -1.22197 0
M  V30 1178 O 105.839 1.89238 -0.299892 0
M  V30 1179 C 106.033 0.62448 -3.51902 0
M  V30 1180 C 105.862 -0.571235 -4.46057 0
M  V30 1181 C 104.632 -1.07493 -4.93734 0
M  V30 1182 C 106.83 -1.42807 -4.94076 0
M  V30 1183 N 104.812 -2.23351 -5.71828 0
M  V30 1184 C 106.183 -2.43362 -5.70241 0
M  V30 1185 C 108.238 -1.45412 -4.76193 0
M  V30 1186 C 106.941 -3.46346 -6.30426 0
M  V30 1187 C 108.967 -2.47274 -5.37224 0
M  V30 1188 C 108.329 -3.46555 -6.13253 0
M  V30 1189 H 104.428 0.0559669 -0.779995 0
M  V30 1190 H 107.012 -0.476732 -1.88773 0
M  V30 1191 H 105.183 1.32317 -3.65167 0
M  V30 1192 H 106.915 1.19841 -3.86549 0
M  V30 1193 H 103.67 -0.643848 -4.69203 0
M  V30 1194 H 104.094 -2.81834 -6.15548 0
M  V30 1195 H 108.736 -0.700171 -4.16962 0
M  V30 1196 H 106.454 -4.22638 -6.88769 0
M  V30 1197 H 110.04 -2.50109 -5.25297 0
M  V30 1198 H 108.92 -4.24083 -6.59638 0
M  V30 1199 N 106.423 1.57458 -0.0668435 0
M  V30 1200 C 107.67 1.93301 0.603406 0
M  V30 1201 C 107.998 0.946486 1.69917 0
M  V30 1202 O 107.253 -0.0387021 1.95662 0
M  V30 1203 C 107.552 3.35784 1.22409 0
M  V30 1204 C 107.218 4.50179 0.254955 0
M  V30 1205 C 105.88 4.81199 -0.0116746 0
M  V30 1206 C 108.232 5.19598 -0.408338 0
M  V30 1207 C 105.56 5.78978 -0.94877 0
M  V30 1208 C 107.912 6.18381 -1.33372 0
M  V30 1209 C 106.576 6.47821 -1.60887 0
M  V30 1210 H 105.846 0.707338 0.220802 0
M  V30 1211 H 108.493 1.91012 -0.136665 0
M  V30 1212 H 106.798 3.34515 2.03978 0
M  V30 1213 H 108.495 3.60804 1.74989 0
M  V30 1214 H 105.085 4.25983 0.472954 0
M  V30 1215 H 109.269 4.95832 -0.215456 0
M  V30 1216 H 104.525 6.00115 -1.16925 0
M  V30 1217 H 108.699 6.71277 -1.85367 0
M  V30 1218 H 106.326 7.23399 -2.33661 0
M  V30 1219 N 107.901 -0.206675 1.56239 0
M  V30 1220 C 109.148 -0.928842 1.79941 0
M  V30 1221 C 109.476 -1.83734 0.638131 0
M  V30 1222 O 108.731 -1.92039 -0.376746 0
M  V30 1223 C 109.03 -1.78675 3.09532 0
M  V30 1224 C 108.696 -1.03022 4.38973 0
M  V30 1225 C 107.358 -0.821302 4.74139 0
M  V30 1226 C 109.71 -0.497081 5.18824 0
M  V30 1227 C 107.038 -0.0675719 5.86661 0
M  V30 1228 C 109.39 0.24338 6.32132 0
M  V30 1229 C 108.054 0.463422 6.65889 0
M  V30 1230 H 107.324 -0.339887 0.658451 0
M  V30 1231 H 109.971 -0.195977 1.90495 0
M  V30 1232 H 108.276 -2.58794 2.94165 0
M  V30 1233 H 109.973 -2.34792 3.25075 0
M  V30 1234 H 106.563 -1.20306 4.11369 0
M  V30 1235 H 110.747 -0.645921 4.92079 0
M  V30 1236 H 106.003 0.112995 6.11296 0
M  V30 1237 H 110.177 0.66393 6.93228 0
M  V30 1238 H 107.804 1.04938 7.52922 0
M  V30 1239 N 109.379 -1.50304 -0.473955 0
M  V30 1240 C 110.628 -1.60392 -1.22301 0
M  V30 1241 C 110.941 -0.308411 -1.93153 0
M  V30 1242 O 112.147 -0.288156 -2.69966 0
M  V30 1243 C 110.603 -2.83109 -2.2221 0
M  V30 1244 C 110.211 -4.19524 -1.57173 0
M  V30 1245 C 111.955 -3.0254 -2.97775 0
M  V30 1246 C 109.862 -5.33431 -2.55353 0
M  V30 1247 H 108.792 -0.597286 -0.460179 0
M  V30 1248 H 111.443 -1.76731 -0.493803 0
M  V30 1249 H 109.825 -2.60322 -2.9841 0
M  V30 1250 H 110.999 -4.52554 -0.867824 0
M  V30 1251 H 109.314 -4.05674 -0.939002 0
M  V30 1252 H 111.911 -3.84811 -3.71248 0
M  V30 1253 H 112.254 -2.14154 -3.56992 0
M  V30 1254 H 112.787 -3.25494 -2.28688 0
M  V30 1255 H 109.526 -6.23962 -2.00878 0
M  V30 1256 H 109.046 -5.04823 -3.23904 0
M  V30 1257 H 110.725 -5.63887 -3.17239 0
M  V30 1258 N 110.857 0.726932 -1.39834 0
M  V30 1259 C 112.104 1.48664 -1.37496 0
M  V30 1260 C 112.432 1.94482 0.0264678 0
M  V30 1261 O 111.687 1.67692 1.00886 0
M  V30 1262 C 111.986 2.73495 -2.30077 0
M  V30 1263 C 111.652 2.46502 -3.77555 0
M  V30 1264 C 110.314 2.3885 -4.17737 0
M  V30 1265 C 112.666 2.23604 -4.70798 0
M  V30 1266 C 109.994 2.06352 -5.49214 0
M  V30 1267 C 112.346 1.92622 -6.02561 0
M  V30 1268 C 111.01 1.83444 -6.41798 0
M  V30 1269 H 110.28 0.544001 -0.503135 0
M  V30 1270 H 112.927 0.833657 -1.72402 0
M  V30 1271 H 111.232 3.43575 -1.88317 0
M  V30 1272 H 112.929 3.31549 -2.25558 0
M  V30 1273 H 109.519 2.5334 -3.45712 0
M  V30 1274 H 113.703 2.28479 -4.40581 0
M  V30 1275 H 108.959 1.97776 -5.78528 0
M  V30 1276 H 113.133 1.73914 -6.74334 0
M  V30 1277 H 110.76 1.58029 -7.43593 0
M  V30 1278 N 112.336 1.25143 0.95797 0
M  V30 1279 C 113.584 1.09476 1.69881 0
M  V30 1280 C 113.905 -0.365502 1.91544 0
M  V30 1281 O 113.175 -1.25985 1.50015 0
M  V30 1282 H 111.755 0.402128 0.629525 0
M  V30 1283 H 114.417 1.57214 1.15194 0
M  V30 1284 H 113.513 1.60046 2.6794 0
M  V30 1285 N 113.814 -1.1601 1.06675 0
M  V30 1286 C 115.062 -1.86264 0.784229 0
M  V30 1287 C 115.383 -1.82328 -0.691488 0
M  V30 1288 O 114.653 -1.25947 -1.50047 0
M  V30 1289 H 113.233 -0.689621 0.28711 0
M  V30 1290 H 115.895 -1.40664 1.34906 0
M  V30 1291 H 114.991 -2.91595 1.11259 0
M  V30 1292 N 115.292 -0.849877 -1.32721 0
M  V30 1293 C 116.225 -0.235903 -2.26977 0
M  V30 1294 C 117.203 0.623355 -1.50177 0
M  V30 1295 O 118.387 0.581207 -1.79316 0
M  V30 1296 C 115.514 0.667712 -3.32053 0
M  V30 1297 C 114.56 -0.11753 -4.26338 0
M  V30 1298 S 115.393 -1.48277 -5.14562 0
M  V30 1299 C 116.549 -0.584741 -6.23163 0
M  V30 1300 H 116.782 -1.03495 -2.78704 0
M  V30 1301 H 114.315 -0.64724 -1.40179 0
M  V30 1302 H 116.273 1.18343 -3.93072 0
M  V30 1303 H 114.934 1.44052 -2.7912 0
M  V30 1304 H 114.127 0.57051 -5.00761 0
M  V30 1305 H 113.729 -0.564668 -3.69713 0
M  V30 1306 H 116.021 0.212968 -6.77165 0
M  V30 1307 H 116.964 -1.29947 -6.96074 0
M  V30 1308 H 117.372 -0.161202 -5.6427 0
M  V30 1309 N 116.77 1.45427 -0.607355 0
M  V30 1310 C 118.019 2.01452 -0.100036 0
M  V30 1311 C 118.332 1.48159 1.27704 0
M  V30 1312 O 119.538 1.96159 1.87707 0
M  V30 1313 C 117.994 3.59672 -0.128158 0
M  V30 1314 C 117.602 4.21962 -1.50507 0
M  V30 1315 C 119.346 4.23262 0.323932 0
M  V30 1316 C 117.253 5.72333 -1.48959 0
M  V30 1317 H 116.183 0.75325 -0.0336299 0
M  V30 1318 H 118.834 1.66901 -0.76265 0
M  V30 1319 H 117.216 3.91411 0.601105 0
M  V30 1320 H 118.39 4.01796 -2.25602 0
M  V30 1321 H 116.705 3.70565 -1.89923 0
M  V30 1322 H 119.302 5.33522 0.354691 0
M  V30 1323 H 119.645 3.93921 1.34656 0
M  V30 1324 H 120.178 3.96239 -0.352056 0
M  V30 1325 H 116.917 6.06373 -2.48981 0
M  V30 1326 H 116.437 5.94691 -0.781214 0
M  V30 1327 H 118.116 6.35525 -1.21313 0
M  V30 1328 N 118.248 0.346503 1.53744 0
M  V30 1329 C 119.158 -0.517293 2.28826 0
M  V30 1330 C 120.174 -1.10935 1.3405 0
M  V30 1331 O 121.35 -1.1244 1.6709 0
M  V30 1332 C 118.415 -1.65098 3.04866 0
M  V30 1333 C 117.476 -1.0884 4.15274 0
M  V30 1334 C 116.709 -2.16806 4.87679 0
M  V30 1335 O 116.932 -3.3758 4.59778 0
M  V30 1336 O 115.866 -1.80934 5.74061 0
M  V30 1337 H 119.692 0.0931396 3.03557 0
M  V30 1338 H 117.277 0.111458 1.48984 0
M  V30 1339 H 119.159 -2.31053 3.5241 0
M  V30 1340 H 117.834 -2.24717 2.32989 0
M  V30 1341 H 116.741 -0.3933 3.72027 0
M  V30 1342 H 118.074 -0.537036 4.89261 0
M  V30 1343 N 119.726 -1.57421 0.075193 0
M  V30 1344 C 121.142 -1.57099 -0.281444 0
M  V30 1345 C 121.342 -1.08486 -1.69803 0
M  V30 1346 O 120.398 -0.752279 -2.41033 0
M  V30 1347 C 121.711 -3.00571 -0.0880041 0
M  V30 1348 C 123.259 -3.12605 -0.157281 0
M  V30 1349 C 123.734 -4.57999 0.0079207 0
M  V30 1350 N 125.225 -4.63176 -0.0475725 0
M  V30 1351 C 125.96 -5.73373 0.0557876 0
M  V30 1352 N 125.456 -6.92473 0.21286 0
M  V30 1353 N 127.249 -5.621 -0.00152098 0
M  V30 1354 H 119.4 -1.87335 1.00098 0
M  V30 1355 H 121.663 -0.86377 0.390646 0
M  V30 1356 H 121.369 -3.40262 0.889629 0
M  V30 1357 H 121.243 -3.67754 -0.838875 0
M  V30 1358 H 123.63 -2.72798 -1.1254 0
M  V30 1359 H 123.711 -2.48053 0.62475 0
M  V30 1360 H 123.355 -4.98496 0.972824 0
M  V30 1361 H 123.285 -5.20586 -0.793556 0
M  V30 1362 H 125.776 -3.7753 -0.167244 0
M  V30 1363 H 126.089 -7.72279 0.283781 0
M  V30 1364 H 124.434 -6.94556 0.248267 0
M  V30 1365 H 127.625 -4.67938 -0.122958 0
M  V30 1366 H 127.798 -6.47948 0.0824844 0
M  V30 1367 N 121.204 0.198386 -1.56346 0
M  V30 1368 C 122.432 0.935572 -1.84539 0
M  V30 1369 C 122.847 1.76989 -0.657281 0
M  V30 1370 O 122.204 1.78626 0.374043 0
M  V30 1371 C 122.255 1.8344 -3.11499 0
M  V30 1372 O 121.976 1.03377 -4.25728 0
M  V30 1373 C 123.477 2.68355 -3.52846 0
M  V30 1374 H 120.697 0.273126 -0.612897 0
M  V30 1375 H 123.241 0.20663 -2.03453 0
M  V30 1376 H 121.396 2.51701 -2.94492 0
M  V30 1377 H 121.81 1.64599 -4.98003 0
M  V30 1378 H 123.284 3.27085 -4.44657 0
M  V30 1379 H 123.761 3.41901 -2.75681 0
M  V30 1380 H 124.367 2.05471 -3.72373 0
M  V30 1381 N 122.682 1.50554 0.465978 0
M  V30 1382 C 123.929 1.61798 1.21768 0
M  V30 1383 C 124.257 0.320696 1.91838 0
M  V30 1384 O 123.512 -0.693724 1.82992 0
M  V30 1385 C 123.811 2.75152 2.28093 0
M  V30 1386 C 123.477 4.15454 1.75239 0
M  V30 1387 C 122.139 4.53628 1.60546 0
M  V30 1388 C 124.491 5.03121 1.36083 0
M  V30 1389 C 121.819 5.77204 1.05128 0
M  V30 1390 C 124.171 6.27249 0.821056 0
M  V30 1391 C 122.835 6.64221 0.660795 0
M  V30 1392 H 122.105 0.592063 0.445582 0
M  V30 1393 H 124.752 1.84503 0.512927 0
M  V30 1394 H 123.057 2.46556 3.04496 0
M  V30 1395 H 124.754 2.81055 2.86023 0
M  V30 1396 H 121.344 3.85341 1.87644 0
M  V30 1397 H 125.528 4.74257 1.46267 0
M  V30 1398 H 120.784 6.0452 0.91462 0
M  V30 1399 H 124.958 6.94537 0.509018 0
M  V30 1400 H 122.585 7.59854 0.229226 0
M  V30 1401 N 124.16 -0.719506 1.40217 0
M  V30 1402 C 125.408 -1.47641 1.3801 0
M  V30 1403 C 125.729 -1.94992 -0.018145 0
M  V30 1404 O 124.999 -1.70073 -0.972207 0
M  V30 1405 H 123.579 -0.547744 0.507923 0
M  V30 1406 H 126.241 -0.853187 1.75233 0
M  V30 1407 H 125.337 -2.35112 2.05253 0
M  V30 1408 N 125.638 -1.25649 -0.95132 0
M  V30 1409 C 126.863 -1.13443 -1.73624 0
M  V30 1410 C 127.288 0.307565 -1.85568 0
M  V30 1411 O 126.646 1.22282 -1.33854 0
M  V30 1412 C 126.694 -1.79723 -3.12621 0
M  V30 1413 O 125.798 -1.07912 -3.98031 0
M  V30 1414 H 125.139 -0.395872 -0.533086 0
M  V30 1415 H 127.669 -1.66276 -1.1922 0
M  V30 1416 H 127.679 -1.86141 -3.63064 0
M  V30 1417 H 126.354 -2.84633 -3.03244 0
M  V30 1418 H 124.931 -1.09398 -3.56492 0
M  V30 1419 N 127.117 1.15442 -1.07289 0
M  V30 1420 C 128.363 1.86489 -0.796846 0
M  V30 1421 C 128.696 1.82078 0.675371 0
M  V30 1422 O 127.971 1.24346 1.4956 0
M  V30 1423 C 128.254 3.35626 -1.30489 0
M  V30 1424 C 128.107 3.48673 -2.84161 0
M  V30 1425 C 129.426 4.30357 -0.920907 0
M  V30 1426 H 126.545 0.677144 -0.290939 0
M  V30 1427 H 129.187 1.35633 -1.33056 0
M  V30 1428 H 127.337 3.79068 -0.850883 0
M  V30 1429 H 129.009 3.14099 -3.37846 0
M  V30 1430 H 127.252 2.90253 -3.22391 0
M  V30 1431 H 127.923 4.53453 -3.14777 0
M  V30 1432 H 130.399 3.94871 -1.3121 0
M  V30 1433 H 129.275 5.33193 -1.30372 0
M  V30 1434 H 129.536 4.4176 0.173226 0
M  V30 1435 N 128.595 0.856903 1.32268 0
M  V30 1436 C 129.542 0.301172 2.28827 0
M  V30 1437 C 130.512 -0.593104 1.5515 0
M  V30 1438 O 131.697 -0.527537 1.83362 0
M  V30 1439 C 128.837 -0.502523 3.41422 0
M  V30 1440 C 127.95 0.417797 4.29975 0
M  V30 1441 C 127.085 -0.398749 5.29701 0
M  V30 1442 C 126.124 0.518827 6.09897 0
M  V30 1443 N 125.261 -0.260674 7.01616 0
M  V30 1444 H 130.101 1.12983 2.75751 0
M  V30 1445 H 127.638 0.568582 1.35667 0
M  V30 1446 H 129.596 -0.984141 4.05426 0
M  V30 1447 H 128.226 -1.29599 2.95642 0
M  V30 1448 H 127.278 1.01781 3.66531 0
M  V30 1449 H 128.59 1.12191 4.86019 0
M  V30 1450 H 127.744 -0.943435 5.9932 0
M  V30 1451 H 126.483 -1.13622 4.7428 0
M  V30 1452 H 125.488 1.07538 5.39181 0
M  V30 1453 H 126.713 1.25495 6.67404 0
M  V30 1454 H 124.659 -0.981198 6.4862 0
M  V30 1455 H 124.576 0.384364 7.55022 0
M  V30 1456 H 125.844 -0.787014 7.75517 0
M  V30 1457 N 130.073 -1.45103 0.615059 0
M  V30 1458 C 131.003 -2.33339 -0.0865619 0
M  V30 1459 C 131.984 -1.4727 -0.851209 0
M  V30 1460 O 133.169 -1.76026 -0.820281 0
M  V30 1461 C 130.299 -3.30095 -1.07956 0
M  V30 1462 C 129.253 -4.25858 -0.427628 0
M  V30 1463 C 128.579 -5.12361 -1.5294 0
M  V30 1464 C 129.879 -5.18165 0.655944 0
M  V30 1465 H 131.573 -2.92254 0.650224 0
M  V30 1466 H 129.119 -1.40532 0.314138 0
M  V30 1467 H 131.072 -3.90698 -1.57901 0
M  V30 1468 H 129.796 -2.69355 -1.84703 0
M  V30 1469 H 128.455 -3.66564 0.0510292 0
M  V30 1470 H 128.103 -4.47984 -2.28734 0
M  V30 1471 H 127.803 -5.77238 -1.09865 0
M  V30 1472 H 129.327 -5.75833 -2.03098 0
M  V30 1473 H 130.741 -5.72796 0.240257 0
M  V30 1474 H 129.138 -5.91559 1.00888 0
M  V30 1475 H 130.208 -4.60144 1.52957 0
M  V30 1476 N 131.551 -0.354651 -1.53558 0
M  V30 1477 C 132.481 0.489091 -2.2832 0
M  V30 1478 C 133.462 1.09324 -1.30316 0
M  V30 1479 O 134.647 1.11255 -1.59173 0
M  V30 1480 C 131.777 1.63456 -3.0643 0
M  V30 1481 C 130.731 1.1582 -4.12031 0
M  V30 1482 C 130.057 2.39305 -4.7816 0
M  V30 1483 C 131.357 0.250731 -5.21698 0
M  V30 1484 H 133.051 -0.134614 -2.99097 0
M  V30 1485 H 130.597 -0.0661826 -1.43848 0
M  V30 1486 H 132.55 2.23136 -3.57475 0
M  V30 1487 H 131.274 2.28533 -2.33325 0
M  V30 1488 H 129.933 0.584146 -3.61916 0
M  V30 1489 H 129.581 3.02814 -4.01637 0
M  V30 1490 H 129.281 2.08109 -5.49513 0
M  V30 1491 H 130.805 2.99691 -5.31994 0
M  V30 1492 H 132.219 0.754695 -5.68311 0
M  V30 1493 H 130.616 0.0301468 -6.00092 0
M  V30 1494 H 131.686 -0.710125 -4.79672 0
M  V30 1495 N 133.029 1.57378 -0.0835403 0
M  V30 1496 C 133.962 2.09016 0.915833 0
M  V30 1497 C 134.94 0.997993 1.2837 0
M  V30 1498 O 136.124 1.27219 1.39096 0
M  V30 1499 C 133.251 2.55757 2.22049 0
M  V30 1500 C 132.297 3.76522 2.00333 0
M  V30 1501 S 133.13 5.20661 1.25191 0
M  V30 1502 C 134.286 5.70743 2.56912 0
M  V30 1503 H 134.519 2.93457 0.476492 0
M  V30 1504 H 132.052 1.53856 0.129493 0
M  V30 1505 H 134.01 2.83346 2.97027 0
M  V30 1506 H 132.671 1.71564 2.63106 0
M  V30 1507 H 131.864 4.07256 2.96916 0
M  V30 1508 H 131.466 3.49367 1.33488 0
M  V30 1509 H 133.758 5.78304 3.52946 0
M  V30 1510 H 134.701 6.6944 2.30772 0
M  V30 1511 H 135.109 4.98616 2.64655 0
M  V30 1512 N 134.507 -0.190092 1.56449 0
M  V30 1513 C 135.437 -1.23816 1.97969 0
M  V30 1514 C 136.418 -1.47201 0.852395 0
M  V30 1515 O 137.603 -1.58854 1.1171 0
M  V30 1516 C 134.733 -2.5813 2.3235 0
M  V30 1517 C 133.687 -2.49348 3.47864 0
M  V30 1518 C 133.013 -3.8798 3.67934 0
M  V30 1519 C 134.313 -2.01424 4.81898 0
M  V30 1520 H 136.007 -0.89311 2.85769 0
M  V30 1521 H 133.553 -0.428177 1.37487 0
M  V30 1522 H 135.506 -3.31637 2.59991 0
M  V30 1523 H 134.23 -2.94386 1.41438 0
M  V30 1524 H 132.889 -1.78297 3.20321 0
M  V30 1525 H 132.537 -4.21597 2.74344 0
M  V30 1526 H 132.237 -3.82978 4.45648 0
M  V30 1527 H 133.761 -4.63101 3.97957 0
M  V30 1528 H 135.175 -2.64693 5.08538 0
M  V30 1529 H 133.572 -2.07413 5.63116 0
M  V30 1530 H 134.642 -0.967677 4.75146 0
M  V30 1531 N 135.985 -1.50799 -0.457987 0
M  V30 1532 C 137.215 -1.65977 -1.23025 0
M  V30 1533 C 137.623 -0.347918 -1.85974 0
M  V30 1534 O 136.966 0.68148 -1.70592 0
M  V30 1535 C 137.028 -2.70309 -2.3701 0
M  V30 1536 C 136.692 -4.135 -1.94594 0
M  V30 1537 C 137.689 -4.98949 -1.46101 0
M  V30 1538 C 135.374 -4.5949 -2.02915 0
M  V30 1539 C 137.368 -6.28442 -1.06489 0
M  V30 1540 C 135.055 -5.88984 -1.62914 0
M  V30 1541 C 136.053 -6.73286 -1.1478 0
M  V30 1542 O 135.741 -8.00362 -0.75339 0
M  V30 1543 H 135.473 -0.56064 -0.377702 0
M  V30 1544 H 138.027 -1.97857 -0.551537 0
M  V30 1545 H 136.257 -2.337 -3.08093 0
M  V30 1546 H 137.946 -2.74574 -2.98938 0
M  V30 1547 H 138.712 -4.6463 -1.39084 0
M  V30 1548 H 134.591 -3.94009 -2.39328 0
M  V30 1549 H 138.135 -6.94194 -0.688488 0
M  V30 1550 H 134.032 -6.22822 -1.69595 0
M  V30 1551 H 134.8 -8.13744 -0.88108 0
M  V30 1552 N 137.463 0.71206 -1.40597 0
M  V30 1553 C 138.709 1.47416 -1.39271 0
M  V30 1554 C 139.042 1.942 0.00388791 0
M  V30 1555 O 138.317 1.68403 0.973179 0
M  V30 1556 C 138.6 2.69774 -2.38525 0
M  V30 1557 C 138.453 2.28861 -3.87224 0
M  V30 1558 C 139.772 3.71939 -2.35264 0
M  V30 1559 H 136.891 0.534713 -0.5072 0
M  V30 1560 H 139.533 0.812375 -1.71757 0
M  V30 1561 H 137.683 3.26238 -2.10953 0
M  V30 1562 H 139.355 1.77852 -4.25636 0
M  V30 1563 H 137.598 1.60824 -4.02887 0
M  V30 1564 H 138.269 3.16584 -4.52193 0
M  V30 1565 H 140.745 3.25113 -2.59694 0
M  V30 1566 H 139.621 4.55186 -3.06753 0
M  V30 1567 H 139.882 4.20484 -1.36549 0
M  V30 1568 N 138.941 1.26152 0.944643 0
M  V30 1569 C 140.187 1.11657 1.69294 0
M  V30 1570 C 140.52 -0.339926 1.91202 0
M  V30 1571 O 139.795 -1.24994 1.49019 0
M  V30 1572 C 140.078 1.88236 3.06984 0
M  V30 1573 C 139.931 3.41772 2.92424 0
M  V30 1574 C 141.25 1.67343 4.07043 0
M  V30 1575 H 138.369 0.407004 0.614424 0
M  V30 1576 H 141.011 1.55106 1.09737 0
M  V30 1577 H 139.161 1.51308 3.57824 0
M  V30 1578 H 140.833 3.88433 2.48832 0
M  V30 1579 H 139.076 3.68974 2.28124 0
M  V30 1580 H 139.747 3.90579 3.90067 0
M  V30 1581 H 142.223 1.99509 3.65151 0
M  V30 1582 H 141.099 2.23346 5.01406 0
M  V30 1583 H 141.36 0.617158 4.37771 0
M  V30 1584 N 140.419 -1.14872 1.07899 0
M  V30 1585 C 141.382 -2.17986 0.708161 0
M  V30 1586 C 142.382 -1.58775 -0.25442 0
M  V30 1587 O 143.572 -1.74166 -0.034645 0
M  V30 1588 C 140.704 -3.40871 0.0446929 0
M  V30 1589 H 141.897 -2.52306 1.62116 0
M  V30 1590 H 139.45 -1.2943 0.876218 0
M  V30 1591 H 140.185 -3.12124 -0.880281 0
M  V30 1592 H 139.97 -3.8511 0.737091 0
M  V30 1593 H 141.46 -4.17121 -0.19991 0
M  V30 1594 N 141.898 -0.863906 -1.31812 0
M  V30 1595 C 143.123 -0.48527 -2.01643 0
M  V30 1596 C 143.548 0.913058 -1.64453 0
M  V30 1597 O 142.906 1.6014 -0.849985 0
M  V30 1598 C 142.954 -0.642625 -3.54828 0
M  V30 1599 O 142.058 0.320659 -4.11151 0
M  V30 1600 H 141.399 -0.193793 -0.635091 0
M  V30 1601 H 143.929 -1.16565 -1.68148 0
M  V30 1602 H 143.939 -0.533628 -4.04495 0
M  V30 1603 H 142.614 -1.66227 -3.81237 0
M  V30 1604 H 141.191 0.167126 -3.72525 0
M  V30 1605 N 143.376 1.44774 -0.622745 0
M  V30 1606 C 144.339 2.29069 0.0774015 0
M  V30 1607 C 145.339 1.4059 0.780461 0
M  V30 1608 O 146.529 1.62551 0.626322 0
M  V30 1609 C 143.661 3.21974 1.12006 0
M  V30 1610 H 144.854 2.92459 -0.663901 0
M  V30 1611 H 142.407 1.51548 -0.382486 0
M  V30 1612 H 143.142 2.63417 1.89162 0
M  V30 1613 H 142.927 3.87168 0.619951 0
M  V30 1614 H 144.417 3.85318 1.60995 0
M  V30 1615 N 144.854 0.36279 1.53368 0
M  V30 1616 C 146.103 -0.22888 2.00397 0
M  V30 1617 C 146.416 -1.50096 1.25421 0
M  V30 1618 O 147.622 -2.17106 1.63025 0
M  V30 1619 C 146.078 -0.458417 3.56969 0
M  V30 1620 C 145.686 0.798877 4.4082 0
M  V30 1621 C 147.43 -1.00789 4.12361 0
M  V30 1622 C 145.337 0.539078 5.88938 0
M  V30 1623 H 144.267 -0.089305 0.748693 0
M  V30 1624 H 146.918 0.481099 1.77081 0
M  V30 1625 H 145.3 -1.22959 3.76427 0
M  V30 1626 H 146.474 1.57262 4.33134 0
M  V30 1627 H 144.789 1.27137 3.96516 0
M  V30 1628 H 147.386 -1.21754 5.20653 0
M  V30 1629 H 147.729 -1.9692 3.66781 0
M  V30 1630 H 148.262 -0.296961 3.9669 0
M  V30 1631 H 145.001 1.47064 6.3879 0
M  V30 1632 H 144.521 -0.196222 5.99479 0
M  V30 1633 H 146.2 0.163542 6.46793 0
M  V30 1634 N 146.332 -1.57332 0.0918853 0
M  V30 1635 C 147.56 -1.98574 -0.581048 0
M  V30 1636 C 147.975 -0.970903 -1.61923 0
M  V30 1637 O 147.332 0.0399054 -1.82456 0
M  V30 1638 C 147.383 -3.39872 -1.23164 0
M  V30 1639 O 147.104 -4.37469 -0.234989 0
M  V30 1640 C 148.605 -3.96099 -1.99049 0
M  V30 1641 H 145.825 -0.65261 -0.156018 0
M  V30 1642 H 148.369 -2.0379 0.170225 0
M  V30 1643 H 146.524 -3.35679 -1.93386 0
M  V30 1644 H 146.938 -5.19751 -0.70418 0
M  V30 1645 H 148.412 -4.97127 -2.39934 0
M  V30 1646 H 148.889 -3.3374 -2.85507 0
M  V30 1647 H 149.495 -4.03755 -1.3365 0
M  V30 1648 N 147.81 0.181792 -1.56548 0
M  V30 1649 C 149.058 0.89832 -1.81038 0
M  V30 1650 C 149.379 1.83232 -0.667164 0
M  V30 1651 O 148.649 1.93372 0.313673 0
M  V30 1652 H 147.229 0.33471 -0.667816 0
M  V30 1653 H 149.891 0.184116 -1.94028 0
M  V30 1654 H 148.987 1.4815 -2.74696 0
M  V30 1655 N 149.288 1.51039 0.449983 0
M  V30 1656 C 150.518 1.66627 1.22143 0
M  V30 1657 C 150.926 0.357776 1.85786 0
M  V30 1658 O 150.269 -0.672424 1.70951 0
M  V30 1659 C 150.331 2.71562 2.35573 0
M  V30 1660 C 149.995 4.14526 1.92399 0
M  V30 1661 C 150.992 4.99717 1.43453 0
M  V30 1662 C 148.677 4.60559 2.00475 0
M  V30 1663 C 150.671 6.28998 1.03155 0
M  V30 1664 C 148.358 5.8984 1.59788 0
M  V30 1665 C 149.356 6.73886 1.11208 0
M  V30 1666 O 149.044 8.0075 0.710935 0
M  V30 1667 H 148.776 0.562635 0.374724 0
M  V30 1668 H 151.33 1.98146 0.541036 0
M  V30 1669 H 149.56 2.3533 3.06849 0
M  V30 1670 H 151.249 2.76156 2.97478 0
M  V30 1671 H 152.015 4.65361 1.36618 0
M  V30 1672 H 147.894 3.95273 2.37235 0
M  V30 1673 H 151.438 6.9455 0.651663 0
M  V30 1674 H 147.335 6.23713 1.66289 0
M  V30 1675 H 148.103 8.142 0.837913 0
M  V30 1676 N 150.766 -0.704594 1.40972 0
M  V30 1677 C 152.012 -1.46675 1.40051 0
M  V30 1678 C 152.345 -1.94199 0.00641102 0
M  V30 1679 O 151.62 -1.68916 -0.964235 0
M  V30 1680 C 151.903 -2.68505 2.39952 0
M  V30 1681 C 151.756 -2.26805 3.88432 0
M  V30 1682 C 153.075 -3.70686 2.37233 0
M  V30 1683 H 150.194 -0.532015 0.510028 0
M  V30 1684 H 152.836 -0.803255 1.72185 0
M  V30 1685 H 150.986 -3.25114 2.1268 0
M  V30 1686 H 152.658 -1.75592 4.26574 0
M  V30 1687 H 150.901 -1.58685 4.03734 0
M  V30 1688 H 151.572 -3.14181 4.53866 0
M  V30 1689 H 154.048 -3.23731 2.61415 0
M  V30 1690 H 152.924 -4.53553 3.09162 0
M  V30 1691 H 153.185 -4.19754 1.38777 0
M  V30 1692 N 152.244 -1.26651 -0.937939 0
M  V30 1693 C 153.176 -1.04283 -2.04102 0
M  V30 1694 C 154.189 -0.00221014 -1.628 0
M  V30 1695 O 155.378 -0.242645 -1.76843 0
M  V30 1696 C 152.478 -0.557846 -3.34277 0
M  V30 1697 C 151.651 -1.66843 -4.04329 0
M  V30 1698 C 150.71 -1.18095 -5.12777 0
M  V30 1699 O 149.736 -1.87865 -5.37304 0
M  V30 1700 N 150.938 -0.0311006 -5.80492 0
M  V30 1701 H 153.703 -1.9927 -2.23856 0
M  V30 1702 H 151.264 -1.1808 -1.10764 0
M  V30 1703 H 153.256 -0.215836 -4.04124 0
M  V30 1704 H 151.826 0.298523 -3.11171 0
M  V30 1705 H 151.046 -2.18123 -3.28353 0
M  V30 1706 H 152.334 -2.41408 -4.47883 0
M  V30 1707 H 151.732 0.551486 -5.63005 0
M  V30 1708 H 150.289 0.251809 -6.51313 0
M  V30 1709 N 153.722 1.14298 -1.08507 0
M  V30 1710 C 154.67 2.21483 -0.710483 0
M  V30 1711 C 155.664 1.66998 0.284234 0
M  V30 1712 O 156.87 1.79401 0.146692 0
M  V30 1713 H 153.245 0.721578 -0.211729 0
M  V30 1714 H 155.216 2.50348 -1.62384 0
M  V30 1715 C 153.965 3.4743 -0.137007 0
M  V30 1716 H 153.288 3.89686 -0.893592 0
M  V30 1717 H 154.728 4.2391 0.0872789 0
M  V30 1718 C 153.187 3.17548 1.12538 0
M  V30 1719 O 153.717 3.35437 2.21009 0
M  V30 1720 N 151.923 2.71499 1.03617 0
M  V30 1721 H 151.47 2.57143 0.153403 0
M  V30 1722 H 151.428 2.51881 1.88158 0
M  V30 1723 N 155.201 0.870884 1.31352 0
M  V30 1724 C 156.431 0.496049 2.00557 0
M  V30 1725 C 156.839 -0.916241 1.65534 0
M  V30 1726 O 156.182 -1.61188 0.881134 0
M  V30 1727 C 156.244 0.574418 3.54881 0
M  V30 1728 C 155.908 1.94849 4.1338 0
M  V30 1729 C 156.905 2.91611 4.30417 0
M  V30 1730 C 154.59 2.25005 4.49086 0
M  V30 1731 C 156.584 4.16672 4.82352 0
M  V30 1732 C 154.271 3.50315 5.00722 0
M  V30 1733 C 155.269 4.45964 5.17306 0
M  V30 1734 O 154.957 5.69052 5.67833 0
M  V30 1735 H 154.689 0.191664 0.64826 0
M  V30 1736 H 157.243 1.17409 1.68536 0
M  V30 1737 H 155.473 -0.160549 3.86367 0
M  V30 1738 H 157.162 0.212879 4.05341 0
M  V30 1739 H 157.928 2.69622 4.03149 0
M  V30 1740 H 153.807 1.51332 4.35453 0
M  V30 1741 H 157.351 4.91336 4.95211 0
M  V30 1742 H 153.248 3.72147 5.27424 0
M  V30 1743 H 154.016 5.71236 5.86201 0
M  V30 1744 N 156.679 -1.44442 0.630414 0
M  V30 1745 C 157.925 -2.02351 0.134816 0
M  V30 1746 C 158.258 -1.4947 -1.23986 0
M  V30 1747 O 157.533 -0.678475 -1.82283 0
M  V30 1748 C 157.816 -3.59898 0.120707 0
M  V30 1749 C 157.669 -4.23063 1.52767 0
M  V30 1750 C 158.988 -4.36585 -0.555127 0
M  V30 1751 H 156.107 -0.73527 0.0504646 0
M  V30 1752 H 158.749 -1.72022 0.806751 0
M  V30 1753 H 156.899 -3.85868 -0.451477 0
M  V30 1754 H 158.571 -4.08202 2.14869 0
M  V30 1755 H 156.814 -3.80586 2.08175 0
M  V30 1756 H 157.485 -5.32071 1.46984 0
M  V30 1757 H 159.961 -4.16044 -0.0685429 0
M  V30 1758 H 158.837 -5.46294 -0.534185 0
M  V30 1759 H 159.098 -4.11138 -1.62535 0
M  V30 1760 N 158.157 -0.370918 -1.53173 0
M  V30 1761 C 159.382 0.220293 -2.06227 0
M  V30 1762 C 159.807 1.41243 -1.24225 0
M  V30 1763 O 159.165 1.79387 -0.262645 0
M  V30 1764 C 159.213 0.586663 -3.55796 0
M  V30 1765 O 158.317 1.68317 -3.76488 0
M  V30 1766 H 157.658 0.0308099 -0.663285 0
M  V30 1767 H 160.188 -0.533068 -1.97534 0
M  V30 1768 H 160.198 0.85617 -3.98916 0
M  V30 1769 H 158.873 -0.285013 -4.14922 0
M  V30 1770 H 157.45 1.40881 -3.45264 0
M  V30 1771 N 159.635 1.57281 -0.100228 0
M  V30 1772 C 160.883 1.94153 0.561157 0
M  V30 1773 C 161.204 0.983157 1.68401 0
M  V30 1774 O 160.474 0.0361132 1.95867 0
M  V30 1775 H 159.054 0.716791 0.210283 0
M  V30 1776 H 161.716 1.94202 -0.164765 0
M  V30 1777 H 160.812 2.96709 0.968008 0
M  V30 1778 N 161.113 -0.173488 1.56642 0
M  V30 1779 C 162.524 -0.736155 1.71574 0
M  V30 1780 C 162.875 -1.82888 0.710389 0
M  V30 1781 O 162 -2.16017 -0.1287 0
M  V30 1782 C 162.595 -1.34211 3.11083 0
M  V30 1783 C 161.154 -1.85162 3.27707 0
M  V30 1784 C 160.301 -0.729765 2.67525 0
M  V30 1785 H 163.252 0.0518786 1.58615 0
M  V30 1786 H 163.273 -2.21178 3.09613 0
M  V30 1787 H 162.785 -0.546579 3.84232 0
M  V30 1788 H 160.886 -2.67366 2.59512 0
M  V30 1789 H 160.999 -1.99855 4.35425 0
M  V30 1790 H 159.363 -1.14965 2.27278 0
M  V30 1791 H 160.146 0.0538806 3.43258 0
M  V30 1792 N 162.591 -1.51276 -0.441967 0
M  V30 1793 C 163.554 -1.7167 -1.51862 0
M  V30 1794 C 164.554 -0.586793 -1.49711 0
M  V30 1795 O 165.744 -0.854276 -1.51815 0
M  V30 1796 C 162.876 -1.76889 -2.91416 0
M  V30 1797 H 164.069 -2.67754 -1.35084 0
M  V30 1798 H 161.622 -1.41196 -0.670333 0
M  V30 1799 H 162.357 -0.826026 -3.13604 0
M  V30 1800 H 162.142 -2.59001 -2.94382 0
M  V30 1801 H 163.632 -1.94522 -3.69528 0
M  V30 1802 N 164.069 0.697108 -1.41344 0
M  V30 1803 C 165.316 1.45714 -1.40619 0
M  V30 1804 C 165.644 1.94494 -0.0147907 0
M  V30 1805 O 164.899 1.69794 0.973066 0
M  V30 1806 C 165.198 2.68553 -2.35826 0
M  V30 1807 C 164.864 2.38438 -3.82698 0
M  V30 1808 C 163.526 2.29936 -4.22709 0
M  V30 1809 C 165.878 2.13567 -4.75435 0
M  V30 1810 C 163.206 1.94656 -5.53467 0
M  V30 1811 C 165.558 1.79797 -6.06511 0
M  V30 1812 C 164.222 1.69789 -6.45545 0
M  V30 1813 H 163.492 0.533206 -0.51456 0
M  V30 1814 H 166.139 0.796901 -1.74131 0
M  V30 1815 H 164.444 3.39503 -1.95563 0
M  V30 1816 H 166.141 3.2669 -2.32539 0
M  V30 1817 H 162.731 2.4595 -3.51008 0
M  V30 1818 H 166.915 2.19082 -4.45328 0
M  V30 1819 H 162.171 1.8546 -5.82593 0
M  V30 1820 H 166.345 1.59572 -6.77872 0
M  V30 1821 H 163.972 1.4222 -7.46778 0
M  V30 1822 N 165.547 1.27147 0.931209 0
M  V30 1823 C 166.794 1.13278 1.67852 0
M  V30 1824 C 167.122 -0.32204 1.91815 0
M  V30 1825 O 166.377 -1.25224 1.50391 0
M  V30 1826 C 166.676 1.8579 3.05314 0
M  V30 1827 C 166.342 3.35657 3.01073 0
M  V30 1828 C 165.004 3.76536 2.99623 0
M  V30 1829 C 167.356 4.31299 2.92627 0
M  V30 1830 C 164.684 5.11426 2.87506 0
M  V30 1831 C 167.036 5.66242 2.82051 0
M  V30 1832 C 165.7 6.06418 2.7895 0
M  V30 1833 H 164.97 0.414515 0.614214 0
M  V30 1834 H 167.617 1.57712 1.08624 0
M  V30 1835 H 165.922 1.33854 3.68226 0
M  V30 1836 H 167.619 1.72491 3.62005 0
M  V30 1837 H 164.209 3.03146 3.02986 0
M  V30 1838 H 168.393 4.00692 2.92848 0
M  V30 1839 H 163.649 5.41705 2.83489 0
M  V30 1840 H 167.823 6.40026 2.74481 0
M  V30 1841 H 165.45 7.10895 2.69318 0
M  V30 1842 N 167.025 -1.13721 1.09112 0
M  V30 1843 C 168.273 -1.84559 0.823562 0
M  V30 1844 C 168.594 -1.83754 -0.652658 0
M  V30 1845 O 167.864 -1.29102 -1.47342 0
M  V30 1846 H 166.444 -0.683376 0.301673 0
M  V30 1847 H 169.106 -1.37771 1.37859 0
M  V30 1848 H 168.202 -2.8917 1.17419 0
M  V30 1849 N 168.503 -0.877838 -1.30888 0
M  V30 1850 C 169.433 -0.35534 -2.3078 0
M  V30 1851 C 170.414 0.557994 -1.60687 0
M  V30 1852 O 171.599 0.473355 -1.88343 0
M  V30 1853 C 168.729 0.437221 -3.44537 0
M  V30 1854 C 167.683 -0.383715 -4.26276 0
M  V30 1855 C 167.009 0.535014 -5.32017 0
M  V30 1856 C 168.309 -1.62201 -4.96476 0
M  V30 1857 H 170.003 -1.19007 -2.74732 0
M  V30 1858 H 167.549 -0.573698 -1.32078 0
M  V30 1859 H 169.502 0.813334 -4.13477 0
M  V30 1860 H 168.226 1.30553 -2.99372 0
M  V30 1861 H 166.885 -0.741874 -3.59015 0
M  V30 1862 H 166.533 1.40083 -4.831 0
M  V30 1863 H 166.233 -0.0104211 -5.87599 0
M  V30 1864 H 167.757 0.907799 -6.03814 0
M  V30 1865 H 169.171 -1.31689 -5.5797 0
M  V30 1866 H 167.568 -2.10711 -5.61891 0
M  V30 1867 H 168.638 -2.37044 -4.23011 0
M  V30 1868 N 169.982 1.44106 -0.638065 0
M  V30 1869 C 171.207 2.0685 -0.150916 0
M  V30 1870 C 171.632 1.47417 1.16833 0
M  V30 1871 O 170.99 0.578264 1.71831 0
M  V30 1872 C 171.038 3.60555 -0.05708 0
M  V30 1873 O 170.142 4.00465 0.984972 0
M  V30 1874 H 169.483 0.658151 -0.0879399 0
M  V30 1875 H 172.013 1.84865 -0.876707 0
M  V30 1876 H 172.023 4.07789 0.131232 0
M  V30 1877 H 170.698 4.03193 -1.02021 0
M  V30 1878 H 169.275 3.64849 0.770672 0
M  V30 1879 N 171.46 0.379036 1.52974 0
M  V30 1880 C 172.708 -0.206014 2.01047 0
M  V30 1881 C 173.029 -1.48175 1.26765 0
M  V30 1882 O 172.299 -1.92085 0.384743 0
M  V30 1883 H 170.879 -0.0791184 0.742798 0
M  V30 1884 H 173.541 0.508366 1.88153 0
M  V30 1885 H 172.637 -0.423501 3.09213 0
M  V30 1886 N 172.938 -1.57226 0.108567 0
M  V30 1887 C 174.184 -1.95121 -0.552761 0
M  V30 1888 C 174.517 -0.991345 -1.66991 0
M  V30 1889 O 173.792 -0.0267211 -1.94482 0
M  V30 1890 C 174.075 -3.43039 -1.09528 0
M  V30 1891 C 173.928 -4.49797 0.0177332 0
M  V30 1892 C 175.247 -3.92567 -1.98945 0
M  V30 1893 H 172.366 -0.709496 -0.199461 0
M  V30 1894 H 175.008 -1.89126 0.182011 0
M  V30 1895 H 173.158 -3.48279 -1.72146 0
M  V30 1896 H 174.83 -4.56661 0.652584 0
M  V30 1897 H 173.073 -4.284 0.682309 0
M  V30 1898 H 173.744 -5.50528 -0.402919 0
M  V30 1899 H 176.22 -3.89565 -1.46214 0
M  V30 1900 H 175.096 -4.96605 -2.33827 0
M  V30 1901 H 175.357 -3.32648 -2.91201 0
M  V30 1902 N 174.416 0.165178 -1.56732 0
M  V30 1903 C 175.662 0.882112 -1.82611 0
M  V30 1904 C 175.995 1.81628 -0.687378 0
M  V30 1905 O 175.27 1.92009 0.310267 0
M  V30 1906 C 175.553 1.67245 -3.18906 0
M  V30 1907 C 175.406 0.760987 -4.43316 0
M  V30 1908 C 176.725 2.63884 -3.52212 0
M  V30 1909 H 173.844 0.319242 -0.664269 0
M  V30 1910 H 176.486 0.148052 -1.89422 0
M  V30 1911 H 174.636 2.29824 -3.1323 0
M  V30 1912 H 176.308 0.147596 -4.61064 0
M  V30 1913 H 174.551 0.0694102 -4.33744 0
M  V30 1914 H 175.222 1.34962 -5.35247 0
M  V30 1915 H 177.698 2.11429 -3.58381 0
M  V30 1916 H 176.574 3.16245 -4.48643 0
M  V30 1917 H 176.835 3.44377 -2.77231 0
M  V30 1918 N 175.894 1.51508 0.433938 0
M  V30 1919 C 177.124 1.67914 1.20369 0
M  V30 1920 C 177.532 0.377461 1.85397 0
M  V30 1921 O 176.875 -0.654255 1.71654 0
M  V30 1922 C 176.937 2.74045 2.32679 0
M  V30 1923 C 176.601 4.16543 1.87991 0
M  V30 1924 C 177.598 5.01211 1.38145 0
M  V30 1925 C 175.283 4.6266 1.95579 0
M  V30 1926 C 177.277 6.30056 0.964774 0
M  V30 1927 C 174.964 5.91501 1.53523 0
M  V30 1928 C 175.962 6.75027 1.04055 0
M  V30 1929 O 175.65 8.01459 0.625964 0
M  V30 1930 H 175.382 0.566578 0.368735 0
M  V30 1931 H 177.936 1.98709 0.51999 0
M  V30 1932 H 176.166 2.38572 3.04336 0
M  V30 1933 H 177.855 2.79295 2.94532 0
M  V30 1934 H 178.621 4.66783 1.31675 0
M  V30 1935 H 174.5 3.97767 2.33029 0
M  V30 1936 H 178.044 6.95202 0.57796 0
M  V30 1937 H 173.941 6.25442 1.59665 0
M  V30 1938 H 174.709 8.15043 0.751509 0
M  V30 1939 N 177.372 -0.689602 1.41712 0
M  V30 1940 C 178.335 -1.78521 1.43746 0
M  V30 1941 C 179.335 -1.57436 0.327191 0
M  V30 1942 O 180.525 -1.64 0.587348 0
M  V30 1943 C 177.657 -3.16971 1.25467 0
M  V30 1944 H 178.85 -1.78108 2.41283 0
M  V30 1945 H 176.403 -0.89781 1.27942 0
M  V30 1946 H 177.138 -3.23019 0.287948 0
M  V30 1947 H 176.923 -3.33678 2.05917 0
M  V30 1948 H 178.413 -3.96935 1.2974 0
M  V30 1949 N 178.85 -1.27639 -0.924453 0
M  V30 1950 C 180.096 -1.14336 -1.67497 0
M  V30 1951 C 180.429 0.309465 -1.91718 0
M  V30 1952 O 179.704 1.22608 -1.50989 0
M  V30 1953 C 179.987 -1.93096 -3.0395 0
M  V30 1954 C 179.84 -3.46381 -2.8695 0
M  V30 1955 C 181.159 -1.73798 -4.0433 0
M  V30 1956 H 178.278 -0.416728 -0.607871 0
M  V30 1957 H 180.92 -1.56832 -1.07256 0
M  V30 1958 H 179.07 -1.56982 -3.55372 0
M  V30 1959 H 180.742 -3.92343 -2.42621 0
M  V30 1960 H 178.985 -3.72557 -2.22225 0
M  V30 1961 H 179.656 -3.96735 -3.83804 0
M  V30 1962 H 182.132 -2.05293 -3.61931 0
M  V30 1963 H 181.008 -2.31294 -4.97789 0
M  V30 1964 H 181.269 -0.686725 -4.36734 0
M  V30 1965 N 180.328 1.1314 -1.09713 0
M  V30 1966 C 181.258 2.20748 -0.761102 0
M  V30 1967 C 182.239 1.68061 0.262566 0
M  V30 1968 O 183.424 1.93765 0.129977 0
M  V30 1969 C 180.554 3.46812 -0.184054 0
M  V30 1970 C 179.508 4.12606 -1.13757 0
M  V30 1971 C 178.834 5.33031 -0.422083 0
M  V30 1972 C 180.134 4.59603 -2.48118 0
M  V30 1973 H 181.828 2.49113 -1.66082 0
M  V30 1974 H 179.374 1.19734 -0.799987 0
M  V30 1975 H 181.327 4.21353 0.0631215 0
M  V30 1976 H 180.051 3.17851 0.750868 0
M  V30 1977 H 178.71 3.40036 -1.37007 0
M  V30 1978 H 178.358 5.00335 0.517072 0
M  V30 1979 H 178.058 5.77999 -1.05788 0
M  V30 1980 H 179.582 6.10325 -0.183277 0
M  V30 1981 H 180.996 5.25552 -2.29059 0
M  V30 1982 H 179.393 5.15321 -3.07514 0
M  V30 1983 H 180.463 3.73971 -3.08665 0
M  V30 1984 N 181.806 0.884767 1.30421 0
M  V30 1985 C 183.054 0.502112 1.95763 0
M  V30 1986 C 183.375 -0.951815 1.70192 0
M  V30 1987 O 182.645 -1.6692 1.0254 0
M  V30 1988 H 181.225 0.182694 0.724315 0
M  V30 1989 H 183.887 1.1278 1.58955 0
M  V30 1990 H 182.983 0.672188 3.04775 0
M  V30 1991 N 183.284 -1.43765 0.645699 0
M  V30 1992 C 184.514 -2.05953 0.163318 0
M  V30 1993 C 184.922 -1.48432 -1.17322 0
M  V30 1994 O 184.265 -0.607295 -1.73371 0
M  V30 1995 C 184.327 -3.59499 -0.0103065 0
M  V30 1996 C 183.991 -4.39563 1.25035 0
M  V30 1997 C 184.988 -4.72108 2.17739 0
M  V30 1998 C 182.673 -4.79697 1.48983 0
M  V30 1999 C 184.667 -5.43688 3.3269 0
M  V30 2000 C 182.354 -5.51023 2.64229 0
M  V30 2001 C 183.352 -5.8294 3.55908 0
M  V30 2002 O 183.04 -6.5281 4.69142 0
M  V30 2003 H 182.772 -0.670798 0.0836986 0
M  V30 2004 H 185.326 -1.85384 0.884407 0
M  V30 2005 H 183.556 -3.78613 -0.78669 0
M  V30 2006 H 185.245 -4.03408 -0.449087 0
M  V30 2007 H 186.011 -4.41627 2.00476 0
M  V30 2008 H 181.89 -4.54266 0.785078 0
M  V30 2009 H 185.434 -5.68517 4.04269 0
M  V30 2010 H 181.331 -5.8092 2.81429 0
M  V30 2011 H 182.099 -6.71288 4.6831 0
M  V30 2012 N 184.763 -0.387143 -1.52771 0
M  V30 2013 C 186.009 0.196025 -2.0185 0
M  V30 2014 C 186.342 1.46641 -1.27319 0
M  V30 2015 O 185.617 1.90889 -0.373032 0
M  V30 2016 C 185.9 0.466136 -3.5707 0
M  V30 2017 C 185.753 -0.819385 -4.42274 0
M  V30 2018 C 187.072 1.25768 -4.21747 0
M  V30 2019 H 184.191 0.0697708 -0.73369 0
M  V30 2020 H 186.833 -0.516286 -1.82851 0
M  V30 2021 H 184.983 1.07293 -3.7339 0
M  V30 2022 H 186.655 -1.4563 -4.37709 0
M  V30 2023 H 184.898 -1.43517 -4.09372 0
M  V30 2024 H 185.569 -0.585065 -5.48891 0
M  V30 2025 H 188.045 0.744167 -4.09391 0
M  V30 2026 H 186.921 1.41541 -5.30337 0
M  V30 2027 H 187.182 2.27228 -3.79236 0
M  V30 2028 N 186.241 1.57166 -0.116904 0
M  V30 2029 C 187.488 1.95123 0.541603 0
M  V30 2030 C 187.816 1.00006 1.6682 0
M  V30 2031 O 187.071 0.0235658 1.95686 0
M  V30 2032 C 187.37 3.39508 1.11664 0
M  V30 2033 C 187.036 4.50762 0.111606 0
M  V30 2034 C 185.698 4.80918 -0.164758 0
M  V30 2035 C 188.05 5.18036 -0.573438 0
M  V30 2036 C 185.378 5.75666 -1.13249 0
M  V30 2037 C 187.73 6.13824 -1.52978 0
M  V30 2038 C 186.394 6.42374 -1.81415 0
M  V30 2039 H 185.664 0.714005 0.198187 0
M  V30 2040 H 188.311 1.9048 -0.197365 0
M  V30 2041 H 186.616 3.40835 1.93232 0
M  V30 2042 H 188.313 3.66189 1.63422 0
M  V30 2043 H 184.903 4.27272 0.337192 0
M  V30 2044 H 189.087 4.94896 -0.373092 0
M  V30 2045 H 184.343 5.96092 -1.35958 0
M  V30 2046 H 188.517 6.65039 -2.06629 0
M  V30 2047 H 186.144 7.15599 -2.56557 0
M  V30 2048 N 187.719 -0.156864 1.56817 0
M  V30 2049 C 188.968 -0.869504 1.81996 0
M  V30 2050 C 189.281 -1.82777 0.696545 0
M  V30 2051 O 190.487 -2.58384 0.833658 0
M  V30 2052 C 188.943 -1.59679 3.22538 0
M  V30 2053 C 188.551 -0.681431 4.42787 0
M  V30 2054 C 190.295 -2.2968 3.56997 0
M  V30 2055 C 188.202 -1.40978 5.74351 0
M  V30 2056 H 187.132 -0.328438 0.678708 0
M  V30 2057 H 189.783 -0.1223 1.83092 0
M  V30 2058 H 188.165 -2.38927 3.158 0
M  V30 2059 H 189.339 0.0751166 4.60739 0
M  V30 2060 H 187.654 -0.0903431 4.16302 0
M  V30 2061 H 190.251 -2.84794 4.52544 0
M  V30 2062 H 190.594 -3.05707 2.82576 0
M  V30 2063 H 191.127 -1.57361 3.65352 0
M  V30 2064 H 187.866 -0.691561 6.51842 0
M  V30 2065 H 187.386 -2.13929 5.60352 0
M  V30 2066 H 189.065 -1.95337 6.16808 0
M  V30 2067 N 189.197 -1.51736 -0.425897 0
M  V30 2068 C 190.613 -1.40166 -0.76326 0
M  V30 2069 C 190.813 -0.492962 -1.95377 0
M  V30 2070 O 189.869 0.0475815 -2.52455 0
M  V30 2071 C 191.182 -2.82403 -1.03291 0
M  V30 2072 C 192.73 -2.91632 -1.13665 0
M  V30 2073 C 193.205 -4.34801 -1.43916 0
M  V30 2074 N 194.696 -4.3796 -1.50816 0
M  V30 2075 C 195.431 -5.4578 -1.75817 0
M  V30 2076 N 194.927 -6.63744 -1.98534 0
M  V30 2077 N 196.72 -5.33274 -1.77694 0
M  V30 2078 H 188.871 -2.09361 0.358 0
M  V30 2079 H 191.134 -0.942941 0.0978094 0
M  V30 2080 H 190.84 -3.50943 -0.230696 0
M  V30 2081 H 190.714 -3.22428 -1.95754 0
M  V30 2082 H 193.101 -2.23284 -1.92947 0
M  V30 2083 H 193.182 -2.55088 -0.190756 0
M  V30 2084 H 192.826 -5.03703 -0.65157 0
M  V30 2085 H 192.756 -4.68868 -2.39729 0
M  V30 2086 H 195.247 -3.52919 -1.35118 0
M  V30 2087 H 195.56 -7.41704 -2.17013 0
M  V30 2088 H 193.905 -6.66839 -1.95832 0
M  V30 2089 H 197.096 -4.40098 -1.59473 0
M  V30 2090 H 197.269 -6.1738 -1.9684 0
M  V30 2091 N 190.675 0.682077 -1.42076 0
M  V30 2092 C 191.952 1.43755 -1.32642 0
M  V30 2093 C 192.332 2.11063 0.0396611 0
M  V30 2094 O 191.68 2.02701 1.05474 0
M  V30 2095 C 191.89 2.44596 -2.48946 0
M  V30 2096 C 193.238 3.09454 -2.9073 0
M  V30 2097 O 194.262 2.54922 -2.48783 0
M  V30 2098 O 193.121 4.08253 -3.63307 0
M  V30 2099 H 190.215 0.640857 -0.522715 0
M  V30 2100 H 192.761 0.711415 -1.54068 0
M  V30 2101 H 191.533 1.93609 -3.40046 0
M  V30 2102 H 191.156 3.24701 -2.29467 0
M  V30 2103 N 192.153 1.28127 0.917671 0
M  V30 2104 C 193.1 1.11717 2.0196 0
M  V30 2105 C 194.07 0.0153929 1.66093 0
M  V30 2106 O 195.255 0.179596 1.89953 0
M  V30 2107 C 192.395 0.780927 3.36148 0
M  V30 2108 C 191.508 1.96135 3.84909 0
M  V30 2109 C 190.643 1.56609 5.0759 0
M  V30 2110 C 189.682 2.71339 5.48673 0
M  V30 2111 N 188.819 2.32332 6.62545 0
M  V30 2112 H 193.659 2.06003 2.15329 0
M  V30 2113 H 191.196 1.02535 1.05475 0
M  V30 2114 H 193.154 0.56675 4.13333 0
M  V30 2115 H 191.784 -0.124998 3.22558 0
M  V30 2116 H 190.836 2.28777 3.03916 0
M  V30 2117 H 192.148 2.82165 4.1132 0
M  V30 2118 H 191.302 1.31374 5.92305 0
M  V30 2119 H 190.041 0.677014 4.82978 0
M  V30 2120 H 189.046 2.97276 4.62501 0
M  V30 2121 H 190.271 3.60882 5.75274 0
M  V30 2122 H 188.217 1.45889 6.39572 0
M  V30 2123 H 188.134 3.11899 6.88662 0
M  V30 2124 H 189.402 2.10371 7.50576 0
M  V30 2125 N 193.631 -1.12557 1.10312 0
M  V30 2126 C 194.561 -2.20341 0.772798 0
M  V30 2127 C 195.542 -1.68198 -0.25365 0
M  V30 2128 O 196.727 -1.93831 -0.119699 0
M  V30 2129 C 193.857 -3.46709 0.202443 0
M  V30 2130 C 192.811 -4.11996 1.15943 0
M  V30 2131 C 192.137 -5.328 0.450345 0
M  V30 2132 C 193.437 -4.5828 2.50552 0
M  V30 2133 H 195.131 -2.48229 1.674 0
M  V30 2134 H 192.677 -1.19308 0.806326 0
M  V30 2135 H 194.63 -4.2138 -0.0407752 0
M  V30 2136 H 193.354 -3.18245 -0.734001 0
M  V30 2137 H 192.013 -3.39305 1.38808 0
M  V30 2138 H 191.661 -5.00602 -0.490531 0
M  V30 2139 H 191.361 -5.7743 1.08851 0
M  V30 2140 H 192.885 -6.10219 0.215642 0
M  V30 2141 H 194.299 -5.2433 2.31843 0
M  V30 2142 H 192.696 -5.13683 3.10242 0
M  V30 2143 H 193.766 -3.72329 3.10643 0
M  V30 2144 N 195.109 -0.891671 -1.2995 0
M  V30 2145 C 196.057 -0.353066 -2.29905 0
M  V30 2146 C 197.051 0.543509 -1.60444 0
M  V30 2147 O 198.257 0.4272 -1.74857 0
M  V30 2148 H 194.632 -0.095531 -0.745907 0
M  V30 2149 H 196.603 -1.20961 -2.72784 0
M  V30 2150 C 195.352 0.411475 -3.45257 0
M  V30 2151 H 194.675 -0.269182 -3.98893 0
M  V30 2152 H 196.115 0.753328 -4.17254 0
M  V30 2153 C 194.574 1.6111 -2.9588 0
M  V30 2154 O 195.104 2.71045 -2.96475 0
M  V30 2155 N 193.31 1.45054 -2.51809 0
M  V30 2156 H 192.857 0.556175 -2.51524 0
M  V30 2157 H 192.815 2.25453 -2.1913 0
M  V30 2158 N 196.587 1.43421 -0.653314 0
M  V30 2159 C 197.537 2.2792 0.060558 0
M  V30 2160 C 198.521 1.39906 0.794677 0
M  V30 2161 O 199.713 1.63536 0.677128 0
M  V30 2162 C 196.842 3.27603 1.0262 0
M  V30 2163 C 195.928 4.23104 0.290551 0
M  V30 2164 N 196.319 5.01031 -0.692967 0
M  V30 2165 C 194.617 4.42816 0.531984 0
M  V30 2166 C 195.318 5.70626 -1.12963 0
M  V30 2167 N 194.294 5.41617 -0.463867 0
M  V30 2168 H 198.096 2.85585 -0.694143 0
M  V30 2169 H 195.61 1.55126 -0.480602 0
M  V30 2170 H 197.607 3.86918 1.55242 0
M  V30 2171 H 196.267 2.71499 1.78096 0
M  V30 2172 H 197.278 5.0669 -1.07169 0
M  V30 2173 H 193.955 3.97782 1.26791 0
M  V30 2174 H 195.345 6.4318 -1.94343 0
M  V30 2175 N 198.065 0.39524 1.52563 0
M  V30 2176 C 199.015 -0.4541 2.23432 0
M  V30 2177 C 199.999 -1.02482 1.24042 0
M  V30 2178 O 201.191 -0.949938 1.49349 0
M  V30 2179 C 198.32 -1.57769 3.049 0
M  V30 2180 C 197.406 -1.01842 4.1169 0
M  V30 2181 N 197.797 -0.184613 5.05463 0
M  V30 2182 C 196.095 -1.29033 4.26927 0
M  V30 2183 C 196.796 0.125013 5.81566 0
M  V30 2184 N 195.772 -0.480498 5.41472 0
M  V30 2185 H 199.574 0.189413 2.93289 0
M  V30 2186 H 197.088 0.204877 1.61102 0
M  V30 2187 H 199.085 -2.19862 3.54212 0
M  V30 2188 H 197.745 -2.22397 2.36579 0
M  V30 2189 H 198.756 0.178602 5.17592 0
M  V30 2190 H 195.433 -1.93721 3.69836 0
M  V30 2191 H 196.823 0.800962 6.67109 0
M  V30 2192 N 199.544 -1.57102 0.125237 0
M  V30 2193 C 200.474 -2.18659 -0.819174 0
M  V30 2194 C 201.455 -1.12843 -1.27281 0
M  V30 2195 O 202.64 -1.41104 -1.33429 0
M  V30 2196 C 199.77 -2.79096 -2.06695 0
M  V30 2197 C 198.724 -3.90548 -1.75088 0
M  V30 2198 C 198.05 -4.37821 -3.06948 0
M  V30 2199 C 199.35 -5.12356 -1.01435 0
M  V30 2200 H 201.044 -2.9783 -0.306202 0
M  V30 2201 H 198.59 -1.4326 -0.145839 0
M  V30 2202 H 200.543 -3.2082 -2.73226 0
M  V30 2203 H 199.267 -1.97223 -2.60328 0
M  V30 2204 H 197.926 -3.49409 -1.10944 0
M  V30 2205 H 197.574 -3.52799 -3.58527 0
M  V30 2206 H 197.274 -5.12982 -2.86571 0
M  V30 2207 H 198.798 -4.822 -3.74587 0
M  V30 2208 H 200.212 -5.5106 -1.58132 0
M  V30 2209 H 198.609 -5.9314 -0.911319 0
M  V30 2210 H 199.679 -4.849 -0.00218681 0
M  V30 2211 N 201.022 0.148545 -1.56898 0
M  V30 2212 C 202.269 0.861418 -1.83264 0
M  V30 2213 C 202.597 1.81239 -0.705883 0
M  V30 2214 O 201.852 1.93305 0.305212 0
M  V30 2215 C 202.151 1.67064 -3.1595 0
M  V30 2216 C 201.817 0.866591 -4.42494 0
M  V30 2217 C 200.479 0.644762 -4.76861 0
M  V30 2218 C 202.831 0.30418 -5.20312 0
M  V30 2219 C 200.159 -0.15021 -5.86508 0
M  V30 2220 C 202.511 -0.477824 -6.30793 0
M  V30 2221 C 201.175 -0.710244 -6.63711 0
M  V30 2222 H 200.445 0.315215 -0.670612 0
M  V30 2223 H 203.092 0.125142 -1.91091 0
M  V30 2224 H 201.397 2.47698 -3.03567 0
M  V30 2225 H 203.094 2.22566 -3.33565 0
M  V30 2226 H 199.684 1.04955 -4.15551 0
M  V30 2227 H 203.868 0.462844 -4.94137 0
M  V30 2228 H 199.124 -0.339796 -6.10455 0
M  V30 2229 H 203.298 -0.92076 -6.90286 0
M  V30 2230 H 200.925 -1.3281 -7.48509 0
M  V30 2231 N 202.5 1.5196 0.417844 0
M  V30 2232 C 203.777 1.56146 1.17803 0
M  V30 2233 C 204.157 0.337275 2.08388 0
M  V30 2234 O 203.505 -0.676447 2.18258 0
M  V30 2235 C 203.715 2.88566 1.96293 0
M  V30 2236 C 205.063 3.41244 2.52662 0
M  V30 2237 O 206.087 2.90247 2.06483 0
M  V30 2238 O 204.946 4.30273 3.36938 0
M  V30 2239 H 202.04 0.628598 0.537395 0
M  V30 2240 H 204.586 1.64283 0.425331 0
M  V30 2241 H 203.358 3.69116 1.2988 0
M  V30 2242 H 202.981 2.83681 2.78587 0
M  V30 2243 N 203.978 -0.674533 1.42435 0
M  V30 2244 C 204.908 -1.80009 1.48724 0
M  V30 2245 C 205.889 -1.6659 0.343793 0
M  V30 2246 O 207.074 -1.86007 0.558137 0
M  V30 2247 C 204.204 -3.18306 1.38919 0
M  V30 2248 C 203.158 -3.46461 2.51294 0
M  V30 2249 C 202.484 -4.84335 2.26547 0
M  V30 2250 C 203.784 -3.43328 3.93603 0
M  V30 2251 H 205.478 -1.75004 2.42928 0
M  V30 2252 H 203.024 -0.840533 1.16923 0
M  V30 2253 H 204.977 -3.9678 1.41927 0
M  V30 2254 H 203.701 -3.2399 0.412094 0
M  V30 2255 H 202.36 -2.70348 2.47604 0
M  V30 2256 H 202.008 -4.86669 1.2713 0
M  V30 2257 H 201.708 -5.04136 3.01861 0
M  V30 2258 H 203.232 -5.65094 2.31304 0
M  V30 2259 H 204.646 -4.11772 3.98894 0
M  V30 2260 H 203.043 -3.74664 4.68771 0
M  V30 2261 H 204.113 -2.41897 4.20255 0
M  V30 2262 N 205.456 -1.28612 -0.910864 0
M  V30 2263 C 206.867 -1.14406 -1.47541 0
M  V30 2264 C 207.218 0.264901 -1.94403 0
M  V30 2265 O 206.343 1.15942 -1.82719 0
M  V30 2266 C 206.938 -2.07073 -2.68153 0
M  V30 2267 C 205.497 -1.96923 -3.20778 0
M  V30 2268 C 204.644 -1.98646 -1.93481 0
M  V30 2269 H 207.595 -1.41259 -0.723291 0
M  V30 2270 H 207.616 -1.63642 -3.43514 0
M  V30 2271 H 207.128 -3.09611 -2.34015 0
M  V30 2272 H 205.229 -0.97433 -3.59635 0
M  V30 2273 H 205.342 -2.84026 -3.85832 0
M  V30 2274 H 203.706 -1.43093 -2.10705 0
M  V30 2275 H 204.489 -3.02868 -1.61634 0
M  V30 2276 N 206.934 1.1197 -1.10907 0
M  V30 2277 C 207.844 2.21433 -0.774896 0
M  V30 2278 C 208.86 1.72478 0.229657 0
M  V30 2279 O 210.036 2.01288 0.0672008 0
M  V30 2280 C 207.101 3.4602 -0.216986 0
M  V30 2281 C 206.162 4.09791 -1.27944 0
M  V30 2282 C 205.395 5.28431 -0.748055 0
M  V30 2283 O 205.618 5.68823 0.423833 0
M  V30 2284 O 204.552 5.82644 -1.51027 0
M  V30 2285 H 208.378 2.5242 -1.68873 0
M  V30 2286 H 205.963 1.20399 -0.884555 0
M  V30 2287 H 207.845 4.21304 0.090059 0
M  V30 2288 H 206.52 3.16698 0.669633 0
M  V30 2289 H 205.427 3.36265 -1.63941 0
M  V30 2290 H 206.76 4.4328 -2.13925 0
M  V30 2291 N 208.412 0.89855 1.29475 0
M  V30 2292 C 209.66 0.522847 1.9522 0
M  V30 2293 C 209.981 -0.93371 1.71192 0
M  V30 2294 O 209.251 -1.65823 1.04305 0
M  V30 2295 H 207.831 0.190366 0.722336 0
M  V30 2296 H 210.493 1.14459 1.5775 0
M  V30 2297 H 209.589 0.704476 3.04045 0
M  V30 2298 N 209.89 -1.43072 0.660911 0
M  V30 2299 C 211.137 -2.01721 0.177445 0
M  V30 2300 C 211.465 -1.5218 -1.21126 0
M  V30 2301 O 210.72 -0.708659 -1.82419 0
M  V30 2302 C 211.019 -3.57103 0.145563 0
M  V30 2303 C 210.685 -4.26021 1.47705 0
M  V30 2304 C 209.347 -4.44563 1.84165 0
M  V30 2305 C 211.699 -4.64983 2.35458 0
M  V30 2306 C 209.027 -4.99334 3.0803 0
M  V30 2307 C 211.379 -5.21127 3.58622 0
M  V30 2308 C 210.043 -5.37884 3.95268 0
M  V30 2309 H 209.313 -0.73815 0.0649317 0
M  V30 2310 H 211.96 -1.71446 0.853144 0
M  V30 2311 H 210.265 -3.86965 -0.61361 0
M  V30 2312 H 211.962 -4.00248 -0.2455 0
M  V30 2313 H 208.552 -4.11939 1.18339 0
M  V30 2314 H 212.736 -4.50343 2.08579 0
M  V30 2315 H 207.992 -5.10493 3.36462 0
M  V30 2316 H 212.166 -5.50262 4.26831 0
M  V30 2317 H 209.793 -5.80089 4.91325 0
M  V30 2318 N 211.368 -0.403325 -1.52352 0
M  V30 2319 C 212.615 0.174347 -2.01748 0
M  V30 2320 C 212.943 1.45636 -1.2892 0
M  V30 2321 O 212.198 1.9193 -0.382258 0
M  V30 2322 C 212.497 0.474665 -3.54234 0
M  V30 2323 C 212.163 -0.717458 -4.45155 0
M  V30 2324 C 210.825 -1.04447 -4.69728 0
M  V30 2325 C 213.177 -1.51432 -4.98716 0
M  V30 2326 C 210.505 -2.16963 -5.45109 0
M  V30 2327 C 212.857 -2.6302 -5.75329 0
M  V30 2328 C 211.521 -2.96213 -5.98175 0
M  V30 2329 H 210.791 0.0637981 -0.738248 0
M  V30 2330 H 213.438 -0.543553 -1.83624 0
M  V30 2331 H 211.743 1.27406 -3.70506 0
M  V30 2332 H 213.44 0.934496 -3.89959 0
M  V30 2333 H 210.03 -0.452596 -4.26204 0
M  V30 2334 H 214.214 -1.27491 -4.79645 0
M  V30 2335 H 209.47 -2.43034 -5.61021 0
M  V30 2336 H 213.644 -3.25158 -6.15829 0
M  V30 2337 H 211.271 -3.83516 -6.56368 0
M  V30 2338 N 212.846 1.57033 -0.133567 0
M  V30 2339 C 214.074 2.00044 0.528195 0
M  V30 2340 C 214.489 1.01349 1.59291 0
M  V30 2341 O 213.846 0.00848369 1.82498 0
M  V30 2342 C 213.897 3.43018 1.1411 0
M  V30 2343 O 213.618 4.37939 0.11892 0
M  V30 2344 C 215.119 4.01237 1.88477 0
M  V30 2345 H 212.339 0.656517 0.138661 0
M  V30 2346 H 214.883 2.03267 -0.224196 0
M  V30 2347 H 213.038 3.40688 1.84418 0
M  V30 2348 H 213.452 5.21436 0.56613 0
M  V30 2349 H 214.926 5.03314 2.26669 0
M  V30 2350 H 215.403 3.41193 2.76558 0
M  V30 2351 H 216.009 4.07156 1.22898 0
M  V30 2352 N 214.325 -0.140222 1.56975 0
M  V30 2353 C 215.258 -1.20266 1.93936 0
M  V30 2354 C 216.236 -1.41212 0.806099 0
M  V30 2355 O 217.42 -1.55713 1.06234 0
M  V30 2356 C 214.547 -2.56037 2.21726 0
M  V30 2357 C 213.593 -2.51646 3.44349 0
M  V30 2358 S 214.426 -1.97678 4.97678 0
M  V30 2359 C 215.582 -3.35165 5.28597 0
M  V30 2360 H 215.815 -0.887358 2.83749 0
M  V30 2361 H 213.348 -0.346119 1.50471 0
M  V30 2362 H 215.306 -3.34167 2.38416 0
M  V30 2363 H 213.967 -2.84755 1.32566 0
M  V30 2364 H 213.16 -3.51608 3.61092 0
M  V30 2365 H 212.762 -1.81628 3.26936 0
M  V30 2366 H 215.054 -4.31302 5.2248 0
M  V30 2367 H 215.997 -3.23269 6.30002 0
M  V30 2368 H 216.405 -3.32614 4.56101 0
M  V30 2369 N 215.803 -1.52179 -0.40978 0
M  V30 2370 C 216.733 -1.78435 -1.5061 0
M  V30 2371 C 217.714 -0.635295 -1.57791 0
M  V30 2372 O 218.899 -0.880823 -1.73076 0
M  V30 2373 C 216.029 -1.93444 -2.88439 0
M  V30 2374 C 214.983 -3.09038 -2.96108 0
M  V30 2375 C 214.309 -3.09268 -4.36185 0
M  V30 2376 C 215.609 -4.48508 -2.67652 0
M  V30 2377 H 217.303 -2.70237 -1.28889 0
M  V30 2378 H 214.849 -1.30036 -0.618605 0
M  V30 2379 H 216.802 -2.10394 -3.65119 0
M  V30 2380 H 215.526 -0.983129 -3.11452 0
M  V30 2381 H 214.185 -2.91837 -2.21872 0
M  V30 2382 H 213.833 -2.11861 -4.56206 0
M  V30 2383 H 213.533 -3.86907 -4.42241 0
M  V30 2384 H 215.057 -3.28348 -5.14801 0
M  V30 2385 H 216.471 -4.65918 -3.34056 0
M  V30 2386 H 214.868 -5.28059 -2.85085 0
M  V30 2387 H 215.938 -4.56649 -1.63095 0
M  V30 2388 N 217.281 0.66697 -1.42791 0
M  V30 2389 C 218.211 1.79218 -1.49677 0
M  V30 2390 C 219.192 1.66405 -0.352623 0
M  V30 2391 O 220.377 1.85708 -0.567993 0
M  V30 2392 C 217.507 3.17565 -1.40605 0
M  V30 2393 C 216.461 3.45124 -2.53127 0
M  V30 2394 C 215.787 4.83127 -2.29112 0
M  V30 2395 C 217.087 3.41236 -3.95418 0
M  V30 2396 H 218.781 1.73713 -2.43853 0
M  V30 2397 H 216.327 0.83432 -1.17367 0
M  V30 2398 H 218.28 3.96022 -1.44029 0
M  V30 2399 H 217.004 3.23767 -0.429271 0
M  V30 2400 H 215.663 2.69031 -2.49034 0
M  V30 2401 H 215.311 4.85988 -1.29709 0
M  V30 2402 H 215.011 5.02528 -3.04531 0
M  V30 2403 H 216.535 5.63859 -2.34297 0
M  V30 2404 H 217.949 4.09651 -4.01073 0
M  V30 2405 H 216.346 3.72173 -4.70752 0
M  V30 2406 H 217.416 2.39665 -4.21532 0
M  V30 2407 N 218.759 1.29093 0.90403 0
M  V30 2408 C 220.005 1.16986 1.65656 0
M  V30 2409 C 220.338 -0.278925 1.92186 0
M  V30 2410 O 219.613 -1.2019 1.5292 0
M  V30 2411 C 219.896 1.97908 3.0084 0
M  V30 2412 C 219.749 3.50903 2.81403 0
M  V30 2413 C 221.068 1.80208 4.01513 0
M  V30 2414 H 218.187 0.426346 0.601164 0
M  V30 2415 H 220.829 1.58518 1.04747 0
M  V30 2416 H 218.979 1.62616 3.52829 0
M  V30 2417 H 220.651 3.96153 2.36348 0
M  V30 2418 H 218.894 3.76045 2.1627 0
M  V30 2419 H 219.565 4.02791 3.77443 0
M  V30 2420 H 222.041 2.11025 3.58619 0
M  V30 2421 H 220.917 2.39184 4.94047 0
M  V30 2422 H 221.178 0.756119 4.35586 0
M  V30 2423 N 220.237 -1.11381 1.11499 0
M  V30 2424 C 221.485 -1.8277 0.862524 0
M  V30 2425 C 221.806 -1.85097 -0.613534 0
M  V30 2426 O 221.076 -1.32198 -1.4457 0
M  V30 2427 H 219.656 -0.676823 0.316101 0
M  V30 2428 H 222.318 -1.34816 1.4075 0
M  V30 2429 H 221.414 -2.86614 1.23527 0
M  V30 2430 N 221.715 -0.905404 -1.28997 0
M  V30 2431 C 222.964 -0.530191 -1.94607 0
M  V30 2432 C 223.277 0.929185 -1.72121 0
M  V30 2433 O 224.483 1.41218 -2.31883 0
M  V30 2434 C 222.939 -0.897333 -3.48534 0
M  V30 2435 C 222.547 -2.37587 -3.79811 0
M  V30 2436 C 224.291 -0.592304 -4.20347 0
M  V30 2437 C 222.198 -2.68357 -5.27009 0
M  V30 2438 H 221.128 -0.194558 -0.728466 0
M  V30 2439 H 223.779 -1.10318 -1.46636 0
M  V30 2440 H 222.161 -0.253214 -3.9519 0
M  V30 2441 H 223.335 -3.06602 -3.43994 0
M  V30 2442 H 221.65 -2.6505 -3.2115 0
M  V30 2443 H 224.247 -0.798975 -5.28697 0
M  V30 2444 H 224.59 0.469474 -4.13644 0
M  V30 2445 H 225.123 -1.19452 -3.79442 0
M  V30 2446 H 221.862 -3.73355 -5.38782 0
M  V30 2447 H 221.382 -2.03971 -5.64053 0
M  V30 2448 H 223.061 -2.54922 -5.94663 0
M  V30 2449 N 223.193 1.4272 -0.668489 0
M  V30 2450 C 224.156 2.292 0.00448567 0
M  V30 2451 C 225.156 1.43001 0.735339 0
M  V30 2452 O 226.346 1.64461 0.57429 0
M  V30 2453 C 223.478 3.25375 1.01705 0
M  V30 2454 H 224.671 2.90199 -0.756608 0
M  V30 2455 H 222.224 1.50254 -0.430506 0
M  V30 2456 H 222.959 2.69301 1.80686 0
M  V30 2457 H 222.744 3.88944 0.496463 0
M  V30 2458 H 224.234 3.90245 1.48655 0
M  V30 2459 N 224.671 0.411399 1.52136 0
M  V30 2460 C 225.601 -0.404015 2.29978 0
M  V30 2461 C 226.582 -1.04412 1.34284 0
M  V30 2462 O 227.767 -1.0527 1.63192 0
M  V30 2463 C 224.897 -1.5197 3.12286 0
M  V30 2464 C 223.851 -1.00448 4.16046 0
M  V30 2465 C 223.177 -2.21393 4.86712 0
M  V30 2466 C 224.477 -0.0569336 5.22269 0
M  V30 2467 H 226.171 0.245529 2.98392 0
M  V30 2468 H 223.717 0.119525 1.43503 0
M  V30 2469 H 225.67 -2.09715 3.6551 0
M  V30 2470 H 224.394 -2.19716 2.41646 0
M  V30 2471 H 223.053 -0.449421 3.63835 0
M  V30 2472 H 222.701 -2.87699 4.12599 0
M  V30 2473 H 222.401 -1.87571 5.56858 0
M  V30 2474 H 223.925 -2.7974 5.4275 0
M  V30 2475 H 225.339 -0.54325 5.7072 0
M  V30 2476 H 223.736 0.192594 5.99791 0
M  V30 2477 H 224.806 0.887663 4.76706 0
M  V30 2478 N 226.149 -1.5696 0.141893 0
M  V30 2479 C 227.397 -1.95573 -0.509484 0
M  V30 2480 C 227.718 -1.02746 -1.65736 0
M  V30 2481 O 226.988 -0.0880311 -1.95702 0
M  V30 2482 H 225.568 -0.722115 -0.191205 0
M  V30 2483 H 228.23 -1.93697 0.216196 0
M  V30 2484 H 227.326 -2.99171 -0.889 0
M  V30 2485 N 227.627 0.131896 -1.57047 0
M  V30 2486 C 228.874 0.841932 -1.84168 0
M  V30 2487 C 229.202 1.8048 -0.725066 0
M  V30 2488 O 228.457 1.93618 0.284692 0
M  V30 2489 C 228.756 1.63703 -3.17704 0
M  V30 2490 C 228.422 0.81961 -4.43388 0
M  V30 2491 C 227.084 0.594148 -4.77518 0
M  V30 2492 C 229.436 0.248977 -5.20605 0
M  V30 2493 C 226.764 -0.212409 -5.86315 0
M  V30 2494 C 229.116 -0.544701 -6.30251 0
M  V30 2495 C 227.78 -0.780599 -6.6292 0
M  V30 2496 H 227.05 0.308085 -0.673917 0
M  V30 2497 H 229.697 0.104867 -1.91213 0
M  V30 2498 H 228.002 2.44464 -3.06177 0
M  V30 2499 H 229.699 2.19015 -3.35907 0
M  V30 2500 H 226.289 1.00542 -4.16641 0
M  V30 2501 H 230.473 0.410408 -4.946 0
M  V30 2502 H 225.729 -0.404524 -6.1006 0
M  V30 2503 H 229.903 -0.993922 -6.89271 0
M  V30 2504 H 227.53 -1.40742 -7.47058 0
M  V30 2505 N 229.106 1.52395 0.401703 0
M  V30 2506 C 230.355 1.66044 1.14509 0
M  V30 2507 C 230.668 0.400216 1.91462 0
M  V30 2508 O 231.874 0.416632 2.68284 0
M  V30 2509 C 230.33 2.93388 2.0845 0
M  V30 2510 C 229.938 4.26545 1.36978 0
M  V30 2511 C 231.682 3.16402 2.83001 0
M  V30 2512 C 229.589 5.45007 2.29611 0
M  V30 2513 H 228.519 0.618562 0.431158 0
M  V30 2514 H 231.17 1.78886 0.40892 0
M  V30 2515 H 229.552 2.74263 2.8565 0
M  V30 2516 H 230.726 4.56179 0.650916 0
M  V30 2517 H 229.041 4.09692 0.74438 0
M  V30 2518 H 231.638 4.02085 3.52465 0
M  V30 2519 H 231.981 2.30943 3.46368 0
M  V30 2520 H 232.514 3.36034 2.12898 0
M  V30 2521 H 229.253 6.32835 1.70879 0
M  V30 2522 H 228.773 5.19702 2.9945 0
M  V30 2523 H 230.452 5.7838 2.89974 0
M  V30 2524 N 230.584 -0.659388 1.43143 0
M  V30 2525 C 231.809 -1.45221 1.48073 0
M  V30 2526 C 232.234 -1.87845 0.097995 0
M  V30 2527 O 231.592 -1.56985 -0.90694 0
M  V30 2528 C 231.64 -2.66748 2.42647 0
M  V30 2529 O 230.744 -3.65583 1.90848 0
M  V30 2530 H 230.085 -0.435669 0.501088 0
M  V30 2531 H 232.615 -0.807432 1.87994 0
M  V30 2532 H 232.625 -3.14637 2.59745 0
M  V30 2533 H 231.3 -2.35067 3.43098 0
M  V30 2534 H 229.877 -3.24693 1.83381 0
M  V30 2535 N 232.062 -1.29571 -0.897171 0
M  V30 2536 C 233.473 -1.15964 -1.46319 0
M  V30 2537 C 233.824 0.244267 -1.94674 0
M  V30 2538 O 232.949 1.13998 -1.83939 0
M  V30 2539 C 233.544 -2.09906 -2.65942 0
M  V30 2540 C 232.103 -2.00314 -3.18671 0
M  V30 2541 C 231.25 -2.00687 -1.91363 0
M  V30 2542 H 234.201 -1.42019 -0.708268 0
M  V30 2543 H 234.222 -1.67276 -3.41759 0
M  V30 2544 H 233.734 -3.12075 -2.30718 0
M  V30 2545 H 231.835 -1.01242 -3.58582 0
M  V30 2546 H 231.948 -2.88102 -3.82798 0
M  V30 2547 H 230.312 -1.45319 -2.09175 0
M  V30 2548 H 231.095 -3.04566 -1.58413 0
M  V30 2549 N 233.54 1.10788 -1.12088 0
M  V30 2550 C 234.47 2.19083 -0.807755 0
M  V30 2551 C 235.451 1.6858 0.226859 0
M  V30 2552 O 236.636 1.93997 0.0888475 0
M  V30 2553 C 233.766 3.46344 -0.257576 0
M  V30 2554 C 232.72 4.101 -1.22483 0
M  V30 2555 C 232.046 5.32016 -0.535052 0
M  V30 2556 C 233.346 4.54236 -2.57811 0
M  V30 2557 H 235.04 2.45534 -1.71328 0
M  V30 2558 H 232.586 1.1801 -0.825205 0
M  V30 2559 H 234.539 4.21392 -0.0262679 0
M  V30 2560 H 233.263 3.19373 0.683278 0
M  V30 2561 H 231.922 3.37054 -1.44189 0
M  V30 2562 H 231.57 5.01319 0.410827 0
M  V30 2563 H 231.27 5.75625 -1.18024 0
M  V30 2564 H 232.794 6.09799 -0.312695 0
M  V30 2565 H 234.208 5.20575 -2.40155 0
M  V30 2566 H 232.605 5.08682 -3.18375 0
M  V30 2567 H 233.675 3.6734 -3.16528 0
M  V30 2568 N 235.018 0.912232 1.28515 0
M  V30 2569 C 236.265 0.544599 1.95039 0
M  V30 2570 C 236.593 -0.911435 1.71823 0
M  V30 2571 O 235.848 -1.66317 1.03137 0
M  V30 2572 C 236.147 0.798392 3.48368 0
M  V30 2573 C 235.813 2.23374 3.91682 0
M  V30 2574 C 234.475 2.62617 4.03219 0
M  V30 2575 C 236.827 3.16786 4.13879 0
M  V30 2576 C 234.155 3.94429 4.3433 0
M  V30 2577 C 236.507 4.48161 4.46469 0
M  V30 2578 C 235.171 4.8726 4.56217 0
M  V30 2579 H 234.441 0.199283 0.7137 0
M  V30 2580 H 237.088 1.15327 1.52879 0
M  V30 2581 H 235.393 0.106908 3.91654 0
M  V30 2582 H 237.09 0.493141 3.97956 0
M  V30 2583 H 233.68 1.91922 3.83228 0
M  V30 2584 H 237.864 2.87677 4.0442 0
M  V30 2585 H 233.12 4.24426 4.40082 0
M  V30 2586 H 237.294 5.20559 4.62592 0
M  V30 2587 H 234.921 5.89431 4.80078 0
M  V30 2588 N 236.496 -1.42363 0.676048 0
M  V30 2589 C 237.744 -2.01123 0.198437 0
M  V30 2590 C 238.065 -1.53731 -1.19966 0
M  V30 2591 O 237.335 -0.759518 -1.80577 0
M  V30 2592 H 235.915 -0.743678 0.0703721 0
M  V30 2593 H 238.577 -1.74263 0.872837 0
M  V30 2594 H 237.673 -3.11454 0.200686 0
M  V30 2595 N 237.974 -0.419461 -1.51915 0
M  V30 2596 C 239.22 0.153166 -2.02221 0
M  V30 2597 C 239.553 1.43907 -1.30401 0
M  V30 2598 O 238.828 1.90055 -0.413438 0
M  V30 2599 C 239.111 0.390291 -3.57979 0
M  V30 2600 C 238.964 -0.913014 -4.40436 0
M  V30 2601 C 240.283 1.16794 -4.2432 0
M  V30 2602 H 237.402 0.0541924 -0.735005 0
M  V30 2603 H 240.044 -0.554955 -1.81715 0
M  V30 2604 H 238.194 0.993491 -3.75582 0
M  V30 2605 H 239.866 -1.54882 -4.34522 0
M  V30 2606 H 238.109 -1.52168 -4.06236 0
M  V30 2607 H 238.78 -0.701361 -5.47526 0
M  V30 2608 H 241.256 0.657161 -4.10878 0
M  V30 2609 H 240.132 1.3026 -5.3322 0
M  V30 2610 H 240.393 2.19132 -3.83971 0
M  V30 2611 N 239.452 1.56882 -0.150215 0
M  V30 2612 C 240.362 2.20494 0.801222 0
M  V30 2613 C 241.378 1.19019 1.26927 0
M  V30 2614 O 242.554 1.51607 1.32579 0
M  V30 2615 C 239.619 2.81659 2.02161 0
M  V30 2616 C 238.68 3.9827 1.60249 0
M  V30 2617 C 237.913 4.56508 2.7647 0
M  V30 2618 O 238.136 4.13627 3.92771 0
M  V30 2619 O 237.07 5.46719 2.51757 0
M  V30 2620 H 240.896 3.02315 0.289717 0
M  V30 2621 H 238.481 1.49202 0.0769684 0
M  V30 2622 H 240.363 3.20522 2.73576 0
M  V30 2623 H 239.038 2.02849 2.52258 0
M  V30 2624 H 237.945 3.64117 0.858477 0
M  V30 2625 H 239.278 4.78609 1.14864 0
M  V30 2626 N 240.93 -0.123565 1.57115 0
M  V30 2627 C 241.863 -1.18202 1.95201 0
M  V30 2628 C 242.841 -1.40349 0.821031 0
M  V30 2629 O 244.025 -1.54578 1.07879 0
M  V30 2630 C 241.152 -2.53671 2.24429 0
M  V30 2631 C 240.198 -2.4798 3.46999 0
M  V30 2632 S 241.031 -1.92389 4.99747 0
M  V30 2633 C 242.187 -3.2954 5.32123 0
M  V30 2634 H 242.42 -0.857212 2.84674 0
M  V30 2635 H 239.953 -0.33014 1.50829 0
M  V30 2636 H 241.911 -3.3162 2.41947 0
M  V30 2637 H 240.572 -2.83332 1.35579 0
M  V30 2638 H 239.765 -3.47758 3.64801 0
M  V30 2639 H 239.367 -1.7815 3.28844 0
M  V30 2640 H 241.659 -4.25736 5.27025 0
M  V30 2641 H 242.602 -3.16569 6.33395 0
M  V30 2642 H 243.01 -3.27758 4.59603 0
M  V30 2643 N 242.408 -1.52605 -0.393616 0
M  V30 2644 C 243.656 -1.67093 -1.13685 0
M  V30 2645 C 243.977 -0.411011 -1.90619 0
M  V30 2646 O 243.247 0.574491 -1.87287 0
M  V30 2647 H 241.827 -0.615923 -0.422668 0
M  V30 2648 H 244.489 -1.89704 -0.447039 0
M  V30 2649 H 243.585 -2.51922 -1.84232 0
M  V30 2650 N 243.887 0.651787 -1.4349 0
M  V30 2651 C 244.835 1.78586 -1.49029 0
M  V30 2652 C 245.829 1.65448 -0.363767 0
M  V30 2653 O 247.035 1.71777 -0.537821 0
M  V30 2654 H 243.41 0.589236 -0.467231 0
M  V30 2655 H 245.381 1.71035 -2.44519 0
M  V30 2656 C 244.13 3.16851 -1.43181 0
M  V30 2657 H 243.453 3.27598 -2.29171 0
M  V30 2658 H 244.893 3.96156 -1.51118 0
M  V30 2659 C 243.352 3.36568 -0.149616 0
M  V30 2660 O 243.882 3.93885 0.788509 0
M  V30 2661 N 242.088 2.90539 -0.0593484 0
M  V30 2662 H 241.635 2.4408 -0.823575 0
M  V30 2663 H 241.593 3.04108 0.797853 0
M  V30 2664 N 245.365 1.30045 0.890287 0
M  V30 2665 C 246.328 1.15963 1.977 0
M  V30 2666 C 247.328 0.0923777 1.60534 0
M  V30 2667 O 248.518 0.340071 1.70848 0
M  V30 2668 C 245.65 0.775451 3.31963 0
M  V30 2669 H 246.843 2.12502 2.11619 0
M  V30 2670 H 244.396 1.13366 1.07601 0
M  V30 2671 H 245.131 -0.189671 3.23745 0
M  V30 2672 H 244.916 1.54668 3.60306 0
M  V30 2673 H 246.406 0.700251 4.11687 0
M  V30 2674 N 246.843 -1.10192 1.12674 0
M  V30 2675 C 247.806 -2.14786 0.799979 0
M  V30 2676 C 248.806 -1.59711 -0.18685 0
M  V30 2677 O 249.996 -1.74156 0.0392558 0
M  V30 2678 C 247.128 -3.40374 0.189228 0
M  V30 2679 H 248.321 -2.45203 1.72671 0
M  V30 2680 H 245.874 -1.25597 0.930326 0
M  V30 2681 H 246.609 -3.15577 -0.747107 0
M  V30 2682 H 246.394 -3.81637 0.899766 0
M  V30 2683 H 247.884 -4.17594 -0.0228143 0
M  V30 2684 N 248.321 -0.919034 -1.28029 0
M  V30 2685 C 249.271 -0.382574 -2.24767 0
M  V30 2686 C 250.255 0.508286 -1.52661 0
M  V30 2687 O 251.447 0.347145 -1.73562 0
M  V30 2688 C 248.576 0.371432 -3.41285 0
M  V30 2689 C 247.662 -0.535449 -4.20706 0
M  V30 2690 N 248.053 -1.65141 -4.78082 0
M  V30 2691 C 246.351 -0.336824 -4.44726 0
M  V30 2692 C 247.052 -2.21475 -5.37888 0
M  V30 2693 N 246.028 -1.50537 -5.22341 0
M  V30 2694 H 249.83 -1.23477 -2.66703 0
M  V30 2695 H 247.344 -0.772299 -1.42861 0
M  V30 2696 H 249.341 0.772638 -4.09678 0
M  V30 2697 H 248.001 1.22066 -3.00882 0
M  V30 2698 H 249.012 -2.03392 -4.7629 0
M  V30 2699 H 245.689 0.47246 -4.14818 0
M  V30 2700 H 247.079 -3.15379 -5.93284 0
M  V30 2701 N 249.799 1.42003 -0.683588 0
M  V30 2702 C 251.048 2.00638 -0.206681 0
M  V30 2703 C 251.361 1.5472 1.19671 0
M  V30 2704 O 252.567 2.05833 1.77045 0
M  V30 2705 C 251.023 3.58487 -0.318632 0
M  V30 2706 C 250.631 4.1339 -1.72663 0
M  V30 2707 C 252.375 4.24384 0.0991141 0
M  V30 2708 C 250.282 5.63633 -1.79087 0
M  V30 2709 H 249.212 0.750408 -0.0735107 0
M  V30 2710 H 251.863 1.62624 -0.850048 0
M  V30 2711 H 250.245 3.94047 0.392781 0
M  V30 2712 H 251.419 3.89273 -2.46583 0
M  V30 2713 H 249.734 3.59976 -2.09299 0
M  V30 2714 H 252.331 5.34652 0.0713833 0
M  V30 2715 H 252.674 4.00505 1.13586 0
M  V30 2716 H 253.207 3.93816 -0.561599 0
M  V30 2717 H 249.946 5.92323 -2.80774 0
M  V30 2718 H 249.466 5.89714 -1.09535 0
M  V30 2719 H 251.145 6.28201 -1.5483 0
M  V30 2720 N 251.277 0.427512 1.51691 0
M  V30 2721 C 252.502 -0.143601 2.06902 0
M  V30 2722 C 252.927 -1.36536 1.29382 0
M  V30 2723 O 252.285 -1.78289 0.329043 0
M  V30 2724 C 252.333 -0.454207 3.57728 0
M  V30 2725 O 251.437 -1.54228 3.82475 0
M  V30 2726 H 250.778 -0.00617128 0.663971 0
M  V30 2727 H 253.308 0.606014 1.95419 0
M  V30 2728 H 253.318 -0.707525 4.01818 0
M  V30 2729 H 251.993 0.438812 4.13579 0
M  V30 2730 H 250.57 -1.2797 3.50254 0
M  V30 2731 N 252.755 -1.56801 0.158532 0
M  V30 2732 C 254.003 -1.96102 -0.488712 0
M  V30 2733 C 254.324 -1.04498 -1.64636 0
M  V30 2734 O 253.594 -0.108783 -1.95598 0
M  V30 2735 H 252.174 -0.724102 -0.183535 0
M  V30 2736 H 254.836 -1.93457 0.236728 0
M  V30 2737 H 253.932 -3.00097 -0.857219 0
M  V30 2738 N 254.233 0.115231 -1.57178 0
M  V30 2739 C 255.163 1.1423 -2.03651 0
M  V30 2740 C 256.144 1.42967 -0.921655 0
M  V30 2741 O 257.329 1.53343 -1.19162 0
M  V30 2742 C 254.459 2.4675 -2.44401 0
M  V30 2743 C 253.413 2.32467 -3.59365 0
M  V30 2744 C 252.739 3.69984 -3.86026 0
M  V30 2745 C 254.039 1.78203 -4.90959 0
M  V30 2746 H 255.733 0.755749 -2.89705 0
M  V30 2747 H 253.279 0.362093 -1.39373 0
M  V30 2748 H 255.232 3.18854 -2.75517 0
M  V30 2749 H 253.956 2.87302 -1.55322 0
M  V30 2750 H 252.615 1.62811 -3.28463 0
M  V30 2751 H 252.263 4.08028 -2.94147 0
M  V30 2752 H 251.963 3.61279 -4.63412 0
M  V30 2753 H 253.487 4.43587 -4.19599 0
M  V30 2754 H 254.901 2.40128 -5.20587 0
M  V30 2755 H 253.298 1.8031 -5.72371 0
M  V30 2756 H 254.368 0.739876 -4.79222 0
M  V30 2757 N 255.711 1.52812 0.385517 0
M  V30 2758 C 256.96 1.67249 1.12741 0
M  V30 2759 C 257.273 0.4205 1.91027 0
M  V30 2760 O 258.479 0.445064 2.67827 0
M  V30 2761 C 256.935 2.95583 2.05326 0
M  V30 2762 C 256.543 4.27974 1.32447 0
M  V30 2763 C 258.287 3.19386 2.7963 0
M  V30 2764 C 256.194 5.47412 2.23818 0
M  V30 2765 H 255.124 0.6231 0.424573 0
M  V30 2766 H 257.775 1.79309 0.389924 0
M  V30 2767 H 256.157 2.77277 2.82725 0
M  V30 2768 H 257.331 4.56844 0.602495 0
M  V30 2769 H 255.646 4.10459 0.700885 0
M  V30 2770 H 258.243 4.05801 3.48181 0
M  V30 2771 H 258.586 2.34604 3.43899 0
M  V30 2772 H 259.119 3.38274 2.09322 0
M  V30 2773 H 255.858 6.34612 1.64157 0
M  V30 2774 H 255.378 5.22849 2.93921 0
M  V30 2775 H 257.057 5.81423 2.83824 0
M  V30 2776 N 257.189 -0.644168 1.43834 0
M  V30 2777 C 258.435 -1.40603 1.46146 0
M  V30 2778 C 258.768 -1.93997 0.0887717 0
M  V30 2779 O 258.043 -1.72854 -0.891724 0
M  V30 2780 C 258.326 -2.58086 2.51124 0
M  V30 2781 C 258.179 -2.10126 3.97702 0
M  V30 2782 C 259.498 -3.60291 2.52742 0
M  V30 2783 H 256.617 -0.509905 0.532134 0
M  V30 2784 H 259.259 -0.729502 1.75437 0
M  V30 2785 H 257.409 -3.15801 2.26278 0
M  V30 2786 H 259.081 -1.57342 4.33637 0
M  V30 2787 H 257.324 -1.41419 4.10101 0
M  V30 2788 H 257.995 -2.94649 4.66783 0
M  V30 2789 H 260.471 -3.12352 2.7491 0
M  V30 2790 H 259.347 -4.40032 3.28121 0
M  V30 2791 H 259.608 -4.1349 1.56455 0
M  V30 2792 N 258.668 -1.30515 -0.883378 0
M  V30 2793 C 259.916 -1.19194 -1.63209 0
M  V30 2794 C 260.237 0.253205 -1.93349 0
M  V30 2795 O 259.507 1.17025 -1.57105 0
M  V30 2796 H 258.087 -0.438148 -0.605009 0
M  V30 2797 H 260.749 -1.63663 -1.05832 0
M  V30 2798 H 259.845 -1.75396 -2.58153 0
M  V30 2799 N 260.146 1.09593 -1.13257 0
M  V30 2800 C 261.076 2.18214 -0.830946 0
M  V30 2801 C 262.057 1.68812 0.208966 0
M  V30 2802 O 263.242 1.9408 0.0682666 0
M  V30 2803 C 260.372 3.46051 -0.294296 0
M  V30 2804 C 259.326 4.08778 -1.26826 0
M  V30 2805 C 258.652 5.31419 -0.591449 0
M  V30 2806 C 259.952 4.51476 -2.62615 0
M  V30 2807 H 261.646 2.43703 -1.73923 0
M  V30 2808 H 259.192 1.17128 -0.837675 0
M  V30 2809 H 261.145 4.2134 -0.0709606 0
M  V30 2810 H 259.869 3.20079 0.649366 0
M  V30 2811 H 258.528 3.35505 -1.47756 0
M  V30 2812 H 258.176 5.01727 0.357633 0
M  V30 2813 H 257.876 5.74341 -1.24123 0
M  V30 2814 H 259.4 6.09433 -0.377355 0
M  V30 2815 H 260.814 5.17999 -2.45663 0
M  V30 2816 H 259.211 5.05277 -3.23752 0
M  V30 2817 H 260.281 3.63962 -3.20406 0
M  V30 2818 N 261.624 0.925811 1.2754 0
M  V30 2819 C 262.873 0.561084 1.93739 0
M  V30 2820 C 263.186 -0.901685 1.73577 0
M  V30 2821 O 264.392 -1.37511 2.34101 0
M  V30 2822 C 262.848 0.952668 3.47062 0
M  V30 2823 C 262.456 2.43599 3.75983 0
M  V30 2824 C 264.2 0.659103 4.19352 0
M  V30 2825 C 262.107 2.76707 5.22673 0
M  V30 2826 H 261.037 0.206122 0.725279 0
M  V30 2827 H 263.688 1.12637 1.44863 0
M  V30 2828 H 262.07 0.316053 3.94737 0
M  V30 2829 H 263.244 3.12035 3.39073 0
M  V30 2830 H 261.559 2.70125 3.16893 0
M  V30 2831 H 264.156 0.882985 5.27359 0
M  V30 2832 H 264.499 -0.403607 4.14339 0
M  V30 2833 H 265.032 1.25473 3.77494 0
M  V30 2834 H 261.771 3.8188 5.32774 0
M  V30 2835 H 261.291 2.12919 5.60737 0
M  V30 2836 H 262.97 2.6435 5.90532 0
M  V30 2837 N 263.102 -1.41638 0.69111 0
M  V30 2838 C 264.348 -2.02104 0.229258 0
M  V30 2839 C 264.703 -1.53741 -1.15678 0
M  V30 2840 O 263.996 -0.736849 -1.76865 0
M  V30 2841 C 264.19 -3.56714 0.221277 0
M  V30 2842 C 264.019 -4.20083 1.605 0
M  V30 2843 C 262.789 -4.54566 2.20676 0
M  V30 2844 C 264.987 -4.46587 2.55078 0
M  V30 2845 N 262.969 -5.03199 3.5166 0
M  V30 2846 C 264.34 -4.96946 3.70735 0
M  V30 2847 C 266.395 -4.28593 2.53401 0
M  V30 2848 C 265.098 -5.31203 4.8499 0
M  V30 2849 C 267.124 -4.63936 3.66765 0
M  V30 2850 C 266.486 -5.14463 4.81152 0
M  V30 2851 H 262.585 -0.771256 0.12918 0
M  V30 2852 H 265.169 -1.72251 0.907626 0
M  V30 2853 H 263.34 -3.86051 -0.426562 0
M  V30 2854 H 265.072 -4.03896 -0.254983 0
M  V30 2855 H 261.827 -4.4087 1.73005 0
M  V30 2856 H 262.251 -5.31926 4.18789 0
M  V30 2857 H 266.893 -3.88771 1.66184 0
M  V30 2858 H 264.611 -5.69951 5.72871 0
M  V30 2859 H 268.197 -4.51677 3.66714 0
M  V30 2860 H 267.077 -5.41299 5.67419 0
M  V30 2861 N 264.58 -0.43555 -1.51462 0
M  V30 2862 C 265.828 0.131254 -2.01673 0
M  V30 2863 C 266.149 1.43368 -1.32177 0
M  V30 2864 O 265.419 1.90524 -0.455769 0
M  V30 2865 H 263.999 0.0514954 -0.745223 0
M  V30 2866 H 266.661 -0.577847 -1.86137 0
M  V30 2867 H 265.757 0.308446 -3.10572 0
M  V30 2868 N 266.058 1.56714 -0.166846 0
M  V30 2869 C 267.305 1.96747 0.479252 0
M  V30 2870 C 267.633 1.05263 1.63554 0
M  V30 2871 O 266.888 0.0858098 1.95512 0
M  V30 2872 C 267.187 3.42889 1.00806 0
M  V30 2873 C 266.853 4.50889 -0.0318574 0
M  V30 2874 C 265.515 4.8015 -0.317675 0
M  V30 2875 C 267.867 5.15949 -0.737956 0
M  V30 2876 C 265.195 5.71772 -1.31506 0
M  V30 2877 C 267.547 6.08647 -1.72429 0
M  V30 2878 C 266.211 6.36277 -2.0176 0
M  V30 2879 H 265.481 0.719949 0.175371 0
M  V30 2880 H 268.128 1.89756 -0.257864 0
M  V30 2881 H 266.433 3.4681 1.82291 0
M  V30 2882 H 268.13 3.71203 1.51689 0
M  V30 2883 H 264.72 4.28128 0.201088 0
M  V30 2884 H 268.904 4.93458 -0.530351 0
M  V30 2885 H 264.16 5.91465 -1.54853 0
M  V30 2886 H 268.334 6.58129 -2.27682 0
M  V30 2887 H 265.961 7.07075 -2.79194 0
M  V30 2888 N 267.536 -0.106894 1.57237 0
M  V30 2889 C 268.785 -0.811163 1.8467 0
M  V30 2890 C 269.098 -1.80469 0.754342 0
M  V30 2891 O 270.304 -2.55601 0.915439 0
M  V30 2892 C 268.76 -1.49337 3.27454 0
M  V30 2893 C 268.368 -0.540217 4.44731 0
M  V30 2894 C 270.112 -2.18206 3.64124 0
M  V30 2895 C 268.019 -1.22634 5.78545 0
M  V30 2896 H 266.949 -0.306679 0.688813 0
M  V30 2897 H 269.6 -0.0639887 1.83388 0
M  V30 2898 H 267.982 -2.2876 3.23241 0
M  V30 2899 H 269.156 0.221659 4.60267 0
M  V30 2900 H 267.471 0.042146 4.16379 0
M  V30 2901 H 270.068 -2.70253 4.61376 0
M  V30 2902 H 270.411 -2.96562 2.92158 0
M  V30 2903 H 270.944 -1.45658 3.70174 0
M  V30 2904 H 267.683 -0.483832 6.53712 0
M  V30 2905 H 267.203 -1.95993 5.66874 0
M  V30 2906 H 268.882 -1.75615 6.2271 0
M  V30 2907 N 269.014 -1.53014 -0.377408 0
M  V30 2908 C 270.291 -1.59215 -1.13622 0
M  V30 2909 C 270.671 -0.392407 -2.07421 0
M  V30 2910 O 270.019 0.618342 -2.19975 0
M  V30 2911 C 270.229 -2.93669 -1.88573 0
M  V30 2912 C 271.577 -3.47822 -2.43526 0
M  V30 2913 O 272.601 -2.9562 -1.98715 0
M  V30 2914 O 271.46 -4.39055 -3.25412 0
M  V30 2915 H 268.554 -0.642625 -0.52054 0
M  V30 2916 H 271.1 -1.65353 -0.381625 0
M  V30 2917 H 269.872 -3.7243 -1.20048 0
M  V30 2918 H 269.495 -2.90968 -2.70968 0
M  V30 2919 N 270.492 0.636531 -1.44174 0
M  V30 2920 C 271.717 1.42847 -1.50364 0
M  V30 2921 C 272.142 1.87665 -0.127867 0
M  V30 2922 O 271.5 1.58408 0.88185 0
M  V30 2923 C 271.548 2.62854 -2.4686 0
M  V30 2924 O 270.652 3.62501 -1.9664 0
M  V30 2925 H 269.993 0.427642 -0.507955 0
M  V30 2926 H 272.523 0.777422 -1.89255 0
M  V30 2927 H 272.533 3.10465 -2.64718 0
M  V30 2928 H 271.208 2.29578 -3.46795 0
M  V30 2929 H 269.785 3.21735 -1.88523 0
M  V30 2930 N 271.97 1.30982 0.876444 0
M  V30 2931 C 272.917 1.18085 1.98304 0
M  V30 2932 C 273.887 0.0682263 1.6596 0
M  V30 2933 O 275.072 0.239937 1.89285 0
M  V30 2934 C 272.212 0.887475 3.33493 0
M  V30 2935 C 271.325 2.08281 3.78475 0
M  V30 2936 C 270.46 1.72678 5.0235 0
M  V30 2937 C 269.499 2.88657 5.39762 0
M  V30 2938 N 268.636 2.53292 6.54819 0
M  V30 2939 H 273.476 2.1275 2.08666 0
M  V30 2940 H 271.013 1.05839 1.02159 0
M  V30 2941 H 272.971 0.697961 4.1132 0
M  V30 2942 H 271.601 -0.022315 3.22792 0
M  V30 2943 H 270.653 2.3833 2.96484 0
M  V30 2944 H 271.965 2.95108 4.02135 0
M  V30 2945 H 271.119 1.50151 5.87826 0
M  V30 2946 H 269.858 0.830327 4.8058 0
M  V30 2947 H 268.863 3.1184 4.52809 0
M  V30 2948 H 270.088 3.79002 5.63502 0
M  V30 2949 H 268.034 1.66163 6.34607 0
M  V30 2950 H 267.951 3.3365 6.7839 0
M  V30 2951 H 269.219 2.34143 7.43503 0
M  V30 2952 N 273.449 -1.08991 1.13837 0
M  V30 2953 C 274.379 -2.17771 0.842507 0
M  V30 2954 C 275.36 -1.6892 -0.20001 0
M  V30 2955 O 276.545 -1.94113 -0.0579731 0
M  V30 2956 C 273.675 -3.4589 0.312644 0
M  V30 2957 C 272.629 -4.08099 1.28992 0
M  V30 2958 C 271.955 -5.31098 0.619623 0
M  V30 2959 C 273.255 -4.50077 2.65005 0
M  V30 2960 H 274.949 -2.42777 1.75213 0
M  V30 2961 H 272.495 -1.16682 0.843875 0
M  V30 2962 H 274.448 -4.21297 0.0933043 0
M  V30 2963 H 273.172 -3.20419 -0.632382 0
M  V30 2964 H 271.831 -3.34717 1.49533 0
M  V30 2965 H 271.479 -5.0191 -0.33102 0
M  V30 2966 H 271.179 -5.73674 1.27167 0
M  V30 2967 H 272.703 -6.09224 0.409669 0
M  V30 2968 H 274.117 -5.16688 2.48407 0
M  V30 2969 H 272.514 -5.03553 3.26427 0
M  V30 2970 H 273.584 -3.62257 3.22332 0
M  V30 2971 N 274.927 -0.932562 -1.27047 0
M  V30 2972 C 276.343 -0.633544 -1.46487 0
M  V30 2973 C 276.543 0.815746 -1.84249 0
M  V30 2974 O 275.599 1.59319 -1.95892 0
M  V30 2975 C 276.912 -1.58758 -2.55375 0
M  V30 2976 C 278.46 -1.59634 -2.69232 0
M  V30 2977 C 278.935 -2.53747 -3.81283 0
M  V30 2978 N 280.426 -2.51982 -3.88664 0
M  V30 2979 C 281.161 -3.21491 -4.74796 0
M  V30 2980 N 280.657 -4.00395 -5.65381 0
M  V30 2981 N 282.45 -3.10485 -4.68568 0
M  V30 2982 H 274.601 -1.86946 -1.00821 0
M  V30 2983 H 276.864 -0.802897 -0.504044 0
M  V30 2984 H 276.57 -2.62172 -2.34432 0
M  V30 2985 H 276.444 -1.33301 -3.52861 0
M  V30 2986 H 278.831 -0.569488 -2.89553 0
M  V30 2987 H 278.912 -1.89142 -1.72218 0
M  V30 2988 H 278.556 -3.56545 -3.61715 0
M  V30 2989 H 278.486 -2.21532 -4.77735 0
M  V30 2990 H 280.977 -1.94681 -3.23895 0
M  V30 2991 H 281.29 -4.50406 -6.27976 0
M  V30 2992 H 279.635 -4.04498 -5.65161 0
M  V30 2993 H 282.826 -2.48331 -3.96799 0
M  V30 2994 H 282.999 -3.64925 -5.35475 0
M  V30 2995 N 276.405 1.4127 -0.698611 0
M  V30 2996 C 277.352 2.30773 -0.0352094 0
M  V30 2997 C 278.322 1.47273 0.768111 0
M  V30 2998 O 279.507 1.76053 0.735524 0
M  V30 2999 C 276.647 3.33346 0.893 0
M  V30 3000 C 275.76 4.31924 0.0809695 0
M  V30 3001 C 274.895 5.21566 1.0071 0
M  V30 3002 C 273.934 6.11811 0.188155 0
M  V30 3003 N 273.071 6.93926 1.06825 0
M  V30 3004 H 277.911 2.86943 -0.804207 0
M  V30 3005 H 275.448 1.4132 -0.408294 0
M  V30 3006 H 277.406 3.91368 1.44523 0
M  V30 3007 H 276.036 2.78719 1.62836 0
M  V30 3008 H 275.088 3.75825 -0.588224 0
M  V30 3009 H 276.4 4.95716 -0.553801 0
M  V30 3010 H 275.554 5.84437 1.62845 0
M  V30 3011 H 274.293 4.58008 1.67572 0
M  V30 3012 H 273.298 5.47986 -0.446254 0
M  V30 3013 H 274.523 6.77425 -0.476716 0
M  V30 3014 H 272.469 6.32973 1.72283 0
M  V30 3015 H 272.386 7.54416 0.489123 0
M  V30 3016 H 273.654 7.61262 1.67632 0
M  V30 3017 N 277.883 0.443576 1.51229 0
M  V30 3018 C 278.831 -0.37904 2.29491 0
M  V30 3019 C 279.825 -1.0153 1.35603 0
M  V30 3020 O 281.031 -0.94955 1.52917 0
M  V30 3021 H 277.406 -0.141053 0.738653 0
M  V30 3022 H 279.377 0.301799 2.9687 0
M  V30 3023 C 278.126 -1.46426 3.15364 0
M  V30 3024 H 277.449 -0.984037 3.87501 0
M  V30 3025 H 278.889 -2.01297 3.7317 0
M  V30 3026 C 277.348 -2.45099 2.31146 0
M  V30 3027 O 277.878 -3.49773 1.9754 0
M  V30 3028 N 276.084 -2.16139 1.94249 0
M  V30 3029 H 275.631 -1.31044 2.21777 0
M  V30 3030 H 275.589 -2.82398 1.38198 0
M  V30 3031 N 279.361 -1.56624 0.175154 0
M  V30 3032 C 280.586 -2.01813 -0.478137 0
M  V30 3033 C 281.011 -1.05457 -1.55757 0
M  V30 3034 O 280.369 -0.0347439 -1.81267 0
M  V30 3035 C 280.417 -3.45581 -1.02987 0
M  V30 3036 O 279.521 -3.52305 -2.14371 0
M  V30 3037 H 278.862 -0.65413 -0.114059 0
M  V30 3038 H 281.392 -2.02673 0.280173 0
M  V30 3039 H 281.402 -3.84965 -1.35151 0
M  V30 3040 H 280.077 -4.1521 -0.239556 0
M  V30 3041 H 278.654 -3.24783 -1.83222 0
M  V30 3042 N 280.839 0.0985539 -1.57292 0
M  V30 3043 C 281.769 1.12064 -2.04851 0
M  V30 3044 C 282.75 1.41981 -0.936767 0
M  V30 3045 O 283.935 1.52071 -1.20781 0
M  V30 3046 C 281.065 2.44144 -2.47004 0
M  V30 3047 C 280.019 2.28643 -3.6181 0
M  V30 3048 C 279.345 3.65869 -3.89929 0
M  V30 3049 C 280.645 1.72986 -4.92822 0
M  V30 3050 H 282.339 0.724979 -2.9049 0
M  V30 3051 H 279.885 0.34729 -1.39749 0
M  V30 3052 H 281.838 3.15914 -2.78884 0
M  V30 3053 H 280.562 2.85639 -1.5836 0
M  V30 3054 H 279.221 1.59318 -3.30172 0
M  V30 3055 H 278.869 4.04885 -2.98458 0
M  V30 3056 H 278.569 3.56344 -4.67218 0
M  V30 3057 H 280.093 4.39112 -4.2428 0
M  V30 3058 H 281.507 2.34593 -5.23105 0
M  V30 3059 H 279.904 1.74229 -5.74251 0
M  V30 3060 H 280.974 0.689007 -4.7998 0
M  V30 3061 N 282.317 1.53212 0.369288 0
M  V30 3062 C 283.227 1.82342 1.47609 0
M  V30 3063 C 284.243 0.711532 1.58787 0
M  V30 3064 O 285.419 1.0012 1.74751 0
M  V30 3065 C 282.484 2.00393 2.8292 0
M  V30 3066 C 281.545 3.24297 2.81301 0
M  V30 3067 C 280.778 3.41478 4.10157 0
M  V30 3068 O 281.001 2.63033 5.06132 0
M  V30 3069 O 279.935 4.34817 4.16194 0
M  V30 3070 H 283.761 2.76366 1.25918 0
M  V30 3071 H 281.346 1.38547 0.559034 0
M  V30 3072 H 283.228 2.13859 3.63101 0
M  V30 3073 H 281.903 1.09559 3.04596 0
M  V30 3074 H 280.81 3.16257 1.99831 0
M  V30 3075 H 282.143 4.15041 2.64578 0
M  V30 3076 O 283.834 -0.515259 1.5306 0
M  V30 3077 H 284.525 -1.17028 1.54351 0
M  V30 END ATOM
M  V30 BEGIN BOND
M  V30 END BOND
M  V30 END CTAB
M  END
$$$$
