drugbank_target|P03176 Thymidine kinase (DB00787; DB01004; DB01643; DB02324; DB02495; DB02500; DB02765; DB02921; DB03000; DB03280; DB03804; DB04139; DB04485)
 OpenBabel12092119533D

  0  0  0     0  0            999 V3000
M  V30 BEGIN CTAB
M  V30 COUNTS 5750 5819 0 0 0
M  V30 BEGIN ATOM
M  V30 1 H -0.908 1.98254 -0.117106 0
M  V30 2 N 0 1.576 0 0
M  V30 3 C 0.933 2.03868 1.02534 0
M  V30 4 C 1.911 0.928543 1.3348 0
M  V30 5 O 3.095 1.19667 1.45644 0
M  V30 6 C 0.222 2.43627 2.35294 0
M  V30 7 C -0.732 3.65373 2.2001 0
M  V30 8 S 0.101 5.13292 1.52614 0
M  V30 9 C 1.257 5.56322 2.86805 0
M  V30 10 H 1.49 2.90518 0.631377 0
M  V30 11 H -0.977 1.52953 0.210867 0
M  V30 12 H 0.981 2.67203 3.11629 0
M  V30 13 H -0.358 1.57376 2.7183 0
M  V30 14 H -1.165 3.90944 3.18086 0
M  V30 15 H -1.563 3.418 1.51819 0
M  V30 16 H 0.729 5.58782 3.83104 0
M  V30 17 H 1.672 6.56266 2.65933 0
M  V30 18 H 2.08 4.83886 2.90714 0
M  V30 19 N 1.4781 -0.272755 1.55222 0
M  V30 20 C 2.4411 -1.32041 1.87344 0
M  V30 21 C 3.4411 -1.42342 0.74803 0
M  V30 22 O 4.6311 -1.41488 1.0162 0
M  V30 23 C 1.7631 -2.70173 2.07893 0
M  V30 24 H 2.9561 -1.04789 2.80997 0
M  V30 25 H 0.5091 -0.51083 1.47717 0
M  V30 26 H 1.2441 -3.02605 1.16622 0
M  V30 27 H 1.0291 -2.64082 2.89833 0
M  V30 28 H 2.5191 -3.45869 2.34017 0
M  V30 29 N 2.9562 -1.48159 -0.537278 0
M  V30 30 C 4.1812 -1.59707 -1.32319 0
M  V30 31 C 4.6062 -0.254859 -1.86365 0
M  V30 32 O 3.9642 0.772378 -1.64024 0
M  V30 33 C 4.0122 -2.6412 -2.45505 0
M  V30 34 O 3.1162 -2.20774 -3.48328 0
M  V30 35 H 2.4572 -0.535791 -0.392204 0
M  V30 36 H 4.9872 -1.94092 -0.647268 0
M  V30 37 H 4.9972 -2.85166 -2.91795 0
M  V30 38 H 3.6722 -3.61567 -2.05528 0
M  V30 39 H 2.2492 -2.09911 -3.08207 0
M  V30 40 N 4.4343 0.785586 -1.36625 0
M  V30 41 C 5.6643 1.5722 -1.34036 0
M  V30 42 C 6.0723 1.89033 0.0795062 0
M  V30 43 O 5.4153 1.50881 1.04789 0
M  V30 44 C 5.4773 2.91759 -2.10041 0
M  V30 45 C 5.1413 2.82654 -3.59104 0
M  V30 46 C 6.1383 2.54634 -4.53274 0
M  V30 47 C 3.8233 3.01111 -4.02042 0
M  V30 48 C 5.8173 2.45177 -5.88359 0
M  V30 49 C 3.5043 2.91276 -5.37216 0
M  V30 50 C 4.5023 2.63348 -6.30188 0
M  V30 51 O 4.1903 2.53514 -7.6288 0
M  V30 52 H 3.9223 0.494177 -0.461265 0
M  V30 53 H 6.4763 0.982632 -1.8037 0
M  V30 54 H 4.7063 3.52781 -1.58375 0
M  V30 55 H 6.3953 3.53059 -2.00261 0
M  V30 56 H 7.1613 2.40073 -4.21414 0
M  V30 57 H 3.0403 3.21854 -3.30047 0
M  V30 58 H 6.5843 2.23299 -6.60896 0
M  V30 59 H 2.4813 3.054 -5.68684 0
M  V30 60 H 3.2493 2.68967 -7.73045 0
M  V30 61 N 5.9124 1.20967 1.01018 0
M  V30 62 C 7.3234 1.02319 1.56165 0
M  V30 63 C 7.6744 -0.418546 1.91684 0
M  V30 64 O 6.7994 -1.30096 1.72928 0
M  V30 65 C 7.3944 1.85109 2.8376 0
M  V30 66 C 5.9534 1.70809 3.35412 0
M  V30 67 C 5.1004 1.82643 2.08655 0
M  V30 68 H 8.0514 1.35065 0.833255 0
M  V30 69 H 8.0724 1.35827 3.55431 0
M  V30 70 H 7.5844 2.90035 2.57878 0
M  V30 71 H 5.6854 0.685464 3.66241 0
M  V30 72 H 5.7984 2.52467 4.07182 0
M  V30 73 H 4.1624 1.25896 2.21409 0
M  V30 74 H 4.9454 2.89066 1.85191 0
M  V30 75 N 7.3905 -1.2043 1.01659 0
M  V30 76 C 8.6305 -1.91507 0.714456 0
M  V30 77 C 8.9945 -1.77073 -0.742237 0
M  V30 78 O 10.1955 -2.42631 -1.15688 0
M  V30 79 C 8.4665 -3.38795 1.13809 0
M  V30 80 S 10.0255 -4.28216 0.957925 0
M  V30 81 H 6.8435 -0.661571 0.260471 0
M  V30 82 H 9.4455 -1.45671 1.30384 0
M  V30 83 H 8.1495 -3.46822 2.19415 0
M  V30 84 H 7.6805 -3.89656 0.541474 0
M  V30 85 H 9.6955 -4.96007 -0.138531 0
M  V30 86 N 8.8686 -0.792821 -1.36206 0
M  V30 87 C 9.8186 -0.166598 -2.27391 0
M  V30 88 C 10.8026 0.651479 -1.47121 0
M  V30 89 O 11.9946 0.510994 -1.69463 0
M  V30 90 C 9.1236 0.695033 -3.36191 0
M  V30 91 C 8.2096 -0.132019 -4.23894 0
M  V30 92 N 8.6006 -1.18822 -4.91645 0
M  V30 93 C 6.8986 0.0885952 -4.45912 0
M  V30 94 C 7.5996 -1.69198 -5.56549 0
M  V30 95 N 6.5756 -1.00065 -5.34311 0
M  V30 96 H 10.3776 -0.974947 -2.77258 0
M  V30 97 H 7.8916 -0.632616 -1.49572 0
M  V30 98 H 9.8886 1.1596 -4.00448 0
M  V30 99 H 8.5486 1.50189 -2.87877 0
M  V30 100 H 9.5596 -1.57069 -4.93507 0
M  V30 101 H 6.2366 0.865688 -4.08426 0
M  V30 102 H 7.6266 -2.57395 -6.20643 0
M  V30 103 N 10.3467 1.47872 -0.545128 0
M  V30 104 C 11.2787 2.27869 0.246621 0
M  V30 105 C 12.2917 1.36282 0.890561 0
M  V30 106 O 13.4807 1.61207 0.766449 0
M  V30 107 C 10.5807 3.10159 1.36582 0
M  V30 108 C 9.7537 4.29627 0.820954 0
M  V30 109 C 8.8127 4.93607 1.82314 0
M  V30 110 O 7.8387 5.52366 1.37406 0
M  V30 111 N 9.0407 4.87211 3.15603 0
M  V30 112 H 11.8057 2.96459 -0.439539 0
M  V30 113 H 9.3667 1.57367 -0.380421 0
M  V30 114 H 11.3587 3.49829 2.03474 0
M  V30 115 H 9.9287 2.43891 1.9554 0
M  V30 116 H 9.1487 3.94192 -0.0244032 0
M  V30 117 H 10.4367 5.06928 0.436063 0
M  V30 118 H 9.8347 4.40651 3.54744 0
M  V30 119 H 8.3917 5.30937 3.78087 0
M  V30 120 N 11.8248 0.280983 1.55075 0
M  V30 121 C 12.7748 -0.618585 2.19448 0
M  V30 122 C 13.7588 -1.11401 1.16098 0
M  V30 123 O 14.9508 -1.0581 1.41891 0
M  V30 124 C 12.0798 -1.79951 2.92357 0
M  V30 125 C 11.1658 -1.321 4.03002 0
M  V30 126 N 11.5568 -0.559044 5.02701 0
M  V30 127 C 9.8548 -1.60346 4.16179 0
M  V30 128 C 10.5558 -0.306722 5.80891 0
M  V30 129 N 9.5318 -0.880825 5.36416 0
M  V30 130 H 13.3338 -0.0286638 2.93886 0
M  V30 131 H 10.8478 0.0848104 1.62178 0
M  V30 132 H 12.8448 -2.45531 3.36927 0
M  V30 133 H 11.5048 -2.39333 2.19431 0
M  V30 134 H 12.5158 -0.205827 5.17491 0
M  V30 135 H 9.1928 -2.20621 3.54447 0
M  V30 136 H 10.5828 0.30391 6.71212 0
M  V30 137 N 13.3029 -1.57598 0.00835791 0
M  V30 138 C 14.2659 -2.07884 -0.965242 0
M  V30 139 C 15.2659 -0.989825 -1.26725 0
M  V30 140 O 16.4559 -1.25218 -1.21104 0
M  V30 141 C 13.5879 -2.52731 -2.28779 0
M  V30 142 H 14.7809 -2.95178 -0.530112 0
M  V30 143 H 12.3339 -1.54458 -0.239283 0
M  V30 144 H 13.0689 -1.68705 -2.76964 0
M  V30 145 H 12.8539 -3.32272 -2.08177 0
M  V30 146 H 14.3439 -2.91933 -2.98605 0
M  V30 147 N 14.781 0.264519 -1.55364 0
M  V30 148 C 16.006 1.01726 -1.80739 0
M  V30 149 C 16.431 1.78836 -0.583044 0
M  V30 150 O 15.789 1.75167 0.467566 0
M  V30 151 C 15.837 1.94482 -3.03659 0
M  V30 152 O 14.941 3.03386 -2.7934 0
M  V30 153 H 14.282 0.290395 -0.597132 0
M  V30 154 H 16.812 0.290854 -2.02522 0
M  V30 155 H 16.822 2.36278 -3.32621 0
M  V30 156 H 15.497 1.37772 -3.92418 0
M  V30 157 H 14.074 2.65844 -2.61498 0
M  V30 158 N 16.2591 1.48442 0.529413 0
M  V30 159 C 17.2221 1.62524 1.61612 0
M  V30 160 C 18.2221 0.498509 1.52877 0
M  V30 161 O 19.4121 0.76431 1.56537 0
M  V30 162 C 16.5441 1.59597 3.01233 0
M  V30 163 H 17.7371 2.59423 1.50465 0
M  V30 164 H 15.2901 1.37047 0.751514 0
M  V30 165 H 16.0251 0.641781 3.17886 0
M  V30 166 H 15.8101 2.41397 3.08982 0
M  V30 167 H 17.3001 1.72646 3.80241 0
M  V30 168 N 17.7372 -0.778329 1.37039 0
M  V30 169 C 18.9842 -1.53665 1.31884 0
M  V30 170 C 19.3122 -1.9425 -0.0986303 0
M  V30 171 O 18.5672 -1.63832 -1.07041 0
M  V30 172 C 18.8662 -2.81845 2.19768 0
M  V30 173 C 18.5322 -2.60345 3.68146 0
M  V30 174 C 17.1942 -2.5419 4.08584 0
M  V30 175 C 19.5462 -2.40923 4.62175 0
M  V30 176 C 16.8742 -2.26594 5.41177 0
M  V30 177 C 19.2262 -2.14852 5.94997 0
M  V30 178 C 17.8902 -2.07137 6.34547 0
M  V30 179 H 17.1602 -0.562299 0.482598 0
M  V30 180 H 19.8072 -0.897069 1.69189 0
M  V30 181 H 18.1122 -3.50328 1.75436 0
M  V30 182 H 19.8092 -3.39692 2.13097 0
M  V30 183 H 16.3992 -2.65996 3.36072 0
M  V30 184 H 20.5832 -2.44673 4.31797 0
M  V30 185 H 15.8392 -2.19111 5.70789 0
M  V30 186 H 20.0132 -1.98822 6.67415 0
M  V30 187 H 17.6402 -1.85518 7.37216 0
M  V30 188 N 19.2153 -1.21501 -1.00376 0
M  V30 189 C 20.4923 -0.941745 -1.71437 0
M  V30 190 C 20.8723 0.546114 -2.03914 0
M  V30 191 O 20.2203 1.51128 -1.71384 0
M  V30 192 C 20.4303 -1.82812 -2.97289 0
M  V30 193 C 21.7783 -2.07771 -3.70292 0
M  V30 194 O 22.8023 -1.80171 -3.07273 0
M  V30 195 O 21.6613 -2.54456 -4.83647 0
M  V30 196 H 18.7553 -0.353243 -0.747762 0
M  V30 197 H 21.3013 -1.32436 -1.06108 0
M  V30 198 H 20.0733 -2.83501 -2.69709 0
M  V30 199 H 19.6963 -1.4464 -3.70358 0
M  V30 200 N 20.6934 1.19889 -1.02296 0
M  V30 201 C 21.6254 2.22334 -0.556787 0
M  V30 202 C 22.6384 1.58674 0.364199 0
M  V30 203 O 23.8274 1.77768 0.161533 0
M  V30 204 C 20.9274 3.38257 0.208694 0
M  V30 205 C 20.1004 4.31504 -0.71577 0
M  V30 206 C 19.1594 5.262 0.00325597 0
M  V30 207 O 18.1854 5.65798 -0.621357 0
M  V30 208 N 19.3874 5.66303 1.27599 0
M  V30 209 H 22.1524 2.62957 -1.43784 0
M  V30 210 H 19.7134 1.34495 -0.901261 0
M  V30 211 H 21.7054 3.98616 0.699111 0
M  V30 212 H 20.2754 2.96472 0.991102 0
M  V30 213 H 19.4954 3.69016 -1.38638 0
M  V30 214 H 20.7834 4.9072 -1.34428 0
M  V30 215 H 20.1814 5.36155 1.80429 0
M  V30 216 H 18.7384 6.28942 1.71102 0
M  V30 217 N 22.1715 0.800033 1.35784 0
M  V30 218 C 23.1345 0.211565 2.28221 0
M  V30 219 C 24.1345 -0.59728 1.49296 0
M  V30 220 O 25.3245 -0.416721 1.69142 0
M  V30 221 C 22.4565 -0.705846 3.33513 0
M  V30 222 H 23.6495 1.02677 2.81776 0
M  V30 223 H 21.2025 0.570211 1.45528 0
M  V30 224 H 21.9375 -1.54498 2.85133 0
M  V30 225 H 21.7225 -0.127655 3.91892 0
M  V30 226 H 23.2125 -1.11211 4.02519 0
M  V30 227 N 23.6496 -1.47581 0.552962 0
M  V30 228 C 24.6126 -2.28439 -0.186605 0
M  V30 229 C 25.6126 -1.36706 -0.84665 0
M  V30 230 O 26.8026 -1.59378 -0.703164 0
M  V30 231 C 23.9346 -3.16264 -1.2724 0
M  V30 232 H 25.1276 -2.95294 0.523609 0
M  V30 233 H 22.6806 -1.532 0.309745 0
M  V30 234 H 23.4156 -2.54091 -2.01514 0
M  V30 235 H 23.2006 -3.83769 -0.803968 0
M  V30 236 H 24.6906 -3.77198 -1.79196 0
M  V30 237 N 25.1277 -0.289203 -1.54924 0
M  V30 238 C 26.5437 0.0645403 -1.59469 0
M  V30 239 C 26.7437 1.53419 -1.30632 0
M  V30 240 O 25.7997 2.2852 -1.074 0
M  V30 241 C 27.1127 -0.32278 -2.98963 0
M  V30 242 C 28.6607 -0.270564 -3.11828 0
M  V30 243 C 29.1357 -0.632532 -4.53611 0
M  V30 244 N 30.6267 -0.584617 -4.59496 0
M  V30 245 C 31.3617 -0.837314 -5.67254 0
M  V30 246 N 30.8577 -1.15536 -6.83098 0
M  V30 247 N 32.6507 -0.765166 -5.56868 0
M  V30 248 H 24.8017 -1.24714 -1.71931 0
M  V30 249 H 27.0647 -0.504809 -0.802416 0
M  V30 250 H 26.7707 -1.34541 -3.24948 0
M  V30 251 H 26.6447 0.32944 -3.75759 0
M  V30 252 H 29.0317 0.742805 -2.85598 0
M  V30 253 H 29.1127 -0.957242 -2.37214 0
M  V30 254 H 28.7567 -1.64365 -4.80569 0
M  V30 255 H 28.6867 0.07609 -5.26545 0
M  V30 256 H 31.1777 -0.349248 -3.76283 0
M  V30 257 H 31.4907 -1.33447 -7.61191 0
M  V30 258 H 29.8357 -1.19328 -6.84679 0
M  V30 259 H 33.0267 -0.516432 -4.65243 0
M  V30 260 H 33.1997 -0.965477 -6.40767 0
M  V30 261 N 26.6058 1.57591 -0.0167156 0
M  V30 262 C 27.8308 1.9598 0.67872 0
M  V30 263 C 28.2558 0.892546 1.65575 0
M  V30 264 O 27.6138 -0.147772 1.80697 0
M  V30 265 C 27.6618 3.33468 1.37227 0
M  V30 266 O 26.7658 3.28954 2.48722 0
M  V30 267 H 26.1068 0.639339 0.17928 0
M  V30 268 H 28.6368 2.04463 -0.0748802 0
M  V30 269 H 28.6468 3.69417 1.7319 0
M  V30 270 H 27.3218 4.10694 0.656007 0
M  V30 271 H 25.8988 3.04705 2.14963 0
M  V30 272 N 28.0839 -0.256276 1.55502 0
M  V30 273 C 29.4999 -0.604325 1.47716 0
M  V30 274 C 29.6999 -1.88763 0.705039 0
M  V30 275 O 28.7559 -2.51445 0.230613 0
M  V30 276 C 30.0689 -0.715756 2.92057 0
M  V30 277 C 31.6169 -0.808706 3.02372 0
M  V30 278 C 32.0919 -0.951777 4.48001 0
M  V30 279 N 33.5829 -1.01688 4.519 0
M  V30 280 C 34.3179 -1.14668 5.61817 0
M  V30 281 N 33.8139 -1.24261 6.81565 0
M  V30 282 N 35.6069 -1.1791 5.49594 0
M  V30 283 H 27.7579 0.586291 2.04148 0
M  V30 284 H 30.0209 0.201015 0.926443 0
M  V30 285 H 29.7269 0.157027 3.51349 0
M  V30 286 H 29.6009 -1.59071 3.42018 0
M  V30 287 H 31.9879 -1.67195 2.43166 0
M  V30 288 H 32.0689 0.0912063 2.55637 0
M  V30 289 H 31.7129 -0.0931291 5.07815 0
M  V30 290 H 31.6429 -1.86659 4.92408 0
M  V30 291 H 34.1339 -0.954468 3.65648 0
M  V30 292 H 34.4469 -1.34046 7.61086 0
M  V30 293 H 32.7919 -1.21236 6.84344 0
M  V30 294 H 35.9829 -1.10057 4.54978 0
M  V30 295 H 36.1559 -1.27681 6.35296 0
M  V30 296 N 29.562 -1.4872 -0.521534 0
M  V30 297 C 30.81 -1.56857 -1.27437 0
M  V30 298 C 31.131 -0.247982 -1.93417 0
M  V30 299 O 30.401 0.731151 -1.81744 0
M  V30 300 H 28.981 -0.577885 -0.473347 0
M  V30 301 H 31.643 -1.85233 -0.606205 0
M  V30 302 H 30.739 -2.35402 -2.0492 0
M  V30 303 N 31.0401 0.771051 -1.3745 0
M  V30 304 C 31.9901 1.87456 -1.29785 0
M  V30 305 C 32.9741 1.59827 -0.185541 0
M  V30 306 O 34.1661 1.71945 -0.419997 0
M  V30 307 C 31.2951 3.24935 -1.1078 0
M  V30 308 C 30.3811 3.58514 -2.26558 0
M  V30 309 N 30.7721 3.6327 -3.5195 0
M  V30 310 C 29.0701 3.88683 -2.18727 0
M  V30 311 C 29.7711 3.93616 -4.283 0
M  V30 312 N 28.7471 4.09551 -3.57448 0
M  V30 313 H 32.5491 1.89386 -2.24745 0
M  V30 314 H 30.0631 0.967531 -1.30432 0
M  V30 315 H 32.0601 4.03881 -1.03374 0
M  V30 316 H 30.7201 3.24268 -0.16738 0
M  V30 317 H 31.7311 3.45458 -3.85848 0
M  V30 318 H 28.4081 3.95834 -1.32746 0
M  V30 319 H 29.7981 4.04066 -5.36824 0
M  V30 320 N 32.5182 1.22032 0.997298 0
M  V30 321 C 33.4662 0.983634 2.10778 0
M  V30 322 C 34.4602 -0.0717564 1.69248 0
M  V30 323 O 35.6662 0.080304 1.79821 0
M  V30 324 H 32.0412 0.300877 0.689186 0
M  V30 325 H 34.0122 1.92606 2.27916 0
M  V30 326 C 32.7612 0.57326 3.42942 0
M  V30 327 H 32.0842 1.37702 3.75338 0
M  V30 328 H 33.5242 0.447031 4.21637 0
M  V30 329 C 31.9832 -0.7167 3.29188 0
M  V30 330 O 32.5132 -1.77027 3.60589 0
M  V30 331 N 30.7192 -0.686167 2.82383 0
M  V30 332 H 30.2662 0.171507 2.57028 0
M  V30 333 H 30.2242 -1.54955 2.73562 0
M  V30 334 N 33.9963 -1.19345 1.0293 0
M  V30 335 C 34.9443 -2.24621 0.604001 0
M  V30 336 C 35.9383 -1.65452 -0.363587 0
M  V30 337 O 37.1443 -1.78497 -0.23212 0
M  V30 338 H 33.5193 -0.730858 0.177061 0
M  V30 339 H 35.4903 -2.5781 1.50255 0
M  V30 340 C 34.2393 -3.47688 -0.0289127 0
M  V30 341 H 33.5623 -3.93505 0.706651 0
M  V30 342 H 35.0023 -4.23011 -0.289432 0
M  V30 343 C 33.4613 -3.11817 -1.2756 0
M  V30 344 O 33.9913 -3.2451 -2.36762 0
M  V30 345 N 32.1973 -2.66246 -1.16453 0
M  V30 346 H 31.7443 -2.56118 -0.275914 0
M  V30 347 H 31.7023 -2.42617 -1.99961 0
M  V30 348 N 35.4744 -0.807222 -1.35358 0
M  V30 349 C 36.8904 -0.491038 -1.51858 0
M  V30 350 C 37.0904 0.987648 -1.75635 0
M  V30 351 O 36.1464 1.77265 -1.79815 0
M  V30 352 C 37.4594 -1.33695 -2.69344 0
M  V30 353 C 39.0074 -1.33246 -2.83222 0
M  V30 354 C 39.4824 -2.1625 -4.03733 0
M  V30 355 N 40.9734 -2.1379 -4.10911 0
M  V30 356 C 41.7084 -2.74772 -5.03277 0
M  V30 357 N 41.2044 -3.44684 -6.0097 0
M  V30 358 N 42.9974 -2.6441 -4.96028 0
M  V30 359 H 35.1484 -1.76485 -1.18181 0
M  V30 360 H 37.4114 -0.751199 -0.578276 0
M  V30 361 H 37.1174 -2.38634 -2.58354 0
M  V30 362 H 36.9914 -0.990618 -3.6396 0
M  V30 363 H 39.3784 -0.290911 -2.93663 0
M  V30 364 H 39.4594 -1.71866 -1.89461 0
M  V30 365 H 39.1034 -3.20445 -3.94052 0
M  V30 366 H 39.0334 -1.74989 -4.96675 0
M  V30 367 H 41.5244 -1.62923 -3.40976 0
M  V30 368 H 41.8374 -3.88501 -6.68047 0
M  V30 369 H 40.1824 -3.48788 -6.01142 0
M  V30 370 H 43.3734 -2.0938 -4.18662 0
M  V30 371 H 43.5464 -3.12225 -5.6782 0
M  V30 372 N 36.9525 1.47285 -0.560781 0
M  V30 373 C 38.3685 1.58065 -0.22081 0
M  V30 374 C 38.5685 1.55892 1.27671 0
M  V30 375 O 37.6245 1.46422 2.0571 0
M  V30 376 C 38.9375 2.88418 -0.850625 0
M  V30 377 C 40.4855 3.02009 -0.822184 0
M  V30 378 C 40.9605 4.35066 -1.43113 0
M  V30 379 N 42.4515 4.41711 -1.39448 0
M  V30 380 C 43.1865 5.43237 -1.83525 0
M  V30 381 N 42.6825 6.51555 -2.35474 0
M  V30 382 N 44.4755 5.34304 -1.74574 0
M  V30 383 H 36.6265 1.46941 -1.53369 0
M  V30 384 H 38.8895 0.699558 -0.639783 0
M  V30 385 H 38.5955 2.95755 -1.9032 0
M  V30 386 H 38.4695 3.75612 -0.345773 0
M  V30 387 H 40.8565 2.94266 0.221714 0
M  V30 388 H 40.9375 2.16347 -1.36483 0
M  V30 389 H 40.5815 4.43565 -2.47412 0
M  V30 390 H 40.5115 5.19465 -0.863899 0
M  V30 391 H 43.0025 3.64027 -1.01452 0
M  V30 392 H 43.3155 7.25203 -2.67021 0
M  V30 393 H 41.6605 6.52435 -2.39487 0
M  V30 394 H 44.8515 4.48581 -1.33763 0
M  V30 395 H 45.0245 6.13288 -2.09242 0
M  V30 396 N 38.4306 0.297415 1.54768 0
M  V30 397 C 39.6586 -0.315623 2.04478 0
M  V30 398 C 40.0736 -1.47792 1.17486 0
M  V30 399 O 39.4306 -1.81404 0.19971 0
M  V30 400 C 39.4816 -0.7753 3.53088 0
M  V30 401 O 39.2026 0.340732 4.36773 0
M  V30 402 C 40.7036 -1.45386 4.18781 0
M  V30 403 H 37.9236 -0.0690887 0.667434 0
M  V30 404 H 40.4676 0.436003 1.99798 0
M  V30 405 H 38.6226 -1.47696 3.58141 0
M  V30 406 H 39.0366 -0.0165035 5.24497 0
M  V30 407 H 40.5106 -1.72669 5.24299 0
M  V30 408 H 40.9876 -2.39275 3.68299 0
M  V30 409 H 41.5936 -0.795475 4.17795 0
M  V30 410 N 39.9087 -1.5758 0.0250728 0
M  V30 411 C 40.8717 -2.08896 -0.943139 0
M  V30 412 C 41.8717 -1.00321 -1.25668 0
M  V30 413 O 43.0617 -1.26495 -1.19769 0
M  V30 414 C 40.1937 -2.55143 -2.26086 0
M  V30 415 H 41.3867 -2.95723 -0.498775 0
M  V30 416 H 38.9397 -1.54703 -0.222888 0
M  V30 417 H 39.6747 -1.71633 -2.75159 0
M  V30 418 H 39.4597 -3.34461 -2.04641 0
M  V30 419 H 40.9497 -2.95083 -2.95492 0
M  V30 420 N 41.3868 0.248026 -1.55636 0
M  V30 421 C 42.3168 1.31079 -1.93237 0
M  V30 422 C 43.2978 1.50264 -0.797174 0
M  V30 423 O 44.4828 1.62891 -1.05737 0
M  V30 424 C 41.6128 2.66575 -2.22609 0
M  V30 425 C 40.5668 2.62087 -3.3837 0
M  V30 426 C 39.8928 4.01369 -3.53281 0
M  V30 427 C 41.1928 2.19171 -4.7409 0
M  V30 428 H 42.8868 0.998556 -2.82257 0
M  V30 429 H 40.4328 0.47891 -1.35803 0
M  V30 430 H 42.3858 3.41057 -2.47503 0
M  V30 431 H 41.1098 2.99432 -1.30414 0
M  V30 432 H 39.7688 1.90063 -3.13483 0
M  V30 433 H 39.4168 4.31489 -2.58508 0
M  V30 434 H 39.1168 3.99254 -4.31127 0
M  V30 435 H 40.6408 4.77552 -3.80495 0
M  V30 436 H 42.0548 2.83384 -4.98363 0
M  V30 437 H 40.4518 2.2817 -5.5503 0
M  V30 438 H 41.5218 1.14336 -4.71227 0
M  V30 439 N 42.8649 1.48995 0.513639 0
M  V30 440 C 44.2809 1.35478 0.843682 0
M  V30 441 C 44.4809 0.378213 1.97919 0
M  V30 442 O 43.5369 -0.194689 2.51748 0
M  V30 443 C 44.8499 2.75901 1.1958 0
M  V30 444 C 46.3979 2.84509 1.30474 0
M  V30 445 C 46.8729 4.25671 1.69021 0
M  V30 446 N 48.3639 4.28422 1.76094 0
M  V30 447 C 49.0989 5.34601 2.07338 0
M  V30 448 N 48.5949 6.5104 2.36894 0
M  V30 449 N 50.3879 5.22007 2.08483 0
M  V30 450 H 42.5389 2.11092 -0.235328 0
M  V30 451 H 44.8019 0.947039 -0.0426669 0
M  V30 452 H 44.5079 3.49001 0.434913 0
M  V30 453 H 44.3819 3.10467 2.1422 0
M  V30 454 H 46.7689 2.11655 2.05637 0
M  V30 455 H 46.8499 2.53542 0.339155 0
M  V30 456 H 46.4939 4.99048 0.944135 0
M  V30 457 H 46.4239 4.54094 2.66658 0
M  V30 458 H 48.9149 3.44441 1.55464 0
M  V30 459 H 49.2279 7.2779 2.59887 0
M  V30 460 H 47.5729 6.54287 2.34378 0
M  V30 461 H 50.7639 4.30051 1.84861 0
M  V30 462 H 50.9369 6.04854 2.325 0
M  V30 463 N 44.343 -0.763751 1.37857 0
M  V30 464 C 45.754 -1.3405 1.29952 0
M  V30 465 C 46.105 -1.96138 -0.0492898 0
M  V30 466 O 45.23 -1.94372 -0.951239 0
M  V30 467 C 45.825 -2.43729 2.35333 0
M  V30 468 C 44.384 -2.97151 2.31037 0
M  V30 469 C 43.531 -1.70438 2.18738 0
M  V30 470 H 46.482 -0.563396 1.48363 0
M  V30 471 H 46.503 -3.23412 2.00462 0
M  V30 472 H 46.015 -1.9851 3.33489 0
M  V30 473 H 44.116 -3.46724 1.3643 0
M  V30 474 H 44.229 -3.52221 3.24772 0
M  V30 475 H 42.593 -1.93673 1.65418 0
M  V30 476 H 43.376 -1.27312 3.18821 0
M  V30 477 N 45.8211 -1.22559 -0.990812 0
M  V30 478 C 47.2371 -0.985996 -1.255 0
M  V30 479 C 47.4371 0.319173 -1.98956 0
M  V30 480 O 46.4931 1.04127 -2.3003 0
M  V30 481 C 47.8061 -2.18607 -2.06474 0
M  V30 482 C 49.3541 -2.22985 -2.19651 0
M  V30 483 C 49.8291 -3.4255 -3.04012 0
M  V30 484 N 51.3201 -3.42725 -3.11599 0
M  V30 485 C 52.0551 -4.31892 -3.7717 0
M  V30 486 N 51.5511 -5.31279 -4.44651 0
M  V30 487 N 53.3441 -4.19662 -3.73952 0
M  V30 488 H 45.4951 -2.06469 -0.49841 0
M  V30 489 H 47.7581 -0.904853 -0.282747 0
M  V30 490 H 47.4641 -3.13267 -1.59865 0
M  V30 491 H 47.3381 -2.18838 -3.07229 0
M  V30 492 H 49.7251 -1.28871 -2.65474 0
M  V30 493 H 49.8061 -2.26791 -1.18319 0
M  V30 494 H 49.4501 -4.36965 -2.58889 0
M  V30 495 H 49.3801 -3.35984 -4.0549 0
M  V30 496 H 51.8711 -2.70807 -2.63575 0
M  V30 497 H 52.1841 -5.95593 -4.92431 0
M  V30 498 H 50.5291 -5.3519 -4.43392 0
M  V30 499 H 53.7201 -3.41268 -3.20396 0
M  V30 500 H 53.8931 -4.89358 -4.24774 0
M  V30 501 N 47.2992 1.18797 -1.03562 0
M  V30 502 C 48.7152 1.40671 -0.753917 0
M  V30 503 C 48.9152 1.9043 0.658686 0
M  V30 504 O 47.9712 2.08538 1.42366 0
M  V30 505 C 49.2842 2.41192 -1.79574 0
M  V30 506 C 50.8322 2.54928 -1.81606 0
M  V30 507 C 51.3072 3.58709 -2.84766 0
M  V30 508 N 52.7982 3.66212 -2.83625 0
M  V30 509 C 53.5332 4.46225 -3.60098 0
M  V30 510 N 53.0292 5.29888 -4.46308 0
M  V30 511 N 54.8222 4.40939 -3.4861 0
M  V30 512 H 46.9732 0.848221 -1.94728 0
M  V30 513 H 49.2362 0.435081 -0.842264 0
M  V30 514 H 48.9422 2.11669 -2.80872 0
M  V30 515 H 48.8162 3.40467 -1.62365 0
M  V30 516 H 51.2032 2.83771 -0.809817 0
M  V30 517 H 51.2842 1.55784 -2.02891 0
M  V30 518 H 50.9282 3.30607 -3.85566 0
M  V30 519 H 50.8582 4.57519 -2.60737 0
M  V30 520 H 53.3492 3.06466 -2.21105 0
M  V30 521 H 53.6622 5.88078 -5.01382 0
M  V30 522 H 52.0072 5.29326 -4.50377 0
M  V30 523 H 55.1982 3.74624 -2.80668 0
M  V30 524 H 55.3712 5.03056 -4.08459 0
M  V30 525 N 48.7773 0.814389 1.34928 0
M  V30 526 C 49.7093 0.187834 2.28429 0
M  V30 527 C 50.7223 -0.617374 1.5064 0
M  V30 528 O 51.9113 -0.448454 1.72775 0
M  V30 529 C 49.0113 -0.755962 3.30361 0
M  V30 530 C 48.1843 0.00456686 4.374 0
M  V30 531 C 47.2433 -0.858876 5.19143 0
M  V30 532 O 46.2693 -0.306968 5.68372 0
M  V30 533 N 47.4713 -2.17988 5.38016 0
M  V30 534 H 50.2363 0.991105 2.82838 0
M  V30 535 H 47.7973 0.670561 1.4736 0
M  V30 536 H 49.7893 -1.338 3.81942 0
M  V30 537 H 48.3593 -1.46001 2.7641 0
M  V30 538 H 47.5793 0.767865 3.86649 0
M  V30 539 H 48.8673 0.528422 5.06049 0
M  V30 540 H 48.2653 -2.65212 4.99679 0
M  V30 541 H 46.8223 -2.71098 5.92747 0
M  V30 542 N 50.2554 -1.46986 0.568584 0
M  V30 543 C 51.1874 -2.28233 -0.210337 0
M  V30 544 C 52.2004 -1.37682 -0.868767 0
M  V30 545 O 53.3894 -1.62406 -0.740705 0
M  V30 546 C 50.4894 -3.12293 -1.3163 0
M  V30 547 C 49.6624 -4.30878 -0.7525 0
M  V30 548 C 48.7214 -4.96445 -1.74439 0
M  V30 549 O 47.7474 -5.54482 -1.286 0
M  V30 550 N 48.9494 -4.92171 -3.07812 0
M  V30 551 H 51.7144 -2.95723 0.486648 0
M  V30 552 H 49.2754 -1.56742 0.405409 0
M  V30 553 H 51.2674 -3.53022 -1.97883 0
M  V30 554 H 49.8374 -2.46971 -1.91636 0
M  V30 555 H 49.0574 -3.94104 0.0871128 0
M  V30 556 H 50.3454 -5.07558 -0.35536 0
M  V30 557 H 49.7434 -4.46239 -3.47688 0
M  V30 558 H 48.3004 -5.36884 -3.69592 0
M  V30 559 N 51.7335 -0.305618 -1.54608 0
M  V30 560 C 52.6435 0.57778 -2.27374 0
M  V30 561 C 53.6595 1.14451 -1.31061 0
M  V30 562 O 54.8355 1.16831 -1.6405 0
M  V30 563 C 51.9005 1.73123 -3.00382 0
M  V30 564 C 50.9615 1.19812 -4.12242 0
M  V30 565 C 50.1945 2.2966 -4.81759 0
M  V30 566 O 50.4175 3.49651 -4.50666 0
M  V30 567 O 49.3515 1.96091 -5.69062 0
M  V30 568 H 53.1775 -0.012624 -3.03697 0
M  V30 569 H 50.7625 -0.0719184 -1.49227 0
M  V30 570 H 52.6445 2.40315 -3.4616 0
M  V30 571 H 51.3195 2.30815 -2.26949 0
M  V30 572 H 50.2265 0.491798 -3.70853 0
M  V30 573 H 51.5595 0.666566 -4.87666 0
M  V30 574 N 53.2116 1.57565 -0.0334293 0
M  V30 575 C 54.1746 2.09393 0.932048 0
M  V30 576 C 55.1746 1.00986 1.25134 0
M  V30 577 O 56.3646 1.27129 1.19096 0
M  V30 578 C 53.4966 2.56338 2.2473 0
M  V30 579 H 54.6896 2.95984 0.483085 0
M  V30 580 H 52.2426 1.54819 0.21468 0
M  V30 581 H 52.9776 1.7309 2.74245 0
M  V30 582 H 52.7626 3.35542 2.02865 0
M  V30 583 H 54.2526 2.96646 2.93923 0
M  V30 584 N 54.6897 -0.239769 1.55765 0
M  V30 585 C 55.9177 -0.98417 1.81994 0
M  V30 586 C 56.3327 -1.7867 0.610124 0
M  V30 587 O 55.6897 -1.77571 -0.421271 0
M  V30 588 C 55.7407 -1.91635 3.06526 0
M  V30 589 O 55.4617 -1.14629 4.22838 0
M  V30 590 C 56.9627 -2.77616 3.45607 0
M  V30 591 H 54.1827 -0.28928 0.605441 0
M  V30 592 H 56.7267 -0.260499 2.02834 0
M  V30 593 H 54.8817 -2.5942 2.87715 0
M  V30 594 H 55.2957 -1.77745 4.93464 0
M  V30 595 H 56.7697 -3.38759 4.35828 0
M  V30 596 H 57.2467 -3.4909 2.6652 0
M  V30 597 H 57.8527 -2.15271 3.66795 0
M  V30 598 N 56.1678 -1.49265 -0.50573 0
M  V30 599 C 57.0778 -1.68312 -1.63427 0
M  V30 600 C 58.0938 -0.565682 -1.64548 0
M  V30 601 O 59.2698 -0.839801 -1.83055 0
M  V30 602 C 56.3348 -1.74107 -2.99813 0
M  V30 603 C 55.3958 -2.97653 -3.09356 0
M  V30 604 C 54.6288 -3.03163 -4.39236 0
M  V30 605 O 54.8518 -2.16396 -5.27758 0
M  V30 606 O 53.7858 -3.9558 -4.53652 0
M  V30 607 H 57.6118 -2.63907 -1.50289 0
M  V30 608 H 55.1968 -1.32951 -0.681502 0
M  V30 609 H 57.0788 -1.803 -3.80881 0
M  V30 610 H 55.7538 -0.816901 -3.13223 0
M  V30 611 H 54.6608 -2.96981 -2.27493 0
M  V30 612 H 55.9938 -3.89535 -3.00871 0
M  V30 613 N 57.6459 0.756429 -1.3826 0
M  V30 614 C 58.8919 1.51772 -1.34511 0
M  V30 615 C 59.2249 1.94089 0.0656691 0
M  V30 616 O 58.4999 1.65221 1.02626 0
M  V30 617 C 58.7829 2.77226 -2.29821 0
M  V30 618 C 58.6359 2.41065 -3.79747 0
M  V30 619 C 59.9549 3.79236 -2.23312 0
M  V30 620 H 57.0739 0.550578 -0.489931 0
M  V30 621 H 59.7159 0.866607 -1.69086 0
M  V30 622 H 57.8659 3.32784 -2.00467 0
M  V30 623 H 59.5379 1.91303 -4.19763 0
M  V30 624 H 57.7809 1.7356 -3.97567 0
M  V30 625 H 58.4519 3.3081 -4.41892 0
M  V30 626 H 60.9279 3.3321 -2.49219 0
M  V30 627 H 59.8039 4.64714 -2.92116 0
M  V30 628 H 60.0649 4.24615 -1.23102 0
M  V30 629 N 59.124 1.23083 0.984299 0
M  V30 630 C 60.54 0.992637 1.24975 0
M  V30 631 C 60.74 -0.308618 1.99123 0
M  V30 632 O 59.796 -1.02905 2.30579 0
M  V30 633 C 61.109 2.19698 2.05312 0
M  V30 634 C 62.657 2.24147 2.18465 0
M  V30 635 C 63.132 3.44157 3.02192 0
M  V30 636 N 64.623 3.44372 3.09777 0
M  V30 637 C 65.358 4.33886 3.74874 0
M  V30 638 N 64.854 5.3363 4.41827 0
M  V30 639 N 66.647 4.21639 3.71721 0
M  V30 640 H 58.798 2.06731 0.487453 0
M  V30 641 H 61.061 0.906339 0.277944 0
M  V30 642 H 60.767 3.1411 1.58201 0
M  V30 643 H 60.641 2.20465 3.06064 0
M  V30 644 H 63.028 1.30277 2.64786 0
M  V30 645 H 63.109 2.27415 1.17115 0
M  V30 646 H 62.753 4.38332 2.56568 0
M  V30 647 H 62.683 3.3813 4.03702 0
M  V30 648 H 65.174 2.72201 2.62135 0
M  V30 649 H 65.487 5.98196 4.89266 0
M  V30 650 H 63.832 5.37534 4.40548 0
M  V30 651 H 67.023 3.42962 3.18582 0
M  V30 652 H 67.196 4.91604 4.22173 0
M  V30 653 N 60.6021 -1.18246 1.0419 0
M  V30 654 C 62.0131 -1.69914 0.773698 0
M  V30 655 C 62.3641 -1.83085 -0.705297 0
M  V30 656 O 61.4891 -1.51123 -1.5489 0
M  V30 657 C 62.0841 -3.08619 1.39784 0
M  V30 658 C 60.6431 -3.57494 1.17792 0
M  V30 659 C 59.7901 -2.34013 1.48773 0
M  V30 660 H 62.7411 -1.02904 1.20816 0
M  V30 661 H 62.7621 -3.71958 0.801714 0
M  V30 662 H 62.2741 -2.99001 2.47426 0
M  V30 663 H 60.3751 -3.72406 0.120295 0
M  V30 664 H 60.4881 -4.40852 1.87581 0
M  V30 665 H 58.8521 -2.37986 0.907463 0
M  V30 666 H 59.6351 -2.27013 2.57527 0
M  V30 667 N 62.0802 -0.821533 -1.34494 0
M  V30 668 C 62.9902 -0.244355 -2.33324 0
M  V30 669 C 64.0062 0.620527 -1.62559 0
M  V30 670 O 65.1822 0.528754 -1.94335 0
M  V30 671 C 62.2472 0.585368 -3.41723 0
M  V30 672 C 61.3082 -0.301752 -4.28238 0
M  V30 673 C 60.5412 0.488466 -5.3146 0
M  V30 674 O 60.7642 1.72186 -5.4379 0
M  V30 675 O 59.6982 -0.12848 -6.01763 0
M  V30 676 H 63.5242 -1.06231 -2.84515 0
M  V30 677 H 61.1092 -0.583645 -1.37528 0
M  V30 678 H 62.9912 1.05747 -4.07916 0
M  V30 679 H 61.6662 1.38068 -2.92778 0
M  V30 680 H 60.5732 -0.821315 -3.64973 0
M  V30 681 H 61.9062 -1.06138 -4.8062 0
M  V30 682 N 63.5583 1.46682 -0.576371 0
M  V30 683 C 64.4903 2.28341 0.198231 0
M  V30 684 C 65.5033 1.38141 0.861453 0
M  V30 685 O 66.6923 1.62797 0.732082 0
M  V30 686 C 63.7923 3.12986 1.29972 0
M  V30 687 C 62.9653 4.31271 0.729639 0
M  V30 688 C 62.0243 4.97363 1.71803 0
M  V30 689 O 61.0503 5.55156 1.25658 0
M  V30 690 N 62.2523 4.93796 3.05198 0
M  V30 691 H 65.0173 2.9546 -0.502324 0
M  V30 692 H 62.5783 1.56525 -0.413715 0
M  V30 693 H 64.5703 3.54066 1.96008 0
M  V30 694 H 63.1403 2.47984 1.90323 0
M  V30 695 H 62.3603 3.94052 -0.108012 0
M  V30 696 H 63.6483 5.07739 0.328438 0
M  V30 697 H 63.0463 4.48077 3.45317 0
M  V30 698 H 61.6033 5.38837 3.6674 0
M  V30 699 N 65.0364 0.313813 1.54444 0
M  V30 700 C 65.9834 -0.55655 2.23989 0
M  V30 701 C 66.9534 -1.11943 1.22711 0
M  V30 702 O 68.1384 -1.16158 1.51367 0
M  V30 703 C 65.2784 -1.71635 2.99392 0
M  V30 704 C 64.3914 -1.18364 4.15468 0
M  V30 705 C 63.5264 -2.30834 4.78424 0
M  V30 706 C 62.5654 -1.74762 5.86622 0
M  V30 707 N 61.7024 -2.80855 6.43479 0
M  V30 708 H 66.5424 0.0430893 2.97969 0
M  V30 709 H 64.0794 0.0330359 1.47063 0
M  V30 710 H 66.0374 -2.39868 3.41349 0
M  V30 711 H 64.6674 -2.28742 2.27765 0
M  V30 712 H 63.7194 -0.393163 3.78363 0
M  V30 713 H 65.0314 -0.733262 4.93381 0
M  V30 714 H 64.1854 -3.0699 5.23299 0
M  V30 715 H 62.9244 -2.79204 3.99871 0
M  V30 716 H 61.9294 -0.970995 5.41158 0
M  V30 717 H 63.1544 -1.2728 6.67066 0
M  V30 718 H 61.1004 -3.28535 5.67804 0
M  V30 719 H 61.0174 -2.40351 7.16776 0
M  V30 720 H 62.2854 -3.5687 6.93011 0
M  V30 721 N 66.5145 -1.57545 0.0417849 0
M  V30 722 C 67.4475 -2.06514 -0.970928 0
M  V30 723 C 68.4255 -0.963607 -1.30971 0
M  V30 724 O 69.6095 -1.23486 -1.4242 0
M  V30 725 C 66.7365 -2.4978 -2.28752 0
M  V30 726 C 65.7825 -3.71078 -2.10246 0
M  V30 727 S 66.6155 -5.17158 -1.38952 0
M  V30 728 C 67.7715 -5.6373 -2.71954 0
M  V30 729 H 68.0045 -2.9209 -0.554129 0
M  V30 730 H 65.5375 -1.53459 -0.17024 0
M  V30 731 H 67.4955 -2.75371 -3.04435 0
M  V30 732 H 66.1565 -1.64527 -2.67562 0
M  V30 733 H 65.3495 -3.9924 -3.07609 0
M  V30 734 H 64.9515 -3.45705 -1.42704 0
M  V30 735 H 67.2435 -5.68743 -3.68154 0
M  V30 736 H 68.1865 -6.63086 -2.4844 0
M  V30 737 H 68.5945 -4.91424 -2.77782 0
M  V30 738 N 67.9926 0.231505 -1.5589 0
M  V30 739 C 69.4036 0.799327 -1.68724 0
M  V30 740 C 69.7546 1.85398 -0.642022 0
M  V30 741 O 68.8796 2.1539 0.208784 0
M  V30 742 C 69.4746 1.45664 -3.05888 0
M  V30 743 C 68.0336 1.97197 -3.20609 0
M  V30 744 C 67.1806 0.828552 -2.64632 0
M  V30 745 H 70.1316 0.00702616 -1.58698 0
M  V30 746 H 70.1526 2.32517 -3.01191 0
M  V30 747 H 69.6646 0.688808 -3.81939 0
M  V30 748 H 67.7656 2.76813 -2.4941 0
M  V30 749 H 67.8786 2.15878 -4.27707 0
M  V30 750 H 66.2426 1.23321 -2.22854 0
M  V30 751 H 67.0256 0.0735544 -3.43221 0
M  V30 752 N 69.4707 1.49531 0.497807 0
M  V30 753 C 70.6987 1.62893 1.27567 0
M  V30 754 C 71.1137 0.301585 1.86376 0
M  V30 755 O 70.4707 -0.713335 1.67982 0
M  V30 756 C 70.5217 2.70013 2.40364 0
M  V30 757 O 70.2427 3.976 1.83972 0
M  V30 758 C 71.7437 2.94109 3.31685 0
M  V30 759 H 68.9637 0.548298 0.386794 0
M  V30 760 H 71.5077 1.95584 0.597245 0
M  V30 761 H 69.6627 2.40092 3.04031 0
M  V30 762 H 70.0767 4.56631 2.58047 0
M  V30 763 H 71.5507 3.72788 4.07104 0
M  V30 764 H 72.0277 2.04147 3.88871 0
M  V30 765 H 72.6337 3.2546 2.73781 0
M  V30 766 N 70.9488 -0.749086 1.3866 0
M  V30 767 C 71.8788 -1.8764 1.38973 0
M  V30 768 C 72.8598 -1.68178 0.255004 0
M  V30 769 O 74.0448 -1.88704 0.458754 0
M  V30 770 C 71.1748 -3.25222 1.21851 0
M  V30 771 C 70.1288 -3.59295 2.32575 0
M  V30 772 C 69.4548 -4.95663 2.00555 0
M  V30 773 C 70.7548 -3.63709 3.7485 0
M  V30 774 H 72.4488 -1.87635 2.3331 0
M  V30 775 H 69.9948 -0.901329 1.12303 0
M  V30 776 H 71.9478 -4.03746 1.20695 0
M  V30 777 H 70.6718 -3.25719 0.239775 0
M  V30 778 H 69.3308 -2.83093 2.32925 0
M  V30 779 H 68.9788 -4.92724 1.01154 0
M  V30 780 H 68.6788 -5.19429 2.74714 0
M  V30 781 H 70.2028 -5.7656 2.01024 0
M  V30 782 H 71.6168 -4.32338 3.76506 0
M  V30 783 H 70.0138 -3.98986 4.48252 0
M  V30 784 H 71.0838 -2.63834 4.06841 0
M  V30 785 N 72.4269 -1.23603 -0.977757 0
M  V30 786 C 73.3569 -1.04401 -2.0886 0
M  V30 787 C 74.3379 0.0399052 -1.70053 0
M  V30 788 O 75.5229 -0.125246 -1.93796 0
M  V30 789 C 72.6529 -0.637269 -3.41403 0
M  V30 790 C 71.6069 -1.66883 -3.94124 0
M  V30 791 C 70.9329 -1.11745 -5.22893 0
M  V30 792 C 72.2329 -3.06247 -4.23096 0
M  V30 793 H 73.9269 -1.97316 -2.25182 0
M  V30 794 H 71.4729 -0.950096 -1.08209 0
M  V30 795 H 73.4259 -0.48998 -4.18542 0
M  V30 796 H 72.1499 0.327557 -3.24953 0
M  V30 797 H 70.8089 -1.80416 -3.19133 0
M  V30 798 H 70.4569 -0.143527 -5.02795 0
M  V30 799 H 70.1569 -1.80672 -5.59134 0
M  V30 800 H 71.6809 -0.982067 -6.02651 0
M  V30 801 H 73.0949 -2.96001 -4.90975 0
M  V30 802 H 71.4919 -3.72436 -4.70544 0
M  V30 803 H 72.5619 -3.55041 -3.30263 0
M  V30 804 N 73.905 1.17692 -1.04816 0
M  V30 805 C 75.321 1.39863 -0.768794 0
M  V30 806 C 75.521 1.91118 0.638451 0
M  V30 807 O 74.577 2.10036 1.40146 0
M  V30 808 C 75.89 2.39274 -1.82122 0
M  V30 809 C 77.438 2.52987 -1.843 0
M  V30 810 C 77.913 3.55669 -2.88555 0
M  V30 811 N 79.404 3.63183 -2.87493 0
M  V30 812 C 80.139 4.42381 -3.64811 0
M  V30 813 N 79.635 5.25125 -4.51903 0
M  V30 814 N 81.428 4.37217 -3.53267 0
M  V30 815 H 73.579 0.82752 -1.95617 0
M  V30 816 H 75.842 0.426123 -0.846831 0
M  V30 817 H 75.548 2.08678 -2.83102 0
M  V30 818 H 75.422 3.38725 -1.65967 0
M  V30 819 H 77.809 2.82896 -0.839869 0
M  V30 820 H 77.89 1.53623 -2.04532 0
M  V30 821 H 77.534 3.26499 -3.89051 0
M  V30 822 H 77.464 4.54728 -2.65575 0
M  V30 823 H 79.955 3.04103 -2.24343 0
M  V30 824 H 80.268 5.82728 -5.07591 0
M  V30 825 H 78.613 5.24519 -4.55966 0
M  V30 826 H 81.804 3.71626 -2.84625 0
M  V30 827 H 81.977 4.98696 -4.13771 0
M  V30 828 N 75.3831 0.828654 1.34056 0
M  V30 829 C 76.6291 0.42008 1.98402 0
M  V30 830 C 76.9621 -1.01564 1.65525 0
M  V30 831 O 76.2371 -1.70834 0.929831 0
M  V30 832 C 76.5201 0.62927 3.54559 0
M  V30 833 C 76.3731 2.11152 3.97159 0
M  V30 834 C 77.6921 0.0688756 4.40046 0
M  V30 835 H 74.8111 0.154104 0.720709 0
M  V30 836 H 77.4531 1.04228 1.5886 0
M  V30 837 H 75.6031 0.0996418 3.88372 0
M  V30 838 H 77.2751 2.70522 3.73651 0
M  V30 839 H 75.5181 2.59985 3.47261 0
M  V30 840 H 76.1891 2.20868 5.05887 0
M  V30 841 H 78.6651 0.521458 4.1282 0
M  V30 842 H 77.5411 0.245006 5.48353 0
M  V30 843 H 77.8021 -1.0266 4.30015 0
M  V30 844 N 76.8612 -1.46375 0.584142 0
M  V30 845 C 78.0912 -2.06461 0.0758195 0
M  V30 846 C 78.4992 -1.43322 -1.23512 0
M  V30 847 O 77.8422 -0.533216 -1.75791 0
M  V30 848 C 77.9042 -3.59131 -0.162773 0
M  V30 849 C 77.5682 -4.4447 1.06279 0
M  V30 850 C 78.5652 -4.80918 1.97519 0
M  V30 851 C 76.2502 -4.85584 1.28504 0
M  V30 852 C 78.2442 -5.57309 3.09331 0
M  V30 853 C 75.9312 -5.61734 2.4062 0
M  V30 854 C 76.9292 -5.9751 3.30863 0
M  V30 855 O 76.6172 -6.72121 4.41032 0
M  V30 856 H 76.3492 -0.673745 0.0551725 0
M  V30 857 H 78.9032 -1.88969 0.804984 0
M  V30 858 H 77.1332 -3.74936 -0.946565 0
M  V30 859 H 78.8222 -4.0114 -0.619782 0
M  V30 860 H 79.5882 -4.49732 1.81565 0
M  V30 861 H 75.4672 -4.57187 0.591702 0
M  V30 862 H 79.0112 -5.85152 3.79793 0
M  V30 863 H 74.9082 -5.92334 2.56537 0
M  V30 864 H 75.6762 -6.90547 4.39417 0
M  V30 865 N 78.3393 -0.321999 -1.54275 0
M  V30 866 C 79.5883 0.281931 -1.9972 0
M  V30 867 C 79.9013 1.53369 -1.21397 0
M  V30 868 O 81.1073 2.21352 -1.57211 0
M  V30 869 C 79.5633 0.5529 -3.55628 0
M  V30 870 C 79.1713 -0.681721 -4.42783 0
M  V30 871 C 80.9153 1.11687 -4.09544 0
M  V30 872 C 78.8223 -0.382742 -5.9016 0
M  V30 873 H 77.7523 0.109124 -0.746062 0
M  V30 874 H 80.4033 -0.43398 -1.78294 0
M  V30 875 H 78.7853 1.32896 -3.73035 0
M  V30 876 H 79.9593 -1.45723 -4.37151 0
M  V30 877 H 78.2743 -1.1658 -3.99748 0
M  V30 878 H 80.8713 1.35515 -5.17242 0
M  V30 879 H 81.2143 2.06575 -3.61431 0
M  V30 880 H 81.7473 0.402032 -3.95763 0
M  V30 881 H 78.4863 -1.30076 -6.42464 0
M  V30 882 H 78.0063 0.355094 -5.98748 0
M  V30 883 H 79.6853 0.00800157 -6.47 0
M  V30 884 N 79.8174 1.5752 -0.0501392 0
M  V30 885 C 81.0944 1.83996 0.663685 0
M  V30 886 C 81.4744 0.938339 1.89099 0
M  V30 887 O 80.8224 -0.00087759 2.285 0
M  V30 888 C 81.0324 3.33702 1.02196 0
M  V30 889 C 82.3804 4.00691 1.40469 0
M  V30 890 O 83.4044 3.38321 1.11433 0
M  V30 891 O 82.2634 5.10658 1.94654 0
M  V30 892 H 79.3574 0.759385 0.32751 0
M  V30 893 H 81.9034 1.69514 -0.0794238 0
M  V30 894 H 80.6754 3.91015 0.149364 0
M  V30 895 H 80.2984 3.53368 1.82255 0
M  V30 896 N 81.2955 -0.223234 1.56011 0
M  V30 897 C 82.5435 -0.946003 1.78592 0
M  V30 898 C 82.8645 -1.84936 0.618349 0
M  V30 899 O 82.1345 -1.92473 -0.364833 0
M  V30 900 H 80.7145 -0.352298 0.658707 0
M  V30 901 H 83.3765 -0.235494 1.93472 0
M  V30 902 H 82.4725 -1.55381 2.70672 0
M  V30 903 N 82.7736 -1.49793 -0.48987 0
M  V30 904 C 84.1846 -1.52914 -1.07118 0
M  V30 905 C 84.5356 -0.321738 -1.93544 0
M  V30 906 O 83.6606 0.567338 -2.08831 0
M  V30 907 C 84.2556 -2.771 -1.94938 0
M  V30 908 C 82.8146 -2.82963 -2.48212 0
M  V30 909 C 81.9616 -2.46972 -1.26096 0
M  V30 910 H 84.9126 -1.56329 -0.273289 0
M  V30 911 H 84.9336 -2.57892 -2.79771 0
M  V30 912 H 84.4456 -3.64959 -1.32009 0
M  V30 913 H 82.5466 -1.99411 -3.14748 0
M  V30 914 H 82.6596 -3.85406 -2.84603 0
M  V30 915 H 81.0236 -1.98994 -1.58976 0
M  V30 916 H 81.8066 -3.37118 -0.648581 0
M  V30 917 N 84.2517 0.741722 -1.39055 0
M  V30 918 C 85.2017 1.84661 -1.33732 0
M  V30 919 C 86.1857 1.59397 -0.219401 0
M  V30 920 O 87.3777 1.71015 -0.456375 0
M  V30 921 C 84.5067 3.22512 -1.17647 0
M  V30 922 C 83.5927 3.53628 -2.34112 0
M  V30 923 N 83.9837 3.55723 -3.59576 0
M  V30 924 C 82.2817 3.83956 -2.26923 0
M  V30 925 C 82.9827 3.84443 -4.36553 0
M  V30 926 N 81.9587 4.01877 -3.66055 0
M  V30 927 H 85.7607 1.84576 -2.28711 0
M  V30 928 H 83.2747 0.939647 -1.32455 0
M  V30 929 H 85.2717 4.01597 -1.11917 0
M  V30 930 H 83.9317 3.2384 -0.236124 0
M  V30 931 H 84.9427 3.37196 -3.93089 0
M  V30 932 H 81.6197 3.92929 -1.41113 0
M  V30 933 H 83.0097 3.92588 -5.45274 0
M  V30 934 N 85.7298 1.2412 0.971189 0
M  V30 935 C 86.9778 1.07668 1.71032 0
M  V30 936 C 87.2988 -0.385797 1.91146 0
M  V30 937 O 86.5688 -1.27569 1.4867 0
M  V30 938 H 85.1488 0.395429 0.633755 0
M  V30 939 H 87.8108 1.55984 1.16855 0
M  V30 940 H 86.9068 1.57195 2.69622 0
M  V30 941 N 87.2079 -1.17134 1.05439 0
M  V30 942 C 88.1409 -2.2012 0.601855 0
M  V30 943 C 89.1189 -1.58314 -0.370854 0
M  V30 944 O 90.3029 -1.8638 -0.281882 0
M  V30 945 C 87.4299 -3.38491 -0.118868 0
M  V30 946 C 86.4759 -4.18752 0.809242 0
M  V30 947 S 87.3089 -4.83602 2.29977 0
M  V30 948 C 88.4649 -6.0536 1.59029 0
M  V30 949 H 88.6979 -2.58165 1.47438 0
M  V30 950 H 86.2309 -1.27788 0.866573 0
M  V30 951 H 88.1889 -4.07084 -0.528495 0
M  V30 952 H 86.8499 -2.98829 -0.967465 0
M  V30 953 H 86.0429 -5.03373 0.251379 0
M  V30 954 H 85.6449 -3.5561 1.15835 0
M  V30 955 H 87.9369 -6.71615 0.891017 0
M  V30 956 H 88.8799 -6.65679 2.41407 0
M  V30 957 H 89.2879 -5.54138 1.07663 0
M  V30 958 N 88.686 -0.835752 -1.33615 0
M  V30 959 C 89.934 -0.429109 -1.97492 0
M  V30 960 C 90.255 1.01433 -1.66543 0
M  V30 961 O 89.525 1.70611 -0.962744 0
M  V30 962 H 88.105 -0.155686 -0.730596 0
M  V30 963 H 90.767 -1.06802 -1.63031 0
M  V30 964 H 89.863 -0.55861 -3.0706 0
M  V30 965 N 90.1641 1.46063 -0.591896 0
M  V30 966 C 91.1111 2.30399 0.136069 0
M  V30 967 C 92.0811 1.41169 0.875238 0
M  V30 968 O 93.2661 1.70112 0.86409 0
M  V30 969 C 90.4061 3.25804 1.13781 0
M  V30 970 C 89.5191 4.30134 0.401137 0
M  V30 971 C 88.6541 5.12659 1.39121 0
M  V30 972 C 87.6931 6.0873 0.641462 0
M  V30 973 N 86.8301 6.8409 1.58004 0
M  V30 974 H 91.6701 2.92118 -0.589144 0
M  V30 975 H 89.2071 1.43959 -0.302342 0
M  V30 976 H 91.1651 3.79569 1.73156 0
M  V30 977 H 89.7951 2.65872 1.83062 0
M  V30 978 H 88.8471 3.79152 -0.307826 0
M  V30 979 H 90.1591 4.98458 -0.184565 0
M  V30 980 H 89.3131 5.70747 2.05749 0
M  V30 981 H 88.0521 4.44316 2.01084 0
M  V30 982 H 87.0571 5.49786 -0.0385419 0
M  V30 983 H 88.2821 6.79095 0.0270945 0
M  V30 984 H 86.2281 6.18449 2.18761 0
M  V30 985 H 86.1451 7.48709 1.04738 0
M  V30 986 H 87.4131 7.4673 2.23639 0
M  V30 987 N 91.6422 0.330177 1.54103 0
M  V30 988 C 92.8702 -0.272179 2.05102 0
M  V30 989 C 93.2852 -1.45267 1.20595 0
M  V30 990 O 92.6422 -1.8094 0.238144 0
M  V30 991 C 92.6932 -0.70023 3.54653 0
M  V30 992 O 92.4142 0.433301 4.35952 0
M  V30 993 C 93.9152 -1.3647 4.21771 0
M  V30 994 H 91.1352 -0.0549159 0.668749 0
M  V30 995 H 93.6792 0.478285 1.98828 0
M  V30 996 H 91.8342 -1.40066 3.61193 0
M  V30 997 H 92.2482 0.0947539 5.24414 0
M  V30 998 H 93.7222 -1.61509 5.27843 0
M  V30 999 H 94.1992 -2.31409 3.73292 0
M  V30 1000 H 94.8052 -0.706675 4.19388 0
M  V30 1001 N 93.1203 -1.57491 0.0584922 0
M  V30 1002 C 94.3483 -1.97296 -0.623037 0
M  V30 1003 C 94.7633 -0.936338 -1.63946 0
M  V30 1004 O 94.1203 0.0785981 -1.82331 0
M  V30 1005 C 94.1713 -3.37183 -1.30345 0
M  V30 1006 O 93.8923 -4.36872 -0.32773 0
M  V30 1007 C 95.3933 -3.91788 -2.07406 0
M  V30 1008 H 92.6133 -0.649153 -0.169826 0
M  V30 1009 H 95.1573 -2.04106 0.12696 0
M  V30 1010 H 93.3123 -3.31502 -2.00463 0
M  V30 1011 H 93.7263 -5.18141 -0.814269 0
M  V30 1012 H 95.2003 -4.91926 -2.50425 0
M  V30 1013 H 95.6773 -3.27609 -2.92521 0
M  V30 1014 H 96.2833 -4.00829 -1.42184 0
M  V30 1015 N 94.5984 0.214957 -1.56127 0
M  V30 1016 C 95.8264 0.955092 -1.83536 0
M  V30 1017 C 96.2414 1.77677 -0.638472 0
M  V30 1018 O 95.5984 1.78219 0.392968 0
M  V30 1019 C 95.6494 1.86734 -3.09536 0
M  V30 1020 O 95.3704 1.07887 -4.24608 0
M  V30 1021 C 96.8714 2.72082 -3.4998 0
M  V30 1022 H 94.0914 0.279611 -0.609966 0
M  V30 1023 H 96.6354 0.228197 -2.03223 0
M  V30 1024 H 94.7904 2.5481 -2.91806 0
M  V30 1025 H 95.2044 1.69872 -4.9623 0
M  V30 1026 H 96.6784 3.31782 -4.41163 0
M  V30 1027 H 97.1554 3.44806 -2.7204 0
M  V30 1028 H 97.7614 2.09409 -3.70173 0
M  V30 1029 N 96.0765 1.50051 0.48192 0
M  V30 1030 C 97.3045 1.64237 1.25832 0
M  V30 1031 C 97.7195 0.321336 1.86045 0
M  V30 1032 O 97.0765 -0.695478 1.68729 0
M  V30 1033 C 97.1275 2.72548 2.37487 0
M  V30 1034 O 96.8485 3.99529 1.79745 0
M  V30 1035 C 98.3495 2.9761 3.28547 0
M  V30 1036 H 95.5695 0.55237 0.380957 0
M  V30 1037 H 98.1135 1.96207 0.576467 0
M  V30 1038 H 96.2685 2.43303 3.01467 0
M  V30 1039 H 96.6825 4.59342 2.5319 0
M  V30 1040 H 98.1565 3.77084 4.03127 0
M  V30 1041 H 98.6335 2.0826 3.86684 0
M  V30 1042 H 99.2395 3.28345 2.70314 0
M  V30 1043 N 97.5546 -0.734337 1.39446 0
M  V30 1044 C 98.4866 -1.85861 1.34121 0
M  V30 1045 C 99.4996 -1.60871 0.249864 0
M  V30 1046 O 100.689 -1.71093 0.508865 0
M  V30 1047 C 97.7886 -3.21899 1.05991 0
M  V30 1048 C 96.9616 -3.74239 2.26415 0
M  V30 1049 C 96.0206 -4.88841 1.94733 0
M  V30 1050 O 95.0466 -5.02468 2.67422 0
M  V30 1051 N 96.2486 -5.73261 0.913884 0
M  V30 1052 H 99.0136 -1.90934 2.31007 0
M  V30 1053 H 96.5746 -0.915102 1.33557 0
M  V30 1054 H 98.5666 -3.96136 0.828147 0
M  V30 1055 H 97.1366 -3.12091 0.178361 0
M  V30 1056 H 96.3566 -2.91347 2.65539 0
M  V30 1057 H 97.6446 -4.05942 3.06738 0
M  V30 1058 H 97.0426 -5.64842 0.311476 0
M  V30 1059 H 95.5996 -6.47563 0.742015 0
M  V30 1060 N 99.0327 -1.24633 -0.964593 0
M  V30 1061 C 99.9627 -1.06611 -2.07741 0
M  V30 1062 C 100.944 0.0218666 -1.70086 0
M  V30 1063 O 102.129 -0.145793 -1.93652 0
M  V30 1064 C 99.2587 -0.673444 -3.40708 0
M  V30 1065 C 98.2127 -1.71054 -3.92332 0
M  V30 1066 C 97.5387 -1.17285 -5.21678 0
M  V30 1067 C 98.8387 -3.10718 -4.19824 0
M  V30 1068 H 100.533 -1.99693 -2.23076 0
M  V30 1069 H 98.0787 -0.96152 -1.07195 0
M  V30 1070 H 100.032 -0.534345 -4.17998 0
M  V30 1071 H 98.7557 0.293073 -3.25282 0
M  V30 1072 H 97.4147 -1.83791 -3.17201 0
M  V30 1073 H 97.0627 -0.196847 -5.02615 0
M  V30 1074 H 96.7627 -1.86592 -5.57187 0
M  V30 1075 H 98.2867 -1.04593 -6.01575 0
M  V30 1076 H 99.7007 -3.01192 -4.87808 0
M  V30 1077 H 98.0977 -3.77406 -4.66567 0
M  V30 1078 H 99.1677 -3.58524 -3.26479 0
M  V30 1079 N 100.511 1.16574 -1.06058 0
M  V30 1080 C 101.441 2.23057 -0.690488 0
M  V30 1081 C 102.422 1.67141 0.315901 0
M  V30 1082 O 103.607 1.93253 0.191556 0
M  V30 1083 C 100.737 3.47222 -0.073625 0
M  V30 1084 C 99.6908 4.16016 -1.00573 0
M  V30 1085 C 99.0168 5.34104 -0.252289 0
M  V30 1086 C 100.317 4.67264 -2.33371 0
M  V30 1087 H 102.011 2.54271 -1.58072 0
M  V30 1088 H 99.5568 1.22218 -0.76149 0
M  V30 1089 H 101.51 4.20939 0.19714 0
M  V30 1090 H 100.234 3.15302 0.85161 0
M  V30 1091 H 98.8928 3.44223 -1.2612 0
M  V30 1092 H 98.5408 4.98437 0.675988 0
M  V30 1093 H 98.2408 5.81072 -0.873455 0
M  V30 1094 H 99.7648 6.10599 0.0109857 0
M  V30 1095 H 101.179 5.32573 -2.12223 0
M  V30 1096 H 99.5758 5.24843 -2.90963 0
M  V30 1097 H 100.646 3.83602 -2.96611 0
M  V30 1098 N 101.989 0.842826 1.3317 0
M  V30 1099 C 103.235 0.441099 1.97945 0
M  V30 1100 C 103.568 -0.998024 1.66593 0
M  V30 1101 O 102.843 -1.69839 0.947898 0
M  V30 1102 C 103.126 0.666841 3.53872 0
M  V30 1103 C 102.979 2.15352 3.94897 0
M  V30 1104 C 104.298 0.115544 4.39948 0
M  V30 1105 H 101.417 0.161739 0.719034 0
M  V30 1106 H 104.059 1.05907 1.57746 0
M  V30 1107 H 102.209 0.140828 3.88245 0
M  V30 1108 H 103.881 2.7447 3.70761 0
M  V30 1109 H 102.124 2.63653 3.44484 0
M  V30 1110 H 102.795 2.26221 5.03516 0
M  V30 1111 H 105.271 0.565213 4.12243 0
M  V30 1112 H 104.147 0.303152 5.48062 0
M  V30 1113 H 104.408 -0.980935 4.3108 0
M  V30 1114 N 103.467 -1.45747 0.599634 0
M  V30 1115 C 104.43 -2.28917 -0.113835 0
M  V30 1116 C 105.43 -1.3933 -0.802729 0
M  V30 1117 O 106.62 -1.61534 -0.652103 0
M  V30 1118 C 103.752 -3.20152 -1.17114 0
M  V30 1119 H 104.945 -2.93478 0.617289 0
M  V30 1120 H 102.498 -1.52137 0.358327 0
M  V30 1121 H 103.233 -2.60374 -1.93329 0
M  V30 1122 H 103.018 -3.86133 -0.681468 0
M  V30 1123 H 104.508 -3.82708 -1.67105 0
M  V30 1124 N 104.945 -0.338344 -1.53925 0
M  V30 1125 C 105.875 0.51328 -2.27789 0
M  V30 1126 C 106.856 1.107 -1.29149 0
M  V30 1127 O 108.041 1.12937 -1.57984 0
M  V30 1128 C 105.171 1.66697 -3.04679 0
M  V30 1129 C 104.125 1.20183 -4.1078 0
M  V30 1130 C 103.451 2.44363 -4.75595 0
M  V30 1131 C 104.751 0.30605 -5.21403 0
M  V30 1132 H 106.445 -0.102883 -2.99223 0
M  V30 1133 H 103.991 -0.0509219 -1.4391 0
M  V30 1134 H 105.944 2.26915 -3.55088 0
M  V30 1135 H 104.668 2.30995 -2.30887 0
M  V30 1136 H 103.327 0.622499 -3.61276 0
M  V30 1137 H 102.975 3.07057 -3.98403 0
M  V30 1138 H 102.675 2.13925 -5.47275 0
M  V30 1139 H 104.199 3.05317 -5.28786 0
M  V30 1140 H 105.613 0.814929 -5.67478 0
M  V30 1141 H 104.01 0.0937929 -6.00027 0
M  V30 1142 H 105.08 -0.65921 -4.80398 0
M  V30 1143 N 106.423 1.57458 -0.0668435 0
M  V30 1144 C 107.671 1.92919 0.602214 0
M  V30 1145 C 107.992 0.947215 1.70449 0
M  V30 1146 O 107.262 -0.00544117 1.95899 0
M  V30 1147 H 105.842 0.71217 0.22544 0
M  V30 1148 H 108.504 1.94508 -0.123535 0
M  V30 1149 H 107.6 2.94589 1.03073 0
M  V30 1150 N 107.901 -0.206675 1.56239 0
M  V30 1151 C 109.126 -0.949474 1.8439 0
M  V30 1152 C 109.551 -1.76549 0.649016 0
M  V30 1153 O 108.909 -1.76782 -0.402231 0
M  V30 1154 C 108.957 -1.83078 3.10668 0
M  V30 1155 O 108.061 -2.9281 2.90407 0
M  V30 1156 H 107.402 -0.268033 0.607499 0
M  V30 1157 H 109.932 -0.215488 2.03462 0
M  V30 1158 H 109.942 -2.2377 3.41161 0
M  V30 1159 H 108.617 -1.23112 3.97261 0
M  V30 1160 H 107.194 -2.55956 2.71184 0
M  V30 1161 N 109.379 -1.50304 -0.473955 0
M  V30 1162 C 110.795 -1.37667 -0.807466 0
M  V30 1163 C 110.995 -0.430555 -1.96846 0
M  V30 1164 O 110.051 0.127874 -2.52176 0
M  V30 1165 C 111.364 -2.78974 -1.12223 0
M  V30 1166 C 112.912 -2.87868 -1.22885 0
M  V30 1167 C 113.387 -4.30003 -1.57676 0
M  V30 1168 N 114.878 -4.3294 -1.64673 0
M  V30 1169 C 115.613 -5.3991 -1.93091 0
M  V30 1170 N 115.109 -6.57092 -2.1955 0
M  V30 1171 N 116.902 -5.27351 -1.94569 0
M  V30 1172 H 109.053 -2.10394 0.291212 0
M  V30 1173 H 111.316 -0.945575 0.0677609 0
M  V30 1174 H 111.022 -3.50031 -0.342229 0
M  V30 1175 H 110.896 -3.16038 -2.05913 0
M  V30 1176 H 113.283 -2.17032 -1.99953 0
M  V30 1177 H 113.364 -2.54352 -0.271814 0
M  V30 1178 H 113.008 -5.01375 -0.81149 0
M  V30 1179 H 112.938 -4.61004 -2.54525 0
M  V30 1180 H 115.429 -3.48441 -1.46277 0
M  V30 1181 H 115.742 -7.34425 -2.405 0
M  V30 1182 H 114.087 -6.60272 -2.16948 0
M  V30 1183 H 117.278 -4.34801 -1.73394 0
M  V30 1184 H 117.451 -6.10805 -2.16381 0
M  V30 1185 N 110.857 0.726932 -1.39834 0
M  V30 1186 C 112.134 1.47902 -1.28001 0
M  V30 1187 C 112.514 2.1083 0.106789 0
M  V30 1188 O 111.862 1.99242 1.11869 0
M  V30 1189 C 112.072 2.52392 -2.41038 0
M  V30 1190 C 113.42 3.18546 -2.80737 0
M  V30 1191 O 114.444 2.62708 -2.40547 0
M  V30 1192 O 113.303 4.19604 -3.50135 0
M  V30 1193 H 110.397 0.657163 -0.502062 0
M  V30 1194 H 112.943 0.760071 -1.51727 0
M  V30 1195 H 111.715 2.04329 -3.33715 0
M  V30 1196 H 111.338 3.31837 -2.19021 0
M  V30 1197 N 112.336 1.25143 0.95797 0
M  V30 1198 C 113.613 1.00472 1.67823 0
M  V30 1199 C 113.993 -0.470056 2.058 0
M  V30 1200 O 113.341 -1.44663 1.76875 0
M  V30 1201 C 113.551 1.9372 2.90299 0
M  V30 1202 C 114.899 2.21371 3.62326 0
M  V30 1203 O 115.923 1.91451 3.00375 0
M  V30 1204 O 114.782 2.72231 4.7387 0
M  V30 1205 H 111.876 0.380752 0.734137 0
M  V30 1206 H 114.422 1.36283 1.01119 0
M  V30 1207 H 113.194 2.93316 2.59001 0
M  V30 1208 H 112.817 1.58286 3.64735 0
M  V30 1209 N 113.814 -1.1601 1.06675 0
M  V30 1210 C 115.063 -1.85973 0.780818 0
M  V30 1211 C 115.376 -1.82819 -0.695444 0
M  V30 1212 O 116.582 -2.484 -1.09589 0
M  V30 1213 C 115.038 -3.33757 1.34665 0
M  V30 1214 C 114.646 -3.45374 2.85343 0
M  V30 1215 C 116.39 -4.0895 1.13843 0
M  V30 1216 C 114.297 -4.87266 3.35151 0
M  V30 1217 H 113.227 -0.696661 0.288407 0
M  V30 1218 H 115.878 -1.30903 1.28595 0
M  V30 1219 H 114.26 -3.88456 0.769274 0
M  V30 1220 H 115.434 -3.00816 3.49065 0
M  V30 1221 H 113.749 -2.83619 3.04876 0
M  V30 1222 H 116.346 -5.13654 1.4854 0
M  V30 1223 H 116.689 -4.16229 0.0770282 0
M  V30 1224 H 117.222 -3.605 1.68179 0
M  V30 1225 H 113.961 -4.85168 4.40786 0
M  V30 1226 H 113.481 -5.32433 2.76179 0
M  V30 1227 H 115.16 -5.56097 3.30704 0
M  V30 1228 N 115.292 -0.849877 -1.32721 0
M  V30 1229 C 116.538 -0.451591 -1.97708 0
M  V30 1230 C 116.871 0.989175 -1.6712 0
M  V30 1231 O 116.146 1.69334 -0.956891 0
M  V30 1232 C 116.429 -0.685598 -3.53513 0
M  V30 1233 C 116.282 -2.17444 -3.93749 0
M  V30 1234 C 117.601 -0.138874 -4.39881 0
M  V30 1235 H 114.72 -0.16555 -0.718166 0
M  V30 1236 H 117.362 -1.06742 -1.57182 0
M  V30 1237 H 115.512 -0.161416 -3.88165 0
M  V30 1238 H 117.184 -2.76433 -3.693 0
M  V30 1239 H 115.427 -2.65476 -3.43081 0
M  V30 1240 H 116.098 -2.28888 -5.02309 0
M  V30 1241 H 118.574 -0.587068 -4.11938 0
M  V30 1242 H 117.45 -0.332213 -5.47894 0
M  V30 1243 H 117.711 0.95806 -4.31594 0
M  V30 1244 N 116.77 1.45427 -0.607355 0
M  V30 1245 C 118 2.06314 -0.108656 0
M  V30 1246 C 118.408 1.45269 1.21217 0
M  V30 1247 O 117.751 0.561115 1.74921 0
M  V30 1248 C 117.813 3.59345 0.105618 0
M  V30 1249 C 117.477 4.42723 -1.13337 0
M  V30 1250 C 118.474 4.77715 -2.05145 0
M  V30 1251 C 116.159 4.83478 -1.36213 0
M  V30 1252 C 118.153 5.52317 -3.18158 0
M  V30 1253 C 115.84 5.57835 -2.49527 0
M  V30 1254 C 116.838 5.92171 -3.40327 0
M  V30 1255 O 116.526 6.65019 -4.51669 0
M  V30 1256 H 116.258 0.672782 -0.0658842 0
M  V30 1257 H 118.812 1.87664 -0.834945 0
M  V30 1258 H 117.042 3.76394 0.886796 0
M  V30 1259 H 118.731 4.02076 0.555886 0
M  V30 1260 H 119.497 4.46787 -1.88697 0
M  V30 1261 H 115.376 4.56188 -0.664362 0
M  V30 1262 H 118.92 5.79036 -3.89054 0
M  V30 1263 H 114.817 5.88177 -2.65928 0
M  V30 1264 H 115.585 6.83469 -4.50348 0
M  V30 1265 N 118.248 0.346503 1.53744 0
M  V30 1266 C 119.494 -0.249473 2.0126 0
M  V30 1267 C 119.827 -1.49965 1.23386 0
M  V30 1268 O 119.102 -1.91811 0.32229 0
M  V30 1269 C 119.385 -0.560643 3.55709 0
M  V30 1270 C 119.238 0.701836 4.44291 0
M  V30 1271 C 120.557 -1.36905 4.18264 0
M  V30 1272 H 117.676 -0.0891987 0.731582 0
M  V30 1273 H 120.318 0.467624 1.84156 0
M  V30 1274 H 118.468 -1.17156 3.70414 0
M  V30 1275 H 120.14 1.33974 4.41417 0
M  V30 1276 H 118.383 1.32612 4.13033 0
M  V30 1277 H 119.054 0.43933 5.50249 0
M  V30 1278 H 121.53 -0.852448 4.07275 0
M  V30 1279 H 120.406 -1.55553 5.26398 0
M  V30 1280 H 120.667 -2.37203 3.73078 0
M  V30 1281 N 119.726 -1.57421 0.075193 0
M  V30 1282 C 121.137 -1.81021 -0.456964 0
M  V30 1283 C 121.488 -0.98936 -1.69429 0
M  V30 1284 O 120.613 -0.212865 -2.15351 0
M  V30 1285 C 121.208 -3.28329 -0.83581 0
M  V30 1286 C 119.767 -3.52764 -1.31281 0
M  V30 1287 C 118.914 -2.75676 -0.299648 0
M  V30 1288 H 121.865 -1.55822 0.300856 0
M  V30 1289 H 121.886 -3.40564 -1.69696 0
M  V30 1290 H 121.398 -3.88046 0.0649238 0
M  V30 1291 H 119.499 -2.98355 -2.23193 0
M  V30 1292 H 119.612 -4.61451 -1.28839 0
M  V30 1293 H 117.976 -2.42538 -0.777641 0
M  V30 1294 H 118.759 -3.38132 0.593417 0
M  V30 1295 N 121.204 0.198386 -1.56346 0
M  V30 1296 C 122.114 1.2664 -1.97483 0
M  V30 1297 C 123.13 1.49989 -0.882002 0
M  V30 1298 O 124.306 1.62668 -1.18748 0
M  V30 1299 C 121.371 2.59141 -2.30319 0
M  V30 1300 C 120.432 2.43892 -3.53292 0
M  V30 1301 C 119.665 3.70074 -3.84553 0
M  V30 1302 O 119.888 4.74101 -3.1715 0
M  V30 1303 O 118.822 3.658 -4.7799 0
M  V30 1304 H 122.648 0.947304 -2.88548 0
M  V30 1305 H 120.233 0.403123 -1.43859 0
M  V30 1306 H 122.115 3.37352 -2.5253 0
M  V30 1307 H 120.79 2.90684 -1.42423 0
M  V30 1308 H 119.697 1.63803 -3.36332 0
M  V30 1309 H 121.03 2.17282 -4.41644 0
M  V30 1310 N 122.682 1.50554 0.465978 0
M  V30 1311 C 124.093 1.54599 1.04671 0
M  V30 1312 C 124.444 0.352488 1.93008 0
M  V30 1313 O 123.569 -0.534044 2.09707 0
M  V30 1314 C 124.164 2.80166 1.90505 0
M  V30 1315 C 122.723 2.86876 2.43678 0
M  V30 1316 C 121.87 2.48947 1.22151 0
M  V30 1317 H 124.821 1.56744 0.248384 0
M  V30 1318 H 124.842 2.62311 2.75633 0
M  V30 1319 H 124.354 3.67013 1.26186 0
M  V30 1320 H 122.455 2.04393 3.11536 0
M  V30 1321 H 122.568 3.89885 2.78436 0
M  V30 1322 H 120.932 2.01498 1.5579 0
M  V30 1323 H 121.715 3.38107 0.594866 0
M  V30 1324 N 124.16 -0.719506 1.40217 0
M  V30 1325 C 125.093 -1.84298 1.34571 0
M  V30 1326 C 126.071 -1.61149 0.216741 0
M  V30 1327 O 127.255 -1.84212 0.399756 0
M  V30 1328 C 124.382 -3.20568 1.09335 0
M  V30 1329 C 123.428 -3.62551 2.24631 0
M  V30 1330 S 124.261 -3.7012 3.87004 0
M  V30 1331 C 125.417 -5.09154 3.64024 0
M  V30 1332 H 125.65 -1.88807 2.2965 0
M  V30 1333 H 123.183 -0.885901 1.26456 0
M  V30 1334 H 125.141 -3.99246 0.954602 0
M  V30 1335 H 123.802 -3.13696 0.159164 0
M  V30 1336 H 122.995 -4.61483 2.02606 0
M  V30 1337 H 122.597 -2.91119 2.34789 0
M  V30 1338 H 124.889 -5.95955 3.22248 0
M  V30 1339 H 125.832 -5.36213 4.62473 0
M  V30 1340 H 126.24 -4.79562 2.97793 0
M  V30 1341 N 125.638 -1.25649 -0.95132 0
M  V30 1342 C 126.866 -1.13343 -1.73092 0
M  V30 1343 C 127.281 0.312434 -1.86197 0
M  V30 1344 O 126.638 1.21465 -1.36207 0
M  V30 1345 C 126.689 -1.78602 -3.14299 0
M  V30 1346 O 126.41 -3.17537 -3.01831 0
M  V30 1347 C 127.911 -1.72119 -4.08522 0
M  V30 1348 H 125.131 -0.395181 -0.542285 0
M  V30 1349 H 127.675 -1.66076 -1.19328 0
M  V30 1350 H 125.83 -1.29832 -3.64996 0
M  V30 1351 H 126.244 -3.49676 -3.90931 0
M  V30 1352 H 127.718 -2.22435 -5.052 0
M  V30 1353 H 128.195 -0.685635 -4.33815 0
M  V30 1354 H 128.801 -2.20393 -3.63741 0
M  V30 1355 N 127.117 1.15442 -1.07289 0
M  V30 1356 C 128.347 1.89821 -0.815576 0
M  V30 1357 C 128.755 1.7823 0.634867 0
M  V30 1358 O 128.098 1.13152 1.44715 0
M  V30 1359 C 128.16 3.40817 -1.14385 0
M  V30 1360 C 127.824 3.76193 -2.59476 0
M  V30 1361 C 128.821 3.77269 -3.57721 0
M  V30 1362 C 126.506 4.0652 -2.95037 0
M  V30 1363 C 128.5 4.08176 -4.89562 0
M  V30 1364 C 126.187 4.37092 -4.27076 0
M  V30 1365 C 127.185 4.37902 -5.24148 0
M  V30 1366 O 126.873 4.67741 -6.53815 0
M  V30 1367 H 126.605 0.608465 -0.294528 0
M  V30 1368 H 129.159 1.472 -1.43252 0
M  V30 1369 H 127.389 3.83835 -0.469865 0
M  V30 1370 H 129.078 3.96485 -0.869179 0
M  V30 1371 H 129.844 3.5394 -3.3159 0
M  V30 1372 H 125.723 4.05049 -2.20128 0
M  V30 1373 H 129.267 4.08723 -5.65324 0
M  V30 1374 H 125.164 4.59889 -4.5296 0
M  V30 1375 H 125.932 4.85509 -6.58957 0
M  V30 1376 N 128.595 0.856903 1.32268 0
M  V30 1377 C 129.841 0.471355 1.97863 0
M  V30 1378 C 130.196 -0.962896 1.66572 0
M  V30 1379 O 129.489 -1.66686 0.944797 0
M  V30 1380 C 129.683 0.649919 3.51441 0
M  V30 1381 C 129.512 2.09997 3.97657 0
M  V30 1382 C 128.282 2.73893 4.2463 0
M  V30 1383 C 130.48 3.07081 4.1256 0
M  V30 1384 N 128.462 4.09786 4.57109 0
M  V30 1385 C 129.833 4.27968 4.48602 0
M  V30 1386 C 131.888 3.03247 3.949 0
M  V30 1387 C 130.591 5.45521 4.68827 0
M  V30 1388 C 132.617 4.20046 4.16311 0
M  V30 1389 C 131.979 5.39692 4.52672 0
M  V30 1390 H 128.078 0.221263 0.750044 0
M  V30 1391 H 130.662 1.10876 1.60045 0
M  V30 1392 H 128.833 0.0421938 3.88377 0
M  V30 1393 H 130.565 0.234044 4.04023 0
M  V30 1394 H 127.32 2.24918 4.16784 0
M  V30 1395 H 127.744 4.7989 4.7753 0
M  V30 1396 H 132.386 2.11863 3.65888 0
M  V30 1397 H 130.104 6.37434 4.96693 0
M  V30 1398 H 133.69 4.18517 4.04147 0
M  V30 1399 H 132.57 6.28566 4.68907 0
M  V30 1400 N 130.073 -1.45103 0.615059 0
M  V30 1401 C 131.489 -1.57137 0.279322 0
M  V30 1402 C 131.689 -1.60523 -1.21797 0
M  V30 1403 O 130.745 -1.53956 -2.00134 0
M  V30 1404 C 132.058 -2.85062 0.957083 0
M  V30 1405 C 133.606 -2.98749 0.933706 0
M  V30 1406 C 134.081 -4.29455 1.59162 0
M  V30 1407 N 135.572 -4.36231 1.55746 0
M  V30 1408 C 136.307 -5.36051 2.0356 0
M  V30 1409 N 135.803 -6.42367 2.59494 0
M  V30 1410 N 137.596 -5.27456 1.94284 0
M  V30 1411 H 129.747 -1.41148 1.58717 0
M  V30 1412 H 132.01 -0.675331 0.665306 0
M  V30 1413 H 131.716 -2.88488 2.01166 0
M  V30 1414 H 131.59 -3.7407 0.48494 0
M  V30 1415 H 133.977 -2.94886 -0.112347 0
M  V30 1416 H 134.058 -2.11132 1.44419 0
M  V30 1417 H 133.702 -4.34077 2.63704 0
M  V30 1418 H 133.632 -5.15901 1.0561 0
M  V30 1419 H 136.123 -3.60011 1.14893 0
M  V30 1420 H 136.436 -7.14793 2.93752 0
M  V30 1421 H 134.781 -6.43097 2.63537 0
M  V30 1422 H 137.972 -4.43308 1.5032 0
M  V30 1423 H 138.145 -6.05099 2.3186 0
M  V30 1424 N 131.551 -0.354651 -1.53558 0
M  V30 1425 C 132.797 0.238797 -2.01389 0
M  V30 1426 C 133.13 1.49309 -1.2418 0
M  V30 1427 O 132.405 1.91638 -0.332457 0
M  V30 1428 C 132.688 0.541771 -3.56001 0
M  V30 1429 C 132.541 -0.725388 -4.43912 0
M  V30 1430 C 133.86 1.34685 -4.18984 0
M  V30 1431 H 130.979 0.0853177 -0.732045 0
M  V30 1432 H 133.621 -0.477384 -1.83905 0
M  V30 1433 H 131.771 1.15189 -3.71031 0
M  V30 1434 H 133.443 -1.36313 -4.407 0
M  V30 1435 H 131.686 -1.34801 -4.12324 0
M  V30 1436 H 132.357 -0.468505 -5.50008 0
M  V30 1437 H 134.833 0.830837 -4.07721 0
M  V30 1438 H 133.709 1.52759 -5.27215 0
M  V30 1439 H 133.97 2.35221 -3.74331 0
M  V30 1440 N 133.029 1.57378 -0.0835403 0
M  V30 1441 C 133.959 2.1641 0.87686 0
M  V30 1442 C 134.94 1.09429 1.30228 0
M  V30 1443 O 136.125 1.37516 1.37124 0
M  V30 1444 C 133.255 2.73517 2.14022 0
M  V30 1445 C 132.209 3.85769 1.85381 0
M  V30 1446 C 131.535 4.29529 3.18448 0
M  V30 1447 C 132.835 5.09486 1.14984 0
M  V30 1448 H 134.529 2.96914 0.385059 0
M  V30 1449 H 132.075 1.42823 0.18377 0
M  V30 1450 H 134.028 3.13463 2.81636 0
M  V30 1451 H 132.752 1.90252 2.65465 0
M  V30 1452 H 131.411 3.46345 1.20169 0
M  V30 1453 H 131.059 3.43169 3.67755 0
M  V30 1454 H 130.759 5.05204 3.00071 0
M  V30 1455 H 132.283 4.72099 3.8724 0
M  V30 1456 H 133.697 5.46674 1.72687 0
M  V30 1457 H 132.094 5.90515 1.06826 0
M  V30 1458 H 133.164 4.84724 0.130749 0
M  V30 1459 N 134.507 -0.190092 1.56449 0
M  V30 1460 C 135.755 -0.907908 1.80559 0
M  V30 1461 C 136.076 -1.83583 0.657438 0
M  V30 1462 O 135.346 -1.93203 -0.323924 0
M  V30 1463 H 133.926 -0.338247 0.666032 0
M  V30 1464 H 136.588 -0.194403 1.93928 0
M  V30 1465 H 135.684 -1.49604 2.73907 0
M  V30 1466 N 135.985 -1.50799 -0.457987 0
M  V30 1467 C 136.948 -1.7005 -1.53674 0
M  V30 1468 C 137.948 -0.570881 -1.50325 0
M  V30 1469 O 139.138 -0.838126 -1.52712 0
M  V30 1470 C 136.27 -1.73788 -2.93276 0
M  V30 1471 H 137.463 -2.66306 -1.37917 0
M  V30 1472 H 135.016 -1.40477 -0.685271 0
M  V30 1473 H 135.751 -0.792717 -3.14462 0
M  V30 1474 H 135.536 -2.55864 -2.97113 0
M  V30 1475 H 137.026 -1.90591 -3.71571 0
M  V30 1476 N 137.463 0.71206 -1.40597 0
M  V30 1477 C 138.688 1.50617 -1.42581 0
M  V30 1478 C 139.113 1.88079 -0.0282102 0
M  V30 1479 O 138.471 1.53511 0.964579 0
M  V30 1480 C 138.519 2.7557 -2.3258 0
M  V30 1481 O 137.623 3.72414 -1.77148 0
M  V30 1482 H 136.964 0.453966 -0.484573 0
M  V30 1483 H 139.494 0.876649 -1.84868 0
M  V30 1484 H 139.504 3.2406 -2.47889 0
M  V30 1485 H 138.179 2.47639 -3.34138 0
M  V30 1486 H 136.756 3.31276 -1.71204 0
M  V30 1487 N 138.941 1.26152 0.944643 0
M  V30 1488 C 139.851 1.09176 2.07648 0
M  V30 1489 C 140.867 0.0261935 1.7398 0
M  V30 1490 O 142.043 0.229208 2.00091 0
M  V30 1491 C 139.108 0.722915 3.39079 0
M  V30 1492 C 138.169 1.86752 3.86552 0
M  V30 1493 C 137.402 1.51617 5.11711 0
M  V30 1494 O 137.625 0.416331 5.68879 0
M  V30 1495 O 136.559 2.34975 5.54139 0
M  V30 1496 H 140.385 2.0412 2.24875 0
M  V30 1497 H 137.97 1.05182 1.061 0
M  V30 1498 H 139.852 0.529787 4.18056 0
M  V30 1499 H 138.527 -0.197159 3.23099 0
M  V30 1500 H 137.434 2.11558 3.08535 0
M  V30 1501 H 138.767 2.76719 4.07047 0
M  V30 1502 N 140.419 -1.14872 1.07899 0
M  V30 1503 C 141.647 -1.89661 0.82683 0
M  V30 1504 C 142.062 -1.78312 -0.620519 0
M  V30 1505 O 141.419 -1.13888 -1.42604 0
M  V30 1506 C 141.47 -3.39817 1.23316 0
M  V30 1507 O 141.191 -3.50845 2.62372 0
M  V30 1508 C 142.692 -4.31615 1.0111 0
M  V30 1509 H 139.912 -0.60092 0.298557 0
M  V30 1510 H 142.456 -1.4551 1.43691 0
M  V30 1511 H 140.611 -3.8161 0.667286 0
M  V30 1512 H 141.025 -4.44076 2.79101 0
M  V30 1513 H 142.499 -5.35367 1.34486 0
M  V30 1514 H 142.976 -4.39169 -0.0522168 0
M  V30 1515 H 143.582 -3.95572 1.56215 0
M  V30 1516 N 141.898 -0.863906 -1.31812 0
M  V30 1517 C 143.147 -0.46801 -1.96195 0
M  V30 1518 C 143.46 0.983474 -1.69077 0
M  V30 1519 O 144.666 1.48523 -2.27273 0
M  V30 1520 C 143.122 -0.785995 -3.51212 0
M  V30 1521 C 142.73 -2.25383 -3.87178 0
M  V30 1522 C 144.474 -0.458274 -4.22019 0
M  V30 1523 C 142.381 -2.51455 -5.3528 0
M  V30 1524 H 141.311 -0.171283 -0.734287 0
M  V30 1525 H 143.962 -1.05597 -1.50072 0
M  V30 1526 H 142.344 -0.127359 -3.95795 0
M  V30 1527 H 143.518 -2.95502 -3.53575 0
M  V30 1528 H 141.833 -2.54698 -3.2942 0
M  V30 1529 H 144.43 -0.630369 -5.30971 0
M  V30 1530 H 144.773 0.600834 -4.11941 0
M  V30 1531 H 145.306 -1.07319 -3.8305 0
M  V30 1532 H 142.045 -3.56025 -5.50387 0
M  V30 1533 H 141.565 -1.85923 -5.70257 0
M  V30 1534 H 143.244 -2.35874 -6.02472 0
M  V30 1535 N 143.376 1.44774 -0.622745 0
M  V30 1536 C 144.339 2.29069 0.0774015 0
M  V30 1537 C 145.339 1.4059 0.780461 0
M  V30 1538 O 146.529 1.62551 0.626322 0
M  V30 1539 C 143.661 3.21974 1.12006 0
M  V30 1540 H 144.854 2.92459 -0.663901 0
M  V30 1541 H 142.407 1.51548 -0.382486 0
M  V30 1542 H 143.142 2.63417 1.89162 0
M  V30 1543 H 142.927 3.87168 0.619951 0
M  V30 1544 H 144.417 3.85318 1.60995 0
M  V30 1545 N 144.854 0.36279 1.53368 0
M  V30 1546 C 145.802 -0.500155 2.27159 0
M  V30 1547 C 146.796 -1.08575 1.3003 0
M  V30 1548 O 148.002 -1.02927 1.47668 0
M  V30 1549 H 144.377 -0.180009 0.730138 0
M  V30 1550 H 146.348 0.14401 2.98052 0
M  V30 1551 C 145.097 -1.62937 3.07159 0
M  V30 1552 H 144.42 -1.18806 3.8174 0
M  V30 1553 H 145.86 -2.20795 3.61975 0
M  V30 1554 C 144.319 -2.57007 2.17829 0
M  V30 1555 O 144.849 -3.59752 1.78721 0
M  V30 1556 N 143.055 -2.26131 1.82518 0
M  V30 1557 H 142.602 -1.42616 2.14519 0
M  V30 1558 H 142.56 -2.89327 1.23034 0
M  V30 1559 N 146.332 -1.57332 0.0918853 0
M  V30 1560 C 147.581 -1.93412 -0.572249 0
M  V30 1561 C 147.894 -0.975515 -1.69538 0
M  V30 1562 O 149.1 -1.22991 -2.42045 0
M  V30 1563 C 147.556 -3.43648 -1.0693 0
M  V30 1564 C 147.164 -4.47994 0.0239049 0
M  V30 1565 C 148.908 -3.88695 -1.70635 0
M  V30 1566 C 146.815 -5.89381 -0.488319 0
M  V30 1567 H 145.745 -0.721939 -0.217532 0
M  V30 1568 H 148.396 -1.82735 0.167369 0
M  V30 1569 H 146.778 -3.49466 -1.8625 0
M  V30 1570 H 147.952 -4.53815 0.799277 0
M  V30 1571 H 146.267 -4.12536 0.565946 0
M  V30 1572 H 148.864 -4.91725 -2.10025 0
M  V30 1573 H 149.207 -3.27166 -2.57426 0
M  V30 1574 H 149.74 -3.85564 -0.979023 0
M  V30 1575 H 146.479 -6.54602 0.342906 0
M  V30 1576 H 145.999 -5.87037 -1.23077 0
M  V30 1577 H 147.678 -6.39863 -0.958317 0
M  V30 1578 N 147.81 0.181792 -1.56548 0
M  V30 1579 C 149.04 0.914618 -1.85252 0
M  V30 1580 C 149.448 1.76791 -0.673914 0
M  V30 1581 O 148.791 1.80009 0.366416 0
M  V30 1582 C 148.853 1.85019 -3.08234 0
M  V30 1583 C 148.517 1.17754 -4.41569 0
M  V30 1584 C 149.514 0.548035 -5.17003 0
M  V30 1585 C 147.199 1.17742 -4.88305 0
M  V30 1586 C 149.193 -0.0726128 -6.37359 0
M  V30 1587 C 146.88 0.552946 -6.08593 0
M  V30 1588 C 147.878 -0.070978 -6.82963 0
M  V30 1589 O 147.566 -0.685635 -8.00971 0
M  V30 1590 H 147.298 0.271695 -0.618998 0
M  V30 1591 H 149.852 0.189944 -2.0452 0
M  V30 1592 H 148.082 2.61491 -2.84885 0
M  V30 1593 H 149.771 2.45195 -3.23472 0
M  V30 1594 H 150.537 0.540174 -4.81982 0
M  V30 1595 H 146.416 1.65246 -4.30366 0
M  V30 1596 H 149.96 -0.560213 -6.95347 0
M  V30 1597 H 145.857 0.558354 -6.43081 0
M  V30 1598 H 146.625 -0.58385 -8.16415 0
M  V30 1599 N 149.288 1.51039 0.449983 0
M  V30 1600 C 150.516 1.66869 1.2232 0
M  V30 1601 C 150.931 0.360727 1.85322 0
M  V30 1602 O 150.288 -0.659531 1.70166 0
M  V30 1603 C 150.339 2.77524 2.31652 0
M  V30 1604 O 150.06 4.03252 1.7123 0
M  V30 1605 C 151.561 3.04512 3.2216 0
M  V30 1606 H 148.781 0.560326 0.369155 0
M  V30 1607 H 151.325 1.97385 0.534719 0
M  V30 1608 H 149.48 2.49642 2.96239 0
M  V30 1609 H 149.894 4.64609 2.43389 0
M  V30 1610 H 151.368 3.85551 3.95038 0
M  V30 1611 H 151.845 2.16415 3.8218 0
M  V30 1612 H 152.451 3.34005 2.63288 0
M  V30 1613 N 150.766 -0.704594 1.40972 0
M  V30 1614 C 151.994 -1.49354 1.43182 0
M  V30 1615 C 152.409 -1.88768 0.0345508 0
M  V30 1616 O 151.766 -1.56184 -0.944081 0
M  V30 1617 C 151.817 -2.76187 2.33244 0
M  V30 1618 O 151.538 -2.38436 3.67532 0
M  V30 1619 C 153.039 -3.7 2.44162 0
M  V30 1620 H 150.259 -0.460559 0.487982 0
M  V30 1621 H 152.803 -0.868261 1.85153 0
M  V30 1622 H 150.958 -3.34974 1.94606 0
M  V30 1623 H 151.372 -3.20126 4.15475 0
M  V30 1624 H 152.846 -4.55803 3.11364 0
M  V30 1625 H 153.323 -4.13867 1.47006 0
M  V30 1626 H 153.929 -3.17121 2.83398 0
M  V30 1627 N 152.244 -1.26651 -0.937939 0
M  V30 1628 C 153.176 -1.04283 -2.04102 0
M  V30 1629 C 154.189 -0.00221014 -1.628 0
M  V30 1630 O 155.378 -0.242645 -1.76843 0
M  V30 1631 C 152.478 -0.557846 -3.34277 0
M  V30 1632 C 151.651 -1.66843 -4.04329 0
M  V30 1633 C 150.71 -1.18095 -5.12777 0
M  V30 1634 O 149.736 -1.87865 -5.37304 0
M  V30 1635 N 150.938 -0.0311006 -5.80492 0
M  V30 1636 H 153.703 -1.9927 -2.23856 0
M  V30 1637 H 151.264 -1.1808 -1.10764 0
M  V30 1638 H 153.256 -0.215836 -4.04124 0
M  V30 1639 H 151.826 0.298523 -3.11171 0
M  V30 1640 H 151.046 -2.18123 -3.28353 0
M  V30 1641 H 152.334 -2.41408 -4.47883 0
M  V30 1642 H 151.732 0.551486 -5.63005 0
M  V30 1643 H 150.289 0.251809 -6.51313 0
M  V30 1644 N 153.722 1.14298 -1.08507 0
M  V30 1645 C 154.672 2.17449 -0.685569 0
M  V30 1646 C 155.656 1.58167 0.295315 0
M  V30 1647 O 156.848 1.76675 0.107172 0
M  V30 1648 C 153.977 3.43161 -0.0975318 0
M  V30 1649 C 153.063 4.09471 -1.10426 0
M  V30 1650 N 153.454 4.51089 -2.28806 0
M  V30 1651 C 151.752 4.35976 -0.940258 0
M  V30 1652 C 152.453 5.02654 -2.9277 0
M  V30 1653 N 151.429 4.96927 -2.20374 0
M  V30 1654 H 155.231 2.47369 -1.587 0
M  V30 1655 H 152.745 1.30992 -0.959936 0
M  V30 1656 H 154.742 4.16388 0.20664 0
M  V30 1657 H 153.402 3.14719 0.798872 0
M  V30 1658 H 154.413 4.44097 -2.66455 0
M  V30 1659 H 151.09 4.17386 -0.0977441 0
M  V30 1660 H 152.48 5.44723 -3.93352 0
M  V30 1661 N 155.201 0.870884 1.31352 0
M  V30 1662 C 156.617 0.562932 1.49343 0
M  V30 1663 C 156.817 -0.902725 1.80148 0
M  V30 1664 O 155.873 -1.68484 1.88067 0
M  V30 1665 C 157.186 1.46393 2.62659 0
M  V30 1666 C 158.734 1.46607 2.76542 0
M  V30 1667 C 159.209 2.35266 3.92955 0
M  V30 1668 N 160.7 2.33151 4.00243 0
M  V30 1669 C 161.435 2.98471 4.89594 0
M  V30 1670 N 160.931 3.72964 5.8384 0
M  V30 1671 N 162.724 2.87775 4.82848 0
M  V30 1672 H 154.875 1.81923 1.09626 0
M  V30 1673 H 157.138 0.777934 0.541777 0
M  V30 1674 H 156.844 2.50689 2.46674 0
M  V30 1675 H 156.718 1.16314 3.58819 0
M  V30 1676 H 159.105 0.43069 2.9194 0
M  V30 1677 H 159.186 1.8071 1.81046 0
M  V30 1678 H 158.83 3.38881 3.78315 0
M  V30 1679 H 158.76 1.98487 4.87761 0
M  V30 1680 H 161.251 1.79006 3.32814 0
M  V30 1681 H 161.564 4.19932 6.4875 0
M  V30 1682 H 159.909 3.77073 5.83816 0
M  V30 1683 H 163.1 2.29116 4.08195 0
M  V30 1684 H 163.273 3.38961 5.52277 0
M  V30 1685 N 156.679 -1.44442 0.630414 0
M  V30 1686 C 157.609 -2.33418 -0.0618083 0
M  V30 1687 C 158.59 -1.48165 -0.835541 0
M  V30 1688 O 159.775 -1.76886 -0.801564 0
M  V30 1689 C 156.905 -3.31222 -1.04449 0
M  V30 1690 C 155.859 -4.26288 -0.382436 0
M  V30 1691 C 155.185 -5.13954 -1.47497 0
M  V30 1692 C 156.485 -5.1744 0.710865 0
M  V30 1693 H 158.179 -2.91548 0.681184 0
M  V30 1694 H 155.725 -1.40191 0.329026 0
M  V30 1695 H 157.678 -3.92351 -1.53748 0
M  V30 1696 H 156.402 -2.71299 -1.81836 0
M  V30 1697 H 155.061 -3.6649 0.0899054 0
M  V30 1698 H 154.709 -4.50385 -2.2397 0
M  V30 1699 H 154.409 -5.7837 -1.03737 0
M  V30 1700 H 155.933 -5.77955 -1.96979 0
M  V30 1701 H 157.347 -5.72509 0.300996 0
M  V30 1702 H 155.744 -5.90455 1.07156 0
M  V30 1703 H 156.814 -4.58496 1.57829 0
M  V30 1704 N 158.157 -0.370918 -1.53173 0
M  V30 1705 C 159.434 0.273754 -1.93675 0
M  V30 1706 C 159.814 1.65938 -1.3049 0
M  V30 1707 O 159.162 2.23698 -0.465999 0
M  V30 1708 C 159.372 0.318602 -3.47543 0
M  V30 1709 C 160.72 0.556392 -4.20939 0
M  V30 1710 O 161.744 0.399587 -3.53952 0
M  V30 1711 O 160.603 0.862133 -5.39657 0
M  V30 1712 H 157.697 0.165448 -0.810281 0
M  V30 1713 H 160.243 -0.42409 -1.64315 0
M  V30 1714 H 159.015 -0.652687 -3.85818 0
M  V30 1715 H 158.638 1.06212 -3.83151 0
M  V30 1716 N 159.635 1.57281 -0.100228 0
M  V30 1717 C 160.567 2.11342 0.886972 0
M  V30 1718 C 161.58 1.05182 1.24261 0
M  V30 1719 O 162.769 1.32613 1.19483 0
M  V30 1720 C 159.869 2.5825 2.19454 0
M  V30 1721 C 159.042 3.88302 2.01346 0
M  V30 1722 C 158.101 4.21004 3.15661 0
M  V30 1723 O 157.127 4.9014 2.89398 0
M  V30 1724 N 158.329 3.76818 4.41575 0
M  V30 1725 H 161.094 2.96668 0.425216 0
M  V30 1726 H 158.655 1.61678 0.0847334 0
M  V30 1727 H 160.647 2.7717 2.94888 0
M  V30 1728 H 159.217 1.77907 2.57037 0
M  V30 1729 H 158.437 3.7848 1.10212 0
M  V30 1730 H 159.725 4.73375 1.8653 0
M  V30 1731 H 159.123 3.2102 4.65792 0
M  V30 1732 H 157.68 4.00882 5.13942 0
M  V30 1733 N 161.113 -0.173488 1.56642 0
M  V30 1734 C 162.361 -0.888706 1.81512 0
M  V30 1735 C 162.682 -1.82875 0.676872 0
M  V30 1736 O 161.952 -1.93536 -0.303414 0
M  V30 1737 H 160.532 -0.331164 0.669582 0
M  V30 1738 H 163.194 -0.173823 1.94123 0
M  V30 1739 H 162.29 -1.46691 2.75478 0
M  V30 1740 N 162.591 -1.51276 -0.441967 0
M  V30 1741 C 163.501 -1.75092 -1.56141 0
M  V30 1742 C 164.517 -0.634963 -1.62001 0
M  V30 1743 O 165.693 -0.916686 -1.79329 0
M  V30 1744 C 162.758 -1.86666 -2.92158 0
M  V30 1745 C 161.819 -3.10506 -2.96453 0
M  V30 1746 C 161.052 -3.21519 -4.25982 0
M  V30 1747 O 161.275 -2.38586 -5.18105 0
M  V30 1748 O 160.209 -4.14465 -4.36466 0
M  V30 1749 H 164.035 -2.70044 -1.38961 0
M  V30 1750 H 161.62 -1.35722 -0.624499 0
M  V30 1751 H 163.502 -1.96292 -3.72891 0
M  V30 1752 H 162.177 -0.949014 -3.09476 0
M  V30 1753 H 161.084 -3.06363 -2.14692 0
M  V30 1754 H 162.417 -4.01945 -2.84079 0
M  V30 1755 N 164.069 0.697108 -1.41344 0
M  V30 1756 C 165.318 1.45279 -1.39918 0
M  V30 1757 C 165.631 1.95597 -0.0109624 0
M  V30 1758 O 166.837 2.71208 0.125919 0
M  V30 1759 C 165.293 2.62695 -2.46007 0
M  V30 1760 C 164.901 2.19169 -3.90729 0
M  V30 1761 C 166.645 3.40336 -2.53715 0
M  V30 1762 C 164.552 3.33535 -4.88373 0
M  V30 1763 H 163.482 0.545692 -0.520323 0
M  V30 1764 H 166.133 0.756929 -1.67161 0
M  V30 1765 H 164.515 3.34541 -2.11892 0
M  V30 1766 H 165.689 1.54623 -4.34083 0
M  V30 1767 H 164.004 1.54525 -3.86666 0
M  V30 1768 H 166.601 4.2547 -3.2385 0
M  V30 1769 H 166.944 3.85418 -1.5735 0
M  V30 1770 H 167.477 2.75546 -2.86913 0
M  V30 1771 H 164.216 2.93468 -5.86137 0
M  V30 1772 H 163.736 3.96936 -4.49668 0
M  V30 1773 H 165.415 3.99335 -5.09059 0
M  V30 1774 N 165.547 1.27147 0.931209 0
M  V30 1775 C 166.772 1.16191 1.71797 0
M  V30 1776 C 167.197 -0.278004 1.86034 0
M  V30 1777 O 166.555 -1.20137 1.35782 0
M  V30 1778 C 166.603 1.84673 3.09723 0
M  V30 1779 O 165.707 1.14231 3.96264 0
M  V30 1780 H 165.048 0.404303 0.526721 0
M  V30 1781 H 167.578 1.68152 1.1656 0
M  V30 1782 H 167.588 1.91893 3.60057 0
M  V30 1783 H 166.263 2.89421 2.98677 0
M  V30 1784 H 164.84 1.15056 3.54706 0
M  V30 1785 N 167.025 -1.13721 1.09112 0
M  V30 1786 C 167.988 -2.17222 0.731241 0
M  V30 1787 C 168.988 -1.59035 -0.237566 0
M  V30 1788 O 170.178 -1.74192 -0.0161704 0
M  V30 1789 C 167.31 -3.40804 0.0808443 0
M  V30 1790 H 168.503 -2.50573 1.64783 0
M  V30 1791 H 166.056 -1.28493 0.889897 0
M  V30 1792 H 166.791 -3.1304 -0.847127 0
M  V30 1793 H 166.576 -3.84306 0.777896 0
M  V30 1794 H 168.066 -4.1731 -0.155657 0
M  V30 1795 N 168.503 -0.877838 -1.30888 0
M  V30 1796 C 169.751 -0.491723 -1.96027 0
M  V30 1797 C 170.072 0.960827 -1.69685 0
M  V30 1798 O 169.342 1.67462 -1.01654 0
M  V30 1799 H 167.922 -0.17885 -0.725273 0
M  V30 1800 H 170.584 -1.11935 -1.59551 0
M  V30 1801 H 169.68 -0.656016 -3.05128 0
M  V30 1802 N 169.982 1.44106 -0.638065 0
M  V30 1803 C 171.259 1.95453 -0.0759321 0
M  V30 1804 C 171.639 1.57984 1.40015 0
M  V30 1805 O 170.987 0.857361 2.11806 0
M  V30 1806 C 171.197 3.47655 -0.306132 0
M  V30 1807 C 172.545 4.24114 -0.203008 0
M  V30 1808 O 173.569 3.55405 -0.237871 0
M  V30 1809 O 172.428 5.46381 -0.113827 0
M  V30 1810 H 169.522 0.826797 0.0183332 0
M  V30 1811 H 172.068 1.54122 -0.710251 0
M  V30 1812 H 170.84 3.68 -1.3301 0
M  V30 1813 H 170.463 3.95949 0.361991 0
M  V30 1814 N 171.46 0.379036 1.52974 0
M  V30 1815 C 172.423 -0.448865 2.24762 0
M  V30 1816 C 173.423 -0.998689 1.26027 0
M  V30 1817 O 174.613 -0.882313 1.50203 0
M  V30 1818 C 171.745 -1.62872 2.99476 0
M  V30 1819 H 172.938 0.179491 2.99362 0
M  V30 1820 H 170.491 0.13096 1.5575 0
M  V30 1821 H 171.226 -2.29479 2.29151 0
M  V30 1822 H 171.011 -1.24128 3.71934 0
M  V30 1823 H 172.501 -2.2151 3.5401 0
M  V30 1824 N 172.938 -1.57226 0.108567 0
M  V30 1825 C 173.901 -2.13602 -0.831082 0
M  V30 1826 C 174.901 -1.06841 -1.20173 0
M  V30 1827 O 176.091 -1.32666 -1.12895 0
M  V30 1828 C 173.223 -2.66769 -2.12243 0
M  V30 1829 H 174.416 -2.97951 -0.341317 0
M  V30 1830 H 171.969 -1.55667 -0.14057 0
M  V30 1831 H 172.704 -1.85977 -2.65675 0
M  V30 1832 H 172.489 -3.44839 -1.86625 0
M  V30 1833 H 173.979 -3.10332 -2.79435 0
M  V30 1834 N 174.416 0.165178 -1.56732 0
M  V30 1835 C 175.662 0.882112 -1.82611 0
M  V30 1836 C 175.995 1.81628 -0.687378 0
M  V30 1837 O 175.27 1.92009 0.310267 0
M  V30 1838 C 175.553 1.67245 -3.18906 0
M  V30 1839 C 175.406 0.760987 -4.43316 0
M  V30 1840 C 176.725 2.63884 -3.52212 0
M  V30 1841 H 173.844 0.319242 -0.664269 0
M  V30 1842 H 176.486 0.148052 -1.89422 0
M  V30 1843 H 174.636 2.29824 -3.1323 0
M  V30 1844 H 176.308 0.147596 -4.61064 0
M  V30 1845 H 174.551 0.0694102 -4.33744 0
M  V30 1846 H 175.222 1.34962 -5.35247 0
M  V30 1847 H 177.698 2.11429 -3.58381 0
M  V30 1848 H 176.574 3.16245 -4.48643 0
M  V30 1849 H 176.835 3.44377 -2.77231 0
M  V30 1850 N 175.894 1.51508 0.433938 0
M  V30 1851 C 177.14 1.64588 1.18484 0
M  V30 1852 C 177.473 0.362666 1.90784 0
M  V30 1853 O 176.748 -0.637892 1.83742 0
M  V30 1854 C 177.031 2.85149 2.19913 0
M  V30 1855 C 176.884 4.23456 1.51674 0
M  V30 1856 C 178.203 3.01227 3.20858 0
M  V30 1857 H 175.322 0.598994 0.429389 0
M  V30 1858 H 177.964 1.84002 0.473647 0
M  V30 1859 H 176.114 2.68729 2.80566 0
M  V30 1860 H 177.786 4.51552 0.943322 0
M  V30 1861 H 176.029 4.25998 0.819035 0
M  V30 1862 H 176.7 5.03812 2.2556 0
M  V30 1863 H 179.176 3.16382 2.70263 0
M  V30 1864 H 178.052 3.87141 3.89118 0
M  V30 1865 H 178.313 2.13447 3.8716 0
M  V30 1866 N 177.372 -0.689602 1.41712 0
M  V30 1867 C 178.305 -1.81403 1.3845 0
M  V30 1868 C 179.283 -1.60653 0.250874 0
M  V30 1869 O 180.467 -1.83323 0.43874 0
M  V30 1870 C 177.594 -3.18176 1.1611 0
M  V30 1871 C 176.64 -3.57705 2.3227 0
M  V30 1872 S 177.473 -3.61827 3.94767 0
M  V30 1873 C 178.629 -5.01318 3.74742 0
M  V30 1874 H 178.862 -1.83893 2.33603 0
M  V30 1875 H 176.395 -0.858878 1.28307 0
M  V30 1876 H 178.353 -3.97132 1.03907 0
M  V30 1877 H 177.014 -3.13288 0.225668 0
M  V30 1878 H 176.207 -4.57082 2.12349 0
M  V30 1879 H 175.809 -2.86073 2.40911 0
M  V30 1880 H 178.101 -5.88986 3.34817 0
M  V30 1881 H 179.044 -5.26283 4.73743 0
M  V30 1882 H 179.452 -4.73138 3.07898 0
M  V30 1883 N 178.85 -1.27639 -0.924453 0
M  V30 1884 C 180.078 -1.16989 -1.70649 0
M  V30 1885 C 180.493 0.272869 -1.86818 0
M  V30 1886 O 179.85 1.18549 -1.38753 0
M  V30 1887 C 179.901 -1.85229 -3.10439 0
M  V30 1888 O 179.622 -3.23868 -2.95028 0
M  V30 1889 C 181.123 -1.80746 -4.04779 0
M  V30 1890 H 178.343 -0.406595 -0.53378 0
M  V30 1891 H 180.887 -1.68569 -1.15778 0
M  V30 1892 H 179.042 -1.37545 -3.6216 0
M  V30 1893 H 179.456 -3.57889 -3.83426 0
M  V30 1894 H 180.93 -2.33101 -5.00368 0
M  V30 1895 H 181.407 -0.777499 -4.32263 0
M  V30 1896 H 182.013 -2.28059 -3.58984 0
M  V30 1897 N 180.328 1.1314 -1.09713 0
M  V30 1898 C 181.553 1.88862 -0.857081 0
M  V30 1899 C 181.978 1.78729 0.586304 0
M  V30 1900 O 181.336 1.13692 1.41222 0
M  V30 1901 C 181.384 3.36325 -1.30069 0
M  V30 1902 O 180.488 4.09815 -0.461007 0
M  V30 1903 H 179.829 0.587108 -0.310162 0
M  V30 1904 H 182.359 1.43129 -1.46203 0
M  V30 1905 H 182.369 3.87157 -1.28738 0
M  V30 1906 H 181.044 3.43017 -2.35185 0
M  V30 1907 H 179.621 3.68986 -0.538888 0
M  V30 1908 N 181.806 0.884767 1.30421 0
M  V30 1909 C 182.769 0.356277 2.26414 0
M  V30 1910 C 183.769 -0.501124 1.52792 0
M  V30 1911 O 184.959 -0.30831 1.7145 0
M  V30 1912 C 182.091 -0.492316 3.37326 0
M  V30 1913 H 183.284 1.20389 2.74675 0
M  V30 1914 H 180.837 0.661607 1.41607 0
M  V30 1915 H 181.572 -1.36052 2.94381 0
M  V30 1916 H 181.357 0.121832 3.91911 0
M  V30 1917 H 182.847 -0.853871 4.08777 0
M  V30 1918 N 183.284 -1.43765 0.645699 0
M  V30 1919 C 184.216 -2.29027 -0.0890605 0
M  V30 1920 C 185.229 -1.42093 -0.794563 0
M  V30 1921 O 186.418 -1.66104 -0.653575 0
M  V30 1922 C 183.518 -3.18831 -1.14891 0
M  V30 1923 C 182.691 -4.34261 -0.523043 0
M  V30 1924 C 181.75 -5.04994 -1.47878 0
M  V30 1925 O 180.776 -5.6052 -0.990277 0
M  V30 1926 N 181.978 -5.07795 -2.81291 0
M  V30 1927 H 184.743 -2.92727 0.64272 0
M  V30 1928 H 182.304 -1.54373 0.487924 0
M  V30 1929 H 184.296 -3.63015 -1.78892 0
M  V30 1930 H 182.866 -2.56782 -1.78275 0
M  V30 1931 H 182.086 -3.93088 0.295896 0
M  V30 1932 H 183.374 -5.08728 -0.0858147 0
M  V30 1933 H 182.772 -4.64042 -3.23546 0
M  V30 1934 H 181.329 -5.55721 -3.40614 0
M  V30 1935 N 184.763 -0.387143 -1.52771 0
M  V30 1936 C 186.012 0.19697 -2.00736 0
M  V30 1937 C 186.325 1.48082 -1.27793 0
M  V30 1938 O 187.531 2.14485 -1.66458 0
M  V30 1939 C 185.987 0.401568 -3.57653 0
M  V30 1940 C 185.595 -0.868907 -4.39493 0
M  V30 1941 C 187.339 0.942164 -4.13912 0
M  V30 1942 C 185.246 -0.632705 -5.88006 0
M  V30 1943 H 184.176 0.0773827 -0.750019 0
M  V30 1944 H 186.827 -0.50921 -1.76293 0
M  V30 1945 H 185.209 1.16954 -3.78335 0
M  V30 1946 H 186.383 -1.64133 -4.30577 0
M  V30 1947 H 184.698 -1.33429 -3.94443 0
M  V30 1948 H 187.295 1.13455 -5.22525 0
M  V30 1949 H 187.638 1.9106 -3.69867 0
M  V30 1950 H 188.171 0.233814 -3.97112 0
M  V30 1951 H 184.91 -1.57208 -6.36369 0
M  V30 1952 H 184.43 0.100825 -5.99715 0
M  V30 1953 H 186.109 -0.26642 -6.46451 0
M  V30 1954 N 186.241 1.57166 -0.116904 0
M  V30 1955 C 187.469 1.99473 0.549383 0
M  V30 1956 C 187.884 0.996541 1.60357 0
M  V30 1957 O 187.241 -0.0108731 1.82497 0
M  V30 1958 C 187.292 3.41788 1.17741 0
M  V30 1959 O 187.013 4.37788 0.165362 0
M  V30 1960 C 188.514 3.99216 1.92722 0
M  V30 1961 H 185.734 0.655009 0.145616 0
M  V30 1962 H 188.278 2.03494 -0.202625 0
M  V30 1963 H 186.433 3.38713 1.88021 0
M  V30 1964 H 186.847 5.20806 0.621403 0
M  V30 1965 H 188.321 5.00882 2.31995 0
M  V30 1966 H 188.798 3.3824 2.80161 0
M  V30 1967 H 189.404 4.0583 1.27209 0
M  V30 1968 N 187.719 -0.156864 1.56817 0
M  V30 1969 C 188.652 -1.22316 1.9265 0
M  V30 1970 C 189.63 -1.42059 0.791076 0
M  V30 1971 O 190.814 -1.56831 1.04576 0
M  V30 1972 C 187.941 -2.58375 2.18998 0
M  V30 1973 C 186.987 -2.55284 3.41661 0
M  V30 1974 S 187.82 -2.02946 4.95553 0
M  V30 1975 C 188.976 -3.40753 5.25013 0
M  V30 1976 H 189.209 -0.917403 2.82791 0
M  V30 1977 H 186.742 -0.362059 1.50095 0
M  V30 1978 H 188.7 -3.36677 2.34859 0
M  V30 1979 H 187.361 -2.86145 1.29538 0
M  V30 1980 H 186.554 -3.55418 3.57343 0
M  V30 1981 H 186.156 -1.85086 3.24991 0
M  V30 1982 H 188.448 -4.36819 5.17876 0
M  V30 1983 H 189.391 -3.29933 6.26538 0
M  V30 1984 H 189.799 -3.37433 4.52548 0
M  V30 1985 N 189.197 -1.51736 -0.425897 0
M  V30 1986 C 190.445 -1.64644 -1.17204 0
M  V30 1987 C 190.766 -0.370486 -1.91448 0
M  V30 1988 O 190.036 0.614088 -1.86026 0
M  V30 1989 H 188.616 -0.606819 -0.435638 0
M  V30 1990 H 191.278 -1.88713 -0.487177 0
M  V30 1991 H 190.374 -2.47958 -1.89534 0
M  V30 1992 N 190.675 0.682077 -1.42076 0
M  V30 1993 C 191.608 1.80666 -1.3941 0
M  V30 1994 C 192.586 1.60518 -0.25939 0
M  V30 1995 O 193.77 1.83088 -0.448456 0
M  V30 1996 C 190.897 3.17556 -1.17796 0
M  V30 1997 C 189.943 3.56468 -2.34164 0
M  V30 1998 S 190.776 3.59729 -3.96681 0
M  V30 1999 C 191.932 4.99323 -3.77395 0
M  V30 2000 H 192.165 1.82652 -2.34575 0
M  V30 2001 H 189.698 0.852062 -1.2876 0
M  V30 2002 H 191.656 3.96575 -1.06012 0
M  V30 2003 H 190.317 3.13164 -0.242279 0
M  V30 2004 H 189.51 4.5595 -2.1477 0
M  V30 2005 H 189.112 2.84792 -2.42425 0
M  V30 2006 H 191.404 5.87202 -3.37935 0
M  V30 2007 H 192.347 5.23763 -4.76527 0
M  V30 2008 H 192.755 4.71498 -3.10403 0
M  V30 2009 N 192.153 1.28127 0.917671 0
M  V30 2010 C 193.564 1.13622 1.48145 0
M  V30 2011 C 193.915 -0.275207 1.9426 0
M  V30 2012 O 193.04 -1.1691 1.82102 0
M  V30 2013 C 193.635 2.05648 2.69248 0
M  V30 2014 C 192.194 1.95219 3.21818 0
M  V30 2015 C 191.341 1.97618 1.94532 0
M  V30 2016 H 194.292 1.40874 0.730772 0
M  V30 2017 H 194.313 1.61818 3.44377 0
M  V30 2018 H 193.825 3.08365 2.35653 0
M  V30 2019 H 191.926 0.955244 3.60147 0
M  V30 2020 H 192.039 2.81976 3.87333 0
M  V30 2021 H 190.403 1.41973 2.11461 0
M  V30 2022 H 191.186 3.02007 1.63238 0
M  V30 2023 N 193.631 -1.12557 1.10312 0
M  V30 2024 C 194.861 -1.87592 0.865617 0
M  V30 2025 C 195.269 -1.79851 -0.587389 0
M  V30 2026 O 194.612 -1.16949 -1.41664 0
M  V30 2027 C 194.674 -3.37665 1.23381 0
M  V30 2028 C 194.338 -3.69181 2.69359 0
M  V30 2029 C 195.335 -3.67652 3.67597 0
M  V30 2030 C 193.02 -3.98555 3.05711 0
M  V30 2031 C 195.014 -3.95053 5.00212 0
M  V30 2032 C 192.701 -4.25616 4.38514 0
M  V30 2033 C 193.699 -4.23851 5.35574 0
M  V30 2034 O 193.387 -4.50242 6.65986 0
M  V30 2035 H 193.119 -0.600442 0.310557 0
M  V30 2036 H 195.673 -1.4335 1.47105 0
M  V30 2037 H 193.903 -3.82454 0.571467 0
M  V30 2038 H 195.592 -3.94041 0.973994 0
M  V30 2039 H 196.358 -3.45024 3.40857 0
M  V30 2040 H 192.237 -3.99071 2.30789 0
M  V30 2041 H 195.781 -3.93591 5.75962 0
M  V30 2042 H 191.678 -4.47718 4.64994 0
M  V30 2043 H 192.446 -4.67867 6.71597 0
M  V30 2044 N 195.109 -0.891671 -1.2995 0
M  V30 2045 C 196.072 -0.36828 -2.26222 0
M  V30 2046 C 197.072 0.493014 -1.53056 0
M  V30 2047 O 198.262 0.299213 -1.71611 0
M  V30 2048 C 195.394 0.47442 -3.37583 0
M  V30 2049 H 196.587 -1.21844 -2.74033 0
M  V30 2050 H 194.14 -0.669107 -1.41254 0
M  V30 2051 H 194.875 1.34489 -2.95099 0
M  V30 2052 H 194.66 -0.142615 -3.91841 0
M  V30 2053 H 196.15 0.83218 -4.09224 0
M  V30 2054 N 196.587 1.43421 -0.653314 0
M  V30 2055 C 197.833 2.02111 -0.166992 0
M  V30 2056 C 198.166 1.51423 1.21592 0
M  V30 2057 O 197.441 0.707389 1.8118 0
M  V30 2058 C 197.724 3.5966 -0.177948 0
M  V30 2059 C 197.577 4.20579 -1.59478 0
M  V30 2060 C 198.896 4.37413 0.4856 0
M  V30 2061 H 196.015 0.734374 -0.0621557 0
M  V30 2062 H 198.657 1.70717 -0.834016 0
M  V30 2063 H 196.807 3.86537 0.390032 0
M  V30 2064 H 198.479 4.04732 -2.21336 0
M  V30 2065 H 196.722 3.77226 -2.14204 0
M  V30 2066 H 197.393 5.29665 -1.5543 0
M  V30 2067 H 199.869 4.161 0.00234528 0
M  V30 2068 H 198.745 5.47075 0.447207 0
M  V30 2069 H 199.006 4.13672 1.55974 0
M  V30 2070 N 198.065 0.39524 1.52563 0
M  V30 2071 C 199.293 -0.184943 2.06072 0
M  V30 2072 C 199.708 -1.40021 1.26647 0
M  V30 2073 O 199.065 -1.79767 0.314672 0
M  V30 2074 C 199.116 -0.549179 3.57304 0
M  V30 2075 O 198.837 0.617813 4.33722 0
M  V30 2076 C 200.338 -1.18459 4.2718 0
M  V30 2077 H 197.558 -0.0265025 0.670476 0
M  V30 2078 H 200.102 0.562184 1.96621 0
M  V30 2079 H 198.257 -1.2462 3.66809 0
M  V30 2080 H 198.671 0.317091 5.23541 0
M  V30 2081 H 200.145 -1.38976 5.34219 0
M  V30 2082 H 200.622 -2.15368 3.82771 0
M  V30 2083 H 201.228 -0.528163 4.22008 0
M  V30 2084 N 199.544 -1.57102 0.125237 0
M  V30 2085 C 200.821 -1.86953 -0.575142 0
M  V30 2086 C 201.201 -1.02749 -1.84407 0
M  V30 2087 O 200.549 -0.108144 -2.28244 0
M  V30 2088 C 200.759 -3.38198 -0.861583 0
M  V30 2089 C 202.107 -4.06937 -1.21192 0
M  V30 2090 O 203.131 -3.43252 -0.951645 0
M  V30 2091 O 201.99 -5.19364 -1.70068 0
M  V30 2092 H 199.084 -0.774147 -0.290906 0
M  V30 2093 H 201.63 -1.68942 0.160211 0
M  V30 2094 H 200.402 -3.91282 0.0373647 0
M  V30 2095 H 200.025 -3.61661 -1.65188 0
M  V30 2096 N 201.022 0.148545 -1.56898 0
M  V30 2097 C 201.985 1.16736 -1.97244 0
M  V30 2098 C 202.985 1.35947 -0.858777 0
M  V30 2099 O 204.175 1.32966 -1.12542 0
M  V30 2100 C 201.307 2.52798 -2.28705 0
M  V30 2101 H 202.5 0.821279 -2.88435 0
M  V30 2102 H 200.053 0.391831 -1.51309 0
M  V30 2103 H 200.788 2.92381 -1.403 0
M  V30 2104 H 200.573 2.40216 -3.09901 0
M  V30 2105 H 202.063 3.26179 -2.60762 0
M  V30 2106 N 202.5 1.5196 0.417844 0
M  V30 2107 C 203.746 1.65836 1.16732 0
M  V30 2108 C 204.079 0.382881 1.90388 0
M  V30 2109 O 203.354 -0.618368 1.84408 0
M  V30 2110 C 203.637 2.87466 2.16876 0
M  V30 2111 C 203.49 4.25041 1.47174 0
M  V30 2112 C 204.809 3.04613 3.17646 0
M  V30 2113 H 201.928 0.603515 0.423011 0
M  V30 2114 H 204.57 1.84494 0.454105 0
M  V30 2115 H 202.72 2.71689 2.777 0
M  V30 2116 H 204.392 4.52527 0.895376 0
M  V30 2117 H 202.635 4.26843 0.773806 0
M  V30 2118 H 203.306 5.06176 2.20204 0
M  V30 2119 H 205.782 3.1923 2.66892 0
M  V30 2120 H 204.658 3.91247 3.8499 0
M  V30 2121 H 204.919 2.17541 3.84874 0
M  V30 2122 N 203.978 -0.674533 1.42435 0
M  V30 2123 C 204.908 -1.80009 1.48724 0
M  V30 2124 C 205.889 -1.6659 0.343793 0
M  V30 2125 O 207.074 -1.86007 0.558137 0
M  V30 2126 C 204.204 -3.18306 1.38919 0
M  V30 2127 C 203.158 -3.46461 2.51294 0
M  V30 2128 C 202.484 -4.84335 2.26547 0
M  V30 2129 C 203.784 -3.43328 3.93603 0
M  V30 2130 H 205.478 -1.75004 2.42928 0
M  V30 2131 H 203.024 -0.840533 1.16923 0
M  V30 2132 H 204.977 -3.9678 1.41927 0
M  V30 2133 H 203.701 -3.2399 0.412094 0
M  V30 2134 H 202.36 -2.70348 2.47604 0
M  V30 2135 H 202.008 -4.86669 1.2713 0
M  V30 2136 H 201.708 -5.04136 3.01861 0
M  V30 2137 H 203.232 -5.65094 2.31304 0
M  V30 2138 H 204.646 -4.11772 3.98894 0
M  V30 2139 H 203.043 -3.74664 4.68771 0
M  V30 2140 H 204.113 -2.41897 4.20255 0
M  V30 2141 N 205.456 -1.28612 -0.910864 0
M  V30 2142 C 206.419 -1.12803 -1.9952 0
M  V30 2143 C 207.419 -0.0668264 -1.60661 0
M  V30 2144 O 208.609 -0.312847 -1.71368 0
M  V30 2145 C 205.741 -0.72254 -3.33155 0
M  V30 2146 H 206.934 -2.09109 -2.14973 0
M  V30 2147 H 204.487 -1.11639 -1.09391 0
M  V30 2148 H 205.222 0.241152 -3.23402 0
M  V30 2149 H 205.007 -1.48916 -3.62721 0
M  V30 2150 H 206.497 -0.634666 -4.12749 0
M  V30 2151 N 206.934 1.1197 -1.10907 0
M  V30 2152 C 208.345 1.65114 -0.871446 0
M  V30 2153 C 208.696 1.86885 0.597353 0
M  V30 2154 O 207.821 1.59896 1.45816 0
M  V30 2155 C 208.416 2.99944 -1.5754 0
M  V30 2156 C 206.975 3.50018 -1.38435 0
M  V30 2157 C 206.122 2.24941 -1.62164 0
M  V30 2158 H 209.073 0.956851 -1.2661 0
M  V30 2159 H 209.094 3.66651 -1.01721 0
M  V30 2160 H 208.606 2.84067 -2.64438 0
M  V30 2161 H 206.707 3.71071 -0.337214 0
M  V30 2162 H 206.82 4.29165 -2.12965 0
M  V30 2163 H 205.184 2.3229 -1.04467 0
M  V30 2164 H 205.967 2.11612 -2.70324 0
M  V30 2165 N 208.412 0.89855 1.29475 0
M  V30 2166 C 209.362 0.346767 2.25348 0
M  V30 2167 C 210.346 -0.532509 1.51833 0
M  V30 2168 O 211.538 -0.374714 1.72988 0
M  V30 2169 C 208.667 -0.425681 3.40651 0
M  V30 2170 C 207.753 0.46845 4.21505 0
M  V30 2171 N 208.144 1.57514 4.80648 0
M  V30 2172 C 206.442 0.26603 4.45206 0
M  V30 2173 C 207.143 2.12889 5.41344 0
M  V30 2174 N 206.119 1.42208 5.24669 0
M  V30 2175 H 209.921 1.19219 2.68634 0
M  V30 2176 H 207.435 0.749473 1.44072 0
M  V30 2177 H 209.432 -0.837716 4.08397 0
M  V30 2178 H 208.092 -1.26838 2.98902 0
M  V30 2179 H 209.103 1.95789 4.79465 0
M  V30 2180 H 205.78 -0.538394 4.14014 0
M  V30 2181 H 207.17 3.05901 5.98226 0
M  V30 2182 N 209.89 -1.43072 0.660911 0
M  V30 2183 C 211.139 -2.00942 0.174735 0
M  V30 2184 C 211.452 -1.52797 -1.22117 0
M  V30 2185 O 212.658 -2.02991 -1.80297 0
M  V30 2186 C 211.114 -3.58948 0.261559 0
M  V30 2187 C 210.722 -4.16085 1.66064 0
M  V30 2188 C 212.466 -4.24173 -0.166617 0
M  V30 2189 C 210.373 -5.6641 1.70098 0
M  V30 2190 H 209.303 -0.751483 0.0615631 0
M  V30 2191 H 211.954 -1.63955 0.824069 0
M  V30 2192 H 210.336 -3.93372 -0.455421 0
M  V30 2193 H 211.51 -3.93147 2.40359 0
M  V30 2194 H 209.825 -3.6326 2.03546 0
M  V30 2195 H 212.422 -5.34471 -0.156433 0
M  V30 2196 H 212.765 -3.98647 -1.19943 0
M  V30 2197 H 213.298 -3.94659 0.498875 0
M  V30 2198 H 210.037 -5.96715 2.71315 0
M  V30 2199 H 209.557 -5.91382 1.00139 0
M  V30 2200 H 211.236 -6.30585 1.44816 0
M  V30 2201 N 211.368 -0.403325 -1.52352 0
M  V30 2202 C 212.616 0.174003 -2.0135 0
M  V30 2203 C 212.937 1.46139 -1.29106 0
M  V30 2204 O 212.207 1.91448 -0.415253 0
M  V30 2205 H 210.787 0.0672911 -0.743963 0
M  V30 2206 H 213.449 -0.538235 -1.87321 0
M  V30 2207 H 212.545 0.374254 -3.09848 0
M  V30 2208 N 212.846 1.57033 -0.133567 0
M  V30 2209 C 214.094 1.953 0.519848 0
M  V30 2210 C 214.415 1.01866 1.66278 0
M  V30 2211 O 213.685 0.0776513 1.95746 0
M  V30 2212 H 212.265 0.721091 0.195032 0
M  V30 2213 H 214.927 1.93809 -0.205921 0
M  V30 2214 H 214.023 2.98695 0.904854 0
M  V30 2215 N 214.325 -0.140222 1.56975 0
M  V30 2216 C 215.235 -1.19223 2.02047 0
M  V30 2217 C 216.251 -1.46612 0.937062 0
M  V30 2218 O 217.427 -1.58148 1.24704 0
M  V30 2219 C 214.492 -2.50414 2.39778 0
M  V30 2220 C 213.553 -2.30612 3.621 0
M  V30 2221 C 212.786 -3.55547 3.98023 0
M  V30 2222 O 213.009 -4.62004 3.34528 0
M  V30 2223 O 211.943 -3.47808 4.91237 0
M  V30 2224 H 215.769 -0.839559 2.91865 0
M  V30 2225 H 213.354 -0.349453 1.45256 0
M  V30 2226 H 215.236 -3.27747 2.64877 0
M  V30 2227 H 213.911 -2.85198 1.53114 0
M  V30 2228 H 212.818 -1.51207 3.4218 0
M  V30 2229 H 214.151 -2.00741 4.49404 0
M  V30 2230 N 215.803 -1.52179 -0.40978 0
M  V30 2231 C 216.766 -1.74853 -1.48186 0
M  V30 2232 C 217.766 -0.618417 -1.48433 0
M  V30 2233 O 218.956 -0.886286 -1.49969 0
M  V30 2234 C 216.088 -1.8303 -2.87598 0
M  V30 2235 H 217.281 -2.70559 -1.29374 0
M  V30 2236 H 214.834 -1.42586 -0.640233 0
M  V30 2237 H 215.569 -0.89236 -3.11781 0
M  V30 2238 H 215.354 -2.65187 -2.88822 0
M  V30 2239 H 216.844 -2.02316 -3.65319 0
M  V30 2240 N 217.281 0.66697 -1.42791 0
M  V30 2241 C 218.529 1.42417 -1.43394 0
M  V30 2242 C 218.85 1.94925 -0.0542373 0
M  V30 2243 O 218.12 1.73564 0.908415 0
M  V30 2244 H 216.7 0.528515 -0.527902 0
M  V30 2245 H 219.362 0.787562 -1.78279 0
M  V30 2246 H 218.458 2.27333 -2.13837 0
M  V30 2247 N 218.759 1.29093 0.90403 0
M  V30 2248 C 219.984 1.19809 1.69294 0
M  V30 2249 C 220.409 -0.238481 1.86582 0
M  V30 2250 O 219.767 -1.1723 1.383 0
M  V30 2251 C 219.815 1.91202 3.05736 0
M  V30 2252 O 218.919 1.22611 3.93752 0
M  V30 2253 H 218.26 0.415385 0.518027 0
M  V30 2254 H 220.79 1.70586 1.12967 0
M  V30 2255 H 220.8 1.99487 3.55906 0
M  V30 2256 H 219.475 2.95692 2.92471 0
M  V30 2257 H 218.052 1.22554 3.52186 0
M  V30 2258 N 220.237 -1.11381 1.11499 0
M  V30 2259 C 221.462 -1.87475 0.887019 0
M  V30 2260 C 221.887 -1.79639 -0.557796 0
M  V30 2261 O 221.245 -1.15924 -1.39396 0
M  V30 2262 C 221.293 -3.34213 1.35403 0
M  V30 2263 O 220.397 -4.0903 0.526146 0
M  V30 2264 H 219.738 -0.582099 0.319463 0
M  V30 2265 H 222.268 -1.40785 1.48461 0
M  V30 2266 H 222.278 -3.8506 1.34881 0
M  V30 2267 H 220.953 -3.39232 2.40612 0
M  V30 2268 H 219.53 -3.68082 0.597522 0
M  V30 2269 N 221.715 -0.905404 -1.28997 0
M  V30 2270 C 222.665 -0.358713 -2.25161 0
M  V30 2271 C 223.649 0.524449 -1.52113 0
M  V30 2272 O 224.841 0.365534 -1.73184 0
M  V30 2273 C 221.97 0.407609 -3.40872 0
M  V30 2274 C 221.056 -0.490797 -4.21251 0
M  V30 2275 N 221.447 -1.60061 -4.79806 0
M  V30 2276 C 219.745 -0.289636 -4.45059 0
M  V30 2277 C 220.446 -2.15757 -5.40207 0
M  V30 2278 N 219.422 -1.44988 -5.23908 0
M  V30 2279 H 223.224 -1.20642 -2.67998 0
M  V30 2280 H 220.738 -0.757103 -1.43672 0
M  V30 2281 H 222.735 0.816046 -4.08835 0
M  V30 2282 H 221.395 1.25251 -2.9957 0
M  V30 2283 H 222.406 -1.98329 -4.7842 0
M  V30 2284 H 219.083 0.51643 -4.14294 0
M  V30 2285 H 220.473 -3.09069 -5.96595 0
M  V30 2286 N 223.193 1.4272 -0.668489 0
M  V30 2287 C 224.156 2.292 0.00448567 0
M  V30 2288 C 225.156 1.43001 0.735339 0
M  V30 2289 O 226.346 1.64461 0.57429 0
M  V30 2290 C 223.478 3.25375 1.01705 0
M  V30 2291 H 224.671 2.90199 -0.756608 0
M  V30 2292 H 222.224 1.50254 -0.430506 0
M  V30 2293 H 222.959 2.69301 1.80686 0
M  V30 2294 H 222.744 3.88944 0.496463 0
M  V30 2295 H 224.234 3.90245 1.48655 0
M  V30 2296 N 224.671 0.411399 1.52136 0
M  V30 2297 C 226.082 -0.0576826 1.86611 0
M  V30 2298 C 226.433 -1.44238 1.33003 0
M  V30 2299 O 225.558 -2.05759 0.670228 0
M  V30 2300 C 226.153 -0.111448 3.38617 0
M  V30 2301 C 224.712 -0.52487 3.72723 0
M  V30 2302 C 223.859 0.299176 2.75681 0
M  V30 2303 H 226.81 0.628368 1.4573 0
M  V30 2304 H 226.831 -0.926252 3.69054 0
M  V30 2305 H 226.343 0.896488 3.77604 0
M  V30 2306 H 224.444 -1.53936 3.39315 0
M  V30 2307 H 224.557 -0.267681 4.78352 0
M  V30 2308 H 222.921 -0.238814 2.53578 0
M  V30 2309 H 223.704 1.3055 3.17508 0
M  V30 2310 N 226.149 -1.5696 0.141893 0
M  V30 2311 C 227.56 -1.82797 -0.379776 0
M  V30 2312 C 227.911 -1.06033 -1.6508 0
M  V30 2313 O 227.036 -0.304011 -2.14254 0
M  V30 2314 C 227.631 -3.31578 -0.695802 0
M  V30 2315 C 226.19 -3.58014 -1.16201 0
M  V30 2316 C 225.337 -2.76699 -0.182455 0
M  V30 2317 H 228.288 -1.54406 0.366675 0
M  V30 2318 H 228.309 -3.47454 -1.55099 0
M  V30 2319 H 227.821 -3.87421 0.229449 0
M  V30 2320 H 225.922 -3.07553 -2.10338 0
M  V30 2321 H 226.035 -4.66501 -1.09151 0
M  V30 2322 H 224.399 -2.45618 -0.674072 0
M  V30 2323 H 225.182 -3.35311 0.736297 0
M  V30 2324 N 227.627 0.131896 -1.57047 0
M  V30 2325 C 229.038 0.690407 -1.73465 0
M  V30 2326 C 229.389 1.8094 -0.758629 0
M  V30 2327 O 228.514 2.16282 0.0713813 0
M  V30 2328 C 229.109 1.25916 -3.14532 0
M  V30 2329 C 227.668 1.76409 -3.32501 0
M  V30 2330 C 226.815 0.658579 -2.69366 0
M  V30 2331 H 229.766 -0.0939144 -1.58422 0
M  V30 2332 H 229.787 2.12892 -3.15369 0
M  V30 2333 H 229.299 0.444515 -3.85546 0
M  V30 2334 H 227.4 2.60391 -2.66509 0
M  V30 2335 H 227.513 1.88241 -4.4057 0
M  V30 2336 H 225.877 1.08899 -2.30246 0
M  V30 2337 H 226.66 -0.14487 -3.42994 0
M  V30 2338 N 229.106 1.52395 0.401703 0
M  V30 2339 C 230.069 1.75636 1.47257 0
M  V30 2340 C 231.069 0.62628 1.48103 0
M  V30 2341 O 232.259 0.894227 1.49497 0
M  V30 2342 C 229.391 1.84553 2.86624 0
M  V30 2343 H 230.584 2.71241 1.27938 0
M  V30 2344 H 228.137 1.42923 0.632662 0
M  V30 2345 H 228.872 0.908882 3.11303 0
M  V30 2346 H 228.657 2.66715 2.87412 0
M  V30 2347 H 230.147 2.04251 3.64241 0
M  V30 2348 N 230.584 -0.659388 1.43143 0
M  V30 2349 C 231.514 -1.78422 1.50625 0
M  V30 2350 C 232.495 -1.66216 0.361443 0
M  V30 2351 O 233.68 -1.85404 0.577834 0
M  V30 2352 C 230.81 -3.16815 1.42287 0
M  V30 2353 C 229.764 -3.43777 2.54954 0
M  V30 2354 C 229.09 -4.81905 2.31671 0
M  V30 2355 C 230.39 -3.39134 3.97222 0
M  V30 2356 H 232.084 -1.72417 2.44771 0
M  V30 2357 H 229.63 -0.828084 1.17808 0
M  V30 2358 H 231.583 -3.95253 1.46127 0
M  V30 2359 H 230.307 -3.23534 0.446435 0
M  V30 2360 H 228.966 -2.67707 2.50457 0
M  V30 2361 H 228.614 -4.85294 1.32284 0
M  V30 2362 H 228.314 -5.00906 3.07192 0
M  V30 2363 H 229.838 -5.62609 2.37284 0
M  V30 2364 H 231.252 -4.07518 4.03239 0
M  V30 2365 H 229.649 -3.69671 4.72719 0
M  V30 2366 H 230.719 -2.37426 4.22797 0
M  V30 2367 N 232.062 -1.29571 -0.897171 0
M  V30 2368 C 233.29 -1.20583 -1.68129 0
M  V30 2369 C 233.705 0.233181 -1.87354 0
M  V30 2370 O 233.062 1.15579 -1.41236 0
M  V30 2371 C 233.113 -1.91772 -3.06441 0
M  V30 2372 O 232.834 -3.30053 -2.88091 0
M  V30 2373 C 234.335 -1.89291 -4.00854 0
M  V30 2374 H 231.555 -0.417826 -0.525036 0
M  V30 2375 H 234.099 -1.70987 -1.12177 0
M  V30 2376 H 232.254 -1.45196 -3.59161 0
M  V30 2377 H 232.668 -3.65942 -3.75748 0
M  V30 2378 H 234.142 -2.43662 -4.95311 0
M  V30 2379 H 234.619 -0.869014 -4.30517 0
M  V30 2380 H 235.225 -2.35622 -3.54066 0
M  V30 2381 N 233.54 1.10788 -1.12088 0
M  V30 2382 C 234.47 2.19083 -0.807755 0
M  V30 2383 C 235.451 1.6858 0.226859 0
M  V30 2384 O 236.636 1.93997 0.0888475 0
M  V30 2385 C 233.766 3.46344 -0.257576 0
M  V30 2386 C 232.72 4.101 -1.22483 0
M  V30 2387 C 232.046 5.32016 -0.535052 0
M  V30 2388 C 233.346 4.54236 -2.57811 0
M  V30 2389 H 235.04 2.45534 -1.71328 0
M  V30 2390 H 232.586 1.1801 -0.825205 0
M  V30 2391 H 234.539 4.21392 -0.0262679 0
M  V30 2392 H 233.263 3.19373 0.683278 0
M  V30 2393 H 231.922 3.37054 -1.44189 0
M  V30 2394 H 231.57 5.01319 0.410827 0
M  V30 2395 H 231.27 5.75625 -1.18024 0
M  V30 2396 H 232.794 6.09799 -0.312695 0
M  V30 2397 H 234.208 5.20575 -2.40155 0
M  V30 2398 H 232.605 5.08682 -3.18375 0
M  V30 2399 H 233.675 3.6734 -3.16528 0
M  V30 2400 N 235.018 0.912232 1.28515 0
M  V30 2401 C 236.267 0.540504 1.94323 0
M  V30 2402 C 236.58 -0.920044 1.72611 0
M  V30 2403 O 237.786 -1.39986 2.32629 0
M  V30 2404 C 236.242 0.915803 3.48053 0
M  V30 2405 C 235.85 2.39598 3.78546 0
M  V30 2406 C 237.594 0.614588 4.20027 0
M  V30 2407 C 235.501 2.71148 5.25578 0
M  V30 2408 H 234.431 0.198418 0.727424 0
M  V30 2409 H 237.082 1.11094 1.46049 0
M  V30 2410 H 235.464 0.274168 3.9505 0
M  V30 2411 H 236.638 3.08422 3.42364 0
M  V30 2412 H 234.953 2.66749 3.1974 0
M  V30 2413 H 237.55 0.827002 5.28266 0
M  V30 2414 H 237.893 -0.447531 4.13887 0
M  V30 2415 H 238.426 1.21462 3.78803 0
M  V30 2416 H 235.165 3.76207 5.36794 0
M  V30 2417 H 234.685 2.0696 5.62963 0
M  V30 2418 H 236.364 2.58072 5.93302 0
M  V30 2419 N 236.496 -1.42363 0.676048 0
M  V30 2420 C 237.743 -2.01522 0.19883 0
M  V30 2421 C 238.071 -1.53456 -1.19505 0
M  V30 2422 O 237.326 -0.727967 -1.81657 0
M  V30 2423 C 237.625 -3.56929 0.183431 0
M  V30 2424 C 237.291 -4.24431 1.52215 0
M  V30 2425 C 235.953 -4.42585 1.8887 0
M  V30 2426 C 238.305 -4.62459 2.40377 0
M  V30 2427 C 235.633 -4.96039 3.13309 0
M  V30 2428 C 237.985 -5.17294 3.64129 0
M  V30 2429 C 236.649 -5.33661 4.00951 0
M  V30 2430 H 235.919 -0.737419 0.0727571 0
M  V30 2431 H 238.566 -1.70531 0.871281 0
M  V30 2432 H 236.871 -3.87594 -0.572532 0
M  V30 2433 H 238.568 -4.00486 -0.203035 0
M  V30 2434 H 235.158 -4.10661 1.22701 0
M  V30 2435 H 239.342 -4.48105 2.13343 0
M  V30 2436 H 234.598 -5.06896 3.41857 0
M  V30 2437 H 238.772 -5.45704 4.32644 0
M  V30 2438 H 236.399 -5.74845 4.9745 0
M  V30 2439 N 237.974 -0.419461 -1.51915 0
M  V30 2440 C 239.251 0.211999 -1.94448 0
M  V30 2441 C 239.631 1.61703 -1.35703 0
M  V30 2442 O 238.979 2.22102 -0.536931 0
M  V30 2443 C 239.189 0.207872 -3.4838 0
M  V30 2444 C 240.537 0.422192 -4.22496 0
M  V30 2445 O 241.561 0.286778 -3.55044 0
M  V30 2446 O 240.42 0.690009 -5.42126 0
M  V30 2447 H 237.514 0.139586 -0.815135 0
M  V30 2448 H 240.06 -0.476151 -1.62883 0
M  V30 2449 H 238.832 -0.775102 -3.83546 0
M  V30 2450 H 238.455 0.939688 -3.86336 0
M  V30 2451 N 239.452 1.56882 -0.150215 0
M  V30 2452 C 240.868 1.58263 0.20617 0
M  V30 2453 C 241.068 1.16464 1.64434 0
M  V30 2454 O 240.124 0.866422 2.3717 0
M  V30 2455 C 241.437 3.00649 -0.0555025 0
M  V30 2456 C 242.985 3.12999 0.00795388 0
M  V30 2457 C 243.46 4.5744 -0.226429 0
M  V30 2458 N 244.951 4.62875 -0.173469 0
M  V30 2459 C 245.686 5.72454 -0.329288 0
M  V30 2460 N 245.182 6.90669 -0.543005 0
M  V30 2461 N 246.975 5.61467 -0.266666 0
M  V30 2462 H 239.126 1.82345 -1.08922 0
M  V30 2463 H 241.389 0.844149 -0.431413 0
M  V30 2464 H 241.095 3.3563 -1.05096 0
M  V30 2465 H 240.969 3.71337 0.66246 0
M  V30 2466 H 243.356 2.77857 0.993966 0
M  V30 2467 H 243.437 2.4479 -0.742388 0
M  V30 2468 H 243.081 4.93287 -1.20956 0
M  V30 2469 H 243.011 5.2378 0.544274 0
M  V30 2470 H 245.502 3.77898 -0.0130709 0
M  V30 2471 H 245.815 7.70045 -0.651922 0
M  V30 2472 H 244.16 6.92581 -0.579366 0
M  V30 2473 H 247.351 4.67992 -0.100441 0
M  V30 2474 H 247.524 6.46816 -0.391535 0
M  V30 2475 N 240.93 -0.123565 1.57115 0
M  V30 2476 C 241.88 -1.1575 1.96433 0
M  V30 2477 C 242.864 -1.37313 0.838686 0
M  V30 2478 O 244.056 -1.38482 1.10235 0
M  V30 2479 C 241.185 -2.48526 2.36833 0
M  V30 2480 C 240.271 -2.30457 3.5602 0
M  V30 2481 N 240.662 -1.8219 4.71848 0
M  V30 2482 C 238.96 -2.61129 3.61563 0
M  V30 2483 C 239.661 -1.77721 5.53886 0
M  V30 2484 N 238.637 -2.21899 4.96248 0
M  V30 2485 H 242.439 -0.776797 2.83449 0
M  V30 2486 H 239.953 -0.331364 1.58983 0
M  V30 2487 H 241.95 -3.233 2.63216 0
M  V30 2488 H 240.61 -2.87358 1.5118 0
M  V30 2489 H 241.621 -1.51805 4.95152 0
M  V30 2490 H 238.298 -3.03678 2.86507 0
M  V30 2491 H 239.688 -1.41697 6.56789 0
M  V30 2492 N 242.408 -1.52605 -0.393616 0
M  V30 2493 C 243.819 -1.59417 -0.971761 0
M  V30 2494 C 244.17 -0.444173 -1.91106 0
M  V30 2495 O 243.295 0.433382 -2.12016 0
M  V30 2496 C 243.89 -2.88936 -1.76921 0
M  V30 2497 C 242.449 -2.98175 -2.29714 0
M  V30 2498 C 241.596 -2.54491 -1.10135 0
M  V30 2499 H 244.547 -1.57751 -0.173317 0
M  V30 2500 H 244.568 -2.75163 -2.62804 0
M  V30 2501 H 244.08 -3.72616 -1.08532 0
M  V30 2502 H 242.181 -2.19024 -3.01429 0
M  V30 2503 H 242.294 -4.02726 -2.59517 0
M  V30 2504 H 240.658 -2.08702 -1.45999 0
M  V30 2505 H 241.441 -3.4056 -0.432874 0
M  V30 2506 N 243.887 0.651787 -1.4349 0
M  V30 2507 C 245.136 1.40754 -1.44469 0
M  V30 2508 C 245.449 1.95463 -0.0731845 0
M  V30 2509 O 246.655 2.71471 0.0395721 0
M  V30 2510 C 245.111 2.54735 -2.5424 0
M  V30 2511 C 244.719 2.06628 -3.97504 0
M  V30 2512 C 246.463 3.32092 -2.64414 0
M  V30 2513 C 244.37 3.17829 -4.98737 0
M  V30 2514 H 243.3 0.528862 -0.53742 0
M  V30 2515 H 245.951 0.703365 -1.69485 0
M  V30 2516 H 244.333 3.2763 -2.22428 0
M  V30 2517 H 245.507 1.40734 -4.38783 0
M  V30 2518 H 243.822 1.42146 -3.91387 0
M  V30 2519 H 246.419 4.14952 -3.37223 0
M  V30 2520 H 246.762 3.80217 -1.69532 0
M  V30 2521 H 247.295 2.66279 -2.95534 0
M  V30 2522 H 244.034 2.74671 -5.95177 0
M  V30 2523 H 243.554 3.82429 -4.62069 0
M  V30 2524 H 245.233 3.82937 -5.21505 0
M  V30 2525 N 245.365 1.30045 0.890287 0
M  V30 2526 C 246.328 1.15963 1.977 0
M  V30 2527 C 247.328 0.0923777 1.60534 0
M  V30 2528 O 248.518 0.340071 1.70848 0
M  V30 2529 C 245.65 0.775451 3.31963 0
M  V30 2530 H 246.843 2.12502 2.11619 0
M  V30 2531 H 244.396 1.13366 1.07601 0
M  V30 2532 H 245.131 -0.189671 3.23745 0
M  V30 2533 H 244.916 1.54668 3.60306 0
M  V30 2534 H 246.406 0.700251 4.11687 0
M  V30 2535 N 246.843 -1.10192 1.12674 0
M  V30 2536 C 247.806 -2.14786 0.799979 0
M  V30 2537 C 248.806 -1.59711 -0.18685 0
M  V30 2538 O 249.996 -1.74156 0.0392558 0
M  V30 2539 C 247.128 -3.40374 0.189228 0
M  V30 2540 H 248.321 -2.45203 1.72671 0
M  V30 2541 H 245.874 -1.25597 0.930326 0
M  V30 2542 H 246.609 -3.15577 -0.747107 0
M  V30 2543 H 246.394 -3.81637 0.899766 0
M  V30 2544 H 247.884 -4.17594 -0.0228143 0
M  V30 2545 N 248.321 -0.919034 -1.28029 0
M  V30 2546 C 249.251 -0.428581 -2.29533 0
M  V30 2547 C 250.232 0.50659 -1.62381 0
M  V30 2548 O 251.417 0.413195 -1.89753 0
M  V30 2549 C 248.547 0.327388 -3.45753 0
M  V30 2550 C 247.501 -0.519137 -4.2484 0
M  V30 2551 C 246.827 0.365486 -5.33449 0
M  V30 2552 C 248.127 -1.77914 -4.91064 0
M  V30 2553 H 249.821 -1.27687 -2.70807 0
M  V30 2554 H 247.367 -0.615428 -1.30186 0
M  V30 2555 H 249.32 0.681378 -4.15855 0
M  V30 2556 H 248.044 1.20963 -3.03374 0
M  V30 2557 H 246.703 -0.855717 -3.56473 0
M  V30 2558 H 246.351 1.24642 -4.87312 0
M  V30 2559 H 246.051 -0.197356 -5.87268 0
M  V30 2560 H 247.575 0.715241 -6.06396 0
M  V30 2561 H 248.989 -1.49374 -5.53498 0
M  V30 2562 H 247.386 -2.2848 -5.54903 0
M  V30 2563 H 248.456 -2.50382 -4.15255 0
M  V30 2564 N 249.799 1.42003 -0.683588 0
M  V30 2565 C 250.729 2.33487 -0.024866 0
M  V30 2566 C 251.71 1.51163 0.779975 0
M  V30 2567 O 252.895 1.79739 0.735362 0
M  V30 2568 C 250.025 3.3487 0.920836 0
M  V30 2569 C 248.979 4.27414 0.223958 0
M  V30 2570 C 248.305 5.19074 1.2832 0
M  V30 2571 C 249.605 5.14445 -0.90242 0
M  V30 2572 H 251.299 2.88819 -0.788921 0
M  V30 2573 H 248.845 1.38873 -0.38083 0
M  V30 2574 H 250.798 3.97787 1.39081 0
M  V30 2575 H 249.522 2.77861 1.71642 0
M  V30 2576 H 248.181 3.65904 -0.225864 0
M  V30 2577 H 247.829 4.58387 2.071 0
M  V30 2578 H 247.529 5.81822 0.821995 0
M  V30 2579 H 249.053 5.84867 1.75392 0
M  V30 2580 H 250.467 5.70998 -0.513272 0
M  V30 2581 H 248.864 5.86072 -1.28997 0
M  V30 2582 H 249.934 4.52322 -1.74737 0
M  V30 2583 N 251.277 0.427512 1.51691 0
M  V30 2584 C 252.517 -0.141524 2.03909 0
M  V30 2585 C 252.881 -1.40811 1.30523 0
M  V30 2586 O 254.082 -2.05676 1.73063 0
M  V30 2587 C 252.353 -0.364962 3.55532 0
M  V30 2588 S 253.912 -0.898812 4.29496 0
M  V30 2589 H 250.73 -0.0364542 0.710065 0
M  V30 2590 H 253.332 0.584659 1.86553 0
M  V30 2591 H 252.036 0.56336 4.06515 0
M  V30 2592 H 251.567 -1.1185 3.77164 0
M  V30 2593 H 253.582 -2.17747 4.45871 0
M  V30 2594 N 252.755 -1.56801 0.158532 0
M  V30 2595 C 253.985 -2.00568 -0.495583 0
M  V30 2596 C 254.393 -1.03774 -1.58201 0
M  V30 2597 O 253.736 -0.0285797 -1.83678 0
M  V30 2598 C 253.798 -3.40768 -1.14532 0
M  V30 2599 C 253.462 -4.56553 -0.202101 0
M  V30 2600 C 254.459 -5.16714 0.574675 0
M  V30 2601 C 252.144 -5.02197 -0.101648 0
M  V30 2602 C 254.138 -6.20939 1.43924 0
M  V30 2603 C 251.825 -6.06274 0.766508 0
M  V30 2604 C 252.823 -6.65515 1.53555 0
M  V30 2605 O 252.511 -7.67575 2.38922 0
M  V30 2606 H 252.243 -0.662893 -0.13247 0
M  V30 2607 H 254.797 -2.03829 0.253559 0
M  V30 2608 H 253.027 -3.34381 -1.94233 0
M  V30 2609 H 254.716 -3.6857 -1.70033 0
M  V30 2610 H 255.482 -4.82341 0.507167 0
M  V30 2611 H 251.361 -4.55807 -0.689994 0
M  V30 2612 H 254.905 -6.67107 2.03996 0
M  V30 2613 H 250.802 -6.40073 0.835266 0
M  V30 2614 H 251.57 -7.84844 2.32296 0
M  V30 2615 N 254.233 0.115231 -1.57178 0
M  V30 2616 C 255.644 0.67197 -1.74188 0
M  V30 2617 C 255.995 1.80125 -0.777777 0
M  V30 2618 O 255.12 2.16346 0.0484376 0
M  V30 2619 C 255.715 1.22573 -3.1585 0
M  V30 2620 C 254.274 1.72872 -3.34353 0
M  V30 2621 C 253.421 0.629972 -2.70049 0
M  V30 2622 H 256.372 -0.110712 -1.58313 0
M  V30 2623 H 256.393 2.09535 -3.17609 0
M  V30 2624 H 255.905 0.403598 -3.85996 0
M  V30 2625 H 254.006 2.5755 -2.69256 0
M  V30 2626 H 254.119 1.83557 -4.42542 0
M  V30 2627 H 252.483 1.0645 -2.31388 0
M  V30 2628 H 253.266 -0.181241 -3.42821 0
M  V30 2629 N 255.711 1.52812 0.385517 0
M  V30 2630 C 256.674 1.77188 1.45386 0
M  V30 2631 C 257.674 0.641953 1.4743 0
M  V30 2632 O 258.864 0.910033 1.4854 0
M  V30 2633 C 255.996 1.87582 2.8465 0
M  V30 2634 H 257.189 2.72583 1.25054 0
M  V30 2635 H 254.742 1.43586 0.617467 0
M  V30 2636 H 255.477 0.941849 3.10322 0
M  V30 2637 H 255.262 2.69748 2.84567 0
M  V30 2638 H 256.752 2.08102 3.62054 0
M  V30 2639 N 257.189 -0.644168 1.43834 0
M  V30 2640 C 258.152 -1.73857 1.49353 0
M  V30 2641 C 259.152 -1.56315 0.377112 0
M  V30 2642 O 260.342 -1.62048 0.639226 0
M  V30 2643 C 257.474 -3.12819 1.35488 0
M  V30 2644 H 258.667 -1.70342 2.46827 0
M  V30 2645 H 256.22 -0.856652 1.30733 0
M  V30 2646 H 256.955 -3.2194 0.390569 0
M  V30 2647 H 256.74 -3.26958 2.16428 0
M  V30 2648 H 258.23 -3.92606 1.42302 0
M  V30 2649 N 258.668 -1.30515 -0.883378 0
M  V30 2650 C 260.084 -1.08881 -1.16692 0
M  V30 2651 C 260.284 0.149409 -2.00945 0
M  V30 2652 O 259.34 0.84257 -2.38027 0
M  V30 2653 C 260.653 -2.35319 -1.87204 0
M  V30 2654 C 262.201 -2.40799 -1.99962 0
M  V30 2655 C 262.676 -3.67083 -2.73887 0
M  V30 2656 N 264.167 -3.679 -2.81432 0
M  V30 2657 C 264.902 -4.62303 -3.3921 0
M  V30 2658 N 264.398 -5.67052 -3.98025 0
M  V30 2659 N 266.191 -4.49845 -3.3704 0
M  V30 2660 H 258.342 -2.09951 -0.321633 0
M  V30 2661 H 260.605 -0.92556 -0.205043 0
M  V30 2662 H 260.311 -3.25689 -1.3274 0
M  V30 2663 H 260.185 -2.44089 -2.87577 0
M  V30 2664 H 262.572 -1.50907 -2.53597 0
M  V30 2665 H 262.653 -2.36003 -0.98673 0
M  V30 2666 H 262.297 -4.57334 -2.20925 0
M  V30 2667 H 262.227 -3.69141 -3.75556 0
M  V30 2668 H 264.718 -2.92171 -2.39676 0
M  V30 2669 H 265.031 -6.35184 -4.40183 0
M  V30 2670 H 263.376 -5.70842 -3.96439 0
M  V30 2671 H 266.567 -3.67194 -2.90321 0
M  V30 2672 H 266.74 -5.23597 -3.81772 0
M  V30 2673 N 260.146 1.09593 -1.13257 0
M  V30 2674 C 261.376 1.85231 -0.915049 0
M  V30 2675 C 261.784 1.81345 0.539498 0
M  V30 2676 O 261.127 1.20664 1.38513 0
M  V30 2677 C 261.189 3.34275 -1.3229 0
M  V30 2678 C 260.853 3.6191 -2.79052 0
M  V30 2679 C 261.85 3.57777 -3.77216 0
M  V30 2680 C 259.535 3.90309 -3.16171 0
M  V30 2681 C 261.529 3.81652 -5.1051 0
M  V30 2682 C 259.216 4.13839 -4.49644 0
M  V30 2683 C 260.214 4.09502 -5.46623 0
M  V30 2684 O 259.902 4.32426 -6.77689 0
M  V30 2685 H 259.634 0.591997 -0.326367 0
M  V30 2686 H 262.188 1.394 -1.50854 0
M  V30 2687 H 260.418 3.80805 -0.672667 0
M  V30 2688 H 262.107 3.9132 -1.07812 0
M  V30 2689 H 262.873 3.35865 -3.49885 0
M  V30 2690 H 258.752 3.92811 -2.41289 0
M  V30 2691 H 262.296 3.78182 -5.86195 0
M  V30 2692 H 258.193 4.35232 -4.767 0
M  V30 2693 H 258.961 4.49896 -6.83766 0
M  V30 2694 N 261.624 0.925811 1.2754 0
M  V30 2695 C 262.554 0.440748 2.29303 0
M  V30 2696 C 263.535 -0.497971 1.62648 0
M  V30 2697 O 264.72 -0.403126 1.8997 0
M  V30 2698 C 261.85 -0.309048 3.45922 0
M  V30 2699 C 260.804 0.54166 4.24559 0
M  V30 2700 C 260.13 -0.337191 5.33636 0
M  V30 2701 C 261.43 1.80516 4.90114 0
M  V30 2702 H 263.124 1.29121 2.70126 0
M  V30 2703 H 260.67 0.622323 1.29858 0
M  V30 2704 H 262.623 -0.659315 4.1621 0
M  V30 2705 H 261.347 -1.19352 3.04011 0
M  V30 2706 H 260.006 0.874609 3.56014 0
M  V30 2707 H 259.654 -1.22056 4.87966 0
M  V30 2708 H 259.354 0.228497 5.87156 0
M  V30 2709 H 260.878 -0.683072 6.06767 0
M  V30 2710 H 262.292 1.52307 5.52698 0
M  V30 2711 H 260.689 2.3142 5.53683 0
M  V30 2712 H 261.759 2.52581 4.13921 0
M  V30 2713 N 263.102 -1.41638 0.69111 0
M  V30 2714 C 264.035 -2.28183 -0.0274913 0
M  V30 2715 C 265.013 -1.41984 -0.792424 0
M  V30 2716 O 266.197 -1.71415 -0.784169 0
M  V30 2717 C 263.324 -3.22135 -1.04628 0
M  V30 2718 C 262.37 -4.24848 -0.375037 0
M  V30 2719 S 263.203 -5.28231 0.879321 0
M  V30 2720 C 264.359 -6.25748 -0.137983 0
M  V30 2721 H 264.592 -2.88782 0.706553 0
M  V30 2722 H 262.125 -1.46709 0.481222 0
M  V30 2723 H 264.083 -3.76797 -1.62894 0
M  V30 2724 H 262.744 -2.6064 -1.75287 0
M  V30 2725 H 261.937 -4.90837 -1.14433 0
M  V30 2726 H 261.539 -3.73758 0.134434 0
M  V30 2727 H 263.831 -6.70188 -0.992659 0
M  V30 2728 H 264.774 -7.06417 0.487867 0
M  V30 2729 H 265.182 -5.62363 -0.490762 0
M  V30 2730 N 264.58 -0.43555 -1.51462 0
M  V30 2731 C 265.828 0.131254 -2.01673 0
M  V30 2732 C 266.149 1.43368 -1.32177 0
M  V30 2733 O 265.419 1.90524 -0.455769 0
M  V30 2734 H 263.999 0.0514954 -0.745223 0
M  V30 2735 H 266.661 -0.577847 -1.86137 0
M  V30 2736 H 265.757 0.308446 -3.10572 0
M  V30 2737 N 266.058 1.56714 -0.166846 0
M  V30 2738 C 267.283 2.01557 0.488833 0
M  V30 2739 C 267.708 1.0463 1.56314 0
M  V30 2740 O 267.066 0.0251304 1.81283 0
M  V30 2741 C 267.114 3.4503 1.04818 0
M  V30 2742 O 266.218 3.51163 2.16236 0
M  V30 2743 H 265.559 0.653516 0.117526 0
M  V30 2744 H 268.089 2.02818 -0.269421 0
M  V30 2745 H 268.099 3.84243 1.37191 0
M  V30 2746 H 266.774 4.15077 0.261572 0
M  V30 2747 H 265.351 3.23807 1.84942 0
M  V30 2748 N 267.536 -0.106894 1.57237 0
M  V30 2749 C 268.469 -1.16125 1.96444 0
M  V30 2750 C 269.447 -1.3947 0.835871 0
M  V30 2751 O 270.631 -1.53425 1.09513 0
M  V30 2752 C 267.758 -2.51277 2.27107 0
M  V30 2753 C 266.804 -2.44285 3.4961 0
M  V30 2754 S 267.637 -1.87077 5.01759 0
M  V30 2755 C 268.793 -3.23877 5.35588 0
M  V30 2756 H 269.026 -0.826971 2.85567 0
M  V30 2757 H 266.559 -0.314124 1.51171 0
M  V30 2758 H 268.517 -3.29035 2.45451 0
M  V30 2759 H 267.178 -2.81879 1.38576 0
M  V30 2760 H 266.371 -3.4387 3.68469 0
M  V30 2761 H 265.973 -1.74652 3.30715 0
M  V30 2762 H 268.265 -4.20122 5.31511 0
M  V30 2763 H 269.208 -3.09833 6.36717 0
M  V30 2764 H 269.616 -3.22864 4.63054 0
M  V30 2765 N 269.014 -1.53014 -0.377408 0
M  V30 2766 C 270.242 -1.72515 -1.14219 0
M  V30 2767 C 270.657 -0.448735 -1.8339 0
M  V30 2768 O 270.014 0.577592 -1.73119 0
M  V30 2769 C 270.065 -2.8826 -2.18148 0
M  V30 2770 O 269.786 -4.10962 -1.51795 0
M  V30 2771 C 271.287 -3.19536 -3.07264 0
M  V30 2772 H 268.507 -0.577301 -0.342001 0
M  V30 2773 H 271.051 -1.99712 -0.439935 0
M  V30 2774 H 269.206 -2.63492 -2.83991 0
M  V30 2775 H 269.62 -4.75693 -2.20945 0
M  V30 2776 H 271.094 -4.03959 -3.76193 0
M  V30 2777 H 271.571 -2.34403 -3.71419 0
M  V30 2778 H 272.177 -3.46186 -2.47053 0
M  V30 2779 N 270.492 0.636531 -1.44174 0
M  V30 2780 C 271.903 1.21806 -1.41493 0
M  V30 2781 C 272.254 1.95785 -0.1275 0
M  V30 2782 O 271.379 2.02147 0.772376 0
M  V30 2783 C 271.974 2.21551 -2.56321 0
M  V30 2784 C 270.533 2.75143 -2.56853 0
M  V30 2785 C 269.68 1.50052 -2.33195 0
M  V30 2786 H 272.631 0.427531 -1.52833 0
M  V30 2787 H 272.652 3.0405 -2.28765 0
M  V30 2788 H 272.164 1.67679 -3.50008 0
M  V30 2789 H 270.265 3.33033 -1.67093 0
M  V30 2790 H 270.378 3.2155 -3.55165 0
M  V30 2791 H 268.742 1.77993 -1.82183 0
M  V30 2792 H 269.525 0.980903 -3.28988 0
M  V30 2793 N 271.97 1.30982 0.876444 0
M  V30 2794 C 272.902 1.13902 1.98894 0
M  V30 2795 C 273.915 0.0798815 1.62604 0
M  V30 2796 O 275.104 0.326743 1.75484 0
M  V30 2797 C 272.204 0.716699 3.31235 0
M  V30 2798 C 271.377 1.85945 3.95908 0
M  V30 2799 C 270.436 1.42426 5.06558 0
M  V30 2800 O 269.462 2.13287 5.27729 0
M  V30 2801 N 270.664 0.308025 5.79682 0
M  V30 2802 H 273.429 2.09724 2.14094 0
M  V30 2803 H 270.99 1.2323 1.05004 0
M  V30 2804 H 272.982 0.408403 4.02634 0
M  V30 2805 H 271.552 -0.149719 3.12241 0
M  V30 2806 H 270.772 2.33541 3.17573 0
M  V30 2807 H 272.06 2.62503 4.35855 0
M  V30 2808 H 271.458 -0.282241 5.64995 0
M  V30 2809 H 270.015 0.0592282 6.51773 0
M  V30 2810 N 273.449 -1.08991 1.13837 0
M  V30 2811 C 274.412 -2.13925 0.822715 0
M  V30 2812 C 275.412 -1.599 -0.1699 0
M  V30 2813 O 276.602 -1.74104 0.0577251 0
M  V30 2814 C 273.734 -3.40155 0.225318 0
M  V30 2815 H 274.927 -2.43358 1.75262 0
M  V30 2816 H 272.48 -1.24603 0.943594 0
M  V30 2817 H 273.215 -3.16352 -0.713594 0
M  V30 2818 H 273 -3.80661 0.940193 0
M  V30 2819 H 274.49 -4.17594 0.0214784 0
M  V30 2820 N 274.927 -0.932562 -1.27047 0
M  V30 2821 C 276.173 -0.576412 -1.94436 0
M  V30 2822 C 276.506 0.880891 -1.73072 0
M  V30 2823 O 275.781 1.62905 -1.06264 0
M  V30 2824 C 276.064 -0.909031 -3.48437 0
M  V30 2825 C 275.917 -2.42044 -3.79123 0
M  V30 2826 C 277.236 -0.418341 -4.38107 0
M  V30 2827 H 274.355 -0.210888 -0.706184 0
M  V30 2828 H 276.997 -1.16522 -1.50075 0
M  V30 2829 H 275.147 -0.407947 -3.86352 0
M  V30 2830 H 276.819 -2.99359 -3.50973 0
M  V30 2831 H 275.062 -2.86758 -3.25503 0
M  V30 2832 H 275.733 -2.6037 -4.86736 0
M  V30 2833 H 278.209 -0.847856 -4.0737 0
M  V30 2834 H 277.085 -0.679981 -5.44672 0
M  V30 2835 H 277.346 0.681642 -4.36814 0
M  V30 2836 N 276.405 1.4127 -0.698611 0
M  V30 2837 C 277.335 2.33447 -0.049629 0
M  V30 2838 C 278.316 1.51982 0.763898 0
M  V30 2839 O 279.501 1.80509 0.716257 0
M  V30 2840 C 276.631 3.35828 0.885267 0
M  V30 2841 C 275.585 4.27627 0.178613 0
M  V30 2842 C 274.911 5.20406 1.22807 0
M  V30 2843 C 276.211 5.13459 -0.956933 0
M  V30 2844 H 277.905 2.87966 -0.81951 0
M  V30 2845 H 275.451 1.38461 -0.395538 0
M  V30 2846 H 277.404 3.9924 1.34854 0
M  V30 2847 H 276.128 2.79666 1.68685 0
M  V30 2848 H 274.787 3.65643 -0.26466 0
M  V30 2849 H 274.435 4.60558 2.02226 0
M  V30 2850 H 274.135 5.82661 0.760239 0
M  V30 2851 H 275.659 5.86695 1.69179 0
M  V30 2852 H 277.073 5.70421 -0.573805 0
M  V30 2853 H 275.47 5.8467 -1.35205 0
M  V30 2854 H 276.54 4.50443 -1.79524 0
M  V30 2855 N 277.883 0.443576 1.51229 0
M  V30 2856 C 278.846 -0.353132 2.26463 0
M  V30 2857 C 279.846 -0.944338 1.3015 0
M  V30 2858 O 281.036 -0.817813 1.5381 0
M  V30 2859 C 278.168 -1.50023 3.06114 0
M  V30 2860 H 279.361 0.3063 2.98332 0
M  V30 2861 H 276.914 0.196902 1.55055 0
M  V30 2862 H 277.649 -2.19553 2.38677 0
M  V30 2863 H 277.434 -1.08241 3.76864 0
M  V30 2864 H 278.924 -2.06296 3.63087 0
M  V30 2865 N 279.361 -1.56624 0.175154 0
M  V30 2866 C 280.608 -1.96999 -0.468811 0
M  V30 2867 C 280.936 -1.06129 -1.62994 0
M  V30 2868 O 280.191 -0.0961771 -1.95464 0
M  V30 2869 C 280.49 -3.43419 -0.989864 0
M  V30 2870 C 280.156 -4.50866 0.0557687 0
M  V30 2871 C 278.818 -4.79975 0.343134 0
M  V30 2872 C 281.17 -5.15551 0.765308 0
M  V30 2873 C 278.498 -5.71066 1.34536 0
M  V30 2874 C 280.85 -6.07724 1.75654 0
M  V30 2875 C 279.514 -6.35199 2.05132 0
M  V30 2876 H 278.784 -0.720869 -0.17155 0
M  V30 2877 H 281.431 -1.89616 0.267924 0
M  V30 2878 H 279.736 -3.47772 -1.80449 0
M  V30 2879 H 281.433 -3.72002 -1.49719 0
M  V30 2880 H 278.023 -4.28229 -0.178381 0
M  V30 2881 H 282.207 -4.9317 0.556513 0
M  V30 2882 H 277.463 -5.90635 1.57988 0
M  V30 2883 H 281.637 -6.56912 2.31169 0
M  V30 2884 H 279.264 -7.05584 2.8294 0
M  V30 2885 N 280.839 0.0985539 -1.57292 0
M  V30 2886 C 282.085 0.803867 -1.86188 0
M  V30 2887 C 282.418 1.78549 -0.763794 0
M  V30 2888 O 281.693 1.93153 0.22855 0
M  V30 2889 C 281.976 1.53568 -3.25713 0
M  V30 2890 C 281.829 0.572277 -4.46145 0
M  V30 2891 C 283.148 2.48708 -3.63087 0
M  V30 2892 H 280.267 0.290781 -0.677211 0
M  V30 2893 H 282.909 0.0675783 -1.8988 0
M  V30 2894 H 281.059 2.16332 -3.22696 0
M  V30 2895 H 282.731 -0.0480894 -4.61275 0
M  V30 2896 H 280.974 -0.114618 -4.33649 0
M  V30 2897 H 281.645 1.12139 -5.40489 0
M  V30 2898 H 284.121 1.96039 -3.67026 0
M  V30 2899 H 282.997 2.96932 -4.61652 0
M  V30 2900 H 283.258 3.32309 -2.91588 0
M  V30 2901 N 282.317 1.53212 0.369288 0
M  V30 2902 C 283.28 1.7872 1.43498 0
M  V30 2903 C 284.28 0.657554 1.46741 0
M  V30 2904 O 285.47 0.925736 1.47566 0
M  V30 2905 C 282.602 1.90591 2.82645 0
M  V30 2906 H 283.795 2.73894 1.22156 0
M  V30 2907 H 281.348 1.44233 0.602203 0
M  V30 2908 H 282.083 0.974709 3.09306 0
M  V30 2909 H 281.868 2.72751 2.8169 0
M  V30 2910 H 283.358 2.11931 3.59826 0
M  V30 2911 N 283.795 -0.628877 1.44509 0
M  V30 2912 C 284.725 -1.75187 1.54376 0
M  V30 2913 C 285.706 -1.65411 0.396618 0
M  V30 2914 O 286.891 -1.84137 0.617031 0
M  V30 2915 C 284.021 -3.13725 1.48976 0
M  V30 2916 C 282.975 -3.38291 2.62189 0
M  V30 2917 C 282.301 -4.76883 2.41841 0
M  V30 2918 C 283.601 -3.30632 4.04326 0
M  V30 2919 H 285.295 -1.67187 2.48373 0
M  V30 2920 H 282.841 -0.802909 1.19538 0
M  V30 2921 H 284.794 -3.92064 1.54478 0
M  V30 2922 H 283.518 -3.22515 0.514961 0
M  V30 2923 H 282.177 -2.62334 2.56079 0
M  V30 2924 H 281.825 -4.82378 1.42548 0
M  V30 2925 H 281.525 -4.94278 3.17747 0
M  V30 2926 H 283.049 -5.57449 2.49165 0
M  V30 2927 H 284.463 -3.98873 4.11793 0
M  V30 2928 H 282.86 -3.59561 4.80454 0
M  V30 2929 H 283.93 -2.28404 4.27738 0
M  V30 2930 N 285.273 -1.31445 -0.869486 0
M  V30 2931 C 286.522 -1.20517 -1.61736 0
M  V30 2932 C 286.835 0.235341 -1.94179 0
M  V30 2933 O 288.041 0.466312 -2.67465 0
M  V30 2934 C 286.497 -2.10982 -2.91573 0
M  V30 2935 C 286.105 -3.60032 -2.66611 0
M  V30 2936 C 287.849 -2.08856 -3.69567 0
M  V30 2937 C 285.756 -4.42503 -3.92358 0
M  V30 2938 H 284.686 -0.447493 -0.606849 0
M  V30 2939 H 287.337 -1.56303 -0.96133 0
M  V30 2940 H 285.719 -1.68095 -3.58553 0
M  V30 2941 H 286.893 -4.11167 -2.08035 0
M  V30 2942 H 285.208 -3.64139 -2.0197 0
M  V30 2943 H 287.805 -2.67716 -4.62852 0
M  V30 2944 H 288.148 -1.07582 -4.02159 0
M  V30 2945 H 288.681 -2.49945 -3.09471 0
M  V30 2946 H 285.42 -5.44533 -3.64916 0
M  V30 2947 H 284.94 -3.96125 -4.50383 0
M  V30 2948 H 286.619 -4.54741 -4.60238 0
M  V30 2949 N 286.751 1.08385 -1.14413 0
M  V30 2950 C 288.162 1.62258 -0.923535 0
M  V30 2951 C 288.513 1.88691 0.537595 0
M  V30 2952 O 287.638 1.64454 1.40655 0
M  V30 2953 C 288.233 2.94781 -1.67002 0
M  V30 2954 C 286.792 3.45437 -1.495 0
M  V30 2955 C 285.939 2.19668 -1.69238 0
M  V30 2956 H 288.89 0.916086 -1.2959 0
M  V30 2957 H 288.911 3.63229 -1.13334 0
M  V30 2958 H 288.423 2.7551 -2.73342 0
M  V30 2959 H 286.524 3.6981 -0.455097 0
M  V30 2960 H 286.637 4.22173 -2.2651 0
M  V30 2961 H 285.001 2.28849 -1.11804 0
M  V30 2962 H 285.784 2.02905 -2.7692 0
M  V30 2963 N 288.23 0.939286 1.26551 0
M  V30 2964 C 289.641 0.628782 1.75793 0
M  V30 2965 C 289.992 -0.856046 1.7654 0
M  V30 2966 O 289.117 -1.66994 1.3763 0
M  V30 2967 C 289.712 1.13465 3.19235 0
M  V30 2968 C 288.271 0.874601 3.66098 0
M  V30 2969 C 287.418 1.28667 2.45642 0
M  V30 2970 H 290.369 1.1178 1.12654 0
M  V30 2971 H 290.39 0.487609 3.77363 0
M  V30 2972 H 289.902 2.21535 3.1866 0
M  V30 2973 H 288.003 -0.191793 3.72106 0
M  V30 2974 H 288.116 1.50028 4.55004 0
M  V30 2975 H 286.48 0.705109 2.44745 0
M  V30 2976 H 287.263 2.37625 2.47769 0
M  V30 2977 N 289.708 -1.40897 0.706093 0
M  V30 2978 C 290.936 -2.05373 0.250887 0
M  V30 2979 C 291.351 -1.53172 -1.10381 0
M  V30 2980 O 290.708 -0.684305 -1.69185 0
M  V30 2981 C 290.759 -3.6088 0.211571 0
M  V30 2982 O 290.48 -4.11153 1.51276 0
M  V30 2983 C 291.981 -4.42517 -0.263346 0
M  V30 2984 H 289.201 -0.66115 0.114552 0
M  V30 2985 H 291.745 -1.80479 0.961635 0
M  V30 2986 H 289.9 -3.84777 -0.450073 0
M  V30 2987 H 290.314 -5.05279 1.40689 0
M  V30 2988 H 291.788 -5.51479 -0.239718 0
M  V30 2989 H 292.265 -4.19396 -1.30397 0
M  V30 2990 H 292.871 -4.23708 0.367677 0
M  V30 2991 N 291.186 -0.45159 -1.50991 0
M  V30 2992 C 292.116 0.342898 -2.30969 0
M  V30 2993 C 293.097 1.00815 -1.37005 0
M  V30 2994 O 294.282 1.00907 -1.65926 0
M  V30 2995 C 291.412 1.43637 -3.16205 0
M  V30 2996 C 290.366 0.893818 -4.18563 0
M  V30 2997 C 289.692 2.08411 -4.92411 0
M  V30 2998 C 290.992 -0.0815568 -5.22236 0
M  V30 2999 H 292.686 -0.324556 -2.97636 0
M  V30 3000 H 290.232 -0.157531 -1.43136 0
M  V30 3001 H 292.185 1.9995 -3.70942 0
M  V30 3002 H 290.909 2.13232 -2.47386 0
M  V30 3003 H 289.568 0.352798 -3.64898 0
M  V30 3004 H 289.216 2.76658 -4.20082 0
M  V30 3005 H 288.916 1.72741 -5.61636 0
M  V30 3006 H 290.44 2.65251 -5.49976 0
M  V30 3007 H 291.854 0.391742 -5.7196 0
M  V30 3008 H 290.251 -0.351551 -5.99069 0
M  V30 3009 H 291.321 -1.01374 -4.74185 0
M  V30 3010 N 292.664 1.56529 -0.183458 0
M  V30 3011 C 294.075 1.83739 0.331177 0
M  V30 3012 C 294.426 1.10373 1.62211 0
M  V30 3013 O 293.551 0.36071 2.13373 0
M  V30 3014 C 294.146 3.33306 0.607646 0
M  V30 3015 C 292.705 3.60969 1.06668 0
M  V30 3016 C 291.852 2.77086 0.109029 0
M  V30 3017 H 294.803 1.53379 -0.407484 0
M  V30 3018 H 294.824 3.51444 1.45832 0
M  V30 3019 H 294.336 3.86677 -0.332086 0
M  V30 3020 H 292.437 3.13021 2.0211 0
M  V30 3021 H 292.55 4.69231 0.967447 0
M  V30 3022 H 290.914 2.47319 0.608714 0
M  V30 3023 H 291.697 3.33241 -0.82494 0
M  V30 3024 N 294.142 -0.090211 1.57342 0
M  V30 3025 C 295.39 -0.791241 1.85967 0
M  V30 3026 C 295.711 -1.7903 0.772859 0
M  V30 3027 O 294.981 -1.94872 -0.200398 0
M  V30 3028 H 293.561 -0.295205 0.686195 0
M  V30 3029 H 296.223 -0.0706782 1.94772 0
M  V30 3030 H 295.319 -1.31882 2.82867 0
M  V30 3031 N 295.62 -1.53406 -0.361157 0
M  V30 3032 C 296.848 -1.73717 -1.12383 0
M  V30 3033 C 297.263 -0.468161 -1.82904 0
M  V30 3034 O 296.62 0.559198 -1.73722 0
M  V30 3035 C 296.671 -2.90558 -2.15078 0
M  V30 3036 O 296.392 -4.12549 -1.47428 0
M  V30 3037 C 297.893 -3.22777 -3.03858 0
M  V30 3038 H 295.113 -0.580896 -0.335858 0
M  V30 3039 H 297.657 -2.00167 -0.418728 0
M  V30 3040 H 295.812 -2.66489 -2.8118 0
M  V30 3041 H 296.226 -4.78009 -2.15887 0
M  V30 3042 H 297.7 -4.07927 -3.71887 0
M  V30 3043 H 298.177 -2.38329 -3.68912 0
M  V30 3044 H 298.783 -3.48787 -2.43367 0
M  V30 3045 N 297.098 0.621204 -1.44841 0
M  V30 3046 C 298.046 1.75385 -1.52784 0
M  V30 3047 C 299.04 1.64639 -0.398779 0
M  V30 3048 O 300.246 1.70598 -0.574137 0
M  V30 3049 H 296.621 0.579193 -0.479625 0
M  V30 3050 H 298.592 1.6581 -2.48092 0
M  V30 3051 C 297.341 3.13742 -1.4987 0
M  V30 3052 H 296.664 3.22663 -2.36069 0
M  V30 3053 H 298.104 3.92861 -1.59487 0
M  V30 3054 C 296.563 3.36175 -0.220973 0
M  V30 3055 O 297.093 3.95469 0.704782 0
M  V30 3056 N 295.299 2.90348 -0.120963 0
M  V30 3057 H 294.846 2.42278 -0.875162 0
M  V30 3058 H 294.804 3.05732 0.733168 0
M  V30 3059 N 298.576 1.31904 0.862503 0
M  V30 3060 C 299.825 1.21373 1.61094 0
M  V30 3061 C 300.138 -0.22504 1.94301 0
M  V30 3062 O 301.344 -0.452121 2.67709 0
M  V30 3063 C 299.8 2.12525 2.9045 0
M  V30 3064 C 299.408 3.61441 2.64697 0
M  V30 3065 C 301.152 2.10813 3.68454 0
M  V30 3066 C 299.059 4.44578 3.90006 0
M  V30 3067 H 297.989 0.450705 0.604468 0
M  V30 3068 H 300.64 1.56811 0.953027 0
M  V30 3069 H 299.022 1.69994 3.57656 0
M  V30 3070 H 300.196 4.12264 2.05851 0
M  V30 3071 H 298.511 3.65205 2.00036 0
M  V30 3072 H 301.108 2.70167 4.61426 0
M  V30 3073 H 301.451 1.09713 4.01583 0
M  V30 3074 H 301.984 2.51583 3.08141 0
M  V30 3075 H 298.723 5.46461 3.62023 0
M  V30 3076 H 298.243 3.98508 4.48276 0
M  V30 3077 H 299.922 4.57176 4.5782 0
M  V30 3078 N 300.054 -1.07777 1.14986 0
M  V30 3079 C 301.3 -1.80557 0.923422 0
M  V30 3080 C 301.633 -1.86298 -0.548337 0
M  V30 3081 O 300.908 -1.34354 -1.40639 0
M  V30 3082 C 301.191 -3.25839 1.53299 0
M  V30 3083 C 301.044 -3.28269 3.07505 0
M  V30 3084 C 302.363 -4.22991 1.21518 0
M  V30 3085 H 299.482 -0.655493 0.336894 0
M  V30 3086 H 302.124 -1.26144 1.42083 0
M  V30 3087 H 300.274 -3.72306 1.10999 0
M  V30 3088 H 301.946 -2.90079 3.58681 0
M  V30 3089 H 300.189 -2.67355 3.4162 0
M  V30 3090 H 300.86 -4.30691 3.45266 0
M  V30 3091 H 303.336 -3.84894 1.581 0
M  V30 3092 H 302.212 -5.22945 1.66793 0
M  V30 3093 H 302.473 -4.41904 0.131505 0
M  V30 3094 N 301.532 -0.945985 -1.26051 0
M  V30 3095 C 302.462 -0.477172 -2.28572 0
M  V30 3096 C 303.443 0.472032 -1.63419 0
M  V30 3097 O 304.628 0.372853 -1.90587 0
M  V30 3098 C 301.758 0.253975 -3.4637 0
M  V30 3099 C 300.712 -0.609135 -4.23643 0
M  V30 3100 C 300.038 0.252252 -5.34105 0
M  V30 3101 C 301.338 -1.8829 -4.8718 0
M  V30 3102 H 303.032 -1.33402 -2.68038 0
M  V30 3103 H 300.578 -0.642904 -1.28852 0
M  V30 3104 H 302.531 0.593016 -4.17207 0
M  V30 3105 H 301.255 1.145 -3.05871 0
M  V30 3106 H 299.914 -0.931138 -3.54578 0
M  V30 3107 H 299.562 1.14278 -4.89846 0
M  V30 3108 H 299.262 -0.32188 -5.86718 0
M  V30 3109 H 300.786 0.586454 -6.07777 0
M  V30 3110 H 302.2 -1.61081 -5.50205 0
M  V30 3111 H 300.597 -2.40199 -5.49931 0
M  V30 3112 H 301.667 -2.59134 -4.09851 0
M  V30 3113 N 303.011 1.40521 -0.713556 0
M  V30 3114 C 304.259 2.00527 -0.251692 0
M  V30 3115 C 304.58 1.56857 1.15848 0
M  V30 3116 O 303.85 0.807127 1.785 0
M  V30 3117 H 302.43 0.741551 -0.0900646 0
M  V30 3118 H 305.092 1.71887 -0.918733 0
M  V30 3119 H 304.188 3.10813 -0.283192 0
M  V30 3120 N 304.489 0.459591 1.5075 0
M  V30 3121 C 305.452 -0.329093 2.26825 0
M  V30 3122 C 306.452 -0.930481 1.31144 0
M  V30 3123 O 307.642 -0.801453 1.54669 0
M  V30 3124 C 304.774 -1.46768 3.07688 0
M  V30 3125 H 305.967 0.337924 2.9799 0
M  V30 3126 H 303.52 0.213336 1.54837 0
M  V30 3127 H 304.255 -2.17009 2.40993 0
M  V30 3128 H 304.04 -1.04238 3.77991 0
M  V30 3129 H 305.53 -2.02433 3.65254 0
M  V30 3130 N 305.967 -1.56429 0.191757 0
M  V30 3131 C 306.897 -2.21937 -0.725696 0
M  V30 3132 C 307.878 -1.1814 -1.2238 0
M  V30 3133 O 309.063 -1.46636 -1.27325 0
M  V30 3134 C 306.193 -2.87611 -1.94672 0
M  V30 3135 C 305.147 -3.97623 -1.58366 0
M  V30 3136 C 304.473 -4.50446 -2.88102 0
M  V30 3137 C 305.773 -5.16197 -0.796133 0
M  V30 3138 H 307.467 -2.98861 -0.179606 0
M  V30 3139 H 305.013 -1.43749 -0.0849464 0
M  V30 3140 H 306.966 -3.3212 -2.59373 0
M  V30 3141 H 305.69 -2.08087 -2.51728 0
M  V30 3142 H 304.349 -3.53801 -0.960247 0
M  V30 3143 H 303.997 -3.67688 -3.43241 0
M  V30 3144 H 303.697 -5.24675 -2.64556 0
M  V30 3145 H 305.221 -4.97654 -3.53798 0
M  V30 3146 H 306.635 -5.57271 -1.34618 0
M  V30 3147 H 305.032 -5.96471 -0.658928 0
M  V30 3148 H 306.102 -4.84473 0.203478 0
M  V30 3149 N 307.445 0.0818655 -1.57387 0
M  V30 3150 C 308.856 0.634871 -1.75574 0
M  V30 3151 C 309.207 1.78435 -0.815809 0
M  V30 3152 O 308.332 2.164 0.0025366 0
M  V30 3153 C 308.927 1.15845 -3.18379 0
M  V30 3154 C 307.486 1.65741 -3.37945 0
M  V30 3155 C 306.633 0.572549 -2.71325 0
M  V30 3156 H 309.584 -0.144268 -1.58043 0
M  V30 3157 H 309.605 2.02751 -3.21982 0
M  V30 3158 H 309.117 0.321631 -3.86765 0
M  V30 3159 H 307.218 2.51781 -2.74658 0
M  V30 3160 H 307.331 1.74129 -4.46336 0
M  V30 3161 H 305.695 1.01518 -2.33594 0
M  V30 3162 H 306.478 -0.253918 -3.4236 0
M  V30 3163 N 308.923 1.53595 0.353017 0
M  V30 3164 C 309.833 1.83897 1.45667 0
M  V30 3165 C 310.849 0.728334 1.58023 0
M  V30 3166 O 312.025 1.01968 1.73679 0
M  V30 3167 C 309.09 2.03383 2.80778 0
M  V30 3168 C 308.151 3.27262 2.77845 0
M  V30 3169 C 307.384 3.45809 4.06512 0
M  V30 3170 O 307.607 2.68387 5.03314 0
M  V30 3171 O 306.541 4.39207 4.11559 0
M  V30 3172 H 310.367 2.77686 1.2298 0
M  V30 3173 H 307.952 1.39132 0.544308 0
M  V30 3174 H 309.834 2.17698 3.60812 0
M  V30 3175 H 308.509 1.12783 3.03417 0
M  V30 3176 H 307.416 3.18359 1.96465 0
M  V30 3177 H 308.749 4.17824 2.60161 0
M  V30 3178 N 310.401 -0.613514 1.45168 0
M  V30 3179 C 311.678 -1.37263 1.39349 0
M  V30 3180 C 312.058 -2.11012 0.0610848 0
M  V30 3181 O 311.406 -2.07502 -0.956825 0
M  V30 3182 C 311.616 -2.3244 2.60332 0
M  V30 3183 C 312.964 -2.9523 3.05163 0
M  V30 3184 O 313.988 -2.42762 2.60663 0
M  V30 3185 O 312.847 -3.90454 3.82372 0
M  V30 3186 H 309.941 -0.615188 0.552696 0
M  V30 3187 H 312.487 -0.637097 1.57287 0
M  V30 3188 H 311.259 -1.77164 3.48896 0
M  V30 3189 H 310.882 -3.13383 2.44698 0
M  V30 3190 N 311.879 -1.3236 -0.855495 0
M  V30 3191 C 313.295 -1.11332 -1.14356 0
M  V30 3192 C 313.495 0.106751 -2.01217 0
M  V30 3193 O 312.551 0.791891 -2.39761 0
M  V30 3194 C 313.864 -2.39237 -1.82171 0
M  V30 3195 C 315.412 -2.44986 -1.9481 0
M  V30 3196 C 315.887 -3.7281 -2.66039 0
M  V30 3197 N 317.378 -3.73787 -2.73565 0
M  V30 3198 C 318.113 -4.69394 -3.29327 0
M  V30 3199 N 317.609 -5.75367 -3.85907 0
M  V30 3200 N 319.402 -4.56893 -3.27423 0
M  V30 3201 H 311.553 -2.10586 -0.277027 0
M  V30 3202 H 313.816 -0.929701 -0.185364 0
M  V30 3203 H 313.522 -3.28431 -1.25802 0
M  V30 3204 H 313.396 -2.50134 -2.82335 0
M  V30 3205 H 315.783 -1.56252 -2.50338 0
M  V30 3206 H 315.864 -2.38043 -0.936448 0
M  V30 3207 H 315.508 -4.61918 -2.11174 0
M  V30 3208 H 315.438 -3.77024 -3.67642 0
M  V30 3209 H 317.929 -2.97189 -2.33424 0
M  V30 3210 H 318.242 -6.44378 -4.26611 0
M  V30 3211 H 316.587 -5.79123 -3.84242 0
M  V30 3212 H 319.778 -3.73269 -2.82467 0
M  V30 3213 H 319.951 -5.31577 -3.7058 0
M  V30 3214 N 313.357 1.07166 -1.15556 0
M  V30 3215 C 314.307 2.12649 -0.82247 0
M  V30 3216 C 315.291 1.59725 0.194129 0
M  V30 3217 O 316.483 1.76999 -0.00540402 0
M  V30 3218 C 313.612 3.41847 -0.315572 0
M  V30 3219 C 312.698 4.0162 -1.36244 0
M  V30 3220 N 313.089 4.35625 -2.5703 0
M  V30 3221 C 311.387 4.29114 -1.21562 0
M  V30 3222 C 312.088 4.83017 -3.24144 0
M  V30 3223 N 311.064 4.81906 -2.51531 0
M  V30 3224 H 314.866 2.36776 -1.74111 0
M  V30 3225 H 312.38 1.24622 -1.0413 0
M  V30 3226 H 314.377 4.16859 -0.0585855 0
M  V30 3227 H 313.037 3.19163 0.597105 0
M  V30 3228 H 314.048 4.26253 -2.94158 0
M  V30 3229 H 310.725 4.15919 -0.362988 0
M  V30 3230 H 312.115 5.18605 -4.27198 0
M  V30 3231 N 314.835 0.952656 1.25548 0
M  V30 3232 C 316.084 0.602053 1.92505 0
M  V30 3233 C 316.397 -0.864663 1.75451 0
M  V30 3234 O 317.603 -1.32514 2.36965 0
M  V30 3235 C 316.059 1.02607 3.44963 0
M  V30 3236 C 315.667 2.51519 3.70732 0
M  V30 3237 C 317.411 0.747905 4.1786 0
M  V30 3238 C 315.318 2.87732 5.16686 0
M  V30 3239 H 314.248 0.22146 0.720744 0
M  V30 3240 H 316.899 1.15684 1.42441 0
M  V30 3241 H 315.281 0.399712 3.93978 0
M  V30 3242 H 316.455 3.19157 3.32378 0
M  V30 3243 H 314.77 2.76786 3.11092 0
M  V30 3244 H 317.367 0.994647 5.25367 0
M  V30 3245 H 317.71 -0.315629 4.15102 0
M  V30 3246 H 318.243 1.33452 3.74747 0
M  V30 3247 H 314.982 3.93095 5.24554 0
M  V30 3248 H 314.502 2.24765 5.56094 0
M  V30 3249 H 316.181 2.76817 5.84792 0
M  V30 3250 N 316.313 -1.40141 0.720998 0
M  V30 3251 C 317.59 -1.94677 0.189757 0
M  V30 3252 C 317.97 -1.65879 -1.30566 0
M  V30 3253 O 317.318 -0.979391 -2.06447 0
M  V30 3254 C 317.528 -3.45279 0.508304 0
M  V30 3255 C 318.876 -4.22209 0.449934 0
M  V30 3256 O 319.9 -3.53413 0.444677 0
M  V30 3257 O 318.759 -5.44788 0.432189 0
M  V30 3258 H 315.853 -0.826459 0.0299026 0
M  V30 3259 H 318.399 -1.49719 0.7989 0
M  V30 3260 H 317.171 -3.59619 1.54239 0
M  V30 3261 H 316.794 -3.97386 -0.130525 0
M  V30 3262 N 317.792 -0.46758 -1.50504 0
M  V30 3263 C 319.208 -0.121533 -1.59137 0
M  V30 3264 C 319.408 1.3717 -1.47603 0
M  V30 3265 O 318.464 2.14464 -1.33272 0
M  V30 3266 C 319.777 -0.6686 -2.93173 0
M  V30 3267 C 321.325 -0.631716 -3.06559 0
M  V30 3268 C 321.8 -1.15627 -4.43164 0
M  V30 3269 N 323.291 -1.11553 -4.49567 0
M  V30 3270 C 324.026 -1.49195 -5.5365 0
M  V30 3271 N 323.522 -1.94269 -6.65005 0
M  V30 3272 N 325.315 -1.4082 -5.44175 0
M  V30 3273 H 317.466 -1.4388 -1.56245 0
M  V30 3274 H 319.729 -0.594784 -0.738198 0
M  V30 3275 H 319.435 -1.71453 -3.07078 0
M  V30 3276 H 319.309 -0.11021 -3.77039 0
M  V30 3277 H 321.696 0.405297 -2.92304 0
M  V30 3278 H 321.777 -1.22687 -2.24458 0
M  V30 3279 H 321.421 -2.1919 -4.58168 0
M  V30 3280 H 321.351 -0.537365 -5.23851 0
M  V30 3281 H 323.842 -0.784895 -3.69659 0
M  V30 3282 H 324.155 -2.21148 -7.40482 0
M  V30 3283 H 322.5 -1.98219 -6.66134 0
M  V30 3284 H 325.691 -1.0545 -4.56068 0
M  V30 3285 H 325.864 -1.70481 -6.25172 0
M  V30 3286 N 319.27 1.56325 -0.20005 0
M  V30 3287 C 320.2 2.22318 0.713916 0
M  V30 3288 C 321.181 1.18788 1.21752 0
M  V30 3289 O 322.366 1.47309 1.26545 0
M  V30 3290 C 319.496 2.88639 1.93144 0
M  V30 3291 C 318.45 3.98457 1.56255 0
M  V30 3292 C 317.776 4.51967 2.85709 0
M  V30 3293 C 319.076 5.16612 0.768747 0
M  V30 3294 H 320.77 2.98952 0.163755 0
M  V30 3295 H 318.316 1.43792 0.0773219 0
M  V30 3296 H 320.269 3.33491 2.57608 0
M  V30 3297 H 318.993 2.09419 2.50621 0
M  V30 3298 H 317.652 3.54305 0.941471 0
M  V30 3299 H 317.3 3.69503 3.41287 0
M  V30 3300 H 317 5.26071 2.6177 0
M  V30 3301 H 318.524 4.99523 3.51154 0
M  V30 3302 H 319.938 5.57977 1.3166 0
M  V30 3303 H 318.335 5.96812 0.627286 0
M  V30 3304 H 319.405 4.84358 -0.229168 0
M  V30 3305 N 320.748 -0.0735177 1.57428 0
M  V30 3306 C 321.711 -1.07192 2.02589 0
M  V30 3307 C 322.711 -1.31695 0.922661 0
M  V30 3308 O 323.901 -1.27445 1.18758 0
M  V30 3309 C 321.033 -2.41599 2.40506 0
M  V30 3310 H 322.226 -0.682727 2.92025 0
M  V30 3311 H 319.779 -0.319193 1.53006 0
M  V30 3312 H 320.514 -2.85354 1.5409 0
M  V30 3313 H 320.299 -2.25156 3.21009 0
M  V30 3314 H 321.789 -3.13367 2.76027 0
M  V30 3315 N 322.226 -1.5378 -0.344866 0
M  V30 3316 C 323.173 -1.81676 -1.42346 0
M  V30 3317 C 324.143 -0.662376 -1.52321 0
M  V30 3318 O 325.328 -0.906675 -1.67881 0
M  V30 3319 C 322.468 -2.03087 -2.79015 0
M  V30 3320 C 321.581 -3.30799 -2.77842 0
M  V30 3321 C 320.716 -3.42285 -4.0622 0
M  V30 3322 C 319.755 -4.6395 -3.9927 0
M  V30 3323 N 318.892 -4.72477 -5.19336 0
M  V30 3324 H 323.732 -2.73703 -1.17858 0
M  V30 3325 H 321.269 -1.35568 -0.570949 0
M  V30 3326 H 323.227 -2.1349 -3.58438 0
M  V30 3327 H 321.857 -1.14375 -3.01858 0
M  V30 3328 H 320.909 -3.29244 -1.90533 0
M  V30 3329 H 322.221 -4.20314 -2.68584 0
M  V30 3330 H 321.375 -3.52113 -4.94066 0
M  V30 3331 H 320.114 -2.50823 -4.18258 0
M  V30 3332 H 319.119 -4.54201 -3.09809 0
M  V30 3333 H 320.344 -5.56775 -3.88817 0
M  V30 3334 H 318.29 -3.83924 -5.3192 0
M  V30 3335 H 318.207 -5.55927 -5.12329 0
M  V30 3336 H 319.475 -4.86613 -6.08957 0
M  V30 3337 N 323.704 0.605807 -1.45491 0
M  V30 3338 C 325.12 0.926751 -1.29936 0
M  V30 3339 C 325.32 1.99896 -0.253706 0
M  V30 3340 O 324.376 2.50038 0.351737 0
M  V30 3341 C 325.689 1.36599 -2.67883 0
M  V30 3342 C 327.237 1.4801 -2.75793 0
M  V30 3343 C 327.712 1.95309 -4.14268 0
M  V30 3344 N 329.203 2.0254 -4.16571 0
M  V30 3345 C 329.938 2.40363 -5.20589 0
M  V30 3346 N 329.434 2.77143 -6.34952 0
M  V30 3347 N 331.227 2.40718 -5.07948 0
M  V30 3348 H 323.378 -0.102862 -2.12151 0
M  V30 3349 H 325.641 0.016639 -0.947854 0
M  V30 3350 H 325.347 0.652306 -3.45598 0
M  V30 3351 H 325.221 2.33215 -2.96463 0
M  V30 3352 H 327.608 2.1847 -1.98381 0
M  V30 3353 H 327.689 0.497041 -2.50925 0
M  V30 3354 H 327.333 1.25436 -4.92167 0
M  V30 3355 H 327.263 2.94532 -4.3653 0
M  V30 3356 H 329.754 1.76699 -3.34045 0
M  V30 3357 H 330.067 3.0489 -7.10114 0
M  V30 3358 H 328.412 2.74834 -6.3835 0
M  V30 3359 H 331.603 2.11392 -4.1765 0
M  V30 3360 H 331.776 2.69869 -5.89131 0
M  V30 3361 N 325.182 1.32811 0.848464 0
M  V30 3362 C 326.114 1.18095 1.96433 0
M  V30 3363 C 327.127 0.114354 1.62398 0
M  V30 3364 O 328.316 0.363892 1.74751 0
M  V30 3365 C 325.416 0.786798 3.2964 0
M  V30 3366 C 324.589 1.943 3.91875 0
M  V30 3367 C 323.648 1.53138 5.03423 0
M  V30 3368 O 322.674 2.24432 5.23086 0
M  V30 3369 N 323.876 0.430915 5.78898 0
M  V30 3370 H 326.641 2.14218 2.09597 0
M  V30 3371 H 324.202 1.2543 1.02367 0
M  V30 3372 H 326.194 0.493715 4.01677 0
M  V30 3373 H 324.764 -0.0834541 3.12489 0
M  V30 3374 H 323.984 2.40224 3.12547 0
M  V30 3375 H 325.272 2.71689 4.30189 0
M  V30 3376 H 324.67 -0.162333 5.65467 0
M  V30 3377 H 323.227 0.197466 6.51501 0
M  V30 3378 N 326.66 -1.06551 1.16123 0
M  V30 3379 C 328.076 -1.3142 0.905585 0
M  V30 3380 C 328.276 -1.96571 -0.442964 0
M  V30 3381 O 327.332 -2.23068 -1.18308 0
M  V30 3382 C 328.645 -2.19741 2.05267 0
M  V30 3383 C 330.193 -2.33165 2.08813 0
M  V30 3384 C 330.668 -3.24838 3.22868 0
M  V30 3385 N 332.159 -3.32421 3.22568 0
M  V30 3386 C 332.894 -4.0344 4.0746 0
M  V30 3387 N 332.39 -4.77003 5.02434 0
M  V30 3388 N 334.183 -3.99464 3.95456 0
M  V30 3389 H 326.334 -0.626548 2.02949 0
M  V30 3390 H 328.597 -0.338777 0.8854 0
M  V30 3391 H 328.303 -1.79142 3.02657 0
M  V30 3392 H 328.177 -3.20313 1.99198 0
M  V30 3393 H 330.564 -2.73013 1.12018 0
M  V30 3394 H 330.645 -1.3227 2.18948 0
M  V30 3395 H 330.289 -2.85708 4.19921 0
M  V30 3396 H 330.219 -4.25707 3.0997 0
M  V30 3397 H 332.71 -2.79994 2.53795 0
M  V30 3398 H 333.023 -5.28712 5.63634 0
M  V30 3399 H 331.368 -4.75992 5.06415 0
M  V30 3400 H 334.559 -3.4111 3.20564 0
M  V30 3401 H 334.732 -4.54544 4.61837 0
M  V30 3402 N 328.138 -0.959301 -1.25041 0
M  V30 3403 C 329.549 -0.65667 -1.74771 0
M  V30 3404 C 329.9 0.827852 -1.77879 0
M  V30 3405 O 329.025 1.64783 -1.40269 0
M  V30 3406 C 329.62 -1.1853 -3.1739 0
M  V30 3407 C 328.179 -0.932734 -3.6466 0
M  V30 3408 C 327.326 -1.32558 -2.43564 0
M  V30 3409 H 330.277 -1.13558 -1.10862 0
M  V30 3410 H 330.298 -0.547582 -3.76539 0
M  V30 3411 H 329.81 -2.26576 -3.15095 0
M  V30 3412 H 327.911 0.13257 -3.72364 0
M  V30 3413 H 328.024 -1.57248 -4.52559 0
M  V30 3414 H 326.388 -0.743956 -2.43593 0
M  V30 3415 H 327.171 -2.41537 -2.43957 0
M  V30 3416 N 329.616 1.39756 -0.72842 0
M  V30 3417 C 330.864 2.00248 -0.272946 0
M  V30 3418 C 331.185 1.58077 1.14178 0
M  V30 3419 O 330.455 0.826014 1.77634 0
M  V30 3420 H 329.035 0.740554 -0.0979247 0
M  V30 3421 H 331.697 1.70903 -0.936912 0
M  V30 3422 H 330.793 3.10495 -0.316142 0
M  V30 3423 N 331.094 0.475555 1.50254 0
M  V30 3424 C 332.004 -0.321501 2.32387 0
M  V30 3425 C 333.02 -0.991755 1.42969 0
M  V30 3426 O 334.196 -0.978747 1.76018 0
M  V30 3427 C 331.261 -1.38667 3.17762 0
M  V30 3428 C 330.322 -0.732538 4.23004 0
M  V30 3429 C 329.555 -1.74695 5.04299 0
M  V30 3430 O 329.778 -2.97399 4.86734 0
M  V30 3431 O 328.712 -1.31631 5.8733 0
M  V30 3432 H 332.538 0.350071 3.01676 0
M  V30 3433 H 330.123 0.237321 1.47503 0
M  V30 3434 H 332.005 -2.00354 3.70724 0
M  V30 3435 H 330.68 -2.04163 2.51196 0
M  V30 3436 H 329.587 -0.0765902 3.74022 0
M  V30 3437 H 330.92 -0.120452 4.92053 0
M  V30 3438 N 332.573 -1.56217 0.208337 0
M  V30 3439 C 333.989 -1.58919 -0.14729 0
M  V30 3440 C 334.189 -1.22486 -1.59998 0
M  V30 3441 O 333.245 -0.953849 -2.3379 0
M  V30 3442 C 334.558 -3.00236 0.167048 0
M  V30 3443 C 336.106 -3.12813 0.108219 0
M  V30 3444 C 336.581 -4.56284 0.396049 0
M  V30 3445 N 338.072 -4.61912 0.345142 0
M  V30 3446 C 338.807 -5.70837 0.541523 0
M  V30 3447 N 338.303 -6.88178 0.798968 0
M  V30 3448 N 340.096 -5.60091 0.474867 0
M  V30 3449 H 332.247 -1.78177 1.15614 0
M  V30 3450 H 334.51 -0.827555 0.462446 0
M  V30 3451 H 334.216 -3.31499 1.1748 0
M  V30 3452 H 334.09 -3.7354 -0.524184 0
M  V30 3453 H 336.477 -2.81354 -0.890157 0
M  V30 3454 H 336.558 -2.41866 0.832729 0
M  V30 3455 H 336.202 -4.88458 1.3918 0
M  V30 3456 H 336.132 -5.25439 -0.349502 0
M  V30 3457 H 338.623 -3.77589 0.153316 0
M  V30 3458 H 338.936 -7.67095 0.93727 0
M  V30 3459 H 337.281 -6.89953 0.836013 0
M  V30 3460 H 340.472 -4.67297 0.274064 0
M  V30 3461 H 340.645 -6.44917 0.631326 0
M  V30 3462 N 334.051 0.0651679 -1.57465 0
M  V30 3463 C 334.981 1.07693 -2.07182 0
M  V30 3464 C 335.962 1.39962 -0.966673 0
M  V30 3465 O 337.147 1.49475 -1.2398 0
M  V30 3466 C 334.277 2.3885 -2.52127 0
M  V30 3467 C 333.231 2.20917 -3.66579 0
M  V30 3468 C 332.557 3.57515 -3.97601 0
M  V30 3469 C 333.857 1.62493 -4.9638 0
M  V30 3470 H 335.551 0.663199 -2.91962 0
M  V30 3471 H 333.097 0.317569 -1.40455 0
M  V30 3472 H 335.05 3.09928 -2.85522 0
M  V30 3473 H 333.774 2.82215 -1.64384 0
M  V30 3474 H 332.433 1.52279 -3.33477 0
M  V30 3475 H 332.081 3.98463 -3.06979 0
M  V30 3476 H 331.781 3.46353 -4.74672 0
M  V30 3477 H 333.305 4.30013 -4.33499 0
M  V30 3478 H 334.719 2.23445 -5.27963 0
M  V30 3479 H 333.116 1.62009 -5.77818 0
M  V30 3480 H 334.186 0.587041 -4.81333 0
M  V30 3481 N 335.529 1.53961 0.336706 0
M  V30 3482 C 336.806 1.62171 1.09361 0
M  V30 3483 C 337.186 0.447263 2.06307 0
M  V30 3484 O 336.534 -0.559802 2.21537 0
M  V30 3485 C 336.744 2.98565 1.80721 0
M  V30 3486 C 338.092 3.54157 2.34218 0
M  V30 3487 O 339.116 3.00784 1.90807 0
M  V30 3488 O 337.975 4.47528 3.13657 0
M  V30 3489 H 335.069 0.6562 0.503319 0
M  V30 3490 H 337.615 1.66307 0.33765 0
M  V30 3491 H 336.387 3.75482 1.10132 0
M  V30 3492 H 336.01 2.9805 2.63158 0
M  V30 3493 N 337.007 -0.598083 1.45811 0
M  V30 3494 C 337.937 -1.71873 1.58057 0
M  V30 3495 C 338.918 -1.64533 0.431615 0
M  V30 3496 O 340.103 -1.82787 0.65595 0
M  V30 3497 C 337.233 -3.10495 1.55597 0
M  V30 3498 C 336.187 -3.32654 2.69305 0
M  V30 3499 C 335.513 -4.71646 2.51902 0
M  V30 3500 C 336.813 -3.21981 4.11248 0
M  V30 3501 H 338.507 -1.61881 2.51863 0
M  V30 3502 H 336.053 -0.777372 1.21214 0
M  V30 3503 H 338.006 -3.88699 1.6276 0
M  V30 3504 H 336.73 -3.2135 0.583255 0
M  V30 3505 H 335.389 -2.56843 2.61586 0
M  V30 3506 H 335.037 -4.79246 1.52748 0
M  V30 3507 H 334.737 -4.87426 3.2816 0
M  V30 3508 H 336.261 -5.52038 2.60933 0
M  V30 3509 H 337.675 -3.90049 4.20161 0
M  V30 3510 H 336.072 -3.49289 4.87972 0
M  V30 3511 H 337.142 -2.1928 4.32486 0
M  V30 3512 N 338.485 -1.33259 -0.841409 0
M  V30 3513 C 339.448 -1.23221 -1.9326 0
M  V30 3514 C 340.448 -0.151895 -1.60081 0
M  V30 3515 O 341.638 -0.403246 -1.69468 0
M  V30 3516 C 338.77 -0.898123 -3.28856 0
M  V30 3517 H 339.963 -2.2021 -2.03587 0
M  V30 3518 H 337.516 -1.17281 -1.03319 0
M  V30 3519 H 338.251 0.0693841 -3.24226 0
M  V30 3520 H 338.036 -1.67934 -3.54317 0
M  V30 3521 H 339.526 -0.852563 -4.08805 0
M  V30 3522 N 339.963 1.05934 -1.16686 0
M  V30 3523 C 340.896 2.1295 -0.820225 0
M  V30 3524 C 341.874 1.61242 0.209722 0
M  V30 3525 O 343.058 1.88271 0.0929688 0
M  V30 3526 C 340.185 3.3797 -0.22223 0
M  V30 3527 C 339.231 4.08488 -1.22637 0
M  V30 3528 S 340.064 4.58015 -2.77457 0
M  V30 3529 C 341.22 5.86292 -2.19117 0
M  V30 3530 H 341.453 2.42025 -1.72659 0
M  V30 3531 H 338.986 1.18423 -0.990722 0
M  V30 3532 H 340.944 4.10335 0.116322 0
M  V30 3533 H 339.605 3.07045 0.66196 0
M  V30 3534 H 338.798 4.98291 -0.756455 0
M  V30 3535 H 338.4 3.42154 -1.51019 0
M  V30 3536 H 340.692 6.59246 -1.56209 0
M  V30 3537 H 341.635 6.38019 -3.07144 0
M  V30 3538 H 342.043 5.40497 -1.62858 0
M  V30 3539 N 341.441 0.965919 1.2453 0
M  V30 3540 C 342.371 0.513476 2.27784 0
M  V30 3541 C 343.352 -0.445974 1.6415 0
M  V30 3542 O 344.537 -0.342485 1.91156 0
M  V30 3543 C 341.667 -0.198839 3.4673 0
M  V30 3544 C 340.621 0.676456 4.2262 0
M  V30 3545 C 339.947 -0.167248 5.34438 0
M  V30 3546 C 341.247 1.96017 4.84123 0
M  V30 3547 H 342.941 1.3765 2.65881 0
M  V30 3548 H 340.487 0.663321 1.27813 0
M  V30 3549 H 342.44 -0.526567 4.18097 0
M  V30 3550 H 341.164 -1.0962 3.07654 0
M  V30 3551 H 339.823 0.98743 3.53052 0
M  V30 3552 H 339.471 -1.0647 4.91603 0
M  V30 3553 H 339.171 0.415181 5.86131 0
M  V30 3554 H 340.695 -0.489688 6.08633 0
M  V30 3555 H 342.109 1.69814 5.47573 0
M  V30 3556 H 340.506 2.48918 5.4604 0
M  V30 3557 H 341.576 2.65622 4.05676 0
M  V30 3558 N 342.919 -1.39368 0.735821 0
M  V30 3559 C 343.882 -2.2896 0.104874 0
M  V30 3560 C 344.882 -1.46347 -0.666274 0
M  V30 3561 O 346.072 -1.67014 -0.49517 0
M  V30 3562 C 343.204 -3.29857 -0.860656 0
M  V30 3563 H 344.397 -2.86259 0.894205 0
M  V30 3564 H 341.95 -1.48029 0.501704 0
M  V30 3565 H 342.685 -2.77615 -1.67631 0
M  V30 3566 H 342.47 -3.9087 -0.310327 0
M  V30 3567 H 343.96 -3.96893 -1.29867 0
M  V30 3568 N 344.397 -0.483516 -1.5 0
M  V30 3569 C 345.36 0.292965 -2.2732 0
M  V30 3570 C 346.36 0.909499 -1.32608 0
M  V30 3571 O 347.55 0.776745 -1.55924 0
M  V30 3572 C 344.682 1.41854 -3.09984 0
M  V30 3573 H 345.875 -0.385289 -2.97415 0
M  V30 3574 H 343.428 -0.237942 -1.54478 0
M  V30 3575 H 344.163 2.13148 -2.44414 0
M  V30 3576 H 343.948 0.982114 -3.79601 0
M  V30 3577 H 345.438 1.96597 -3.68429 0
M  V30 3578 N 345.875 1.56104 -0.216619 0
M  V30 3579 C 347.124 1.97348 0.416744 0
M  V30 3580 C 347.437 1.10715 1.6125 0
M  V30 3581 O 348.643 1.41836 2.31506 0
M  V30 3582 C 347.099 3.51059 0.792835 0
M  V30 3583 C 346.707 4.46387 -0.379828 0
M  V30 3584 C 348.451 4.01026 1.39208 0
M  V30 3585 C 346.358 5.91397 0.0184223 0
M  V30 3586 H 345.288 0.736942 0.159475 0
M  V30 3587 H 347.939 1.80827 -0.31205 0
M  V30 3588 H 346.321 3.63162 1.57891 0
M  V30 3589 H 347.495 4.46029 -1.15737 0
M  V30 3590 H 345.81 4.06734 -0.891979 0
M  V30 3591 H 348.407 5.0686 1.70286 0
M  V30 3592 H 348.75 3.46587 2.30614 0
M  V30 3593 H 349.283 3.92125 0.669537 0
M  V30 3594 H 346.022 6.49807 -0.862002 0
M  V30 3595 H 345.542 5.94961 0.760384 0
M  V30 3596 H 347.221 6.45455 0.446818 0
M  V30 3597 N 347.353 -0.0568162 1.57498 0
M  V30 3598 C 348.769 -0.411933 1.54192 0
M  V30 3599 C 348.969 -1.78287 0.938942 0
M  V30 3600 O 348.025 -2.46483 0.547919 0
M  V30 3601 C 349.338 -0.339244 2.9878 0
M  V30 3602 C 350.886 -0.418348 3.10192 0
M  V30 3603 C 351.361 -0.375407 4.56459 0
M  V30 3604 N 352.852 -0.435038 4.61153 0
M  V30 3605 C 353.587 -0.424265 5.71828 0
M  V30 3606 N 353.083 -0.367418 6.91825 0
M  V30 3607 N 354.876 -0.471938 5.60115 0
M  V30 3608 H 347.027 0.840684 1.95055 0
M  V30 3609 H 349.29 0.316987 0.893433 0
M  V30 3610 H 348.996 0.601742 3.46514 0
M  V30 3611 H 348.87 -1.14371 3.59443 0
M  V30 3612 H 351.257 -1.34976 2.62422 0
M  V30 3613 H 351.338 0.414962 2.52412 0
M  V30 3614 H 350.982 0.552219 5.04889 0
M  V30 3615 H 350.912 -1.22645 5.12119 0
M  V30 3616 H 353.403 -0.482612 3.74806 0
M  V30 3617 H 353.716 -0.363535 7.71944 0
M  V30 3618 H 352.061 -0.333879 6.94198 0
M  V30 3619 H 355.252 -0.514145 4.65268 0
M  V30 3620 H 355.425 -0.460073 6.46365 0
M  V30 3621 N 348.832 -1.54138 -0.328536 0
M  V30 3622 C 350.248 -1.44736 -0.672574 0
M  V30 3623 C 350.448 -0.616217 -1.91846 0
M  V30 3624 O 349.504 -0.113067 -2.52247 0
M  V30 3625 C 350.817 -2.884 -0.851217 0
M  V30 3626 C 352.365 -2.98271 -0.948877 0
M  V30 3627 C 352.84 -4.43074 -1.15973 0
M  V30 3628 N 354.331 -4.46665 -1.22658 0
M  V30 3629 C 355.066 -5.55857 -1.40751 0
M  V30 3630 N 354.562 -6.75026 -1.5592 0
M  V30 3631 N 356.355 -5.43495 -1.4342 0
M  V30 3632 H 348.506 -2.06661 0.490421 0
M  V30 3633 H 350.769 -0.934812 0.157579 0
M  V30 3634 H 350.475 -3.51699 -0.00704236 0
M  V30 3635 H 350.349 -3.34225 -1.74853 0
M  V30 3636 H 352.736 -2.35102 -1.78356 0
M  V30 3637 H 352.817 -2.55785 -0.0281435 0
M  V30 3638 H 352.461 -5.06827 -0.329915 0
M  V30 3639 H 352.391 -4.83165 -2.09426 0
M  V30 3640 H 354.882 -3.60797 -1.124 0
M  V30 3641 H 355.195 -7.54004 -1.69404 0
M  V30 3642 H 353.54 -6.77944 -1.53027 0
M  V30 3643 H 356.731 -4.49349 -1.31162 0
M  V30 3644 H 356.904 -6.28649 -1.57178 0
M  V30 3645 N 350.31 0.590341 -1.46126 0
M  V30 3646 C 351.556 1.35082 -1.51264 0
M  V30 3647 C 351.889 1.93534 -0.160711 0
M  V30 3648 O 351.164 1.76045 0.826956 0
M  V30 3649 C 351.447 2.48588 -2.6053 0
M  V30 3650 C 351.3 1.95221 -4.05227 0
M  V30 3651 C 352.619 3.50662 -2.6594 0
M  V30 3652 H 349.738 0.489803 -0.550692 0
M  V30 3653 H 352.38 0.663887 -1.78024 0
M  V30 3654 H 350.53 3.07186 -2.37843 0
M  V30 3655 H 352.202 1.41139 -4.39178 0
M  V30 3656 H 350.445 1.26101 -4.15068 0
M  V30 3657 H 351.116 2.77121 -4.77397 0
M  V30 3658 H 353.592 3.01934 -2.86313 0
M  V30 3659 H 352.468 4.27551 -3.44226 0
M  V30 3660 H 352.729 4.07399 -1.71694 0
M  V30 3661 N 351.788 1.33704 0.83433 0
M  V30 3662 C 353.018 1.28281 1.6195 0
M  V30 3663 C 353.426 -0.147603 1.88623 0
M  V30 3664 O 352.769 -1.1016 1.47005 0
M  V30 3665 C 352.831 1.99386 2.99141 0
M  V30 3666 C 352.495 3.48681 2.95416 0
M  V30 3667 C 353.492 4.438 2.70809 0
M  V30 3668 C 351.177 3.90925 3.15409 0
M  V30 3669 C 353.171 5.79138 2.66229 0
M  V30 3670 C 350.858 5.26366 3.10454 0
M  V30 3671 C 351.856 6.20284 2.85895 0
M  V30 3672 O 351.544 7.53245 2.80852 0
M  V30 3673 H 351.276 0.44315 0.510484 0
M  V30 3674 H 353.83 1.76711 1.04702 0
M  V30 3675 H 352.06 1.45554 3.58261 0
M  V30 3676 H 353.749 1.87403 3.60049 0
M  V30 3677 H 354.515 4.12485 2.5511 0
M  V30 3678 H 350.394 3.18229 3.33543 0
M  V30 3679 H 353.938 6.52416 2.4698 0
M  V30 3680 H 349.835 5.57304 3.25703 0
M  V30 3681 H 350.603 7.62846 2.96661 0
M  V30 3682 N 353.266 -1.05314 1.17247 0
M  V30 3683 C 354.514 -1.77941 0.958194 0
M  V30 3684 C 354.835 -1.88089 -0.514556 0
M  V30 3685 O 354.105 -1.39676 -1.37359 0
M  V30 3686 H 352.685 -0.659116 0.351533 0
M  V30 3687 H 355.347 -1.27166 1.47699 0
M  V30 3688 H 354.443 -2.79663 1.38546 0
M  V30 3689 N 354.744 -0.972509 -1.24016 0
M  V30 3690 C 355.674 -0.525548 -2.27509 0
M  V30 3691 C 356.655 0.437262 -1.64384 0
M  V30 3692 O 357.84 0.332343 -1.91335 0
M  V30 3693 C 354.97 0.180448 -3.46831 0
M  V30 3694 C 353.924 -0.698859 -4.22256 0
M  V30 3695 C 353.25 0.138903 -5.3452 0
M  V30 3696 C 354.55 -1.98582 -4.83076 0
M  V30 3697 H 356.244 -1.39058 -2.65148 0
M  V30 3698 H 353.79 -0.67009 -1.27459 0
M  V30 3699 H 355.743 0.504387 -4.18371 0
M  V30 3700 H 354.467 1.07987 -3.08231 0
M  V30 3701 H 353.126 -1.00614 -3.52523 0
M  V30 3702 H 352.774 1.03862 -4.9216 0
M  V30 3703 H 352.474 -0.446259 -5.85903 0
M  V30 3704 H 353.998 0.457404 -6.08884 0
M  V30 3705 H 355.412 -1.72715 -5.46665 0
M  V30 3706 H 353.809 -2.5181 -5.44713 0
M  V30 3707 H 354.879 -2.67769 -4.04262 0
M  V30 3708 N 356.222 1.38976 -0.743202 0
M  V30 3709 C 357.152 2.33171 -0.123873 0
M  V30 3710 C 358.133 1.54336 0.71516 0
M  V30 3711 O 359.318 1.82696 0.658467 0
M  V30 3712 C 356.448 3.38474 0.777978 0
M  V30 3713 C 355.402 4.27979 0.0424758 0
M  V30 3714 C 354.728 5.2405 1.06189 0
M  V30 3715 C 356.028 5.10155 -1.1198 0
M  V30 3716 H 357.722 2.85213 -0.910709 0
M  V30 3717 H 355.268 1.37133 -0.439388 0
M  V30 3718 H 357.221 4.03328 1.22084 0
M  V30 3719 H 355.945 2.84891 1.59702 0
M  V30 3720 H 354.604 3.64616 -0.380853 0
M  V30 3721 H 354.252 4.66758 1.87472 0
M  V30 3722 H 353.952 5.84785 0.574485 0
M  V30 3723 H 355.476 5.9178 1.50428 0
M  V30 3724 H 356.89 5.68307 -0.75499 0
M  V30 3725 H 355.287 5.80073 -1.53738 0
M  V30 3726 H 356.357 4.44504 -1.93764 0
M  V30 3727 N 357.7 0.491464 1.49741 0
M  V30 3728 C 358.663 -0.280906 2.27472 0
M  V30 3729 C 359.663 -0.902454 1.33088 0
M  V30 3730 O 360.853 -0.768465 1.56334 0
M  V30 3731 C 357.985 -1.40209 3.10732 0
M  V30 3732 H 359.178 0.401056 2.97206 0
M  V30 3733 H 356.731 0.246131 1.5435 0
M  V30 3734 H 357.466 -2.11849 2.45541 0
M  V30 3735 H 357.251 -0.961969 3.80117 0
M  V30 3736 H 358.741 -1.9464 3.69466 0
M  V30 3737 N 359.178 -1.55987 0.224894 0
M  V30 3738 C 360.126 -2.21808 -0.700283 0
M  V30 3739 C 361.12 -1.19854 -1.19714 0
M  V30 3740 O 362.326 -1.37925 -1.15658 0
M  V30 3741 H 358.701 -0.711226 -0.244258 0
M  V30 3742 H 360.672 -2.98152 -0.121749 0
M  V30 3743 C 359.421 -2.91444 -1.8962 0
M  V30 3744 H 358.744 -3.69655 -1.52299 0
M  V30 3745 H 360.184 -3.40894 -2.52125 0
M  V30 3746 C 358.643 -1.94098 -2.75368 0
M  V30 3747 O 359.173 -1.46004 -3.74227 0
M  V30 3748 N 357.379 -1.61675 -2.41474 0
M  V30 3749 H 356.926 -2.00979 -1.61137 0
M  V30 3750 H 356.884 -0.968036 -2.99126 0
M  V30 3751 N 360.656 0.0484629 -1.57525 0
M  V30 3752 C 361.884 0.755421 -1.92616 0
M  V30 3753 C 362.299 1.69919 -0.822984 0
M  V30 3754 O 361.656 1.81378 0.202085 0
M  V30 3755 C 361.707 1.52915 -3.27566 0
M  V30 3756 O 361.428 0.62329 -4.33644 0
M  V30 3757 C 362.929 2.33502 -3.76818 0
M  V30 3758 H 360.149 0.213465 -0.63614 0
M  V30 3759 H 362.693 0.0117698 -2.04497 0
M  V30 3760 H 360.848 2.22486 -3.17142 0
M  V30 3761 H 361.262 1.16383 -5.11425 0
M  V30 3762 H 362.736 2.83214 -4.73808 0
M  V30 3763 H 363.213 3.14068 -3.07014 0
M  V30 3764 H 363.819 1.69043 -3.90262 0
M  V30 3765 N 362.134 1.5431 0.320358 0
M  V30 3766 C 363.38 1.72924 1.05949 0
M  V30 3767 C 363.713 0.503185 1.87568 0
M  V30 3768 O 362.988 -0.499839 1.87968 0
M  V30 3769 C 363.271 3.00676 1.98156 0
M  V30 3770 C 363.124 4.3354 1.19845 0
M  V30 3771 C 364.443 3.24198 2.9763 0
M  V30 3772 H 361.562 0.629195 0.383774 0
M  V30 3773 H 364.204 1.87008 0.335854 0
M  V30 3774 H 362.354 2.888 2.59859 0
M  V30 3775 H 364.026 4.57305 0.605773 0
M  V30 3776 H 362.269 4.309 0.500784 0
M  V30 3777 H 362.94 5.19156 1.87567 0
M  V30 3778 H 365.416 3.35557 2.4605 0
M  V30 3779 H 364.292 4.14938 3.59329 0
M  V30 3780 H 364.553 2.41577 3.7026 0
M  V30 3781 N 363.613 -0.582584 1.46437 0
M  V30 3782 C 365.029 -0.905962 1.31394 0
M  V30 3783 C 365.229 -1.99468 0.285476 0
M  V30 3784 O 364.285 -2.50566 -0.311914 0
M  V30 3785 C 365.598 -1.3232 2.70022 0
M  V30 3786 C 367.146 -1.43604 2.78113 0
M  V30 3787 C 367.621 -1.88694 4.17323 0
M  V30 3788 N 369.112 -1.95887 4.19741 0
M  V30 3789 C 369.847 -2.32051 5.24347 0
M  V30 3790 N 369.343 -2.67006 6.39281 0
M  V30 3791 N 371.136 -2.32606 5.11713 0
M  V30 3792 H 363.287 0.1366 2.1196 0
M  V30 3793 H 365.55 -0.00155736 0.947999 0
M  V30 3794 H 365.256 -0.597242 3.46592 0
M  V30 3795 H 365.13 -2.28469 3.00136 0
M  V30 3796 H 367.517 -2.15286 2.01832 0
M  V30 3797 H 367.598 -0.457059 2.51684 0
M  V30 3798 H 367.242 -1.1759 4.941 0
M  V30 3799 H 367.172 -2.8755 4.4116 0
M  V30 3800 H 369.663 -1.71362 3.36814 0
M  V30 3801 H 369.976 -2.93554 7.14875 0
M  V30 3802 H 368.321 -2.64644 6.42642 0
M  V30 3803 H 371.512 -2.04721 4.2096 0
M  V30 3804 H 371.685 -2.60462 5.93349 0
M  V30 3805 N 365.091 -1.34144 -0.827227 0
M  V30 3806 C 366.321 -1.29138 -1.61267 0
M  V30 3807 C 366.729 0.137597 -1.88699 0
M  V30 3808 O 366.072 1.09379 -1.47587 0
M  V30 3809 C 366.134 -2.0097 -2.9808 0
M  V30 3810 C 365.798 -3.50242 -2.93563 0
M  V30 3811 C 366.795 -4.4523 -2.68452 0
M  V30 3812 C 364.48 -3.92592 -3.13331 0
M  V30 3813 C 366.474 -5.80542 -2.63154 0
M  V30 3814 C 364.161 -5.28005 -3.07658 0
M  V30 3815 C 365.159 -6.21792 -2.82602 0
M  V30 3816 O 364.847 -7.54723 -2.76853 0
M  V30 3817 H 364.579 -0.445851 -0.508127 0
M  V30 3818 H 367.133 -1.77263 -1.03763 0
M  V30 3819 H 365.363 -1.47451 -3.57484 0
M  V30 3820 H 367.052 -1.89309 -3.5905 0
M  V30 3821 H 367.818 -4.13832 -2.52919 0
M  V30 3822 H 363.697 -3.19994 -3.31851 0
M  V30 3823 H 367.241 -6.53717 -2.43516 0
M  V30 3824 H 363.138 -5.59023 -3.22743 0
M  V30 3825 H 363.906 -7.64409 -2.92611 0
M  V30 3826 N 366.569 1.04691 -1.17803 0
M  V30 3827 C 367.499 2.14494 -0.92275 0
M  V30 3828 C 368.48 1.69546 0.137179 0
M  V30 3829 O 369.665 1.94195 -0.0141108 0
M  V30 3830 C 366.795 3.44491 -0.440803 0
M  V30 3831 C 365.749 4.03031 -1.4405 0
M  V30 3832 C 365.075 5.28432 -0.81631 0
M  V30 3833 C 366.375 4.39932 -2.81527 0
M  V30 3834 H 368.069 2.36107 -1.84103 0
M  V30 3835 H 365.615 1.1347 -0.886599 0
M  V30 3836 H 367.568 4.2066 -0.249602 0
M  V30 3837 H 366.292 3.22546 0.513025 0
M  V30 3838 H 364.951 3.28937 -1.61853 0
M  V30 3839 H 364.599 5.02792 0.144511 0
M  V30 3840 H 364.299 5.68559 -1.48371 0
M  V30 3841 H 365.823 6.07284 -0.635496 0
M  V30 3842 H 367.237 5.07113 -2.67412 0
M  V30 3843 H 365.634 4.9109 -3.44892 0
M  V30 3844 H 366.704 3.50045 -3.35554 0
M  V30 3845 N 368.047 0.979072 1.23499 0
M  V30 3846 C 368.979 0.476271 2.24197 0
M  V30 3847 C 369.992 -0.421166 1.57258 0
M  V30 3848 O 371.181 -0.225515 1.7707 0
M  V30 3849 C 368.281 -0.330503 3.37285 0
M  V30 3850 C 367.454 0.559744 4.33804 0
M  V30 3851 C 366.513 -0.192954 5.25846 0
M  V30 3852 O 365.539 0.416978 5.67671 0
M  V30 3853 N 366.741 -1.47932 5.61334 0
M  V30 3854 H 369.506 1.34211 2.67969 0
M  V30 3855 H 367.067 0.852189 1.37657 0
M  V30 3856 H 369.059 -0.842361 3.95836 0
M  V30 3857 H 367.629 -1.09734 2.92707 0
M  V30 3858 H 366.849 1.25245 3.73775 0
M  V30 3859 H 368.137 1.1665 4.95248 0
M  V30 3860 H 367.535 -1.9964 5.29302 0
M  V30 3861 H 366.092 -1.93664 6.22364 0
M  V30 3862 N 369.525 -1.3858 0.750561 0
M  V30 3863 C 370.765 -2.02032 0.310258 0
M  V30 3864 C 371.129 -1.58288 -1.08668 0
M  V30 3865 O 372.33 -2.14049 -1.62593 0
M  V30 3866 C 370.601 -3.54856 0.425647 0
M  V30 3867 S 372.16 -4.38748 0.0674797 0
M  V30 3868 H 368.978 -0.700705 0.120554 0
M  V30 3869 H 371.58 -1.69134 0.980512 0
M  V30 3870 H 370.284 -3.84182 1.44335 0
M  V30 3871 H 369.815 -3.92527 -0.261894 0
M  V30 3872 H 371.83 -4.82835 -1.14388 0
M  V30 3873 N 371.003 -0.499398 -1.49478 0
M  V30 3874 C 372.251 0.0455996 -2.02049 0
M  V30 3875 C 372.572 1.37633 -1.38138 0
M  V30 3876 O 371.842 1.8842 -0.536166 0
M  V30 3877 H 370.422 0.0198416 -0.746736 0
M  V30 3878 H 373.084 -0.656274 -1.83519 0
M  V30 3879 H 372.18 0.176445 -3.11601 0
M  V30 3880 N 372.481 1.55866 -0.233164 0
M  V30 3881 C 373.729 1.9821 0.394593 0
M  V30 3882 C 374.05 1.12234 1.59463 0
M  V30 3883 O 373.32 0.201981 1.94856 0
M  V30 3884 H 371.9 0.732034 0.148778 0
M  V30 3885 H 374.562 1.92107 -0.32876 0
M  V30 3886 H 373.658 3.03845 0.713063 0
M  V30 3887 N 373.959 -0.0401083 1.57549 0
M  V30 3888 C 375.184 -0.748931 1.93406 0
M  V30 3889 C 375.609 -1.68686 0.832274 0
M  V30 3890 O 374.967 -1.80047 -0.212818 0
M  V30 3891 C 375.015 -1.4916 3.28304 0
M  V30 3892 O 374.119 -2.6042 3.19774 0
M  V30 3893 H 373.46 -0.202212 0.63246 0
M  V30 3894 H 375.99 0.00112086 2.046 0
M  V30 3895 H 376 -1.86395 3.62934 0
M  V30 3896 H 374.675 -0.80364 4.08062 0
M  V30 3897 H 373.252 -2.25808 2.96758 0
M  V30 3898 N 375.437 -1.54477 -0.31217 0
M  V30 3899 C 376.683 -1.74417 -1.04644 0
M  V30 3900 C 377.038 -0.517641 -1.85306 0
M  V30 3901 O 376.331 0.489973 -1.85229 0
M  V30 3902 C 376.525 -2.967 -1.99258 0
M  V30 3903 C 376.354 -4.31128 -1.27901 0
M  V30 3904 C 375.124 -4.95087 -1.01079 0
M  V30 3905 C 377.322 -5.09662 -0.689119 0
M  V30 3906 N 375.304 -6.13322 -0.266323 0
M  V30 3907 C 376.675 -6.19952 -0.0768523 0
M  V30 3908 C 378.73 -4.94355 -0.593061 0
M  V30 3909 C 377.433 -7.16604 0.622165 0
M  V30 3910 C 379.459 -5.91328 0.0922792 0
M  V30 3911 C 378.821 -7.00978 0.693443 0
M  V30 3912 H 374.92 -0.69094 -0.366231 0
M  V30 3913 H 377.504 -1.91946 -0.326319 0
M  V30 3914 H 375.675 -2.80616 -2.68532 0
M  V30 3915 H 377.407 -3.05216 -2.65755 0
M  V30 3916 H 374.162 -4.55235 -1.30607 0
M  V30 3917 H 374.586 -6.76937 0.0920973 0
M  V30 3918 H 379.228 -4.09719 -1.04355 0
M  V30 3919 H 376.946 -8.0079 1.08445 0
M  V30 3920 H 380.532 -5.81562 0.166396 0
M  V30 3921 H 379.412 -7.74725 1.21533 0
M  V30 3922 N 376.915 0.57481 -1.46744 0
M  V30 3923 C 378.331 0.898981 -1.31873 0
M  V30 3924 C 378.531 1.99313 -0.29605 0
M  V30 3925 O 377.587 2.50728 0.298621 0
M  V30 3926 C 378.9 1.30886 -2.7072 0
M  V30 3927 C 380.448 1.42127 -2.78871 0
M  V30 3928 C 380.923 1.86478 -4.18318 0
M  V30 3929 N 382.414 1.93658 -4.20774 0
M  V30 3930 C 383.149 2.29267 -5.2557 0
M  V30 3931 N 382.645 2.63612 -6.40688 0
M  V30 3932 N 384.438 2.29889 -5.1294 0
M  V30 3933 H 376.589 -0.147839 -2.11885 0
M  V30 3934 H 378.852 -0.00347013 -0.947994 0
M  V30 3935 H 378.558 0.578853 -3.46904 0
M  V30 3936 H 378.432 2.26874 -3.01343 0
M  V30 3937 H 380.819 2.14213 -2.0297 0
M  V30 3938 H 380.9 0.443705 -2.51922 0
M  V30 3939 H 380.544 1.14968 -4.94717 0
M  V30 3940 H 380.474 2.85207 -4.42679 0
M  V30 3941 H 382.965 1.69574 -3.37718 0
M  V30 3942 H 383.278 2.89759 -7.16421 0
M  V30 3943 H 381.623 2.61232 -6.44036 0
M  V30 3944 H 384.814 2.02485 -4.22039 0
M  V30 3945 H 384.987 2.57312 -5.94722 0
M  V30 3946 N 378.394 1.34581 0.820102 0
M  V30 3947 C 379.304 1.28471 1.96297 0
M  V30 3948 C 380.32 0.191902 1.72939 0
M  V30 3949 O 381.496 0.418879 1.96996 0
M  V30 3950 C 378.561 1.04281 3.30645 0
M  V30 3951 C 377.622 2.22745 3.66992 0
M  V30 3952 C 376.855 1.997 4.9493 0
M  V30 3953 O 377.078 0.956656 5.6232 0
M  V30 3954 O 376.012 2.86723 5.2922 0
M  V30 3955 H 379.838 2.24624 2.04396 0
M  V30 3956 H 377.423 1.14816 0.955913 0
M  V30 3957 H 379.305 0.925841 4.11104 0
M  V30 3958 H 377.98 0.111697 3.23507 0
M  V30 3959 H 376.887 2.40003 2.86966 0
M  V30 3960 H 378.22 3.14257 3.78819 0
M  V30 3961 N 379.872 -1.04064 1.18357 0
M  V30 3962 C 381.149 -1.74252 0.888581 0
M  V30 3963 C 381.529 -2.02138 -0.60856 0
M  V30 3964 O 380.877 -1.66656 -1.56327 0
M  V30 3965 C 381.087 -3.0277 1.73584 0
M  V30 3966 C 382.435 -3.76506 1.96286 0
M  V30 3967 O 383.459 -3.12668 1.70637 0
M  V30 3968 O 382.318 -4.91243 2.39464 0
M  V30 3969 H 379.412 -0.758271 0.330082 0
M  V30 3970 H 381.958 -1.1013 1.2911 0
M  V30 3971 H 380.73 -2.78299 2.75073 0
M  V30 3972 H 380.353 -3.74631 1.33183 0
M  V30 3973 N 381.35 -0.985608 -1.22978 0
M  V30 3974 C 382.596 -0.667998 -1.92118 0
M  V30 3975 C 382.951 0.790454 -1.75413 0
M  V30 3976 O 382.244 1.56336 -1.10768 0
M  V30 3977 C 382.438 -1.00014 -3.43121 0
M  V30 3978 C 382.267 -2.48933 -3.74516 0
M  V30 3979 C 381.037 -3.15218 -3.94925 0
M  V30 3980 C 383.235 -3.47024 -3.79577 0
M  V30 3981 N 381.217 -4.53689 -4.13569 0
M  V30 3982 C 382.588 -4.70923 -4.03276 0
M  V30 3983 C 384.643 -3.41432 -3.62393 0
M  V30 3984 C 383.346 -5.89914 -4.11574 0
M  V30 3985 C 385.372 -4.59793 -3.71947 0
M  V30 3986 C 384.734 -5.82489 -3.96088 0
M  V30 3987 H 380.833 -0.295589 -0.723983 0
M  V30 3988 H 383.417 -1.26413 -1.4808 0
M  V30 3989 H 381.588 -0.432655 -3.85983 0
M  V30 3990 H 383.32 -0.63927 -3.99619 0
M  V30 3991 H 380.075 -2.65702 -3.92045 0
M  V30 3992 H 380.499 -5.25492 -4.26834 0
M  V30 3993 H 385.141 -2.47594 -3.4272 0
M  V30 3994 H 382.859 -6.84164 -4.30053 0
M  V30 3995 H 386.445 -4.57048 -3.59998 0
M  V30 3996 H 385.325 -6.72546 -4.033 0
M  V30 3997 N 382.828 1.3818 -0.7579 0
M  V30 3998 C 384.076 1.99624 -0.315361 0
M  V30 3999 C 384.397 1.60464 1.10799 0
M  V30 4000 O 383.667 0.863507 1.75842 0
M  V30 4001 H 382.247 0.73831 -0.113611 0
M  V30 4002 H 384.909 1.68878 -0.972952 0
M  V30 4003 H 384.005 3.09754 -0.381931 0
M  V30 4004 N 384.306 0.507319 1.49211 0
M  V30 4005 C 385.238 -0.304532 2.27168 0
M  V30 4006 C 386.251 -0.924956 1.33972 0
M  V30 4007 O 387.44 -0.807227 1.59205 0
M  V30 4008 C 384.54 -1.44431 3.06583 0
M  V30 4009 C 383.713 -0.930026 4.27398 0
M  V30 4010 C 382.772 -1.94817 4.88807 0
M  V30 4011 O 381.798 -1.51418 5.4869 0
M  V30 4012 N 383 -3.279 4.79022 0
M  V30 4013 H 385.765 0.36395 2.97482 0
M  V30 4014 H 383.326 0.340249 1.58284 0
M  V30 4015 H 385.318 -2.12311 3.44537 0
M  V30 4016 H 383.888 -2.01684 2.38835 0
M  V30 4017 H 383.108 -0.0759244 3.94127 0
M  V30 4018 H 384.396 -0.564932 5.05654 0
M  V30 4019 H 383.794 -3.65843 4.3148 0
M  V30 4020 H 382.351 -3.91476 5.21142 0
M  V30 4021 N 385.784 -1.5574 0.241426 0
M  V30 4022 C 386.714 -2.24133 -0.654722 0
M  V30 4023 C 387.695 -1.21974 -1.1856 0
M  V30 4024 O 388.88 -1.50612 -1.22595 0
M  V30 4025 C 386.01 -2.93659 -1.85423 0
M  V30 4026 C 384.964 -4.0246 -1.45636 0
M  V30 4027 C 384.29 -4.59383 -2.73626 0
M  V30 4028 C 385.59 -5.18468 -0.631506 0
M  V30 4029 H 387.284 -2.99281 -0.0844353 0
M  V30 4030 H 384.83 -1.43947 -0.0391707 0
M  V30 4031 H 386.783 -3.40203 -2.48676 0
M  V30 4032 H 385.507 -2.15991 -2.44981 0
M  V30 4033 H 384.166 -3.56676 -0.847202 0
M  V30 4034 H 383.814 -3.78422 -3.3137 0
M  V30 4035 H 383.514 -5.32826 -2.4773 0
M  V30 4036 H 385.038 -5.08658 -3.37786 0
M  V30 4037 H 386.452 -5.61272 -1.1682 0
M  V30 4038 H 384.849 -5.98266 -0.468831 0
M  V30 4039 H 385.919 -4.8358 0.357506 0
M  V30 4040 N 387.262 0.0317525 -1.57568 0
M  V30 4041 C 388.487 0.738664 -1.938 0
M  V30 4042 C 388.912 1.68242 -0.841208 0
M  V30 4043 O 388.27 1.80157 0.203267 0
M  V30 4044 C 388.318 1.47417 -3.29091 0
M  V30 4045 O 387.422 2.5872 -3.2115 0
M  V30 4046 H 386.763 0.198856 -0.633524 0
M  V30 4047 H 389.293 -0.0119713 -2.04596 0
M  V30 4048 H 389.303 1.84468 -3.63917 0
M  V30 4049 H 387.978 0.781988 -4.08482 0
M  V30 4050 H 386.555 2.24231 -2.97951 0
M  V30 4051 N 388.74 1.54641 0.303973 0
M  V30 4052 C 389.988 1.73437 1.0375 0
M  V30 4053 C 390.309 0.521449 1.87899 0
M  V30 4054 O 389.579 -0.46432 1.90318 0
M  V30 4055 H 388.159 0.639518 0.386039 0
M  V30 4056 H 390.821 1.91988 0.335675 0
M  V30 4057 H 389.917 2.62235 1.69231 0
M  V30 4058 N 390.218 -0.567019 1.47046 0
M  V30 4059 C 391.446 -1.35027 1.56765 0
M  V30 4060 C 391.861 -1.8758 0.214316 0
M  V30 4061 O 391.218 -1.64471 -0.790919 0
M  V30 4062 C 391.269 -2.52698 2.58507 0
M  V30 4063 O 390.99 -2.0232 3.88585 0
M  V30 4064 C 392.491 -3.45043 2.78316 0
M  V30 4065 H 389.711 -0.41195 0.529658 0
M  V30 4066 H 392.255 -0.687832 1.92585 0
M  V30 4067 H 390.41 -3.149 2.25648 0
M  V30 4068 H 390.824 -2.79068 4.44096 0
M  V30 4069 H 392.298 -4.2405 3.53391 0
M  V30 4070 H 392.775 -3.97971 1.85784 0
M  V30 4071 H 393.381 -2.88665 3.12334 0
M  V30 4072 N 391.696 -1.35014 -0.812953 0
M  V30 4073 C 392.659 -1.27292 -1.90602 0
M  V30 4074 C 393.659 -0.185817 -1.59723 0
M  V30 4075 O 394.849 -0.439102 -1.68575 0
M  V30 4076 C 391.981 -0.967676 -3.26877 0
M  V30 4077 H 393.174 -2.24479 -1.9887 0
M  V30 4078 H 390.727 -1.19446 -1.00808 0
M  V30 4079 H 391.462 0.0005954 -3.243 0
M  V30 4080 H 391.247 -1.75412 -3.50675 0
M  V30 4081 H 392.737 -0.939085 -4.06904 0
M  V30 4082 N 393.175 1.03435 -1.18907 0
M  V30 4083 C 394.421 1.77005 -0.989798 0
M  V30 4084 C 394.754 1.88205 0.478816 0
M  V30 4085 O 394.029 1.39481 1.35556 0
M  V30 4086 C 394.312 3.19925 -1.65287 0
M  V30 4087 C 394.165 3.1663 -3.19477 0
M  V30 4088 C 395.484 4.18189 -1.37134 0
M  V30 4089 H 392.603 0.642538 -0.360991 0
M  V30 4090 H 395.245 1.20784 -1.46667 0
M  V30 4091 H 393.395 3.67929 -1.24741 0
M  V30 4092 H 395.067 2.76567 -3.692 0
M  V30 4093 H 393.31 2.54491 -3.51307 0
M  V30 4094 H 393.981 4.1758 -3.61013 0
M  V30 4095 H 396.457 3.78761 -1.72276 0
M  V30 4096 H 395.333 5.16394 -1.86087 0
M  V30 4097 H 395.594 4.41112 -0.295424 0
M  V30 4098 N 394.653 0.992116 1.22453 0
M  V30 4099 C 396.064 0.702776 1.72968 0
M  V30 4100 C 396.415 -0.780399 1.80012 0
M  V30 4101 O 395.54 -1.61007 1.44589 0
M  V30 4102 C 396.135 1.26903 3.14135 0
M  V30 4103 C 394.694 1.02909 3.62059 0
M  V30 4104 C 393.841 1.38969 2.39964 0
M  V30 4105 H 396.792 1.16457 1.07812 0
M  V30 4106 H 396.813 0.647223 3.74955 0
M  V30 4107 H 396.325 2.34851 3.08977 0
M  V30 4108 H 394.426 -0.0337979 3.72585 0
M  V30 4109 H 394.539 1.69191 4.48231 0
M  V30 4110 H 392.903 0.808279 2.41535 0
M  V30 4111 H 393.686 2.4792 2.37467 0
M  V30 4112 N 396.131 -1.37776 0.765217 0
M  V30 4113 C 397.542 -1.82521 0.392819 0
M  V30 4114 C 397.893 -1.63789 -1.08017 0
M  V30 4115 O 397.018 -1.14542 -1.83601 0
M  V30 4116 C 397.613 -3.31358 0.706214 0
M  V30 4117 C 396.172 -3.74406 0.386952 0
M  V30 4118 C 395.319 -2.60394 0.953422 0
M  V30 4119 H 398.27 -1.2634 0.960412 0
M  V30 4120 H 398.291 -3.80498 -0.0114706 0
M  V30 4121 H 397.803 -3.44959 1.77833 0
M  V30 4122 H 395.904 -3.66377 -0.678112 0
M  V30 4123 H 396.017 -4.70749 0.890636 0
M  V30 4124 H 394.381 -2.51878 0.378064 0
M  V30 4125 H 395.164 -2.76791 2.03081 0
M  V30 4126 N 397.609 -0.515225 -1.4894 0
M  V30 4127 C 398.541 0.292481 -2.27326 0
M  V30 4128 C 399.554 0.917838 -1.3446 0
M  V30 4129 O 400.743 0.798772 -1.5963 0
M  V30 4130 C 397.843 1.42803 -3.07344 0
M  V30 4131 C 397.016 0.907347 -4.27885 0
M  V30 4132 C 396.075 1.92222 -4.89834 0
M  V30 4133 O 395.101 1.48506 -5.49486 0
M  V30 4134 N 396.303 3.25355 -4.80754 0
M  V30 4135 H 399.068 -0.379721 -2.97285 0
M  V30 4136 H 396.629 -0.348638 -1.58102 0
M  V30 4137 H 398.621 2.10481 -3.45658 0
M  V30 4138 H 397.191 2.00414 -2.39902 0
M  V30 4139 H 396.411 0.0550218 -3.94162 0
M  V30 4140 H 397.699 0.538108 -5.05946 0
M  V30 4141 H 397.097 3.6355 -4.33414 0
M  V30 4142 H 395.654 3.88707 -5.23211 0
M  V30 4143 N 399.087 1.5561 -0.249682 0
M  V30 4144 C 400.335 1.98618 0.373548 0
M  V30 4145 C 400.656 1.13919 1.58264 0
M  V30 4146 O 399.926 0.222637 1.94631 0
M  V30 4147 H 398.506 0.733571 0.141006 0
M  V30 4148 H 401.168 1.91748 -0.349117 0
M  V30 4149 H 400.264 3.04584 0.680796 0
M  V30 4150 N 400.565 -0.0233959 1.57583 0
M  V30 4151 C 401.528 -1.00693 2.05897 0
M  V30 4152 C 402.528 -1.28693 0.964092 0
M  V30 4153 O 403.718 -1.23602 1.22753 0
M  V30 4154 C 400.85 -2.33825 2.4807 0
M  V30 4155 H 402.043 -0.589476 2.9405 0
M  V30 4156 H 399.596 -0.270354 1.53944 0
M  V30 4157 H 400.331 -2.80307 1.6309 0
M  V30 4158 H 400.116 -2.1483 3.2801 0
M  V30 4159 H 401.606 -3.04426 2.85857 0
M  V30 4160 N 402.043 -1.548 -0.295768 0
M  V30 4161 C 402.953 -1.89177 -1.38742 0
M  V30 4162 C 403.969 -0.786481 -1.55211 0
M  V30 4163 O 405.145 -1.08344 -1.69775 0
M  V30 4164 C 402.21 -2.13663 -2.73036 0
M  V30 4165 C 401.271 -3.37349 -2.65508 0
M  V30 4166 C 400.504 -3.60658 -3.93398 0
M  V30 4167 O 400.727 -2.86882 -4.93006 0
M  V30 4168 O 399.661 -4.54179 -3.94975 0
M  V30 4169 H 403.487 -2.82059 -1.12589 0
M  V30 4170 H 401.072 -1.41056 -0.492295 0
M  V30 4171 H 402.954 -2.3094 -3.52484 0
M  V30 4172 H 401.629 -1.23967 -2.99022 0
M  V30 4173 H 400.536 -3.25431 -1.84514 0
M  V30 4174 H 401.869 -4.27192 -2.44474 0
M  V30 4175 N 403.521 0.559213 -1.47345 0
M  V30 4176 C 404.932 1.14134 -1.47751 0
M  V30 4177 C 405.283 1.94834 -0.231103 0
M  V30 4178 O 404.408 2.05957 0.664137 0
M  V30 4179 C 405.003 2.07653 -2.67705 0
M  V30 4180 C 403.562 2.61141 -2.71076 0
M  V30 4181 C 402.709 1.3748 -2.40821 0
M  V30 4182 H 405.66 0.345917 -1.54884 0
M  V30 4183 H 405.681 2.91497 -2.44561 0
M  V30 4184 H 405.193 1.4889 -3.58404 0
M  V30 4185 H 403.294 3.23707 -1.84511 0
M  V30 4186 H 403.407 3.02272 -3.7171 0
M  V30 4187 H 401.771 1.68086 -1.91362 0
M  V30 4188 H 402.554 0.805135 -3.33725 0
M  V30 4189 N 404.999 1.35443 0.805782 0
M  V30 4190 C 405.931 1.24285 1.92577 0
M  V30 4191 C 406.944 0.165962 1.61952 0
M  V30 4192 O 408.133 0.419303 1.73505 0
M  V30 4193 C 405.233 0.891272 3.2697 0
M  V30 4194 C 404.406 2.06669 3.85495 0
M  V30 4195 C 403.465 1.69077 4.98297 0
M  V30 4196 O 402.491 2.4096 5.15681 0
M  V30 4197 N 403.693 0.614869 5.77234 0
M  V30 4198 H 406.458 2.20777 2.02676 0
M  V30 4199 H 404.019 1.28623 0.983243 0
M  V30 4200 H 406.011 0.621256 3.99903 0
M  V30 4201 H 404.581 0.016004 3.12596 0
M  V30 4202 H 403.801 2.50046 3.04747 0
M  V30 4203 H 405.089 2.85237 4.21328 0
M  V30 4204 H 404.487 0.017648 5.65697 0
M  V30 4205 H 403.044 0.404636 6.50543 0
M  V30 4206 N 406.477 -1.02803 1.19454 0
M  V30 4207 C 407.702 -1.80378 1.02364 0
M  V30 4208 C 408.127 -1.83282 -0.423007 0
M  V30 4209 O 407.485 -1.25945 -1.30413 0
M  V30 4210 C 407.533 -3.23248 1.59821 0
M  V30 4211 O 406.637 -4.04 0.828105 0
M  V30 4212 H 405.978 -0.556799 0.361761 0
M  V30 4213 H 408.508 -1.29385 1.58495 0
M  V30 4214 H 408.518 -3.73994 1.63073 0
M  V30 4215 H 407.193 -3.2045 2.65113 0
M  V30 4216 H 405.77 -3.62635 0.86891 0
M  V30 4217 N 407.956 -0.998596 -1.21925 0
M  V30 4218 C 408.904 -0.546641 -2.26085 0
M  V30 4219 C 409.898 0.405576 -1.64473 0
M  V30 4220 O 411.104 0.277471 -1.77849 0
M  V30 4221 H 407.479 -0.158403 -0.735127 0
M  V30 4222 H 409.45 -1.43645 -2.61551 0
M  V30 4223 C 408.199 0.117388 -3.47502 0
M  V30 4224 H 407.522 -0.606277 -3.95176 0
M  V30 4225 H 408.962 0.396993 -4.22137 0
M  V30 4226 C 407.421 1.35455 -3.0847 0
M  V30 4227 O 407.951 2.44944 -3.18379 0
M  V30 4228 N 406.157 1.23191 -2.63196 0
M  V30 4229 H 405.704 0.341006 -2.55333 0
M  V30 4230 H 405.662 2.06071 -2.37449 0
M  V30 4231 N 409.434 1.37368 -0.772513 0
M  V30 4232 C 410.397 2.28601 -0.165541 0
M  V30 4233 C 411.397 1.48062 0.627238 0
M  V30 4234 O 412.587 1.68268 0.450715 0
M  V30 4235 C 409.719 3.32023 0.772897 0
M  V30 4236 H 410.912 2.83787 -0.969787 0
M  V30 4237 H 408.465 1.46647 -0.540775 0
M  V30 4238 H 409.2 2.81962 1.60212 0
M  V30 4239 H 408.985 3.91555 0.206585 0
M  V30 4240 H 410.475 4.00197 1.19298 0
M  V30 4241 N 410.912 0.523116 1.48665 0
M  V30 4242 C 412.16 -0.0134497 2.02096 0
M  V30 4243 C 412.481 -1.35418 1.40311 0
M  V30 4244 O 411.751 -1.87543 0.566074 0
M  V30 4245 H 410.331 -0.00795915 0.746958 0
M  V30 4246 H 412.993 0.685388 1.82451 0
M  V30 4247 H 412.089 -0.126849 3.11842 0
M  V30 4248 N 412.39 -1.55475 0.257931 0
M  V30 4249 C 413.801 -1.8511 -0.243135 0
M  V30 4250 C 414.152 -1.17986 -1.5676 0
M  V30 4251 O 413.277 -0.462102 -2.11409 0
M  V30 4252 C 413.872 -3.35826 -0.447929 0
M  V30 4253 C 412.431 -3.65647 -0.893245 0
M  V30 4254 C 411.578 -2.7729 0.0232965 0
M  V30 4255 H 414.529 -1.51261 0.480199 0
M  V30 4256 H 414.55 -3.58002 -1.28898 0
M  V30 4257 H 414.062 -3.84652 0.516196 0
M  V30 4258 H 412.163 -3.22308 -1.86945 0
M  V30 4259 H 412.276 -4.73312 -0.742469 0
M  V30 4260 H 410.64 -2.49942 -0.490021 0
M  V30 4261 H 411.423 -3.28926 0.982994 0
M  V30 4262 N 413.868 0.0150385 -1.57593 0
M  V30 4263 C 415.284 0.370907 -1.5523 0
M  V30 4264 C 415.484 1.75735 -0.985882 0
M  V30 4265 O 414.54 2.44944 -0.613077 0
M  V30 4266 C 415.853 0.259908 -2.99575 0
M  V30 4267 C 417.401 0.335959 -3.11192 0
M  V30 4268 C 417.876 0.254253 -4.57294 0
M  V30 4269 N 419.367 0.312618 -4.62144 0
M  V30 4270 C 420.102 0.272505 -5.72752 0
M  V30 4271 N 419.598 0.183864 -6.92556 0
M  V30 4272 N 421.391 0.323267 -5.6117 0
M  V30 4273 H 413.542 -0.892104 -1.92757 0
M  V30 4274 H 415.805 -0.340563 -0.884715 0
M  V30 4275 H 415.511 -0.693403 -3.44797 0
M  V30 4276 H 415.385 1.048 -3.62349 0
M  V30 4277 H 417.772 1.27971 -2.65909 0
M  V30 4278 H 417.853 -0.481739 -2.51223 0
M  V30 4279 H 417.497 -0.685887 -5.03247 0
M  V30 4280 H 417.427 1.09024 -5.15191 0
M  V30 4281 H 419.918 0.38307 -3.75953 0
M  V30 4282 H 420.231 0.15874 -7.72637 0
M  V30 4283 H 418.576 0.149708 -6.94839 0
M  V30 4284 H 421.767 0.390607 -4.66467 0
M  V30 4285 H 421.94 0.288539 -6.47357 0
M  V30 4286 N 415.346 1.54954 0.287554 0
M  V30 4287 C 416.757 1.65732 0.859634 0
M  V30 4288 C 417.108 0.574767 1.87592 0
M  V30 4289 O 416.233 -0.286299 2.14498 0
M  V30 4290 C 416.828 3.00438 1.56597 0
M  V30 4291 C 415.387 3.13292 2.08627 0
M  V30 4292 C 414.534 2.61473 0.923416 0
M  V30 4293 H 417.485 1.5857 0.0642338 0
M  V30 4294 H 417.506 2.92613 2.43224 0
M  V30 4295 H 417.018 3.79207 0.826053 0
M  V30 4296 H 415.119 2.39268 2.85625 0
M  V30 4297 H 415.232 4.19647 2.31157 0
M  V30 4298 H 413.596 2.18264 1.31275 0
M  V30 4299 H 414.379 3.42733 0.197241 0
M  V30 4300 N 416.824 -0.551391 1.4764 0
M  V30 4301 C 417.774 -1.65362 1.56969 0
M  V30 4302 C 418.758 -1.55098 0.428189 0
M  V30 4303 O 419.95 -1.63481 0.678441 0
M  V30 4304 C 417.079 -3.04129 1.59249 0
M  V30 4305 C 416.165 -3.19576 2.78804 0
M  V30 4306 N 416.556 -3.05067 4.03445 0
M  V30 4307 C 414.854 -3.50588 2.75688 0
M  V30 4308 C 415.555 -3.2336 4.83543 0
M  V30 4309 N 414.531 -3.4996 4.15968 0
M  V30 4310 H 418.333 -1.52722 2.51104 0
M  V30 4311 H 415.847 -0.756303 1.43714 0
M  V30 4312 H 417.844 -3.83278 1.64024 0
M  V30 4313 H 416.504 -3.17877 0.662148 0
M  V30 4314 H 417.515 -2.82273 4.34215 0
M  V30 4315 H 414.192 -3.70827 1.91817 0
M  V30 4316 H 415.582 -3.17061 5.92387 0
M  V30 4317 N 418.302 -1.35869 -0.798587 0
M  V30 4318 C 419.551 -1.28921 -1.5512 0
M  V30 4319 C 419.864 0.13208 -1.95154 0
M  V30 4320 O 421.07 0.323879 -2.69561 0
M  V30 4321 C 419.526 -2.26141 -2.79979 0
M  V30 4322 C 419.134 -3.73658 -2.47151 0
M  V30 4323 C 420.878 -2.28152 -3.57976 0
M  V30 4324 C 418.785 -4.62679 -3.6835 0
M  V30 4325 H 417.715 -0.479031 -0.582276 0
M  V30 4326 H 420.366 -1.61179 -0.877125 0
M  V30 4327 H 418.748 -1.86865 -3.49138 0
M  V30 4328 H 419.922 -4.21616 -1.85947 0
M  V30 4329 H 418.237 -3.74333 -1.82383 0
M  V30 4330 H 420.834 -2.91875 -4.4801 0
M  V30 4331 H 421.177 -1.28748 -3.95891 0
M  V30 4332 H 421.71 -2.65998 -2.95787 0
M  V30 4333 H 418.449 -5.63111 -3.35538 0
M  V30 4334 H 417.969 -4.19442 -4.28752 0
M  V30 4335 H 419.648 -4.78498 -4.35487 0
M  V30 4336 N 419.78 1.02168 -1.19998 0
M  V30 4337 C 421.028 1.75338 -1.00504 0
M  V30 4338 C 421.349 1.89387 0.464506 0
M  V30 4339 O 420.619 1.43268 1.33608 0
M  V30 4340 H 419.199 0.649564 -0.368885 0
M  V30 4341 H 421.861 1.23205 -1.51018 0
M  V30 4342 H 420.957 2.75892 -1.45912 0
M  V30 4343 N 421.258 1.00505 1.21394 0
M  V30 4344 C 422.535 0.603277 1.86064 0
M  V30 4345 C 422.915 -0.919095 1.90042 0
M  V30 4346 O 422.263 -1.80607 1.39977 0
M  V30 4347 C 422.473 1.23772 3.26315 0
M  V30 4348 C 423.821 1.34586 4.02705 0
M  V30 4349 O 424.845 1.19304 3.35626 0
M  V30 4350 O 423.704 1.59169 5.22807 0
M  V30 4351 H 420.798 0.206634 0.800769 0
M  V30 4352 H 423.344 1.1017 1.29076 0
M  V30 4353 H 422.116 2.27848 3.18121 0
M  V30 4354 H 421.739 0.725648 3.90922 0
M  V30 4355 N 422.737 -1.36956 0.779787 0
M  V30 4356 C 423.965 -2.03755 0.359398 0
M  V30 4357 C 424.38 -1.58807 -1.02106 0
M  V30 4358 O 423.737 -0.773024 -1.6532 0
M  V30 4359 C 423.788 -3.59251 0.402568 0
M  V30 4360 O 423.509 -4.02557 1.72858 0
M  V30 4361 C 425.01 -4.43291 -0.0284068 0
M  V30 4362 H 422.23 -0.654148 0.149437 0
M  V30 4363 H 424.774 -1.75128 1.05595 0
M  V30 4364 H 422.929 -3.86621 -0.245478 0
M  V30 4365 H 423.343 -4.97111 1.67275 0
M  V30 4366 H 424.817 -5.51975 0.0529466 0
M  V30 4367 H 425.294 -4.25719 -1.07982 0
M  V30 4368 H 425.9 -4.21163 0.591758 0
M  V30 4369 N 424.215 -0.530993 -1.48385 0
M  V30 4370 C 425.145 0.219985 -2.32461 0
M  V30 4371 C 426.126 0.934111 -1.42156 0
M  V30 4372 O 427.311 0.919694 -1.71042 0
M  V30 4373 C 424.441 1.26674 -3.23375 0
M  V30 4374 C 423.395 0.67069 -4.22712 0
M  V30 4375 C 422.721 1.82017 -5.02766 0
M  V30 4376 C 424.021 -0.358268 -5.2107 0
M  V30 4377 H 425.715 -0.48187 -2.95497 0
M  V30 4378 H 423.261 -0.233182 -1.42099 0
M  V30 4379 H 425.214 1.80006 -3.81019 0
M  V30 4380 H 423.938 1.99818 -2.58341 0
M  V30 4381 H 422.597 0.158878 -3.66256 0
M  V30 4382 H 422.245 2.54002 -4.34157 0
M  V30 4383 H 421.945 1.42727 -5.70003 0
M  V30 4384 H 423.469 2.35725 -5.63264 0
M  V30 4385 H 424.883 0.0880081 -5.73232 0
M  V30 4386 H 423.28 -0.66861 -5.96364 0
M  V30 4387 H 424.35 -1.26367 -4.68145 0
M  V30 4388 N 425.693 1.55336 -0.266172 0
M  V30 4389 C 426.94 1.99397 0.353158 0
M  V30 4390 C 427.268 1.15451 1.56529 0
M  V30 4391 O 426.523 0.209974 1.9457 0
M  V30 4392 C 426.822 3.48606 0.787957 0
M  V30 4393 C 426.488 4.49773 -0.318541 0
M  V30 4394 C 425.15 4.77158 -0.62239 0
M  V30 4395 C 427.502 5.10212 -1.06459 0
M  V30 4396 C 424.83 5.62251 -1.67602 0
M  V30 4397 C 427.182 5.96449 -2.10788 0
M  V30 4398 C 425.846 6.22158 -2.41817 0
M  V30 4399 H 425.116 0.729644 0.12923 0
M  V30 4400 H 427.763 1.87732 -0.37802 0
M  V30 4401 H 426.068 3.57701 1.59866 0
M  V30 4402 H 427.765 3.80098 1.27775 0
M  V30 4403 H 424.355 4.2854 -0.0715925 0
M  V30 4404 H 428.539 4.89086 -0.843098 0
M  V30 4405 H 423.795 5.80419 -1.92155 0
M  V30 4406 H 427.969 6.42317 -2.69076 0
M  V30 4407 H 425.596 6.87888 -3.23596 0
M  V30 4408 N 427.171 -0.0066808 1.57599 0
M  V30 4409 C 428.399 -0.704087 1.94551 0
M  V30 4410 C 428.814 -1.67677 0.867746 0
M  V30 4411 O 428.171 -1.8185 -0.153925 0
M  V30 4412 C 428.222 -1.44177 3.31505 0
M  V30 4413 O 427.943 -0.508097 4.35144 0
M  V30 4414 C 429.444 -2.23429 3.82876 0
M  V30 4415 H 426.664 -0.196523 0.641576 0
M  V30 4416 H 429.208 0.042453 2.04456 0
M  V30 4417 H 427.363 -2.13999 3.22929 0
M  V30 4418 H 427.777 -1.02782 5.14331 0
M  V30 4419 H 429.251 -2.70552 4.8115 0
M  V30 4420 H 429.728 -3.05818 3.15233 0
M  V30 4421 H 430.334 -1.58636 3.94607 0
M  V30 4422 N 428.649 -1.55105 -0.279332 0
M  V30 4423 C 429.579 -1.90557 -1.34945 0
M  V30 4424 C 430.56 -0.766738 -1.51839 0
M  V30 4425 O 431.745 -1.02434 -1.64988 0
M  V30 4426 C 428.875 -2.17193 -2.71006 0
M  V30 4427 C 427.829 -3.33021 -2.68851 0
M  V30 4428 C 427.155 -3.45123 -4.08405 0
M  V30 4429 C 428.455 -4.69578 -2.28678 0
M  V30 4430 H 430.149 -2.80188 -1.05522 0
M  V30 4431 H 427.695 -1.34811 -0.506173 0
M  V30 4432 H 429.648 -2.40581 -3.45975 0
M  V30 4433 H 428.372 -1.24355 -3.01999 0
M  V30 4434 H 427.031 -3.0959 -1.9634 0
M  V30 4435 H 426.679 -2.49762 -4.3661 0
M  V30 4436 H 426.379 -4.22995 -4.07859 0
M  V30 4437 H 427.903 -3.70796 -4.85121 0
M  V30 4438 H 429.317 -4.92553 -2.93368 0
M  V30 4439 H 427.714 -5.5032 -2.39306 0
M  V30 4440 H 428.784 -4.68828 -1.23807 0
M  V30 4441 N 430.127 0.543554 -1.4793 0
M  V30 4442 C 431.374 1.30008 -1.55255 0
M  V30 4443 C 431.702 1.93245 -0.220612 0
M  V30 4444 O 430.957 1.79141 0.787843 0
M  V30 4445 C 431.256 2.42078 -2.62932 0
M  V30 4446 C 430.922 1.96583 -4.0579 0
M  V30 4447 C 429.584 1.83893 -4.44676 0
M  V30 4448 C 431.936 1.62034 -4.95373 0
M  V30 4449 C 429.264 1.34969 -5.70964 0
M  V30 4450 C 431.616 1.14577 -6.22137 0
M  V30 4451 C 430.28 1.00493 -6.59892 0
M  V30 4452 H 429.55 0.475735 -0.568117 0
M  V30 4453 H 432.197 0.608075 -1.81589 0
M  V30 4454 H 430.502 3.16892 -2.30406 0
M  V30 4455 H 432.199 3.00236 -2.65818 0
M  V30 4456 H 428.789 2.07407 -3.75074 0
M  V30 4457 H 432.973 1.70705 -4.66019 0
M  V30 4458 H 428.229 1.2274 -5.98953 0
M  V30 4459 H 432.403 0.869109 -6.90955 0
M  V30 4460 H 430.03 0.623624 -7.57638 0
M  V30 4461 N 431.605 1.3629 0.791371 0
M  V30 4462 C 433.021 1.16661 1.08914 0
M  V30 4463 C 433.221 -0.0106266 2.01497 0
M  V30 4464 O 432.277 -0.676596 2.43266 0
M  V30 4465 C 433.59 2.47656 1.70549 0
M  V30 4466 C 435.138 2.54002 1.82899 0
M  V30 4467 C 435.613 3.85078 2.47949 0
M  V30 4468 N 437.104 3.86413 2.5542 0
M  V30 4469 C 437.839 4.84572 3.06557 0
M  V30 4470 N 437.335 5.93124 3.58016 0
M  V30 4471 N 439.128 4.71994 3.05251 0
M  V30 4472 H 431.279 2.11668 0.176238 0
M  V30 4473 H 433.542 0.937486 0.140796 0
M  V30 4474 H 433.248 3.34059 1.09989 0
M  V30 4475 H 433.122 2.63319 2.70079 0
M  V30 4476 H 435.509 1.68018 2.42598 0
M  V30 4477 H 435.59 2.42239 0.821808 0
M  V30 4478 H 435.234 4.71467 1.88895 0
M  V30 4479 H 435.164 3.94135 3.49235 0
M  V30 4480 H 437.655 3.07988 2.18979 0
M  V30 4481 H 437.968 6.63999 3.95381 0
M  V30 4482 H 436.313 5.96796 3.56173 0
M  V30 4483 H 439.504 3.86321 2.64336 0
M  V30 4484 H 439.677 5.48653 3.44796 0
M  V30 4485 N 433.083 -1.0153 1.20538 0
M  V30 4486 C 434.046 -2.0826 0.957098 0
M  V30 4487 C 435.046 -1.60657 -0.0678655 0
M  V30 4488 O 436.236 -1.73385 0.168332 0
M  V30 4489 C 433.368 -3.38033 0.441188 0
M  V30 4490 H 434.561 -2.31719 1.90384 0
M  V30 4491 H 432.114 -1.1835 1.02093 0
M  V30 4492 H 432.849 -3.20249 -0.510961 0
M  V30 4493 H 432.634 -3.73911 1.18038 0
M  V30 4494 H 434.124 -4.16613 0.287009 0
M  V30 4495 N 434.561 -1.01147 -1.20859 0
M  V30 4496 C 435.972 -0.730205 -1.71828 0
M  V30 4497 C 436.323 0.751662 -1.8123 0
M  V30 4498 O 435.448 1.58686 -1.47132 0
M  V30 4499 C 436.043 -1.31885 -3.12077 0
M  V30 4500 C 434.602 -1.08656 -3.60376 0
M  V30 4501 C 433.749 -1.42769 -2.37723 0
M  V30 4502 H 436.7 -1.18158 -1.05945 0
M  V30 4503 H 436.721 -0.706793 -3.73878 0
M  V30 4504 H 436.233 -2.39737 -3.05201 0
M  V30 4505 H 434.334 -0.0254814 -3.72591 0
M  V30 4506 H 434.447 -1.76301 -4.45483 0
M  V30 4507 H 432.811 -0.846603 -2.40218 0
M  V30 4508 H 433.594 -2.51666 -2.33493 0
M  V30 4509 N 436.039 1.36541 -0.78704 0
M  V30 4510 C 436.949 2.3387 -0.184896 0
M  V30 4511 C 437.965 1.60927 0.661697 0
M  V30 4512 O 439.141 1.92927 0.57804 0
M  V30 4513 C 436.206 3.40122 0.672145 0
M  V30 4514 C 435.267 4.28867 -0.19267 0
M  V30 4515 C 434.5 5.30045 0.623561 0
M  V30 4516 O 434.723 5.39232 1.8597 0
M  V30 4517 O 433.657 6.01895 0.0247068 0
M  V30 4518 H 437.483 2.87126 -0.989562 0
M  V30 4519 H 435.068 1.38969 -0.548455 0
M  V30 4520 H 436.95 4.05093 1.16094 0
M  V30 4521 H 435.625 2.89169 1.45474 0
M  V30 4522 H 434.532 3.66945 -0.728166 0
M  V30 4523 H 435.865 4.83165 -0.938722 0
M  V30 4524 N 437.518 0.538854 1.48102 0
M  V30 4525 C 438.448 -0.207654 2.32575 0
M  V30 4526 C 439.429 -0.926559 1.4265 0
M  V30 4527 O 440.614 -0.91061 1.71527 0
M  V30 4528 C 437.744 -1.24957 3.24042 0
M  V30 4529 C 436.698 -0.648263 4.23062 0
M  V30 4530 C 436.024 -1.79348 5.03725 0
M  V30 4531 C 437.324 0.385897 5.20872 0
M  V30 4532 H 439.018 0.497534 2.95237 0
M  V30 4533 H 436.564 0.240715 1.41974 0
M  V30 4534 H 438.517 -1.77983 3.81969 0
M  V30 4535 H 437.241 -1.98446 2.59397 0
M  V30 4536 H 435.9 -0.139452 3.66335 0
M  V30 4537 H 435.548 -2.51696 4.35498 0
M  V30 4538 H 435.248 -1.39702 5.70751 0
M  V30 4539 H 436.772 -2.32735 5.64506 0
M  V30 4540 H 438.186 -0.057607 5.73271 0
M  V30 4541 H 436.583 0.700227 5.96001 0
M  V30 4542 H 437.653 1.28848 4.67468 0
M  V30 4543 N 438.996 -1.55193 0.274407 0
M  V30 4544 C 439.926 -2.25471 -0.607032 0
M  V30 4545 C 440.907 -1.24461 -1.15946 0
M  V30 4546 O 442.092 -1.53179 -1.19373 0
M  V30 4547 C 439.222 -2.97526 -1.79153 0
M  V30 4548 C 438.176 -4.05459 -1.37067 0
M  V30 4549 C 437.502 -4.65084 -2.6382 0
M  V30 4550 C 438.802 -5.19691 -0.521389 0
M  V30 4551 H 440.496 -2.99393 -0.0209343 0
M  V30 4552 H 438.042 -1.43997 -0.00862866 0
M  V30 4553 H 439.995 -3.45402 -2.41404 0
M  V30 4554 H 438.719 -2.21138 -2.40344 0
M  V30 4555 H 437.378 -3.58393 -0.771355 0
M  V30 4556 H 437.026 -3.85365 -3.23268 0
M  V30 4557 H 436.726 -5.37961 -2.36372 0
M  V30 4558 H 438.25 -5.15708 -3.26921 0
M  V30 4559 H 439.664 -5.63623 -1.04889 0
M  V30 4560 H 438.061 -5.99126 -0.341825 0
M  V30 4561 H 439.131 -4.82713 0.46 0
M  V30 4562 N 440.474 -0.00167713 -1.576 0
M  V30 4563 C 441.437 0.974046 -2.07473 0
M  V30 4564 C 442.437 1.27143 -0.984444 0
M  V30 4565 O 443.627 1.21633 -1.24703 0
M  V30 4566 C 440.759 2.29849 -2.51759 0
M  V30 4567 H 441.952 0.54262 -2.9495 0
M  V30 4568 H 439.505 0.245829 -1.54355 0
M  V30 4569 H 440.24 2.77677 -1.67529 0
M  V30 4570 H 440.025 2.09584 -3.31386 0
M  V30 4571 H 441.515 2.9984 -2.90664 0
M  V30 4572 N 441.952 1.55251 0.271103 0
M  V30 4573 C 443.363 1.66635 0.842007 0
M  V30 4574 C 443.714 0.594631 1.86972 0
M  V30 4575 O 442.839 -0.263532 2.14789 0
M  V30 4576 C 443.434 3.02082 1.53401 0
M  V30 4577 C 441.993 3.15487 2.05293 0
M  V30 4578 C 441.14 2.62438 0.895631 0
M  V30 4579 H 444.091 1.58629 0.0474117 0
M  V30 4580 H 444.112 2.95176 2.40107 0
M  V30 4581 H 443.624 3.80062 0.785786 0
M  V30 4582 H 441.725 2.42284 2.83071 0
M  V30 4583 H 441.838 4.22075 2.26693 0
M  V30 4584 H 440.202 2.19644 1.28953 0
M  V30 4585 H 440.985 3.42923 0.160878 0
M  V30 4586 N 443.43 -0.535701 1.48216 0
M  V30 4587 C 444.378 -1.66179 1.62749 0
M  V30 4588 C 445.372 -1.62034 0.49409 0
M  V30 4589 O 446.578 -1.6696 0.672624 0
M  V30 4590 H 442.953 -0.550244 0.512578 0
M  V30 4591 H 444.924 -1.51063 2.57337 0
M  V30 4592 C 443.673 -3.04471 1.67907 0
M  V30 4593 H 442.996 -3.08351 2.54479 0
M  V30 4594 H 444.436 -3.82894 1.82121 0
M  V30 4595 C 442.895 -3.34314 0.416596 0
M  V30 4596 O 443.425 -3.98905 -0.473014 0
M  V30 4597 N 441.631 -2.89149 0.290038 0
M  V30 4598 H 441.178 -2.36764 1.01493 0
M  V30 4599 H 441.136 -3.09486 -0.55367 0
M  V30 4600 N 444.908 -1.36708 -0.784132 0
M  V30 4601 C 446.156 -1.30972 -1.53918 0
M  V30 4602 C 446.477 0.109086 -1.94695 0
M  V30 4603 O 445.747 1.05048 -1.65353 0
M  V30 4604 H 444.327 -0.481819 -0.570841 0
M  V30 4605 H 446.989 -1.71063 -0.934002 0
M  V30 4606 H 446.085 -1.94061 -2.44431 0
M  V30 4607 N 446.386 1.0089 -1.21074 0
M  V30 4608 C 447.663 1.71834 -0.934469 0
M  V30 4609 C 448.043 2.0368 0.554753 0
M  V30 4610 O 447.391 1.70742 1.51854 0
M  V30 4611 C 447.601 2.98061 -1.8155 0
M  V30 4612 C 448.949 3.7117 -2.06199 0
M  V30 4613 O 449.973 3.08034 -1.78867 0
M  V30 4614 O 448.832 4.84721 -2.52404 0
M  V30 4615 H 445.926 0.749253 -0.35007 0
M  V30 4616 H 448.472 1.06668 -1.31985 0
M  V30 4617 H 447.244 2.70908 -2.82355 0
M  V30 4618 H 446.867 3.70968 -1.43068 0
M  V30 4619 N 447.864 1.01787 1.20321 0
M  V30 4620 C 448.794 0.609625 2.25401 0
M  V30 4621 C 449.775 -0.375951 1.65893 0
M  V30 4622 O 450.96 -0.261101 1.92437 0
M  V30 4623 C 448.09 -0.0515995 3.47262 0
M  V30 4624 C 447.044 0.855095 4.19371 0
M  V30 4625 C 446.37 0.0595757 5.34667 0
M  V30 4626 C 447.67 2.16374 4.75373 0
M  V30 4627 H 449.364 1.48803 2.59804 0
M  V30 4628 H 446.91 0.716934 1.24884 0
M  V30 4629 H 448.863 -0.348764 4.19954 0
M  V30 4630 H 447.587 -0.964726 3.12027 0
M  V30 4631 H 446.246 1.13628 3.48546 0
M  V30 4632 H 445.894 -0.85524 4.95676 0
M  V30 4633 H 445.594 0.663406 5.83843 0
M  V30 4634 H 447.118 -0.231105 6.10162 0
M  V30 4635 H 448.532 1.92885 5.39878 0
M  V30 4636 H 446.929 2.71853 5.34991 0
M  V30 4637 H 447.999 2.82589 3.94045 0
M  V30 4638 N 449.342 -1.36122 0.79427 0
M  V30 4639 C 450.572 -2.03067 0.380437 0
M  V30 4640 C 450.98 -1.60018 -1.00949 0
M  V30 4641 O 450.323 -0.787425 -1.65968 0
M  V30 4642 C 450.385 -3.57587 0.37034 0
M  V30 4643 C 450.049 -4.23855 1.70867 0
M  V30 4644 C 451.046 -4.46404 2.66496 0
M  V30 4645 C 448.731 -4.61229 1.9893 0
M  V30 4646 C 450.725 -5.05412 3.88378 0
M  V30 4647 C 448.412 -5.19953 3.21079 0
M  V30 4648 C 449.41 -5.41985 4.15621 0
M  V30 4649 O 449.098 -5.99475 5.35616 0
M  V30 4650 H 448.83 -0.658168 0.154243 0
M  V30 4651 H 451.384 -1.7498 1.0757 0
M  V30 4652 H 449.614 -3.84814 -0.381444 0
M  V30 4653 H 451.303 -4.05895 -0.0194894 0
M  V30 4654 H 452.069 -4.17921 2.46103 0
M  V30 4655 H 447.948 -4.43402 1.26158 0
M  V30 4656 H 451.492 -5.22524 4.62185 0
M  V30 4657 H 447.389 -5.47862 3.41347 0
M  V30 4658 H 448.157 -6.17937 5.36745 0
M  V30 4659 N 450.82 -0.546701 -1.47814 0
M  V30 4660 C 451.768 0.220048 -2.31557 0
M  V30 4661 C 452.762 0.919472 -1.42275 0
M  V30 4662 O 453.968 0.841953 -1.59095 0
M  V30 4663 H 450.343 0.0898334 -0.746615 0
M  V30 4664 H 452.314 -0.505589 -2.94086 0
M  V30 4665 C 451.063 1.24353 -3.24702 0
M  V30 4666 H 450.386 0.714758 -3.93359 0
M  V30 4667 H 451.826 1.75112 -3.8615 0
M  V30 4668 C 450.285 2.28593 -2.47481 0
M  V30 4669 O 450.815 3.35334 -2.21165 0
M  V30 4670 N 449.021 2.02244 -2.08676 0
M  V30 4671 H 448.568 1.15455 -2.30278 0
M  V30 4672 H 448.526 2.72207 -1.57323 0
M  V30 4673 N 452.299 1.55045 -0.282633 0
M  V30 4674 C 453.545 2.00056 0.332481 0
M  V30 4675 C 453.878 1.1708 1.54939 0
M  V30 4676 O 453.153 0.2427 1.9298 0
M  V30 4677 C 453.436 3.53086 0.70725 0
M  V30 4678 C 453.289 4.46813 -0.517521 0
M  V30 4679 C 454.608 4.12245 1.54084 0
M  V30 4680 H 451.727 0.727268 0.119373 0
M  V30 4681 H 454.369 1.85932 -0.391076 0
M  V30 4682 H 452.519 3.65253 1.32372 0
M  V30 4683 H 454.191 4.46579 -1.15607 0
M  V30 4684 H 452.434 4.18163 -1.1542 0
M  V30 4685 H 453.105 5.51595 -0.211426 0
M  V30 4686 H 455.581 4.03401 1.02013 0
M  V30 4687 H 454.457 5.19515 1.77186 0
M  V30 4688 H 454.718 3.62951 2.52427 0
M  V30 4689 N 453.777 0.010035 1.57597 0
M  V30 4690 C 455.024 -0.6727 1.91 0
M  V30 4691 C 455.352 -1.73219 0.884614 0
M  V30 4692 O 454.607 -1.95395 -0.109215 0
M  V30 4693 C 454.906 -1.34434 3.31153 0
M  V30 4694 C 454.572 -0.417083 4.48967 0
M  V30 4695 C 453.234 -0.161809 4.80928 0
M  V30 4696 C 455.586 0.220753 5.20732 0
M  V30 4697 C 452.914 0.739426 5.82022 0
M  V30 4698 C 455.266 1.10993 6.22787 0
M  V30 4699 C 453.93 1.37428 6.532 0
M  V30 4700 H 453.2 -0.246158 0.698918 0
M  V30 4701 H 455.847 0.0677145 1.9138 0
M  V30 4702 H 454.152 -2.15905 3.26944 0
M  V30 4703 H 455.849 -1.87883 3.54261 0
M  V30 4704 H 452.439 -0.626217 4.24001 0
M  V30 4705 H 456.623 0.0365643 4.96287 0
M  V30 4706 H 451.879 0.952139 6.03941 0
M  V30 4707 H 456.053 1.61046 6.77523 0
M  V30 4708 H 453.68 2.0743 7.31353 0
M  V30 4709 N 455.255 -1.55392 -0.262866 0
M  V30 4710 C 456.218 -1.88181 -1.30846 0
M  V30 4711 C 457.218 -0.757079 -1.41862 0
M  V30 4712 O 458.408 -1.02519 -1.40838 0
M  V30 4713 C 455.54 -2.09609 -2.68844 0
M  V30 4714 H 456.733 -2.81659 -1.02997 0
M  V30 4715 H 454.286 -1.48039 -0.501414 0
M  V30 4716 H 455.021 -1.18547 -3.01856 0
M  V30 4717 H 454.806 -2.91508 -2.62231 0
M  V30 4718 H 456.296 -2.36215 -3.44372 0
M  V30 4719 N 456.733 0.527833 -1.48498 0
M  V30 4720 C 457.979 1.28295 -1.57836 0
M  V30 4721 C 458.334 1.9077 -0.249943 0
M  V30 4722 O 457.627 1.76421 0.747402 0
M  V30 4723 C 457.821 2.39275 -2.65485 0
M  V30 4724 C 457.65 1.87679 -4.08664 0
M  V30 4725 C 456.42 1.70187 -4.75778 0
M  V30 4726 C 458.618 1.40409 -4.94762 0
M  V30 4727 N 456.6 1.13238 -6.03366 0
M  V30 4728 C 457.971 0.954216 -6.12613 0
M  V30 4729 C 460.026 1.28732 -4.8097 0
M  V30 4730 C 458.729 0.39915 -7.18192 0
M  V30 4731 C 460.755 0.746244 -5.86673 0
M  V30 4732 C 460.117 0.306457 -7.03733 0
M  V30 4733 H 456.216 0.460408 -0.632099 0
M  V30 4734 H 458.8 0.594913 -1.85388 0
M  V30 4735 H 456.971 3.05572 -2.3975 0
M  V30 4736 H 458.703 3.06308 -2.64495 0
M  V30 4737 H 455.458 1.93772 -4.32145 0
M  V30 4738 H 455.882 0.867687 -6.71417 0
M  V30 4739 H 460.524 1.61338 -3.90807 0
M  V30 4740 H 458.242 0.0607678 -8.08077 0
M  V30 4741 H 461.828 0.659041 -5.78055 0
M  V30 4742 H 460.708 -0.105708 -7.84129 0
M  V30 4743 N 458.211 1.37122 0.776871 0
M  V30 4744 C 459.174 1.32301 1.8716 0
M  V30 4745 C 460.174 0.228099 1.59174 0
M  V30 4746 O 461.364 0.483642 1.67352 0
M  V30 4747 C 458.496 1.054 3.24197 0
M  V30 4748 H 459.689 2.29673 1.92848 0
M  V30 4749 H 457.242 1.22077 0.97606 0
M  V30 4750 H 457.977 0.0853872 3.24188 0
M  V30 4751 H 457.762 1.84648 3.45901 0
M  V30 4752 H 459.252 1.04664 4.04271 0
M  V30 4753 N 459.689 -1.00246 1.21608 0
M  V30 4754 C 460.619 -2.10921 1.00172 0
M  V30 4755 C 461.6 -1.69938 -0.0741587 0
M  V30 4756 O 462.785 -1.94009 0.0861753 0
M  V30 4757 C 459.915 -3.42618 0.568355 0
M  V30 4758 C 458.869 -3.97407 1.58909 0
M  V30 4759 C 458.195 -5.25038 1.01187 0
M  V30 4760 C 459.495 -4.2918 2.97661 0
M  V30 4761 H 461.189 -2.29112 1.92739 0
M  V30 4762 H 458.735 -1.10101 0.928102 0
M  V30 4763 H 460.688 -4.19444 0.405555 0
M  V30 4764 H 459.412 -3.24227 -0.392961 0
M  V30 4765 H 458.071 -3.22703 1.73949 0
M  V30 4766 H 457.719 -5.02982 0.0421965 0
M  V30 4767 H 457.419 -5.62661 1.6937 0
M  V30 4768 H 458.943 -6.04507 0.860448 0
M  V30 4769 H 460.357 -4.96839 2.86049 0
M  V30 4770 H 458.754 -4.77952 3.6288 0
M  V30 4771 H 459.824 -3.3735 3.48315 0
M  V30 4772 N 461.167 -1.02423 -1.1978 0
M  V30 4773 C 462.444 -0.632802 -1.85081 0
M  V30 4774 C 462.824 0.888745 -1.9148 0
M  V30 4775 O 462.172 1.78357 -1.42832 0
M  V30 4776 C 462.382 -1.28947 -3.24305 0
M  V30 4777 C 463.73 -1.40976 -4.00513 0
M  V30 4778 O 464.754 -1.24628 -3.33686 0
M  V30 4779 O 463.613 -1.67467 -5.20209 0
M  V30 4780 H 460.707 -0.219348 -0.79738 0
M  V30 4781 H 463.253 -1.12209 -1.27307 0
M  V30 4782 H 462.025 -2.3288 -3.14456 0
M  V30 4783 H 461.648 -0.787748 -3.89718 0
M  V30 4784 N 462.645 1.35699 -0.801477 0
M  V30 4785 C 463.891 1.99208 -0.380022 0
M  V30 4786 C 464.224 1.63445 1.04878 0
M  V30 4787 O 463.499 0.895223 1.72673 0
M  V30 4788 C 463.782 3.55755 -0.557708 0
M  V30 4789 C 463.635 4.01332 -2.03107 0
M  V30 4790 C 464.954 4.40096 0.0197968 0
M  V30 4791 H 462.073 0.723667 -0.139552 0
M  V30 4792 H 464.715 1.60928 -1.01006 0
M  V30 4793 H 462.865 3.88494 -0.0213741 0
M  V30 4794 H 464.537 3.79026 -2.62939 0
M  V30 4795 H 462.78 3.52429 -2.52936 0
M  V30 4796 H 463.451 5.10234 -2.1063 0
M  V30 4797 H 465.927 4.13786 -0.438179 0
M  V30 4798 H 464.803 5.48735 -0.134477 0
M  V30 4799 H 465.064 4.2786 1.11303 0
M  V30 4800 N 464.123 0.554532 1.47522 0
M  V30 4801 C 465.053 -0.182974 2.32782 0
M  V30 4802 C 466.034 -0.911377 1.43624 0
M  V30 4803 O 467.219 -0.892366 1.72483 0
M  V30 4804 C 464.349 -1.21513 3.25349 0
M  V30 4805 C 463.303 -0.603355 4.23726 0
M  V30 4806 C 462.629 -1.73995 5.05598 0
M  V30 4807 C 463.929 0.441121 5.20434 0
M  V30 4808 H 465.623 0.52882 2.94693 0
M  V30 4809 H 463.169 0.255759 1.41711 0
M  V30 4810 H 465.122 -1.73922 3.83835 0
M  V30 4811 H 463.846 -1.95683 2.61487 0
M  V30 4812 H 462.505 -0.10059 3.66462 0
M  V30 4813 H 462.153 -2.47063 4.38143 0
M  V30 4814 H 461.853 -1.3364 5.72201 0
M  V30 4815 H 463.377 -2.26735 5.66942 0
M  V30 4816 H 464.791 0.00319931 5.733 0
M  V30 4817 H 463.188 0.763402 5.95224 0
M  V30 4818 H 464.258 1.33799 4.66075 0
M  V30 4819 N 465.601 -1.54893 0.290851 0
M  V30 4820 C 466.564 -2.21824 -0.576784 0
M  V30 4821 C 467.564 -1.20104 -1.06919 0
M  V30 4822 O 468.754 -1.44906 -0.966843 0
M  V30 4823 C 465.886 -2.89662 -1.79747 0
M  V30 4824 H 467.079 -2.99899 0.00784051 0
M  V30 4825 H 464.632 -1.56245 0.0415934 0
M  V30 4826 H 465.367 -2.15639 -2.42219 0
M  V30 4827 H 465.152 -3.64219 -1.45214 0
M  V30 4828 H 466.642 -3.4075 -2.4141 0
M  V30 4829 N 467.08 -0.0183926 -1.57589 0
M  V30 4830 C 468.027 0.967022 -2.09565 0
M  V30 4831 C 468.997 1.32983 -0.995225 0
M  V30 4832 O 470.182 1.42501 -1.26878 0
M  V30 4833 C 467.322 2.24772 -2.61861 0
M  V30 4834 C 466.435 1.94232 -3.85873 0
M  V30 4835 C 465.57 3.16518 -4.26603 0
M  V30 4836 C 464.609 2.81748 -5.43401 0
M  V30 4837 N 463.746 3.96626 -5.79338 0
M  V30 4838 H 468.586 0.516874 -2.93483 0
M  V30 4839 H 466.123 0.243544 -1.4507 0
M  V30 4840 H 468.081 2.99667 -2.90268 0
M  V30 4841 H 466.711 2.67423 -1.8079 0
M  V30 4842 H 465.763 1.09625 -3.64262 0
M  V30 4843 H 467.075 1.64616 -4.70853 0
M  V30 4844 H 466.229 3.99743 -4.56389 0
M  V30 4845 H 464.968 3.49286 -3.40368 0
M  V30 4846 H 463.973 1.96933 -5.1332 0
M  V30 4847 H 465.198 2.50207 -6.31327 0
M  V30 4848 H 463.144 4.29257 -4.96059 0
M  V30 4849 H 463.061 3.70598 -6.58933 0
M  V30 4850 H 464.329 4.80586 -6.13724 0
M  V30 4851 N 468.558 1.5553 0.254621 0
M  V30 4852 C 469.974 1.4778 0.602753 0
M  V30 4853 C 470.174 0.707047 1.88688 0
M  V30 4854 O 469.23 0.233288 2.5142 0
M  V30 4855 C 470.543 2.92133 0.712648 0
M  V30 4856 C 472.091 3.02458 0.805488 0
M  V30 4857 C 472.566 4.48102 0.947009 0
M  V30 4858 N 474.057 4.52008 1.01207 0
M  V30 4859 C 474.792 5.61939 1.1407 0
M  V30 4860 N 474.288 6.81697 1.23536 0
M  V30 4861 N 476.081 5.49719 1.17325 0
M  V30 4862 H 468.232 2.04085 -0.588463 0
M  V30 4863 H 470.495 0.926229 -0.202001 0
M  V30 4864 H 470.201 3.51332 -0.160766 0
M  V30 4865 H 470.075 3.42187 1.58707 0
M  V30 4866 H 472.462 2.43344 1.66936 0
M  V30 4867 H 472.543 2.55627 -0.0939266 0
M  V30 4868 H 472.187 5.07824 0.087725 0
M  V30 4869 H 472.117 4.92607 1.86135 0
M  V30 4870 H 474.608 3.65749 0.950577 0
M  V30 4871 H 474.921 7.61228 1.33236 0
M  V30 4872 H 473.266 6.84473 1.20508 0
M  V30 4873 H 476.457 4.55095 1.09573 0
M  V30 4874 H 476.63 6.35432 1.27005 0
M  V30 4875 N 470.036 -0.519951 1.48776 0
M  V30 4876 C 470.966 -1.63253 1.66945 0
M  V30 4877 C 471.947 -1.62014 0.518224 0
M  V30 4878 O 473.132 -1.79053 0.751919 0
M  V30 4879 C 470.262 -3.0181 1.71836 0
M  V30 4880 C 469.216 -3.17911 2.8656 0
M  V30 4881 C 468.542 -4.5763 2.76548 0
M  V30 4882 C 469.842 -2.99729 4.27738 0
M  V30 4883 H 471.536 -1.48302 2.6009 0
M  V30 4884 H 469.082 -0.712026 1.25165 0
M  V30 4885 H 471.035 -3.79525 1.83135 0
M  V30 4886 H 469.759 -3.17806 0.752775 0
M  V30 4887 H 468.418 -2.42616 2.74833 0
M  V30 4888 H 468.066 -4.70476 1.77937 0
M  V30 4889 H 467.766 -4.69346 3.53536 0
M  V30 4890 H 469.29 -5.37431 2.89828 0
M  V30 4891 H 470.704 -3.67228 4.40246 0
M  V30 4892 H 469.101 -3.22932 5.05801 0
M  V30 4893 H 470.171 -1.96047 4.43502 0
M  V30 4894 N 471.514 -1.37532 -0.769588 0
M  V30 4895 C 472.93 -1.18379 -1.07045 0
M  V30 4896 C 473.13 -0.0214312 -2.01489 0
M  V30 4897 O 472.186 0.637809 -2.44312 0
M  V30 4898 C 473.499 -2.50338 -1.66588 0
M  V30 4899 C 475.047 -2.56879 -1.78835 0
M  V30 4900 C 475.522 -3.88974 -2.41792 0
M  V30 4901 N 477.013 -3.90428 -2.4924 0
M  V30 4902 C 477.748 -4.89388 -2.98809 0
M  V30 4903 N 477.244 -5.98745 -3.48535 0
M  V30 4904 N 479.037 -4.76791 -2.97703 0
M  V30 4905 H 471.188 -2.11921 -0.142541 0
M  V30 4906 H 473.451 -0.939608 -0.125863 0
M  V30 4907 H 473.157 -3.35767 -1.0466 0
M  V30 4908 H 473.031 -2.67583 -2.65856 0
M  V30 4909 H 475.418 -1.71856 -2.39895 0
M  V30 4910 H 475.499 -2.43516 -0.783166 0
M  V30 4911 H 475.143 -4.74412 -1.81371 0
M  V30 4912 H 475.073 -3.99641 -3.4292 0
M  V30 4913 H 477.564 -3.11433 -2.14052 0
M  V30 4914 H 477.877 -6.70205 -3.84767 0
M  V30 4915 H 476.222 -6.02387 -3.46634 0
M  V30 4916 H 479.413 -3.90478 -2.58157 0
M  V30 4917 H 479.586 -5.54069 -3.36024 0
M  V30 4918 N 472.992 0.995999 -1.22138 0
M  V30 4919 C 474.217 1.77601 -1.0711 0
M  V30 4920 C 474.642 1.84339 0.374264 0
M  V30 4921 O 474 1.29359 1.27028 0
M  V30 4922 C 474.048 3.18897 -1.68336 0
M  V30 4923 O 473.152 4.01663 -0.934928 0
M  V30 4924 H 472.493 0.547011 -0.376397 0
M  V30 4925 H 475.023 1.25137 -1.6187 0
M  V30 4926 H 475.033 3.69539 -1.72931 0
M  V30 4927 H 473.708 3.13308 -2.73516 0
M  V30 4928 H 472.285 3.60204 -0.964751 0
M  V30 4929 N 474.47 1.03057 1.19235 0
M  V30 4930 C 475.403 0.557384 2.21288 0
M  V30 4931 C 476.381 -0.402675 1.57535 0
M  V30 4932 O 477.565 -0.319376 1.85775 0
M  V30 4933 C 474.692 -0.187041 3.38183 0
M  V30 4934 C 473.738 0.72471 4.20298 0
M  V30 4935 S 474.571 2.20187 4.88137 0
M  V30 4936 C 475.727 1.46801 6.08441 0
M  V30 4937 H 475.96 1.42207 2.61083 0
M  V30 4938 H 473.493 0.840651 1.29508 0
M  V30 4939 H 475.451 -0.610405 4.05936 0
M  V30 4940 H 474.112 -1.02748 2.96819 0
M  V30 4941 H 473.305 0.149911 5.03777 0
M  V30 4942 H 472.907 1.08647 3.57871 0
M  V30 4943 H 475.199 0.755522 6.73274 0
M  V30 4944 H 476.142 2.27946 6.70407 0
M  V30 4945 H 476.55 0.964762 5.56195 0
M  V30 4946 N 475.948 -1.35272 0.808662 0
M  V30 4947 C 476.898 -2.27181 0.193124 0
M  V30 4948 C 477.882 -1.47871 -0.634265 0
M  V30 4949 O 479.074 -1.70048 -0.491182 0
M  V30 4950 C 476.203 -3.36979 -0.655751 0
M  V30 4951 C 475.289 -4.23712 0.181481 0
M  V30 4952 N 475.68 -4.90225 1.24551 0
M  V30 4953 C 473.978 -4.45985 -0.0365493 0
M  V30 4954 C 474.679 -5.54537 1.75682 0
M  V30 4955 N 473.655 -5.33107 1.06294 0
M  V30 4956 H 477.457 -2.76101 1.00724 0
M  V30 4957 H 474.971 -1.48823 0.650029 0
M  V30 4958 H 476.968 -4.01774 -1.11279 0
M  V30 4959 H 475.628 -2.89611 -1.46819 0
M  V30 4960 H 476.639 -4.91641 1.62818 0
M  V30 4961 H 473.316 -4.09409 -0.817964 0
M  V30 4962 H 474.706 -6.17597 2.64621 0
M  V30 4963 N 477.426 -0.562348 -1.47226 0
M  V30 4964 C 478.672 -0.0402761 -2.0276 0
M  V30 4965 C 479.005 1.30823 -1.43523 0
M  V30 4966 O 478.28 1.85249 -0.592705 0
M  V30 4967 C 478.563 0.047311 -3.60069 0
M  V30 4968 C 478.416 -1.32865 -4.29729 0
M  V30 4969 C 479.735 0.758182 -4.3352 0
M  V30 4970 H 476.854 -0.0161105 -0.736824 0
M  V30 4971 H 479.496 -0.725628 -1.75598 0
M  V30 4972 H 477.646 0.630986 -3.83342 0
M  V30 4973 H 479.318 -1.95593 -4.17781 0
M  V30 4974 H 477.561 -1.90195 -3.89882 0
M  V30 4975 H 478.232 -1.22004 -5.38349 0
M  V30 4976 H 480.708 0.262546 -4.15271 0
M  V30 4977 H 479.584 0.78844 -5.43208 0
M  V30 4978 H 479.845 1.81537 -4.03109 0
M  V30 4979 N 478.904 1.54736 -0.299062 0
M  V30 4980 C 480.151 2.00101 0.310784 0
M  V30 4981 C 480.479 1.18746 1.54045 0
M  V30 4982 O 479.734 0.251198 1.94081 0
M  V30 4983 C 480.033 3.50199 0.713835 0
M  V30 4984 C 479.699 4.48997 -0.413873 0
M  V30 4985 C 478.361 4.7573 -0.723462 0
M  V30 4986 C 480.713 5.07839 -1.17257 0
M  V30 4987 C 478.041 5.5857 -1.79491 0
M  V30 4988 C 480.393 5.91844 -2.23392 0
M  V30 4989 C 479.057 6.16889 -2.54959 0
M  V30 4990 H 478.327 0.732221 0.113724 0
M  V30 4991 H 480.974 1.86888 -0.417756 0
M  V30 4992 H 479.279 3.61012 1.52243 0
M  V30 4993 H 480.976 3.82723 1.19684 0
M  V30 4994 H 477.566 4.28292 -0.162476 0
M  V30 4995 H 481.75 4.87188 -0.946651 0
M  V30 4996 H 477.006 5.76213 -2.04423 0
M  V30 4997 H 481.18 6.36465 -2.8264 0
M  V30 4998 H 478.807 6.80869 -3.38114 0
M  V30 4999 N 480.382 0.0267497 1.57577 0
M  V30 5000 C 481.631 -0.651736 1.9088 0
M  V30 5001 C 481.944 -1.73427 0.904576 0
M  V30 5002 O 483.15 -2.46923 1.12877 0
M  V30 5003 C 481.606 -1.21048 3.38933 0
M  V30 5004 C 481.214 -0.161362 4.47709 0
M  V30 5005 C 482.958 -1.86562 3.81307 0
M  V30 5006 C 480.865 -0.731611 5.86857 0
M  V30 5007 H 479.795 -0.247198 0.712326 0
M  V30 5008 H 482.446 0.0916641 1.83271 0
M  V30 5009 H 480.828 -2.00542 3.41466 0
M  V30 5010 H 482.002 0.61094 4.56732 0
M  V30 5011 H 480.317 0.394877 4.14523 0
M  V30 5012 H 482.914 -2.30178 4.8262 0
M  V30 5013 H 483.257 -2.70735 3.16241 0
M  V30 5014 H 483.79 -1.13762 3.81186 0
M  V30 5015 H 480.529 0.0719329 6.55461 0
M  V30 5016 H 480.049 -1.47245 5.81445 0
M  V30 5017 H 481.728 -1.22208 6.35354 0
M  V30 5018 N 481.861 -1.55662 -0.24637 0
M  V30 5019 C 482.791 -1.93377 -1.30873 0
M  V30 5020 C 483.772 -0.798773 -1.50179 0
M  V30 5021 O 484.957 -1.0591 -1.62778 0
M  V30 5022 C 482.087 -2.22893 -2.66338 0
M  V30 5023 C 481.041 -3.38649 -2.61727 0
M  V30 5024 C 480.367 -3.53708 -4.00992 0
M  V30 5025 C 481.667 -4.74323 -2.18666 0
M  V30 5026 H 483.361 -2.82363 -0.995552 0
M  V30 5027 H 480.907 -1.35854 -0.477464 0
M  V30 5028 H 482.86 -2.47866 -3.40794 0
M  V30 5029 H 481.584 -1.30733 -2.99293 0
M  V30 5030 H 480.243 -3.13685 -1.89729 0
M  V30 5031 H 479.891 -2.58967 -4.31214 0
M  V30 5032 H 479.591 -4.31551 -3.98795 0
M  V30 5033 H 481.115 -3.81003 -4.77147 0
M  V30 5034 H 482.529 -4.98665 -2.82854 0
M  V30 5035 H 480.926 -5.55273 -2.27579 0
M  V30 5036 H 481.996 -4.71349 -1.13834 0
M  V30 5037 N 483.339 0.512053 -1.4905 0
M  V30 5038 C 484.616 1.27337 -1.48474 0
M  V30 5039 C 484.996 2.1009 -0.206301 0
M  V30 5040 O 484.344 2.136 0.811609 0
M  V30 5041 C 484.554 2.13954 -2.75726 0
M  V30 5042 C 485.902 2.73507 -3.24776 0
M  V30 5043 O 486.926 2.24229 -2.76767 0
M  V30 5044 O 485.785 3.63186 -4.08361 0
M  V30 5045 H 482.879 0.575652 -0.593762 0
M  V30 5046 H 485.425 0.527232 -1.61302 0
M  V30 5047 H 484.197 1.52709 -3.60272 0
M  V30 5048 H 483.82 2.95782 -2.65705 0
M  V30 5049 N 484.817 1.37938 0.762283 0
M  V30 5050 C 486.047 1.36685 1.54922 0
M  V30 5051 C 486.455 -0.0474099 1.89141 0
M  V30 5052 O 485.798 -1.02213 1.52638 0
M  V30 5053 C 485.86 2.14963 2.88152 0
M  V30 5054 C 485.524 3.6385 2.76518 0
M  V30 5055 C 486.521 4.57531 2.46904 0
M  V30 5056 C 484.206 4.07095 2.94243 0
M  V30 5057 C 486.2 5.92436 2.35156 0
M  V30 5058 C 483.887 5.42083 2.82116 0
M  V30 5059 C 484.885 6.34567 2.52614 0
M  V30 5060 O 484.573 7.67073 2.40529 0
M  V30 5061 H 484.305 0.469586 0.486276 0
M  V30 5062 H 486.859 1.82012 0.951876 0
M  V30 5063 H 485.089 1.6434 3.50042 0
M  V30 5064 H 486.778 2.06224 3.49609 0
M  V30 5065 H 487.544 4.25428 2.32886 0
M  V30 5066 H 483.423 3.35462 3.16206 0
M  V30 5067 H 486.967 6.64591 2.12049 0
M  V30 5068 H 482.864 5.73785 2.95704 0
M  V30 5069 H 483.632 7.77499 2.55807 0
M  V30 5070 N 486.295 -0.989507 1.22664 0
M  V30 5071 C 487.572 -1.70326 0.961688 0
M  V30 5072 C 487.952 -2.04537 -0.522279 0
M  V30 5073 O 487.3 -1.73136 -1.49118 0
M  V30 5074 C 487.51 -2.95135 1.86269 0
M  V30 5075 C 488.858 -3.67842 2.12078 0
M  V30 5076 O 489.882 -3.0515 1.83745 0
M  V30 5077 O 488.741 -4.80644 2.60083 0
M  V30 5078 H 485.835 -0.743589 0.361946 0
M  V30 5079 H 488.381 -1.04555 1.33665 0
M  V30 5080 H 487.153 -2.66382 2.8663 0
M  V30 5081 H 486.776 -3.68645 1.48952 0
M  V30 5082 N 487.773 -1.03688 -1.18687 0
M  V30 5083 C 488.705 -0.582696 -2.21669 0
M  V30 5084 C 489.718 0.345656 -1.59088 0
M  V30 5085 O 490.907 0.140776 -1.77944 0
M  V30 5086 C 488.007 0.169204 -3.38477 0
M  V30 5087 C 487.18 -0.766079 -4.30639 0
M  V30 5088 C 486.239 -0.0581541 -5.26168 0
M  V30 5089 O 485.265 -0.687346 -5.65035 0
M  V30 5090 N 486.467 1.20981 -5.67753 0
M  V30 5091 H 489.232 -1.46843 -2.61261 0
M  V30 5092 H 486.793 -0.916896 -1.33434 0
M  V30 5093 H 488.785 0.652543 -3.99405 0
M  V30 5094 H 487.355 0.956435 -2.97609 0
M  V30 5095 H 486.575 -1.42935 -3.67373 0
M  V30 5096 H 487.863 -1.40146 -4.89118 0
M  V30 5097 H 487.261 1.74159 -5.38224 0
M  V30 5098 H 485.818 1.6375 -6.30896 0
M  V30 5099 N 489.251 1.34841 -0.815825 0
M  V30 5100 C 490.476 2.03261 -0.41226 0
M  V30 5101 C 490.901 1.61055 0.971751 0
M  V30 5102 O 490.259 0.7917 1.63101 0
M  V30 5103 C 490.307 3.56914 -0.514289 0
M  V30 5104 O 489.411 4.09728 0.468675 0
M  V30 5105 H 488.752 0.641664 -0.170771 0
M  V30 5106 H 491.282 1.72241 -1.10427 0
M  V30 5107 H 491.292 4.06156 -0.387457 0
M  V30 5108 H 489.967 3.86982 -1.52375 0
M  V30 5109 H 488.544 3.71681 0.301316 0
M  V30 5110 N 490.729 0.570148 1.46925 0
M  V30 5111 C 492.14 0.1402 1.86173 0
M  V30 5112 C 492.491 -1.29347 1.47526 0
M  V30 5113 O 491.616 -1.97508 0.884292 0
M  V30 5114 C 492.211 0.247661 3.37894 0
M  V30 5115 C 490.77 -0.127332 3.76185 0
M  V30 5116 C 489.917 0.589349 2.70965 0
M  V30 5117 H 492.868 0.779117 1.38259 0
M  V30 5118 H 492.889 -0.530341 3.76786 0
M  V30 5119 H 492.401 1.29121 3.65991 0
M  V30 5120 H 490.502 -1.17149 3.53704 0
M  V30 5121 H 490.615 0.240238 4.78497 0
M  V30 5122 H 488.979 0.0309824 2.54681 0
M  V30 5123 H 489.762 1.6343 3.01903 0
M  V30 5124 N 492.207 -1.54576 0.307264 0
M  V30 5125 C 493.17 -2.22423 -0.553224 0
M  V30 5126 C 494.17 -1.21231 -1.05639 0
M  V30 5127 O 495.36 -1.45923 -0.951419 0
M  V30 5128 C 492.492 -2.91552 -1.76664 0
M  V30 5129 H 493.685 -2.99874 0.0396484 0
M  V30 5130 H 491.238 -1.56192 0.0581629 0
M  V30 5131 H 491.973 -2.18196 -2.39918 0
M  V30 5132 H 491.758 -3.65738 -1.41343 0
M  V30 5133 H 493.248 -3.43292 -2.37783 0
M  V30 5134 N 493.685 -0.035106 -1.57561 0
M  V30 5135 C 494.933 0.64096 -1.91667 0
M  V30 5136 C 495.254 1.72323 -0.912681 0
M  V30 5137 O 494.524 1.95849 0.0449089 0
M  V30 5138 H 493.104 0.239743 -0.707483 0
M  V30 5139 H 495.766 -0.084321 -1.94718 0
M  V30 5140 H 494.862 1.08987 -2.92452 0
M  V30 5141 N 495.163 1.55791 0.238111 0
M  V30 5142 C 496.403 1.79801 0.972163 0
M  V30 5143 C 496.767 0.606027 1.82185 0
M  V30 5144 O 497.968 0.725079 2.58836 0
M  V30 5145 C 496.239 3.08608 1.80266 0
M  V30 5146 S 497.798 3.53872 2.59461 0
M  V30 5147 H 494.616 0.631418 0.326852 0
M  V30 5148 H 497.218 1.94031 0.239212 0
M  V30 5149 H 495.922 3.93419 1.1683 0
M  V30 5150 H 495.453 2.9714 2.57821 0
M  V30 5151 H 497.468 3.15899 3.82651 0
M  V30 5152 N 496.642 -0.504142 1.49319 0
M  V30 5153 C 498.058 -0.835039 1.36012 0
M  V30 5154 C 498.258 -1.97674 0.390808 0
M  V30 5155 O 497.314 -2.51867 -0.178655 0
M  V30 5156 C 498.627 -1.17821 2.76656 0
M  V30 5157 C 500.175 -1.2866 2.85334 0
M  V30 5158 C 500.65 -1.66307 4.26739 0
M  V30 5159 N 502.141 -1.73362 4.29534 0
M  V30 5160 C 502.876 -2.0393 5.35911 0
M  V30 5161 N 502.372 -2.32744 6.52535 0
M  V30 5162 N 504.165 -2.05155 5.23324 0
M  V30 5163 H 496.316 0.248764 2.10938 0
M  V30 5164 H 498.579 0.0486962 0.946748 0
M  V30 5165 H 498.285 -0.412682 3.4927 0
M  V30 5166 H 498.159 -2.12239 3.11825 0
M  V30 5167 H 500.546 -2.04285 2.1296 0
M  V30 5168 H 500.627 -0.323004 2.53752 0
M  V30 5169 H 500.271 -0.91234 4.99639 0
M  V30 5170 H 500.201 -2.63761 4.55782 0
M  V30 5171 H 502.692 -1.53268 3.45424 0
M  V30 5172 H 503.005 -2.55248 7.2943 0
M  V30 5173 H 501.35 -2.30207 6.55767 0
M  V30 5174 H 504.541 -1.82119 4.3122 0
M  V30 5175 H 504.714 -2.28644 6.06322 0
M  V30 5176 N 498.12 -1.38341 -0.754957 0
M  V30 5177 C 499.397 -1.24995 -1.50451 0
M  V30 5178 C 499.777 0.149244 -2.10572 0
M  V30 5179 O 499.125 1.15861 -1.96948 0
M  V30 5180 C 499.335 -2.35904 -2.57197 0
M  V30 5181 C 500.683 -2.74262 -3.24138 0
M  V30 5182 O 501.707 -2.35205 -2.67501 0
M  V30 5183 O 500.566 -3.4161 -4.26574 0
M  V30 5184 H 497.66 -0.48872 -0.667144 0
M  V30 5185 H 500.206 -1.50165 -0.790486 0
M  V30 5186 H 498.978 -3.2953 -2.11011 0
M  V30 5187 H 498.601 -2.12291 -3.36182 0
M  V30 5188 N 499.598 0.982988 -1.23187 0
M  V30 5189 C 500.561 2.05649 -1.01198 0
M  V30 5190 C 501.561 1.6078 0.0252464 0
M  V30 5191 O 502.751 1.72878 -0.214243 0
M  V30 5192 C 499.883 3.36744 -0.530656 0
M  V30 5193 H 501.076 2.2659 -1.96461 0
M  V30 5194 H 498.629 1.15602 -1.05195 0
M  V30 5195 H 499.364 3.21492 0.425873 0
M  V30 5196 H 499.149 3.7065 -1.2791 0
M  V30 5197 H 500.639 4.15705 -0.397366 0
M  V30 5198 N 501.076 1.04316 1.18135 0
M  V30 5199 C 502.006 0.657299 2.24058 0
M  V30 5200 C 502.987 -0.340678 1.66654 0
M  V30 5201 O 504.172 -0.220223 1.92947 0
M  V30 5202 C 501.302 0.0220715 3.47293 0
M  V30 5203 C 500.256 0.943857 4.17463 0
M  V30 5204 C 499.582 0.172973 5.3442 0
M  V30 5205 C 500.882 2.26409 4.70677 0
M  V30 5206 H 502.576 1.5428 2.56589 0
M  V30 5207 H 500.122 0.743263 1.23335 0
M  V30 5208 H 502.075 -0.259607 4.206 0
M  V30 5209 H 500.799 -0.898323 3.14003 0
M  V30 5210 H 499.458 1.20996 3.46057 0
M  V30 5211 H 499.106 -0.749907 4.97379 0
M  V30 5212 H 498.806 0.787098 5.82304 0
M  V30 5213 H 500.33 -0.101628 6.10515 0
M  V30 5214 H 501.744 2.04294 5.35665 0
M  V30 5215 H 500.141 2.8314 5.29105 0
M  V30 5216 H 501.211 2.90883 3.87962 0
M  V30 5217 N 502.554 -1.34406 0.822964 0
M  V30 5218 C 503.484 -2.32052 0.259608 0
M  V30 5219 C 504.465 -1.58243 -0.623961 0
M  V30 5220 O 505.65 -1.86224 -0.55083 0
M  V30 5221 C 502.78 -3.42434 -0.579314 0
M  V30 5222 C 501.734 -4.27499 0.20712 0
M  V30 5223 C 501.06 -5.29349 -0.754547 0
M  V30 5224 C 502.36 -5.02758 1.41533 0
M  V30 5225 H 504.054 -2.79418 1.07545 0
M  V30 5226 H 501.6 -1.34338 0.518593 0
M  V30 5227 H 503.553 -4.0976 -0.983612 0
M  V30 5228 H 502.277 -2.93717 -1.4282 0
M  V30 5229 H 500.936 -3.61776 0.592787 0
M  V30 5230 H 500.584 -4.76895 -1.59939 0
M  V30 5231 H 500.284 -5.8714 -0.232561 0
M  V30 5232 H 501.808 -5.99544 -1.1567 0
M  V30 5233 H 503.222 -5.62938 1.08504 0
M  V30 5234 H 501.619 -5.70123 1.87296 0
M  V30 5235 H 502.689 -4.32451 2.1935 0
M  V30 5236 N 504.032 -0.577932 -1.46621 0
M  V30 5237 C 504.964 0.195801 -2.28362 0
M  V30 5238 C 505.977 0.859983 -1.38232 0
M  V30 5239 O 507.166 0.730349 -1.62875 0
M  V30 5240 C 504.266 1.29639 -3.13124 0
M  V30 5241 C 503.439 0.725049 -4.31349 0
M  V30 5242 C 502.498 1.71274 -4.97546 0
M  V30 5243 O 501.524 1.25067 -5.5529 0
M  V30 5244 N 502.726 3.04672 -4.94121 0
M  V30 5245 H 505.491 -0.505468 -2.95407 0
M  V30 5246 H 503.052 -0.415381 -1.56481 0
M  V30 5247 H 505.044 1.95631 -3.54275 0
M  V30 5248 H 503.614 1.90059 -2.48186 0
M  V30 5249 H 502.834 -0.112205 -3.9404 0
M  V30 5250 H 504.122 0.323034 -5.07774 0
M  V30 5251 H 503.52 3.4484 -4.48444 0
M  V30 5252 H 502.077 3.66166 -5.39227 0
M  V30 5253 N 505.51 1.54411 -0.315457 0
M  V30 5254 C 506.44 2.27002 0.547039 0
M  V30 5255 C 507.421 1.27492 1.12605 0
M  V30 5256 O 508.606 1.5629 1.15269 0
M  V30 5257 C 505.736 3.02171 1.71201 0
M  V30 5258 C 504.69 4.0895 1.26268 0
M  V30 5259 C 504.016 4.71915 2.51396 0
M  V30 5260 C 505.316 5.20891 0.383419 0
M  V30 5261 H 507.01 2.99343 -0.0584517 0
M  V30 5262 H 504.556 1.4397 -0.0295527 0
M  V30 5263 H 506.509 3.51681 2.32161 0
M  V30 5264 H 505.233 2.27433 2.34397 0
M  V30 5265 H 503.892 3.60312 0.676062 0
M  V30 5266 H 503.54 3.93801 3.12937 0
M  V30 5267 H 503.24 5.44039 2.22026 0
M  V30 5268 H 504.764 5.24195 3.13133 0
M  V30 5269 H 506.178 5.66206 0.899082 0
M  V30 5270 H 504.575 5.99821 0.182857 0
M  V30 5271 H 505.645 4.81324 -0.587821 0
M  V30 5272 N 506.988 0.0434614 1.5754 0
M  V30 5273 C 508.216 -0.641835 1.96693 0
M  V30 5274 C 508.631 -1.64832 0.920652 0
M  V30 5275 O 507.988 -1.82247 -0.095993 0
M  V30 5276 C 508.039 -1.33557 3.35924 0
M  V30 5277 O 507.76 -0.369403 4.3654 0
M  V30 5278 C 509.261 -2.11135 3.89791 0
M  V30 5279 H 506.481 -0.176013 0.647503 0
M  V30 5280 H 509.025 0.107478 2.04217 0
M  V30 5281 H 507.18 -2.03617 3.29574 0
M  V30 5282 H 507.594 -0.863674 5.1734 0
M  V30 5283 H 509.068 -2.55107 4.89514 0
M  V30 5284 H 509.545 -2.95634 3.24803 0
M  V30 5285 H 510.151 -1.46002 3.99454 0
M  V30 5286 N 508.466 -1.55915 -0.229846 0
M  V30 5287 C 509.691 -1.8296 -0.976743 0
M  V30 5288 C 510.116 -0.622735 -1.77493 0
M  V30 5289 O 509.474 0.428431 -1.76165 0
M  V30 5290 C 509.522 -3.07916 -1.8767 0
M  V30 5291 O 508.626 -2.86028 -2.97088 0
M  V30 5292 H 507.967 -0.603453 -0.277021 0
M  V30 5293 H 510.497 -2.0312 -0.245669 0
M  V30 5294 H 510.507 -3.37802 -2.2881 0
M  V30 5295 H 509.182 -3.95389 -1.28996 0
M  V30 5296 H 507.759 -2.67355 -2.59954 0
M  V30 5297 N 509.944 0.496216 -1.49584 0
M  V30 5298 C 511.192 1.24756 -1.58998 0
M  V30 5299 C 511.513 1.92968 -0.280775 0
M  V30 5300 O 510.783 1.82959 0.700198 0
M  V30 5301 H 509.363 0.463471 -0.585836 0
M  V30 5302 H 512.025 0.574678 -1.86235 0
M  V30 5303 H 511.121 2.00895 -2.38847 0
M  V30 5304 N 511.423 1.38739 0.74761 0
M  V30 5305 C 512.356 1.3083 1.86972 0
M  V30 5306 C 513.334 0.184229 1.61553 0
M  V30 5307 O 514.518 0.36256 1.8498 0
M  V30 5308 C 511.645 1.02854 3.22705 0
M  V30 5309 C 510.691 2.17281 3.67003 0
M  V30 5310 S 511.524 3.79468 3.77842 0
M  V30 5311 C 512.68 3.53692 5.16385 0
M  V30 5312 H 512.913 2.258 1.93395 0
M  V30 5313 H 510.446 1.24646 0.911199 0
M  V30 5314 H 512.404 0.87397 4.01089 0
M  V30 5315 H 511.065 0.0959295 3.13953 0
M  V30 5316 H 510.258 1.93267 4.65472 0
M  V30 5317 H 509.86 2.28876 2.9579 0
M  V30 5318 H 512.152 3.10176 6.02327 0
M  V30 5319 H 513.095 4.51576 5.45422 0
M  V30 5320 H 513.503 2.8807 4.85464 0
M  V30 5321 N 512.901 -0.976442 1.23707 0
M  V30 5322 C 514.147 -1.72081 1.07312 0
M  V30 5323 C 514.48 -1.90275 -0.388476 0
M  V30 5324 O 513.755 -1.4579 -1.28746 0
M  V30 5325 C 514.038 -3.11675 1.80363 0
M  V30 5326 C 513.891 -3.01027 3.3422 0
M  V30 5327 C 515.21 -4.1117 1.5693 0
M  V30 5328 H 512.329 -0.624583 0.391236 0
M  V30 5329 H 514.971 -1.13649 1.52263 0
M  V30 5330 H 513.121 -3.61559 1.42153 0
M  V30 5331 H 514.793 -2.58637 3.81975 0
M  V30 5332 H 513.036 -2.3744 3.63049 0
M  V30 5333 H 513.707 -3.9988 3.80525 0
M  V30 5334 H 516.183 -3.7011 1.90151 0
M  V30 5335 H 515.059 -5.06928 2.10513 0
M  V30 5336 H 515.32 -4.392 0.505548 0
M  V30 5337 N 514.379 -1.04941 -1.1758 0
M  V30 5338 C 515.311 -0.606174 -2.21039 0
M  V30 5339 C 516.324 0.328763 -1.59446 0
M  V30 5340 O 517.513 0.121895 -1.78083 0
M  V30 5341 C 514.613 0.133294 -3.38638 0
M  V30 5342 C 513.786 -0.811711 -4.29802 0
M  V30 5343 C 512.845 -0.113958 -5.26077 0
M  V30 5344 O 511.871 -0.747237 -5.64274 0
M  V30 5345 N 513.073 1.14953 -5.69004 0
M  V30 5346 H 515.838 -1.49606 -2.59689 0
M  V30 5347 H 513.399 -0.930997 -1.32454 0
M  V30 5348 H 515.391 0.610144 -4.00074 0
M  V30 5349 H 513.961 0.924816 -2.98607 0
M  V30 5350 H 513.181 -1.46824 -3.65837 0
M  V30 5351 H 514.469 -1.45326 -4.87604 0
M  V30 5352 H 513.867 1.68441 -5.40041 0
M  V30 5353 H 512.424 1.57049 -6.32597 0
M  V30 5354 N 515.857 1.33968 -0.830081 0
M  V30 5355 C 517.085 2.0228 -0.434773 0
M  V30 5356 C 517.5 1.62487 0.961419 0
M  V30 5357 O 516.857 0.833849 1.62337 0
M  V30 5358 C 516.908 3.5751 -0.535625 0
M  V30 5359 O 516.629 3.95864 -1.87679 0
M  V30 5360 C 518.13 4.43091 -0.136137 0
M  V30 5361 H 515.35 0.648151 -0.173613 0
M  V30 5362 H 517.894 1.71089 -1.12022 0
M  V30 5363 H 516.049 3.87266 0.101817 0
M  V30 5364 H 516.463 4.9056 -1.85609 0
M  V30 5365 H 517.937 5.51398 -0.257772 0
M  V30 5366 H 518.414 4.29433 0.921076 0
M  V30 5367 H 519.02 4.18677 -0.747662 0
M  V30 5368 N 517.335 0.585699 1.46312 0
M  V30 5369 C 518.285 -0.166813 2.27389 0
M  V30 5370 C 519.269 -0.859076 1.36047 0
M  V30 5371 O 520.461 -0.752678 1.60199 0
M  V30 5372 C 517.59 -1.17791 3.2246 0
M  V30 5373 C 516.676 -0.487605 4.21288 0
M  V30 5374 N 517.067 0.45849 5.03718 0
M  V30 5375 C 515.365 -0.737971 4.39852 0
M  V30 5376 C 516.066 0.862213 5.75275 0
M  V30 5377 N 515.042 0.210707 5.43191 0
M  V30 5378 H 518.844 0.560167 2.88512 0
M  V30 5379 H 516.358 0.407715 1.57199 0
M  V30 5380 H 518.355 -1.73122 3.79255 0
M  V30 5381 H 517.015 -1.90568 2.62896 0
M  V30 5382 H 518.026 0.834163 5.11138 0
M  V30 5383 H 514.703 -1.45209 3.91434 0
M  V30 5384 H 516.093 1.64128 6.51546 0
M  V30 5385 N 518.813 -1.54241 0.323641 0
M  V30 5386 C 520.059 -2.00867 -0.279323 0
M  V30 5387 C 520.392 -1.21146 -1.5178 0
M  V30 5388 O 519.667 -0.29378 -1.92269 0
M  V30 5389 C 519.95 -3.54837 -0.613387 0
M  V30 5390 C 519.803 -4.45284 0.635803 0
M  V30 5391 C 521.122 -4.16186 -1.43099 0
M  V30 5392 H 518.241 -0.730177 -0.100049 0
M  V30 5393 H 520.883 -1.84829 0.440235 0
M  V30 5394 H 519.033 -3.68634 -1.22641 0
M  V30 5395 H 520.705 -4.43357 1.27406 0
M  V30 5396 H 518.948 -4.14956 1.26466 0
M  V30 5397 H 519.619 -5.5084 0.357597 0
M  V30 5398 H 522.095 -4.05964 -0.912814 0
M  V30 5399 H 520.971 -5.24031 -1.6335 0
M  V30 5400 H 521.232 -3.69516 -2.42715 0
M  V30 5401 N 520.291 -0.0518155 -1.57515 0
M  V30 5402 C 521.519 0.631395 -1.9703 0
M  V30 5403 C 521.934 1.64341 -0.92938 0
M  V30 5404 O 521.291 1.82296 0.0863266 0
M  V30 5405 C 521.342 1.31774 -3.36627 0
M  V30 5406 O 521.063 0.346247 -4.3673 0
M  V30 5407 C 522.564 2.09065 -3.90905 0
M  V30 5408 H 519.784 0.172576 -0.648428 0
M  V30 5409 H 522.328 -0.118306 -2.04158 0
M  V30 5410 H 520.483 2.01867 -3.30649 0
M  V30 5411 H 520.897 0.836226 -5.17791 0
M  V30 5412 H 522.371 2.52508 -4.9086 0
M  V30 5413 H 522.848 2.93908 -3.26366 0
M  V30 5414 H 523.454 1.43882 -4.00223 0
M  V30 5415 N 521.769 1.56035 0.221574 0
M  V30 5416 C 522.997 1.8313 0.962864 0
M  V30 5417 C 523.412 0.630934 1.77946 0
M  V30 5418 O 522.769 -0.400519 1.78051 0
M  V30 5419 C 522.82 3.08742 1.88045 0
M  V30 5420 O 522.541 4.24147 1.09686 0
M  V30 5421 C 524.042 3.48824 2.73563 0
M  V30 5422 H 521.262 0.608775 0.282194 0
M  V30 5423 H 523.806 2.03124 0.23681 0
M  V30 5424 H 521.961 2.90723 2.56045 0
M  V30 5425 H 522.375 4.95505 1.71974 0
M  V30 5426 H 523.849 4.39752 3.3365 0
M  V30 5427 H 524.326 2.70575 3.45956 0
M  V30 5428 H 524.932 3.69282 2.10976 0
M  V30 5429 N 523.247 -0.488276 1.49845 0
M  V30 5430 C 524.658 -1.06955 1.53028 0
M  V30 5431 C 525.009 -1.9351 0.323797 0
M  V30 5432 O 524.134 -2.08891 -0.565116 0
M  V30 5433 C 524.729 -1.94643 2.77307 0
M  V30 5434 C 523.288 -2.4791 2.83227 0
M  V30 5435 C 522.435 -1.25833 2.47106 0
M  V30 5436 H 525.386 -0.271626 1.56358 0
M  V30 5437 H 525.407 -2.79496 2.5819 0
M  V30 5438 H 524.919 -1.31621 3.65099 0
M  V30 5439 H 523.02 -3.14535 1.99745 0
M  V30 5440 H 523.133 -2.84193 3.85709 0
M  V30 5441 H 521.497 -1.58764 1.99163 0
M  V30 5442 H 522.28 -0.644993 3.37186 0
M  V30 5443 N 524.725 -1.39134 -0.740242 0
M  V30 5444 C 525.973 -1.35803 -1.49673 0
M  V30 5445 C 526.294 0.0470897 -1.94943 0
M  V30 5446 O 525.564 0.997347 -1.68611 0
M  V30 5447 H 524.144 -0.499736 -0.555224 0
M  V30 5448 H 526.806 -1.73947 -0.879107 0
M  V30 5449 H 525.902 -2.0174 -2.38133 0
M  V30 5450 N 526.204 0.969867 -1.24223 0
M  V30 5451 C 527.429 1.75289 -1.10853 0
M  V30 5452 C 527.854 1.85091 0.335079 0
M  V30 5453 O 527.212 1.32024 1.24255 0
M  V30 5454 C 527.26 3.15255 -1.75062 0
M  V30 5455 O 526.364 3.99589 -1.01992 0
M  V30 5456 H 525.705 0.538904 -0.387915 0
M  V30 5457 H 528.235 1.21675 -1.64488 0
M  V30 5458 H 528.245 3.65787 -1.80731 0
M  V30 5459 H 526.92 3.07436 -2.801 0
M  V30 5460 H 525.497 3.58077 -1.04094 0
M  V30 5461 N 527.682 1.05563 1.17022 0
M  V30 5462 C 528.931 0.763036 1.8671 0
M  V30 5463 C 529.244 -0.712857 1.82147 0
M  V30 5464 O 530.45 -1.11955 2.47343 0
M  V30 5465 C 528.906 1.31474 3.35026 0
M  V30 5466 C 528.514 2.82034 3.48081 0
M  V30 5467 C 530.258 1.09935 4.10018 0
M  V30 5468 C 528.165 3.30486 4.90442 0
M  V30 5469 H 527.095 0.281747 0.699382 0
M  V30 5470 H 529.746 1.2734 1.32124 0
M  V30 5471 H 528.128 0.732171 3.89173 0
M  V30 5472 H 529.302 3.46178 3.04133 0
M  V30 5473 H 527.617 3.02156 2.86515 0
M  V30 5474 H 530.214 1.43632 5.15048 0
M  V30 5475 H 530.557 0.0373072 4.16283 0
M  V30 5476 H 531.09 1.64732 3.62089 0
M  V30 5477 H 527.829 4.36137 4.89352 0
M  V30 5478 H 527.349 2.71086 5.35044 0
M  V30 5479 H 529.028 3.25382 5.59227 0
M  V30 5480 N 529.16 -1.33526 0.837174 0
M  V30 5481 C 530.571 -1.80182 0.489017 0
M  V30 5482 C 530.922 -1.69285 -0.991826 0
M  V30 5483 O 530.047 -1.24113 -1.77271 0
M  V30 5484 C 530.642 -3.27149 0.880866 0
M  V30 5485 C 529.201 -3.71828 0.584872 0
M  V30 5486 C 528.348 -2.54974 1.09011 0
M  V30 5487 H 531.299 -1.21071 1.02603 0
M  V30 5488 H 531.32 -3.80024 0.190239 0
M  V30 5489 H 530.832 -3.35048 1.95869 0
M  V30 5490 H 528.933 -3.69457 -0.48295 0
M  V30 5491 H 529.046 -4.65366 1.13892 0
M  V30 5492 H 527.41 -2.4952 0.511047 0
M  V30 5493 H 528.193 -2.65637 2.17467 0
M  V30 5494 N 530.638 -0.59345 -1.46 0
M  V30 5495 C 531.866 -0.0890934 -2.06708 0
M  V30 5496 C 532.281 1.2205 -1.44046 0
M  V30 5497 O 531.638 1.74029 -0.549551 0
M  V30 5498 C 531.689 0.0720263 -3.61428 0
M  V30 5499 O 531.41 -1.18574 -4.21748 0
M  V30 5500 C 532.911 0.609487 -4.3909 0
M  V30 5501 H 530.131 -0.0623628 -0.668096 0
M  V30 5502 H 532.675 -0.817171 -1.87464 0
M  V30 5503 H 530.83 0.750369 -3.80063 0
M  V30 5504 H 531.244 -1.0064 -5.14754 0
M  V30 5505 H 532.718 0.671363 -5.47902 0
M  V30 5506 H 533.195 1.62878 -4.07882 0
M  V30 5507 H 533.801 -0.03434 -4.25286 0
M  V30 5508 N 532.116 1.54067 -0.331816 0
M  V30 5509 C 533.365 1.99895 0.269209 0
M  V30 5510 C 533.678 1.22371 1.52593 0
M  V30 5511 O 534.884 1.58618 2.20347 0
M  V30 5512 C 533.34 3.55972 0.530244 0
M  V30 5513 C 532.948 4.4234 -0.709901 0
M  V30 5514 C 534.692 4.10247 1.09077 0
M  V30 5515 C 532.599 5.89905 -0.420312 0
M  V30 5516 H 531.529 0.746741 0.104371 0
M  V30 5517 H 534.18 1.78014 -0.445324 0
M  V30 5518 H 532.562 3.73873 1.30518 0
M  V30 5519 H 533.736 4.36215 -1.48504 0
M  V30 5520 H 532.051 3.98997 -1.19123 0
M  V30 5521 H 534.648 5.18095 1.32219 0
M  V30 5522 H 534.991 3.62739 2.0427 0
M  V30 5523 H 535.524 3.96011 0.376824 0
M  V30 5524 H 532.263 6.41623 -1.34164 0
M  V30 5525 H 531.783 5.98962 0.316962 0
M  V30 5526 H 533.462 6.46991 -0.0331956 0
M  V30 5527 N 533.594 0.0601682 1.57485 0
M  V30 5528 C 534.834 -0.615384 1.94916 0
M  V30 5529 C 535.198 -1.67475 0.938948 0
M  V30 5530 O 536.399 -2.40502 1.20051 0
M  V30 5531 C 534.67 -1.18788 3.37082 0
M  V30 5532 S 536.229 -1.88018 3.96478 0
M  V30 5533 H 533.047 -0.201821 0.681754 0
M  V30 5534 H 535.649 0.131252 1.95059 0
M  V30 5535 H 534.353 -0.404869 4.08398 0
M  V30 5536 H 533.884 -1.97114 3.40455 0
M  V30 5537 H 535.899 -3.16161 3.82435 0
M  V30 5538 N 535.072 -1.5615 -0.213296 0
M  V30 5539 C 536.349 -1.70349 -0.961281 0
M  V30 5540 C 536.729 -0.609791 -2.02101 0
M  V30 5541 O 536.077 0.381987 -2.25285 0
M  V30 5542 C 536.287 -3.11982 -1.56424 0
M  V30 5543 C 537.635 -3.71649 -2.05334 0
M  V30 5544 O 538.659 -3.14995 -1.66302 0
M  V30 5545 O 537.518 -4.71038 -2.77102 0
M  V30 5546 H 534.612 -0.694121 -0.449582 0
M  V30 5547 H 537.158 -1.68464 -0.204426 0
M  V30 5548 H 535.93 -3.83046 -0.799457 0
M  V30 5549 H 535.553 -3.18019 -2.38641 0
M  V30 5550 N 536.55 0.480323 -1.50102 0
M  V30 5551 C 537.48 1.58769 -1.71215 0
M  V30 5552 C 538.461 1.60583 -0.560997 0
M  V30 5553 O 539.646 1.76996 -0.799127 0
M  V30 5554 C 536.776 2.97148 -1.79778 0
M  V30 5555 C 535.73 3.10201 -2.94888 0
M  V30 5556 C 535.056 4.50137 -2.88584 0
M  V30 5557 C 536.356 2.88283 -4.35534 0
M  V30 5558 H 538.05 1.41354 -2.6393 0
M  V30 5559 H 535.596 0.678591 -1.27008 0
M  V30 5560 H 537.549 3.74536 -1.93133 0
M  V30 5561 H 536.273 3.15699 -0.836772 0
M  V30 5562 H 534.932 2.35244 -2.81169 0
M  V30 5563 H 534.58 4.65593 -1.90349 0
M  V30 5564 H 534.28 4.59808 -3.65856 0
M  V30 5565 H 535.804 5.29558 -3.03976 0
M  V30 5566 H 537.218 3.55427 -4.49827 0
M  V30 5567 H 535.615 3.09408 -5.14186 0
M  V30 5568 H 536.685 1.84219 -4.48544 0
M  V30 5569 N 538.028 1.39524 0.732853 0
M  V30 5570 C 538.991 1.38189 1.82857 0
M  V30 5571 C 539.991 0.278624 1.58368 0
M  V30 5572 O 541.181 0.536639 1.65728 0
M  V30 5573 C 538.313 1.15661 3.2068 0
M  V30 5574 H 539.506 2.35692 1.85444 0
M  V30 5575 H 537.059 1.2512 0.936728 0
M  V30 5576 H 537.794 0.188482 3.23752 0
M  V30 5577 H 537.579 1.95559 3.39852 0
M  V30 5578 H 539.069 1.17472 4.00737 0
M  V30 5579 N 539.506 -0.963266 1.24736 0
M  V30 5580 C 540.922 -1.23273 1.01371 0
M  V30 5581 C 541.122 -1.99618 -0.274776 0
M  V30 5582 O 540.178 -2.32293 -0.989769 0
M  V30 5583 C 541.491 -2.01554 2.23152 0
M  V30 5584 C 543.039 -2.14629 2.27823 0
M  V30 5585 C 543.514 -2.96307 3.49237 0
M  V30 5586 N 545.005 -3.03887 3.49581 0
M  V30 5587 C 545.74 -3.67456 4.40186 0
M  V30 5588 N 545.236 -4.32706 5.41052 0
M  V30 5589 N 547.029 -3.64511 4.27888 0
M  V30 5590 H 539.18 -0.452294 2.07528 0
M  V30 5591 H 541.443 -0.262521 0.910926 0
M  V30 5592 H 541.149 -1.52847 3.1675 0
M  V30 5593 H 541.023 -3.02278 2.25628 0
M  V30 5594 H 543.41 -2.62537 1.34753 0
M  V30 5595 H 543.491 -1.13238 2.2937 0
M  V30 5596 H 543.135 -2.49091 4.42624 0
M  V30 5597 H 543.065 -3.97905 3.44933 0
M  V30 5598 H 545.556 -2.57477 2.76611 0
M  V30 5599 H 545.869 -4.79042 6.06415 0
M  V30 5600 H 544.214 -4.31361 5.44934 0
M  V30 5601 H 547.405 -3.12715 3.4832 0
M  V30 5602 H 547.578 -4.13768 4.98698 0
M  V30 5603 N 540.985 -1.06182 -1.16461 0
M  V30 5604 C 542.213 -0.798583 -1.90867 0
M  V30 5605 C 542.628 0.646921 -1.77371 0
M  V30 5606 O 541.985 1.44279 -1.11758 0
M  V30 5607 C 542.036 -1.18258 -3.4161 0
M  V30 5608 O 541.757 -2.57135 -3.54701 0
M  V30 5609 C 543.258 -0.946917 -4.33069 0
M  V30 5610 H 540.478 -0.289603 -0.605286 0
M  V30 5611 H 543.022 -1.41515 -1.47627 0
M  V30 5612 H 541.177 -0.610562 -3.82558 0
M  V30 5613 H 541.591 -2.72477 -4.4817 0
M  V30 5614 H 543.065 -1.26523 -5.37304 0
M  V30 5615 H 543.542 0.117406 -4.39043 0
M  V30 5616 H 544.148 -1.50326 -3.97847 0
M  V30 5617 N 542.463 1.3308 -0.844243 0
M  V30 5618 C 543.71 1.97605 -0.44255 0
M  V30 5619 C 544.038 1.66856 0.999458 0
M  V30 5620 O 543.293 0.943586 1.7145 0
M  V30 5621 C 543.592 3.52045 -0.616354 0
M  V30 5622 C 543.258 4.02757 -2.02726 0
M  V30 5623 C 541.92 4.16316 -2.41317 0
M  V30 5624 C 544.272 4.29776 -2.9486 0
M  V30 5625 C 541.6 4.54232 -3.71335 0
M  V30 5626 C 543.952 4.69146 -4.24364 0
M  V30 5627 C 542.616 4.80911 -4.62904 0
M  V30 5628 H 541.886 0.723088 -0.161941 0
M  V30 5629 H 544.533 1.58663 -1.0723 0
M  V30 5630 H 542.838 3.91681 0.0966812 0
M  V30 5631 H 544.535 3.99981 -0.285756 0
M  V30 5632 H 541.125 3.9268 -1.71756 0
M  V30 5633 H 545.309 4.18818 -2.6628 0
M  V30 5634 H 540.565 4.61535 -4.00993 0
M  V30 5635 H 544.739 4.89008 -4.95827 0
M  V30 5636 H 542.366 5.10048 -5.63698 0
M  V30 5637 N 543.941 0.601185 1.45683 0
M  V30 5638 C 544.904 -0.111398 2.28929 0
M  V30 5639 C 545.904 -0.801246 1.39416 0
M  V30 5640 O 547.094 -0.650383 1.61603 0
M  V30 5641 C 544.226 -1.16773 3.20276 0
M  V30 5642 H 545.419 0.620412 2.93413 0
M  V30 5643 H 542.972 0.359946 1.52099 0
M  V30 5644 H 543.707 -1.93051 2.60579 0
M  V30 5645 H 543.492 -0.677358 3.86205 0
M  V30 5646 H 544.982 -1.66698 3.82886 0
M  V30 5647 N 545.419 -1.53889 0.339982 0
M  V30 5648 C 546.835 -1.59595 -0.0120752 0
M  V30 5649 C 547.035 -1.35605 -1.49042 0
M  V30 5650 O 546.091 -1.14856 -2.24865 0
M  V30 5651 C 547.404 -2.9774 0.420898 0
M  V30 5652 C 548.952 -3.1077 0.37294 0
M  V30 5653 C 549.427 -4.51286 0.781327 0
M  V30 5654 N 550.918 -4.57325 0.735374 0
M  V30 5655 C 551.653 -5.64194 1.02336 0
M  V30 5656 N 551.149 -6.7893 1.37933 0
M  V30 5657 N 552.942 -5.54051 0.947838 0
M  V30 5658 H 545.093 -1.67738 1.30299 0
M  V30 5659 H 547.356 -0.785385 0.530918 0
M  V30 5660 H 547.062 -3.20349 1.45152 0
M  V30 5661 H 546.936 -3.76639 -0.205721 0
M  V30 5662 H 549.323 -2.87886 -0.648505 0
M  V30 5663 H 549.404 -2.33939 1.03472 0
M  V30 5664 H 549.048 -4.74905 1.80077 0
M  V30 5665 H 548.978 -5.26511 0.0970679 0
M  V30 5666 H 551.469 -3.74931 0.472773 0
M  V30 5667 H 551.782 -7.56392 1.58402 0
M  V30 5668 H 550.127 -6.80386 1.41774 0
M  V30 5669 H 553.318 -4.63293 0.669115 0
M  V30 5670 H 553.491 -6.37246 1.17563 0
M  V30 5671 N 546.897 -0.0685191 -1.57451 0
M  V30 5672 C 547.807 0.914677 -2.16034 0
M  V30 5673 C 548.823 1.32938 -1.12265 0
M  V30 5674 O 549.999 1.40275 -1.44516 0
M  V30 5675 C 547.064 2.16519 -2.70777 0
M  V30 5676 C 546.125 1.80721 -3.89408 0
M  V30 5677 C 545.358 2.9981 -4.41531 0
M  V30 5678 O 545.581 4.13727 -3.92666 0
M  V30 5679 O 544.515 2.79817 -5.32903 0
M  V30 5680 H 548.341 0.446364 -3.00402 0
M  V30 5681 H 545.926 0.154367 -1.486 0
M  V30 5682 H 547.808 2.89856 -3.05878 0
M  V30 5683 H 546.483 2.62454 -1.89471 0
M  V30 5684 H 545.39 1.04646 -3.59166 0
M  V30 5685 H 546.723 1.39571 -4.71997 0
M  V30 5686 N 548.375 1.56261 0.205012 0
M  V30 5687 C 549.308 1.88797 1.28183 0
M  V30 5688 C 550.286 0.747018 1.44424 0
M  V30 5689 O 551.47 0.997039 1.59973 0
M  V30 5690 C 548.597 2.10949 2.64987 0
M  V30 5691 C 547.643 3.33649 2.6567 0
M  V30 5692 S 548.476 4.89078 2.18088 0
M  V30 5693 C 549.632 5.14286 3.56736 0
M  V30 5694 H 549.865 2.79837 1.00393 0
M  V30 5695 H 547.398 1.48911 0.408042 0
M  V30 5696 H 549.356 2.24395 3.4374 0
M  V30 5697 H 548.017 1.20678 2.89993 0
M  V30 5698 H 547.21 3.46245 3.66239 0
M  V30 5699 H 546.812 3.19146 1.94992 0
M  V30 5700 H 549.104 5.04198 4.52537 0
M  V30 5701 H 550.047 6.16096 3.49043 0
M  V30 5702 H 550.455 4.41957 3.51189 0
M  V30 5703 N 549.853 -0.472356 1.50355 0
M  V30 5704 C 551.101 -1.22211 1.60962 0
M  V30 5705 C 551.422 -1.92497 0.311439 0
M  V30 5706 O 550.692 -1.8405 -0.671002 0
M  V30 5707 H 549.272 -0.454092 0.593135 0
M  V30 5708 H 551.934 -0.544977 1.87126 0
M  V30 5709 H 551.03 -1.9707 2.42012 0
M  V30 5710 N 551.331 -1.39911 -0.725443 0
M  V30 5711 C 552.241 -1.41688 -1.8698 0
M  V30 5712 C 553.257 -0.310579 -1.71206 0
M  V30 5713 O 554.433 -0.55359 -1.93642 0
M  V30 5714 C 551.498 -1.26811 -3.22676 0
M  V30 5715 C 550.559 -2.47497 -3.50776 0
M  V30 5716 C 549.792 -2.3332 -4.79997 0
M  V30 5717 O 550.015 -1.34175 -5.54394 0
M  V30 5718 O 548.949 -3.22498 -5.08211 0
M  V30 5719 H 552.775 -2.38171 -1.88436 0
M  V30 5720 H 550.36 -1.21128 -0.874548 0
M  V30 5721 H 552.242 -1.20684 -4.03749 0
M  V30 5722 H 550.917 -0.334289 -3.21969 0
M  V30 5723 H 549.824 -2.59201 -2.69751 0
M  V30 5724 H 551.157 -3.39606 -3.5627 0
M  V30 5725 N 552.809 0.956637 -1.25245 0
M  V30 5726 C 553.772 2.03457 -1.05537 0
M  V30 5727 C 554.772 1.60798 -0.00886317 0
M  V30 5728 O 555.962 1.72384 -0.250865 0
M  V30 5729 C 553.094 3.35543 -0.601965 0
M  V30 5730 H 554.287 2.22372 -2.01223 0
M  V30 5731 H 551.84 1.13344 -1.07623 0
M  V30 5732 H 552.575 3.22323 0.357584 0
M  V30 5733 H 552.36 3.67854 -1.35743 0
M  V30 5734 H 553.85 4.14769 -0.485454 0
M  V30 5735 N 554.287 1.06798 1.15896 0
M  V30 5736 C 555.235 0.677525 2.22514 0
M  V30 5737 C 556.229 -0.308994 1.66558 0
M  V30 5738 O 557.435 -0.173308 1.79164 0
M  V30 5739 H 553.81 0.200994 0.724642 0
M  V30 5740 H 555.781 1.5865 2.52731 0
M  V30 5741 C 554.53 0.0854153 3.47595 0
M  V30 5742 H 553.853 0.835645 3.90969 0
M  V30 5743 H 555.293 -0.150199 4.23734 0
M  V30 5744 C 553.752 -1.1724 3.15843 0
M  V30 5745 O 554.282 -2.25965 3.32119 0
M  V30 5746 N 552.488 -1.07636 2.69931 0
M  V30 5747 H 552.035 -0.191559 2.56887 0
M  V30 5748 H 551.993 -1.91876 2.4906 0
M  V30 5749 O 555.804 -1.27943 0.985539 0
M  V30 5750 H 556.495 -1.83099 0.632003 0
M  V30 END ATOM
M  V30 BEGIN BOND
M  V30 END BOND
M  V30 END CTAB
M  END
$$$$
